# Generated by pormake.
# Topology tsx, (6,3)-cn, num edge types: 1
# Building blocks:
#     Node 0, Type 0, BuildingBlock: VOLQOD_clean_sbu_1, # of connection points: 6
#     Node 1, Type 0, BuildingBlock: VOLQOD_clean_sbu_1, # of connection points: 6
#     Node 2, Type 1, BuildingBlock: QEWDON_clean_linker_0, # of connection points: 3
#     Node 3, Type 1, BuildingBlock: QEWDON_clean_linker_0, # of connection points: 3
#     Node 4, Type 1, BuildingBlock: QEWDON_clean_linker_0, # of connection points: 3
#     Node 5, Type 1, BuildingBlock: QEWDON_clean_linker_0, # of connection points: 3
#     Edge 6, Type (0, 1), BuildingBlock: ZUJKAS_clean_linker_0, # of connection points: 2
#     Edge 7, Type (0, 1), BuildingBlock: ZUJKAS_clean_linker_0, # of connection points: 2
#     Edge 8, Type (0, 1), BuildingBlock: ZUJKAS_clean_linker_0, # of connection points: 2
#     Edge 9, Type (0, 1), BuildingBlock: ZUJKAS_clean_linker_0, # of connection points: 2
#     Edge 10, Type (0, 1), BuildingBlock: ZUJKAS_clean_linker_0, # of connection points: 2
#     Edge 11, Type (0, 1), BuildingBlock: ZUJKAS_clean_linker_0, # of connection points: 2
#     Edge 12, Type (0, 1), BuildingBlock: ZUJKAS_clean_linker_0, # of connection points: 2
#     Edge 13, Type (0, 1), BuildingBlock: ZUJKAS_clean_linker_0, # of connection points: 2
#     Edge 14, Type (0, 1), BuildingBlock: ZUJKAS_clean_linker_0, # of connection points: 2
#     Edge 15, Type (0, 1), BuildingBlock: ZUJKAS_clean_linker_0, # of connection points: 2
#     Edge 16, Type (0, 1), BuildingBlock: ZUJKAS_clean_linker_0, # of connection points: 2
#     Edge 17, Type (0, 1), BuildingBlock: ZUJKAS_clean_linker_0, # of connection points: 2
# Relax obj value: 0.077
# Max RMSD: 0.180
# Mean RMSD: 0.150
data_MOF--net-tsx--node1-VOLQOD_clean_sbu_1--node2-QEWDON_clean_linker_0--edge1-ZUJKAS_clean_linker_0
_symmetry_space_group_name_H-M    P1
_symmetry_Int_Tables_number       1
_symmetry_cell_setting            triclinic
loop_
_symmetry_equiv_pos_as_xyz
'x, y, z'
_cell_length_a     28.207495
_cell_length_b     29.150196
_cell_length_c     48.429527
_cell_angle_alpha  90.221029
_cell_angle_beta   101.90782
_cell_angle_gamma 90.117298
loop_
_atom_site_label
_atom_site_type_symbol
_atom_site_fract_x
_atom_site_fract_y
_atom_site_fract_z
_atom_type_partial_charge
O0 O 0.04383 1.00004 0.06432 0.0
Zn1 Zn 0.05485 1.00037 0.02427 0.0
O2 O 0.99421 0.0083 -0.00353 0.0
Zn3 Zn 0.98353 0.95406 0.97182 0.0
Zn4 Zn 0.941 0.01527 0.0161 0.0
Zn5 Zn 0.99686 0.06357 0.97407 0.0
O6 O 0.97322 0.97249 0.93078 0.0
O7 O 0.98994 0.04712 0.93321 0.0
O8 O 0.09111 0.9434 0.01641 0.0
O9 O 0.04281 0.91335 0.97866 0.0
O10 O 0.92675 0.91635 0.97909 0.0
O11 O 0.89727 0.96059 0.00899 0.0
O12 O 0.90255 0.07337 0.00568 0.0
O13 O 0.09912 0.05328 0.02197 0.0
O14 O 0.94281 0.108 0.97685 0.0
O15 O 0.06058 0.09656 0.9868 0.0
C16 C 0.00625 0.00907 0.07411 0.0
C17 C 0.97931 0.01042 0.91891 0.0
C18 C 0.89607 0.9238 0.99461 0.0
C19 C 0.08229 0.91294 -0.00295 0.0
C20 C 0.90816 0.10718 0.99007 0.0
C21 C 0.09742 0.08837 0.00625 0.0
O22 O 0.96565 0.01695 0.05781 0.0
O23 O 0.57424 0.51117 0.56995 0.0
Zn24 Zn 0.58165 0.50827 0.529 0.0
O25 O 0.51803 0.51244 0.50323 0.0
Zn26 Zn 0.50201 0.45682 0.48036 0.0
Zn27 Zn 0.46814 0.52196 0.52481 0.0
Zn28 Zn 0.51831 0.56417 0.47816 0.0
O29 O 0.49557 0.46979 0.43861 0.0
O30 O 0.51759 0.54294 0.43881 0.0
O31 O 0.61466 0.44864 0.5218 0.0
O32 O 0.55802 0.41394 0.48966 0.0
O33 O 0.44224 0.42361 0.48811 0.0
O34 O 0.42401 0.46751 0.52192 0.0
O35 O 0.42609 0.57585 0.51072 0.0
O36 O 0.62465 0.56267 0.52362 0.0
O37 O 0.45921 0.60282 0.47629 0.0
O38 O 0.57722 0.60376 0.49055 0.0
C39 C 0.53857 0.52283 0.58091 0.0
C40 C 0.50601 0.50531 0.42574 0.0
C41 C 0.4165 0.4319 0.50634 0.0
C42 C 0.60003 0.4146 0.50556 0.0
C43 C 0.42632 0.60396 0.49072 0.0
C44 C 0.61703 0.5984 0.50818 0.0
O45 O 0.49691 0.53043 0.56568 0.0
H46 H 0.98832 0.05272 0.38195 0.0
C47 C 0.00534 0.02058 0.38955 0.0
C48 C 0.0169 0.98835 0.37032 0.0
C49 C 0.01759 0.01197 0.41866 0.0
H50 H 0.05278 0.92457 0.36567 0.0
C51 C 0.04113 0.94784 0.38046 0.0
C52 C 0.05391 0.9391 0.4095 0.0
C53 C 0.04055 0.97075 0.42833 0.0
C54 C 0.01056 0.04702 0.43954 0.0
H55 H 0.04934 0.96401 0.45081 0.0
C56 C 0.96515 0.06761 0.4384 0.0
C57 C 0.95856 0.09751 0.46008 0.0
C58 C 0.04951 0.05827 0.46179 0.0
H59 H 0.08498 0.0433 0.46287 0.0
C60 C 0.04303 0.08864 0.48294 0.0
H61 H 0.9348 0.0591 0.42146 0.0
C62 C 0.99767 0.10778 0.48219 0.0
H63 H 0.99289 0.13102 0.49873 0.0
H64 H 0.07306 0.09709 0.50004 0.0
H65 H 0.98222 0.09105 0.61925 0.0
C66 C 0.96999 0.06056 0.60691 0.0
C67 C 0.96284 0.01952 0.62055 0.0
C68 C 0.95745 0.0636 0.5774 0.0
H69 H 0.93988 0.9491 0.61478 0.0
C70 C 0.94556 0.9808 0.60425 0.0
C71 C 0.93253 0.98315 0.57471 0.0
C72 C 0.938 0.02505 0.56133 0.0
C73 C 0.95861 0.10892 0.56408 0.0
H74 H 0.92663 0.02784 0.53862 0.0
C75 C 0.0025 0.12838 0.56027 0.0
C76 C 0.00317 0.17267 0.5487 0.0
C77 C 0.91565 0.13421 0.55695 0.0
H78 H 0.88171 0.11995 0.56018 0.0
C79 C 0.91627 0.17836 0.54605 0.0
H80 H 0.03565 0.10871 0.56573 0.0
C81 C 0.95956 0.19742 0.5418 0.0
H82 H 0.95898 0.23175 0.53327 0.0
H83 H 0.88301 0.19783 0.54075 0.0
H84 H 0.53922 0.59875 0.88334 0.0
C85 C 0.55307 0.56824 0.89498 0.0
C86 C 0.56683 0.53026 0.88063 0.0
C87 C 0.56064 0.56856 0.92453 0.0
H88 H 0.59761 0.4627 0.88499 0.0
C89 C 0.58654 0.49178 0.89612 0.0
C90 C 0.59414 0.49113 0.92574 0.0
C91 C 0.58141 0.53011 0.9399 0.0
C92 C 0.55382 0.61194 0.939 0.0
H93 H 0.58829 0.53093 0.96275 0.0
C94 C 0.50776 0.62586 0.94273 0.0
C95 C 0.50165 0.66923 0.95465 0.0
C96 C 0.59355 0.64153 0.94687 0.0
H97 H 0.62904 0.63157 0.9437 0.0
C98 C 0.58766 0.68456 0.95829 0.0
H99 H 0.47712 0.60289 0.9366 0.0
C100 C 0.54219 0.69837 0.96216 0.0
H101 H 0.53864 0.73228 0.9707 0.0
H102 H 0.61846 0.70739 0.96404 0.0
H103 H 0.53353 0.53889 0.11994 0.0
C104 C 0.51626 0.50668 0.11236 0.0
C105 C 0.50973 0.47266 0.13175 0.0
C106 C 0.49867 0.49992 0.08328 0.0
H107 H 0.47984 0.4058 0.13669 0.0
C108 C 0.48598 0.43163 0.12176 0.0
C109 C 0.46746 0.42476 0.09287 0.0
C110 C 0.47477 0.45874 0.07378 0.0
C111 C 0.5021 0.53663 0.06269 0.0
H112 H 0.46011 0.45395 0.05145 0.0
C113 C 0.54587 0.56037 0.06345 0.0
C114 C 0.54911 0.59282 0.04257 0.0
C115 C 0.46143 0.5471 0.04144 0.0
H116 H 0.42702 0.53006 0.04068 0.0
C117 C 0.46467 0.57975 0.02097 0.0
H118 H 0.57758 0.5527 0.0796 0.0
C119 C 0.50839 0.60223 0.02142 0.0
H120 H 0.51052 0.62745 0.00548 0.0
H121 H 0.43328 0.58759 0.00468 0.0
H122 H 0.17595 0.08775 0.0499 0.0
H123 H 0.24215 0.14313 0.05982 0.0
H124 H 0.18026 0.21667 0.98386 0.0
H125 H 0.11292 0.16189 0.974 0.0
H126 H 0.31076 0.16953 0.02998 0.0
H127 H 0.19106 0.31508 0.04468 0.0
H128 H 0.17041 0.25633 0.04232 0.0
H129 H 0.17562 0.28698 0.01094 0.0
C130 C 0.17634 0.11559 0.0352 0.0
C131 C 0.13881 0.12069 0.0113 0.0
C132 C 0.21435 0.14712 0.04088 0.0
C133 C 0.2157 0.18429 0.02279 0.0
C134 C 0.1793 0.18868 -0.00163 0.0
H135 H 0.46432 0.37252 0.04515 0.0
H136 H 0.40496 0.31299 0.02621 0.0
C137 C 0.14096 0.15729 0.99275 0.0
C138 C 0.2544 0.21913 0.03031 0.0
H139 H 0.27411 0.33133 0.04949 0.0
C140 C 0.30288 0.20501 0.0341 0.0
C141 C 0.2438 0.2652 0.03593 0.0
C142 C 0.19246 0.28188 0.03353 0.0
C143 C 0.34117 0.23563 0.04389 0.0
C144 C 0.33049 0.28166 0.04949 0.0
C145 C 0.28206 0.29597 0.0451 0.0
C146 C 0.36864 0.31523 0.06144 0.0
C147 C 0.39252 0.21807 0.04916 0.0
C148 C 0.36765 0.3363 0.08738 0.0
C149 C 0.40082 0.37073 0.09798 0.0
C150 C 0.43585 0.38473 0.08288 0.0
C151 C 0.43761 0.36267 0.05721 0.0
C152 C 0.40407 0.32835 0.04649 0.0
H153 H 0.39391 0.18 0.05005 0.0
H154 H 0.4099 0.22932 0.03175 0.0
H155 H 0.41405 0.23208 0.06924 0.0
H156 H 0.34042 0.32675 0.09917 0.0
H157 H 0.3977 0.38757 0.1175 0.0
H158 H 0.07986 0.84767 0.95583 0.0
H159 H 0.14513 0.79638 0.94921 0.0
H160 H 0.23614 0.84964 0.02519 0.0
H161 H 0.17108 0.90087 0.03214 0.0
H162 H 0.23647 0.82518 0.94216 0.0
H163 H 0.2533 0.71044 0.03467 0.0
H164 H 0.20052 0.74556 0.0224 0.0
H165 H 0.25453 0.77041 0.04343 0.0
C166 C 0.11345 0.84805 0.97142 0.0
C167 C 0.12009 0.87853 0.99455 0.0
C168 C 0.15078 0.8187 0.96755 0.0
C169 C 0.19535 0.81878 0.98684 0.0
C170 C 0.20175 0.84832 0.0103 0.0
H171 H 0.48292 0.7154 0.00049 0.0
H172 H 0.40607 0.74735 0.00689 0.0
C173 C 0.16452 0.87781 0.01416 0.0
C174 C 0.23636 0.79065 0.98134 0.0
H175 H 0.3184 0.70896 0.01002 0.0
C176 C 0.25404 0.79932 0.9568 0.0
C177 C 0.25928 0.75703 0.00049 0.0
C178 C 0.24073 0.7449 0.02661 0.0
C179 C 0.2952 0.77671 0.95145 0.0
C180 C 0.31874 0.74366 0.97088 0.0
C181 C 0.30033 0.7342 0.9951 0.0
C182 C 0.36442 0.72101 0.96744 0.0
C183 C 0.31435 0.78997 0.92569 0.0
C184 C 0.3665 0.69438 0.94345 0.0
C185 C 0.41073 0.6764 0.93954 0.0
C186 C 0.45366 0.68456 0.95962 0.0
C187 C 0.45085 0.7094 0.98423 0.0
C188 C 0.4068 0.72737 0.98807 0.0
H189 H 0.29898 0.82301 0.91664 0.0
H190 H 0.35446 0.79298 0.93081 0.0
H191 H 0.30431 0.76306 0.90924 0.0
H192 H 0.33406 0.68814 0.92752 0.0
H193 H 0.41151 0.65741 0.92038 0.0
H194 H 0.83674 0.92283 0.03245 0.0
H195 H 0.78341 0.86146 0.0413 0.0
H196 H 0.82054 0.78177 0.97361 0.0
H197 H 0.87564 0.84281 0.9651 0.0
H198 H 0.7049 0.82521 0.00873 0.0
H199 H 0.84457 0.68993 0.03703 0.0
H200 H 0.85993 0.74942 0.03344 0.0
H201 H 0.8414 0.71391 0.00262 0.0
C202 C 0.83363 0.89237 0.01931 0.0
C203 C 0.86073 0.88771 -0.00189 0.0
C204 C 0.80311 0.85721 0.02448 0.0
C205 C 0.79868 0.81662 0.00852 0.0
C206 C 0.82443 0.81228 0.98672 0.0
H207 H 0.60699 0.58393 0.00471 0.0
H208 H 0.67322 0.63537 -0.0011 0.0
C209 C 0.85552 0.84738 0.98169 0.0
C210 C 0.76615 0.77965 0.0146 0.0
H211 H 0.76274 0.6672 0.03388 0.0
C212 C 0.71765 0.79071 0.01429 0.0
C213 C 0.78287 0.73466 0.02197 0.0
C214 C 0.83513 0.72125 0.02407 0.0
C215 C 0.68531 0.7581 0.02101 0.0
C216 C 0.70201 0.71319 0.02839 0.0
C217 C 0.75028 0.70179 0.02836 0.0
C218 C 0.66905 0.67742 0.0352 0.0
C219 C 0.63349 0.77214 0.02002 0.0
C220 C 0.64694 0.6826 0.05849 0.0
C221 C 0.60985 0.65279 0.06211 0.0
C222 C 0.59445 0.61771 0.0424 0.0
C223 C 0.61861 0.61079 0.02015 0.0
C224 C 0.6562 0.64011 0.01681 0.0
H225 H 0.62314 0.80242 0.00625 0.0
H226 H 0.60787 0.74375 0.01234 0.0
H227 H 0.62937 0.78145 0.04164 0.0
H228 H 0.65688 0.71092 0.0731 0.0
H229 H 0.59134 0.65872 0.07929 0.0
H230 H 0.89151 0.17288 0.94905 0.0
H231 H 0.83643 0.23812 0.94534 0.0
H232 H 0.79463 0.19733 0.0225 0.0
H233 H 0.84813 0.13074 0.02564 0.0
H234 H 0.71804 0.2222 0.98645 0.0
H235 H 0.85618 0.35653 0.98683 0.0
H236 H 0.85613 0.31684 0.95851 0.0
H237 H 0.87216 0.29741 0.99454 0.0
C238 C 0.8707 0.17784 0.96528 0.0
C239 C 0.87444 0.14669 0.98771 0.0
C240 C 0.83948 0.21547 0.96328 0.0
C241 C 0.81223 0.22356 0.98406 0.0
C242 C 0.81548 0.19215 0.00631 0.0
H243 H 0.66633 0.49074 0.97362 0.0
H244 H 0.71603 0.42541 0.99369 0.0
C245 C 0.8461 0.15404 0.00806 0.0
C246 C 0.77921 0.26387 0.98199 0.0
H247 H 0.77339 0.37907 0.96922 0.0
C248 C 0.73035 0.2566 0.98307 0.0
C249 C 0.79523 0.30915 0.9784 0.0
C250 C 0.84791 0.32051 0.97985 0.0
C251 C 0.69677 0.29278 0.97921 0.0
C252 C 0.71197 0.33729 0.9731 0.0
C253 C 0.7613 0.34496 0.97348 0.0
C254 C 0.67719 0.37553 0.96415 0.0
C255 C 0.6454 0.28273 0.98187 0.0
C256 C 0.63789 0.36927 0.94138 0.0
C257 C 0.60885 0.40629 0.93033 0.0
C258 C 0.61909 0.45088 0.94122 0.0
C259 C 0.6571 0.45688 0.96484 0.0
C260 C 0.68587 0.41957 0.97616 0.0
H261 H 0.64431 0.25444 -0.00296 0.0
H262 H 0.62779 0.31337 0.98896 0.0
H263 H 0.62407 0.27145 0.96107 0.0
H264 H 0.6309 0.33613 0.93119 0.0
H265 H 0.57948 0.40026 0.9124 0.0
H266 H 0.60976 0.68159 0.48168 0.0
H267 H 0.66893 0.74375 0.48802 0.0
H268 H 0.76833 0.66155 0.54725 0.0
H269 H 0.70869 0.59921 0.54152 0.0
H270 H 0.75916 0.74684 0.56726 0.0
H271 H 0.7915 0.76029 0.45862 0.0
H272 H 0.72853 0.76419 0.45986 0.0
H273 H 0.7609 0.71179 0.4702 0.0
C274 C 0.64436 0.67637 0.49588 0.0
C275 C 0.65438 0.6352 0.51108 0.0
C276 C 0.6784 0.71196 0.49928 0.0
C277 C 0.72353 0.70711 0.51768 0.0
C278 C 0.73388 0.66597 0.53275 0.0
H279 H 0.96251 0.89413 0.57951 0.0
H280 H 0.91413 0.82594 0.56277 0.0
C281 C 0.69972 0.63034 0.52946 0.0
C282 C 0.75836 0.74617 0.52271 0.0
H283 H 0.81972 0.82313 0.48979 0.0
C284 C 0.77278 0.76313 0.55035 0.0
C285 C 0.77601 0.76768 0.50061 0.0
C286 C 0.76383 0.74979 0.47071 0.0
C287 C 0.80335 0.80151 0.5564 0.0
C288 C 0.82048 0.82331 0.53428 0.0
C289 C 0.80641 0.80635 0.50666 0.0
C290 C 0.85284 0.86395 0.53985 0.0
C291 C 0.81629 0.81915 0.58637 0.0
C292 C 0.83538 0.90779 0.53122 0.0
C293 C 0.86306 0.94692 0.54071 0.0
C294 C 0.90854 0.94263 0.55898 0.0
C295 C 0.92736 0.89847 0.56569 0.0
C296 C 0.89977 0.85951 0.5562 0.0
H297 H 0.79271 0.80422 0.5998 0.0
H298 H 0.85437 0.80991 0.59568 0.0
H299 H 0.81333 0.85711 0.5869 0.0
H300 H 0.79924 0.91186 0.51852 0.0
H301 H 0.84748 0.98047 0.53536 0.0
H302 H 0.587 0.34664 0.46595 0.0
H303 H 0.64332 0.28655 0.45959 0.0
H304 H 0.7443 0.33387 0.53366 0.0
H305 H 0.68841 0.39565 0.53971 0.0
H306 H 0.78837 0.32096 0.49126 0.0
H307 H 0.67684 0.16745 0.49907 0.0
H308 H 0.64581 0.20611 0.4728 0.0
H309 H 0.66025 0.22381 0.50928 0.0
C310 C 0.62087 0.34406 0.4812 0.0
C311 C 0.63313 0.37598 0.50343 0.0
C312 C 0.65294 0.30932 0.47761 0.0
C313 C 0.69761 0.30501 0.49647 0.0
C314 C 0.7098 0.33635 0.51897 0.0
H315 H 0.90242 0.08374 0.4983 0.0
H316 H 0.83403 0.13097 0.50522 0.0
C317 C 0.67786 0.37161 0.52241 0.0
C318 C 0.73289 0.27006 0.49124 0.0
H319 H 0.74485 0.15634 0.47686 0.0
C320 C 0.77897 0.28491 0.48838 0.0
C321 C 0.72088 0.22288 0.48782 0.0
C322 C 0.67343 0.20408 0.49272 0.0
C323 C 0.81292 0.25416 0.4815 0.0
C324 C 0.79979 0.20753 0.47636 0.0
C325 C 0.75429 0.19234 0.48004 0.0
C326 C 0.83415 0.17372 0.46881 0.0
C327 C 0.8628 0.27186 0.4803 0.0
C328 C 0.85438 0.18005 0.4449 0.0
C329 C 0.89289 0.15262 0.4407 0.0
C330 C 0.91136 0.11863 0.46036 0.0
C331 C 0.88858 0.10992 0.48296 0.0
C332 C 0.84976 0.13693 0.48695 0.0
H333 H 0.87122 0.30443 0.49233 0.0
H334 H 0.89116 0.24637 0.48888 0.0
H335 H 0.86457 0.2787 0.45801 0.0
H336 H 0.84192 0.20756 0.43025 0.0
H337 H 0.91016 0.15982 0.42316 0.0
H338 H 0.36458 0.43349 0.54796 0.0
H339 H 0.29832 0.38337 0.55377 0.0
H340 H 0.31107 0.30852 0.47868 0.0
H341 H 0.37865 0.35829 0.47294 0.0
H342 H 0.21198 0.37326 0.51818 0.0
H343 H 0.30571 0.2052 0.53441 0.0
H344 H 0.33811 0.25899 0.53638 0.0
H345 H 0.31157 0.23431 0.50266 0.0
C346 C 0.35367 0.40624 0.53269 0.0
C347 C 0.37702 0.40005 0.50991 0.0
C348 C 0.3157 0.37752 0.5361 0.0
C349 C 0.29994 0.34186 0.51686 0.0
C350 C 0.32322 0.33523 0.49414 0.0
H351 H 0.01459 0.21809 0.50129 0.0
H352 H 0.08728 0.25598 0.49251 0.0
C353 C 0.36164 0.36391 0.49077 0.0
C354 C 0.25744 0.31363 0.52007 0.0
H355 H 0.22035 0.20438 0.53033 0.0
C356 C 0.21386 0.33632 0.5208 0.0
C357 C 0.26004 0.26549 0.52384 0.0
C358 C 0.30645 0.23949 0.52456 0.0
C359 C 0.17289 0.31238 0.52521 0.0
C360 C 0.17506 0.26412 0.52831 0.0
C361 C 0.21865 0.24131 0.5277 0.0
C362 C 0.13241 0.23718 0.53259 0.0
C363 C 0.12801 0.33925 0.52724 0.0
C364 C 0.13414 0.21221 0.55753 0.0
C365 C 0.09255 0.19015 0.56257 0.0
C366 C 0.04853 0.19285 0.54276 0.0
C367 C 0.0476 0.21629 0.5173 0.0
C368 C 0.08915 0.23793 0.51221 0.0
H369 H 0.13633 0.37608 0.53196 0.0
H370 H 0.10177 0.33714 0.50677 0.0
H371 H 0.11037 0.32509 0.54386 0.0
H372 H 0.16725 0.211 0.57349 0.0
H373 H 0.09444 0.17238 0.58236 0.0
H374 H 0.36027 0.62936 0.52206 0.0
H375 H 0.29313 0.68317 0.50876 0.0
H376 H 0.33386 0.70576 0.42875 0.0
H377 H 0.40189 0.65333 0.44221 0.0
H378 H 0.31649 0.78415 0.45227 0.0
H379 H 0.16543 0.66341 0.45485 0.0
H380 H 0.20878 0.66584 0.48763 0.0
H381 H 0.22676 0.64436 0.45645 0.0
C382 C 0.35487 0.64578 0.50163 0.0
C383 C 0.38635 0.63712 0.48318 0.0
C384 C 0.31623 0.67616 0.49396 0.0
C385 C 0.30792 0.69766 0.46753 0.0
C386 C 0.3395 0.68929 0.44919 0.0
H387 H 0.0531 0.85177 0.38762 0.0
H388 H 0.11372 0.79177 0.40198 0.0
C389 C 0.37844 0.65943 0.45696 0.0
C390 C 0.26772 0.73057 0.45937 0.0
H391 H 0.14525 0.74297 0.4509 0.0
C392 C 0.27903 0.77505 0.45184 0.0
C393 C 0.21881 0.71838 0.4584 0.0
C394 C 0.20409 0.67026 0.46448 0.0
C395 C 0.24287 0.80796 0.44371 0.0
C396 C 0.19425 0.79646 0.44405 0.0
C397 C 0.1827 0.75177 0.45108 0.0
C398 C 0.15507 0.8306 0.43701 0.0
C399 C 0.25711 0.85445 0.43434 0.0
C400 C 0.15748 0.87146 0.45256 0.0
C401 C 0.12371 0.90604 0.4441 0.0
C402 C 0.0861 0.90003 0.42025 0.0
C403 C 0.0821 0.85783 0.40574 0.0
C404 C 0.11642 0.8234 0.41404 0.0
H405 H 0.29222 0.85311 0.42736 0.0
H406 H 0.22908 0.86801 0.41675 0.0
H407 H 0.26128 0.87887 0.45231 0.0
H408 H 0.18647 0.87721 0.47074 0.0
H409 H 0.12847 0.93818 0.45562 0.0
H410 H 0.93136 0.01431 0.10168 0.0
H411 H 0.93549 0.0178 0.15235 0.0
H412 H 0.09151 0.01249 0.1674 0.0
H413 H 0.08775 0.00786 0.11645 0.0
H414 H 0.05595 0.95455 0.20097 0.0
H415 H 0.97144 0.12459 0.20567 0.0
H416 H 0.93372 0.0871 0.18099 0.0
H417 H 0.99193 0.10456 0.17482 0.0
C418 C 0.96667 0.01412 0.11569 0.0
C419 C 0.00928 0.01098 0.10498 0.0
C420 C 0.96893 0.01654 0.14469 0.0
C421 C 0.01381 0.01656 0.16363 0.0
C422 C 0.05649 0.013 0.1531 0.0
H423 H 0.04393 0.06465 0.34493 0.0
H424 H 0.04363 0.0742 0.29457 0.0
C425 C 0.05427 0.01024 0.124 0.0
C426 C 0.01575 0.01769 0.19443 0.0
H427 H 0.97413 0.07588 0.24595 0.0
C428 C 0.03853 0.98135 0.21086 0.0
C429 C 0.99372 0.05308 0.20742 0.0
C430 C 0.9718 0.09478 0.19135 0.0
C431 C 0.03827 0.97848 0.23971 0.0
C432 C 0.01336 0.01221 0.25227 0.0
C433 C 0.99232 0.04958 0.23614 0.0
C434 C 0.00876 0.00896 0.28211 0.0
C435 C 0.06496 0.93942 0.25646 0.0
C436 C 0.98726 0.97016 0.29152 0.0
C437 C 0.98763 0.9646 0.32015 0.0
C438 C 0.00868 0.99816 0.33979 0.0
C439 C 0.02717 0.03847 0.33014 0.0
C440 C 0.02727 0.0438 0.30147 0.0
H441 H 0.09358 0.92532 0.24618 0.0
H442 H 0.082 0.95052 0.27822 0.0
H443 H 0.03899 0.9113 0.25787 0.0
H444 H 0.9715 0.9435 0.2768 0.0
H445 H 0.97279 0.93341 0.3271 0.0
H446 H 0.98673 0.08553 0.88643 0.0
H447 H 0.98555 0.08753 0.83593 0.0
H448 H 0.9641 0.94102 0.83073 0.0
H449 H 0.96561 0.93842 0.88143 0.0
H450 H 0.03886 0.97516 0.80391 0.0
H451 H 0.86544 0.06965 0.7715 0.0
H452 H 0.9088 0.09603 0.79949 0.0
H453 H 0.88255 0.04161 0.80526 0.0
C454 C 0.98144 0.05368 0.87459 0.0
C455 C 0.97609 0.01179 0.88801 0.0
C456 C 0.98066 0.05497 0.8457 0.0
C457 C 0.97431 0.01451 0.82963 0.0
C458 C 0.96892 0.97263 0.84284 0.0
H459 H 0.90019 0.9816 0.64987 0.0
H460 H 0.90649 0.98022 0.7008 0.0
C461 C 0.9696 0.97127 0.87177 0.0
C462 C 0.97408 0.01586 0.7991 0.0
H463 H 0.91154 0.0577 0.73644 0.0
C464 C 0.01107 0.99316 0.7891 0.0
C465 C 0.93758 0.03921 0.77994 0.0
C466 C 0.89606 0.06273 0.78945 0.0
C467 C 0.01261 0.99335 0.76031 0.0
C468 C 0.97647 0.01723 0.74122 0.0
C469 C 0.93944 0.03981 0.75124 0.0
C470 C 0.97458 0.01703 0.71049 0.0
C471 C 0.05215 0.9672 0.75041 0.0
C472 C 0.01086 0.03833 0.69908 0.0
C473 C 0.00756 0.03893 0.66983 0.0
C474 C 0.96795 0.01814 0.65165 0.0
C475 C 0.93173 0.99701 0.6633 0.0
C476 C 0.93502 0.99651 0.69239 0.0
H477 H 0.0715 0.94352 0.76685 0.0
H478 H 0.03701 0.94703 0.73109 0.0
H479 H 0.07893 0.99184 0.74512 0.0
H480 H 0.04133 0.05496 0.71275 0.0
H481 H 0.03592 0.05552 0.66144 0.0
H482 H 0.47229 0.55382 0.61032 0.0
H483 H 0.48005 0.5578 0.66128 0.0
H484 H 0.62519 0.50419 0.67317 0.0
H485 H 0.61811 0.50063 0.62189 0.0
H486 H 0.49642 0.4851 0.69845 0.0
H487 H 0.64181 0.61645 0.72549 0.0
H488 H 0.60859 0.60711 0.68984 0.0
H489 H 0.65632 0.5686 0.70528 0.0
C490 C 0.50611 0.54314 0.62367 0.0
C491 C 0.54464 0.52687 0.61196 0.0
C492 C 0.51041 0.54546 0.65283 0.0
C493 C 0.5533 0.53174 0.67098 0.0
C494 C 0.59207 0.51576 0.6595 0.0
H495 H 0.63616 0.50368 0.85215 0.0
H496 H 0.63173 0.5042 0.80125 0.0
C497 C 0.58787 0.51353 0.6302 0.0
C498 C 0.55619 0.53232 0.70186 0.0
H499 H 0.61724 0.57935 0.76374 0.0
C500 C 0.52272 0.50583 0.71274 0.0
C501 C 0.59055 0.55939 0.72039 0.0
C502 C 0.62614 0.58985 0.70972 0.0
C503 C 0.52304 0.50519 0.74173 0.0
C504 C 0.5573 0.53234 0.76024 0.0
C505 C 0.59092 0.55871 0.74942 0.0
C506 C 0.55961 0.53286 0.79104 0.0
C507 C 0.48742 0.47474 0.75239 0.0
C508 C 0.52068 0.5494 0.80216 0.0
C509 C 0.52294 0.54886 0.83129 0.0
C510 C 0.56419 0.53176 0.84972 0.0
C511 C 0.60345 0.51613 0.83846 0.0
C512 C 0.60118 0.51675 0.80942 0.0
H513 H 0.47133 0.44844 0.73651 0.0
H514 H 0.50511 0.45709 0.7721 0.0
H515 H 0.45753 0.49606 0.75714 0.0
H516 H 0.48858 0.56268 0.78831 0.0
H517 H 0.49221 0.56118 0.83936 0.0
H518 H 0.49287 0.42951 0.39112 0.0
H519 H 0.49978 0.42536 0.34157 0.0
H520 H 0.52809 0.57079 0.34198 0.0
H521 H 0.52181 0.57534 0.39138 0.0
H522 H 0.44659 0.47189 0.29465 0.0
H523 H 0.64215 0.51608 0.31247 0.0
H524 H 0.613 0.49902 0.34071 0.0
H525 H 0.60632 0.55656 0.32727 0.0
C526 C 0.50044 0.46064 0.38066 0.0
C527 C 0.50708 0.5027 0.39531 0.0
C528 C 0.50448 0.45817 0.35238 0.0
C529 C 0.51543 0.4976 0.33834 0.0
C530 C 0.5208 0.53977 0.35265 0.0
H531 H 0.48872 0.54853 0.16006 0.0
H532 H 0.49467 0.5563 0.21109 0.0
C533 C 0.51684 0.5423 0.38086 0.0
C534 C 0.52025 0.49495 0.30851 0.0
H535 H 0.59892 0.51426 0.2647 0.0
C536 C 0.47992 0.48096 0.28812 0.0
C537 C 0.56395 0.50661 0.30011 0.0
C538 C 0.609 0.52001 0.32129 0.0
C539 C 0.48186 0.47918 0.25943 0.0
C540 C 0.52512 0.49179 0.25103 0.0
C541 C 0.56572 0.5051 0.27135 0.0
C542 C 0.52854 0.49029 0.22107 0.0
C543 C 0.43776 0.46378 0.23815 0.0
C544 C 0.54715 0.45126 0.21015 0.0
C545 C 0.54388 0.44673 0.1811 0.0
C546 C 0.52208 0.48129 0.16259 0.0
C547 C 0.50619 0.52161 0.17383 0.0
C548 C 0.50926 0.52599 0.2029 0.0
H549 H 0.40795 0.45218 0.24831 0.0
H550 H 0.42435 0.49256 0.22371 0.0
H551 H 0.4475 0.43526 0.22512 0.0
H552 H 0.56215 0.42343 0.22398 0.0
H553 H 0.55662 0.41543 0.17298 0.0
loop_
_geom_bond_atom_site_label_1
_geom_bond_atom_site_label_2
_geom_bond_distance
_geom_bond_site_symmetry_2
_ccdc_geom_bond_type
O0 Zn1 1.953 . S
O0 C16 1.225 1_565 S
Zn1 O0 1.953 . S
Zn1 O2 1.949 1_565 S
Zn1 O8 1.919 . S
Zn1 O13 1.924 1_565 S
O2 Zn1 1.949 1_545 S
O2 Zn3 1.923 1_444 S
O2 Zn4 1.950 1_455 S
O2 Zn5 1.945 1_554 S
Zn3 O2 1.923 1_666 S
Zn3 O6 1.933 . S
Zn3 O9 1.941 1_655 S
Zn3 O10 1.965 . S
Zn4 O2 1.950 1_655 S
Zn4 O11 1.938 1_545 S
Zn4 O12 1.906 . S
Zn4 O22 1.953 . S
Zn5 O2 1.945 1_556 S
Zn5 O7 1.932 . S
Zn5 O14 1.977 1_455 S
Zn5 O15 1.910 . S
O6 Zn3 1.933 . S
O6 C17 1.226 1_565 S
O7 Zn5 1.932 . S
O7 C17 1.307 1_455 S
O8 Zn1 1.919 . S
O8 C19 1.253 . S
O9 Zn3 1.941 1_455 S
O9 C19 1.283 1_556 S
O10 Zn3 1.965 . S
O10 C18 1.303 1_556 S
O11 Zn4 1.938 1_565 S
O11 C18 1.247 . S
O12 Zn4 1.906 . S
O12 C20 1.304 1_554 S
O13 Zn1 1.924 1_545 S
O13 C21 1.311 . S
O14 Zn5 1.977 1_655 S
O14 C20 1.272 . S
O15 Zn5 1.910 . S
O15 C21 1.231 1_556 S
C16 O0 1.225 1_545 S
C16 O22 1.298 1_455 S
C17 O6 1.226 1_545 S
C17 O7 1.307 1_655 S
C18 O10 1.303 1_554 S
C18 O11 1.247 . S
C19 O8 1.253 . S
C19 O9 1.283 1_554 S
C20 O12 1.304 1_556 S
C20 O14 1.272 . S
C21 O13 1.311 . S
C21 O15 1.231 1_554 S
O22 Zn4 1.953 . S
O22 C16 1.298 1_655 S
O23 Zn24 1.953 . S
O23 C39 1.225 . S
Zn24 O23 1.953 . S
Zn24 O25 1.949 . S
Zn24 O31 1.919 . S
Zn24 O36 1.924 . S
O25 Zn24 1.949 . S
O25 Zn26 1.923 . S
O25 Zn27 1.950 . S
O25 Zn28 1.945 . S
Zn26 O25 1.923 . S
Zn26 O29 1.933 . S
Zn26 O32 1.941 . S
Zn26 O33 1.965 . S
Zn27 O25 1.950 . S
Zn27 O34 1.938 . S
Zn27 O35 1.906 . S
Zn27 O45 1.953 . S
Zn28 O25 1.945 . S
Zn28 O30 1.932 . S
Zn28 O37 1.977 . S
Zn28 O38 1.910 . S
O29 Zn26 1.933 . S
O29 C40 1.226 . S
O30 Zn28 1.932 . S
O30 C40 1.307 . S
O31 Zn24 1.919 . S
O31 C42 1.253 . S
O32 Zn26 1.941 . S
O32 C42 1.283 . S
O33 Zn26 1.965 . S
O33 C41 1.303 . S
O34 Zn27 1.938 . S
O34 C41 1.247 . S
O35 Zn27 1.906 . S
O35 C43 1.304 . S
O36 Zn24 1.924 . S
O36 C44 1.311 . S
O37 Zn28 1.977 . S
O37 C43 1.272 . S
O38 Zn28 1.910 . S
O38 C44 1.231 . S
C39 O23 1.225 . S
C39 O45 1.298 . S
C40 O29 1.226 . S
C40 O30 1.307 . S
C41 O33 1.303 . S
C41 O34 1.247 . S
C42 O31 1.253 . S
C42 O32 1.283 . S
C43 O35 1.304 . S
C43 O37 1.272 . S
C44 O36 1.311 . S
C44 O38 1.231 . S
O45 Zn27 1.953 . S
O45 C39 1.298 . S
H46 C47 0.949 1_655 S
C47 H46 0.949 1_455 S
C47 C48 1.395 . S
C47 C49 1.391 . S
C48 C47 1.395 . S
C48 C51 1.390 1_545 S
C49 C47 1.391 . S
C49 C53 1.387 1_545 S
C49 C54 1.491 . S
H50 C51 0.950 . S
C51 C48 1.390 1_565 S
C51 H50 0.950 . S
C51 C52 1.378 . S
C52 C51 1.378 . S
C52 C53 1.409 . S
C53 C49 1.387 1_565 S
C53 C52 1.409 . S
C53 H55 0.951 . S
C54 C49 1.491 . S
C54 C56 1.382 1_455 S
C54 C58 1.404 . S
H55 C53 0.951 . S
C56 C54 1.382 1_655 S
C56 C57 1.390 . S
C56 H61 0.949 . S
C57 C56 1.390 . S
C57 C62 1.399 . S
C58 C54 1.404 . S
C58 H59 0.950 . S
C58 C60 1.375 . S
H59 C58 0.950 . S
C60 C58 1.375 . S
C60 C62 1.382 1_455 S
C60 H64 0.950 . S
H61 C56 0.949 . S
C62 C57 1.399 . S
C62 C60 1.382 1_655 S
C62 H63 0.952 . S
H63 C62 0.952 . S
H64 C60 0.950 . S
H65 C66 0.949 . S
C66 H65 0.949 . S
C66 C67 1.395 1_455 S
C66 C68 1.391 1_455 S
C67 C66 1.395 1_655 S
C67 C70 1.390 1_545 S
C68 C66 1.391 1_655 S
C68 C72 1.387 1_545 S
C68 C73 1.491 1_655 S
H69 C70 0.950 . S
C70 C67 1.390 1_565 S
C70 H69 0.950 . S
C70 C71 1.378 . S
C71 C70 1.378 . S
C71 C72 1.409 . S
C72 C68 1.387 1_565 S
C72 C71 1.409 . S
C72 H74 0.951 . S
C73 C68 1.491 1_455 S
C73 C75 1.382 . S
C73 C77 1.404 1_455 S
H74 C72 0.951 . S
C75 C73 1.382 . S
C75 C76 1.390 . S
C75 H80 0.949 . S
C76 C75 1.390 . S
C76 C81 1.399 . S
C77 C73 1.404 1_655 S
C77 H78 0.950 . S
C77 C79 1.375 1_655 S
H78 C77 0.950 . S
C79 C77 1.375 1_455 S
C79 C81 1.382 . S
C79 H83 0.950 1_455 S
H80 C75 0.949 . S
C81 C76 1.399 . S
C81 C79 1.382 . S
C81 H82 0.952 . S
H82 C81 0.952 . S
H83 C79 0.950 1_655 S
H84 C85 0.949 . S
C85 H84 0.949 . S
C85 C86 1.395 . S
C85 C87 1.391 . S
C86 C85 1.395 . S
C86 C89 1.390 . S
C87 C85 1.391 . S
C87 C91 1.387 . S
C87 C92 1.491 . S
H88 C89 0.950 . S
C89 C86 1.390 . S
C89 H88 0.950 . S
C89 C90 1.378 . S
C90 C89 1.378 . S
C90 C91 1.409 . S
C91 C87 1.387 . S
C91 C90 1.409 . S
C91 H93 0.951 . S
C92 C87 1.491 . S
C92 C94 1.382 . S
C92 C96 1.404 . S
H93 C91 0.951 . S
C94 C92 1.382 . S
C94 C95 1.390 . S
C94 H99 0.949 . S
C95 C94 1.390 . S
C95 C100 1.399 . S
C96 C92 1.404 . S
C96 H97 0.950 . S
C96 C98 1.375 . S
H97 C96 0.950 . S
C98 C96 1.375 . S
C98 C100 1.382 . S
C98 H102 0.950 1_556 S
H99 C94 0.949 . S
C100 C95 1.399 . S
C100 C98 1.382 . S
C100 H101 0.952 . S
H101 C100 0.952 . S
H102 C98 0.950 1_554 S
H103 C104 0.949 . S
C104 H103 0.949 . S
C104 C105 1.395 . S
C104 C106 1.391 . S
C105 C104 1.395 . S
C105 C108 1.390 . S
C106 C104 1.391 . S
C106 C110 1.387 . S
C106 C111 1.491 . S
H107 C108 0.950 . S
C108 C105 1.390 . S
C108 H107 0.950 . S
C108 C109 1.378 . S
C109 C108 1.378 . S
C109 C110 1.409 . S
C110 C106 1.387 . S
C110 C109 1.409 . S
C110 H112 0.951 . S
C111 C106 1.491 . S
C111 C113 1.382 . S
C111 C115 1.404 . S
H112 C110 0.951 . S
C113 C111 1.382 . S
C113 C114 1.390 . S
C113 H118 0.949 . S
C114 C113 1.390 . S
C114 C119 1.399 . S
C115 C111 1.404 . S
C115 H116 0.950 . S
C115 C117 1.375 . S
H116 C115 0.950 . S
C117 C115 1.375 . S
C117 C119 1.382 . S
C117 H121 0.950 . S
H118 C113 0.949 . S
C119 C114 1.399 . S
C119 C117 1.382 . S
C119 H120 0.952 . S
H120 C119 0.952 . S
H121 C117 0.950 . S
H122 C130 0.929 . S
H123 C132 0.930 . S
H124 C134 0.930 . S
H125 C137 0.929 1_556 S
H126 C140 0.930 . S
H127 C142 0.960 . S
H128 C142 0.960 . S
H129 C142 0.960 1_556 S
C130 H122 0.929 . S
C130 C131 1.377 . S
C130 C132 1.384 . S
C131 C130 1.377 . S
C131 C137 1.390 . S
C132 H123 0.930 . S
C132 C130 1.384 . S
C132 C133 1.372 . S
C133 C132 1.372 . S
C133 C134 1.400 . S
C133 C138 1.490 . S
C134 H124 0.930 . S
C134 C133 1.400 . S
C134 C137 1.386 . S
H135 C151 0.930 . S
H136 C152 0.931 . S
C137 H125 0.929 1_554 S
C137 C131 1.390 . S
C137 C134 1.386 . S
C138 C133 1.490 . S
C138 C140 1.395 . S
C138 C141 1.403 . S
H139 C145 0.930 . S
C140 H126 0.930 . S
C140 C138 1.395 . S
C140 C143 1.403 . S
C141 C138 1.403 . S
C141 C142 1.524 . S
C141 C145 1.400 . S
C142 H127 0.960 . S
C142 H128 0.960 . S
C142 H129 0.960 1_554 S
C142 C141 1.524 . S
C143 C140 1.403 . S
C143 C144 1.392 . S
C143 C147 1.495 . S
C144 C143 1.392 . S
C144 C145 1.385 . S
C144 C146 1.478 . S
C145 H139 0.930 . S
C145 C141 1.400 . S
C145 C144 1.385 . S
C146 C144 1.478 . S
C146 C148 1.381 . S
C146 C152 1.383 . S
C147 C143 1.495 . S
C147 H153 0.959 . S
C147 H154 0.961 . S
C147 H155 0.960 . S
C148 C146 1.381 . S
C148 C149 1.394 . S
C148 H156 0.930 . S
C149 C148 1.394 . S
C149 C150 1.383 . S
C149 H157 0.929 . S
C150 C149 1.383 . S
C150 C151 1.377 . S
C151 H135 0.930 . S
C151 C150 1.377 . S
C151 C152 1.379 . S
C152 H136 0.931 . S
C152 C146 1.383 . S
C152 C151 1.379 . S
H153 C147 0.959 . S
H154 C147 0.961 . S
H155 C147 0.960 . S
H156 C148 0.930 . S
H157 C149 0.929 . S
H158 C166 0.929 . S
H159 C168 0.930 . S
H160 C170 0.930 . S
H161 C173 0.929 . S
H162 C176 0.930 . S
H163 C178 0.960 . S
H164 C178 0.960 . S
H165 C178 0.960 . S
C166 H158 0.929 . S
C166 C167 1.377 . S
C166 C168 1.384 . S
C167 C166 1.377 . S
C167 C173 1.390 1_556 S
C168 H159 0.930 . S
C168 C166 1.384 . S
C168 C169 1.372 . S
C169 C168 1.372 . S
C169 C170 1.400 1_556 S
C169 C174 1.490 . S
C170 H160 0.930 . S
C170 C169 1.400 1_554 S
C170 C173 1.386 . S
H171 C187 0.930 . S
H172 C188 0.931 . S
C173 H161 0.929 . S
C173 C167 1.390 1_554 S
C173 C170 1.386 . S
C174 C169 1.490 . S
C174 C176 1.395 . S
C174 C177 1.403 . S
H175 C181 0.930 . S
C176 H162 0.930 . S
C176 C174 1.395 . S
C176 C179 1.403 . S
C177 C174 1.403 . S
C177 C178 1.524 1_556 S
C177 C181 1.400 . S
C178 H163 0.960 . S
C178 H164 0.960 . S
C178 H165 0.960 . S
C178 C177 1.524 1_554 S
C179 C176 1.403 . S
C179 C180 1.392 . S
C179 C183 1.495 . S
C180 C179 1.392 . S
C180 C181 1.385 . S
C180 C182 1.478 . S
C181 H175 0.930 . S
C181 C177 1.400 . S
C181 C180 1.385 . S
C182 C180 1.478 . S
C182 C184 1.381 . S
C182 C188 1.383 . S
C183 C179 1.495 . S
C183 H189 0.959 . S
C183 H190 0.961 . S
C183 H191 0.960 . S
C184 C182 1.381 . S
C184 C185 1.394 . S
C184 H192 0.930 . S
C185 C184 1.394 . S
C185 C186 1.383 . S
C185 H193 0.929 . S
C186 C185 1.383 . S
C186 C187 1.377 . S
C187 H171 0.930 . S
C187 C186 1.377 . S
C187 C188 1.379 . S
C188 H172 0.931 . S
C188 C182 1.383 . S
C188 C187 1.379 . S
H189 C183 0.959 . S
H190 C183 0.961 . S
H191 C183 0.960 . S
H192 C184 0.930 . S
H193 C185 0.929 . S
H194 C202 0.929 . S
H195 C204 0.930 . S
H196 C206 0.921 1_556 S
H197 C209 0.929 . S
H198 C212 0.930 . S
H199 C214 0.960 . S
H200 C214 0.960 . S
H201 C214 0.960 . S
C202 H194 0.929 . S
C202 C203 1.377 . S
C202 C204 1.384 . S
C203 C202 1.377 . S
C203 C209 1.390 1_554 S
C204 H195 0.930 . S
C204 C202 1.384 . S
C204 C205 1.372 . S
C205 C204 1.372 . S
C205 C206 1.414 . S
C205 C210 1.490 . S
C206 H196 0.921 1_554 S
C206 C205 1.414 . S
C206 C209 1.380 1_554 S
H207 C223 0.930 . S
H208 C224 0.931 . S
C209 H197 0.929 . S
C209 C203 1.390 1_556 S
C209 C206 1.380 1_556 S
C210 C205 1.490 . S
C210 C212 1.395 . S
C210 C213 1.403 . S
H211 C217 0.930 . S
C212 H198 0.930 . S
C212 C210 1.395 . S
C212 C215 1.403 . S
C213 C210 1.403 . S
C213 C214 1.524 . S
C213 C217 1.400 . S
C214 H199 0.960 . S
C214 H200 0.960 . S
C214 H201 0.960 . S
C214 C213 1.524 . S
C215 C212 1.403 . S
C215 C216 1.392 . S
C215 C219 1.495 . S
C216 C215 1.392 . S
C216 C217 1.385 . S
C216 C218 1.478 . S
C217 H211 0.930 . S
C217 C213 1.400 . S
C217 C216 1.385 . S
C218 C216 1.478 . S
C218 C220 1.381 . S
C218 C224 1.383 . S
C219 C215 1.495 . S
C219 H225 0.959 . S
C219 H226 0.961 . S
C219 H227 0.960 . S
C220 C218 1.381 . S
C220 C221 1.394 . S
C220 H228 0.930 . S
C221 C220 1.394 . S
C221 C222 1.383 . S
C221 H229 0.929 . S
C222 C221 1.383 . S
C222 C223 1.377 . S
C223 H207 0.930 . S
C223 C222 1.377 . S
C223 C224 1.379 . S
C224 H208 0.931 . S
C224 C218 1.383 . S
C224 C223 1.379 . S
H225 C219 0.959 . S
H226 C219 0.961 . S
H227 C219 0.960 . S
H228 C220 0.930 . S
H229 C221 0.929 . S
H230 C238 0.929 . S
H231 C240 0.930 . S
H232 C242 0.930 1_554 S
H233 C245 0.929 1_554 S
H234 C248 0.930 . S
H235 C250 0.960 . S
H236 C250 0.960 . S
H237 C250 0.960 . S
C238 H230 0.929 . S
C238 C239 1.377 . S
C238 C240 1.384 . S
C239 C238 1.377 . S
C239 C245 1.390 . S
C240 H231 0.930 . S
C240 C238 1.384 . S
C240 C241 1.372 . S
C241 C240 1.372 . S
C241 C242 1.400 . S
C241 C246 1.490 . S
C242 H232 0.930 1_556 S
C242 C241 1.400 . S
C242 C245 1.386 . S
H243 C259 0.930 . S
H244 C260 0.931 . S
C245 H233 0.929 1_556 S
C245 C239 1.390 . S
C245 C242 1.386 . S
C246 C241 1.490 . S
C246 C248 1.395 . S
C246 C249 1.403 . S
H247 C253 0.930 . S
C248 H234 0.930 . S
C248 C246 1.395 . S
C248 C251 1.403 . S
C249 C246 1.403 . S
C249 C250 1.524 . S
C249 C253 1.400 . S
C250 H235 0.960 . S
C250 H236 0.960 . S
C250 H237 0.960 . S
C250 C249 1.524 . S
C251 C248 1.403 . S
C251 C252 1.392 . S
C251 C255 1.495 . S
C252 C251 1.392 . S
C252 C253 1.385 . S
C252 C254 1.478 . S
C253 H247 0.930 . S
C253 C249 1.400 . S
C253 C252 1.385 . S
C254 C252 1.478 . S
C254 C256 1.381 . S
C254 C260 1.383 . S
C255 C251 1.495 . S
C255 H261 0.959 . S
C255 H262 0.961 . S
C255 H263 0.960 . S
C256 C254 1.381 . S
C256 C257 1.394 . S
C256 H264 0.930 . S
C257 C256 1.394 . S
C257 C258 1.383 . S
C257 H265 0.929 . S
C258 C257 1.383 . S
C258 C259 1.377 . S
C259 H243 0.930 . S
C259 C258 1.377 . S
C259 C260 1.379 . S
C260 H244 0.931 . S
C260 C254 1.383 . S
C260 C259 1.379 . S
H261 C255 0.959 . S
H262 C255 0.961 . S
H263 C255 0.960 . S
H264 C256 0.930 . S
H265 C257 0.929 . S
H266 C274 0.929 . S
H267 C276 0.930 . S
H268 C278 0.930 . S
H269 C281 0.929 . S
H270 C284 0.930 . S
H271 C286 0.960 . S
H272 C286 0.960 . S
H273 C286 0.960 . S
C274 H266 0.929 . S
C274 C275 1.377 . S
C274 C276 1.384 . S
C275 C274 1.377 . S
C275 C281 1.390 . S
C276 H267 0.930 . S
C276 C274 1.384 . S
C276 C277 1.372 . S
C277 C276 1.372 . S
C277 C278 1.400 . S
C277 C282 1.490 . S
C278 H268 0.930 . S
C278 C277 1.400 . S
C278 C281 1.386 . S
H279 C295 0.930 . S
H280 C296 0.931 . S
C281 H269 0.929 . S
C281 C275 1.390 . S
C281 C278 1.386 . S
C282 C277 1.490 . S
C282 C284 1.395 . S
C282 C285 1.403 . S
H283 C289 0.930 . S
C284 H270 0.930 . S
C284 C282 1.395 . S
C284 C287 1.403 . S
C285 C282 1.403 . S
C285 C286 1.524 . S
C285 C289 1.400 . S
C286 H271 0.960 . S
C286 H272 0.960 . S
C286 H273 0.960 . S
C286 C285 1.524 . S
C287 C284 1.403 . S
C287 C288 1.392 . S
C287 C291 1.495 . S
C288 C287 1.392 . S
C288 C289 1.385 . S
C288 C290 1.478 . S
C289 H283 0.930 . S
C289 C285 1.400 . S
C289 C288 1.385 . S
C290 C288 1.478 . S
C290 C292 1.381 . S
C290 C296 1.383 . S
C291 C287 1.495 . S
C291 H297 0.959 . S
C291 H298 0.961 . S
C291 H299 0.960 . S
C292 C290 1.381 . S
C292 C293 1.394 . S
C292 H300 0.930 . S
C293 C292 1.394 . S
C293 C294 1.383 . S
C293 H301 0.929 . S
C294 C293 1.383 . S
C294 C295 1.377 . S
C295 H279 0.930 . S
C295 C294 1.377 . S
C295 C296 1.379 . S
C296 H280 0.931 . S
C296 C290 1.383 . S
C296 C295 1.379 . S
H297 C291 0.959 . S
H298 C291 0.961 . S
H299 C291 0.960 . S
H300 C292 0.930 . S
H301 C293 0.929 . S
H302 C310 0.929 . S
H303 C312 0.930 . S
H304 C314 0.930 . S
H305 C317 0.929 . S
H306 C320 0.930 . S
H307 C322 0.960 . S
H308 C322 0.960 . S
H309 C322 0.960 . S
C310 H302 0.929 . S
C310 C311 1.377 . S
C310 C312 1.384 . S
C311 C310 1.377 . S
C311 C317 1.390 . S
C312 H303 0.930 . S
C312 C310 1.384 . S
C312 C313 1.372 . S
C313 C312 1.372 . S
C313 C314 1.400 . S
C313 C318 1.490 . S
C314 H304 0.930 . S
C314 C313 1.400 . S
C314 C317 1.386 . S
H315 C331 0.930 . S
H316 C332 0.931 . S
C317 H305 0.929 . S
C317 C311 1.390 . S
C317 C314 1.386 . S
C318 C313 1.490 . S
C318 C320 1.395 . S
C318 C321 1.403 . S
H319 C325 0.930 . S
C320 H306 0.930 . S
C320 C318 1.395 . S
C320 C323 1.403 . S
C321 C318 1.403 . S
C321 C322 1.524 . S
C321 C325 1.400 . S
C322 H307 0.960 . S
C322 H308 0.960 . S
C322 H309 0.960 . S
C322 C321 1.524 . S
C323 C320 1.403 . S
C323 C324 1.392 . S
C323 C327 1.495 . S
C324 C323 1.392 . S
C324 C325 1.385 . S
C324 C326 1.478 . S
C325 H319 0.930 . S
C325 C321 1.400 . S
C325 C324 1.385 . S
C326 C324 1.478 . S
C326 C328 1.381 . S
C326 C332 1.383 . S
C327 C323 1.495 . S
C327 H333 0.959 . S
C327 H334 0.961 . S
C327 H335 0.960 . S
C328 C326 1.381 . S
C328 C329 1.394 . S
C328 H336 0.930 . S
C329 C328 1.394 . S
C329 C330 1.383 . S
C329 H337 0.929 . S
C330 C329 1.383 . S
C330 C331 1.377 . S
C331 H315 0.930 . S
C331 C330 1.377 . S
C331 C332 1.379 . S
C332 H316 0.931 . S
C332 C326 1.383 . S
C332 C331 1.379 . S
H333 C327 0.959 . S
H334 C327 0.961 . S
H335 C327 0.960 . S
H336 C328 0.930 . S
H337 C329 0.929 . S
H338 C346 0.929 . S
H339 C348 0.930 . S
H340 C350 0.930 . S
H341 C353 0.929 . S
H342 C356 0.930 . S
H343 C358 0.960 . S
H344 C358 0.960 . S
H345 C358 0.960 . S
C346 H338 0.929 . S
C346 C347 1.377 . S
C346 C348 1.384 . S
C347 C346 1.377 . S
C347 C353 1.390 . S
C348 H339 0.930 . S
C348 C346 1.384 . S
C348 C349 1.372 . S
C349 C348 1.372 . S
C349 C350 1.400 . S
C349 C354 1.490 . S
C350 H340 0.930 . S
C350 C349 1.400 . S
C350 C353 1.386 . S
H351 C367 0.930 . S
H352 C368 0.931 . S
C353 H341 0.929 . S
C353 C347 1.390 . S
C353 C350 1.386 . S
C354 C349 1.490 . S
C354 C356 1.395 . S
C354 C357 1.403 . S
H355 C361 0.930 . S
C356 H342 0.930 . S
C356 C354 1.395 . S
C356 C359 1.403 . S
C357 C354 1.403 . S
C357 C358 1.524 . S
C357 C361 1.400 . S
C358 H343 0.960 . S
C358 H344 0.960 . S
C358 H345 0.960 . S
C358 C357 1.524 . S
C359 C356 1.403 . S
C359 C360 1.392 . S
C359 C363 1.495 . S
C360 C359 1.392 . S
C360 C361 1.385 . S
C360 C362 1.478 . S
C361 H355 0.930 . S
C361 C357 1.400 . S
C361 C360 1.385 . S
C362 C360 1.478 . S
C362 C364 1.381 . S
C362 C368 1.383 . S
C363 C359 1.495 . S
C363 H369 0.959 . S
C363 H370 0.961 . S
C363 H371 0.960 . S
C364 C362 1.381 . S
C364 C365 1.394 . S
C364 H372 0.930 . S
C365 C364 1.394 . S
C365 C366 1.383 . S
C365 H373 0.929 . S
C366 C365 1.383 . S
C366 C367 1.377 . S
C367 H351 0.930 . S
C367 C366 1.377 . S
C367 C368 1.379 . S
C368 H352 0.931 . S
C368 C362 1.383 . S
C368 C367 1.379 . S
H369 C363 0.959 . S
H370 C363 0.961 . S
H371 C363 0.960 . S
H372 C364 0.930 . S
H373 C365 0.929 . S
H374 C382 0.929 . S
H375 C384 0.930 . S
H376 C386 0.930 . S
H377 C389 0.929 . S
H378 C392 0.930 . S
H379 C394 0.960 . S
H380 C394 0.960 . S
H381 C394 0.960 . S
C382 H374 0.929 . S
C382 C383 1.377 . S
C382 C384 1.384 . S
C383 C382 1.377 . S
C383 C389 1.390 . S
C384 H375 0.930 . S
C384 C382 1.384 . S
C384 C385 1.372 . S
C385 C384 1.372 . S
C385 C386 1.400 . S
C385 C390 1.490 . S
C386 H376 0.930 . S
C386 C385 1.400 . S
C386 C389 1.386 . S
H387 C403 0.930 . S
H388 C404 0.931 . S
C389 H377 0.929 . S
C389 C383 1.390 . S
C389 C386 1.386 . S
C390 C385 1.490 . S
C390 C392 1.395 . S
C390 C393 1.403 . S
H391 C397 0.930 . S
C392 H378 0.930 . S
C392 C390 1.395 . S
C392 C395 1.403 . S
C393 C390 1.403 . S
C393 C394 1.524 . S
C393 C397 1.400 . S
C394 H379 0.960 . S
C394 H380 0.960 . S
C394 H381 0.960 . S
C394 C393 1.524 . S
C395 C392 1.403 . S
C395 C396 1.392 . S
C395 C399 1.495 . S
C396 C395 1.392 . S
C396 C397 1.385 . S
C396 C398 1.478 . S
C397 H391 0.930 . S
C397 C393 1.400 . S
C397 C396 1.385 . S
C398 C396 1.478 . S
C398 C400 1.381 . S
C398 C404 1.383 . S
C399 C395 1.495 . S
C399 H405 0.959 . S
C399 H406 0.961 . S
C399 H407 0.960 . S
C400 C398 1.381 . S
C400 C401 1.394 . S
C400 H408 0.930 . S
C401 C400 1.394 . S
C401 C402 1.383 . S
C401 H409 0.929 . S
C402 C401 1.383 . S
C402 C403 1.377 . S
C403 H387 0.930 . S
C403 C402 1.377 . S
C403 C404 1.379 . S
C404 H388 0.931 . S
C404 C398 1.383 . S
C404 C403 1.379 . S
H405 C399 0.959 . S
H406 C399 0.961 . S
H407 C399 0.960 . S
H408 C400 0.930 . S
H409 C401 0.929 . S
H410 C418 0.929 . S
H411 C420 0.930 . S
H412 C422 0.930 . S
H413 C425 0.929 . S
H414 C428 0.930 . S
H415 C430 0.960 . S
H416 C430 0.960 1_655 S
H417 C430 0.960 . S
C418 H410 0.929 . S
C418 C419 1.377 1_665 S
C418 C420 1.384 . S
C419 C418 1.377 1_445 S
C419 C425 1.390 . S
C420 H411 0.930 . S
C420 C418 1.384 . S
C420 C421 1.372 1_665 S
C421 C420 1.372 1_445 S
C421 C422 1.400 . S
C421 C426 1.490 . S
C422 H412 0.930 . S
C422 C421 1.400 . S
C422 C425 1.386 . S
H423 C439 0.930 . S
H424 C440 0.931 . S
C425 H413 0.929 . S
C425 C419 1.390 . S
C425 C422 1.386 . S
C426 C421 1.490 . S
C426 C428 1.395 1_545 S
C426 C429 1.403 . S
H427 C433 0.930 . S
C428 H414 0.930 . S
C428 C426 1.395 1_565 S
C428 C431 1.403 . S
C429 C426 1.403 . S
C429 C430 1.524 . S
C429 C433 1.400 . S
C430 H415 0.960 . S
C430 H416 0.960 1_455 S
C430 H417 0.960 . S
C430 C429 1.524 . S
C431 C428 1.403 . S
C431 C432 1.402 . S
C431 C435 1.495 . S
C432 C431 1.402 . S
C432 C433 1.374 1_565 S
C432 C434 1.478 . S
C433 H427 0.930 . S
C433 C429 1.400 . S
C433 C432 1.374 1_545 S
C434 C432 1.478 . S
C434 C436 1.385 1_455 S
C434 C440 1.378 1_565 S
C435 C431 1.495 . S
C435 H441 0.959 . S
C435 H442 0.961 . S
C435 H443 0.960 1_455 S
C436 C434 1.385 1_655 S
C436 C437 1.394 . S
C436 H444 0.930 . S
C437 C436 1.394 . S
C437 C438 1.383 1_665 S
C437 H445 0.929 . S
C438 C437 1.383 1_445 S
C438 C439 1.377 . S
C439 H423 0.930 . S
C439 C438 1.377 . S
C439 C440 1.379 . S
C440 H424 0.931 . S
C440 C434 1.378 1_545 S
C440 C439 1.379 . S
H441 C435 0.959 . S
H442 C435 0.961 . S
H443 C435 0.960 1_655 S
H444 C436 0.930 . S
H445 C437 0.929 . S
H446 C454 0.929 . S
H447 C456 0.932 . S
H448 C458 0.930 . S
H449 C461 0.929 . S
H450 C464 0.930 . S
H451 C466 0.960 . S
H452 C466 0.960 . S
H453 C466 0.960 . S
C454 H446 0.929 . S
C454 C455 1.377 1_455 S
C454 C456 1.384 . S
C455 C454 1.377 1_655 S
C455 C461 1.390 . S
C456 H447 0.932 . S
C456 C454 1.384 . S
C456 C457 1.372 1_455 S
C457 C456 1.372 1_655 S
C457 C458 1.400 . S
C457 C462 1.493 . S
C458 H448 0.930 . S
C458 C457 1.400 . S
C458 C461 1.386 . S
H459 C475 0.930 . S
H460 C476 0.931 . S
C461 H449 0.929 . S
C461 C455 1.390 . S
C461 C458 1.386 . S
C462 C457 1.493 . S
C462 C464 1.389 1_645 S
C462 C465 1.405 . S
H463 C469 0.930 . S
C464 H450 0.930 . S
C464 C462 1.389 1_465 S
C464 C467 1.403 . S
C465 C462 1.405 . S
C465 C466 1.524 . S
C465 C469 1.400 . S
C466 H451 0.960 . S
C466 H452 0.960 . S
C466 H453 0.960 . S
C466 C465 1.524 . S
C467 C464 1.403 . S
C467 C468 1.397 1_565 S
C467 C471 1.495 . S
C468 C467 1.397 1_545 S
C468 C469 1.375 1_455 S
C468 C470 1.483 1_455 S
C469 H463 0.930 . S
C469 C465 1.400 . S
C469 C468 1.375 1_655 S
C470 C468 1.483 1_655 S
C470 C472 1.379 1_655 S
C470 C476 1.384 . S
C471 C467 1.495 . S
C471 H477 0.959 . S
C471 H478 0.961 . S
C471 H479 0.960 . S
C472 C470 1.379 1_455 S
C472 C473 1.394 . S
C472 H480 0.930 . S
C473 C472 1.394 . S
C473 C474 1.383 1_455 S
C473 H481 0.929 . S
C474 C473 1.383 1_655 S
C474 C475 1.377 . S
C475 H459 0.930 . S
C475 C474 1.377 . S
C475 C476 1.379 . S
C476 H460 0.931 . S
C476 C470 1.384 . S
C476 C475 1.379 . S
H477 C471 0.959 . S
H478 C471 0.961 . S
H479 C471 0.960 . S
H480 C472 0.930 . S
H481 C473 0.929 . S
H482 C490 0.929 . S
H483 C492 0.930 . S
H484 C494 0.930 . S
H485 C497 0.929 . S
H486 C500 0.930 . S
H487 C502 0.960 . S
H488 C502 0.960 . S
H489 C502 0.960 . S
C490 H482 0.929 . S
C490 C491 1.377 . S
C490 C492 1.384 . S
C491 C490 1.377 . S
C491 C497 1.390 . S
C492 H483 0.930 . S
C492 C490 1.384 . S
C492 C493 1.372 . S
C493 C492 1.372 . S
C493 C494 1.400 . S
C493 C498 1.490 . S
C494 H484 0.930 . S
C494 C493 1.400 . S
C494 C497 1.386 . S
H495 C511 0.930 . S
H496 C512 0.931 . S
C497 H485 0.929 . S
C497 C491 1.390 . S
C497 C494 1.386 . S
C498 C493 1.490 . S
C498 C500 1.395 . S
C498 C501 1.403 . S
H499 C505 0.930 . S
C500 H486 0.930 . S
C500 C498 1.395 . S
C500 C503 1.403 . S
C501 C498 1.403 . S
C501 C502 1.524 . S
C501 C505 1.400 . S
C502 H487 0.960 . S
C502 H488 0.960 . S
C502 H489 0.960 . S
C502 C501 1.524 . S
C503 C500 1.403 . S
C503 C504 1.392 . S
C503 C507 1.495 . S
C504 C503 1.392 . S
C504 C505 1.385 . S
C504 C506 1.478 . S
C505 H499 0.930 . S
C505 C501 1.400 . S
C505 C504 1.385 . S
C506 C504 1.478 . S
C506 C508 1.381 . S
C506 C512 1.383 . S
C507 C503 1.495 . S
C507 H513 0.959 . S
C507 H514 0.961 . S
C507 H515 0.960 . S
C508 C506 1.381 . S
C508 C509 1.394 . S
C508 H516 0.930 . S
C509 C508 1.394 . S
C509 C510 1.383 . S
C509 H517 0.929 . S
C510 C509 1.383 . S
C510 C511 1.377 . S
C511 H495 0.930 . S
C511 C510 1.377 . S
C511 C512 1.379 . S
C512 H496 0.931 . S
C512 C506 1.383 . S
C512 C511 1.379 . S
H513 C507 0.959 . S
H514 C507 0.961 . S
H515 C507 0.960 . S
H516 C508 0.930 . S
H517 C509 0.929 . S
H518 C526 0.929 . S
H519 C528 0.930 . S
H520 C530 0.930 . S
H521 C533 0.929 . S
H522 C536 0.930 . S
H523 C538 0.960 . S
H524 C538 0.960 . S
H525 C538 0.960 . S
C526 H518 0.929 . S
C526 C527 1.377 . S
C526 C528 1.384 . S
C527 C526 1.377 . S
C527 C533 1.390 . S
C528 H519 0.930 . S
C528 C526 1.384 . S
C528 C529 1.372 . S
C529 C528 1.372 . S
C529 C530 1.400 . S
C529 C534 1.490 . S
C530 H520 0.930 . S
C530 C529 1.400 . S
C530 C533 1.386 . S
H531 C547 0.930 . S
H532 C548 0.931 . S
C533 H521 0.929 . S
C533 C527 1.390 . S
C533 C530 1.386 . S
C534 C529 1.490 . S
C534 C536 1.395 . S
C534 C537 1.403 . S
H535 C541 0.930 . S
C536 H522 0.930 . S
C536 C534 1.395 . S
C536 C539 1.403 . S
C537 C534 1.403 . S
C537 C538 1.524 . S
C537 C541 1.400 . S
C538 H523 0.960 . S
C538 H524 0.960 . S
C538 H525 0.960 . S
C538 C537 1.524 . S
C539 C536 1.403 . S
C539 C540 1.392 . S
C539 C543 1.495 . S
C540 C539 1.392 . S
C540 C541 1.385 . S
C540 C542 1.478 . S
C541 H535 0.930 . S
C541 C537 1.400 . S
C541 C540 1.385 . S
C542 C540 1.478 . S
C542 C544 1.381 . S
C542 C548 1.383 . S
C543 C539 1.495 . S
C543 H549 0.959 . S
C543 H550 0.961 . S
C543 H551 0.960 . S
C544 C542 1.381 . S
C544 C545 1.394 . S
C544 H552 0.930 . S
C545 C544 1.394 . S
C545 C546 1.383 . S
C545 H553 0.929 . S
C546 C545 1.383 . S
C546 C547 1.377 . S
C547 H531 0.930 . S
C547 C546 1.377 . S
C547 C548 1.379 . S
C548 H532 0.931 . S
C548 C542 1.383 . S
C548 C547 1.379 . S
H549 C543 0.959 . S
H550 C543 0.961 . S
H551 C543 0.960 . S
H552 C544 0.930 . S
H553 C545 0.929 . S
C150 C109 1.601 . S
C131 C21 1.603 . S
C167 C19 1.360 1_556 S
C186 C95 1.310 . S
C203 C18 1.328 . S
C222 C114 1.267 . S
C239 C20 1.581 . S
C258 C90 1.593 . S
C275 C44 1.601 . S
C294 C71 1.597 . S
C311 C42 1.363 . S
C330 C57 1.278 . S
C366 C76 1.288 . S
C347 C41 1.328 . S
C402 C52 1.590 . S
C383 C43 1.579 . S
C419 C16 1.561 . S
C438 C48 1.537 . S
C455 C17 1.516 . S
C474 C67 1.495 . S
C510 C86 1.550 . S
C491 C39 1.561 . S
C527 C40 1.516 . S
C546 C105 1.490 . S
