# Generated by pormake.
# Topology cml, (3,6)-cn, num edge types: 1
# Building blocks:
#     Node 0, Type 0, BuildingBlock: BETDAH_clean_linker_0, # of connection points: 3
#     Node 1, Type 0, BuildingBlock: BETDAH_clean_linker_0, # of connection points: 3
#     Node 2, Type 0, BuildingBlock: BETDAH_clean_linker_0, # of connection points: 3
#     Node 3, Type 0, BuildingBlock: BETDAH_clean_linker_0, # of connection points: 3
#     Node 4, Type 0, BuildingBlock: BETDAH_clean_linker_0, # of connection points: 3
#     Node 5, Type 0, BuildingBlock: BETDAH_clean_linker_0, # of connection points: 3
#     Node 6, Type 0, BuildingBlock: BETDAH_clean_linker_0, # of connection points: 3
#     Node 7, Type 0, BuildingBlock: BETDAH_clean_linker_0, # of connection points: 3
#     Node 8, Type 1, BuildingBlock: IZENUY_clean_sbu_0, # of connection points: 6
#     Node 9, Type 1, BuildingBlock: IZENUY_clean_sbu_0, # of connection points: 6
#     Node 10, Type 1, BuildingBlock: IZENUY_clean_sbu_0, # of connection points: 6
#     Node 11, Type 1, BuildingBlock: IZENUY_clean_sbu_0, # of connection points: 6
#     Edge 12, Type (0, 1), BuildingBlock: KIFKEQ_clean_linker_1, # of connection points: 2
#     Edge 13, Type (0, 1), BuildingBlock: KIFKEQ_clean_linker_1, # of connection points: 2
#     Edge 14, Type (0, 1), BuildingBlock: KIFKEQ_clean_linker_1, # of connection points: 2
#     Edge 15, Type (0, 1), BuildingBlock: KIFKEQ_clean_linker_1, # of connection points: 2
#     Edge 16, Type (0, 1), BuildingBlock: KIFKEQ_clean_linker_1, # of connection points: 2
#     Edge 17, Type (0, 1), BuildingBlock: KIFKEQ_clean_linker_1, # of connection points: 2
#     Edge 18, Type (0, 1), BuildingBlock: KIFKEQ_clean_linker_1, # of connection points: 2
#     Edge 19, Type (0, 1), BuildingBlock: KIFKEQ_clean_linker_1, # of connection points: 2
#     Edge 20, Type (0, 1), BuildingBlock: KIFKEQ_clean_linker_1, # of connection points: 2
#     Edge 21, Type (0, 1), BuildingBlock: KIFKEQ_clean_linker_1, # of connection points: 2
#     Edge 22, Type (0, 1), BuildingBlock: KIFKEQ_clean_linker_1, # of connection points: 2
#     Edge 23, Type (0, 1), BuildingBlock: KIFKEQ_clean_linker_1, # of connection points: 2
#     Edge 24, Type (0, 1), BuildingBlock: KIFKEQ_clean_linker_1, # of connection points: 2
#     Edge 25, Type (0, 1), BuildingBlock: KIFKEQ_clean_linker_1, # of connection points: 2
#     Edge 26, Type (0, 1), BuildingBlock: KIFKEQ_clean_linker_1, # of connection points: 2
#     Edge 27, Type (0, 1), BuildingBlock: KIFKEQ_clean_linker_1, # of connection points: 2
#     Edge 28, Type (0, 1), BuildingBlock: KIFKEQ_clean_linker_1, # of connection points: 2
#     Edge 29, Type (0, 1), BuildingBlock: KIFKEQ_clean_linker_1, # of connection points: 2
#     Edge 30, Type (0, 1), BuildingBlock: KIFKEQ_clean_linker_1, # of connection points: 2
#     Edge 31, Type (0, 1), BuildingBlock: KIFKEQ_clean_linker_1, # of connection points: 2
#     Edge 32, Type (0, 1), BuildingBlock: KIFKEQ_clean_linker_1, # of connection points: 2
#     Edge 33, Type (0, 1), BuildingBlock: KIFKEQ_clean_linker_1, # of connection points: 2
#     Edge 34, Type (0, 1), BuildingBlock: KIFKEQ_clean_linker_1, # of connection points: 2
#     Edge 35, Type (0, 1), BuildingBlock: KIFKEQ_clean_linker_1, # of connection points: 2
# Relax obj value: 0.003
# Max RMSD: 0.065
# Mean RMSD: 0.051
data_MOF--net-cml--node1-IZENUY_clean_sbu_0--node2-BETDAH_clean_linker_0--edge1-KIFKEQ_clean_linker_1
_symmetry_space_group_name_H-M    P1
_symmetry_Int_Tables_number       1
_symmetry_cell_setting            triclinic
loop_
_symmetry_equiv_pos_as_xyz
'x, y, z'
_cell_length_a     37.610166
_cell_length_b     41.954281
_cell_length_c     36.770254
_cell_angle_alpha  89.371406
_cell_angle_beta   90.740644
_cell_angle_gamma 91.054252
loop_
_atom_site_label
_atom_site_type_symbol
_atom_site_fract_x
_atom_site_fract_y
_atom_site_fract_z
_atom_type_partial_charge
H0 H 0.35821 0.41887 0.03577 0.0
H1 H 0.32549 0.38579 0.92984 0.0
H2 H 0.31363 0.32437 0.02311 0.0
C3 C 0.34612 0.40077 0.01854 0.0
C4 C 0.33625 0.37117 0.03397 0.0
C5 C 0.34254 0.40651 0.98092 0.0
C6 C 0.32741 0.38243 0.95905 0.0
C7 C 0.31587 0.35331 0.97427 0.0
C8 C 0.3206 0.34755 0.01172 0.0
N9 N 0.30412 0.32877 0.95057 0.0
C10 C 0.2718 0.31241 0.95383 0.0
H11 H 0.66764 0.5907 0.53889 0.0
H12 H 0.70163 0.62619 0.43444 0.0
H13 H 0.7152 0.68444 0.52895 0.0
C14 C 0.68041 0.60901 0.52233 0.0
C15 C 0.6912 0.63785 0.53853 0.0
C16 C 0.68385 0.60437 0.48472 0.0
C17 C 0.69985 0.62869 0.46366 0.0
C18 C 0.71225 0.65705 0.47963 0.0
C19 C 0.70761 0.66176 0.51705 0.0
N20 N 0.72421 0.68224 0.45661 0.0
C21 C 0.75753 0.69701 0.45954 0.0
H22 H 0.67624 0.43611 0.04636 0.0
H23 H 0.70647 0.40833 0.93896 0.0
H24 H 0.72517 0.34549 0.02971 0.0
C25 C 0.68839 0.41933 0.02835 0.0
C26 C 0.70027 0.39004 0.04259 0.0
C27 C 0.69044 0.42649 0.99098 0.0
C28 C 0.70565 0.40403 0.96804 0.0
C29 C 0.7192 0.3754 0.9819 0.0
C30 C 0.7163 0.36827 0.01923 0.0
N31 N 0.73228 0.35312 0.95681 0.0
C32 C 0.76135 0.33361 0.96282 0.0
H33 H 0.35159 0.57312 0.54203 0.0
H34 H 0.30845 0.66583 0.51985 0.0
H35 H 0.32328 0.60075 0.43254 0.0
C36 C 0.34052 0.59023 0.52295 0.0
C37 C 0.3379 0.58262 0.48586 0.0
C38 C 0.33048 0.62035 0.53546 0.0
C39 C 0.31607 0.64253 0.5106 0.0
C40 C 0.31296 0.63497 0.47354 0.0
C41 C 0.32441 0.60548 0.46145 0.0
N42 N 0.30058 0.65705 0.44707 0.0
C43 C 0.2765 0.68093 0.45354 0.0
H44 H 0.84817 0.92781 0.05547 0.0
H45 H 0.79437 0.87974 0.96721 0.0
H46 H 0.81676 0.82914 0.06685 0.0
C47 C 0.83505 0.90663 0.04473 0.0
C48 C 0.83378 0.8786 0.06593 0.0
C49 C 0.82136 0.90723 0.00901 0.0
C50 C 0.80449 0.87969 0.99493 0.0
C51 C 0.80221 0.8517 0.01632 0.0
C52 C 0.81729 0.85125 0.05133 0.0
N53 N 0.7874 0.82279 1.00278 0.0
C54 C 0.75998 0.82057 0.97721 0.0
H55 H 0.17726 0.0856 0.55942 0.0
H56 H 0.23187 0.12927 0.46889 0.0
H57 H 0.21412 0.18302 0.56554 0.0
C58 C 0.19175 0.10573 0.54775 0.0
C59 C 0.19476 0.13426 0.56728 0.0
C60 C 0.20473 0.1037 0.51217 0.0
C61 C 0.22226 0.13038 0.49649 0.0
C62 C 0.22586 0.15893 0.51608 0.0
C63 C 0.21168 0.16074 0.55099 0.0
N64 N 0.24101 0.18714 0.50075 0.0
C65 C 0.26886 0.18836 0.47625 0.0
H66 H 0.16257 0.9242 0.03897 0.0
H67 H 0.25004 0.91105 0.96658 0.0
H68 H 0.24984 0.86523 0.0718 0.0
C69 C 0.18741 0.91279 0.03282 0.0
C70 C 0.2035 0.89302 0.05899 0.0
C71 C 0.20399 0.91955 0.99959 0.0
C72 C 0.23655 0.90524 0.99172 0.0
C73 C 0.25295 0.88536 0.01786 0.0
C74 C 0.2366 0.87987 0.05147 0.0
N75 N 0.28806 0.87446 0.01338 0.0
C76 C 0.29889 0.85541 0.985 0.0
H77 H 0.85271 0.08807 0.55548 0.0
H78 H 0.81155 0.18224 0.53845 0.0
H79 H 0.83488 0.12399 0.44691 0.0
C80 C 0.84302 0.10652 0.53721 0.0
C81 C 0.84444 0.10205 0.49948 0.0
C82 C 0.8316 0.13541 0.55161 0.0
C83 C 0.81956 0.15953 0.52779 0.0
C84 C 0.81998 0.1549 0.48998 0.0
C85 C 0.83285 0.12649 0.47611 0.0
N86 N 0.81181 0.17982 0.46521 0.0
C87 C 0.77987 0.19586 0.46509 0.0
Fe88 Fe 0.02366 0.8358 0.33833 0.0
Fe89 Fe 0.02838 0.87186 0.41064 0.0
O90 O 0.02671 0.87225 0.36234 0.0
Fe91 Fe 0.02805 0.90884 0.33787 0.0
O92 O 0.99917 0.89472 0.30071 0.0
O93 O 0.98145 0.84651 0.31721 0.0
O94 O 0.9982 0.81415 0.37344 0.0
C95 C 0.97875 0.82434 0.39847 0.0
C96 C 0.07007 0.87353 0.29445 0.0
O97 O 0.9858 0.85073 0.41321 0.0
C98 C 0.07698 0.91982 0.3962 0.0
O99 O 0.06569 0.82317 0.35756 0.0
O100 O 0.05366 0.83475 0.41426 0.0
O101 O 0.06804 0.89788 0.31408 0.0
O102 O 0.04847 0.85033 0.2986 0.0
C103 C 0.98392 0.92401 0.39358 0.0
O104 O 0.07083 0.89342 0.41196 0.0
O105 O 0.05702 0.92961 0.37064 0.0
C106 C 0.07292 0.82132 0.39112 0.0
O107 O 1.00371 0.90877 0.41548 0.0
O108 O 0.98823 0.9225 0.35969 0.0
C109 C 0.97717 0.87158 0.29842 0.0
Fe110 Fe 1.00129 0.13567 0.90688 0.0
Fe111 Fe 0.99829 0.10159 0.83308 0.0
O112 O 1.00063 0.13731 0.85853 0.0
Fe113 Fe 1.00248 0.17473 0.83551 0.0
O114 O 0.03018 0.19475 0.87016 0.0
O115 O 0.0439 0.15687 0.90921 0.0
O116 O 0.02647 0.0985 0.90997 0.0
C117 C 0.04523 0.08415 0.88711 0.0
C118 C 0.95651 0.18811 0.89033 0.0
O119 O 0.03931 0.08724 0.85342 0.0
C120 C 0.95328 0.1387 0.79262 0.0
O121 O 0.95894 0.11409 0.90836 0.0
O122 O 0.9711 0.07944 0.86605 0.0
O123 O 0.96188 0.18725 0.85656 0.0
O124 O 0.97599 0.17261 0.91247 0.0
C125 C 0.04678 0.14043 0.79305 0.0
O126 O 0.95712 0.11323 0.81069 0.0
O127 O 0.97492 0.16192 0.79657 0.0
C128 C 0.95203 0.08837 0.89198 0.0
O129 O 0.02504 0.11713 0.79536 0.0
O130 O 0.04333 0.16473 0.81256 0.0
C131 C 0.0504 0.18374 0.89484 0.0
Fe132 Fe 0.52096 0.32384 0.31269 0.0
Fe133 Fe 0.51659 0.35959 0.38499 0.0
O134 O 0.51762 0.36016 0.33675 0.0
Fe135 Fe 0.51527 0.39702 0.31282 0.0
O136 O 0.47532 0.38442 0.28848 0.0
O137 O 0.49367 0.33689 0.27352 0.0
O138 O 0.48011 0.3081 0.33239 0.0
C139 C 0.47436 0.30552 0.36601 0.0
C140 C 0.5655 0.36234 0.2724 0.0
O141 O 0.49354 0.3207 0.38872 0.0
C142 C 0.55883 0.41485 0.36944 0.0
O143 O 0.549 0.30421 0.34763 0.0
O144 O 0.55979 0.34167 0.38785 0.0
O145 O 0.54379 0.38486 0.27551 0.0
O146 O 0.56189 0.33694 0.29082 0.0
C147 C 0.46665 0.40439 0.37082 0.0
O148 O 0.53938 0.3983 0.39052 0.0
O149 O 0.55518 0.41261 0.3354 0.0
C150 C 0.56782 0.31573 0.37341 0.0
O151 O 0.47332 0.37782 0.38549 0.0
O152 O 0.48618 0.4158 0.34584 0.0
C153 C 0.47221 0.35966 0.26947 0.0
Fe154 Fe 0.50782 0.65378 0.88368 0.0
Fe155 Fe 0.50949 0.6149 0.8132 0.0
O156 O 0.50816 0.65222 0.83539 0.0
Fe157 Fe 0.50715 0.68815 0.80927 0.0
O158 O 0.54836 0.70249 0.83007 0.0
O159 O 0.53336 0.69148 0.88646 0.0
O160 O 0.54984 0.63314 0.88791 0.0
C161 C 0.556 0.60638 0.87413 0.0
C162 C 0.45987 0.70035 0.86706 0.0
O163 O 0.53694 0.5956 0.84827 0.0
C164 C 0.46139 0.65049 0.76927 0.0
O165 O 0.4825 0.61637 0.88977 0.0
O166 O 0.4686 0.60089 0.83444 0.0
O167 O 0.47999 0.70993 0.84166 0.0
O168 O 0.46564 0.6743 0.88338 0.0
C169 C 0.55488 0.64997 0.77012 0.0
O170 O 0.48229 0.62746 0.77414 0.0
O171 O 0.46592 0.67621 0.78639 0.0
C172 C 0.46372 0.59949 0.86831 0.0
O173 O 0.55049 0.62567 0.79018 0.0
O174 O 0.53412 0.6733 0.77198 0.0
C175 C 0.5536 0.70547 0.86383 0.0
H176 H 0.23074 0.31355 0.89429 0.0
H177 H 0.23832 0.27255 1.002 0.0
H178 H 0.1763 0.28279 0.88259 0.0
H179 H 0.18283 0.24201 0.99095 0.0
H180 H 0.10664 0.16575 0.93856 0.0
H181 H 0.15909 0.19777 0.95565 0.0
H182 H 0.11546 0.27878 0.89816 0.0
H183 H 0.06392 0.2467 0.88026 0.0
C184 C 0.22028 0.29819 0.91566 0.0
C185 C 0.23831 0.29544 0.94903 0.0
C186 C 0.18898 0.28065 0.9091 0.0
C187 C 0.17487 0.25997 0.93589 0.0
C188 C 0.19303 0.25746 0.96959 0.0
C189 C 0.22457 0.27507 0.97608 0.0
C190 C 0.10819 0.19046 0.92979 0.0
C191 C 0.08118 0.20352 0.90773 0.0
C192 C 0.1382 0.2089 0.93975 0.0
C193 C 0.1418 0.24085 0.92801 0.0
C194 C 0.1141 0.2541 0.90704 0.0
C195 C 0.08436 0.23568 0.8969 0.0
H196 H 0.79631 0.69637 0.39938 0.0
H197 H 0.79427 0.73448 0.50764 0.0
H198 H 0.85097 0.7264 0.38704 0.0
H199 H 0.85 0.7642 0.49598 0.0
H200 H 0.9248 0.84108 0.4438 0.0
H201 H 0.87281 0.80899 0.46127 0.0
H202 H 0.91251 0.72977 0.40066 0.0
H203 H 0.96364 0.76206 0.38234 0.0
C204 C 0.80808 0.71088 0.42074 0.0
C205 C 0.79148 0.71308 0.45445 0.0
C206 C 0.83952 0.728 0.41381 0.0
C207 C 0.85521 0.74772 0.44055 0.0
C208 C 0.83857 0.74954 0.47462 0.0
C209 C 0.80689 0.73237 0.48148 0.0
C210 C 0.92252 0.81674 0.43441 0.0
C211 C 0.94832 0.80428 0.4114 0.0
C212 C 0.89276 0.79824 0.4446 0.0
C213 C 0.88816 0.76677 0.43219 0.0
C214 C 0.91464 0.75408 0.41015 0.0
C215 C 0.94416 0.7726 0.39977 0.0
H216 H 0.76982 0.27296 0.98783 0.0
H217 H 0.82184 0.34991 0.9295 0.0
H218 H 0.81896 0.23757 0.97323 0.0
H219 H 0.87086 0.31493 0.91494 0.0
H220 H 0.91924 0.23285 0.85197 0.0
H221 H 0.87417 0.26843 0.87394 0.0
H222 H 0.88526 0.22805 0.98188 0.0
H223 H 0.93075 0.19213 0.95986 0.0
C224 C 0.79222 0.28241 0.97264 0.0
C225 C 0.79242 0.31405 0.95992 0.0
C226 C 0.82029 0.26223 0.96426 0.0
C227 C 0.84864 0.27336 0.9426 0.0
C228 C 0.84921 0.3055 0.93123 0.0
C229 C 0.82138 0.3256 0.93981 0.0
C230 C 0.91224 0.23147 0.88043 0.0
C231 C 0.92882 0.20962 0.90414 0.0
C232 C 0.88649 0.25208 0.89309 0.0
C233 C 0.87632 0.25128 0.92975 0.0
C234 C 0.89248 0.2292 0.95347 0.0
C235 C 0.91864 0.20873 0.94086 0.0
H236 H 0.28051 0.73686 0.41809 0.0
H237 H 0.21202 0.67804 0.48504 0.0
H238 H 0.2316 0.77337 0.40618 0.0
H239 H 0.16271 0.71443 0.47308 0.0
H240 H 0.08984 0.80214 0.46074 0.0
H241 H 0.14087 0.77078 0.48075 0.0
H242 H 0.17588 0.76572 0.36962 0.0
H243 H 0.12526 0.79695 0.34961 0.0
C244 C 0.2551 0.73227 0.43091 0.0
C245 C 0.24976 0.70502 0.45258 0.0
C246 C 0.22708 0.75291 0.42387 0.0
C247 C 0.19324 0.74654 0.43838 0.0
C248 C 0.18854 0.72004 0.46173 0.0
C249 C 0.21663 0.69928 0.46861 0.0
C250 C 0.10846 0.79434 0.4406 0.0
C251 C 0.10341 0.80198 0.40355 0.0
C252 C 0.13759 0.77634 0.45208 0.0
C253 C 0.16249 0.76603 0.42679 0.0
C254 C 0.15745 0.77376 0.38983 0.0
C255 C 0.12823 0.79142 0.37832 0.0
H256 H 0.76068 0.78663 0.91551 0.0
H257 H 0.69157 0.83385 0.98949 0.0
H258 H 0.70891 0.76259 0.88459 0.0
H259 H 0.63956 0.81036 0.95842 0.0
H260 H 0.56737 0.72278 0.93406 0.0
H261 H 0.61613 0.75582 0.95717 0.0
H262 H 0.65438 0.77026 0.84786 0.0
H263 H 0.60557 0.73666 0.82455 0.0
C264 C 0.73426 0.79259 0.92433 0.0
C265 C 0.72979 0.8121 0.95454 0.0
C266 C 0.70462 0.77888 0.90669 0.0
C267 C 0.67008 0.7843 0.91926 0.0
C268 C 0.6658 0.80533 0.9484 0.0
C269 C 0.69545 0.81904 0.96595 0.0
C270 C 0.58598 0.73311 0.91482 0.0
C271 C 0.58253 0.72694 0.87741 0.0
C272 C 0.61382 0.75234 0.92808 0.0
C273 C 0.63909 0.76586 0.90436 0.0
C274 C 0.63547 0.76006 0.86687 0.0
C275 C 0.60742 0.7409 0.85352 0.0
H276 H 0.33739 0.17719 0.49287 0.0
H277 H 0.26874 0.2201 0.41217 0.0
H278 H 0.38943 0.20105 0.463 0.0
H279 H 0.32052 0.24452 0.38241 0.0
H280 H 0.42431 0.27184 0.32614 0.0
H281 H 0.37605 0.23762 0.34908 0.0
H282 H 0.41155 0.25577 0.45922 0.0
H283 H 0.45978 0.28941 0.4365 0.0
C284 C 0.33364 0.19109 0.46814 0.0
C285 C 0.29938 0.19669 0.45448 0.0
C286 C 0.36331 0.20504 0.45126 0.0
C287 C 0.35915 0.22502 0.42052 0.0
C288 C 0.32476 0.22907 0.40579 0.0
C289 C 0.29511 0.21512 0.42276 0.0
C290 C 0.422 0.26826 0.35524 0.0
C291 C 0.44597 0.28345 0.37944 0.0
C292 C 0.39425 0.24875 0.36837 0.0
C293 C 0.38996 0.24382 0.40599 0.0
C294 C 0.41436 0.25854 0.43007 0.0
C295 C 0.44192 0.27811 0.417 0.0
H296 H 0.28296 0.793 0.97573 0.0
H297 H 0.35495 0.86849 0.94229 0.0
H298 H 0.31839 0.75423 0.94327 0.0
H299 H 0.39101 0.83 0.91054 0.0
H300 H 0.43844 0.75706 0.83725 0.0
H301 H 0.39534 0.79392 0.86088 0.0
H302 H 0.37521 0.72967 0.95121 0.0
H303 H 0.41768 0.69242 0.92708 0.0
C304 C 0.30603 0.80129 0.96075 0.0
C305 C 0.31614 0.83361 0.96097 0.0
C306 C 0.32659 0.77911 0.94254 0.0
C307 C 0.3578 0.78885 0.9244 0.0
C308 C 0.36698 0.82158 0.9237 0.0
C309 C 0.34638 0.84369 0.94189 0.0
C310 C 0.42465 0.75064 0.86203 0.0
C311 C 0.43183 0.72179 0.88037 0.0
C312 C 0.4 0.7719 0.87569 0.0
C313 C 0.38185 0.76499 0.90814 0.0
C314 C 0.38829 0.73571 0.92593 0.0
C315 C 0.41289 0.71438 0.9122 0.0
H316 H 0.77226 0.25942 0.46287 0.0
H317 H 0.71536 0.17007 0.45007 0.0
H318 H 0.71964 0.28822 0.44219 0.0
H319 H 0.66221 0.19865 0.43001 0.0
H320 H 0.59344 0.25843 0.35098 0.0
H321 H 0.64339 0.22905 0.37667 0.0
H322 H 0.65967 0.30201 0.45752 0.0
H323 H 0.61042 0.33168 0.43147 0.0
C324 C 0.74808 0.24609 0.4564 0.0
C325 C 0.74741 0.21275 0.45827 0.0
C326 C 0.71796 0.26249 0.44457 0.0
C327 C 0.68669 0.24574 0.43426 0.0
C328 C 0.68597 0.21225 0.43724 0.0
C329 C 0.71615 0.1959 0.44909 0.0
C330 C 0.60765 0.26819 0.37425 0.0
C331 C 0.59791 0.29748 0.38904 0.0
C332 C 0.63613 0.25122 0.38917 0.0
C333 C 0.65554 0.26314 0.41922 0.0
C334 C 0.64561 0.29231 0.43413 0.0
C335 C 0.61721 0.30927 0.41922 0.0
H336 H 0.40433 0.43841 0.9989 0.0
H337 H 0.31453 0.44232 0.92454 0.0
H338 H 0.42905 0.48673 0.97159 0.0
H339 H 0.33994 0.49068 0.89659 0.0
H340 H 0.42528 0.55271 0.83238 0.0
H341 H 0.39294 0.50743 0.85947 0.0
H342 H 0.41611 0.54404 0.96663 0.0
H343 H 0.44851 0.58894 0.93988 0.0
C344 C 0.38951 0.44981 0.97709 0.0
C345 C 0.35715 0.43653 0.96426 0.0
C346 C 0.4038 0.47754 0.96132 0.0
C347 C 0.38634 0.49271 0.93208 0.0
C348 C 0.35412 0.47943 0.91895 0.0
C349 C 0.33962 0.45171 0.93495 0.0
C350 C 0.42306 0.55134 0.8617 0.0
C351 C 0.43993 0.57433 0.88392 0.0
C352 C 0.40442 0.52542 0.87721 0.0
C353 C 0.4024 0.52192 0.91522 0.0
C354 C 0.41778 0.54571 0.93728 0.0
C355 C 0.43622 0.57158 0.92186 0.0
H356 H 0.71065 0.56912 0.42884 0.0
H357 H 0.62059 0.57434 0.5002 0.0
H358 H 0.68362 0.52207 0.39997 0.0
H359 H 0.59419 0.52739 0.47194 0.0
H360 H 0.57267 0.42561 0.44127 0.0
H361 H 0.60545 0.47 0.46827 0.0
H362 H 0.63055 0.50656 0.36124 0.0
H363 H 0.5978 0.46169 0.33388 0.0
C364 C 0.68514 0.56031 0.43836 0.0
C365 C 0.66806 0.57537 0.4672 0.0
C366 C 0.66969 0.53336 0.42182 0.0
C367 C 0.63694 0.52079 0.4339 0.0
C368 C 0.61982 0.53601 0.46251 0.0
C369 C 0.63508 0.56293 0.47883 0.0
C370 C 0.58536 0.4429 0.42333 0.0
C371 C 0.58217 0.44021 0.38532 0.0
C372 C 0.60405 0.46847 0.43889 0.0
C373 C 0.62017 0.49207 0.41693 0.0
C374 C 0.61848 0.48871 0.37891 0.0
C375 C 0.59961 0.46305 0.36324 0.0
H376 H 0.71496 0.46397 0.93428 0.0
H377 H 0.63009 0.45698 0.0124 0.0
H378 H 0.68694 0.51055 0.90665 0.0
H379 H 0.60329 0.50424 0.9857 0.0
H380 H 0.57919 0.60525 0.94518 0.0
H381 H 0.61557 0.56441 0.97496 0.0
H382 H 0.62787 0.51789 0.87189 0.0
H383 H 0.59129 0.55828 0.84227 0.0
C384 C 0.69048 0.47231 0.94572 0.0
C385 C 0.67487 0.45641 0.97562 0.0
C386 C 0.6746 0.49916 0.92999 0.0
C387 C 0.64303 0.51111 0.94412 0.0
C388 C 0.62794 0.4959 0.97459 0.0
C389 C 0.64347 0.46878 0.98997 0.0
C390 C 0.59023 0.58664 0.92881 0.0
C391 C 0.58226 0.58489 0.89141 0.0
C392 C 0.61082 0.56317 0.94588 0.0
C393 C 0.62441 0.5379 0.92575 0.0
C394 C 0.61797 0.53716 0.88806 0.0
C395 C 0.5969 0.56023 0.87115 0.0
H396 H 0.30994 0.54585 0.4307 0.0
H397 H 0.39661 0.54966 0.50912 0.0
H398 H 0.33604 0.49917 0.40322 0.0
H399 H 0.42149 0.50218 0.48256 0.0
H400 H 0.44215 0.40215 0.44053 0.0
H401 H 0.40621 0.44196 0.47044 0.0
H402 H 0.39613 0.49381 0.36892 0.0
H403 H 0.43249 0.45439 0.33907 0.0
C404 C 0.33435 0.53668 0.4423 0.0
C405 C 0.3513 0.55186 0.47198 0.0
C406 C 0.3491 0.50982 0.42667 0.0
C407 C 0.38073 0.49715 0.44078 0.0
C408 C 0.39682 0.51128 0.47144 0.0
C409 C 0.38242 0.53845 0.48672 0.0
C410 C 0.43167 0.42169 0.42442 0.0
C411 C 0.44027 0.42527 0.38747 0.0
C412 C 0.41132 0.44453 0.44161 0.0
C413 C 0.39858 0.47095 0.42199 0.0
C414 C 0.40545 0.47354 0.38461 0.0
C415 C 0.42635 0.45107 0.36758 0.0
H416 H 0.85438 0.90862 0.94374 0.0
H417 H 0.80767 0.96962 0.02298 0.0
H418 H 0.87992 0.95501 0.91284 0.0
H419 H 0.83176 0.01651 0.99123 0.0
H420 H 0.91576 0.04246 0.8543 0.0
H421 H 0.87555 1.00141 0.87813 0.0
H422 H 0.88741 0.04153 0.98557 0.0
H423 H 0.9261 0.08348 0.96113 0.0
C424 C 0.84847 0.93212 0.95371 0.0
C425 C 0.82916 0.93555 0.98576 0.0
C426 C 0.86313 0.95887 0.936 0.0
C427 C 0.85841 0.98975 0.9497 0.0
C428 C 0.8368 0.99317 0.98036 0.0
C429 C 0.82261 0.96636 0.99835 0.0
C430 C 0.90928 0.04274 0.88292 0.0
C431 C 0.92434 0.06602 0.90591 0.0
C432 C 0.88638 0.01905 0.89668 0.0
C433 C 0.87846 0.01765 0.93397 0.0
C434 C 0.89237 0.04188 0.95664 0.0
C435 C 0.91479 0.06594 0.9427 0.0
H436 H 0.21616 0.04145 0.53092 0.0
H437 H 0.17215 0.10079 0.44577 0.0
H438 H 0.19277 0.99396 0.5004 0.0
H439 H 0.14717 0.05384 0.41605 0.0
H440 H 0.114 0.96561 0.35901 0.0
H441 H 0.15281 0.00732 0.38372 0.0
H442 H 0.13847 0.96762 0.49173 0.0
H443 H 0.10135 0.92494 0.46643 0.0
C444 C 0.20181 0.04423 0.50538 0.0
C445 C 0.19602 0.07477 0.49065 0.0
C446 C 0.18803 0.01705 0.48803 0.0
C447 C 0.16753 0.0198 0.45585 0.0
C448 C 0.1632 0.05043 0.44039 0.0
C449 C 0.17749 0.07752 0.45744 0.0
C450 C 0.11974 0.96553 0.38796 0.0
C451 C 0.10446 0.94213 0.41082 0.0
C452 C 0.14177 0.98965 0.40225 0.0
C453 C 0.14849 0.99144 0.43994 0.0
C454 C 0.13444 0.96704 0.46255 0.0
C455 C 0.11295 0.94252 0.4481 0.0
H456 H 0.16359 0.91231 0.93768 0.0
H457 H 0.20809 0.98294 0.01017 0.0
H458 H 0.128 0.95351 0.90721 0.0
H459 H 0.17329 0.02419 0.9797 0.0
H460 H 0.06767 0.07398 0.95716 0.0
H461 H 0.11007 0.03526 0.97976 0.0
H462 H 0.12726 1.00355 0.87015 0.0
H463 H 0.08428 0.04229 0.84734 0.0
C464 C 0.16652 0.93685 0.94624 0.0
C465 C 0.18863 0.94465 0.97597 0.0
C466 C 0.14616 0.96043 0.92894 0.0
C467 C 0.14743 0.99211 0.94134 0.0
C468 C 0.17116 0.99998 0.96987 0.0
C469 C 0.19139 0.97649 0.98706 0.0
C470 C 0.08053 0.0589 0.93775 0.0
C471 C 0.07239 0.06128 0.9004 0.0
C472 C 0.10511 0.0368 0.95072 0.0
C473 C 0.12227 0.01635 0.92677 0.0
C474 C 0.11437 0.01879 0.88935 0.0
C475 C 0.08984 0.04112 0.87629 0.0
H476 H 0.82267 0.06633 0.44086 0.0
H477 H 0.90484 0.07335 0.52375 0.0
H478 H 0.85259 0.02072 0.41482 0.0
H479 H 0.9344 0.02803 0.49801 0.0
H480 H 0.96456 0.93038 0.46427 0.0
H481 H 0.92706 0.97082 0.48987 0.0
H482 H 0.90817 0.01004 0.38238 0.0
H483 H 0.94526 0.96909 0.3565 0.0
C484 C 0.84702 0.05809 0.45355 0.0
C485 C 0.86122 0.0733 0.48454 0.0
C486 C 0.86413 0.03203 0.43865 0.0
C487 C 0.89573 0.02065 0.45449 0.0
C488 C 0.90969 0.03575 0.48561 0.0
C489 C 0.89269 0.06174 0.50042 0.0
C490 C 0.95221 0.94744 0.44599 0.0
C491 C 0.95833 0.94676 0.40837 0.0
C492 C 0.9308 0.97069 0.46071 0.0
C493 C 0.91504 0.99388 0.43821 0.0
C494 C 0.9198 0.99239 0.40041 0.0
C495 C 0.94121 0.96902 0.38561 0.0
H496 H 0.37793 0.32313 0.05859 0.0
H497 H 0.32022 0.40445 0.09485 0.0
H498 H 0.40635 0.31832 0.11819 0.0
H499 H 0.34694 0.3988 0.15538 0.0
H500 H 0.43929 0.41012 0.23675 0.0
H501 H 0.40126 0.40974 0.18298 0.0
H502 H 0.40625 0.30687 0.18 0.0
H503 H 0.44606 0.3076 0.23287 0.0
C504 C 0.37039 0.33927 0.07984 0.0
C505 C 0.34696 0.36417 0.07216 0.0
C506 C 0.38666 0.33655 0.11416 0.0
C507 C 0.37948 0.35844 0.14183 0.0
C508 C 0.35403 0.38202 0.13465 0.0
C509 C 0.3383 0.38507 0.10011 0.0
C510 C 0.43202 0.38738 0.22483 0.0
C511 C 0.44601 0.35892 0.23894 0.0
C512 C 0.40986 0.38709 0.19399 0.0
C513 C 0.40049 0.35825 0.17672 0.0
C514 C 0.41336 0.32963 0.19188 0.0
C515 C 0.43606 0.33 0.2224 0.0
H516 H 0.70442 0.60149 0.59921 0.0
H517 H 0.65235 0.68704 0.56297 0.0
H518 H 0.67773 0.6064 0.65901 0.0
H519 H 0.62403 0.69128 0.62176 0.0
H520 H 0.58521 0.70113 0.7351 0.0
H521 H 0.62517 0.70092 0.68351 0.0
H522 H 0.62297 0.59779 0.68578 0.0
H523 H 0.58472 0.59827 0.73854 0.0
C524 C 0.68759 0.6216 0.60431 0.0
C525 C 0.68054 0.64395 0.57655 0.0
C526 C 0.67188 0.62426 0.63844 0.0
C527 C 0.64809 0.64897 0.64541 0.0
C528 C 0.64247 0.67214 0.61795 0.0
C529 C 0.65871 0.66976 0.58407 0.0
C530 C 0.59368 0.67844 0.72478 0.0
C531 C 0.58161 0.64972 0.74078 0.0
C532 C 0.61645 0.67827 0.69497 0.0
C533 C 0.62724 0.64934 0.67986 0.0
C534 C 0.61591 0.62062 0.69673 0.0
C535 C 0.59368 0.62083 0.72697 0.0
H536 H 0.66858 0.33527 0.06819 0.0
H537 H 0.71175 0.42599 0.10331 0.0
H538 H 0.64227 0.32665 0.12795 0.0
H539 H 0.68598 0.41727 0.16325 0.0
H540 H 0.58519 0.41529 0.23357 0.0
H541 H 0.62494 0.41904 0.18226 0.0
H542 H 0.64798 0.31893 0.19402 0.0
H543 H 0.60738 0.315 0.2455 0.0
C544 C 0.67347 0.35287 0.08909 0.0
C545 C 0.69188 0.38147 0.08094 0.0
C546 C 0.65834 0.34797 0.12338 0.0
C547 C 0.66142 0.37154 0.15025 0.0
C548 C 0.68234 0.39896 0.14292 0.0
C549 C 0.69729 0.4039 0.10867 0.0
C550 C 0.59892 0.39407 0.22555 0.0
C551 C 0.59278 0.36478 0.24356 0.0
C552 C 0.62207 0.39629 0.19622 0.0
C553 C 0.63979 0.36929 0.18394 0.0
C554 C 0.63454 0.34013 0.20259 0.0
C555 C 0.61142 0.33793 0.23221 0.0
H556 H 0.31667 0.58587 0.59737 0.0
H557 H 0.36389 0.67454 0.55964 0.0
H558 H 0.34071 0.59561 0.65829 0.0
H559 H 0.38854 0.68409 0.62031 0.0
H560 H 0.42155 0.69825 0.73794 0.0
H561 H 0.38143 0.69388 0.68514 0.0
H562 H 0.40065 0.59276 0.68106 0.0
H563 H 0.43973 0.59696 0.73369 0.0
C564 C 0.33174 0.60769 0.60229 0.0
C565 C 0.33875 0.62926 0.57367 0.0
C566 C 0.34563 0.61324 0.63712 0.0
C567 C 0.36713 0.64036 0.64407 0.0
C568 C 0.37194 0.66307 0.61605 0.0
C569 C 0.35782 0.6576 0.58122 0.0
C570 C 0.41671 0.67504 0.72605 0.0
C571 C 0.43415 0.64802 0.73984 0.0
C572 C 0.39387 0.67257 0.69571 0.0
C573 C 0.38781 0.64298 0.67877 0.0
C574 C 0.40418 0.61586 0.69362 0.0
C575 C 0.42697 0.61833 0.72369 0.0
H576 H 0.89796 0.90527 0.08512 0.0
H577 H 0.81106 0.84842 0.12855 0.0
H578 H 0.928 0.90353 0.14392 0.0
H579 H 0.84182 0.8462 0.18766 0.0
H580 H 0.93651 0.82205 0.27046 0.0
H581 H 0.8985 0.8236 0.21583 0.0
H582 H 0.91838 0.92496 0.20563 0.0
H583 H 0.95624 0.92352 0.25958 0.0
C584 C 0.88498 0.89275 0.10734 0.0
C585 C 0.85183 0.87736 0.10217 0.0
C586 C 0.9023 0.89167 0.14105 0.0
C587 C 0.88708 0.875 0.1705 0.0
C588 C 0.85421 0.85913 0.16538 0.0
C589 C 0.83667 0.8604 0.13156 0.0
C590 C 0.93227 0.84471 0.25687 0.0
C591 C 0.9499 0.87256 0.26902 0.0
C592 C 0.91047 0.8456 0.22565 0.0
C593 C 0.90603 0.87431 0.20614 0.0
C594 C 0.92195 0.90237 0.21963 0.0
C595 C 0.94357 0.90151 0.25066 0.0
H596 H 0.1556 0.1833 0.59316 0.0
H597 H 0.19631 0.09106 0.62359 0.0
H598 H 0.1246 0.18578 0.65082 0.0
H599 H 0.16544 0.09358 0.68143 0.0
H600 H 0.06452 0.09027 0.75107 0.0
H601 H 0.10405 0.09011 0.69953 0.0
H602 H 0.13023 0.1895 0.71705 0.0
H603 H 0.08977 0.18989 0.76868 0.0
C604 C 0.1585 0.16381 0.61246 0.0
C605 C 0.17826 0.13688 0.60367 0.0
C606 C 0.14076 0.16526 0.64558 0.0
C607 C 0.14235 0.13981 0.67071 0.0
C608 C 0.16315 0.11337 0.66243 0.0
C609 C 0.18083 0.1119 0.62929 0.0
C610 C 0.07883 0.11212 0.74421 0.0
C611 C 0.07367 0.14019 0.76388 0.0
C612 C 0.1018 0.11192 0.71474 0.0
C613 C 0.12033 0.13979 0.70407 0.0
C614 C 0.11604 0.16771 0.72434 0.0
C615 C 0.09303 0.16789 0.75404 0.0
H616 H 0.23356 0.89825 0.12694 0.0
H617 H 0.13447 0.87597 0.07152 0.0
H618 H 0.20405 0.89188 0.18571 0.0
H619 H 0.10502 0.86971 0.13004 0.0
H620 H 0.07228 0.82992 0.24001 0.0
H621 H 0.1067 0.83286 0.18447 0.0
H622 H 0.15599 0.921 0.22019 0.0
H623 H 0.12139 0.91823 0.27611 0.0
C624 C 0.20558 0.89167 0.12737 0.0
C625 C 0.18628 0.88756 0.09469 0.0
C626 C 0.18866 0.8883 0.16094 0.0
C627 C 0.15226 0.88027 0.16245 0.0
C628 C 0.13317 0.87562 0.12975 0.0
C629 C 0.14995 0.87939 0.09626 0.0
C630 C 0.09067 0.84983 0.23633 0.0
C631 C 0.09381 0.87401 0.26248 0.0
C632 C 0.11026 0.85155 0.20435 0.0
C633 C 0.13379 0.87729 0.19783 0.0
C634 C 0.13814 0.90081 0.22456 0.0
C635 C 0.11822 0.89928 0.25651 0.0
H636 H 0.80939 0.09892 0.60929 0.0
H637 H 0.86946 0.18418 0.58204 0.0
H638 H 0.83103 0.10207 0.67207 0.0
H639 H 0.89256 0.18674 0.64401 0.0
H640 H 0.92554 0.19161 0.76011 0.0
H641 H 0.88719 0.19416 0.70629 0.0
H642 H 0.88448 0.09114 0.70213 0.0
H643 H 0.92123 0.08878 0.75691 0.0
C644 C 0.8267 0.1187 0.61702 0.0
C645 C 0.83774 0.14133 0.5909 0.0
C646 C 0.8395 0.12033 0.65287 0.0
C647 C 0.86419 0.14431 0.66323 0.0
C648 C 0.87335 0.16809 0.63745 0.0
C649 C 0.86009 0.1667 0.60178 0.0
C650 C 0.91625 0.16952 0.74795 0.0
C651 C 0.92669 0.14 0.76257 0.0
C652 C 0.89441 0.17096 0.71691 0.0
C653 C 0.88293 0.1429 0.69932 0.0
C654 C 0.89221 0.11333 0.715 0.0
C655 C 0.91357 0.11191 0.7464 0.0
loop_
_geom_bond_atom_site_label_1
_geom_bond_atom_site_label_2
_geom_bond_distance
_geom_bond_site_symmetry_2
_ccdc_geom_bond_type
H0 C3 0.929 . S
H1 C6 0.929 . S
H2 C8 0.930 . S
C3 H0 0.929 . S
C3 C4 1.398 . S
C3 C5 1.396 1_554 S
C4 C3 1.398 . S
C4 C8 1.407 . S
C5 C3 1.396 1_556 S
C5 C6 1.394 . S
C6 H1 0.929 . S
C6 C5 1.394 . S
C6 C7 1.382 1_556 S
C7 C6 1.382 1_554 S
C7 C8 1.392 . S
C7 N9 1.420 1_554 S
C8 H2 0.930 . S
C8 C4 1.407 . S
C8 C7 1.392 . S
N9 C7 1.420 1_556 S
N9 C10 1.244 . S
C10 N9 1.244 . S
H11 C14 0.929 . S
H12 C17 0.929 . S
H13 C19 0.930 . S
C14 H11 0.929 . S
C14 C15 1.398 . S
C14 C16 1.396 . S
C15 C14 1.398 . S
C15 C19 1.407 . S
C16 C14 1.396 . S
C16 C17 1.394 . S
C17 H12 0.929 . S
C17 C16 1.394 . S
C17 C18 1.382 . S
C18 C17 1.382 . S
C18 C19 1.392 . S
C18 N20 1.420 . S
C19 H13 0.930 . S
C19 C15 1.407 . S
C19 C18 1.392 . S
N20 C18 1.420 . S
N20 C21 1.244 . S
C21 N20 1.244 . S
H22 C25 0.929 . S
H23 C28 0.929 . S
H24 C30 0.930 . S
C25 H22 0.929 . S
C25 C26 1.398 . S
C25 C27 1.396 1_554 S
C26 C25 1.398 . S
C26 C30 1.407 . S
C27 C25 1.396 1_556 S
C27 C28 1.394 . S
C28 H23 0.929 . S
C28 C27 1.394 . S
C28 C29 1.382 1_556 S
C29 C28 1.382 1_554 S
C29 C30 1.392 . S
C29 N31 1.420 . S
C30 H24 0.930 . S
C30 C26 1.407 . S
C30 C29 1.392 . S
N31 C29 1.420 . S
N31 C32 1.244 1_554 S
C32 N31 1.244 1_556 S
H33 C36 0.929 . S
H34 C39 0.929 . S
H35 C41 0.930 . S
C36 H33 0.929 . S
C36 C37 1.398 . S
C36 C38 1.396 . S
C37 C36 1.398 . S
C37 C41 1.407 . S
C38 C36 1.396 . S
C38 C39 1.394 . S
C39 H34 0.929 . S
C39 C38 1.394 . S
C39 C40 1.382 . S
C40 C39 1.382 . S
C40 C41 1.392 . S
C40 N42 1.420 . S
C41 H35 0.930 . S
C41 C37 1.407 . S
C41 C40 1.392 . S
N42 C40 1.420 . S
N42 C43 1.244 . S
C43 N42 1.244 . S
H44 C47 0.929 . S
H45 C50 0.929 . S
H46 C52 0.930 . S
C47 H44 0.929 . S
C47 C48 1.398 . S
C47 C49 1.396 1_554 S
C48 C47 1.398 . S
C48 C52 1.407 . S
C49 C47 1.396 1_556 S
C49 C50 1.394 . S
C50 H45 0.929 . S
C50 C49 1.394 . S
C50 C51 1.382 1_556 S
C51 C50 1.382 1_554 S
C51 C52 1.392 . S
C51 N53 1.420 1_554 S
C52 H46 0.930 . S
C52 C48 1.407 . S
C52 C51 1.392 . S
N53 C51 1.420 1_556 S
N53 C54 1.244 . S
C54 N53 1.244 . S
H55 C58 0.929 . S
H56 C61 0.929 . S
H57 C63 0.930 . S
C58 H55 0.929 . S
C58 C59 1.398 . S
C58 C60 1.396 . S
C59 C58 1.398 . S
C59 C63 1.407 . S
C60 C58 1.396 . S
C60 C61 1.394 . S
C61 H56 0.929 . S
C61 C60 1.394 . S
C61 C62 1.382 . S
C62 C61 1.382 . S
C62 C63 1.392 . S
C62 N64 1.420 . S
C63 H57 0.930 . S
C63 C59 1.407 . S
C63 C62 1.392 . S
N64 C62 1.420 . S
N64 C65 1.244 . S
C65 N64 1.244 . S
H66 C69 0.929 . S
H67 C72 0.929 . S
H68 C74 0.930 . S
C69 H66 0.929 . S
C69 C70 1.398 . S
C69 C71 1.396 1_554 S
C70 C69 1.398 . S
C70 C74 1.407 . S
C71 C69 1.396 1_556 S
C71 C72 1.394 . S
C72 H67 0.929 . S
C72 C71 1.394 . S
C72 C73 1.382 1_556 S
C73 C72 1.382 1_554 S
C73 C74 1.392 . S
C73 N75 1.420 . S
C74 H68 0.930 . S
C74 C70 1.407 . S
C74 C73 1.392 . S
N75 C73 1.420 . S
N75 C76 1.244 1_554 S
C76 N75 1.244 1_556 S
H77 C80 0.929 . S
H78 C83 0.929 . S
H79 C85 0.930 . S
C80 H77 0.929 . S
C80 C81 1.398 . S
C80 C82 1.396 . S
C81 C80 1.398 . S
C81 C85 1.407 . S
C82 C80 1.396 . S
C82 C83 1.394 . S
C83 H78 0.929 . S
C83 C82 1.394 . S
C83 C84 1.382 . S
C84 C83 1.382 . S
C84 C85 1.392 . S
C84 N86 1.420 . S
C85 H79 0.930 . S
C85 C81 1.407 . S
C85 C84 1.392 . S
N86 C84 1.420 . S
N86 C87 1.244 . S
C87 N86 1.244 . S
Fe88 O90 1.918 . S
Fe88 O93 1.997 1_455 S
Fe88 O94 2.002 1_455 S
Fe88 O99 1.976 . S
Fe88 O102 1.996 . S
Fe89 O90 1.918 . S
Fe89 O97 1.997 1_455 S
Fe89 O100 1.996 . S
Fe89 O104 1.976 . S
Fe89 O107 2.002 1_455 S
O90 Fe88 1.918 . S
O90 Fe89 1.918 . S
O90 Fe91 1.918 . S
Fe91 O90 1.918 . S
Fe91 O92 2.002 1_455 S
Fe91 O101 1.976 . S
Fe91 O105 1.996 . S
Fe91 O108 1.997 1_455 S
O92 Fe91 2.002 1_655 S
O92 C109 1.295 . S
O93 Fe88 1.997 1_655 S
O93 C109 1.235 . S
O94 Fe88 2.002 1_655 S
O94 C95 1.295 . S
C95 O94 1.295 . S
C95 O97 1.235 . S
C96 O101 1.287 . S
C96 O102 1.255 . S
O97 Fe89 1.997 1_655 S
O97 C95 1.235 . S
C98 O104 1.287 . S
C98 O105 1.255 . S
O99 Fe88 1.976 . S
O99 C106 1.287 . S
O100 Fe89 1.996 . S
O100 C106 1.255 . S
O101 Fe91 1.976 . S
O101 C96 1.287 . S
O102 Fe88 1.996 . S
O102 C96 1.255 . S
C103 O107 1.295 . S
C103 O108 1.235 . S
O104 Fe89 1.976 . S
O104 C98 1.287 . S
O105 Fe91 1.996 . S
O105 C98 1.255 . S
C106 O99 1.287 . S
C106 O100 1.255 . S
O107 Fe89 2.002 1_655 S
O107 C103 1.295 . S
O108 Fe91 1.997 1_655 S
O108 C103 1.235 . S
C109 O92 1.295 . S
C109 O93 1.235 . S
Fe110 O112 1.918 1_455 S
Fe110 O115 2.007 . S
Fe110 O116 2.013 . S
Fe110 O121 1.966 1_455 S
Fe110 O124 1.985 1_455 S
Fe111 O112 1.918 . S
Fe111 O119 1.998 1_655 S
Fe111 O122 1.994 . S
Fe111 O126 1.975 . S
Fe111 O129 2.004 1_655 S
O112 Fe110 1.918 1_655 S
O112 Fe111 1.918 . S
O112 Fe113 1.918 1_655 S
Fe113 O112 1.918 1_455 S
Fe113 O114 2.009 . S
Fe113 O123 1.969 1_455 S
Fe113 O127 1.990 1_455 S
Fe113 O130 2.003 . S
O114 Fe113 2.009 . S
O114 C131 1.295 . S
O115 Fe110 2.007 . S
O115 C131 1.235 . S
O116 Fe110 2.013 . S
O116 C117 1.295 . S
C117 O116 1.295 . S
C117 O119 1.235 . S
C118 O123 1.287 . S
C118 O124 1.255 . S
O119 Fe111 1.998 1_455 S
O119 C117 1.235 . S
C120 O126 1.287 . S
C120 O127 1.255 . S
O121 Fe110 1.966 1_655 S
O121 C128 1.287 . S
O122 Fe111 1.994 . S
O122 C128 1.255 . S
O123 Fe113 1.969 1_655 S
O123 C118 1.287 . S
O124 Fe110 1.985 1_655 S
O124 C118 1.255 . S
C125 O129 1.295 . S
C125 O130 1.235 . S
O126 Fe111 1.975 . S
O126 C120 1.287 . S
O127 Fe113 1.990 1_655 S
O127 C120 1.255 . S
C128 O121 1.287 . S
C128 O122 1.255 . S
O129 Fe111 2.004 1_455 S
O129 C125 1.295 . S
O130 Fe113 2.003 . S
O130 C125 1.235 . S
C131 O114 1.295 . S
C131 O115 1.235 . S
Fe132 O134 1.918 . S
Fe132 O137 1.997 . S
Fe132 O138 2.002 . S
Fe132 O143 1.976 . S
Fe132 O146 1.996 . S
Fe133 O134 1.918 . S
Fe133 O141 1.997 . S
Fe133 O144 1.996 . S
Fe133 O148 1.976 . S
Fe133 O151 2.002 . S
O134 Fe132 1.918 . S
O134 Fe133 1.918 . S
O134 Fe135 1.918 . S
Fe135 O134 1.918 . S
Fe135 O136 2.002 . S
Fe135 O145 1.976 . S
Fe135 O149 1.996 . S
Fe135 O152 1.997 . S
O136 Fe135 2.002 . S
O136 C153 1.295 . S
O137 Fe132 1.997 . S
O137 C153 1.235 . S
O138 Fe132 2.002 . S
O138 C139 1.295 . S
C139 O138 1.295 . S
C139 O141 1.235 . S
C140 O145 1.287 . S
C140 O146 1.255 . S
O141 Fe133 1.997 . S
O141 C139 1.235 . S
C142 O148 1.287 . S
C142 O149 1.255 . S
O143 Fe132 1.976 . S
O143 C150 1.287 . S
O144 Fe133 1.996 . S
O144 C150 1.255 . S
O145 Fe135 1.976 . S
O145 C140 1.287 . S
O146 Fe132 1.996 . S
O146 C140 1.255 . S
C147 O151 1.295 . S
C147 O152 1.235 . S
O148 Fe133 1.976 . S
O148 C142 1.287 . S
O149 Fe135 1.996 . S
O149 C142 1.255 . S
C150 O143 1.287 . S
C150 O144 1.255 . S
O151 Fe133 2.002 . S
O151 C147 1.295 . S
O152 Fe135 1.997 . S
O152 C147 1.235 . S
C153 O136 1.295 . S
C153 O137 1.235 . S
Fe154 O156 1.918 . S
Fe154 O159 1.997 . S
Fe154 O160 2.002 . S
Fe154 O165 1.976 . S
Fe154 O168 1.996 . S
Fe155 O156 1.918 . S
Fe155 O163 1.997 . S
Fe155 O166 1.996 . S
Fe155 O170 1.976 . S
Fe155 O173 2.002 . S
O156 Fe154 1.918 . S
O156 Fe155 1.918 . S
O156 Fe157 1.918 . S
Fe157 O156 1.918 . S
Fe157 O158 2.002 . S
Fe157 O167 1.976 . S
Fe157 O171 1.996 . S
Fe157 O174 1.997 . S
O158 Fe157 2.002 . S
O158 C175 1.295 . S
O159 Fe154 1.997 . S
O159 C175 1.235 . S
O160 Fe154 2.002 . S
O160 C161 1.295 . S
C161 O160 1.295 . S
C161 O163 1.235 . S
C162 O167 1.287 . S
C162 O168 1.255 . S
O163 Fe155 1.997 . S
O163 C161 1.235 . S
C164 O170 1.287 . S
C164 O171 1.255 . S
O165 Fe154 1.976 . S
O165 C172 1.287 . S
O166 Fe155 1.996 . S
O166 C172 1.255 . S
O167 Fe157 1.976 . S
O167 C162 1.287 . S
O168 Fe154 1.996 . S
O168 C162 1.255 . S
C169 O173 1.295 . S
C169 O174 1.235 . S
O170 Fe155 1.976 . S
O170 C164 1.287 . S
O171 Fe157 1.996 . S
O171 C164 1.255 . S
C172 O165 1.287 . S
C172 O166 1.255 . S
O173 Fe155 2.002 . S
O173 C169 1.295 . S
O174 Fe157 1.997 . S
O174 C169 1.235 . S
C175 O158 1.295 . S
C175 O159 1.235 . S
H176 C184 0.950 . S
H177 C189 0.950 1_554 S
H178 C186 0.950 . S
H179 C188 0.950 . S
H180 C190 0.950 . S
H181 C192 0.950 . S
H182 C194 0.950 . S
H183 C195 0.950 . S
C184 H176 0.950 . S
C184 C185 1.386 . S
C184 C186 1.391 . S
C185 C184 1.386 . S
C185 C189 1.393 . S
C186 H178 0.950 . S
C186 C184 1.391 . S
C186 C187 1.400 . S
C187 C186 1.400 . S
C187 C188 1.398 . S
C187 C193 1.491 . S
C188 H179 0.950 . S
C188 C187 1.398 . S
C188 C189 1.391 . S
C189 H177 0.950 1_556 S
C189 C185 1.393 . S
C189 C188 1.391 . S
C190 H180 0.950 . S
C190 C191 1.386 . S
C190 C192 1.391 . S
C191 C190 1.386 . S
C191 C195 1.393 . S
C192 H181 0.950 . S
C192 C190 1.391 . S
C192 C193 1.400 . S
C193 C187 1.491 . S
C193 C192 1.400 . S
C193 C194 1.398 . S
C194 H182 0.950 . S
C194 C193 1.398 . S
C194 C195 1.391 . S
C195 H183 0.950 . S
C195 C191 1.393 . S
C195 C194 1.391 . S
H196 C204 0.950 . S
H197 C209 0.950 . S
H198 C206 0.950 . S
H199 C208 0.950 . S
H200 C210 0.950 . S
H201 C212 0.950 . S
H202 C214 0.950 . S
H203 C215 0.950 . S
C204 H196 0.950 . S
C204 C205 1.386 . S
C204 C206 1.391 . S
C205 C204 1.386 . S
C205 C209 1.393 . S
C206 H198 0.950 . S
C206 C204 1.391 . S
C206 C207 1.400 . S
C207 C206 1.400 . S
C207 C208 1.398 . S
C207 C213 1.491 . S
C208 H199 0.950 . S
C208 C207 1.398 . S
C208 C209 1.391 . S
C209 H197 0.950 . S
C209 C205 1.393 . S
C209 C208 1.391 . S
C210 H200 0.950 . S
C210 C211 1.386 . S
C210 C212 1.391 . S
C211 C210 1.386 . S
C211 C215 1.393 . S
C212 H201 0.950 . S
C212 C210 1.391 . S
C212 C213 1.400 . S
C213 C207 1.491 . S
C213 C212 1.400 . S
C213 C214 1.398 . S
C214 H202 0.950 . S
C214 C213 1.398 . S
C214 C215 1.391 . S
C215 H203 0.950 . S
C215 C211 1.393 . S
C215 C214 1.391 . S
H216 C224 0.950 . S
H217 C229 0.950 . S
H218 C226 0.950 . S
H219 C228 0.950 . S
H220 C230 0.950 . S
H221 C232 0.950 . S
H222 C234 0.950 . S
H223 C235 0.950 . S
C224 H216 0.950 . S
C224 C225 1.386 . S
C224 C226 1.391 . S
C225 C224 1.386 . S
C225 C229 1.393 . S
C226 H218 0.950 . S
C226 C224 1.391 . S
C226 C227 1.400 . S
C227 C226 1.400 . S
C227 C228 1.398 . S
C227 C233 1.491 . S
C228 H219 0.950 . S
C228 C227 1.398 . S
C228 C229 1.391 . S
C229 H217 0.950 . S
C229 C225 1.393 . S
C229 C228 1.391 . S
C230 H220 0.950 . S
C230 C231 1.386 . S
C230 C232 1.391 . S
C231 C230 1.386 . S
C231 C235 1.393 . S
C232 H221 0.950 . S
C232 C230 1.391 . S
C232 C233 1.400 . S
C233 C227 1.491 . S
C233 C232 1.400 . S
C233 C234 1.398 . S
C234 H222 0.950 . S
C234 C233 1.398 . S
C234 C235 1.391 . S
C235 H223 0.950 . S
C235 C231 1.393 . S
C235 C234 1.391 . S
H236 C244 0.950 . S
H237 C249 0.950 . S
H238 C246 0.950 . S
H239 C248 0.950 . S
H240 C250 0.950 . S
H241 C252 0.950 . S
H242 C254 0.950 . S
H243 C255 0.950 . S
C244 H236 0.950 . S
C244 C245 1.386 . S
C244 C246 1.391 . S
C245 C244 1.386 . S
C245 C249 1.393 . S
C246 H238 0.950 . S
C246 C244 1.391 . S
C246 C247 1.400 . S
C247 C246 1.400 . S
C247 C248 1.398 . S
C247 C253 1.491 . S
C248 H239 0.950 . S
C248 C247 1.398 . S
C248 C249 1.391 . S
C249 H237 0.950 . S
C249 C245 1.393 . S
C249 C248 1.391 . S
C250 H240 0.950 . S
C250 C251 1.386 . S
C250 C252 1.391 . S
C251 C250 1.386 . S
C251 C255 1.393 . S
C252 H241 0.950 . S
C252 C250 1.391 . S
C252 C253 1.400 . S
C253 C247 1.491 . S
C253 C252 1.400 . S
C253 C254 1.398 . S
C254 H242 0.950 . S
C254 C253 1.398 . S
C254 C255 1.391 . S
C255 H243 0.950 . S
C255 C251 1.393 . S
C255 C254 1.391 . S
H256 C264 0.950 . S
H257 C269 0.950 1_554 S
H258 C266 0.950 . S
H259 C268 0.950 . S
H260 C270 0.950 . S
H261 C272 0.950 . S
H262 C274 0.950 . S
H263 C275 0.950 . S
C264 H256 0.950 . S
C264 C265 1.386 . S
C264 C266 1.391 . S
C265 C264 1.386 . S
C265 C269 1.393 . S
C266 H258 0.950 . S
C266 C264 1.391 . S
C266 C267 1.400 . S
C267 C266 1.400 . S
C267 C268 1.398 . S
C267 C273 1.491 . S
C268 H259 0.950 . S
C268 C267 1.398 . S
C268 C269 1.391 . S
C269 H257 0.950 1_556 S
C269 C265 1.393 . S
C269 C268 1.391 . S
C270 H260 0.950 . S
C270 C271 1.386 . S
C270 C272 1.391 . S
C271 C270 1.386 . S
C271 C275 1.393 . S
C272 H261 0.950 . S
C272 C270 1.391 . S
C272 C273 1.400 . S
C273 C267 1.491 . S
C273 C272 1.400 . S
C273 C274 1.398 . S
C274 H262 0.950 . S
C274 C273 1.398 . S
C274 C275 1.391 . S
C275 H263 0.950 . S
C275 C271 1.393 . S
C275 C274 1.391 . S
H276 C284 0.950 . S
H277 C289 0.950 . S
H278 C286 0.950 . S
H279 C288 0.950 . S
H280 C290 0.950 . S
H281 C292 0.950 . S
H282 C294 0.950 . S
H283 C295 0.950 . S
C284 H276 0.950 . S
C284 C285 1.386 . S
C284 C286 1.391 . S
C285 C284 1.386 . S
C285 C289 1.393 . S
C286 H278 0.950 . S
C286 C284 1.391 . S
C286 C287 1.400 . S
C287 C286 1.400 . S
C287 C288 1.398 . S
C287 C293 1.491 . S
C288 H279 0.950 . S
C288 C287 1.398 . S
C288 C289 1.391 . S
C289 H277 0.950 . S
C289 C285 1.393 . S
C289 C288 1.391 . S
C290 H280 0.950 . S
C290 C291 1.386 . S
C290 C292 1.391 . S
C291 C290 1.386 . S
C291 C295 1.393 . S
C292 H281 0.950 . S
C292 C290 1.391 . S
C292 C293 1.400 . S
C293 C287 1.491 . S
C293 C292 1.400 . S
C293 C294 1.398 . S
C294 H282 0.950 . S
C294 C293 1.398 . S
C294 C295 1.391 . S
C295 H283 0.950 . S
C295 C291 1.393 . S
C295 C294 1.391 . S
H296 C304 0.950 1_554 S
H297 C309 0.950 . S
H298 C306 0.950 . S
H299 C308 0.950 . S
H300 C310 0.950 . S
H301 C312 0.950 . S
H302 C314 0.950 . S
H303 C315 0.950 . S
C304 H296 0.950 1_556 S
C304 C305 1.386 . S
C304 C306 1.391 . S
C305 C304 1.386 . S
C305 C309 1.393 . S
C306 H298 0.950 . S
C306 C304 1.391 . S
C306 C307 1.400 . S
C307 C306 1.400 . S
C307 C308 1.398 . S
C307 C313 1.491 . S
C308 H299 0.950 . S
C308 C307 1.398 . S
C308 C309 1.391 . S
C309 H297 0.950 . S
C309 C305 1.393 . S
C309 C308 1.391 . S
C310 H300 0.950 . S
C310 C311 1.386 . S
C310 C312 1.391 . S
C311 C310 1.386 . S
C311 C315 1.393 . S
C312 H301 0.950 . S
C312 C310 1.391 . S
C312 C313 1.400 . S
C313 C307 1.491 . S
C313 C312 1.400 . S
C313 C314 1.398 . S
C314 H302 0.950 . S
C314 C313 1.398 . S
C314 C315 1.391 . S
C315 H303 0.950 . S
C315 C311 1.393 . S
C315 C314 1.391 . S
H316 C324 0.950 . S
H317 C329 0.950 . S
H318 C326 0.950 . S
H319 C328 0.950 . S
H320 C330 0.950 . S
H321 C332 0.950 . S
H322 C334 0.950 . S
H323 C335 0.950 . S
C324 H316 0.950 . S
C324 C325 1.386 . S
C324 C326 1.391 . S
C325 C324 1.386 . S
C325 C329 1.393 . S
C326 H318 0.950 . S
C326 C324 1.391 . S
C326 C327 1.400 . S
C327 C326 1.400 . S
C327 C328 1.398 . S
C327 C333 1.491 . S
C328 H319 0.950 . S
C328 C327 1.398 . S
C328 C329 1.391 . S
C329 H317 0.950 . S
C329 C325 1.393 . S
C329 C328 1.391 . S
C330 H320 0.950 . S
C330 C331 1.386 . S
C330 C332 1.391 . S
C331 C330 1.386 . S
C331 C335 1.393 . S
C332 H321 0.950 . S
C332 C330 1.391 . S
C332 C333 1.400 . S
C333 C327 1.491 . S
C333 C332 1.400 . S
C333 C334 1.398 . S
C334 H322 0.950 . S
C334 C333 1.398 . S
C334 C335 1.391 . S
C335 H323 0.950 . S
C335 C331 1.393 . S
C335 C334 1.391 . S
H336 C344 0.950 1_554 S
H337 C349 0.950 . S
H338 C346 0.950 . S
H339 C348 0.950 . S
H340 C350 0.950 . S
H341 C352 0.950 . S
H342 C354 0.950 . S
H343 C355 0.950 . S
C344 H336 0.950 1_556 S
C344 C345 1.386 . S
C344 C346 1.391 . S
C345 C344 1.386 . S
C345 C349 1.393 . S
C346 H338 0.950 . S
C346 C344 1.391 . S
C346 C347 1.400 . S
C347 C346 1.400 . S
C347 C348 1.398 . S
C347 C353 1.491 . S
C348 H339 0.950 . S
C348 C347 1.398 . S
C348 C349 1.391 . S
C349 H337 0.950 . S
C349 C345 1.393 . S
C349 C348 1.391 . S
C350 H340 0.950 . S
C350 C351 1.386 . S
C350 C352 1.391 . S
C351 C350 1.386 . S
C351 C355 1.393 . S
C352 H341 0.950 . S
C352 C350 1.391 . S
C352 C353 1.400 . S
C353 C347 1.491 . S
C353 C352 1.400 . S
C353 C354 1.398 . S
C354 H342 0.950 . S
C354 C353 1.398 . S
C354 C355 1.391 . S
C355 H343 0.950 . S
C355 C351 1.393 . S
C355 C354 1.391 . S
H356 C364 0.950 . S
H357 C369 0.950 . S
H358 C366 0.950 . S
H359 C368 0.950 . S
H360 C370 0.950 . S
H361 C372 0.950 . S
H362 C374 0.950 . S
H363 C375 0.950 . S
C364 H356 0.950 . S
C364 C365 1.386 . S
C364 C366 1.391 . S
C365 C364 1.386 . S
C365 C369 1.393 . S
C366 H358 0.950 . S
C366 C364 1.391 . S
C366 C367 1.400 . S
C367 C366 1.400 . S
C367 C368 1.398 . S
C367 C373 1.491 . S
C368 H359 0.950 . S
C368 C367 1.398 . S
C368 C369 1.391 . S
C369 H357 0.950 . S
C369 C365 1.393 . S
C369 C368 1.391 . S
C370 H360 0.950 . S
C370 C371 1.386 . S
C370 C372 1.391 . S
C371 C370 1.386 . S
C371 C375 1.393 . S
C372 H361 0.950 . S
C372 C370 1.391 . S
C372 C373 1.400 . S
C373 C367 1.491 . S
C373 C372 1.400 . S
C373 C374 1.398 . S
C374 H362 0.950 . S
C374 C373 1.398 . S
C374 C375 1.391 . S
C375 H363 0.950 . S
C375 C371 1.393 . S
C375 C374 1.391 . S
H376 C384 0.950 . S
H377 C389 0.950 . S
H378 C386 0.950 . S
H379 C388 0.950 . S
H380 C390 0.950 . S
H381 C392 0.950 . S
H382 C394 0.950 . S
H383 C395 0.950 . S
C384 H376 0.950 . S
C384 C385 1.386 . S
C384 C386 1.391 . S
C385 C384 1.386 . S
C385 C389 1.393 . S
C386 H378 0.950 . S
C386 C384 1.391 . S
C386 C387 1.400 . S
C387 C386 1.400 . S
C387 C388 1.398 . S
C387 C393 1.491 . S
C388 H379 0.950 . S
C388 C387 1.398 . S
C388 C389 1.391 . S
C389 H377 0.950 . S
C389 C385 1.393 . S
C389 C388 1.391 . S
C390 H380 0.950 . S
C390 C391 1.386 . S
C390 C392 1.391 . S
C391 C390 1.386 . S
C391 C395 1.393 . S
C392 H381 0.950 . S
C392 C390 1.391 . S
C392 C393 1.400 . S
C393 C387 1.491 . S
C393 C392 1.400 . S
C393 C394 1.398 . S
C394 H382 0.950 . S
C394 C393 1.398 . S
C394 C395 1.391 . S
C395 H383 0.950 . S
C395 C391 1.393 . S
C395 C394 1.391 . S
H396 C404 0.950 . S
H397 C409 0.950 . S
H398 C406 0.950 . S
H399 C408 0.950 . S
H400 C410 0.950 . S
H401 C412 0.950 . S
H402 C414 0.950 . S
H403 C415 0.950 . S
C404 H396 0.950 . S
C404 C405 1.386 . S
C404 C406 1.391 . S
C405 C404 1.386 . S
C405 C409 1.393 . S
C406 H398 0.950 . S
C406 C404 1.391 . S
C406 C407 1.400 . S
C407 C406 1.400 . S
C407 C408 1.398 . S
C407 C413 1.491 . S
C408 H399 0.950 . S
C408 C407 1.398 . S
C408 C409 1.391 . S
C409 H397 0.950 . S
C409 C405 1.393 . S
C409 C408 1.391 . S
C410 H400 0.950 . S
C410 C411 1.386 . S
C410 C412 1.391 . S
C411 C410 1.386 . S
C411 C415 1.393 . S
C412 H401 0.950 . S
C412 C410 1.391 . S
C412 C413 1.400 . S
C413 C407 1.491 . S
C413 C412 1.400 . S
C413 C414 1.398 . S
C414 H402 0.950 . S
C414 C413 1.398 . S
C414 C415 1.391 . S
C415 H403 0.950 . S
C415 C411 1.393 . S
C415 C414 1.391 . S
H416 C424 0.950 . S
H417 C429 0.950 . S
H418 C426 0.950 . S
H419 C428 0.950 . S
H420 C430 0.950 . S
H421 C432 0.950 . S
H422 C434 0.950 1_565 S
H423 C435 0.950 . S
C424 H416 0.950 . S
C424 C425 1.386 . S
C424 C426 1.391 . S
C425 C424 1.386 . S
C425 C429 1.393 . S
C426 H418 0.950 . S
C426 C424 1.391 . S
C426 C427 1.400 . S
C427 C426 1.400 . S
C427 C428 1.398 . S
C427 C433 1.491 1_565 S
C428 H419 0.950 . S
C428 C427 1.398 . S
C428 C429 1.391 . S
C429 H417 0.950 . S
C429 C425 1.393 . S
C429 C428 1.391 . S
C430 H420 0.950 . S
C430 C431 1.386 . S
C430 C432 1.391 . S
C431 C430 1.386 . S
C431 C435 1.393 . S
C432 H421 0.950 . S
C432 C430 1.391 . S
C432 C433 1.400 . S
C433 C427 1.491 1_545 S
C433 C432 1.400 . S
C433 C434 1.398 . S
C434 H422 0.950 1_545 S
C434 C433 1.398 . S
C434 C435 1.391 . S
C435 H423 0.950 . S
C435 C431 1.393 . S
C435 C434 1.391 . S
H436 C444 0.950 . S
H437 C449 0.950 . S
H438 C446 0.950 1_565 S
H439 C448 0.950 . S
H440 C450 0.950 . S
H441 C452 0.950 . S
H442 C454 0.950 . S
H443 C455 0.950 . S
C444 H436 0.950 . S
C444 C445 1.386 . S
C444 C446 1.391 . S
C445 C444 1.386 . S
C445 C449 1.393 . S
C446 H438 0.950 1_545 S
C446 C444 1.391 . S
C446 C447 1.400 . S
C447 C446 1.400 . S
C447 C448 1.398 . S
C447 C453 1.491 1_545 S
C448 H439 0.950 . S
C448 C447 1.398 . S
C448 C449 1.391 . S
C449 H437 0.950 . S
C449 C445 1.393 . S
C449 C448 1.391 . S
C450 H440 0.950 . S
C450 C451 1.386 . S
C450 C452 1.391 1_565 S
C451 C450 1.386 . S
C451 C455 1.393 . S
C452 H441 0.950 . S
C452 C450 1.391 1_545 S
C452 C453 1.400 1_545 S
C453 C447 1.491 1_565 S
C453 C452 1.400 1_565 S
C453 C454 1.398 . S
C454 H442 0.950 . S
C454 C453 1.398 . S
C454 C455 1.391 . S
C455 H443 0.950 . S
C455 C451 1.393 . S
C455 C454 1.391 . S
H456 C464 0.950 . S
H457 C469 0.950 1_554 S
H458 C466 0.950 . S
H459 C468 0.950 . S
H460 C470 0.950 . S
H461 C472 0.950 . S
H462 C474 0.950 . S
H463 C475 0.950 . S
C464 H456 0.950 . S
C464 C465 1.386 . S
C464 C466 1.391 . S
C465 C464 1.386 . S
C465 C469 1.393 . S
C466 H458 0.950 . S
C466 C464 1.391 . S
C466 C467 1.400 . S
C467 C466 1.400 . S
C467 C468 1.398 . S
C467 C473 1.491 1_565 S
C468 H459 0.950 . S
C468 C467 1.398 . S
C468 C469 1.391 . S
C469 H457 0.950 1_556 S
C469 C465 1.393 . S
C469 C468 1.391 . S
C470 H460 0.950 . S
C470 C471 1.386 . S
C470 C472 1.391 . S
C471 C470 1.386 . S
C471 C475 1.393 . S
C472 H461 0.950 . S
C472 C470 1.391 . S
C472 C473 1.400 . S
C473 C467 1.491 1_545 S
C473 C472 1.400 . S
C473 C474 1.398 . S
C474 H462 0.950 . S
C474 C473 1.398 . S
C474 C475 1.391 . S
C475 H463 0.950 . S
C475 C471 1.393 . S
C475 C474 1.391 . S
H476 C484 0.950 . S
H477 C489 0.950 . S
H478 C486 0.950 . S
H479 C488 0.950 . S
H480 C490 0.950 . S
H481 C492 0.950 . S
H482 C494 0.950 . S
H483 C495 0.950 . S
C484 H476 0.950 . S
C484 C485 1.386 . S
C484 C486 1.391 . S
C485 C484 1.386 . S
C485 C489 1.393 . S
C486 H478 0.950 . S
C486 C484 1.391 . S
C486 C487 1.400 . S
C487 C486 1.400 . S
C487 C488 1.398 . S
C487 C493 1.491 1_545 S
C488 H479 0.950 . S
C488 C487 1.398 . S
C488 C489 1.391 . S
C489 H477 0.950 . S
C489 C485 1.393 . S
C489 C488 1.391 . S
C490 H480 0.950 . S
C490 C491 1.386 . S
C490 C492 1.391 . S
C491 C490 1.386 . S
C491 C495 1.393 . S
C492 H481 0.950 . S
C492 C490 1.391 . S
C492 C493 1.400 . S
C493 C487 1.491 1_565 S
C493 C492 1.400 . S
C493 C494 1.398 . S
C494 H482 0.950 . S
C494 C493 1.398 . S
C494 C495 1.391 . S
C495 H483 0.950 . S
C495 C491 1.393 . S
C495 C494 1.391 . S
H496 C504 0.950 . S
H497 C509 0.950 . S
H498 C506 0.950 . S
H499 C508 0.950 . S
H500 C510 0.950 . S
H501 C512 0.950 . S
H502 C514 0.950 . S
H503 C515 0.950 . S
C504 H496 0.950 . S
C504 C505 1.386 . S
C504 C506 1.391 . S
C505 C504 1.386 . S
C505 C509 1.393 . S
C506 H498 0.950 . S
C506 C504 1.391 . S
C506 C507 1.400 . S
C507 C506 1.400 . S
C507 C508 1.398 . S
C507 C513 1.491 . S
C508 H499 0.950 . S
C508 C507 1.398 . S
C508 C509 1.391 . S
C509 H497 0.950 . S
C509 C505 1.393 . S
C509 C508 1.391 . S
C510 H500 0.950 . S
C510 C511 1.386 . S
C510 C512 1.391 . S
C511 C510 1.386 . S
C511 C515 1.393 . S
C512 H501 0.950 . S
C512 C510 1.391 . S
C512 C513 1.400 . S
C513 C507 1.491 . S
C513 C512 1.400 . S
C513 C514 1.398 . S
C514 H502 0.950 . S
C514 C513 1.398 . S
C514 C515 1.391 . S
C515 H503 0.950 . S
C515 C511 1.393 . S
C515 C514 1.391 . S
H516 C524 0.950 . S
H517 C529 0.950 . S
H518 C526 0.950 . S
H519 C528 0.950 . S
H520 C530 0.950 . S
H521 C532 0.950 . S
H522 C534 0.950 . S
H523 C535 0.950 . S
C524 H516 0.950 . S
C524 C525 1.386 . S
C524 C526 1.391 . S
C525 C524 1.386 . S
C525 C529 1.393 . S
C526 H518 0.950 . S
C526 C524 1.391 . S
C526 C527 1.400 . S
C527 C526 1.400 . S
C527 C528 1.398 . S
C527 C533 1.491 . S
C528 H519 0.950 . S
C528 C527 1.398 . S
C528 C529 1.391 . S
C529 H517 0.950 . S
C529 C525 1.393 . S
C529 C528 1.391 . S
C530 H520 0.950 . S
C530 C531 1.386 . S
C530 C532 1.391 . S
C531 C530 1.386 . S
C531 C535 1.393 . S
C532 H521 0.950 . S
C532 C530 1.391 . S
C532 C533 1.400 . S
C533 C527 1.491 . S
C533 C532 1.400 . S
C533 C534 1.398 . S
C534 H522 0.950 . S
C534 C533 1.398 . S
C534 C535 1.391 . S
C535 H523 0.950 . S
C535 C531 1.393 . S
C535 C534 1.391 . S
H536 C544 0.950 . S
H537 C549 0.950 . S
H538 C546 0.950 . S
H539 C548 0.950 . S
H540 C550 0.950 . S
H541 C552 0.950 . S
H542 C554 0.950 . S
H543 C555 0.950 . S
C544 H536 0.950 . S
C544 C545 1.386 . S
C544 C546 1.391 . S
C545 C544 1.386 . S
C545 C549 1.393 . S
C546 H538 0.950 . S
C546 C544 1.391 . S
C546 C547 1.400 . S
C547 C546 1.400 . S
C547 C548 1.398 . S
C547 C553 1.491 . S
C548 H539 0.950 . S
C548 C547 1.398 . S
C548 C549 1.391 . S
C549 H537 0.950 . S
C549 C545 1.393 . S
C549 C548 1.391 . S
C550 H540 0.950 . S
C550 C551 1.386 . S
C550 C552 1.391 . S
C551 C550 1.386 . S
C551 C555 1.393 . S
C552 H541 0.950 . S
C552 C550 1.391 . S
C552 C553 1.400 . S
C553 C547 1.491 . S
C553 C552 1.400 . S
C553 C554 1.398 . S
C554 H542 0.950 . S
C554 C553 1.398 . S
C554 C555 1.391 . S
C555 H543 0.950 . S
C555 C551 1.393 . S
C555 C554 1.391 . S
H556 C564 0.950 . S
H557 C569 0.950 . S
H558 C566 0.950 . S
H559 C568 0.950 . S
H560 C570 0.950 . S
H561 C572 0.950 . S
H562 C574 0.950 . S
H563 C575 0.950 . S
C564 H556 0.950 . S
C564 C565 1.386 . S
C564 C566 1.391 . S
C565 C564 1.386 . S
C565 C569 1.393 . S
C566 H558 0.950 . S
C566 C564 1.391 . S
C566 C567 1.400 . S
C567 C566 1.400 . S
C567 C568 1.398 . S
C567 C573 1.491 . S
C568 H559 0.950 . S
C568 C567 1.398 . S
C568 C569 1.391 . S
C569 H557 0.950 . S
C569 C565 1.393 . S
C569 C568 1.391 . S
C570 H560 0.950 . S
C570 C571 1.386 . S
C570 C572 1.391 . S
C571 C570 1.386 . S
C571 C575 1.393 . S
C572 H561 0.950 . S
C572 C570 1.391 . S
C572 C573 1.400 . S
C573 C567 1.491 . S
C573 C572 1.400 . S
C573 C574 1.398 . S
C574 H562 0.950 . S
C574 C573 1.398 . S
C574 C575 1.391 . S
C575 H563 0.950 . S
C575 C571 1.393 . S
C575 C574 1.391 . S
H576 C584 0.950 . S
H577 C589 0.950 . S
H578 C586 0.950 . S
H579 C588 0.950 . S
H580 C590 0.950 . S
H581 C592 0.950 . S
H582 C594 0.950 . S
H583 C595 0.950 . S
C584 H576 0.950 . S
C584 C585 1.386 . S
C584 C586 1.391 . S
C585 C584 1.386 . S
C585 C589 1.393 . S
C586 H578 0.950 . S
C586 C584 1.391 . S
C586 C587 1.400 . S
C587 C586 1.400 . S
C587 C588 1.398 . S
C587 C593 1.491 . S
C588 H579 0.950 . S
C588 C587 1.398 . S
C588 C589 1.391 . S
C589 H577 0.950 . S
C589 C585 1.393 . S
C589 C588 1.391 . S
C590 H580 0.950 . S
C590 C591 1.386 . S
C590 C592 1.391 . S
C591 C590 1.386 . S
C591 C595 1.393 . S
C592 H581 0.950 . S
C592 C590 1.391 . S
C592 C593 1.400 . S
C593 C587 1.491 . S
C593 C592 1.400 . S
C593 C594 1.398 . S
C594 H582 0.950 . S
C594 C593 1.398 . S
C594 C595 1.391 . S
C595 H583 0.950 . S
C595 C591 1.393 . S
C595 C594 1.391 . S
H596 C604 0.950 . S
H597 C609 0.950 . S
H598 C606 0.950 . S
H599 C608 0.950 . S
H600 C610 0.950 . S
H601 C612 0.950 . S
H602 C614 0.950 . S
H603 C615 0.950 . S
C604 H596 0.950 . S
C604 C605 1.386 . S
C604 C606 1.391 . S
C605 C604 1.386 . S
C605 C609 1.393 . S
C606 H598 0.950 . S
C606 C604 1.391 . S
C606 C607 1.400 . S
C607 C606 1.400 . S
C607 C608 1.398 . S
C607 C613 1.491 . S
C608 H599 0.950 . S
C608 C607 1.398 . S
C608 C609 1.391 . S
C609 H597 0.950 . S
C609 C605 1.393 . S
C609 C608 1.391 . S
C610 H600 0.950 . S
C610 C611 1.386 . S
C610 C612 1.391 . S
C611 C610 1.386 . S
C611 C615 1.393 . S
C612 H601 0.950 . S
C612 C610 1.391 . S
C612 C613 1.400 . S
C613 C607 1.491 . S
C613 C612 1.400 . S
C613 C614 1.398 . S
C614 H602 0.950 . S
C614 C613 1.398 . S
C614 C615 1.391 . S
C615 H603 0.950 . S
C615 C611 1.393 . S
C615 C614 1.391 . S
H616 C624 0.950 . S
H617 C629 0.950 . S
H618 C626 0.950 . S
H619 C628 0.950 . S
H620 C630 0.950 . S
H621 C632 0.950 . S
H622 C634 0.950 . S
H623 C635 0.950 . S
C624 H616 0.950 . S
C624 C625 1.386 . S
C624 C626 1.391 . S
C625 C624 1.386 . S
C625 C629 1.393 . S
C626 H618 0.950 . S
C626 C624 1.391 . S
C626 C627 1.400 . S
C627 C626 1.400 . S
C627 C628 1.398 . S
C627 C633 1.491 . S
C628 H619 0.950 . S
C628 C627 1.398 . S
C628 C629 1.391 . S
C629 H617 0.950 . S
C629 C625 1.393 . S
C629 C628 1.391 . S
C630 H620 0.950 . S
C630 C631 1.386 . S
C630 C632 1.391 . S
C631 C630 1.386 . S
C631 C635 1.393 . S
C632 H621 0.950 . S
C632 C630 1.391 . S
C632 C633 1.400 . S
C633 C627 1.491 . S
C633 C632 1.400 . S
C633 C634 1.398 . S
C634 H622 0.950 . S
C634 C633 1.398 . S
C634 C635 1.391 . S
C635 H623 0.950 . S
C635 C631 1.393 . S
C635 C634 1.391 . S
H636 C644 0.950 . S
H637 C649 0.950 . S
H638 C646 0.950 . S
H639 C648 0.950 . S
H640 C650 0.950 . S
H641 C652 0.950 . S
H642 C654 0.950 . S
H643 C655 0.950 . S
C644 H636 0.950 . S
C644 C645 1.386 . S
C644 C646 1.391 . S
C645 C644 1.386 . S
C645 C649 1.393 . S
C646 H638 0.950 . S
C646 C644 1.391 . S
C646 C647 1.400 . S
C647 C646 1.400 . S
C647 C648 1.398 . S
C647 C653 1.491 . S
C648 H639 0.950 . S
C648 C647 1.398 . S
C648 C649 1.391 . S
C649 H637 0.950 . S
C649 C645 1.393 . S
C649 C648 1.391 . S
C650 H640 0.950 . S
C650 C651 1.386 . S
C650 C652 1.391 . S
C651 C650 1.386 . S
C651 C655 1.393 . S
C652 H641 0.950 . S
C652 C650 1.391 . S
C652 C653 1.400 . S
C653 C647 1.491 . S
C653 C652 1.400 . S
C653 C654 1.398 . S
C654 H642 0.950 . S
C654 C653 1.398 . S
C654 C655 1.391 . S
C655 H643 0.950 . S
C655 C651 1.393 . S
C655 C654 1.391 . S
C185 C10 1.541 . S
C191 C131 1.528 . S
C211 C95 1.530 . S
C205 C21 1.543 . S
C231 C118 1.602 . S
C225 C32 1.593 . S
C251 C106 1.488 . S
C245 C43 1.488 . S
C271 C175 1.528 . S
C265 C54 1.541 . S
C291 C139 1.543 . S
C285 C65 1.547 . S
C305 C76 1.592 . S
C311 C162 1.602 . S
C331 C150 1.483 . S
C325 C87 1.483 . S
C345 C5 1.496 . S
C351 C172 1.535 . S
C371 C142 1.512 . S
C365 C16 1.479 . S
C385 C27 1.577 . S
C391 C161 1.601 . S
C405 C37 1.450 . S
C411 C147 1.463 . S
C431 C128 1.533 . S
C425 C49 1.504 . S
C445 C60 1.473 . S
C451 C98 1.513 . S
C471 C117 1.604 . S
C465 C71 1.571 . S
C491 C103 1.466 . S
C485 C81 1.446 . S
C511 C153 1.530 . S
C505 C4 1.518 . S
C531 C169 1.515 . S
C525 C15 1.506 . S
C545 C26 1.498 . S
C551 C140 1.501 . S
C571 C164 1.496 . S
C565 C38 1.453 . S
C591 C109 1.524 . S
C585 C48 1.526 . S
C605 C59 1.500 . S
C611 C125 1.521 . S
C625 C70 1.492 . S
C631 C96 1.504 . S
C645 C82 1.453 . S
C651 C120 1.496 . S
