# Generated by pormake.
# Topology pyr, (3,6)-cn, num edge types: 1
# Building blocks:
#     Node 0, Type 0, BuildingBlock: ESEHIV_clean_linker_0, # of connection points: 3
#     Node 1, Type 0, BuildingBlock: ESEHIV_clean_linker_0, # of connection points: 3
#     Node 2, Type 0, BuildingBlock: ESEHIV_clean_linker_0, # of connection points: 3
#     Node 3, Type 0, BuildingBlock: ESEHIV_clean_linker_0, # of connection points: 3
#     Node 4, Type 0, BuildingBlock: ESEHIV_clean_linker_0, # of connection points: 3
#     Node 5, Type 0, BuildingBlock: ESEHIV_clean_linker_0, # of connection points: 3
#     Node 6, Type 0, BuildingBlock: ESEHIV_clean_linker_0, # of connection points: 3
#     Node 7, Type 0, BuildingBlock: ESEHIV_clean_linker_0, # of connection points: 3
#     Node 8, Type 1, BuildingBlock: PAMTUU_clean_sbu_0, # of connection points: 6
#     Node 9, Type 1, BuildingBlock: PAMTUU_clean_sbu_0, # of connection points: 6
#     Node 10, Type 1, BuildingBlock: PAMTUU_clean_sbu_0, # of connection points: 6
#     Node 11, Type 1, BuildingBlock: PAMTUU_clean_sbu_0, # of connection points: 6
#     Edge 12, Type (0, 1), BuildingBlock: AJUNOK_clean_linker_0, # of connection points: 2
#     Edge 13, Type (0, 1), BuildingBlock: AJUNOK_clean_linker_0, # of connection points: 2
#     Edge 14, Type (0, 1), BuildingBlock: AJUNOK_clean_linker_0, # of connection points: 2
#     Edge 15, Type (0, 1), BuildingBlock: AJUNOK_clean_linker_0, # of connection points: 2
#     Edge 16, Type (0, 1), BuildingBlock: AJUNOK_clean_linker_0, # of connection points: 2
#     Edge 17, Type (0, 1), BuildingBlock: AJUNOK_clean_linker_0, # of connection points: 2
#     Edge 18, Type (0, 1), BuildingBlock: AJUNOK_clean_linker_0, # of connection points: 2
#     Edge 19, Type (0, 1), BuildingBlock: AJUNOK_clean_linker_0, # of connection points: 2
#     Edge 20, Type (0, 1), BuildingBlock: AJUNOK_clean_linker_0, # of connection points: 2
#     Edge 21, Type (0, 1), BuildingBlock: AJUNOK_clean_linker_0, # of connection points: 2
#     Edge 22, Type (0, 1), BuildingBlock: AJUNOK_clean_linker_0, # of connection points: 2
#     Edge 23, Type (0, 1), BuildingBlock: AJUNOK_clean_linker_0, # of connection points: 2
#     Edge 24, Type (0, 1), BuildingBlock: AJUNOK_clean_linker_0, # of connection points: 2
#     Edge 25, Type (0, 1), BuildingBlock: AJUNOK_clean_linker_0, # of connection points: 2
#     Edge 26, Type (0, 1), BuildingBlock: AJUNOK_clean_linker_0, # of connection points: 2
#     Edge 27, Type (0, 1), BuildingBlock: AJUNOK_clean_linker_0, # of connection points: 2
#     Edge 28, Type (0, 1), BuildingBlock: AJUNOK_clean_linker_0, # of connection points: 2
#     Edge 29, Type (0, 1), BuildingBlock: AJUNOK_clean_linker_0, # of connection points: 2
#     Edge 30, Type (0, 1), BuildingBlock: AJUNOK_clean_linker_0, # of connection points: 2
#     Edge 31, Type (0, 1), BuildingBlock: AJUNOK_clean_linker_0, # of connection points: 2
#     Edge 32, Type (0, 1), BuildingBlock: AJUNOK_clean_linker_0, # of connection points: 2
#     Edge 33, Type (0, 1), BuildingBlock: AJUNOK_clean_linker_0, # of connection points: 2
#     Edge 34, Type (0, 1), BuildingBlock: AJUNOK_clean_linker_0, # of connection points: 2
#     Edge 35, Type (0, 1), BuildingBlock: AJUNOK_clean_linker_0, # of connection points: 2
# Relax obj value: 0.215
# Max RMSD: 0.168
# Mean RMSD: 0.070
data_MOF--net-pyr--node1-PAMTUU_clean_sbu_0--node2-ESEHIV_clean_linker_0--edge1-AJUNOK_clean_linker_0
_symmetry_space_group_name_H-M    P1
_symmetry_Int_Tables_number       1
_symmetry_cell_setting            triclinic
loop_
_symmetry_equiv_pos_as_xyz
'x, y, z'
_cell_length_a     26.317805
_cell_length_b     26.71802
_cell_length_c     23.837678
_cell_angle_alpha  90.16528
_cell_angle_beta   89.471104
_cell_angle_gamma 104.41008
loop_
_atom_site_label
_atom_site_type_symbol
_atom_site_fract_x
_atom_site_fract_y
_atom_site_fract_z
_atom_type_partial_charge
H0 H 0.3663 0.39613 0.34934 0.0
H1 H 0.46525 0.29256 0.37954 0.0
H2 H 0.40775 0.30721 0.21479 0.0
C3 C 0.3892 0.37016 0.33438 0.0
C4 C 0.38432 0.3546 0.27816 0.0
C5 C 0.41425 0.34473 0.37299 0.0
C6 C 0.44484 0.31238 0.35157 0.0
C7 C 0.4447 0.30038 0.29414 0.0
C8 C 0.41294 0.32056 0.25785 0.0
H9 H 0.05718 0.82789 0.86493 0.0
H10 H 0.19269 0.77043 0.89431 0.0
H11 H 0.14207 0.78349 0.72623 0.0
C12 C 0.08682 0.80964 0.84905 0.0
C13 C 0.09566 0.80817 0.79102 0.0
C14 C 0.12385 0.79975 0.88652 0.0
C15 C 0.16257 0.77625 0.86615 0.0
C16 C 0.16828 0.76801 0.80849 0.0
C17 C 0.13478 0.78462 0.77098 0.0
H18 H 0.71184 0.36668 1.01899 0.0
H19 H 0.74027 0.48614 0.89233 0.0
H20 H 0.60564 0.35799 0.8826 0.0
C21 C 0.70258 0.38293 0.98008 0.0
C22 C 0.65875 0.35466 0.95033 0.0
C23 C 0.73439 0.43035 0.96045 0.0
C24 C 0.71679 0.45168 0.91176 0.0
C25 C 0.66866 0.42788 0.88546 0.0
C26 C 0.6409 0.37824 0.90408 0.0
H27 H 0.84312 0.77681 0.51839 0.0
H28 H 0.95969 0.77636 0.39139 0.0
H29 H 0.83319 0.64044 0.41833 0.0
C30 C 0.85884 0.75654 0.48583 0.0
C31 C 0.83279 0.7051 0.47328 0.0
C32 C 0.90426 0.78293 0.45648 0.0
C33 C 0.92439 0.7565 0.41364 0.0
C34 C 0.89873 0.70505 0.39864 0.0
C35 C 0.85321 0.67972 0.42932 0.0
H36 H 0.59257 0.83982 0.86706 0.0
H37 H 0.67868 0.7231 0.88479 0.0
H38 H 0.64489 0.80659 1.02798 0.0
C39 C 0.60813 0.81375 0.89252 0.0
C40 C 0.6085 0.82101 0.95086 0.0
C41 C 0.63599 0.78053 0.86753 0.0
C42 C 0.65748 0.74927 0.90295 0.0
C43 C 0.66427 0.76138 0.95998 0.0
C44 C 0.6382 0.79586 0.98424 0.0
H45 H 0.85937 0.36013 0.35682 0.0
H46 H 0.99009 0.29414 0.38488 0.0
H47 H 0.9024 0.33209 0.52428 0.0
C48 C 0.88793 0.35094 0.38483 0.0
C49 C 0.87931 0.35361 0.44284 0.0
C50 C 0.92716 0.32863 0.36323 0.0
C51 C 0.96099 0.31312 0.40092 0.0
C52 C 0.95017 0.31125 0.45861 0.0
C53 C 0.91108 0.33401 0.47969 0.0
H54 H 0.34234 0.76758 0.22028 0.0
H55 H 0.32165 0.64977 0.34819 0.0
H56 H 0.45975 0.77581 0.34536 0.0
C57 C 0.35524 0.75145 0.25756 0.0
C58 C 0.40267 0.77856 0.28189 0.0
C59 C 0.32493 0.70431 0.2798 0.0
C60 C 0.34479 0.68389 0.32753 0.0
C61 C 0.39404 0.70836 0.35098 0.0
C62 C 0.42242 0.75597 0.32764 0.0
H63 H 0.10072 0.36012 0.84687 0.0
H64 H 0.22069 0.3646 0.7224 0.0
H65 H 0.23106 0.49467 0.83232 0.0
C66 C 0.13717 0.38045 0.82707 0.0
C67 C 0.16283 0.43113 0.84524 0.0
C68 C 0.1588 0.35525 0.78412 0.0
C69 C 0.20509 0.38266 0.75708 0.0
C70 C 0.23149 0.43298 0.77354 0.0
C71 C 0.21002 0.4568 0.81779 0.0
Tb72 Tb 0.09169 0.07628 0.59773 0.0
Tb73 Tb 0.97291 1.05695 0.65112 0.0
C74 C 0.99662 0.98555 0.55314 0.0
C75 C 0.22905 0.14226 0.56566 0.0
C76 C 0.30815 0.23384 0.55231 0.0
C77 C 0.31736 0.18591 0.53707 0.0
C78 C 0.27796 0.14044 0.54359 0.0
C79 C 0.22126 0.18918 0.58591 0.0
C80 C 0.26066 0.23476 0.57935 0.0
C81 C 0.18563 0.09579 0.5646 0.0
O82 O 0.06277 0.14269 0.57351 0.0
O83 O 0.97823 0.09672 0.57155 0.0
O84 O 1.01602 0.13216 0.68415 0.0
O85 O 0.09796 0.11834 0.67731 0.0
O86 O 0.89486 1.05574 0.63342 0.0
O87 O 0.91815 1.04359 0.71773 0.0
O88 O 1.00977 1.00543 0.69858 0.0
O89 O 0.07721 1.00196 0.63776 0.0
O90 O 0.04215 1.01849 0.54154 0.0
O91 O 0.96834 0.99044 0.59757 0.0
C92 C 1.01388 0.13912 0.56025 0.0
O93 O 0.16981 0.07634 0.61364 0.0
O94 O 0.14642 0.09781 0.53211 0.0
C95 C 0.0664 0.14618 0.69552 0.0
C96 C 0.83561 0.9951 0.68728 0.0
C97 C 0.75504 0.90456 0.7017 0.0
C98 C 0.74698 0.95302 0.71668 0.0
C99 C 0.78703 0.99798 0.70946 0.0
C100 C 0.84272 0.94736 0.66881 0.0
C101 C 0.80267 0.9024 0.67582 0.0
C102 C 0.87889 1.04172 0.68403 0.0
C103 C 0.0469 0.9839 0.68069 0.0
H104 H 0.35307 0.18401 0.51512 0.0
H105 H 0.28464 0.10433 0.52837 0.0
H106 H 0.18375 0.19097 0.60381 0.0
H107 H 0.25248 0.27118 0.59117 0.0
H108 H 0.71125 0.95583 0.73796 0.0
H109 H 0.78082 1.03466 0.72337 0.0
H110 H 0.8799 0.94454 0.65101 0.0
H111 H 0.81006 0.86557 0.6643 0.0
Tb112 Tb 0.59146 0.07243 0.13737 0.0
Tb113 Tb 0.47198 1.06103 1.09348 0.0
C114 C 0.54392 0.99771 1.04197 0.0
C115 C 0.73185 0.12698 0.16796 0.0
C116 C 0.82016 0.20863 0.18883 0.0
C117 C 0.82618 0.16155 0.16676 0.0
C118 C 0.78229 0.12094 0.15665 0.0
C119 C 0.7254 0.17529 0.18509 0.0
C120 C 0.76926 0.21576 0.19575 0.0
C121 C 0.68651 0.08261 0.16179 0.0
O122 O 0.5949 0.14463 1.09428 0.0
O123 O 0.52192 0.11988 1.03823 0.0
O124 O 0.49224 0.13172 0.14101 0.0
O125 O 0.55504 0.11423 0.19866 0.0
O126 O 0.41474 1.04823 1.03096 0.0
O127 O 0.39575 0.06349 1.11711 0.0
O128 O 0.46661 1.01094 0.16733 0.0
O129 O 0.54835 0.99572 0.16579 0.0
O130 O 0.58145 1.03814 1.05453 0.0
O131 O 0.49606 0.99479 1.05947 0.0
C132 C 0.56724 0.15224 1.0509 0.0
O133 O 0.64899 0.07768 0.19914 0.0
O134 O 0.6683 0.07488 1.1112 0.0
C135 C 0.52049 0.14051 0.18638 0.0
C136 C 0.33114 1.00505 1.06667 0.0
C137 C 0.23955 0.926 1.052 0.0
C138 C 0.23694 0.97277 1.07752 0.0
C139 C 0.2825 1.01227 1.0843 0.0
C140 C 0.33449 0.95639 1.04712 0.0
C141 C 0.28895 0.91717 1.03968 0.0
C142 C 0.37747 1.04897 1.06746 0.0
C143 C 0.49862 0.98208 0.18086 0.0
H144 H 0.86491 0.15504 0.16095 0.0
H145 H 0.7878 0.08417 0.14211 0.0
H146 H 0.68657 0.18098 0.19275 0.0
H147 H 0.76316 0.25114 0.21366 0.0
H148 H 0.19935 0.98021 1.08801 0.0
H149 H 0.27945 1.04925 1.1008 0.0
H150 H 0.3719 0.94954 1.03472 0.0
H151 H 0.29214 0.88156 1.01976 0.0
Tb152 Tb 0.52755 0.52002 0.58324 0.0
Tb153 Tb 0.53197 0.62173 0.66 0.0
C154 C 0.48347 0.61158 0.53765 0.0
C155 C 0.58171 0.42342 0.51451 0.0
C156 C 0.6788 0.39877 0.49549 0.0
C157 C 0.64886 0.40866 0.45019 0.0
C158 C 0.60062 0.42064 0.45962 0.0
C159 C 0.61123 0.41242 0.55972 0.0
C160 C 0.65917 0.40013 0.55027 0.0
C161 C 0.53491 0.44363 0.52455 0.0
O162 O 0.59642 0.57862 0.55532 0.0
O163 O 0.61354 0.63361 0.63084 0.0
O164 O 0.55701 0.56738 0.71593 0.0
O165 O 0.58114 0.51375 0.65133 0.0
O166 O 0.54063 0.70185 0.66978 0.0
O167 O 0.5174 0.64982 0.73941 0.0
O168 O 0.45003 0.57815 0.65793 0.0
O169 O 0.4611 0.49751 0.64144 0.0
O170 O 0.47586 0.56087 0.5403 0.0
O171 O 0.51298 0.64144 0.57497 0.0
C172 C 0.62819 0.61599 0.58311 0.0
O173 O 0.51586 0.43956 0.57547 0.0
O174 O 0.53757 0.48921 0.5037 0.0
C175 C 0.5803 0.53047 0.70325 0.0
C176 C 0.4716 0.71385 0.72935 0.0
C177 C 0.3716 0.73133 0.75091 0.0
C178 C 0.40737 0.73291 0.79478 0.0
C179 C 0.45699 0.72441 0.78404 0.0
C180 C 0.43633 0.71364 0.68529 0.0
C181 C 0.38709 0.72294 0.69589 0.0
C182 C 0.51979 0.6958 0.71997 0.0
C183 C 0.43268 0.52781 0.66103 0.0
H184 H 0.66302 0.40751 0.40751 0.0
H185 H 0.5788 0.42925 0.42414 0.0
H186 H 0.59816 0.4148 0.6026 0.0
H187 H 0.6817 0.39325 0.58596 0.0
H188 H 0.39662 0.74003 0.8375 0.0
H189 H 0.48325 0.72424 0.81874 0.0
H190 H 0.44595 0.70434 0.64294 0.0
H191 H 0.36022 0.72138 0.66139 0.0
Tb192 Tb 0.0311 0.61821 1.08735 0.0
Tb193 Tb 0.02702 0.51309 0.15845 0.0
C194 C 0.07725 0.53009 1.03541 0.0
C195 C 0.96703 0.71127 1.03144 0.0
C196 C 0.86668 0.73059 1.01964 0.0
C197 C 0.90695 0.74972 0.97993 0.0
C198 C 0.95677 0.74016 0.98583 0.0
C199 C 0.92695 0.6929 1.07109 0.0
C200 C 0.8778 0.70307 1.0659 0.0
C201 C 1.01726 0.69619 1.03606 0.0
O202 O 0.96598 0.5589 1.0552 0.0
O203 O 0.94599 0.50157 0.1283 0.0
O204 O 1.00284 0.56368 0.2204 0.0
O205 O 0.97685 0.6168 0.15812 0.0
O206 O 1.01569 0.43226 0.16092 0.0
O207 O 0.04526 0.47903 0.2326 0.0
O208 O 0.10832 0.55914 0.15895 0.0
O209 O 0.09773 0.64026 0.14403 0.0
O210 O 0.08389 0.58072 1.03954 0.0
O211 O 0.048 0.49894 1.07217 0.0
C212 C 0.9332 0.52073 1.08089 0.0
O213 O 0.03668 0.69819 1.08634 0.0
O214 O 1.01854 0.65309 1.0112 0.0
C215 C 0.98034 0.60134 0.20991 0.0
C216 C 0.08827 0.41546 0.20758 0.0
C217 C 0.18634 0.39003 0.21171 0.0
C218 C 0.14713 0.37128 0.25263 0.0
C219 C 0.09851 0.38378 0.25049 0.0
C220 C 0.12691 0.43357 0.16631 0.0
C221 C 0.17502 0.42033 0.16775 0.0
C222 C 0.04015 0.43435 0.20847 0.0
C223 C 0.12486 0.60949 0.16463 0.0
H224 H 0.89953 0.77096 0.94356 0.0
H225 H 0.98675 0.75424 0.95423 0.0
H226 H 0.93292 0.66943 1.10568 0.0
H227 H 0.84833 0.68874 1.09789 0.0
H228 H 0.15465 0.3483 0.28748 0.0
H229 H 0.06961 0.37008 0.28325 0.0
H230 H 0.12046 0.45931 0.1337 0.0
H231 H 0.20357 0.43457 0.13488 0.0
C232 C 0.34068 0.33468 0.44263 0.0
C233 C 0.39449 0.33812 0.43246 0.0
C234 C 0.31421 0.30701 0.48808 0.0
C235 C 0.34007 0.28097 0.52481 0.0
H236 H 0.31641 0.34723 0.41208 0.0
H237 H 0.27188 0.30031 0.48963 0.0
S238 S 0.48358 0.29595 0.53171 0.0
N239 N 0.47543 0.32817 0.47481 0.0
N240 N 0.42431 0.27262 0.55852 0.0
C241 C 0.39499 0.29154 0.52135 0.0
C242 C 0.42251 0.32112 0.47564 0.0
C243 C 0.15385 0.80695 0.98649 0.0
C244 C 0.13371 0.82868 0.94052 0.0
C245 C 0.18355 0.83851 1.0277 0.0
C246 C 0.19284 0.89262 1.02493 0.0
H247 H 0.15131 0.76586 0.98746 0.0
H248 H 0.20326 0.8209 1.05888 0.0
S249 S 0.1398 0.96827 0.92032 0.0
N250 N 0.11892 0.90771 0.89998 0.0
N251 N 0.17253 0.96595 0.97842 0.0
C252 C 0.16663 0.91413 0.984 0.0
C253 C 0.1374 0.88236 0.94151 0.0
C254 C 0.6296 0.42942 0.78799 0.0
C255 C 0.6477 0.4551 0.83856 0.0
C256 C 0.60925 0.4543 0.74427 0.0
C257 C 0.60492 0.50581 0.74926 0.0
H258 H 0.63145 0.38973 0.78193 0.0
H259 H 0.59571 0.43244 0.70665 0.0
S260 S 0.64667 0.5907 0.87291 0.0
N261 N 0.66005 0.53564 0.89045 0.0
N262 N 0.62148 0.58168 0.80939 0.0
C263 C 0.62294 0.53192 0.7996 0.0
C264 C 0.64438 0.50688 0.84372 0.0
C265 C 0.9248 0.62761 0.35467 0.0
C266 C 0.91862 0.67848 0.34989 0.0
C267 C 0.94457 0.6029 0.30972 0.0
C268 C 0.9583 0.6275 0.25738 0.0
H269 H 0.91512 0.60692 0.39389 0.0
H270 H 0.94891 0.56407 0.31606 0.0
S271 S 0.94872 0.76045 0.22229 0.0
N272 N 0.92681 0.75183 0.28752 0.0
N273 N 0.96463 0.70655 0.20451 0.0
C274 C 0.95192 0.67825 0.25213 0.0
C275 C 0.93202 0.70334 0.29779 0.0
C276 C 0.50157 0.27108 0.22309 0.0
C277 C 0.47175 0.26131 0.27292 0.0
C278 C 0.52165 0.23258 0.19782 0.0
C279 C 0.5133 0.18321 0.22187 0.0
H280 H 0.5076 0.30813 0.20228 0.0
H281 H 0.54153 0.2406 0.15759 0.0
S282 S 0.43885 0.13761 0.35207 0.0
N283 N 0.4354 0.19821 0.34561 0.0
N284 N 0.47469 0.12655 0.29839 0.0
C285 C 0.48595 0.17351 0.27292 0.0
C286 C 0.4648 0.21244 0.29845 0.0
C287 C 0.11626 0.88249 0.72513 0.0
C288 C 0.07796 0.8464 0.75555 0.0
C289 C 0.10538 0.92643 0.70165 0.0
C290 C 0.05573 0.9368 0.70762 0.0
H291 H 0.15614 0.87848 0.72185 0.0
H292 H 0.13697 0.9533 0.67984 0.0
S293 S 0.93958 0.85198 0.77779 0.0
N294 N 0.98671 0.82184 0.78645 0.0
N295 N 0.96634 0.90522 0.74232 0.0
C296 C 1.01623 0.90032 0.73608 0.0
C297 C 0.02728 0.85498 0.75988 0.0
C298 C 0.81035 0.42484 1.02528 0.0
C299 C 0.7855 0.45528 0.99109 0.0
C300 C 0.85627 0.44616 1.056 0.0
C301 C 0.88162 0.49883 1.05262 0.0
H302 H 0.79548 0.38341 1.02783 0.0
H303 H 0.87329 0.4206 1.08064 0.0
S304 S 0.83987 0.59622 0.96526 0.0
N305 N 0.79352 0.54274 0.95599 0.0
N306 N 0.88158 0.58077 1.00898 0.0
C307 C 0.85918 0.52969 1.01731 0.0
C308 C 0.81118 0.50856 0.9877 0.0
C309 C 0.7388 0.65135 0.47356 0.0
C310 C 0.78222 0.67995 0.5037 0.0
C311 C 0.68981 0.63115 0.49973 0.0
C312 C 0.68128 0.63883 0.5574 0.0
H313 H 0.74214 0.64555 0.42883 0.0
H314 H 0.65797 0.60994 0.47391 0.0
S315 S 0.78271 0.7071 0.65712 0.0
N316 N 0.814 0.71137 0.59626 0.0
N317 N 0.72164 0.67517 0.64446 0.0
C318 C 0.72442 0.66663 0.58843 0.0
C319 C 0.77473 0.68662 0.56194 0.0
C320 C 0.29206 0.32168 0.2487 0.0
C321 C 0.33812 0.36187 0.24757 0.0
C322 C 0.24359 0.33046 0.23395 0.0
C323 C 0.23936 0.37973 0.21712 0.0
H324 H 0.29298 0.28396 0.26463 0.0
H325 H 0.20883 0.29884 0.23787 0.0
S326 S 0.35056 0.49605 0.20023 0.0
N327 N 0.37796 0.45122 0.22434 0.0
N328 N 0.28749 0.46776 0.19396 0.0
C329 C 0.28618 0.41918 0.21152 0.0
C330 C 0.33538 0.41032 0.22769 0.0
C331 C 0.57899 0.28193 0.97666 0.0
C332 C 0.6337 0.29999 0.96828 0.0
C333 C 0.55679 0.23275 1.00056 0.0
C334 C 0.58855 0.20006 1.01723 0.0
H335 H 0.55344 0.30681 0.96702 0.0
H336 H 0.51492 0.2214 1.00859 0.0
S337 S 0.73264 0.22544 0.99677 0.0
N338 N 0.71782 0.27773 0.97232 0.0
N339 N 0.67663 0.18727 1.01855 0.0
C340 C 0.64271 0.21659 1.00629 0.0
C341 C 0.66508 0.26588 0.98145 0.0
C342 C 0.98417 0.85472 0.48199 0.0
C343 C 0.92979 0.83824 0.47152 0.0
C344 C 1.00691 0.90421 0.50458 0.0
C345 C 0.97604 0.9389 0.51775 0.0
H346 H 1.00886 0.82825 0.4755 0.0
H347 H 0.04819 0.91406 0.51499 0.0
S348 S 0.8338 0.91825 0.4905 0.0
N349 N 0.84747 0.86413 0.46935 0.0
N350 N 0.88958 0.9553 0.51352 0.0
C351 C 0.92247 0.92407 0.50437 0.0
C352 C 0.89956 0.87435 0.4808 0.0
C353 C 0.24946 0.78336 0.74778 0.0
C354 C 0.21636 0.75301 0.78834 0.0
C355 C 0.29906 0.77532 0.73491 0.0
C356 C 0.31777 0.73718 0.76266 0.0
H357 H 0.23806 0.8151 0.72757 0.0
H358 H 0.32374 0.80039 0.7045 0.0
S359 S 0.24415 0.64308 0.86675 0.0
N360 N 0.20401 0.67977 0.8518 0.0
N361 N 0.29767 0.66575 0.8287 0.0
C362 C 0.28436 0.70524 0.80153 0.0
C363 C 0.23361 0.71286 0.81404 0.0
C364 C 0.71343 0.79588 0.80256 0.0
C365 C 0.6594 0.79304 0.81016 0.0
C366 C 0.74306 0.82714 0.76131 0.0
C367 C 0.72024 0.85731 0.72621 0.0
H368 H 0.73526 0.77943 0.83254 0.0
H369 H 0.78524 0.8324 0.76183 0.0
S370 S 0.57806 0.8484 0.71342 0.0
N371 N 0.58207 0.81066 0.76712 0.0
N372 N 0.63888 0.8719 0.69082 0.0
C373 C 0.66534 0.84852 0.72689 0.0
C374 C 0.63467 0.81561 0.76844 0.0
C375 C 0.9194 0.25255 0.30061 0.0
C376 C 0.92017 0.30532 0.30604 0.0
C377 C 0.89229 0.22265 0.25725 0.0
C378 C 0.86449 0.2441 0.21782 0.0
H379 H 0.93402 0.23216 0.33348 0.0
H380 H 0.888 0.18129 0.25898 0.0
S381 S 0.86967 0.38323 0.2018 0.0
N382 N 0.90329 0.38034 0.25938 0.0
N383 N 0.85029 0.32327 0.17834 0.0
C384 C 0.87168 0.29804 0.2175 0.0
C385 C 0.9002 0.32886 0.26143 0.0
C386 C 0.41358 0.6307 0.40042 0.0
C387 C 0.41555 0.68408 0.39995 0.0
C388 C 0.4349 0.60751 0.44484 0.0
C389 C 0.45939 0.63647 0.49119 0.0
H390 H 0.39617 0.6066 0.36553 0.0
H391 H 0.4327 0.56655 0.44232 0.0
S392 S 0.47079 0.7769 0.51334 0.0
N393 N 0.44083 0.76429 0.45253 0.0
N394 N 0.48166 0.72176 0.53445 0.0
C395 C 0.46066 0.68976 0.49167 0.0
C396 C 0.4387 0.7132 0.44667 0.0
C397 C 0.14132 0.50938 0.89322 0.0
C398 C 0.14182 0.4565 0.89429 0.0
C399 C 0.12153 0.53337 0.93881 0.0
C400 C 0.10096 0.5056 0.98768 0.0
H401 H 0.15564 0.53239 0.85639 0.0
H402 H 0.12157 0.57377 0.93521 0.0
S403 S 0.09781 0.36737 1.01432 0.0
N404 N 0.12392 0.37869 0.95105 0.0
N405 N 0.08509 0.42208 1.03454 0.0
C406 C 0.10222 0.45289 0.98946 0.0
C407 C 0.1229 0.42887 0.94355 0.0
C408 C 0.6261 0.90598 0.9992 0.0
C409 C 0.58976 0.86459 0.97436 0.0
C410 C 0.61081 0.94919 1.01933 0.0
C411 C 0.55836 0.95265 1.01601 0.0
H412 H 0.66696 0.90526 1.00246 0.0
H413 H 0.64046 0.97973 1.03859 0.0
S414 S 0.4482 0.85447 0.95359 0.0
N415 N 0.49947 0.82967 0.94603 0.0
N416 N 0.47003 0.91073 0.9853 0.0
C417 C 0.5215 0.91144 0.9911 0.0
C418 C 0.53741 0.86754 0.96976 0.0
C419 C 1.02011 0.27153 0.49662 0.0
C420 C 0.96682 0.27125 0.49167 0.0
C421 C 0.03526 0.22887 0.51919 0.0
C422 C 0.9976 0.184 0.53629 0.0
H423 H 0.05013 0.30446 0.48182 0.0
H424 H 0.07674 0.23074 0.52222 0.0
S425 S 0.85268 0.16384 0.52998 0.0
N426 N 0.87653 0.22235 0.50451 0.0
N427 N 0.90431 0.14269 0.54667 0.0
C428 C 0.94414 0.18369 0.5317 0.0
C429 C 0.92895 0.22714 0.50945 0.0
C430 C 0.24312 0.70834 0.22519 0.0
C431 C 0.27271 0.67823 0.25277 0.0
C432 C 0.19641 0.68599 0.19647 0.0
C433 C 0.17554 0.63215 0.19462 0.0
H434 H 0.25554 0.75009 0.22595 0.0
H435 H 0.17631 0.71152 0.17585 0.0
S436 S 0.23119 0.53497 0.26673 0.0
N437 N 0.27418 0.59034 0.27857 0.0
N438 N 0.18489 0.54925 0.2285 0.0
C439 C 0.20283 0.60138 0.22414 0.0
C440 C 0.25134 0.62406 0.25233 0.0
C441 C 0.32029 0.43056 0.73402 0.0
C442 C 0.2827 0.45892 0.74539 0.0
C443 C 0.36788 0.45284 0.70614 0.0
C444 C 0.38058 0.50478 0.68851 0.0
H445 H 0.31314 0.39064 0.74724 0.0
H446 H 0.39526 0.42913 0.69913 0.0
S447 S 0.29483 0.59554 0.70506 0.0
N448 N 0.26085 0.54149 0.73441 0.0
N449 N 0.35041 0.5837 0.6832 0.0
C450 C 0.34334 0.5337 0.69942 0.0
C451 C 0.2946 0.51081 0.72758 0.0
C452 C 0.7578 0.79495 0.98365 0.0
C453 C 0.71245 0.75391 0.98607 0.0
C454 C 0.80721 0.78734 0.9961 0.0
C455 C 0.81305 0.7385 1.01211 0.0
H456 H 0.75536 0.83269 0.96913 0.0
H457 H 0.84123 0.81974 0.99204 0.0
S458 S 0.70496 0.61948 1.02908 0.0
N459 N 0.67544 0.66363 1.00745 0.0
N460 N 0.76778 0.64926 1.034 0.0
C461 C 0.76724 0.69779 1.0178 0.0
C462 C 0.71707 0.70545 1.00376 0.0
C463 C 0.40043 0.868 0.24988 0.0
C464 C 0.42976 0.83133 0.25963 0.0
C465 C 0.42328 0.91666 0.22605 0.0
C466 C 0.47678 0.93137 0.21047 0.0
H467 H 0.35903 0.85886 0.26051 0.0
H468 H 0.39827 0.94264 0.21903 0.0
S469 S 0.57129 0.8495 0.22671 0.0
N470 N 0.51549 0.81329 0.25169 0.0
N471 N 0.55864 0.9044 0.20723 0.0
C472 C 0.50689 0.89531 0.22079 0.0
C473 C 0.48346 0.84562 0.24528 0.0
C474 C 0.08045 0.28301 0.75516 0.0
C475 C 0.13435 0.30003 0.76727 0.0
C476 C 0.05844 0.2328 0.73407 0.0
C477 C 0.08921 0.19707 0.72436 0.0
H478 H 0.05536 0.30932 0.76006 0.0
H479 H 1.01716 0.22258 0.7237 0.0
S480 S 0.23149 0.2205 0.75528 0.0
N481 N 0.21697 0.2752 0.77251 0.0
N482 N 0.17629 0.18198 0.73284 0.0
C483 C 0.14276 0.21305 0.73864 0.0
C484 C 0.16506 0.26402 0.76003 0.0
C485 C 0.81787 0.41189 0.44129 0.0
C486 C 0.83072 0.36755 0.4627 0.0
C487 C 0.76891 0.42198 0.4525 0.0
C488 C 0.73096 0.38819 0.48569 0.0
H489 H 0.84552 0.43841 0.4146 0.0
H490 H 0.76056 0.45633 0.43477 0.0
S491 S 0.74391 0.26598 0.55027 0.0
N492 N 0.80052 0.28902 0.51775 0.0
N493 N 0.70906 0.3085 0.53936 0.0
C494 C 0.74349 0.34426 0.50817 0.0
C495 C 0.79321 0.33383 0.49659 0.0
loop_
_geom_bond_atom_site_label_1
_geom_bond_atom_site_label_2
_geom_bond_distance
_geom_bond_site_symmetry_2
_ccdc_geom_bond_type
H0 C3 0.931 . S
H1 C6 0.928 . S
H2 C8 0.930 . S
C3 H0 0.931 . S
C3 C4 1.413 . S
C3 C5 1.360 . S
C4 C3 1.413 . S
C4 C8 1.429 . S
C5 C3 1.360 . S
C5 C6 1.372 . S
C6 H1 0.928 . S
C6 C5 1.372 . S
C6 C7 1.404 . S
C7 C6 1.404 . S
C7 C8 1.391 . S
C8 H2 0.930 . S
C8 C4 1.429 . S
C8 C7 1.391 . S
H9 C12 0.931 . S
H10 C15 0.928 . S
H11 C17 0.930 . S
C12 H9 0.931 . S
C12 C13 1.413 . S
C12 C14 1.360 . S
C13 C12 1.413 . S
C13 C17 1.429 . S
C14 C12 1.360 . S
C14 C15 1.372 . S
C15 H10 0.928 . S
C15 C14 1.372 . S
C15 C16 1.404 . S
C16 C15 1.404 . S
C16 C17 1.391 . S
C17 H11 0.930 . S
C17 C13 1.429 . S
C17 C16 1.391 . S
H18 C21 0.931 . S
H19 C24 0.928 . S
H20 C26 0.930 . S
C21 H18 0.931 . S
C21 C22 1.413 . S
C21 C23 1.360 . S
C22 C21 1.413 . S
C22 C26 1.429 . S
C23 C21 1.360 . S
C23 C24 1.372 . S
C24 H19 0.928 . S
C24 C23 1.372 . S
C24 C25 1.404 . S
C25 C24 1.404 . S
C25 C26 1.391 . S
C26 H20 0.930 . S
C26 C22 1.429 . S
C26 C25 1.391 . S
H27 C30 0.931 . S
H28 C33 0.928 . S
H29 C35 0.930 . S
C30 H27 0.931 . S
C30 C31 1.413 . S
C30 C32 1.360 . S
C31 C30 1.413 . S
C31 C35 1.429 . S
C32 C30 1.360 . S
C32 C33 1.372 . S
C33 H28 0.928 . S
C33 C32 1.372 . S
C33 C34 1.404 . S
C34 C33 1.404 . S
C34 C35 1.391 . S
C35 H29 0.930 . S
C35 C31 1.429 . S
C35 C34 1.391 . S
H36 C39 0.931 . S
H37 C42 0.928 . S
H38 C44 0.930 . S
C39 H36 0.931 . S
C39 C40 1.413 . S
C39 C41 1.360 . S
C40 C39 1.413 . S
C40 C44 1.429 . S
C41 C39 1.360 . S
C41 C42 1.372 . S
C42 H37 0.928 . S
C42 C41 1.372 . S
C42 C43 1.404 . S
C43 C42 1.404 . S
C43 C44 1.391 . S
C44 H38 0.930 . S
C44 C40 1.429 . S
C44 C43 1.391 . S
H45 C48 0.931 . S
H46 C51 0.928 . S
H47 C53 0.930 . S
C48 H45 0.931 . S
C48 C49 1.413 . S
C48 C50 1.360 . S
C49 C48 1.413 . S
C49 C53 1.429 . S
C50 C48 1.360 . S
C50 C51 1.372 . S
C51 H46 0.928 . S
C51 C50 1.372 . S
C51 C52 1.404 . S
C52 C51 1.404 . S
C52 C53 1.391 . S
C53 H47 0.930 . S
C53 C49 1.429 . S
C53 C52 1.391 . S
H54 C57 0.931 . S
H55 C60 0.928 . S
H56 C62 0.930 . S
C57 H54 0.931 . S
C57 C58 1.413 . S
C57 C59 1.360 . S
C58 C57 1.413 . S
C58 C62 1.429 . S
C59 C57 1.360 . S
C59 C60 1.372 . S
C60 H55 0.928 . S
C60 C59 1.372 . S
C60 C61 1.404 . S
C61 C60 1.404 . S
C61 C62 1.391 . S
C62 H56 0.930 . S
C62 C58 1.429 . S
C62 C61 1.391 . S
H63 C66 0.931 . S
H64 C69 0.928 . S
H65 C71 0.930 . S
C66 H63 0.931 . S
C66 C67 1.413 . S
C66 C68 1.360 . S
C67 C66 1.413 . S
C67 C71 1.429 . S
C68 C66 1.360 . S
C68 C69 1.372 . S
C69 H64 0.928 . S
C69 C68 1.372 . S
C69 C70 1.404 . S
C70 C69 1.404 . S
C70 C71 1.391 . S
C71 H65 0.930 . S
C71 C67 1.429 . S
C71 C70 1.391 . S
Tb72 C81 2.764 . S
Tb72 O82 2.325 . S
Tb72 O85 2.303 . S
Tb72 O89 2.322 1_545 S
Tb72 O90 2.349 1_545 S
Tb72 O93 2.415 . S
Tb72 O94 2.399 . S
Tb73 O83 2.322 . S
Tb73 O84 2.349 . S
Tb73 O86 2.415 1_545 S
Tb73 O87 2.399 1_545 S
Tb73 O88 2.325 1_545 S
Tb73 O91 2.303 1_545 S
Tb73 C102 2.764 1_545 S
C74 O90 1.261 1_655 S
C74 O91 1.257 . S
C75 C78 1.358 . S
C75 C79 1.332 . S
C75 C81 1.504 . S
C76 C77 1.373 . S
C76 C80 1.308 . S
C77 C76 1.373 . S
C77 C78 1.429 . S
C77 H104 0.932 . S
C78 C75 1.358 . S
C78 C77 1.429 . S
C78 H105 0.930 . S
C79 C75 1.332 . S
C79 C80 1.394 . S
C79 H106 0.932 . S
C80 C76 1.308 . S
C80 C79 1.394 . S
C80 H107 0.929 . S
C81 Tb72 2.764 . S
C81 C75 1.504 . S
C81 O93 1.239 . S
C81 O94 1.263 . S
O82 Tb72 2.325 . S
O82 C92 1.236 1_455 S
O83 Tb73 2.322 . S
O83 C92 1.257 . S
O84 Tb73 2.349 . S
O84 C95 1.261 1_655 S
O85 Tb72 2.303 . S
O85 C95 1.257 . S
O86 Tb73 2.415 1_565 S
O86 C102 1.239 . S
O87 Tb73 2.399 1_565 S
O87 C102 1.263 . S
O88 Tb73 2.325 1_565 S
O88 C103 1.236 1_655 S
O89 Tb72 2.322 1_565 S
O89 C103 1.257 . S
O90 Tb72 2.349 1_565 S
O90 C74 1.261 1_455 S
O91 Tb73 2.303 1_565 S
O91 C74 1.257 . S
C92 O82 1.236 1_655 S
C92 O83 1.257 . S
O93 Tb72 2.415 . S
O93 C81 1.239 . S
O94 Tb72 2.399 . S
O94 C81 1.263 . S
C95 O84 1.261 1_455 S
C95 O85 1.257 . S
C96 C99 1.358 . S
C96 C100 1.332 . S
C96 C102 1.504 . S
C97 C98 1.373 . S
C97 C101 1.308 . S
C98 C97 1.373 . S
C98 C99 1.429 . S
C98 H108 0.932 . S
C99 C96 1.358 . S
C99 C98 1.429 . S
C99 H109 0.930 . S
C100 C96 1.332 . S
C100 C101 1.394 . S
C100 H110 0.932 . S
C101 C97 1.308 . S
C101 C100 1.394 . S
C101 H111 0.929 . S
C102 Tb73 2.764 1_565 S
C102 O86 1.239 . S
C102 O87 1.263 . S
C102 C96 1.504 . S
C103 O88 1.236 1_455 S
C103 O89 1.257 . S
H104 C77 0.932 . S
H105 C78 0.930 . S
H106 C79 0.932 . S
H107 C80 0.929 . S
H108 C98 0.932 . S
H109 C99 0.930 . S
H110 C100 0.932 . S
H111 C101 0.929 . S
Tb112 C121 2.764 . S
Tb112 O122 2.325 1_554 S
Tb112 O125 2.303 . S
Tb112 O129 2.322 1_545 S
Tb112 O130 2.349 1_544 S
Tb112 O133 2.415 . S
Tb112 O134 2.399 . S
Tb113 O123 2.324 1_565 S
Tb113 O124 2.351 1_566 S
Tb113 O126 2.413 . S
Tb113 O127 2.399 . S
Tb113 O128 2.323 1_556 S
Tb113 O131 2.302 . S
Tb113 C142 2.763 . S
C114 O130 1.261 . S
C114 O131 1.257 . S
C115 C118 1.358 . S
C115 C119 1.332 . S
C115 C121 1.504 . S
C116 C117 1.373 . S
C116 C120 1.308 . S
C117 C116 1.373 . S
C117 C118 1.429 . S
C117 H144 0.932 . S
C118 C115 1.358 . S
C118 C117 1.429 . S
C118 H145 0.930 . S
C119 C115 1.332 . S
C119 C120 1.394 . S
C119 H146 0.932 . S
C120 C116 1.308 . S
C120 C119 1.394 . S
C120 H147 0.929 . S
C121 Tb112 2.764 . S
C121 C115 1.504 . S
C121 O133 1.239 . S
C121 O134 1.263 . S
O122 Tb112 2.325 1_556 S
O122 C132 1.236 . S
O123 Tb113 2.324 1_545 S
O123 C132 1.257 . S
O124 Tb113 2.351 1_544 S
O124 C135 1.261 . S
O125 Tb112 2.303 . S
O125 C135 1.257 . S
O126 Tb113 2.413 . S
O126 C142 1.239 . S
O127 Tb113 2.399 . S
O127 C142 1.263 . S
O128 Tb113 2.323 1_554 S
O128 C143 1.236 . S
O129 Tb112 2.322 1_565 S
O129 C143 1.257 . S
O130 Tb112 2.349 1_566 S
O130 C114 1.261 . S
O131 Tb113 2.302 . S
O131 C114 1.257 . S
C132 O122 1.236 . S
C132 O123 1.257 . S
O133 Tb112 2.415 . S
O133 C121 1.239 . S
O134 Tb112 2.399 . S
O134 C121 1.263 . S
C135 O124 1.261 . S
C135 O125 1.257 . S
C136 C139 1.358 . S
C136 C140 1.332 . S
C136 C142 1.504 . S
C137 C138 1.373 . S
C137 C141 1.308 . S
C138 C137 1.373 . S
C138 C139 1.429 . S
C138 H148 0.932 . S
C139 C136 1.358 . S
C139 C138 1.429 . S
C139 H149 0.930 . S
C140 C136 1.332 . S
C140 C141 1.394 . S
C140 H150 0.932 . S
C141 C137 1.308 . S
C141 C140 1.394 . S
C141 H151 0.929 . S
C142 Tb113 2.763 . S
C142 O126 1.239 . S
C142 O127 1.263 . S
C142 C136 1.504 . S
C143 O128 1.236 . S
C143 O129 1.257 . S
H144 C117 0.932 . S
H145 C118 0.930 . S
H146 C119 0.932 . S
H147 C120 0.929 . S
H148 C138 0.932 . S
H149 C139 0.930 . S
H150 C140 0.932 . S
H151 C141 0.929 . S
Tb152 C161 2.764 . S
Tb152 O162 2.325 . S
Tb152 O165 2.303 . S
Tb152 O169 2.322 . S
Tb152 O170 2.349 . S
Tb152 O173 2.415 . S
Tb152 O174 2.399 . S
Tb153 O163 2.322 . S
Tb153 O164 2.349 . S
Tb153 O166 2.415 . S
Tb153 O167 2.399 . S
Tb153 O168 2.325 . S
Tb153 O171 2.303 . S
Tb153 C182 2.764 . S
C154 O170 1.261 . S
C154 O171 1.257 . S
C155 C158 1.358 . S
C155 C159 1.332 . S
C155 C161 1.504 . S
C156 C157 1.373 . S
C156 C160 1.308 . S
C157 C156 1.373 . S
C157 C158 1.429 . S
C157 H184 0.932 . S
C158 C155 1.358 . S
C158 C157 1.429 . S
C158 H185 0.930 . S
C159 C155 1.332 . S
C159 C160 1.394 . S
C159 H186 0.932 . S
C160 C156 1.308 . S
C160 C159 1.394 . S
C160 H187 0.929 . S
C161 Tb152 2.764 . S
C161 C155 1.504 . S
C161 O173 1.239 . S
C161 O174 1.263 . S
O162 Tb152 2.325 . S
O162 C172 1.236 . S
O163 Tb153 2.322 . S
O163 C172 1.257 . S
O164 Tb153 2.349 . S
O164 C175 1.261 . S
O165 Tb152 2.303 . S
O165 C175 1.257 . S
O166 Tb153 2.415 . S
O166 C182 1.239 . S
O167 Tb153 2.399 . S
O167 C182 1.263 . S
O168 Tb153 2.325 . S
O168 C183 1.236 . S
O169 Tb152 2.322 . S
O169 C183 1.257 . S
O170 Tb152 2.349 . S
O170 C154 1.261 . S
O171 Tb153 2.303 . S
O171 C154 1.257 . S
C172 O162 1.236 . S
C172 O163 1.257 . S
O173 Tb152 2.415 . S
O173 C161 1.239 . S
O174 Tb152 2.399 . S
O174 C161 1.263 . S
C175 O164 1.261 . S
C175 O165 1.257 . S
C176 C179 1.358 . S
C176 C180 1.332 . S
C176 C182 1.504 . S
C177 C178 1.373 . S
C177 C181 1.308 . S
C178 C177 1.373 . S
C178 C179 1.429 . S
C178 H188 0.932 . S
C179 C176 1.358 . S
C179 C178 1.429 . S
C179 H189 0.930 . S
C180 C176 1.332 . S
C180 C181 1.394 . S
C180 H190 0.932 . S
C181 C177 1.308 . S
C181 C180 1.394 . S
C181 H191 0.929 . S
C182 Tb153 2.764 . S
C182 O166 1.239 . S
C182 O167 1.263 . S
C182 C176 1.504 . S
C183 O168 1.236 . S
C183 O169 1.257 . S
H184 C157 0.932 . S
H185 C158 0.930 . S
H186 C159 0.932 . S
H187 C160 0.929 . S
H188 C178 0.932 . S
H189 C179 0.930 . S
H190 C180 0.932 . S
H191 C181 0.929 . S
Tb192 C201 2.764 . S
Tb192 O202 2.325 . S
Tb192 O205 2.303 1_556 S
Tb192 O209 2.321 1_655 S
Tb192 O210 2.349 1_655 S
Tb192 O213 2.415 . S
Tb192 O214 2.399 . S
Tb193 O203 2.322 1_455 S
Tb193 O204 2.349 1_455 S
Tb193 O206 2.415 . S
Tb193 O207 2.399 . S
Tb193 O208 2.325 . S
Tb193 O211 2.303 1_554 S
Tb193 C222 2.764 . S
C194 O210 1.261 . S
C194 O211 1.257 . S
C195 C198 1.358 . S
C195 C199 1.332 . S
C195 C201 1.504 . S
C196 C197 1.373 . S
C196 C200 1.308 . S
C197 C196 1.373 . S
C197 C198 1.429 . S
C197 H224 0.932 . S
C198 C195 1.358 . S
C198 C197 1.429 . S
C198 H225 0.930 . S
C199 C195 1.332 . S
C199 C200 1.394 . S
C199 H226 0.932 . S
C200 C196 1.308 . S
C200 C199 1.394 . S
C200 H227 0.929 . S
C201 Tb192 2.764 . S
C201 C195 1.504 . S
C201 O213 1.239 . S
C201 O214 1.263 . S
O202 Tb192 2.325 . S
O202 C212 1.236 . S
O203 Tb193 2.322 1_655 S
O203 C212 1.257 1_554 S
O204 Tb193 2.349 1_655 S
O204 C215 1.261 . S
O205 Tb192 2.303 1_554 S
O205 C215 1.257 . S
O206 Tb193 2.415 . S
O206 C222 1.239 . S
O207 Tb193 2.399 . S
O207 C222 1.263 . S
O208 Tb193 2.325 . S
O208 C223 1.236 . S
O209 Tb192 2.321 1_455 S
O209 C223 1.259 1_556 S
O210 Tb192 2.349 1_455 S
O210 C194 1.261 . S
O211 Tb193 2.303 1_556 S
O211 C194 1.257 . S
C212 O202 1.236 . S
C212 O203 1.257 1_556 S
O213 Tb192 2.415 . S
O213 C201 1.239 . S
O214 Tb192 2.399 . S
O214 C201 1.263 . S
C215 O204 1.261 . S
C215 O205 1.257 . S
C216 C219 1.358 . S
C216 C220 1.332 . S
C216 C222 1.504 . S
C217 C218 1.373 . S
C217 C221 1.308 . S
C218 C217 1.373 . S
C218 C219 1.429 . S
C218 H228 0.932 . S
C219 C216 1.358 . S
C219 C218 1.429 . S
C219 H229 0.930 . S
C220 C216 1.332 . S
C220 C221 1.394 . S
C220 H230 0.932 . S
C221 C217 1.308 . S
C221 C220 1.394 . S
C221 H231 0.929 . S
C222 Tb193 2.764 . S
C222 O206 1.239 . S
C222 O207 1.263 . S
C222 C216 1.504 . S
C223 O208 1.236 . S
C223 O209 1.259 1_554 S
H224 C197 0.932 . S
H225 C198 0.930 . S
H226 C199 0.932 . S
H227 C200 0.929 . S
H228 C218 0.932 . S
H229 C219 0.930 . S
H230 C220 0.932 . S
H231 C221 0.929 . S
C232 C233 1.369 . S
C232 C234 1.419 . S
C232 H236 0.930 . S
C233 C232 1.369 . S
C233 C242 1.429 . S
C234 C232 1.419 . S
C234 C235 1.363 . S
C234 H237 0.929 . S
C235 C234 1.363 . S
C235 C241 1.428 . S
H236 C232 0.930 . S
H237 C234 0.929 . S
S238 N239 1.613 . S
S238 N240 1.610 . S
N239 S238 1.613 . S
N239 C242 1.350 . S
N240 S238 1.610 . S
N240 C241 1.351 . S
C241 C235 1.428 . S
C241 N240 1.351 . S
C241 C242 1.434 . S
C242 C233 1.429 . S
C242 N239 1.350 . S
C242 C241 1.434 . S
C243 C244 1.369 . S
C243 C245 1.419 . S
C243 H247 0.930 . S
C244 C243 1.369 . S
C244 C253 1.429 . S
C245 C243 1.419 . S
C245 C246 1.363 . S
C245 H248 0.929 . S
C246 C245 1.363 . S
C246 C252 1.428 . S
H247 C243 0.930 . S
H248 C245 0.929 . S
S249 N250 1.613 . S
S249 N251 1.610 . S
N250 S249 1.613 . S
N250 C253 1.350 . S
N251 S249 1.610 . S
N251 C252 1.351 . S
C252 C246 1.428 . S
C252 N251 1.351 . S
C252 C253 1.434 . S
C253 C244 1.429 . S
C253 N250 1.350 . S
C253 C252 1.434 . S
C254 C255 1.369 . S
C254 C256 1.419 . S
C254 H258 0.930 . S
C255 C254 1.369 . S
C255 C264 1.429 . S
C256 C254 1.419 . S
C256 C257 1.363 . S
C256 H259 0.929 . S
C257 C256 1.363 . S
C257 C263 1.428 . S
H258 C254 0.930 . S
H259 C256 0.929 . S
S260 N261 1.613 . S
S260 N262 1.610 . S
N261 S260 1.613 . S
N261 C264 1.350 . S
N262 S260 1.610 . S
N262 C263 1.351 . S
C263 C257 1.428 . S
C263 N262 1.351 . S
C263 C264 1.434 . S
C264 C255 1.429 . S
C264 N261 1.350 . S
C264 C263 1.434 . S
C265 C266 1.369 . S
C265 C267 1.419 . S
C265 H269 0.930 . S
C266 C265 1.369 . S
C266 C275 1.429 . S
C267 C265 1.419 . S
C267 C268 1.363 . S
C267 H270 0.929 . S
C268 C267 1.363 . S
C268 C274 1.428 . S
H269 C265 0.930 . S
H270 C267 0.929 . S
S271 N272 1.613 1_455 S
S271 N273 1.610 . S
N272 S271 1.613 1_655 S
N272 C275 1.350 . S
N273 S271 1.610 . S
N273 C274 1.351 1_455 S
C274 C268 1.428 . S
C274 N273 1.351 1_655 S
C274 C275 1.434 . S
C275 C266 1.429 . S
C275 N272 1.350 . S
C275 C274 1.434 . S
C276 C277 1.369 . S
C276 C278 1.419 . S
C276 H280 0.930 . S
C277 C276 1.369 . S
C277 C286 1.429 . S
C278 C276 1.419 . S
C278 C279 1.363 . S
C278 H281 0.929 . S
C279 C278 1.363 . S
C279 C285 1.428 . S
H280 C276 0.930 . S
H281 C278 0.929 . S
S282 N283 1.613 . S
S282 N284 1.610 . S
N283 S282 1.613 . S
N283 C286 1.350 . S
N284 S282 1.610 . S
N284 C285 1.351 . S
C285 C279 1.428 . S
C285 N284 1.351 . S
C285 C286 1.434 . S
C286 C277 1.429 . S
C286 N283 1.350 . S
C286 C285 1.434 . S
C287 C288 1.369 . S
C287 C289 1.419 . S
C287 H291 0.930 . S
C288 C287 1.369 . S
C288 C297 1.429 . S
C289 C287 1.419 . S
C289 C290 1.363 . S
C289 H292 0.929 . S
C290 C289 1.363 . S
C290 C296 1.428 . S
H291 C287 0.930 . S
H292 C289 0.929 . S
S293 N294 1.613 . S
S293 N295 1.610 . S
N294 S293 1.613 . S
N294 C297 1.350 1_655 S
N295 S293 1.610 . S
N295 C296 1.351 1_655 S
C296 C290 1.428 . S
C296 N295 1.351 1_455 S
C296 C297 1.434 . S
C297 C288 1.429 . S
C297 N294 1.350 1_455 S
C297 C296 1.434 . S
C298 C299 1.369 . S
C298 C300 1.419 . S
C298 H302 0.930 . S
C299 C298 1.369 . S
C299 C308 1.429 . S
C300 C298 1.419 . S
C300 C301 1.363 . S
C300 H303 0.929 . S
C301 C300 1.363 . S
C301 C307 1.428 . S
H302 C298 0.930 . S
H303 C300 0.929 . S
S304 N305 1.613 . S
S304 N306 1.610 . S
N305 S304 1.613 . S
N305 C308 1.350 . S
N306 S304 1.610 . S
N306 C307 1.351 . S
C307 C301 1.428 . S
C307 N306 1.351 . S
C307 C308 1.434 . S
C308 C299 1.429 . S
C308 N305 1.350 . S
C308 C307 1.434 . S
C309 C310 1.369 . S
C309 C311 1.419 . S
C309 H313 0.930 . S
C310 C309 1.369 . S
C310 C319 1.429 . S
C311 C309 1.419 . S
C311 C312 1.363 . S
C311 H314 0.929 . S
C312 C311 1.363 . S
C312 C318 1.428 . S
H313 C309 0.930 . S
H314 C311 0.929 . S
S315 N316 1.613 . S
S315 N317 1.610 . S
N316 S315 1.613 . S
N316 C319 1.350 . S
N317 S315 1.610 . S
N317 C318 1.351 . S
C318 C312 1.428 . S
C318 N317 1.351 . S
C318 C319 1.434 . S
C319 C310 1.429 . S
C319 N316 1.350 . S
C319 C318 1.434 . S
C320 C321 1.369 . S
C320 C322 1.419 . S
C320 H324 0.930 . S
C321 C320 1.369 . S
C321 C330 1.429 . S
C322 C320 1.419 . S
C322 C323 1.363 . S
C322 H325 0.929 . S
C323 C322 1.363 . S
C323 C329 1.428 . S
H324 C320 0.930 . S
H325 C322 0.929 . S
S326 N327 1.613 . S
S326 N328 1.610 . S
N327 S326 1.613 . S
N327 C330 1.350 . S
N328 S326 1.610 . S
N328 C329 1.351 . S
C329 C323 1.428 . S
C329 N328 1.351 . S
C329 C330 1.434 . S
C330 C321 1.429 . S
C330 N327 1.350 . S
C330 C329 1.434 . S
C331 C332 1.369 . S
C331 C333 1.419 . S
C331 H335 0.930 . S
C332 C331 1.369 . S
C332 C341 1.429 . S
C333 C331 1.419 . S
C333 C334 1.363 . S
C333 H336 0.929 . S
C334 C333 1.363 . S
C334 C340 1.428 . S
H335 C331 0.930 . S
H336 C333 0.929 . S
S337 N338 1.613 . S
S337 N339 1.610 . S
N338 S337 1.613 . S
N338 C341 1.350 . S
N339 S337 1.610 . S
N339 C340 1.351 . S
C340 C334 1.428 . S
C340 N339 1.351 . S
C340 C341 1.434 . S
C341 C332 1.429 . S
C341 N338 1.350 . S
C341 C340 1.434 . S
C342 C343 1.369 . S
C342 C344 1.419 . S
C342 H346 0.930 . S
C343 C342 1.369 . S
C343 C352 1.429 . S
C344 C342 1.419 . S
C344 C345 1.363 . S
C344 H347 0.929 . S
C345 C344 1.363 . S
C345 C351 1.428 . S
H346 C342 0.930 . S
H347 C344 0.929 . S
S348 N349 1.613 . S
S348 N350 1.610 . S
N349 S348 1.613 . S
N349 C352 1.350 . S
N350 S348 1.610 . S
N350 C351 1.351 . S
C351 C345 1.428 . S
C351 N350 1.351 . S
C351 C352 1.434 . S
C352 C343 1.429 . S
C352 N349 1.350 . S
C352 C351 1.434 . S
C353 C354 1.369 . S
C353 C355 1.419 . S
C353 H357 0.930 . S
C354 C353 1.369 . S
C354 C363 1.429 . S
C355 C353 1.419 . S
C355 C356 1.363 . S
C355 H358 0.929 . S
C356 C355 1.363 . S
C356 C362 1.428 . S
H357 C353 0.930 . S
H358 C355 0.929 . S
S359 N360 1.613 . S
S359 N361 1.610 . S
N360 S359 1.613 . S
N360 C363 1.350 . S
N361 S359 1.610 . S
N361 C362 1.351 . S
C362 C356 1.428 . S
C362 N361 1.351 . S
C362 C363 1.434 . S
C363 C354 1.429 . S
C363 N360 1.350 . S
C363 C362 1.434 . S
C364 C365 1.369 . S
C364 C366 1.419 . S
C364 H368 0.930 . S
C365 C364 1.369 . S
C365 C374 1.429 . S
C366 C364 1.419 . S
C366 C367 1.363 . S
C366 H369 0.929 . S
C367 C366 1.363 . S
C367 C373 1.428 . S
H368 C364 0.930 . S
H369 C366 0.929 . S
S370 N371 1.613 . S
S370 N372 1.610 . S
N371 S370 1.613 . S
N371 C374 1.350 . S
N372 S370 1.610 . S
N372 C373 1.351 . S
C373 C367 1.428 . S
C373 N372 1.351 . S
C373 C374 1.434 . S
C374 C365 1.429 . S
C374 N371 1.350 . S
C374 C373 1.434 . S
C375 C376 1.369 . S
C375 C377 1.419 . S
C375 H379 0.930 . S
C376 C375 1.369 . S
C376 C385 1.429 . S
C377 C375 1.419 . S
C377 C378 1.363 . S
C377 H380 0.929 . S
C378 C377 1.363 . S
C378 C384 1.428 . S
H379 C375 0.930 . S
H380 C377 0.929 . S
S381 N382 1.613 . S
S381 N383 1.610 . S
N382 S381 1.613 . S
N382 C385 1.350 . S
N383 S381 1.610 . S
N383 C384 1.351 . S
C384 C378 1.428 . S
C384 N383 1.351 . S
C384 C385 1.434 . S
C385 C376 1.429 . S
C385 N382 1.350 . S
C385 C384 1.434 . S
C386 C387 1.369 . S
C386 C388 1.419 . S
C386 H390 0.930 . S
C387 C386 1.369 . S
C387 C396 1.429 . S
C388 C386 1.419 . S
C388 C389 1.363 . S
C388 H391 0.929 . S
C389 C388 1.363 . S
C389 C395 1.428 . S
H390 C386 0.930 . S
H391 C388 0.929 . S
S392 N393 1.613 . S
S392 N394 1.610 . S
N393 S392 1.613 . S
N393 C396 1.350 . S
N394 S392 1.610 . S
N394 C395 1.351 . S
C395 C389 1.428 . S
C395 N394 1.351 . S
C395 C396 1.434 . S
C396 C387 1.429 . S
C396 N393 1.350 . S
C396 C395 1.434 . S
C397 C398 1.369 . S
C397 C399 1.419 . S
C397 H401 0.930 . S
C398 C397 1.369 . S
C398 C407 1.429 . S
C399 C397 1.419 . S
C399 C400 1.363 . S
C399 H402 0.929 . S
C400 C399 1.363 . S
C400 C406 1.428 . S
H401 C397 0.930 . S
H402 C399 0.929 . S
S403 N404 1.613 1_655 S
S403 N405 1.610 1_655 S
N404 S403 1.613 1_455 S
N404 C407 1.350 . S
N405 S403 1.610 1_455 S
N405 C406 1.351 . S
C406 C400 1.428 . S
C406 N405 1.351 . S
C406 C407 1.434 . S
C407 C398 1.429 . S
C407 N404 1.350 . S
C407 C406 1.434 . S
C408 C409 1.369 . S
C408 C410 1.419 . S
C408 H412 0.930 . S
C409 C408 1.369 . S
C409 C418 1.429 . S
C410 C408 1.419 . S
C410 C411 1.363 . S
C410 H413 0.929 . S
C411 C410 1.363 . S
C411 C417 1.428 . S
H412 C408 0.930 . S
H413 C410 0.929 . S
S414 N415 1.613 . S
S414 N416 1.610 . S
N415 S414 1.613 . S
N415 C418 1.350 . S
N416 S414 1.610 . S
N416 C417 1.351 . S
C417 C411 1.428 . S
C417 N416 1.351 . S
C417 C418 1.434 . S
C418 C409 1.429 . S
C418 N415 1.350 . S
C418 C417 1.434 . S
C419 C420 1.369 . S
C419 C421 1.419 . S
C419 H423 0.930 1_655 S
C420 C419 1.369 . S
C420 C429 1.429 . S
C421 C419 1.419 . S
C421 C422 1.363 . S
C421 H424 0.929 1_655 S
C422 C421 1.363 . S
C422 C428 1.428 . S
H423 C419 0.930 1_455 S
H424 C421 0.929 1_455 S
S425 N426 1.613 . S
S425 N427 1.610 . S
N426 S425 1.613 . S
N426 C429 1.350 . S
N427 S425 1.610 . S
N427 C428 1.351 . S
C428 C422 1.428 . S
C428 N427 1.351 . S
C428 C429 1.434 . S
C429 C420 1.429 . S
C429 N426 1.350 . S
C429 C428 1.434 . S
C430 C431 1.369 . S
C430 C432 1.419 . S
C430 H434 0.930 . S
C431 C430 1.369 . S
C431 C440 1.429 . S
C432 C430 1.419 . S
C432 C433 1.363 . S
C432 H435 0.929 . S
C433 C432 1.363 . S
C433 C439 1.428 . S
H434 C430 0.930 . S
H435 C432 0.929 . S
S436 N437 1.613 . S
S436 N438 1.610 . S
N437 S436 1.613 . S
N437 C440 1.350 . S
N438 S436 1.610 . S
N438 C439 1.351 . S
C439 C433 1.428 . S
C439 N438 1.351 . S
C439 C440 1.434 . S
C440 C431 1.429 . S
C440 N437 1.350 . S
C440 C439 1.434 . S
C441 C442 1.369 . S
C441 C443 1.419 . S
C441 H445 0.930 . S
C442 C441 1.369 . S
C442 C451 1.429 . S
C443 C441 1.419 . S
C443 C444 1.363 . S
C443 H446 0.929 . S
C444 C443 1.363 . S
C444 C450 1.428 . S
H445 C441 0.930 . S
H446 C443 0.929 . S
S447 N448 1.613 . S
S447 N449 1.610 . S
N448 S447 1.613 . S
N448 C451 1.350 . S
N449 S447 1.610 . S
N449 C450 1.351 . S
C450 C444 1.428 . S
C450 N449 1.351 . S
C450 C451 1.434 . S
C451 C442 1.429 . S
C451 N448 1.350 . S
C451 C450 1.434 . S
C452 C453 1.369 . S
C452 C454 1.419 . S
C452 H456 0.930 . S
C453 C452 1.369 . S
C453 C462 1.429 . S
C454 C452 1.419 . S
C454 C455 1.363 . S
C454 H457 0.929 . S
C455 C454 1.363 . S
C455 C461 1.428 . S
H456 C452 0.930 . S
H457 C454 0.929 . S
S458 N459 1.613 . S
S458 N460 1.610 . S
N459 S458 1.613 . S
N459 C462 1.350 . S
N460 S458 1.610 . S
N460 C461 1.351 . S
C461 C455 1.428 . S
C461 N460 1.351 . S
C461 C462 1.434 . S
C462 C453 1.429 . S
C462 N459 1.350 . S
C462 C461 1.434 . S
C463 C464 1.369 . S
C463 C465 1.419 . S
C463 H467 0.930 . S
C464 C463 1.369 . S
C464 C473 1.429 . S
C465 C463 1.419 . S
C465 C466 1.363 . S
C465 H468 0.929 . S
C466 C465 1.363 . S
C466 C472 1.428 . S
H467 C463 0.930 . S
H468 C465 0.929 . S
S469 N470 1.613 . S
S469 N471 1.610 . S
N470 S469 1.613 . S
N470 C473 1.350 . S
N471 S469 1.610 . S
N471 C472 1.351 . S
C472 C466 1.428 . S
C472 N471 1.351 . S
C472 C473 1.434 . S
C473 C464 1.429 . S
C473 N470 1.350 . S
C473 C472 1.434 . S
C474 C475 1.369 . S
C474 C476 1.419 . S
C474 H478 0.930 . S
C475 C474 1.369 . S
C475 C484 1.429 . S
C476 C474 1.419 . S
C476 C477 1.363 . S
C476 H479 0.928 1_455 S
C477 C476 1.363 . S
C477 C483 1.428 . S
H478 C474 0.930 . S
H479 C476 0.928 1_655 S
S480 N481 1.613 . S
S480 N482 1.610 . S
N481 S480 1.613 . S
N481 C484 1.350 . S
N482 S480 1.610 . S
N482 C483 1.351 . S
C483 C477 1.428 . S
C483 N482 1.351 . S
C483 C484 1.434 . S
C484 C475 1.429 . S
C484 N481 1.350 . S
C484 C483 1.434 . S
C485 C486 1.369 . S
C485 C487 1.419 . S
C485 H489 0.930 . S
C486 C485 1.369 . S
C486 C495 1.429 . S
C487 C485 1.419 . S
C487 C488 1.363 . S
C487 H490 0.929 . S
C488 C487 1.363 . S
C488 C494 1.428 . S
H489 C485 0.930 . S
H490 C487 0.929 . S
S491 N492 1.613 . S
S491 N493 1.610 . S
N492 S491 1.613 . S
N492 C495 1.350 . S
N493 S491 1.610 . S
N493 C494 1.351 . S
C494 C488 1.428 . S
C494 N493 1.351 . S
C494 C495 1.434 . S
C495 C486 1.429 . S
C495 N492 1.350 . S
C495 C494 1.434 . S
C233 C5 0.889 . S
C235 C76 0.893 . S
C244 C14 1.002 . S
C246 C137 1.016 . S
C257 C175 2.566 . S
C255 C25 2.626 . S
C266 C34 2.489 . S
C268 C215 2.443 . S
C279 C135 1.194 . S
C277 C7 1.120 . S
C290 C103 1.777 . S
C288 C13 1.656 . S
C301 C212 1.851 . S
C299 C23 1.889 . S
C312 C172 1.953 . S
C310 C31 1.981 . S
C321 C4 1.181 . S
C323 C217 1.204 . S
C334 C132 2.394 . S
C332 C22 2.395 . S
C343 C32 2.318 . S
C345 C74 2.272 . S
C354 C16 1.276 . S
C356 C177 1.355 . S
C367 C97 0.886 . S
C365 C41 0.882 . S
C376 C50 1.009 . S
C378 C116 1.024 . S
C387 C61 2.620 . S
C389 C154 2.562 . S
C398 C67 2.497 . S
C400 C194 2.451 . S
C409 C40 1.141 . S
C411 C114 1.211 . S
C422 C92 1.764 . S
C420 C52 1.629 . S
C433 C223 1.857 . S
C431 C59 1.893 . S
C444 C183 1.946 . S
C442 C70 1.977 . S
C453 C43 1.171 . S
C455 C196 1.198 . S
C466 C143 2.405 . S
C464 C58 2.405 . S
C477 C95 2.260 . S
C475 C68 2.301 . S
C486 C49 1.289 . S
C488 C156 1.359 . S
