# Generated by pormake.
# Topology hwx, (6,3)-cn, num edge types: 1
# Building blocks:
#     Node 0, Type 0, BuildingBlock: IZENUY_clean_sbu_0, # of connection points: 6
#     Node 1, Type 0, BuildingBlock: IZENUY_clean_sbu_0, # of connection points: 6
#     Node 2, Type 0, BuildingBlock: IZENUY_clean_sbu_0, # of connection points: 6
#     Node 3, Type 0, BuildingBlock: IZENUY_clean_sbu_0, # of connection points: 6
#     Node 4, Type 1, BuildingBlock: BETDAH_clean_linker_0, # of connection points: 3
#     Node 5, Type 1, BuildingBlock: BETDAH_clean_linker_0, # of connection points: 3
#     Node 6, Type 1, BuildingBlock: BETDAH_clean_linker_0, # of connection points: 3
#     Node 7, Type 1, BuildingBlock: BETDAH_clean_linker_0, # of connection points: 3
#     Node 8, Type 1, BuildingBlock: BETDAH_clean_linker_0, # of connection points: 3
#     Node 9, Type 1, BuildingBlock: BETDAH_clean_linker_0, # of connection points: 3
#     Node 10, Type 1, BuildingBlock: BETDAH_clean_linker_0, # of connection points: 3
#     Node 11, Type 1, BuildingBlock: BETDAH_clean_linker_0, # of connection points: 3
#     Edge 12, Type (0, 1), BuildingBlock: ZUJKAS_clean_linker_0, # of connection points: 2
#     Edge 13, Type (0, 1), BuildingBlock: ZUJKAS_clean_linker_0, # of connection points: 2
#     Edge 14, Type (0, 1), BuildingBlock: ZUJKAS_clean_linker_0, # of connection points: 2
#     Edge 15, Type (0, 1), BuildingBlock: ZUJKAS_clean_linker_0, # of connection points: 2
#     Edge 16, Type (0, 1), BuildingBlock: ZUJKAS_clean_linker_0, # of connection points: 2
#     Edge 17, Type (0, 1), BuildingBlock: ZUJKAS_clean_linker_0, # of connection points: 2
#     Edge 18, Type (0, 1), BuildingBlock: ZUJKAS_clean_linker_0, # of connection points: 2
#     Edge 19, Type (0, 1), BuildingBlock: ZUJKAS_clean_linker_0, # of connection points: 2
#     Edge 20, Type (0, 1), BuildingBlock: ZUJKAS_clean_linker_0, # of connection points: 2
#     Edge 21, Type (0, 1), BuildingBlock: ZUJKAS_clean_linker_0, # of connection points: 2
#     Edge 22, Type (0, 1), BuildingBlock: ZUJKAS_clean_linker_0, # of connection points: 2
#     Edge 23, Type (0, 1), BuildingBlock: ZUJKAS_clean_linker_0, # of connection points: 2
#     Edge 24, Type (0, 1), BuildingBlock: ZUJKAS_clean_linker_0, # of connection points: 2
#     Edge 25, Type (0, 1), BuildingBlock: ZUJKAS_clean_linker_0, # of connection points: 2
#     Edge 26, Type (0, 1), BuildingBlock: ZUJKAS_clean_linker_0, # of connection points: 2
#     Edge 27, Type (0, 1), BuildingBlock: ZUJKAS_clean_linker_0, # of connection points: 2
#     Edge 28, Type (0, 1), BuildingBlock: ZUJKAS_clean_linker_0, # of connection points: 2
#     Edge 29, Type (0, 1), BuildingBlock: ZUJKAS_clean_linker_0, # of connection points: 2
#     Edge 30, Type (0, 1), BuildingBlock: ZUJKAS_clean_linker_0, # of connection points: 2
#     Edge 31, Type (0, 1), BuildingBlock: ZUJKAS_clean_linker_0, # of connection points: 2
#     Edge 32, Type (0, 1), BuildingBlock: ZUJKAS_clean_linker_0, # of connection points: 2
#     Edge 33, Type (0, 1), BuildingBlock: ZUJKAS_clean_linker_0, # of connection points: 2
#     Edge 34, Type (0, 1), BuildingBlock: ZUJKAS_clean_linker_0, # of connection points: 2
#     Edge 35, Type (0, 1), BuildingBlock: ZUJKAS_clean_linker_0, # of connection points: 2
# Relax obj value: 0.003
# Max RMSD: 0.063
# Mean RMSD: 0.049
data_MOF--net-hwx--node1-IZENUY_clean_sbu_0--node2-BETDAH_clean_linker_0--edge1-ZUJKAS_clean_linker_0
_symmetry_space_group_name_H-M    P1
_symmetry_Int_Tables_number       1
_symmetry_cell_setting            triclinic
loop_
_symmetry_equiv_pos_as_xyz
'x, y, z'
_cell_length_a     66.573811
_cell_length_b     66.593422
_cell_length_c     27.034665
_cell_angle_alpha  91.676653
_cell_angle_beta   91.572376
_cell_angle_gamma 89.967523
loop_
_atom_site_label
_atom_site_type_symbol
_atom_site_fract_x
_atom_site_fract_y
_atom_site_fract_z
_atom_type_partial_charge
Fe0 Fe 0.23681 0.22995 0.04246 0.0
Fe1 Fe 0.23409 0.22955 0.92872 0.0
O2 O 0.22651 0.21997 0.98582 0.0
Fe3 Fe 0.20852 0.20038 0.98635 0.0
O4 O 0.19134 0.21589 0.02163 0.0
O5 O 0.21383 0.22635 0.07755 0.0
O6 O 0.22755 0.25486 0.02941 0.0
C7 C 0.23139 0.26449 0.99134 0.0
C8 C 0.2362 0.19011 0.06318 0.0
O9 O 0.23779 0.2555 0.95286 0.0
C10 C 0.23133 0.18738 0.90936 0.0
O11 O 0.26163 0.23541 0.01771 0.0
O12 O 0.26018 0.22313 0.94135 0.0
O13 O 0.21893 0.18894 0.04246 0.0
O14 O 0.24677 0.20568 0.05958 0.0
C15 C 0.19376 0.22485 0.90937 0.0
O16 O 0.23178 0.20527 0.8944 0.0
O17 O 0.22454 0.18363 0.95119 0.0
C18 C 0.27029 0.2289 0.97926 0.0
O19 O 0.20853 0.23673 0.91191 0.0
O20 O 0.19468 0.20811 0.93034 0.0
C21 C 0.19565 0.22405 0.06324 0.0
Fe22 Fe 0.27232 0.72872 0.57505 0.0
Fe23 Fe 0.29928 0.69937 0.51771 0.0
O24 O 0.28062 0.71835 0.51804 0.0
Fe25 Fe 0.27038 0.72698 0.46132 0.0
O26 O 0.27877 0.7525 0.47561 0.0
O27 O 0.26781 0.75401 0.55159 0.0
O28 O 0.2975 0.73712 0.59306 0.0
C29 C 0.31265 0.72578 0.59586 0.0
C30 C 0.23651 0.72602 0.52319 0.0
O31 O 0.31247 0.70863 0.57439 0.0
C32 C 0.27236 0.68665 0.43991 0.0
O33 O 0.27528 0.70525 0.60872 0.0
O34 O 0.28362 0.68272 0.55186 0.0
O35 O 0.24522 0.73214 0.48532 0.0
O36 O 0.24658 0.72111 0.56116 0.0
C37 C 0.31182 0.72201 0.44193 0.0
O38 O 0.28958 0.6865 0.46099 0.0
O39 O 0.26132 0.70203 0.44311 0.0
C40 C 0.27631 0.68712 0.59334 0.0
O41 O 0.31614 0.71481 0.48351 0.0
O42 O 0.29366 0.72341 0.42698 0.0
C43 C 0.27432 0.76259 0.51401 0.0
Fe44 Fe 0.77132 0.78212 0.94276 0.0
Fe45 Fe 0.77087 0.78143 0.05638 0.0
O46 O 0.77998 0.79161 0.00148 0.0
Fe47 Fe 0.79783 0.81135 0.00552 0.0
O48 O 0.78905 0.82343 0.94873 0.0
O49 O 0.76193 0.8066 0.92515 0.0
O50 O 0.7457 0.77659 0.96288 0.0
C51 C 0.7361 0.78286 1.00021 0.0
C52 C 0.81312 0.78841 0.93003 0.0
O53 O 0.74527 0.7882 0.03989 0.0
C54 C 0.81047 0.786 0.08286 0.0
O55 O 0.78006 0.75693 0.956 0.0
O56 O 0.76753 0.75581 0.03018 0.0
O57 O 0.8161 0.79634 0.97253 0.0
O58 O 0.79539 0.78599 0.91232 0.0
C59 C 0.773 0.82332 0.07924 0.0
O60 O 0.79596 0.77394 0.07652 0.0
O61 O 0.81 0.80303 0.06319 0.0
C62 C 0.77496 0.74703 0.99271 0.0
O63 O 0.77243 0.80525 0.09276 0.0
O64 O 0.78068 0.82762 0.03877 0.0
C65 C 0.77237 0.8224 0.92517 0.0
Fe66 Fe 0.70875 0.31063 0.52654 0.0
Fe67 Fe 0.73546 0.28264 0.58807 0.0
O68 O 0.72685 0.29116 0.52969 0.0
Fe69 Fe 0.73624 0.28033 0.47431 0.0
O70 O 0.73466 0.30372 0.43954 0.0
O71 O 0.72587 0.32668 0.49487 0.0
O72 O 0.71707 0.3235 0.58448 0.0
C73 C 0.73368 0.32311 0.60833 0.0
C74 C 0.69671 0.28425 0.44706 0.0
O75 O 0.74446 0.30753 0.60718 0.0
C76 C 0.73229 0.24677 0.53602 0.0
O77 O 0.69055 0.29575 0.55799 0.0
O78 O 0.71118 0.28663 0.61821 0.0
O79 O 0.71129 0.27238 0.45301 0.0
O80 O 0.69694 0.30151 0.46794 0.0
C81 C 0.77087 0.28284 0.53133 0.0
O82 O 0.72714 0.25716 0.57333 0.0
O83 O 0.73963 0.25505 0.49895 0.0
C84 C 0.69348 0.28848 0.60015 0.0
O85 O 0.76122 0.27713 0.56824 0.0
O86 O 0.76176 0.28748 0.49175 0.0
C87 C 0.73379 0.32196 0.4543 0.0
H88 H 0.24659 0.56592 0.01619 0.0
H89 H 0.22009 0.51379 0.07881 0.0
H90 H 0.2164 0.52181 0.92169 0.0
C91 C 0.23874 0.55171 0.01144 0.0
C92 C 0.23238 0.54512 0.96378 0.0
C93 C 0.23434 0.54066 0.05326 0.0
C94 C 0.22396 0.52232 0.04689 0.0
C95 C 0.21787 0.51539 0.9992 0.0
C96 C 0.2219 0.52689 0.95803 0.0
N97 N 0.20569 0.49807 0.99246 0.0
C98 C 0.2125 0.47889 0.0029 0.0
H99 H 0.93405 0.76026 0.5269 0.0
H100 H 0.98349 0.77594 0.43681 0.0
H101 H 0.9921 0.77342 0.59456 0.0
C102 C 0.94986 0.76375 0.5236 0.0
C103 C 0.96218 0.76587 0.56647 0.0
C104 C 0.95737 0.76725 0.47668 0.0
C105 C 0.97765 0.77247 0.47261 0.0
C106 C 0.99028 0.7743 0.51485 0.0
C107 C 0.98253 0.77107 0.56182 0.0
N108 N 0.00973 0.78243 0.51009 0.0
C109 C 0.02726 0.77175 0.51963 0.0
H110 H 0.75756 0.44455 0.03196 0.0
H111 H 0.77843 0.49893 0.96805 0.0
H112 H 0.78204 0.49225 0.12571 0.0
C113 C 0.76353 0.45965 0.03658 0.0
C114 C 0.76883 0.46712 0.08423 0.0
C115 C 0.76693 0.47091 0.99444 0.0
C116 C 0.77547 0.49021 1.00027 0.0
C117 C 0.78082 0.49788 0.0479 0.0
C118 C 0.77773 0.4862 0.08932 0.0
N119 N 0.79069 0.51663 0.05541 0.0
C120 C 0.78555 0.53408 0.031 0.0
H121 H 0.07205 0.24495 0.49306 0.0
H122 H 0.01785 0.2686 0.55601 0.0
H123 H 0.02822 0.27439 0.40086 0.0
C124 C 0.05759 0.25226 0.48857 0.0
C125 C 0.05147 0.25883 0.44171 0.0
C126 C 0.04569 0.25575 0.53013 0.0
C127 C 0.02699 0.26544 0.52416 0.0
C128 C 0.02059 0.27184 0.47711 0.0
C129 C 0.03295 0.2687 0.43649 0.0
N130 N 1.00285 0.28328 0.47005 0.0
C131 C 0.98445 0.27917 0.49062 0.0
H132 H 0.73619 0.94053 0.51337 0.0
H133 H 0.7165 0.99162 0.43139 0.0
H134 H 0.71574 0.99387 0.59045 0.0
C135 C 0.7306 0.95583 0.51263 0.0
C136 C 0.72656 0.96608 0.55735 0.0
C137 C 0.72728 0.96493 0.46701 0.0
C138 C 0.71998 0.9847 0.4664 0.0
C139 C 0.7161 0.99528 0.51077 0.0
C140 C 0.71961 0.98603 0.55633 0.0
N141 N 0.70532 0.01357 0.50866 0.0
C142 C 0.71371 0.03223 0.52074 0.0
H143 H 0.57387 0.25782 0.99682 0.0
H144 H 0.52527 0.27215 0.09297 0.0
H145 H 0.51498 0.27063 0.93534 0.0
C146 C 0.5581 0.26116 0.00181 0.0
C147 C 0.5453 0.26346 0.96013 0.0
C148 C 0.55105 0.26413 0.04987 0.0
C149 C 0.53079 0.26912 0.05615 0.0
C150 C 0.51768 0.27105 0.01514 0.0
C151 C 0.52493 0.26826 0.96703 0.0
N152 N 0.49806 0.27844 0.0232 0.0
C153 C 0.48061 0.26878 0.00605 0.0
H154 H 0.26735 0.06814 0.49171 0.0
H155 H 0.25399 0.01015 0.54948 0.0
H156 H 0.25322 0.01826 0.39251 0.0
C157 C 0.26424 0.05227 0.48567 0.0
C158 C 0.26129 0.04463 0.43709 0.0
C159 C 0.26156 0.04006 0.5266 0.0
C160 C 0.2565 0.01966 0.5184 0.0
C161 C 0.25364 0.01186 0.46981 0.0
C162 C 0.25582 0.02441 0.4297 0.0
N163 N 0.24648 0.99208 0.45994 0.0
C164 C 0.2542 0.97505 0.48201 0.0
H165 H 0.43501 0.74751 0.02131 0.0
H166 H 0.48562 0.77547 0.95534 0.0
H167 H 0.48103 0.77601 0.11336 0.0
C168 C 0.4495 0.75488 0.02527 0.0
C169 C 0.45701 0.76039 0.0728 0.0
C170 C 0.45962 0.76018 0.98257 0.0
C171 C 0.47785 0.77083 0.9878 0.0
C172 C 0.48554 0.77639 0.03513 0.0
C173 C 0.47506 0.7713 0.07719 0.0
N174 N 0.50231 0.78936 0.04108 0.0
C175 C 0.52155 0.78413 0.02683 0.0
H176 H 0.19941 0.23988 0.15755 0.0
H177 H 0.17278 0.24651 0.2162 0.0
H178 H 0.1284 0.22635 0.10668 0.0
H179 H 0.15497 0.21942 0.04774 0.0
H180 H 0.13918 0.27189 0.20854 0.0
H181 H 0.11655 0.1921 0.2264 0.0
H182 H 0.13976 0.19922 0.19871 0.0
H183 H 0.11639 0.20104 0.16432 0.0
C184 C 0.184 0.23684 0.1458 0.0
C185 C 0.17937 0.22893 0.09801 0.0
C186 C 0.16879 0.24067 0.1794 0.0
C187 C 0.14866 0.23662 0.16605 0.0
C188 C 0.14389 0.2292 0.11805 0.0
H189 H 0.0414 0.2465 0.34655 0.0
H190 H 0.06389 0.2421 0.27658 0.0
C191 C 0.1591 0.22535 0.08435 0.0
C192 C 0.13276 0.24022 0.20264 0.0
H193 H 0.09788 0.21647 0.27052 0.0
C194 C 0.1301 0.25979 0.22199 0.0
C195 C 0.12089 0.2244 0.21996 0.0
C196 C 0.12358 0.20297 0.20168 0.0
C197 C 0.11597 0.26398 0.25847 0.0
C198 C 0.10444 0.24809 0.27663 0.0
C199 C 0.10674 0.2286 0.25646 0.0
C200 C 0.09069 0.25123 0.31838 0.0
C201 C 0.11346 0.28537 0.2772 0.0
C202 C 0.09836 0.25762 0.36504 0.0
C203 C 0.08561 0.26016 0.40488 0.0
C204 C 0.06491 0.25625 0.39896 0.0
C205 C 0.05725 0.24982 0.35213 0.0
C206 C 0.07006 0.24721 0.31225 0.0
H207 H 0.11898 0.29628 0.25038 0.0
H208 H 0.09746 0.28875 0.28463 0.0
H209 H 0.12229 0.28761 0.31234 0.0
H210 H 0.11428 0.26048 0.37078 0.0
H211 H 0.09196 0.26535 0.4403 0.0
H212 H 0.27913 0.64635 0.5765 0.0
H213 H 0.27148 0.61977 0.63377 0.0
H214 H 0.25331 0.66436 0.74243 0.0
H215 H 0.26106 0.69101 0.68592 0.0
H216 H 0.281 0.63591 0.77845 0.0
H217 H 0.21642 0.59913 0.67707 0.0
H218 H 0.23878 0.60236 0.64235 0.0
H219 H 0.225 0.62402 0.66327 0.0
C220 C 0.27337 0.65051 0.61245 0.0
C221 C 0.27079 0.67084 0.62667 0.0
C222 C 0.2689 0.63528 0.64499 0.0
C223 C 0.26165 0.64011 0.69212 0.0
C224 C 0.25884 0.66033 0.70615 0.0
H225 H 0.22713 0.58562 0.95856 0.0
H226 H 0.23492 0.60719 0.89023 0.0
C227 C 0.2633 0.67555 0.67375 0.0
C228 C 0.25795 0.62427 0.7281 0.0
H229 H 0.22762 0.58446 0.75146 0.0
C230 C 0.26938 0.62462 0.77248 0.0
C231 C 0.24289 0.60946 0.71993 0.0
C232 C 0.22993 0.6087 0.67328 0.0
C233 C 0.26596 0.61076 0.80935 0.0
C234 C 0.25048 0.59637 0.80195 0.0
C235 C 0.23944 0.59557 0.75696 0.0
C236 C 0.24483 0.58291 0.8419 0.0
C237 C 0.27891 0.61167 0.85606 0.0
C238 C 0.2472 0.56202 0.83667 0.0
C239 C 0.2428 0.54959 0.87588 0.0
C240 C 0.23593 0.55792 0.92076 0.0
C241 C 0.23289 0.57879 0.92496 0.0
C242 C 0.23727 0.59114 0.88592 0.0
H243 H 0.2933 0.61965 0.85049 0.0
H244 H 0.27076 0.61994 0.88554 0.0
H245 H 0.28232 0.59636 0.86917 0.0
H246 H 0.25291 0.55541 0.80277 0.0
H247 H 0.24529 0.53357 0.87159 0.0
H248 H 0.81979 0.74982 0.124 0.0
H249 H 0.84643 0.74304 0.18565 0.0
H250 H 0.86468 0.80518 0.18509 0.0
H251 H 0.83869 0.8119 0.12257 0.0
H252 H 0.89666 0.781 0.18682 0.0
H253 H 0.84367 0.75841 0.33027 0.0
H254 H 0.84196 0.74339 0.27412 0.0
H255 H 0.83529 0.76956 0.27336 0.0
C256 C 0.82953 0.76201 0.13694 0.0
C257 C 0.82699 0.78144 0.11866 0.0
C258 C 0.84468 0.75814 0.17237 0.0
C259 C 0.8573 0.7737 0.19077 0.0
C260 C 0.85509 0.79295 0.1716 0.0
H261 H 0.92142 0.78634 0.46808 0.0
H262 H 0.89825 0.78646 0.39651 0.0
C263 C 0.84017 0.79677 0.13585 0.0
C264 C 0.8726 0.77026 0.23068 0.0
H265 H 0.87821 0.75649 0.35093 0.0
C266 C 0.89266 0.77555 0.22267 0.0
C267 C 0.86732 0.76336 0.27762 0.0
C268 C 0.84588 0.75852 0.28968 0.0
C269 C 0.90748 0.77456 0.26054 0.0
C270 C 0.90221 0.76751 0.30734 0.0
C271 C 0.88226 0.76178 0.31496 0.0
C272 C 0.9167 0.76735 0.35013 0.0
C273 C 0.92838 0.78193 0.25062 0.0
C274 C 0.93482 0.75654 0.34801 0.0
C275 C 0.94823 0.75665 0.38887 0.0
C276 C 0.94352 0.76722 0.43279 0.0
C277 C 0.92532 0.77786 0.43489 0.0
C278 C 0.91209 0.77796 0.39399 0.0
H279 H 0.92859 0.79152 0.21769 0.0
H280 H 0.93474 0.79067 0.28297 0.0
H281 H 0.9383 0.76884 0.24343 0.0
H282 H 0.9385 0.74786 0.31501 0.0
H283 H 0.96209 0.7482 0.38651 0.0
H284 H 0.76641 0.32679 0.6723 0.0
H285 H 0.77406 0.35457 0.73126 0.0
H286 H 0.72128 0.38611 0.67985 0.0
H287 H 0.71363 0.35866 0.62054 0.0
H288 H 0.75534 0.41119 0.69551 0.0
H289 H 0.74133 0.36376 0.8569 0.0
H290 H 0.75982 0.35416 0.81518 0.0
H291 H 0.73404 0.35609 0.79441 0.0
C292 C 0.75648 0.33969 0.67331 0.0
C293 C 0.73925 0.34035 0.64205 0.0
C294 C 0.76086 0.35552 0.70713 0.0
C295 C 0.74807 0.37227 0.71042 0.0
C296 C 0.73131 0.37331 0.67804 0.0
H297 H 0.73251 0.45235 0.96142 0.0
H298 H 0.7281 0.43032 0.88797 0.0
C299 C 0.72692 0.35753 0.64428 0.0
C300 C 0.75149 0.3883 0.74908 0.0
H301 H 0.7521 0.39697 0.87417 0.0
C302 C 0.75472 0.40811 0.73462 0.0
C303 C 0.75039 0.38427 0.80001 0.0
C304 C 0.74604 0.36347 0.81777 0.0
C305 C 0.75691 0.42401 0.76983 0.0
C306 C 0.75599 0.41991 0.82075 0.0
C307 C 0.75284 0.40009 0.83509 0.0
C308 C 0.7577 0.43587 0.86023 0.0
C309 C 0.75964 0.4451 0.75229 0.0
C310 C 0.77558 0.44685 0.8682 0.0
C311 C 0.77807 0.45961 0.91012 0.0
C312 C 0.7628 0.46136 0.9449 0.0
C313 C 0.74454 0.45122 0.93528 0.0
C314 C 0.74203 0.4386 0.89342 0.0
H315 H 0.75538 0.44636 0.71248 0.0
H316 H 0.75054 0.45593 0.77423 0.0
H317 H 0.77567 0.44945 0.7573 0.0
H318 H 0.788 0.44474 0.84354 0.0
H319 H 0.79239 0.46702 0.917 0.0
H320 H 0.66768 0.30916 0.41067 0.0
H321 H 0.6417 0.30144 0.34795 0.0
H322 H 0.66207 0.23998 0.33849 0.0
H323 H 0.68868 0.24776 0.40056 0.0
H324 H 0.65638 0.25439 0.24903 0.0
H325 H 0.58933 0.27266 0.3572 0.0
H326 H 0.6064 0.29348 0.35843 0.0
H327 H 0.61399 0.27021 0.38583 0.0
C328 C 0.66657 0.29392 0.39572 0.0
C329 C 0.68028 0.27906 0.41076 0.0
C330 C 0.65155 0.28949 0.36005 0.0
C331 C 0.6496 0.27001 0.33922 0.0
C332 C 0.66317 0.25508 0.35434 0.0
H333 H 0.54624 0.24489 0.13698 0.0
H334 H 0.57005 0.24368 0.20783 0.0
C335 C 0.67838 0.25955 0.38979 0.0
C336 C 0.63425 0.26575 0.29935 0.0
H337 H 0.5847 0.27262 0.26825 0.0
C338 C 0.64065 0.25809 0.25349 0.0
C339 C 0.61363 0.27018 0.30528 0.0
C340 C 0.60541 0.27687 0.35455 0.0
C341 C 0.62722 0.2557 0.2128 0.0
C342 C 0.60694 0.26169 0.21767 0.0
C343 C 0.60031 0.26836 0.26419 0.0
C344 C 0.59261 0.26199 0.17457 0.0
C345 C 0.63496 0.24679 0.16502 0.0
C346 C 0.59719 0.27296 0.13278 0.0
C347 C 0.58374 0.27352 0.09233 0.0
C348 C 0.56523 0.2634 0.09311 0.0
C349 C 0.5604 0.25281 0.13542 0.0
C350 C 0.574 0.25208 0.17578 0.0
H351 H 0.64809 0.23685 0.17193 0.0
H352 H 0.62315 0.23799 0.14431 0.0
H353 H 0.63998 0.25909 0.14143 0.0
H354 H 0.61111 0.28131 0.13161 0.0
H355 H 0.58767 0.28217 0.06069 0.0
H356 H 0.23212 0.14715 0.92847 0.0
H357 H 0.23916 0.11921 0.87076 0.0
H358 H 0.24975 0.1611 0.75569 0.0
H359 H 0.2426 0.18915 0.81288 0.0
H360 H 0.22275 0.1298 0.72818 0.0
H361 H 0.2933 0.10044 0.81382 0.0
H362 H 0.27265 0.10371 0.85477 0.0
H363 H 0.28378 0.12528 0.82814 0.0
C364 C 0.2361 0.15047 0.89099 0.0
C365 C 0.23673 0.17044 0.87532 0.0
C366 C 0.24024 0.13445 0.85815 0.0
C367 C 0.24516 0.13809 0.8091 0.0
C368 C 0.24604 0.15798 0.79348 0.0
H369 H 0.28939 0.06616 0.56772 0.0
H370 H 0.28558 0.08782 0.64161 0.0
C371 C 0.24196 0.174 0.82627 0.0
C372 C 0.24832 0.12119 0.77313 0.0
H373 H 0.27921 0.08161 0.74571 0.0
C374 C 0.23504 0.11921 0.73209 0.0
C375 C 0.26444 0.10748 0.77828 0.0
C376 C 0.27949 0.10933 0.82087 0.0
C377 C 0.23749 0.10396 0.69583 0.0
C378 C 0.25351 0.09013 0.70109 0.0
C379 C 0.26679 0.09207 0.74218 0.0
C380 C 0.25744 0.07461 0.66208 0.0
C381 C 0.22327 0.10316 0.65133 0.0
C382 C 0.24336 0.05938 0.65048 0.0
C383 C 0.2455 0.04697 0.60824 0.0
C384 C 0.26176 0.04965 0.57695 0.0
C385 C 0.27661 0.06389 0.59089 0.0
C386 C 0.27448 0.07623 0.63313 0.0
H387 H 0.21425 0.11713 0.64822 0.0
H388 H 0.23166 0.10076 0.61671 0.0
H389 H 0.21275 0.09038 0.65459 0.0
H390 H 0.23022 0.05773 0.67277 0.0
H391 H 0.23375 0.03623 0.59834 0.0
H392 H 0.30838 0.72949 0.34323 0.0
H393 H 0.33529 0.73602 0.28638 0.0
H394 H 0.37902 0.73251 0.40653 0.0
H395 H 0.35219 0.72535 0.46358 0.0
H396 H 0.36179 0.76606 0.28443 0.0
H397 H 0.40259 0.69401 0.30586 0.0
H398 H 0.37785 0.69821 0.32972 0.0
H399 H 0.39966 0.70801 0.36293 0.0
C400 C 0.32372 0.73007 0.35767 0.0
C401 C 0.32814 0.72673 0.40793 0.0
C402 C 0.3391 0.73381 0.32506 0.0
C403 C 0.35922 0.7344 0.34196 0.0
C404 C 0.36367 0.73159 0.39236 0.0
H405 H 0.45134 0.78444 0.15565 0.0
H406 H 0.42958 0.77813 0.22477 0.0
C407 C 0.34829 0.72763 0.42499 0.0
C408 C 0.37537 0.73827 0.30662 0.0
H409 H 0.41796 0.71838 0.25724 0.0
C410 C 0.3741 0.75565 0.27855 0.0
C411 C 0.39129 0.72455 0.29856 0.0
C412 C 0.39289 0.70505 0.32548 0.0
C413 C 0.38816 0.75963 0.24235 0.0
C414 C 0.40433 0.74614 0.23501 0.0
C415 C 0.4057 0.72882 0.26332 0.0
C416 C 0.41926 0.74915 0.19608 0.0
C417 C 0.38507 0.77786 0.21109 0.0
C418 C 0.42158 0.73447 0.15837 0.0
C419 C 0.43441 0.73779 0.1194 0.0
C420 C 0.44513 0.75594 0.11713 0.0
C421 C 0.44343 0.77025 0.15617 0.0
C422 C 0.43075 0.7668 0.19543 0.0
H423 H 0.36937 0.78348 0.21239 0.0
H424 H 0.39514 0.79011 0.22533 0.0
H425 H 0.38867 0.77446 0.17187 0.0
H426 H 0.41303 0.72062 0.15835 0.0
H427 H 0.43567 0.72626 0.09058 0.0
H428 H 0.74237 0.82304 0.85337 0.0
H429 H 0.73363 0.85062 0.79882 0.0
H430 H 0.77889 0.88788 0.87255 0.0
H431 H 0.78806 0.8603 0.92628 0.0
H432 H 0.72023 0.88907 0.81718 0.0
H433 H 0.79468 0.89091 0.72968 0.0
H434 H 0.78723 0.87073 0.76826 0.0
H435 H 0.79585 0.89419 0.7958 0.0
C436 C 0.75047 0.8371 0.858 0.0
C437 C 0.76612 0.83934 0.89375 0.0
C438 C 0.74543 0.85287 0.82683 0.0
C439 C 0.75589 0.87119 0.83088 0.0
C440 C 0.77098 0.87372 0.86779 0.0
H441 H 0.74788 0.97671 0.64244 0.0
H442 H 0.75405 0.95579 0.71503 0.0
C443 C 0.77614 0.85793 0.89865 0.0
C444 C 0.75117 0.88752 0.79607 0.0
H445 H 0.77147 0.91607 0.707 0.0
C446 C 0.73145 0.89501 0.7932 0.0
C447 C 0.76583 0.89532 0.76482 0.0
C448 C 0.78704 0.88728 0.76432 0.0
C449 C 0.72598 0.90994 0.75971 0.0
C450 C 0.74056 0.91748 0.72804 0.0
C451 C 0.76037 0.91038 0.7317 0.0
C452 C 0.73521 0.93121 0.6875 0.0
C453 C 0.70461 0.91748 0.75826 0.0
C454 C 0.72251 0.92437 0.64836 0.0
C455 C 0.71912 0.93615 0.60712 0.0
C456 C 0.72836 0.95504 0.60412 0.0
C457 C 0.74049 0.96226 0.64408 0.0
C458 C 0.74406 0.95032 0.68533 0.0
H459 H 0.6969 0.91455 0.79327 0.0
H460 H 0.70407 0.93384 0.75154 0.0
H461 H 0.69615 0.90957 0.72758 0.0
H462 H 0.71579 0.90957 0.64885 0.0
H463 H 0.70966 0.93026 0.57684 0.0
H464 H 0.81259 0.77601 0.83254 0.0
H465 H 0.84131 0.77046 0.77943 0.0
H466 H 0.88184 0.78534 0.90211 0.0
H467 H 0.85321 0.79088 0.95576 0.0
H468 H 0.87107 0.80018 0.76057 0.0
H469 H 0.9042 0.7316 0.8426 0.0
H470 H 0.87855 0.73928 0.85258 0.0
H471 H 0.89886 0.7521 0.88506 0.0
C472 C 0.82759 0.77794 0.84847 0.0
C473 C 0.83056 0.78396 0.89845 0.0
C474 C 0.84399 0.77477 0.81801 0.0
C475 C 0.86369 0.77733 0.83695 0.0
C476 C 0.86677 0.78301 0.88695 0.0
H477 H 0.96552 0.79316 0.64377 0.0
H478 H 0.94401 0.79563 0.71591 0.0
C479 C 0.85036 0.78628 0.91746 0.0
C480 C 0.88088 0.77512 0.80349 0.0
H481 H 0.92194 0.74616 0.77802 0.0
C482 C 0.88227 0.78845 0.76452 0.0
C483 C 0.89537 0.75974 0.80871 0.0
C484 C 0.89421 0.74472 0.84923 0.0
C485 C 0.89768 0.78672 0.73027 0.0
C486 C 0.91222 0.77137 0.73547 0.0
C487 C 0.91091 0.75807 0.77458 0.0
C488 C 0.92784 0.76808 0.69805 0.0
C489 C 0.89791 0.80095 0.68782 0.0
C490 C 0.92657 0.75124 0.66575 0.0
C491 C 0.93888 0.74974 0.62476 0.0
C492 C 0.95275 0.76503 0.61551 0.0
C493 C 0.95508 0.78109 0.65011 0.0
C494 C 0.94269 0.78261 0.69106 0.0
H495 H 0.88368 0.80958 0.68428 0.0
H496 H 0.91043 0.8118 0.69397 0.0
H497 H 0.9004 0.7926 0.65235 0.0
H498 H 0.91526 0.73983 0.67062 0.0
H499 H 0.93686 0.73713 0.59887 0.0
H500 H 0.74428 0.31805 0.35731 0.0
H501 H 0.75206 0.34473 0.30091 0.0
H502 H 0.7449 0.389 0.41877 0.0
H503 H 0.73658 0.3624 0.47529 0.0
H504 H 0.7252 0.39981 0.33611 0.0
H505 H 0.80249 0.3773 0.28899 0.0
H506 H 0.78489 0.35722 0.27753 0.0
H507 H 0.78949 0.36675 0.33985 0.0
C508 C 0.74455 0.33343 0.37147 0.0
C509 C 0.7398 0.33806 0.42089 0.0
C510 C 0.74914 0.34869 0.33918 0.0
C511 C 0.74941 0.36887 0.35576 0.0
C512 C 0.74488 0.37353 0.4052 0.0
H513 H 0.79388 0.46247 0.1656 0.0
H514 H 0.78906 0.44065 0.23557 0.0
C515 C 0.74014 0.35829 0.43747 0.0
C516 C 0.7533 0.38513 0.32077 0.0
H517 H 0.78616 0.40049 0.23475 0.0
C518 C 0.73864 0.40008 0.31434 0.0
C519 C 0.77098 0.38573 0.29294 0.0
C520 C 0.78795 0.37101 0.30053 0.0
C521 C 0.74083 0.41514 0.27959 0.0
C522 C 0.75792 0.41496 0.24955 0.0
C523 C 0.77294 0.40048 0.2573 0.0
C524 C 0.76023 0.42921 0.20878 0.0
C525 C 0.72484 0.43112 0.27563 0.0
C526 C 0.74563 0.43006 0.17044 0.0
C527 C 0.74821 0.44272 0.13079 0.0
C528 C 0.7656 0.4546 0.12813 0.0
C529 C 0.78017 0.45379 0.16676 0.0
C530 C 0.77752 0.44119 0.20661 0.0
H531 H 0.71671 0.43309 0.3108 0.0
H532 H 0.73135 0.4458 0.26605 0.0
H533 H 0.71367 0.42654 0.24623 0.0
H534 H 0.73238 0.42065 0.17065 0.0
H535 H 0.73658 0.44309 0.10201 0.0
H536 H 0.1593 0.20277 0.89573 0.0
H537 H 0.13108 0.20892 0.83846 0.0
H538 H 0.15939 0.26335 0.79322 0.0
H539 H 0.18785 0.25729 0.85018 0.0
H540 H 0.1042 0.24262 0.82818 0.0
H541 H 0.15128 0.22903 0.66378 0.0
H542 H 0.1593 0.22206 0.72524 0.0
H543 H 0.16064 0.24781 0.70759 0.0
C544 C 0.15954 0.21612 0.87381 0.0
C545 C 0.17601 0.2294 0.87714 0.0
C546 C 0.14333 0.21964 0.84124 0.0
C547 C 0.14327 0.23645 0.81119 0.0
C548 C 0.15929 0.25014 0.81564 0.0
H549 H 0.04919 0.28057 0.61221 0.0
H550 H 0.07078 0.27532 0.68567 0.0
C551 C 0.17552 0.24666 0.84829 0.0
C552 C 0.12693 0.23903 0.77346 0.0
H553 H 0.1178 0.2392 0.64866 0.0
C554 C 0.10713 0.24191 0.7889 0.0
C555 C 0.13078 0.2378 0.72228 0.0
C556 C 0.1516 0.23384 0.7035 0.0
C557 C 0.09108 0.24382 0.75435 0.0
C558 C 0.09501 0.24292 0.7032 0.0
C559 C 0.11481 0.23992 0.68791 0.0
C560 C 0.07899 0.2449 0.66434 0.0
C561 C 0.07002 0.24641 0.77271 0.0
C562 C 0.07601 0.22938 0.62865 0.0
C563 C 0.06374 0.23235 0.5868 0.0
C564 C 0.05425 0.25095 0.57967 0.0
C565 C 0.0561 0.26601 0.61708 0.0
C566 C 0.06847 0.26303 0.65901 0.0
H567 H 0.06891 0.24214 0.81197 0.0
H568 H 0.06555 0.2624 0.77001 0.0
H569 H 0.0592 0.23723 0.74972 0.0
H570 H 0.08396 0.21526 0.63204 0.0
H571 H 0.06252 0.22048 0.55862 0.0
H572 H 0.292 0.65096 0.42661 0.0
H573 H 0.28367 0.62364 0.36745 0.0
H574 H 0.23073 0.65563 0.31894 0.0
H575 H 0.23901 0.68325 0.37787 0.0
H576 H 0.24865 0.59897 0.35314 0.0
H577 H 0.26328 0.64637 0.19196 0.0
H578 H 0.27114 0.65365 0.25434 0.0
H579 H 0.24531 0.65629 0.23466 0.0
C580 C 0.27851 0.65221 0.40358 0.0
C581 C 0.26632 0.66946 0.40659 0.0
C582 C 0.27374 0.6365 0.36992 0.0
C583 C 0.25674 0.63772 0.33841 0.0
C584 C 0.24409 0.65454 0.34249 0.0
H585 H 0.20908 0.54554 0.13075 0.0
H586 H 0.21454 0.56727 0.2047 0.0
C587 C 0.24882 0.67028 0.37628 0.0
C588 C 0.25294 0.62182 0.29971 0.0
H589 H 0.25201 0.61333 0.17457 0.0
C590 C 0.24929 0.60207 0.31406 0.0
C591 C 0.25409 0.6259 0.24882 0.0
C592 C 0.25883 0.64664 0.23129 0.0
C593 C 0.24667 0.58629 0.27872 0.0
C594 C 0.24763 0.59044 0.22786 0.0
C595 C 0.25126 0.61019 0.21363 0.0
C596 C 0.24527 0.57463 0.18831 0.0
C597 C 0.24338 0.56525 0.296 0.0
C598 C 0.26086 0.57118 0.15521 0.0
C599 C 0.25777 0.55881 0.1131 0.0
C600 C 0.23899 0.54972 0.10309 0.0
C601 C 0.22379 0.55214 0.13786 0.0
C602 C 0.22688 0.56459 0.18006 0.0
H603 H 0.24748 0.56383 0.33587 0.0
H604 H 0.22727 0.56126 0.29061 0.0
H605 H 0.25231 0.55425 0.27411 0.0
H606 H 0.27517 0.57875 0.16091 0.0
H607 H 0.26978 0.55713 0.08705 0.0
H608 H 0.31691 0.75933 0.65683 0.0
H609 H 0.34483 0.76743 0.71485 0.0
H610 H 0.37537 0.71326 0.6684 0.0
H611 H 0.34775 0.70514 0.61008 0.0
H612 H 0.35731 0.74401 0.79272 0.0
H613 H 0.42004 0.75534 0.66577 0.0
H614 H 0.394 0.75554 0.64513 0.0
H615 H 0.40681 0.7321 0.65432 0.0
C616 C 0.32967 0.74925 0.6585 0.0
C617 C 0.33002 0.73153 0.62888 0.0
C618 C 0.34562 0.75392 0.69166 0.0
C619 C 0.36231 0.74108 0.69549 0.0
C620 C 0.36287 0.7236 0.66535 0.0
H621 H 0.4417 0.72548 0.94788 0.0
H622 H 0.4194 0.72124 0.87486 0.0
C623 C 0.34694 0.7189 0.63229 0.0
C624 C 0.37834 0.74506 0.73376 0.0
H625 H 0.42907 0.75116 0.75122 0.0
C626 C 0.37297 0.74575 0.78359 0.0
C627 C 0.39876 0.74746 0.72179 0.0
C628 C 0.40527 0.74777 0.66883 0.0
C629 C 0.3875 0.74819 0.82184 0.0
C630 C 0.408 0.74974 0.80997 0.0
C631 C 0.41337 0.74969 0.76015 0.0
C632 C 0.4239 0.75134 0.84933 0.0
C633 C 0.38081 0.74909 0.87476 0.0
C634 C 0.43459 0.76933 0.85767 0.0
C635 C 0.4474 0.77179 0.89941 0.0
C636 C 0.44968 0.75627 0.93332 0.0
C637 C 0.44003 0.73779 0.92276 0.0
C638 C 0.42728 0.73535 0.88114 0.0
H639 H 0.36448 0.75229 0.87716 0.0
H640 H 0.38381 0.7344 0.89184 0.0
H641 H 0.38927 0.76081 0.89672 0.0
H642 H 0.43222 0.78181 0.83338 0.0
H643 H 0.4545 0.78625 0.90671 0.0
H644 H 0.76244 0.82029 0.17582 0.0
H645 H 0.75396 0.84752 0.23421 0.0
H646 H 0.76124 0.89072 0.12048 0.0
H647 H 0.76989 0.86359 0.06152 0.0
H648 H 0.78235 0.88664 0.2501 0.0
H649 H 0.70213 0.89738 0.19201 0.0
H650 H 0.71427 0.87322 0.18506 0.0
H651 H 0.72094 0.89327 0.14595 0.0
C652 C 0.76214 0.83555 0.16298 0.0
C653 C 0.76691 0.83974 0.11395 0.0
C654 C 0.75733 0.85107 0.19647 0.0
C655 C 0.75699 0.87104 0.1815 0.0
C656 C 0.76141 0.87535 0.13254 0.0
H657 H 0.74773 0.97614 0.38559 0.0
H658 H 0.75499 0.95528 0.31155 0.0
C659 C 0.76636 0.85983 0.09901 0.0
C660 C 0.75249 0.88735 0.21779 0.0
H661 H 0.71426 0.91655 0.26117 0.0
C662 C 0.76757 0.89342 0.25223 0.0
C663 C 0.73316 0.89599 0.22032 0.0
C664 C 0.71656 0.88972 0.18405 0.0
C665 C 0.76367 0.90768 0.29003 0.0
C666 C 0.7442 0.91603 0.29326 0.0
C667 C 0.72921 0.91021 0.25823 0.0
C668 C 0.73873 0.92935 0.33554 0.0
C669 C 0.7801 0.9132 0.32749 0.0
C670 C 0.7269 0.92175 0.37276 0.0
C671 C 0.72286 0.93351 0.41488 0.0
C672 C 0.73045 0.95317 0.42041 0.0
C673 C 0.74169 0.96105 0.38219 0.0
C674 C 0.74589 0.94916 0.34011 0.0
H675 H 0.7938 0.90389 0.32261 0.0
H676 H 0.78423 0.92922 0.32379 0.0
H677 H 0.7747 0.91137 0.36561 0.0
H678 H 0.72121 0.90651 0.36977 0.0
H679 H 0.71393 0.92715 0.44345 0.0
H680 H 0.65352 0.28892 0.57261 0.0
H681 H 0.62464 0.2838 0.62502 0.0
H682 H 0.66468 0.2734 0.74963 0.0
H683 H 0.69365 0.27849 0.69775 0.0
H684 H 0.6147 0.24939 0.6854 0.0
H685 H 0.62697 0.3204 0.79493 0.0
H686 H 0.63817 0.31565 0.73562 0.0
H687 H 0.64872 0.30451 0.79021 0.0
C688 C 0.65622 0.28549 0.61114 0.0
C689 C 0.67595 0.28429 0.63105 0.0
C690 C 0.63968 0.28252 0.64096 0.0
C691 C 0.64254 0.27848 0.69127 0.0
C692 C 0.66217 0.27677 0.71099 0.0
H693 H 0.57038 0.23516 0.92079 0.0
H694 H 0.59113 0.23842 0.84823 0.0
C695 C 0.67871 0.27962 0.6812 0.0
C696 C 0.62507 0.27642 0.7236 0.0
H697 H 0.60325 0.29752 0.82535 0.0
C698 C 0.61206 0.25998 0.71577 0.0
C699 C 0.62147 0.29045 0.76262 0.0
C700 C 0.63444 0.30887 0.77127 0.0
C701 C 0.596 0.25677 0.74736 0.0
C702 C 0.59301 0.27028 0.78786 0.0
C703 C 0.60556 0.28714 0.79437 0.0
C704 C 0.57796 0.26661 0.82612 0.0
C705 C 0.58243 0.2389 0.73727 0.0
C706 C 0.56339 0.28118 0.83743 0.0
C707 C 0.55151 0.27934 0.87901 0.0
C708 C 0.5542 0.26302 0.91033 0.0
C709 C 0.56799 0.24789 0.89729 0.0
C710 C 0.57978 0.24968 0.85566 0.0
H711 H 0.58279 0.23372 0.69786 0.0
H712 H 0.58763 0.22631 0.76039 0.0
H713 H 0.56667 0.24248 0.74669 0.0
H714 H 0.56183 0.29443 0.8153 0.0
H715 H 0.5412 0.29136 0.88847 0.0
H716 H 0.21703 0.15484 0.08016 0.0
H717 H 0.22621 0.12974 0.14069 0.0
H718 H 0.27938 0.16365 0.18331 0.0
H719 H 0.27021 0.18911 0.12308 0.0
H720 H 0.26126 0.10601 0.1523 0.0
H721 H 0.24976 0.15796 0.31411 0.0
H722 H 0.24078 0.16359 0.25247 0.0
H723 H 0.26696 0.16636 0.26899 0.0
C724 C 0.23074 0.15699 0.1022 0.0
C725 C 0.24276 0.17414 0.09713 0.0
C726 C 0.23598 0.14257 0.1367 0.0
C727 C 0.25329 0.145 0.16696 0.0
C728 C 0.26576 0.16169 0.16087 0.0
H729 H 0.28922 0.07396 0.42238 0.0
H730 H 0.28976 0.09773 0.35494 0.0
C731 C 0.26053 0.17617 0.12627 0.0
C732 C 0.25779 0.13027 0.20577 0.0
H733 H 0.25957 0.12489 0.33102 0.0
C734 C 0.26104 0.11014 0.19139 0.0
C735 C 0.25752 0.13574 0.25672 0.0
C736 C 0.25342 0.15704 0.27426 0.0
C737 C 0.26379 0.09524 0.22665 0.0
C738 C 0.2629 0.10061 0.27755 0.0
C739 C 0.26026 0.12084 0.29195 0.0
C740 C 0.26345 0.08538 0.31645 0.0
C741 C 0.26756 0.0739 0.20911 0.0
C742 C 0.24842 0.07063 0.31724 0.0
C743 C 0.24801 0.05713 0.35576 0.0
C744 C 0.26255 0.05817 0.3945 0.0
C745 C 0.27771 0.07285 0.39331 0.0
C746 C 0.27811 0.08638 0.35473 0.0
H747 H 0.27375 0.07329 0.17134 0.0
H748 H 0.27815 0.06618 0.23468 0.0
H749 H 0.25315 0.06551 0.20771 0.0
H750 H 0.23666 0.06993 0.28877 0.0
H751 H 0.23588 0.0463 0.35603 0.0
H752 H 0.21683 0.28866 0.0659 0.0
H753 H 0.21482 0.32533 0.06932 0.0
H754 H 0.24118 0.32751 0.92567 0.0
H755 H 0.24294 0.29084 0.92144 0.0
H756 H 0.24499 0.35364 0.06621 0.0
H757 H 0.19119 0.3618 0.90773 0.0
H758 H 0.19594 0.338 0.93608 0.0
H759 H 0.21321 0.3476 0.89256 0.0
C760 C 0.22213 0.29691 0.03488 0.0
C761 C 0.22997 0.28675 0.99326 0.0
C762 C 0.221 0.31789 0.03697 0.0
C763 C 0.22759 0.32917 0.99749 0.0
C764 C 0.2356 0.31911 0.95612 0.0
H765 H 0.23272 0.45632 0.93722 0.0
H766 H 0.23797 0.41983 0.93851 0.0
C767 C 0.23668 0.29813 0.95388 0.0
C768 C 0.22633 0.35145 0.99992 0.0
H769 H 0.20638 0.39173 0.94054 0.0
C770 C 0.23648 0.36198 0.03886 0.0
C771 C 0.21518 0.36231 0.96428 0.0
C772 C 0.20309 0.35187 0.92306 0.0
C773 C 0.2361 0.38308 0.04256 0.0
C774 C 0.2251 0.39391 0.00667 0.0
C775 C 0.21491 0.38339 0.96784 0.0
C776 C 0.22372 0.41616 0.00869 0.0
C777 C 0.24778 0.39364 0.08424 0.0
C778 C 0.21415 0.42622 0.04795 0.0
C779 C 0.21119 0.44704 0.04722 0.0
C780 C 0.21778 0.458 0.00726 0.0
C781 C 0.22775 0.44809 0.96864 0.0
C782 C 0.23066 0.4273 0.96928 0.0
H783 H 0.25919 0.38363 0.1014 0.0
H784 H 0.25546 0.40718 0.07094 0.0
H785 H 0.23726 0.39856 0.11333 0.0
H786 H 0.20832 0.41789 0.07823 0.0
H787 H 0.20321 0.45446 0.07699 0.0
H788 H 0.21259 0.7191 0.60211 0.0
H789 H 0.17603 0.72252 0.60558 0.0
H790 H 0.17344 0.73854 0.45219 0.0
H791 H 0.20989 0.73507 0.44816 0.0
H792 H 0.15389 0.75776 0.5867 0.0
H793 H 0.12972 0.69522 0.45893 0.0
H794 H 0.15478 0.69688 0.48611 0.0
H795 H 0.14795 0.71161 0.43356 0.0
C796 C 0.20424 0.72314 0.56892 0.0
C797 C 0.21423 0.72683 0.52484 0.0
C798 C 0.18334 0.7251 0.57102 0.0
C799 C 0.17198 0.73054 0.529 0.0
C800 C 0.18186 0.73395 0.48481 0.0
H801 H 0.05309 0.76741 0.44615 0.0
H802 H 0.08793 0.75565 0.45223 0.0
C803 C 0.20274 0.73208 0.4827 0.0
C804 C 0.14999 0.73388 0.53194 0.0
H805 H 0.10478 0.71966 0.47935 0.0
C806 C 0.14309 0.74926 0.56377 0.0
C807 C 0.13596 0.72279 0.50191 0.0
C808 C 0.14241 0.70557 0.46851 0.0
C809 C 0.12264 0.75447 0.56477 0.0
C810 C 0.10864 0.74368 0.53387 0.0
C811 C 0.1155 0.72791 0.50305 0.0
C812 C 0.08708 0.74945 0.53032 0.0
C813 C 0.11636 0.77209 0.59717 0.0
C814 C 0.07484 0.74945 0.57194 0.0
C815 C 0.05492 0.75626 0.56846 0.0
C816 C 0.04701 0.76289 0.52321 0.0
C817 C 0.05896 0.76226 0.48135 0.0
C818 C 0.07882 0.75555 0.48482 0.0
H819 H 0.1294 0.78151 0.60974 0.0
H820 H 0.10538 0.78171 0.57724 0.0
H821 H 0.10909 0.76646 0.63049 0.0
H822 H 0.08076 0.74445 0.60719 0.0
H823 H 0.04587 0.75668 0.60116 0.0
H824 H 0.76045 0.72079 0.05909 0.0
H825 H 0.76166 0.68412 0.05513 0.0
H826 H 0.79282 0.68579 0.91765 0.0
H827 H 0.79171 0.72261 0.92117 0.0
H828 H 0.74591 0.65761 0.97475 0.0
H829 H 0.82832 0.64967 0.0094 0.0
H830 H 0.81494 0.67253 0.02465 0.0
H831 H 0.82035 0.6663 0.9614 0.0
C832 C 0.76763 0.71343 0.028 0.0
C833 C 0.77601 0.72472 0.99045 0.0
C834 C 0.76825 0.69244 0.02578 0.0
C835 C 0.77744 0.68224 0.98631 0.0
C836 C 0.78584 0.69338 0.94872 0.0
H837 H 0.80206 0.55298 0.95454 0.0
H838 H 0.79872 0.58886 0.93628 0.0
C839 C 0.78512 0.71443 0.95073 0.0
C840 C 0.77802 0.65994 0.98464 0.0
H841 H 0.80962 0.6199 0.99724 0.0
C842 C 0.75984 0.64933 0.97938 0.0
C843 C 0.79622 0.6492 0.99031 0.0
C844 C 0.81611 0.65991 0.9971 0.0
C845 C 0.75935 0.62823 0.9801 0.0
C846 C 0.77748 0.61747 0.98754 0.0
C847 C 0.79572 0.62811 0.99149 0.0
C848 C 0.77783 0.59538 0.99464 0.0
C849 C 0.73938 0.61771 0.97259 0.0
C850 C 0.76709 0.58706 0.03314 0.0
C851 C 0.76886 0.56664 0.04313 0.0
C852 C 0.78149 0.55423 0.0151 0.0
C853 C 0.79198 0.56231 0.97605 0.0
C854 C 0.79015 0.58277 0.96586 0.0
H855 H 0.72858 0.62696 0.95102 0.0
H856 H 0.74108 0.60293 0.95307 0.0
H857 H 0.73282 0.61521 0.00919 0.0
H858 H 0.75796 0.59651 0.0568 0.0
H859 H 0.76097 0.56073 0.07408 0.0
H860 H 0.79612 0.27393 0.60978 0.0
H861 H 0.83294 0.27328 0.61174 0.0
H862 H 0.83295 0.28985 0.45875 0.0
H863 H 0.79632 0.29089 0.45661 0.0
H864 H 0.85915 0.25028 0.55641 0.0
H865 H 0.87097 0.33097 0.52318 0.0
H866 H 0.84696 0.32108 0.54016 0.0
H867 H 0.85473 0.31921 0.47692 0.0
C868 C 0.80395 0.27755 0.57661 0.0
C869 C 0.7932 0.28257 0.5331 0.0
C870 C 0.82501 0.27714 0.5778 0.0
C871 C 0.83573 0.28185 0.53566 0.0
C872 C 0.82504 0.28663 0.49209 0.0
H873 H 0.954 0.27996 0.42482 0.0
H874 H 0.91801 0.27972 0.44136 0.0
C875 C 0.80404 0.28711 0.49087 0.0
C876 C 0.85807 0.28135 0.53651 0.0
H877 H 0.89924 0.30931 0.51038 0.0
C878 C 0.86796 0.26326 0.54709 0.0
C879 C 0.86957 0.29834 0.5247 0.0
C880 C 0.86003 0.31855 0.51611 0.0
C881 C 0.88895 0.26146 0.54372 0.0
C882 C 0.90027 0.2782 0.52971 0.0
C883 C 0.89047 0.29646 0.52085 0.0
C884 C 0.92209 0.27683 0.52049 0.0
C885 C 0.89883 0.2415 0.55309 0.0
C886 C 0.93633 0.27513 0.55956 0.0
C887 C 0.95696 0.27532 0.55009 0.0
C888 C 0.96345 0.27713 0.5015 0.0
C889 C 0.94924 0.27842 0.46254 0.0
C890 C 0.92873 0.27833 0.47195 0.0
H891 H 0.88769 0.2294 0.5584 0.0
H892 H 0.90845 0.23709 0.52165 0.0
H893 H 0.90867 0.24286 0.58683 0.0
H894 H 0.93148 0.27418 0.59734 0.0
H895 H 0.96778 0.27449 0.58065 0.0
H896 H 0.71981 0.22336 0.61135 0.0
H897 H 0.71885 0.18665 0.61313 0.0
H898 H 0.74104 0.18292 0.46482 0.0
H899 H 0.74233 0.21954 0.46286 0.0
H900 H 0.69756 0.15973 0.55201 0.0
H901 H 0.77938 0.14577 0.53846 0.0
H902 H 0.76922 0.17031 0.55313 0.0
H903 H 0.76915 0.16093 0.49006 0.0
C904 C 0.72458 0.21476 0.57914 0.0
C905 C 0.7313 0.22447 0.53709 0.0
C906 C 0.72402 0.19375 0.58025 0.0
C907 C 0.73025 0.18201 0.5395 0.0
C908 C 0.73665 0.19164 0.4972 0.0
H909 H 0.73022 0.05589 0.45394 0.0
H910 H 0.73518 0.09242 0.46163 0.0
C911 C 0.73724 0.21262 0.49604 0.0
C912 C 0.72942 0.1597 0.54055 0.0
H913 H 0.75795 0.11723 0.52789 0.0
C914 C 0.71079 0.15044 0.54721 0.0
C915 C 0.7467 0.14758 0.53416 0.0
C916 C 0.76728 0.15662 0.52901 0.0
C917 C 0.70885 0.12941 0.54626 0.0
C918 C 0.72609 0.11728 0.53942 0.0
C919 C 0.74476 0.12654 0.53322 0.0
C920 C 0.72485 0.09498 0.53679 0.0
C921 C 0.68822 0.12038 0.55092 0.0
C922 C 0.71804 0.08419 0.57701 0.0
C923 C 0.71525 0.06336 0.57261 0.0
C924 C 0.71946 0.05304 0.52817 0.0
C925 C 0.72708 0.06361 0.48871 0.0
C926 C 0.72984 0.08443 0.49305 0.0
H927 H 0.67612 0.13153 0.54402 0.0
H928 H 0.68599 0.10741 0.52458 0.0
H929 H 0.68665 0.11492 0.58901 0.0
H930 H 0.71444 0.09195 0.6114 0.0
H931 H 0.70923 0.05543 0.60335 0.0
H932 H 0.29709 0.23709 0.0557 0.0
H933 H 0.33361 0.24029 0.05204 0.0
H934 H 0.33061 0.22637 0.89533 0.0
H935 H 0.294 0.22307 0.89847 0.0
H936 H 0.36289 0.21003 0.01296 0.0
H937 H 0.36099 0.282 0.91289 0.0
H938 H 0.33981 0.27327 0.94666 0.0
H939 H 0.34566 0.26162 0.88817 0.0
C940 C 0.30415 0.23466 0.0204 0.0
C941 C 0.29255 0.22995 0.9773 0.0
C942 C 0.32504 0.23645 0.01844 0.0
C943 C 0.33476 0.23376 0.97335 0.0
C944 C 0.32334 0.22871 0.9304 0.0
H945 H 0.46138 0.26108 0.91744 0.0
H946 H 0.42628 0.24984 0.9049 0.0
C947 C 0.30243 0.22677 0.93234 0.0
C948 C 0.35683 0.23656 0.97153 0.0
H949 H 0.39276 0.26905 0.93456 0.0
C950 C 0.36947 0.22285 0.99553 0.0
C951 C 0.36534 0.25318 0.94837 0.0
C952 C 0.35234 0.26849 0.92271 0.0
C953 C 0.39042 0.22547 0.99762 0.0
C954 C 0.39892 0.24258 0.9763 0.0
C955 C 0.38628 0.25594 0.95092 0.0
C956 C 0.42059 0.24772 0.9831 0.0
C957 C 0.40323 0.20982 0.02259 0.0
C958 C 0.42905 0.2503 0.03105 0.0
C959 C 0.44898 0.25652 0.03805 0.0
C960 C 0.46076 0.26048 0.99732 0.0
C961 C 0.45253 0.25785 0.94929 0.0
C962 C 0.43253 0.25152 0.94221 0.0
H963 H 0.39571 0.19491 0.02106 0.0
H964 H 0.4181 0.2083 0.00526 0.0
H965 H 0.40565 0.21427 0.06218 0.0
H966 H 0.42005 0.24808 0.06321 0.0
H967 H 0.45502 0.25878 0.07544 0.0
H968 H 0.25945 0.78917 0.58293 0.0
H969 H 0.25891 0.8258 0.58058 0.0
H970 H 0.29038 0.82329 0.44322 0.0
H971 H 0.29054 0.78657 0.44455 0.0
H972 H 0.28858 0.85387 0.57976 0.0
H973 H 0.24195 0.85686 0.40685 0.0
H974 H 0.24558 0.834 0.4401 0.0
H975 H 0.26466 0.84267 0.39994 0.0
C976 C 0.26627 0.79637 0.55214 0.0
C977 C 0.27483 0.78488 0.51359 0.0
C978 C 0.26597 0.81734 0.55094 0.0
C979 C 0.27426 0.82731 0.51128 0.0
C980 C 0.28343 0.81593 0.47357 0.0
H981 H 0.28059 0.95247 0.43239 0.0
H982 H 0.28757 0.91666 0.44335 0.0
C983 C 0.28359 0.79492 0.4745 0.0
C984 C 0.27306 0.84956 0.50926 0.0
H985 H 0.25531 0.88774 0.43855 0.0
C986 C 0.28128 0.86128 0.54893 0.0
C987 C 0.26341 0.85924 0.46916 0.0
C988 C 0.25322 0.84757 0.42683 0.0
C989 C 0.28034 0.88239 0.54919 0.0
C990 C 0.27086 0.89198 0.5089 0.0
C991 C 0.2627 0.8803 0.46925 0.0
C992 C 0.26887 0.91413 0.50707 0.0
C993 C 0.28969 0.8943 0.59216 0.0
C994 C 0.25631 0.92464 0.53982 0.0
C995 C 0.25232 0.94509 0.53353 0.0
C996 C 0.26093 0.95521 0.49461 0.0
C997 C 0.27406 0.94494 0.4631 0.0
C998 C 0.27797 0.92452 0.46919 0.0
H999 H 0.29992 0.88497 0.6151 0.0
H1000 H 0.29823 0.90731 0.57881 0.0
H1001 H 0.27763 0.90024 0.61605 0.0
H1002 H 0.24886 0.91682 0.56874 0.0
H1003 H 0.24186 0.95274 0.55765 0.0
H1004 H 0.71077 0.7913 0.07614 0.0
H1005 H 0.67413 0.78985 0.0744 0.0
H1006 H 0.67401 0.77233 0.91957 0.0
H1007 H 0.71078 0.77334 0.92112 0.0
H1008 H 0.64718 0.81135 0.01945 0.0
H1009 H 0.63798 0.7298 0.97559 0.0
H1010 H 0.66179 0.74071 0.99524 0.0
H1011 H 0.65271 0.74304 0.93244 0.0
C1012 C 0.70301 0.78705 0.04168 0.0
C1013 C 0.71378 0.78231 0.99882 0.0
C1014 C 0.68202 0.78623 0.04078 0.0
C1015 C 0.67131 0.78066 0.99709 0.0
C1016 C 0.68196 0.7762 0.95402 0.0
H1017 H 0.54052 0.77776 0.93998 0.0
H1018 H 0.5772 0.77623 0.92931 0.0
C1019 C 0.70299 0.77692 0.95491 0.0
C1020 C 0.64898 0.78016 0.99667 0.0
H1021 H 0.60822 0.7493 0.97831 0.0
C1022 C 0.63868 0.79778 0.01038 0.0
C1023 C 0.63788 0.76245 0.98468 0.0
C1024 C 0.64811 0.74286 0.97156 0.0
C1025 C 0.61766 0.79816 0.01276 0.0
C1026 C 0.6066 0.7804 0.00155 0.0
C1027 C 0.61678 0.76288 0.98677 0.0
C1028 C 0.58456 0.77966 0.00759 0.0
C1029 C 0.60738 0.81755 0.02739 0.0
C1030 C 0.57666 0.78158 0.05508 0.0
C1031 C 0.55591 0.78234 0.0611 0.0
C1032 C 0.54275 0.78113 0.01978 0.0
C1033 C 0.55051 0.77861 0.9723 0.0
C1034 C 0.57136 0.77776 0.96624 0.0
H1035 H 0.6174 0.83074 0.0239 0.0
H1036 H 0.59356 0.8198 0.00424 0.0
H1037 H 0.60291 0.81691 0.06656 0.0
H1038 H 0.58659 0.78287 0.08745 0.0
H1039 H 0.55014 0.78436 0.09803 0.0
loop_
_geom_bond_atom_site_label_1
_geom_bond_atom_site_label_2
_geom_bond_distance
_geom_bond_site_symmetry_2
_ccdc_geom_bond_type
Fe0 O2 1.918 . S
Fe0 O5 1.997 . S
Fe0 O6 2.002 . S
Fe0 O11 1.976 . S
Fe0 O14 1.996 . S
Fe1 O2 1.918 1_556 S
Fe1 O9 1.997 . S
Fe1 O12 1.996 . S
Fe1 O16 1.976 . S
Fe1 O19 2.002 . S
O2 Fe0 1.918 . S
O2 Fe1 1.918 1_554 S
O2 Fe3 1.918 . S
Fe3 O2 1.918 . S
Fe3 O4 2.002 . S
Fe3 O13 1.976 . S
Fe3 O17 1.996 1_554 S
Fe3 O20 1.997 1_554 S
O4 Fe3 2.002 . S
O4 C21 1.295 . S
O5 Fe0 1.997 . S
O5 C21 1.235 . S
O6 Fe0 2.002 . S
O6 C7 1.295 . S
C7 O6 1.295 . S
C7 O9 1.235 1_554 S
C8 O13 1.287 . S
C8 O14 1.255 . S
O9 Fe1 1.997 . S
O9 C7 1.235 1_556 S
C10 O16 1.287 . S
C10 O17 1.255 . S
O11 Fe0 1.976 . S
O11 C18 1.287 . S
O12 Fe1 1.996 . S
O12 C18 1.255 1_556 S
O13 Fe3 1.976 . S
O13 C8 1.287 . S
O14 Fe0 1.996 . S
O14 C8 1.255 . S
C15 O19 1.295 . S
C15 O20 1.235 . S
O16 Fe1 1.976 . S
O16 C10 1.287 . S
O17 Fe3 1.996 1_556 S
O17 C10 1.255 . S
C18 O11 1.287 . S
C18 O12 1.255 1_554 S
O19 Fe1 2.002 . S
O19 C15 1.295 . S
O20 Fe3 1.997 1_556 S
O20 C15 1.235 . S
C21 O4 1.295 . S
C21 O5 1.235 . S
Fe22 O24 1.918 . S
Fe22 O27 1.997 . S
Fe22 O28 2.002 . S
Fe22 O33 1.976 . S
Fe22 O36 1.996 . S
Fe23 O24 1.918 . S
Fe23 O31 1.997 . S
Fe23 O34 1.996 . S
Fe23 O38 1.976 . S
Fe23 O41 2.002 . S
O24 Fe22 1.918 . S
O24 Fe23 1.918 . S
O24 Fe25 1.918 . S
Fe25 O24 1.918 . S
Fe25 O26 2.002 . S
Fe25 O35 1.976 . S
Fe25 O39 1.996 . S
Fe25 O42 1.997 . S
O26 Fe25 2.002 . S
O26 C43 1.295 . S
O27 Fe22 1.997 . S
O27 C43 1.235 . S
O28 Fe22 2.002 . S
O28 C29 1.295 . S
C29 O28 1.295 . S
C29 O31 1.235 . S
C30 O35 1.287 . S
C30 O36 1.255 . S
O31 Fe23 1.997 . S
O31 C29 1.235 . S
C32 O38 1.287 . S
C32 O39 1.255 . S
O33 Fe22 1.976 . S
O33 C40 1.287 . S
O34 Fe23 1.996 . S
O34 C40 1.255 . S
O35 Fe25 1.976 . S
O35 C30 1.287 . S
O36 Fe22 1.996 . S
O36 C30 1.255 . S
C37 O41 1.295 . S
C37 O42 1.235 . S
O38 Fe23 1.976 . S
O38 C32 1.287 . S
O39 Fe25 1.996 . S
O39 C32 1.255 . S
C40 O33 1.287 . S
C40 O34 1.255 . S
O41 Fe23 2.002 . S
O41 C37 1.295 . S
O42 Fe25 1.997 . S
O42 C37 1.235 . S
C43 O26 1.295 . S
C43 O27 1.235 . S
Fe44 O46 1.918 1_556 S
Fe44 O49 1.997 . S
Fe44 O50 2.002 . S
Fe44 O55 1.976 . S
Fe44 O58 1.996 . S
Fe45 O46 1.918 . S
Fe45 O53 1.997 . S
Fe45 O56 1.996 . S
Fe45 O60 1.976 . S
Fe45 O63 2.002 . S
O46 Fe44 1.918 1_554 S
O46 Fe45 1.918 . S
O46 Fe47 1.918 . S
Fe47 O46 1.918 . S
Fe47 O48 2.002 1_554 S
Fe47 O57 1.976 1_554 S
Fe47 O61 1.996 . S
Fe47 O64 1.997 . S
O48 Fe47 2.002 1_556 S
O48 C65 1.295 . S
O49 Fe44 1.997 . S
O49 C65 1.235 . S
O50 Fe44 2.002 . S
O50 C51 1.295 1_556 S
C51 O50 1.295 1_554 S
C51 O53 1.235 . S
C52 O57 1.287 . S
C52 O58 1.255 . S
O53 Fe45 1.997 . S
O53 C51 1.235 . S
C54 O60 1.287 . S
C54 O61 1.255 . S
O55 Fe44 1.976 . S
O55 C62 1.287 1_556 S
O56 Fe45 1.996 . S
O56 C62 1.255 . S
O57 Fe47 1.976 1_556 S
O57 C52 1.287 . S
O58 Fe44 1.996 . S
O58 C52 1.255 . S
C59 O63 1.295 . S
C59 O64 1.235 . S
O60 Fe45 1.976 . S
O60 C54 1.287 . S
O61 Fe47 1.996 . S
O61 C54 1.255 . S
C62 O55 1.287 1_554 S
C62 O56 1.255 . S
O63 Fe45 2.002 . S
O63 C59 1.295 . S
O64 Fe47 1.997 . S
O64 C59 1.235 . S
C65 O48 1.295 . S
C65 O49 1.235 . S
Fe66 O68 1.918 . S
Fe66 O71 1.997 . S
Fe66 O72 2.002 . S
Fe66 O77 1.976 . S
Fe66 O80 1.996 . S
Fe67 O68 1.918 . S
Fe67 O75 1.997 . S
Fe67 O78 1.996 . S
Fe67 O82 1.976 . S
Fe67 O85 2.002 . S
O68 Fe66 1.918 . S
O68 Fe67 1.918 . S
O68 Fe69 1.918 . S
Fe69 O68 1.918 . S
Fe69 O70 2.002 . S
Fe69 O79 1.976 . S
Fe69 O83 1.996 . S
Fe69 O86 1.997 . S
O70 Fe69 2.002 . S
O70 C87 1.295 . S
O71 Fe66 1.997 . S
O71 C87 1.235 . S
O72 Fe66 2.002 . S
O72 C73 1.295 . S
C73 O72 1.295 . S
C73 O75 1.235 . S
C74 O79 1.287 . S
C74 O80 1.255 . S
O75 Fe67 1.997 . S
O75 C73 1.235 . S
C76 O82 1.287 . S
C76 O83 1.255 . S
O77 Fe66 1.976 . S
O77 C84 1.287 . S
O78 Fe67 1.996 . S
O78 C84 1.255 . S
O79 Fe69 1.976 . S
O79 C74 1.287 . S
O80 Fe66 1.996 . S
O80 C74 1.255 . S
C81 O85 1.295 . S
C81 O86 1.235 . S
O82 Fe67 1.976 . S
O82 C76 1.287 . S
O83 Fe69 1.996 . S
O83 C76 1.255 . S
C84 O77 1.287 . S
C84 O78 1.255 . S
O85 Fe67 2.002 . S
O85 C81 1.295 . S
O86 Fe69 1.997 . S
O86 C81 1.235 . S
C87 O70 1.295 . S
C87 O71 1.235 . S
H88 C91 0.928 1_554 S
H89 C94 0.929 . S
H90 C96 0.930 . S
C91 H88 0.928 1_556 S
C91 C92 1.415 . S
C91 C93 1.380 1_556 S
C92 C91 1.415 . S
C92 C96 1.407 . S
C93 C91 1.380 1_554 S
C93 C94 1.394 . S
C94 H89 0.929 . S
C94 C93 1.394 . S
C94 C95 1.382 1_554 S
C95 C94 1.382 1_556 S
C95 C96 1.392 . S
C95 N97 1.420 . S
C96 H90 0.930 . S
C96 C92 1.407 . S
C96 C95 1.392 . S
N97 C95 1.420 . S
N97 C98 1.244 1_556 S
C98 N97 1.244 1_554 S
H99 C102 0.929 . S
H100 C105 0.963 . S
H101 C107 0.930 . S
C102 H99 0.929 . S
C102 C103 1.398 . S
C102 C104 1.396 . S
C103 C102 1.398 . S
C103 C107 1.407 . S
C104 C102 1.396 . S
C104 C105 1.394 . S
C105 H100 0.963 . S
C105 C104 1.394 . S
C105 C106 1.382 1_655 S
C106 C105 1.382 1_455 S
C106 C107 1.393 1_455 S
C106 N108 1.418 . S
C107 H101 0.930 . S
C107 C103 1.407 . S
C107 C106 1.393 1_655 S
N108 C106 1.418 . S
N108 C109 1.244 . S
C109 N108 1.244 . S
H110 C113 0.929 . S
H111 C116 0.929 . S
H112 C118 0.930 . S
C113 H110 0.929 . S
C113 C114 1.398 . S
C113 C115 1.396 1_554 S
C114 C113 1.398 . S
C114 C118 1.407 . S
C115 C113 1.396 1_556 S
C115 C116 1.394 . S
C116 H111 0.929 . S
C116 C115 1.394 . S
C116 C117 1.382 1_556 S
C117 C116 1.382 1_554 S
C117 C118 1.392 . S
C117 N119 1.420 . S
C118 H112 0.930 . S
C118 C114 1.407 . S
C118 C117 1.392 . S
N119 C117 1.420 . S
N119 C120 1.244 . S
C120 N119 1.244 . S
H121 C124 0.929 . S
H122 C127 0.929 . S
H123 C129 0.930 . S
C124 H121 0.929 . S
C124 C125 1.398 . S
C124 C126 1.396 . S
C125 C124 1.398 . S
C125 C129 1.407 . S
C126 C124 1.396 . S
C126 C127 1.394 . S
C127 H122 0.929 . S
C127 C126 1.394 . S
C127 C128 1.394 . S
C128 C127 1.394 . S
C128 C129 1.409 . S
C128 N130 1.392 1_455 S
C129 H123 0.930 . S
C129 C125 1.407 . S
C129 C128 1.409 . S
N130 C128 1.392 1_655 S
N130 C131 1.244 . S
C131 N130 1.244 . S
H132 C135 0.929 . S
H133 C138 0.929 1_545 S
H134 C140 0.930 . S
C135 H132 0.929 . S
C135 C136 1.398 . S
C135 C137 1.396 . S
C136 C135 1.398 . S
C136 C140 1.407 . S
C137 C135 1.396 . S
C137 C138 1.394 . S
C138 H133 0.929 1_565 S
C138 C137 1.394 . S
C138 C139 1.382 1_565 S
C139 C138 1.382 1_545 S
C139 C140 1.392 1_545 S
C139 N141 1.420 . S
C140 H134 0.930 . S
C140 C136 1.407 . S
C140 C139 1.392 1_565 S
N141 C139 1.420 . S
N141 C142 1.244 . S
C142 N141 1.244 . S
H143 C146 0.929 . S
H144 C149 0.929 . S
H145 C151 0.930 . S
C146 H143 0.929 . S
C146 C147 1.398 1_554 S
C146 C148 1.396 . S
C147 C146 1.398 1_556 S
C147 C151 1.407 . S
C148 C146 1.396 . S
C148 C149 1.394 . S
C149 H144 0.929 . S
C149 C148 1.394 . S
C149 C150 1.382 1_554 S
C150 C149 1.382 1_556 S
C150 C151 1.392 . S
C150 N152 1.420 . S
C151 H145 0.930 . S
C151 C147 1.407 . S
C151 C150 1.392 . S
N152 C150 1.420 . S
N152 C153 1.244 1_556 S
C153 N152 1.244 1_554 S
H154 C157 0.929 . S
H155 C160 0.965 . S
H156 C162 0.930 . S
C157 H154 0.929 . S
C157 C158 1.398 . S
C157 C159 1.396 . S
C158 C157 1.398 . S
C158 C162 1.407 . S
C159 C157 1.396 . S
C159 C160 1.394 . S
C160 H155 0.965 . S
C160 C159 1.394 . S
C160 C161 1.384 1_545 S
C161 C160 1.384 1_565 S
C161 C162 1.395 1_565 S
C161 N163 1.415 . S
C162 H156 0.930 . S
C162 C158 1.407 . S
C162 C161 1.395 1_545 S
N163 C161 1.415 . S
N163 C164 1.244 . S
C164 N163 1.244 . S
H165 C168 0.929 . S
H166 C171 0.929 . S
H167 C173 0.930 . S
C168 H165 0.929 . S
C168 C169 1.398 . S
C168 C170 1.396 1_554 S
C169 C168 1.398 . S
C169 C173 1.407 . S
C170 C168 1.396 1_556 S
C170 C171 1.394 . S
C171 H166 0.929 . S
C171 C170 1.394 . S
C171 C172 1.382 1_556 S
C172 C171 1.382 1_554 S
C172 C173 1.392 . S
C172 N174 1.420 . S
C173 H167 0.930 . S
C173 C169 1.407 . S
C173 C172 1.392 . S
N174 C172 1.420 . S
N174 C175 1.244 . S
C175 N174 1.244 . S
H176 C184 0.929 . S
H177 C186 0.930 . S
H178 C188 0.930 . S
H179 C191 0.929 . S
H180 C194 0.930 . S
H181 C196 0.960 . S
H182 C196 0.960 . S
H183 C196 0.960 . S
C184 H176 0.929 . S
C184 C185 1.377 . S
C184 C186 1.384 . S
C185 C184 1.377 . S
C185 C191 1.390 . S
C186 H177 0.930 . S
C186 C184 1.384 . S
C186 C187 1.372 . S
C187 C186 1.372 . S
C187 C188 1.400 . S
C187 C192 1.490 . S
C188 H178 0.930 . S
C188 C187 1.400 . S
C188 C191 1.386 . S
H189 C205 0.930 . S
H190 C206 0.931 . S
C191 H179 0.929 . S
C191 C185 1.390 . S
C191 C188 1.386 . S
C192 C187 1.490 . S
C192 C194 1.395 . S
C192 C195 1.403 . S
H193 C199 0.930 . S
C194 H180 0.930 . S
C194 C192 1.395 . S
C194 C197 1.403 . S
C195 C192 1.403 . S
C195 C196 1.524 . S
C195 C199 1.400 . S
C196 H181 0.960 . S
C196 H182 0.960 . S
C196 H183 0.960 . S
C196 C195 1.524 . S
C197 C194 1.403 . S
C197 C198 1.392 . S
C197 C201 1.495 . S
C198 C197 1.392 . S
C198 C199 1.385 . S
C198 C200 1.478 . S
C199 H193 0.930 . S
C199 C195 1.400 . S
C199 C198 1.385 . S
C200 C198 1.478 . S
C200 C202 1.381 . S
C200 C206 1.383 . S
C201 C197 1.495 . S
C201 H207 0.959 . S
C201 H208 0.961 . S
C201 H209 0.960 . S
C202 C200 1.381 . S
C202 C203 1.394 . S
C202 H210 0.930 . S
C203 C202 1.394 . S
C203 C204 1.383 . S
C203 H211 0.929 . S
C204 C203 1.383 . S
C204 C205 1.377 . S
C205 H189 0.930 . S
C205 C204 1.377 . S
C205 C206 1.379 . S
C206 H190 0.931 . S
C206 C200 1.383 . S
C206 C205 1.379 . S
H207 C201 0.959 . S
H208 C201 0.961 . S
H209 C201 0.960 . S
H210 C202 0.930 . S
H211 C203 0.929 . S
H212 C220 0.929 . S
H213 C222 0.930 . S
H214 C224 0.930 . S
H215 C227 0.929 . S
H216 C230 0.930 . S
H217 C232 0.960 . S
H218 C232 0.960 . S
H219 C232 0.960 . S
C220 H212 0.929 . S
C220 C221 1.377 . S
C220 C222 1.384 . S
C221 C220 1.377 . S
C221 C227 1.390 . S
C222 H213 0.930 . S
C222 C220 1.384 . S
C222 C223 1.372 . S
C223 C222 1.372 . S
C223 C224 1.400 . S
C223 C228 1.490 . S
C224 H214 0.930 . S
C224 C223 1.400 . S
C224 C227 1.386 . S
H225 C241 0.930 . S
H226 C242 0.931 . S
C227 H215 0.929 . S
C227 C221 1.390 . S
C227 C224 1.386 . S
C228 C223 1.490 . S
C228 C230 1.395 . S
C228 C231 1.403 . S
H229 C235 0.930 . S
C230 H216 0.930 . S
C230 C228 1.395 . S
C230 C233 1.403 . S
C231 C228 1.403 . S
C231 C232 1.524 . S
C231 C235 1.400 . S
C232 H217 0.960 . S
C232 H218 0.960 . S
C232 H219 0.960 . S
C232 C231 1.524 . S
C233 C230 1.403 . S
C233 C234 1.392 . S
C233 C237 1.495 . S
C234 C233 1.392 . S
C234 C235 1.385 . S
C234 C236 1.478 . S
C235 H229 0.930 . S
C235 C231 1.400 . S
C235 C234 1.385 . S
C236 C234 1.478 . S
C236 C238 1.381 . S
C236 C242 1.383 . S
C237 C233 1.495 . S
C237 H243 0.959 . S
C237 H244 0.961 . S
C237 H245 0.960 . S
C238 C236 1.381 . S
C238 C239 1.394 . S
C238 H246 0.930 . S
C239 C238 1.394 . S
C239 C240 1.383 . S
C239 H247 0.929 . S
C240 C239 1.383 . S
C240 C241 1.377 . S
C241 H225 0.930 . S
C241 C240 1.377 . S
C241 C242 1.379 . S
C242 H226 0.931 . S
C242 C236 1.383 . S
C242 C241 1.379 . S
H243 C237 0.959 . S
H244 C237 0.961 . S
H245 C237 0.960 . S
H246 C238 0.930 . S
H247 C239 0.929 . S
H248 C256 0.929 . S
H249 C258 0.930 . S
H250 C260 0.930 . S
H251 C263 0.929 . S
H252 C266 0.930 . S
H253 C268 0.960 . S
H254 C268 0.960 . S
H255 C268 0.960 . S
C256 H248 0.929 . S
C256 C257 1.377 . S
C256 C258 1.384 . S
C257 C256 1.377 . S
C257 C263 1.390 . S
C258 H249 0.930 . S
C258 C256 1.384 . S
C258 C259 1.372 . S
C259 C258 1.372 . S
C259 C260 1.400 . S
C259 C264 1.490 . S
C260 H250 0.930 . S
C260 C259 1.400 . S
C260 C263 1.386 . S
H261 C277 0.930 . S
H262 C278 0.931 . S
C263 H251 0.929 . S
C263 C257 1.390 . S
C263 C260 1.386 . S
C264 C259 1.490 . S
C264 C266 1.395 . S
C264 C267 1.403 . S
H265 C271 0.930 . S
C266 H252 0.930 . S
C266 C264 1.395 . S
C266 C269 1.403 . S
C267 C264 1.403 . S
C267 C268 1.524 . S
C267 C271 1.400 . S
C268 H253 0.960 . S
C268 H254 0.960 . S
C268 H255 0.960 . S
C268 C267 1.524 . S
C269 C266 1.403 . S
C269 C270 1.392 . S
C269 C273 1.495 . S
C270 C269 1.392 . S
C270 C271 1.385 . S
C270 C272 1.478 . S
C271 H265 0.930 . S
C271 C267 1.400 . S
C271 C270 1.385 . S
C272 C270 1.478 . S
C272 C274 1.381 . S
C272 C278 1.383 . S
C273 C269 1.495 . S
C273 H279 0.959 . S
C273 H280 0.961 . S
C273 H281 0.960 . S
C274 C272 1.381 . S
C274 C275 1.394 . S
C274 H282 0.930 . S
C275 C274 1.394 . S
C275 C276 1.383 . S
C275 H283 0.929 . S
C276 C275 1.383 . S
C276 C277 1.377 . S
C277 H261 0.930 . S
C277 C276 1.377 . S
C277 C278 1.379 . S
C278 H262 0.931 . S
C278 C272 1.383 . S
C278 C277 1.379 . S
H279 C273 0.959 . S
H280 C273 0.961 . S
H281 C273 0.960 . S
H282 C274 0.930 . S
H283 C275 0.929 . S
H284 C292 0.929 . S
H285 C294 0.930 . S
H286 C296 0.930 . S
H287 C299 0.929 . S
H288 C302 0.930 . S
H289 C304 0.960 . S
H290 C304 0.960 . S
H291 C304 0.960 . S
C292 H284 0.929 . S
C292 C293 1.377 . S
C292 C294 1.384 . S
C293 C292 1.377 . S
C293 C299 1.390 . S
C294 H285 0.930 . S
C294 C292 1.384 . S
C294 C295 1.372 . S
C295 C294 1.372 . S
C295 C296 1.400 . S
C295 C300 1.490 . S
C296 H286 0.930 . S
C296 C295 1.400 . S
C296 C299 1.386 . S
H297 C313 0.930 . S
H298 C314 0.931 . S
C299 H287 0.929 . S
C299 C293 1.390 . S
C299 C296 1.386 . S
C300 C295 1.490 . S
C300 C302 1.395 . S
C300 C303 1.403 . S
H301 C307 0.930 . S
C302 H288 0.930 . S
C302 C300 1.395 . S
C302 C305 1.403 . S
C303 C300 1.403 . S
C303 C304 1.524 . S
C303 C307 1.400 . S
C304 H289 0.960 . S
C304 H290 0.960 . S
C304 H291 0.960 . S
C304 C303 1.524 . S
C305 C302 1.403 . S
C305 C306 1.392 . S
C305 C309 1.495 . S
C306 C305 1.392 . S
C306 C307 1.385 . S
C306 C308 1.478 . S
C307 H301 0.930 . S
C307 C303 1.400 . S
C307 C306 1.385 . S
C308 C306 1.478 . S
C308 C310 1.381 . S
C308 C314 1.383 . S
C309 C305 1.495 . S
C309 H315 0.959 . S
C309 H316 0.961 . S
C309 H317 0.960 . S
C310 C308 1.381 . S
C310 C311 1.394 . S
C310 H318 0.930 . S
C311 C310 1.394 . S
C311 C312 1.383 . S
C311 H319 0.929 . S
C312 C311 1.383 . S
C312 C313 1.377 . S
C313 H297 0.930 . S
C313 C312 1.377 . S
C313 C314 1.379 . S
C314 H298 0.931 . S
C314 C308 1.383 . S
C314 C313 1.379 . S
H315 C309 0.959 . S
H316 C309 0.961 . S
H317 C309 0.960 . S
H318 C310 0.930 . S
H319 C311 0.929 . S
H320 C328 0.929 . S
H321 C330 0.930 . S
H322 C332 0.930 . S
H323 C335 0.929 . S
H324 C338 0.930 . S
H325 C340 0.960 . S
H326 C340 0.960 . S
H327 C340 0.960 . S
C328 H320 0.929 . S
C328 C329 1.377 . S
C328 C330 1.384 . S
C329 C328 1.377 . S
C329 C335 1.390 . S
C330 H321 0.930 . S
C330 C328 1.384 . S
C330 C331 1.372 . S
C331 C330 1.372 . S
C331 C332 1.400 . S
C331 C336 1.490 . S
C332 H322 0.930 . S
C332 C331 1.400 . S
C332 C335 1.386 . S
H333 C349 0.930 . S
H334 C350 0.931 . S
C335 H323 0.929 . S
C335 C329 1.390 . S
C335 C332 1.386 . S
C336 C331 1.490 . S
C336 C338 1.395 . S
C336 C339 1.403 . S
H337 C343 0.930 . S
C338 H324 0.930 . S
C338 C336 1.395 . S
C338 C341 1.403 . S
C339 C336 1.403 . S
C339 C340 1.524 . S
C339 C343 1.400 . S
C340 H325 0.960 . S
C340 H326 0.960 . S
C340 H327 0.960 . S
C340 C339 1.524 . S
C341 C338 1.403 . S
C341 C342 1.392 . S
C341 C345 1.495 . S
C342 C341 1.392 . S
C342 C343 1.385 . S
C342 C344 1.478 . S
C343 H337 0.930 . S
C343 C339 1.400 . S
C343 C342 1.385 . S
C344 C342 1.478 . S
C344 C346 1.381 . S
C344 C350 1.383 . S
C345 C341 1.495 . S
C345 H351 0.959 . S
C345 H352 0.961 . S
C345 H353 0.960 . S
C346 C344 1.381 . S
C346 C347 1.394 . S
C346 H354 0.930 . S
C347 C346 1.394 . S
C347 C348 1.383 . S
C347 H355 0.929 . S
C348 C347 1.383 . S
C348 C349 1.377 . S
C349 H333 0.930 . S
C349 C348 1.377 . S
C349 C350 1.379 . S
C350 H334 0.931 . S
C350 C344 1.383 . S
C350 C349 1.379 . S
H351 C345 0.959 . S
H352 C345 0.961 . S
H353 C345 0.960 . S
H354 C346 0.930 . S
H355 C347 0.929 . S
H356 C364 0.929 . S
H357 C366 0.930 . S
H358 C368 0.930 . S
H359 C371 0.929 . S
H360 C374 0.930 . S
H361 C376 0.960 . S
H362 C376 0.960 . S
H363 C376 0.960 . S
C364 H356 0.929 . S
C364 C365 1.377 . S
C364 C366 1.384 . S
C365 C364 1.377 . S
C365 C371 1.390 . S
C366 H357 0.930 . S
C366 C364 1.384 . S
C366 C367 1.372 . S
C367 C366 1.372 . S
C367 C368 1.400 . S
C367 C372 1.490 . S
C368 H358 0.930 . S
C368 C367 1.400 . S
C368 C371 1.386 . S
H369 C385 0.930 . S
H370 C386 0.931 . S
C371 H359 0.929 . S
C371 C365 1.390 . S
C371 C368 1.386 . S
C372 C367 1.490 . S
C372 C374 1.395 . S
C372 C375 1.403 . S
H373 C379 0.930 . S
C374 H360 0.930 . S
C374 C372 1.395 . S
C374 C377 1.403 . S
C375 C372 1.403 . S
C375 C376 1.524 . S
C375 C379 1.400 . S
C376 H361 0.960 . S
C376 H362 0.960 . S
C376 H363 0.960 . S
C376 C375 1.524 . S
C377 C374 1.403 . S
C377 C378 1.392 . S
C377 C381 1.495 . S
C378 C377 1.392 . S
C378 C379 1.385 . S
C378 C380 1.478 . S
C379 H373 0.930 . S
C379 C375 1.400 . S
C379 C378 1.385 . S
C380 C378 1.478 . S
C380 C382 1.381 . S
C380 C386 1.383 . S
C381 C377 1.495 . S
C381 H387 0.959 . S
C381 H388 0.961 . S
C381 H389 0.960 . S
C382 C380 1.381 . S
C382 C383 1.394 . S
C382 H390 0.930 . S
C383 C382 1.394 . S
C383 C384 1.383 . S
C383 H391 0.929 . S
C384 C383 1.383 . S
C384 C385 1.377 . S
C385 H369 0.930 . S
C385 C384 1.377 . S
C385 C386 1.379 . S
C386 H370 0.931 . S
C386 C380 1.383 . S
C386 C385 1.379 . S
H387 C381 0.959 . S
H388 C381 0.961 . S
H389 C381 0.960 . S
H390 C382 0.930 . S
H391 C383 0.929 . S
H392 C400 0.929 . S
H393 C402 0.930 . S
H394 C404 0.930 . S
H395 C407 0.929 . S
H396 C410 0.930 . S
H397 C412 0.960 . S
H398 C412 0.960 . S
H399 C412 0.960 . S
C400 H392 0.929 . S
C400 C401 1.377 . S
C400 C402 1.384 . S
C401 C400 1.377 . S
C401 C407 1.390 . S
C402 H393 0.930 . S
C402 C400 1.384 . S
C402 C403 1.372 . S
C403 C402 1.372 . S
C403 C404 1.400 . S
C403 C408 1.490 . S
C404 H394 0.930 . S
C404 C403 1.400 . S
C404 C407 1.386 . S
H405 C421 0.930 . S
H406 C422 0.931 . S
C407 H395 0.929 . S
C407 C401 1.390 . S
C407 C404 1.386 . S
C408 C403 1.490 . S
C408 C410 1.395 . S
C408 C411 1.403 . S
H409 C415 0.930 . S
C410 H396 0.930 . S
C410 C408 1.395 . S
C410 C413 1.403 . S
C411 C408 1.403 . S
C411 C412 1.524 . S
C411 C415 1.400 . S
C412 H397 0.960 . S
C412 H398 0.960 . S
C412 H399 0.960 . S
C412 C411 1.524 . S
C413 C410 1.403 . S
C413 C414 1.392 . S
C413 C417 1.495 . S
C414 C413 1.392 . S
C414 C415 1.385 . S
C414 C416 1.478 . S
C415 H409 0.930 . S
C415 C411 1.400 . S
C415 C414 1.385 . S
C416 C414 1.478 . S
C416 C418 1.381 . S
C416 C422 1.383 . S
C417 C413 1.495 . S
C417 H423 0.959 . S
C417 H424 0.961 . S
C417 H425 0.960 . S
C418 C416 1.381 . S
C418 C419 1.394 . S
C418 H426 0.930 . S
C419 C418 1.394 . S
C419 C420 1.383 . S
C419 H427 0.929 . S
C420 C419 1.383 . S
C420 C421 1.377 . S
C421 H405 0.930 . S
C421 C420 1.377 . S
C421 C422 1.379 . S
C422 H406 0.931 . S
C422 C416 1.383 . S
C422 C421 1.379 . S
H423 C417 0.959 . S
H424 C417 0.961 . S
H425 C417 0.960 . S
H426 C418 0.930 . S
H427 C419 0.929 . S
H428 C436 0.929 . S
H429 C438 0.930 . S
H430 C440 0.930 . S
H431 C443 0.929 . S
H432 C446 0.930 . S
H433 C448 0.960 . S
H434 C448 0.960 . S
H435 C448 0.960 . S
C436 H428 0.929 . S
C436 C437 1.377 . S
C436 C438 1.384 . S
C437 C436 1.377 . S
C437 C443 1.390 . S
C438 H429 0.930 . S
C438 C436 1.384 . S
C438 C439 1.372 . S
C439 C438 1.372 . S
C439 C440 1.400 . S
C439 C444 1.490 . S
C440 H430 0.930 . S
C440 C439 1.400 . S
C440 C443 1.386 . S
H441 C457 0.930 . S
H442 C458 0.931 . S
C443 H431 0.929 . S
C443 C437 1.390 . S
C443 C440 1.386 . S
C444 C439 1.490 . S
C444 C446 1.395 . S
C444 C447 1.403 . S
H445 C451 0.930 . S
C446 H432 0.930 . S
C446 C444 1.395 . S
C446 C449 1.403 . S
C447 C444 1.403 . S
C447 C448 1.524 . S
C447 C451 1.400 . S
C448 H433 0.960 . S
C448 H434 0.960 . S
C448 H435 0.960 . S
C448 C447 1.524 . S
C449 C446 1.403 . S
C449 C450 1.392 . S
C449 C453 1.495 . S
C450 C449 1.392 . S
C450 C451 1.385 . S
C450 C452 1.478 . S
C451 H445 0.930 . S
C451 C447 1.400 . S
C451 C450 1.385 . S
C452 C450 1.478 . S
C452 C454 1.381 . S
C452 C458 1.383 . S
C453 C449 1.495 . S
C453 H459 0.959 . S
C453 H460 0.961 . S
C453 H461 0.960 . S
C454 C452 1.381 . S
C454 C455 1.394 . S
C454 H462 0.930 . S
C455 C454 1.394 . S
C455 C456 1.383 . S
C455 H463 0.929 . S
C456 C455 1.383 . S
C456 C457 1.377 . S
C457 H441 0.930 . S
C457 C456 1.377 . S
C457 C458 1.379 . S
C458 H442 0.931 . S
C458 C452 1.383 . S
C458 C457 1.379 . S
H459 C453 0.959 . S
H460 C453 0.961 . S
H461 C453 0.960 . S
H462 C454 0.930 . S
H463 C455 0.929 . S
H464 C472 0.929 . S
H465 C474 0.930 . S
H466 C476 0.930 . S
H467 C479 0.929 . S
H468 C482 0.930 . S
H469 C484 0.960 . S
H470 C484 0.960 . S
H471 C484 0.960 . S
C472 H464 0.929 . S
C472 C473 1.377 . S
C472 C474 1.384 . S
C473 C472 1.377 . S
C473 C479 1.390 . S
C474 H465 0.930 . S
C474 C472 1.384 . S
C474 C475 1.372 . S
C475 C474 1.372 . S
C475 C476 1.400 . S
C475 C480 1.490 . S
C476 H466 0.930 . S
C476 C475 1.400 . S
C476 C479 1.386 . S
H477 C493 0.930 . S
H478 C494 0.931 . S
C479 H467 0.929 . S
C479 C473 1.390 . S
C479 C476 1.386 . S
C480 C475 1.490 . S
C480 C482 1.395 . S
C480 C483 1.403 . S
H481 C487 0.930 . S
C482 H468 0.930 . S
C482 C480 1.395 . S
C482 C485 1.403 . S
C483 C480 1.403 . S
C483 C484 1.524 . S
C483 C487 1.400 . S
C484 H469 0.960 . S
C484 H470 0.960 . S
C484 H471 0.960 . S
C484 C483 1.524 . S
C485 C482 1.403 . S
C485 C486 1.392 . S
C485 C489 1.495 . S
C486 C485 1.392 . S
C486 C487 1.385 . S
C486 C488 1.478 . S
C487 H481 0.930 . S
C487 C483 1.400 . S
C487 C486 1.385 . S
C488 C486 1.478 . S
C488 C490 1.381 . S
C488 C494 1.383 . S
C489 C485 1.495 . S
C489 H495 0.959 . S
C489 H496 0.961 . S
C489 H497 0.960 . S
C490 C488 1.381 . S
C490 C491 1.394 . S
C490 H498 0.930 . S
C491 C490 1.394 . S
C491 C492 1.383 . S
C491 H499 0.929 . S
C492 C491 1.383 . S
C492 C493 1.377 . S
C493 H477 0.930 . S
C493 C492 1.377 . S
C493 C494 1.379 . S
C494 H478 0.931 . S
C494 C488 1.383 . S
C494 C493 1.379 . S
H495 C489 0.959 . S
H496 C489 0.961 . S
H497 C489 0.960 . S
H498 C490 0.930 . S
H499 C491 0.929 . S
H500 C508 0.929 . S
H501 C510 0.930 . S
H502 C512 0.930 . S
H503 C515 0.929 . S
H504 C518 0.930 . S
H505 C520 0.960 . S
H506 C520 0.960 . S
H507 C520 0.960 . S
C508 H500 0.929 . S
C508 C509 1.377 . S
C508 C510 1.384 . S
C509 C508 1.377 . S
C509 C515 1.390 . S
C510 H501 0.930 . S
C510 C508 1.384 . S
C510 C511 1.372 . S
C511 C510 1.372 . S
C511 C512 1.400 . S
C511 C516 1.490 . S
C512 H502 0.930 . S
C512 C511 1.400 . S
C512 C515 1.386 . S
H513 C529 0.930 . S
H514 C530 0.931 . S
C515 H503 0.929 . S
C515 C509 1.390 . S
C515 C512 1.386 . S
C516 C511 1.490 . S
C516 C518 1.395 . S
C516 C519 1.403 . S
H517 C523 0.930 . S
C518 H504 0.930 . S
C518 C516 1.395 . S
C518 C521 1.403 . S
C519 C516 1.403 . S
C519 C520 1.524 . S
C519 C523 1.400 . S
C520 H505 0.960 . S
C520 H506 0.960 . S
C520 H507 0.960 . S
C520 C519 1.524 . S
C521 C518 1.403 . S
C521 C522 1.392 . S
C521 C525 1.495 . S
C522 C521 1.392 . S
C522 C523 1.385 . S
C522 C524 1.478 . S
C523 H517 0.930 . S
C523 C519 1.400 . S
C523 C522 1.385 . S
C524 C522 1.478 . S
C524 C526 1.381 . S
C524 C530 1.383 . S
C525 C521 1.495 . S
C525 H531 0.959 . S
C525 H532 0.961 . S
C525 H533 0.960 . S
C526 C524 1.381 . S
C526 C527 1.394 . S
C526 H534 0.930 . S
C527 C526 1.394 . S
C527 C528 1.383 . S
C527 H535 0.929 . S
C528 C527 1.383 . S
C528 C529 1.377 . S
C529 H513 0.930 . S
C529 C528 1.377 . S
C529 C530 1.379 . S
C530 H514 0.931 . S
C530 C524 1.383 . S
C530 C529 1.379 . S
H531 C525 0.959 . S
H532 C525 0.961 . S
H533 C525 0.960 . S
H534 C526 0.930 . S
H535 C527 0.929 . S
H536 C544 0.929 . S
H537 C546 0.930 . S
H538 C548 0.930 . S
H539 C551 0.929 . S
H540 C554 0.930 . S
H541 C556 0.960 . S
H542 C556 0.960 . S
H543 C556 0.960 . S
C544 H536 0.929 . S
C544 C545 1.377 . S
C544 C546 1.384 . S
C545 C544 1.377 . S
C545 C551 1.390 . S
C546 H537 0.930 . S
C546 C544 1.384 . S
C546 C547 1.372 . S
C547 C546 1.372 . S
C547 C548 1.400 . S
C547 C552 1.490 . S
C548 H538 0.930 . S
C548 C547 1.400 . S
C548 C551 1.386 . S
H549 C565 0.930 . S
H550 C566 0.931 . S
C551 H539 0.929 . S
C551 C545 1.390 . S
C551 C548 1.386 . S
C552 C547 1.490 . S
C552 C554 1.395 . S
C552 C555 1.403 . S
H553 C559 0.930 . S
C554 H540 0.930 . S
C554 C552 1.395 . S
C554 C557 1.403 . S
C555 C552 1.403 . S
C555 C556 1.524 . S
C555 C559 1.400 . S
C556 H541 0.960 . S
C556 H542 0.960 . S
C556 H543 0.960 . S
C556 C555 1.524 . S
C557 C554 1.403 . S
C557 C558 1.392 . S
C557 C561 1.495 . S
C558 C557 1.392 . S
C558 C559 1.385 . S
C558 C560 1.478 . S
C559 H553 0.930 . S
C559 C555 1.400 . S
C559 C558 1.385 . S
C560 C558 1.478 . S
C560 C562 1.381 . S
C560 C566 1.383 . S
C561 C557 1.495 . S
C561 H567 0.959 . S
C561 H568 0.961 . S
C561 H569 0.960 . S
C562 C560 1.381 . S
C562 C563 1.394 . S
C562 H570 0.930 . S
C563 C562 1.394 . S
C563 C564 1.383 . S
C563 H571 0.929 . S
C564 C563 1.383 . S
C564 C565 1.377 . S
C565 H549 0.930 . S
C565 C564 1.377 . S
C565 C566 1.379 . S
C566 H550 0.931 . S
C566 C560 1.383 . S
C566 C565 1.379 . S
H567 C561 0.959 . S
H568 C561 0.961 . S
H569 C561 0.960 . S
H570 C562 0.930 . S
H571 C563 0.929 . S
H572 C580 0.929 . S
H573 C582 0.930 . S
H574 C584 0.930 . S
H575 C587 0.929 . S
H576 C590 0.930 . S
H577 C592 0.960 . S
H578 C592 0.960 . S
H579 C592 0.960 . S
C580 H572 0.929 . S
C580 C581 1.377 . S
C580 C582 1.384 . S
C581 C580 1.377 . S
C581 C587 1.390 . S
C582 H573 0.930 . S
C582 C580 1.384 . S
C582 C583 1.372 . S
C583 C582 1.372 . S
C583 C584 1.400 . S
C583 C588 1.490 . S
C584 H574 0.930 . S
C584 C583 1.400 . S
C584 C587 1.386 . S
H585 C601 0.930 . S
H586 C602 0.931 . S
C587 H575 0.929 . S
C587 C581 1.390 . S
C587 C584 1.386 . S
C588 C583 1.490 . S
C588 C590 1.395 . S
C588 C591 1.403 . S
H589 C595 0.930 . S
C590 H576 0.930 . S
C590 C588 1.395 . S
C590 C593 1.403 . S
C591 C588 1.403 . S
C591 C592 1.524 . S
C591 C595 1.400 . S
C592 H577 0.960 . S
C592 H578 0.960 . S
C592 H579 0.960 . S
C592 C591 1.524 . S
C593 C590 1.403 . S
C593 C594 1.392 . S
C593 C597 1.495 . S
C594 C593 1.392 . S
C594 C595 1.385 . S
C594 C596 1.478 . S
C595 H589 0.930 . S
C595 C591 1.400 . S
C595 C594 1.385 . S
C596 C594 1.478 . S
C596 C598 1.381 . S
C596 C602 1.383 . S
C597 C593 1.495 . S
C597 H603 0.959 . S
C597 H604 0.961 . S
C597 H605 0.960 . S
C598 C596 1.381 . S
C598 C599 1.394 . S
C598 H606 0.930 . S
C599 C598 1.394 . S
C599 C600 1.383 . S
C599 H607 0.929 . S
C600 C599 1.383 . S
C600 C601 1.377 . S
C601 H585 0.930 . S
C601 C600 1.377 . S
C601 C602 1.379 . S
C602 H586 0.931 . S
C602 C596 1.383 . S
C602 C601 1.379 . S
H603 C597 0.959 . S
H604 C597 0.961 . S
H605 C597 0.960 . S
H606 C598 0.930 . S
H607 C599 0.929 . S
H608 C616 0.929 . S
H609 C618 0.930 . S
H610 C620 0.930 . S
H611 C623 0.929 . S
H612 C626 0.930 . S
H613 C628 0.960 . S
H614 C628 0.960 . S
H615 C628 0.960 . S
C616 H608 0.929 . S
C616 C617 1.377 . S
C616 C618 1.384 . S
C617 C616 1.377 . S
C617 C623 1.390 . S
C618 H609 0.930 . S
C618 C616 1.384 . S
C618 C619 1.372 . S
C619 C618 1.372 . S
C619 C620 1.400 . S
C619 C624 1.490 . S
C620 H610 0.930 . S
C620 C619 1.400 . S
C620 C623 1.386 . S
H621 C637 0.930 . S
H622 C638 0.931 . S
C623 H611 0.929 . S
C623 C617 1.390 . S
C623 C620 1.386 . S
C624 C619 1.490 . S
C624 C626 1.395 . S
C624 C627 1.403 . S
H625 C631 0.930 . S
C626 H612 0.930 . S
C626 C624 1.395 . S
C626 C629 1.403 . S
C627 C624 1.403 . S
C627 C628 1.524 . S
C627 C631 1.400 . S
C628 H613 0.960 . S
C628 H614 0.960 . S
C628 H615 0.960 . S
C628 C627 1.524 . S
C629 C626 1.403 . S
C629 C630 1.392 . S
C629 C633 1.495 . S
C630 C629 1.392 . S
C630 C631 1.385 . S
C630 C632 1.478 . S
C631 H625 0.930 . S
C631 C627 1.400 . S
C631 C630 1.385 . S
C632 C630 1.478 . S
C632 C634 1.381 . S
C632 C638 1.383 . S
C633 C629 1.495 . S
C633 H639 0.959 . S
C633 H640 0.961 . S
C633 H641 0.960 . S
C634 C632 1.381 . S
C634 C635 1.394 . S
C634 H642 0.930 . S
C635 C634 1.394 . S
C635 C636 1.383 . S
C635 H643 0.929 . S
C636 C635 1.383 . S
C636 C637 1.377 . S
C637 H621 0.930 . S
C637 C636 1.377 . S
C637 C638 1.379 . S
C638 H622 0.931 . S
C638 C632 1.383 . S
C638 C637 1.379 . S
H639 C633 0.959 . S
H640 C633 0.961 . S
H641 C633 0.960 . S
H642 C634 0.930 . S
H643 C635 0.929 . S
H644 C652 0.929 . S
H645 C654 0.930 . S
H646 C656 0.930 . S
H647 C659 0.929 . S
H648 C662 0.930 . S
H649 C664 0.960 . S
H650 C664 0.960 . S
H651 C664 0.960 . S
C652 H644 0.929 . S
C652 C653 1.377 . S
C652 C654 1.384 . S
C653 C652 1.377 . S
C653 C659 1.390 . S
C654 H645 0.930 . S
C654 C652 1.384 . S
C654 C655 1.372 . S
C655 C654 1.372 . S
C655 C656 1.400 . S
C655 C660 1.490 . S
C656 H646 0.930 . S
C656 C655 1.400 . S
C656 C659 1.386 . S
H657 C673 0.930 . S
H658 C674 0.931 . S
C659 H647 0.929 . S
C659 C653 1.390 . S
C659 C656 1.386 . S
C660 C655 1.490 . S
C660 C662 1.395 . S
C660 C663 1.403 . S
H661 C667 0.930 . S
C662 H648 0.930 . S
C662 C660 1.395 . S
C662 C665 1.403 . S
C663 C660 1.403 . S
C663 C664 1.524 . S
C663 C667 1.400 . S
C664 H649 0.960 . S
C664 H650 0.960 . S
C664 H651 0.960 . S
C664 C663 1.524 . S
C665 C662 1.403 . S
C665 C666 1.392 . S
C665 C669 1.495 . S
C666 C665 1.392 . S
C666 C667 1.385 . S
C666 C668 1.478 . S
C667 H661 0.930 . S
C667 C663 1.400 . S
C667 C666 1.385 . S
C668 C666 1.478 . S
C668 C670 1.381 . S
C668 C674 1.383 . S
C669 C665 1.495 . S
C669 H675 0.959 . S
C669 H676 0.961 . S
C669 H677 0.960 . S
C670 C668 1.381 . S
C670 C671 1.394 . S
C670 H678 0.930 . S
C671 C670 1.394 . S
C671 C672 1.383 . S
C671 H679 0.929 . S
C672 C671 1.383 . S
C672 C673 1.377 . S
C673 H657 0.930 . S
C673 C672 1.377 . S
C673 C674 1.379 . S
C674 H658 0.931 . S
C674 C668 1.383 . S
C674 C673 1.379 . S
H675 C669 0.959 . S
H676 C669 0.961 . S
H677 C669 0.960 . S
H678 C670 0.930 . S
H679 C671 0.929 . S
H680 C688 0.929 . S
H681 C690 0.930 . S
H682 C692 0.930 . S
H683 C695 0.929 . S
H684 C698 0.930 . S
H685 C700 0.960 . S
H686 C700 0.960 . S
H687 C700 0.960 . S
C688 H680 0.929 . S
C688 C689 1.377 . S
C688 C690 1.384 . S
C689 C688 1.377 . S
C689 C695 1.390 . S
C690 H681 0.930 . S
C690 C688 1.384 . S
C690 C691 1.372 . S
C691 C690 1.372 . S
C691 C692 1.400 . S
C691 C696 1.490 . S
C692 H682 0.930 . S
C692 C691 1.400 . S
C692 C695 1.386 . S
H693 C709 0.930 . S
H694 C710 0.931 . S
C695 H683 0.929 . S
C695 C689 1.390 . S
C695 C692 1.386 . S
C696 C691 1.490 . S
C696 C698 1.395 . S
C696 C699 1.403 . S
H697 C703 0.930 . S
C698 H684 0.930 . S
C698 C696 1.395 . S
C698 C701 1.403 . S
C699 C696 1.403 . S
C699 C700 1.524 . S
C699 C703 1.400 . S
C700 H685 0.960 . S
C700 H686 0.960 . S
C700 H687 0.960 . S
C700 C699 1.524 . S
C701 C698 1.403 . S
C701 C702 1.392 . S
C701 C705 1.495 . S
C702 C701 1.392 . S
C702 C703 1.385 . S
C702 C704 1.478 . S
C703 H697 0.930 . S
C703 C699 1.400 . S
C703 C702 1.385 . S
C704 C702 1.478 . S
C704 C706 1.381 . S
C704 C710 1.383 . S
C705 C701 1.495 . S
C705 H711 0.959 . S
C705 H712 0.961 . S
C705 H713 0.960 . S
C706 C704 1.381 . S
C706 C707 1.394 . S
C706 H714 0.930 . S
C707 C706 1.394 . S
C707 C708 1.383 . S
C707 H715 0.929 . S
C708 C707 1.383 . S
C708 C709 1.377 . S
C709 H693 0.930 . S
C709 C708 1.377 . S
C709 C710 1.379 . S
C710 H694 0.931 . S
C710 C704 1.383 . S
C710 C709 1.379 . S
H711 C705 0.959 . S
H712 C705 0.961 . S
H713 C705 0.960 . S
H714 C706 0.930 . S
H715 C707 0.929 . S
H716 C724 0.929 . S
H717 C726 0.930 . S
H718 C728 0.930 . S
H719 C731 0.929 . S
H720 C734 0.930 . S
H721 C736 0.960 . S
H722 C736 0.960 . S
H723 C736 0.960 . S
C724 H716 0.929 . S
C724 C725 1.377 . S
C724 C726 1.384 . S
C725 C724 1.377 . S
C725 C731 1.390 . S
C726 H717 0.930 . S
C726 C724 1.384 . S
C726 C727 1.372 . S
C727 C726 1.372 . S
C727 C728 1.400 . S
C727 C732 1.490 . S
C728 H718 0.930 . S
C728 C727 1.400 . S
C728 C731 1.386 . S
H729 C745 0.930 . S
H730 C746 0.931 . S
C731 H719 0.929 . S
C731 C725 1.390 . S
C731 C728 1.386 . S
C732 C727 1.490 . S
C732 C734 1.395 . S
C732 C735 1.403 . S
H733 C739 0.930 . S
C734 H720 0.930 . S
C734 C732 1.395 . S
C734 C737 1.403 . S
C735 C732 1.403 . S
C735 C736 1.524 . S
C735 C739 1.400 . S
C736 H721 0.960 . S
C736 H722 0.960 . S
C736 H723 0.960 . S
C736 C735 1.524 . S
C737 C734 1.403 . S
C737 C738 1.392 . S
C737 C741 1.495 . S
C738 C737 1.392 . S
C738 C739 1.385 . S
C738 C740 1.478 . S
C739 H733 0.930 . S
C739 C735 1.400 . S
C739 C738 1.385 . S
C740 C738 1.478 . S
C740 C742 1.381 . S
C740 C746 1.383 . S
C741 C737 1.495 . S
C741 H747 0.959 . S
C741 H748 0.961 . S
C741 H749 0.960 . S
C742 C740 1.381 . S
C742 C743 1.394 . S
C742 H750 0.930 . S
C743 C742 1.394 . S
C743 C744 1.383 . S
C743 H751 0.929 . S
C744 C743 1.383 . S
C744 C745 1.377 . S
C745 H729 0.930 . S
C745 C744 1.377 . S
C745 C746 1.379 . S
C746 H730 0.931 . S
C746 C740 1.383 . S
C746 C745 1.379 . S
H747 C741 0.959 . S
H748 C741 0.961 . S
H749 C741 0.960 . S
H750 C742 0.930 . S
H751 C743 0.929 . S
H752 C760 0.929 1_556 S
H753 C762 0.930 1_556 S
H754 C764 0.930 . S
H755 C767 0.929 . S
H756 C770 0.930 . S
H757 C772 0.960 . S
H758 C772 0.960 . S
H759 C772 0.960 . S
C760 H752 0.929 1_554 S
C760 C761 1.377 . S
C760 C762 1.384 . S
C761 C760 1.377 . S
C761 C767 1.390 . S
C762 H753 0.930 1_554 S
C762 C760 1.384 . S
C762 C763 1.372 . S
C763 C762 1.372 . S
C763 C764 1.400 . S
C763 C768 1.490 . S
C764 H754 0.930 . S
C764 C763 1.400 . S
C764 C767 1.386 . S
H765 C781 0.930 . S
H766 C782 0.931 . S
C767 H755 0.929 . S
C767 C761 1.390 . S
C767 C764 1.386 . S
C768 C763 1.490 . S
C768 C770 1.395 . S
C768 C771 1.403 1_554 S
H769 C775 0.930 . S
C770 H756 0.930 . S
C770 C768 1.395 . S
C770 C773 1.403 . S
C771 C768 1.403 1_556 S
C771 C772 1.524 . S
C771 C775 1.400 . S
C772 H757 0.960 . S
C772 H758 0.960 . S
C772 H759 0.960 . S
C772 C771 1.524 . S
C773 C770 1.403 . S
C773 C774 1.392 . S
C773 C777 1.495 . S
C774 C773 1.392 . S
C774 C775 1.385 1_554 S
C774 C776 1.478 . S
C775 H769 0.930 . S
C775 C771 1.400 . S
C775 C774 1.385 1_556 S
C776 C774 1.478 . S
C776 C778 1.381 . S
C776 C782 1.383 . S
C777 C773 1.495 . S
C777 H783 0.959 . S
C777 H784 0.961 . S
C777 H785 0.960 . S
C778 C776 1.381 . S
C778 C779 1.394 . S
C778 H786 0.930 . S
C779 C778 1.394 . S
C779 C780 1.383 . S
C779 H787 0.929 1_554 S
C780 C779 1.383 . S
C780 C781 1.377 . S
C781 H765 0.930 . S
C781 C780 1.377 . S
C781 C782 1.379 . S
C782 H766 0.931 . S
C782 C776 1.383 . S
C782 C781 1.379 . S
H783 C777 0.959 . S
H784 C777 0.961 . S
H785 C777 0.960 . S
H786 C778 0.930 . S
H787 C779 0.929 1_556 S
H788 C796 0.929 . S
H789 C798 0.930 . S
H790 C800 0.930 . S
H791 C803 0.929 . S
H792 C806 0.930 . S
H793 C808 0.960 . S
H794 C808 0.960 . S
H795 C808 0.960 . S
C796 H788 0.929 . S
C796 C797 1.377 . S
C796 C798 1.384 . S
C797 C796 1.377 . S
C797 C803 1.390 . S
C798 H789 0.930 . S
C798 C796 1.384 . S
C798 C799 1.372 . S
C799 C798 1.372 . S
C799 C800 1.400 . S
C799 C804 1.490 . S
C800 H790 0.930 . S
C800 C799 1.400 . S
C800 C803 1.386 . S
H801 C817 0.930 . S
H802 C818 0.931 . S
C803 H791 0.929 . S
C803 C797 1.390 . S
C803 C800 1.386 . S
C804 C799 1.490 . S
C804 C806 1.395 . S
C804 C807 1.403 . S
H805 C811 0.930 . S
C806 H792 0.930 . S
C806 C804 1.395 . S
C806 C809 1.403 . S
C807 C804 1.403 . S
C807 C808 1.524 . S
C807 C811 1.400 . S
C808 H793 0.960 . S
C808 H794 0.960 . S
C808 H795 0.960 . S
C808 C807 1.524 . S
C809 C806 1.403 . S
C809 C810 1.392 . S
C809 C813 1.495 . S
C810 C809 1.392 . S
C810 C811 1.385 . S
C810 C812 1.478 . S
C811 H805 0.930 . S
C811 C807 1.400 . S
C811 C810 1.385 . S
C812 C810 1.478 . S
C812 C814 1.381 . S
C812 C818 1.383 . S
C813 C809 1.495 . S
C813 H819 0.959 . S
C813 H820 0.961 . S
C813 H821 0.960 . S
C814 C812 1.381 . S
C814 C815 1.394 . S
C814 H822 0.930 . S
C815 C814 1.394 . S
C815 C816 1.383 . S
C815 H823 0.929 . S
C816 C815 1.383 . S
C816 C817 1.377 . S
C817 H801 0.930 . S
C817 C816 1.377 . S
C817 C818 1.379 . S
C818 H802 0.931 . S
C818 C812 1.383 . S
C818 C817 1.379 . S
H819 C813 0.959 . S
H820 C813 0.961 . S
H821 C813 0.960 . S
H822 C814 0.930 . S
H823 C815 0.929 . S
H824 C832 0.929 . S
H825 C834 0.930 . S
H826 C836 0.930 . S
H827 C839 0.929 . S
H828 C842 0.930 . S
H829 C844 0.960 . S
H830 C844 0.960 . S
H831 C844 0.960 . S
C832 H824 0.929 . S
C832 C833 1.377 . S
C832 C834 1.384 . S
C833 C832 1.377 . S
C833 C839 1.390 1_554 S
C834 H825 0.930 . S
C834 C832 1.384 . S
C834 C835 1.372 . S
C835 C834 1.372 . S
C835 C836 1.400 1_554 S
C835 C840 1.490 . S
C836 H826 0.930 . S
C836 C835 1.400 1_556 S
C836 C839 1.386 . S
H837 C853 0.930 . S
H838 C854 0.931 . S
C839 H827 0.929 . S
C839 C833 1.390 1_556 S
C839 C836 1.386 . S
C840 C835 1.490 . S
C840 C842 1.395 1_554 S
C840 C843 1.403 . S
H841 C847 0.930 . S
C842 H828 0.930 . S
C842 C840 1.395 1_556 S
C842 C845 1.403 . S
C843 C840 1.403 . S
C843 C844 1.524 . S
C843 C847 1.400 . S
C844 H829 0.960 . S
C844 H830 0.960 . S
C844 H831 0.960 . S
C844 C843 1.524 . S
C845 C842 1.403 . S
C845 C846 1.392 1_556 S
C845 C849 1.495 . S
C846 C845 1.392 1_554 S
C846 C847 1.385 . S
C846 C848 1.478 . S
C847 H841 0.930 . S
C847 C843 1.400 . S
C847 C846 1.385 . S
C848 C846 1.478 . S
C848 C850 1.381 . S
C848 C854 1.383 1_554 S
C849 C845 1.495 . S
C849 H855 0.959 . S
C849 H856 0.961 . S
C849 H857 0.960 . S
C850 C848 1.381 . S
C850 C851 1.394 . S
C850 H858 0.930 . S
C851 C850 1.394 . S
C851 C852 1.383 . S
C851 H859 0.929 . S
C852 C851 1.383 . S
C852 C853 1.377 1_554 S
C853 H837 0.930 . S
C853 C852 1.377 1_556 S
C853 C854 1.379 . S
C854 H838 0.931 . S
C854 C848 1.383 1_556 S
C854 C853 1.379 . S
H855 C849 0.959 . S
H856 C849 0.961 . S
H857 C849 0.960 . S
H858 C850 0.930 . S
H859 C851 0.929 . S
H860 C868 0.929 . S
H861 C870 0.930 . S
H862 C872 0.930 . S
H863 C875 0.929 . S
H864 C878 0.930 . S
H865 C880 0.960 . S
H866 C880 0.960 . S
H867 C880 0.960 . S
C868 H860 0.929 . S
C868 C869 1.377 . S
C868 C870 1.384 . S
C869 C868 1.377 . S
C869 C875 1.390 . S
C870 H861 0.930 . S
C870 C868 1.384 . S
C870 C871 1.372 . S
C871 C870 1.372 . S
C871 C872 1.400 . S
C871 C876 1.490 . S
C872 H862 0.930 . S
C872 C871 1.400 . S
C872 C875 1.386 . S
H873 C889 0.930 . S
H874 C890 0.931 . S
C875 H863 0.929 . S
C875 C869 1.390 . S
C875 C872 1.386 . S
C876 C871 1.490 . S
C876 C878 1.395 . S
C876 C879 1.403 . S
H877 C883 0.930 . S
C878 H864 0.930 . S
C878 C876 1.395 . S
C878 C881 1.403 . S
C879 C876 1.403 . S
C879 C880 1.524 . S
C879 C883 1.400 . S
C880 H865 0.960 . S
C880 H866 0.960 . S
C880 H867 0.960 . S
C880 C879 1.524 . S
C881 C878 1.403 . S
C881 C882 1.392 . S
C881 C885 1.495 . S
C882 C881 1.392 . S
C882 C883 1.385 . S
C882 C884 1.478 . S
C883 H877 0.930 . S
C883 C879 1.400 . S
C883 C882 1.385 . S
C884 C882 1.478 . S
C884 C886 1.381 . S
C884 C890 1.383 . S
C885 C881 1.495 . S
C885 H891 0.959 . S
C885 H892 0.961 . S
C885 H893 0.960 . S
C886 C884 1.381 . S
C886 C887 1.394 . S
C886 H894 0.930 . S
C887 C886 1.394 . S
C887 C888 1.383 . S
C887 H895 0.929 . S
C888 C887 1.383 . S
C888 C889 1.377 . S
C889 H873 0.930 . S
C889 C888 1.377 . S
C889 C890 1.379 . S
C890 H874 0.931 . S
C890 C884 1.383 . S
C890 C889 1.379 . S
H891 C885 0.959 . S
H892 C885 0.961 . S
H893 C885 0.960 . S
H894 C886 0.930 . S
H895 C887 0.929 . S
H896 C904 0.929 . S
H897 C906 0.930 . S
H898 C908 0.930 . S
H899 C911 0.929 . S
H900 C914 0.930 . S
H901 C916 0.960 . S
H902 C916 0.960 . S
H903 C916 0.960 . S
C904 H896 0.929 . S
C904 C905 1.377 . S
C904 C906 1.384 . S
C905 C904 1.377 . S
C905 C911 1.390 . S
C906 H897 0.930 . S
C906 C904 1.384 . S
C906 C907 1.372 . S
C907 C906 1.372 . S
C907 C908 1.400 . S
C907 C912 1.490 . S
C908 H898 0.930 . S
C908 C907 1.400 . S
C908 C911 1.386 . S
H909 C925 0.930 . S
H910 C926 0.931 . S
C911 H899 0.929 . S
C911 C905 1.390 . S
C911 C908 1.386 . S
C912 C907 1.490 . S
C912 C914 1.395 . S
C912 C915 1.403 . S
H913 C919 0.930 . S
C914 H900 0.930 . S
C914 C912 1.395 . S
C914 C917 1.403 . S
C915 C912 1.403 . S
C915 C916 1.524 . S
C915 C919 1.400 . S
C916 H901 0.960 . S
C916 H902 0.960 . S
C916 H903 0.960 . S
C916 C915 1.524 . S
C917 C914 1.403 . S
C917 C918 1.392 . S
C917 C921 1.495 . S
C918 C917 1.392 . S
C918 C919 1.385 . S
C918 C920 1.478 . S
C919 H913 0.930 . S
C919 C915 1.400 . S
C919 C918 1.385 . S
C920 C918 1.478 . S
C920 C922 1.381 . S
C920 C926 1.383 . S
C921 C917 1.495 . S
C921 H927 0.959 . S
C921 H928 0.961 . S
C921 H929 0.960 . S
C922 C920 1.381 . S
C922 C923 1.394 . S
C922 H930 0.930 . S
C923 C922 1.394 . S
C923 C924 1.383 . S
C923 H931 0.929 . S
C924 C923 1.383 . S
C924 C925 1.377 . S
C925 H909 0.930 . S
C925 C924 1.377 . S
C925 C926 1.379 . S
C926 H910 0.931 . S
C926 C920 1.383 . S
C926 C925 1.379 . S
H927 C921 0.959 . S
H928 C921 0.961 . S
H929 C921 0.960 . S
H930 C922 0.930 . S
H931 C923 0.929 . S
H932 C940 0.929 . S
H933 C942 0.930 . S
H934 C944 0.930 . S
H935 C947 0.929 . S
H936 C950 0.930 . S
H937 C952 0.960 1_556 S
H938 C952 0.963 . S
H939 C952 0.958 1_556 S
C940 H932 0.929 . S
C940 C941 1.377 . S
C940 C942 1.384 . S
C941 C940 1.377 . S
C941 C947 1.390 1_554 S
C942 H933 0.930 . S
C942 C940 1.384 . S
C942 C943 1.372 . S
C943 C942 1.372 . S
C943 C944 1.400 1_554 S
C943 C948 1.490 . S
C944 H934 0.930 . S
C944 C943 1.400 1_556 S
C944 C947 1.386 . S
H945 C961 0.930 . S
H946 C962 0.931 . S
C947 H935 0.929 . S
C947 C941 1.390 1_556 S
C947 C944 1.386 . S
C948 C943 1.490 . S
C948 C950 1.395 . S
C948 C951 1.403 . S
H949 C955 0.931 . S
C950 H936 0.930 . S
C950 C948 1.395 . S
C950 C953 1.403 . S
C951 C948 1.403 . S
C951 C952 1.524 . S
C951 C955 1.400 . S
C952 H937 0.960 1_554 S
C952 H938 0.963 . S
C952 H939 0.958 1_554 S
C952 C951 1.524 . S
C953 C950 1.403 . S
C953 C954 1.392 . S
C953 C957 1.495 . S
C954 C953 1.392 . S
C954 C955 1.385 . S
C954 C956 1.478 . S
C955 H949 0.931 . S
C955 C951 1.400 . S
C955 C954 1.385 . S
C956 C954 1.478 . S
C956 C958 1.381 . S
C956 C962 1.383 1_554 S
C957 C953 1.495 . S
C957 H963 0.959 . S
C957 H964 0.961 1_554 S
C957 H965 0.960 . S
C958 C956 1.381 . S
C958 C959 1.394 . S
C958 H966 0.930 . S
C959 C958 1.394 . S
C959 C960 1.383 . S
C959 H967 0.929 . S
C960 C959 1.383 . S
C960 C961 1.377 1_554 S
C961 H945 0.930 . S
C961 C960 1.377 1_556 S
C961 C962 1.379 . S
C962 H946 0.931 . S
C962 C956 1.383 1_556 S
C962 C961 1.379 . S
H963 C957 0.959 . S
H964 C957 0.961 1_556 S
H965 C957 0.960 . S
H966 C958 0.930 . S
H967 C959 0.929 . S
H968 C976 0.929 . S
H969 C978 0.930 . S
H970 C980 0.930 . S
H971 C983 0.929 . S
H972 C986 0.930 . S
H973 C988 0.960 . S
H974 C988 0.960 . S
H975 C988 0.960 . S
C976 H968 0.929 . S
C976 C977 1.377 . S
C976 C978 1.384 . S
C977 C976 1.377 . S
C977 C983 1.390 . S
C978 H969 0.930 . S
C978 C976 1.384 . S
C978 C979 1.372 . S
C979 C978 1.372 . S
C979 C980 1.400 . S
C979 C984 1.490 . S
C980 H970 0.930 . S
C980 C979 1.400 . S
C980 C983 1.386 . S
H981 C997 0.930 . S
H982 C998 0.931 . S
C983 H971 0.929 . S
C983 C977 1.390 . S
C983 C980 1.386 . S
C984 C979 1.490 . S
C984 C986 1.395 . S
C984 C987 1.403 . S
H985 C991 0.930 . S
C986 H972 0.930 . S
C986 C984 1.395 . S
C986 C989 1.403 . S
C987 C984 1.403 . S
C987 C988 1.524 . S
C987 C991 1.400 . S
C988 H973 0.960 . S
C988 H974 0.960 . S
C988 H975 0.960 . S
C988 C987 1.524 . S
C989 C986 1.403 . S
C989 C990 1.392 . S
C989 C993 1.495 . S
C990 C989 1.392 . S
C990 C991 1.385 . S
C990 C992 1.478 . S
C991 H985 0.930 . S
C991 C987 1.400 . S
C991 C990 1.385 . S
C992 C990 1.478 . S
C992 C994 1.381 . S
C992 C998 1.383 . S
C993 C989 1.495 . S
C993 H999 0.959 . S
C993 H1000 0.961 . S
C993 H1001 0.960 . S
C994 C992 1.381 . S
C994 C995 1.394 . S
C994 H1002 0.930 . S
C995 C994 1.394 . S
C995 C996 1.383 . S
C995 H1003 0.929 . S
C996 C995 1.383 . S
C996 C997 1.377 . S
C997 H981 0.930 . S
C997 C996 1.377 . S
C997 C998 1.379 . S
C998 H982 0.931 . S
C998 C992 1.383 . S
C998 C997 1.379 . S
H999 C993 0.959 . S
H1000 C993 0.961 . S
H1001 C993 0.960 . S
H1002 C994 0.930 . S
H1003 C995 0.929 . S
H1004 C1012 0.929 . S
H1005 C1014 0.930 . S
H1006 C1016 0.930 . S
H1007 C1019 0.929 . S
H1008 C1022 0.930 . S
H1009 C1024 0.960 . S
H1010 C1024 0.960 . S
H1011 C1024 0.960 . S
C1012 H1004 0.929 . S
C1012 C1013 1.377 . S
C1012 C1014 1.384 . S
C1013 C1012 1.377 . S
C1013 C1019 1.390 1_554 S
C1014 H1005 0.930 . S
C1014 C1012 1.384 . S
C1014 C1015 1.372 . S
C1015 C1014 1.372 . S
C1015 C1016 1.400 1_554 S
C1015 C1020 1.490 . S
C1016 H1006 0.930 . S
C1016 C1015 1.400 1_556 S
C1016 C1019 1.386 . S
H1017 C1033 0.930 . S
H1018 C1034 0.931 . S
C1019 H1007 0.929 . S
C1019 C1013 1.390 1_556 S
C1019 C1016 1.386 . S
C1020 C1015 1.490 . S
C1020 C1022 1.395 . S
C1020 C1023 1.403 1_554 S
H1021 C1027 0.930 . S
C1022 H1008 0.930 . S
C1022 C1020 1.395 . S
C1022 C1025 1.403 . S
C1023 C1020 1.403 1_556 S
C1023 C1024 1.524 . S
C1023 C1027 1.400 . S
C1024 H1009 0.960 . S
C1024 H1010 0.960 . S
C1024 H1011 0.960 . S
C1024 C1023 1.524 . S
C1025 C1022 1.403 . S
C1025 C1026 1.392 . S
C1025 C1029 1.495 . S
C1026 C1025 1.392 . S
C1026 C1027 1.385 1_554 S
C1026 C1028 1.478 . S
C1027 H1021 0.930 . S
C1027 C1023 1.400 . S
C1027 C1026 1.385 1_556 S
C1028 C1026 1.478 . S
C1028 C1030 1.381 . S
C1028 C1034 1.383 1_554 S
C1029 C1025 1.495 . S
C1029 H1035 0.959 . S
C1029 H1036 0.961 . S
C1029 H1037 0.960 . S
C1030 C1028 1.381 . S
C1030 C1031 1.394 . S
C1030 H1038 0.930 . S
C1031 C1030 1.394 . S
C1031 C1032 1.383 . S
C1031 H1039 0.929 . S
C1032 C1031 1.383 . S
C1032 C1033 1.377 1_554 S
C1033 H1017 0.930 . S
C1033 C1032 1.377 1_556 S
C1033 C1034 1.379 . S
C1034 H1018 0.931 . S
C1034 C1028 1.383 1_556 S
C1034 C1033 1.379 . S
H1035 C1029 0.959 . S
H1036 C1029 0.961 . S
H1037 C1029 0.960 . S
H1038 C1030 0.930 . S
H1039 C1031 0.929 . S
C185 C21 1.482 . S
C204 C125 1.480 . S
C221 C40 1.490 . S
C240 C92 1.469 . S
C276 C104 1.455 . S
C257 C54 1.463 . S
C293 C73 1.529 . S
C312 C115 1.517 . S
C348 C148 1.411 . S
C329 C74 1.452 . S
C384 C159 1.455 . S
C365 C10 1.509 . S
C420 C169 1.483 . S
C401 C37 1.493 . S
C456 C136 1.514 . S
C437 C65 1.506 . S
C473 C52 1.433 . S
C492 C103 1.415 . S
C509 C87 1.515 . S
C528 C114 1.503 . S
C545 C15 1.513 . S
C564 C126 1.514 . S
C600 C93 1.474 . S
C581 C32 1.494 . S
C617 C29 1.507 . S
C636 C170 1.470 . S
C672 C137 1.505 . S
C653 C59 1.535 . S
C708 C147 1.443 . S
C689 C84 1.439 . S
C725 C8 1.476 . S
C744 C158 1.471 . S
C780 C98 1.535 . S
C761 C7 1.542 . S
C816 C109 1.489 . S
C797 C30 1.487 . S
C833 C62 1.544 . S
C852 C120 1.527 . S
C869 C81 1.508 . S
C888 C131 1.516 . S
C924 C142 1.541 . S
C905 C76 1.544 . S
C941 C18 1.485 . S
C960 C153 1.474 . S
C977 C43 1.538 . S
C996 C164 1.542 . S
C1013 C51 1.505 . S
C1032 C175 1.514 . S
