# Generated by pormake.
# Topology nom, (4,4)-cn, num edge types: 1
# Building blocks:
#     Node 0, Type 0, BuildingBlock: NAHDIM_clean_linker_0, # of connection points: 4
#     Node 1, Type 0, BuildingBlock: NAHDIM_clean_linker_0, # of connection points: 4
#     Node 2, Type 0, BuildingBlock: NAHDIM_clean_linker_0, # of connection points: 4
#     Node 3, Type 0, BuildingBlock: NAHDIM_clean_linker_0, # of connection points: 4
#     Node 4, Type 0, BuildingBlock: NAHDIM_clean_linker_0, # of connection points: 4
#     Node 5, Type 0, BuildingBlock: NAHDIM_clean_linker_0, # of connection points: 4
#     Node 6, Type 1, BuildingBlock: CEKHIL_clean_sbu_0, # of connection points: 4
#     Node 7, Type 1, BuildingBlock: CEKHIL_clean_sbu_0, # of connection points: 4
#     Node 8, Type 1, BuildingBlock: CEKHIL_clean_sbu_0, # of connection points: 4
#     Node 9, Type 1, BuildingBlock: CEKHIL_clean_sbu_0, # of connection points: 4
#     Node 10, Type 1, BuildingBlock: CEKHIL_clean_sbu_0, # of connection points: 4
#     Node 11, Type 1, BuildingBlock: CEKHIL_clean_sbu_0, # of connection points: 4
#     Edge 12, Type (0, 1), BuildingBlock: MIFKUJ_clean_linker_0, # of connection points: 2
#     Edge 13, Type (0, 1), BuildingBlock: MIFKUJ_clean_linker_0, # of connection points: 2
#     Edge 14, Type (0, 1), BuildingBlock: MIFKUJ_clean_linker_0, # of connection points: 2
#     Edge 15, Type (0, 1), BuildingBlock: MIFKUJ_clean_linker_0, # of connection points: 2
#     Edge 16, Type (0, 1), BuildingBlock: MIFKUJ_clean_linker_0, # of connection points: 2
#     Edge 17, Type (0, 1), BuildingBlock: MIFKUJ_clean_linker_0, # of connection points: 2
#     Edge 18, Type (0, 1), BuildingBlock: MIFKUJ_clean_linker_0, # of connection points: 2
#     Edge 19, Type (0, 1), BuildingBlock: MIFKUJ_clean_linker_0, # of connection points: 2
#     Edge 20, Type (0, 1), BuildingBlock: MIFKUJ_clean_linker_0, # of connection points: 2
#     Edge 21, Type (0, 1), BuildingBlock: MIFKUJ_clean_linker_0, # of connection points: 2
#     Edge 22, Type (0, 1), BuildingBlock: MIFKUJ_clean_linker_0, # of connection points: 2
#     Edge 23, Type (0, 1), BuildingBlock: MIFKUJ_clean_linker_0, # of connection points: 2
#     Edge 24, Type (0, 1), BuildingBlock: MIFKUJ_clean_linker_0, # of connection points: 2
#     Edge 25, Type (0, 1), BuildingBlock: MIFKUJ_clean_linker_0, # of connection points: 2
#     Edge 26, Type (0, 1), BuildingBlock: MIFKUJ_clean_linker_0, # of connection points: 2
#     Edge 27, Type (0, 1), BuildingBlock: MIFKUJ_clean_linker_0, # of connection points: 2
#     Edge 28, Type (0, 1), BuildingBlock: MIFKUJ_clean_linker_0, # of connection points: 2
#     Edge 29, Type (0, 1), BuildingBlock: MIFKUJ_clean_linker_0, # of connection points: 2
#     Edge 30, Type (0, 1), BuildingBlock: MIFKUJ_clean_linker_0, # of connection points: 2
#     Edge 31, Type (0, 1), BuildingBlock: MIFKUJ_clean_linker_0, # of connection points: 2
#     Edge 32, Type (0, 1), BuildingBlock: MIFKUJ_clean_linker_0, # of connection points: 2
#     Edge 33, Type (0, 1), BuildingBlock: MIFKUJ_clean_linker_0, # of connection points: 2
#     Edge 34, Type (0, 1), BuildingBlock: MIFKUJ_clean_linker_0, # of connection points: 2
#     Edge 35, Type (0, 1), BuildingBlock: MIFKUJ_clean_linker_0, # of connection points: 2
# Relax obj value: 0.043
# Max RMSD: 0.127
# Mean RMSD: 0.097
data_MOF--net-nom--node1-CEKHIL_clean_sbu_0--node2-NAHDIM_clean_linker_0--edge1-MIFKUJ_clean_linker_0
_symmetry_space_group_name_H-M    P1
_symmetry_Int_Tables_number       1
_symmetry_cell_setting            triclinic
loop_
_symmetry_equiv_pos_as_xyz
'x, y, z'
_cell_length_a     71.043657
_cell_length_b     70.237376
_cell_length_c     85.421254
_cell_angle_alpha  90.127419
_cell_angle_beta   90.102312
_cell_angle_gamma 121.12336
loop_
_atom_site_label
_atom_site_type_symbol
_atom_site_fract_x
_atom_site_fract_y
_atom_site_fract_z
_atom_type_partial_charge
C0 C 0.13808 0.57845 0.26153 0.0
C1 C 0.14542 0.58695 0.27832 0.0
C2 C 0.11038 0.57997 0.28934 0.0
C3 C 0.10002 0.55668 0.29021 0.0
C4 C 0.07767 0.54356 0.29409 0.0
C5 C 0.0655 0.55391 0.29721 0.0
C6 C 0.07601 0.57736 0.2968 0.0
C7 C 0.09837 0.59007 0.29293 0.0
C8 C 0.06695 0.51859 0.29464 0.0
C9 C 0.06352 0.58892 0.30018 0.0
C10 C 0.97847 0.51784 0.21242 0.0
C11 C 0.95608 0.50729 0.22057 0.0
C12 C 0.96656 0.50089 0.24667 0.0
C13 C 0.97557 0.52262 0.25256 0.0
C14 C 0.9874 0.529 0.2667 0.0
C15 C 0.99069 0.5135 0.27497 0.0
C16 C 0.9816 0.4916 0.26908 0.0
C17 C 0.96929 0.48551 0.25515 0.0
C18 C 0.99662 0.55242 0.2727 0.0
C19 C 0.98522 0.47474 0.27729 0.0
C20 C 0.89914 0.45721 0.35501 0.0
C21 C 0.90945 0.48032 0.3534 0.0
C22 C 0.93244 0.49366 0.35272 0.0
C23 C 0.94524 0.48352 0.35334 0.0
C24 C 0.93484 0.46028 0.35568 0.0
C25 C 0.91184 0.44745 0.35674 0.0
C26 C 0.94301 0.51849 0.35093 0.0
C27 C 0.94793 0.4489 0.35657 0.0
C28 C 0.09745 0.53623 0.40105 0.0
C29 C 0.08044 0.52912 0.41421 0.0
C30 C 0.05093 0.5304 0.39993 0.0
C31 C 0.04223 0.54386 0.3968 0.0
C32 C 0.02721 0.53883 0.38451 0.0
C33 C 0.02059 0.51967 0.37524 0.0
C34 C 0.02855 0.5054 0.37876 0.0
C35 C 0.04367 0.51091 0.39104 0.0
C36 C 0.01889 0.55428 0.38112 0.0
C37 C 0.02145 0.48457 0.3693 0.0
C38 C 0.04155 0.54021 0.30028 0.0
C39 C 0.02736 0.53317 0.2874 0.0
C40 C 0.00457 0.52055 0.28932 0.0
C41 C 0.99557 0.51483 0.30454 0.0
C42 C 0.97273 0.50254 0.30695 0.0
C43 C 0.96408 0.49656 0.32196 0.0
C44 C 0.97793 0.50295 0.33518 0.0
C45 C 0.96928 0.49693 0.3505 0.0
C46 C 0.98354 0.50303 0.36333 0.0
C47 C 0.00633 0.51513 0.3613 0.0
C48 C 0.01528 0.52182 0.34613 0.0
C49 C 0.03814 0.53449 0.34373 0.0
C50 C 0.0468 0.54066 0.32875 0.0
C51 C 0.03293 0.53427 0.31557 0.0
C52 C 0.00984 0.52157 0.3177 0.0
C53 C 0.001 0.51553 0.33302 0.0
C54 C 0.85244 0.42356 0.33403 0.0
C55 C 0.86332 0.44505 0.34367 0.0
O56 O 0.13168 0.59333 0.28491 0.0
O57 O 0.06643 0.53702 0.41139 0.0
O58 O 0.87695 0.44395 0.3548 0.0
O59 O 0.95532 0.49407 0.23289 0.0
H60 H 0.14514 0.57364 0.28553 0.0
H61 H 0.12136 0.56341 0.26141 0.0
H62 H 0.13783 0.59142 0.25424 0.0
H63 H 0.14947 0.57392 0.25615 0.0
H64 H 0.10912 0.54856 0.28776 0.0
H65 H 0.10653 0.60804 0.29236 0.0
H66 H 0.05381 0.51088 0.2856 0.0
H67 H 0.07887 0.51309 0.29258 0.0
H68 H 0.05907 0.51233 0.30621 0.0
H69 H 0.07417 0.60732 0.29957 0.0
H70 H 0.04985 0.58337 0.29163 0.0
H71 H 0.05612 0.58429 0.31202 0.0
H72 H 0.95337 0.52058 0.22501 0.0
H73 H 0.97918 0.52837 0.20248 0.0
H74 H 0.99187 0.5286 0.22073 0.0
H75 H 0.98142 0.50474 0.20795 0.0
H76 H 0.97346 0.53472 0.24626 0.0
H77 H 0.96224 0.46878 0.25055 0.0
H78 H 0.01477 0.56186 0.27135 0.0
H79 H 0.98989 0.56135 0.26627 0.0
H80 H 0.99297 0.55224 0.28536 0.0
H81 H 0.97943 0.45943 0.27018 0.0
H82 H 0.00296 0.48202 0.27998 0.0
H83 H 0.9762 0.47 0.28856 0.0
H84 H 0.87298 0.45901 0.33538 0.0
H85 H 0.89949 0.48787 0.3526 0.0
H86 H 0.90362 0.42959 0.35825 0.0
H87 H 0.94921 0.52329 0.33879 0.0
H88 H 0.93124 0.52409 0.35327 0.0
H89 H 0.95727 0.52737 0.359 0.0
H90 H 0.93723 0.43052 0.35732 0.0
H91 H 0.95862 0.4531 0.34612 0.0
H92 H 0.95877 0.45495 0.36704 0.0
H93 H 0.07071 0.51066 0.41499 0.0
H94 H 0.10896 0.53033 0.40352 0.0
H95 H 0.08928 0.52897 0.38968 0.0
H96 H 0.10703 0.55464 0.39992 0.0
H97 H 0.04773 0.55872 0.4038 0.0
H98 H 0.04987 0.50003 0.39346 0.0
H99 H 0.02366 0.56097 0.36907 0.0
H100 H 0.00066 0.54494 0.38168 0.0
H101 H 0.02548 0.56843 0.38951 0.0
H102 H 0.02758 0.47421 0.37436 0.0
H103 H 0.00323 0.47444 0.36859 0.0
H104 H 0.02779 0.48917 0.35717 0.0
H105 H 0.03416 0.53759 0.2757 0.0
H106 H 0.96128 0.49727 0.29724 0.0
H107 H 0.94636 0.48683 0.32303 0.0
H108 H 0.97681 0.49798 0.37501 0.0
H109 H 0.04963 0.53982 0.35343 0.0
H110 H 0.06451 0.55038 0.32761 0.0
H111 H 0.84164 0.42411 0.32484 0.0
H112 H 0.86526 0.42152 0.32821 0.0
H113 H 0.84245 0.40892 0.34166 0.0
C114 C 0.43575 0.88857 0.55553 0.0
C115 C 0.42672 0.88218 0.53878 0.0
C116 C 0.43587 0.9185 0.52807 0.0
C117 C 0.45865 0.92731 0.52675 0.0
C118 C 0.47279 0.94949 0.52232 0.0
C119 C 0.46402 0.96314 0.51914 0.0
C120 C 0.4411 0.95423 0.5201 0.0
C121 C 0.42731 0.93196 0.52451 0.0
C122 C 0.49718 0.95847 0.52126 0.0
C123 C 0.43125 0.96833 0.51665 0.0
C124 C 0.54218 0.08333 0.60819 0.0
C125 C 0.53446 0.06739 0.59486 0.0
C126 C 0.52631 0.0646 0.56719 0.0
C127 C 0.50998 0.06474 0.55815 0.0
C128 C 0.50207 0.05188 0.54443 0.0
C129 C 0.51127 0.03918 0.53949 0.0
C130 C 0.52856 0.03987 0.54822 0.0
C131 C 0.53585 0.05254 0.56202 0.0
C132 C 0.48362 0.05152 0.5354 0.0
C133 C 0.53914 0.02699 0.5431 0.0
C134 C 0.57781 0.12524 0.46175 0.0
C135 C 0.55529 0.11775 0.46198 0.0
C136 C 0.53955 0.09495 0.46126 0.0
C137 C 0.54658 0.07942 0.46067 0.0
C138 C 0.56925 0.08706 0.45925 0.0
C139 C 0.5846 0.10999 0.45958 0.0
C140 C 0.51548 0.08746 0.46205 0.0
C141 C 0.57732 0.07099 0.45832 0.0
C142 C 0.47727 0.91981 0.41736 0.0
C143 C 0.48613 0.93676 0.40397 0.0
C144 C 0.48833 0.96917 0.41704 0.0
C145 C 0.47732 0.98069 0.41922 0.0
C146 C 0.48396 0.99709 0.43087 0.0
C147 C 0.50222 0.0022 0.44048 0.0
C148 C 0.51402 0.99129 0.43793 0.0
C149 C 0.50695 0.97487 0.42627 0.0
C150 C 0.47109 0.00849 0.43326 0.0
C151 C 0.5338 0.9966 0.44781 0.0
C152 C 0.47899 0.98697 0.51544 0.0
C153 C 0.4872 0.00201 0.52793 0.0
C154 C 0.50239 0.02455 0.52551 0.0
C155 C 0.5095 0.03246 0.51016 0.0
C156 C 0.52506 0.05494 0.50734 0.0
C157 C 0.53201 0.06255 0.49221 0.0
C158 C 0.5237 0.04796 0.47929 0.0
C159 C 0.53065 0.05558 0.46384 0.0
C160 C 0.5229 0.04046 0.45135 0.0
C161 C 0.50818 0.01779 0.45389 0.0
C162 C 0.50038 0.01001 0.46917 0.0
C163 C 0.4851 0.9874 0.47206 0.0
C164 C 0.4779 0.97983 0.48718 0.0
C165 C 0.4858 0.99455 0.5 0.0
C166 C 0.50109 0.01741 0.49736 0.0
C167 C 0.50829 0.02515 0.48191 0.0
C168 C 0.6128 0.17294 0.48458 0.0
C169 C 0.59147 0.16054 0.47509 0.0
O170 O 0.42162 0.89736 0.5329 0.0
O171 O 0.48022 0.95258 0.40614 0.0
O172 O 0.59328 0.14691 0.46421 0.0
O173 O 0.53255 0.07618 0.58083 0.0
H174 H 0.43918 0.88173 0.53118 0.0
H175 H 0.45122 0.90503 0.55573 0.0
H176 H 0.42364 0.88943 0.56326 0.0
H177 H 0.4394 0.87612 0.56033 0.0
H178 H 0.46563 0.91714 0.52928 0.0
H179 H 0.40974 0.92502 0.52546 0.0
H180 H 0.50605 0.97219 0.52985 0.0
H181 H 0.50136 0.94553 0.5236 0.0
H182 H 0.50322 0.96545 0.50942 0.0
H183 H 0.41302 0.95872 0.51743 0.0
H184 H 0.43782 0.98243 0.52507 0.0
H185 H 0.43606 0.97549 0.50472 0.0
H186 H 0.5428 0.05768 0.59381 0.0
H187 H 0.51509 0.06978 0.62326 0.0
H188 H 0.55852 0.08564 0.6117 0.0
H189 H 0.5494 0.10033 0.60286 0.0
H190 H 0.50294 0.07437 0.56217 0.0
H191 H 0.54913 0.05312 0.56867 0.0
H192 H 0.48933 0.05807 0.52343 0.0
H193 H 0.46966 0.03413 0.53418 0.0
H194 H 0.47766 0.06162 0.54114 0.0
H195 H 0.55409 0.03142 0.55006 0.0
H196 H 0.52719 0.00893 0.54449 0.0
H197 H 0.54366 0.03007 0.53053 0.0
H198 H 0.57817 0.15035 0.48365 0.0
H199 H 0.55003 0.12967 0.46309 0.0
H200 H 0.60206 0.11606 0.45911 0.0
H201 H 0.50936 0.08161 0.47407 0.0
H202 H 0.51258 0.10116 0.45919 0.0
H203 H 0.50576 0.07336 0.45387 0.0
H204 H 0.59552 0.07964 0.45749 0.0
H205 H 0.57192 0.06017 0.46883 0.0
H206 H 0.57003 0.06007 0.44791 0.0
H207 H 0.50435 0.94508 0.40355 0.0
H208 H 0.4816 0.90688 0.41539 0.0
H209 H 0.48453 0.92806 0.42872 0.0
H210 H 0.4591 0.91162 0.41817 0.0
H211 H 0.4631 0.97636 0.41198 0.0
H212 H 0.51594 0.96644 0.42466 0.0
H213 H 0.46394 0.00489 0.4452 0.0
H214 H 0.48225 0.02678 0.43235 0.0
H215 H 0.45758 0.00303 0.42457 0.0
H216 H 0.5423 0.98805 0.44353 0.0
H217 H 0.54569 0.01481 0.44791 0.0
H218 H 0.52854 0.9914 0.46008 0.0
H219 H 0.48202 0.99599 0.53977 0.0
H220 H 0.53206 0.06693 0.5168 0.0
H221 H 0.54411 0.08003 0.49083 0.0
H222 H 0.52871 0.04634 0.43959 0.0
H223 H 0.47849 0.97529 0.46266 0.0
H224 H 0.46615 0.96227 0.4887 0.0
H225 H 0.62708 0.18309 0.47681 0.0
H226 H 0.61172 0.18402 0.49337 0.0
H227 H 0.61561 0.1608 0.49088 0.0
C228 C 0.56308 0.43686 0.72729 0.0
C229 C 0.55785 0.4266 0.71082 0.0
C230 C 0.5308 0.43572 0.7009 0.0
C231 C 0.54554 0.45869 0.69898 0.0
C232 C 0.53805 0.47265 0.69393 0.0
C233 C 0.51545 0.46347 0.69064 0.0
C234 C 0.50065 0.44035 0.69235 0.0
C235 C 0.50856 0.42681 0.69746 0.0
C236 C 0.55422 0.49725 0.69218 0.0
C237 C 0.47645 0.43001 0.68888 0.0
C238 C 0.48464 0.57813 0.74151 0.0
C239 C 0.48161 0.55819 0.75097 0.0
C240 C 0.47471 0.52976 0.73113 0.0
C241 C 0.45889 0.50909 0.72501 0.0
C242 C 0.46401 0.49904 0.71287 0.0
C243 C 0.48551 0.51012 0.70663 0.0
C244 C 0.50166 0.53102 0.71277 0.0
C245 C 0.49615 0.54061 0.72498 0.0
C246 C 0.44647 0.47666 0.70665 0.0
C247 C 0.52477 0.54325 0.70636 0.0
C248 C 0.44039 0.54097 0.61554 0.0
C249 C 0.43137 0.5181 0.61718 0.0
C250 C 0.4443 0.50938 0.62191 0.0
C251 C 0.46696 0.52397 0.62491 0.0
C252 C 0.47632 0.54717 0.62324 0.0
C253 C 0.46291 0.55549 0.61868 0.0
C254 C 0.43371 0.48454 0.62371 0.0
C255 C 0.50045 0.56313 0.62632 0.0
C256 C 0.56536 0.46413 0.58614 0.0
C257 C 0.55931 0.47494 0.57304 0.0
C258 C 0.52948 0.47722 0.58589 0.0
C259 C 0.50672 0.46565 0.58796 0.0
C260 C 0.49704 0.47181 0.59967 0.0
C261 C 0.51053 0.49045 0.60928 0.0
C262 C 0.53355 0.50283 0.60684 0.0
C263 C 0.54283 0.49592 0.59531 0.0
C264 C 0.47245 0.45823 0.60186 0.0
C265 C 0.54842 0.52326 0.6165 0.0
C266 C 0.5071 0.47802 0.68573 0.0
C267 C 0.50022 0.48702 0.69741 0.0
C268 C 0.49121 0.50001 0.69362 0.0
C269 C 0.48848 0.50379 0.67775 0.0
C270 C 0.47848 0.51586 0.67352 0.0
C271 C 0.47564 0.51924 0.65786 0.0
C272 C 0.48337 0.51132 0.64585 0.0
C273 C 0.48067 0.51474 0.6299 0.0
C274 C 0.4898 0.50792 0.61829 0.0
C275 C 0.50071 0.49674 0.62213 0.0
C276 C 0.50218 0.49175 0.63797 0.0
C277 C 0.51156 0.47908 0.64219 0.0
C278 C 0.51304 0.4744 0.65781 0.0
C279 C 0.50549 0.48248 0.66982 0.0
C280 C 0.49597 0.49527 0.66582 0.0
C281 C 0.49391 0.49952 0.64987 0.0
C282 C 0.44306 0.57915 0.59333 0.0
C283 C 0.43151 0.56968 0.609 0.0
O284 O 0.53706 0.42155 0.70616 0.0
O285 O 0.53773 0.46967 0.57475 0.0
O286 O 0.42673 0.54803 0.6108 0.0
O287 O 0.46849 0.53855 0.74281 0.0
H288 H 0.57032 0.43852 0.70243 0.0
H289 H 0.56313 0.45267 0.72744 0.0
H290 H 0.55063 0.42531 0.73582 0.0
H291 H 0.5796 0.44053 0.73109 0.0
H292 H 0.56285 0.46593 0.70149 0.0
H293 H 0.49733 0.40909 0.69892 0.0
H294 H 0.54954 0.50669 0.70009 0.0
H295 H 0.57134 0.50182 0.69495 0.0
H296 H 0.55366 0.50246 0.68001 0.0
H297 H 0.46714 0.4117 0.69059 0.0
H298 H 0.46941 0.43745 0.69664 0.0
H299 H 0.47416 0.43362 0.67661 0.0
H300 H 0.49801 0.5603 0.75327 0.0
H301 H 0.49482 0.59379 0.74822 0.0
H302 H 0.4931 0.57954 0.73029 0.0
H303 H 0.46848 0.5763 0.7388 0.0
H304 H 0.44241 0.50082 0.72981 0.0
H305 H 0.50868 0.55661 0.72951 0.0
H306 H 0.44347 0.47812 0.69407 0.0
H307 H 0.45217 0.46465 0.70753 0.0
H308 H 0.43071 0.46989 0.71308 0.0
H309 H 0.53535 0.5596 0.71217 0.0
H310 H 0.53238 0.533 0.70796 0.0
H311 H 0.52433 0.546 0.6936 0.0
H312 H 0.44232 0.58022 0.61875 0.0
H313 H 0.41401 0.50704 0.61476 0.0
H314 H 0.47021 0.57327 0.61753 0.0
H315 H 0.43638 0.4806 0.6358 0.0
H316 H 0.41575 0.47549 0.6213 0.0
H317 H 0.44151 0.47833 0.61557 0.0
H318 H 0.50541 0.58068 0.62405 0.0
H319 H 0.50435 0.56165 0.63869 0.0
H320 H 0.51042 0.55875 0.6188 0.0
H321 H 0.57057 0.49329 0.57343 0.0
H322 H 0.5826 0.46818 0.58479 0.0
H323 H 0.56396 0.47042 0.59775 0.0
H324 H 0.5542 0.44577 0.5859 0.0
H325 H 0.49654 0.45136 0.58056 0.0
H326 H 0.56046 0.50528 0.59377 0.0
H327 H 0.46839 0.45387 0.61439 0.0
H328 H 0.46518 0.46824 0.59825 0.0
H329 H 0.46467 0.44267 0.59481 0.0
H330 H 0.56521 0.53303 0.61148 0.0
H331 H 0.54141 0.53415 0.6174 0.0
H332 H 0.5498 0.51816 0.62852 0.0
H333 H 0.50192 0.48389 0.70961 0.0
H334 H 0.47247 0.52259 0.68227 0.0
H335 H 0.46758 0.5284 0.65529 0.0
H336 H 0.48809 0.51106 0.60609 0.0
H337 H 0.51772 0.47249 0.63345 0.0
H338 H 0.52036 0.46452 0.66036 0.0
H339 H 0.43262 0.56874 0.58342 0.0
H340 H 0.44658 0.5964 0.59182 0.0
H341 H 0.4589 0.57963 0.59286 0.0
C342 C 0.11819 0.50347 0.8861 0.0
C343 C 0.13069 0.52887 0.88432 0.0
C344 C 0.10611 0.53267 0.86686 0.0
C345 C 0.10303 0.55059 0.86906 0.0
C346 C 0.0827 0.5485 0.86558 0.0
C347 C 0.06514 0.52789 0.86001 0.0
C348 C 0.06837 0.50975 0.85778 0.0
C349 C 0.08905 0.51262 0.86083 0.0
C350 C 0.08002 0.56827 0.86783 0.0
C351 C 0.05 0.48722 0.85233 0.0
C352 C 0.98415 0.52777 0.94651 0.0
C353 C 0.9693 0.5057 0.93805 0.0
C354 C 0.97272 0.51015 0.9098 0.0
C355 C 0.97613 0.4929 0.90545 0.0
C356 C 0.98683 0.49396 0.89139 0.0
C357 C 0.99435 0.51272 0.88157 0.0
C358 C 0.99022 0.52976 0.88571 0.0
C359 C 0.97912 0.52806 0.8997 0.0
C360 C 0.99034 0.47515 0.88712 0.0
C361 C 0.99804 0.55005 0.87557 0.0
C362 C 0.90241 0.45442 0.79517 0.0
C363 C 0.91436 0.4441 0.7981 0.0
C364 C 0.93662 0.45648 0.80228 0.0
C365 C 0.94726 0.47991 0.80337 0.0
C366 C 0.93516 0.49051 0.80082 0.0
C367 C 0.91272 0.47761 0.79694 0.0
C368 C 0.94888 0.44453 0.80511 0.0
C369 C 0.94609 0.51546 0.80189 0.0
C370 C 0.03838 0.47927 0.72653 0.0
C371 C 0.05896 0.50018 0.73282 0.0
C372 C 0.04353 0.51284 0.75343 0.0
C373 C 0.03802 0.49539 0.76398 0.0
C374 C 0.02665 0.49355 0.77786 0.0
C375 C 0.02114 0.50977 0.78145 0.0
C376 C 0.02731 0.52774 0.77111 0.0
C377 C 0.03835 0.52896 0.7572 0.0
C378 C 0.02018 0.47403 0.78854 0.0
C379 C 0.02192 0.54546 0.77463 0.0
C380 C 0.04319 0.52487 0.8568 0.0
C381 C 0.02966 0.52195 0.86955 0.0
C382 C 0.00752 0.5151 0.86742 0.0
C383 C 0.99835 0.5102 0.85218 0.0
C384 C 0.97571 0.50112 0.84968 0.0
C385 C 0.96677 0.49554 0.83466 0.0
C386 C 0.98022 0.49934 0.82156 0.0
C387 C 0.97128 0.49316 0.80631 0.0
C388 C 0.98516 0.49744 0.79354 0.0
C389 C 0.00783 0.50725 0.79554 0.0
C390 C 0.01707 0.51311 0.81072 0.0
C391 C 0.03976 0.52257 0.81322 0.0
C392 C 0.04844 0.5268 0.8283 0.0
C393 C 0.03482 0.52213 0.84142 0.0
C394 C 0.01216 0.51404 0.83912 0.0
C395 C 0.00318 0.50908 0.82377 0.0
C396 C 0.87227 0.45842 0.76971 0.0
C397 C 0.86634 0.44733 0.78588 0.0
O398 O 0.12578 0.5349 0.87013 0.0
O399 O 0.05344 0.51469 0.73943 0.0
O400 O 0.88122 0.44124 0.79041 0.0
O401 O 0.9632 0.50987 0.92362 0.0
H402 H 0.12582 0.53607 0.89403 0.0
H403 H 0.10026 0.49679 0.88705 0.0
H404 H 0.12131 0.49566 0.87589 0.0
H405 H 0.12337 0.4987 0.89695 0.0
H406 H 0.11657 0.56616 0.8735 0.0
H407 H 0.09186 0.49905 0.85878 0.0
H408 H 0.06898 0.5652 0.87792 0.0
H409 H 0.09597 0.58382 0.87012 0.0
H410 H 0.07226 0.57066 0.85731 0.0
H411 H 0.05394 0.47402 0.8543 0.0
H412 H 0.03444 0.4825 0.8585 0.0
H413 H 0.0472 0.48783 0.83961 0.0
H414 H 0.97902 0.49746 0.9366 0.0
H415 H 0.98915 0.52476 0.95815 0.0
H416 H 0.99924 0.53816 0.93951 0.0
H417 H 0.97557 0.53711 0.94814 0.0
H418 H 0.97036 0.47859 0.91301 0.0
H419 H 0.97608 0.5411 0.90309 0.0
H420 H 0.00809 0.48094 0.88814 0.0
H421 H 0.98098 0.4605 0.89486 0.0
H422 H 0.9853 0.46993 0.87479 0.0
H423 H 0.99473 0.56245 0.88093 0.0
H424 H 0.01599 0.55809 0.87346 0.0
H425 H 0.98966 0.54501 0.86402 0.0
H426 H 0.86625 0.45902 0.79466 0.0
H427 H 0.90619 0.42619 0.79685 0.0
H428 H 0.90354 0.4858 0.7951 0.0
H429 H 0.95832 0.4503 0.81625 0.0
H430 H 0.93768 0.42619 0.80563 0.0
H431 H 0.96081 0.44843 0.7955 0.0
H432 H 0.93448 0.52124 0.79942 0.0
H433 H 0.95314 0.52118 0.81378 0.0
H434 H 0.95988 0.5234 0.79343 0.0
H435 H 0.0671 0.49531 0.74175 0.0
H436 H 0.04302 0.46805 0.72082 0.0
H437 H 0.0268 0.46993 0.73615 0.0
H438 H 0.02966 0.48379 0.71786 0.0
H439 H 0.04221 0.48295 0.76141 0.0
H440 H 0.04279 0.54245 0.74906 0.0
H441 H 0.02909 0.48005 0.79985 0.0
H442 H 0.00231 0.46536 0.7911 0.0
H443 H 0.02397 0.46184 0.78342 0.0
H444 H 0.02984 0.55954 0.76627 0.0
H445 H 0.00384 0.53809 0.77402 0.0
H446 H 0.02731 0.55197 0.7867 0.0
H447 H 0.03628 0.5244 0.88133 0.0
H448 H 0.96459 0.49779 0.85934 0.0
H449 H 0.94918 0.48822 0.83344 0.0
H450 H 0.9781 0.49234 0.7819 0.0
H451 H 0.05098 0.52635 0.80355 0.0
H452 H 0.06596 0.53367 0.82959 0.0
H453 H 0.87321 0.4473 0.76088 0.0
H454 H 0.85967 0.46233 0.76589 0.0
H455 H 0.88837 0.47422 0.77003 0.0
C456 C 0.50793 0.89683 0.91956 0.0
C457 C 0.49311 0.89054 0.93395 0.0
C458 C 0.5068 0.92221 0.9517 0.0
C459 C 0.48794 0.92349 0.95397 0.0
C460 C 0.48968 0.94327 0.95928 0.0
C461 C 0.51072 0.96207 0.96236 0.0
C462 C 0.52973 0.96067 0.9603 0.0
C463 C 0.52746 0.94058 0.95522 0.0
C464 C 0.46908 0.9441 0.96167 0.0
C465 C 0.55243 0.98041 0.96336 0.0
C466 C 0.52235 0.08683 0.88484 0.0
C467 C 0.51109 0.07117 0.89801 0.0
C468 C 0.52146 0.0618 0.92287 0.0
C469 C 0.53968 0.06626 0.9319 0.0
C470 C 0.53794 0.05187 0.94392 0.0
C471 C 0.51712 0.03303 0.94742 0.0
C472 C 0.49846 0.02865 0.93849 0.0
C473 C 0.50087 0.04295 0.92617 0.0
C474 C 0.55845 0.0568 0.95271 0.0
C475 C 0.47599 0.00887 0.94195 0.0
C476 C 0.53575 0.10832 0.03482 0.0
C477 C 0.55248 0.10701 0.02715 0.0
C478 C 0.55045 0.08634 0.02434 0.0
C479 C 0.53084 0.06656 0.02869 0.0
C480 C 0.51426 0.06795 0.03686 0.0
C481 C 0.51719 0.08892 0.0401 0.0
C482 C 0.56913 0.08573 0.01644 0.0
C483 C 0.49318 0.04734 0.04176 0.0
C484 C 0.53083 0.91828 0.06833 0.0
C485 C 0.5182 0.9296 0.07315 0.0
C486 C 0.53058 0.96728 0.06443 0.0
C487 C 0.54961 0.98525 0.05816 0.0
C488 C 0.54838 -5e-05 0.04769 0.0
C489 C 0.52759 0.99677 0.04372 0.0
C490 C 0.5084 0.9795 0.0509 0.0
C491 C 0.51008 0.96488 0.06118 0.0
C492 C 0.5692 0.01836 0.04041 0.0
C493 C 0.48606 0.97611 0.04732 0.0
C494 C 0.51283 0.98324 0.96762 0.0
C495 C 0.51305 0.99755 0.95618 0.0
C496 C 0.51505 0.01781 0.96025 0.0
C497 C 0.51656 0.02388 0.97621 0.0
C498 C 0.51746 0.04356 0.98079 0.0
C499 C 0.52034 0.05008 0.99642 0.0
C500 C 0.52266 0.03729 0.00806 0.0
C501 C 0.52713 0.04454 0.02384 0.0
C502 C 0.52863 0.03103 0.03518 0.0
C503 C 0.52578 0.01037 0.0312 0.0
C504 C 0.52178 0.00308 0.01542 0.0
C505 C 0.5192 0.98257 0.01095 0.0
C506 C 0.51584 0.97581 0.99536 0.0
C507 C 0.51524 0.98946 0.98359 0.0
C508 C 0.51729 0.00995 0.98787 0.0
C509 C 0.52048 0.01673 0.00381 0.0
C510 C 0.53131 0.15631 0.02804 0.0
C511 C 0.54519 0.14547 0.0268 0.0
O512 O 0.50556 0.90332 0.94657 0.0
O513 O 0.53252 0.95245 0.0734 0.0
O514 O 0.53709 0.12804 0.03736 0.0
O515 O 0.52451 0.07599 0.91105 0.0
H516 H 0.47972 0.89379 0.93115 0.0
H517 H 0.51519 0.91478 0.91696 0.0
H518 H 0.52149 0.89362 0.92166 0.0
H519 H 0.49829 0.88712 0.90916 0.0
H520 H 0.47185 0.90897 0.95185 0.0
H521 H 0.54187 0.93924 0.95362 0.0
H522 H 0.46906 0.95636 0.95351 0.0
H523 H 0.4539 0.92769 0.95965 0.0
H524 H 0.46876 0.94973 0.97377 0.0
H525 H 0.56558 0.97705 0.96013 0.0
H526 H 0.55483 0.99502 0.95664 0.0
H527 H 0.55419 0.98489 0.97597 0.0
H528 H 0.49439 0.06792 0.90088 0.0
H529 H 0.5243 0.06684 0.86741 0.0
H530 H 0.51301 0.09563 0.88317 0.0
H531 H 0.53734 0.10172 0.89001 0.0
H532 H 0.55549 0.08082 0.92921 0.0
H533 H 0.48663 0.03947 0.91929 0.0
H534 H 0.55843 0.06348 0.96448 0.0
H535 H 0.55899 0.0414 0.95432 0.0
H536 H 0.57364 0.06928 0.94657 0.0
H537 H 0.46276 0.0096 0.93554 0.0
H538 H 0.47551 0.99339 0.93846 0.0
H539 H 0.47256 0.00785 0.9547 0.0
H540 H 0.54329 0.13895 0.01462 0.0
H541 H 0.56717 0.1221 0.02344 0.0
H542 H 0.50456 0.09022 0.04623 0.0
H543 H 0.56538 0.08215 0.00379 0.0
H544 H 0.58486 0.10189 0.01756 0.0
H545 H 0.57135 0.07245 0.02147 0.0
H546 H 0.48103 0.05127 0.04655 0.0
H547 H 0.48563 0.03587 0.03163 0.0
H548 H 0.49681 0.03846 0.05088 0.0
H549 H 0.5052 0.92477 0.06407 0.0
H550 H 0.51972 0.89991 0.06833 0.0
H551 H 0.53745 0.92356 0.05632 0.0
H552 H 0.54483 0.92288 0.07641 0.0
H553 H 0.56538 0.98717 0.06099 0.0
H554 H 0.4954 0.95151 0.06657 0.0
H555 H 0.56843 0.01609 0.0275 0.0
H556 H 0.57075 0.03466 0.04282 0.0
H557 H 0.58412 0.01883 0.0449 0.0
H558 H 0.47304 0.96338 0.055 0.0
H559 H 0.48645 0.99204 0.04874 0.0
H560 H 0.48166 0.97072 0.03495 0.0
H561 H 0.51198 0.993 0.94392 0.0
H562 H 0.51612 0.05424 0.97231 0.0
H563 H 0.52101 0.06546 0.9992 0.0
H564 H 0.53215 0.03669 0.04725 0.0
H565 H 0.5199 0.97152 0.01944 0.0
H566 H 0.51404 0.9599 0.99262 0.0
H567 H 0.53284 0.16346 0.03993 0.0
H568 H 0.53659 0.16972 0.01922 0.0
H569 H 0.51374 0.14368 0.02582 0.0
C570 C 0.5794 0.45226 0.09722 0.0
C571 C 0.58641 0.45185 0.11416 0.0
C572 C 0.57684 0.47749 0.12646 0.0
C573 C 0.55392 0.46273 0.12668 0.0
C574 C 0.53964 0.47021 0.13066 0.0
C575 C 0.54839 0.49289 0.13441 0.0
C576 C 0.57144 0.50767 0.13457 0.0
C577 C 0.58536 0.49968 0.13075 0.0
C578 C 0.51515 0.45396 0.13055 0.0
C579 C 0.58137 0.53202 0.13837 0.0
C580 C 0.48327 0.57242 0.05614 0.0
C581 C 0.49497 0.56929 0.06938 0.0
C582 C 0.49499 0.54006 0.08471 0.0
C583 C 0.51185 0.55475 0.09495 0.0
C584 C 0.51785 0.54679 0.10788 0.0
C585 C 0.50631 0.52368 0.11097 0.0
C586 C 0.48949 0.50879 0.10063 0.0
C587 C 0.4842 0.5172 0.08753 0.0
C588 C 0.53641 0.5632 0.11832 0.0
C589 C 0.47689 0.48407 0.10359 0.0
C590 C 0.44931 0.56039 0.19066 0.0
C591 C 0.47098 0.57399 0.18545 0.0
C592 C 0.48508 0.5656 0.18415 0.0
C593 C 0.47707 0.54298 0.18776 0.0
C594 C 0.45534 0.52944 0.19338 0.0
C595 C 0.44187 0.53849 0.19502 0.0
C596 C 0.50845 0.58087 0.17882 0.0
C597 C 0.4462 0.50533 0.19745 0.0
C598 C 0.58049 0.55026 0.26569 0.0
C599 C 0.5746 0.52755 0.25895 0.0
C600 C 0.54469 0.51736 0.23991 0.0
C601 C 0.5571 0.53412 0.22893 0.0
C602 C 0.54747 0.53558 0.21497 0.0
C603 C 0.52521 0.51953 0.21168 0.0
C604 C 0.51286 0.50233 0.22253 0.0
C605 C 0.52272 0.50167 0.23659 0.0
C606 C 0.56105 0.55453 0.20387 0.0
C607 C 0.48916 0.48478 0.2194 0.0
C608 C 0.53337 0.50141 0.13704 0.0
C609 C 0.52542 0.5068 0.12384 0.0
C610 C 0.51164 0.51542 0.12528 0.0
C611 C 0.50519 0.51837 0.14029 0.0
C612 C 0.49058 0.52609 0.14213 0.0
C613 C 0.48551 0.53044 0.15692 0.0
C614 C 0.49511 0.52756 0.17042 0.0
C615 C 0.49124 0.53336 0.18543 0.0
C616 C 0.50114 0.53035 0.19857 0.0
C617 C 0.51459 0.52131 0.19722 0.0
C618 C 0.51837 0.51507 0.18233 0.0
C619 C 0.53136 0.50542 0.18055 0.0
C620 C 0.53594 0.50047 0.16575 0.0
C621 C 0.52779 0.50509 0.15219 0.0
C622 C 0.51384 0.51385 0.15378 0.0
C623 C 0.509 0.5187 0.16887 0.0
C624 C 0.40871 0.5689 0.17557 0.0
C625 C 0.43281 0.58094 0.1807 0.0
O626 O 0.59127 0.47125 0.12194 0.0
O627 O 0.55292 0.51588 0.25393 0.0
O628 O 0.43528 0.56799 0.19178 0.0
O629 O 0.48865 0.54732 0.07215 0.0
H630 H 0.57289 0.43728 0.12034 0.0
H631 H 0.56419 0.45302 0.09694 0.0
H632 H 0.59254 0.46699 0.09094 0.0
H633 H 0.57598 0.43693 0.09091 0.0
H634 H 0.54695 0.44542 0.12362 0.0
H635 H 0.60303 0.51093 0.13065 0.0
H636 H 0.50752 0.45812 0.12082 0.0
H637 H 0.511 0.43649 0.12901 0.0
H638 H 0.50778 0.45528 0.14165 0.0
H639 H 0.59957 0.54151 0.13733 0.0
H640 H 0.57457 0.53945 0.13037 0.0
H641 H 0.57695 0.5339 0.15049 0.0
H642 H 0.51317 0.58073 0.06915 0.0
H643 H 0.49632 0.58218 0.04715 0.0
H644 H 0.47532 0.55639 0.04929 0.0
H645 H 0.46518 0.5847 0.06694 0.0
H646 H 0.5205 0.57249 0.09297 0.0
H647 H 0.47127 0.50596 0.07957 0.0
H648 H 0.52955 0.56514 0.12946 0.0
H649 H 0.54762 0.55708 0.12121 0.0
H650 H 0.54617 0.57985 0.11282 0.0
H651 H 0.4633 0.47485 0.09504 0.0
H652 H 0.48824 0.47766 0.10285 0.0
H653 H 0.46993 0.48065 0.1156 0.0
H654 H 0.44274 0.58289 0.17007 0.0
H655 H 0.47692 0.59119 0.18256 0.0
H656 H 0.42518 0.52828 0.19926 0.0
H657 H 0.51023 0.57663 0.1666 0.0
H658 H 0.51319 0.59862 0.17917 0.0
H659 H 0.52006 0.57873 0.18625 0.0
H660 H 0.42825 0.49641 0.19979 0.0
H661 H 0.44931 0.4967 0.18779 0.0
H662 H 0.45466 0.50432 0.20807 0.0
H663 H 0.58575 0.5302 0.24896 0.0
H664 H 0.59764 0.55917 0.27021 0.0
H665 H 0.57928 0.56074 0.25653 0.0
H666 H 0.56919 0.54832 0.27535 0.0
H667 H 0.57415 0.54636 0.23124 0.0
H668 H 0.51328 0.4888 0.24511 0.0
H669 H 0.56446 0.54796 0.19311 0.0
H670 H 0.55188 0.56272 0.20036 0.0
H671 H 0.57702 0.56724 0.20912 0.0
H672 H 0.48305 0.47061 0.22767 0.0
H673 H 0.47882 0.49228 0.22068 0.0
H674 H 0.48712 0.47834 0.20724 0.0
H675 H 0.53049 0.50481 0.11227 0.0
H676 H 0.48303 0.52902 0.13214 0.0
H677 H 0.47428 0.53649 0.15759 0.0
H678 H 0.49845 0.53525 0.21002 0.0
H679 H 0.53832 0.5018 0.19058 0.0
H680 H 0.54625 0.49332 0.16505 0.0
H681 H 0.39792 0.56666 0.18567 0.0
H682 H 0.4062 0.57847 0.1663 0.0
H683 H 0.40381 0.55226 0.17075 0.0
Co684 Co 0.62279 0.391 0.4035 0.0
O685 O 0.6419 0.38936 0.38845 0.0
O686 O 0.65108 0.41843 0.40376 0.0
C687 C 0.61094 0.3575 0.41427 0.0
O688 O 0.60784 0.39827 0.42084 0.0
Co689 Co 0.57267 0.35827 0.40178 0.0
O690 O 0.57242 0.37089 0.4225 0.0
C691 C 0.59362 0.39475 0.37905 0.0
C692 C 0.65677 0.40917 0.39306 0.0
C693 C 0.58899 0.38877 0.42765 0.0
O694 O 0.61159 0.40308 0.38697 0.0
O695 O 0.57654 0.37595 0.3823 0.0
O696 O 0.62951 0.37476 0.41853 0.0
O697 O 0.60106 0.36051 0.40264 0.0
Co698 Co 0.23734 0.62467 0.5806 0.0
O699 O 0.25858 0.62716 0.59575 0.0
O700 O 0.23931 0.59826 0.58004 0.0
C701 C 0.25855 0.65891 0.57055 0.0
O702 O 0.21502 0.61649 0.56296 0.0
Co703 Co 0.21777 0.65504 0.58159 0.0
O704 O 0.20762 0.64373 0.56008 0.0
C705 C 0.20194 0.61782 0.60386 0.0
C706 C 0.2544 0.60787 0.59077 0.0
C707 C 0.2064 0.62592 0.55533 0.0
O708 O 0.21347 0.61107 0.59686 0.0
O709 O 0.20233 0.63566 0.60012 0.0
O710 O 0.26086 0.64259 0.56598 0.0
O711 O 0.2448 0.6545 0.58185 0.0
Co712 Co 0.61875 0.23656 0.74633 0.0
O713 O 0.62184 0.25815 0.73118 0.0
O714 O 0.59186 0.23715 0.74514 0.0
C715 C 0.65135 0.25919 0.75809 0.0
O716 O 0.60972 0.21341 0.76356 0.0
Co717 Co 0.65057 0.21913 0.74762 0.0
O718 O 0.63739 0.20759 0.76844 0.0
C719 C 0.61593 0.20201 0.72331 0.0
C720 C 0.60204 0.25292 0.7349 0.0
C721 C 0.61881 0.20506 0.77188 0.0
O722 O 0.60794 0.213 0.72955 0.0
O723 O 0.63353 0.20316 0.72825 0.0
O724 O 0.63406 0.26002 0.76179 0.0
O725 O 0.64878 0.24575 0.74678 0.0
Co726 Co 0.39353 0.62249 0.91552 0.0
O727 O 0.37308 0.62156 0.90026 0.0
O728 O 0.36533 0.59569 0.91814 0.0
C729 C 0.40681 0.658 0.92291 0.0
O730 O 0.40933 0.61781 0.93368 0.0
Co731 Co 0.44382 0.65423 0.91292 0.0
O732 O 0.44419 0.64632 0.9351 0.0
C733 C 0.42147 0.61394 0.89302 0.0
C734 C 0.35861 0.60293 0.90671 0.0
C735 C 0.4279 0.62888 0.94085 0.0
O736 O 0.40321 0.60731 0.90022 0.0
O737 O 0.43908 0.63257 0.89583 0.0
O738 O 0.38861 0.64208 0.92882 0.0
O739 O 0.41557 0.65223 0.91206 0.0
Co740 Co 0.76608 0.37753 0.07401 0.0
O741 O 0.74333 0.37429 0.08786 0.0
O742 O 0.76459 0.40433 0.07378 0.0
C743 C 0.7453 0.34382 0.06267 0.0
O744 O 0.79028 0.38657 0.05784 0.0
Co745 Co 0.78446 0.34633 0.076 0.0
O746 O 0.80007 0.36091 0.05637 0.0
C747 C 0.79725 0.38127 0.09987 0.0
C748 C 0.74834 0.39406 0.08354 0.0
C749 C 0.80122 0.37862 0.05152 0.0
O750 O 0.78818 0.38974 0.09168 0.0
O751 O 0.79586 0.36285 0.09634 0.0
O752 O 0.74421 0.36077 0.05788 0.0
O753 O 0.75778 0.3474 0.0747 0.0
Co754 Co 0.40222 0.78062 0.23692 0.0
O755 O 0.40319 0.7615 0.22121 0.0
O756 O 0.42961 0.7811 0.23852 0.0
C757 C 0.368 0.75623 0.2453 0.0
O758 O 0.40677 0.80129 0.25518 0.0
Co759 Co 0.36877 0.7963 0.23481 0.0
O760 O 0.37851 0.80707 0.25652 0.0
C761 C 0.40666 0.81492 0.21341 0.0
C762 C 0.42218 0.76683 0.22705 0.0
C763 C 0.39606 0.80905 0.26216 0.0
O764 O 0.41535 0.80614 0.22169 0.0
O765 O 0.38728 0.81128 0.21584 0.0
O766 O 0.38465 0.75512 0.25036 0.0
O767 O 0.37225 0.7707 0.23444 0.0
H768 H 0.15957 0.63099 0.27258 0.0
H769 H 0.19738 0.66206 0.26971 0.0
H770 H 0.22151 0.61807 0.27915 0.0
H771 H 0.18369 0.58703 0.28243 0.0
H772 H 0.24675 0.65819 0.29345 0.0
H773 H 0.21587 0.6313 0.24183 0.0
H774 H 0.18833 0.62145 0.2209 0.0
H775 H 0.20189 0.68853 0.22044 0.0
H776 H 0.22929 0.6987 0.24154 0.0
H777 H 0.35261 0.71654 0.25986 0.0
H778 H 0.31487 0.69011 0.2677 0.0
H779 H 0.29502 0.73555 0.25196 0.0
H780 H 0.33266 0.76157 0.24334 0.0
H781 H 0.26695 0.69672 0.24219 0.0
H782 H 0.29967 0.72481 0.29241 0.0
H783 H 0.32692 0.73502 0.31359 0.0
H784 H 0.30995 0.66699 0.31727 0.0
H785 H 0.2828 0.65641 0.29597 0.0
C786 C 0.17296 0.62806 0.27437 0.0
C787 C 0.16872 0.60666 0.278 0.0
C788 C 0.19454 0.64578 0.27261 0.0
C789 C 0.21224 0.64233 0.27409 0.0
C790 C 0.20809 0.62111 0.27804 0.0
C791 C 0.18652 0.60341 0.27989 0.0
C792 C 0.23501 0.66049 0.2707 0.0
C793 C 0.25126 0.66655 0.28221 0.0
C794 C 0.24071 0.67176 0.25619 0.0
C795 C 0.22447 0.6657 0.24335 0.0
C796 C 0.21288 0.64391 0.23733 0.0
C797 C 0.19731 0.63828 0.22543 0.0
C798 C 0.19333 0.65434 0.21937 0.0
C799 C 0.20497 0.6761 0.22516 0.0
C800 C 0.22053 0.68181 0.23708 0.0
C801 C 0.34022 0.72097 0.25821 0.0
C802 C 0.34552 0.74109 0.25102 0.0
C803 C 0.31866 0.70591 0.2628 0.0
C804 C 0.30208 0.71096 0.2607 0.0
C805 C 0.30749 0.73127 0.25373 0.0
C806 C 0.32899 0.74614 0.24883 0.0
C807 C 0.27893 0.6945 0.26492 0.0
C808 C 0.26253 0.68866 0.25353 0.0
C809 C 0.27311 0.68356 0.2796 0.0
C810 C 0.2893 0.68985 0.29251 0.0
C811 C 0.30184 0.71205 0.29768 0.0
C812 C 0.31726 0.7179 0.30971 0.0
C813 C 0.32019 0.70167 0.31676 0.0
C814 C 0.30766 0.67954 0.31181 0.0
C815 C 0.29223 0.67361 0.29977 0.0
H816 H 0.33214 0.70624 0.32606 0.0
H817 H 0.18126 0.64994 0.21017 0.0
H818 H 0.61236 0.18681 0.4496 0.0
H819 H 0.60815 0.21666 0.43882 0.0
H820 H 0.55604 0.20082 0.4717 0.0
H821 H 0.56061 0.17131 0.48276 0.0
H822 H 0.57666 0.22101 0.42525 0.0
H823 H 0.56206 0.24978 0.4848 0.0
H824 H 0.56883 0.24759 0.51291 0.0
H825 H 0.62458 0.24185 0.50162 0.0
H826 H 0.61832 0.24434 0.47349 0.0
H827 H 0.57212 0.31834 0.40868 0.0
H828 H 0.56102 0.28152 0.41926 0.0
H829 H 0.6214 0.31049 0.4459 0.0
H830 H 0.63209 0.34706 0.43589 0.0
H831 H 0.59003 0.28077 0.4628 0.0
H832 H 0.6143 0.28435 0.4091 0.0
H833 H 0.61271 0.28879 0.38057 0.0
H834 H 0.5462 0.2335 0.37944 0.0
H835 H 0.54735 0.2289 0.40801 0.0
C836 C 0.59979 0.18951 0.45434 0.0
C837 C 0.58686 0.17685 0.46703 0.0
C838 C 0.59732 0.20647 0.44815 0.0
C839 C 0.58193 0.2111 0.45456 0.0
C840 C 0.56819 0.1977 0.4667 0.0
C841 C 0.57077 0.18083 0.47297 0.0
C842 C 0.58175 0.23117 0.44945 0.0
C843 C 0.57934 0.23398 0.43347 0.0
C844 C 0.58545 0.24819 0.46016 0.0
C845 C 0.58952 0.24693 0.47705 0.0
C846 C 0.57577 0.24809 0.48833 0.0
C847 C 0.57953 0.24681 0.50427 0.0
C848 C 0.59706 0.24449 0.50905 0.0
C849 C 0.61095 0.24356 0.49791 0.0
C850 C 0.6073 0.24489 0.48197 0.0
C851 C 0.58285 0.3168 0.41694 0.0
C852 C 0.60304 0.33551 0.42137 0.0
C853 C 0.57654 0.29578 0.42293 0.0
C854 C 0.59052 0.29318 0.43322 0.0
C855 C 0.61029 0.31204 0.43802 0.0
C856 C 0.61645 0.33296 0.43221 0.0
C857 C 0.58547 0.27091 0.43852 0.0
C858 C 0.58681 0.2676 0.45459 0.0
C859 C 0.58147 0.25376 0.42783 0.0
C860 C 0.58082 0.25645 0.41068 0.0
C861 C 0.5993 0.27323 0.40277 0.0
C862 C 0.59848 0.27576 0.3866 0.0
C863 C 0.57934 0.26148 0.37821 0.0
C864 C 0.561 0.24458 0.38596 0.0
C865 C 0.56172 0.242 0.40214 0.0
H866 H 0.57874 0.26346 0.36569 0.0
H867 H 0.59992 0.24347 0.52138 0.0
H868 H 0.39189 0.54036 0.59503 0.0
H869 H 0.35833 0.54201 0.59439 0.0
H870 H 0.39007 0.60163 0.62262 0.0
H871 H 0.42363 0.59985 0.62349 0.0
H872 H 0.34721 0.57324 0.63166 0.0
H873 H 0.38696 0.60517 0.58379 0.0
H874 H 0.40569 0.60546 0.55944 0.0
H875 H 0.34602 0.54877 0.54242 0.0
H876 H 0.32701 0.54796 0.5668 0.0
H877 H 0.28772 0.62549 0.61218 0.0
H878 H 0.31371 0.61352 0.61769 0.0
H879 H 0.27792 0.55745 0.58657 0.0
H880 H 0.252 0.56962 0.58074 0.0
H881 H 0.3202 0.57985 0.57954 0.0
H882 H 0.27925 0.55046 0.62652 0.0
H883 H 0.26072 0.55069 0.65083 0.0
H884 H 0.32219 0.60266 0.6696 0.0
H885 H 0.34106 0.60297 0.64531 0.0
C886 C 0.39158 0.55362 0.6013 0.0
C887 C 0.41029 0.56984 0.60948 0.0
C888 C 0.37245 0.5546 0.60087 0.0
C889 C 0.37176 0.57201 0.60839 0.0
C890 C 0.39023 0.58799 0.61682 0.0
C891 C 0.40938 0.587 0.61727 0.0
C892 C 0.35221 0.57426 0.60675 0.0
C893 C 0.34136 0.57485 0.62029 0.0
C894 C 0.34428 0.57578 0.59189 0.0
C895 C 0.35564 0.57636 0.57718 0.0
C896 C 0.37788 0.59267 0.5749 0.0
C897 C 0.38854 0.59294 0.56109 0.0
C898 C 0.37707 0.5771 0.54941 0.0
C899 C 0.35489 0.561 0.5515 0.0
C900 C 0.34417 0.56064 0.5653 0.0
C901 C 0.28511 0.61037 0.60672 0.0
C902 C 0.26788 0.59856 0.59595 0.0
C903 C 0.29994 0.60347 0.60995 0.0
C904 C 0.29772 0.58451 0.60261 0.0
C905 C 0.27995 0.57214 0.59237 0.0
C906 C 0.26511 0.57907 0.58909 0.0
C907 C 0.31515 0.57899 0.60447 0.0
C908 C 0.32575 0.57789 0.59094 0.0
C909 C 0.32281 0.57704 0.61935 0.0
C910 C 0.31154 0.57684 0.63403 0.0
C911 C 0.2888 0.56206 0.63578 0.0
C912 C 0.27823 0.56207 0.64957 0.0
C913 C 0.29026 0.57671 0.66174 0.0
C914 C 0.31289 0.59133 0.66016 0.0
C915 C 0.32353 0.5914 0.64639 0.0
H916 H 0.28205 0.5767 0.6724 0.0
H917 H 0.38535 0.57734 0.53872 0.0
H918 H 0.85493 0.40704 0.77287 0.0
H919 H 0.81843 0.37369 0.77062 0.0
H920 H 0.79022 0.40749 0.79418 0.0
H921 H 0.82695 0.44098 0.79666 0.0
H922 H 0.77273 0.36407 0.80447 0.0
H923 H 0.78648 0.40253 0.75557 0.0
H924 H 0.80769 0.42132 0.73186 0.0
H925 H 0.80521 0.36144 0.71748 0.0
H926 H 0.78426 0.34238 0.74124 0.0
H927 H 0.66195 0.29311 0.77861 0.0
H928 H 0.69875 0.32307 0.78597 0.0
H929 H 0.72711 0.29169 0.75948 0.0
H930 H 0.6903 0.26186 0.75181 0.0
H931 H 0.74476 0.33377 0.75136 0.0
H932 H 0.72984 0.29474 0.79992 0.0
H933 H 0.70876 0.27606 0.82369 0.0
H934 H 0.71313 0.33658 0.83876 0.0
H935 H 0.73398 0.35557 0.81496 0.0
C936 C 0.84097 0.40729 0.77771 0.0
C937 C 0.84378 0.42652 0.78508 0.0
C938 C 0.82015 0.38828 0.77636 0.0
C939 C 0.80164 0.38819 0.78214 0.0
C940 C 0.80435 0.40723 0.7897 0.0
C941 C 0.82526 0.42632 0.79107 0.0
C942 C 0.77943 0.36842 0.77975 0.0
C943 C 0.76644 0.35755 0.79287 0.0
C944 C 0.77152 0.35971 0.76462 0.0
C945 C 0.78398 0.37109 0.75026 0.0
C946 C 0.79061 0.39342 0.74741 0.0
C947 C 0.80255 0.40411 0.73396 0.0
C948 C 0.80784 0.3926 0.72319 0.0
C949 C 0.80113 0.37035 0.72584 0.0
C950 C 0.7892 0.35959 0.73929 0.0
C951 C 0.676 0.29236 0.77459 0.0
C952 C 0.67327 0.27524 0.76453 0.0
C953 C 0.69704 0.30947 0.77886 0.0
C954 C 0.7157 0.30961 0.77331 0.0
C955 C 0.71294 0.29194 0.76387 0.0
C956 C 0.6919 0.27488 0.75953 0.0
C957 C 0.73799 0.32916 0.77609 0.0
C958 C 0.75101 0.34013 0.763 0.0
C959 C 0.74585 0.3379 0.79125 0.0
C960 C 0.73331 0.32652 0.80558 0.0
C961 C 0.72615 0.30402 0.80824 0.0
C962 C 0.71427 0.29339 0.82173 0.0
C963 C 0.70956 0.30511 0.83271 0.0
C964 C 0.71677 0.32752 0.83023 0.0
C965 C 0.72864 0.33823 0.81675 0.0
H966 H 0.70037 0.29685 0.84315 0.0
H967 H 0.81709 0.4009 0.71278 0.0
H968 H 0.45682 0.85584 0.92033 0.0
H969 H 0.44203 0.81604 0.92354 0.0
H970 H 0.49168 0.83007 0.95841 0.0
H971 H 0.50723 0.86989 0.95458 0.0
H972 H 0.48985 0.80104 0.94036 0.0
H973 H 0.43508 0.80613 0.96775 0.0
H974 H 0.40743 0.81649 0.97311 0.0
H975 H 0.36895 0.77725 0.93388 0.0
H976 H 0.39653 0.7669 0.92813 0.0
H977 H 0.39659 0.67409 0.94864 0.0
H978 H 0.41205 0.71316 0.95603 0.0
H979 H 0.45351 0.73347 0.91511 0.0
H980 H 0.43889 0.69466 0.90813 0.0
H981 H 0.41019 0.74468 0.94302 0.0
H982 H 0.49973 0.78121 0.91958 0.0
H983 H 0.52749 0.77019 0.91808 0.0
H984 H 0.49708 0.72564 0.95672 0.0
H985 H 0.46934 0.73662 0.95862 0.0
C986 C 0.46435 0.85038 0.92885 0.0
C987 C 0.48289 0.866 0.93741 0.0
C988 C 0.45581 0.82763 0.93076 0.0
C989 C 0.46543 0.81995 0.94146 0.0
C990 C 0.48386 0.83553 0.95015 0.0
C991 C 0.49264 0.85833 0.94804 0.0
C992 C 0.45727 0.79577 0.94264 0.0
C993 C 0.47244 0.78874 0.94109 0.0
C994 C 0.43461 0.77962 0.94411 0.0
C995 C 0.41798 0.78585 0.94745 0.0
C996 C 0.42081 0.79984 0.96019 0.0
C997 C 0.40513 0.80569 0.96331 0.0
C998 C 0.38647 0.79757 0.95382 0.0
C999 C 0.38343 0.78354 0.94121 0.0
C1000 C 0.39906 0.77765 0.93803 0.0
C1001 C 0.40921 0.68694 0.94136 0.0
C1002 C 0.41662 0.68138 0.92785 0.0
C1003 C 0.41799 0.70924 0.94556 0.0
C1004 C 0.43418 0.72631 0.93626 0.0
C1005 C 0.4415 0.72067 0.92274 0.0
C1006 C 0.43301 0.69844 0.91869 0.0
C1007 C 0.44271 0.75006 0.9401 0.0
C1008 C 0.42762 0.757 0.94257 0.0
C1009 C 0.4655 0.7661 0.94008 0.0
C1010 C 0.48236 0.75966 0.93917 0.0
C1011 C 0.49905 0.76917 0.92783 0.0
C1012 C 0.51476 0.7629 0.92689 0.0
C1013 C 0.51402 0.74719 0.93728 0.0
C1014 C 0.4976 0.73776 0.94866 0.0
C1015 C 0.48187 0.74399 0.94965 0.0
H1016 H 0.52619 0.74235 0.93652 0.0
H1017 H 0.37434 0.80211 0.95626 0.0
H1018 H 0.63028 0.48439 0.11078 0.0
H1019 H 0.66183 0.47935 0.10838 0.0
H1020 H 0.61864 0.40847 0.1136 0.0
H1021 H 0.58724 0.4135 0.11638 0.0
H1022 H 0.656 0.42298 0.12994 0.0
H1023 H 0.63628 0.43363 0.07736 0.0
H1024 H 0.63012 0.45479 0.05707 0.0
H1025 H 0.6967 0.50898 0.0624 0.0
H1026 H 0.70315 0.48823 0.08288 0.0
H1027 H 0.70733 0.37157 0.09576 0.0
H1028 H 0.68406 0.38602 0.1032 0.0
H1029 H 0.73586 0.45239 0.09115 0.0
H1030 H 0.75898 0.43764 0.08283 0.0
H1031 H 0.69924 0.44646 0.08081 0.0
H1032 H 0.72081 0.43407 0.13075 0.0
H1033 H 0.72734 0.4133 0.15113 0.0
H1034 H 0.65853 0.36367 0.15155 0.0
H1035 H 0.65161 0.38396 0.13103 0.0
C1036 C 0.62763 0.4678 0.11173 0.0
C1037 C 0.60635 0.44936 0.11409 0.0
C1038 C 0.64562 0.46492 0.11022 0.0
C1039 C 0.64258 0.44351 0.11071 0.0
C1040 C 0.62141 0.42516 0.11329 0.0
C1041 C 0.60348 0.42803 0.11488 0.0
C1042 C 0.66113 0.43987 0.10796 0.0
C1043 C 0.66542 0.42802 0.11917 0.0
C1044 C 0.67396 0.44717 0.09417 0.0
C1045 C 0.67012 0.45949 0.08175 0.0
C1046 C 0.64955 0.45011 0.07427 0.0
C1047 C 0.64602 0.46202 0.06273 0.0
C1048 C 0.66299 0.48324 0.05848 0.0
C1049 C 0.68356 0.49256 0.06572 0.0
C1050 C 0.68717 0.48073 0.07728 0.0
C1051 C 0.7139 0.38929 0.09482 0.0
C1052 C 0.73505 0.40351 0.08882 0.0
C1053 C 0.70059 0.39758 0.0992 0.0
C1054 C 0.70834 0.42042 0.09815 0.0
C1055 C 0.72955 0.43473 0.09218 0.0
C1056 C 0.74276 0.42632 0.08747 0.0
C1057 C 0.69373 0.42892 0.1026 0.0
C1058 C 0.69018 0.44173 0.09172 0.0
C1059 C 0.68167 0.42263 0.11677 0.0
C1060 C 0.68572 0.41052 0.12929 0.0
C1061 C 0.70708 0.41868 0.13514 0.0
C1062 C 0.71085 0.40699 0.14672 0.0
C1063 C 0.69336 0.38717 0.15262 0.0
C1064 C 0.67206 0.37903 0.14698 0.0
C1065 C 0.6682 0.39064 0.13539 0.0
H1066 H 0.69632 0.37814 0.16158 0.0
H1067 H 0.66022 0.49245 0.04955 0.0
H1068 H 0.3843 0.87027 0.54633 0.0
H1069 H 0.35205 0.83274 0.54858 0.0
H1070 H 0.3913 0.80493 0.53476 0.0
H1071 H 0.42348 0.84243 0.53219 0.0
H1072 H 0.35053 0.78275 0.52121 0.0
H1073 H 0.38152 0.8091 0.57296 0.0
H1074 H 0.39404 0.83541 0.59516 0.0
H1075 H 0.32938 0.8256 0.59943 0.0
H1076 H 0.31657 0.79944 0.5771 0.0
H1077 H 0.29549 0.6748 0.55296 0.0
H1078 H 0.3202 0.71304 0.54465 0.0
H1079 H 0.27678 0.73223 0.56496 0.0
H1080 H 0.25245 0.69402 0.57393 0.0
H1081 H 0.31626 0.75999 0.57367 0.0
H1082 H 0.28383 0.73014 0.52386 0.0
H1083 H 0.2712 0.70386 0.50164 0.0
H1084 H 0.33745 0.72004 0.49335 0.0
H1085 H 0.35046 0.74619 0.51565 0.0
C1086 C 0.38591 0.85614 0.54347 0.0
C1087 C 0.4063 0.85924 0.53884 0.0
C1088 C 0.36754 0.83474 0.54485 0.0
C1089 C 0.36934 0.81608 0.54192 0.0
C1090 C 0.38954 0.81913 0.53698 0.0
C1091 C 0.40789 0.84052 0.53554 0.0
C1092 C 0.3506 0.79333 0.54489 0.0
C1093 C 0.34305 0.77767 0.53268 0.0
C1094 C 0.34049 0.78696 0.55975 0.0
C1095 C 0.34816 0.80251 0.57326 0.0
C1096 C 0.37002 0.81267 0.57857 0.0
C1097 C 0.37716 0.82754 0.59118 0.0
C1098 C 0.36253 0.83222 0.59868 0.0
C1099 C 0.34071 0.82199 0.5936 0.0
C1100 C 0.33349 0.80713 0.58097 0.0
C1101 C 0.29106 0.68711 0.55547 0.0
C1102 C 0.2721 0.68149 0.56412 0.0
C1103 C 0.30513 0.70897 0.55061 0.0
C1104 C 0.30023 0.72553 0.55397 0.0
C1105 C 0.28091 0.71975 0.56222 0.0
C1106 C 0.267 0.69794 0.56731 0.0
C1107 C 0.3162 0.74911 0.55003 0.0
C1108 C 0.32335 0.76501 0.56208 0.0
C1109 C 0.32584 0.75567 0.535 0.0
C1110 C 0.3181 0.74005 0.5215 0.0
C1111 C 0.29569 0.728 0.51736 0.0
C1112 C 0.28847 0.71314 0.50474 0.0
C1113 C 0.30351 0.71026 0.4961 0.0
C1114 C 0.32582 0.72228 0.50005 0.0
C1115 C 0.33313 0.73716 0.51266 0.0
H1116 H 0.29788 0.69873 0.48634 0.0
H1117 H 0.36809 0.84374 0.60844 0.0
H1118 H 0.59176 0.42125 0.7015 0.0
H1119 H 0.5942 0.38779 0.70299 0.0
H1120 H 0.52875 0.35132 0.72224 0.0
H1121 H 0.52643 0.38488 0.72104 0.0
H1122 H 0.55651 0.34443 0.73872 0.0
H1123 H 0.53882 0.34221 0.68437 0.0
H1124 H 0.5429 0.35722 0.6577 0.0
H1125 H 0.60814 0.36823 0.65504 0.0
H1126 H 0.60458 0.35357 0.68178 0.0
H1127 H 0.56081 0.24601 0.73988 0.0
H1128 H 0.54768 0.27099 0.73282 0.0
H1129 H 0.60956 0.31495 0.71017 0.0
H1130 H 0.62237 0.2898 0.71665 0.0
H1131 H 0.57803 0.31434 0.69417 0.0
H1132 H 0.59841 0.32259 0.74904 0.0
H1133 H 0.59627 0.30945 0.77611 0.0
H1134 H 0.52795 0.28898 0.77806 0.0
H1135 H 0.52965 0.30177 0.75092 0.0
C1136 C 0.5778 0.406 0.70583 0.0
C1137 C 0.55874 0.40553 0.71084 0.0
C1138 C 0.57916 0.38688 0.70663 0.0
C1139 C 0.56148 0.36693 0.71245 0.0
C1140 C 0.54249 0.36647 0.71757 0.0
C1141 C 0.54114 0.38559 0.71681 0.0
C1142 C 0.56336 0.34695 0.71401 0.0
C1143 C 0.56076 0.33754 0.72891 0.0
C1144 C 0.56936 0.33827 0.70128 0.0
C1145 C 0.57147 0.34691 0.68513 0.0
C1146 C 0.55409 0.34796 0.67814 0.0
C1147 C 0.5563 0.35639 0.663 0.0
C1148 C 0.57578 0.3637 0.65469 0.0
C1149 C 0.59307 0.36256 0.66149 0.0
C1150 C 0.59095 0.35416 0.67663 0.0
C1151 C 0.57142 0.2608 0.73315 0.0
C1152 C 0.5927 0.26606 0.72896 0.0
C1153 C 0.56396 0.27512 0.72919 0.0
C1154 C 0.57781 0.29511 0.72125 0.0
C1155 C 0.59858 0.29969 0.71633 0.0
C1156 C 0.60592 0.28529 0.7201 0.0
C1157 C 0.57157 0.31209 0.71894 0.0
C1158 C 0.57339 0.32097 0.70392 0.0
C1159 C 0.56509 0.32048 0.73159 0.0
C1160 C 0.56409 0.31288 0.74791 0.0
C1161 C 0.58291 0.31515 0.75521 0.0
C1162 C 0.58178 0.30779 0.77057 0.0
C1163 C 0.56197 0.29832 0.77878 0.0
C1164 C 0.54327 0.29627 0.77168 0.0
C1165 C 0.5443 0.30358 0.75631 0.0
H1166 H 0.56113 0.29263 0.79067 0.0
H1167 H 0.57746 0.37024 0.64298 0.0
H1168 H 0.1611 0.53931 0.86053 0.0
H1169 H 0.19995 0.55157 0.86309 0.0
H1170 H 0.19374 0.54852 0.91342 0.0
H1171 H 0.15513 0.53759 0.9109 0.0
H1172 H 0.23037 0.58291 0.90662 0.0
H1173 H 0.19448 0.50681 0.8902 0.0
H1174 H 0.17107 0.47431 0.87343 0.0
H1175 H 0.21409 0.50654 0.8345 0.0
H1176 H 0.2376 0.53938 0.851 0.0
H1177 H 0.32336 0.57372 0.92411 0.0
H1178 H 0.28454 0.55995 0.91857 0.0
H1179 H 0.3021 0.59314 0.87394 0.0
H1180 H 0.34109 0.60755 0.87957 0.0
H1181 H 0.26072 0.54378 0.87716 0.0
H1182 H 0.29571 0.62085 0.89537 0.0
H1183 H 0.31894 0.65104 0.9139 0.0
H1184 H 0.27632 0.6131 0.95172 0.0
H1185 H 0.25304 0.58251 0.93343 0.0
C1186 C 0.1681 0.54169 0.87215 0.0
C1187 C 0.15515 0.53791 0.88556 0.0
C1188 C 0.19028 0.5484 0.8736 0.0
C1189 C 0.19975 0.55062 0.88845 0.0
C1190 C 0.18687 0.54699 0.90183 0.0
C1191 C 0.16483 0.54074 0.9004 0.0
C1192 C 0.22302 0.55664 0.8901 0.0
C1193 C 0.23684 0.57415 0.90025 0.0
C1194 C 0.2317 0.54542 0.88172 0.0
C1195 C 0.21767 0.52564 0.8718 0.0
C1196 C 0.19886 0.50703 0.87804 0.0
C1197 C 0.18559 0.48854 0.86859 0.0
C1198 C 0.19106 0.48839 0.8529 0.0
C1199 C 0.20985 0.5067 0.84665 0.0
C1200 C 0.22317 0.52525 0.85605 0.0
C1201 C 0.31893 0.57773 0.91299 0.0
C1202 C 0.3352 0.59179 0.9023 0.0
C1203 C 0.29679 0.56989 0.90987 0.0
C1204 C 0.29062 0.57564 0.89589 0.0
C1205 C 0.30666 0.58854 0.88477 0.0
C1206 C 0.32886 0.59679 0.88802 0.0
C1207 C 0.26767 0.56986 0.89359 0.0
C1208 C 0.25405 0.55245 0.88339 0.0
C1209 C 0.25901 0.58084 0.90212 0.0
C1210 C 0.27281 0.59932 0.91308 0.0
C1211 C 0.29143 0.61887 0.90767 0.0
C1212 C 0.30457 0.63606 0.91812 0.0
C1213 C 0.29915 0.63396 0.93399 0.0
C1214 C 0.28052 0.61469 0.93943 0.0
C1215 C 0.26734 0.59742 0.92903 0.0
H1216 H 0.30935 0.64729 0.94206 0.0
H1217 H 0.18076 0.47406 0.8456 0.0
H1218 H 0.57049 0.15244 0.0536 0.0
H1219 H 0.60826 0.18234 0.0585 0.0
H1220 H 0.6112 0.20835 0.01224 0.0
H1221 H 0.57387 0.17756 0.00693 0.0
H1222 H 0.64935 0.2147 0.01872 0.0
H1223 H 0.59869 0.22852 0.04618 0.0
H1224 H 0.5684 0.22024 0.06428 0.0
H1225 H 0.60503 0.21534 0.10249 0.0
H1226 H 0.63543 0.22329 0.08455 0.0
H1227 H 0.72078 0.3318 0.03584 0.0
H1228 H 0.69102 0.29439 0.02852 0.0
H1229 H 0.70483 0.26743 0.06925 0.0
H1230 H 0.73489 0.30464 0.07647 0.0
H1231 H 0.66047 0.25992 0.06636 0.0
H1232 H 0.71377 0.25192 0.0373 0.0
H1233 H 0.74347 0.26306 0.01806 0.0
H1234 H 0.70096 0.26082 0.98138 0.0
H1235 H 0.67109 0.24999 0.00045 0.0
C1236 C 0.5793 0.16424 0.04435 0.0
C1237 C 0.5692 0.16264 0.02983 0.0
C1238 C 0.60088 0.18147 0.04721 0.0
C1239 C 0.61247 0.19793 0.03587 0.0
C1240 C 0.60266 0.19591 0.0212 0.0
C1241 C 0.58129 0.1784 0.0182 0.0
C1242 C 0.63416 0.21799 0.03957 0.0
C1243 C 0.65172 0.22464 0.02909 0.0
C1244 C 0.63742 0.23094 0.05319 0.0
C1245 C 0.61921 0.22624 0.064 0.0
C1246 C 0.60021 0.22552 0.05843 0.0
C1247 C 0.58303 0.22091 0.06865 0.0
C1248 C 0.58476 0.2172 0.08452 0.0
C1249 C 0.6037 0.21817 0.09019 0.0
C1250 C 0.62091 0.22273 0.08 0.0
C1251 C 0.7178 0.31782 0.04302 0.0
C1252 C 0.73002 0.32113 0.05678 0.0
C1253 C 0.70087 0.29649 0.0388 0.0
C1254 C 0.69577 0.27824 0.04838 0.0
C1255 C 0.7086 0.28135 0.06171 0.0
C1256 C 0.72577 0.3026 0.06579 0.0
C1257 C 0.67547 0.25656 0.04551 0.0
C1258 C 0.65814 0.24974 0.05612 0.0
C1259 C 0.67232 0.24387 0.03185 0.0
C1260 C 0.69024 0.25033 0.02034 0.0
C1261 C 0.71081 0.254 0.02516 0.0
C1262 C 0.72767 0.26022 0.01427 0.0
C1263 C 0.72412 0.26269 0.99851 0.0
C1264 C 0.70369 0.25891 0.99359 0.0
C1265 C 0.68678 0.25271 0.00444 0.0
H1266 H 0.73719 0.2675 0.9901 0.0
H1267 H 0.57144 0.21364 0.09242 0.0
H1268 H 0.44503 0.61865 0.16421 0.0
H1269 H 0.4512 0.65422 0.17372 0.0
H1270 H 0.44191 0.63023 0.22123 0.0
H1271 H 0.43449 0.59417 0.21165 0.0
H1272 H 0.41972 0.64841 0.21772 0.0
H1273 H 0.49379 0.67285 0.20616 0.0
H1274 H 0.5255 0.6778 0.19099 0.0
H1275 H 0.51367 0.71425 0.15602 0.0
H1276 H 0.48168 0.70924 0.17085 0.0
H1277 H 0.44696 0.75594 0.24495 0.0
H1278 H 0.45752 0.7287 0.23834 0.0
H1279 H 0.43255 0.7234 0.1915 0.0
H1280 H 0.42122 0.74996 0.19819 0.0
H1281 H 0.47709 0.72248 0.19805 0.0
H1282 H 0.39735 0.68859 0.20918 0.0
H1283 H 0.36779 0.68518 0.22626 0.0
H1284 H 0.39464 0.6679 0.265 0.0
H1285 H 0.42459 0.67161 0.24816 0.0
C1286 C 0.44472 0.62114 0.17671 0.0
C1287 C 0.43963 0.60373 0.18716 0.0
C1288 C 0.4484 0.64155 0.18216 0.0
C1289 C 0.44747 0.64518 0.19826 0.0
C1290 C 0.44286 0.62794 0.20877 0.0
C1291 C 0.43877 0.60736 0.20329 0.0
C1292 C 0.44925 0.66615 0.20387 0.0
C1293 C 0.43261 0.66457 0.21364 0.0
C1294 C 0.46596 0.68742 0.19858 0.0
C1295 C 0.48522 0.69053 0.18959 0.0
C1296 C 0.49784 0.68178 0.19518 0.0
C1297 C 0.51589 0.68462 0.18665 0.0
C1298 C 0.52157 0.69629 0.17254 0.0
C1299 C 0.50924 0.7052 0.16695 0.0
C1300 C 0.49117 0.70239 0.17543 0.0
C1301 C 0.44436 0.74948 0.23311 0.0
C1302 C 0.43318 0.7549 0.22208 0.0
C1303 C 0.45039 0.73395 0.22937 0.0
C1304 C 0.44578 0.72412 0.21445 0.0
C1305 C 0.43634 0.73096 0.20303 0.0
C1306 C 0.42981 0.74603 0.20688 0.0
C1307 C 0.44746 0.70432 0.21149 0.0
C1308 C 0.4646 0.70621 0.20225 0.0
C1309 C 0.43156 0.68337 0.21751 0.0
C1310 C 0.4133 0.68063 0.22749 0.0
C1311 C 0.39703 0.68424 0.22137 0.0
C1312 C 0.38021 0.68223 0.231 0.0
C1313 C 0.37938 0.6764 0.24672 0.0
C1314 C 0.39533 0.67247 0.25283 0.0
C1315 C 0.41223 0.67452 0.24325 0.0
H1316 H 0.36634 0.67486 0.25416 0.0
H1317 H 0.53555 0.69847 0.16595 0.0
H1318 H 0.84259 0.42873 0.37205 0.0
H1319 H 0.81062 0.42906 0.38225 0.0
H1320 H 0.81156 0.46677 0.34215 0.0
H1321 H 0.84398 0.46708 0.33215 0.0
H1322 H 0.79846 0.47913 0.36817 0.0
H1323 H 0.78072 0.41107 0.34163 0.0
H1324 H 0.78344 0.37792 0.3369 0.0
H1325 H 0.76065 0.355 0.38354 0.0
H1326 H 0.75814 0.38823 0.38863 0.0
H1327 H 0.6701 0.39928 0.36617 0.0
H1328 H 0.70766 0.41156 0.35834 0.0
H1329 H 0.7324 0.45363 0.39931 0.0
H1330 H 0.69464 0.44182 0.40696 0.0
H1331 H 0.73374 0.40287 0.37371 0.0
H1332 H 0.78663 0.49509 0.39256 0.0
H1333 H 0.78352 0.52838 0.39485 0.0
H1334 H 0.73384 0.50279 0.35901 0.0
H1335 H 0.73686 0.4695 0.35636 0.0
C1336 C 0.8364 0.43767 0.36566 0.0
C1337 C 0.8459 0.44809 0.35137 0.0
C1338 C 0.81807 0.43776 0.37146 0.0
C1339 C 0.80858 0.44774 0.36286 0.0
C1340 C 0.81868 0.45908 0.349 0.0
C1341 C 0.83714 0.45918 0.34328 0.0
C1342 C 0.78679 0.44409 0.36727 0.0
C1343 C 0.78429 0.46249 0.36948 0.0
C1344 C 0.76825 0.42236 0.36867 0.0
C1345 C 0.76945 0.40223 0.36556 0.0
C1346 C 0.77642 0.39902 0.35091 0.0
C1347 C 0.77792 0.38022 0.34816 0.0
C1348 C 0.77227 0.36439 0.35992 0.0
C1349 C 0.76505 0.3673 0.37445 0.0
C1350 C 0.76358 0.38611 0.37727 0.0
C1351 C 0.68356 0.4115 0.37335 0.0
C1352 C 0.67949 0.4195 0.38722 0.0
C1353 C 0.70502 0.41845 0.36889 0.0
C1354 C 0.72287 0.43339 0.37828 0.0
C1355 C 0.71892 0.44226 0.39179 0.0
C1356 C 0.69735 0.4355 0.39616 0.0
C1357 C 0.74521 0.43791 0.37456 0.0
C1358 C 0.74786 0.41959 0.37253 0.0
C1359 C 0.76367 0.45968 0.373 0.0
C1360 C 0.76181 0.47969 0.3744 0.0
C1361 C 0.77509 0.4966 0.38514 0.0
C1362 C 0.77334 0.51547 0.3865 0.0
C1363 C 0.75844 0.51766 0.37712 0.0
C1364 C 0.74531 0.50102 0.36632 0.0
C1365 C 0.74701 0.48213 0.3649 0.0
H1366 H 0.7571 0.53228 0.3782 0.0
H1367 H 0.77344 0.34984 0.35778 0.0
H1368 H 0.09524 0.57044 0.42742 0.0
H1369 H 0.1165 0.58573 0.45151 0.0
H1370 H 0.11546 0.52447 0.4591 0.0
H1371 H 0.09352 0.50883 0.43523 0.0
H1372 H 0.10889 0.53921 0.48589 0.0
H1373 H 0.16095 0.5708 0.44421 0.0
H1374 H 0.17618 0.59071 0.41938 0.0
H1375 H 0.18026 0.64921 0.43875 0.0
H1376 H 0.16474 0.62954 0.46362 0.0
H1377 H 0.19521 0.5853 0.54287 0.0
H1378 H 0.17411 0.56804 0.51896 0.0
H1379 H 0.16851 0.62549 0.51077 0.0
H1380 H 0.18964 0.64293 0.53452 0.0
H1381 H 0.17932 0.61163 0.4842 0.0
H1382 H 0.12593 0.57894 0.52567 0.0
H1383 H 0.11101 0.5587 0.55043 0.0
H1384 H 0.11031 0.50178 0.53124 0.0
H1385 H 0.12552 0.52182 0.50642 0.0
C1386 C 0.0992 0.5601 0.43437 0.0
C1387 C 0.09231 0.53825 0.42963 0.0
C1388 C 0.11157 0.56893 0.44805 0.0
C1389 C 0.1178 0.55634 0.45703 0.0
C1390 C 0.11079 0.53447 0.45239 0.0
C1391 C 0.09826 0.52555 0.43878 0.0
C1392 C 0.13184 0.56609 0.47114 0.0
C1393 C 0.12445 0.55488 0.48546 0.0
C1394 C 0.15201 0.58669 0.47065 0.0
C1395 C 0.1615 0.59863 0.45574 0.0
C1396 C 0.16495 0.58786 0.44314 0.0
C1397 C 0.17365 0.59911 0.42906 0.0
C1398 C 0.17914 0.62119 0.42748 0.0
C1399 C 0.17598 0.63209 0.43999 0.0
C1400 C 0.16725 0.62091 0.45408 0.0
C1401 C 0.18955 0.5943 0.53598 0.0
C1402 C 0.19405 0.61547 0.54069 0.0
C1403 C 0.17742 0.58437 0.52234 0.0
C1404 C 0.16958 0.59541 0.51318 0.0
C1405 C 0.17439 0.61668 0.51769 0.0
C1406 C 0.18641 0.62657 0.53132 0.0
C1407 C 0.15625 0.58486 0.49892 0.0
C1408 C 0.16381 0.5959 0.48458 0.0
C1409 C 0.13633 0.56406 0.49938 0.0
C1410 C 0.12708 0.55196 0.51426 0.0
C1411 C 0.12276 0.56218 0.52678 0.0
C1412 C 0.11422 0.55073 0.54081 0.0
C1413 C 0.10977 0.52899 0.54242 0.0
C1414 C 0.1138 0.51863 0.52998 0.0
C1415 C 0.12236 0.53002 0.51593 0.0
H1416 H 0.10316 0.52015 0.5533 0.0
H1417 H 0.18587 0.62987 0.41657 0.0
H1418 H 0.49998 0.08255 0.59457 0.0
H1419 H 0.52156 0.11496 0.61945 0.0
H1420 H 0.54774 0.06825 0.64447 0.0
H1421 H 0.52698 0.03471 0.62036 0.0
H1422 H 0.53502 0.08662 0.66426 0.0
H1423 H 0.58494 0.1279 0.62201 0.0
H1424 H 0.59477 0.14392 0.59548 0.0
H1425 H 0.56281 0.18073 0.60408 0.0
H1426 H 0.55268 0.16476 0.63063 0.0
H1427 H 0.61971 0.16757 0.71237 0.0
H1428 H 0.59947 0.1422 0.69079 0.0
H1429 H 0.56508 0.17693 0.68243 0.0
H1430 H 0.58514 0.20237 0.70415 0.0
H1431 H 0.58186 0.16773 0.65485 0.0
H1432 H 0.53813 0.12998 0.69969 0.0
H1433 H 0.53019 0.11375 0.72616 0.0
H1434 H 0.55231 0.06964 0.71262 0.0
H1435 H 0.56076 0.08586 0.68615 0.0
C1436 C 0.50821 0.07962 0.6041 0.0
C1437 C 0.51475 0.05709 0.60335 0.0
C1438 C 0.52268 0.1002 0.61915 0.0
C1439 C 0.53839 0.09597 0.63396 0.0
C1440 C 0.539 0.0706 0.63503 0.0
C1441 C 0.52516 0.04908 0.62056 0.0
C1442 C 0.54895 0.11233 0.64677 0.0
C1443 C 0.54553 0.10432 0.66215 0.0
C1444 C 0.56199 0.13547 0.6441 0.0
C1445 C 0.56773 0.14485 0.62814 0.0
C1446 C 0.57987 0.13928 0.61817 0.0
C1447 C 0.58554 0.14838 0.60316 0.0
C1448 C 0.57932 0.16325 0.59807 0.0
C1449 C 0.56753 0.16913 0.60801 0.0
C1450 C 0.56183 0.16007 0.62304 0.0
C1451 C 0.6079 0.1699 0.70593 0.0
C1452 C 0.604 0.18697 0.71001 0.0
C1453 C 0.59629 0.15532 0.69365 0.0
C1454 C 0.5807 0.15763 0.68512 0.0
C1455 C 0.57703 0.17488 0.68892 0.0
C1456 C 0.58844 0.18932 0.70136 0.0
C1457 C 0.56829 0.14191 0.67226 0.0
C1458 C 0.57129 0.15002 0.65691 0.0
C1459 C 0.55496 0.11879 0.67494 0.0
C1460 C 0.55029 0.10931 0.69097 0.0
C1461 C 0.54156 0.11701 0.70241 0.0
C1462 C 0.53691 0.10777 0.71741 0.0
C1463 C 0.54079 0.09071 0.72107 0.0
C1464 C 0.54935 0.08288 0.70976 0.0
C1465 C 0.55407 0.09209 0.69476 0.0
H1466 H 0.53707 0.08346 0.73263 0.0
H1467 H 0.58372 0.17027 0.58644 0.0
H1468 H 0.43864 0.54568 0.75677 0.0
H1469 H 0.42238 0.54727 0.78167 0.0
H1470 H 0.48457 0.57068 0.80489 0.0
H1471 H 0.50089 0.56914 0.78007 0.0
H1472 H 0.44934 0.53991 0.8227 0.0
H1473 H 0.4714 0.60697 0.79364 0.0
H1474 H 0.47221 0.62864 0.77071 0.0
H1475 H 0.40237 0.60013 0.77401 0.0
H1476 H 0.40112 0.578 0.79684 0.0
H1477 H 0.4565 0.61077 0.8843 0.0
H1478 H 0.45962 0.59213 0.86115 0.0
H1479 H 0.3918 0.56792 0.84952 0.0
H1480 H 0.38841 0.58626 0.87297 0.0
H1481 H 0.4229 0.59285 0.82554 0.0
H1482 H 0.40302 0.53071 0.85821 0.0
H1483 H 0.404 0.51076 0.8816 0.0
H1484 H 0.47133 0.53169 0.87222 0.0
H1485 H 0.47088 0.55207 0.84889 0.0
C1486 C 0.44871 0.55086 0.76725 0.0
C1487 C 0.47099 0.55721 0.76651 0.0
C1488 C 0.43944 0.55179 0.78142 0.0
C1489 C 0.45231 0.55917 0.79508 0.0
C1490 C 0.47434 0.56482 0.79449 0.0
C1491 C 0.48365 0.564 0.78031 0.0
C1492 C 0.44338 0.56258 0.80977 0.0
C1493 C 0.44358 0.5515 0.82336 0.0
C1494 C 0.43542 0.57733 0.8105 0.0
C1495 C 0.43612 0.59061 0.7968 0.0
C1496 C 0.45619 0.60516 0.78938 0.0
C1497 C 0.45673 0.61755 0.77642 0.0
C1498 C 0.43734 0.6157 0.77087 0.0
C1499 C 0.41737 0.60149 0.7783 0.0
C1500 C 0.41673 0.58902 0.79125 0.0
C1501 C 0.44213 0.60112 0.87698 0.0
C1502 C 0.42225 0.60004 0.88036 0.0
C1503 C 0.4439 0.59039 0.86382 0.0
C1504 C 0.42592 0.57862 0.85368 0.0
C1505 C 0.4058 0.57684 0.85728 0.0
C1506 C 0.40388 0.58725 0.87067 0.0
C1507 C 0.42916 0.57045 0.83855 0.0
C1508 C 0.42808 0.58079 0.82484 0.0
C1509 C 0.43652 0.55522 0.83778 0.0
C1510 C 0.43695 0.54307 0.85184 0.0
C1511 C 0.41811 0.53124 0.86121 0.0
C1512 C 0.41855 0.51981 0.87444 0.0
C1513 C 0.43773 0.51999 0.87841 0.0
C1514 C 0.45649 0.53157 0.86914 0.0
C1515 C 0.45614 0.54305 0.85589 0.0
H1516 H 0.43804 0.51111 0.88866 0.0
H1517 H 0.4378 0.62533 0.76085 0.0
H1518 H 0.96098 0.46983 0.95592 0.0
H1519 H 0.92976 0.44761 0.97321 0.0
H1520 H 0.90139 0.48671 0.95995 0.0
H1521 H 0.9328 0.50917 0.9427 0.0
H1522 H 0.90125 0.48166 0.99142 0.0
H1523 H 0.87916 0.43388 0.9465 0.0
H1524 H 0.88373 0.41277 0.92528 0.0
H1525 H 0.89348 0.37355 0.95915 0.0
H1526 H 0.88928 0.39465 0.98059 0.0
H1527 H 0.80293 0.41193 0.0337 0.0
H1528 H 0.82862 0.43266 0.01259 0.0
H1529 H 0.85983 0.39436 0.01895 0.0
H1530 H 0.83383 0.37312 0.03966 0.0
H1531 H 0.85607 0.39928 0.98916 0.0
H1532 H 0.88183 0.4487 0.03379 0.0
H1533 H 0.87875 0.47026 0.05542 0.0
H1534 H 0.86354 0.50663 0.02258 0.0
H1535 H 0.86626 0.48508 0.00076 0.0
C1536 C 0.94792 0.47347 0.95652 0.0
C1537 C 0.94912 0.49098 0.94778 0.0
C1538 C 0.93009 0.46076 0.96638 0.0
C1539 C 0.9131 0.46531 0.96771 0.0
C1540 C 0.91426 0.48283 0.95903 0.0
C1541 C 0.93211 0.49555 0.94913 0.0
C1542 C 0.89463 0.45232 0.97869 0.0
C1543 C 0.89108 0.46367 0.99076 0.0
C1544 C 0.88172 0.42883 0.97803 0.0
C1545 C 0.88406 0.41596 0.96515 0.0
C1546 C 0.88242 0.42086 0.94943 0.0
C1547 C 0.88493 0.40887 0.93736 0.0
C1548 C 0.88893 0.39186 0.94086 0.0
C1549 C 0.89038 0.38675 0.95645 0.0
C1550 C 0.88791 0.39869 0.96857 0.0
C1551 C 0.81523 0.40788 0.03058 0.0
C1552 C 0.81636 0.39091 0.03843 0.0
C1553 C 0.82997 0.41982 0.01853 0.0
C1554 C 0.84641 0.41532 0.01431 0.0
C1555 C 0.84731 0.39814 0.02197 0.0
C1556 C 0.83243 0.38603 0.03385 0.0
C1557 C 0.86289 0.42858 0.00208 0.0
C1558 C 0.86607 0.41729 0.98974 0.0
C1559 C 0.87559 0.45213 0.00257 0.0
C1560 C 0.874 0.46511 0.01567 0.0
C1561 C 0.87766 0.46118 0.0312 0.0
C1562 C 0.87601 0.47342 0.04349 0.0
C1563 C 0.87089 0.48975 0.04038 0.0
C1564 C 0.86747 0.49394 0.02497 0.0
C1565 C 0.86907 0.48173 0.01264 0.0
H1566 H 0.86962 0.49921 0.04991 0.0
H1567 H 0.89087 0.3826 0.9315 0.0
H1568 H 0.4743 0.90483 0.08028 0.0
H1569 H 0.45736 0.88938 0.10565 0.0
H1570 H 0.52156 0.92032 0.12714 0.0
H1571 H 0.53861 0.93612 0.10178 0.0
H1572 H 0.49445 0.87466 0.13382 0.0
H1573 H 0.49065 0.94094 0.13495 0.0
H1574 H 0.48153 0.96792 0.12452 0.0
H1575 H 0.41313 0.91712 0.12293 0.0
H1576 H 0.42187 0.88974 0.13313 0.0
H1577 H 0.45136 0.83903 0.20994 0.0
H1578 H 0.47222 0.86247 0.1878 0.0
H1579 H 0.41159 0.84646 0.16478 0.0
H1580 H 0.39079 0.82398 0.18719 0.0
H1581 H 0.43964 0.88752 0.15993 0.0
H1582 H 0.44223 0.82057 0.15574 0.0
H1583 H 0.44972 0.79184 0.16493 0.0
H1584 H 0.5181 0.84131 0.17057 0.0
H1585 H 0.51096 0.87039 0.16163 0.0
C1586 C 0.48478 0.90855 0.09045 0.0
C1587 C 0.50776 0.92159 0.08906 0.0
C1588 C 0.47509 0.89976 0.10493 0.0
C1589 C 0.48822 0.90376 0.11826 0.0
C1590 C 0.51117 0.91704 0.11697 0.0
C1591 C 0.52086 0.92605 0.10252 0.0
C1592 C 0.47796 0.89315 0.13334 0.0
C1593 C 0.48275 0.87773 0.13972 0.0
C1594 C 0.46226 0.89675 0.14072 0.0
C1595 C 0.45695 0.91324 0.13469 0.0
C1596 C 0.47368 0.93548 0.13226 0.0
C1597 C 0.46858 0.95085 0.12641 0.0
C1598 C 0.44677 0.94423 0.12303 0.0
C1599 C 0.43002 0.92222 0.12554 0.0
C1600 C 0.43504 0.90677 0.13138 0.0
C1601 C 0.44251 0.8406 0.20017 0.0
C1602 C 0.41943 0.82958 0.20026 0.0
C1603 C 0.45444 0.85393 0.18749 0.0
C1604 C 0.44349 0.85592 0.17444 0.0
C1605 C 0.42045 0.84523 0.17468 0.0
C1606 C 0.40856 0.83231 0.18749 0.0
C1607 C 0.45586 0.8687 0.16038 0.0
C1608 C 0.45147 0.88453 0.15417 0.0
C1609 C 0.47165 0.86518 0.15296 0.0
C1610 C 0.47602 0.84768 0.15817 0.0
C1611 C 0.45884 0.82533 0.15903 0.0
C1612 C 0.46303 0.80899 0.16419 0.0
C1613 C 0.48437 0.81476 0.16837 0.0
C1614 C 0.50158 0.83687 0.16735 0.0
C1615 C 0.49747 0.85329 0.16224 0.0
H1616 H 0.48757 0.80208 0.17237 0.0
H1617 H 0.44286 0.95616 0.1185 0.0
H1618 H 0.60483 0.51413 0.25987 0.0
H1619 H 0.60881 0.49134 0.2798 0.0
H1620 H 0.55502 0.48762 0.30578 0.0
H1621 H 0.5508 0.51015 0.28586 0.0
H1622 H 0.59066 0.49724 0.32456 0.0
H1623 H 0.54579 0.44465 0.28459 0.0
H1624 H 0.5369 0.42966 0.2577 0.0
H1625 H 0.59434 0.42414 0.25713 0.0
H1626 H 0.60374 0.43942 0.28395 0.0
H1627 H 0.55922 0.38307 0.35886 0.0
H1628 H 0.55703 0.40552 0.33793 0.0
H1629 H 0.62326 0.4583 0.34823 0.0
H1630 H 0.62563 0.43613 0.36924 0.0
H1631 H 0.58118 0.42395 0.31122 0.0
H1632 H 0.62488 0.50766 0.34426 0.0
H1633 H 0.63176 0.52179 0.37142 0.0
H1634 H 0.57244 0.4632 0.38636 0.0
H1635 H 0.56507 0.44887 0.35927 0.0
C1636 C 0.59388 0.50845 0.26984 0.0
C1637 C 0.57751 0.5139 0.27133 0.0
C1638 C 0.59615 0.49544 0.28118 0.0
C1639 C 0.58214 0.48776 0.2942 0.0
C1640 C 0.56601 0.49345 0.29583 0.0
C1641 C 0.56362 0.50628 0.28446 0.0
C1642 C 0.58409 0.47361 0.30612 0.0
C1643 C 0.58869 0.48127 0.32164 0.0
C1644 C 0.58127 0.45268 0.3023 0.0
C1645 C 0.57559 0.4434 0.28621 0.0
C1646 C 0.55663 0.44042 0.27868 0.0
C1647 C 0.55148 0.43183 0.26346 0.0
C1648 C 0.56508 0.426 0.25569 0.0
C1649 C 0.58384 0.42869 0.26315 0.0
C1650 C 0.58908 0.4373 0.27836 0.0
C1651 C 0.57337 0.39941 0.35666 0.0
C1652 C 0.59253 0.40784 0.36586 0.0
C1653 C 0.57212 0.41217 0.34464 0.0
C1654 C 0.5899 0.43362 0.34165 0.0
C1655 C 0.60926 0.44187 0.35049 0.0
C1656 C 0.61056 0.42913 0.36249 0.0
C1657 C 0.58792 0.44767 0.32964 0.0
C1658 C 0.58334 0.44001 0.31411 0.0
C1659 C 0.59051 0.46851 0.33347 0.0
C1660 C 0.59457 0.47711 0.34977 0.0
C1661 C 0.61327 0.49784 0.35333 0.0
C1662 C 0.61726 0.50588 0.36871 0.0
C1663 C 0.60258 0.49337 0.38061 0.0
C1664 C 0.58384 0.47284 0.37714 0.0
C1665 C 0.57976 0.46474 0.36178 0.0
H1666 H 0.60571 0.49961 0.39251 0.0
H1667 H 0.56106 0.41936 0.24391 0.0
H1668 H 0.4455 0.92263 0.39074 0.0
H1669 H 0.43005 0.90114 0.36661 0.0
H1670 H 0.48998 0.90094 0.35904 0.0
H1671 H 0.50563 0.92281 0.38299 0.0
H1672 H 0.47574 0.909 0.3323 0.0
H1673 H 0.44422 0.85562 0.37379 0.0
H1674 H 0.42407 0.83991 0.39842 0.0
H1675 H 0.36653 0.8358 0.3785 0.0
H1676 H 0.38645 0.8518 0.35382 0.0
H1677 H 0.43559 0.82183 0.27626 0.0
H1678 H 0.45045 0.84348 0.30033 0.0
H1679 H 0.39147 0.84602 0.30592 0.0
H1680 H 0.37637 0.82429 0.28193 0.0
H1681 H 0.40495 0.83689 0.33352 0.0
H1682 H 0.43666 0.89025 0.29201 0.0
H1683 H 0.45688 0.90575 0.26737 0.0
H1684 H 0.51421 0.90958 0.28743 0.0
H1685 H 0.49422 0.89379 0.31213 0.0
C1686 C 0.45547 0.91828 0.38379 0.0
C1687 C 0.47694 0.92477 0.38857 0.0
C1688 C 0.44657 0.90584 0.3701 0.0
C1689 C 0.45881 0.89929 0.36109 0.0
C1690 C 0.48029 0.90589 0.36578 0.0
C1691 C 0.48921 0.91838 0.37943 0.0
C1692 C 0.44919 0.88537 0.34686 0.0
C1693 C 0.46041 0.89311 0.33261 0.0
C1694 C 0.42894 0.86483 0.3472 0.0
C1695 C 0.4169 0.85512 0.36201 0.0
C1696 C 0.42732 0.85153 0.3747 0.0
C1697 C 0.41593 0.84255 0.38867 0.0
C1698 C 0.39405 0.83692 0.39004 0.0
C1699 C 0.38349 0.8402 0.37743 0.0
C1700 C 0.39482 0.84921 0.36345 0.0
C1701 C 0.4257 0.82689 0.28262 0.0
C1702 C 0.40482 0.82142 0.27708 0.0
C1703 C 0.43428 0.83934 0.29635 0.0
C1704 C 0.42216 0.84656 0.3048 0.0
C1705 C 0.40111 0.84066 0.29954 0.0
C1706 C 0.39255 0.8283 0.28578 0.0
C1707 C 0.43155 0.86052 0.31902 0.0
C1708 C 0.42029 0.8528 0.33324 0.0
C1709 C 0.45178 0.88104 0.31867 0.0
C1710 C 0.46387 0.89063 0.30386 0.0
C1711 C 0.45352 0.89422 0.29112 0.0
C1712 C 0.46495 0.90309 0.27716 0.0
C1713 C 0.4868 0.90859 0.27583 0.0
C1714 C 0.49728 0.90528 0.28848 0.0
C1715 C 0.48591 0.89639 0.30246 0.0
H1716 H 0.49562 0.91545 0.26501 0.0
H1717 H 0.38526 0.82996 0.40086 0.0
H1718 H 0.59736 0.49027 0.55661 0.0
H1719 H 0.60309 0.47647 0.53183 0.0
H1720 H 0.53372 0.42753 0.52932 0.0
H1721 H 0.52815 0.44044 0.55445 0.0
H1722 H 0.5554 0.40903 0.52163 0.0
H1723 H 0.55977 0.47707 0.50635 0.0
H1724 H 0.5736 0.51728 0.50747 0.0
H1725 H 0.63876 0.5317 0.49689 0.0
H1726 H 0.62536 0.49156 0.4959 0.0
H1727 H 0.55072 0.37794 0.44258 0.0
H1728 H 0.54632 0.39368 0.46677 0.0
H1729 H 0.6166 0.43787 0.4699 0.0
H1730 H 0.62119 0.42254 0.44543 0.0
H1731 H 0.59528 0.45912 0.47718 0.0
H1732 H 0.58995 0.39037 0.49209 0.0
H1733 H 0.57527 0.35001 0.49048 0.0
H1734 H 0.51062 0.33689 0.5013 0.0
H1735 H 0.52487 0.37719 0.50277 0.0
C1736 C 0.58334 0.47669 0.55067 0.0
C1737 C 0.56225 0.46687 0.55728 0.0
C1738 C 0.58659 0.46887 0.53648 0.0
C1739 C 0.56875 0.45128 0.52849 0.0
C1740 C 0.54772 0.44124 0.53519 0.0
C1741 C 0.54452 0.44878 0.5495 0.0
C1742 C 0.57204 0.44287 0.51338 0.0
C1743 C 0.56386 0.41998 0.51185 0.0
C1744 C 0.58355 0.45717 0.50071 0.0
C1745 C 0.5916 0.48131 0.50119 0.0
C1746 C 0.57708 0.48882 0.50436 0.0
C1747 C 0.58483 0.5116 0.50496 0.0
C1748 C 0.60705 0.52704 0.50229 0.0
C1749 C 0.62155 0.51972 0.49897 0.0
C1750 C 0.61388 0.49696 0.49838 0.0
C1751 C 0.56529 0.39103 0.44837 0.0
C1752 C 0.58634 0.39885 0.4421 0.0
C1753 C 0.56272 0.39996 0.46224 0.0
C1754 C 0.58116 0.41667 0.47028 0.0
C1755 C 0.60216 0.42492 0.4639 0.0
C1756 C 0.60474 0.4161 0.44993 0.0
C1757 C 0.57847 0.42534 0.48544 0.0
C1758 C 0.58682 0.44824 0.48699 0.0
C1759 C 0.56697 0.41104 0.49809 0.0
C1760 C 0.55845 0.3868 0.49742 0.0
C1761 C 0.57258 0.37888 0.49404 0.0
C1762 C 0.56434 0.35602 0.49316 0.0
C1763 C 0.54202 0.3409 0.49576 0.0
C1764 C 0.52791 0.34862 0.49928 0.0
C1765 C 0.53606 0.37147 0.50016 0.0
H1766 H 0.53567 0.32321 0.49506 0.0
H1767 H 0.61303 0.54467 0.50276 0.0
H1768 H 0.05642 0.52574 0.70961 0.0
H1769 H 0.08134 0.54363 0.68758 0.0
H1770 H 0.12161 0.51797 0.70354 0.0
H1771 H 0.09677 0.50021 0.72576 0.0
H1772 H 0.14655 0.56107 0.69497 0.0
H1773 H 0.08827 0.4945 0.67265 0.0
H1774 H 0.04993 0.46582 0.66643 0.0
H1775 H 0.0415 0.51408 0.64171 0.0
H1776 H 0.0797 0.54316 0.64799 0.0
H1777 H 0.20528 0.58759 0.62199 0.0
H1778 H 0.18162 0.56598 0.64388 0.0
H1779 H 0.14219 0.59565 0.6368 0.0
H1780 H 0.16587 0.61755 0.6151 0.0
H1781 H 0.11781 0.54791 0.64054 0.0
H1782 H 0.17611 0.61482 0.66503 0.0
H1783 H 0.21481 0.64263 0.67106 0.0
H1784 H 0.2235 0.59177 0.69132 0.0
H1785 H 0.18489 0.56359 0.6852 0.0
C1786 C 0.07068 0.52407 0.70847 0.0
C1787 C 0.07484 0.51184 0.71951 0.0
C1788 C 0.08481 0.53414 0.69583 0.0
C1789 C 0.10322 0.53196 0.69385 0.0
C1790 C 0.1075 0.51987 0.70487 0.0
C1791 C 0.09334 0.50976 0.71754 0.0
C1792 C 0.11798 0.54247 0.68027 0.0
C1793 C 0.14033 0.55789 0.68305 0.0
C1794 C 0.10983 0.53849 0.66472 0.0
C1795 C 0.08681 0.52107 0.66092 0.0
C1796 C 0.07819 0.49905 0.666 0.0
C1797 C 0.05649 0.48271 0.66245 0.0
C1798 C 0.04327 0.48813 0.65371 0.0
C1799 C 0.05175 0.50991 0.64849 0.0
C1800 C 0.07343 0.52633 0.65203 0.0
C1801 C 0.19152 0.58946 0.62507 0.0
C1802 C 0.18747 0.60433 0.61685 0.0
C1803 C 0.17809 0.57716 0.63758 0.0
C1804 C 0.16025 0.57931 0.64193 0.0
C1805 C 0.15591 0.59379 0.63358 0.0
C1806 C 0.16951 0.60635 0.62125 0.0
C1807 C 0.14617 0.5667 0.65532 0.0
C1808 C 0.12399 0.55088 0.65247 0.0
C1809 C 0.15452 0.57014 0.67077 0.0
C1810 C 0.1777 0.58706 0.67448 0.0
C1811 C 0.18633 0.60953 0.67063 0.0
C1812 C 0.20824 0.62537 0.6741 0.0
C1813 C 0.22163 0.61896 0.68152 0.0
C1814 C 0.21312 0.5967 0.68554 0.0
C1815 C 0.19122 0.58079 0.68208 0.0
H1816 H 0.23858 0.63125 0.6842 0.0
H1817 H 0.02648 0.47545 0.65096 0.0
H1818 H 0.5522 0.0667 0.89366 0.0
H1819 H 0.57199 0.1012 0.87018 0.0
H1820 H 0.498 0.08207 0.84999 0.0
H1821 H 0.47609 0.04717 0.87303 0.0
H1822 H 0.52957 0.09087 0.82777 0.0
H1823 H 0.53773 0.13755 0.87173 0.0
H1824 H 0.54671 0.15077 0.89906 0.0
H1825 H 0.61274 0.16512 0.89266 0.0
H1826 H 0.60407 0.15187 0.8653 0.0
H1827 H 0.57507 0.18608 0.77876 0.0
H1828 H 0.55484 0.16049 0.80015 0.0
H1829 H 0.61487 0.16633 0.81702 0.0
H1830 H 0.63523 0.19186 0.79568 0.0
H1831 H 0.58917 0.16765 0.841 0.0
H1832 H 0.58126 0.12262 0.7963 0.0
H1833 H 0.57203 0.10979 0.76893 0.0
H1834 H 0.5051 0.09175 0.77663 0.0
H1835 H 0.51401 0.1048 0.804 0.0
C1836 C 0.5422 0.06906 0.88525 0.0
C1837 C 0.51191 0.05604 0.88766 0.0
C1838 C 0.55429 0.0912 0.87116 0.0
C1839 C 0.53719 0.09647 0.85841 0.0
C1840 C 0.50758 0.07903 0.85837 0.0
C1841 C 0.49382 0.05649 0.87206 0.0
C1842 C 0.54791 0.11383 0.84639 0.0
C1843 C 0.54228 0.10779 0.83067 0.0
C1844 C 0.56486 0.13566 0.85017 0.0
C1845 C 0.57017 0.14346 0.86659 0.0
C1846 C 0.55413 0.14343 0.8762 0.0
C1847 C 0.55917 0.15096 0.89167 0.0
C1848 C 0.58026 0.1587 0.89761 0.0
C1849 C 0.59639 0.15904 0.88806 0.0
C1850 C 0.59143 0.15156 0.87256 0.0
C1851 C 0.58402 0.1821 0.7871 0.0
C1852 C 0.60675 0.1909 0.78545 0.0
C1853 C 0.57241 0.16741 0.79928 0.0
C1854 C 0.58335 0.16138 0.81006 0.0
C1855 C 0.60614 0.17076 0.80879 0.0
C1856 C 0.61772 0.18526 0.79654 0.0
C1857 C 0.57093 0.14468 0.82235 0.0
C1858 C 0.57629 0.1508 0.8381 0.0
C1859 C 0.55379 0.12285 0.81857 0.0
C1860 C 0.54837 0.11497 0.80213 0.0
C1861 C 0.56462 0.11613 0.79211 0.0
C1862 C 0.55944 0.10878 0.77661 0.0
C1863 C 0.53801 0.10005 0.77104 0.0
C1864 C 0.5217 0.09858 0.78096 0.0
C1865 C 0.52681 0.10594 0.79647 0.0
H1866 H 0.53402 0.09438 0.75905 0.0
H1867 H 0.58413 0.16449 0.9096 0.0
H1868 H 0.44556 0.53826 0.07901 0.0
H1869 H 0.42851 0.54576 0.05029 0.0
H1870 H 0.49357 0.62326 0.04622 0.0
H1871 H 0.5123 0.61788 0.07468 0.0
H1872 H 0.45646 0.61975 0.03858 0.0
H1873 H 0.47964 0.56909 0.0181 0.0
H1874 H 0.47998 0.5341 0.01853 0.0
H1875 H 0.40939 0.49641 0.01693 0.0
H1876 H 0.40872 0.53123 0.01656 0.0
H1877 H 0.46381 0.64882 0.96014 0.0
H1878 H 0.46829 0.63627 0.98564 0.0
H1879 H 0.40285 0.5787 0.98237 0.0
H1880 H 0.39819 0.59104 0.95661 0.0
H1881 H 0.43272 0.56809 0.99323 0.0
H1882 H 0.41113 0.61975 0.00599 0.0
H1883 H 0.41125 0.65486 0.00468 0.0
H1884 H 0.47801 0.69086 0.02118 0.0
H1885 H 0.47842 0.65599 0.02235 0.0
C1886 C 0.454 0.55422 0.07322 0.0
C1887 C 0.48286 0.57609 0.07827 0.0
C1888 C 0.44414 0.55866 0.05492 0.0
C1889 C 0.45993 0.58468 0.04454 0.0
C1890 C 0.48509 0.60765 0.05245 0.0
C1891 C 0.49632 0.60489 0.07057 0.0
C1892 C 0.45136 0.5886 0.02993 0.0
C1893 C 0.45146 0.60854 0.02862 0.0
C1894 C 0.44382 0.57351 0.01721 0.0
C1895 C 0.44413 0.55265 0.01759 0.0
C1896 C 0.46422 0.55331 0.01794 0.0
C1897 C 0.46447 0.53353 0.01814 0.0
C1898 C 0.44471 0.51304 0.01784 0.0
C1899 C 0.42467 0.51229 0.01724 0.0
C1900 C 0.42435 0.53202 0.01702 0.0
C1901 C 0.45032 0.63347 0.96477 0.0
C1902 C 0.4306 0.62099 0.95631 0.0
C1903 C 0.45288 0.62637 0.97941 0.0
C1904 C 0.43578 0.60672 0.98599 0.0
C1905 C 0.4162 0.59397 0.97751 0.0
C1906 C 0.41357 0.6011 0.96282 0.0
C1907 C 0.43871 0.59969 0.00169 0.0
C1908 C 0.43745 0.57917 0.00325 0.0
C1909 C 0.44501 0.6142 0.01473 0.0
C1910 C 0.44484 0.63524 0.01415 0.0
C1911 C 0.42589 0.63517 0.00923 0.0
C1912 C 0.42586 0.65503 0.00853 0.0
C1913 C 0.44464 0.67509 0.01282 0.0
C1914 C 0.46348 0.67531 0.01786 0.0
C1915 C 0.46361 0.65549 0.01856 0.0
H1916 H 0.44458 0.69045 0.01227 0.0
H1917 H 0.44494 0.49775 0.01801 0.0
H1918 H 0.93806 0.52204 0.19913 0.0
H1919 H 0.91012 0.50076 0.1792 0.0
H1920 H 0.90543 0.44037 0.1956 0.0
H1921 H 0.93418 0.46172 0.21492 0.0
H1922 H 0.90568 0.44046 0.16551 0.0
H1923 H 0.86536 0.45537 0.20396 0.0
H1924 H 0.85832 0.47921 0.22122 0.0
H1925 H 0.85514 0.51442 0.18124 0.0
H1926 H 0.86243 0.49097 0.16376 0.0
H1927 H 0.80977 0.36525 0.12432 0.0
H1928 H 0.83477 0.38634 0.14573 0.0
H1929 H 0.84133 0.44679 0.12763 0.0
H1930 H 0.81569 0.42563 0.10641 0.0
H1931 H 0.83972 0.44672 0.15865 0.0
H1932 H 0.88046 0.4321 0.12035 0.0
H1933 H 0.88756 0.40832 0.10307 0.0
H1934 H 0.88998 0.37256 0.14297 0.0
H1935 H 0.88262 0.39594 0.16047 0.0
C1936 C 0.9309 0.50419 0.19853 0.0
C1937 C 0.93793 0.49354 0.20887 0.0
C1938 C 0.91486 0.49202 0.1872 0.0
C1939 C 0.90522 0.46884 0.18613 0.0
C1940 C 0.91245 0.4582 0.19628 0.0
C1941 C 0.92878 0.47042 0.20743 0.0
C1942 C 0.88809 0.45576 0.17413 0.0
C1943 C 0.8911 0.44159 0.1642 0.0
C1944 C 0.86932 0.45763 0.17208 0.0
C1945 C 0.86461 0.47152 0.18256 0.0
C1946 C 0.86327 0.46827 0.19886 0.0
C1947 C 0.85922 0.48171 0.20868 0.0
C1948 C 0.85633 0.49834 0.20233 0.0
C1949 C 0.8574 0.50153 0.18614 0.0
C1950 C 0.86146 0.48816 0.17627 0.0
C1951 C 0.8164 0.38301 0.12494 0.0
C1952 C 0.81093 0.39381 0.11356 0.0
C1953 C 0.83076 0.39507 0.13717 0.0
C1954 C 0.84035 0.41823 0.13808 0.0
C1955 C 0.83423 0.42894 0.12711 0.0
C1956 C 0.81959 0.41683 0.11498 0.0
C1957 C 0.85727 0.43134 0.15017 0.0
C1958 C 0.85427 0.44555 0.16005 0.0
C1959 C 0.87607 0.42951 0.1522 0.0
C1960 C 0.88082 0.41565 0.1417 0.0
C1961 C 0.8824 0.41909 0.12543 0.0
C1962 C 0.88648 0.40569 0.11559 0.0
C1963 C 0.88918 0.38891 0.12191 0.0
C1964 C 0.88788 0.38555 0.13809 0.0
C1965 C 0.88378 0.39888 0.14797 0.0
H1966 H 0.89231 0.37854 0.11428 0.0
H1967 H 0.85322 0.50875 0.20996 0.0
loop_
_geom_bond_atom_site_label_1
_geom_bond_atom_site_label_2
_geom_bond_distance
_geom_bond_site_symmetry_2
_ccdc_geom_bond_type
C0 C1 1.560 . S
C0 H61 0.959 . S
C0 H62 0.959 . S
C0 H63 0.960 . S
C1 C0 1.560 . S
C1 O56 1.426 . S
C1 H60 0.980 . S
C2 C3 1.407 . S
C2 C7 1.418 . S
C2 O56 1.334 . S
C3 C2 1.407 . S
C3 C4 1.360 . S
C3 H64 0.929 . S
C4 C3 1.360 . S
C4 C5 1.401 . S
C4 C8 1.527 . S
C5 C4 1.401 . S
C5 C6 1.405 . S
C5 C38 1.587 . S
C6 C5 1.405 . S
C6 C7 1.332 . S
C6 C9 1.496 . S
C7 C2 1.418 . S
C7 C6 1.332 . S
C7 H65 0.929 . S
C8 C4 1.527 . S
C8 H66 0.959 . S
C8 H67 0.961 . S
C8 H68 0.961 . S
C9 C6 1.496 . S
C9 H69 0.960 . S
C9 H70 0.960 . S
C9 H71 0.961 . S
C10 C11 1.517 . S
C10 H73 0.961 . S
C10 H74 0.960 . S
C10 H75 0.959 . S
C11 C10 1.517 . S
C11 O59 1.468 . S
C11 H72 0.980 . S
C12 C13 1.349 . S
C12 C17 1.367 . S
C12 O59 1.408 . S
C13 C12 1.349 . S
C13 C14 1.407 . S
C13 H76 0.930 . S
C14 C13 1.407 . S
C14 C15 1.449 . S
C14 C18 1.535 . S
C15 C14 1.449 . S
C15 C16 1.384 . S
C15 C40 1.553 1_655 S
C16 C15 1.384 . S
C16 C17 1.364 . S
C16 C19 1.450 . S
C17 C12 1.367 . S
C17 C16 1.364 . S
C17 H77 0.931 . S
C18 C14 1.535 . S
C18 H78 0.959 1_655 S
C18 H79 0.961 1_655 S
C18 H80 0.959 . S
C19 C16 1.450 . S
C19 H81 0.960 . S
C19 H82 0.960 1_655 S
C19 H83 0.960 . S
C20 C21 1.309 . S
C20 C25 1.304 . S
C20 O58 1.435 . S
C21 C20 1.309 . S
C21 C22 1.476 . S
C21 H85 0.930 . S
C22 C21 1.476 . S
C22 C23 1.400 . S
C22 C26 1.567 . S
C23 C22 1.400 . S
C23 C24 1.373 . S
C23 C45 1.432 . S
C24 C23 1.373 . S
C24 C25 1.339 . S
C24 C27 1.530 . S
C25 C20 1.304 . S
C25 C24 1.339 . S
C25 H86 0.930 . S
C26 C22 1.567 . S
C26 H87 0.961 . S
C26 H88 0.960 . S
C26 H89 0.958 . S
C27 C24 1.530 . S
C27 H90 0.961 . S
C27 H91 0.960 . S
C27 H92 0.960 . S
C28 C29 1.530 . S
C28 H94 0.961 . S
C28 H95 0.961 . S
C28 H96 0.959 . S
C29 C28 1.530 . S
C29 O57 1.412 . S
C29 H93 0.980 . S
C30 C31 1.288 . S
C30 C35 1.377 . S
C30 O57 1.393 . S
C31 C30 1.288 . S
C31 C32 1.369 . S
C31 H97 0.932 . S
C32 C31 1.369 . S
C32 C33 1.398 . S
C32 C36 1.527 . S
C33 C32 1.398 . S
C33 C34 1.380 . S
C33 C47 1.497 . S
C34 C33 1.380 . S
C34 C35 1.383 . S
C34 C37 1.603 . S
C35 C30 1.377 . S
C35 C34 1.383 . S
C35 H98 0.929 . S
C36 C32 1.527 . S
C36 H99 0.961 . S
C36 H100 0.959 . S
C36 H101 0.959 . S
C37 C34 1.603 . S
C37 H102 0.960 . S
C37 H103 0.962 . S
C37 H104 0.961 . S
C38 C5 1.587 . S
C38 C39 1.360 . S
C38 C51 1.412 . S
C39 C38 1.360 . S
C39 C40 1.365 . S
C39 H105 0.929 . S
C40 C15 1.553 1_455 S
C40 C39 1.365 . S
C40 C41 1.428 . S
C41 C40 1.428 . S
C41 C42 1.346 1_455 S
C41 C52 1.480 . S
C42 C41 1.346 1_655 S
C42 C43 1.322 . S
C42 H106 0.930 . S
C43 C42 1.322 . S
C43 C44 1.459 . S
C43 H107 0.929 . S
C44 C43 1.459 . S
C44 C45 1.445 . S
C44 C53 1.395 1_655 S
C45 C23 1.432 . S
C45 C44 1.445 . S
C45 C46 1.370 . S
C46 C45 1.370 . S
C46 C47 1.438 1_655 S
C46 H108 0.930 . S
C47 C33 1.497 . S
C47 C46 1.438 1_455 S
C47 C48 1.360 . S
C48 C47 1.360 . S
C48 C49 1.401 . S
C48 C53 1.446 . S
C49 C48 1.401 . S
C49 C50 1.347 . S
C49 H109 0.929 . S
C50 C49 1.347 . S
C50 C51 1.455 . S
C50 H110 0.930 . S
C51 C38 1.412 . S
C51 C50 1.455 . S
C51 C52 1.331 . S
C52 C41 1.480 . S
C52 C51 1.331 . S
C52 C53 1.497 . S
C53 C44 1.395 1_455 S
C53 C48 1.446 . S
C53 C52 1.497 . S
C54 C55 1.582 . S
C54 H111 0.962 . S
C54 H112 0.959 . S
C54 H113 0.958 . S
C55 C54 1.582 . S
C55 O58 1.458 . S
C55 H84 0.980 . S
O56 C1 1.426 . S
O56 C2 1.334 . S
O57 C29 1.412 . S
O57 C30 1.393 . S
O58 C20 1.435 . S
O58 C55 1.458 . S
O59 C11 1.468 . S
O59 C12 1.408 . S
H60 C1 0.980 . S
H61 C0 0.959 . S
H62 C0 0.959 . S
H63 C0 0.960 . S
H64 C3 0.929 . S
H65 C7 0.929 . S
H66 C8 0.959 . S
H67 C8 0.961 . S
H68 C8 0.961 . S
H69 C9 0.960 . S
H70 C9 0.960 . S
H71 C9 0.961 . S
H72 C11 0.980 . S
H73 C10 0.961 . S
H74 C10 0.960 . S
H75 C10 0.959 . S
H76 C13 0.930 . S
H77 C17 0.931 . S
H78 C18 0.959 1_455 S
H79 C18 0.961 1_455 S
H80 C18 0.959 . S
H81 C19 0.960 . S
H82 C19 0.960 1_455 S
H83 C19 0.960 . S
H84 C55 0.980 . S
H85 C21 0.930 . S
H86 C25 0.930 . S
H87 C26 0.961 . S
H88 C26 0.960 . S
H89 C26 0.958 . S
H90 C27 0.961 . S
H91 C27 0.960 . S
H92 C27 0.960 . S
H93 C29 0.980 . S
H94 C28 0.961 . S
H95 C28 0.961 . S
H96 C28 0.959 . S
H97 C31 0.932 . S
H98 C35 0.929 . S
H99 C36 0.961 . S
H100 C36 0.959 . S
H101 C36 0.959 . S
H102 C37 0.960 . S
H103 C37 0.962 . S
H104 C37 0.961 . S
H105 C39 0.929 . S
H106 C42 0.930 . S
H107 C43 0.929 . S
H108 C46 0.930 . S
H109 C49 0.929 . S
H110 C50 0.930 . S
H111 C54 0.962 . S
H112 C54 0.959 . S
H113 C54 0.958 . S
C114 C115 1.560 . S
C114 H175 0.959 . S
C114 H176 0.959 . S
C114 H177 0.960 . S
C115 C114 1.560 . S
C115 O170 1.426 . S
C115 H174 0.980 . S
C116 C117 1.407 . S
C116 C121 1.418 . S
C116 O170 1.334 . S
C117 C116 1.407 . S
C117 C118 1.360 . S
C117 H178 0.929 . S
C118 C117 1.360 . S
C118 C119 1.401 . S
C118 C122 1.527 . S
C119 C118 1.401 . S
C119 C120 1.405 . S
C119 C152 1.587 . S
C120 C119 1.405 . S
C120 C121 1.332 . S
C120 C123 1.496 . S
C121 C116 1.418 . S
C121 C120 1.332 . S
C121 H179 0.929 . S
C122 C118 1.527 . S
C122 H180 0.959 . S
C122 H181 0.961 . S
C122 H182 0.961 . S
C123 C120 1.496 . S
C123 H183 0.960 . S
C123 H184 0.960 . S
C123 H185 0.961 . S
C124 C125 1.517 . S
C124 H187 0.961 . S
C124 H188 0.960 . S
C124 H189 0.959 . S
C125 C124 1.517 . S
C125 O173 1.468 . S
C125 H186 0.980 . S
C126 C127 1.349 . S
C126 C131 1.367 . S
C126 O173 1.408 . S
C127 C126 1.349 . S
C127 C128 1.407 . S
C127 H190 0.930 . S
C128 C127 1.407 . S
C128 C129 1.449 . S
C128 C132 1.535 . S
C129 C128 1.449 . S
C129 C130 1.384 . S
C129 C154 1.553 . S
C130 C129 1.384 . S
C130 C131 1.364 . S
C130 C133 1.450 . S
C131 C126 1.367 . S
C131 C130 1.364 . S
C131 H191 0.931 . S
C132 C128 1.535 . S
C132 H192 0.959 . S
C132 H193 0.961 . S
C132 H194 0.959 . S
C133 C130 1.450 . S
C133 H195 0.960 . S
C133 H196 0.960 . S
C133 H197 0.960 . S
C134 C135 1.309 . S
C134 C139 1.304 . S
C134 O172 1.435 . S
C135 C134 1.309 . S
C135 C136 1.476 . S
C135 H199 0.930 . S
C136 C135 1.476 . S
C136 C137 1.400 . S
C136 C140 1.567 . S
C137 C136 1.400 . S
C137 C138 1.373 . S
C137 C159 1.432 . S
C138 C137 1.373 . S
C138 C139 1.339 . S
C138 C141 1.530 . S
C139 C134 1.304 . S
C139 C138 1.339 . S
C139 H200 0.930 . S
C140 C136 1.567 . S
C140 H201 0.961 . S
C140 H202 0.960 . S
C140 H203 0.958 . S
C141 C138 1.530 . S
C141 H204 0.961 . S
C141 H205 0.960 . S
C141 H206 0.960 . S
C142 C143 1.530 . S
C142 H208 0.961 . S
C142 H209 0.961 . S
C142 H210 0.959 . S
C143 C142 1.530 . S
C143 O171 1.412 . S
C143 H207 0.980 . S
C144 C145 1.288 . S
C144 C149 1.377 . S
C144 O171 1.393 . S
C145 C144 1.288 . S
C145 C146 1.369 . S
C145 H211 0.932 . S
C146 C145 1.369 . S
C146 C147 1.398 . S
C146 C150 1.527 1_565 S
C147 C146 1.398 . S
C147 C148 1.380 . S
C147 C161 1.497 1_565 S
C148 C147 1.380 . S
C148 C149 1.383 . S
C148 C151 1.603 . S
C149 C144 1.377 . S
C149 C148 1.383 . S
C149 H212 0.929 . S
C150 C146 1.527 1_545 S
C150 H213 0.961 . S
C150 H214 0.959 . S
C150 H215 0.959 1_545 S
C151 C148 1.603 . S
C151 H216 0.960 . S
C151 H217 0.962 . S
C151 H218 0.961 . S
C152 C119 1.587 . S
C152 C153 1.360 . S
C152 C165 1.412 . S
C153 C152 1.360 . S
C153 C154 1.365 1_565 S
C153 H219 0.929 . S
C154 C129 1.553 . S
C154 C153 1.365 1_545 S
C154 C155 1.404 . S
C155 C154 1.404 . S
C155 C156 1.395 . S
C155 C166 1.451 . S
C156 C155 1.395 . S
C156 C157 1.322 . S
C156 H220 0.930 . S
C157 C156 1.322 . S
C157 C158 1.459 . S
C157 H221 0.929 . S
C158 C157 1.459 . S
C158 C159 1.445 . S
C158 C167 1.395 . S
C159 C137 1.432 . S
C159 C158 1.445 . S
C159 C160 1.370 . S
C160 C159 1.370 . S
C160 C161 1.438 . S
C160 H222 0.930 . S
C161 C147 1.497 1_545 S
C161 C160 1.438 . S
C161 C162 1.360 1_545 S
C162 C161 1.360 1_565 S
C162 C163 1.400 . S
C162 C167 1.446 1_565 S
C163 C162 1.400 . S
C163 C164 1.347 . S
C163 H223 0.929 . S
C164 C163 1.347 . S
C164 C165 1.455 . S
C164 H224 0.930 . S
C165 C152 1.412 . S
C165 C164 1.455 . S
C165 C166 1.331 1_565 S
C166 C155 1.451 . S
C166 C165 1.331 1_545 S
C166 C167 1.497 . S
C167 C158 1.395 . S
C167 C162 1.446 1_545 S
C167 C166 1.497 . S
C168 C169 1.582 . S
C168 H225 0.962 . S
C168 H226 0.959 . S
C168 H227 0.958 . S
C169 C168 1.582 . S
C169 O172 1.458 . S
C169 H198 0.980 . S
O170 C115 1.426 . S
O170 C116 1.334 . S
O171 C143 1.412 . S
O171 C144 1.393 . S
O172 C134 1.435 . S
O172 C169 1.458 . S
O173 C125 1.468 . S
O173 C126 1.408 . S
H174 C115 0.980 . S
H175 C114 0.959 . S
H176 C114 0.959 . S
H177 C114 0.960 . S
H178 C117 0.929 . S
H179 C121 0.929 . S
H180 C122 0.959 . S
H181 C122 0.961 . S
H182 C122 0.961 . S
H183 C123 0.960 . S
H184 C123 0.960 . S
H185 C123 0.961 . S
H186 C125 0.980 . S
H187 C124 0.961 . S
H188 C124 0.960 . S
H189 C124 0.959 . S
H190 C127 0.930 . S
H191 C131 0.931 . S
H192 C132 0.959 . S
H193 C132 0.961 . S
H194 C132 0.959 . S
H195 C133 0.960 . S
H196 C133 0.960 . S
H197 C133 0.960 . S
H198 C169 0.980 . S
H199 C135 0.930 . S
H200 C139 0.930 . S
H201 C140 0.961 . S
H202 C140 0.960 . S
H203 C140 0.958 . S
H204 C141 0.961 . S
H205 C141 0.960 . S
H206 C141 0.960 . S
H207 C143 0.980 . S
H208 C142 0.961 . S
H209 C142 0.961 . S
H210 C142 0.959 . S
H211 C145 0.932 . S
H212 C149 0.929 . S
H213 C150 0.961 . S
H214 C150 0.959 . S
H215 C150 0.959 1_565 S
H216 C151 0.960 . S
H217 C151 0.962 . S
H218 C151 0.961 . S
H219 C153 0.929 . S
H220 C156 0.930 . S
H221 C157 0.929 . S
H222 C160 0.930 . S
H223 C163 0.929 . S
H224 C164 0.930 . S
H225 C168 0.962 . S
H226 C168 0.959 . S
H227 C168 0.958 . S
C228 C229 1.560 . S
C228 H289 0.959 . S
C228 H290 0.959 . S
C228 H291 0.960 . S
C229 C228 1.560 . S
C229 O284 1.426 . S
C229 H288 0.980 . S
C230 C231 1.407 . S
C230 C235 1.418 . S
C230 O284 1.334 . S
C231 C230 1.407 . S
C231 C232 1.360 . S
C231 H292 0.929 . S
C232 C231 1.360 . S
C232 C233 1.401 . S
C232 C236 1.527 . S
C233 C232 1.401 . S
C233 C234 1.405 . S
C233 C266 1.587 . S
C234 C233 1.405 . S
C234 C235 1.332 . S
C234 C237 1.496 . S
C235 C230 1.418 . S
C235 C234 1.332 . S
C235 H293 0.929 . S
C236 C232 1.527 . S
C236 H294 0.959 . S
C236 H295 0.961 . S
C236 H296 0.961 . S
C237 C234 1.496 . S
C237 H297 0.960 . S
C237 H298 0.960 . S
C237 H299 0.961 . S
C238 C239 1.517 . S
C238 H301 0.961 . S
C238 H302 0.960 . S
C238 H303 0.959 . S
C239 C238 1.517 . S
C239 O287 1.468 . S
C239 H300 0.980 . S
C240 C241 1.349 . S
C240 C245 1.367 . S
C240 O287 1.408 . S
C241 C240 1.349 . S
C241 C242 1.407 . S
C241 H304 0.930 . S
C242 C241 1.407 . S
C242 C243 1.449 . S
C242 C246 1.535 . S
C243 C242 1.449 . S
C243 C244 1.384 . S
C243 C268 1.553 . S
C244 C243 1.384 . S
C244 C245 1.364 . S
C244 C247 1.450 . S
C245 C240 1.367 . S
C245 C244 1.364 . S
C245 H305 0.931 . S
C246 C242 1.535 . S
C246 H306 0.959 . S
C246 H307 0.961 . S
C246 H308 0.959 . S
C247 C244 1.450 . S
C247 H309 0.960 . S
C247 H310 0.960 . S
C247 H311 0.960 . S
C248 C249 1.309 . S
C248 C253 1.304 . S
C248 O286 1.435 . S
C249 C248 1.309 . S
C249 C250 1.476 . S
C249 H313 0.930 . S
C250 C249 1.476 . S
C250 C251 1.400 . S
C250 C254 1.567 . S
C251 C250 1.400 . S
C251 C252 1.373 . S
C251 C273 1.432 . S
C252 C251 1.373 . S
C252 C253 1.339 . S
C252 C255 1.530 . S
C253 C248 1.304 . S
C253 C252 1.339 . S
C253 H314 0.930 . S
C254 C250 1.567 . S
C254 H315 0.961 . S
C254 H316 0.960 . S
C254 H317 0.958 . S
C255 C252 1.530 . S
C255 H318 0.961 . S
C255 H319 0.960 . S
C255 H320 0.960 . S
C256 C257 1.530 . S
C256 H322 0.961 . S
C256 H323 0.961 . S
C256 H324 0.959 . S
C257 C256 1.530 . S
C257 O285 1.412 . S
C257 H321 0.980 . S
C258 C259 1.288 . S
C258 C263 1.377 . S
C258 O285 1.393 . S
C259 C258 1.288 . S
C259 C260 1.369 . S
C259 H325 0.932 . S
C260 C259 1.369 . S
C260 C261 1.398 . S
C260 C264 1.527 . S
C261 C260 1.398 . S
C261 C262 1.380 . S
C261 C275 1.497 . S
C262 C261 1.380 . S
C262 C263 1.383 . S
C262 C265 1.603 . S
C263 C258 1.377 . S
C263 C262 1.383 . S
C263 H326 0.929 . S
C264 C260 1.527 . S
C264 H327 0.961 . S
C264 H328 0.959 . S
C264 H329 0.959 . S
C265 C262 1.603 . S
C265 H330 0.960 . S
C265 H331 0.962 . S
C265 H332 0.961 . S
C266 C233 1.587 . S
C266 C267 1.360 . S
C266 C279 1.412 . S
C267 C266 1.360 . S
C267 C268 1.365 . S
C267 H333 0.929 . S
C268 C243 1.553 . S
C268 C267 1.365 . S
C268 C269 1.404 . S
C269 C268 1.404 . S
C269 C270 1.395 . S
C269 C280 1.451 . S
C270 C269 1.395 . S
C270 C271 1.322 . S
C270 H334 0.930 . S
C271 C270 1.322 . S
C271 C272 1.459 . S
C271 H335 0.929 . S
C272 C271 1.459 . S
C272 C273 1.445 . S
C272 C281 1.395 . S
C273 C251 1.432 . S
C273 C272 1.445 . S
C273 C274 1.370 . S
C274 C273 1.370 . S
C274 C275 1.438 . S
C274 H336 0.930 . S
C275 C261 1.497 . S
C275 C274 1.438 . S
C275 C276 1.360 . S
C276 C275 1.360 . S
C276 C277 1.401 . S
C276 C281 1.446 . S
C277 C276 1.401 . S
C277 C278 1.347 . S
C277 H337 0.929 . S
C278 C277 1.347 . S
C278 C279 1.455 . S
C278 H338 0.930 . S
C279 C266 1.412 . S
C279 C278 1.455 . S
C279 C280 1.331 . S
C280 C269 1.451 . S
C280 C279 1.331 . S
C280 C281 1.497 . S
C281 C272 1.395 . S
C281 C276 1.446 . S
C281 C280 1.497 . S
C282 C283 1.582 . S
C282 H339 0.962 . S
C282 H340 0.959 . S
C282 H341 0.958 . S
C283 C282 1.582 . S
C283 O286 1.458 . S
C283 H312 0.980 . S
O284 C229 1.426 . S
O284 C230 1.334 . S
O285 C257 1.412 . S
O285 C258 1.393 . S
O286 C248 1.435 . S
O286 C283 1.458 . S
O287 C239 1.468 . S
O287 C240 1.408 . S
H288 C229 0.980 . S
H289 C228 0.959 . S
H290 C228 0.959 . S
H291 C228 0.960 . S
H292 C231 0.929 . S
H293 C235 0.929 . S
H294 C236 0.959 . S
H295 C236 0.961 . S
H296 C236 0.961 . S
H297 C237 0.960 . S
H298 C237 0.960 . S
H299 C237 0.961 . S
H300 C239 0.980 . S
H301 C238 0.961 . S
H302 C238 0.960 . S
H303 C238 0.959 . S
H304 C241 0.930 . S
H305 C245 0.931 . S
H306 C246 0.959 . S
H307 C246 0.961 . S
H308 C246 0.959 . S
H309 C247 0.960 . S
H310 C247 0.960 . S
H311 C247 0.960 . S
H312 C283 0.980 . S
H313 C249 0.930 . S
H314 C253 0.930 . S
H315 C254 0.961 . S
H316 C254 0.960 . S
H317 C254 0.958 . S
H318 C255 0.961 . S
H319 C255 0.960 . S
H320 C255 0.960 . S
H321 C257 0.980 . S
H322 C256 0.961 . S
H323 C256 0.961 . S
H324 C256 0.959 . S
H325 C259 0.932 . S
H326 C263 0.929 . S
H327 C264 0.961 . S
H328 C264 0.959 . S
H329 C264 0.959 . S
H330 C265 0.960 . S
H331 C265 0.962 . S
H332 C265 0.961 . S
H333 C267 0.929 . S
H334 C270 0.930 . S
H335 C271 0.929 . S
H336 C274 0.930 . S
H337 C277 0.929 . S
H338 C278 0.930 . S
H339 C282 0.962 . S
H340 C282 0.959 . S
H341 C282 0.958 . S
C342 C343 1.560 . S
C342 H403 0.959 . S
C342 H404 0.959 . S
C342 H405 0.960 . S
C343 C342 1.560 . S
C343 O398 1.426 . S
C343 H402 0.980 . S
C344 C345 1.407 . S
C344 C349 1.418 . S
C344 O398 1.334 . S
C345 C344 1.407 . S
C345 C346 1.360 . S
C345 H406 0.929 . S
C346 C345 1.360 . S
C346 C347 1.401 . S
C346 C350 1.527 . S
C347 C346 1.401 . S
C347 C348 1.405 . S
C347 C380 1.587 . S
C348 C347 1.405 . S
C348 C349 1.332 . S
C348 C351 1.496 . S
C349 C344 1.418 . S
C349 C348 1.332 . S
C349 H407 0.929 . S
C350 C346 1.527 . S
C350 H408 0.959 . S
C350 H409 0.961 . S
C350 H410 0.961 . S
C351 C348 1.496 . S
C351 H411 0.960 . S
C351 H412 0.960 . S
C351 H413 0.961 . S
C352 C353 1.517 . S
C352 H415 0.961 . S
C352 H416 0.960 . S
C352 H417 0.959 . S
C353 C352 1.517 . S
C353 O401 1.468 . S
C353 H414 0.980 . S
C354 C355 1.349 . S
C354 C359 1.367 . S
C354 O401 1.408 . S
C355 C354 1.349 . S
C355 C356 1.407 . S
C355 H418 0.930 . S
C356 C355 1.407 . S
C356 C357 1.449 . S
C356 C360 1.535 . S
C357 C356 1.449 . S
C357 C358 1.384 . S
C357 C382 1.553 1_655 S
C358 C357 1.384 . S
C358 C359 1.364 . S
C358 C361 1.450 . S
C359 C354 1.367 . S
C359 C358 1.364 . S
C359 H419 0.931 . S
C360 C356 1.535 . S
C360 H420 0.959 1_655 S
C360 H421 0.989 . S
C360 H422 0.959 . S
C361 C358 1.450 . S
C361 H423 0.960 . S
C361 H424 0.960 1_655 S
C361 H425 0.960 . S
C362 C363 1.309 . S
C362 C367 1.304 . S
C362 O400 1.435 . S
C363 C362 1.309 . S
C363 C364 1.476 . S
C363 H427 0.930 . S
C364 C363 1.476 . S
C364 C365 1.400 . S
C364 C368 1.567 . S
C365 C364 1.400 . S
C365 C366 1.373 . S
C365 C387 1.432 . S
C366 C365 1.373 . S
C366 C367 1.339 . S
C366 C369 1.530 . S
C367 C362 1.304 . S
C367 C366 1.339 . S
C367 H428 0.930 . S
C368 C364 1.567 . S
C368 H429 0.961 . S
C368 H430 0.960 . S
C368 H431 0.958 . S
C369 C366 1.530 . S
C369 H432 0.961 . S
C369 H433 0.960 . S
C369 H434 0.960 . S
C370 C371 1.530 . S
C370 H436 0.961 . S
C370 H437 0.961 . S
C370 H438 0.959 . S
C371 C370 1.530 . S
C371 O399 1.412 . S
C371 H435 0.980 . S
C372 C373 1.288 . S
C372 C377 1.377 . S
C372 O399 1.393 . S
C373 C372 1.288 . S
C373 C374 1.369 . S
C373 H439 0.932 . S
C374 C373 1.369 . S
C374 C375 1.398 . S
C374 C378 1.527 . S
C375 C374 1.398 . S
C375 C376 1.380 . S
C375 C389 1.497 . S
C376 C375 1.380 . S
C376 C377 1.383 . S
C376 C379 1.603 . S
C377 C372 1.377 . S
C377 C376 1.383 . S
C377 H440 0.929 . S
C378 C374 1.527 . S
C378 H441 0.961 . S
C378 H442 0.959 1_455 S
C378 H443 0.959 . S
C379 C376 1.603 . S
C379 H444 0.960 . S
C379 H445 0.962 . S
C379 H446 0.961 . S
C380 C347 1.587 . S
C380 C381 1.360 . S
C380 C393 1.412 . S
C381 C380 1.360 . S
C381 C382 1.365 . S
C381 H447 0.929 . S
C382 C357 1.553 1_455 S
C382 C381 1.365 . S
C382 C383 1.399 1_455 S
C383 C382 1.399 1_655 S
C383 C384 1.407 . S
C383 C394 1.442 1_655 S
C384 C383 1.407 . S
C384 C385 1.322 . S
C384 H448 0.930 . S
C385 C384 1.322 . S
C385 C386 1.459 . S
C385 H449 0.929 . S
C386 C385 1.459 . S
C386 C387 1.445 . S
C386 C395 1.395 1_655 S
C387 C365 1.432 . S
C387 C386 1.445 . S
C387 C388 1.370 . S
C388 C387 1.370 . S
C388 C389 1.438 1_655 S
C388 H450 0.930 . S
C389 C375 1.497 . S
C389 C388 1.438 1_455 S
C389 C390 1.360 . S
C390 C389 1.360 . S
C390 C391 1.401 . S
C390 C395 1.446 . S
C391 C390 1.401 . S
C391 C392 1.347 . S
C391 H451 0.929 . S
C392 C391 1.347 . S
C392 C393 1.455 . S
C392 H452 0.930 . S
C393 C380 1.412 . S
C393 C392 1.455 . S
C393 C394 1.331 . S
C394 C383 1.442 1_455 S
C394 C393 1.331 . S
C394 C395 1.497 . S
C395 C386 1.395 1_455 S
C395 C390 1.446 . S
C395 C394 1.497 . S
C396 C397 1.582 . S
C396 H453 0.962 . S
C396 H454 0.959 . S
C396 H455 0.958 . S
C397 C396 1.582 . S
C397 O400 1.458 . S
C397 H426 0.980 . S
O398 C343 1.426 . S
O398 C344 1.334 . S
O399 C371 1.412 . S
O399 C372 1.393 . S
O400 C362 1.435 . S
O400 C397 1.458 . S
O401 C353 1.468 . S
O401 C354 1.408 . S
H402 C343 0.980 . S
H403 C342 0.959 . S
H404 C342 0.959 . S
H405 C342 0.960 . S
H406 C345 0.929 . S
H407 C349 0.929 . S
H408 C350 0.959 . S
H409 C350 0.961 . S
H410 C350 0.961 . S
H411 C351 0.960 . S
H412 C351 0.960 . S
H413 C351 0.961 . S
H414 C353 0.980 . S
H415 C352 0.961 . S
H416 C352 0.960 . S
H417 C352 0.959 . S
H418 C355 0.930 . S
H419 C359 0.931 . S
H420 C360 0.959 1_455 S
H421 C360 0.989 . S
H422 C360 0.959 . S
H423 C361 0.960 . S
H424 C361 0.960 1_455 S
H425 C361 0.960 . S
H426 C397 0.980 . S
H427 C363 0.930 . S
H428 C367 0.930 . S
H429 C368 0.961 . S
H430 C368 0.960 . S
H431 C368 0.958 . S
H432 C369 0.961 . S
H433 C369 0.960 . S
H434 C369 0.960 . S
H435 C371 0.980 . S
H436 C370 0.961 . S
H437 C370 0.961 . S
H438 C370 0.959 . S
H439 C373 0.932 . S
H440 C377 0.929 . S
H441 C378 0.961 . S
H442 C378 0.959 1_655 S
H443 C378 0.959 . S
H444 C379 0.960 . S
H445 C379 0.962 . S
H446 C379 0.961 . S
H447 C381 0.929 . S
H448 C384 0.930 . S
H449 C385 0.929 . S
H450 C388 0.930 . S
H451 C391 0.929 . S
H452 C392 0.930 . S
H453 C396 0.962 . S
H454 C396 0.959 . S
H455 C396 0.958 . S
C456 C457 1.560 . S
C456 H517 0.959 . S
C456 H518 0.959 . S
C456 H519 0.960 . S
C457 C456 1.560 . S
C457 O512 1.426 . S
C457 H516 0.980 . S
C458 C459 1.407 . S
C458 C463 1.418 . S
C458 O512 1.334 . S
C459 C458 1.407 . S
C459 C460 1.360 . S
C459 H520 0.929 . S
C460 C459 1.360 . S
C460 C461 1.401 . S
C460 C464 1.527 . S
C461 C460 1.401 . S
C461 C462 1.405 . S
C461 C494 1.587 . S
C462 C461 1.405 . S
C462 C463 1.332 . S
C462 C465 1.496 . S
C463 C458 1.418 . S
C463 C462 1.332 . S
C463 H521 0.929 . S
C464 C460 1.527 . S
C464 H522 0.959 . S
C464 H523 0.961 . S
C464 H524 0.961 . S
C465 C462 1.496 . S
C465 H525 0.960 . S
C465 H526 0.960 . S
C465 H527 0.961 . S
C466 C467 1.517 . S
C466 H529 0.961 . S
C466 H530 0.960 . S
C466 H531 0.959 . S
C467 C466 1.517 . S
C467 O515 1.468 . S
C467 H528 0.980 . S
C468 C469 1.349 . S
C468 C473 1.367 . S
C468 O515 1.408 . S
C469 C468 1.349 . S
C469 C470 1.407 . S
C469 H532 0.930 . S
C470 C469 1.407 . S
C470 C471 1.449 . S
C470 C474 1.535 . S
C471 C470 1.449 . S
C471 C472 1.384 . S
C471 C496 1.553 . S
C472 C471 1.384 . S
C472 C473 1.364 . S
C472 C475 1.450 . S
C473 C468 1.367 . S
C473 C472 1.364 . S
C473 H533 0.931 . S
C474 C470 1.535 . S
C474 H534 0.959 . S
C474 H535 0.961 . S
C474 H536 0.959 . S
C475 C472 1.450 . S
C475 H537 0.960 . S
C475 H538 0.960 . S
C475 H539 0.960 . S
C476 C477 1.309 . S
C476 C481 1.304 . S
C476 O514 1.435 . S
C477 C476 1.309 . S
C477 C478 1.476 . S
C477 H541 0.930 . S
C478 C477 1.476 . S
C478 C479 1.400 . S
C478 C482 1.567 . S
C479 C478 1.400 . S
C479 C480 1.373 . S
C479 C501 1.432 . S
C480 C479 1.373 . S
C480 C481 1.339 . S
C480 C483 1.530 . S
C481 C476 1.304 . S
C481 C480 1.339 . S
C481 H542 0.930 . S
C482 C478 1.567 . S
C482 H543 0.961 . S
C482 H544 0.960 . S
C482 H545 0.958 . S
C483 C480 1.530 . S
C483 H546 0.961 . S
C483 H547 0.960 . S
C483 H548 0.960 . S
C484 C485 1.530 . S
C484 H550 0.961 . S
C484 H551 0.961 . S
C484 H552 0.959 . S
C485 C484 1.530 . S
C485 O513 1.412 . S
C485 H549 0.980 . S
C486 C487 1.288 . S
C486 C491 1.377 . S
C486 O513 1.393 . S
C487 C486 1.288 . S
C487 C488 1.369 . S
C487 H553 0.932 . S
C488 C487 1.369 . S
C488 C489 1.398 . S
C488 C492 1.527 1_565 S
C489 C488 1.398 . S
C489 C490 1.380 . S
C489 C503 1.497 1_565 S
C490 C489 1.380 . S
C490 C491 1.383 . S
C490 C493 1.603 . S
C491 C486 1.377 . S
C491 C490 1.383 . S
C491 H554 0.929 . S
C492 C488 1.527 1_545 S
C492 H555 0.961 . S
C492 H556 0.959 . S
C492 H557 0.959 1_545 S
C493 C490 1.603 . S
C493 H558 0.960 . S
C493 H559 0.962 . S
C493 H560 0.961 . S
C494 C461 1.587 . S
C494 C495 1.360 . S
C494 C507 1.412 . S
C495 C494 1.360 . S
C495 C496 1.365 1_565 S
C495 H561 0.929 . S
C496 C471 1.553 . S
C496 C495 1.365 1_545 S
C496 C497 1.404 . S
C497 C496 1.404 . S
C497 C498 1.395 . S
C497 C508 1.425 1_545 S
C498 C497 1.395 . S
C498 C499 1.322 . S
C498 H562 0.930 . S
C499 C498 1.322 . S
C499 C500 1.459 1_556 S
C499 H563 0.929 . S
C500 C499 1.459 1_554 S
C500 C501 1.445 . S
C500 C509 1.390 1_554 S
C501 C479 1.432 . S
C501 C500 1.445 . S
C501 C502 1.370 . S
C502 C501 1.370 . S
C502 C503 1.438 . S
C502 H564 0.930 . S
C503 C489 1.497 1_545 S
C503 C502 1.438 . S
C503 C504 1.360 1_545 S
C504 C503 1.360 1_565 S
C504 C505 1.401 . S
C504 C509 1.405 1_564 S
C505 C504 1.401 . S
C505 C506 1.347 1_554 S
C505 H565 0.929 . S
C506 C505 1.347 1_556 S
C506 C507 1.455 . S
C506 H566 0.930 . S
C507 C494 1.412 . S
C507 C506 1.455 . S
C507 C508 1.367 . S
C508 C497 1.425 1_565 S
C508 C507 1.367 . S
C508 C509 1.533 1_565 S
C509 C500 1.390 1_556 S
C509 C504 1.405 1_546 S
C509 C508 1.533 1_545 S
C510 C511 1.582 . S
C510 H567 0.962 . S
C510 H568 0.959 . S
C510 H569 0.958 . S
C511 C510 1.582 . S
C511 O514 1.458 . S
C511 H540 0.980 . S
O512 C457 1.426 . S
O512 C458 1.334 . S
O513 C485 1.412 . S
O513 C486 1.393 . S
O514 C476 1.435 . S
O514 C511 1.458 . S
O515 C467 1.468 . S
O515 C468 1.408 . S
H516 C457 0.980 . S
H517 C456 0.959 . S
H518 C456 0.959 . S
H519 C456 0.960 . S
H520 C459 0.929 . S
H521 C463 0.929 . S
H522 C464 0.959 . S
H523 C464 0.961 . S
H524 C464 0.961 . S
H525 C465 0.960 . S
H526 C465 0.960 . S
H527 C465 0.961 . S
H528 C467 0.980 . S
H529 C466 0.961 . S
H530 C466 0.960 . S
H531 C466 0.959 . S
H532 C469 0.930 . S
H533 C473 0.931 . S
H534 C474 0.959 . S
H535 C474 0.961 . S
H536 C474 0.959 . S
H537 C475 0.960 . S
H538 C475 0.960 . S
H539 C475 0.960 . S
H540 C511 0.980 . S
H541 C477 0.930 . S
H542 C481 0.930 . S
H543 C482 0.961 . S
H544 C482 0.960 . S
H545 C482 0.958 . S
H546 C483 0.961 . S
H547 C483 0.960 . S
H548 C483 0.960 . S
H549 C485 0.980 . S
H550 C484 0.961 . S
H551 C484 0.961 . S
H552 C484 0.959 . S
H553 C487 0.932 . S
H554 C491 0.929 . S
H555 C492 0.961 . S
H556 C492 0.959 . S
H557 C492 0.959 1_565 S
H558 C493 0.960 . S
H559 C493 0.962 . S
H560 C493 0.961 . S
H561 C495 0.929 . S
H562 C498 0.930 . S
H563 C499 0.929 . S
H564 C502 0.930 . S
H565 C505 0.929 . S
H566 C506 0.930 . S
H567 C510 0.962 . S
H568 C510 0.959 . S
H569 C510 0.958 . S
C570 C571 1.560 . S
C570 H631 0.959 . S
C570 H632 0.959 . S
C570 H633 0.960 . S
C571 C570 1.560 . S
C571 O626 1.426 . S
C571 H630 0.980 . S
C572 C573 1.407 . S
C572 C577 1.418 . S
C572 O626 1.334 . S
C573 C572 1.407 . S
C573 C574 1.360 . S
C573 H634 0.929 . S
C574 C573 1.360 . S
C574 C575 1.401 . S
C574 C578 1.527 . S
C575 C574 1.401 . S
C575 C576 1.405 . S
C575 C608 1.587 . S
C576 C575 1.405 . S
C576 C577 1.332 . S
C576 C579 1.496 . S
C577 C572 1.418 . S
C577 C576 1.332 . S
C577 H635 0.929 . S
C578 C574 1.527 . S
C578 H636 0.959 . S
C578 H637 0.961 . S
C578 H638 0.961 . S
C579 C576 1.496 . S
C579 H639 0.960 . S
C579 H640 0.960 . S
C579 H641 0.961 . S
C580 C581 1.517 . S
C580 H643 0.961 . S
C580 H644 0.960 . S
C580 H645 0.959 . S
C581 C580 1.517 . S
C581 O629 1.468 . S
C581 H642 0.980 . S
C582 C583 1.349 . S
C582 C587 1.367 . S
C582 O629 1.408 . S
C583 C582 1.349 . S
C583 C584 1.407 . S
C583 H646 0.930 . S
C584 C583 1.407 . S
C584 C585 1.449 . S
C584 C588 1.535 . S
C585 C584 1.449 . S
C585 C586 1.384 . S
C585 C610 1.553 . S
C586 C585 1.384 . S
C586 C587 1.364 . S
C586 C589 1.450 . S
C587 C582 1.367 . S
C587 C586 1.364 . S
C587 H647 0.931 . S
C588 C584 1.535 . S
C588 H648 0.959 . S
C588 H649 0.961 . S
C588 H650 0.959 . S
C589 C586 1.450 . S
C589 H651 0.960 . S
C589 H652 0.960 . S
C589 H653 0.960 . S
C590 C591 1.309 . S
C590 C595 1.304 . S
C590 O628 1.435 . S
C591 C590 1.309 . S
C591 C592 1.476 . S
C591 H655 0.930 . S
C592 C591 1.476 . S
C592 C593 1.400 . S
C592 C596 1.567 . S
C593 C592 1.400 . S
C593 C594 1.373 . S
C593 C615 1.432 . S
C594 C593 1.373 . S
C594 C595 1.339 . S
C594 C597 1.530 . S
C595 C590 1.304 . S
C595 C594 1.339 . S
C595 H656 0.930 . S
C596 C592 1.567 . S
C596 H657 0.961 . S
C596 H658 0.960 . S
C596 H659 0.958 . S
C597 C594 1.530 . S
C597 H660 0.961 . S
C597 H661 0.960 . S
C597 H662 0.960 . S
C598 C599 1.530 . S
C598 H664 0.961 . S
C598 H665 0.961 . S
C598 H666 0.959 . S
C599 C598 1.530 . S
C599 O627 1.412 . S
C599 H663 0.980 . S
C600 C601 1.288 . S
C600 C605 1.377 . S
C600 O627 1.393 . S
C601 C600 1.288 . S
C601 C602 1.369 . S
C601 H667 0.932 . S
C602 C601 1.369 . S
C602 C603 1.398 . S
C602 C606 1.527 . S
C603 C602 1.398 . S
C603 C604 1.380 . S
C603 C617 1.497 . S
C604 C603 1.380 . S
C604 C605 1.383 . S
C604 C607 1.603 . S
C605 C600 1.377 . S
C605 C604 1.383 . S
C605 H668 0.929 . S
C606 C602 1.527 . S
C606 H669 0.961 . S
C606 H670 0.959 . S
C606 H671 0.959 . S
C607 C604 1.603 . S
C607 H672 0.960 . S
C607 H673 0.962 . S
C607 H674 0.961 . S
C608 C575 1.587 . S
C608 C609 1.360 . S
C608 C621 1.412 . S
C609 C608 1.360 . S
C609 C610 1.365 . S
C609 H675 0.929 . S
C610 C585 1.553 . S
C610 C609 1.365 . S
C610 C611 1.404 . S
C611 C610 1.404 . S
C611 C612 1.395 . S
C611 C622 1.451 . S
C612 C611 1.395 . S
C612 C613 1.322 . S
C612 H676 0.930 . S
C613 C612 1.322 . S
C613 C614 1.459 . S
C613 H677 0.929 . S
C614 C613 1.459 . S
C614 C615 1.445 . S
C614 C623 1.395 . S
C615 C593 1.432 . S
C615 C614 1.445 . S
C615 C616 1.370 . S
C616 C615 1.370 . S
C616 C617 1.438 . S
C616 H678 0.930 . S
C617 C603 1.497 . S
C617 C616 1.438 . S
C617 C618 1.360 . S
C618 C617 1.360 . S
C618 C619 1.401 . S
C618 C623 1.446 . S
C619 C618 1.401 . S
C619 C620 1.347 . S
C619 H679 0.929 . S
C620 C619 1.347 . S
C620 C621 1.455 . S
C620 H680 0.930 . S
C621 C608 1.412 . S
C621 C620 1.455 . S
C621 C622 1.331 . S
C622 C611 1.451 . S
C622 C621 1.331 . S
C622 C623 1.497 . S
C623 C614 1.395 . S
C623 C618 1.446 . S
C623 C622 1.497 . S
C624 C625 1.582 . S
C624 H681 0.962 . S
C624 H682 0.959 . S
C624 H683 0.958 . S
C625 C624 1.582 . S
C625 O628 1.458 . S
C625 H654 0.980 . S
O626 C571 1.426 . S
O626 C572 1.334 . S
O627 C599 1.412 . S
O627 C600 1.393 . S
O628 C590 1.435 . S
O628 C625 1.458 . S
O629 C581 1.468 . S
O629 C582 1.408 . S
H630 C571 0.980 . S
H631 C570 0.959 . S
H632 C570 0.959 . S
H633 C570 0.960 . S
H634 C573 0.929 . S
H635 C577 0.929 . S
H636 C578 0.959 . S
H637 C578 0.961 . S
H638 C578 0.961 . S
H639 C579 0.960 . S
H640 C579 0.960 . S
H641 C579 0.961 . S
H642 C581 0.980 . S
H643 C580 0.961 . S
H644 C580 0.960 . S
H645 C580 0.959 . S
H646 C583 0.930 . S
H647 C587 0.931 . S
H648 C588 0.959 . S
H649 C588 0.961 . S
H650 C588 0.959 . S
H651 C589 0.960 . S
H652 C589 0.960 . S
H653 C589 0.960 . S
H654 C625 0.980 . S
H655 C591 0.930 . S
H656 C595 0.930 . S
H657 C596 0.961 . S
H658 C596 0.960 . S
H659 C596 0.958 . S
H660 C597 0.961 . S
H661 C597 0.960 . S
H662 C597 0.960 . S
H663 C599 0.980 . S
H664 C598 0.961 . S
H665 C598 0.961 . S
H666 C598 0.959 . S
H667 C601 0.932 . S
H668 C605 0.929 . S
H669 C606 0.961 . S
H670 C606 0.959 . S
H671 C606 0.959 . S
H672 C607 0.960 . S
H673 C607 0.962 . S
H674 C607 0.961 . S
H675 C609 0.929 . S
H676 C612 0.930 . S
H677 C613 0.929 . S
H678 C616 0.930 . S
H679 C619 0.929 . S
H680 C620 0.930 . S
H681 C624 0.962 . S
H682 C624 0.959 . S
H683 C624 0.958 . S
Co684 O685 2.216 . S
Co684 O686 2.091 . S
Co684 O688 2.004 . S
Co684 O694 2.021 . S
Co684 O696 2.137 . S
Co684 O697 2.244 . S
O685 Co684 2.216 . S
O685 C692 1.247 . S
O686 Co684 2.091 . S
O686 C692 1.261 . S
C687 O696 1.247 . S
C687 O697 1.272 . S
O688 Co684 2.004 . S
O688 C693 1.259 . S
Co689 O690 2.061 . S
Co689 O695 2.052 . S
Co689 O697 2.135 . S
O690 Co689 2.061 . S
O690 C693 1.235 . S
C691 O694 1.238 . S
C691 O695 1.241 . S
C692 O685 1.247 . S
C692 O686 1.261 . S
C693 O688 1.259 . S
C693 O690 1.235 . S
O694 Co684 2.021 . S
O694 C691 1.238 . S
O695 Co689 2.052 . S
O695 C691 1.241 . S
O696 Co684 2.137 . S
O696 C687 1.247 . S
O697 Co684 2.244 . S
O697 C687 1.272 . S
O697 Co689 2.135 . S
Co698 O699 2.216 . S
Co698 O700 2.091 . S
Co698 O702 2.004 . S
Co698 O708 2.021 . S
Co698 O710 2.137 . S
Co698 O711 2.244 . S
O699 Co698 2.216 . S
O699 C706 1.247 . S
O700 Co698 2.091 . S
O700 C706 1.261 . S
C701 O710 1.247 . S
C701 O711 1.272 . S
O702 Co698 2.004 . S
O702 C707 1.259 . S
Co703 O704 2.061 . S
Co703 O709 2.052 . S
Co703 O711 2.135 . S
O704 Co703 2.061 . S
O704 C707 1.235 . S
C705 O708 1.238 . S
C705 O709 1.241 . S
C706 O699 1.247 . S
C706 O700 1.261 . S
C707 O702 1.259 . S
C707 O704 1.235 . S
O708 Co698 2.021 . S
O708 C705 1.238 . S
O709 Co703 2.052 . S
O709 C705 1.241 . S
O710 Co698 2.137 . S
O710 C701 1.247 . S
O711 Co698 2.244 . S
O711 C701 1.272 . S
O711 Co703 2.135 . S
Co712 O713 2.216 . S
Co712 O714 2.091 . S
Co712 O716 2.004 . S
Co712 O722 2.021 . S
Co712 O724 2.137 . S
Co712 O725 2.244 . S
O713 Co712 2.216 . S
O713 C720 1.247 . S
O714 Co712 2.091 . S
O714 C720 1.261 . S
C715 O724 1.247 . S
C715 O725 1.272 . S
O716 Co712 2.004 . S
O716 C721 1.259 . S
Co717 O718 2.061 . S
Co717 O723 2.052 . S
Co717 O725 2.135 . S
O718 Co717 2.061 . S
O718 C721 1.235 . S
C719 O722 1.238 . S
C719 O723 1.241 . S
C720 O713 1.247 . S
C720 O714 1.261 . S
C721 O716 1.259 . S
C721 O718 1.235 . S
O722 Co712 2.021 . S
O722 C719 1.238 . S
O723 Co717 2.052 . S
O723 C719 1.241 . S
O724 Co712 2.137 . S
O724 C715 1.247 . S
O725 Co712 2.244 . S
O725 C715 1.272 . S
O725 Co717 2.135 . S
Co726 O727 2.216 . S
Co726 O728 2.091 . S
Co726 O730 2.004 . S
Co726 O736 2.021 . S
Co726 O738 2.137 . S
Co726 O739 2.244 . S
O727 Co726 2.216 . S
O727 C734 1.247 . S
O728 Co726 2.091 . S
O728 C734 1.261 . S
C729 O738 1.247 . S
C729 O739 1.272 . S
O730 Co726 2.004 . S
O730 C735 1.259 . S
Co731 O732 2.061 . S
Co731 O737 2.052 . S
Co731 O739 2.135 . S
O732 Co731 2.061 . S
O732 C735 1.235 . S
C733 O736 1.238 . S
C733 O737 1.241 . S
C734 O727 1.247 . S
C734 O728 1.261 . S
C735 O730 1.259 . S
C735 O732 1.235 . S
O736 Co726 2.021 . S
O736 C733 1.238 . S
O737 Co731 2.052 . S
O737 C733 1.241 . S
O738 Co726 2.137 . S
O738 C729 1.247 . S
O739 Co726 2.244 . S
O739 C729 1.272 . S
O739 Co731 2.135 . S
Co740 O741 2.216 . S
Co740 O742 2.091 . S
Co740 O744 2.004 . S
Co740 O750 2.021 . S
Co740 O752 2.137 . S
Co740 O753 2.244 . S
O741 Co740 2.216 . S
O741 C748 1.247 . S
O742 Co740 2.091 . S
O742 C748 1.261 . S
C743 O752 1.247 . S
C743 O753 1.272 . S
O744 Co740 2.004 . S
O744 C749 1.259 . S
Co745 O746 2.061 . S
Co745 O751 2.052 . S
Co745 O753 2.135 . S
O746 Co745 2.061 . S
O746 C749 1.235 . S
C747 O750 1.238 . S
C747 O751 1.241 . S
C748 O741 1.247 . S
C748 O742 1.261 . S
C749 O744 1.259 . S
C749 O746 1.235 . S
O750 Co740 2.021 . S
O750 C747 1.238 . S
O751 Co745 2.052 . S
O751 C747 1.241 . S
O752 Co740 2.137 . S
O752 C743 1.247 . S
O753 Co740 2.244 . S
O753 C743 1.272 . S
O753 Co745 2.135 . S
Co754 O755 2.216 . S
Co754 O756 2.091 . S
Co754 O758 2.004 . S
Co754 O764 2.021 . S
Co754 O766 2.137 . S
Co754 O767 2.244 . S
O755 Co754 2.216 . S
O755 C762 1.247 . S
O756 Co754 2.091 . S
O756 C762 1.261 . S
C757 O766 1.247 . S
C757 O767 1.272 . S
O758 Co754 2.004 . S
O758 C763 1.259 . S
Co759 O760 2.061 . S
Co759 O765 2.052 . S
Co759 O767 2.135 . S
O760 Co759 2.061 . S
O760 C763 1.235 . S
C761 O764 1.238 . S
C761 O765 1.241 . S
C762 O755 1.247 . S
C762 O756 1.261 . S
C763 O758 1.259 . S
C763 O760 1.235 . S
O764 Co754 2.021 . S
O764 C761 1.238 . S
O765 Co759 2.052 . S
O765 C761 1.241 . S
O766 Co754 2.137 . S
O766 C757 1.247 . S
O767 Co754 2.244 . S
O767 C757 1.272 . S
O767 Co759 2.135 . S
H768 C786 0.951 . S
H769 C788 0.951 . S
H770 C790 0.950 . S
H771 C791 0.950 . S
H772 C793 0.950 . S
H773 C796 0.950 . S
H774 C797 0.950 . S
H775 C799 0.950 . S
H776 C800 0.950 . S
H777 C801 0.951 . S
H778 C803 0.951 . S
H779 C805 0.950 . S
H780 C806 0.950 . S
H781 C808 0.950 . S
H782 C811 0.950 . S
H783 C812 0.950 . S
H784 C814 0.950 . S
H785 C815 0.950 . S
C786 H768 0.951 . S
C786 C787 1.366 . S
C786 C788 1.388 . S
C787 C786 1.366 . S
C787 C791 1.385 . S
C788 H769 0.951 . S
C788 C786 1.388 . S
C788 C789 1.366 . S
C789 C788 1.366 . S
C789 C790 1.414 . S
C789 C792 1.499 . S
C790 H770 0.950 . S
C790 C789 1.414 . S
C790 C791 1.374 . S
C791 H771 0.950 . S
C791 C787 1.385 . S
C791 C790 1.374 . S
C792 C789 1.499 . S
C792 C793 1.373 . S
C792 C794 1.389 . S
C793 H772 0.950 . S
C793 C792 1.373 . S
C793 C809 1.377 . S
C794 C792 1.389 . S
C794 C795 1.524 . S
C794 C808 1.377 . S
C795 C794 1.524 . S
C795 C796 1.397 . S
C795 C800 1.363 . S
C796 H773 0.950 . S
C796 C795 1.397 . S
C796 C797 1.334 . S
C797 H774 0.950 . S
C797 C796 1.334 . S
C797 C798 1.287 . S
C798 C797 1.287 . S
C798 C799 1.524 . S
C798 H817 0.913 . S
C799 H775 0.950 . S
C799 C798 1.524 . S
C799 C800 1.415 . S
C800 H776 0.950 . S
C800 C795 1.363 . S
C800 C799 1.415 . S
C801 H777 0.951 . S
C801 C802 1.366 . S
C801 C803 1.388 . S
C802 C801 1.366 . S
C802 C806 1.385 . S
C803 H778 0.951 . S
C803 C801 1.388 . S
C803 C804 1.366 . S
C804 C803 1.366 . S
C804 C805 1.414 . S
C804 C807 1.499 . S
C805 H779 0.950 . S
C805 C804 1.414 . S
C805 C806 1.374 . S
C806 H780 0.950 . S
C806 C802 1.385 . S
C806 C805 1.374 . S
C807 C804 1.499 . S
C807 C808 1.373 . S
C807 C809 1.389 . S
C808 H781 0.950 . S
C808 C794 1.377 . S
C808 C807 1.373 . S
C809 C793 1.377 . S
C809 C807 1.389 . S
C809 C810 1.524 . S
C810 C809 1.524 . S
C810 C811 1.397 . S
C810 C815 1.363 . S
C811 H782 0.950 . S
C811 C810 1.397 . S
C811 C812 1.334 . S
C812 H783 0.950 . S
C812 C811 1.334 . S
C812 C813 1.287 . S
C813 C812 1.287 . S
C813 C814 1.524 . S
C813 H816 0.999 . S
C814 H784 0.950 . S
C814 C813 1.524 . S
C814 C815 1.415 . S
C815 H785 0.950 . S
C815 C810 1.363 . S
C815 C814 1.415 . S
H816 C813 0.999 . S
H817 C798 0.913 . S
H818 C836 0.951 . S
H819 C838 0.951 . S
H820 C840 0.950 . S
H821 C841 0.950 . S
H822 C843 0.950 . S
H823 C846 0.950 . S
H824 C847 0.950 . S
H825 C849 0.950 . S
H826 C850 0.950 . S
H827 C851 0.951 . S
H828 C853 0.951 . S
H829 C855 0.950 . S
H830 C856 0.950 . S
H831 C858 0.950 . S
H832 C861 0.950 . S
H833 C862 0.950 . S
H834 C864 0.950 . S
H835 C865 0.950 . S
C836 H818 0.951 . S
C836 C837 1.366 . S
C836 C838 1.388 . S
C837 C836 1.366 . S
C837 C841 1.385 . S
C838 H819 0.951 . S
C838 C836 1.388 . S
C838 C839 1.366 . S
C839 C838 1.366 . S
C839 C840 1.414 . S
C839 C842 1.499 . S
C840 H820 0.950 . S
C840 C839 1.414 . S
C840 C841 1.374 . S
C841 H821 0.950 . S
C841 C837 1.385 . S
C841 C840 1.374 . S
C842 C839 1.499 . S
C842 C843 1.373 . S
C842 C844 1.389 . S
C843 H822 0.950 . S
C843 C842 1.373 . S
C843 C859 1.377 . S
C844 C842 1.389 . S
C844 C845 1.524 . S
C844 C858 1.377 . S
C845 C844 1.524 . S
C845 C846 1.397 . S
C845 C850 1.363 . S
C846 H823 0.950 . S
C846 C845 1.397 . S
C846 C847 1.334 . S
C847 H824 0.950 . S
C847 C846 1.334 . S
C847 C848 1.287 . S
C848 C847 1.287 . S
C848 C849 1.524 . S
C848 H867 0.913 . S
C849 H825 0.950 . S
C849 C848 1.524 . S
C849 C850 1.415 . S
C850 H826 0.950 . S
C850 C845 1.363 . S
C850 C849 1.415 . S
C851 H827 0.951 . S
C851 C852 1.366 . S
C851 C853 1.388 . S
C852 C851 1.366 . S
C852 C856 1.385 . S
C853 H828 0.951 . S
C853 C851 1.388 . S
C853 C854 1.366 . S
C854 C853 1.366 . S
C854 C855 1.414 . S
C854 C857 1.499 . S
C855 H829 0.950 . S
C855 C854 1.414 . S
C855 C856 1.374 . S
C856 H830 0.950 . S
C856 C852 1.385 . S
C856 C855 1.374 . S
C857 C854 1.499 . S
C857 C858 1.373 . S
C857 C859 1.389 . S
C858 H831 0.950 . S
C858 C844 1.377 . S
C858 C857 1.373 . S
C859 C843 1.377 . S
C859 C857 1.389 . S
C859 C860 1.524 . S
C860 C859 1.524 . S
C860 C861 1.397 . S
C860 C865 1.363 . S
C861 H832 0.950 . S
C861 C860 1.397 . S
C861 C862 1.334 . S
C862 H833 0.950 . S
C862 C861 1.334 . S
C862 C863 1.287 . S
C863 C862 1.287 . S
C863 C864 1.524 . S
C863 H866 0.999 . S
C864 H834 0.950 . S
C864 C863 1.524 . S
C864 C865 1.415 . S
C865 H835 0.950 . S
C865 C860 1.363 . S
C865 C864 1.415 . S
H866 C863 0.999 . S
H867 C848 0.913 . S
H868 C886 0.951 . S
H869 C888 0.951 . S
H870 C890 0.950 . S
H871 C891 0.950 . S
H872 C893 0.950 . S
H873 C896 0.950 . S
H874 C897 0.950 . S
H875 C899 0.950 . S
H876 C900 0.950 . S
H877 C901 0.951 . S
H878 C903 0.951 . S
H879 C905 0.950 . S
H880 C906 0.950 . S
H881 C908 0.950 . S
H882 C911 0.950 . S
H883 C912 0.950 . S
H884 C914 0.950 . S
H885 C915 0.950 . S
C886 H868 0.951 . S
C886 C887 1.366 . S
C886 C888 1.388 . S
C887 C886 1.366 . S
C887 C891 1.385 . S
C888 H869 0.951 . S
C888 C886 1.388 . S
C888 C889 1.366 . S
C889 C888 1.366 . S
C889 C890 1.414 . S
C889 C892 1.499 . S
C890 H870 0.950 . S
C890 C889 1.414 . S
C890 C891 1.374 . S
C891 H871 0.950 . S
C891 C887 1.385 . S
C891 C890 1.374 . S
C892 C889 1.499 . S
C892 C893 1.373 . S
C892 C894 1.389 . S
C893 H872 0.950 . S
C893 C892 1.373 . S
C893 C909 1.377 . S
C894 C892 1.389 . S
C894 C895 1.524 . S
C894 C908 1.377 . S
C895 C894 1.524 . S
C895 C896 1.397 . S
C895 C900 1.363 . S
C896 H873 0.950 . S
C896 C895 1.397 . S
C896 C897 1.334 . S
C897 H874 0.950 . S
C897 C896 1.334 . S
C897 C898 1.287 . S
C898 C897 1.287 . S
C898 C899 1.524 . S
C898 H917 0.913 . S
C899 H875 0.950 . S
C899 C898 1.524 . S
C899 C900 1.415 . S
C900 H876 0.950 . S
C900 C895 1.363 . S
C900 C899 1.415 . S
C901 H877 0.951 . S
C901 C902 1.366 . S
C901 C903 1.388 . S
C902 C901 1.366 . S
C902 C906 1.385 . S
C903 H878 0.951 . S
C903 C901 1.388 . S
C903 C904 1.366 . S
C904 C903 1.366 . S
C904 C905 1.414 . S
C904 C907 1.499 . S
C905 H879 0.950 . S
C905 C904 1.414 . S
C905 C906 1.374 . S
C906 H880 0.950 . S
C906 C902 1.385 . S
C906 C905 1.374 . S
C907 C904 1.499 . S
C907 C908 1.373 . S
C907 C909 1.389 . S
C908 H881 0.950 . S
C908 C894 1.377 . S
C908 C907 1.373 . S
C909 C893 1.377 . S
C909 C907 1.389 . S
C909 C910 1.524 . S
C910 C909 1.524 . S
C910 C911 1.397 . S
C910 C915 1.363 . S
C911 H882 0.950 . S
C911 C910 1.397 . S
C911 C912 1.334 . S
C912 H883 0.950 . S
C912 C911 1.334 . S
C912 C913 1.287 . S
C913 C912 1.287 . S
C913 C914 1.524 . S
C913 H916 0.999 . S
C914 H884 0.950 . S
C914 C913 1.524 . S
C914 C915 1.415 . S
C915 H885 0.950 . S
C915 C910 1.363 . S
C915 C914 1.415 . S
H916 C913 0.999 . S
H917 C898 0.913 . S
H918 C936 0.951 . S
H919 C938 0.951 . S
H920 C940 0.950 . S
H921 C941 0.950 . S
H922 C943 0.950 . S
H923 C946 0.950 . S
H924 C947 0.950 . S
H925 C949 0.950 . S
H926 C950 0.950 . S
H927 C951 0.951 . S
H928 C953 0.951 . S
H929 C955 0.950 . S
H930 C956 0.950 . S
H931 C958 0.950 . S
H932 C961 0.950 . S
H933 C962 0.950 . S
H934 C964 0.950 . S
H935 C965 0.950 . S
C936 H918 0.951 . S
C936 C937 1.366 . S
C936 C938 1.388 . S
C937 C936 1.366 . S
C937 C941 1.385 . S
C938 H919 0.951 . S
C938 C936 1.388 . S
C938 C939 1.366 . S
C939 C938 1.366 . S
C939 C940 1.414 . S
C939 C942 1.499 . S
C940 H920 0.950 . S
C940 C939 1.414 . S
C940 C941 1.374 . S
C941 H921 0.950 . S
C941 C937 1.385 . S
C941 C940 1.374 . S
C942 C939 1.499 . S
C942 C943 1.373 . S
C942 C944 1.389 . S
C943 H922 0.950 . S
C943 C942 1.373 . S
C943 C959 1.377 . S
C944 C942 1.389 . S
C944 C945 1.524 . S
C944 C958 1.377 . S
C945 C944 1.524 . S
C945 C946 1.397 . S
C945 C950 1.363 . S
C946 H923 0.950 . S
C946 C945 1.397 . S
C946 C947 1.334 . S
C947 H924 0.950 . S
C947 C946 1.334 . S
C947 C948 1.287 . S
C948 C947 1.287 . S
C948 C949 1.524 . S
C948 H967 0.913 . S
C949 H925 0.950 . S
C949 C948 1.524 . S
C949 C950 1.415 . S
C950 H926 0.950 . S
C950 C945 1.363 . S
C950 C949 1.415 . S
C951 H927 0.951 . S
C951 C952 1.366 . S
C951 C953 1.388 . S
C952 C951 1.366 . S
C952 C956 1.385 . S
C953 H928 0.951 . S
C953 C951 1.388 . S
C953 C954 1.366 . S
C954 C953 1.366 . S
C954 C955 1.414 . S
C954 C957 1.499 . S
C955 H929 0.950 . S
C955 C954 1.414 . S
C955 C956 1.374 . S
C956 H930 0.950 . S
C956 C952 1.385 . S
C956 C955 1.374 . S
C957 C954 1.499 . S
C957 C958 1.373 . S
C957 C959 1.389 . S
C958 H931 0.950 . S
C958 C944 1.377 . S
C958 C957 1.373 . S
C959 C943 1.377 . S
C959 C957 1.389 . S
C959 C960 1.524 . S
C960 C959 1.524 . S
C960 C961 1.397 . S
C960 C965 1.363 . S
C961 H932 0.950 . S
C961 C960 1.397 . S
C961 C962 1.334 . S
C962 H933 0.950 . S
C962 C961 1.334 . S
C962 C963 1.287 . S
C963 C962 1.287 . S
C963 C964 1.524 . S
C963 H966 0.999 . S
C964 H934 0.950 . S
C964 C963 1.524 . S
C964 C965 1.415 . S
C965 H935 0.950 . S
C965 C960 1.363 . S
C965 C964 1.415 . S
H966 C963 0.999 . S
H967 C948 0.913 . S
H968 C986 0.951 . S
H969 C988 0.951 . S
H970 C990 0.950 . S
H971 C991 0.950 . S
H972 C993 0.950 . S
H973 C996 0.950 . S
H974 C997 0.950 . S
H975 C999 0.950 . S
H976 C1000 0.950 . S
H977 C1001 0.951 . S
H978 C1003 0.951 . S
H979 C1005 0.950 . S
H980 C1006 0.950 . S
H981 C1008 0.950 . S
H982 C1011 0.950 . S
H983 C1012 0.950 . S
H984 C1014 0.950 . S
H985 C1015 0.950 . S
C986 H968 0.951 . S
C986 C987 1.366 . S
C986 C988 1.388 . S
C987 C986 1.366 . S
C987 C991 1.385 . S
C988 H969 0.951 . S
C988 C986 1.388 . S
C988 C989 1.366 . S
C989 C988 1.366 . S
C989 C990 1.414 . S
C989 C992 1.499 . S
C990 H970 0.950 . S
C990 C989 1.414 . S
C990 C991 1.374 . S
C991 H971 0.950 . S
C991 C987 1.385 . S
C991 C990 1.374 . S
C992 C989 1.499 . S
C992 C993 1.373 . S
C992 C994 1.389 . S
C993 H972 0.950 . S
C993 C992 1.373 . S
C993 C1009 1.377 . S
C994 C992 1.389 . S
C994 C995 1.524 . S
C994 C1008 1.377 . S
C995 C994 1.524 . S
C995 C996 1.397 . S
C995 C1000 1.363 . S
C996 H973 0.950 . S
C996 C995 1.397 . S
C996 C997 1.334 . S
C997 H974 0.950 . S
C997 C996 1.334 . S
C997 C998 1.287 . S
C998 C997 1.287 . S
C998 C999 1.524 . S
C998 H1017 0.913 . S
C999 H975 0.950 . S
C999 C998 1.524 . S
C999 C1000 1.415 . S
C1000 H976 0.950 . S
C1000 C995 1.363 . S
C1000 C999 1.415 . S
C1001 H977 0.951 . S
C1001 C1002 1.366 . S
C1001 C1003 1.388 . S
C1002 C1001 1.366 . S
C1002 C1006 1.385 . S
C1003 H978 0.951 . S
C1003 C1001 1.388 . S
C1003 C1004 1.366 . S
C1004 C1003 1.366 . S
C1004 C1005 1.414 . S
C1004 C1007 1.499 . S
C1005 H979 0.950 . S
C1005 C1004 1.414 . S
C1005 C1006 1.374 . S
C1006 H980 0.950 . S
C1006 C1002 1.385 . S
C1006 C1005 1.374 . S
C1007 C1004 1.499 . S
C1007 C1008 1.373 . S
C1007 C1009 1.389 . S
C1008 H981 0.950 . S
C1008 C994 1.377 . S
C1008 C1007 1.373 . S
C1009 C993 1.377 . S
C1009 C1007 1.389 . S
C1009 C1010 1.524 . S
C1010 C1009 1.524 . S
C1010 C1011 1.397 . S
C1010 C1015 1.363 . S
C1011 H982 0.950 . S
C1011 C1010 1.397 . S
C1011 C1012 1.334 . S
C1012 H983 0.950 . S
C1012 C1011 1.334 . S
C1012 C1013 1.287 . S
C1013 C1012 1.287 . S
C1013 C1014 1.524 . S
C1013 H1016 0.999 . S
C1014 H984 0.950 . S
C1014 C1013 1.524 . S
C1014 C1015 1.415 . S
C1015 H985 0.950 . S
C1015 C1010 1.363 . S
C1015 C1014 1.415 . S
H1016 C1013 0.999 . S
H1017 C998 0.913 . S
H1018 C1036 0.951 . S
H1019 C1038 0.951 . S
H1020 C1040 0.950 . S
H1021 C1041 0.950 . S
H1022 C1043 0.950 . S
H1023 C1046 0.950 . S
H1024 C1047 0.950 . S
H1025 C1049 0.950 . S
H1026 C1050 0.950 . S
H1027 C1051 0.951 . S
H1028 C1053 0.951 . S
H1029 C1055 0.950 . S
H1030 C1056 0.950 . S
H1031 C1058 0.950 . S
H1032 C1061 0.950 . S
H1033 C1062 0.950 . S
H1034 C1064 0.950 . S
H1035 C1065 0.950 . S
C1036 H1018 0.951 . S
C1036 C1037 1.366 . S
C1036 C1038 1.388 . S
C1037 C1036 1.366 . S
C1037 C1041 1.385 . S
C1038 H1019 0.951 . S
C1038 C1036 1.388 . S
C1038 C1039 1.366 . S
C1039 C1038 1.366 . S
C1039 C1040 1.414 . S
C1039 C1042 1.499 . S
C1040 H1020 0.950 . S
C1040 C1039 1.414 . S
C1040 C1041 1.374 . S
C1041 H1021 0.950 . S
C1041 C1037 1.385 . S
C1041 C1040 1.374 . S
C1042 C1039 1.499 . S
C1042 C1043 1.373 . S
C1042 C1044 1.389 . S
C1043 H1022 0.950 . S
C1043 C1042 1.373 . S
C1043 C1059 1.377 . S
C1044 C1042 1.389 . S
C1044 C1045 1.524 . S
C1044 C1058 1.377 . S
C1045 C1044 1.524 . S
C1045 C1046 1.397 . S
C1045 C1050 1.363 . S
C1046 H1023 0.950 . S
C1046 C1045 1.397 . S
C1046 C1047 1.334 . S
C1047 H1024 0.950 . S
C1047 C1046 1.334 . S
C1047 C1048 1.287 . S
C1048 C1047 1.287 . S
C1048 C1049 1.524 . S
C1048 H1067 0.913 . S
C1049 H1025 0.950 . S
C1049 C1048 1.524 . S
C1049 C1050 1.415 . S
C1050 H1026 0.950 . S
C1050 C1045 1.363 . S
C1050 C1049 1.415 . S
C1051 H1027 0.951 . S
C1051 C1052 1.366 . S
C1051 C1053 1.388 . S
C1052 C1051 1.366 . S
C1052 C1056 1.385 . S
C1053 H1028 0.951 . S
C1053 C1051 1.388 . S
C1053 C1054 1.366 . S
C1054 C1053 1.366 . S
C1054 C1055 1.414 . S
C1054 C1057 1.499 . S
C1055 H1029 0.950 . S
C1055 C1054 1.414 . S
C1055 C1056 1.374 . S
C1056 H1030 0.950 . S
C1056 C1052 1.385 . S
C1056 C1055 1.374 . S
C1057 C1054 1.499 . S
C1057 C1058 1.373 . S
C1057 C1059 1.389 . S
C1058 H1031 0.950 . S
C1058 C1044 1.377 . S
C1058 C1057 1.373 . S
C1059 C1043 1.377 . S
C1059 C1057 1.389 . S
C1059 C1060 1.524 . S
C1060 C1059 1.524 . S
C1060 C1061 1.397 . S
C1060 C1065 1.363 . S
C1061 H1032 0.950 . S
C1061 C1060 1.397 . S
C1061 C1062 1.334 . S
C1062 H1033 0.950 . S
C1062 C1061 1.334 . S
C1062 C1063 1.287 . S
C1063 C1062 1.287 . S
C1063 C1064 1.524 . S
C1063 H1066 0.999 . S
C1064 H1034 0.950 . S
C1064 C1063 1.524 . S
C1064 C1065 1.415 . S
C1065 H1035 0.950 . S
C1065 C1060 1.363 . S
C1065 C1064 1.415 . S
H1066 C1063 0.999 . S
H1067 C1048 0.913 . S
H1068 C1086 0.951 . S
H1069 C1088 0.951 . S
H1070 C1090 0.950 . S
H1071 C1091 0.950 . S
H1072 C1093 0.950 . S
H1073 C1096 0.950 . S
H1074 C1097 0.950 . S
H1075 C1099 0.950 . S
H1076 C1100 0.950 . S
H1077 C1101 0.951 . S
H1078 C1103 0.951 . S
H1079 C1105 0.950 . S
H1080 C1106 0.950 . S
H1081 C1108 0.950 . S
H1082 C1111 0.950 . S
H1083 C1112 0.950 . S
H1084 C1114 0.950 . S
H1085 C1115 0.950 . S
C1086 H1068 0.951 . S
C1086 C1087 1.366 . S
C1086 C1088 1.388 . S
C1087 C1086 1.366 . S
C1087 C1091 1.385 . S
C1088 H1069 0.951 . S
C1088 C1086 1.388 . S
C1088 C1089 1.366 . S
C1089 C1088 1.366 . S
C1089 C1090 1.414 . S
C1089 C1092 1.499 . S
C1090 H1070 0.950 . S
C1090 C1089 1.414 . S
C1090 C1091 1.374 . S
C1091 H1071 0.950 . S
C1091 C1087 1.385 . S
C1091 C1090 1.374 . S
C1092 C1089 1.499 . S
C1092 C1093 1.373 . S
C1092 C1094 1.389 . S
C1093 H1072 0.950 . S
C1093 C1092 1.373 . S
C1093 C1109 1.377 . S
C1094 C1092 1.389 . S
C1094 C1095 1.524 . S
C1094 C1108 1.377 . S
C1095 C1094 1.524 . S
C1095 C1096 1.397 . S
C1095 C1100 1.363 . S
C1096 H1073 0.950 . S
C1096 C1095 1.397 . S
C1096 C1097 1.334 . S
C1097 H1074 0.950 . S
C1097 C1096 1.334 . S
C1097 C1098 1.287 . S
C1098 C1097 1.287 . S
C1098 C1099 1.524 . S
C1098 H1117 0.913 . S
C1099 H1075 0.950 . S
C1099 C1098 1.524 . S
C1099 C1100 1.415 . S
C1100 H1076 0.950 . S
C1100 C1095 1.363 . S
C1100 C1099 1.415 . S
C1101 H1077 0.951 . S
C1101 C1102 1.366 . S
C1101 C1103 1.388 . S
C1102 C1101 1.366 . S
C1102 C1106 1.385 . S
C1103 H1078 0.951 . S
C1103 C1101 1.388 . S
C1103 C1104 1.366 . S
C1104 C1103 1.366 . S
C1104 C1105 1.414 . S
C1104 C1107 1.499 . S
C1105 H1079 0.950 . S
C1105 C1104 1.414 . S
C1105 C1106 1.374 . S
C1106 H1080 0.950 . S
C1106 C1102 1.385 . S
C1106 C1105 1.374 . S
C1107 C1104 1.499 . S
C1107 C1108 1.373 . S
C1107 C1109 1.389 . S
C1108 H1081 0.950 . S
C1108 C1094 1.377 . S
C1108 C1107 1.373 . S
C1109 C1093 1.377 . S
C1109 C1107 1.389 . S
C1109 C1110 1.524 . S
C1110 C1109 1.524 . S
C1110 C1111 1.397 . S
C1110 C1115 1.363 . S
C1111 H1082 0.950 . S
C1111 C1110 1.397 . S
C1111 C1112 1.334 . S
C1112 H1083 0.950 . S
C1112 C1111 1.334 . S
C1112 C1113 1.287 . S
C1113 C1112 1.287 . S
C1113 C1114 1.524 . S
C1113 H1116 0.999 . S
C1114 H1084 0.950 . S
C1114 C1113 1.524 . S
C1114 C1115 1.415 . S
C1115 H1085 0.950 . S
C1115 C1110 1.363 . S
C1115 C1114 1.415 . S
H1116 C1113 0.999 . S
H1117 C1098 0.913 . S
H1118 C1136 0.951 . S
H1119 C1138 0.951 . S
H1120 C1140 0.950 . S
H1121 C1141 0.950 . S
H1122 C1143 0.950 . S
H1123 C1146 0.950 . S
H1124 C1147 0.950 . S
H1125 C1149 0.950 . S
H1126 C1150 0.950 . S
H1127 C1151 0.951 . S
H1128 C1153 0.951 . S
H1129 C1155 0.950 . S
H1130 C1156 0.950 . S
H1131 C1158 0.950 . S
H1132 C1161 0.950 . S
H1133 C1162 0.950 . S
H1134 C1164 0.950 . S
H1135 C1165 0.950 . S
C1136 H1118 0.951 . S
C1136 C1137 1.366 . S
C1136 C1138 1.388 . S
C1137 C1136 1.366 . S
C1137 C1141 1.385 . S
C1138 H1119 0.951 . S
C1138 C1136 1.388 . S
C1138 C1139 1.366 . S
C1139 C1138 1.366 . S
C1139 C1140 1.414 . S
C1139 C1142 1.499 . S
C1140 H1120 0.950 . S
C1140 C1139 1.414 . S
C1140 C1141 1.374 . S
C1141 H1121 0.950 . S
C1141 C1137 1.385 . S
C1141 C1140 1.374 . S
C1142 C1139 1.499 . S
C1142 C1143 1.373 . S
C1142 C1144 1.389 . S
C1143 H1122 0.950 . S
C1143 C1142 1.373 . S
C1143 C1159 1.377 . S
C1144 C1142 1.389 . S
C1144 C1145 1.524 . S
C1144 C1158 1.377 . S
C1145 C1144 1.524 . S
C1145 C1146 1.397 . S
C1145 C1150 1.363 . S
C1146 H1123 0.950 . S
C1146 C1145 1.397 . S
C1146 C1147 1.334 . S
C1147 H1124 0.950 . S
C1147 C1146 1.334 . S
C1147 C1148 1.287 . S
C1148 C1147 1.287 . S
C1148 C1149 1.524 . S
C1148 H1167 0.913 . S
C1149 H1125 0.950 . S
C1149 C1148 1.524 . S
C1149 C1150 1.415 . S
C1150 H1126 0.950 . S
C1150 C1145 1.363 . S
C1150 C1149 1.415 . S
C1151 H1127 0.951 . S
C1151 C1152 1.366 . S
C1151 C1153 1.388 . S
C1152 C1151 1.366 . S
C1152 C1156 1.385 . S
C1153 H1128 0.951 . S
C1153 C1151 1.388 . S
C1153 C1154 1.366 . S
C1154 C1153 1.366 . S
C1154 C1155 1.414 . S
C1154 C1157 1.499 . S
C1155 H1129 0.950 . S
C1155 C1154 1.414 . S
C1155 C1156 1.374 . S
C1156 H1130 0.950 . S
C1156 C1152 1.385 . S
C1156 C1155 1.374 . S
C1157 C1154 1.499 . S
C1157 C1158 1.373 . S
C1157 C1159 1.389 . S
C1158 H1131 0.950 . S
C1158 C1144 1.377 . S
C1158 C1157 1.373 . S
C1159 C1143 1.377 . S
C1159 C1157 1.389 . S
C1159 C1160 1.524 . S
C1160 C1159 1.524 . S
C1160 C1161 1.397 . S
C1160 C1165 1.363 . S
C1161 H1132 0.950 . S
C1161 C1160 1.397 . S
C1161 C1162 1.334 . S
C1162 H1133 0.950 . S
C1162 C1161 1.334 . S
C1162 C1163 1.287 . S
C1163 C1162 1.287 . S
C1163 C1164 1.524 . S
C1163 H1166 0.999 . S
C1164 H1134 0.950 . S
C1164 C1163 1.524 . S
C1164 C1165 1.415 . S
C1165 H1135 0.950 . S
C1165 C1160 1.363 . S
C1165 C1164 1.415 . S
H1166 C1163 0.999 . S
H1167 C1148 0.913 . S
H1168 C1186 0.951 . S
H1169 C1188 0.951 . S
H1170 C1190 0.950 . S
H1171 C1191 0.950 . S
H1172 C1193 0.950 . S
H1173 C1196 0.950 . S
H1174 C1197 0.950 . S
H1175 C1199 0.950 . S
H1176 C1200 0.950 . S
H1177 C1201 0.951 . S
H1178 C1203 0.951 . S
H1179 C1205 0.950 . S
H1180 C1206 0.950 . S
H1181 C1208 0.950 . S
H1182 C1211 0.950 . S
H1183 C1212 0.950 . S
H1184 C1214 0.950 . S
H1185 C1215 0.950 . S
C1186 H1168 0.951 . S
C1186 C1187 1.366 . S
C1186 C1188 1.388 . S
C1187 C1186 1.366 . S
C1187 C1191 1.385 . S
C1188 H1169 0.951 . S
C1188 C1186 1.388 . S
C1188 C1189 1.366 . S
C1189 C1188 1.366 . S
C1189 C1190 1.414 . S
C1189 C1192 1.499 . S
C1190 H1170 0.950 . S
C1190 C1189 1.414 . S
C1190 C1191 1.374 . S
C1191 H1171 0.950 . S
C1191 C1187 1.385 . S
C1191 C1190 1.374 . S
C1192 C1189 1.499 . S
C1192 C1193 1.373 . S
C1192 C1194 1.389 . S
C1193 H1172 0.950 . S
C1193 C1192 1.373 . S
C1193 C1209 1.377 . S
C1194 C1192 1.389 . S
C1194 C1195 1.524 . S
C1194 C1208 1.377 . S
C1195 C1194 1.524 . S
C1195 C1196 1.397 . S
C1195 C1200 1.363 . S
C1196 H1173 0.950 . S
C1196 C1195 1.397 . S
C1196 C1197 1.334 . S
C1197 H1174 0.950 . S
C1197 C1196 1.334 . S
C1197 C1198 1.287 . S
C1198 C1197 1.287 . S
C1198 C1199 1.524 . S
C1198 H1217 0.913 . S
C1199 H1175 0.950 . S
C1199 C1198 1.524 . S
C1199 C1200 1.415 . S
C1200 H1176 0.950 . S
C1200 C1195 1.363 . S
C1200 C1199 1.415 . S
C1201 H1177 0.951 . S
C1201 C1202 1.366 . S
C1201 C1203 1.388 . S
C1202 C1201 1.366 . S
C1202 C1206 1.385 . S
C1203 H1178 0.951 . S
C1203 C1201 1.388 . S
C1203 C1204 1.366 . S
C1204 C1203 1.366 . S
C1204 C1205 1.414 . S
C1204 C1207 1.499 . S
C1205 H1179 0.950 . S
C1205 C1204 1.414 . S
C1205 C1206 1.374 . S
C1206 H1180 0.950 . S
C1206 C1202 1.385 . S
C1206 C1205 1.374 . S
C1207 C1204 1.499 . S
C1207 C1208 1.373 . S
C1207 C1209 1.389 . S
C1208 H1181 0.950 . S
C1208 C1194 1.377 . S
C1208 C1207 1.373 . S
C1209 C1193 1.377 . S
C1209 C1207 1.389 . S
C1209 C1210 1.524 . S
C1210 C1209 1.524 . S
C1210 C1211 1.397 . S
C1210 C1215 1.363 . S
C1211 H1182 0.950 . S
C1211 C1210 1.397 . S
C1211 C1212 1.334 . S
C1212 H1183 0.950 . S
C1212 C1211 1.334 . S
C1212 C1213 1.287 . S
C1213 C1212 1.287 . S
C1213 C1214 1.524 . S
C1213 H1216 0.999 . S
C1214 H1184 0.950 . S
C1214 C1213 1.524 . S
C1214 C1215 1.415 . S
C1215 H1185 0.950 . S
C1215 C1210 1.363 . S
C1215 C1214 1.415 . S
H1216 C1213 0.999 . S
H1217 C1198 0.913 . S
H1218 C1236 0.951 . S
H1219 C1238 0.951 . S
H1220 C1240 0.950 . S
H1221 C1241 0.950 . S
H1222 C1243 0.950 . S
H1223 C1246 0.950 . S
H1224 C1247 0.950 . S
H1225 C1249 0.950 . S
H1226 C1250 0.950 . S
H1227 C1251 0.951 . S
H1228 C1253 0.951 . S
H1229 C1255 0.950 . S
H1230 C1256 0.950 . S
H1231 C1258 0.950 . S
H1232 C1261 0.950 . S
H1233 C1262 0.950 . S
H1234 C1264 0.962 . S
H1235 C1265 0.950 . S
C1236 H1218 0.951 . S
C1236 C1237 1.366 . S
C1236 C1238 1.388 . S
C1237 C1236 1.366 . S
C1237 C1241 1.385 . S
C1238 H1219 0.951 . S
C1238 C1236 1.388 . S
C1238 C1239 1.366 . S
C1239 C1238 1.366 . S
C1239 C1240 1.414 . S
C1239 C1242 1.499 . S
C1240 H1220 0.950 . S
C1240 C1239 1.414 . S
C1240 C1241 1.374 . S
C1241 H1221 0.950 . S
C1241 C1237 1.385 . S
C1241 C1240 1.374 . S
C1242 C1239 1.499 . S
C1242 C1243 1.373 . S
C1242 C1244 1.389 . S
C1243 H1222 0.950 . S
C1243 C1242 1.373 . S
C1243 C1259 1.377 . S
C1244 C1242 1.389 . S
C1244 C1245 1.524 . S
C1244 C1258 1.377 . S
C1245 C1244 1.524 . S
C1245 C1246 1.397 . S
C1245 C1250 1.363 . S
C1246 H1223 0.950 . S
C1246 C1245 1.397 . S
C1246 C1247 1.334 . S
C1247 H1224 0.950 . S
C1247 C1246 1.334 . S
C1247 C1248 1.287 . S
C1248 C1247 1.287 . S
C1248 C1249 1.524 . S
C1248 H1267 0.913 . S
C1249 H1225 0.950 . S
C1249 C1248 1.524 . S
C1249 C1250 1.415 . S
C1250 H1226 0.950 . S
C1250 C1245 1.363 . S
C1250 C1249 1.415 . S
C1251 H1227 0.951 . S
C1251 C1252 1.366 . S
C1251 C1253 1.388 . S
C1252 C1251 1.366 . S
C1252 C1256 1.385 . S
C1253 H1228 0.951 . S
C1253 C1251 1.388 . S
C1253 C1254 1.366 . S
C1254 C1253 1.366 . S
C1254 C1255 1.414 . S
C1254 C1257 1.499 . S
C1255 H1229 0.950 . S
C1255 C1254 1.414 . S
C1255 C1256 1.374 . S
C1256 H1230 0.950 . S
C1256 C1252 1.385 . S
C1256 C1255 1.374 . S
C1257 C1254 1.499 . S
C1257 C1258 1.373 . S
C1257 C1259 1.389 . S
C1258 H1231 0.950 . S
C1258 C1244 1.377 . S
C1258 C1257 1.373 . S
C1259 C1243 1.377 . S
C1259 C1257 1.389 . S
C1259 C1260 1.524 . S
C1260 C1259 1.524 . S
C1260 C1261 1.397 . S
C1260 C1265 1.363 . S
C1261 H1232 0.950 . S
C1261 C1260 1.397 . S
C1261 C1262 1.334 . S
C1262 H1233 0.950 . S
C1262 C1261 1.334 . S
C1262 C1263 1.287 . S
C1263 C1262 1.287 . S
C1263 C1264 1.518 1_554 S
C1263 H1266 0.999 . S
C1264 H1234 0.962 . S
C1264 C1263 1.518 1_556 S
C1264 C1265 1.407 1_556 S
C1265 H1235 0.950 . S
C1265 C1260 1.363 . S
C1265 C1264 1.407 1_554 S
H1266 C1263 0.999 . S
H1267 C1248 0.913 . S
H1268 C1286 0.951 . S
H1269 C1288 0.951 . S
H1270 C1290 0.950 . S
H1271 C1291 0.950 . S
H1272 C1293 0.950 . S
H1273 C1296 0.950 . S
H1274 C1297 0.950 . S
H1275 C1299 0.950 . S
H1276 C1300 0.950 . S
H1277 C1301 0.951 . S
H1278 C1303 0.951 . S
H1279 C1305 0.950 . S
H1280 C1306 0.950 . S
H1281 C1308 0.950 . S
H1282 C1311 0.950 . S
H1283 C1312 0.950 . S
H1284 C1314 0.950 . S
H1285 C1315 0.950 . S
C1286 H1268 0.951 . S
C1286 C1287 1.366 . S
C1286 C1288 1.388 . S
C1287 C1286 1.366 . S
C1287 C1291 1.385 . S
C1288 H1269 0.951 . S
C1288 C1286 1.388 . S
C1288 C1289 1.366 . S
C1289 C1288 1.366 . S
C1289 C1290 1.414 . S
C1289 C1292 1.499 . S
C1290 H1270 0.950 . S
C1290 C1289 1.414 . S
C1290 C1291 1.374 . S
C1291 H1271 0.950 . S
C1291 C1287 1.385 . S
C1291 C1290 1.374 . S
C1292 C1289 1.499 . S
C1292 C1293 1.373 . S
C1292 C1294 1.389 . S
C1293 H1272 0.950 . S
C1293 C1292 1.373 . S
C1293 C1309 1.377 . S
C1294 C1292 1.389 . S
C1294 C1295 1.524 . S
C1294 C1308 1.377 . S
C1295 C1294 1.524 . S
C1295 C1296 1.397 . S
C1295 C1300 1.363 . S
C1296 H1273 0.950 . S
C1296 C1295 1.397 . S
C1296 C1297 1.334 . S
C1297 H1274 0.950 . S
C1297 C1296 1.334 . S
C1297 C1298 1.287 . S
C1298 C1297 1.287 . S
C1298 C1299 1.524 . S
C1298 H1317 0.913 . S
C1299 H1275 0.950 . S
C1299 C1298 1.524 . S
C1299 C1300 1.415 . S
C1300 H1276 0.950 . S
C1300 C1295 1.363 . S
C1300 C1299 1.415 . S
C1301 H1277 0.951 . S
C1301 C1302 1.366 . S
C1301 C1303 1.388 . S
C1302 C1301 1.366 . S
C1302 C1306 1.385 . S
C1303 H1278 0.951 . S
C1303 C1301 1.388 . S
C1303 C1304 1.366 . S
C1304 C1303 1.366 . S
C1304 C1305 1.414 . S
C1304 C1307 1.499 . S
C1305 H1279 0.950 . S
C1305 C1304 1.414 . S
C1305 C1306 1.374 . S
C1306 H1280 0.950 . S
C1306 C1302 1.385 . S
C1306 C1305 1.374 . S
C1307 C1304 1.499 . S
C1307 C1308 1.373 . S
C1307 C1309 1.389 . S
C1308 H1281 0.950 . S
C1308 C1294 1.377 . S
C1308 C1307 1.373 . S
C1309 C1293 1.377 . S
C1309 C1307 1.389 . S
C1309 C1310 1.524 . S
C1310 C1309 1.524 . S
C1310 C1311 1.397 . S
C1310 C1315 1.363 . S
C1311 H1282 0.950 . S
C1311 C1310 1.397 . S
C1311 C1312 1.334 . S
C1312 H1283 0.950 . S
C1312 C1311 1.334 . S
C1312 C1313 1.287 . S
C1313 C1312 1.287 . S
C1313 C1314 1.524 . S
C1313 H1316 0.999 . S
C1314 H1284 0.950 . S
C1314 C1313 1.524 . S
C1314 C1315 1.415 . S
C1315 H1285 0.950 . S
C1315 C1310 1.363 . S
C1315 C1314 1.415 . S
H1316 C1313 0.999 . S
H1317 C1298 0.913 . S
H1318 C1336 0.951 . S
H1319 C1338 0.951 . S
H1320 C1340 0.950 . S
H1321 C1341 0.950 . S
H1322 C1343 0.950 . S
H1323 C1346 0.950 . S
H1324 C1347 0.950 . S
H1325 C1349 0.950 . S
H1326 C1350 0.950 . S
H1327 C1351 0.951 . S
H1328 C1353 0.951 . S
H1329 C1355 0.950 . S
H1330 C1356 0.950 . S
H1331 C1358 0.950 . S
H1332 C1361 0.950 . S
H1333 C1362 0.950 . S
H1334 C1364 0.950 . S
H1335 C1365 0.950 . S
C1336 H1318 0.951 . S
C1336 C1337 1.366 . S
C1336 C1338 1.388 . S
C1337 C1336 1.366 . S
C1337 C1341 1.385 . S
C1338 H1319 0.951 . S
C1338 C1336 1.388 . S
C1338 C1339 1.366 . S
C1339 C1338 1.366 . S
C1339 C1340 1.414 . S
C1339 C1342 1.499 . S
C1340 H1320 0.950 . S
C1340 C1339 1.414 . S
C1340 C1341 1.374 . S
C1341 H1321 0.950 . S
C1341 C1337 1.385 . S
C1341 C1340 1.374 . S
C1342 C1339 1.499 . S
C1342 C1343 1.373 . S
C1342 C1344 1.389 . S
C1343 H1322 0.950 . S
C1343 C1342 1.373 . S
C1343 C1359 1.377 . S
C1344 C1342 1.389 . S
C1344 C1345 1.524 . S
C1344 C1358 1.377 . S
C1345 C1344 1.524 . S
C1345 C1346 1.397 . S
C1345 C1350 1.363 . S
C1346 H1323 0.950 . S
C1346 C1345 1.397 . S
C1346 C1347 1.334 . S
C1347 H1324 0.950 . S
C1347 C1346 1.334 . S
C1347 C1348 1.287 . S
C1348 C1347 1.287 . S
C1348 C1349 1.524 . S
C1348 H1367 0.913 . S
C1349 H1325 0.950 . S
C1349 C1348 1.524 . S
C1349 C1350 1.415 . S
C1350 H1326 0.950 . S
C1350 C1345 1.363 . S
C1350 C1349 1.415 . S
C1351 H1327 0.951 . S
C1351 C1352 1.366 . S
C1351 C1353 1.388 . S
C1352 C1351 1.366 . S
C1352 C1356 1.385 . S
C1353 H1328 0.951 . S
C1353 C1351 1.388 . S
C1353 C1354 1.366 . S
C1354 C1353 1.366 . S
C1354 C1355 1.414 . S
C1354 C1357 1.499 . S
C1355 H1329 0.950 . S
C1355 C1354 1.414 . S
C1355 C1356 1.374 . S
C1356 H1330 0.950 . S
C1356 C1352 1.385 . S
C1356 C1355 1.374 . S
C1357 C1354 1.499 . S
C1357 C1358 1.373 . S
C1357 C1359 1.389 . S
C1358 H1331 0.950 . S
C1358 C1344 1.377 . S
C1358 C1357 1.373 . S
C1359 C1343 1.377 . S
C1359 C1357 1.389 . S
C1359 C1360 1.524 . S
C1360 C1359 1.524 . S
C1360 C1361 1.397 . S
C1360 C1365 1.363 . S
C1361 H1332 0.950 . S
C1361 C1360 1.397 . S
C1361 C1362 1.334 . S
C1362 H1333 0.950 . S
C1362 C1361 1.334 . S
C1362 C1363 1.287 . S
C1363 C1362 1.287 . S
C1363 C1364 1.524 . S
C1363 H1366 0.999 . S
C1364 H1334 0.950 . S
C1364 C1363 1.524 . S
C1364 C1365 1.415 . S
C1365 H1335 0.950 . S
C1365 C1360 1.363 . S
C1365 C1364 1.415 . S
H1366 C1363 0.999 . S
H1367 C1348 0.913 . S
H1368 C1386 0.951 . S
H1369 C1388 0.951 . S
H1370 C1390 0.950 . S
H1371 C1391 0.950 . S
H1372 C1393 0.950 . S
H1373 C1396 0.950 . S
H1374 C1397 0.950 . S
H1375 C1399 0.950 . S
H1376 C1400 0.950 . S
H1377 C1401 0.951 . S
H1378 C1403 0.951 . S
H1379 C1405 0.950 . S
H1380 C1406 0.950 . S
H1381 C1408 0.950 . S
H1382 C1411 0.950 . S
H1383 C1412 0.950 . S
H1384 C1414 0.950 . S
H1385 C1415 0.950 . S
C1386 H1368 0.951 . S
C1386 C1387 1.366 . S
C1386 C1388 1.388 . S
C1387 C1386 1.366 . S
C1387 C1391 1.385 . S
C1388 H1369 0.951 . S
C1388 C1386 1.388 . S
C1388 C1389 1.366 . S
C1389 C1388 1.366 . S
C1389 C1390 1.414 . S
C1389 C1392 1.499 . S
C1390 H1370 0.950 . S
C1390 C1389 1.414 . S
C1390 C1391 1.374 . S
C1391 H1371 0.950 . S
C1391 C1387 1.385 . S
C1391 C1390 1.374 . S
C1392 C1389 1.499 . S
C1392 C1393 1.373 . S
C1392 C1394 1.389 . S
C1393 H1372 0.950 . S
C1393 C1392 1.373 . S
C1393 C1409 1.377 . S
C1394 C1392 1.389 . S
C1394 C1395 1.524 . S
C1394 C1408 1.377 . S
C1395 C1394 1.524 . S
C1395 C1396 1.397 . S
C1395 C1400 1.363 . S
C1396 H1373 0.950 . S
C1396 C1395 1.397 . S
C1396 C1397 1.334 . S
C1397 H1374 0.950 . S
C1397 C1396 1.334 . S
C1397 C1398 1.287 . S
C1398 C1397 1.287 . S
C1398 C1399 1.524 . S
C1398 H1417 0.913 . S
C1399 H1375 0.950 . S
C1399 C1398 1.524 . S
C1399 C1400 1.415 . S
C1400 H1376 0.950 . S
C1400 C1395 1.363 . S
C1400 C1399 1.415 . S
C1401 H1377 0.951 . S
C1401 C1402 1.366 . S
C1401 C1403 1.388 . S
C1402 C1401 1.366 . S
C1402 C1406 1.385 . S
C1403 H1378 0.951 . S
C1403 C1401 1.388 . S
C1403 C1404 1.366 . S
C1404 C1403 1.366 . S
C1404 C1405 1.414 . S
C1404 C1407 1.499 . S
C1405 H1379 0.950 . S
C1405 C1404 1.414 . S
C1405 C1406 1.374 . S
C1406 H1380 0.950 . S
C1406 C1402 1.385 . S
C1406 C1405 1.374 . S
C1407 C1404 1.499 . S
C1407 C1408 1.373 . S
C1407 C1409 1.389 . S
C1408 H1381 0.950 . S
C1408 C1394 1.377 . S
C1408 C1407 1.373 . S
C1409 C1393 1.377 . S
C1409 C1407 1.389 . S
C1409 C1410 1.524 . S
C1410 C1409 1.524 . S
C1410 C1411 1.397 . S
C1410 C1415 1.363 . S
C1411 H1382 0.950 . S
C1411 C1410 1.397 . S
C1411 C1412 1.334 . S
C1412 H1383 0.950 . S
C1412 C1411 1.334 . S
C1412 C1413 1.287 . S
C1413 C1412 1.287 . S
C1413 C1414 1.524 . S
C1413 H1416 0.999 . S
C1414 H1384 0.950 . S
C1414 C1413 1.524 . S
C1414 C1415 1.415 . S
C1415 H1385 0.950 . S
C1415 C1410 1.363 . S
C1415 C1414 1.415 . S
H1416 C1413 0.999 . S
H1417 C1398 0.913 . S
H1418 C1436 0.951 . S
H1419 C1438 0.951 . S
H1420 C1440 0.950 . S
H1421 C1441 0.950 . S
H1422 C1443 0.950 . S
H1423 C1446 0.950 . S
H1424 C1447 0.950 . S
H1425 C1449 0.950 . S
H1426 C1450 0.950 . S
H1427 C1451 0.951 . S
H1428 C1453 0.951 . S
H1429 C1455 0.950 . S
H1430 C1456 0.950 . S
H1431 C1458 0.950 . S
H1432 C1461 0.950 . S
H1433 C1462 0.950 . S
H1434 C1464 0.950 . S
H1435 C1465 0.950 . S
C1436 H1418 0.951 . S
C1436 C1437 1.366 . S
C1436 C1438 1.388 . S
C1437 C1436 1.366 . S
C1437 C1441 1.385 . S
C1438 H1419 0.951 . S
C1438 C1436 1.388 . S
C1438 C1439 1.366 . S
C1439 C1438 1.366 . S
C1439 C1440 1.414 . S
C1439 C1442 1.499 . S
C1440 H1420 0.950 . S
C1440 C1439 1.414 . S
C1440 C1441 1.374 . S
C1441 H1421 0.950 . S
C1441 C1437 1.385 . S
C1441 C1440 1.374 . S
C1442 C1439 1.499 . S
C1442 C1443 1.373 . S
C1442 C1444 1.389 . S
C1443 H1422 0.950 . S
C1443 C1442 1.373 . S
C1443 C1459 1.377 . S
C1444 C1442 1.389 . S
C1444 C1445 1.524 . S
C1444 C1458 1.377 . S
C1445 C1444 1.524 . S
C1445 C1446 1.397 . S
C1445 C1450 1.363 . S
C1446 H1423 0.950 . S
C1446 C1445 1.397 . S
C1446 C1447 1.334 . S
C1447 H1424 0.950 . S
C1447 C1446 1.334 . S
C1447 C1448 1.287 . S
C1448 C1447 1.287 . S
C1448 C1449 1.524 . S
C1448 H1467 0.913 . S
C1449 H1425 0.950 . S
C1449 C1448 1.524 . S
C1449 C1450 1.415 . S
C1450 H1426 0.950 . S
C1450 C1445 1.363 . S
C1450 C1449 1.415 . S
C1451 H1427 0.951 . S
C1451 C1452 1.366 . S
C1451 C1453 1.388 . S
C1452 C1451 1.366 . S
C1452 C1456 1.385 . S
C1453 H1428 0.951 . S
C1453 C1451 1.388 . S
C1453 C1454 1.366 . S
C1454 C1453 1.366 . S
C1454 C1455 1.414 . S
C1454 C1457 1.499 . S
C1455 H1429 0.950 . S
C1455 C1454 1.414 . S
C1455 C1456 1.374 . S
C1456 H1430 0.950 . S
C1456 C1452 1.385 . S
C1456 C1455 1.374 . S
C1457 C1454 1.499 . S
C1457 C1458 1.373 . S
C1457 C1459 1.389 . S
C1458 H1431 0.950 . S
C1458 C1444 1.377 . S
C1458 C1457 1.373 . S
C1459 C1443 1.377 . S
C1459 C1457 1.389 . S
C1459 C1460 1.524 . S
C1460 C1459 1.524 . S
C1460 C1461 1.397 . S
C1460 C1465 1.363 . S
C1461 H1432 0.950 . S
C1461 C1460 1.397 . S
C1461 C1462 1.334 . S
C1462 H1433 0.950 . S
C1462 C1461 1.334 . S
C1462 C1463 1.287 . S
C1463 C1462 1.287 . S
C1463 C1464 1.524 . S
C1463 H1466 0.999 . S
C1464 H1434 0.950 . S
C1464 C1463 1.524 . S
C1464 C1465 1.415 . S
C1465 H1435 0.950 . S
C1465 C1460 1.363 . S
C1465 C1464 1.415 . S
H1466 C1463 0.999 . S
H1467 C1448 0.913 . S
H1468 C1486 0.951 . S
H1469 C1488 0.951 . S
H1470 C1490 0.950 . S
H1471 C1491 0.950 . S
H1472 C1493 0.950 . S
H1473 C1496 0.950 . S
H1474 C1497 0.950 . S
H1475 C1499 0.950 . S
H1476 C1500 0.950 . S
H1477 C1501 0.951 . S
H1478 C1503 0.951 . S
H1479 C1505 0.950 . S
H1480 C1506 0.950 . S
H1481 C1508 0.950 . S
H1482 C1511 0.950 . S
H1483 C1512 0.950 . S
H1484 C1514 0.950 . S
H1485 C1515 0.950 . S
C1486 H1468 0.951 . S
C1486 C1487 1.366 . S
C1486 C1488 1.388 . S
C1487 C1486 1.366 . S
C1487 C1491 1.385 . S
C1488 H1469 0.951 . S
C1488 C1486 1.388 . S
C1488 C1489 1.366 . S
C1489 C1488 1.366 . S
C1489 C1490 1.414 . S
C1489 C1492 1.499 . S
C1490 H1470 0.950 . S
C1490 C1489 1.414 . S
C1490 C1491 1.374 . S
C1491 H1471 0.950 . S
C1491 C1487 1.385 . S
C1491 C1490 1.374 . S
C1492 C1489 1.499 . S
C1492 C1493 1.373 . S
C1492 C1494 1.389 . S
C1493 H1472 0.950 . S
C1493 C1492 1.373 . S
C1493 C1509 1.377 . S
C1494 C1492 1.389 . S
C1494 C1495 1.524 . S
C1494 C1508 1.377 . S
C1495 C1494 1.524 . S
C1495 C1496 1.397 . S
C1495 C1500 1.363 . S
C1496 H1473 0.950 . S
C1496 C1495 1.397 . S
C1496 C1497 1.334 . S
C1497 H1474 0.950 . S
C1497 C1496 1.334 . S
C1497 C1498 1.287 . S
C1498 C1497 1.287 . S
C1498 C1499 1.524 . S
C1498 H1517 0.913 . S
C1499 H1475 0.950 . S
C1499 C1498 1.524 . S
C1499 C1500 1.415 . S
C1500 H1476 0.950 . S
C1500 C1495 1.363 . S
C1500 C1499 1.415 . S
C1501 H1477 0.951 . S
C1501 C1502 1.366 . S
C1501 C1503 1.388 . S
C1502 C1501 1.366 . S
C1502 C1506 1.385 . S
C1503 H1478 0.951 . S
C1503 C1501 1.388 . S
C1503 C1504 1.366 . S
C1504 C1503 1.366 . S
C1504 C1505 1.414 . S
C1504 C1507 1.499 . S
C1505 H1479 0.950 . S
C1505 C1504 1.414 . S
C1505 C1506 1.374 . S
C1506 H1480 0.950 . S
C1506 C1502 1.385 . S
C1506 C1505 1.374 . S
C1507 C1504 1.499 . S
C1507 C1508 1.373 . S
C1507 C1509 1.389 . S
C1508 H1481 0.950 . S
C1508 C1494 1.377 . S
C1508 C1507 1.373 . S
C1509 C1493 1.377 . S
C1509 C1507 1.389 . S
C1509 C1510 1.524 . S
C1510 C1509 1.524 . S
C1510 C1511 1.397 . S
C1510 C1515 1.363 . S
C1511 H1482 0.950 . S
C1511 C1510 1.397 . S
C1511 C1512 1.334 . S
C1512 H1483 0.950 . S
C1512 C1511 1.334 . S
C1512 C1513 1.287 . S
C1513 C1512 1.287 . S
C1513 C1514 1.524 . S
C1513 H1516 0.999 . S
C1514 H1484 0.950 . S
C1514 C1513 1.524 . S
C1514 C1515 1.415 . S
C1515 H1485 0.950 . S
C1515 C1510 1.363 . S
C1515 C1514 1.415 . S
H1516 C1513 0.999 . S
H1517 C1498 0.913 . S
H1518 C1536 0.951 . S
H1519 C1538 0.951 . S
H1520 C1540 0.950 . S
H1521 C1541 0.950 . S
H1522 C1543 0.950 . S
H1523 C1546 0.950 . S
H1524 C1547 0.950 . S
H1525 C1549 0.950 . S
H1526 C1550 0.950 . S
H1527 C1551 0.951 . S
H1528 C1553 0.996 . S
H1529 C1555 0.950 . S
H1530 C1556 0.950 . S
H1531 C1558 0.950 . S
H1532 C1561 0.950 . S
H1533 C1562 0.950 . S
H1534 C1564 0.950 . S
H1535 C1565 0.950 . S
C1536 H1518 0.951 . S
C1536 C1537 1.366 . S
C1536 C1538 1.388 . S
C1537 C1536 1.366 . S
C1537 C1541 1.385 . S
C1538 H1519 0.951 . S
C1538 C1536 1.388 . S
C1538 C1539 1.366 . S
C1539 C1538 1.366 . S
C1539 C1540 1.414 . S
C1539 C1542 1.499 . S
C1540 H1520 0.950 . S
C1540 C1539 1.414 . S
C1540 C1541 1.374 . S
C1541 H1521 0.950 . S
C1541 C1537 1.385 . S
C1541 C1540 1.374 . S
C1542 C1539 1.499 . S
C1542 C1543 1.373 . S
C1542 C1544 1.389 . S
C1543 H1522 0.950 . S
C1543 C1542 1.373 . S
C1543 C1559 1.377 . S
C1544 C1542 1.389 . S
C1544 C1545 1.524 . S
C1544 C1558 1.377 . S
C1545 C1544 1.524 . S
C1545 C1546 1.397 . S
C1545 C1550 1.363 . S
C1546 H1523 0.950 . S
C1546 C1545 1.397 . S
C1546 C1547 1.334 . S
C1547 H1524 0.950 . S
C1547 C1546 1.334 . S
C1547 C1548 1.287 . S
C1548 C1547 1.287 . S
C1548 C1549 1.524 . S
C1548 H1567 0.913 . S
C1549 H1525 0.950 . S
C1549 C1548 1.524 . S
C1549 C1550 1.415 . S
C1550 H1526 0.950 . S
C1550 C1545 1.363 . S
C1550 C1549 1.415 . S
C1551 H1527 0.951 . S
C1551 C1552 1.366 . S
C1551 C1553 1.388 . S
C1552 C1551 1.366 . S
C1552 C1556 1.385 . S
C1553 H1528 0.996 . S
C1553 C1551 1.388 . S
C1553 C1554 1.366 . S
C1554 C1553 1.366 . S
C1554 C1555 1.414 . S
C1554 C1557 1.499 1_554 S
C1555 H1529 0.950 . S
C1555 C1554 1.414 . S
C1555 C1556 1.374 . S
C1556 H1530 0.950 . S
C1556 C1552 1.385 . S
C1556 C1555 1.374 . S
C1557 C1554 1.499 1_556 S
C1557 C1558 1.373 . S
C1557 C1559 1.389 . S
C1558 H1531 0.950 . S
C1558 C1544 1.377 . S
C1558 C1557 1.373 . S
C1559 C1543 1.377 . S
C1559 C1557 1.389 . S
C1559 C1560 1.524 . S
C1560 C1559 1.524 . S
C1560 C1561 1.397 1_556 S
C1560 C1565 1.363 . S
C1561 H1532 0.950 . S
C1561 C1560 1.397 1_554 S
C1561 C1562 1.334 . S
C1562 H1533 0.950 . S
C1562 C1561 1.334 . S
C1562 C1563 1.287 . S
C1563 C1562 1.287 . S
C1563 C1564 1.524 1_554 S
C1563 H1566 0.999 . S
C1564 H1534 0.950 . S
C1564 C1563 1.524 1_556 S
C1564 C1565 1.415 . S
C1565 H1535 0.950 . S
C1565 C1560 1.363 . S
C1565 C1564 1.415 . S
H1566 C1563 0.999 . S
H1567 C1548 0.913 . S
H1568 C1586 0.951 . S
H1569 C1588 0.951 . S
H1570 C1590 0.950 . S
H1571 C1591 0.950 . S
H1572 C1593 0.950 . S
H1573 C1596 0.950 . S
H1574 C1597 0.950 . S
H1575 C1599 0.950 . S
H1576 C1600 0.950 . S
H1577 C1601 0.951 . S
H1578 C1603 0.951 . S
H1579 C1605 0.950 . S
H1580 C1606 0.950 . S
H1581 C1608 0.950 . S
H1582 C1611 0.950 . S
H1583 C1612 0.950 . S
H1584 C1614 0.950 . S
H1585 C1615 0.950 . S
C1586 H1568 0.951 . S
C1586 C1587 1.366 . S
C1586 C1588 1.388 . S
C1587 C1586 1.366 . S
C1587 C1591 1.385 . S
C1588 H1569 0.951 . S
C1588 C1586 1.388 . S
C1588 C1589 1.366 . S
C1589 C1588 1.366 . S
C1589 C1590 1.414 . S
C1589 C1592 1.499 . S
C1590 H1570 0.950 . S
C1590 C1589 1.414 . S
C1590 C1591 1.374 . S
C1591 H1571 0.950 . S
C1591 C1587 1.385 . S
C1591 C1590 1.374 . S
C1592 C1589 1.499 . S
C1592 C1593 1.373 . S
C1592 C1594 1.389 . S
C1593 H1572 0.950 . S
C1593 C1592 1.373 . S
C1593 C1609 1.377 . S
C1594 C1592 1.389 . S
C1594 C1595 1.524 . S
C1594 C1608 1.377 . S
C1595 C1594 1.524 . S
C1595 C1596 1.397 . S
C1595 C1600 1.363 . S
C1596 H1573 0.950 . S
C1596 C1595 1.397 . S
C1596 C1597 1.334 . S
C1597 H1574 0.950 . S
C1597 C1596 1.334 . S
C1597 C1598 1.287 . S
C1598 C1597 1.287 . S
C1598 C1599 1.524 . S
C1598 H1617 0.913 . S
C1599 H1575 0.950 . S
C1599 C1598 1.524 . S
C1599 C1600 1.415 . S
C1600 H1576 0.950 . S
C1600 C1595 1.363 . S
C1600 C1599 1.415 . S
C1601 H1577 0.951 . S
C1601 C1602 1.366 . S
C1601 C1603 1.388 . S
C1602 C1601 1.366 . S
C1602 C1606 1.385 . S
C1603 H1578 0.951 . S
C1603 C1601 1.388 . S
C1603 C1604 1.366 . S
C1604 C1603 1.366 . S
C1604 C1605 1.414 . S
C1604 C1607 1.499 . S
C1605 H1579 0.950 . S
C1605 C1604 1.414 . S
C1605 C1606 1.374 . S
C1606 H1580 0.950 . S
C1606 C1602 1.385 . S
C1606 C1605 1.374 . S
C1607 C1604 1.499 . S
C1607 C1608 1.373 . S
C1607 C1609 1.389 . S
C1608 H1581 0.950 . S
C1608 C1594 1.377 . S
C1608 C1607 1.373 . S
C1609 C1593 1.377 . S
C1609 C1607 1.389 . S
C1609 C1610 1.524 . S
C1610 C1609 1.524 . S
C1610 C1611 1.397 . S
C1610 C1615 1.363 . S
C1611 H1582 0.950 . S
C1611 C1610 1.397 . S
C1611 C1612 1.334 . S
C1612 H1583 0.950 . S
C1612 C1611 1.334 . S
C1612 C1613 1.287 . S
C1613 C1612 1.287 . S
C1613 C1614 1.524 . S
C1613 H1616 0.999 . S
C1614 H1584 0.950 . S
C1614 C1613 1.524 . S
C1614 C1615 1.415 . S
C1615 H1585 0.950 . S
C1615 C1610 1.363 . S
C1615 C1614 1.415 . S
H1616 C1613 0.999 . S
H1617 C1598 0.913 . S
H1618 C1636 0.951 . S
H1619 C1638 0.951 . S
H1620 C1640 0.950 . S
H1621 C1641 0.950 . S
H1622 C1643 0.950 . S
H1623 C1646 0.950 . S
H1624 C1647 0.950 . S
H1625 C1649 0.950 . S
H1626 C1650 0.950 . S
H1627 C1651 0.951 . S
H1628 C1653 0.951 . S
H1629 C1655 0.950 . S
H1630 C1656 0.950 . S
H1631 C1658 0.950 . S
H1632 C1661 0.950 . S
H1633 C1662 0.950 . S
H1634 C1664 0.950 . S
H1635 C1665 0.950 . S
C1636 H1618 0.951 . S
C1636 C1637 1.366 . S
C1636 C1638 1.388 . S
C1637 C1636 1.366 . S
C1637 C1641 1.385 . S
C1638 H1619 0.951 . S
C1638 C1636 1.388 . S
C1638 C1639 1.366 . S
C1639 C1638 1.366 . S
C1639 C1640 1.414 . S
C1639 C1642 1.499 . S
C1640 H1620 0.950 . S
C1640 C1639 1.414 . S
C1640 C1641 1.374 . S
C1641 H1621 0.950 . S
C1641 C1637 1.385 . S
C1641 C1640 1.374 . S
C1642 C1639 1.499 . S
C1642 C1643 1.373 . S
C1642 C1644 1.389 . S
C1643 H1622 0.950 . S
C1643 C1642 1.373 . S
C1643 C1659 1.377 . S
C1644 C1642 1.389 . S
C1644 C1645 1.524 . S
C1644 C1658 1.377 . S
C1645 C1644 1.524 . S
C1645 C1646 1.397 . S
C1645 C1650 1.363 . S
C1646 H1623 0.950 . S
C1646 C1645 1.397 . S
C1646 C1647 1.334 . S
C1647 H1624 0.950 . S
C1647 C1646 1.334 . S
C1647 C1648 1.287 . S
C1648 C1647 1.287 . S
C1648 C1649 1.524 . S
C1648 H1667 0.913 . S
C1649 H1625 0.950 . S
C1649 C1648 1.524 . S
C1649 C1650 1.415 . S
C1650 H1626 0.950 . S
C1650 C1645 1.363 . S
C1650 C1649 1.415 . S
C1651 H1627 0.951 . S
C1651 C1652 1.366 . S
C1651 C1653 1.388 . S
C1652 C1651 1.366 . S
C1652 C1656 1.385 . S
C1653 H1628 0.951 . S
C1653 C1651 1.388 . S
C1653 C1654 1.366 . S
C1654 C1653 1.366 . S
C1654 C1655 1.414 . S
C1654 C1657 1.499 . S
C1655 H1629 0.950 . S
C1655 C1654 1.414 . S
C1655 C1656 1.374 . S
C1656 H1630 0.950 . S
C1656 C1652 1.385 . S
C1656 C1655 1.374 . S
C1657 C1654 1.499 . S
C1657 C1658 1.373 . S
C1657 C1659 1.389 . S
C1658 H1631 0.950 . S
C1658 C1644 1.377 . S
C1658 C1657 1.373 . S
C1659 C1643 1.377 . S
C1659 C1657 1.389 . S
C1659 C1660 1.524 . S
C1660 C1659 1.524 . S
C1660 C1661 1.397 . S
C1660 C1665 1.363 . S
C1661 H1632 0.950 . S
C1661 C1660 1.397 . S
C1661 C1662 1.334 . S
C1662 H1633 0.950 . S
C1662 C1661 1.334 . S
C1662 C1663 1.287 . S
C1663 C1662 1.287 . S
C1663 C1664 1.524 . S
C1663 H1666 0.999 . S
C1664 H1634 0.950 . S
C1664 C1663 1.524 . S
C1664 C1665 1.415 . S
C1665 H1635 0.950 . S
C1665 C1660 1.363 . S
C1665 C1664 1.415 . S
H1666 C1663 0.999 . S
H1667 C1648 0.913 . S
H1668 C1686 0.951 . S
H1669 C1688 0.951 . S
H1670 C1690 0.950 . S
H1671 C1691 0.950 . S
H1672 C1693 0.950 . S
H1673 C1696 0.950 . S
H1674 C1697 0.950 . S
H1675 C1699 0.950 . S
H1676 C1700 0.950 . S
H1677 C1701 0.951 . S
H1678 C1703 0.951 . S
H1679 C1705 0.950 . S
H1680 C1706 0.950 . S
H1681 C1708 0.950 . S
H1682 C1711 0.950 . S
H1683 C1712 0.950 . S
H1684 C1714 0.950 . S
H1685 C1715 0.950 . S
C1686 H1668 0.951 . S
C1686 C1687 1.366 . S
C1686 C1688 1.388 . S
C1687 C1686 1.366 . S
C1687 C1691 1.385 . S
C1688 H1669 0.951 . S
C1688 C1686 1.388 . S
C1688 C1689 1.366 . S
C1689 C1688 1.366 . S
C1689 C1690 1.414 . S
C1689 C1692 1.499 . S
C1690 H1670 0.950 . S
C1690 C1689 1.414 . S
C1690 C1691 1.374 . S
C1691 H1671 0.950 . S
C1691 C1687 1.385 . S
C1691 C1690 1.374 . S
C1692 C1689 1.499 . S
C1692 C1693 1.373 . S
C1692 C1694 1.389 . S
C1693 H1672 0.950 . S
C1693 C1692 1.373 . S
C1693 C1709 1.377 . S
C1694 C1692 1.389 . S
C1694 C1695 1.524 . S
C1694 C1708 1.377 . S
C1695 C1694 1.524 . S
C1695 C1696 1.397 . S
C1695 C1700 1.363 . S
C1696 H1673 0.950 . S
C1696 C1695 1.397 . S
C1696 C1697 1.334 . S
C1697 H1674 0.950 . S
C1697 C1696 1.334 . S
C1697 C1698 1.287 . S
C1698 C1697 1.287 . S
C1698 C1699 1.524 . S
C1698 H1717 0.913 . S
C1699 H1675 0.950 . S
C1699 C1698 1.524 . S
C1699 C1700 1.415 . S
C1700 H1676 0.950 . S
C1700 C1695 1.363 . S
C1700 C1699 1.415 . S
C1701 H1677 0.951 . S
C1701 C1702 1.366 . S
C1701 C1703 1.388 . S
C1702 C1701 1.366 . S
C1702 C1706 1.385 . S
C1703 H1678 0.951 . S
C1703 C1701 1.388 . S
C1703 C1704 1.366 . S
C1704 C1703 1.366 . S
C1704 C1705 1.414 . S
C1704 C1707 1.499 . S
C1705 H1679 0.950 . S
C1705 C1704 1.414 . S
C1705 C1706 1.374 . S
C1706 H1680 0.950 . S
C1706 C1702 1.385 . S
C1706 C1705 1.374 . S
C1707 C1704 1.499 . S
C1707 C1708 1.373 . S
C1707 C1709 1.389 . S
C1708 H1681 0.950 . S
C1708 C1694 1.377 . S
C1708 C1707 1.373 . S
C1709 C1693 1.377 . S
C1709 C1707 1.389 . S
C1709 C1710 1.524 . S
C1710 C1709 1.524 . S
C1710 C1711 1.397 . S
C1710 C1715 1.363 . S
C1711 H1682 0.950 . S
C1711 C1710 1.397 . S
C1711 C1712 1.334 . S
C1712 H1683 0.950 . S
C1712 C1711 1.334 . S
C1712 C1713 1.287 . S
C1713 C1712 1.287 . S
C1713 C1714 1.524 . S
C1713 H1716 0.999 . S
C1714 H1684 0.950 . S
C1714 C1713 1.524 . S
C1714 C1715 1.415 . S
C1715 H1685 0.950 . S
C1715 C1710 1.363 . S
C1715 C1714 1.415 . S
H1716 C1713 0.999 . S
H1717 C1698 0.913 . S
H1718 C1736 0.951 . S
H1719 C1738 0.951 . S
H1720 C1740 0.950 . S
H1721 C1741 0.950 . S
H1722 C1743 0.950 . S
H1723 C1746 0.950 . S
H1724 C1747 0.950 . S
H1725 C1749 0.950 . S
H1726 C1750 0.950 . S
H1727 C1751 0.951 . S
H1728 C1753 0.951 . S
H1729 C1755 0.950 . S
H1730 C1756 0.950 . S
H1731 C1758 0.950 . S
H1732 C1761 0.950 . S
H1733 C1762 0.950 . S
H1734 C1764 0.950 . S
H1735 C1765 0.950 . S
C1736 H1718 0.951 . S
C1736 C1737 1.366 . S
C1736 C1738 1.388 . S
C1737 C1736 1.366 . S
C1737 C1741 1.385 . S
C1738 H1719 0.951 . S
C1738 C1736 1.388 . S
C1738 C1739 1.366 . S
C1739 C1738 1.366 . S
C1739 C1740 1.414 . S
C1739 C1742 1.499 . S
C1740 H1720 0.950 . S
C1740 C1739 1.414 . S
C1740 C1741 1.374 . S
C1741 H1721 0.950 . S
C1741 C1737 1.385 . S
C1741 C1740 1.374 . S
C1742 C1739 1.499 . S
C1742 C1743 1.373 . S
C1742 C1744 1.389 . S
C1743 H1722 0.950 . S
C1743 C1742 1.373 . S
C1743 C1759 1.377 . S
C1744 C1742 1.389 . S
C1744 C1745 1.524 . S
C1744 C1758 1.377 . S
C1745 C1744 1.524 . S
C1745 C1746 1.397 . S
C1745 C1750 1.363 . S
C1746 H1723 0.950 . S
C1746 C1745 1.397 . S
C1746 C1747 1.334 . S
C1747 H1724 0.950 . S
C1747 C1746 1.334 . S
C1747 C1748 1.287 . S
C1748 C1747 1.287 . S
C1748 C1749 1.524 . S
C1748 H1767 0.913 . S
C1749 H1725 0.950 . S
C1749 C1748 1.524 . S
C1749 C1750 1.415 . S
C1750 H1726 0.950 . S
C1750 C1745 1.363 . S
C1750 C1749 1.415 . S
C1751 H1727 0.951 . S
C1751 C1752 1.366 . S
C1751 C1753 1.388 . S
C1752 C1751 1.366 . S
C1752 C1756 1.385 . S
C1753 H1728 0.951 . S
C1753 C1751 1.388 . S
C1753 C1754 1.366 . S
C1754 C1753 1.366 . S
C1754 C1755 1.414 . S
C1754 C1757 1.499 . S
C1755 H1729 0.950 . S
C1755 C1754 1.414 . S
C1755 C1756 1.374 . S
C1756 H1730 0.950 . S
C1756 C1752 1.385 . S
C1756 C1755 1.374 . S
C1757 C1754 1.499 . S
C1757 C1758 1.373 . S
C1757 C1759 1.389 . S
C1758 H1731 0.950 . S
C1758 C1744 1.377 . S
C1758 C1757 1.373 . S
C1759 C1743 1.377 . S
C1759 C1757 1.389 . S
C1759 C1760 1.524 . S
C1760 C1759 1.524 . S
C1760 C1761 1.397 . S
C1760 C1765 1.363 . S
C1761 H1732 0.950 . S
C1761 C1760 1.397 . S
C1761 C1762 1.334 . S
C1762 H1733 0.950 . S
C1762 C1761 1.334 . S
C1762 C1763 1.287 . S
C1763 C1762 1.287 . S
C1763 C1764 1.524 . S
C1763 H1766 0.999 . S
C1764 H1734 0.950 . S
C1764 C1763 1.524 . S
C1764 C1765 1.415 . S
C1765 H1735 0.950 . S
C1765 C1760 1.363 . S
C1765 C1764 1.415 . S
H1766 C1763 0.999 . S
H1767 C1748 0.913 . S
H1768 C1786 0.951 . S
H1769 C1788 0.951 . S
H1770 C1790 0.950 . S
H1771 C1791 0.950 . S
H1772 C1793 0.950 . S
H1773 C1796 0.950 . S
H1774 C1797 0.950 . S
H1775 C1799 0.950 . S
H1776 C1800 0.950 . S
H1777 C1801 0.951 . S
H1778 C1803 0.951 . S
H1779 C1805 0.950 . S
H1780 C1806 0.950 . S
H1781 C1808 0.950 . S
H1782 C1811 0.950 . S
H1783 C1812 0.950 . S
H1784 C1814 0.950 . S
H1785 C1815 0.950 . S
C1786 H1768 0.951 . S
C1786 C1787 1.366 . S
C1786 C1788 1.388 . S
C1787 C1786 1.366 . S
C1787 C1791 1.385 . S
C1788 H1769 0.951 . S
C1788 C1786 1.388 . S
C1788 C1789 1.366 . S
C1789 C1788 1.366 . S
C1789 C1790 1.414 . S
C1789 C1792 1.499 . S
C1790 H1770 0.950 . S
C1790 C1789 1.414 . S
C1790 C1791 1.374 . S
C1791 H1771 0.950 . S
C1791 C1787 1.385 . S
C1791 C1790 1.374 . S
C1792 C1789 1.499 . S
C1792 C1793 1.373 . S
C1792 C1794 1.389 . S
C1793 H1772 0.950 . S
C1793 C1792 1.373 . S
C1793 C1809 1.377 . S
C1794 C1792 1.389 . S
C1794 C1795 1.524 . S
C1794 C1808 1.377 . S
C1795 C1794 1.524 . S
C1795 C1796 1.397 . S
C1795 C1800 1.363 . S
C1796 H1773 0.950 . S
C1796 C1795 1.397 . S
C1796 C1797 1.334 . S
C1797 H1774 0.950 . S
C1797 C1796 1.334 . S
C1797 C1798 1.287 . S
C1798 C1797 1.287 . S
C1798 C1799 1.524 . S
C1798 H1817 0.913 . S
C1799 H1775 0.950 . S
C1799 C1798 1.524 . S
C1799 C1800 1.415 . S
C1800 H1776 0.950 . S
C1800 C1795 1.363 . S
C1800 C1799 1.415 . S
C1801 H1777 0.951 . S
C1801 C1802 1.366 . S
C1801 C1803 1.388 . S
C1802 C1801 1.366 . S
C1802 C1806 1.385 . S
C1803 H1778 0.951 . S
C1803 C1801 1.388 . S
C1803 C1804 1.366 . S
C1804 C1803 1.366 . S
C1804 C1805 1.414 . S
C1804 C1807 1.499 . S
C1805 H1779 0.950 . S
C1805 C1804 1.414 . S
C1805 C1806 1.374 . S
C1806 H1780 0.950 . S
C1806 C1802 1.385 . S
C1806 C1805 1.374 . S
C1807 C1804 1.499 . S
C1807 C1808 1.373 . S
C1807 C1809 1.389 . S
C1808 H1781 0.950 . S
C1808 C1794 1.377 . S
C1808 C1807 1.373 . S
C1809 C1793 1.377 . S
C1809 C1807 1.389 . S
C1809 C1810 1.524 . S
C1810 C1809 1.524 . S
C1810 C1811 1.397 . S
C1810 C1815 1.363 . S
C1811 H1782 0.950 . S
C1811 C1810 1.397 . S
C1811 C1812 1.334 . S
C1812 H1783 0.950 . S
C1812 C1811 1.334 . S
C1812 C1813 1.287 . S
C1813 C1812 1.287 . S
C1813 C1814 1.524 . S
C1813 H1816 0.999 . S
C1814 H1784 0.950 . S
C1814 C1813 1.524 . S
C1814 C1815 1.415 . S
C1815 H1785 0.950 . S
C1815 C1810 1.363 . S
C1815 C1814 1.415 . S
H1816 C1813 0.999 . S
H1817 C1798 0.913 . S
H1818 C1836 0.951 . S
H1819 C1838 0.951 . S
H1820 C1840 0.950 . S
H1821 C1841 0.950 . S
H1822 C1843 0.950 . S
H1823 C1846 0.950 . S
H1824 C1847 0.950 . S
H1825 C1849 0.950 . S
H1826 C1850 0.950 . S
H1827 C1851 0.951 . S
H1828 C1853 0.951 . S
H1829 C1855 0.950 . S
H1830 C1856 0.950 . S
H1831 C1858 0.950 . S
H1832 C1861 0.950 . S
H1833 C1862 0.950 . S
H1834 C1864 0.950 . S
H1835 C1865 0.950 . S
C1836 H1818 0.951 . S
C1836 C1837 1.366 . S
C1836 C1838 1.388 . S
C1837 C1836 1.366 . S
C1837 C1841 1.385 . S
C1838 H1819 0.951 . S
C1838 C1836 1.388 . S
C1838 C1839 1.366 . S
C1839 C1838 1.366 . S
C1839 C1840 1.414 . S
C1839 C1842 1.499 . S
C1840 H1820 0.950 . S
C1840 C1839 1.414 . S
C1840 C1841 1.374 . S
C1841 H1821 0.950 . S
C1841 C1837 1.385 . S
C1841 C1840 1.374 . S
C1842 C1839 1.499 . S
C1842 C1843 1.373 . S
C1842 C1844 1.389 . S
C1843 H1822 0.950 . S
C1843 C1842 1.373 . S
C1843 C1859 1.377 . S
C1844 C1842 1.389 . S
C1844 C1845 1.524 . S
C1844 C1858 1.377 . S
C1845 C1844 1.524 . S
C1845 C1846 1.397 . S
C1845 C1850 1.363 . S
C1846 H1823 0.950 . S
C1846 C1845 1.397 . S
C1846 C1847 1.334 . S
C1847 H1824 0.950 . S
C1847 C1846 1.334 . S
C1847 C1848 1.287 . S
C1848 C1847 1.287 . S
C1848 C1849 1.524 . S
C1848 H1867 0.913 . S
C1849 H1825 0.950 . S
C1849 C1848 1.524 . S
C1849 C1850 1.415 . S
C1850 H1826 0.950 . S
C1850 C1845 1.363 . S
C1850 C1849 1.415 . S
C1851 H1827 0.951 . S
C1851 C1852 1.366 . S
C1851 C1853 1.388 . S
C1852 C1851 1.366 . S
C1852 C1856 1.385 . S
C1853 H1828 0.951 . S
C1853 C1851 1.388 . S
C1853 C1854 1.366 . S
C1854 C1853 1.366 . S
C1854 C1855 1.414 . S
C1854 C1857 1.499 . S
C1855 H1829 0.950 . S
C1855 C1854 1.414 . S
C1855 C1856 1.374 . S
C1856 H1830 0.950 . S
C1856 C1852 1.385 . S
C1856 C1855 1.374 . S
C1857 C1854 1.499 . S
C1857 C1858 1.373 . S
C1857 C1859 1.389 . S
C1858 H1831 0.950 . S
C1858 C1844 1.377 . S
C1858 C1857 1.373 . S
C1859 C1843 1.377 . S
C1859 C1857 1.389 . S
C1859 C1860 1.524 . S
C1860 C1859 1.524 . S
C1860 C1861 1.397 . S
C1860 C1865 1.363 . S
C1861 H1832 0.950 . S
C1861 C1860 1.397 . S
C1861 C1862 1.334 . S
C1862 H1833 0.950 . S
C1862 C1861 1.334 . S
C1862 C1863 1.287 . S
C1863 C1862 1.287 . S
C1863 C1864 1.524 . S
C1863 H1866 0.999 . S
C1864 H1834 0.950 . S
C1864 C1863 1.524 . S
C1864 C1865 1.415 . S
C1865 H1835 0.950 . S
C1865 C1860 1.363 . S
C1865 C1864 1.415 . S
H1866 C1863 0.999 . S
H1867 C1848 0.913 . S
H1868 C1886 0.951 . S
H1869 C1888 0.951 . S
H1870 C1890 0.950 . S
H1871 C1891 0.950 . S
H1872 C1893 0.950 . S
H1873 C1896 0.950 . S
H1874 C1897 0.950 . S
H1875 C1899 0.950 . S
H1876 C1900 0.950 . S
H1877 C1901 0.951 . S
H1878 C1903 0.951 . S
H1879 C1905 0.950 . S
H1880 C1906 0.950 . S
H1881 C1908 0.950 . S
H1882 C1911 0.966 . S
H1883 C1912 0.950 . S
H1884 C1914 0.950 . S
H1885 C1915 0.950 . S
C1886 H1868 0.951 . S
C1886 C1887 1.366 . S
C1886 C1888 1.388 . S
C1887 C1886 1.366 . S
C1887 C1891 1.385 . S
C1888 H1869 0.951 . S
C1888 C1886 1.388 . S
C1888 C1889 1.366 . S
C1889 C1888 1.366 . S
C1889 C1890 1.414 . S
C1889 C1892 1.499 . S
C1890 H1870 0.950 . S
C1890 C1889 1.414 . S
C1890 C1891 1.374 . S
C1891 H1871 0.950 . S
C1891 C1887 1.385 . S
C1891 C1890 1.374 . S
C1892 C1889 1.499 . S
C1892 C1893 1.373 . S
C1892 C1894 1.389 . S
C1893 H1872 0.950 . S
C1893 C1892 1.373 . S
C1893 C1909 1.377 . S
C1894 C1892 1.389 . S
C1894 C1895 1.524 . S
C1894 C1908 1.377 1_554 S
C1895 C1894 1.524 . S
C1895 C1896 1.397 . S
C1895 C1900 1.363 1_554 S
C1896 H1873 0.950 . S
C1896 C1895 1.397 . S
C1896 C1897 1.334 . S
C1897 H1874 0.950 . S
C1897 C1896 1.334 . S
C1897 C1898 1.287 . S
C1898 C1897 1.287 . S
C1898 C1899 1.524 1_554 S
C1898 H1917 0.919 . S
C1899 H1875 0.950 . S
C1899 C1898 1.524 1_556 S
C1899 C1900 1.415 . S
C1900 H1876 0.950 . S
C1900 C1895 1.363 1_556 S
C1900 C1899 1.415 . S
C1901 H1877 0.951 . S
C1901 C1902 1.366 . S
C1901 C1903 1.388 . S
C1902 C1901 1.366 . S
C1902 C1906 1.385 . S
C1903 H1878 0.951 . S
C1903 C1901 1.388 . S
C1903 C1904 1.366 . S
C1904 C1903 1.366 . S
C1904 C1905 1.414 . S
C1904 C1907 1.499 . S
C1905 H1879 0.950 . S
C1905 C1904 1.414 . S
C1905 C1906 1.374 . S
C1906 H1880 0.950 . S
C1906 C1902 1.385 . S
C1906 C1905 1.374 . S
C1907 C1904 1.499 . S
C1907 C1908 1.373 . S
C1907 C1909 1.389 1_556 S
C1908 H1881 0.950 . S
C1908 C1894 1.377 1_556 S
C1908 C1907 1.373 . S
C1909 C1893 1.377 . S
C1909 C1907 1.389 1_554 S
C1909 C1910 1.524 . S
C1910 C1909 1.524 . S
C1910 C1911 1.397 . S
C1910 C1915 1.363 . S
C1911 H1882 0.966 . S
C1911 C1910 1.397 . S
C1911 C1912 1.334 . S
C1912 H1883 0.950 . S
C1912 C1911 1.334 . S
C1912 C1913 1.287 . S
C1913 C1912 1.287 . S
C1913 C1914 1.524 . S
C1913 H1916 0.999 . S
C1914 H1884 0.950 . S
C1914 C1913 1.524 . S
C1914 C1915 1.415 . S
C1915 H1885 0.950 . S
C1915 C1910 1.363 . S
C1915 C1914 1.415 . S
H1916 C1913 0.999 . S
H1917 C1898 0.919 . S
H1918 C1936 0.951 . S
H1919 C1938 0.951 . S
H1920 C1940 0.950 . S
H1921 C1941 0.950 . S
H1922 C1943 0.950 . S
H1923 C1946 0.950 . S
H1924 C1947 0.950 . S
H1925 C1949 0.950 . S
H1926 C1950 0.950 . S
H1927 C1951 0.951 . S
H1928 C1953 0.951 . S
H1929 C1955 0.950 . S
H1930 C1956 0.950 . S
H1931 C1958 0.950 . S
H1932 C1961 0.950 . S
H1933 C1962 0.950 . S
H1934 C1964 0.950 . S
H1935 C1965 0.950 . S
C1936 H1918 0.951 . S
C1936 C1937 1.366 . S
C1936 C1938 1.388 . S
C1937 C1936 1.366 . S
C1937 C1941 1.385 . S
C1938 H1919 0.951 . S
C1938 C1936 1.388 . S
C1938 C1939 1.366 . S
C1939 C1938 1.366 . S
C1939 C1940 1.414 . S
C1939 C1942 1.499 . S
C1940 H1920 0.950 . S
C1940 C1939 1.414 . S
C1940 C1941 1.374 . S
C1941 H1921 0.950 . S
C1941 C1937 1.385 . S
C1941 C1940 1.374 . S
C1942 C1939 1.499 . S
C1942 C1943 1.373 . S
C1942 C1944 1.389 . S
C1943 H1922 0.950 . S
C1943 C1942 1.373 . S
C1943 C1959 1.377 . S
C1944 C1942 1.389 . S
C1944 C1945 1.524 . S
C1944 C1958 1.377 . S
C1945 C1944 1.524 . S
C1945 C1946 1.397 . S
C1945 C1950 1.363 . S
C1946 H1923 0.950 . S
C1946 C1945 1.397 . S
C1946 C1947 1.334 . S
C1947 H1924 0.950 . S
C1947 C1946 1.334 . S
C1947 C1948 1.287 . S
C1948 C1947 1.287 . S
C1948 C1949 1.524 . S
C1948 H1967 0.913 . S
C1949 H1925 0.950 . S
C1949 C1948 1.524 . S
C1949 C1950 1.415 . S
C1950 H1926 0.950 . S
C1950 C1945 1.363 . S
C1950 C1949 1.415 . S
C1951 H1927 0.951 . S
C1951 C1952 1.366 . S
C1951 C1953 1.388 . S
C1952 C1951 1.366 . S
C1952 C1956 1.385 . S
C1953 H1928 0.951 . S
C1953 C1951 1.388 . S
C1953 C1954 1.366 . S
C1954 C1953 1.366 . S
C1954 C1955 1.414 . S
C1954 C1957 1.499 . S
C1955 H1929 0.950 . S
C1955 C1954 1.414 . S
C1955 C1956 1.374 . S
C1956 H1930 0.950 . S
C1956 C1952 1.385 . S
C1956 C1955 1.374 . S
C1957 C1954 1.499 . S
C1957 C1958 1.373 . S
C1957 C1959 1.389 . S
C1958 H1931 0.950 . S
C1958 C1944 1.377 . S
C1958 C1957 1.373 . S
C1959 C1943 1.377 . S
C1959 C1957 1.389 . S
C1959 C1960 1.524 . S
C1960 C1959 1.524 . S
C1960 C1961 1.397 . S
C1960 C1965 1.363 . S
C1961 H1932 0.950 . S
C1961 C1960 1.397 . S
C1961 C1962 1.334 . S
C1962 H1933 0.950 . S
C1962 C1961 1.334 . S
C1962 C1963 1.287 . S
C1963 C1962 1.287 . S
C1963 C1964 1.524 . S
C1963 H1966 0.999 . S
C1964 H1934 0.950 . S
C1964 C1963 1.524 . S
C1964 C1965 1.415 . S
C1965 H1935 0.950 . S
C1965 C1960 1.363 . S
C1965 C1964 1.415 . S
H1966 C1963 0.999 . S
H1967 C1948 0.913 . S
C802 C757 1.642 . S
C787 C1 1.250 . S
C837 C169 1.472 . S
C852 C687 1.801 . S
C887 C283 1.465 . S
C902 C706 1.790 . S
C937 C397 1.315 . S
C952 C715 1.631 . S
C1002 C729 1.463 . S
C987 C457 1.111 . S
C1037 C571 1.157 . S
C1052 C748 1.547 . S
C1087 C115 1.225 . S
C1102 C701 1.614 . S
C1137 C229 1.124 . S
C1152 C720 1.497 . S
C1187 C343 1.108 . S
C1202 C734 1.474 . S
C1252 C743 1.573 . S
C1237 C511 1.261 . S
C1302 C762 1.770 . S
C1287 C625 1.446 . S
C1352 C692 1.785 . S
C1337 C55 1.462 . S
C1387 C29 1.153 . S
C1402 C707 1.414 . S
C1437 C125 0.931 . S
C1452 C719 1.502 . S
C1502 C733 1.453 . S
C1487 C239 0.919 . S
C1537 C353 0.911 . S
C1552 C749 1.448 . S
C1602 C761 1.313 . S
C1587 C485 1.075 . S
C1652 C691 1.408 . S
C1637 C599 1.136 . S
C1702 C763 1.420 . S
C1687 C143 1.157 . S
C1737 C257 1.156 . S
C1752 C693 1.447 . S
C1802 C705 1.341 . S
C1787 C371 1.085 . S
C1837 C467 0.911 . S
C1852 C721 1.450 . S
C1887 C581 0.943 . S
C1902 C735 1.486 . S
C1937 C11 0.959 . S
C1952 C747 1.525 . S
