# Generated by pormake.
# Topology pyr, (3,6)-cn, num edge types: 1
# Building blocks:
#     Node 0, Type 0, BuildingBlock: QEWDON_clean_linker_0, # of connection points: 3
#     Node 1, Type 0, BuildingBlock: QEWDON_clean_linker_0, # of connection points: 3
#     Node 2, Type 0, BuildingBlock: QEWDON_clean_linker_0, # of connection points: 3
#     Node 3, Type 0, BuildingBlock: QEWDON_clean_linker_0, # of connection points: 3
#     Node 4, Type 0, BuildingBlock: QEWDON_clean_linker_0, # of connection points: 3
#     Node 5, Type 0, BuildingBlock: QEWDON_clean_linker_0, # of connection points: 3
#     Node 6, Type 0, BuildingBlock: QEWDON_clean_linker_0, # of connection points: 3
#     Node 7, Type 0, BuildingBlock: QEWDON_clean_linker_0, # of connection points: 3
#     Node 8, Type 1, BuildingBlock: BETDIP_clean_sbu_0, # of connection points: 6
#     Node 9, Type 1, BuildingBlock: BETDIP_clean_sbu_0, # of connection points: 6
#     Node 10, Type 1, BuildingBlock: BETDIP_clean_sbu_0, # of connection points: 6
#     Node 11, Type 1, BuildingBlock: BETDIP_clean_sbu_0, # of connection points: 6
#     Edge 12, Type (0, 1), BuildingBlock: MIFKUJ_clean_linker_0, # of connection points: 2
#     Edge 13, Type (0, 1), BuildingBlock: MIFKUJ_clean_linker_0, # of connection points: 2
#     Edge 14, Type (0, 1), BuildingBlock: MIFKUJ_clean_linker_0, # of connection points: 2
#     Edge 15, Type (0, 1), BuildingBlock: MIFKUJ_clean_linker_0, # of connection points: 2
#     Edge 16, Type (0, 1), BuildingBlock: MIFKUJ_clean_linker_0, # of connection points: 2
#     Edge 17, Type (0, 1), BuildingBlock: MIFKUJ_clean_linker_0, # of connection points: 2
#     Edge 18, Type (0, 1), BuildingBlock: MIFKUJ_clean_linker_0, # of connection points: 2
#     Edge 19, Type (0, 1), BuildingBlock: MIFKUJ_clean_linker_0, # of connection points: 2
#     Edge 20, Type (0, 1), BuildingBlock: MIFKUJ_clean_linker_0, # of connection points: 2
#     Edge 21, Type (0, 1), BuildingBlock: MIFKUJ_clean_linker_0, # of connection points: 2
#     Edge 22, Type (0, 1), BuildingBlock: MIFKUJ_clean_linker_0, # of connection points: 2
#     Edge 23, Type (0, 1), BuildingBlock: MIFKUJ_clean_linker_0, # of connection points: 2
#     Edge 24, Type (0, 1), BuildingBlock: MIFKUJ_clean_linker_0, # of connection points: 2
#     Edge 25, Type (0, 1), BuildingBlock: MIFKUJ_clean_linker_0, # of connection points: 2
#     Edge 26, Type (0, 1), BuildingBlock: MIFKUJ_clean_linker_0, # of connection points: 2
#     Edge 27, Type (0, 1), BuildingBlock: MIFKUJ_clean_linker_0, # of connection points: 2
#     Edge 28, Type (0, 1), BuildingBlock: MIFKUJ_clean_linker_0, # of connection points: 2
#     Edge 29, Type (0, 1), BuildingBlock: MIFKUJ_clean_linker_0, # of connection points: 2
#     Edge 30, Type (0, 1), BuildingBlock: MIFKUJ_clean_linker_0, # of connection points: 2
#     Edge 31, Type (0, 1), BuildingBlock: MIFKUJ_clean_linker_0, # of connection points: 2
#     Edge 32, Type (0, 1), BuildingBlock: MIFKUJ_clean_linker_0, # of connection points: 2
#     Edge 33, Type (0, 1), BuildingBlock: MIFKUJ_clean_linker_0, # of connection points: 2
#     Edge 34, Type (0, 1), BuildingBlock: MIFKUJ_clean_linker_0, # of connection points: 2
#     Edge 35, Type (0, 1), BuildingBlock: MIFKUJ_clean_linker_0, # of connection points: 2
# Relax obj value: 0.142
# Max RMSD: 0.271
# Mean RMSD: 0.187
data_MOF--net-pyr--node1-BETDIP_clean_sbu_0--node2-QEWDON_clean_linker_0--edge1-MIFKUJ_clean_linker_0
_symmetry_space_group_name_H-M    P1
_symmetry_Int_Tables_number       1
_symmetry_cell_setting            triclinic
loop_
_symmetry_equiv_pos_as_xyz
'x, y, z'
_cell_length_a     45.72519
_cell_length_b     51.628163
_cell_length_c     53.832682
_cell_angle_alpha  88.445914
_cell_angle_beta   93.563797
_cell_angle_gamma 112.68507
loop_
_atom_site_label
_atom_site_type_symbol
_atom_site_fract_x
_atom_site_fract_y
_atom_site_fract_z
_atom_type_partial_charge
H0 H 0.38113 0.30257 0.19445 0.0
C1 C 0.36474 0.2947 0.20915 0.0
C2 C 0.35933 0.26816 0.21964 0.0
C3 C 0.34858 0.31095 0.21705 0.0
H4 H 0.33426 0.23806 0.2472 0.0
C5 C 0.33765 0.25807 0.23842 0.0
C6 C 0.32144 0.2742 0.24673 0.0
C7 C 0.3268 0.30053 0.23569 0.0
C8 C 0.35521 0.33914 0.20616 0.0
H9 H 0.31442 0.31316 0.24186 0.0
C10 C 0.33033 0.34656 0.19619 0.0
C11 C 0.33673 0.37324 0.18542 0.0
C12 C 0.38665 0.35865 0.20544 0.0
H13 H 0.40616 0.35341 0.21309 0.0
C14 C 0.39314 0.38524 0.19516 0.0
H15 H 0.30616 0.3312 0.19619 0.0
C16 C 0.36844 0.39256 0.18526 0.0
H17 H 0.3742 0.41349 0.17768 0.0
H18 H 0.41742 0.40027 0.19491 0.0
H19 H 0.22371 0.83975 0.75643 0.0
C20 C 0.23763 0.82933 0.74874 0.0
C21 C 0.26577 0.83025 0.76154 0.0
C22 C 0.2272 0.81469 0.72618 0.0
H23 H 0.30423 0.81596 0.7619 0.0
C24 C 0.28332 0.81631 0.75151 0.0
C25 C 0.27364 0.80209 0.72871 0.0
C26 C 0.24549 0.80144 0.71618 0.0
C27 C 0.19681 0.81249 0.71315 0.0
H28 H 0.23792 0.79099 0.69836 0.0
C29 C 0.1897 0.83646 0.70857 0.0
C30 C 0.16112 0.83423 0.69556 0.0
C31 C 0.1749 0.78619 0.70487 0.0
H32 H 0.17972 0.7674 0.70833 0.0
C33 C 0.14647 0.78382 0.6922 0.0
H34 H 0.20653 0.8568 0.71491 0.0
C35 C 0.13961 0.80762 0.68748 0.0
H36 H 0.11768 0.80524 0.67706 0.0
H37 H 0.12978 0.76348 0.68584 0.0
H38 H 0.6733 0.43217 0.87108 0.0
C39 C 0.66423 0.41062 0.87765 0.0
C40 C 0.68316 0.40143 0.89435 0.0
C41 C 0.63309 0.39247 0.87038 0.0
H42 H 0.6849 0.36725 0.91734 0.0
C43 C 0.67081 0.37381 0.90357 0.0
C44 C 0.63972 0.35537 0.89675 0.0
C45 C 0.62117 0.36484 0.87991 0.0
C46 C 0.61161 0.40314 0.85534 0.0
H47 H 0.59715 0.35083 0.87447 0.0
C48 C 0.62087 0.41868 0.83312 0.0
C49 C 0.60014 0.42926 0.81995 0.0
C50 C 0.5815 0.39829 0.86392 0.0
H51 H 0.5739 0.38676 0.88104 0.0
C52 C 0.56109 0.40875 0.8509 0.0
H53 H 0.64394 0.42255 0.82618 0.0
C54 C 0.57033 0.42419 0.82914 0.0
H55 H 0.55401 0.43203 0.81926 0.0
H56 H 0.53804 0.40496 0.85778 0.0
H57 H 0.91661 0.78844 0.35973 0.0
C58 C 0.8988 0.77106 0.36891 0.0
C59 C 0.89206 0.77438 0.39358 0.0
C60 C 0.88071 0.74645 0.35521 0.0
H61 H 0.86207 0.75474 0.42362 0.0
C62 C 0.86771 0.75225 0.40479 0.0
C63 C 0.84916 0.72769 0.3916 0.0
C64 C 0.85575 0.72494 0.36674 0.0
C65 C 0.88251 0.74677 0.32754 0.0
H66 H 0.84049 0.70677 0.35601 0.0
C67 C 0.89461 0.7298 0.31438 0.0
C68 C 0.89638 0.73226 0.288 0.0
C69 C 0.87155 0.76521 0.31408 0.0
H70 H 0.86203 0.77821 0.32362 0.0
C71 C 0.87239 0.76704 0.28831 0.0
H72 H 0.90336 0.71561 0.32454 0.0
C73 C 0.88464 0.75084 0.27542 0.0
H74 H 0.88482 0.75284 0.25534 0.0
H75 H 0.86359 0.78123 0.27822 0.0
H76 H 0.72587 0.8212 0.93189 0.0
C77 C 0.73552 0.83001 0.91427 0.0
C78 C 0.7661 0.83226 0.90883 0.0
C79 C 0.71715 0.83885 0.89683 0.0
H80 H 0.80113 0.84458 0.88102 0.0
C81 C 0.77787 0.84329 0.88566 0.0
C82 C 0.75968 0.85227 0.86819 0.0
C83 C 0.72936 0.85015 0.87396 0.0
C84 C 0.68432 0.83468 0.90167 0.0
H85 H 0.71489 0.85656 0.86039 0.0
C86 C 0.67794 0.85463 0.91515 0.0
C87 C 0.64636 0.8513 0.91856 0.0
C88 C 0.65917 0.81116 0.89177 0.0
H89 H 0.66381 0.79571 0.88121 0.0
C90 C 0.62788 0.80756 0.89525 0.0
H91 H 0.69756 0.87267 0.92284 0.0
C92 C 0.62143 0.82749 0.90842 0.0
H93 H 0.59688 0.8245 0.91023 0.0
H94 H 0.60852 0.78943 0.88744 0.0
H95 H 0.85699 0.28418 0.45956 0.0
C96 C 0.84189 0.27958 0.44262 0.0
C97 C 0.84617 0.26224 0.42478 0.0
C98 C 0.81839 0.29083 0.43897 0.0
H99 H 0.831 0.24416 0.38831 0.0
C100 C 0.82827 0.25791 0.40205 0.0
C101 C 0.80583 0.27015 0.39728 0.0
C102 C 0.80055 0.2861 0.41603 0.0
C103 C 0.81221 0.30661 0.45956 0.0
H104 H 0.78242 0.29463 0.41271 0.0
C105 C 0.80164 0.32867 0.45468 0.0
C106 C 0.79638 0.34344 0.47438 0.0
C107 C 0.81674 0.29941 0.48458 0.0
H108 H 0.82348 0.28189 0.48931 0.0
C109 C 0.81214 0.31443 0.50405 0.0
H110 H 0.79784 0.33473 0.43572 0.0
C111 C 0.80217 0.33641 0.49903 0.0
H112 H 0.79796 0.34734 0.51446 0.0
H113 H 0.81584 0.30871 0.52313 0.0
H114 H 0.43807 0.77641 0.24857 0.0
C115 C 0.41388 0.7633 0.24259 0.0
C116 C 0.39587 0.7745 0.22696 0.0
C117 C 0.4014 0.73498 0.24999 0.0
H118 H 0.35134 0.76498 0.20603 0.0
C119 C 0.36479 0.75693 0.21911 0.0
C120 C 0.35176 0.72852 0.22632 0.0
C121 C 0.37025 0.71769 0.24198 0.0
C122 C 0.42298 0.72293 0.26266 0.0
H123 H 0.36096 0.69567 0.24712 0.0
C124 C 0.41969 0.71335 0.28755 0.0
C125 C 0.44266 0.70449 0.29947 0.0
C126 C 0.44853 0.72255 0.2497 0.0
H127 H 0.45142 0.72979 0.23057 0.0
C128 C 0.47069 0.7131 0.26125 0.0
H129 H 0.40027 0.7139 0.2978 0.0
C130 C 0.46795 0.70432 0.286 0.0
H131 H 0.48569 0.69736 0.29469 0.0
H132 H 0.49029 0.7129 0.25109 0.0
H133 H 0.19758 0.4328 0.76826 0.0
C134 C 0.1844 0.41393 0.75765 0.0
C135 C 0.19344 0.41103 0.73355 0.0
C136 C 0.15932 0.39182 0.76852 0.0
H137 H 0.18599 0.38275 0.70309 0.0
C138 C 0.17737 0.38563 0.72067 0.0
C139 C 0.15192 0.36337 0.73065 0.0
C140 C 0.14283 0.36702 0.75449 0.0
C141 C 0.15353 0.39201 0.79572 0.0
H142 H 0.12337 0.35018 0.76266 0.0
C143 C 0.14927 0.41447 0.80785 0.0
C144 C 0.14439 0.41293 0.83386 0.0
C145 C 0.15289 0.36859 0.81002 0.0
H146 H 0.15659 0.35134 0.80161 0.0
C147 C 0.14796 0.36706 0.83532 0.0
H148 H 0.14981 0.43278 0.79728 0.0
C149 C 0.14373 0.38887 0.8471 0.0
H150 H 0.13967 0.38681 0.86681 0.0
H151 H 0.14749 0.34879 0.84592 0.0
Tb152 Tb 1.00102 0.05341 0.56757 0.0
Tb153 Tb 0.06918 0.08676 0.54985 0.0
C154 C 0.94877 0.01435 0.57476 0.0
C155 C 0.93271 1.00058 0.59716 0.0
C156 C 0.90924 0.97338 0.59563 0.0
C157 C 0.89415 0.96 0.61695 0.0
C158 C 0.90224 0.97372 0.6401 0.0
C159 C 0.92592 1.00096 0.64152 0.0
C160 C 0.94114 0.01421 0.62026 0.0
C161 C 0.03136 0.09916 0.5957 0.0
C162 C 0.06109 0.04648 0.59489 0.0
C163 C 0.12052 0.12386 0.53689 0.0
C164 C 0.13184 0.13808 0.51333 0.0
C165 C 0.1621 0.15947 0.51285 0.0
C166 C 0.17377 0.17219 0.49032 0.0
C167 C 0.15532 0.16365 0.46787 0.0
C168 C 0.12471 0.14247 0.46854 0.0
C169 C 0.11304 0.12981 0.4911 0.0
C170 C 0.03869 0.03588 0.53058 0.0
C171 C 0.00988 0.09673 0.52319 0.0
O172 O 0.97455 0.01017 0.57051 0.0
O173 O 0.9522 0.04064 0.57144 0.0
O174 O 0.04081 0.08993 0.57783 0.0
O175 O 1.00286 0.08119 0.59902 0.0
O176 O 0.03055 0.03454 0.58792 0.0
O177 O 0.08001 0.07068 0.58545 0.0
O178 O 0.09809 0.12949 0.54655 0.0
O179 O 0.11489 0.09703 0.53758 0.0
O180 O 0.02667 0.05324 0.53566 0.0
O181 O 0.06921 0.04805 0.53414 0.0
O182 O 0.04107 0.10407 0.52561 0.0
O183 O 0.98974 0.07605 0.53617 0.0
H184 H 0.90259 0.96251 0.57796 0.0
H185 H 0.87585 0.93908 0.61528 0.0
H186 H 0.93299 0.01189 0.65914 0.0
H187 H 0.95952 0.03508 0.62188 0.0
H188 H 0.17692 0.16602 0.52985 0.0
H189 H 0.19758 0.18818 0.4904 0.0
H190 H 0.1098 0.13565 0.45163 0.0
H191 H 0.08955 0.11332 0.49118 0.0
Tb192 Tb 0.55946 0.09102 0.08233 0.0
Tb193 Tb 0.4917 0.05471 0.06876 0.0
C194 C 0.61086 0.13169 0.09228 0.0
C195 C 0.62314 0.14887 0.11475 0.0
C196 C 0.65163 0.1725 0.11466 0.0
C197 C 0.66429 0.18778 0.13654 0.0
C198 C 0.64867 0.17957 0.15892 0.0
C199 C 0.61963 0.15621 0.15866 0.0
C200 C 0.60697 0.14106 0.13677 0.0
C201 C 0.53549 0.04517 0.10957 0.0
C202 C 0.50307 0.10194 0.10658 0.0
C203 C 0.43931 0.01452 0.06026 0.0
C204 C 0.42377 0.99514 0.0395 0.0
C205 C 0.43987 0.98164 0.02691 0.0
C206 C 0.42517 0.96482 1.00623 0.0
C207 C 0.39422 0.96144 0.99756 0.0
C208 C 0.37799 0.97454 0.01062 0.0
C209 C 0.3926 0.99112 0.03141 0.0
C210 C 0.51569 0.10079 0.0416 0.0
C211 C 0.54803 0.04336 0.04493 0.0
O212 O 0.58636 0.13437 0.08032 0.0
O213 O 0.60728 0.10541 0.09489 0.0
O214 O 0.52149 0.06064 0.10163 0.0
O215 O 0.56494 0.05656 0.10426 0.0
O216 O 0.53283 0.11247 0.09997 0.0
O217 O 0.48361 0.07637 0.09989 0.0
O218 O 0.46379 0.01175 0.07219 0.0
O219 O 0.44394 0.0408 0.05592 0.0
O220 O 0.52972 0.08524 0.04935 0.0
O221 O 0.48628 0.08928 0.04701 0.0
O222 O 0.51823 0.03302 0.05151 0.0
O223 O 0.56766 0.06904 0.05132 0.0
H224 H 0.66432 0.17887 0.09776 0.0
H225 H 0.68643 0.2059 0.13598 0.0
H226 H 0.60715 0.14901 0.17554 0.0
H227 H 0.5849 0.12282 0.13717 0.0
H228 H 0.46393 0.98435 0.03281 0.0
H229 H 0.43819 0.95466 0.99692 0.0
H230 H 0.35434 0.97277 1.00433 0.0
H231 H 0.3798 1.00142 0.04084 0.0
Tb232 Tb 0.5303 0.60008 0.57375 0.0
Tb233 Tb 0.51275 0.54272 0.5527 0.0
C234 C 0.52757 0.64593 0.58504 0.0
C235 C 0.50647 0.6549 0.59926 0.0
C236 C 0.48532 0.66494 0.5863 0.0
C237 C 0.46501 0.67346 0.59912 0.0
C238 C 0.46566 0.6725 0.62523 0.0
C239 C 0.48691 0.66264 0.63829 0.0
C240 C 0.5071 0.65382 0.62542 0.0
C241 C 0.55566 0.56848 0.59861 0.0
C242 C 0.46553 0.54935 0.58883 0.0
C243 C 0.51487 0.49737 0.53931 0.0
C244 C 0.54017 0.49007 0.52963 0.0
C245 C 0.56993 0.49753 0.54254 0.0
C246 C 0.59395 0.49129 0.53264 0.0
C247 C 0.58888 0.47775 0.5095 0.0
C248 C 0.55911 0.47047 0.49659 0.0
C249 C 0.53498 0.47648 0.50661 0.0
C250 C 0.48784 0.57469 0.52781 0.0
C251 C 0.57735 0.59292 0.5383 0.0
O252 O 0.51471 0.63234 0.56441 0.0
O253 O 0.54571 0.63505 0.59743 0.0
O254 O 0.528 0.5607 0.58858 0.0
O255 O 0.56979 0.59554 0.59613 0.0
O256 O 0.48359 0.57661 0.58921 0.0
O257 O 0.47302 0.53112 0.57657 0.0
O258 O 0.51873 0.50548 0.56257 0.0
O259 O 0.50446 0.51293 0.52461 0.0
O260 O 0.5154 0.58209 0.53788 0.0
O261 O 0.47351 0.54772 0.53035 0.0
O262 O 0.56226 0.56551 0.54177 0.0
O263 O 0.56657 0.61112 0.54676 0.0
H264 H 0.48453 0.66627 0.56617 0.0
H265 H 0.44921 0.68138 0.5886 0.0
H266 H 0.48776 0.66159 0.65843 0.0
H267 H 0.52316 0.64624 0.63597 0.0
H268 H 0.57476 0.50823 0.56028 0.0
H269 H 0.61636 0.49674 0.54333 0.0
H270 H 0.5545 0.46036 0.47859 0.0
H271 H 0.51231 0.47078 0.49624 0.0
Tb272 Tb 0.02038 0.59912 0.0399 0.0
Tb273 Tb 0.01683 0.551 0.07388 0.0
C274 C 0.00621 0.63337 0.01263 0.0
C275 C 0.9874 0.6511 0.01346 0.0
C276 C 0.95619 0.64127 1.00287 0.0
C277 C 0.93907 0.65859 1.00143 0.0
C278 C 0.9528 0.68626 0.01038 0.0
C279 C 0.98379 0.69594 0.02147 0.0
C280 C 1.00095 0.67856 0.02296 0.0
C281 C 0.07352 0.60488 0.06543 0.0
C282 C 0.99313 0.59515 0.09461 0.0
C283 C 0.0295 0.51529 0.10011 0.0
C284 C 0.05252 0.50163 0.10021 0.0
C285 C 0.08528 0.51744 0.09946 0.0
C286 C 0.10681 0.50419 0.10117 0.0
C287 C 0.09605 0.47484 0.10364 0.0
C288 C 0.06318 0.459 0.10362 0.0
C289 C 0.04165 0.4723 0.10197 0.0
C290 C 0.96391 0.54473 0.04765 0.0
C291 C 0.04524 0.55582 0.01988 0.0
O292 O 0.99014 0.60619 0.01226 0.0
O293 O 0.03247 0.64045 0.02675 0.0
O294 O 0.0459 0.59435 0.07302 0.0
O295 O 0.07237 0.61526 0.04333 0.0
O296 O 0.99625 0.60644 0.07191 0.0
O297 O 1.00155 0.5738 0.10034 0.0
O298 O 0.04098 0.54219 0.10512 0.0
O299 O 0.00768 0.50859 0.08183 0.0
O300 O 0.99176 0.55561 0.04057 0.0
O301 O 0.96484 0.535 0.07003 0.0
O302 O 0.04537 0.54694 0.04331 0.0
O303 O 0.03306 0.57462 0.01339 0.0
H304 H 0.9452 0.62038 0.99504 0.0
H305 H 0.91549 0.65061 0.99238 0.0
H306 H 0.99493 0.71709 0.02871 0.0
H307 H 0.02503 0.68685 0.03107 0.0
H308 H 0.09436 0.5401 0.09813 0.0
H309 H 0.13196 0.51707 0.10144 0.0
H310 H 0.05408 0.43633 0.10512 0.0
H311 H 0.01648 0.45968 0.10247 0.0
H312 H 0.27773 0.2211 0.25471 0.0
H313 H 0.24611 0.20377 0.29109 0.0
H314 H 0.28528 0.28698 0.32253 0.0
H315 H 0.31764 0.30427 0.28657 0.0
H316 H 0.28828 0.24835 0.35586 0.0
H317 H 0.20859 0.25876 0.29885 0.0
H318 H 0.17603 0.25192 0.25947 0.0
H319 H 0.13812 0.16274 0.27138 0.0
H320 H 0.17081 0.16901 0.31069 0.0
H321 H 0.18959 0.21893 0.45734 0.0
H322 H 0.21436 0.23885 0.41854 0.0
H323 H 0.17587 0.15655 0.38527 0.0
H324 H 0.15101 0.1365 0.42401 0.0
H325 H 0.17158 0.19565 0.35264 0.0
H326 H 0.2524 0.18444 0.40788 0.0
H327 H 0.28528 0.19021 0.44701 0.0
H328 H 0.32157 0.27978 0.43788 0.0
H329 H 0.28854 0.27455 0.39885 0.0
C330 C 0.27955 0.23571 0.26936 0.0
C331 C 0.30023 0.26406 0.26776 0.0
C332 C 0.26125 0.22583 0.29002 0.0
C333 C 0.26315 0.24413 0.30944 0.0
C334 C 0.28337 0.27252 0.30772 0.0
C335 C 0.30165 0.28241 0.28706 0.0
C336 C 0.2454 0.23338 0.33218 0.0
C337 C 0.26269 0.23726 0.35519 0.0
C338 C 0.21213 0.21817 0.33121 0.0
C339 C 0.19238 0.21435 0.30761 0.0
C340 C 0.19351 0.23767 0.29298 0.0
C341 C 0.17499 0.2339 0.27069 0.0
C342 C 0.15508 0.2069 0.2629 0.0
C343 C 0.15359 0.18363 0.27743 0.0
C344 C 0.17208 0.18729 0.29973 0.0
C345 C 0.18641 0.20508 0.44176 0.0
C346 C 0.16853 0.1761 0.44381 0.0
C347 C 0.20052 0.21649 0.41959 0.0
C348 C 0.19734 0.19912 0.39912 0.0
C349 C 0.17863 0.17035 0.40082 0.0
C350 C 0.16439 0.15893 0.42296 0.0
C351 C 0.21448 0.21077 0.37628 0.0
C352 C 0.19713 0.20694 0.35328 0.0
C353 C 0.24776 0.2259 0.37718 0.0
C354 C 0.26774 0.22911 0.40059 0.0
C355 C 0.2672 0.20537 0.41432 0.0
C356 C 0.2859 0.20855 0.43646 0.0
C357 C 0.30544 0.23535 0.44496 0.0
C358 C 0.30639 0.25903 0.43129 0.0
C359 C 0.2877 0.25598 0.40915 0.0
H360 H 0.3199 0.23776 0.4621 0.0
H361 H 0.14076 0.20403 0.24563 0.0
H362 H 0.23042 0.82978 0.80105 0.0
H363 H 0.24985 0.85154 0.84188 0.0
H364 H 0.34551 0.88556 0.81746 0.0
H365 H 0.32628 0.86418 0.77664 0.0
H366 H 0.3421 0.85925 0.86206 0.0
H367 H 0.30523 0.92744 0.824 0.0
H368 H 0.26607 0.9436 0.80255 0.0
H369 H 0.20525 0.91423 0.86357 0.0
H370 H 0.24388 0.89752 0.88525 0.0
H371 H 0.42305 0.96034 0.95472 0.0
H372 H 0.39852 0.93595 0.91602 0.0
H373 H 0.30731 0.90309 0.94838 0.0
H374 H 0.3318 0.92676 0.98757 0.0
H375 H 0.3053 0.92625 0.90142 0.0
H376 H 0.34237 0.85982 0.94028 0.0
H377 H 0.38072 0.8429 0.96198 0.0
H378 H 0.44021 0.86803 0.89986 0.0
H379 H 0.40241 0.88551 0.87792 0.0
C380 C 0.25551 0.8423 0.80426 0.0
C381 C 0.27684 0.84515 0.78567 0.0
C382 C 0.26658 0.85464 0.82761 0.0
C383 C 0.29913 0.87015 0.83269 0.0
C384 C 0.32033 0.8735 0.81399 0.0
C385 C 0.30931 0.86124 0.7907 0.0
C386 C 0.31142 0.88214 0.85772 0.0
C387 C 0.33433 0.87416 0.87054 0.0
C388 C 0.3005 0.90087 0.8691 0.0
C389 C 0.27729 0.91095 0.85612 0.0
C390 C 0.28338 0.9242 0.83275 0.0
C391 C 0.26131 0.93351 0.82057 0.0
C392 C 0.23315 0.92987 0.83165 0.0
C393 C 0.22705 0.91699 0.85499 0.0
C394 C 0.24903 0.90761 0.86724 0.0
C395 C 0.39789 0.9475 0.95387 0.0
C396 C 0.37945 0.94549 0.97436 0.0
C397 C 0.38387 0.9337 0.93164 0.0
C398 C 0.35113 0.91766 0.92939 0.0
C399 C 0.33261 0.91548 0.94974 0.0
C400 C 0.34666 0.92911 0.97208 0.0
C401 C 0.33631 0.90367 0.90553 0.0
C402 C 0.31293 0.91124 0.89297 0.0
C403 C 0.34671 0.88448 0.89438 0.0
C404 C 0.36968 0.87421 0.90755 0.0
C405 C 0.36378 0.862 0.93134 0.0
C406 C 0.38538 0.85226 0.94367 0.0
C407 C 0.4129 0.85444 0.93234 0.0
C408 C 0.41889 0.86638 0.90864 0.0
C409 C 0.39737 0.87619 0.89623 0.0
H410 H 0.42949 0.84675 0.94191 0.0
H411 H 0.21609 0.9371 0.8222 0.0
H412 H 0.60772 0.48345 0.81185 0.0
H413 H 0.608 0.50663 0.77156 0.0
H414 H 0.6085 0.43384 0.7344 0.0
H415 H 0.60909 0.41086 0.77498 0.0
H416 H 0.64151 0.48293 0.70871 0.0
H417 H 0.53961 0.43826 0.74283 0.0
H418 H 0.50118 0.42791 0.77553 0.0
H419 H 0.51248 0.51441 0.77612 0.0
H420 H 0.55144 0.52538 0.74372 0.0
H421 H 0.5207 0.51577 0.61496 0.0
H422 H 0.53441 0.48996 0.64943 0.0
H423 H 0.62627 0.5573 0.65999 0.0
H424 H 0.61261 0.58329 0.62537 0.0
H425 H 0.5462 0.50668 0.6969 0.0
H426 H 0.67923 0.52786 0.68504 0.0
H427 H 0.71511 0.53373 0.65107 0.0
H428 H 0.63574 0.48633 0.60204 0.0
H429 H 0.59945 0.47983 0.63579 0.0
C430 C 0.609 0.47282 0.79511 0.0
C431 C 0.6084 0.44542 0.79645 0.0
C432 C 0.60898 0.48599 0.77209 0.0
C433 C 0.60761 0.47178 0.74987 0.0
C434 C 0.60951 0.44522 0.75125 0.0
C435 C 0.60991 0.43212 0.77441 0.0
C436 C 0.60016 0.48318 0.72562 0.0
C437 C 0.62077 0.48823 0.70612 0.0
C438 C 0.57254 0.48931 0.72188 0.0
C439 C 0.54863 0.48268 0.741 0.0
C440 C 0.53402 0.4551 0.75003 0.0
C441 C 0.51215 0.44912 0.76851 0.0
C442 C 0.50443 0.4705 0.77793 0.0
C443 C 0.51851 0.49788 0.76882 0.0
C444 C 0.54048 0.50399 0.7504 0.0
C445 C 0.54403 0.5249 0.62434 0.0
C446 C 0.56555 0.55163 0.61753 0.0
C447 C 0.55179 0.51015 0.64411 0.0
C448 C 0.58137 0.52164 0.65736 0.0
C449 C 0.60342 0.54787 0.64994 0.0
C450 C 0.59556 0.56275 0.63022 0.0
C451 C 0.58799 0.50724 0.68011 0.0
C452 C 0.56707 0.50152 0.6994 0.0
C453 C 0.61489 0.49998 0.68331 0.0
C454 C 0.63658 0.50365 0.66292 0.0
C455 C 0.66944 0.51862 0.66704 0.0
C456 C 0.68985 0.52206 0.64781 0.0
C457 C 0.67769 0.5105 0.62439 0.0
C458 C 0.64511 0.49539 0.62016 0.0
C459 C 0.6246 0.49187 0.63933 0.0
H460 H 0.69353 0.5132 0.60953 0.0
H461 H 0.4875 0.46583 0.79224 0.0
H462 H 0.88506 0.67534 0.28803 0.0
H463 H 0.90119 0.64987 0.25698 0.0
H464 H 0.95456 0.72831 0.22133 0.0
H465 H 0.93908 0.75358 0.25222 0.0
H466 H 0.9154 0.69062 0.1876 0.0
H467 H 0.99154 0.69117 0.25415 0.0
H468 H 0.00816 0.68121 0.29659 0.0
H469 H 0.95443 0.59308 0.28546 0.0
H470 H 0.93716 0.60257 0.24305 0.0
H471 H 0.99588 0.64908 0.09776 0.0
H472 H 0.98023 0.67056 0.13172 0.0
H473 H 0.9471 0.59115 0.17061 0.0
H474 H 0.96474 0.57016 0.13734 0.0
H475 H 0.97251 0.62693 0.20334 0.0
H476 H 0.89679 0.62464 0.13701 0.0
H477 H 0.8777 0.63332 0.09497 0.0
H478 H 0.92588 0.7222 0.10567 0.0
H479 H 0.94568 0.71407 0.14763 0.0
C480 C 0.90088 0.68716 0.27396 0.0
C481 C 0.91051 0.71655 0.27261 0.0
C482 C 0.90996 0.67256 0.25605 0.0
C483 C 0.9289 0.68705 0.23644 0.0
C484 C 0.93965 0.71646 0.23591 0.0
C485 C 0.93082 0.73094 0.25374 0.0
C486 C 0.93663 0.67202 0.21579 0.0
C487 C 0.92815 0.67688 0.19104 0.0
C488 C 0.95237 0.65331 0.22008 0.0
C489 C 0.96277 0.64761 0.24554 0.0
C490 C 0.98305 0.66969 0.26084 0.0
C491 C 0.99263 0.66413 0.28487 0.0
C492 C 0.98228 0.63654 0.29375 0.0
C493 C 0.96239 0.61444 0.27858 0.0
C494 C 0.95271 0.6199 0.25454 0.0
C495 C 0.98504 0.63611 0.11345 0.0
C496 C 0.98144 0.60777 0.11463 0.0
C497 C 0.97581 0.64842 0.13295 0.0
C498 C 0.96162 0.63255 0.15387 0.0
C499 C 0.95788 0.60413 0.15491 0.0
C500 C 0.96787 0.59202 0.13571 0.0
C501 C 0.95149 0.64561 0.17486 0.0
C502 C 0.95951 0.64044 0.19972 0.0
C503 C 0.93485 0.66376 0.17068 0.0
C504 C 0.92298 0.66871 0.14541 0.0
C505 C 0.90351 0.64603 0.13034 0.0
C506 C 0.89255 0.65086 0.10652 0.0
C507 C 0.90064 0.67829 0.09763 0.0
C508 C 0.91967 0.70096 0.11256 0.0
C509 C 0.93076 0.69625 0.13637 0.0
H510 H 0.89212 0.682 0.07919 0.0
H511 H 0.98973 0.63227 0.31235 0.0
H512 H 0.42216 0.2859 0.21012 0.0
H513 H 0.44978 0.2582 0.19408 0.0
H514 H 0.36304 0.18429 0.19371 0.0
H515 H 0.33525 0.21189 0.20973 0.0
H516 H 0.41327 0.17257 0.21122 0.0
H517 H 0.38811 0.22098 0.14065 0.0
H518 H 0.38773 0.26218 0.11658 0.0
H519 H 0.48963 0.29663 0.1188 0.0
H520 H 0.49064 0.25582 0.14324 0.0
H521 H 0.44445 0.08642 0.12517 0.0
H522 H 0.42406 0.11543 0.14802 0.0
H523 H 0.51465 0.18486 0.14564 0.0
H524 H 0.53526 0.15602 0.1225 0.0
H525 H 0.46624 0.20051 0.13151 0.0
H526 H 0.49116 0.15022 0.1998 0.0
H527 H 0.49109 0.10842 0.2231 0.0
H528 H 0.3895 0.07692 0.22454 0.0
H529 H 0.38891 0.11836 0.20094 0.0
C530 C 0.40894 0.26376 0.20653 0.0
C531 C 0.37646 0.25111 0.21099 0.0
C532 C 0.42477 0.24796 0.19743 0.0
C533 C 0.40836 0.21927 0.19241 0.0
C534 C 0.37615 0.20641 0.19747 0.0
C535 C 0.36032 0.22218 0.20665 0.0
C536 C 0.42454 0.20277 0.18129 0.0
C537 C 0.42461 0.17852 0.19368 0.0
C538 C 0.44002 0.21095 0.15872 0.0
C539 C 0.43945 0.23551 0.14404 0.0
C540 C 0.41045 0.23747 0.13621 0.0
C541 C 0.41012 0.26073 0.12246 0.0
C542 C 0.43864 0.28206 0.11624 0.0
C543 C 0.46756 0.28013 0.12369 0.0
C544 C 0.46802 0.25694 0.13748 0.0
C545 C 0.46019 0.10777 0.12969 0.0
C546 C 0.49148 0.11891 0.12197 0.0
C547 C 0.44851 0.1243 0.14287 0.0
C548 C 0.46793 0.15222 0.14873 0.0
C549 C 0.49931 0.16332 0.14135 0.0
C550 C 0.51105 0.14678 0.12818 0.0
C551 C 0.45479 0.17019 0.16134 0.0
C552 C 0.45521 0.19471 0.14919 0.0
C553 C 0.43972 0.1622 0.18409 0.0
C554 C 0.43998 0.13731 0.19842 0.0
C555 C 0.46878 0.13428 0.20492 0.0
C556 C 0.46886 0.11067 0.21821 0.0
C557 C 0.4403 0.09 0.22525 0.0
C558 C 0.41161 0.09294 0.21906 0.0
C559 C 0.41139 0.11651 0.20576 0.0
H560 H 0.44042 0.07172 0.23553 0.0
H561 H 0.43833 0.30004 0.10558 0.0
H562 H 0.10426 0.83977 0.69792 0.0
H563 H 0.09099 0.87957 0.68416 0.0
H564 H 0.18816 0.92587 0.66626 0.0
H565 H 0.2016 0.88588 0.67967 0.0
H566 H 0.16231 0.95922 0.6887 0.0
H567 H 0.13579 0.89493 0.62105 0.0
H568 H 0.11116 0.84977 0.59897 0.0
H569 H 0.01853 0.84585 0.61439 0.0
H570 H 0.04262 0.89076 0.63697 0.0
H571 H 0.1238 0.05481 0.60422 0.0
H572 H 0.14449 0.02269 0.62614 0.0
H573 H 0.04969 0.96971 0.64541 0.0
H574 H 0.02886 1.0014 0.62351 0.0
H575 H 0.07784 0.94131 0.62134 0.0
H576 H 0.10563 0.00646 0.6896 0.0
H577 H 0.13133 0.05283 0.70955 0.0
H578 H 0.22269 0.05643 0.69066 0.0
H579 H 0.19748 0.01022 0.67028 0.0
C580 C 0.12284 0.8584 0.69105 0.0
C581 C 0.15391 0.85951 0.68961 0.0
C582 C 0.11524 0.88115 0.68328 0.0
C583 C 0.1385 0.90549 0.67386 0.0
C584 C 0.16986 0.90725 0.67345 0.0
C585 C 0.1775 0.88441 0.68119 0.0
C586 C 0.12956 0.92846 0.66345 0.0
C587 C 0.1441 0.95544 0.67379 0.0
C588 C 0.10563 0.92342 0.64411 0.0
C589 C 0.09106 0.89606 0.631 0.0
C590 C 0.11019 0.88428 0.62002 0.0
C591 C 0.09631 0.85875 0.60735 0.0
C592 C 0.06331 0.8449 0.60535 0.0
C593 C 0.0441 0.85656 0.61602 0.0
C594 C 0.05786 0.88204 0.62876 0.0
C595 C 0.10748 0.03668 0.61365 0.0
C596 C 0.07465 0.03048 0.61188 0.0
C597 C 0.11935 0.01836 0.62618 0.0
C598 C 0.09858 0.99374 0.63729 0.0
C599 C 0.06609 0.98849 0.63682 0.0
C600 C 0.05424 0.00667 0.62429 0.0
C601 C 0.10986 0.9719 0.64706 0.0
C602 C 0.09594 0.94512 0.63637 0.0
C603 C 0.13444 0.97726 0.66589 0.0
C604 C 0.14963 1.005 0.67818 0.0
C605 C 0.13117 0.01724 0.6895 0.0
C606 C 0.14566 0.04348 0.70093 0.0
C607 C 0.17862 0.05761 0.70131 0.0
C608 C 0.19716 0.04548 0.69032 0.0
C609 C 0.18279 0.01926 0.67885 0.0
H610 H 0.18979 0.07791 0.71017 0.0
H611 H 0.05261 0.82518 0.59548 0.0
H612 H 0.69839 0.45321 0.91473 0.0
H613 H 0.74796 0.48162 0.93765 0.0
H614 H 0.78851 0.42195 0.91983 0.0
H615 H 0.73868 0.39319 0.89753 0.0
H616 H 0.7979 0.43177 0.9666 0.0
H617 H 0.81352 0.49022 0.89431 0.0
H618 H 0.79992 0.51851 0.86142 0.0
H619 H 0.793 0.5741 0.91659 0.0
H620 H 0.80614 0.54591 0.94986 0.0
H621 H 0.96085 0.55066 0.99713 0.0
H622 H 0.91415 0.53039 0.96848 0.0
H623 H 0.85564 0.49734 0.03081 0.0
H624 H 0.9024 0.51733 0.05954 0.0
H625 H 0.85758 0.53461 0.95992 0.0
H626 H 0.80249 0.43199 0.01666 0.0
H627 H 0.81978 0.40289 0.0465 0.0
H628 H 0.91188 0.43399 0.01634 0.0
H629 H 0.895 0.46295 0.98611 0.0
C630 C 0.71818 0.44656 0.91522 0.0
C631 C 0.71474 0.42102 0.90436 0.0
C632 C 0.74653 0.4628 0.92834 0.0
C633 C 0.77212 0.45401 0.93049 0.0
C634 C 0.7691 0.42912 0.91862 0.0
C635 C 0.74069 0.41276 0.90578 0.0
C636 C 0.80106 0.46944 0.94662 0.0
C637 C 0.81089 0.45426 0.96504 0.0
C638 C 0.8184 0.49877 0.94455 0.0
C639 C 0.81053 0.51579 0.92459 0.0
C640 C 0.80886 0.50835 0.89945 0.0
C641 C 0.80127 0.52439 0.88073 0.0
C642 C 0.79552 0.54805 0.88692 0.0
C643 C 0.79743 0.55575 0.91183 0.0
C644 C 0.80497 0.53976 0.93062 0.0
C645 C 0.93794 0.53946 1.00474 0.0
C646 C 0.93525 0.5354 0.03056 0.0
C647 C 0.91126 0.52791 0.98833 0.0
C648 C 0.88145 0.512 0.99745 0.0
C649 C 0.87849 0.50915 0.02332 0.0
C650 C 0.90518 0.52063 0.03972 0.0
C651 C 0.85396 0.49692 0.97994 0.0
C652 C 0.84443 0.51214 0.96139 0.0
C653 C 0.83731 0.46748 0.98142 0.0
C654 C 0.84756 0.44985 0.99932 0.0
C655 C 0.82639 0.43253 0.01635 0.0
C656 C 0.83612 0.41607 0.03333 0.0
C657 C 0.86694 0.41666 0.03337 0.0
C658 C 0.88805 0.43363 0.01636 0.0
C659 C 0.87842 0.45009 0.99931 0.0
H660 H 0.87444 0.40393 0.04655 0.0
H661 H 0.78966 0.56044 0.8724 0.0
H662 H 0.84694 0.70071 0.4363 0.0
H663 H 0.79967 0.6732 0.45886 0.0
H664 H 0.73982 0.68229 0.39699 0.0
H665 H 0.78709 0.70933 0.37416 0.0
H666 H 0.72779 0.69947 0.44446 0.0
H667 H 0.73977 0.62054 0.40763 0.0
H668 H 0.76831 0.59055 0.39767 0.0
H669 H 0.78294 0.57624 0.47556 0.0
H670 H 0.75493 0.60654 0.48601 0.0
H671 H 0.58148 0.62298 0.49585 0.0
H672 H 0.62578 0.64105 0.46867 0.0
H673 H 0.67963 0.60599 0.5176 0.0
H674 H 0.63383 0.58576 0.54368 0.0
H675 H 0.69518 0.60157 0.47547 0.0
H676 H 0.68966 0.68251 0.51386 0.0
H677 H 0.66353 0.71362 0.52625 0.0
H678 H 0.64089 0.72641 0.44946 0.0
H679 H 0.66671 0.69523 0.43663 0.0
C680 C 0.82367 0.69621 0.42728 0.0
C681 C 0.82073 0.70697 0.40336 0.0
C682 C 0.79667 0.68053 0.4402 0.0
C683 C 0.76612 0.67564 0.42966 0.0
C684 C 0.76311 0.68571 0.40549 0.0
C685 C 0.79012 0.70096 0.39237 0.0
C686 C 0.73758 0.66194 0.44457 0.0
C687 C 0.72037 0.67792 0.45096 0.0
C688 C 0.72856 0.63419 0.45386 0.0
C689 C 0.74554 0.61608 0.4476 0.0
C690 C 0.74937 0.61126 0.42265 0.0
C691 C 0.76539 0.59414 0.41691 0.0
C692 C 0.77751 0.58157 0.43597 0.0
C693 C 0.77358 0.58604 0.46081 0.0
C694 C 0.75762 0.60317 0.46665 0.0
C695 C 0.60279 0.61908 0.50071 0.0
C696 C 0.60446 0.6033 0.52199 0.0
C697 C 0.62834 0.62966 0.48526 0.0
C698 C 0.65689 0.62593 0.49128 0.0
C699 C 0.65819 0.60951 0.5124 0.0
C700 C 0.63208 0.59802 0.52742 0.0
C701 C 0.68517 0.63913 0.47564 0.0
C702 C 0.70248 0.62314 0.4691 0.0
C703 C 0.69486 0.6672 0.46668 0.0
C704 C 0.67995 0.68644 0.47431 0.0
C705 C 0.67907 0.69194 0.49963 0.0
C706 C 0.66431 0.70958 0.50673 0.0
C707 C 0.65053 0.72196 0.48865 0.0
C708 C 0.6516 0.71683 0.46344 0.0
C709 C 0.66636 0.69924 0.45624 0.0
H710 H 0.63905 0.73555 0.49418 0.0
H711 H 0.78988 0.5683 0.43149 0.0
H712 H 0.3369 0.40393 0.14304 0.0
H713 H 0.29512 0.41881 0.12596 0.0
H714 H 0.2351 0.37426 0.18454 0.0
H715 H 0.27715 0.35996 0.20233 0.0
H716 H 0.20339 0.36672 0.13628 0.0
H717 H 0.27169 0.44123 0.19052 0.0
H718 H 0.32307 0.47652 0.2061 0.0
H719 H 0.336 0.51712 0.13462 0.0
H720 H 0.28487 0.48178 0.1185 0.0
H721 H 0.0928 0.43229 0.13608 0.0
H722 H 0.13257 0.4122 0.14536 0.0
H723 H 0.1918 0.4665 0.09048 0.0
H724 H 0.15183 0.48655 0.08084 0.0
H725 H 0.22478 0.46857 0.13388 0.0
H726 H 0.15533 0.39683 0.07999 0.0
H727 H 0.10439 0.36167 0.06354 0.0
H728 H 0.09385 0.31585 0.1324 0.0
H729 H 0.14453 0.351 0.14943 0.0
C730 C 0.31495 0.39746 0.15247 0.0
C731 C 0.31058 0.38098 0.17426 0.0
C732 C 0.29102 0.40582 0.14254 0.0
C733 C 0.26216 0.39777 0.15409 0.0
C734 C 0.25721 0.38059 0.17533 0.0
C735 C 0.28126 0.37239 0.18542 0.0
C736 C 0.23767 0.40828 0.14459 0.0
C737 C 0.20786 0.38894 0.13596 0.0
C738 C 0.24397 0.43734 0.14353 0.0
C739 C 0.27463 0.45868 0.15323 0.0
C740 C 0.28562 0.45753 0.17806 0.0
C741 C 0.31467 0.47757 0.187 0.0
C742 C 0.33284 0.499 0.17134 0.0
C743 C 0.32193 0.50048 0.14672 0.0
C744 C 0.29291 0.48046 0.13767 0.0
C745 C 0.11394 0.43956 0.12556 0.0
C746 C 0.11912 0.46105 0.10771 0.0
C747 C 0.13672 0.42807 0.13094 0.0
C748 C 0.16508 0.43772 0.11851 0.0
C749 C 0.1701 0.45879 0.10033 0.0
C750 C 0.14729 0.47028 0.09491 0.0
C751 C 0.19023 0.42701 0.12566 0.0
C752 C 0.22024 0.44633 0.13394 0.0
C753 C 0.18413 0.39795 0.12622 0.0
C754 C 0.15363 0.37671 0.11607 0.0
C755 C 0.14203 0.37939 0.09171 0.0
C756 C 0.11322 0.35944 0.08227 0.0
C757 C 0.09586 0.33657 0.09694 0.0
C758 C 0.10731 0.33359 0.12107 0.0
C759 C 0.1361 0.35352 0.13062 0.0
H760 H 0.07356 0.32114 0.08959 0.0
H761 H 0.35532 0.5145 0.1783 0.0
H762 H 0.66877 0.31842 0.90786 0.0
H763 H 0.64833 0.27477 0.93169 0.0
H764 H 0.55929 0.28439 0.93678 0.0
H765 H 0.58006 0.32872 0.91391 0.0
H766 H 0.57825 0.27097 0.98076 0.0
H767 H 0.56787 0.23502 0.89792 0.0
H768 H 0.58602 0.22989 0.85683 0.0
H769 H 0.65437 0.20028 0.89177 0.0
H770 H 0.63691 0.20559 0.93311 0.0
H771 H 0.48635 0.13483 0.02385 0.0
H772 H 0.50833 0.17724 0.9985 0.0
H773 H 0.59785 0.1673 0.99958 0.0
H774 H 0.57573 0.1245 0.02483 0.0
H775 H 0.5802 0.18081 0.95304 0.0
H776 H 0.58947 0.21563 0.03585 0.0
H777 H 0.57023 0.21957 0.0768 0.0
H778 H 0.50343 0.25094 0.0418 0.0
H779 H 0.52189 0.24672 1.00056 0.0
C780 C 0.64481 0.31127 0.91402 0.0
C781 C 0.62611 0.32719 0.90892 0.0
C782 C 0.63303 0.28612 0.92748 0.0
C783 C 0.60213 0.27607 0.93592 0.0
C784 C 0.58319 0.29164 0.93047 0.0
C785 C 0.595 0.31687 0.9171 0.0
C786 C 0.58994 0.24993 0.9512 0.0
C787 C 0.57828 0.25118 0.9745 0.0
C788 C 0.59079 0.22421 0.94346 0.0
C789 C 0.6013 0.22097 0.91862 0.0
C790 C 0.58695 0.22763 0.89685 0.0
C791 C 0.59707 0.22465 0.87351 0.0
C792 C 0.62139 0.21484 0.87169 0.0
C793 C 0.63557 0.20792 0.89321 0.0
C794 C 0.62555 0.21088 0.91659 0.0
C795 C 0.51072 0.14168 0.01869 0.0
C796 C 0.52937 0.12644 0.02635 0.0
C797 C 0.5233 0.16597 1.00427 0.0
C798 C 0.55486 0.17565 0.99733 0.0
C799 C 0.57346 0.16026 1.00473 0.0
C800 C 0.56086 0.1359 0.01922 0.0
C801 C 0.56828 0.20187 0.98239 0.0
C802 C 0.58023 0.20064 0.95925 0.0
C803 C 0.56769 0.22761 0.99025 0.0
C804 C 0.55689 0.23063 0.01508 0.0
C805 C 0.57053 0.2232 0.03685 0.0
C806 C 0.55978 0.22549 0.06012 0.0
C807 C 0.53557 0.23545 0.06189 0.0
C808 C 0.52215 0.24321 0.04039 0.0
C809 C 0.53277 0.24089 0.01707 0.0
H810 H 0.52725 0.23719 0.07992 0.0
H811 H 0.62919 0.21254 0.8536 0.0
H812 H 0.8636 0.80377 0.41726 0.0
H813 H 0.88846 0.84768 0.44047 0.0
H814 H 0.98096 0.85123 0.42395 0.0
H815 H 0.95601 0.8071 0.40036 0.0
H816 H 0.97501 0.86201 0.47547 0.0
H817 H 0.95428 0.89363 0.3938 0.0
H818 H 0.92105 0.89435 0.35613 0.0
H819 H 0.8596 0.91727 0.40009 0.0
H820 H 0.89221 0.91628 0.4381 0.0
H821 H 0.06562 1.00121 0.51468 0.0
H822 H 0.04044 0.95705 0.49217 0.0
H823 H 0.94938 0.96343 0.49511 0.0
H824 H 0.97496 0.0085 0.51706 0.0
H825 H 0.95375 0.9467 0.45095 0.0
H826 H 0.97242 0.91596 0.53225 0.0
H827 H 1.00281 0.91389 0.57121 0.0
H828 H 0.06427 0.88749 0.53055 0.0
H829 H 0.03457 0.88984 0.49125 0.0
C830 C 0.88926 0.81383 0.41857 0.0
C831 C 0.90781 0.80178 0.40702 0.0
C832 C 0.90345 0.83905 0.43179 0.0
C833 C 0.93663 0.8529 0.43402 0.0
C834 C 0.95532 0.84095 0.42256 0.0
C835 C 0.94105 0.81583 0.40896 0.0
C836 C 0.95152 0.87978 0.44832 0.0
C837 C 0.9708 0.88068 0.46991 0.0
C838 C 0.94509 0.90388 0.44168 0.0
C839 C 0.92552 0.9046 0.41883 0.0
C840 C 0.93353 0.89859 0.39547 0.0
C841 C 0.91483 0.89909 0.37405 0.0
C842 C 0.88818 0.90578 0.37572 0.0
C843 C 0.88022 0.91205 0.39882 0.0
C844 C 0.89882 0.91155 0.42031 0.0
C845 C 0.04018 0.9932 0.51066 0.0
C846 C 0.02229 0.00837 0.51779 0.0
C847 C 0.02571 0.96773 0.49787 0.0
C848 C 0.99277 0.95635 0.49218 0.0
C849 C 0.97479 0.97154 0.49929 0.0
C850 C 0.98938 0.99726 0.51196 0.0
C851 C 0.97753 0.92916 0.47819 0.0
C852 C 0.95808 0.92812 0.45663 0.0
C853 C 0.98344 0.90478 0.48512 0.0
C854 C 1.00142 0.90334 0.50874 0.0
C855 C 0.99257 0.90994 0.53157 0.0
C856 C 0.00966 0.90868 0.55373 0.0
C857 C 0.0355 0.90063 0.55335 0.0
C858 C 0.04427 0.89376 0.53081 0.0
C859 C 0.0273 0.89504 0.50858 0.0
H860 H 0.0487 0.89967 0.57052 0.0
H861 H 0.87374 0.90617 0.35912 0.0
H862 H 0.33853 0.81946 0.73064 0.0
H863 H 0.36995 0.79548 0.71474 0.0
H864 H 0.28446 0.72959 0.68534 0.0
H865 H 0.25259 0.75229 0.70301 0.0
H866 H 0.32157 0.70693 0.70448 0.0
H867 H 0.33632 0.78303 0.64784 0.0
H868 H 0.34915 0.83209 0.63455 0.0
H869 H 0.44415 0.85524 0.66653 0.0
H870 H 0.43176 0.80636 0.68031 0.0
H871 H 0.40241 0.65999 0.61555 0.0
H872 H 0.36895 0.67974 0.63551 0.0
H873 H 0.4486 0.72844 0.6843 0.0
H874 H 0.48211 0.70835 0.66471 0.0
H875 H 0.41439 0.75893 0.65475 0.0
H876 H 0.39525 0.68213 0.71472 0.0
H877 H 0.38072 0.63243 0.72662 0.0
H878 H 0.2927 0.61011 0.68297 0.0
H879 H 0.30645 0.65987 0.67132 0.0
C880 C 0.32626 0.79965 0.72113 0.0
C881 C 0.29291 0.78787 0.71816 0.0
C882 C 0.34437 0.78616 0.71167 0.0
C883 C 0.32967 0.76097 0.69838 0.0
C884 C 0.2964 0.74908 0.6954 0.0
C885 C 0.2782 0.76231 0.70527 0.0
C886 C 0.34901 0.74687 0.68794 0.0
C887 C 0.34157 0.71831 0.69332 0.0
C888 C 0.37544 0.76164 0.6736 0.0
C889 C 0.38301 0.79107 0.66531 0.0
C890 C 0.35988 0.79862 0.6522 0.0
C891 C 0.36708 0.82639 0.64455 0.0
C892 C 0.39742 0.84678 0.64975 0.0
C893 C 0.42065 0.83942 0.66255 0.0
C894 C 0.41355 0.81168 0.67026 0.0
C895 C 0.41267 0.67467 0.63072 0.0
C896 C 0.44483 0.68267 0.6386 0.0
C897 C 0.39353 0.68581 0.64214 0.0
C898 C 0.40639 0.70547 0.66133 0.0
C899 C 0.43832 0.71319 0.66955 0.0
C900 C 0.45734 0.70164 0.65844 0.0
C901 C 0.387 0.71939 0.67157 0.0
C902 C 0.39437 0.74779 0.66597 0.0
C903 C 0.36024 0.70443 0.68526 0.0
C904 C 0.35195 0.67458 0.69205 0.0
C905 C 0.37285 0.66658 0.70762 0.0
C906 C 0.36469 0.63844 0.7144 0.0
C907 C 0.33589 0.61808 0.70542 0.0
C908 C 0.31501 0.62589 0.68988 0.0
C909 C 0.32287 0.65407 0.68333 0.0
H910 H 0.32975 0.59626 0.71054 0.0
H911 H 0.40296 0.86827 0.64381 0.0
H912 H 0.78389 0.82766 0.83538 0.0
H913 H 0.80576 0.84617 0.79531 0.0
H914 H 0.7864 0.92047 0.80621 0.0
H915 H 0.76329 0.90135 0.84585 0.0
H916 H 0.77274 0.90518 0.76001 0.0
H917 H 0.86263 0.91842 0.81702 0.0
H918 H 0.89432 0.90301 0.84831 0.0
H919 H 0.90325 0.84602 0.79548 0.0
H920 H 0.87124 0.86083 0.76396 0.0
H921 H 0.87907 0.99632 0.67557 0.0
H922 H 0.85321 0.97365 0.71325 0.0
H923 H 0.8628 0.89703 0.69344 0.0
H924 H 0.88906 0.91972 0.65578 0.0
H925 H 0.88084 0.9118 0.74304 0.0
H926 H 0.79241 0.90087 0.6855 0.0
H927 H 0.76056 0.91684 0.65484 0.0
H928 H 0.74982 0.97113 0.70948 0.0
H929 H 0.78201 0.95578 0.74039 0.0
C930 C 0.78432 0.84792 0.82915 0.0
C931 C 0.77219 0.86323 0.84371 0.0
C932 C 0.7969 0.85854 0.80632 0.0
C933 C 0.79838 0.88502 0.79795 0.0
C934 C 0.78562 0.90004 0.81228 0.0
C935 C 0.77248 0.88917 0.83491 0.0
C936 C 0.81353 0.89722 0.77442 0.0
C937 C 0.79653 0.90694 0.75647 0.0
C938 C 0.84434 0.89897 0.76949 0.0
C939 C 0.86431 0.89057 0.7882 0.0
C940 C 0.87125 0.90253 0.81211 0.0
C941 C 0.88926 0.89389 0.82988 0.0
C942 C 0.90073 0.8735 0.8239 0.0
C943 C 0.89433 0.86179 0.80009 0.0
C944 C 0.87628 0.87033 0.78226 0.0
C945 C 0.87578 0.97468 0.67929 0.0
C946 C 0.88607 0.95977 0.66272 0.0
C947 C 0.86083 0.96171 0.70073 0.0
C948 C 0.85589 0.93361 0.70602 0.0
C949 C 0.86632 0.91871 0.68963 0.0
C950 C 0.88109 0.93162 0.66807 0.0
C951 C 0.84013 0.91994 0.72884 0.0
C952 C 0.85703 0.90996 0.74663 0.0
C953 C 0.80937 0.91819 0.73372 0.0
C954 C 0.78988 0.92736 0.7152 0.0
C955 C 0.78348 0.91639 0.69092 0.0
C956 C 0.76532 0.92529 0.67351 0.0
C957 C 0.75324 0.94504 0.68019 0.0
C958 C 0.75922 0.95586 0.70433 0.0
C959 C 0.7774 0.94704 0.72181 0.0
H960 H 0.73918 0.95191 0.66668 0.0
H961 H 0.91461 0.8668 0.83771 0.0
H962 H 0.8284 0.27162 0.3513 0.0
H963 H 0.79847 0.2612 0.31125 0.0
H964 H 0.71241 0.24883 0.34737 0.0
H965 H 0.74216 0.2582 0.38781 0.0
H966 H 0.70257 0.20761 0.3157 0.0
H967 H 0.74802 0.30713 0.31093 0.0
H968 H 0.79017 0.35456 0.31376 0.0
H969 H 0.83886 0.33412 0.25643 0.0
H970 H 0.79723 0.28641 0.25349 0.0
H971 H 0.61906 0.1921 0.19704 0.0
H972 H 0.64277 0.21228 0.2376 0.0
H973 H 0.73496 0.22077 0.21521 0.0
H974 H 0.71147 0.20008 0.17489 0.0
H975 H 0.7367 0.26741 0.24077 0.0
H976 H 0.69348 0.16609 0.24981 0.0
H977 H 0.65077 0.11891 0.24713 0.0
H978 H 0.59678 0.14404 0.2969 0.0
H979 H 0.63902 0.19152 0.2996 0.0
C980 C 0.80309 0.26664 0.35077 0.0
C981 C 0.78766 0.26564 0.37279 0.0
C982 C 0.78605 0.26101 0.32779 0.0
C983 C 0.75323 0.25458 0.32622 0.0
C984 C 0.73775 0.25388 0.34812 0.0
C985 C 0.75482 0.25946 0.37119 0.0
C986 C 0.73505 0.24713 0.30182 0.0
C987 C 0.70962 0.22099 0.29944 0.0
C988 C 0.74449 0.26438 0.28049 0.0
C989 C 0.76958 0.2931 0.28212 0.0
C990 C 0.76783 0.31267 0.29905 0.0
C991 C 0.79162 0.33962 0.30065 0.0
C992 C 0.81721 0.34733 0.28532 0.0
C993 C 0.81903 0.32811 0.26831 0.0
C994 C 0.79531 0.30112 0.26664 0.0
C995 C 0.64438 0.19823 0.20073 0.0
C996 C 0.6633 0.19426 0.18271 0.0
C997 C 0.6579 0.20988 0.22389 0.0
C998 C 0.69057 0.21779 0.22947 0.0
C999 C 0.7097 0.21489 0.21123 0.0
C1000 C 0.69621 0.20314 0.18813 0.0
C1001 C 0.70474 0.22777 0.25469 0.0
C1002 C 0.72941 0.25432 0.25717 0.0
C1003 C 0.69449 0.21101 0.27615 0.0
C1004 C 0.66922 0.18243 0.27467 0.0
C1005 C 0.67238 0.16161 0.26002 0.0
C1006 C 0.64829 0.13481 0.25852 0.0
C1007 C 0.62103 0.1285 0.27177 0.0
C1008 C 0.61787 0.14897 0.28661 0.0
C1009 C 0.64189 0.17582 0.28814 0.0
H1010 H 0.6024 0.10774 0.27059 0.0
H1011 H 0.8356 0.36821 0.28659 0.0
H1012 H 0.39546 0.66212 0.32249 0.0
H1013 H 0.39906 0.64308 0.3644 0.0
H1014 H 0.4916 0.70883 0.37799 0.0
H1015 H 0.48833 0.7272 0.33605 0.0
H1016 H 0.49507 0.66116 0.38878 0.0
H1017 H 0.42377 0.70445 0.4087 0.0
H1018 H 0.37544 0.71489 0.40416 0.0
H1019 H 0.31777 0.62786 0.41565 0.0
H1020 H 0.36576 0.61683 0.41993 0.0
H1021 H 0.52207 0.62838 0.51318 0.0
H1022 H 0.51013 0.65371 0.47753 0.0
H1023 H 0.42178 0.58358 0.46177 0.0
H1024 H 0.43335 0.55832 0.49784 0.0
H1025 H 0.41523 0.63371 0.45299 0.0
H1026 H 0.48633 0.59055 0.43065 0.0
H1027 H 0.5346 0.57999 0.43523 0.0
H1028 H 0.59272 0.66768 0.42856 0.0
H1029 H 0.54473 0.6788 0.42415 0.0
C1030 C 0.41616 0.67281 0.33473 0.0
C1031 C 0.44164 0.69605 0.32609 0.0
C1032 C 0.41825 0.66196 0.35868 0.0
C1033 C 0.44566 0.67447 0.37448 0.0
C1034 C 0.47031 0.69863 0.36619 0.0
C1035 C 0.46838 0.70921 0.34227 0.0
C1036 C 0.45012 0.66124 0.39868 0.0
C1037 C 0.47779 0.65567 0.40295 0.0
C1038 C 0.42726 0.65321 0.41701 0.0
C1039 C 0.39836 0.65977 0.41438 0.0
C1040 C 0.40077 0.68749 0.41004 0.0
C1041 C 0.37344 0.69353 0.40756 0.0
C1042 C 0.34355 0.67204 0.40954 0.0
C1043 C 0.34094 0.64448 0.41408 0.0
C1044 C 0.3682 0.63833 0.41656 0.0
C1045 C 0.49982 0.61855 0.50241 0.0
C1046 C 0.47873 0.59128 0.5082 0.0
C1047 C 0.49309 0.633 0.48195 0.0
C1048 C 0.46529 0.62037 0.46668 0.0
C1049 C 0.4434 0.59372 0.47321 0.0
C1050 C 0.45008 0.57928 0.49377 0.0
C1051 C 0.46025 0.63409 0.44301 0.0
C1052 C 0.43251 0.63951 0.43881 0.0
C1053 C 0.48304 0.6421 0.42468 0.0
C1054 C 0.51195 0.63551 0.42723 0.0
C1055 C 0.5094 0.6076 0.4303 0.0
C1056 C 0.5367 0.60151 0.43283 0.0
C1057 C 0.56668 0.62314 0.43213 0.0
C1058 C 0.56946 0.65094 0.42902 0.0
C1059 C 0.54222 0.65714 0.42647 0.0
H1060 H 0.58774 0.61832 0.4339 0.0
H1061 H 0.32242 0.67676 0.40762 0.0
H1062 H 0.09934 0.43626 0.82561 0.0
H1063 H 0.08433 0.46376 0.85543 0.0
H1064 H 0.16235 0.46587 0.90571 0.0
H1065 H 0.17729 0.43871 0.87612 0.0
H1066 H 0.10849 0.44829 0.92977 0.0
H1067 H 0.16149 0.52523 0.87485 0.0
H1068 H 0.1715 0.5501 0.83456 0.0
H1069 H 0.07591 0.54647 0.82874 0.0
H1070 H 0.0652 0.52124 0.86886 0.0
H1071 H 0.0921 0.5345 0.02429 0.0
H1072 H 0.11191 0.5146 0.99153 0.0
H1073 H 0.04442 0.52762 0.93813 0.0
H1074 H 0.02637 0.54935 0.97045 0.0
H1075 H 0.09256 0.53722 0.91493 0.0
H1076 H 0.03769 0.45918 0.96803 0.0
H1077 H 0.02591 0.43378 1.00801 0.0
H1078 H 0.12138 0.43732 0.01643 0.0
H1079 H 0.13382 0.463 0.97661 0.0
C1080 C 0.11387 0.44342 0.84265 0.0
C1081 C 0.13962 0.43533 0.84836 0.0
C1082 C 0.10514 0.45898 0.85985 0.0
C1083 C 0.12199 0.46685 0.88313 0.0
C1084 C 0.14866 0.45997 0.88815 0.0
C1085 C 0.15738 0.44459 0.87104 0.0
C1086 C 0.11112 0.48068 0.90293 0.0
C1087 C 0.10535 0.46791 0.92655 0.0
C1088 C 0.10603 0.50589 0.89882 0.0
C1089 C 0.11246 0.52109 0.87474 0.0
C1090 C 0.14253 0.52953 0.86488 0.0
C1091 C 0.14834 0.54373 0.8421 0.0
C1092 C 0.12433 0.54979 0.82907 0.0
C1093 C 0.09447 0.54172 0.83883 0.0
C1094 C 0.08853 0.52749 0.86161 0.0
C1095 C 0.08157 0.53317 1.00553 0.0
C1096 C 0.05757 0.54351 1.00009 0.0
C1097 C 0.09272 0.52149 0.98671 0.0
C1098 C 0.07928 0.51869 0.96208 0.0
C1099 C 0.05544 0.52931 0.95673 0.0
C1100 C 0.04498 0.54173 0.97536 0.0
C1101 C 0.08982 0.50483 0.94194 0.0
C1102 C 0.09552 0.51753 0.91822 0.0
C1103 C 0.09441 0.47927 0.94583 0.0
C1104 C 0.08675 0.46322 0.96945 0.0
C1105 C 0.05619 0.4546 0.97845 0.0
C1106 C 0.0494 0.44016 1.00108 0.0
C1107 C 0.07291 0.43401 0.01478 0.0
C1108 C 0.10321 0.44213 1.00581 0.0
C1109 C 0.11013 0.45659 0.98319 0.0
H1110 H 0.06764 0.42291 0.03234 0.0
H1111 H 0.12888 0.56079 0.81143 0.0
H1112 H 0.59928 0.84264 0.9507 0.0
H1113 H 0.58508 0.87788 0.9704 0.0
H1114 H 0.66325 0.94383 0.93748 0.0
H1115 H 0.67714 0.90871 0.91697 0.0
H1116 H 0.65652 0.95225 0.98891 0.0
H1117 H 0.59368 0.9315 0.91136 0.0
H1118 H 0.55702 0.90009 0.87947 0.0
H1119 H 0.4861 0.86646 0.93313 0.0
H1120 H 0.52232 0.89761 0.96536 0.0
H1121 H 0.60277 0.05934 0.01988 0.0
H1122 H 0.62174 0.02915 0.99686 0.0
H1123 H 0.53828 0.95705 0.01451 0.0
H1124 H 0.51898 0.98703 0.03701 0.0
H1125 H 0.55019 0.95436 0.96811 0.0
H1126 H 0.61181 0.97219 0.046 0.0
H1127 H 0.64783 1.00141 0.07938 0.0
H1128 H 0.72047 0.03795 0.02745 0.0
H1129 H 0.68469 0.0092 0.99366 0.0
C1130 C 0.61337 0.86461 0.94745 0.0
C1131 C 0.63919 0.87279 0.93202 0.0
C1132 C 0.6053 0.88472 0.95885 0.0
C1133 C 0.62294 0.91342 0.95517 0.0
C1134 C 0.64937 0.92175 0.94053 0.0
C1135 C 0.65734 0.90163 0.92893 0.0
C1136 C 0.61311 0.93457 0.96619 0.0
C1137 C 0.63351 0.9531 0.9841 0.0
C1138 C 0.58283 0.93518 0.96024 0.0
C1139 C 0.56078 0.91676 0.9408 0.0
C1140 C 0.57029 0.91732 0.91637 0.0
C1141 C 0.54955 0.89962 0.89822 0.0
C1142 C 0.5192 0.88131 0.90426 0.0
C1143 C 0.50952 0.88073 0.92845 0.0
C1144 C 0.53012 0.89845 0.94665 0.0
C1145 C 0.58842 0.03707 0.01875 0.0
C1146 C 0.5593 0.02561 0.03019 0.0
C1147 C 0.59935 0.01982 1.00568 0.0
C1148 C 0.58162 0.99075 1.00419 0.0
C1149 C 0.55236 0.9794 0.01533 0.0
C1150 C 0.54131 0.99662 0.02818 0.0
C1151 C 0.59341 0.97195 0.99121 0.0
C1152 C 0.57335 0.9538 0.97284 0.0
C1153 C 0.62389 0.97152 0.99697 0.0
C1154 C 0.64545 0.98879 0.01725 0.0
C1155 C 0.63537 0.98663 0.04166 0.0
C1156 C 0.65576 1.00307 0.06066 0.0
C1157 C 0.68638 0.02159 0.05553 0.0
C1158 C 0.69671 0.02364 0.03139 0.0
C1159 C 0.6764 0.00726 0.01231 0.0
H1160 H 0.70214 0.0343 0.07026 0.0
H1161 H 0.50319 0.86758 0.8902 0.0
H1162 H 0.85526 0.23864 0.46909 0.0
H1163 H 0.89039 0.21397 0.47906 0.0
H1164 H 0.92057 0.22602 0.40383 0.0
H1165 H 0.88605 0.25174 0.39375 0.0
H1166 H 0.90409 0.17077 0.42126 0.0
H1167 H 0.97036 0.26349 0.44712 0.0
H1168 H 0.98495 0.30866 0.46864 0.0
H1169 H 0.97076 0.26615 0.53924 0.0
H1170 H 0.95543 0.22066 0.51814 0.0
H1171 H 0.04321 0.14485 0.498 0.0
H1172 H 0.02181 0.17463 0.47338 0.0
H1173 H 0.92658 0.11553 0.48445 0.0
H1174 H 0.94765 0.08557 0.50907 0.0
H1175 H 0.98514 0.19935 0.49169 0.0
H1176 H 0.87832 0.11856 0.43454 0.0
H1177 H 0.86507 0.07367 0.41283 0.0
H1178 H 0.96396 0.09372 0.40323 0.0
H1179 H 0.97779 0.13891 0.42455 0.0
C1180 C 0.8698 0.23662 0.45472 0.0
C1181 C 0.86804 0.24749 0.43066 0.0
C1182 C 0.88975 0.22235 0.46045 0.0
C1183 C 0.90829 0.21846 0.44225 0.0
C1184 C 0.90646 0.22891 0.41813 0.0
C1185 C 0.88664 0.24348 0.4124 0.0
C1186 C 0.92875 0.20266 0.44858 0.0
C1187 C 0.92204 0.17709 0.4365 0.0
C1188 C 0.95248 0.21123 0.4682 0.0
C1189 C 0.9615 0.23859 0.48099 0.0
C1190 C 0.97003 0.26372 0.46721 0.0
C1191 C 0.97847 0.28941 0.47935 0.0
C1192 C 0.97871 0.29027 0.50528 0.0
C1193 C 0.97052 0.26546 0.51914 0.0
C1194 C 0.96196 0.23971 0.5071 0.0
C1195 C 0.01771 0.13789 0.49487 0.0
C1196 C 0.99712 0.11289 0.50568 0.0
C1197 C 0.00555 0.15499 0.4808 0.0
C1198 C 0.97265 0.14723 0.47702 0.0
C1199 C 0.95207 0.12173 0.48688 0.0
C1200 C 0.96418 0.10471 0.50109 0.0
C1201 C 0.95965 0.16695 0.46501 0.0
C1202 C 0.96765 0.19323 0.47613 0.0
C1203 C 0.93723 0.15907 0.44448 0.0
C1204 C 0.92909 0.13207 0.43131 0.0
C1205 C 0.89723 0.11348 0.42767 0.0
C1206 C 0.88962 0.08795 0.41546 0.0
C1207 C 0.91366 0.08082 0.4067 0.0
C1208 C 0.94536 0.09923 0.41009 0.0
C1209 C 0.9531 0.12479 0.42227 0.0
H1210 H 0.90772 0.06104 0.39727 0.0
H1211 H 0.9853 0.31019 0.51464 0.0
H1212 H 0.29806 0.73987 0.21998 0.0
H1213 H 0.24933 0.71333 0.19557 0.0
H1214 H 0.28463 0.64867 0.18311 0.0
H1215 H 0.33413 0.67577 0.20676 0.0
H1216 H 0.26339 0.66343 0.14064 0.0
H1217 H 0.22135 0.63763 0.22077 0.0
H1218 H 0.21032 0.64533 0.26361 0.0
H1219 H 0.1587 0.69508 0.23581 0.0
H1220 H 0.16979 0.68801 0.19282 0.0
H1221 H 0.1185 0.58277 0.07267 0.0
H1222 H 0.16398 0.5978 0.10328 0.0
H1223 H 0.13789 0.66516 0.12626 0.0
H1224 H 0.09153 0.64895 0.09673 0.0
H1225 H 0.15401 0.64311 0.16534 0.0
H1226 H 0.2015 0.67395 0.08624 0.0
H1227 H 0.21297 0.66736 0.04322 0.0
H1228 H 0.25463 0.6092 0.06911 0.0
H1229 H 0.24309 0.61524 0.11227 0.0
C1230 C 0.29534 0.71985 0.21227 0.0
C1231 C 0.32009 0.71003 0.21524 0.0
C1232 C 0.26729 0.70454 0.19848 0.0
C1233 C 0.26311 0.67885 0.18758 0.0
C1234 C 0.28726 0.66841 0.19135 0.0
C1235 C 0.31543 0.68379 0.20511 0.0
C1236 C 0.23471 0.66418 0.17068 0.0
C1237 C 0.23941 0.65847 0.14622 0.0
C1238 C 0.20343 0.65824 0.1777 0.0
C1239 C 0.1966 0.66243 0.20356 0.0
C1240 C 0.20784 0.65038 0.22379 0.0
C1241 C 0.20154 0.6546 0.24811 0.0
C1242 C 0.18387 0.67072 0.25243 0.0
C1243 C 0.17239 0.6826 0.23244 0.0
C1244 C 0.17864 0.67846 0.20809 0.0
C1245 C 0.12268 0.60074 0.08436 0.0
C1246 C 0.1019 0.61486 0.08248 0.0
C1247 C 0.1487 0.60946 0.10171 0.0
C1248 C 0.15477 0.63293 0.11694 0.0
C1249 C 0.13381 0.64701 0.11483 0.0
C1250 C 0.10751 0.63793 0.09787 0.0
C1251 C 0.18275 0.64299 0.13513 0.0
C1252 C 0.17795 0.64779 0.15985 0.0
C1253 C 0.21398 0.64826 0.12832 0.0
C1254 C 0.22115 0.64483 0.10242 0.0
C1255 C 0.21294 0.65964 0.08273 0.0
C1256 C 0.21948 0.65602 0.05833 0.0
C1257 C 0.23444 0.63782 0.05342 0.0
C1258 C 0.243 0.62327 0.07293 0.0
C1259 C 0.2365 0.62679 0.09736 0.0
H1260 H 0.23946 0.63503 0.03452 0.0
H1261 H 0.17903 0.67398 0.27127 0.0
H1262 H 0.1968 0.42927 0.68531 0.0
H1263 H 0.24422 0.45719 0.6636 0.0
H1264 H 0.30051 0.4711 0.73284 0.0
H1265 H 0.253 0.44229 0.75478 0.0
H1266 H 0.3158 0.52051 0.69554 0.0
H1267 H 0.30417 0.42339 0.70342 0.0
H1268 H 0.27325 0.3724 0.70039 0.0
H1269 H 0.25469 0.3807 0.62202 0.0
H1270 H 0.28503 0.43186 0.62469 0.0
H1271 H 0.46273 0.56315 0.63678 0.0
H1272 H 0.41848 0.54307 0.66389 0.0
H1273 H 0.36056 0.49271 0.60278 0.0
H1274 H 0.40607 0.51088 0.57648 0.0
H1275 H 0.34709 0.46225 0.63926 0.0
H1276 H 0.35329 0.55834 0.63037 0.0
H1277 H 0.38206 0.60976 0.63187 0.0
H1278 H 0.40933 0.60434 0.709 0.0
H1279 H 0.38024 0.55296 0.70805 0.0
C1280 C 0.21916 0.43855 0.69607 0.0
C1281 C 0.22108 0.43311 0.72179 0.0
C1282 C 0.24626 0.45462 0.6836 0.0
C1283 C 0.276 0.46601 0.69651 0.0
C1284 C 0.27778 0.46254 0.72249 0.0
C1285 C 0.25056 0.44613 0.73503 0.0
C1286 C 0.30524 0.47877 0.68229 0.0
C1287 C 0.32294 0.5078 0.68344 0.0
C1288 C 0.31419 0.46232 0.66607 0.0
C1289 C 0.29663 0.43148 0.66431 0.0
C1290 C 0.2933 0.41437 0.68558 0.0
C1291 C 0.2759 0.38543 0.68392 0.0
C1292 C 0.26194 0.37332 0.66104 0.0
C1293 C 0.26548 0.39011 0.63974 0.0
C1294 C 0.2828 0.41908 0.64132 0.0
C1295 C 0.44043 0.54791 0.62916 0.0
C1296 C 0.43772 0.53871 0.60449 0.0
C1297 C 0.41488 0.53658 0.64462 0.0
C1298 C 0.38541 0.51677 0.63545 0.0
C1299 C 0.38277 0.50789 0.61057 0.0
C1300 C 0.40875 0.5184 0.59542 0.0
C1301 C 0.35775 0.50444 0.65183 0.0
C1302 C 0.34019 0.47526 0.6512 0.0
C1303 C 0.3487 0.52089 0.6682 0.0
C1304 C 0.36476 0.55186 0.6691 0.0
C1305 C 0.3653 0.56818 0.64767 0.0
C1306 C 0.38162 0.59732 0.64844 0.0
C1307 C 0.39752 0.61034 0.67053 0.0
C1308 C 0.3969 0.59426 0.69193 0.0
C1309 C 0.38032 0.56516 0.69135 0.0
H1310 H 0.41026 0.63286 0.67111 0.0
H1311 H 0.24845 0.35092 0.6598 0.0
H1312 H 0.82936 0.8578 0.92196 0.0
H1313 H 0.86266 0.83757 0.94588 0.0
H1314 H 0.78001 0.76305 0.95949 0.0
H1315 H 0.74651 0.78312 0.93545 0.0
H1316 H 0.82498 0.77876 1.00065 0.0
H1317 H 0.82115 0.76323 0.91195 0.0
H1318 H 0.82617 0.77907 0.86822 0.0
H1319 H 0.92424 0.83128 0.88413 0.0
H1320 H 0.91966 0.81606 0.9281 0.0
H1321 H 0.88978 0.67428 0.01613 0.0
H1322 H 0.8602 0.70375 1.00458 0.0
H1323 H 0.94694 0.77098 0.98481 0.0
H1324 H 0.97649 0.74119 0.99537 0.0
H1325 H 0.90248 0.76263 0.94889 0.0
H1326 H 0.90847 0.77457 0.03666 0.0
H1327 H 0.9038 0.759 0.08045 0.0
H1328 H 0.8033 0.71468 0.06718 0.0
H1329 H 0.80743 0.72957 0.02317 0.0
C1330 C 0.81823 0.83723 0.93029 0.0
C1331 C 0.78539 0.82186 0.92651 0.0
C1332 C 0.83725 0.82578 0.94405 0.0
C1333 C 0.82383 0.79867 0.95415 0.0
C1334 C 0.7908 0.78402 0.95186 0.0
C1335 C 0.7717 0.79551 0.93812 0.0
C1336 C 0.84453 0.78447 0.96459 0.0
C1337 C 0.84181 0.77503 0.98936 0.0
C1338 C 0.86693 0.78019 0.94994 0.0
C1339 C 0.86998 0.78871 0.92336 0.0
C1340 C 0.84374 0.77819 0.90615 0.0
C1341 C 0.84651 0.78706 0.88132 0.0
C1342 C 0.87549 0.80622 0.87341 0.0
C1343 C 0.9018 0.81646 0.8903 0.0
C1344 C 0.89914 0.80771 0.91517 0.0
C1345 C 0.90259 0.69539 1.00942 0.0
C1346 C 0.93548 0.70533 1.00654 0.0
C1347 C 0.88569 0.71233 1.00307 0.0
C1348 C 0.90137 0.73967 0.99397 0.0
C1349 C 0.93436 0.74997 0.99183 0.0
C1350 C 0.95126 0.733 0.9981 0.0
C1351 C 0.88302 0.75673 0.98506 0.0
C1352 C 0.88603 0.76661 0.96042 0.0
C1353 C 0.86106 0.76147 0.99991 0.0
C1354 C 0.85831 0.75301 0.02653 0.0
C1355 C 0.88539 0.76136 0.04303 0.0
C1356 C 0.88285 0.75266 0.0679 0.0
C1357 C 0.85329 0.73579 0.07658 0.0
C1358 C 0.82619 0.72771 0.06042 0.0
C1359 C 0.82861 0.73631 0.03551 0.0
H1360 H 0.85139 0.72903 0.09583 0.0
H1361 H 0.87756 0.81309 0.85419 0.0
H1362 H 0.45621 0.8024 0.21157 0.0
H1363 H 0.47883 0.84939 0.19357 0.0
H1364 H 0.39051 0.85961 0.20079 0.0
H1365 H 0.3678 0.81274 0.21938 0.0
H1366 H 0.41432 0.87574 0.15439 0.0
H1367 H 0.4522 0.89342 0.23981 0.0
H1368 H 0.47831 0.88615 0.27933 0.0
H1369 H 0.56555 0.90584 0.24328 0.0
H1370 H 0.53982 0.91284 0.20344 0.0
H1371 H 0.47523 0.02165 0.12543 0.0
H1372 H 0.45078 0.97664 0.14697 0.0
H1373 H 0.5382 0.96333 0.14538 0.0
H1374 H 0.5628 0.00846 0.12413 0.0
H1375 H 0.51323 0.94938 0.18995 0.0
H1376 H 0.47584 0.93028 0.1045 0.0
H1377 H 0.45075 0.93817 0.06471 0.0
H1378 H 0.36355 0.9211 0.10005 0.0
H1379 H 0.38829 0.91352 0.14018 0.0
C1380 C 0.44172 0.81478 0.20982 0.0
C1381 C 0.41019 0.80375 0.21711 0.0
C1382 C 0.45466 0.84162 0.19936 0.0
C1383 C 0.43642 0.85809 0.19594 0.0
C1384 C 0.40498 0.84723 0.20318 0.0
C1385 C 0.39204 0.82042 0.21378 0.0
C1386 C 0.45016 0.88648 0.18453 0.0
C1387 C 0.43567 0.892 0.16236 0.0
C1388 C 0.47841 0.90748 0.19462 0.0
C1389 C 0.49399 0.90341 0.21859 0.0
C1390 C 0.47688 0.89599 0.24026 0.0
C1391 C 0.49163 0.89195 0.26273 0.0
C1392 C 0.52355 0.89547 0.26381 0.0
C1393 C 0.54081 0.9031 0.24242 0.0
C1394 C 0.52617 0.90713 0.21989 0.0
C1395 C 0.48919 0.0091 0.12971 0.0
C1396 C 0.52083 0.0184 0.12303 0.0
C1397 C 0.4752 0.98338 0.14195 0.0
C1398 C 0.49255 0.96644 0.14755 0.0
C1399 C 0.52436 0.97602 0.14126 0.0
C1400 C 0.53836 1.00175 0.12907 0.0
C1401 C 0.47754 0.93861 0.15973 0.0
C1402 C 0.4918 0.93318 0.18202 0.0
C1403 C 0.44919 0.91766 0.14965 0.0
C1404 C 0.43402 0.92158 0.12542 0.0
C1405 C 0.45137 0.92837 0.10383 0.0
C1406 C 0.43721 0.93278 0.08121 0.0
C1407 C 0.4056 0.93021 0.07986 0.0
C1408 C 0.38805 0.92311 0.10113 0.0
C1409 C 0.40212 0.91873 0.12382 0.0
H1410 H 0.39467 0.93363 0.06233 0.0
H1411 H 0.53492 0.89234 0.28122 0.0
H1412 H 0.12575 0.30903 0.74937 0.0
H1413 H 0.10475 0.265 0.72649 0.0
H1414 H 0.12527 0.31067 0.65721 0.0
H1415 H 0.14309 0.35471 0.67971 0.0
H1416 H 0.07622 0.26938 0.64785 0.0
H1417 H 0.17396 0.27562 0.68924 0.0
H1418 H 0.21306 0.28139 0.72448 0.0
H1419 H 0.14803 0.20778 0.75954 0.0
H1420 H 0.10837 0.20177 0.72464 0.0
H1421 H 0.07386 0.14991 0.57903 0.0
H1422 H 0.09502 0.19497 0.60135 0.0
H1423 H 0.04483 0.15412 0.66569 0.0
H1424 H 0.02328 0.10936 0.64332 0.0
H1425 H 0.11048 0.19275 0.67624 0.0
H1426 H 0.01348 0.1884 0.63081 0.0
H1427 H 0.97896 0.1839 0.59276 0.0
H1428 H 0.05027 0.25653 0.56149 0.0
H1429 H 0.08545 0.26118 0.59922 0.0
C1430 C 0.12518 0.30993 0.72925 0.0
C1431 C 0.13679 0.33594 0.71667 0.0
C1432 C 0.11367 0.28446 0.71608 0.0
C1433 C 0.11427 0.28408 0.68994 0.0
C1434 C 0.12474 0.30999 0.67731 0.0
C1435 C 0.13547 0.33541 0.69039 0.0
C1436 C 0.10427 0.25693 0.67576 0.0
C1437 C 0.08423 0.25291 0.654 0.0
C1438 C 0.11429 0.23495 0.68347 0.0
C1439 C 0.13809 0.23842 0.70445 0.0
C1440 C 0.16793 0.26077 0.70455 0.0
C1441 C 0.1902 0.26407 0.72445 0.0
C1442 C 0.183 0.24501 0.74427 0.0
C1443 C 0.15355 0.22255 0.74419 0.0
C1444 C 0.13118 0.21918 0.72435 0.0
C1445 C 0.06794 0.15046 0.59808 0.0
C1446 C 0.04728 0.126 0.60952 0.0
C1447 C 0.07976 0.17628 0.61076 0.0
C1448 C 0.0715 0.17802 0.63526 0.0
C1449 C 0.05164 0.15338 0.64689 0.0
C1450 C 0.03934 0.1278 0.63407 0.0
C1451 C 0.08264 0.20549 0.64864 0.0
C1452 C 0.10279 0.20945 0.67019 0.0
C1453 C 0.07349 0.22768 0.64035 0.0
C1454 C 0.05225 0.22494 0.61773 0.0
C1455 C 0.02193 0.20325 0.61573 0.0
C1456 C 1.00222 0.2007 0.59423 0.0
C1457 C 0.01245 0.21987 0.57468 0.0
C1458 C 0.0424 0.24166 0.57663 0.0
C1459 C 0.06223 0.24427 0.59807 0.0
H1460 H 0.99715 0.21787 0.55806 0.0
H1461 H 0.20027 0.2476 0.75966 0.0
H1462 H 0.74189 0.33734 0.44756 0.0
H1463 H 0.71366 0.36901 0.44681 0.0
H1464 H 0.79175 0.42957 0.48989 0.0
H1465 H 0.81932 0.39716 0.49159 0.0
H1466 H 0.74138 0.42208 0.51084 0.0
H1467 H 0.76929 0.44179 0.42721 0.0
H1468 H 0.77635 0.43222 0.38384 0.0
H1469 H 0.67568 0.38775 0.37188 0.0
H1470 H 0.66802 0.39668 0.41529 0.0
H1471 H 0.65303 0.50902 0.51125 0.0
H1472 H 0.69492 0.49459 0.49852 0.0
H1473 H 0.62425 0.41623 0.47142 0.0
H1474 H 0.58227 0.42996 0.48477 0.0
H1475 H 0.67764 0.44139 0.44018 0.0
H1476 H 0.65377 0.41642 0.52701 0.0
H1477 H 0.64788 0.4284 0.56997 0.0
H1478 H 0.74494 0.48684 0.57452 0.0
H1479 H 0.75124 0.4755 0.53141 0.0
C1480 C 0.75333 0.35774 0.45626 0.0
C1481 C 0.78266 0.36488 0.46966 0.0
C1482 C 0.73727 0.37593 0.45576 0.0
C1483 C 0.75062 0.40188 0.46814 0.0
C1484 C 0.78088 0.40968 0.48026 0.0
C1485 C 0.79666 0.39125 0.48117 0.0
C1486 C 0.7314 0.41909 0.47102 0.0
C1487 C 0.72817 0.42691 0.4952 0.0
C1488 C 0.71369 0.42517 0.45078 0.0
C1489 C 0.71811 0.41977 0.4246 0.0
C1490 C 0.74867 0.42979 0.41539 0.0
C1491 C 0.75277 0.42451 0.39079 0.0
C1492 C 0.72649 0.40935 0.37513 0.0
C1493 C 0.69603 0.39949 0.38404 0.0
C1494 C 0.69178 0.4047 0.40863 0.0
C1495 C 0.64636 0.48872 0.50256 0.0
C1496 C 0.61425 0.47049 0.49934 0.0
C1497 C 0.67033 0.48066 0.49507 0.0
C1498 C 0.66259 0.45433 0.48414 0.0
C1499 C 0.63062 0.43674 0.47967 0.0
C1500 C 0.60666 0.44466 0.48732 0.0
C1501 C 0.68759 0.44371 0.47981 0.0
C1502 C 0.69165 0.43707 0.45552 0.0
C1503 C 0.70645 0.43904 0.49984 0.0
C1504 C 0.70287 0.44534 0.52593 0.0
C1505 C 0.67379 0.43195 0.53713 0.0
C1506 C 0.67038 0.43861 0.5615 0.0
C1507 C 0.69599 0.45842 0.57494 0.0
C1508 C 0.72511 0.47154 0.56407 0.0
C1509 C 0.72862 0.46499 0.53968 0.0
H1510 H 0.6933 0.46355 0.59381 0.0
H1511 H 0.72972 0.40528 0.35609 0.0
loop_
_geom_bond_atom_site_label_1
_geom_bond_atom_site_label_2
_geom_bond_distance
_geom_bond_site_symmetry_2
_ccdc_geom_bond_type
H0 C1 0.949 . S
C1 H0 0.949 . S
C1 C2 1.395 . S
C1 C3 1.391 . S
C2 C1 1.395 . S
C2 C5 1.390 . S
C3 C1 1.391 . S
C3 C7 1.387 . S
C3 C8 1.491 . S
H4 C5 0.950 . S
C5 C2 1.390 . S
C5 H4 0.950 . S
C5 C6 1.378 . S
C6 C5 1.378 . S
C6 C7 1.409 . S
C7 C3 1.387 . S
C7 C6 1.409 . S
C7 H9 0.951 . S
C8 C3 1.491 . S
C8 C10 1.382 . S
C8 C12 1.404 . S
H9 C7 0.951 . S
C10 C8 1.382 . S
C10 C11 1.390 . S
C10 H15 0.949 . S
C11 C10 1.390 . S
C11 C16 1.399 . S
C12 C8 1.404 . S
C12 H13 0.950 . S
C12 C14 1.375 . S
H13 C12 0.950 . S
C14 C12 1.375 . S
C14 C16 1.382 . S
C14 H18 0.950 . S
H15 C10 0.949 . S
C16 C11 1.399 . S
C16 C14 1.382 . S
C16 H17 0.952 . S
H17 C16 0.952 . S
H18 C14 0.950 . S
H19 C20 0.949 . S
C20 H19 0.949 . S
C20 C21 1.395 . S
C20 C22 1.391 . S
C21 C20 1.395 . S
C21 C24 1.390 . S
C22 C20 1.391 . S
C22 C26 1.387 . S
C22 C27 1.491 . S
H23 C24 0.950 . S
C24 C21 1.390 . S
C24 H23 0.950 . S
C24 C25 1.378 . S
C25 C24 1.378 . S
C25 C26 1.409 . S
C26 C22 1.387 . S
C26 C25 1.409 . S
C26 H28 0.951 . S
C27 C22 1.491 . S
C27 C29 1.382 . S
C27 C31 1.404 . S
H28 C26 0.951 . S
C29 C27 1.382 . S
C29 C30 1.390 . S
C29 H34 0.949 . S
C30 C29 1.390 . S
C30 C35 1.399 . S
C31 C27 1.404 . S
C31 H32 0.950 . S
C31 C33 1.375 . S
H32 C31 0.950 . S
C33 C31 1.375 . S
C33 C35 1.382 . S
C33 H37 0.950 . S
H34 C29 0.949 . S
C35 C30 1.399 . S
C35 C33 1.382 . S
C35 H36 0.952 . S
H36 C35 0.952 . S
H37 C33 0.950 . S
H38 C39 0.949 . S
C39 H38 0.949 . S
C39 C40 1.395 . S
C39 C41 1.391 . S
C40 C39 1.395 . S
C40 C43 1.390 . S
C41 C39 1.391 . S
C41 C45 1.387 . S
C41 C46 1.491 . S
H42 C43 0.950 . S
C43 C40 1.390 . S
C43 H42 0.950 . S
C43 C44 1.378 . S
C44 C43 1.378 . S
C44 C45 1.409 . S
C45 C41 1.387 . S
C45 C44 1.409 . S
C45 H47 0.951 . S
C46 C41 1.491 . S
C46 C48 1.382 . S
C46 C50 1.404 . S
H47 C45 0.951 . S
C48 C46 1.382 . S
C48 C49 1.390 . S
C48 H53 0.949 . S
C49 C48 1.390 . S
C49 C54 1.399 . S
C50 C46 1.404 . S
C50 H51 0.950 . S
C50 C52 1.375 . S
H51 C50 0.950 . S
C52 C50 1.375 . S
C52 C54 1.382 . S
C52 H56 0.950 . S
H53 C48 0.949 . S
C54 C49 1.399 . S
C54 C52 1.382 . S
C54 H55 0.952 . S
H55 C54 0.952 . S
H56 C52 0.950 . S
H57 C58 0.949 . S
C58 H57 0.949 . S
C58 C59 1.395 . S
C58 C60 1.391 . S
C59 C58 1.395 . S
C59 C62 1.390 . S
C60 C58 1.391 . S
C60 C64 1.387 . S
C60 C65 1.491 . S
H61 C62 0.950 . S
C62 C59 1.390 . S
C62 H61 0.950 . S
C62 C63 1.378 . S
C63 C62 1.378 . S
C63 C64 1.409 . S
C64 C60 1.387 . S
C64 C63 1.409 . S
C64 H66 0.951 . S
C65 C60 1.491 . S
C65 C67 1.382 . S
C65 C69 1.404 . S
H66 C64 0.951 . S
C67 C65 1.382 . S
C67 C68 1.390 . S
C67 H72 0.949 . S
C68 C67 1.390 . S
C68 C73 1.399 . S
C69 C65 1.404 . S
C69 H70 0.950 . S
C69 C71 1.375 . S
H70 C69 0.950 . S
C71 C69 1.375 . S
C71 C73 1.382 . S
C71 H75 0.950 . S
H72 C67 0.949 . S
C73 C68 1.399 . S
C73 C71 1.382 . S
C73 H74 0.952 . S
H74 C73 0.952 . S
H75 C71 0.950 . S
H76 C77 0.949 . S
C77 H76 0.949 . S
C77 C78 1.395 . S
C77 C79 1.391 . S
C78 C77 1.395 . S
C78 C81 1.390 . S
C79 C77 1.391 . S
C79 C83 1.387 . S
C79 C84 1.491 . S
H80 C81 0.950 . S
C81 C78 1.390 . S
C81 H80 0.950 . S
C81 C82 1.378 . S
C82 C81 1.378 . S
C82 C83 1.409 . S
C83 C79 1.387 . S
C83 C82 1.409 . S
C83 H85 0.951 . S
C84 C79 1.491 . S
C84 C86 1.382 . S
C84 C88 1.404 . S
H85 C83 0.951 . S
C86 C84 1.382 . S
C86 C87 1.390 . S
C86 H91 0.949 . S
C87 C86 1.390 . S
C87 C92 1.399 . S
C88 C84 1.404 . S
C88 H89 0.950 . S
C88 C90 1.375 . S
H89 C88 0.950 . S
C90 C88 1.375 . S
C90 C92 1.382 . S
C90 H94 0.950 . S
H91 C86 0.949 . S
C92 C87 1.399 . S
C92 C90 1.382 . S
C92 H93 0.952 . S
H93 C92 0.952 . S
H94 C90 0.950 . S
H95 C96 0.949 . S
C96 H95 0.949 . S
C96 C97 1.395 . S
C96 C98 1.391 . S
C97 C96 1.395 . S
C97 C100 1.390 . S
C98 C96 1.391 . S
C98 C102 1.387 . S
C98 C103 1.491 . S
H99 C100 0.950 . S
C100 C97 1.390 . S
C100 H99 0.950 . S
C100 C101 1.378 . S
C101 C100 1.378 . S
C101 C102 1.409 . S
C102 C98 1.387 . S
C102 C101 1.409 . S
C102 H104 0.951 . S
C103 C98 1.491 . S
C103 C105 1.382 . S
C103 C107 1.404 . S
H104 C102 0.951 . S
C105 C103 1.382 . S
C105 C106 1.390 . S
C105 H110 0.949 . S
C106 C105 1.390 . S
C106 C111 1.399 . S
C107 C103 1.404 . S
C107 H108 0.950 . S
C107 C109 1.375 . S
H108 C107 0.950 . S
C109 C107 1.375 . S
C109 C111 1.382 . S
C109 H113 0.950 . S
H110 C105 0.949 . S
C111 C106 1.399 . S
C111 C109 1.382 . S
C111 H112 0.952 . S
H112 C111 0.952 . S
H113 C109 0.950 . S
H114 C115 0.949 . S
C115 H114 0.949 . S
C115 C116 1.395 . S
C115 C117 1.391 . S
C116 C115 1.395 . S
C116 C119 1.390 . S
C117 C115 1.391 . S
C117 C121 1.387 . S
C117 C122 1.491 . S
H118 C119 0.950 . S
C119 C116 1.390 . S
C119 H118 0.950 . S
C119 C120 1.378 . S
C120 C119 1.378 . S
C120 C121 1.409 . S
C121 C117 1.387 . S
C121 C120 1.409 . S
C121 H123 0.951 . S
C122 C117 1.491 . S
C122 C124 1.382 . S
C122 C126 1.404 . S
H123 C121 0.951 . S
C124 C122 1.382 . S
C124 C125 1.390 . S
C124 H129 0.949 . S
C125 C124 1.390 . S
C125 C130 1.399 . S
C126 C122 1.404 . S
C126 H127 0.950 . S
C126 C128 1.375 . S
H127 C126 0.950 . S
C128 C126 1.375 . S
C128 C130 1.382 . S
C128 H132 0.950 . S
H129 C124 0.949 . S
C130 C125 1.399 . S
C130 C128 1.382 . S
C130 H131 0.952 . S
H131 C130 0.952 . S
H132 C128 0.950 . S
H133 C134 0.949 . S
C134 H133 0.949 . S
C134 C135 1.395 . S
C134 C136 1.391 . S
C135 C134 1.395 . S
C135 C138 1.390 . S
C136 C134 1.391 . S
C136 C140 1.387 . S
C136 C141 1.491 . S
H137 C138 0.950 . S
C138 C135 1.390 . S
C138 H137 0.950 . S
C138 C139 1.378 . S
C139 C138 1.378 . S
C139 C140 1.409 . S
C140 C136 1.387 . S
C140 C139 1.409 . S
C140 H142 0.951 . S
C141 C136 1.491 . S
C141 C143 1.382 . S
C141 C145 1.404 . S
H142 C140 0.951 . S
C143 C141 1.382 . S
C143 C144 1.390 . S
C143 H148 0.949 . S
C144 C143 1.390 . S
C144 C149 1.399 . S
C145 C141 1.404 . S
C145 H146 0.950 . S
C145 C147 1.375 . S
H146 C145 0.950 . S
C147 C145 1.375 . S
C147 C149 1.382 . S
C147 H151 0.950 . S
H148 C143 0.949 . S
C149 C144 1.399 . S
C149 C147 1.382 . S
C149 H150 0.952 . S
H150 C149 0.952 . S
H151 C147 0.950 . S
Tb152 C154 2.809 1_545 S
Tb152 O172 2.484 1_545 S
Tb152 O173 2.440 . S
Tb152 O174 2.658 1_655 S
Tb152 O175 2.409 1_655 S
Tb152 O176 2.378 1_655 S
Tb152 O180 2.325 . S
Tb152 O183 2.341 . S
Tb153 C163 2.809 . S
Tb153 O174 2.325 . S
Tb153 O177 2.341 . S
Tb153 O178 2.484 . S
Tb153 O179 2.440 . S
Tb153 O180 2.658 1_455 S
Tb153 O181 2.409 . S
Tb153 O182 2.378 . S
C154 Tb152 2.809 1_565 S
C154 C155 1.514 . S
C154 O172 1.248 . S
C154 O173 1.266 1_565 S
C155 C154 1.514 . S
C155 C156 1.359 . S
C155 C160 1.348 . S
C156 C155 1.359 . S
C156 C157 1.380 . S
C156 H184 0.929 . S
C157 C156 1.380 . S
C157 C158 1.347 . S
C157 H185 0.931 . S
C158 C157 1.347 . S
C158 C159 1.369 . S
C159 C158 1.369 . S
C159 C160 1.408 . S
C159 H186 0.930 . S
C160 C155 1.348 . S
C160 C159 1.408 . S
C160 H187 0.930 . S
C161 O174 1.281 . S
C161 O175 1.254 . S
C162 O176 1.236 . S
C162 O177 1.266 . S
C163 Tb153 2.809 . S
C163 C164 1.514 . S
C163 O178 1.248 . S
C163 O179 1.266 . S
C164 C163 1.514 . S
C164 C165 1.359 . S
C164 C169 1.348 . S
C165 C164 1.359 . S
C165 C166 1.380 . S
C165 H188 0.929 . S
C166 C165 1.380 . S
C166 C167 1.347 . S
C166 H189 0.931 . S
C167 C166 1.347 . S
C167 C168 1.369 . S
C168 C167 1.369 . S
C168 C169 1.408 . S
C168 H190 0.930 . S
C169 C164 1.348 . S
C169 C168 1.408 . S
C169 H191 0.930 . S
C170 O180 1.281 . S
C170 O181 1.254 1_655 S
C171 O182 1.236 1_655 S
C171 O183 1.266 . S
O172 Tb152 2.484 1_565 S
O172 C154 1.248 . S
O173 Tb152 2.440 . S
O173 C154 1.266 1_545 S
O174 Tb152 2.658 1_455 S
O174 Tb153 2.325 . S
O174 C161 1.281 . S
O175 Tb152 2.409 1_455 S
O175 C161 1.254 . S
O176 Tb152 2.378 1_455 S
O176 C162 1.236 . S
O177 Tb153 2.341 . S
O177 C162 1.266 . S
O178 Tb153 2.484 . S
O178 C163 1.248 . S
O179 Tb153 2.440 . S
O179 C163 1.266 . S
O180 Tb152 2.325 . S
O180 Tb153 2.658 1_655 S
O180 C170 1.281 . S
O181 Tb153 2.409 . S
O181 C170 1.254 1_455 S
O182 Tb153 2.378 . S
O182 C171 1.236 1_455 S
O183 Tb152 2.341 . S
O183 C171 1.266 . S
H184 C156 0.929 . S
H185 C157 0.931 . S
H186 C159 0.930 . S
H187 C160 0.930 . S
H188 C165 0.929 . S
H189 C166 0.931 . S
H190 C168 0.930 . S
H191 C169 0.930 . S
Tb192 C194 2.809 . S
Tb192 O212 2.484 . S
Tb192 O213 2.440 . S
Tb192 O214 2.658 . S
Tb192 O215 2.409 . S
Tb192 O216 2.378 . S
Tb192 O220 2.325 . S
Tb192 O223 2.341 . S
Tb193 C203 2.809 1_545 S
Tb193 O214 2.325 . S
Tb193 O217 2.341 . S
Tb193 O218 2.484 1_545 S
Tb193 O219 2.440 . S
Tb193 O220 2.658 . S
Tb193 O221 2.409 . S
Tb193 O222 2.378 . S
C194 Tb192 2.809 . S
C194 C195 1.514 . S
C194 O212 1.248 . S
C194 O213 1.266 . S
C195 C194 1.514 . S
C195 C196 1.359 . S
C195 C200 1.348 . S
C196 C195 1.359 . S
C196 C197 1.380 . S
C196 H224 0.929 . S
C197 C196 1.380 . S
C197 C198 1.347 . S
C197 H225 0.931 . S
C198 C197 1.347 . S
C198 C199 1.369 . S
C199 C198 1.369 . S
C199 C200 1.408 . S
C199 H226 0.930 . S
C200 C195 1.348 . S
C200 C199 1.408 . S
C200 H227 0.930 . S
C201 O214 1.281 1_565 S
C201 O215 1.254 1_565 S
C202 O216 1.236 . S
C202 O217 1.266 . S
C203 Tb193 2.809 1_565 S
C203 C204 1.514 . S
C203 O218 1.248 . S
C203 O219 1.266 1_565 S
C204 C203 1.514 . S
C204 C205 1.359 . S
C204 C209 1.348 1_554 S
C205 C204 1.359 . S
C205 C206 1.380 1_554 S
C205 H228 0.929 . S
C206 C205 1.380 1_556 S
C206 C207 1.347 . S
C206 H229 0.931 . S
C207 C206 1.347 . S
C207 C208 1.369 . S
C208 C207 1.369 . S
C208 C209 1.408 . S
C208 H230 0.930 . S
C209 C204 1.348 1_556 S
C209 C208 1.408 . S
C209 H231 0.930 . S
C210 O220 1.281 . S
C210 O221 1.254 . S
C211 O222 1.236 . S
C211 O223 1.266 . S
O212 Tb192 2.484 . S
O212 C194 1.248 . S
O213 Tb192 2.440 . S
O213 C194 1.266 . S
O214 Tb192 2.658 . S
O214 Tb193 2.325 . S
O214 C201 1.281 1_545 S
O215 Tb192 2.409 . S
O215 C201 1.254 1_545 S
O216 Tb192 2.378 . S
O216 C202 1.236 . S
O217 Tb193 2.341 . S
O217 C202 1.266 . S
O218 Tb193 2.484 1_565 S
O218 C203 1.248 . S
O219 Tb193 2.440 . S
O219 C203 1.266 1_545 S
O220 Tb192 2.325 . S
O220 Tb193 2.658 . S
O220 C210 1.281 . S
O221 Tb193 2.409 . S
O221 C210 1.254 . S
O222 Tb193 2.378 . S
O222 C211 1.236 . S
O223 Tb192 2.341 . S
O223 C211 1.266 . S
H224 C196 0.929 . S
H225 C197 0.931 . S
H226 C199 0.930 . S
H227 C200 0.930 . S
H228 C205 0.929 . S
H229 C206 0.931 . S
H230 C208 0.930 . S
H231 C209 0.930 . S
Tb232 C234 2.809 . S
Tb232 O252 2.484 . S
Tb232 O253 2.440 . S
Tb232 O254 2.658 . S
Tb232 O255 2.409 . S
Tb232 O256 2.378 . S
Tb232 O260 2.325 . S
Tb232 O263 2.341 . S
Tb233 C243 2.809 . S
Tb233 O254 2.325 . S
Tb233 O257 2.341 . S
Tb233 O258 2.484 . S
Tb233 O259 2.440 . S
Tb233 O260 2.658 . S
Tb233 O261 2.409 . S
Tb233 O262 2.378 . S
C234 Tb232 2.809 . S
C234 C235 1.514 . S
C234 O252 1.248 . S
C234 O253 1.266 . S
C235 C234 1.514 . S
C235 C236 1.359 . S
C235 C240 1.348 . S
C236 C235 1.359 . S
C236 C237 1.380 . S
C236 H264 0.929 . S
C237 C236 1.380 . S
C237 C238 1.347 . S
C237 H265 0.931 . S
C238 C237 1.347 . S
C238 C239 1.369 . S
C239 C238 1.369 . S
C239 C240 1.408 . S
C239 H266 0.930 . S
C240 C235 1.348 . S
C240 C239 1.408 . S
C240 H267 0.930 . S
C241 O254 1.281 . S
C241 O255 1.254 . S
C242 O256 1.236 . S
C242 O257 1.266 . S
C243 Tb233 2.809 . S
C243 C244 1.514 . S
C243 O258 1.248 . S
C243 O259 1.266 . S
C244 C243 1.514 . S
C244 C245 1.359 . S
C244 C249 1.348 . S
C245 C244 1.359 . S
C245 C246 1.380 . S
C245 H268 0.929 . S
C246 C245 1.380 . S
C246 C247 1.347 . S
C246 H269 0.931 . S
C247 C246 1.347 . S
C247 C248 1.369 . S
C248 C247 1.369 . S
C248 C249 1.408 . S
C248 H270 0.930 . S
C249 C244 1.348 . S
C249 C248 1.408 . S
C249 H271 0.930 . S
C250 O260 1.281 . S
C250 O261 1.254 . S
C251 O262 1.236 . S
C251 O263 1.266 . S
O252 Tb232 2.484 . S
O252 C234 1.248 . S
O253 Tb232 2.440 . S
O253 C234 1.266 . S
O254 Tb232 2.658 . S
O254 Tb233 2.325 . S
O254 C241 1.281 . S
O255 Tb232 2.409 . S
O255 C241 1.254 . S
O256 Tb232 2.378 . S
O256 C242 1.236 . S
O257 Tb233 2.341 . S
O257 C242 1.266 . S
O258 Tb233 2.484 . S
O258 C243 1.248 . S
O259 Tb233 2.440 . S
O259 C243 1.266 . S
O260 Tb232 2.325 . S
O260 Tb233 2.658 . S
O260 C250 1.281 . S
O261 Tb233 2.409 . S
O261 C250 1.254 . S
O262 Tb233 2.378 . S
O262 C251 1.236 . S
O263 Tb232 2.341 . S
O263 C251 1.266 . S
H264 C236 0.929 . S
H265 C237 0.931 . S
H266 C239 0.930 . S
H267 C240 0.930 . S
H268 C245 0.929 . S
H269 C246 0.931 . S
H270 C248 0.930 . S
H271 C249 0.930 . S
Tb272 C274 2.809 . S
Tb272 O292 2.484 . S
Tb272 O293 2.440 . S
Tb272 O294 2.658 1_556 S
Tb272 O295 2.409 1_556 S
Tb272 O296 2.378 1_556 S
Tb272 O300 2.325 1_556 S
Tb272 O303 2.341 . S
Tb273 C283 2.809 . S
Tb273 O294 2.325 . S
Tb273 O297 2.341 . S
Tb273 O298 2.484 . S
Tb273 O299 2.440 . S
Tb273 O300 2.658 . S
Tb273 O301 2.409 . S
Tb273 O302 2.378 . S
C274 Tb272 2.809 . S
C274 C275 1.534 . S
C274 O292 1.248 . S
C274 O293 1.266 . S
C275 C274 1.534 . S
C275 C276 1.335 1_455 S
C275 C280 1.351 . S
C276 C275 1.335 1_655 S
C276 C277 1.380 . S
C276 H304 0.929 . S
C277 C276 1.380 . S
C277 C278 1.347 . S
C277 H305 0.931 . S
C278 C277 1.347 . S
C278 C279 1.373 . S
C279 C278 1.373 . S
C279 C280 1.405 1_655 S
C279 H306 0.930 1_655 S
C280 C275 1.351 . S
C280 C279 1.405 1_455 S
C280 H307 0.930 . S
C281 O294 1.281 . S
C281 O295 1.254 . S
C282 O296 1.236 . S
C282 O297 1.266 . S
C283 Tb273 2.809 . S
C283 C284 1.514 . S
C283 O298 1.248 . S
C283 O299 1.266 . S
C284 C283 1.514 . S
C284 C285 1.359 . S
C284 C289 1.348 . S
C285 C284 1.359 . S
C285 C286 1.380 . S
C285 H308 0.929 . S
C286 C285 1.380 . S
C286 C287 1.347 . S
C286 H309 0.931 . S
C287 C286 1.347 . S
C287 C288 1.369 . S
C288 C287 1.369 . S
C288 C289 1.408 . S
C288 H310 0.930 . S
C289 C284 1.348 . S
C289 C288 1.408 . S
C289 H311 0.930 . S
C290 O300 1.284 1_556 S
C290 O301 1.258 1_556 S
C291 O302 1.236 1_556 S
C291 O303 1.266 . S
O292 Tb272 2.484 . S
O292 C274 1.248 . S
O293 Tb272 2.440 . S
O293 C274 1.266 . S
O294 Tb272 2.658 1_554 S
O294 Tb273 2.325 . S
O294 C281 1.281 . S
O295 Tb272 2.409 1_554 S
O295 C281 1.254 . S
O296 Tb272 2.378 1_554 S
O296 C282 1.236 . S
O297 Tb273 2.341 . S
O297 C282 1.266 . S
O298 Tb273 2.484 . S
O298 C283 1.248 . S
O299 Tb273 2.440 . S
O299 C283 1.266 . S
O300 Tb272 2.325 1_554 S
O300 Tb273 2.658 . S
O300 C290 1.284 1_554 S
O301 Tb273 2.409 . S
O301 C290 1.258 1_554 S
O302 Tb273 2.378 . S
O302 C291 1.236 1_554 S
O303 Tb272 2.341 . S
O303 C291 1.266 . S
H304 C276 0.929 . S
H305 C277 0.931 . S
H306 C279 0.930 1_455 S
H307 C280 0.930 . S
H308 C285 0.929 . S
H309 C286 0.931 . S
H310 C288 0.930 . S
H311 C289 0.930 . S
H312 C330 0.951 . S
H313 C332 0.951 . S
H314 C334 0.950 . S
H315 C335 0.950 . S
H316 C337 0.950 . S
H317 C340 0.950 . S
H318 C341 0.950 . S
H319 C343 0.950 . S
H320 C344 0.950 . S
H321 C345 0.951 . S
H322 C347 0.951 . S
H323 C349 0.950 . S
H324 C350 0.950 . S
H325 C352 0.950 . S
H326 C355 0.950 . S
H327 C356 0.950 . S
H328 C358 0.950 . S
H329 C359 0.950 . S
C330 H312 0.951 . S
C330 C331 1.366 . S
C330 C332 1.388 . S
C331 C330 1.366 . S
C331 C335 1.385 . S
C332 H313 0.951 . S
C332 C330 1.388 . S
C332 C333 1.366 . S
C333 C332 1.366 . S
C333 C334 1.414 . S
C333 C336 1.499 . S
C334 H314 0.950 . S
C334 C333 1.414 . S
C334 C335 1.374 . S
C335 H315 0.950 . S
C335 C331 1.385 . S
C335 C334 1.374 . S
C336 C333 1.499 . S
C336 C337 1.373 . S
C336 C338 1.389 . S
C337 H316 0.950 . S
C337 C336 1.373 . S
C337 C353 1.377 . S
C338 C336 1.389 . S
C338 C339 1.524 . S
C338 C352 1.377 . S
C339 C338 1.524 . S
C339 C340 1.397 . S
C339 C344 1.363 . S
C340 H317 0.950 . S
C340 C339 1.397 . S
C340 C341 1.334 . S
C341 H318 0.950 . S
C341 C340 1.334 . S
C341 C342 1.287 . S
C342 C341 1.287 . S
C342 C343 1.524 . S
C342 H361 0.913 . S
C343 H319 0.950 . S
C343 C342 1.524 . S
C343 C344 1.415 . S
C344 H320 0.950 . S
C344 C339 1.363 . S
C344 C343 1.415 . S
C345 H321 0.951 . S
C345 C346 1.366 . S
C345 C347 1.388 . S
C346 C345 1.366 . S
C346 C350 1.385 . S
C347 H322 0.951 . S
C347 C345 1.388 . S
C347 C348 1.366 . S
C348 C347 1.366 . S
C348 C349 1.414 . S
C348 C351 1.499 . S
C349 H323 0.950 . S
C349 C348 1.414 . S
C349 C350 1.374 . S
C350 H324 0.950 . S
C350 C346 1.385 . S
C350 C349 1.374 . S
C351 C348 1.499 . S
C351 C352 1.373 . S
C351 C353 1.389 . S
C352 H325 0.950 . S
C352 C338 1.377 . S
C352 C351 1.373 . S
C353 C337 1.377 . S
C353 C351 1.389 . S
C353 C354 1.524 . S
C354 C353 1.524 . S
C354 C355 1.397 . S
C354 C359 1.363 . S
C355 H326 0.950 . S
C355 C354 1.397 . S
C355 C356 1.334 . S
C356 H327 0.950 . S
C356 C355 1.334 . S
C356 C357 1.287 . S
C357 C356 1.287 . S
C357 C358 1.524 . S
C357 H360 0.999 . S
C358 H328 0.950 . S
C358 C357 1.524 . S
C358 C359 1.415 . S
C359 H329 0.950 . S
C359 C354 1.363 . S
C359 C358 1.415 . S
H360 C357 0.999 . S
H361 C342 0.913 . S
H362 C380 0.951 . S
H363 C382 0.951 . S
H364 C384 0.950 . S
H365 C385 0.950 . S
H366 C387 0.950 . S
H367 C390 0.950 . S
H368 C391 0.950 . S
H369 C393 0.950 . S
H370 C394 0.950 . S
H371 C395 0.951 . S
H372 C397 0.951 . S
H373 C399 0.950 . S
H374 C400 0.950 . S
H375 C402 0.950 . S
H376 C405 0.950 . S
H377 C406 0.950 . S
H378 C408 0.950 . S
H379 C409 0.950 . S
C380 H362 0.951 . S
C380 C381 1.366 . S
C380 C382 1.388 . S
C381 C380 1.366 . S
C381 C385 1.385 . S
C382 H363 0.951 . S
C382 C380 1.388 . S
C382 C383 1.366 . S
C383 C382 1.366 . S
C383 C384 1.414 . S
C383 C386 1.499 . S
C384 H364 0.950 . S
C384 C383 1.414 . S
C384 C385 1.374 . S
C385 H365 0.950 . S
C385 C381 1.385 . S
C385 C384 1.374 . S
C386 C383 1.499 . S
C386 C387 1.373 . S
C386 C388 1.389 . S
C387 H366 0.950 . S
C387 C386 1.373 . S
C387 C403 1.377 . S
C388 C386 1.389 . S
C388 C389 1.524 . S
C388 C402 1.377 . S
C389 C388 1.524 . S
C389 C390 1.397 . S
C389 C394 1.363 . S
C390 H367 0.950 . S
C390 C389 1.397 . S
C390 C391 1.334 . S
C391 H368 0.950 . S
C391 C390 1.334 . S
C391 C392 1.287 . S
C392 C391 1.287 . S
C392 C393 1.524 . S
C392 H411 0.913 . S
C393 H369 0.950 . S
C393 C392 1.524 . S
C393 C394 1.415 . S
C394 H370 0.950 . S
C394 C389 1.363 . S
C394 C393 1.415 . S
C395 H371 0.951 . S
C395 C396 1.366 . S
C395 C397 1.388 . S
C396 C395 1.366 . S
C396 C400 1.385 . S
C397 H372 0.951 . S
C397 C395 1.388 . S
C397 C398 1.366 . S
C398 C397 1.366 . S
C398 C399 1.414 . S
C398 C401 1.499 . S
C399 H373 0.950 . S
C399 C398 1.414 . S
C399 C400 1.374 . S
C400 H374 0.950 . S
C400 C396 1.385 . S
C400 C399 1.374 . S
C401 C398 1.499 . S
C401 C402 1.373 . S
C401 C403 1.389 . S
C402 H375 0.950 . S
C402 C388 1.377 . S
C402 C401 1.373 . S
C403 C387 1.377 . S
C403 C401 1.389 . S
C403 C404 1.524 . S
C404 C403 1.524 . S
C404 C405 1.397 . S
C404 C409 1.363 . S
C405 H376 0.950 . S
C405 C404 1.397 . S
C405 C406 1.334 . S
C406 H377 0.950 . S
C406 C405 1.334 . S
C406 C407 1.287 . S
C407 C406 1.287 . S
C407 C408 1.524 . S
C407 H410 0.999 . S
C408 H378 0.950 . S
C408 C407 1.524 . S
C408 C409 1.415 . S
C409 H379 0.950 . S
C409 C404 1.363 . S
C409 C408 1.415 . S
H410 C407 0.999 . S
H411 C392 0.913 . S
H412 C430 0.951 . S
H413 C432 0.951 . S
H414 C434 0.950 . S
H415 C435 0.950 . S
H416 C437 0.950 . S
H417 C440 0.950 . S
H418 C441 0.950 . S
H419 C443 0.950 . S
H420 C444 0.950 . S
H421 C445 0.951 . S
H422 C447 0.951 . S
H423 C449 0.950 . S
H424 C450 0.950 . S
H425 C452 0.950 . S
H426 C455 0.950 . S
H427 C456 0.950 . S
H428 C458 0.950 . S
H429 C459 0.950 . S
C430 H412 0.951 . S
C430 C431 1.366 . S
C430 C432 1.388 . S
C431 C430 1.366 . S
C431 C435 1.385 . S
C432 H413 0.951 . S
C432 C430 1.388 . S
C432 C433 1.366 . S
C433 C432 1.366 . S
C433 C434 1.414 . S
C433 C436 1.499 . S
C434 H414 0.950 . S
C434 C433 1.414 . S
C434 C435 1.374 . S
C435 H415 0.950 . S
C435 C431 1.385 . S
C435 C434 1.374 . S
C436 C433 1.499 . S
C436 C437 1.373 . S
C436 C438 1.389 . S
C437 H416 0.950 . S
C437 C436 1.373 . S
C437 C453 1.377 . S
C438 C436 1.389 . S
C438 C439 1.524 . S
C438 C452 1.377 . S
C439 C438 1.524 . S
C439 C440 1.397 . S
C439 C444 1.363 . S
C440 H417 0.950 . S
C440 C439 1.397 . S
C440 C441 1.334 . S
C441 H418 0.950 . S
C441 C440 1.334 . S
C441 C442 1.287 . S
C442 C441 1.287 . S
C442 C443 1.524 . S
C442 H461 0.913 . S
C443 H419 0.950 . S
C443 C442 1.524 . S
C443 C444 1.415 . S
C444 H420 0.950 . S
C444 C439 1.363 . S
C444 C443 1.415 . S
C445 H421 0.951 . S
C445 C446 1.366 . S
C445 C447 1.388 . S
C446 C445 1.366 . S
C446 C450 1.385 . S
C447 H422 0.951 . S
C447 C445 1.388 . S
C447 C448 1.366 . S
C448 C447 1.366 . S
C448 C449 1.414 . S
C448 C451 1.499 . S
C449 H423 0.950 . S
C449 C448 1.414 . S
C449 C450 1.374 . S
C450 H424 0.950 . S
C450 C446 1.385 . S
C450 C449 1.374 . S
C451 C448 1.499 . S
C451 C452 1.373 . S
C451 C453 1.389 . S
C452 H425 0.950 . S
C452 C438 1.377 . S
C452 C451 1.373 . S
C453 C437 1.377 . S
C453 C451 1.389 . S
C453 C454 1.524 . S
C454 C453 1.524 . S
C454 C455 1.397 . S
C454 C459 1.363 . S
C455 H426 0.950 . S
C455 C454 1.397 . S
C455 C456 1.334 . S
C456 H427 0.950 . S
C456 C455 1.334 . S
C456 C457 1.287 . S
C457 C456 1.287 . S
C457 C458 1.524 . S
C457 H460 0.999 . S
C458 H428 0.950 . S
C458 C457 1.524 . S
C458 C459 1.415 . S
C459 H429 0.950 . S
C459 C454 1.363 . S
C459 C458 1.415 . S
H460 C457 0.999 . S
H461 C442 0.913 . S
H462 C480 0.951 . S
H463 C482 0.951 . S
H464 C484 0.950 . S
H465 C485 0.950 . S
H466 C487 0.950 . S
H467 C490 0.950 . S
H468 C491 0.950 . S
H469 C493 0.950 . S
H470 C494 0.950 . S
H471 C495 0.951 . S
H472 C497 0.951 . S
H473 C499 0.950 . S
H474 C500 0.950 . S
H475 C502 0.950 . S
H476 C505 0.950 . S
H477 C506 0.950 . S
H478 C508 0.950 . S
H479 C509 0.950 . S
C480 H462 0.951 . S
C480 C481 1.366 . S
C480 C482 1.388 . S
C481 C480 1.366 . S
C481 C485 1.385 . S
C482 H463 0.951 . S
C482 C480 1.388 . S
C482 C483 1.366 . S
C483 C482 1.366 . S
C483 C484 1.414 . S
C483 C486 1.499 . S
C484 H464 0.950 . S
C484 C483 1.414 . S
C484 C485 1.374 . S
C485 H465 0.950 . S
C485 C481 1.385 . S
C485 C484 1.374 . S
C486 C483 1.499 . S
C486 C487 1.373 . S
C486 C488 1.389 . S
C487 H466 0.950 . S
C487 C486 1.373 . S
C487 C503 1.377 . S
C488 C486 1.389 . S
C488 C489 1.524 . S
C488 C502 1.377 . S
C489 C488 1.524 . S
C489 C490 1.397 . S
C489 C494 1.363 . S
C490 H467 0.950 . S
C490 C489 1.397 . S
C490 C491 1.334 . S
C491 H468 0.950 . S
C491 C490 1.334 . S
C491 C492 1.287 . S
C492 C491 1.287 . S
C492 C493 1.524 . S
C492 H511 0.913 . S
C493 H469 0.950 . S
C493 C492 1.524 . S
C493 C494 1.415 . S
C494 H470 0.950 . S
C494 C489 1.363 . S
C494 C493 1.415 . S
C495 H471 0.951 . S
C495 C496 1.366 1_455 S
C495 C497 1.388 1_455 S
C496 C495 1.366 1_655 S
C496 C500 1.385 . S
C497 H472 0.951 . S
C497 C495 1.388 1_655 S
C497 C498 1.366 . S
C498 C497 1.366 . S
C498 C499 1.414 . S
C498 C501 1.499 . S
C499 H473 0.950 . S
C499 C498 1.414 . S
C499 C500 1.374 . S
C500 H474 0.950 . S
C500 C496 1.385 . S
C500 C499 1.374 . S
C501 C498 1.499 . S
C501 C502 1.373 . S
C501 C503 1.389 . S
C502 H475 0.950 . S
C502 C488 1.377 . S
C502 C501 1.373 . S
C503 C487 1.377 . S
C503 C501 1.389 . S
C503 C504 1.524 . S
C504 C503 1.524 . S
C504 C505 1.397 . S
C504 C509 1.363 . S
C505 H476 0.950 . S
C505 C504 1.397 . S
C505 C506 1.334 . S
C506 H477 0.950 . S
C506 C505 1.334 . S
C506 C507 1.287 . S
C507 C506 1.287 . S
C507 C508 1.524 1_655 S
C507 H510 0.999 1_655 S
C508 H478 0.950 . S
C508 C507 1.524 1_455 S
C508 C509 1.415 1_455 S
C509 H479 0.950 . S
C509 C504 1.363 . S
C509 C508 1.415 1_655 S
H510 C507 0.999 1_455 S
H511 C492 0.913 . S
H512 C530 0.951 . S
H513 C532 0.951 . S
H514 C534 0.950 . S
H515 C535 0.950 . S
H516 C537 0.950 . S
H517 C540 0.950 . S
H518 C541 0.950 . S
H519 C543 0.950 . S
H520 C544 0.950 . S
H521 C545 0.951 . S
H522 C547 0.951 . S
H523 C549 0.950 . S
H524 C550 0.950 . S
H525 C552 0.950 . S
H526 C555 0.950 . S
H527 C556 0.950 . S
H528 C558 0.950 . S
H529 C559 0.950 . S
C530 H512 0.951 . S
C530 C531 1.366 . S
C530 C532 1.388 . S
C531 C530 1.366 . S
C531 C535 1.385 . S
C532 H513 0.951 . S
C532 C530 1.388 . S
C532 C533 1.366 . S
C533 C532 1.366 . S
C533 C534 1.414 . S
C533 C536 1.499 . S
C534 H514 0.950 . S
C534 C533 1.414 . S
C534 C535 1.374 . S
C535 H515 0.950 . S
C535 C531 1.385 . S
C535 C534 1.374 . S
C536 C533 1.499 . S
C536 C537 1.373 . S
C536 C538 1.389 . S
C537 H516 0.950 . S
C537 C536 1.373 . S
C537 C553 1.377 . S
C538 C536 1.389 . S
C538 C539 1.524 . S
C538 C552 1.377 . S
C539 C538 1.524 . S
C539 C540 1.397 . S
C539 C544 1.363 . S
C540 H517 0.950 . S
C540 C539 1.397 . S
C540 C541 1.334 . S
C541 H518 0.950 . S
C541 C540 1.334 . S
C541 C542 1.287 . S
C542 C541 1.287 . S
C542 C543 1.524 . S
C542 H561 0.913 . S
C543 H519 0.950 . S
C543 C542 1.524 . S
C543 C544 1.415 . S
C544 H520 0.950 . S
C544 C539 1.363 . S
C544 C543 1.415 . S
C545 H521 0.951 . S
C545 C546 1.366 . S
C545 C547 1.388 . S
C546 C545 1.366 . S
C546 C550 1.385 . S
C547 H522 0.951 . S
C547 C545 1.388 . S
C547 C548 1.366 . S
C548 C547 1.366 . S
C548 C549 1.414 . S
C548 C551 1.499 . S
C549 H523 0.950 . S
C549 C548 1.414 . S
C549 C550 1.374 . S
C550 H524 0.950 . S
C550 C546 1.385 . S
C550 C549 1.374 . S
C551 C548 1.499 . S
C551 C552 1.373 . S
C551 C553 1.389 . S
C552 H525 0.950 . S
C552 C538 1.377 . S
C552 C551 1.373 . S
C553 C537 1.377 . S
C553 C551 1.389 . S
C553 C554 1.524 . S
C554 C553 1.524 . S
C554 C555 1.397 . S
C554 C559 1.363 . S
C555 H526 0.950 . S
C555 C554 1.397 . S
C555 C556 1.334 . S
C556 H527 0.950 . S
C556 C555 1.334 . S
C556 C557 1.287 . S
C557 C556 1.287 . S
C557 C558 1.524 . S
C557 H560 0.999 . S
C558 H528 0.950 . S
C558 C557 1.524 . S
C558 C559 1.415 . S
C559 H529 0.950 . S
C559 C554 1.363 . S
C559 C558 1.415 . S
H560 C557 0.999 . S
H561 C542 0.913 . S
H562 C580 0.951 . S
H563 C582 0.951 . S
H564 C584 0.950 . S
H565 C585 0.950 . S
H566 C587 0.950 . S
H567 C590 0.950 . S
H568 C591 0.950 . S
H569 C593 0.950 . S
H570 C594 0.950 . S
H571 C595 0.951 . S
H572 C597 0.951 . S
H573 C599 0.950 . S
H574 C600 0.950 . S
H575 C602 0.950 . S
H576 C605 0.950 . S
H577 C606 0.950 1_545 S
H578 C608 0.950 . S
H579 C609 0.950 . S
C580 H562 0.951 . S
C580 C581 1.366 . S
C580 C582 1.388 . S
C581 C580 1.366 . S
C581 C585 1.385 . S
C582 H563 0.951 . S
C582 C580 1.388 . S
C582 C583 1.366 . S
C583 C582 1.366 . S
C583 C584 1.414 . S
C583 C586 1.499 . S
C584 H564 0.950 . S
C584 C583 1.414 . S
C584 C585 1.374 . S
C585 H565 0.950 . S
C585 C581 1.385 . S
C585 C584 1.374 . S
C586 C583 1.499 . S
C586 C587 1.373 . S
C586 C588 1.389 . S
C587 H566 0.950 . S
C587 C586 1.373 . S
C587 C603 1.377 . S
C588 C586 1.389 . S
C588 C589 1.524 . S
C588 C602 1.377 . S
C589 C588 1.524 . S
C589 C590 1.397 . S
C589 C594 1.363 1_455 S
C590 H567 0.950 . S
C590 C589 1.397 . S
C590 C591 1.334 1_455 S
C591 H568 0.950 . S
C591 C590 1.334 1_655 S
C591 C592 1.287 . S
C592 C591 1.287 . S
C592 C593 1.524 . S
C592 H611 0.913 . S
C593 H569 0.950 . S
C593 C592 1.524 . S
C593 C594 1.415 . S
C594 H570 0.950 . S
C594 C589 1.363 1_655 S
C594 C593 1.415 . S
C595 H571 0.951 . S
C595 C596 1.366 . S
C595 C597 1.388 . S
C596 C595 1.366 . S
C596 C600 1.385 . S
C597 H572 0.951 . S
C597 C595 1.388 . S
C597 C598 1.366 . S
C598 C597 1.366 . S
C598 C599 1.414 . S
C598 C601 1.499 . S
C599 H573 0.950 . S
C599 C598 1.414 . S
C599 C600 1.374 . S
C600 H574 0.950 . S
C600 C596 1.385 . S
C600 C599 1.374 . S
C601 C598 1.499 . S
C601 C602 1.373 . S
C601 C603 1.389 . S
C602 H575 0.950 . S
C602 C588 1.377 . S
C602 C601 1.373 . S
C603 C587 1.377 . S
C603 C601 1.389 . S
C603 C604 1.524 . S
C604 C603 1.524 . S
C604 C605 1.397 . S
C604 C609 1.363 . S
C605 H576 0.950 . S
C605 C604 1.397 . S
C605 C606 1.334 . S
C606 H577 0.950 1_565 S
C606 C605 1.334 . S
C606 C607 1.287 . S
C607 C606 1.287 . S
C607 C608 1.524 . S
C607 H610 0.999 1_565 S
C608 H578 0.950 . S
C608 C607 1.524 . S
C608 C609 1.415 . S
C609 H579 0.950 . S
C609 C604 1.363 . S
C609 C608 1.415 . S
H610 C607 0.999 1_545 S
H611 C592 0.913 . S
H612 C630 0.951 . S
H613 C632 0.951 . S
H614 C634 0.950 . S
H615 C635 0.950 . S
H616 C637 0.950 . S
H617 C640 0.950 . S
H618 C641 0.950 . S
H619 C643 0.950 . S
H620 C644 0.950 . S
H621 C645 0.951 1_455 S
H622 C647 0.951 . S
H623 C649 0.950 . S
H624 C650 0.948 . S
H625 C652 0.950 . S
H626 C655 0.950 . S
H627 C656 0.950 1_554 S
H628 C658 0.950 . S
H629 C659 0.950 . S
C630 H612 0.951 . S
C630 C631 1.366 . S
C630 C632 1.388 . S
C631 C630 1.366 . S
C631 C635 1.385 . S
C632 H613 0.951 . S
C632 C630 1.388 . S
C632 C633 1.366 . S
C633 C632 1.366 . S
C633 C634 1.414 . S
C633 C636 1.499 . S
C634 H614 0.950 . S
C634 C633 1.414 . S
C634 C635 1.374 . S
C635 H615 0.950 . S
C635 C631 1.385 . S
C635 C634 1.374 . S
C636 C633 1.499 . S
C636 C637 1.373 . S
C636 C638 1.389 . S
C637 H616 0.950 . S
C637 C636 1.373 . S
C637 C653 1.377 . S
C638 C636 1.389 . S
C638 C639 1.524 . S
C638 C652 1.377 . S
C639 C638 1.524 . S
C639 C640 1.397 . S
C639 C644 1.363 . S
C640 H617 0.950 . S
C640 C639 1.397 . S
C640 C641 1.334 . S
C641 H618 0.950 . S
C641 C640 1.334 . S
C641 C642 1.287 . S
C642 C641 1.287 . S
C642 C643 1.524 . S
C642 H661 0.913 . S
C643 H619 0.950 . S
C643 C642 1.524 . S
C643 C644 1.415 . S
C644 H620 0.950 . S
C644 C639 1.363 . S
C644 C643 1.415 . S
C645 H621 0.951 1_655 S
C645 C646 1.366 . S
C645 C647 1.388 . S
C646 C645 1.366 . S
C646 C650 1.385 . S
C647 H622 0.951 . S
C647 C645 1.388 . S
C647 C648 1.366 . S
C648 C647 1.366 . S
C648 C649 1.414 . S
C648 C651 1.499 . S
C649 H623 0.950 . S
C649 C648 1.414 . S
C649 C650 1.374 . S
C650 H624 0.948 . S
C650 C646 1.385 . S
C650 C649 1.374 . S
C651 C648 1.499 . S
C651 C652 1.373 . S
C651 C653 1.389 . S
C652 H625 0.950 . S
C652 C638 1.377 . S
C652 C651 1.373 . S
C653 C637 1.377 . S
C653 C651 1.389 . S
C653 C654 1.524 . S
C654 C653 1.524 . S
C654 C655 1.397 . S
C654 C659 1.363 . S
C655 H626 0.950 . S
C655 C654 1.397 . S
C655 C656 1.334 . S
C656 H627 0.950 1_556 S
C656 C655 1.334 . S
C656 C657 1.287 . S
C657 C656 1.287 . S
C657 C658 1.524 . S
C657 H660 0.999 . S
C658 H628 0.950 . S
C658 C657 1.524 . S
C658 C659 1.415 . S
C659 H629 0.950 . S
C659 C654 1.363 . S
C659 C658 1.415 . S
H660 C657 0.999 . S
H661 C642 0.913 . S
H662 C680 0.951 . S
H663 C682 0.951 . S
H664 C684 0.950 . S
H665 C685 0.950 . S
H666 C687 0.950 . S
H667 C690 0.950 . S
H668 C691 0.950 . S
H669 C693 0.950 . S
H670 C694 0.950 . S
H671 C695 0.951 . S
H672 C697 0.951 . S
H673 C699 0.950 . S
H674 C700 0.950 . S
H675 C702 0.950 . S
H676 C705 0.950 . S
H677 C706 0.950 . S
H678 C708 0.950 . S
H679 C709 0.950 . S
C680 H662 0.951 . S
C680 C681 1.366 . S
C680 C682 1.388 . S
C681 C680 1.366 . S
C681 C685 1.385 . S
C682 H663 0.951 . S
C682 C680 1.388 . S
C682 C683 1.366 . S
C683 C682 1.366 . S
C683 C684 1.414 . S
C683 C686 1.499 . S
C684 H664 0.950 . S
C684 C683 1.414 . S
C684 C685 1.374 . S
C685 H665 0.950 . S
C685 C681 1.385 . S
C685 C684 1.374 . S
C686 C683 1.499 . S
C686 C687 1.373 . S
C686 C688 1.389 . S
C687 H666 0.950 . S
C687 C686 1.373 . S
C687 C703 1.377 . S
C688 C686 1.389 . S
C688 C689 1.524 . S
C688 C702 1.377 . S
C689 C688 1.524 . S
C689 C690 1.397 . S
C689 C694 1.363 . S
C690 H667 0.950 . S
C690 C689 1.397 . S
C690 C691 1.334 . S
C691 H668 0.950 . S
C691 C690 1.334 . S
C691 C692 1.287 . S
C692 C691 1.287 . S
C692 C693 1.524 . S
C692 H711 0.913 . S
C693 H669 0.950 . S
C693 C692 1.524 . S
C693 C694 1.415 . S
C694 H670 0.950 . S
C694 C689 1.363 . S
C694 C693 1.415 . S
C695 H671 0.951 . S
C695 C696 1.366 . S
C695 C697 1.388 . S
C696 C695 1.366 . S
C696 C700 1.385 . S
C697 H672 0.951 . S
C697 C695 1.388 . S
C697 C698 1.366 . S
C698 C697 1.366 . S
C698 C699 1.414 . S
C698 C701 1.499 . S
C699 H673 0.950 . S
C699 C698 1.414 . S
C699 C700 1.374 . S
C700 H674 0.950 . S
C700 C696 1.385 . S
C700 C699 1.374 . S
C701 C698 1.499 . S
C701 C702 1.373 . S
C701 C703 1.389 . S
C702 H675 0.950 . S
C702 C688 1.377 . S
C702 C701 1.373 . S
C703 C687 1.377 . S
C703 C701 1.389 . S
C703 C704 1.524 . S
C704 C703 1.524 . S
C704 C705 1.397 . S
C704 C709 1.363 . S
C705 H676 0.950 . S
C705 C704 1.397 . S
C705 C706 1.334 . S
C706 H677 0.950 . S
C706 C705 1.334 . S
C706 C707 1.287 . S
C707 C706 1.287 . S
C707 C708 1.524 . S
C707 H710 0.999 . S
C708 H678 0.950 . S
C708 C707 1.524 . S
C708 C709 1.415 . S
C709 H679 0.950 . S
C709 C704 1.363 . S
C709 C708 1.415 . S
H710 C707 0.999 . S
H711 C692 0.913 . S
H712 C730 0.951 . S
H713 C732 0.951 . S
H714 C734 0.950 . S
H715 C735 0.950 . S
H716 C737 0.950 . S
H717 C740 0.950 . S
H718 C741 0.950 . S
H719 C743 0.950 . S
H720 C744 0.950 . S
H721 C745 0.951 . S
H722 C747 0.951 . S
H723 C749 0.950 . S
H724 C750 0.950 . S
H725 C752 0.950 . S
H726 C755 0.950 . S
H727 C756 0.950 . S
H728 C758 0.950 . S
H729 C759 0.950 . S
C730 H712 0.951 . S
C730 C731 1.366 . S
C730 C732 1.388 . S
C731 C730 1.366 . S
C731 C735 1.385 . S
C732 H713 0.951 . S
C732 C730 1.388 . S
C732 C733 1.366 . S
C733 C732 1.366 . S
C733 C734 1.414 . S
C733 C736 1.499 . S
C734 H714 0.950 . S
C734 C733 1.414 . S
C734 C735 1.374 . S
C735 H715 0.950 . S
C735 C731 1.385 . S
C735 C734 1.374 . S
C736 C733 1.499 . S
C736 C737 1.373 . S
C736 C738 1.389 . S
C737 H716 0.950 . S
C737 C736 1.373 . S
C737 C753 1.377 . S
C738 C736 1.389 . S
C738 C739 1.524 . S
C738 C752 1.377 . S
C739 C738 1.524 . S
C739 C740 1.397 . S
C739 C744 1.363 . S
C740 H717 0.950 . S
C740 C739 1.397 . S
C740 C741 1.334 . S
C741 H718 0.950 . S
C741 C740 1.334 . S
C741 C742 1.287 . S
C742 C741 1.287 . S
C742 C743 1.524 . S
C742 H761 0.913 . S
C743 H719 0.950 . S
C743 C742 1.524 . S
C743 C744 1.415 . S
C744 H720 0.950 . S
C744 C739 1.363 . S
C744 C743 1.415 . S
C745 H721 0.951 . S
C745 C746 1.366 . S
C745 C747 1.388 . S
C746 C745 1.366 . S
C746 C750 1.385 . S
C747 H722 0.951 . S
C747 C745 1.388 . S
C747 C748 1.366 . S
C748 C747 1.366 . S
C748 C749 1.414 . S
C748 C751 1.499 . S
C749 H723 0.950 . S
C749 C748 1.414 . S
C749 C750 1.374 . S
C750 H724 0.950 . S
C750 C746 1.385 . S
C750 C749 1.374 . S
C751 C748 1.499 . S
C751 C752 1.373 . S
C751 C753 1.389 . S
C752 H725 0.950 . S
C752 C738 1.377 . S
C752 C751 1.373 . S
C753 C737 1.377 . S
C753 C751 1.389 . S
C753 C754 1.524 . S
C754 C753 1.524 . S
C754 C755 1.397 . S
C754 C759 1.363 . S
C755 H726 0.950 . S
C755 C754 1.397 . S
C755 C756 1.334 . S
C756 H727 0.950 . S
C756 C755 1.334 . S
C756 C757 1.287 . S
C757 C756 1.287 . S
C757 C758 1.524 . S
C757 H760 0.999 . S
C758 H728 0.950 . S
C758 C757 1.524 . S
C758 C759 1.415 . S
C759 H729 0.950 . S
C759 C754 1.363 . S
C759 C758 1.415 . S
H760 C757 0.999 . S
H761 C742 0.913 . S
H762 C780 0.951 . S
H763 C782 0.951 . S
H764 C784 0.950 . S
H765 C785 0.950 . S
H766 C787 0.950 . S
H767 C790 0.950 . S
H768 C791 0.950 . S
H769 C793 0.950 . S
H770 C794 0.950 . S
H771 C795 0.951 . S
H772 C797 0.951 . S
H773 C799 0.950 . S
H774 C800 0.950 . S
H775 C802 0.950 . S
H776 C805 0.950 . S
H777 C806 0.950 . S
H778 C808 0.950 . S
H779 C809 0.950 . S
C780 H762 0.951 . S
C780 C781 1.366 . S
C780 C782 1.388 . S
C781 C780 1.366 . S
C781 C785 1.385 . S
C782 H763 0.951 . S
C782 C780 1.388 . S
C782 C783 1.366 . S
C783 C782 1.366 . S
C783 C784 1.414 . S
C783 C786 1.499 . S
C784 H764 0.950 . S
C784 C783 1.414 . S
C784 C785 1.374 . S
C785 H765 0.950 . S
C785 C781 1.385 . S
C785 C784 1.374 . S
C786 C783 1.499 . S
C786 C787 1.373 . S
C786 C788 1.389 . S
C787 H766 0.950 . S
C787 C786 1.373 . S
C787 C803 1.377 . S
C788 C786 1.389 . S
C788 C789 1.524 . S
C788 C802 1.377 . S
C789 C788 1.524 . S
C789 C790 1.397 . S
C789 C794 1.363 . S
C790 H767 0.950 . S
C790 C789 1.397 . S
C790 C791 1.334 . S
C791 H768 0.950 . S
C791 C790 1.334 . S
C791 C792 1.287 . S
C792 C791 1.287 . S
C792 C793 1.524 . S
C792 H811 0.913 . S
C793 H769 0.950 . S
C793 C792 1.524 . S
C793 C794 1.415 . S
C794 H770 0.950 . S
C794 C789 1.363 . S
C794 C793 1.415 . S
C795 H771 0.951 . S
C795 C796 1.366 . S
C795 C797 1.388 1_554 S
C796 C795 1.366 . S
C796 C800 1.385 . S
C797 H772 0.951 . S
C797 C795 1.388 1_556 S
C797 C798 1.366 . S
C798 C797 1.366 . S
C798 C799 1.414 1_556 S
C798 C801 1.499 . S
C799 H773 0.950 . S
C799 C798 1.414 1_554 S
C799 C800 1.374 . S
C800 H774 0.950 . S
C800 C796 1.385 . S
C800 C799 1.374 . S
C801 C798 1.499 . S
C801 C802 1.373 . S
C801 C803 1.389 . S
C802 H775 0.950 . S
C802 C788 1.377 . S
C802 C801 1.373 . S
C803 C787 1.377 . S
C803 C801 1.389 . S
C803 C804 1.524 . S
C804 C803 1.524 . S
C804 C805 1.397 1_556 S
C804 C809 1.363 . S
C805 H776 0.950 . S
C805 C804 1.397 1_554 S
C805 C806 1.334 . S
C806 H777 0.950 . S
C806 C805 1.334 . S
C806 C807 1.287 . S
C807 C806 1.287 . S
C807 C808 1.524 1_554 S
C807 H810 0.999 . S
C808 H778 0.950 . S
C808 C807 1.524 1_556 S
C808 C809 1.415 . S
C809 H779 0.950 . S
C809 C804 1.363 . S
C809 C808 1.415 . S
H810 C807 0.999 . S
H811 C792 0.913 . S
H812 C830 0.951 . S
H813 C832 0.951 . S
H814 C834 0.950 . S
H815 C835 0.950 . S
H816 C837 0.950 . S
H817 C840 0.950 . S
H818 C841 0.950 . S
H819 C843 0.950 . S
H820 C844 0.950 . S
H821 C845 0.951 1_455 S
H822 C847 0.951 . S
H823 C849 0.950 . S
H824 C850 0.950 . S
H825 C852 0.950 . S
H826 C855 0.950 . S
H827 C856 0.950 . S
H828 C858 0.950 1_455 S
H829 C859 0.950 . S
C830 H812 0.951 . S
C830 C831 1.366 . S
C830 C832 1.388 . S
C831 C830 1.366 . S
C831 C835 1.385 . S
C832 H813 0.951 . S
C832 C830 1.388 . S
C832 C833 1.366 . S
C833 C832 1.366 . S
C833 C834 1.414 . S
C833 C836 1.499 . S
C834 H814 0.950 . S
C834 C833 1.414 . S
C834 C835 1.374 . S
C835 H815 0.950 . S
C835 C831 1.385 . S
C835 C834 1.374 . S
C836 C833 1.499 . S
C836 C837 1.373 . S
C836 C838 1.389 . S
C837 H816 0.950 . S
C837 C836 1.373 . S
C837 C853 1.377 . S
C838 C836 1.389 . S
C838 C839 1.524 . S
C838 C852 1.377 . S
C839 C838 1.524 . S
C839 C840 1.397 . S
C839 C844 1.363 . S
C840 H817 0.950 . S
C840 C839 1.397 . S
C840 C841 1.334 . S
C841 H818 0.950 . S
C841 C840 1.334 . S
C841 C842 1.287 . S
C842 C841 1.287 . S
C842 C843 1.524 . S
C842 H861 0.913 . S
C843 H819 0.950 . S
C843 C842 1.524 . S
C843 C844 1.415 . S
C844 H820 0.950 . S
C844 C839 1.363 . S
C844 C843 1.415 . S
C845 H821 0.951 1_655 S
C845 C846 1.366 . S
C845 C847 1.388 . S
C846 C845 1.366 . S
C846 C850 1.385 . S
C847 H822 0.951 . S
C847 C845 1.388 . S
C847 C848 1.366 . S
C848 C847 1.366 . S
C848 C849 1.414 . S
C848 C851 1.499 . S
C849 H823 0.950 . S
C849 C848 1.414 . S
C849 C850 1.374 . S
C850 H824 0.950 . S
C850 C846 1.385 . S
C850 C849 1.374 . S
C851 C848 1.499 . S
C851 C852 1.373 . S
C851 C853 1.389 . S
C852 H825 0.950 . S
C852 C838 1.377 . S
C852 C851 1.373 . S
C853 C837 1.377 . S
C853 C851 1.389 . S
C853 C854 1.524 . S
C854 C853 1.524 . S
C854 C855 1.397 . S
C854 C859 1.363 . S
C855 H826 0.950 . S
C855 C854 1.397 . S
C855 C856 1.334 . S
C856 H827 0.950 . S
C856 C855 1.334 . S
C856 C857 1.287 . S
C857 C856 1.287 . S
C857 C858 1.524 . S
C857 H860 0.999 . S
C858 H828 0.950 1_655 S
C858 C857 1.524 . S
C858 C859 1.415 . S
C859 H829 0.950 . S
C859 C854 1.363 . S
C859 C858 1.415 . S
H860 C857 0.999 . S
H861 C842 0.913 . S
H862 C880 0.951 . S
H863 C882 0.951 . S
H864 C884 0.950 . S
H865 C885 0.950 . S
H866 C887 0.950 . S
H867 C890 0.950 . S
H868 C891 0.950 . S
H869 C893 0.950 . S
H870 C894 0.950 . S
H871 C895 0.951 . S
H872 C897 0.951 . S
H873 C899 0.950 . S
H874 C900 0.950 . S
H875 C902 0.950 . S
H876 C905 0.950 . S
H877 C906 0.950 . S
H878 C908 0.950 . S
H879 C909 0.950 . S
C880 H862 0.951 . S
C880 C881 1.366 . S
C880 C882 1.388 . S
C881 C880 1.366 . S
C881 C885 1.385 . S
C882 H863 0.951 . S
C882 C880 1.388 . S
C882 C883 1.366 . S
C883 C882 1.366 . S
C883 C884 1.414 . S
C883 C886 1.499 . S
C884 H864 0.950 . S
C884 C883 1.414 . S
C884 C885 1.374 . S
C885 H865 0.950 . S
C885 C881 1.385 . S
C885 C884 1.374 . S
C886 C883 1.499 . S
C886 C887 1.373 . S
C886 C888 1.389 . S
C887 H866 0.950 . S
C887 C886 1.373 . S
C887 C903 1.377 . S
C888 C886 1.389 . S
C888 C889 1.524 . S
C888 C902 1.377 . S
C889 C888 1.524 . S
C889 C890 1.397 . S
C889 C894 1.363 . S
C890 H867 0.950 . S
C890 C889 1.397 . S
C890 C891 1.334 . S
C891 H868 0.950 . S
C891 C890 1.334 . S
C891 C892 1.287 . S
C892 C891 1.287 . S
C892 C893 1.524 . S
C892 H911 0.913 . S
C893 H869 0.950 . S
C893 C892 1.524 . S
C893 C894 1.415 . S
C894 H870 0.950 . S
C894 C889 1.363 . S
C894 C893 1.415 . S
C895 H871 0.951 . S
C895 C896 1.366 . S
C895 C897 1.388 . S
C896 C895 1.366 . S
C896 C900 1.385 . S
C897 H872 0.951 . S
C897 C895 1.388 . S
C897 C898 1.366 . S
C898 C897 1.366 . S
C898 C899 1.414 . S
C898 C901 1.499 . S
C899 H873 0.950 . S
C899 C898 1.414 . S
C899 C900 1.374 . S
C900 H874 0.950 . S
C900 C896 1.385 . S
C900 C899 1.374 . S
C901 C898 1.499 . S
C901 C902 1.373 . S
C901 C903 1.389 . S
C902 H875 0.950 . S
C902 C888 1.377 . S
C902 C901 1.373 . S
C903 C887 1.377 . S
C903 C901 1.389 . S
C903 C904 1.524 . S
C904 C903 1.524 . S
C904 C905 1.397 . S
C904 C909 1.363 . S
C905 H876 0.950 . S
C905 C904 1.397 . S
C905 C906 1.334 . S
C906 H877 0.950 . S
C906 C905 1.334 . S
C906 C907 1.287 . S
C907 C906 1.287 . S
C907 C908 1.524 . S
C907 H910 0.999 . S
C908 H878 0.950 . S
C908 C907 1.524 . S
C908 C909 1.415 . S
C909 H879 0.950 . S
C909 C904 1.363 . S
C909 C908 1.415 . S
H910 C907 0.999 . S
H911 C892 0.913 . S
H912 C930 0.951 . S
H913 C932 0.951 . S
H914 C934 0.950 . S
H915 C935 0.950 . S
H916 C937 0.950 . S
H917 C940 0.950 . S
H918 C941 0.950 . S
H919 C943 0.950 . S
H920 C944 0.950 . S
H921 C945 0.951 . S
H922 C947 0.951 . S
H923 C949 0.950 . S
H924 C950 0.950 . S
H925 C952 0.950 . S
H926 C955 0.950 . S
H927 C956 0.950 . S
H928 C958 0.950 . S
H929 C959 0.950 . S
C930 H912 0.951 . S
C930 C931 1.366 . S
C930 C932 1.388 . S
C931 C930 1.366 . S
C931 C935 1.385 . S
C932 H913 0.951 . S
C932 C930 1.388 . S
C932 C933 1.366 . S
C933 C932 1.366 . S
C933 C934 1.414 . S
C933 C936 1.499 . S
C934 H914 0.950 . S
C934 C933 1.414 . S
C934 C935 1.374 . S
C935 H915 0.950 . S
C935 C931 1.385 . S
C935 C934 1.374 . S
C936 C933 1.499 . S
C936 C937 1.373 . S
C936 C938 1.389 . S
C937 H916 0.950 . S
C937 C936 1.373 . S
C937 C953 1.377 . S
C938 C936 1.389 . S
C938 C939 1.524 . S
C938 C952 1.377 . S
C939 C938 1.524 . S
C939 C940 1.397 . S
C939 C944 1.363 . S
C940 H917 0.950 . S
C940 C939 1.397 . S
C940 C941 1.334 . S
C941 H918 0.950 . S
C941 C940 1.334 . S
C941 C942 1.287 . S
C942 C941 1.287 . S
C942 C943 1.524 . S
C942 H961 0.913 . S
C943 H919 0.950 . S
C943 C942 1.524 . S
C943 C944 1.415 . S
C944 H920 0.950 . S
C944 C939 1.363 . S
C944 C943 1.415 . S
C945 H921 0.951 . S
C945 C946 1.366 . S
C945 C947 1.388 . S
C946 C945 1.366 . S
C946 C950 1.385 . S
C947 H922 0.951 . S
C947 C945 1.388 . S
C947 C948 1.366 . S
C948 C947 1.366 . S
C948 C949 1.414 . S
C948 C951 1.499 . S
C949 H923 0.950 . S
C949 C948 1.414 . S
C949 C950 1.374 . S
C950 H924 0.950 . S
C950 C946 1.385 . S
C950 C949 1.374 . S
C951 C948 1.499 . S
C951 C952 1.373 . S
C951 C953 1.389 . S
C952 H925 0.950 . S
C952 C938 1.377 . S
C952 C951 1.373 . S
C953 C937 1.377 . S
C953 C951 1.389 . S
C953 C954 1.524 . S
C954 C953 1.524 . S
C954 C955 1.397 . S
C954 C959 1.363 . S
C955 H926 0.950 . S
C955 C954 1.397 . S
C955 C956 1.334 . S
C956 H927 0.950 . S
C956 C955 1.334 . S
C956 C957 1.287 . S
C957 C956 1.287 . S
C957 C958 1.524 . S
C957 H960 0.999 . S
C958 H928 0.950 . S
C958 C957 1.524 . S
C958 C959 1.415 . S
C959 H929 0.950 . S
C959 C954 1.363 . S
C959 C958 1.415 . S
H960 C957 0.999 . S
H961 C942 0.913 . S
H962 C980 0.951 . S
H963 C982 0.951 . S
H964 C984 0.950 . S
H965 C985 0.950 . S
H966 C987 0.950 . S
H967 C990 0.950 . S
H968 C991 0.950 . S
H969 C993 0.950 . S
H970 C994 0.950 . S
H971 C995 0.951 . S
H972 C997 0.951 . S
H973 C999 0.950 . S
H974 C1000 0.950 . S
H975 C1002 0.950 . S
H976 C1005 0.950 . S
H977 C1006 0.950 . S
H978 C1008 0.950 . S
H979 C1009 0.950 . S
C980 H962 0.951 . S
C980 C981 1.366 . S
C980 C982 1.388 . S
C981 C980 1.366 . S
C981 C985 1.385 . S
C982 H963 0.951 . S
C982 C980 1.388 . S
C982 C983 1.366 . S
C983 C982 1.366 . S
C983 C984 1.414 . S
C983 C986 1.499 . S
C984 H964 0.950 . S
C984 C983 1.414 . S
C984 C985 1.374 . S
C985 H965 0.950 . S
C985 C981 1.385 . S
C985 C984 1.374 . S
C986 C983 1.499 . S
C986 C987 1.373 . S
C986 C988 1.389 . S
C987 H966 0.950 . S
C987 C986 1.373 . S
C987 C1003 1.377 . S
C988 C986 1.389 . S
C988 C989 1.524 . S
C988 C1002 1.377 . S
C989 C988 1.524 . S
C989 C990 1.397 . S
C989 C994 1.363 . S
C990 H967 0.950 . S
C990 C989 1.397 . S
C990 C991 1.334 . S
C991 H968 0.950 . S
C991 C990 1.334 . S
C991 C992 1.287 . S
C992 C991 1.287 . S
C992 C993 1.524 . S
C992 H1011 0.913 . S
C993 H969 0.950 . S
C993 C992 1.524 . S
C993 C994 1.415 . S
C994 H970 0.950 . S
C994 C989 1.363 . S
C994 C993 1.415 . S
C995 H971 0.951 . S
C995 C996 1.366 . S
C995 C997 1.388 . S
C996 C995 1.366 . S
C996 C1000 1.385 . S
C997 H972 0.951 . S
C997 C995 1.388 . S
C997 C998 1.366 . S
C998 C997 1.366 . S
C998 C999 1.414 . S
C998 C1001 1.499 . S
C999 H973 0.950 . S
C999 C998 1.414 . S
C999 C1000 1.374 . S
C1000 H974 0.950 . S
C1000 C996 1.385 . S
C1000 C999 1.374 . S
C1001 C998 1.499 . S
C1001 C1002 1.373 . S
C1001 C1003 1.389 . S
C1002 H975 0.950 . S
C1002 C988 1.377 . S
C1002 C1001 1.373 . S
C1003 C987 1.377 . S
C1003 C1001 1.389 . S
C1003 C1004 1.524 . S
C1004 C1003 1.524 . S
C1004 C1005 1.397 . S
C1004 C1009 1.363 . S
C1005 H976 0.950 . S
C1005 C1004 1.397 . S
C1005 C1006 1.334 . S
C1006 H977 0.950 . S
C1006 C1005 1.334 . S
C1006 C1007 1.287 . S
C1007 C1006 1.287 . S
C1007 C1008 1.524 . S
C1007 H1010 0.999 . S
C1008 H978 0.950 . S
C1008 C1007 1.524 . S
C1008 C1009 1.415 . S
C1009 H979 0.950 . S
C1009 C1004 1.363 . S
C1009 C1008 1.415 . S
H1010 C1007 0.999 . S
H1011 C992 0.913 . S
H1012 C1030 0.951 . S
H1013 C1032 0.951 . S
H1014 C1034 0.950 . S
H1015 C1035 0.950 . S
H1016 C1037 0.950 . S
H1017 C1040 0.950 . S
H1018 C1041 0.950 . S
H1019 C1043 0.950 . S
H1020 C1044 0.950 . S
H1021 C1045 0.951 . S
H1022 C1047 0.951 . S
H1023 C1049 0.950 . S
H1024 C1050 0.950 . S
H1025 C1052 0.950 . S
H1026 C1055 0.950 . S
H1027 C1056 0.950 . S
H1028 C1058 0.950 . S
H1029 C1059 0.950 . S
C1030 H1012 0.951 . S
C1030 C1031 1.366 . S
C1030 C1032 1.388 . S
C1031 C1030 1.366 . S
C1031 C1035 1.385 . S
C1032 H1013 0.951 . S
C1032 C1030 1.388 . S
C1032 C1033 1.366 . S
C1033 C1032 1.366 . S
C1033 C1034 1.414 . S
C1033 C1036 1.499 . S
C1034 H1014 0.950 . S
C1034 C1033 1.414 . S
C1034 C1035 1.374 . S
C1035 H1015 0.950 . S
C1035 C1031 1.385 . S
C1035 C1034 1.374 . S
C1036 C1033 1.499 . S
C1036 C1037 1.373 . S
C1036 C1038 1.389 . S
C1037 H1016 0.950 . S
C1037 C1036 1.373 . S
C1037 C1053 1.377 . S
C1038 C1036 1.389 . S
C1038 C1039 1.524 . S
C1038 C1052 1.377 . S
C1039 C1038 1.524 . S
C1039 C1040 1.397 . S
C1039 C1044 1.363 . S
C1040 H1017 0.950 . S
C1040 C1039 1.397 . S
C1040 C1041 1.334 . S
C1041 H1018 0.950 . S
C1041 C1040 1.334 . S
C1041 C1042 1.287 . S
C1042 C1041 1.287 . S
C1042 C1043 1.524 . S
C1042 H1061 0.913 . S
C1043 H1019 0.950 . S
C1043 C1042 1.524 . S
C1043 C1044 1.415 . S
C1044 H1020 0.950 . S
C1044 C1039 1.363 . S
C1044 C1043 1.415 . S
C1045 H1021 0.951 . S
C1045 C1046 1.366 . S
C1045 C1047 1.388 . S
C1046 C1045 1.366 . S
C1046 C1050 1.385 . S
C1047 H1022 0.951 . S
C1047 C1045 1.388 . S
C1047 C1048 1.366 . S
C1048 C1047 1.366 . S
C1048 C1049 1.414 . S
C1048 C1051 1.499 . S
C1049 H1023 0.950 . S
C1049 C1048 1.414 . S
C1049 C1050 1.374 . S
C1050 H1024 0.950 . S
C1050 C1046 1.385 . S
C1050 C1049 1.374 . S
C1051 C1048 1.499 . S
C1051 C1052 1.373 . S
C1051 C1053 1.389 . S
C1052 H1025 0.950 . S
C1052 C1038 1.377 . S
C1052 C1051 1.373 . S
C1053 C1037 1.377 . S
C1053 C1051 1.389 . S
C1053 C1054 1.524 . S
C1054 C1053 1.524 . S
C1054 C1055 1.397 . S
C1054 C1059 1.363 . S
C1055 H1026 0.950 . S
C1055 C1054 1.397 . S
C1055 C1056 1.334 . S
C1056 H1027 0.950 . S
C1056 C1055 1.334 . S
C1056 C1057 1.287 . S
C1057 C1056 1.287 . S
C1057 C1058 1.524 . S
C1057 H1060 0.999 . S
C1058 H1028 0.950 . S
C1058 C1057 1.524 . S
C1058 C1059 1.415 . S
C1059 H1029 0.950 . S
C1059 C1054 1.363 . S
C1059 C1058 1.415 . S
H1060 C1057 0.999 . S
H1061 C1042 0.913 . S
H1062 C1080 0.951 . S
H1063 C1082 0.951 . S
H1064 C1084 0.950 . S
H1065 C1085 0.950 . S
H1066 C1087 0.950 . S
H1067 C1090 0.950 . S
H1068 C1091 0.950 . S
H1069 C1093 0.950 . S
H1070 C1094 0.950 . S
H1071 C1095 0.951 . S
H1072 C1097 0.951 . S
H1073 C1099 0.950 . S
H1074 C1100 0.950 . S
H1075 C1102 0.950 . S
H1076 C1105 0.950 . S
H1077 C1106 0.946 1_554 S
H1078 C1108 0.950 . S
H1079 C1109 0.950 . S
C1080 H1062 0.951 . S
C1080 C1081 1.366 . S
C1080 C1082 1.388 . S
C1081 C1080 1.366 . S
C1081 C1085 1.385 . S
C1082 H1063 0.951 . S
C1082 C1080 1.388 . S
C1082 C1083 1.366 . S
C1083 C1082 1.366 . S
C1083 C1084 1.414 . S
C1083 C1086 1.499 . S
C1084 H1064 0.950 . S
C1084 C1083 1.414 . S
C1084 C1085 1.374 . S
C1085 H1065 0.950 . S
C1085 C1081 1.385 . S
C1085 C1084 1.374 . S
C1086 C1083 1.499 . S
C1086 C1087 1.373 . S
C1086 C1088 1.389 . S
C1087 H1066 0.950 . S
C1087 C1086 1.373 . S
C1087 C1103 1.377 . S
C1088 C1086 1.389 . S
C1088 C1089 1.524 . S
C1088 C1102 1.377 . S
C1089 C1088 1.524 . S
C1089 C1090 1.397 . S
C1089 C1094 1.363 . S
C1090 H1067 0.950 . S
C1090 C1089 1.397 . S
C1090 C1091 1.334 . S
C1091 H1068 0.950 . S
C1091 C1090 1.334 . S
C1091 C1092 1.287 . S
C1092 C1091 1.287 . S
C1092 C1093 1.524 . S
C1092 H1111 0.913 . S
C1093 H1069 0.950 . S
C1093 C1092 1.524 . S
C1093 C1094 1.415 . S
C1094 H1070 0.950 . S
C1094 C1089 1.363 . S
C1094 C1093 1.415 . S
C1095 H1071 0.951 . S
C1095 C1096 1.366 . S
C1095 C1097 1.388 . S
C1096 C1095 1.366 . S
C1096 C1100 1.385 . S
C1097 H1072 0.951 . S
C1097 C1095 1.388 . S
C1097 C1098 1.366 . S
C1098 C1097 1.366 . S
C1098 C1099 1.414 . S
C1098 C1101 1.499 . S
C1099 H1073 0.950 . S
C1099 C1098 1.414 . S
C1099 C1100 1.374 . S
C1100 H1074 0.950 . S
C1100 C1096 1.385 . S
C1100 C1099 1.374 . S
C1101 C1098 1.499 . S
C1101 C1102 1.373 . S
C1101 C1103 1.389 . S
C1102 H1075 0.950 . S
C1102 C1088 1.377 . S
C1102 C1101 1.373 . S
C1103 C1087 1.377 . S
C1103 C1101 1.389 . S
C1103 C1104 1.524 . S
C1104 C1103 1.524 . S
C1104 C1105 1.397 . S
C1104 C1109 1.363 . S
C1105 H1076 0.950 . S
C1105 C1104 1.397 . S
C1105 C1106 1.339 . S
C1106 H1077 0.946 1_556 S
C1106 C1105 1.339 . S
C1106 C1107 1.286 1_556 S
C1107 C1106 1.286 1_554 S
C1107 C1108 1.524 1_554 S
C1107 H1110 0.999 . S
C1108 H1078 0.950 . S
C1108 C1107 1.524 1_556 S
C1108 C1109 1.415 . S
C1109 H1079 0.950 . S
C1109 C1104 1.363 . S
C1109 C1108 1.415 . S
H1110 C1107 0.999 . S
H1111 C1092 0.913 . S
H1112 C1130 0.951 . S
H1113 C1132 0.951 . S
H1114 C1134 0.950 . S
H1115 C1135 0.950 . S
H1116 C1137 0.950 . S
H1117 C1140 0.950 . S
H1118 C1141 0.950 . S
H1119 C1143 0.950 . S
H1120 C1144 0.950 . S
H1121 C1145 0.951 1_545 S
H1122 C1147 0.951 1_556 S
H1123 C1149 0.950 . S
H1124 C1150 0.950 . S
H1125 C1152 0.950 . S
H1126 C1155 0.950 . S
H1127 C1156 0.950 . S
H1128 C1158 0.950 . S
H1129 C1159 0.946 1_556 S
C1130 H1112 0.951 . S
C1130 C1131 1.366 . S
C1130 C1132 1.388 . S
C1131 C1130 1.366 . S
C1131 C1135 1.385 . S
C1132 H1113 0.951 . S
C1132 C1130 1.388 . S
C1132 C1133 1.366 . S
C1133 C1132 1.366 . S
C1133 C1134 1.414 . S
C1133 C1136 1.499 . S
C1134 H1114 0.950 . S
C1134 C1133 1.414 . S
C1134 C1135 1.374 . S
C1135 H1115 0.950 . S
C1135 C1131 1.385 . S
C1135 C1134 1.374 . S
C1136 C1133 1.499 . S
C1136 C1137 1.373 . S
C1136 C1138 1.389 . S
C1137 H1116 0.950 . S
C1137 C1136 1.373 . S
C1137 C1153 1.377 . S
C1138 C1136 1.389 . S
C1138 C1139 1.524 . S
C1138 C1152 1.377 . S
C1139 C1138 1.524 . S
C1139 C1140 1.397 . S
C1139 C1144 1.363 . S
C1140 H1117 0.950 . S
C1140 C1139 1.397 . S
C1140 C1141 1.334 . S
C1141 H1118 0.950 . S
C1141 C1140 1.334 . S
C1141 C1142 1.287 . S
C1142 C1141 1.287 . S
C1142 C1143 1.524 . S
C1142 H1161 0.913 . S
C1143 H1119 0.950 . S
C1143 C1142 1.524 . S
C1143 C1144 1.415 . S
C1144 H1120 0.950 . S
C1144 C1139 1.363 . S
C1144 C1143 1.415 . S
C1145 H1121 0.951 1_565 S
C1145 C1146 1.366 . S
C1145 C1147 1.388 . S
C1146 C1145 1.366 . S
C1146 C1150 1.385 . S
C1147 H1122 0.951 1_554 S
C1147 C1145 1.388 . S
C1147 C1148 1.366 . S
C1148 C1147 1.366 . S
C1148 C1149 1.414 . S
C1148 C1151 1.499 1_554 S
C1149 H1123 0.950 . S
C1149 C1148 1.414 . S
C1149 C1150 1.374 . S
C1150 H1124 0.950 . S
C1150 C1146 1.385 . S
C1150 C1149 1.374 . S
C1151 C1148 1.499 1_556 S
C1151 C1152 1.373 . S
C1151 C1153 1.389 . S
C1152 H1125 0.950 . S
C1152 C1138 1.377 . S
C1152 C1151 1.373 . S
C1153 C1137 1.377 . S
C1153 C1151 1.389 . S
C1153 C1154 1.524 1_556 S
C1154 C1153 1.524 1_554 S
C1154 C1155 1.397 . S
C1154 C1159 1.365 . S
C1155 H1126 0.950 . S
C1155 C1154 1.397 . S
C1155 C1156 1.334 . S
C1156 H1127 0.950 . S
C1156 C1155 1.334 . S
C1156 C1157 1.287 . S
C1157 C1156 1.287 . S
C1157 C1158 1.524 . S
C1157 H1160 0.999 . S
C1158 H1128 0.950 . S
C1158 C1157 1.524 . S
C1158 C1159 1.417 . S
C1159 H1129 0.946 1_554 S
C1159 C1154 1.365 . S
C1159 C1158 1.417 . S
H1160 C1157 0.999 . S
H1161 C1142 0.913 . S
H1162 C1180 0.951 . S
H1163 C1182 0.951 . S
H1164 C1184 0.950 . S
H1165 C1185 0.950 . S
H1166 C1187 0.950 . S
H1167 C1190 0.950 . S
H1168 C1191 0.950 . S
H1169 C1193 0.949 1_455 S
H1170 C1194 0.950 . S
H1171 C1195 0.951 . S
H1172 C1197 0.951 . S
H1173 C1199 0.950 . S
H1174 C1200 0.950 . S
H1175 C1202 0.950 . S
H1176 C1205 0.950 . S
H1177 C1206 0.950 . S
H1178 C1208 0.950 . S
H1179 C1209 0.950 . S
C1180 H1162 0.951 . S
C1180 C1181 1.366 . S
C1180 C1182 1.388 . S
C1181 C1180 1.366 . S
C1181 C1185 1.385 . S
C1182 H1163 0.951 . S
C1182 C1180 1.388 . S
C1182 C1183 1.366 . S
C1183 C1182 1.366 . S
C1183 C1184 1.414 . S
C1183 C1186 1.499 . S
C1184 H1164 0.950 . S
C1184 C1183 1.414 . S
C1184 C1185 1.374 . S
C1185 H1165 0.950 . S
C1185 C1181 1.385 . S
C1185 C1184 1.374 . S
C1186 C1183 1.499 . S
C1186 C1187 1.373 . S
C1186 C1188 1.389 . S
C1187 H1166 0.950 . S
C1187 C1186 1.373 . S
C1187 C1203 1.377 . S
C1188 C1186 1.389 . S
C1188 C1189 1.524 . S
C1188 C1202 1.377 . S
C1189 C1188 1.524 . S
C1189 C1190 1.397 . S
C1189 C1194 1.363 . S
C1190 H1167 0.950 . S
C1190 C1189 1.397 . S
C1190 C1191 1.334 1_655 S
C1191 H1168 0.950 . S
C1191 C1190 1.334 1_455 S
C1191 C1192 1.287 . S
C1192 C1191 1.287 . S
C1192 C1193 1.525 1_455 S
C1192 H1211 0.913 . S
C1193 H1169 0.949 1_655 S
C1193 C1192 1.525 1_655 S
C1193 C1194 1.414 . S
C1194 H1170 0.950 . S
C1194 C1189 1.363 . S
C1194 C1193 1.414 . S
C1195 H1171 0.951 . S
C1195 C1196 1.366 . S
C1195 C1197 1.388 . S
C1196 C1195 1.366 . S
C1196 C1200 1.385 . S
C1197 H1172 0.951 . S
C1197 C1195 1.388 . S
C1197 C1198 1.366 . S
C1198 C1197 1.366 . S
C1198 C1199 1.414 . S
C1198 C1201 1.499 . S
C1199 H1173 0.950 . S
C1199 C1198 1.414 . S
C1199 C1200 1.374 . S
C1200 H1174 0.950 . S
C1200 C1196 1.385 . S
C1200 C1199 1.374 . S
C1201 C1198 1.499 . S
C1201 C1202 1.373 . S
C1201 C1203 1.389 . S
C1202 H1175 0.950 . S
C1202 C1188 1.377 . S
C1202 C1201 1.373 . S
C1203 C1187 1.377 . S
C1203 C1201 1.389 . S
C1203 C1204 1.524 . S
C1204 C1203 1.524 . S
C1204 C1205 1.397 . S
C1204 C1209 1.363 . S
C1205 H1176 0.950 . S
C1205 C1204 1.397 . S
C1205 C1206 1.334 . S
C1206 H1177 0.950 . S
C1206 C1205 1.334 . S
C1206 C1207 1.287 . S
C1207 C1206 1.287 . S
C1207 C1208 1.524 . S
C1207 H1210 0.999 . S
C1208 H1178 0.950 . S
C1208 C1207 1.524 . S
C1208 C1209 1.415 . S
C1209 H1179 0.950 . S
C1209 C1204 1.363 . S
C1209 C1208 1.415 . S
H1210 C1207 0.999 . S
H1211 C1192 0.913 . S
H1212 C1230 0.951 . S
H1213 C1232 0.951 . S
H1214 C1234 0.950 . S
H1215 C1235 0.950 . S
H1216 C1237 0.950 . S
H1217 C1240 0.950 . S
H1218 C1241 0.950 . S
H1219 C1243 0.950 . S
H1220 C1244 0.950 . S
H1221 C1245 0.951 . S
H1222 C1247 0.951 . S
H1223 C1249 0.950 . S
H1224 C1250 0.950 . S
H1225 C1252 0.950 . S
H1226 C1255 0.950 . S
H1227 C1256 0.950 . S
H1228 C1258 0.950 . S
H1229 C1259 0.950 . S
C1230 H1212 0.951 . S
C1230 C1231 1.366 . S
C1230 C1232 1.388 . S
C1231 C1230 1.366 . S
C1231 C1235 1.385 . S
C1232 H1213 0.951 . S
C1232 C1230 1.388 . S
C1232 C1233 1.366 . S
C1233 C1232 1.366 . S
C1233 C1234 1.414 . S
C1233 C1236 1.499 . S
C1234 H1214 0.950 . S
C1234 C1233 1.414 . S
C1234 C1235 1.374 . S
C1235 H1215 0.950 . S
C1235 C1231 1.385 . S
C1235 C1234 1.374 . S
C1236 C1233 1.499 . S
C1236 C1237 1.373 . S
C1236 C1238 1.389 . S
C1237 H1216 0.950 . S
C1237 C1236 1.373 . S
C1237 C1253 1.377 . S
C1238 C1236 1.389 . S
C1238 C1239 1.524 . S
C1238 C1252 1.377 . S
C1239 C1238 1.524 . S
C1239 C1240 1.397 . S
C1239 C1244 1.363 . S
C1240 H1217 0.950 . S
C1240 C1239 1.397 . S
C1240 C1241 1.334 . S
C1241 H1218 0.950 . S
C1241 C1240 1.334 . S
C1241 C1242 1.287 . S
C1242 C1241 1.287 . S
C1242 C1243 1.524 . S
C1242 H1261 0.913 . S
C1243 H1219 0.950 . S
C1243 C1242 1.524 . S
C1243 C1244 1.415 . S
C1244 H1220 0.950 . S
C1244 C1239 1.363 . S
C1244 C1243 1.415 . S
C1245 H1221 0.951 . S
C1245 C1246 1.366 . S
C1245 C1247 1.388 . S
C1246 C1245 1.366 . S
C1246 C1250 1.385 . S
C1247 H1222 0.951 . S
C1247 C1245 1.388 . S
C1247 C1248 1.366 . S
C1248 C1247 1.366 . S
C1248 C1249 1.414 . S
C1248 C1251 1.499 . S
C1249 H1223 0.950 . S
C1249 C1248 1.414 . S
C1249 C1250 1.374 . S
C1250 H1224 0.950 . S
C1250 C1246 1.385 . S
C1250 C1249 1.374 . S
C1251 C1248 1.499 . S
C1251 C1252 1.373 . S
C1251 C1253 1.389 . S
C1252 H1225 0.950 . S
C1252 C1238 1.377 . S
C1252 C1251 1.373 . S
C1253 C1237 1.377 . S
C1253 C1251 1.389 . S
C1253 C1254 1.524 . S
C1254 C1253 1.524 . S
C1254 C1255 1.397 . S
C1254 C1259 1.363 . S
C1255 H1226 0.950 . S
C1255 C1254 1.397 . S
C1255 C1256 1.334 . S
C1256 H1227 0.950 . S
C1256 C1255 1.334 . S
C1256 C1257 1.287 . S
C1257 C1256 1.287 . S
C1257 C1258 1.524 . S
C1257 H1260 0.999 . S
C1258 H1228 0.950 . S
C1258 C1257 1.524 . S
C1258 C1259 1.415 . S
C1259 H1229 0.950 . S
C1259 C1254 1.363 . S
C1259 C1258 1.415 . S
H1260 C1257 0.999 . S
H1261 C1242 0.913 . S
H1262 C1280 0.951 . S
H1263 C1282 0.951 . S
H1264 C1284 0.950 . S
H1265 C1285 0.950 . S
H1266 C1287 0.950 . S
H1267 C1290 0.950 . S
H1268 C1291 0.950 . S
H1269 C1293 0.950 . S
H1270 C1294 0.950 . S
H1271 C1295 0.951 . S
H1272 C1297 0.951 . S
H1273 C1299 0.950 . S
H1274 C1300 0.950 . S
H1275 C1302 0.950 . S
H1276 C1305 0.950 . S
H1277 C1306 0.950 . S
H1278 C1308 0.950 . S
H1279 C1309 0.950 . S
C1280 H1262 0.951 . S
C1280 C1281 1.366 . S
C1280 C1282 1.388 . S
C1281 C1280 1.366 . S
C1281 C1285 1.385 . S
C1282 H1263 0.951 . S
C1282 C1280 1.388 . S
C1282 C1283 1.366 . S
C1283 C1282 1.366 . S
C1283 C1284 1.414 . S
C1283 C1286 1.499 . S
C1284 H1264 0.950 . S
C1284 C1283 1.414 . S
C1284 C1285 1.374 . S
C1285 H1265 0.950 . S
C1285 C1281 1.385 . S
C1285 C1284 1.374 . S
C1286 C1283 1.499 . S
C1286 C1287 1.373 . S
C1286 C1288 1.389 . S
C1287 H1266 0.950 . S
C1287 C1286 1.373 . S
C1287 C1303 1.377 . S
C1288 C1286 1.389 . S
C1288 C1289 1.524 . S
C1288 C1302 1.377 . S
C1289 C1288 1.524 . S
C1289 C1290 1.397 . S
C1289 C1294 1.363 . S
C1290 H1267 0.950 . S
C1290 C1289 1.397 . S
C1290 C1291 1.334 . S
C1291 H1268 0.950 . S
C1291 C1290 1.334 . S
C1291 C1292 1.287 . S
C1292 C1291 1.287 . S
C1292 C1293 1.524 . S
C1292 H1311 0.913 . S
C1293 H1269 0.950 . S
C1293 C1292 1.524 . S
C1293 C1294 1.415 . S
C1294 H1270 0.950 . S
C1294 C1289 1.363 . S
C1294 C1293 1.415 . S
C1295 H1271 0.951 . S
C1295 C1296 1.366 . S
C1295 C1297 1.388 . S
C1296 C1295 1.366 . S
C1296 C1300 1.385 . S
C1297 H1272 0.951 . S
C1297 C1295 1.388 . S
C1297 C1298 1.366 . S
C1298 C1297 1.366 . S
C1298 C1299 1.414 . S
C1298 C1301 1.499 . S
C1299 H1273 0.950 . S
C1299 C1298 1.414 . S
C1299 C1300 1.374 . S
C1300 H1274 0.950 . S
C1300 C1296 1.385 . S
C1300 C1299 1.374 . S
C1301 C1298 1.499 . S
C1301 C1302 1.373 . S
C1301 C1303 1.389 . S
C1302 H1275 0.950 . S
C1302 C1288 1.377 . S
C1302 C1301 1.373 . S
C1303 C1287 1.377 . S
C1303 C1301 1.389 . S
C1303 C1304 1.524 . S
C1304 C1303 1.524 . S
C1304 C1305 1.397 . S
C1304 C1309 1.363 . S
C1305 H1276 0.950 . S
C1305 C1304 1.397 . S
C1305 C1306 1.334 . S
C1306 H1277 0.950 . S
C1306 C1305 1.334 . S
C1306 C1307 1.287 . S
C1307 C1306 1.287 . S
C1307 C1308 1.524 . S
C1307 H1310 0.999 . S
C1308 H1278 0.950 . S
C1308 C1307 1.524 . S
C1308 C1309 1.415 . S
C1309 H1279 0.950 . S
C1309 C1304 1.363 . S
C1309 C1308 1.415 . S
H1310 C1307 0.999 . S
H1311 C1292 0.913 . S
H1312 C1330 0.951 . S
H1313 C1332 0.951 . S
H1314 C1334 0.950 . S
H1315 C1335 0.950 . S
H1316 C1337 0.950 . S
H1317 C1340 0.950 . S
H1318 C1341 0.950 . S
H1319 C1343 0.950 . S
H1320 C1344 0.950 . S
H1321 C1345 0.951 . S
H1322 C1347 0.951 . S
H1323 C1349 0.950 . S
H1324 C1350 0.950 . S
H1325 C1352 0.950 . S
H1326 C1355 0.950 . S
H1327 C1356 0.950 . S
H1328 C1358 0.950 . S
H1329 C1359 0.950 1_556 S
C1330 H1312 0.951 . S
C1330 C1331 1.366 . S
C1330 C1332 1.388 . S
C1331 C1330 1.366 . S
C1331 C1335 1.385 . S
C1332 H1313 0.951 . S
C1332 C1330 1.388 . S
C1332 C1333 1.366 . S
C1333 C1332 1.366 . S
C1333 C1334 1.414 . S
C1333 C1336 1.499 . S
C1334 H1314 0.950 . S
C1334 C1333 1.414 . S
C1334 C1335 1.374 . S
C1335 H1315 0.950 . S
C1335 C1331 1.385 . S
C1335 C1334 1.374 . S
C1336 C1333 1.499 . S
C1336 C1337 1.373 . S
C1336 C1338 1.389 . S
C1337 H1316 0.950 . S
C1337 C1336 1.373 . S
C1337 C1353 1.377 . S
C1338 C1336 1.389 . S
C1338 C1339 1.524 . S
C1338 C1352 1.377 . S
C1339 C1338 1.524 . S
C1339 C1340 1.397 . S
C1339 C1344 1.363 . S
C1340 H1317 0.950 . S
C1340 C1339 1.397 . S
C1340 C1341 1.334 . S
C1341 H1318 0.950 . S
C1341 C1340 1.334 . S
C1341 C1342 1.287 . S
C1342 C1341 1.287 . S
C1342 C1343 1.524 . S
C1342 H1361 0.913 . S
C1343 H1319 0.950 . S
C1343 C1342 1.524 . S
C1343 C1344 1.415 . S
C1344 H1320 0.950 . S
C1344 C1339 1.363 . S
C1344 C1343 1.415 . S
C1345 H1321 0.951 . S
C1345 C1346 1.366 . S
C1345 C1347 1.388 . S
C1346 C1345 1.366 . S
C1346 C1350 1.385 . S
C1347 H1322 0.951 . S
C1347 C1345 1.388 . S
C1347 C1348 1.366 . S
C1348 C1347 1.366 . S
C1348 C1349 1.414 . S
C1348 C1351 1.499 . S
C1349 H1323 0.950 . S
C1349 C1348 1.414 . S
C1349 C1350 1.374 . S
C1350 H1324 0.950 . S
C1350 C1346 1.385 . S
C1350 C1349 1.374 . S
C1351 C1348 1.499 . S
C1351 C1352 1.373 . S
C1351 C1353 1.389 . S
C1352 H1325 0.950 . S
C1352 C1338 1.377 . S
C1352 C1351 1.373 . S
C1353 C1337 1.377 . S
C1353 C1351 1.389 . S
C1353 C1354 1.524 . S
C1354 C1353 1.524 . S
C1354 C1355 1.397 . S
C1354 C1359 1.360 1_556 S
C1355 H1326 0.950 . S
C1355 C1354 1.397 . S
C1355 C1356 1.334 1_556 S
C1356 H1327 0.950 . S
C1356 C1355 1.334 1_554 S
C1356 C1357 1.287 . S
C1357 C1356 1.287 . S
C1357 C1358 1.524 . S
C1357 H1360 0.999 . S
C1358 H1328 0.950 . S
C1358 C1357 1.524 . S
C1358 C1359 1.418 . S
C1359 H1329 0.950 1_554 S
C1359 C1354 1.360 1_554 S
C1359 C1358 1.418 . S
H1360 C1357 0.999 . S
H1361 C1342 0.913 . S
H1362 C1380 0.951 . S
H1363 C1382 0.951 . S
H1364 C1384 0.950 . S
H1365 C1385 0.950 . S
H1366 C1387 0.950 . S
H1367 C1390 0.950 . S
H1368 C1391 0.950 . S
H1369 C1393 0.950 . S
H1370 C1394 0.950 . S
H1371 C1395 0.951 . S
H1372 C1397 0.951 . S
H1373 C1399 0.950 . S
H1374 C1400 0.950 . S
H1375 C1402 0.950 . S
H1376 C1405 0.950 . S
H1377 C1406 0.950 . S
H1378 C1408 0.950 . S
H1379 C1409 0.950 . S
C1380 H1362 0.951 . S
C1380 C1381 1.366 . S
C1380 C1382 1.388 . S
C1381 C1380 1.366 . S
C1381 C1385 1.385 . S
C1382 H1363 0.951 . S
C1382 C1380 1.388 . S
C1382 C1383 1.366 . S
C1383 C1382 1.366 . S
C1383 C1384 1.414 . S
C1383 C1386 1.499 . S
C1384 H1364 0.950 . S
C1384 C1383 1.414 . S
C1384 C1385 1.374 . S
C1385 H1365 0.950 . S
C1385 C1381 1.385 . S
C1385 C1384 1.374 . S
C1386 C1383 1.499 . S
C1386 C1387 1.373 . S
C1386 C1388 1.389 . S
C1387 H1366 0.950 . S
C1387 C1386 1.373 . S
C1387 C1403 1.377 . S
C1388 C1386 1.389 . S
C1388 C1389 1.524 . S
C1388 C1402 1.377 . S
C1389 C1388 1.524 . S
C1389 C1390 1.397 . S
C1389 C1394 1.363 . S
C1390 H1367 0.950 . S
C1390 C1389 1.397 . S
C1390 C1391 1.334 . S
C1391 H1368 0.950 . S
C1391 C1390 1.334 . S
C1391 C1392 1.287 . S
C1392 C1391 1.287 . S
C1392 C1393 1.524 . S
C1392 H1411 0.913 . S
C1393 H1369 0.950 . S
C1393 C1392 1.524 . S
C1393 C1394 1.415 . S
C1394 H1370 0.950 . S
C1394 C1389 1.363 . S
C1394 C1393 1.415 . S
C1395 H1371 0.951 . S
C1395 C1396 1.366 . S
C1395 C1397 1.388 . S
C1396 C1395 1.366 . S
C1396 C1400 1.385 . S
C1397 H1372 0.951 . S
C1397 C1395 1.388 . S
C1397 C1398 1.366 . S
C1398 C1397 1.366 . S
C1398 C1399 1.414 . S
C1398 C1401 1.499 . S
C1399 H1373 0.950 . S
C1399 C1398 1.414 . S
C1399 C1400 1.374 . S
C1400 H1374 0.950 . S
C1400 C1396 1.385 . S
C1400 C1399 1.374 . S
C1401 C1398 1.499 . S
C1401 C1402 1.373 . S
C1401 C1403 1.389 . S
C1402 H1375 0.950 . S
C1402 C1388 1.377 . S
C1402 C1401 1.373 . S
C1403 C1387 1.377 . S
C1403 C1401 1.389 . S
C1403 C1404 1.524 . S
C1404 C1403 1.524 . S
C1404 C1405 1.397 . S
C1404 C1409 1.363 . S
C1405 H1376 0.950 . S
C1405 C1404 1.397 . S
C1405 C1406 1.334 . S
C1406 H1377 0.950 . S
C1406 C1405 1.334 . S
C1406 C1407 1.287 . S
C1407 C1406 1.287 . S
C1407 C1408 1.524 . S
C1407 H1410 0.999 . S
C1408 H1378 0.950 . S
C1408 C1407 1.524 . S
C1408 C1409 1.415 . S
C1409 H1379 0.950 . S
C1409 C1404 1.363 . S
C1409 C1408 1.415 . S
H1410 C1407 0.999 . S
H1411 C1392 0.913 . S
H1412 C1430 0.951 . S
H1413 C1432 0.951 . S
H1414 C1434 0.950 . S
H1415 C1435 0.950 . S
H1416 C1437 0.950 . S
H1417 C1440 0.950 . S
H1418 C1441 0.950 . S
H1419 C1443 0.950 . S
H1420 C1444 0.950 . S
H1421 C1445 0.951 . S
H1422 C1447 0.951 . S
H1423 C1449 0.950 . S
H1424 C1450 0.950 . S
H1425 C1452 0.950 . S
H1426 C1455 0.950 . S
H1427 C1456 0.950 . S
H1428 C1458 0.950 . S
H1429 C1459 0.950 . S
C1430 H1412 0.951 . S
C1430 C1431 1.366 . S
C1430 C1432 1.388 . S
C1431 C1430 1.366 . S
C1431 C1435 1.385 . S
C1432 H1413 0.951 . S
C1432 C1430 1.388 . S
C1432 C1433 1.366 . S
C1433 C1432 1.366 . S
C1433 C1434 1.414 . S
C1433 C1436 1.499 . S
C1434 H1414 0.950 . S
C1434 C1433 1.414 . S
C1434 C1435 1.374 . S
C1435 H1415 0.950 . S
C1435 C1431 1.385 . S
C1435 C1434 1.374 . S
C1436 C1433 1.499 . S
C1436 C1437 1.373 . S
C1436 C1438 1.389 . S
C1437 H1416 0.950 . S
C1437 C1436 1.373 . S
C1437 C1453 1.377 . S
C1438 C1436 1.389 . S
C1438 C1439 1.524 . S
C1438 C1452 1.377 . S
C1439 C1438 1.524 . S
C1439 C1440 1.397 . S
C1439 C1444 1.363 . S
C1440 H1417 0.950 . S
C1440 C1439 1.397 . S
C1440 C1441 1.334 . S
C1441 H1418 0.950 . S
C1441 C1440 1.334 . S
C1441 C1442 1.287 . S
C1442 C1441 1.287 . S
C1442 C1443 1.524 . S
C1442 H1461 0.913 . S
C1443 H1419 0.950 . S
C1443 C1442 1.524 . S
C1443 C1444 1.415 . S
C1444 H1420 0.950 . S
C1444 C1439 1.363 . S
C1444 C1443 1.415 . S
C1445 H1421 0.951 . S
C1445 C1446 1.366 . S
C1445 C1447 1.388 . S
C1446 C1445 1.366 . S
C1446 C1450 1.385 . S
C1447 H1422 0.951 . S
C1447 C1445 1.388 . S
C1447 C1448 1.366 . S
C1448 C1447 1.366 . S
C1448 C1449 1.414 . S
C1448 C1451 1.499 . S
C1449 H1423 0.950 . S
C1449 C1448 1.414 . S
C1449 C1450 1.374 . S
C1450 H1424 0.950 . S
C1450 C1446 1.385 . S
C1450 C1449 1.374 . S
C1451 C1448 1.499 . S
C1451 C1452 1.373 . S
C1451 C1453 1.389 . S
C1452 H1425 0.950 . S
C1452 C1438 1.377 . S
C1452 C1451 1.373 . S
C1453 C1437 1.377 . S
C1453 C1451 1.389 . S
C1453 C1454 1.524 . S
C1454 C1453 1.524 . S
C1454 C1455 1.397 . S
C1454 C1459 1.363 . S
C1455 H1426 0.950 . S
C1455 C1454 1.397 . S
C1455 C1456 1.334 . S
C1456 H1427 0.950 . S
C1456 C1455 1.334 . S
C1456 C1457 1.287 . S
C1457 C1456 1.287 . S
C1457 C1458 1.524 . S
C1457 H1460 0.999 . S
C1458 H1428 0.950 . S
C1458 C1457 1.524 . S
C1458 C1459 1.415 . S
C1459 H1429 0.950 . S
C1459 C1454 1.363 . S
C1459 C1458 1.415 . S
H1460 C1457 0.999 . S
H1461 C1442 0.913 . S
H1462 C1480 0.951 . S
H1463 C1482 0.951 . S
H1464 C1484 0.950 . S
H1465 C1485 0.950 . S
H1466 C1487 0.950 . S
H1467 C1490 0.950 . S
H1468 C1491 0.950 . S
H1469 C1493 0.950 . S
H1470 C1494 0.950 . S
H1471 C1495 0.951 . S
H1472 C1497 0.951 . S
H1473 C1499 0.950 . S
H1474 C1500 0.950 . S
H1475 C1502 0.950 . S
H1476 C1505 0.950 . S
H1477 C1506 0.950 . S
H1478 C1508 0.950 . S
H1479 C1509 0.950 . S
C1480 H1462 0.951 . S
C1480 C1481 1.366 . S
C1480 C1482 1.388 . S
C1481 C1480 1.366 . S
C1481 C1485 1.385 . S
C1482 H1463 0.951 . S
C1482 C1480 1.388 . S
C1482 C1483 1.366 . S
C1483 C1482 1.366 . S
C1483 C1484 1.414 . S
C1483 C1486 1.499 . S
C1484 H1464 0.950 . S
C1484 C1483 1.414 . S
C1484 C1485 1.374 . S
C1485 H1465 0.950 . S
C1485 C1481 1.385 . S
C1485 C1484 1.374 . S
C1486 C1483 1.499 . S
C1486 C1487 1.373 . S
C1486 C1488 1.389 . S
C1487 H1466 0.950 . S
C1487 C1486 1.373 . S
C1487 C1503 1.377 . S
C1488 C1486 1.389 . S
C1488 C1489 1.524 . S
C1488 C1502 1.377 . S
C1489 C1488 1.524 . S
C1489 C1490 1.397 . S
C1489 C1494 1.363 . S
C1490 H1467 0.950 . S
C1490 C1489 1.397 . S
C1490 C1491 1.334 . S
C1491 H1468 0.950 . S
C1491 C1490 1.334 . S
C1491 C1492 1.287 . S
C1492 C1491 1.287 . S
C1492 C1493 1.524 . S
C1492 H1511 0.913 . S
C1493 H1469 0.950 . S
C1493 C1492 1.524 . S
C1493 C1494 1.415 . S
C1494 H1470 0.950 . S
C1494 C1489 1.363 . S
C1494 C1493 1.415 . S
C1495 H1471 0.951 . S
C1495 C1496 1.366 . S
C1495 C1497 1.388 . S
C1496 C1495 1.366 . S
C1496 C1500 1.385 . S
C1497 H1472 0.951 . S
C1497 C1495 1.388 . S
C1497 C1498 1.366 . S
C1498 C1497 1.366 . S
C1498 C1499 1.414 . S
C1498 C1501 1.499 . S
C1499 H1473 0.950 . S
C1499 C1498 1.414 . S
C1499 C1500 1.374 . S
C1500 H1474 0.950 . S
C1500 C1496 1.385 . S
C1500 C1499 1.374 . S
C1501 C1498 1.499 . S
C1501 C1502 1.373 . S
C1501 C1503 1.389 . S
C1502 H1475 0.950 . S
C1502 C1488 1.377 . S
C1502 C1501 1.373 . S
C1503 C1487 1.377 . S
C1503 C1501 1.389 . S
C1503 C1504 1.524 . S
C1504 C1503 1.524 . S
C1504 C1505 1.397 . S
C1504 C1509 1.363 . S
C1505 H1476 0.950 . S
C1505 C1504 1.397 . S
C1505 C1506 1.334 . S
C1506 H1477 0.950 . S
C1506 C1505 1.334 . S
C1506 C1507 1.287 . S
C1507 C1506 1.287 . S
C1507 C1508 1.524 . S
C1507 H1510 0.999 . S
C1508 H1478 0.950 . S
C1508 C1507 1.524 . S
C1508 C1509 1.415 . S
C1509 H1479 0.950 . S
C1509 C1504 1.363 . S
C1509 C1508 1.415 . S
H1510 C1507 0.999 . S
H1511 C1492 0.913 . S
C331 C6 1.444 . S
C346 C167 1.451 . S
C381 C21 1.511 . S
C396 C207 1.550 . S
C446 C241 1.531 . S
C431 C49 1.435 . S
C481 C68 2.373 . S
C496 C282 2.426 1_655 S
C546 C202 2.443 . S
C531 C2 2.393 . S
C596 C162 1.760 1_565 S
C581 C30 1.712 . S
C646 C290 1.254 1_655 S
C631 C40 1.303 . S
C696 C251 1.602 . S
C681 C63 1.677 . S
C731 C11 1.093 . S
C746 C287 1.160 . S
C796 C210 2.265 . S
C781 C44 2.328 . S
C831 C59 1.943 . S
C846 C170 1.916 1_565 S
C881 C25 2.032 . S
C896 C238 2.047 . S
C946 C158 1.735 . S
C931 C82 1.743 . S
C981 C101 1.085 . S
C996 C198 1.106 . S
C1031 C125 1.788 . S
C1046 C250 1.910 . S
C1081 C144 1.965 . S
C1096 C291 1.951 . S
C1131 C87 1.128 . S
C1146 C211 1.190 1_565 S
C1196 C171 2.954 . S
C1181 C97 2.863 . S
C1246 C281 1.306 . S
C1231 C120 1.285 . S
C1296 C242 1.576 . S
C1281 C135 1.600 . S
C1331 C78 1.776 . S
C1346 C278 1.809 . S
C1396 C201 1.419 . S
C1381 C116 1.431 . S
C1446 C161 2.642 . S
C1431 C139 2.736 . S
C1481 C106 1.227 . S
C1496 C247 1.494 . S
