# Generated by pormake.
# Topology rtl, (3,6)-cn, num edge types: 1
# Building blocks:
#     Node 0, Type 0, BuildingBlock: VETTIZ_charged_linker_0, # of connection points: 3
#     Node 1, Type 0, BuildingBlock: VETTIZ_charged_linker_0, # of connection points: 3
#     Node 2, Type 0, BuildingBlock: VETTIZ_charged_linker_0, # of connection points: 3
#     Node 3, Type 0, BuildingBlock: VETTIZ_charged_linker_0, # of connection points: 3
#     Node 4, Type 1, BuildingBlock: KUMBUR_clean_sbu_1, # of connection points: 6
#     Node 5, Type 1, BuildingBlock: KUMBUR_clean_sbu_1, # of connection points: 6
#     Edge 6, Type (0, 1), BuildingBlock: TEMPAE_clean_linker_10, # of connection points: 2
#     Edge 7, Type (0, 1), BuildingBlock: TEMPAE_clean_linker_10, # of connection points: 2
#     Edge 8, Type (0, 1), BuildingBlock: TEMPAE_clean_linker_10, # of connection points: 2
#     Edge 9, Type (0, 1), BuildingBlock: TEMPAE_clean_linker_10, # of connection points: 2
#     Edge 10, Type (0, 1), BuildingBlock: TEMPAE_clean_linker_10, # of connection points: 2
#     Edge 11, Type (0, 1), BuildingBlock: TEMPAE_clean_linker_10, # of connection points: 2
#     Edge 12, Type (0, 1), BuildingBlock: TEMPAE_clean_linker_10, # of connection points: 2
#     Edge 13, Type (0, 1), BuildingBlock: TEMPAE_clean_linker_10, # of connection points: 2
#     Edge 14, Type (0, 1), BuildingBlock: TEMPAE_clean_linker_10, # of connection points: 2
#     Edge 15, Type (0, 1), BuildingBlock: TEMPAE_clean_linker_10, # of connection points: 2
#     Edge 16, Type (0, 1), BuildingBlock: TEMPAE_clean_linker_10, # of connection points: 2
#     Edge 17, Type (0, 1), BuildingBlock: TEMPAE_clean_linker_10, # of connection points: 2
# Relax obj value: 0.017
# Max RMSD: 0.096
# Mean RMSD: 0.057
data_MOF--net-rtl--node1-KUMBUR_clean_sbu_1--node2-VETTIZ_charged_linker_0--edge1-TEMPAE_clean_linker_10
_symmetry_space_group_name_H-M    P1
_symmetry_Int_Tables_number       1
_symmetry_cell_setting            triclinic
loop_
_symmetry_equiv_pos_as_xyz
'x, y, z'
_cell_length_a     39.66933
_cell_length_b     40.365431
_cell_length_c     35.310358
_cell_angle_alpha  79.975672
_cell_angle_beta   99.333601
_cell_angle_gamma 90.460237
loop_
_atom_site_label
_atom_site_type_symbol
_atom_site_fract_x
_atom_site_fract_y
_atom_site_fract_z
_atom_type_partial_charge
C0 C 0.17565 0.89246 0.88936 0.0
C1 C 0.15311 0.92057 0.88053 0.0
C2 C 0.14543 0.9355 0.91154 0.0
C3 C 0.18115 0.89392 0.95854 0.0
C4 C 0.18959 0.87994 0.92822 0.0
C5 C 0.21469 0.85095 0.94227 0.0
H6 H 0.31328 0.74955 0.09163 0.0
C7 C 0.19962 0.87457 0.99542 0.0
C8 C 0.21974 0.84971 0.98604 0.0
H9 H 0.30126 0.74638 0.96854 0.0
H10 H 0.26179 0.79375 0.95438 0.0
H11 H 0.31366 0.83177 0.08495 0.0
H12 H 0.23366 0.75915 0.0911 0.0
H13 H 0.22578 0.78893 0.11946 0.0
H14 H 0.26457 0.76367 0.13292 0.0
H15 H 0.3105 0.80201 0.12834 0.0
H16 H 0.28773 0.84191 0.11748 0.0
C17 C 0.2479 0.86044 0.92545 0.0
C18 C 0.19748 0.81884 0.93038 0.0
C19 C 0.17348 0.89683 0.12486 0.0
C20 C 0.18562 0.88221 0.16378 0.0
C21 C 0.2126 0.85824 0.17182 0.0
C22 C 0.2263 0.84793 0.14144 0.0
C23 C 0.21289 0.86173 0.10258 0.0
C24 C 0.18747 0.88634 0.09488 0.0
C25 C 0.17703 0.89896 0.05192 0.0
C26 C 0.19913 0.87664 0.03506 0.0
C27 C 0.22 0.85479 0.06485 0.0
C28 C 0.18661 0.93652 0.04308 0.0
C29 C 0.13849 0.89231 0.04085 0.0
C30 C 0.30233 0.75944 0.06168 0.0
C31 C 0.31038 0.74452 0.03106 0.0
C32 C 0.29524 0.75753 0.99249 0.0
C33 C 0.27242 0.78507 0.98437 0.0
C34 C 0.26428 0.79963 0.01518 0.0
C35 C 0.27894 0.78668 0.0531 0.0
C36 C 0.26549 0.80411 0.08216 0.0
C37 C 0.2411 0.83018 0.05534 0.0
C38 C 0.24069 0.8275 0.01616 0.0
C39 C 0.2958 0.82073 0.10479 0.0
C40 C 0.24654 0.77779 0.1081 0.0
H41 H 0.15207 0.93463 0.97251 0.0
H42 H 0.18205 0.87995 0.86664 0.0
H43 H 0.16952 0.81959 0.93085 0.0
H44 H 0.2069 0.79561 0.95078 0.0
H45 H 0.20102 0.81626 0.90046 0.0
H46 H 0.25324 0.88763 0.92475 0.0
H47 H 0.24576 0.85554 0.89517 0.0
H48 H 0.27084 0.84715 0.94332 0.0
H49 H 0.15324 0.91583 0.1179 0.0
H50 H 0.22236 0.84667 0.2016 0.0
H51 H 0.2464 0.82917 0.14936 0.0
H52 H 0.20827 0.94261 0.06487 0.0
H53 H 0.16472 0.95334 0.04359 0.0
H54 H 0.19566 0.94325 0.01474 0.0
H55 H 0.13232 0.86653 0.05464 0.0
H56 H 0.13022 0.89358 0.00928 0.0
H57 H 0.12263 0.9105 0.05095 0.0
H58 H 0.12891 0.95763 0.9059 0.0
C59 C 0.15918 0.92228 0.95035 0.0
C60 C 0.64358 0.66439 0.72487 0.0
C61 C 0.61619 0.64198 0.72767 0.0
C62 C 0.59647 0.63533 0.69283 0.0
C63 C 0.63231 0.6708 0.6542 0.0
C64 C 0.65086 0.67876 0.68792 0.0
C65 C 0.67808 0.70401 0.6793 0.0
H66 H 0.75737 0.80101 0.54379 0.0
C67 C 0.64636 0.68934 0.62061 0.0
C68 C 0.67286 0.70945 0.63496 0.0
H69 H 0.78011 0.79356 0.6689 0.0
H70 H 0.7348 0.75348 0.67652 0.0
H71 H 0.75068 0.72464 0.54512 0.0
H72 H 0.6752 0.80246 0.53618 0.0
H73 H 0.65841 0.7761 0.50334 0.0
H74 H 0.69757 0.79791 0.49703 0.0
H75 H 0.73662 0.753 0.50034 0.0
H76 H 0.71534 0.71398 0.51326 0.0
C77 C 0.71334 0.68753 0.69781 0.0
C78 C 0.67007 0.73634 0.69444 0.0
C79 C 0.60671 0.66248 0.48493 0.0
C80 C 0.61651 0.67461 0.44852 0.0
C81 C 0.63866 0.70207 0.44524 0.0
C82 C 0.65217 0.71612 0.47787 0.0
C83 C 0.64364 0.70257 0.51442 0.0
C84 C 0.62048 0.67689 0.51737 0.0
C85 C 0.61378 0.66646 0.55852 0.0
C86 C 0.63835 0.68876 0.58001 0.0
C87 C 0.65581 0.70966 0.55399 0.0
C88 C 0.62356 0.62868 0.5718 0.0
C89 C 0.5759 0.67511 0.55942 0.0
C90 C 0.75228 0.79121 0.57284 0.0
C91 C 0.77214 0.80073 0.60574 0.0
C92 C 0.76523 0.78654 0.64307 0.0
C93 C 0.73881 0.7634 0.6474 0.0
C94 C 0.7192 0.75415 0.61406 0.0
C95 C 0.72627 0.76804 0.57763 0.0
C96 C 0.70415 0.75448 0.54541 0.0
C97 C 0.68204 0.7306 0.56823 0.0
C98 C 0.69077 0.73043 0.60848 0.0
C99 C 0.72765 0.73571 0.52458 0.0
C100 C 0.68278 0.78414 0.51874 0.0
H101 H 0.58864 0.64292 0.63125 0.0
H102 H 0.65931 0.67041 0.75071 0.0
H103 H 0.64209 0.74186 0.68871 0.0
H104 H 0.68154 0.75896 0.67969 0.0
H105 H 0.6788 0.73356 0.72637 0.0
H106 H 0.71411 0.66075 0.69408 0.0
H107 H 0.7188 0.68813 0.72955 0.0
H108 H 0.73448 0.69944 0.68401 0.0
H109 H 0.5893 0.64176 0.48825 0.0
H110 H 0.64688 0.71177 0.4177 0.0
H111 H 0.66956 0.73638 0.47351 0.0
H112 H 0.64876 0.62326 0.56395 0.0
H113 H 0.60433 0.61272 0.55745 0.0
H114 H 0.62618 0.62039 0.60358 0.0
H115 H 0.5651 0.69487 0.53438 0.0
H116 H 0.57284 0.68579 0.58556 0.0
H117 H 0.55963 0.65268 0.55818 0.0
H118 H 0.5744 0.61941 0.69352 0.0
C119 C 0.60448 0.64936 0.65639 0.0
C120 C 0.82903 0.10892 0.18427 0.0
C121 C 0.8562 0.08523 0.19318 0.0
C122 C 0.86831 0.07342 0.16243 0.0
C123 C 0.82788 0.11024 0.11506 0.0
C124 C 0.81539 0.12105 0.14523 0.0
C125 C 0.78721 0.14708 0.13083 0.0
H126 H 0.69583 0.25452 0.98206 0.0
C127 C 0.80956 0.1294 0.078 0.0
C128 C 0.78571 0.15101 0.08704 0.0
H129 H 0.68757 0.23842 0.10452 0.0
H130 H 0.73011 0.19408 0.11784 0.0
H131 H 0.7775 0.2476 0.99318 0.0
H132 H 0.70034 0.17294 0.9777 0.0
H133 H 0.73073 0.1691 0.94743 0.0
H134 H 0.70579 0.20749 0.93975 0.0
H135 H 0.75048 0.24753 0.94718 0.0
H136 H 0.78944 0.22254 0.96135 0.0
C137 C 0.79885 0.17971 0.14624 0.0
C138 C 0.75387 0.13227 0.14387 0.0
C139 C 0.84409 0.11292 0.95034 0.0
C140 C 0.83568 0.12998 0.91162 0.0
C141 C 0.8107 0.15616 0.90327 0.0
C142 C 0.79484 0.1653 0.93283 0.0
C143 C 0.80423 0.14845 0.97141 0.0
C144 C 0.8286 0.12284 0.97956 0.0
C145 C 0.83725 0.10914 0.02241 0.0
C146 C 0.81351 0.13024 0.03863 0.0
C147 C 0.79396 0.1531 0.00868 0.0
C148 C 0.87547 0.11606 0.03606 0.0
C149 C 0.82795 0.07148 0.02912 0.0
C150 C 0.70331 0.24137 0.01169 0.0
C151 C 0.68833 0.25001 0.04231 0.0
C152 C 0.69842 0.23205 0.0804 0.0
C153 C 0.72334 0.2064 0.08814 0.0
C154 C 0.73854 0.19842 0.05756 0.0
C155 C 0.72807 0.21527 0.01994 0.0
C156 C 0.74644 0.20221 0.99113 0.0
C157 C 0.76974 0.17506 0.01782 0.0
C158 C 0.76526 0.17345 0.05673 0.0
C159 C 0.76694 0.23137 0.97182 0.0
C160 C 0.7196 0.18727 0.96217 0.0
H161 H 0.86485 0.076 0.10146 0.0
H162 H 0.8187 0.11804 0.20721 0.0
H163 H 0.75435 0.10429 0.14824 0.0
H164 H 0.731 0.13992 0.12158 0.0
H165 H 0.75 0.13959 0.17178 0.0
H166 H 0.82617 0.18447 0.14391 0.0
H167 H 0.79618 0.17771 0.17739 0.0
H168 H 0.78483 0.20247 0.12951 0.0
H169 H 0.86272 0.09241 0.95811 0.0
H170 H 0.80398 0.17031 0.87403 0.0
H171 H 0.77633 0.18558 0.92461 0.0
H172 H 0.88414 0.13876 0.0177 0.0
H173 H 0.89211 0.09455 0.03436 0.0
H174 H 0.88052 0.12173 0.06594 0.0
H175 H 0.8033 0.06741 0.01058 0.0
H176 H 0.82415 0.06185 0.05934 0.0
H177 H 0.84787 0.05574 0.02158 0.0
H178 H 0.88933 0.05532 0.16843 0.0
C179 C 0.85425 0.08571 0.1235 0.0
C180 C 0.37172 0.33791 0.33214 0.0
C181 C 0.39484 0.36471 0.32911 0.0
C182 C 0.40468 0.38032 0.36194 0.0
C183 C 0.37086 0.34175 0.3999 0.0
C184 C 0.35984 0.32714 0.3676 0.0
C185 C 0.33392 0.3003 0.37563 0.0
H186 H 0.24533 0.2092 0.50661 0.0
C187 C 0.35452 0.32464 0.43242 0.0
C188 C 0.33255 0.30036 0.41845 0.0
H189 H 0.23485 0.20654 0.38371 0.0
H190 H 0.27936 0.24808 0.37706 0.0
H191 H 0.32798 0.21299 0.52304 0.0
H192 H 0.24599 0.28631 0.49779 0.0
H193 H 0.2773 0.30106 0.53148 0.0
H194 H 0.25787 0.26113 0.54521 0.0
H195 H 0.30167 0.21927 0.55811 0.0
H196 H 0.33989 0.24306 0.55288 0.0
C197 C 0.34805 0.26649 0.36924 0.0
C198 C 0.29947 0.31191 0.3493 0.0
C199 C 0.38481 0.35756 0.56654 0.0
C200 C 0.37362 0.34594 0.60223 0.0
C201 C 0.35084 0.31898 0.60483 0.0
C202 C 0.33872 0.30431 0.57233 0.0
C203 C 0.34935 0.31669 0.53659 0.0
C204 C 0.37226 0.34264 0.53415 0.0
C205 C 0.38046 0.35247 0.4936 0.0
C206 C 0.35844 0.32829 0.47218 0.0
C207 C 0.34034 0.30752 0.49757 0.0
C208 C 0.41909 0.34546 0.49557 0.0
C209 C 0.36892 0.3897 0.47819 0.0
C210 C 0.25291 0.21744 0.47838 0.0
C211 C 0.23704 0.20474 0.44569 0.0
C212 C 0.24701 0.21617 0.40922 0.0
C213 C 0.27266 0.2403 0.40548 0.0
C214 C 0.28801 0.25333 0.4385 0.0
C215 C 0.27794 0.24175 0.47412 0.0
C216 C 0.29558 0.25912 0.50583 0.0
C217 C 0.31775 0.28334 0.48356 0.0
C218 C 0.31363 0.27978 0.44418 0.0
C219 C 0.3173 0.2324 0.5369 0.0
C220 C 0.26798 0.27776 0.52128 0.0
H221 H 0.40189 0.38181 0.42083 0.0
H222 H 0.36319 0.32537 0.30769 0.0
H223 H 0.29618 0.33976 0.34469 0.0
H224 H 0.27716 0.30205 0.3624 0.0
H225 H 0.29801 0.30455 0.3202 0.0
H226 H 0.37526 0.26265 0.38329 0.0
H227 H 0.34669 0.26601 0.33767 0.0
H228 H 0.33443 0.24458 0.38225 0.0
H229 H 0.40221 0.37833 0.56363 0.0
H230 H 0.34234 0.30918 0.63219 0.0
H231 H 0.32126 0.28407 0.57631 0.0
H232 H 0.42712 0.32112 0.51506 0.0
H233 H 0.43463 0.36553 0.50732 0.0
H234 H 0.42603 0.34297 0.46718 0.0
H235 H 0.34729 0.39678 0.49188 0.0
H236 H 0.35898 0.3946 0.44656 0.0
H237 H 0.39008 0.40712 0.48455 0.0
H238 H 0.42114 0.40186 0.36049 0.0
C239 C 0.39314 0.36886 0.39715 0.0
Tb240 Tb 0.03616 0.96531 0.51988 0.0
C241 C 0.9571 0.09816 0.48286 0.0
N242 N 0.9851 0.08949 0.51051 0.0
C243 C 0.01088 0.1418 0.48826 0.0
C244 C 0.95561 0.12823 0.45545 0.0
C245 C 0.01063 0.11208 0.51534 0.0
C246 C 0.98357 0.14956 0.4576 0.0
C247 C 0.89789 0.08775 0.45884 0.0
C248 C 0.92869 0.07831 0.48438 0.0
C249 C 0.89676 0.1167 0.43007 0.0
C250 C 0.92565 0.13681 0.42821 0.0
Tb251 Tb 0.98284 0.03854 0.55069 0.0
N252 N 0.93091 0.05037 0.51232 0.0
C253 C 0.86902 0.06829 0.46377 0.0
C254 C 0.90244 0.03244 0.5189 0.0
C255 C 0.87118 0.04082 0.49434 0.0
H256 H 0.0307 0.10752 0.54033 0.0
H257 H 0.84883 0.02608 0.49894 0.0
H258 H 0.00755 0.89529 0.56502 0.0
H259 H 0.16492 0.01276 0.5251 0.0
H260 H 0.90411 0.01132 0.5426 0.0
H261 H 0.84482 0.07469 0.44473 0.0
H262 H 0.10558 0.00618 0.49449 0.0
H263 H 0.0318 0.159 0.49152 0.0
H264 H 0.87343 0.12423 0.40984 0.0
H265 H 0.92413 0.15961 0.4066 0.0
H266 H 0.02836 0.85055 0.62128 0.0
H267 H 0.98352 0.17287 0.43705 0.0
H268 H 0.1882 0.97686 0.58805 0.0
N269 N 0.0535 0.92269 0.57064 0.0
C270 C 0.08618 0.92344 0.58911 0.0
C271 C 0.04482 0.87104 0.61268 0.0
C272 C 0.09913 0.89875 0.62143 0.0
C273 C 0.03306 0.8964 0.58095 0.0
C274 C 0.07787 0.87243 0.63332 0.0
N275 N 0.09329 0.9709 0.54233 0.0
C276 C 0.11449 0.99211 0.52317 0.0
C277 C 0.1409 0.9505 0.59272 0.0
C278 C 0.10656 0.94896 0.57499 0.0
C279 C 0.16167 0.97478 0.57537 0.0
C280 C 0.14858 0.99517 0.53994 0.0
H281 H 0.08684 0.85291 0.65805 0.0
H282 H 0.14316 0.88258 0.66568 0.0
H283 H 0.17983 0.92798 0.64054 0.0
O284 O 0.06617 0.94391 0.48579 0.0
O285 O 0.03094 0.96606 0.58076 0.0
O286 O 0.03261 0.02185 0.58472 0.0
O287 O 0.01451 0.92893 0.48796 0.0
O288 O 0.04701 0.01802 0.49735 0.0
O289 O 0.03689 0.04774 0.54491 0.0
O290 O 0.9644 0.02772 0.6041 0.0
O291 O 0.96331 0.01683 0.49858 0.0
O292 O 0.01134 0.00556 0.47452 0.0
O293 O 0.96916 0.07867 0.57628 0.0
O294 O 0.96686 0.98665 0.56851 0.0
O295 O 0.98287 0.95342 0.52607 0.0
C296 C 0.04009 0.99036 0.60031 0.0
C297 C 0.03314 0.93489 0.42695 0.0
C298 C 0.05194 0.93701 0.36403 0.0
C299 C 0.02068 0.95266 0.34536 0.0
C300 C 1.00188 0.95015 0.40748 0.0
C301 C 0.9958 0.95891 0.36703 0.0
C302 C 0.05801 0.92796 0.40496 0.0
C303 C 0.05257 0.04384 0.5157 0.0
C304 C 0.04054 0.92805 0.47 0.0
C305 C 0.13281 0.90104 0.64043 0.0
C306 C 0.15364 0.92696 0.62618 0.0
C307 C 0.97917 0.01522 0.46912 0.0
C308 C 0.97758 0.06801 0.64466 0.0
C309 C 0.97082 0.08259 0.70716 0.0
C310 C 0.00611 0.08789 0.71498 0.0
C311 C 0.01281 0.07334 0.65288 0.0
C312 C 0.95671 0.07224 0.67206 0.0
C313 C 0.027 0.083 0.68807 0.0
C314 C 0.9637 0.95979 0.55149 0.0
C315 C 0.96213 0.05917 0.60716 0.0
H316 H 0.01529 0.95961 0.3139 0.0
H317 H 0.98215 0.95569 0.42348 0.0
H318 H 0.97177 0.97075 0.35249 0.0
H319 H 0.08224 0.91629 0.41966 0.0
H320 H 0.01747 0.09577 0.74193 0.0
H321 H 0.02916 0.0705 0.63187 0.0
H322 H 0.92943 0.06842 0.66564 0.0
H323 H 0.05417 0.08713 0.69428 0.0
Tb324 Tb 0.47021 0.4945 0.99493 0.0
C325 C 0.60497 0.56307 0.02321 0.0
N326 N 0.59877 0.5314 0.04063 0.0
C327 C 0.65122 0.51131 0.02641 0.0
C328 C 0.63414 0.56991 0.00534 0.0
C329 C 0.62167 0.50568 0.04334 0.0
C330 C 0.6574 0.54353 0.00714 0.0
C331 C 0.58684 0.62156 1.00458 0.0
C332 C 0.58143 0.58839 0.02269 0.0
C333 C 0.61527 0.62839 0.98556 0.0
C334 C 0.63892 0.60264 0.98602 0.0
Tb335 Tb 0.55058 0.52495 0.06818 0.0
N336 N 0.55415 0.58078 0.04138 0.0
C337 C 0.56415 0.64705 0.00724 0.0
C338 C 0.53431 0.60627 0.04754 0.0
C339 C 0.53823 0.63947 0.02957 0.0
H340 H 0.6169 0.48079 0.0582 0.0
H341 H 0.52178 0.65932 0.03379 0.0
H342 H 0.41901 0.56107 0.96142 0.0
H343 H 0.44285 0.36694 0.05692 0.0
H344 H 0.51621 0.60172 0.06741 0.0
H345 H 0.56739 0.67287 0.99377 0.0
H346 H 0.47627 0.41162 0.02333 0.0
H347 H 0.66911 0.4908 0.02808 0.0
H348 H 0.61959 0.65365 0.97111 0.0
H349 H 0.66092 0.60836 0.97161 0.0
H350 H 0.36062 0.57867 0.96612 0.0
H351 H 0.68012 0.54776 0.99372 0.0
H352 H 0.38671 0.38101 0.0728 0.0
N353 N 0.41658 0.5133 0.99737 0.0
C354 C 0.3965 0.49094 0.01611 0.0
C355 C 0.37054 0.55412 0.98091 0.0
C356 C 0.36281 0.49963 0.01908 0.0
C357 C 0.40374 0.5442 0.97863 0.0
C358 C 0.35011 0.53192 1.00171 0.0
N359 N 0.44062 0.45072 0.02356 0.0
C360 C 0.45187 0.41782 0.03049 0.0
C361 C 0.38851 0.43375 0.04753 0.0
C362 C 0.40898 0.45849 0.02981 0.0
C363 C 0.40143 0.40068 0.05854 0.0
C364 C 0.43306 0.39259 0.04947 0.0
H365 H 0.32429 0.53957 1.00314 0.0
H366 H 0.31671 0.48167 0.04085 0.0
H367 H 0.3394 0.42402 0.06618 0.0
O368 O 0.48266 0.46991 0.95074 0.0
O369 O 0.47709 0.47009 0.05646 0.0
O370 O 0.50937 0.50213 0.09766 0.0
O371 O 0.43667 0.4995 0.94162 0.0
O372 O 0.51776 0.46466 0.00564 0.0
O373 O 0.55077 0.47091 0.06535 0.0
O374 O 0.56985 0.55206 0.11296 0.0
O375 O 0.55345 0.52041 0.00726 0.0
O376 O 0.5002 0.5381 0.97688 0.0
O377 O 0.58671 0.50045 0.11513 0.0
O378 O 0.49946 0.54518 0.06886 0.0
O379 O 0.47573 0.54619 0.00532 0.0
C380 C 0.48777 0.47807 0.09085 0.0
C381 C 0.43433 0.45183 0.91178 0.0
C382 C 0.42017 0.41833 0.86041 0.0
C383 C 0.3966 0.40056 0.88162 0.0
C384 C 0.41001 0.43431 0.93188 0.0
C385 C 0.39156 0.40861 0.91708 0.0
C386 C 0.43912 0.44399 0.87576 0.0
C387 C 0.54132 0.45409 0.03638 0.0
C388 C 0.45401 0.47881 0.92765 0.0
C389 C 0.3426 0.47545 0.03801 0.0
C390 C 0.3555 0.44261 0.0524 0.0
C391 C 0.53289 0.53526 0.97611 0.0
C392 C 0.61167 0.52771 0.16925 0.0
C393 C 0.62566 0.54945 0.23033 0.0
C394 C 0.65469 0.52796 0.24054 0.0
C395 C 0.64082 0.50663 0.18012 0.0
C396 C 0.60419 0.54923 0.1944 0.0
C397 C 0.6622 0.50685 0.21554 0.0
C398 C 0.47485 0.55466 0.03931 0.0
C399 C 0.58907 0.52674 0.13195 0.0
H400 H 0.38134 0.38103 0.87021 0.0
H401 H 0.40476 0.44076 0.95868 0.0
H402 H 0.37291 0.39524 0.93287 0.0
H403 H 0.45742 0.45782 0.85974 0.0
H404 H 0.6714 0.52709 0.2682 0.0
H405 H 0.64714 0.49 0.16118 0.0
H406 H 0.58176 0.56566 0.18607 0.0
H407 H 0.6846 0.49043 0.22379 0.0
C408 C 0.21693 0.14696 0.46695 0.0
C409 C 0.20925 0.1806 0.45012 0.0
C410 C 0.19089 0.1246 0.47591 0.0
C411 C 0.15651 0.13648 0.46851 0.0
C412 C 0.14869 0.17044 0.45095 0.0
C413 C 0.17523 0.1921 0.4418 0.0
C414 C 0.20021 0.08849 0.49413 0.0
C415 C 0.11245 0.18416 0.4431 0.0
C416 C 0.08562 0.07262 0.46538 0.0
C417 C 0.07809 0.06867 0.50335 0.0
C418 C 0.11101 0.0946 0.45361 0.0
C419 C 0.12891 0.11361 0.48023 0.0
C420 C 0.12087 0.11032 0.51836 0.0
C421 C 0.09578 0.08763 0.52959 0.0
C422 C 0.11908 0.09704 0.41289 0.0
C423 C 0.13906 0.13047 0.54746 0.0
H424 H 0.2434 0.13836 0.47377 0.0
H425 H 0.16957 0.21836 0.42937 0.0
H426 H 0.19358 0.08308 0.5239 0.0
H427 H 0.18532 0.07122 0.47687 0.0
H428 H 0.22787 0.08283 0.49611 0.0
H429 H 0.11054 0.21087 0.42829 0.0
H430 H 0.0957 0.169 0.4247 0.0
H431 H 0.10247 0.18226 0.47098 0.0
H432 H 0.0719 0.05812 0.44491 0.0
H433 H 0.09032 0.08441 0.5591 0.0
H434 H 0.14617 0.08953 0.41433 0.0
H435 H 0.11579 0.12343 0.39729 0.0
H436 H 0.10257 0.08078 0.39562 0.0
H437 H 0.16668 0.12362 0.5539 0.0
H438 H 0.12868 0.12619 0.57526 0.0
H439 H 0.1368 0.15772 0.53502 0.0
C440 C 0.3233 0.68554 0.02518 0.0
C441 C 0.33401 0.71508 0.03882 0.0
C442 C 0.34601 0.65826 0.02919 0.0
C443 C 0.38057 0.66099 0.04626 0.0
C444 C 0.39126 0.69048 0.06114 0.0
C445 C 0.36768 0.7171 0.0576 0.0
C446 C 0.3332 0.62733 0.01323 0.0
C447 C 0.42795 0.69454 0.07904 0.0
C448 C 0.43657 0.58157 0.07513 0.0
C449 C 0.4515 0.58212 0.04176 0.0
C450 C 0.41346 0.60713 0.0772 0.0
C451 C 0.40595 0.63423 0.04551 0.0
C452 C 0.42185 0.63527 0.01221 0.0
C453 C 0.44429 0.60908 0.01066 0.0
C454 C 0.39633 0.60465 0.11271 0.0
C455 C 0.41487 0.66384 0.97799 0.0
H456 H 0.29714 0.68398 0.01085 0.0
H457 H 0.37592 0.74008 0.06797 0.0
H458 H 0.3394 0.62909 0.98344 0.0
H459 H 0.34547 0.60402 0.03143 0.0
H460 H 0.30505 0.62526 0.01122 0.0
H461 H 0.43168 0.71802 0.09146 0.0
H462 H 0.43657 0.67279 0.10241 0.0
H463 H 0.44459 0.69508 0.05651 0.0
H464 H 0.44234 0.56071 0.09919 0.0
H465 H 0.45641 0.60977 0.98513 0.0
H466 H 0.36829 0.60288 0.10402 0.0
H467 H 0.40094 0.62767 0.12581 0.0
H468 H 0.40556 0.58239 0.1352 0.0
H469 H 0.38765 0.66383 0.96429 0.0
H470 H 0.43104 0.662 0.95549 0.0
H471 H 0.41952 0.68831 0.988 0.0
C472 C 0.83268 0.81847 0.62353 0.0
C473 C 0.80028 0.82485 0.60065 0.0
C474 C 0.86002 0.83993 0.61694 0.0
C475 C 0.85475 0.86855 0.58693 0.0
C476 C 0.82191 0.87549 0.56431 0.0
C477 C 0.79513 0.85356 0.57141 0.0
C478 C 0.8947 0.83165 0.64157 0.0
C479 C 0.81513 0.90591 0.5323 0.0
C480 C 0.91647 0.94097 0.58911 0.0
C481 C 0.93651 0.93578 0.56123 0.0
C482 C 0.89007 0.91912 0.59804 0.0
C483 C 0.88357 0.89119 0.57885 0.0
C484 C 0.90398 0.88545 0.55112 0.0
C485 C 0.93013 0.90783 0.54257 0.0
C486 C 0.86883 0.92622 0.62766 0.0
C487 C 0.89789 0.85587 0.53012 0.0
H488 H 0.83691 0.79614 0.64588 0.0
H489 H 0.77003 0.85886 0.55395 0.0
H490 H 0.91354 0.82742 0.62275 0.0
H491 H 0.90371 0.85312 0.65605 0.0
H492 H 0.89443 0.80887 0.66427 0.0
H493 H 0.78797 0.90812 0.51794 0.0
H494 H 0.82193 0.92917 0.5443 0.0
H495 H 0.8314 0.90444 0.50986 0.0
H496 H 0.92116 0.96233 0.60391 0.0
H497 H 0.94538 0.9035 0.52101 0.0
H498 H 0.86977 0.90416 0.65145 0.0
H499 H 0.84172 0.93055 0.61372 0.0
H500 H 0.87766 0.94859 0.64063 0.0
H501 H 0.89924 0.83209 0.55153 0.0
H502 H 0.91676 0.85423 0.51042 0.0
H503 H 0.87188 0.85796 0.5126 0.0
C504 C 0.67007 0.30986 0.01477 0.0
C505 C 0.66319 0.27836 0.03558 0.0
C506 C 0.64874 0.33798 0.01275 0.0
C507 C 0.61974 0.3344 0.03175 0.0
C508 C 0.61175 0.30228 0.05109 0.0
C509 C 0.63363 0.2747 0.05289 0.0
C510 C 0.65807 0.3718 0.99178 0.0
C511 C 0.58077 0.29726 0.07111 0.0
C512 C 0.58804 0.41115 0.0658 0.0
C513 C 0.56041 0.42253 0.03633 0.0
C514 C 0.60749 0.38254 0.0646 0.0
C515 C 0.59893 0.36454 0.03342 0.0
C516 C 0.5706 0.37537 1.00406 0.0
C517 C 0.55174 0.40419 0.00583 0.0
C518 C 0.63752 0.37178 0.0965 0.0
C519 C 0.56043 0.35673 0.97053 0.0
H520 H 0.693 0.31285 1.00156 0.0
H521 H 0.62798 0.25027 0.06857 0.0
H522 H 0.63595 0.38333 0.97028 0.0
H523 H 0.66472 0.38903 0.01304 0.0
H524 H 0.68009 0.36998 0.97635 0.0
H525 H 0.57668 0.27029 0.08222 0.0
H526 H 0.58386 0.31103 0.096 0.0
H527 H 0.55753 0.30772 0.05074 0.0
H528 H 0.59489 0.42485 0.08965 0.0
H529 H 0.53031 0.41245 0.98296 0.0
H530 H 0.66132 0.37181 0.08375 0.0
H531 H 0.63406 0.3457 0.11133 0.0
H532 H 0.64089 0.38851 0.11865 0.0
H533 H 0.58165 0.35693 0.95354 0.0
H534 H 0.53722 0.36793 0.95056 0.0
H535 H 0.5555 0.33002 0.98176 0.0
C536 C 0.13326 0.89073 0.19196 0.0
C537 C 0.16897 0.89073 0.19564 0.0
C538 C 0.11682 0.89813 0.22184 0.0
C539 C 0.13654 0.90614 0.25611 0.0
C540 C 0.17264 0.90628 0.25998 0.0
C541 C 0.18847 0.89831 0.22976 0.0
C542 C 0.07829 0.89728 0.21674 0.0
C543 C 0.19446 0.9152 0.2958 0.0
C544 C 0.08668 0.9554 0.3115 0.0
C545 C 0.0776 0.92992 0.3402 0.0
C546 C 0.10748 0.94833 0.28524 0.0
C547 C 0.11903 0.91485 0.28739 0.0
C548 C 0.11115 0.88929 0.31743 0.0
C549 C 0.09069 0.89721 0.34372 0.0
C550 C 0.11578 0.97641 0.25412 0.0
C551 C 0.12271 0.85325 0.32044 0.0
H552 H 0.11816 0.88439 0.16584 0.0
H553 H 0.21609 0.8985 0.23253 0.0
H554 H 0.0702 0.8794 0.24105 0.0
H555 H 0.06781 0.92249 0.21761 0.0
H556 H 0.06679 0.88969 0.18877 0.0
H557 H 0.22219 0.91397 0.2944 0.0
H558 H 0.18773 0.94101 0.29927 0.0
H559 H 0.18943 0.89785 0.3222 0.0
H560 H 0.07681 0.98079 0.30907 0.0
H561 H 0.08348 0.87748 0.36578 0.0
H562 H 0.10235 0.97249 0.22519 0.0
H563 H 0.14358 0.97637 0.25308 0.0
H564 H 0.10801 1.00151 0.25902 0.0
H565 H 0.10961 0.84304 0.29482 0.0
H566 H 0.11701 0.83698 0.34733 0.0
H567 H 0.15056 0.85183 0.32012 0.0
C568 C 0.61183 0.64242 0.79835 0.0
C569 C 0.60763 0.62559 0.76626 0.0
C570 C 0.60204 0.62758 0.83395 0.0
C571 C 0.58684 0.59556 0.83733 0.0
C572 C 0.58313 0.57819 0.80543 0.0
C573 C 0.5941 0.59309 0.77071 0.0
C574 C 0.60742 0.64639 0.86778 0.0
C575 C 0.56681 0.54411 0.80765 0.0
C576 C 0.57991 0.54228 0.93582 0.0
C577 C 0.54672 0.55036 0.94054 0.0
C578 C 0.59378 0.55761 0.90308 0.0
C579 C 0.57345 0.58063 0.87351 0.0
C580 C 0.53956 0.5882 0.8776 0.0
C581 C 0.52673 0.57323 0.91119 0.0
C582 C 0.6303 0.54946 0.90043 0.0
C583 C 0.51666 0.61181 0.84623 0.0
H584 H 0.62202 0.66754 0.7955 0.0
H585 H 0.59177 0.57918 0.74685 0.0
H586 H 0.5824 0.65254 0.87534 0.0
H587 H 0.62203 0.6303 0.89388 0.0
H588 H 0.62139 0.67013 0.86128 0.0
H589 H 0.56562 0.53399 0.78015 0.0
H590 H 0.58137 0.52589 0.8318 0.0
H591 H 0.54046 0.54589 0.814 0.0
H592 H 0.59513 0.52391 0.95777 0.0
H593 H 0.50095 0.5795 0.91441 0.0
H594 H 0.64589 0.57224 0.9023 0.0
H595 H 0.63197 0.54197 0.87202 0.0
H596 H 0.64169 0.52893 0.92415 0.0
H597 H 0.52836 0.63691 0.84132 0.0
H598 H 0.49086 0.61488 0.85373 0.0
H599 H 0.51378 0.60215 0.81833 0.0
C600 C 0.87973 0.09686 0.25973 0.0
C601 C 0.87263 0.07371 0.23426 0.0
C602 C 0.89637 0.08663 0.29819 0.0
C603 C 0.90609 0.05239 0.31162 0.0
C604 C 0.89833 0.02877 0.28627 0.0
C605 C 0.88193 0.03977 0.24784 0.0
C606 C 0.90365 0.11251 0.32444 0.0
C607 C 0.90807 0.99197 0.29879 0.0
C608 C 0.97836 0.03436 0.39781 0.0
C609 C 0.96049 0.02409 0.42884 0.0
C610 C 0.96101 0.04294 0.35941 0.0
C611 C 0.92491 0.04171 0.35195 0.0
C612 C 0.90679 0.03096 0.38314 0.0
C613 C 0.92485 0.02193 0.42115 0.0
C614 C 0.98132 0.05317 0.32679 0.0
C615 C 0.86833 0.02896 0.37631 0.0
H616 H 0.87295 0.12321 0.24931 0.0
H617 H 0.87624 0.02167 0.22844 0.0
H618 H 0.89046 0.10564 0.34998 0.0
H619 H 0.93144 0.11284 0.33561 0.0
H620 H 0.89503 0.13825 0.30935 0.0
H621 H 0.89019 0.97607 0.2825 0.0
H622 H 0.93393 0.98795 0.29205 0.0
H623 H 0.90848 0.98328 0.33044 0.0
H624 H 0.00598 0.03576 0.40354 0.0
H625 H 0.91106 0.01291 0.44483 0.0
H626 H 0.97379 0.07911 0.31161 0.0
H627 H 0.9756 0.03623 0.30505 0.0
H628 H 0.0093 0.05219 0.33738 0.0
H629 H 0.8569 0.05439 0.36443 0.0
H630 H 0.85817 0.01883 0.40344 0.0
H631 H 0.85996 0.01268 0.35438 0.0
C632 C 0.41936 0.36833 0.64856 0.0
C633 C 0.38478 0.36195 0.63678 0.0
C634 C 0.43015 0.38055 0.68341 0.0
C635 C 0.40573 0.38652 0.70671 0.0
C636 C 0.37064 0.38158 0.69391 0.0
C637 C 0.36063 0.36939 0.65912 0.0
C638 C 0.46773 0.38567 0.6961 0.0
C639 C 0.34372 0.38787 0.71773 0.0
C640 C 0.42522 0.37728 0.81634 0.0
C641 C 0.42324 0.41079 0.82154 0.0
C642 C 0.42199 0.36917 0.77896 0.0
C643 C 0.41657 0.39523 0.746 0.0
C644 C 0.41706 0.42926 0.75118 0.0
C645 C 0.42041 0.43666 0.78902 0.0
C646 C 0.42192 0.33257 0.77475 0.0
C647 C 0.41159 0.45774 0.71677 0.0
H648 H 0.43808 0.36256 0.63133 0.0
H649 H 0.33381 0.36512 0.64964 0.0
H650 H 0.47191 0.41065 0.70492 0.0
H651 H 0.47753 0.36638 0.72191 0.0
H652 H 0.4829 0.38374 0.67272 0.0
H653 H 0.31741 0.38469 0.70252 0.0
H654 H 0.34781 0.3701 0.74591 0.0
H655 H 0.34577 0.41372 0.72445 0.0
H656 H 0.42794 0.35729 0.84156 0.0
H657 H 0.41876 0.46261 0.79298 0.0
H658 H 0.43891 0.32815 0.75401 0.0
H659 H 0.39572 0.32563 0.76277 0.0
H660 H 0.43031 0.31564 0.80306 0.0
H661 H 0.42721 0.45359 0.69459 0.0
H662 H 0.41808 0.48245 0.72555 0.0
H663 H 0.38439 0.45879 0.70278 0.0
C664 C 0.59807 0.67515 0.37693 0.0
C665 C 0.60682 0.6569 0.41489 0.0
C666 C 0.59506 0.65904 0.34437 0.0
C667 C 0.60122 0.62389 0.34991 0.0
C668 C 0.60759 0.60505 0.38823 0.0
C669 C 0.61024 0.62177 0.42025 0.0
C670 C 0.58759 0.67999 0.30406 0.0
C671 C 0.61427 0.56752 0.3955 0.0
C672 C 0.58503 0.57389 0.26668 0.0
C673 C 0.61807 0.57146 0.25779 0.0
C674 C 0.57871 0.59182 0.29574 0.0
C675 C 0.60609 0.60759 0.31633 0.0
C676 C 0.63914 0.60633 0.3063 0.0
C677 C 0.64466 0.58844 0.27714 0.0
C678 C 0.54308 0.59283 0.30537 0.0
C679 C 0.66905 0.62297 0.3273 0.0
H680 H 0.59483 0.70226 0.37264 0.0
H681 H 0.61721 0.6075 0.44946 0.0
H682 H 0.61129 0.68227 0.29095 0.0
H683 H 0.56836 0.66772 0.28485 0.0
H684 H 0.57811 0.7057 0.30459 0.0
H685 H 0.61467 0.55603 0.42654 0.0
H686 H 0.59452 0.55506 0.37713 0.0
H687 H 0.63935 0.56235 0.3874 0.0
H688 H 0.56437 0.56072 0.25198 0.0
H689 H 0.6701 0.58723 0.26989 0.0
H690 H 0.53543 0.61899 0.30643 0.0
H691 H 0.54254 0.57766 0.33464 0.0
H692 H 0.52396 0.58274 0.28385 0.0
H693 H 0.66319 0.65006 0.32557 0.0
H694 H 0.69284 0.62065 0.31506 0.0
H695 H 0.67381 0.61135 0.35862 0.0
C696 C 0.83707 0.12387 0.84193 0.0
C697 C 0.85386 0.12136 0.88059 0.0
C698 C 0.85444 0.11704 0.81238 0.0
C699 C 0.88923 0.10661 0.82178 0.0
C700 C 0.9061 0.10315 0.8608 0.0
C701 C 0.88843 0.11104 0.88951 0.0
C702 C 0.83574 0.12161 0.77097 0.0
C703 C 0.94305 0.09159 0.87218 0.0
C704 C 0.92919 0.06306 0.75201 0.0
C705 C 0.94871 0.08889 0.73518 0.0
C706 C 0.90942 0.06848 0.78008 0.0
C707 C 0.90858 0.10071 0.79069 0.0
C708 C 0.9275 0.12712 0.77275 0.0
C709 C 0.94769 0.12075 0.74556 0.0
C710 C 0.89029 0.03949 0.79921 0.0
C711 C 0.9267 0.16202 0.78258 0.0
H712 H 0.81028 0.13119 0.83464 0.0
H713 H 0.90211 0.1097 0.91891 0.0
H714 H 0.84863 0.14081 0.75207 0.0
H715 H 0.83647 0.09776 0.75953 0.0
H716 H 0.80863 0.12963 0.7685 0.0
H717 H 0.95164 0.08766 0.90421 0.0
H718 H 0.94689 0.06768 0.86182 0.0
H719 H 0.95959 0.11056 0.85808 0.0
H720 H 0.93019 0.0384 0.74399 0.0
H721 H 0.96263 0.14074 0.73219 0.0
H722 H 0.86277 0.04622 0.79566 0.0
H723 H 0.90012 0.03404 0.83097 0.0
H724 H 0.89286 0.01626 0.78695 0.0
H725 H 0.89989 0.17131 0.77871 0.0
H726 H 0.94104 0.18024 0.76418 0.0
H727 H 0.93796 0.16132 0.81359 0.0
C728 C 0.44161 0.39025 0.29384 0.0
C729 C 0.4086 0.37702 0.29222 0.0
C730 C 0.45397 0.40506 0.25997 0.0
C731 C 0.43352 0.40554 0.22312 0.0
C732 C 0.40103 0.39051 0.22091 0.0
C733 C 0.38874 0.37688 0.25545 0.0
C734 C 0.48862 0.42109 0.26377 0.0
C735 C 0.37885 0.38968 0.18207 0.0
C736 C 0.45241 0.47573 0.1431 0.0
C737 C 0.47345 0.45919 0.12392 0.0
C738 C 0.4381 0.45822 0.17442 0.0
C739 C 0.44564 0.42341 0.1873 0.0
C740 C 0.46653 0.40646 0.16747 0.0
C741 C 0.47996 0.42456 0.13567 0.0
C742 C 0.4155 0.47715 0.19424 0.0
C743 C 0.4752 0.36944 0.1803 0.0
H744 H 0.45787 0.38946 0.32177 0.0
H745 H 0.36318 0.36699 0.25351 0.0
H746 H 0.50544 0.40945 0.24731 0.0
H747 H 0.4859 0.44826 0.25099 0.0
H748 H 0.50138 0.41857 0.29459 0.0
H749 H 0.356 0.37396 0.18509 0.0
H750 H 0.37017 0.4156 0.16796 0.0
H751 H 0.39368 0.37973 0.16227 0.0
H752 H 0.44696 0.50239 0.13335 0.0
H753 H 0.49609 0.41182 0.12044 0.0
H754 H 0.42744 0.47667 0.22501 0.0
H755 H 0.39044 0.4648 0.19455 0.0
H756 H 0.411 0.50379 0.1796 0.0
H757 H 0.49071 0.3651 0.2099 0.0
H758 H 0.48976 0.35951 0.1602 0.0
H759 H 0.45151 0.35486 0.18209 0.0
C760 C 0.15553 0.93279 0.80856 0.0
C761 C 0.13733 0.93388 0.83934 0.0
C762 C 0.14029 0.9433 0.76958 0.0
C763 C 0.10625 0.95597 0.76103 0.0
C764 C 0.08811 0.95835 0.79183 0.0
C765 C 0.10367 0.94691 0.83052 0.0
C766 C 0.16032 0.93996 0.73748 0.0
C767 C 0.05189 0.97218 0.78386 0.0
C768 C 0.07534 0.00606 0.65979 0.0
C769 C 0.05662 0.98197 0.64153 0.0
C770 C 0.09132 0.99814 0.69886 0.0
C771 C 0.08902 0.96516 0.71983 0.0
C772 C 0.07015 0.94077 0.70146 0.0
C773 C 0.05378 0.94965 0.66276 0.0
C774 C 0.11057 0.02503 0.7177 0.0
C775 C 0.06754 0.90515 0.72249 0.0
H776 H 0.18176 0.92356 0.81483 0.0
H777 H 0.08903 0.94746 0.85377 0.0
H778 H 0.14795 0.9214 0.72021 0.0
H779 H 0.16032 0.9643 0.71728 0.0
H780 H 0.1872 0.93157 0.74896 0.0
H781 H 0.04224 0.97483 0.81103 0.0
H782 H 0.0503 0.99716 0.76458 0.0
H783 H 0.03477 0.95522 0.76838 0.0
H784 H 0.0778 0.03105 0.64344 0.0
H785 H 0.03865 0.93119 0.64912 0.0
H786 H 0.13741 0.0166 0.72911 0.0
H787 H 0.09882 0.02952 0.74286 0.0
H788 H 0.11061 0.04921 0.69711 0.0
H789 H 0.0933 0.89297 0.72994 0.0
H790 H 0.05045 0.88972 0.70468 0.0
H791 H 0.0578 0.90512 0.75022 0.0
loop_
_geom_bond_atom_site_label_1
_geom_bond_atom_site_label_2
_geom_bond_distance
_geom_bond_site_symmetry_2
_ccdc_geom_bond_type
C0 C1 1.391 . S
C0 C4 1.391 . S
C0 H42 0.948 . S
C1 C0 1.391 . S
C1 C2 1.391 . S
C2 C1 1.391 . S
C2 H58 0.947 . S
C2 C59 1.392 . S
C3 C4 1.391 . S
C3 C7 1.397 . S
C3 C59 1.419 . S
C4 C0 1.391 . S
C4 C3 1.391 . S
C4 C5 1.399 . S
C5 C4 1.399 . S
C5 C8 1.396 . S
C5 C17 1.453 . S
C5 C18 1.684 . S
H6 C30 0.948 . S
C7 C3 1.397 . S
C7 C8 1.394 . S
C7 C26 1.723 1_556 S
C8 C5 1.396 . S
C8 C7 1.394 . S
C8 C38 1.723 1_556 S
H9 C32 0.947 . S
H10 C33 0.948 . S
H11 C39 0.982 . S
H12 C40 0.979 . S
H13 C40 0.980 . S
H14 C40 0.983 . S
H15 C39 0.979 . S
H16 C39 0.977 . S
C17 C5 1.453 . S
C17 H46 0.982 . S
C17 H47 0.979 . S
C17 H48 0.977 . S
C18 C5 1.684 . S
C18 H43 0.979 . S
C18 H44 0.980 . S
C18 H45 0.983 . S
C19 C20 1.391 . S
C19 C24 1.391 . S
C19 H49 0.948 . S
C20 C19 1.391 . S
C20 C21 1.391 . S
C21 C20 1.391 . S
C21 C22 1.392 . S
C21 H50 0.947 . S
C22 C21 1.392 . S
C22 C23 1.419 . S
C22 H51 0.948 . S
C23 C22 1.419 . S
C23 C24 1.391 . S
C23 C27 1.397 . S
C24 C19 1.391 . S
C24 C23 1.391 . S
C24 C25 1.399 . S
C25 C24 1.399 . S
C25 C26 1.396 . S
C25 C28 1.453 . S
C25 C29 1.684 . S
C26 C7 1.723 1_554 S
C26 C25 1.396 . S
C26 C27 1.394 . S
C27 C23 1.397 . S
C27 C26 1.394 . S
C27 C37 1.723 . S
C28 C25 1.453 . S
C28 H52 0.982 . S
C28 H53 0.979 . S
C28 H54 0.977 1_554 S
C29 C25 1.684 . S
C29 H55 0.979 . S
C29 H56 0.980 1_554 S
C29 H57 0.983 . S
C30 H6 0.948 . S
C30 C31 1.391 . S
C30 C35 1.391 . S
C31 C30 1.391 . S
C31 C32 1.391 1_554 S
C32 H9 0.947 . S
C32 C31 1.391 1_556 S
C32 C33 1.392 . S
C33 H10 0.948 . S
C33 C32 1.392 . S
C33 C34 1.419 1_556 S
C34 C33 1.419 1_554 S
C34 C35 1.391 . S
C34 C38 1.397 . S
C35 C30 1.391 . S
C35 C34 1.391 . S
C35 C36 1.399 . S
C36 C35 1.399 . S
C36 C37 1.396 . S
C36 C39 1.453 . S
C36 C40 1.684 . S
C37 C27 1.723 . S
C37 C36 1.396 . S
C37 C38 1.394 . S
C38 C8 1.723 1_554 S
C38 C34 1.397 . S
C38 C37 1.394 . S
C39 H11 0.982 . S
C39 H15 0.979 . S
C39 H16 0.977 . S
C39 C36 1.453 . S
C40 H12 0.979 . S
C40 H13 0.980 . S
C40 H14 0.983 . S
C40 C36 1.684 . S
H41 C59 0.948 . S
H42 C0 0.948 . S
H43 C18 0.979 . S
H44 C18 0.980 . S
H45 C18 0.983 . S
H46 C17 0.982 . S
H47 C17 0.979 . S
H48 C17 0.977 . S
H49 C19 0.948 . S
H50 C21 0.947 . S
H51 C22 0.948 . S
H52 C28 0.982 . S
H53 C28 0.979 . S
H54 C28 0.977 1_556 S
H55 C29 0.979 . S
H56 C29 0.980 1_556 S
H57 C29 0.983 . S
H58 C2 0.947 . S
C59 C2 1.392 . S
C59 C3 1.419 . S
C59 H41 0.948 . S
C60 C61 1.391 . S
C60 C64 1.391 . S
C60 H102 0.948 . S
C61 C60 1.391 . S
C61 C62 1.391 . S
C62 C61 1.391 . S
C62 H118 0.947 . S
C62 C119 1.392 . S
C63 C64 1.391 . S
C63 C67 1.397 . S
C63 C119 1.419 . S
C64 C60 1.391 . S
C64 C63 1.391 . S
C64 C65 1.399 . S
C65 C64 1.399 . S
C65 C68 1.396 . S
C65 C77 1.453 . S
C65 C78 1.684 . S
H66 C90 0.948 . S
C67 C63 1.397 . S
C67 C68 1.394 . S
C67 C86 1.723 . S
C68 C65 1.396 . S
C68 C67 1.394 . S
C68 C98 1.723 . S
H69 C92 0.947 . S
H70 C93 0.948 . S
H71 C99 0.982 . S
H72 C100 0.979 . S
H73 C100 0.980 . S
H74 C100 0.983 . S
H75 C99 0.979 . S
H76 C99 0.977 . S
C77 C65 1.453 . S
C77 H106 0.982 . S
C77 H107 0.979 . S
C77 H108 0.977 . S
C78 C65 1.684 . S
C78 H103 0.979 . S
C78 H104 0.980 . S
C78 H105 0.983 . S
C79 C80 1.391 . S
C79 C84 1.391 . S
C79 H109 0.948 . S
C80 C79 1.391 . S
C80 C81 1.391 . S
C81 C80 1.391 . S
C81 C82 1.392 . S
C81 H110 0.947 . S
C82 C81 1.392 . S
C82 C83 1.419 . S
C82 H111 0.948 . S
C83 C82 1.419 . S
C83 C84 1.391 . S
C83 C87 1.397 . S
C84 C79 1.391 . S
C84 C83 1.391 . S
C84 C85 1.399 . S
C85 C84 1.399 . S
C85 C86 1.396 . S
C85 C88 1.453 . S
C85 C89 1.684 . S
C86 C67 1.723 . S
C86 C85 1.396 . S
C86 C87 1.394 . S
C87 C83 1.397 . S
C87 C86 1.394 . S
C87 C97 1.723 . S
C88 C85 1.453 . S
C88 H112 0.982 . S
C88 H113 0.979 . S
C88 H114 0.977 . S
C89 C85 1.684 . S
C89 H115 0.979 . S
C89 H116 0.980 . S
C89 H117 0.983 . S
C90 H66 0.948 . S
C90 C91 1.391 . S
C90 C95 1.391 . S
C91 C90 1.391 . S
C91 C92 1.391 . S
C92 H69 0.947 . S
C92 C91 1.391 . S
C92 C93 1.392 . S
C93 H70 0.948 . S
C93 C92 1.392 . S
C93 C94 1.419 . S
C94 C93 1.419 . S
C94 C95 1.391 . S
C94 C98 1.397 . S
C95 C90 1.391 . S
C95 C94 1.391 . S
C95 C96 1.399 . S
C96 C95 1.399 . S
C96 C97 1.396 . S
C96 C99 1.453 . S
C96 C100 1.684 . S
C97 C87 1.723 . S
C97 C96 1.396 . S
C97 C98 1.394 . S
C98 C68 1.723 . S
C98 C94 1.397 . S
C98 C97 1.394 . S
C99 H71 0.982 . S
C99 H75 0.979 . S
C99 H76 0.977 . S
C99 C96 1.453 . S
C100 H72 0.979 . S
C100 H73 0.980 . S
C100 H74 0.983 . S
C100 C96 1.684 . S
H101 C119 0.948 . S
H102 C60 0.948 . S
H103 C78 0.979 . S
H104 C78 0.980 . S
H105 C78 0.983 . S
H106 C77 0.982 . S
H107 C77 0.979 . S
H108 C77 0.977 . S
H109 C79 0.948 . S
H110 C81 0.947 . S
H111 C82 0.948 . S
H112 C88 0.982 . S
H113 C88 0.979 . S
H114 C88 0.977 . S
H115 C89 0.979 . S
H116 C89 0.980 . S
H117 C89 0.983 . S
H118 C62 0.947 . S
C119 C62 1.392 . S
C119 C63 1.419 . S
C119 H101 0.948 . S
C120 C121 1.391 . S
C120 C124 1.391 . S
C120 H162 0.948 . S
C121 C120 1.391 . S
C121 C122 1.391 . S
C122 C121 1.391 . S
C122 H178 0.947 . S
C122 C179 1.392 . S
C123 C124 1.391 . S
C123 C127 1.397 . S
C123 C179 1.419 . S
C124 C120 1.391 . S
C124 C123 1.391 . S
C124 C125 1.399 . S
C125 C124 1.399 . S
C125 C128 1.396 . S
C125 C137 1.453 . S
C125 C138 1.684 . S
H126 C150 0.948 . S
C127 C123 1.397 . S
C127 C128 1.394 . S
C127 C146 1.723 . S
C128 C125 1.396 . S
C128 C127 1.394 . S
C128 C158 1.723 . S
H129 C152 0.947 . S
H130 C153 0.948 . S
H131 C159 0.982 . S
H132 C160 0.979 . S
H133 C160 0.980 . S
H134 C160 0.983 . S
H135 C159 0.979 . S
H136 C159 0.977 . S
C137 C125 1.453 . S
C137 H166 0.982 . S
C137 H167 0.979 . S
C137 H168 0.977 . S
C138 C125 1.684 . S
C138 H163 0.979 . S
C138 H164 0.980 . S
C138 H165 0.983 . S
C139 C140 1.391 . S
C139 C144 1.391 . S
C139 H169 0.948 . S
C140 C139 1.391 . S
C140 C141 1.391 . S
C141 C140 1.391 . S
C141 C142 1.392 . S
C141 H170 0.947 . S
C142 C141 1.392 . S
C142 C143 1.419 . S
C142 H171 0.948 . S
C143 C142 1.419 . S
C143 C144 1.391 . S
C143 C147 1.397 1_556 S
C144 C139 1.391 . S
C144 C143 1.391 . S
C144 C145 1.399 1_556 S
C145 C144 1.399 1_554 S
C145 C146 1.396 . S
C145 C148 1.453 . S
C145 C149 1.684 . S
C146 C127 1.723 . S
C146 C145 1.396 . S
C146 C147 1.394 . S
C147 C143 1.397 1_554 S
C147 C146 1.394 . S
C147 C157 1.723 . S
C148 C145 1.453 . S
C148 H172 0.982 . S
C148 H173 0.979 . S
C148 H174 0.977 . S
C149 C145 1.684 . S
C149 H175 0.979 . S
C149 H176 0.980 . S
C149 H177 0.983 . S
C150 H126 0.948 . S
C150 C151 1.391 1_556 S
C150 C155 1.391 1_556 S
C151 C150 1.391 1_554 S
C151 C152 1.391 . S
C152 H129 0.947 . S
C152 C151 1.391 . S
C152 C153 1.392 . S
C153 H130 0.948 . S
C153 C152 1.392 . S
C153 C154 1.419 . S
C154 C153 1.419 . S
C154 C155 1.391 . S
C154 C158 1.397 . S
C155 C150 1.391 1_554 S
C155 C154 1.391 . S
C155 C156 1.399 1_554 S
C156 C155 1.399 1_556 S
C156 C157 1.396 1_556 S
C156 C159 1.453 . S
C156 C160 1.684 . S
C157 C147 1.723 . S
C157 C156 1.396 1_554 S
C157 C158 1.394 . S
C158 C128 1.723 . S
C158 C154 1.397 . S
C158 C157 1.394 . S
C159 H131 0.982 . S
C159 H135 0.979 . S
C159 H136 0.977 . S
C159 C156 1.453 . S
C160 H132 0.979 . S
C160 H133 0.980 . S
C160 H134 0.983 . S
C160 C156 1.684 . S
H161 C179 0.948 . S
H162 C120 0.948 . S
H163 C138 0.979 . S
H164 C138 0.980 . S
H165 C138 0.983 . S
H166 C137 0.982 . S
H167 C137 0.979 . S
H168 C137 0.977 . S
H169 C139 0.948 . S
H170 C141 0.947 . S
H171 C142 0.948 . S
H172 C148 0.982 . S
H173 C148 0.979 . S
H174 C148 0.977 . S
H175 C149 0.979 . S
H176 C149 0.980 . S
H177 C149 0.983 . S
H178 C122 0.947 . S
C179 C122 1.392 . S
C179 C123 1.419 . S
C179 H161 0.948 . S
C180 C181 1.391 . S
C180 C184 1.391 . S
C180 H222 0.948 . S
C181 C180 1.391 . S
C181 C182 1.391 . S
C182 C181 1.391 . S
C182 H238 0.947 . S
C182 C239 1.392 . S
C183 C184 1.391 . S
C183 C187 1.397 . S
C183 C239 1.419 . S
C184 C180 1.391 . S
C184 C183 1.391 . S
C184 C185 1.399 . S
C185 C184 1.399 . S
C185 C188 1.396 . S
C185 C197 1.453 . S
C185 C198 1.684 . S
H186 C210 0.948 . S
C187 C183 1.397 . S
C187 C188 1.394 . S
C187 C206 1.723 . S
C188 C185 1.396 . S
C188 C187 1.394 . S
C188 C218 1.723 . S
H189 C212 0.947 . S
H190 C213 0.948 . S
H191 C219 0.982 . S
H192 C220 0.979 . S
H193 C220 0.980 . S
H194 C220 0.983 . S
H195 C219 0.979 . S
H196 C219 0.977 . S
C197 C185 1.453 . S
C197 H226 0.982 . S
C197 H227 0.979 . S
C197 H228 0.977 . S
C198 C185 1.684 . S
C198 H223 0.979 . S
C198 H224 0.980 . S
C198 H225 0.983 . S
C199 C200 1.391 . S
C199 C204 1.391 . S
C199 H229 0.948 . S
C200 C199 1.391 . S
C200 C201 1.391 . S
C201 C200 1.391 . S
C201 C202 1.392 . S
C201 H230 0.947 . S
C202 C201 1.392 . S
C202 C203 1.419 . S
C202 H231 0.948 . S
C203 C202 1.419 . S
C203 C204 1.391 . S
C203 C207 1.397 . S
C204 C199 1.391 . S
C204 C203 1.391 . S
C204 C205 1.399 . S
C205 C204 1.399 . S
C205 C206 1.396 . S
C205 C208 1.453 . S
C205 C209 1.684 . S
C206 C187 1.723 . S
C206 C205 1.396 . S
C206 C207 1.394 . S
C207 C203 1.397 . S
C207 C206 1.394 . S
C207 C217 1.723 . S
C208 C205 1.453 . S
C208 H232 0.982 . S
C208 H233 0.979 . S
C208 H234 0.977 . S
C209 C205 1.684 . S
C209 H235 0.979 . S
C209 H236 0.980 . S
C209 H237 0.983 . S
C210 H186 0.948 . S
C210 C211 1.391 . S
C210 C215 1.391 . S
C211 C210 1.391 . S
C211 C212 1.391 . S
C212 H189 0.947 . S
C212 C211 1.391 . S
C212 C213 1.392 . S
C213 H190 0.948 . S
C213 C212 1.392 . S
C213 C214 1.419 . S
C214 C213 1.419 . S
C214 C215 1.391 . S
C214 C218 1.397 . S
C215 C210 1.391 . S
C215 C214 1.391 . S
C215 C216 1.399 . S
C216 C215 1.399 . S
C216 C217 1.396 . S
C216 C219 1.453 . S
C216 C220 1.684 . S
C217 C207 1.723 . S
C217 C216 1.396 . S
C217 C218 1.394 . S
C218 C188 1.723 . S
C218 C214 1.397 . S
C218 C217 1.394 . S
C219 H191 0.982 . S
C219 H195 0.979 . S
C219 H196 0.977 . S
C219 C216 1.453 . S
C220 H192 0.979 . S
C220 H193 0.980 . S
C220 H194 0.983 . S
C220 C216 1.684 . S
H221 C239 0.948 . S
H222 C180 0.948 . S
H223 C198 0.979 . S
H224 C198 0.980 . S
H225 C198 0.983 . S
H226 C197 0.982 . S
H227 C197 0.979 . S
H228 C197 0.977 . S
H229 C199 0.948 . S
H230 C201 0.947 . S
H231 C202 0.948 . S
H232 C208 0.982 . S
H233 C208 0.979 . S
H234 C208 0.977 . S
H235 C209 0.979 . S
H236 C209 0.980 . S
H237 C209 0.983 . S
H238 C182 0.947 . S
C239 C182 1.392 . S
C239 C183 1.419 . S
C239 H221 0.948 . S
Tb240 N269 2.617 . S
Tb240 N275 2.572 . S
Tb240 O284 2.465 . S
Tb240 O285 2.387 . S
Tb240 O287 2.428 . S
Tb240 O288 2.308 1_565 S
Tb240 O292 2.349 1_455 S
Tb240 O295 2.393 1_455 S
Tb240 C304 2.802 . S
C241 N242 1.379 . S
C241 C244 1.416 . S
C241 C248 1.424 . S
N242 C241 1.379 . S
N242 C245 1.311 1_655 S
N242 Tb251 2.617 . S
C243 C245 1.390 1_655 S
C243 C246 1.339 . S
C243 H263 0.930 1_655 S
C244 C241 1.416 . S
C244 C246 1.416 . S
C244 C250 1.448 . S
C245 N242 1.311 1_455 S
C245 C243 1.390 1_455 S
C245 H256 0.955 . S
C246 C243 1.339 . S
C246 C244 1.416 . S
C246 H267 0.930 . S
C247 C248 1.413 . S
C247 C249 1.427 . S
C247 C253 1.416 . S
C248 C241 1.424 . S
C248 C247 1.413 . S
C248 N252 1.361 . S
C249 C247 1.427 . S
C249 C250 1.328 . S
C249 H264 0.929 . S
C250 C244 1.448 . S
C250 C249 1.328 . S
C250 H265 0.930 . S
Tb251 N242 2.617 . S
Tb251 N252 2.572 . S
Tb251 O286 2.349 1_655 S
Tb251 O289 2.393 1_655 S
Tb251 O290 2.465 . S
Tb251 O291 2.387 . S
Tb251 O293 2.428 . S
Tb251 O294 2.308 1_545 S
Tb251 C315 2.802 . S
N252 C248 1.361 . S
N252 Tb251 2.572 . S
N252 C254 1.340 . S
C253 C247 1.416 . S
C253 C255 1.332 . S
C253 H261 0.931 . S
C254 N252 1.340 . S
C254 C255 1.407 . S
C254 H260 0.930 . S
C255 C253 1.332 . S
C255 C254 1.407 . S
C255 H257 0.929 . S
H256 C245 0.955 . S
H257 C255 0.929 . S
H258 C273 0.930 1_655 S
H259 C280 0.929 . S
H260 C254 0.930 . S
H261 C253 0.931 . S
H262 C276 0.930 . S
H263 C243 0.930 1_455 S
H264 C249 0.929 . S
H265 C250 0.930 . S
H266 C271 0.930 1_655 S
H267 C246 0.930 . S
H268 C279 0.931 . S
N269 Tb240 2.617 . S
N269 C270 1.379 . S
N269 C273 1.334 . S
C270 N269 1.379 . S
C270 C272 1.416 . S
C270 C278 1.424 . S
C271 H266 0.930 1_455 S
C271 C273 1.390 . S
C271 C274 1.339 . S
C272 C270 1.416 . S
C272 C274 1.416 . S
C272 C305 1.448 . S
C273 H258 0.930 1_455 S
C273 N269 1.334 . S
C273 C271 1.390 . S
C274 C271 1.339 . S
C274 C272 1.416 . S
C274 H281 0.930 . S
N275 Tb240 2.572 . S
N275 C276 1.340 . S
N275 C278 1.361 . S
C276 H262 0.930 . S
C276 N275 1.340 . S
C276 C280 1.407 . S
C277 C278 1.413 . S
C277 C279 1.416 . S
C277 C306 1.427 . S
C278 C270 1.424 . S
C278 N275 1.361 . S
C278 C277 1.413 . S
C279 H268 0.931 . S
C279 C277 1.416 . S
C279 C280 1.332 . S
C280 H259 0.929 . S
C280 C276 1.407 . S
C280 C279 1.332 . S
H281 C274 0.930 . S
H282 C305 0.930 . S
H283 C306 0.929 . S
O284 Tb240 2.465 . S
O284 C304 1.264 . S
O285 Tb240 2.387 . S
O285 C296 1.264 . S
O286 Tb251 2.349 1_455 S
O286 C296 1.243 1_545 S
O287 Tb240 2.428 . S
O287 C304 1.256 . S
O288 Tb240 2.308 1_545 S
O288 C303 1.266 . S
O289 Tb251 2.393 1_455 S
O289 C303 1.248 . S
O290 Tb251 2.465 . S
O290 C315 1.264 . S
O291 Tb251 2.387 . S
O291 C307 1.264 . S
O292 Tb240 2.349 1_655 S
O292 C307 1.243 1_565 S
O293 Tb251 2.428 . S
O293 C315 1.256 . S
O294 Tb251 2.308 1_565 S
O294 C314 1.266 . S
O295 Tb240 2.393 1_655 S
O295 C314 1.248 . S
C296 O285 1.264 . S
C296 O286 1.243 1_565 S
C297 C300 1.399 . S
C297 C302 1.383 . S
C297 C304 1.496 . S
C298 C299 1.399 . S
C298 C302 1.389 . S
C299 C298 1.399 . S
C299 C301 1.380 . S
C299 H316 0.929 . S
C300 C297 1.399 . S
C300 C301 1.392 . S
C300 H317 0.929 . S
C301 C299 1.380 . S
C301 C300 1.392 . S
C301 H318 0.929 . S
C302 C297 1.383 . S
C302 C298 1.389 . S
C302 H319 0.931 . S
C303 O288 1.266 . S
C303 O289 1.248 . S
C304 Tb240 2.802 . S
C304 O284 1.264 . S
C304 O287 1.256 . S
C304 C297 1.496 . S
C305 C272 1.448 . S
C305 H282 0.930 . S
C305 C306 1.328 . S
C306 C277 1.427 . S
C306 H283 0.929 . S
C306 C305 1.328 . S
C307 O291 1.264 . S
C307 O292 1.243 1_545 S
C308 C311 1.399 . S
C308 C312 1.383 . S
C308 C315 1.496 . S
C309 C310 1.399 . S
C309 C312 1.389 . S
C310 C309 1.399 . S
C310 C313 1.380 . S
C310 H320 0.929 . S
C311 C308 1.399 . S
C311 C313 1.392 . S
C311 H321 0.929 . S
C312 C308 1.383 . S
C312 C309 1.389 . S
C312 H322 0.931 . S
C313 C310 1.380 . S
C313 C311 1.392 . S
C313 H323 0.929 . S
C314 O294 1.266 . S
C314 O295 1.248 . S
C315 Tb251 2.802 . S
C315 O290 1.264 . S
C315 O293 1.256 . S
C315 C308 1.496 . S
H316 C299 0.929 . S
H317 C300 0.929 . S
H318 C301 0.929 . S
H319 C302 0.931 . S
H320 C310 0.929 . S
H321 C311 0.929 . S
H322 C312 0.931 . S
H323 C313 0.929 . S
Tb324 N353 2.617 . S
Tb324 N359 2.572 1_556 S
Tb324 O368 2.465 . S
Tb324 O369 2.387 1_556 S
Tb324 O371 2.428 . S
Tb324 O372 2.308 1_556 S
Tb324 O376 2.349 . S
Tb324 O379 2.393 . S
Tb324 C388 2.802 . S
C325 N326 1.379 . S
C325 C328 1.416 . S
C325 C332 1.424 . S
N326 C325 1.379 . S
N326 C329 1.334 . S
N326 Tb335 2.617 . S
C327 C329 1.390 . S
C327 C330 1.339 . S
C327 H347 0.930 . S
C328 C325 1.416 . S
C328 C330 1.416 . S
C328 C334 1.448 . S
C329 N326 1.334 . S
C329 C327 1.390 . S
C329 H340 0.930 . S
C330 C327 1.339 . S
C330 C328 1.416 . S
C330 H351 0.930 . S
C331 C332 1.413 . S
C331 C333 1.427 . S
C331 C337 1.416 . S
C332 C325 1.424 . S
C332 C331 1.413 . S
C332 N336 1.361 . S
C333 C331 1.427 . S
C333 C334 1.328 . S
C333 H348 0.929 . S
C334 C328 1.448 . S
C334 C333 1.328 . S
C334 H349 0.930 . S
Tb335 N326 2.617 . S
Tb335 N336 2.572 . S
Tb335 O370 2.349 . S
Tb335 O373 2.393 . S
Tb335 O374 2.465 . S
Tb335 O375 2.387 1_554 S
Tb335 O377 2.428 . S
Tb335 O378 2.308 . S
Tb335 C399 2.802 . S
N336 C332 1.361 . S
N336 Tb335 2.572 . S
N336 C338 1.340 . S
C337 C331 1.416 . S
C337 C339 1.332 . S
C337 H345 0.931 . S
C338 N336 1.340 . S
C338 C339 1.407 . S
C338 H344 0.930 . S
C339 C337 1.332 . S
C339 C338 1.407 . S
C339 H341 0.929 . S
H340 C329 0.930 . S
H341 C339 0.929 . S
H342 C357 0.930 . S
H343 C364 0.929 . S
H344 C338 0.930 . S
H345 C337 0.931 . S
H346 C360 0.930 . S
H347 C327 0.930 . S
H348 C333 0.929 . S
H349 C334 0.930 . S
H350 C355 0.930 . S
H351 C330 0.930 . S
H352 C363 0.931 . S
N353 Tb324 2.617 . S
N353 C354 1.379 1_556 S
N353 C357 1.334 . S
C354 N353 1.379 1_554 S
C354 C356 1.416 . S
C354 C362 1.424 . S
C355 H350 0.930 . S
C355 C357 1.390 . S
C355 C358 1.339 1_556 S
C356 C354 1.416 . S
C356 C358 1.416 . S
C356 C389 1.448 . S
C357 H342 0.930 . S
C357 N353 1.334 . S
C357 C355 1.390 . S
C358 C355 1.339 1_554 S
C358 C356 1.416 . S
C358 H365 0.930 . S
N359 Tb324 2.572 1_554 S
N359 C360 1.340 . S
N359 C362 1.361 . S
C360 H346 0.930 . S
C360 N359 1.340 . S
C360 C364 1.407 . S
C361 C362 1.413 . S
C361 C363 1.416 . S
C361 C390 1.427 . S
C362 C354 1.424 . S
C362 N359 1.361 . S
C362 C361 1.413 . S
C363 H352 0.931 . S
C363 C361 1.416 . S
C363 C364 1.332 . S
C364 H343 0.929 . S
C364 C360 1.407 . S
C364 C363 1.332 . S
H365 C358 0.930 . S
H366 C389 0.930 . S
H367 C390 0.929 . S
O368 Tb324 2.465 . S
O368 C388 1.264 . S
O369 Tb324 2.387 1_554 S
O369 C380 1.264 . S
O370 Tb335 2.349 . S
O370 C380 1.243 . S
O371 Tb324 2.428 . S
O371 C388 1.256 . S
O372 Tb324 2.308 1_554 S
O372 C387 1.266 . S
O373 Tb335 2.393 . S
O373 C387 1.248 . S
O374 Tb335 2.465 . S
O374 C399 1.264 . S
O375 Tb335 2.387 1_556 S
O375 C391 1.264 . S
O376 Tb324 2.349 . S
O376 C391 1.243 . S
O377 Tb335 2.428 . S
O377 C399 1.256 . S
O378 Tb335 2.308 . S
O378 C398 1.266 . S
O379 Tb324 2.393 . S
O379 C398 1.248 1_556 S
C380 O369 1.264 . S
C380 O370 1.243 . S
C381 C384 1.399 . S
C381 C386 1.383 . S
C381 C388 1.496 . S
C382 C383 1.399 . S
C382 C386 1.389 . S
C383 C382 1.399 . S
C383 C385 1.380 . S
C383 H400 0.929 . S
C384 C381 1.399 . S
C384 C385 1.392 . S
C384 H401 0.929 . S
C385 C383 1.380 . S
C385 C384 1.392 . S
C385 H402 0.929 . S
C386 C381 1.383 . S
C386 C382 1.389 . S
C386 H403 0.931 . S
C387 O372 1.266 . S
C387 O373 1.248 . S
C388 Tb324 2.802 . S
C388 O368 1.264 . S
C388 O371 1.256 . S
C388 C381 1.496 . S
C389 C356 1.448 . S
C389 H366 0.930 . S
C389 C390 1.328 . S
C390 C361 1.427 . S
C390 H367 0.929 . S
C390 C389 1.328 . S
C391 O375 1.264 . S
C391 O376 1.243 . S
C392 C395 1.399 . S
C392 C396 1.383 . S
C392 C399 1.496 . S
C393 C394 1.399 . S
C393 C396 1.389 . S
C394 C393 1.399 . S
C394 C397 1.380 . S
C394 H404 0.929 . S
C395 C392 1.399 . S
C395 C397 1.392 . S
C395 H405 0.929 . S
C396 C392 1.383 . S
C396 C393 1.389 . S
C396 H406 0.931 . S
C397 C394 1.380 . S
C397 C395 1.392 . S
C397 H407 0.929 . S
C398 O378 1.266 . S
C398 O379 1.248 1_554 S
C399 Tb335 2.802 . S
C399 O374 1.264 . S
C399 O377 1.256 . S
C399 C392 1.496 . S
H400 C383 0.929 . S
H401 C384 0.929 . S
H402 C385 0.929 . S
H403 C386 0.931 . S
H404 C394 0.929 . S
H405 C395 0.929 . S
H406 C396 0.931 . S
H407 C397 0.929 . S
C408 C409 1.391 . S
C408 C410 1.394 . S
C408 H424 0.931 . S
C409 C408 1.391 . S
C409 C413 1.376 . S
C410 C408 1.394 . S
C410 C411 1.369 . S
C410 C414 1.531 . S
C411 C410 1.369 . S
C411 C412 1.410 . S
C411 C419 1.503 . S
C412 C411 1.410 . S
C412 C413 1.392 . S
C412 C415 1.511 . S
C413 C409 1.376 . S
C413 C412 1.392 . S
C413 H425 0.929 . S
C414 C410 1.531 . S
C414 H426 0.960 . S
C414 H427 0.962 . S
C414 H428 0.960 . S
C415 C412 1.511 . S
C415 H429 0.961 . S
C415 H430 0.961 . S
C415 H431 0.961 . S
C416 C417 1.370 . S
C416 C418 1.363 . S
C416 H432 0.931 . S
C417 C416 1.370 . S
C417 C421 1.408 . S
C418 C416 1.363 . S
C418 C419 1.370 . S
C418 C422 1.524 . S
C419 C411 1.503 . S
C419 C418 1.370 . S
C419 C420 1.403 . S
C420 C419 1.403 . S
C420 C421 1.404 . S
C420 C423 1.539 . S
C421 C417 1.408 . S
C421 C420 1.404 . S
C421 H433 0.930 . S
C422 C418 1.524 . S
C422 H434 0.956 . S
C422 H435 0.961 . S
C422 H436 0.961 . S
C423 C420 1.539 . S
C423 H437 0.958 . S
C423 H438 0.961 . S
C423 H439 0.960 . S
H424 C408 0.931 . S
H425 C413 0.929 . S
H426 C414 0.960 . S
H427 C414 0.962 . S
H428 C414 0.960 . S
H429 C415 0.961 . S
H430 C415 0.961 . S
H431 C415 0.961 . S
H432 C416 0.931 . S
H433 C421 0.930 . S
H434 C422 0.956 . S
H435 C422 0.961 . S
H436 C422 0.961 . S
H437 C423 0.958 . S
H438 C423 0.961 . S
H439 C423 0.960 . S
C440 C441 1.391 . S
C440 C442 1.394 . S
C440 H456 0.931 1_554 S
C441 C440 1.391 . S
C441 C445 1.376 . S
C442 C440 1.394 . S
C442 C443 1.369 . S
C442 C446 1.531 1_554 S
C443 C442 1.369 . S
C443 C444 1.410 . S
C443 C451 1.503 . S
C444 C443 1.410 . S
C444 C445 1.392 . S
C444 C447 1.511 . S
C445 C441 1.376 . S
C445 C444 1.392 . S
C445 H457 0.929 . S
C446 C442 1.531 1_556 S
C446 H458 0.960 . S
C446 H459 0.962 . S
C446 H460 0.960 . S
C447 C444 1.511 . S
C447 H461 0.961 . S
C447 H462 0.961 . S
C447 H463 0.961 . S
C448 C449 1.370 . S
C448 C450 1.363 . S
C448 H464 0.931 . S
C449 C448 1.370 . S
C449 C453 1.408 . S
C450 C448 1.363 . S
C450 C451 1.370 . S
C450 C454 1.524 . S
C451 C443 1.503 . S
C451 C450 1.370 . S
C451 C452 1.403 . S
C452 C451 1.403 . S
C452 C453 1.404 . S
C452 C455 1.539 1_554 S
C453 C449 1.408 . S
C453 C452 1.404 . S
C453 H465 0.930 1_554 S
C454 C450 1.524 . S
C454 H466 0.956 . S
C454 H467 0.961 . S
C454 H468 0.961 . S
C455 C452 1.539 1_556 S
C455 H469 0.958 . S
C455 H470 0.961 . S
C455 H471 0.960 . S
H456 C440 0.931 1_556 S
H457 C445 0.929 . S
H458 C446 0.960 . S
H459 C446 0.962 . S
H460 C446 0.960 . S
H461 C447 0.961 . S
H462 C447 0.961 . S
H463 C447 0.961 . S
H464 C448 0.931 . S
H465 C453 0.930 1_556 S
H466 C454 0.956 . S
H467 C454 0.961 . S
H468 C454 0.961 . S
H469 C455 0.958 . S
H470 C455 0.961 . S
H471 C455 0.960 . S
C472 C473 1.391 . S
C472 C474 1.394 . S
C472 H488 0.931 . S
C473 C472 1.391 . S
C473 C477 1.376 . S
C474 C472 1.394 . S
C474 C475 1.369 . S
C474 C478 1.531 . S
C475 C474 1.369 . S
C475 C476 1.410 . S
C475 C483 1.503 . S
C476 C475 1.410 . S
C476 C477 1.392 . S
C476 C479 1.511 . S
C477 C473 1.376 . S
C477 C476 1.392 . S
C477 H489 0.929 . S
C478 C474 1.531 . S
C478 H490 0.960 . S
C478 H491 0.962 . S
C478 H492 0.960 . S
C479 C476 1.511 . S
C479 H493 0.961 . S
C479 H494 0.961 . S
C479 H495 0.961 . S
C480 C481 1.370 . S
C480 C482 1.363 . S
C480 H496 0.931 . S
C481 C480 1.370 . S
C481 C485 1.408 . S
C482 C480 1.363 . S
C482 C483 1.370 . S
C482 C486 1.524 . S
C483 C475 1.503 . S
C483 C482 1.370 . S
C483 C484 1.403 . S
C484 C483 1.403 . S
C484 C485 1.404 . S
C484 C487 1.539 . S
C485 C481 1.408 . S
C485 C484 1.404 . S
C485 H497 0.930 . S
C486 C482 1.524 . S
C486 H498 0.956 . S
C486 H499 0.961 . S
C486 H500 0.961 . S
C487 C484 1.539 . S
C487 H501 0.958 . S
C487 H502 0.961 . S
C487 H503 0.960 . S
H488 C472 0.931 . S
H489 C477 0.929 . S
H490 C478 0.960 . S
H491 C478 0.962 . S
H492 C478 0.960 . S
H493 C479 0.961 . S
H494 C479 0.961 . S
H495 C479 0.961 . S
H496 C480 0.931 . S
H497 C485 0.930 . S
H498 C486 0.956 . S
H499 C486 0.961 . S
H500 C486 0.961 . S
H501 C487 0.958 . S
H502 C487 0.961 . S
H503 C487 0.960 . S
C504 C505 1.391 1_556 S
C504 C506 1.394 . S
C504 H520 0.931 . S
C505 C504 1.391 1_554 S
C505 C509 1.376 . S
C506 C504 1.394 . S
C506 C507 1.369 1_556 S
C506 C510 1.531 . S
C507 C506 1.369 1_554 S
C507 C508 1.410 . S
C507 C515 1.503 . S
C508 C507 1.410 . S
C508 C509 1.392 . S
C508 C511 1.511 . S
C509 C505 1.376 . S
C509 C508 1.392 . S
C509 H521 0.929 . S
C510 C506 1.531 . S
C510 H522 0.960 . S
C510 H523 0.962 . S
C510 H524 0.960 . S
C511 C508 1.511 . S
C511 H525 0.961 . S
C511 H526 0.961 . S
C511 H527 0.961 . S
C512 C513 1.370 . S
C512 C514 1.363 . S
C512 H528 0.931 . S
C513 C512 1.370 . S
C513 C517 1.408 . S
C514 C512 1.363 . S
C514 C515 1.370 . S
C514 C518 1.524 . S
C515 C507 1.503 . S
C515 C514 1.370 . S
C515 C516 1.401 1_554 S
C516 C515 1.401 1_556 S
C516 C517 1.402 1_556 S
C516 C519 1.542 . S
C517 C513 1.408 . S
C517 C516 1.402 1_554 S
C517 H529 0.930 1_554 S
C518 C514 1.524 . S
C518 H530 0.956 . S
C518 H531 0.961 . S
C518 H532 0.961 . S
C519 C516 1.542 . S
C519 H533 0.958 . S
C519 H534 0.961 . S
C519 H535 0.960 . S
H520 C504 0.931 . S
H521 C509 0.929 . S
H522 C510 0.960 . S
H523 C510 0.962 . S
H524 C510 0.960 . S
H525 C511 0.961 . S
H526 C511 0.961 . S
H527 C511 0.961 . S
H528 C512 0.931 . S
H529 C517 0.930 1_556 S
H530 C518 0.956 . S
H531 C518 0.961 . S
H532 C518 0.961 . S
H533 C519 0.958 . S
H534 C519 0.961 . S
H535 C519 0.960 . S
C536 C537 1.391 . S
C536 C538 1.394 . S
C536 H552 0.931 . S
C537 C536 1.391 . S
C537 C541 1.376 . S
C538 C536 1.394 . S
C538 C539 1.369 . S
C538 C542 1.531 . S
C539 C538 1.369 . S
C539 C540 1.410 . S
C539 C547 1.503 . S
C540 C539 1.410 . S
C540 C541 1.392 . S
C540 C543 1.511 . S
C541 C537 1.376 . S
C541 C540 1.392 . S
C541 H553 0.929 . S
C542 C538 1.531 . S
C542 H554 0.960 . S
C542 H555 0.962 . S
C542 H556 0.960 . S
C543 C540 1.511 . S
C543 H557 0.961 . S
C543 H558 0.961 . S
C543 H559 0.961 . S
C544 C545 1.370 . S
C544 C546 1.363 . S
C544 H560 0.931 . S
C545 C544 1.370 . S
C545 C549 1.408 . S
C546 C544 1.363 . S
C546 C547 1.370 . S
C546 C550 1.524 . S
C547 C539 1.503 . S
C547 C546 1.370 . S
C547 C548 1.403 . S
C548 C547 1.403 . S
C548 C549 1.404 . S
C548 C551 1.539 . S
C549 C545 1.408 . S
C549 C548 1.404 . S
C549 H561 0.930 . S
C550 C546 1.524 . S
C550 H562 0.956 . S
C550 H563 0.961 . S
C550 H564 0.961 1_565 S
C551 C548 1.539 . S
C551 H565 0.958 . S
C551 H566 0.961 . S
C551 H567 0.960 . S
H552 C536 0.931 . S
H553 C541 0.929 . S
H554 C542 0.960 . S
H555 C542 0.962 . S
H556 C542 0.960 . S
H557 C543 0.961 . S
H558 C543 0.961 . S
H559 C543 0.961 . S
H560 C544 0.931 . S
H561 C549 0.930 . S
H562 C550 0.956 . S
H563 C550 0.961 . S
H564 C550 0.961 1_545 S
H565 C551 0.958 . S
H566 C551 0.961 . S
H567 C551 0.960 . S
C568 C569 1.391 . S
C568 C570 1.394 . S
C568 H584 0.931 . S
C569 C568 1.391 . S
C569 C573 1.376 . S
C570 C568 1.394 . S
C570 C571 1.369 . S
C570 C574 1.531 . S
C571 C570 1.369 . S
C571 C572 1.410 . S
C571 C579 1.503 . S
C572 C571 1.410 . S
C572 C573 1.392 . S
C572 C575 1.511 . S
C573 C569 1.376 . S
C573 C572 1.392 . S
C573 H585 0.929 . S
C574 C570 1.531 . S
C574 H586 0.960 . S
C574 H587 0.962 . S
C574 H588 0.960 . S
C575 C572 1.511 . S
C575 H589 0.961 . S
C575 H590 0.961 . S
C575 H591 0.961 . S
C576 C577 1.370 . S
C576 C578 1.363 . S
C576 H592 0.931 . S
C577 C576 1.370 . S
C577 C581 1.408 . S
C578 C576 1.363 . S
C578 C579 1.370 . S
C578 C582 1.524 . S
C579 C571 1.503 . S
C579 C578 1.370 . S
C579 C580 1.403 . S
C580 C579 1.403 . S
C580 C581 1.404 . S
C580 C583 1.539 . S
C581 C577 1.408 . S
C581 C580 1.404 . S
C581 H593 0.930 . S
C582 C578 1.524 . S
C582 H594 0.956 . S
C582 H595 0.961 . S
C582 H596 0.961 . S
C583 C580 1.539 . S
C583 H597 0.958 . S
C583 H598 0.961 . S
C583 H599 0.960 . S
H584 C568 0.931 . S
H585 C573 0.929 . S
H586 C574 0.960 . S
H587 C574 0.962 . S
H588 C574 0.960 . S
H589 C575 0.961 . S
H590 C575 0.961 . S
H591 C575 0.961 . S
H592 C576 0.931 . S
H593 C581 0.930 . S
H594 C582 0.956 . S
H595 C582 0.961 . S
H596 C582 0.961 . S
H597 C583 0.958 . S
H598 C583 0.961 . S
H599 C583 0.960 . S
C600 C601 1.391 . S
C600 C602 1.394 . S
C600 H616 0.931 . S
C601 C600 1.391 . S
C601 C605 1.376 . S
C602 C600 1.394 . S
C602 C603 1.369 . S
C602 C606 1.531 . S
C603 C602 1.369 . S
C603 C604 1.410 . S
C603 C611 1.503 . S
C604 C603 1.410 . S
C604 C605 1.392 . S
C604 C607 1.511 . S
C605 C601 1.376 . S
C605 C604 1.392 . S
C605 H617 0.929 . S
C606 C602 1.531 . S
C606 H618 0.960 . S
C606 H619 0.962 . S
C606 H620 0.960 . S
C607 C604 1.511 . S
C607 H621 0.961 1_545 S
C607 H622 0.961 1_545 S
C607 H623 0.961 . S
C608 C609 1.370 . S
C608 C610 1.363 . S
C608 H624 0.931 . S
C609 C608 1.370 . S
C609 C613 1.408 . S
C610 C608 1.363 . S
C610 C611 1.370 . S
C610 C614 1.524 . S
C611 C603 1.503 . S
C611 C610 1.370 . S
C611 C612 1.403 . S
C612 C611 1.403 . S
C612 C613 1.404 . S
C612 C615 1.539 . S
C613 C609 1.408 . S
C613 C612 1.404 . S
C613 H625 0.930 . S
C614 C610 1.524 . S
C614 H626 0.956 . S
C614 H627 0.961 1_545 S
C614 H628 0.961 1_545 S
C615 C612 1.539 . S
C615 H629 0.958 . S
C615 H630 0.961 . S
C615 H631 0.960 . S
H616 C600 0.931 . S
H617 C605 0.929 . S
H618 C606 0.960 . S
H619 C606 0.962 . S
H620 C606 0.960 . S
H621 C607 0.961 1_565 S
H622 C607 0.961 1_565 S
H623 C607 0.961 . S
H624 C608 0.931 . S
H625 C613 0.930 . S
H626 C614 0.956 . S
H627 C614 0.961 1_565 S
H628 C614 0.961 1_565 S
H629 C615 0.958 . S
H630 C615 0.961 . S
H631 C615 0.960 . S
C632 C633 1.391 . S
C632 C634 1.394 . S
C632 H648 0.931 . S
C633 C632 1.391 . S
C633 C637 1.376 . S
C634 C632 1.394 . S
C634 C635 1.369 . S
C634 C638 1.531 . S
C635 C634 1.369 . S
C635 C636 1.410 . S
C635 C643 1.503 . S
C636 C635 1.410 . S
C636 C637 1.392 . S
C636 C639 1.511 . S
C637 C633 1.376 . S
C637 C636 1.392 . S
C637 H649 0.929 . S
C638 C634 1.531 . S
C638 H650 0.960 . S
C638 H651 0.962 . S
C638 H652 0.960 . S
C639 C636 1.511 . S
C639 H653 0.961 . S
C639 H654 0.961 . S
C639 H655 0.961 . S
C640 C641 1.370 . S
C640 C642 1.363 . S
C640 H656 0.931 . S
C641 C640 1.370 . S
C641 C645 1.408 . S
C642 C640 1.363 . S
C642 C643 1.370 . S
C642 C646 1.524 . S
C643 C635 1.503 . S
C643 C642 1.370 . S
C643 C644 1.403 . S
C644 C643 1.403 . S
C644 C645 1.404 . S
C644 C647 1.539 . S
C645 C641 1.408 . S
C645 C644 1.404 . S
C645 H657 0.930 . S
C646 C642 1.524 . S
C646 H658 0.956 . S
C646 H659 0.961 . S
C646 H660 0.961 . S
C647 C644 1.539 . S
C647 H661 0.958 . S
C647 H662 0.961 . S
C647 H663 0.960 . S
H648 C632 0.931 . S
H649 C637 0.929 . S
H650 C638 0.960 . S
H651 C638 0.962 . S
H652 C638 0.960 . S
H653 C639 0.961 . S
H654 C639 0.961 . S
H655 C639 0.961 . S
H656 C640 0.931 . S
H657 C645 0.930 . S
H658 C646 0.956 . S
H659 C646 0.961 . S
H660 C646 0.961 . S
H661 C647 0.958 . S
H662 C647 0.961 . S
H663 C647 0.960 . S
C664 C665 1.391 . S
C664 C666 1.394 . S
C664 H680 0.931 . S
C665 C664 1.391 . S
C665 C669 1.376 . S
C666 C664 1.394 . S
C666 C667 1.369 . S
C666 C670 1.531 . S
C667 C666 1.369 . S
C667 C668 1.410 . S
C667 C675 1.503 . S
C668 C667 1.410 . S
C668 C669 1.392 . S
C668 C671 1.511 . S
C669 C665 1.376 . S
C669 C668 1.392 . S
C669 H681 0.929 . S
C670 C666 1.531 . S
C670 H682 0.960 . S
C670 H683 0.962 . S
C670 H684 0.960 . S
C671 C668 1.511 . S
C671 H685 0.961 . S
C671 H686 0.961 . S
C671 H687 0.961 . S
C672 C673 1.370 . S
C672 C674 1.363 . S
C672 H688 0.931 . S
C673 C672 1.370 . S
C673 C677 1.408 . S
C674 C672 1.363 . S
C674 C675 1.370 . S
C674 C678 1.524 . S
C675 C667 1.503 . S
C675 C674 1.370 . S
C675 C676 1.403 . S
C676 C675 1.403 . S
C676 C677 1.404 . S
C676 C679 1.539 . S
C677 C673 1.408 . S
C677 C676 1.404 . S
C677 H689 0.930 . S
C678 C674 1.524 . S
C678 H690 0.956 . S
C678 H691 0.961 . S
C678 H692 0.961 . S
C679 C676 1.539 . S
C679 H693 0.958 . S
C679 H694 0.961 . S
C679 H695 0.960 . S
H680 C664 0.931 . S
H681 C669 0.929 . S
H682 C670 0.960 . S
H683 C670 0.962 . S
H684 C670 0.960 . S
H685 C671 0.961 . S
H686 C671 0.961 . S
H687 C671 0.961 . S
H688 C672 0.931 . S
H689 C677 0.930 . S
H690 C678 0.956 . S
H691 C678 0.961 . S
H692 C678 0.961 . S
H693 C679 0.958 . S
H694 C679 0.961 . S
H695 C679 0.960 . S
C696 C697 1.391 . S
C696 C698 1.394 . S
C696 H712 0.931 . S
C697 C696 1.391 . S
C697 C701 1.376 . S
C698 C696 1.394 . S
C698 C699 1.369 . S
C698 C702 1.531 . S
C699 C698 1.369 . S
C699 C700 1.410 . S
C699 C707 1.503 . S
C700 C699 1.410 . S
C700 C701 1.392 . S
C700 C703 1.511 . S
C701 C697 1.376 . S
C701 C700 1.392 . S
C701 H713 0.929 . S
C702 C698 1.531 . S
C702 H714 0.960 . S
C702 H715 0.962 . S
C702 H716 0.960 . S
C703 C700 1.511 . S
C703 H717 0.961 . S
C703 H718 0.961 . S
C703 H719 0.961 . S
C704 C705 1.370 . S
C704 C706 1.363 . S
C704 H720 0.931 . S
C705 C704 1.370 . S
C705 C709 1.408 . S
C706 C704 1.363 . S
C706 C707 1.370 . S
C706 C710 1.524 . S
C707 C699 1.503 . S
C707 C706 1.370 . S
C707 C708 1.403 . S
C708 C707 1.403 . S
C708 C709 1.404 . S
C708 C711 1.539 . S
C709 C705 1.408 . S
C709 C708 1.404 . S
C709 H721 0.930 . S
C710 C706 1.524 . S
C710 H722 0.956 . S
C710 H723 0.961 . S
C710 H724 0.961 1_545 S
C711 C708 1.539 . S
C711 H725 0.958 . S
C711 H726 0.961 . S
C711 H727 0.960 . S
H712 C696 0.931 . S
H713 C701 0.929 . S
H714 C702 0.960 . S
H715 C702 0.962 . S
H716 C702 0.960 . S
H717 C703 0.961 . S
H718 C703 0.961 . S
H719 C703 0.961 . S
H720 C704 0.931 . S
H721 C709 0.930 . S
H722 C710 0.956 . S
H723 C710 0.961 . S
H724 C710 0.961 1_565 S
H725 C711 0.958 . S
H726 C711 0.961 . S
H727 C711 0.960 . S
C728 C729 1.391 . S
C728 C730 1.394 . S
C728 H744 0.931 . S
C729 C728 1.391 . S
C729 C733 1.376 . S
C730 C728 1.394 . S
C730 C731 1.369 . S
C730 C734 1.531 . S
C731 C730 1.369 . S
C731 C732 1.410 . S
C731 C739 1.503 . S
C732 C731 1.410 . S
C732 C733 1.392 . S
C732 C735 1.511 . S
C733 C729 1.376 . S
C733 C732 1.392 . S
C733 H745 0.929 . S
C734 C730 1.531 . S
C734 H746 0.960 . S
C734 H747 0.962 . S
C734 H748 0.960 . S
C735 C732 1.511 . S
C735 H749 0.961 . S
C735 H750 0.961 . S
C735 H751 0.961 . S
C736 C737 1.370 . S
C736 C738 1.363 . S
C736 H752 0.931 . S
C737 C736 1.370 . S
C737 C741 1.408 . S
C738 C736 1.363 . S
C738 C739 1.370 . S
C738 C742 1.524 . S
C739 C731 1.503 . S
C739 C738 1.370 . S
C739 C740 1.403 . S
C740 C739 1.403 . S
C740 C741 1.404 . S
C740 C743 1.539 . S
C741 C737 1.408 . S
C741 C740 1.404 . S
C741 H753 0.930 . S
C742 C738 1.524 . S
C742 H754 0.956 . S
C742 H755 0.961 . S
C742 H756 0.961 . S
C743 C740 1.539 . S
C743 H757 0.958 . S
C743 H758 0.961 . S
C743 H759 0.960 . S
H744 C728 0.931 . S
H745 C733 0.929 . S
H746 C734 0.960 . S
H747 C734 0.962 . S
H748 C734 0.960 . S
H749 C735 0.961 . S
H750 C735 0.961 . S
H751 C735 0.961 . S
H752 C736 0.931 . S
H753 C741 0.930 . S
H754 C742 0.956 . S
H755 C742 0.961 . S
H756 C742 0.961 . S
H757 C743 0.958 . S
H758 C743 0.961 . S
H759 C743 0.960 . S
C760 C761 1.391 . S
C760 C762 1.394 . S
C760 H776 0.931 . S
C761 C760 1.391 . S
C761 C765 1.376 . S
C762 C760 1.394 . S
C762 C763 1.369 . S
C762 C766 1.531 . S
C763 C762 1.369 . S
C763 C764 1.410 . S
C763 C771 1.503 . S
C764 C763 1.410 . S
C764 C765 1.392 . S
C764 C767 1.511 . S
C765 C761 1.376 . S
C765 C764 1.392 . S
C765 H777 0.929 . S
C766 C762 1.531 . S
C766 H778 0.960 . S
C766 H779 0.962 . S
C766 H780 0.960 . S
C767 C764 1.511 . S
C767 H781 0.961 . S
C767 H782 0.961 . S
C767 H783 0.961 . S
C768 C769 1.370 . S
C768 C770 1.363 . S
C768 H784 0.931 1_565 S
C769 C768 1.370 . S
C769 C773 1.408 . S
C770 C768 1.363 . S
C770 C771 1.370 . S
C770 C774 1.524 1_565 S
C771 C763 1.503 . S
C771 C770 1.370 . S
C771 C772 1.403 . S
C772 C771 1.403 . S
C772 C773 1.404 . S
C772 C775 1.539 . S
C773 C769 1.408 . S
C773 C772 1.404 . S
C773 H785 0.930 . S
C774 C770 1.524 1_545 S
C774 H786 0.956 . S
C774 H787 0.961 . S
C774 H788 0.961 . S
C775 C772 1.539 . S
C775 H789 0.958 . S
C775 H790 0.961 . S
C775 H791 0.960 . S
H776 C760 0.931 . S
H777 C765 0.929 . S
H778 C766 0.960 . S
H779 C766 0.962 . S
H780 C766 0.960 . S
H781 C767 0.961 . S
H782 C767 0.961 . S
H783 C767 0.961 . S
H784 C768 0.931 1_545 S
H785 C773 0.930 . S
H786 C774 0.956 . S
H787 C774 0.961 . S
H788 C774 0.961 . S
H789 C775 0.958 . S
H790 C775 0.961 . S
H791 C775 0.960 . S
C417 C303 1.621 . S
C409 C211 1.602 . S
C441 C31 1.543 . S
C449 C398 1.612 . S
C473 C91 1.643 . S
C481 C314 1.618 . S
C505 C151 1.607 . S
C513 C387 1.619 . S
C545 C298 1.407 . S
C537 C20 1.498 . S
C577 C391 1.609 . S
C569 C61 1.546 . S
C601 C121 1.612 . S
C609 C307 1.618 . S
C633 C200 1.477 . S
C641 C382 1.380 . S
C673 C393 1.396 . S
C665 C80 1.481 . S
C705 C309 1.395 . S
C697 C140 1.541 . S
C737 C380 1.609 . S
C729 C181 1.559 . S
C761 C1 1.532 . S
C769 C296 1.618 . S
