# Generated by pormake.
# Topology ssb, (4,4)-cn, num edge types: 1
# Building blocks:
#     Node 0, Type 0, BuildingBlock: NAHDIM_clean_linker_0, # of connection points: 4
#     Node 1, Type 0, BuildingBlock: NAHDIM_clean_linker_0, # of connection points: 4
#     Node 2, Type 0, BuildingBlock: NAHDIM_clean_linker_0, # of connection points: 4
#     Node 3, Type 0, BuildingBlock: NAHDIM_clean_linker_0, # of connection points: 4
#     Node 4, Type 0, BuildingBlock: NAHDIM_clean_linker_0, # of connection points: 4
#     Node 5, Type 0, BuildingBlock: NAHDIM_clean_linker_0, # of connection points: 4
#     Node 6, Type 0, BuildingBlock: NAHDIM_clean_linker_0, # of connection points: 4
#     Node 7, Type 0, BuildingBlock: NAHDIM_clean_linker_0, # of connection points: 4
#     Node 8, Type 1, BuildingBlock: KOZSID_clean_sbu_0, # of connection points: 4
#     Node 9, Type 1, BuildingBlock: KOZSID_clean_sbu_0, # of connection points: 4
#     Node 10, Type 1, BuildingBlock: KOZSID_clean_sbu_0, # of connection points: 4
#     Node 11, Type 1, BuildingBlock: KOZSID_clean_sbu_0, # of connection points: 4
#     Node 12, Type 1, BuildingBlock: KOZSID_clean_sbu_0, # of connection points: 4
#     Node 13, Type 1, BuildingBlock: KOZSID_clean_sbu_0, # of connection points: 4
#     Node 14, Type 1, BuildingBlock: KOZSID_clean_sbu_0, # of connection points: 4
#     Node 15, Type 1, BuildingBlock: KOZSID_clean_sbu_0, # of connection points: 4
#     Edge 16, Type (0, 1), None
#     Edge 17, Type (0, 1), None
#     Edge 18, Type (0, 1), None
#     Edge 19, Type (0, 1), None
#     Edge 20, Type (0, 1), None
#     Edge 21, Type (0, 1), None
#     Edge 22, Type (0, 1), None
#     Edge 23, Type (0, 1), None
#     Edge 24, Type (0, 1), None
#     Edge 25, Type (0, 1), None
#     Edge 26, Type (0, 1), None
#     Edge 27, Type (0, 1), None
#     Edge 28, Type (0, 1), None
#     Edge 29, Type (0, 1), None
#     Edge 30, Type (0, 1), None
#     Edge 31, Type (0, 1), None
#     Edge 32, Type (0, 1), None
#     Edge 33, Type (0, 1), None
#     Edge 34, Type (0, 1), None
#     Edge 35, Type (0, 1), None
#     Edge 36, Type (0, 1), None
#     Edge 37, Type (0, 1), None
#     Edge 38, Type (0, 1), None
#     Edge 39, Type (0, 1), None
#     Edge 40, Type (0, 1), None
#     Edge 41, Type (0, 1), None
#     Edge 42, Type (0, 1), None
#     Edge 43, Type (0, 1), None
#     Edge 44, Type (0, 1), None
#     Edge 45, Type (0, 1), None
#     Edge 46, Type (0, 1), None
#     Edge 47, Type (0, 1), None
# Relax obj value: 0.008
# Max RMSD: 0.060
# Mean RMSD: 0.035
data_MOF--net-ssb--node1-KOZSID_clean_sbu_0--node2-NAHDIM_clean_linker_0--edge1-none
_symmetry_space_group_name_H-M    P1
_symmetry_Int_Tables_number       1
_symmetry_cell_setting            triclinic
loop_
_symmetry_equiv_pos_as_xyz
'x, y, z'
_cell_length_a     45.310061
_cell_length_b     45.258823
_cell_length_c     33.178557
_cell_angle_alpha  93.186289
_cell_angle_beta   96.347741
_cell_angle_gamma 90.026165
loop_
_atom_site_label
_atom_site_type_symbol
_atom_site_fract_x
_atom_site_fract_y
_atom_site_fract_z
_atom_type_partial_charge
C0 C 0.29746 0.04238 0.37837 0.0
C1 C 0.29773 0.0715 0.40398 0.0
C2 C 0.2829 0.1162 0.36917 0.0
C3 C 0.30303 0.13709 0.3894 0.0
C4 C 0.30814 0.16413 0.37221 0.0
C5 C 0.29309 0.17013 0.3338 0.0
C6 C 0.27305 0.14881 0.31325 0.0
C7 C 0.26774 0.12244 0.3317 0.0
C8 C 0.32929 0.18642 0.39533 0.0
C9 C 0.25719 0.15376 0.27173 0.0
C10 C 0.48277 0.20468 0.23087 0.0
C11 C 0.45563 0.2101 0.20055 0.0
C12 C 0.41262 0.23294 0.22786 0.0
C13 C 0.38952 0.21574 0.20671 0.0
C14 C 0.36154 0.2145 0.22117 0.0
C15 C 0.35669 0.23062 0.25766 0.0
C16 C 0.37982 0.24851 0.27845 0.0
C17 C 0.40733 0.24982 0.26281 0.0
C18 C 0.33722 0.19582 0.1976 0.0
C19 C 0.37573 0.26576 0.31768 0.0
C20 C 0.23713 0.38396 0.17645 0.0
C21 C 0.22811 0.35515 0.1626 0.0
C22 C 0.22797 0.33236 0.18964 0.0
C23 C 0.23722 0.33844 0.23147 0.0
C24 C 0.24559 0.36766 0.24568 0.0
C25 C 0.2451 0.39014 0.21798 0.0
C26 C 0.21783 0.30176 0.17348 0.0
C27 C 0.25534 0.37502 0.29005 0.0
C28 C 0.11117 0.22274 0.41637 0.0
C29 C 0.11359 0.25582 0.42881 0.0
C30 C 0.13455 0.27792 0.37329 0.0
C31 C 0.13203 0.27083 0.33154 0.0
C32 C 0.15618 0.27463 0.30913 0.0
C33 C 0.1832 0.28658 0.32896 0.0
C34 C 0.18522 0.29547 0.37079 0.0
C35 C 0.16089 0.29089 0.39257 0.0
C36 C 0.15315 0.26505 0.26457 0.0
C37 C 0.21329 0.30922 0.39265 0.0
C38 C 0.29773 0.19879 0.31519 0.0
C39 C 0.32352 0.20251 0.29635 0.0
C40 C 0.32798 0.22777 0.27515 0.0
C41 C 0.30564 0.24966 0.27151 0.0
C42 C 0.30834 0.27438 0.24824 0.0
C43 C 0.28605 0.29561 0.24454 0.0
C44 C 0.26032 0.29312 0.26433 0.0
C45 C 0.23727 0.31429 0.26024 0.0
C46 C 0.21266 0.31172 0.28192 0.0
C47 C 0.20987 0.28806 0.30668 0.0
C48 C 0.232 0.26598 0.30952 0.0
C49 C 0.22921 0.24115 0.33255 0.0
C50 C 0.2508 0.2193 0.33473 0.0
C51 C 0.27612 0.2214 0.31408 0.0
C52 C 0.2798 0.24661 0.29151 0.0
C53 C 0.25743 0.26867 0.28859 0.0
C54 C 0.28627 0.40606 0.12639 0.0
C55 C 0.25259 0.40343 0.1153 0.0
O56 O 0.27693 0.09027 0.38546 0.0
O57 O 0.11135 0.27204 0.39431 0.0
O58 O 0.23845 0.40601 0.15039 0.0
O59 O 0.44005 0.2341 0.21505 0.0
H60 H 0.32041 0.08097 0.40447 0.0
H61 H 0.30189 0.04672 0.34695 0.0
H62 H 0.27553 0.03114 0.37697 0.0
H63 H 0.31512 0.02755 0.39141 0.0
H64 H 0.31419 0.13255 0.41897 0.0
H65 H 0.25211 0.10622 0.31651 0.0
H66 H 0.34896 0.18904 0.37863 0.0
H67 H 0.33701 0.17967 0.42641 0.0
H68 H 0.31841 0.20834 0.39763 0.0
H69 H 0.24666 0.13314 0.25702 0.0
H70 H 0.27286 0.16234 0.25163 0.0
H71 H 0.23956 0.17051 0.27458 0.0
H72 H 0.44184 0.18956 0.19818 0.0
H73 H 0.49556 0.18546 0.21997 0.0
H74 H 0.47549 0.19975 0.2607 0.0
H75 H 0.49749 0.22451 0.23523 0.0
H76 H 0.39325 0.20352 0.17874 0.0
H77 H 0.42521 0.26334 0.27857 0.0
H78 H 0.31643 0.2088 0.19312 0.0
H79 H 0.3326 0.1765 0.21518 0.0
H80 H 0.34329 0.18758 0.16746 0.0
H81 H 0.39664 0.27659 0.33183 0.0
H82 H 0.36759 0.25087 0.33962 0.0
H83 H 0.35874 0.28311 0.3118 0.0
H84 H 0.24786 0.38136 0.09949 0.0
H85 H 0.22073 0.35047 0.13073 0.0
H86 H 0.25172 0.41252 0.22849 0.0
H87 H 0.2368 0.28626 0.17696 0.0
H88 H 0.20888 0.30123 0.14089 0.0
H89 H 0.2004 0.29359 0.19122 0.0
H90 H 0.26325 0.39827 0.29586 0.0
H91 H 0.27345 0.35995 0.30105 0.0
H92 H 0.23648 0.37156 0.308 0.0
H93 H 0.13558 0.25972 0.44685 0.0
H94 H 0.11269 0.20949 0.44373 0.0
H95 H 0.12964 0.21612 0.39845 0.0
H96 H 0.08978 0.21762 0.39749 0.0
H97 H 0.1114 0.26124 0.31686 0.0
H98 H 0.16242 0.29748 0.42462 0.0
H99 H 0.17055 0.24861 0.25858 0.0
H100 H 0.15655 0.28441 0.24644 0.0
H101 H 0.13102 0.25513 0.254 0.0
H102 H 0.21007 0.31837 0.42362 0.0
H103 H 0.22121 0.32721 0.375 0.0
H104 H 0.23095 0.29223 0.39537 0.0
H105 H 0.34027 0.18536 0.2979 0.0
H106 H 0.32762 0.27742 0.23228 0.0
H107 H 0.28926 0.31408 0.22607 0.0
H108 H 0.19519 0.3281 0.27897 0.0
H109 H 0.21014 0.23814 0.34892 0.0
H110 H 0.24739 0.2007 0.3529 0.0
H111 H 0.29217 0.42756 0.14319 0.0
H112 H 0.29787 0.40435 0.09854 0.0
H113 H 0.29427 0.3879 0.1459 0.0
C114 C 0.60815 0.24134 0.00536 0.0
C115 C 0.60598 0.23017 0.04762 0.0
C116 C 0.63991 0.23875 0.1096 0.0
C117 C 0.63747 0.25421 0.14663 0.0
C118 C 0.65659 0.24841 0.18135 0.0
C119 C 0.67945 0.22736 0.17838 0.0
C120 C 0.68146 0.21095 0.14119 0.0
C121 C 0.66153 0.2168 0.10705 0.0
C122 C 0.65322 0.26588 0.22065 0.0
C123 C 0.70561 0.18843 0.13707 0.0
C124 C 0.71101 0.13908 0.45365 0.0
C125 C 0.71793 0.11548 0.42118 0.0
C126 C 0.70185 0.1361 0.35796 0.0
C127 C 0.72361 0.13063 0.33172 0.0
C128 C 0.72989 0.15161 0.30422 0.0
C129 C 0.71443 0.17878 0.30385 0.0
C130 C 0.69211 0.18407 0.33009 0.0
C131 C 0.68583 0.16238 0.35652 0.0
C132 C 0.75307 0.14485 0.27577 0.0
C133 C 0.67501 0.21268 0.33044 0.0
C134 C 0.8853 0.29515 0.40257 0.0
C135 C 0.88732 0.27662 0.36791 0.0
C136 C 0.8629 0.27233 0.33812 0.0
C137 C 0.83597 0.28726 0.34309 0.0
C138 C 0.83361 0.30533 0.37881 0.0
C139 C 0.85843 0.3093 0.40799 0.0
C140 C 0.86636 0.2531 0.30034 0.0
C141 C 0.80537 0.32174 0.38513 0.0
C142 C 0.71871 0.41184 0.13057 0.0
C143 C 0.74889 0.42738 0.14262 0.0
C144 C 0.77832 0.38666 0.17314 0.0
C145 C 0.79996 0.36556 0.16615 0.0
C146 C 0.80616 0.34258 0.19244 0.0
C147 C 0.79023 0.34078 0.22651 0.0
C148 C 0.76975 0.36318 0.23531 0.0
C149 C 0.76401 0.38594 0.20858 0.0
C150 C 0.82844 0.31927 0.18259 0.0
C151 C 0.75266 0.36217 0.27178 0.0
C152 C 0.70297 0.22503 0.21292 0.0
C153 C 0.70059 0.20277 0.2398 0.0
C154 C 0.72052 0.20126 0.27496 0.0
C155 C 0.74401 0.22218 0.28331 0.0
C156 C 0.76461 0.2214 0.31831 0.0
C157 C 0.78735 0.24248 0.32631 0.0
C158 C 0.78985 0.26556 0.30019 0.0
C159 C 0.81219 0.28772 0.30843 0.0
C160 C 0.81237 0.31157 0.2833 0.0
C161 C 0.79143 0.31349 0.24942 0.0
C162 C 0.77038 0.29056 0.2391 0.0
C163 C 0.75025 0.29104 0.20371 0.0
C164 C 0.72879 0.26914 0.19451 0.0
C165 C 0.72607 0.24625 0.22083 0.0
C166 C 0.74658 0.2449 0.2562 0.0
C167 C 0.76911 0.26688 0.26504 0.0
C168 C 0.90402 0.31597 0.49756 0.0
C169 C 0.91583 0.29321 0.46739 0.0
O170 O 0.62338 0.24781 0.07612 0.0
O171 O 0.77134 0.40646 0.14426 0.0
O172 O 0.91027 0.30181 0.42789 0.0
O173 O 0.69777 0.11709 0.3869 0.0
H174 H 0.61498 0.20743 0.04683 0.0
H175 H 0.59492 0.22683 0.98196 0.0
H176 H 0.63164 0.2409 0.99869 0.0
H177 H 0.59991 0.26438 0.00326 0.0
H178 H 0.6208 0.27126 0.14812 0.0
H179 H 0.66384 0.20539 0.07801 0.0
H180 H 0.65533 0.25117 0.24648 0.0
H181 H 0.6315 0.27736 0.21975 0.0
H182 H 0.67114 0.28282 0.22646 0.0
H183 H 0.70381 0.17706 0.10634 0.0
H184 H 0.70456 0.17158 0.15996 0.0
H185 H 0.72766 0.1995 0.14319 0.0
H186 H 0.74075 0.1202 0.4134 0.0
H187 H 0.68822 0.13603 0.4622 0.0
H188 H 0.71267 0.16148 0.44201 0.0
H189 H 0.72735 0.13797 0.48107 0.0
H190 H 0.73581 0.11006 0.33323 0.0
H191 H 0.66913 0.16626 0.37717 0.0
H192 H 0.77209 0.1604 0.28317 0.0
H193 H 0.74368 0.1481 0.24397 0.0
H194 H 0.76145 0.12185 0.27776 0.0
H195 H 0.66149 0.21499 0.35639 0.0
H196 H 0.65988 0.21341 0.30183 0.0
H197 H 0.69043 0.23189 0.33199 0.0
H198 H 0.9043 0.27186 0.47043 0.0
H199 H 0.90837 0.26618 0.36374 0.0
H200 H 0.8572 0.32462 0.43391 0.0
H201 H 0.84857 0.23598 0.29574 0.0
H202 H 0.88827 0.24195 0.30188 0.0
H203 H 0.86395 0.26682 0.27346 0.0
H204 H 0.80538 0.33084 0.41693 0.0
H205 H 0.7858 0.3069 0.37735 0.0
H206 H 0.80292 0.34037 0.36466 0.0
H207 H 0.74876 0.43926 0.17284 0.0
H208 H 0.70022 0.42742 0.13466 0.0
H209 H 0.71589 0.39313 0.15003 0.0
H210 H 0.71704 0.40288 0.09851 0.0
H211 H 0.81121 0.36653 0.13906 0.0
H212 H 0.74761 0.40239 0.21497 0.0
H213 H 0.81678 0.29783 0.17444 0.0
H214 H 0.8446 0.31613 0.20969 0.0
H215 H 0.84076 0.3251 0.15695 0.0
H216 H 0.74052 0.38305 0.27738 0.0
H217 H 0.76795 0.3579 0.29935 0.0
H218 H 0.7363 0.34369 0.26684 0.0
H219 H 0.68236 0.187 0.23401 0.0
H220 H 0.7634 0.20444 0.33983 0.0
H221 H 0.80264 0.24082 0.35357 0.0
H222 H 0.82877 0.3291 0.29052 0.0
H223 H 0.75084 0.30836 0.18258 0.0
H224 H 0.71403 0.2707 0.16674 0.0
H225 H 0.90993 0.33887 0.49094 0.0
H226 H 0.9133 0.31173 0.52908 0.0
H227 H 0.87953 0.31409 0.49629 0.0
C228 C 0.724 0.98897 0.36505 0.0
C229 C 0.71688 0.95914 0.38134 0.0
C230 C 0.72807 0.91075 0.35019 0.0
C231 C 0.70799 0.89242 0.36652 0.0
C232 C 0.70087 0.86397 0.34867 0.0
C233 C 0.71383 0.85389 0.31345 0.0
C234 C 0.73397 0.8726 0.29692 0.0
C235 C 0.74129 0.90047 0.31611 0.0
C236 C 0.67985 0.84457 0.36779 0.0
C237 C 0.74772 0.86336 0.25877 0.0
C238 C 0.50303 0.78958 0.15491 0.0
C239 C 0.53538 0.79904 0.15439 0.0
C240 C 0.58241 0.78321 0.19107 0.0
C241 C 0.60148 0.80354 0.17636 0.0
C242 C 0.63137 0.80627 0.19278 0.0
C243 C 0.64219 0.78901 0.22552 0.0
C244 C 0.62286 0.76866 0.24056 0.0
C245 C 0.59348 0.76558 0.2224 0.0
C246 C 0.65128 0.82765 0.17502 0.0
C247 C 0.63289 0.75047 0.27633 0.0
C248 C 0.77122 0.63209 0.15367 0.0
C249 C 0.78409 0.6595 0.14868 0.0
C250 C 0.77953 0.6843 0.17454 0.0
C251 C 0.76218 0.68151 0.20712 0.0
C252 C 0.74805 0.65412 0.21147 0.0
C253 C 0.7522 0.62984 0.1842 0.0
C254 C 0.79443 0.7132 0.168 0.0
C255 C 0.72958 0.65017 0.24596 0.0
C256 C 0.88779 0.74905 0.48376 0.0
C257 C 0.90016 0.73136 0.44865 0.0
C258 C 0.86862 0.73981 0.38486 0.0
C259 C 0.86878 0.7517 0.34695 0.0
C260 C 0.84422 0.7485 0.31735 0.0
C261 C 0.81869 0.73322 0.32618 0.0
C262 C 0.81844 0.72076 0.36432 0.0
C263 C 0.8434 0.72417 0.39335 0.0
C264 C 0.8453 0.76198 0.27696 0.0
C265 C 0.79145 0.70449 0.37472 0.0
C266 C 0.70663 0.82393 0.29359 0.0
C267 C 0.67926 0.81958 0.27002 0.0
C268 C 0.67298 0.79345 0.24585 0.0
C269 C 0.6953 0.77171 0.24324 0.0
C270 C 0.69151 0.74702 0.21535 0.0
C271 C 0.71369 0.72571 0.21335 0.0
C272 C 0.73996 0.72769 0.24025 0.0
C273 C 0.76248 0.70595 0.23929 0.0
C274 C 0.78757 0.7082 0.26807 0.0
C275 C 0.79151 0.7321 0.29668 0.0
C276 C 0.77013 0.7548 0.29659 0.0
C277 C 0.77427 0.77997 0.32355 0.0
C278 C 0.75359 0.80266 0.32249 0.0
C279 C 0.72752 0.80068 0.29533 0.0
C280 C 0.72224 0.7749 0.26915 0.0
C281 C 0.74406 0.75237 0.26876 0.0
C282 C 0.78239 0.56278 0.16352 0.0
C283 C 0.76837 0.57967 0.12726 0.0
O284 O 0.73594 0.938 0.36727 0.0
O285 O 0.89294 0.74464 0.4123 0.0
O286 O 0.77862 0.60866 0.12917 0.0
O287 O 0.55359 0.77912 0.17524 0.0
H288 H 0.69367 0.95367 0.36857 0.0
H289 H 0.721 0.98733 0.33131 0.0
H290 H 0.74732 0.99574 0.37534 0.0
H291 H 0.70884 0.00632 0.37569 0.0
H292 H 0.69855 0.90001 0.39376 0.0
H293 H 0.75699 0.91472 0.30399 0.0
H294 H 0.65873 0.84196 0.34749 0.0
H295 H 0.67476 0.85401 0.39785 0.0
H296 H 0.68946 0.82219 0.37157 0.0
H297 H 0.75823 0.88232 0.2458 0.0
H298 H 0.73075 0.85322 0.23534 0.0
H299 H 0.76508 0.84656 0.26585 0.0
H300 H 0.53791 0.82096 0.17122 0.0
H301 H 0.48785 0.80567 0.13929 0.0
H302 H 0.4978 0.78877 0.18676 0.0
H303 H 0.49893 0.76728 0.13949 0.0
H304 H 0.59348 0.81699 0.15166 0.0
H305 H 0.57867 0.74978 0.23334 0.0
H306 H 0.65457 0.84786 0.19557 0.0
H307 H 0.64157 0.83436 0.14468 0.0
H308 H 0.67342 0.81774 0.17212 0.0
H309 H 0.61387 0.74019 0.28892 0.0
H310 H 0.6457 0.76433 0.30091 0.0
H311 H 0.6476 0.73249 0.26658 0.0
H312 H 0.74393 0.57943 0.12827 0.0
H313 H 0.79835 0.66128 0.12475 0.0
H314 H 0.74116 0.60913 0.18773 0.0
H315 H 0.77903 0.732 0.17174 0.0
H316 H 0.80217 0.7134 0.13738 0.0
H317 H 0.81397 0.71671 0.19105 0.0
H318 H 0.71997 0.62753 0.24522 0.0
H319 H 0.71122 0.66641 0.24463 0.0
H320 H 0.7435 0.65453 0.2754 0.0
H321 H 0.89024 0.70885 0.44742 0.0
H322 H 0.89515 0.73907 0.51302 0.0
H323 H 0.89505 0.77252 0.48581 0.0
H324 H 0.86315 0.7486 0.47934 0.0
H325 H 0.8883 0.76374 0.3407 0.0
H326 H 0.84269 0.71513 0.42271 0.0
H327 H 0.82783 0.77908 0.2728 0.0
H328 H 0.84064 0.74469 0.25201 0.0
H329 H 0.86719 0.77234 0.27432 0.0
H330 H 0.7951 0.69506 0.40506 0.0
H331 H 0.78536 0.68627 0.35147 0.0
H332 H 0.77233 0.71986 0.37434 0.0
H333 H 0.66268 0.83685 0.27032 0.0
H334 H 0.67152 0.7442 0.19435 0.0
H335 H 0.70981 0.70738 0.19098 0.0
H336 H 0.80462 0.69139 0.26764 0.0
H337 H 0.7938 0.78266 0.3454 0.0
H338 H 0.7581 0.82165 0.34361 0.0
H339 H 0.80683 0.56565 0.16827 0.0
H340 H 0.77705 0.53878 0.15864 0.0
H341 H 0.77355 0.57074 0.19197 0.0
C342 C 0.37753 0.77498 0.04568 0.0
C343 C 0.39944 0.79075 0.07856 0.0
C344 C 0.38484 0.77591 0.14367 0.0
C345 C 0.39333 0.75991 0.17784 0.0
C346 C 0.37576 0.75969 0.21012 0.0
C347 C 0.34894 0.77576 0.20782 0.0
C348 C 0.34032 0.79223 0.17353 0.0
C349 C 0.35834 0.7922 0.14189 0.0
C350 C 0.38545 0.74185 0.24626 0.0
C351 C 0.31195 0.80987 0.17015 0.0
C352 C 0.28636 0.9407 0.44151 0.0
C353 C 0.28538 0.91828 0.40744 0.0
C354 C 0.30961 0.87486 0.38168 0.0
C355 C 0.29333 0.87478 0.34299 0.0
C356 C 0.29341 0.85021 0.31555 0.0
C357 C 0.31029 0.82512 0.32673 0.0
C358 C 0.32762 0.82542 0.36495 0.0
C359 C 0.32715 0.85044 0.39197 0.0
C360 C 0.27498 0.85093 0.2748 0.0
C361 C 0.34605 0.79906 0.3775 0.0
C362 C 0.13563 0.72514 0.34457 0.0
C363 C 0.13558 0.73771 0.30686 0.0
C364 C 0.16102 0.73649 0.28626 0.0
C365 C 0.18651 0.7215 0.30308 0.0
C366 C 0.18636 0.70834 0.34067 0.0
C367 C 0.16091 0.71055 0.36105 0.0
C368 C 0.16054 0.75094 0.24629 0.0
C369 C 0.21293 0.69173 0.35907 0.0
C370 C 0.23043 0.62066 0.0393 0.0
C371 C 0.24152 0.59817 0.0704 0.0
C372 C 0.22677 0.62098 0.13222 0.0
C373 C 0.20796 0.64531 0.12867 0.0
C374 C 0.21035 0.66862 0.15841 0.0
C375 C 0.23115 0.66665 0.19331 0.0
C376 C 0.24912 0.64115 0.19787 0.0
C377 C 0.24699 0.61872 0.16677 0.0
C378 C 0.19056 0.69519 0.15237 0.0
C379 C 0.27055 0.63756 0.23544 0.0
C380 C 0.32879 0.77406 0.23987 0.0
C381 C 0.3306 0.79638 0.27086 0.0
C382 C 0.30932 0.7986 0.29831 0.0
C383 C 0.2857 0.77783 0.29517 0.0
C384 C 0.26326 0.78006 0.3213 0.0
C385 C 0.2392 0.76053 0.31638 0.0
C386 C 0.23707 0.73761 0.2858 0.0
C387 C 0.21253 0.71794 0.27996 0.0
C388 C 0.21167 0.69474 0.25034 0.0
C389 C 0.2341 0.69125 0.2249 0.0
C390 C 0.25811 0.71152 0.22884 0.0
C391 C 0.28007 0.70977 0.20203 0.0
C392 C 0.30341 0.73 0.20587 0.0
C393 C 0.30577 0.75272 0.23676 0.0
C394 C 0.28401 0.75478 0.26429 0.0
C395 C 0.25987 0.73445 0.25991 0.0
C396 C 0.09155 0.77538 0.36615 0.0
C397 C 0.08574 0.7419 0.35984 0.0
O398 O 0.40258 0.77472 0.11313 0.0
O399 O 0.22465 0.59913 0.10271 0.0
O400 O 0.11201 0.72631 0.36633 0.0
O401 O 0.30802 0.8977 0.40982 0.0
H402 H 0.39088 0.81327 0.0856 0.0
H403 H 0.35514 0.77374 0.05607 0.0
H404 H 0.3848 0.75205 0.03844 0.0
H405 H 0.3756 0.7874 0.01757 0.0
H406 H 0.41378 0.74741 0.17902 0.0
H407 H 0.35118 0.80468 0.11578 0.0
H408 H 0.38612 0.75617 0.27464 0.0
H409 H 0.40766 0.73179 0.24444 0.0
H410 H 0.36902 0.72392 0.24821 0.0
H411 H 0.30717 0.81948 0.14005 0.0
H412 H 0.31389 0.82822 0.19388 0.0
H413 H 0.29283 0.79577 0.17534 0.0
H414 H 0.26299 0.9082 0.39803 0.0
H415 H 0.29379 0.98299 0.41215 0.0
H416 H 0.30233 0.93221 0.46678 0.0
H417 H 0.26597 0.93627 0.45696 0.0
H418 H 0.28021 0.89378 0.33405 0.0
H419 H 0.33983 0.85072 0.42166 0.0
H420 H 0.28909 0.84574 0.25013 0.0
H421 H 0.26443 0.87278 0.26987 0.0
H422 H 0.25724 0.83381 0.27246 0.0
H423 H 0.35809 0.80261 0.40843 0.0
H424 H 0.36247 0.79434 0.35553 0.0
H425 H 0.33151 0.77924 0.37682 0.0
H426 H 0.07488 0.73639 0.32858 0.0
H427 H 0.11585 0.74835 0.29328 0.0
H428 H 0.16056 0.70074 0.39006 0.0
H429 H 0.18052 0.76517 0.24635 0.0
H430 H 0.1404 0.76462 0.23969 0.0
H431 H 0.16107 0.73361 0.22143 0.0
H432 H 0.20904 0.68234 0.38828 0.0
H433 H 0.23248 0.70679 0.36449 0.0
H434 H 0.21848 0.67343 0.33755 0.0
H435 H 0.26471 0.60478 0.08155 0.0
H436 H 0.24594 0.62156 0.01583 0.0
H437 H 0.23027 0.64324 0.05406 0.0
H438 H 0.20773 0.61518 0.02466 0.0
H439 H 0.19179 0.64623 0.10214 0.0
H440 H 0.26093 0.59931 0.16933 0.0
H441 H 0.20309 0.71607 0.16121 0.0
H442 H 0.17231 0.69388 0.17192 0.0
H443 H 0.18049 0.69608 0.12037 0.0
H444 H 0.27867 0.61448 0.23747 0.0
H445 H 0.25988 0.64392 0.2632 0.0
H446 H 0.29 0.65236 0.23485 0.0
H447 H 0.34791 0.81312 0.27235 0.0
H448 H 0.26381 0.79721 0.34546 0.0
H449 H 0.22232 0.76358 0.3369 0.0
H450 H 0.19294 0.67949 0.24651 0.0
H451 H 0.27933 0.69293 0.17745 0.0
H452 H 0.31955 0.72762 0.18418 0.0
H453 H 0.07024 0.7876 0.36259 0.0
H454 H 0.10555 0.78332 0.34358 0.0
H455 H 0.10304 0.78091 0.39701 0.0
C456 C 0.11988 0.70539 0.56916 0.0
C457 C 0.09466 0.70191 0.59639 0.0
C458 C 0.1218 0.72322 0.65966 0.0
C459 C 0.12486 0.74876 0.68538 0.0
C460 C 0.14989 0.75328 0.71402 0.0
C461 C 0.173 0.73213 0.71564 0.0
C462 C 0.16947 0.70566 0.69068 0.0
C463 C 0.14343 0.70105 0.66409 0.0
C464 C 0.15162 0.78083 0.74202 0.0
C465 C 0.19332 0.6823 0.69145 0.0
C466 C 0.25207 0.58345 0.94365 0.0
C467 C 0.25901 0.60818 0.91855 0.0
C468 C 0.23732 0.65221 0.88852 0.0
C469 C 0.25572 0.65236 0.85702 0.0
C470 C 0.25434 0.67538 0.83019 0.0
C471 C 0.23502 0.69952 0.83585 0.0
C472 C 0.21725 0.69994 0.86845 0.0
C473 C 0.21831 0.67605 0.89392 0.0
C474 C 0.27276 0.67318 0.79486 0.0
C475 C 0.19657 0.72529 0.8759 0.0
C476 C 0.39892 0.81839 0.86177 0.0
C477 C 0.39552 0.79466 0.83267 0.0
C478 C 0.36935 0.79123 0.80588 0.0
C479 C 0.34591 0.81167 0.80898 0.0
C480 C 0.3496 0.83594 0.83797 0.0
C481 C 0.37634 0.83922 0.86363 0.0
C482 C 0.36679 0.76578 0.77428 0.0
C483 C 0.3252 0.85821 0.84216 0.0
C484 C 0.29366 0.89096 0.53478 0.0
C485 C 0.27684 0.91078 0.56341 0.0
C486 C 0.28451 0.88576 0.62736 0.0
C487 C 0.30208 0.86043 0.62478 0.0
C488 C 0.30191 0.83869 0.65342 0.0
C489 C 0.28467 0.84298 0.68637 0.0
C490 C 0.26689 0.86864 0.68901 0.0
C491 C 0.26701 0.88966 0.65935 0.0
C492 C 0.32123 0.81177 0.64943 0.0
C493 C 0.24893 0.87462 0.72425 0.0
C494 C 0.20051 0.73722 0.74399 0.0
C495 C 0.20492 0.71963 0.77739 0.0
C496 C 0.23066 0.72211 0.80471 0.0
C497 C 0.25215 0.74401 0.79983 0.0
C498 C 0.27751 0.74845 0.82796 0.0
C499 C 0.29888 0.76951 0.82228 0.0
C500 C 0.29577 0.78688 0.78816 0.0
C501 C 0.31772 0.80782 0.78162 0.0
C502 C 0.31333 0.82545 0.74818 0.0
C503 C 0.28784 0.82248 0.72028 0.0
C504 C 0.2662 0.80084 0.72551 0.0
C505 C 0.24102 0.79611 0.69713 0.0
C506 C 0.21965 0.77508 0.70284 0.0
C507 C 0.22246 0.75815 0.73738 0.0
C508 C 0.24812 0.7619 0.76581 0.0
C509 C 0.27002 0.78326 0.75985 0.0
C510 C 0.4161 0.80375 0.95259 0.0
C511 C 0.43346 0.8006 0.91561 0.0
O512 O 0.0981 0.72118 0.63059 0.0
O513 O 0.28816 0.90873 0.60375 0.0
O514 O 0.42385 0.82154 0.88832 0.0
O515 O 0.23703 0.6294 0.91366 0.0
H516 H 0.09497 0.67928 0.60741 0.0
H517 H 0.11508 0.69184 0.5402 0.0
H518 H 0.14148 0.69775 0.58366 0.0
H519 H 0.12256 0.72879 0.56187 0.0
H520 H 0.10769 0.76542 0.6826 0.0
H521 H 0.14051 0.68031 0.64628 0.0
H522 H 0.16136 0.7759 0.7731 0.0
H523 H 0.12939 0.79085 0.74386 0.0
H524 H 0.16604 0.79747 0.73039 0.0
H525 H 0.1899 0.66636 0.66463 0.0
H526 H 0.19301 0.66973 0.71917 0.0
H527 H 0.21564 0.6926 0.69228 0.0
H528 H 0.28182 0.61773 0.92571 0.0
H529 H 0.24961 0.54399 0.8998 0.0
H530 H 0.23268 0.59089 0.96019 0.0
H531 H 0.2688 0.58565 0.97148 0.0
H532 H 0.2706 0.63411 0.85235 0.0
H533 H 0.20425 0.67592 0.9183 0.0
H534 H 0.29068 0.69014 0.79956 0.0
H535 H 0.25887 0.67745 0.76608 0.0
H536 H 0.28322 0.65112 0.79142 0.0
H537 H 0.18924 0.72548 0.90678 0.0
H538 H 0.17658 0.72321 0.85334 0.0
H539 H 0.2075 0.74679 0.87214 0.0
H540 H 0.42889 0.77803 0.90138 0.0
H541 H 0.41348 0.77904 0.83069 0.0
H542 H 0.37942 0.85762 0.88607 0.0
H543 H 0.35026 0.7495 0.78195 0.0
H544 H 0.38828 0.75426 0.77236 0.0
H545 H 0.35885 0.7738 0.74396 0.0
H546 H 0.33036 0.87398 0.86889 0.0
H547 H 0.30396 0.84666 0.84506 0.0
H548 H 0.3219 0.87099 0.81443 0.0
H549 H 0.25364 0.90251 0.55937 0.0
H550 H 0.28489 0.89408 0.50276 0.0
H551 H 0.29001 0.86732 0.54003 0.0
H552 H 0.31785 0.89576 0.53891 0.0
H553 H 0.31699 0.85821 0.60148 0.0
H554 H 0.2543 0.90983 0.66186 0.0
H555 H 0.30894 0.79148 0.65524 0.0
H556 H 0.34097 0.81397 0.67241 0.0
H557 H 0.32902 0.80907 0.61885 0.0
H558 H 0.23777 0.89646 0.72317 0.0
H559 H 0.26352 0.87393 0.75337 0.0
H560 H 0.23172 0.85716 0.72402 0.0
H561 H 0.18836 0.70305 0.78151 0.0
H562 H 0.28106 0.73565 0.85467 0.0
H563 H 0.31796 0.77196 0.84495 0.0
H564 H 0.33007 0.84176 0.74378 0.0
H565 H 0.23761 0.8086 0.67012 0.0
H566 H 0.20085 0.77229 0.6798 0.0
H567 H 0.42298 0.78635 0.97389 0.0
H568 H 0.39195 0.8009 0.94299 0.0
H569 H 0.41988 0.82592 0.96846 0.0
C570 C 0.25835 0.49077 0.84196 0.0
C571 C 0.24588 0.46198 0.85531 0.0
C572 C 0.25433 0.41071 0.83414 0.0
C573 C 0.23559 0.39584 0.85733 0.0
C574 C 0.22671 0.36647 0.8466 0.0
C575 C 0.2365 0.35195 0.81164 0.0
C576 C 0.25521 0.36711 0.78804 0.0
C577 C 0.26441 0.39611 0.80022 0.0
C578 C 0.2073 0.35084 0.87295 0.0
C579 C 0.26554 0.35277 0.74991 0.0
C580 C 0.02056 0.29272 0.69351 0.0
C581 C 0.05217 0.29416 0.68166 0.0
C582 C 0.09883 0.2764 0.71611 0.0
C583 C 0.11897 0.29027 0.69392 0.0
C584 C 0.14921 0.29286 0.70873 0.0
C585 C 0.15941 0.2818 0.74691 0.0
C586 C 0.13907 0.26756 0.76912 0.0
C587 C 0.1092 0.26447 0.7529 0.0
C588 C 0.17019 0.30755 0.68361 0.0
C589 C 0.14863 0.25615 0.81043 0.0
C590 C 0.25264 0.11067 0.71429 0.0
C591 C 0.26621 0.13275 0.69448 0.0
C592 C 0.27479 0.1598 0.71497 0.0
C593 C 0.26969 0.16476 0.75606 0.0
C594 C 0.25754 0.14194 0.77673 0.0
C595 C 0.24942 0.11496 0.75554 0.0
C596 C 0.28851 0.1834 0.69243 0.0
C597 C 0.25225 0.14644 0.82074 0.0
C598 C 0.43238 0.28579 0.98447 0.0
C599 C 0.41169 0.25863 0.96768 0.0
C600 C 0.39025 0.24115 0.90054 0.0
C601 C 0.39005 0.24702 0.85959 0.0
C602 C 0.36442 0.24172 0.83205 0.0
C603 C 0.33857 0.23017 0.84601 0.0
C604 C 0.3393 0.22246 0.8868 0.0
C605 C 0.36515 0.22776 0.91345 0.0
C606 C 0.36457 0.24937 0.78843 0.0
C607 C 0.31245 0.20936 0.90258 0.0
C608 C 0.22785 0.32075 0.79995 0.0
C609 C 0.19932 0.31498 0.78041 0.0
C610 C 0.19085 0.28653 0.76472 0.0
C611 C 0.21189 0.26336 0.7672 0.0
C612 C 0.20515 0.23505 0.7489 0.0
C613 C 0.226 0.21244 0.75176 0.0
C614 C 0.25431 0.21719 0.77334 0.0
C615 C 0.27561 0.19436 0.77661 0.0
C616 C 0.30316 0.1995 0.7993 0.0
C617 C 0.31029 0.22713 0.8188 0.0
C618 C 0.28969 0.25058 0.81476 0.0
C619 C 0.29638 0.27888 0.83314 0.0
C620 C 0.27615 0.30188 0.82843 0.0
C621 C 0.24822 0.29734 0.8058 0.0
C622 C 0.2405 0.26873 0.78843 0.0
C623 C 0.26153 0.2455 0.79212 0.0
C624 C 0.19909 0.0669 0.65189 0.0
C625 C 0.22864 0.08368 0.65431 0.0
O626 O 0.26375 0.43884 0.84427 0.0
O627 O 0.41403 0.25002 0.92734 0.0
O628 O 0.24165 0.08545 0.69414 0.0
O629 O 0.06945 0.27362 0.70275 0.0
H630 H 0.22353 0.45906 0.83796 0.0
H631 H 0.26133 0.4885 0.80915 0.0
H632 H 0.2802 0.49638 0.85939 0.0
H633 H 0.24256 0.50909 0.84635 0.0
H634 H 0.22853 0.40674 0.88439 0.0
H635 H 0.27907 0.4078 0.78277 0.0
H636 H 0.18519 0.34628 0.85577 0.0
H637 H 0.20413 0.36416 0.90129 0.0
H638 H 0.2172 0.32924 0.88114 0.0
H639 H 0.27536 0.36912 0.73139 0.0
H640 H 0.24679 0.34125 0.73098 0.0
H641 H 0.28267 0.33601 0.75826 0.0
H642 H 0.06066 0.31676 0.69154 0.0
H643 H 0.00636 0.30946 0.67761 0.0
H644 H 0.02083 0.29746 0.72676 0.0
H645 H 0.01065 0.2704 0.68556 0.0
H646 H 0.11126 0.29865 0.66476 0.0
H647 H 0.09351 0.25352 0.76958 0.0
H648 H 0.19085 0.29444 0.68266 0.0
H649 H 0.17648 0.32978 0.69777 0.0
H650 H 0.16001 0.31027 0.65201 0.0
H651 H 0.12938 0.24989 0.82625 0.0
H652 H 0.16205 0.27313 0.82985 0.0
H653 H 0.1627 0.23632 0.80702 0.0
H654 H 0.22274 0.10616 0.64391 0.0
H655 H 0.26977 0.12904 0.66289 0.0
H656 H 0.23934 0.09756 0.77065 0.0
H657 H 0.27327 0.20256 0.68959 0.0
H658 H 0.29307 0.17529 0.66152 0.0
H659 H 0.30962 0.19145 0.70978 0.0
H660 H 0.24223 0.12661 0.83227 0.0
H661 H 0.2373 0.16557 0.8246 0.0
H662 H 0.27362 0.15165 0.83952 0.0
H663 H 0.38846 0.26579 0.97099 0.0
H664 H 0.44888 0.28085 0.06981 0.0
H665 H 0.41981 0.30575 0.97337 0.0
H666 H 0.45046 0.28539 0.96384 0.0
H667 H 0.40958 0.25692 0.84962 0.0
H668 H 0.36538 0.22206 0.94473 0.0
H669 H 0.34906 0.26793 0.78196 0.0
H670 H 0.35659 0.23015 0.76783 0.0
H671 H 0.38702 0.25594 0.78152 0.0
H672 H 0.31639 0.20531 0.93546 0.0
H673 H 0.30633 0.18806 0.88552 0.0
H674 H 0.29324 0.22447 0.89764 0.0
H675 H 0.18354 0.33295 0.77715 0.0
H676 H 0.18375 0.23015 0.73191 0.0
H677 H 0.21955 0.19112 0.737 0.0
H678 H 0.31908 0.18164 0.80232 0.0
H679 H 0.31748 0.28369 0.85096 0.0
H680 H 0.2826 0.32326 0.843 0.0
H681 H 0.18875 0.0644 0.6199 0.0
H682 H 0.18359 0.07944 0.67005 0.0
H683 H 0.20223 0.04463 0.66415 0.0
C684 C 0.88334 0.32979 0.60561 0.0
C685 C 0.90516 0.31551 0.63758 0.0
C686 C 0.87216 0.29165 0.67939 0.0
C687 C 0.88008 0.28156 0.71812 0.0
C688 C 0.8591 0.28012 0.74622 0.0
C689 C 0.82951 0.28928 0.73527 0.0
C690 C 0.8215 0.29961 0.69602 0.0
C691 C 0.84269 0.2998 0.66819 0.0
C692 C 0.86853 0.26853 0.78739 0.0
C693 C 0.79043 0.31006 0.68301 0.0
C694 C 0.77472 0.40042 0.02282 0.0
C695 C 0.77577 0.40622 0.97804 0.0
C696 C 0.79461 0.37048 0.92879 0.0
C697 C 0.77633 0.37739 0.89364 0.0
C698 C 0.77363 0.35787 0.85887 0.0
C699 C 0.78934 0.33081 0.85948 0.0
C700 C 0.80837 0.32425 0.8946 0.0
C701 C 0.81103 0.34439 0.92856 0.0
C702 C 0.75393 0.36607 0.82154 0.0
C703 C 0.8257 0.2958 0.89641 0.0
C704 C 0.61508 0.23463 0.86559 0.0
C705 C 0.61573 0.24845 0.82873 0.0
C706 C 0.64032 0.24538 0.80647 0.0
C707 C 0.66465 0.22779 0.82092 0.0
C708 C 0.66357 0.2129 0.85711 0.0
C709 C 0.63879 0.21653 0.87895 0.0
C710 C 0.64054 0.26133 0.76774 0.0
C711 C 0.68886 0.1936 0.87305 0.0
C712 C 0.69954 0.11586 0.55813 0.0
C713 C 0.71926 0.09986 0.59057 0.0
C714 C 0.71197 0.12742 0.65395 0.0
C715 C 0.69545 0.15301 0.64603 0.0
C716 C 0.69684 0.17726 0.67455 0.0
C717 C 0.71452 0.17548 0.71228 0.0
C718 C 0.73087 0.14943 0.72057 0.0
C719 C 0.72932 0.12568 0.69124 0.0
C720 C 0.67892 0.20452 0.6647 0.0
C721 C 0.74954 0.14647 0.76069 0.0
C722 C 0.80673 0.28741 0.76427 0.0
C723 C 0.80732 0.30879 0.79656 0.0
C724 C 0.78581 0.30908 0.82382 0.0
C725 C 0.76228 0.28811 0.81792 0.0
C726 C 0.73944 0.28855 0.84346 0.0
C727 C 0.71605 0.26825 0.83687 0.0
C728 C 0.71505 0.24608 0.80531 0.0
C729 C 0.69128 0.22542 0.79827 0.0
C730 C 0.6919 0.20273 0.76794 0.0
C731 C 0.71521 0.20048 0.74353 0.0
C732 C 0.73835 0.22184 0.74885 0.0
C733 C 0.76142 0.22108 0.72374 0.0
C734 C 0.78391 0.24236 0.7289 0.0
C735 C 0.78428 0.26527 0.75941 0.0
C736 C 0.76165 0.26603 0.78578 0.0
C737 C 0.73837 0.24459 0.78004 0.0
C738 C 0.5844 0.2909 0.89701 0.0
C739 C 0.57039 0.2599 0.88682 0.0
O740 O 0.89243 0.29082 0.65209 0.0
O741 O 0.70867 0.10302 0.6282 0.0
O742 O 0.59259 0.23861 0.88955 0.0
O743 O 0.79758 0.38865 0.96306 0.0
H744 H 0.91113 0.33205 0.66333 0.0
H745 H 0.86583 0.34186 0.6205 0.0
H746 H 0.87299 0.31267 0.58313 0.0
H747 H 0.89459 0.34645 0.58915 0.0
H748 H 0.90273 0.27452 0.72613 0.0
H749 H 0.83592 0.3057 0.63743 0.0
H750 H 0.86928 0.28711 0.81076 0.0
H751 H 0.89084 0.25819 0.78896 0.0
H752 H 0.85221 0.25198 0.79499 0.0
H753 H 0.78953 0.32307 0.65547 0.0
H754 H 0.7818 0.3239 0.70774 0.0
H755 H 0.77546 0.29061 0.67593 0.0
H756 H 0.7536 0.39958 0.9624 0.0
H757 H 0.75664 0.41345 0.03515 0.0
H758 H 0.79617 0.40647 0.04099 0.0
H759 H 0.77021 0.37659 0.02606 0.0
H760 H 0.76459 0.39816 0.89307 0.0
H761 H 0.82549 0.33952 0.95559 0.0
H762 H 0.76647 0.36424 0.79459 0.0
H763 H 0.74515 0.3889 0.8247 0.0
H764 H 0.7349 0.35038 0.81581 0.0
H765 H 0.83803 0.29312 0.92683 0.0
H766 H 0.84186 0.29543 0.87359 0.0
H767 H 0.81046 0.27659 0.88873 0.0
H768 H 0.55884 0.25902 0.85542 0.0
H769 H 0.59737 0.26206 0.81742 0.0
H770 H 0.63808 0.20568 0.90714 0.0
H771 H 0.65948 0.27717 0.77085 0.0
H772 H 0.61968 0.27368 0.76004 0.0
H773 H 0.64372 0.24519 0.74217 0.0
H774 H 0.68451 0.18316 0.90136 0.0
H775 H 0.70954 0.20704 0.87925 0.0
H776 H 0.69274 0.17592 0.84969 0.0
H777 H 0.74183 0.10985 0.59254 0.0
H778 H 0.70419 0.10776 0.52729 0.0
H779 H 0.70435 0.13998 0.56107 0.0
H780 H 0.67563 0.11222 0.56082 0.0
H781 H 0.6807 0.15378 0.61817 0.0
H782 H 0.74134 0.10545 0.6975 0.0
H783 H 0.69317 0.22461 0.67062 0.0
H784 H 0.66087 0.20668 0.68471 0.0
H785 H 0.66882 0.20369 0.63258 0.0
H786 H 0.75958 0.12418 0.76331 0.0
H787 H 0.73576 0.15079 0.78604 0.0
H788 H 0.76765 0.16325 0.76421 0.0
H789 H 0.82487 0.32536 0.80066 0.0
H790 H 0.73914 0.30489 0.86849 0.0
H791 H 0.69889 0.26997 0.85712 0.0
H792 H 0.67383 0.18674 0.76302 0.0
H793 H 0.76225 0.20411 0.69958 0.0
H794 H 0.80107 0.24059 0.70864 0.0
H795 H 0.56836 0.30844 0.88772 0.0
H796 H 0.60403 0.29417 0.88053 0.0
H797 H 0.5918 0.29398 0.93006 0.0
C798 C 0.86359 0.55816 0.86133 0.0
C799 C 0.83875 0.5768 0.87752 0.0
C800 C 0.81155 0.61054 0.83141 0.0
C801 C 0.81682 0.63694 0.85557 0.0
C802 C 0.81258 0.6645 0.83859 0.0
C803 C 0.80154 0.66563 0.79713 0.0
C804 C 0.79399 0.63914 0.77361 0.0
C805 C 0.79921 0.6119 0.79112 0.0
C806 C 0.82075 0.69235 0.86468 0.0
C807 C 0.78141 0.63958 0.7296 0.0
C808 C 0.97396 0.7022 0.68613 0.0
C809 C 0.94706 0.70863 0.65589 0.0
C810 C 0.90647 0.73506 0.68319 0.0
C811 C 0.88191 0.72043 0.66153 0.0
C812 C 0.85468 0.71951 0.6778 0.0
C813 C 0.85222 0.73322 0.71667 0.0
C814 C 0.87661 0.74931 0.73757 0.0
C815 C 0.90336 0.75043 0.72009 0.0
C816 C 0.82887 0.70297 0.65413 0.0
C817 C 0.87488 0.76412 0.77914 0.0
C818 C 0.75042 0.89298 0.69941 0.0
C819 C 0.73216 0.87101 0.67802 0.0
C820 C 0.72514 0.84535 0.69676 0.0
C821 C 0.73666 0.84181 0.73756 0.0
C822 C 0.7528 0.86514 0.76015 0.0
C823 C 0.75926 0.89068 0.74072 0.0
C824 C 0.7069 0.82129 0.67239 0.0
C825 C 0.76466 0.86234 0.80407 0.0
C826 C 0.59609 0.78107 0.95888 0.0
C827 C 0.62513 0.77817 0.94283 0.0
C828 C 0.64517 0.76973 0.87811 0.0
C829 C 0.63865 0.76152 0.83688 0.0
C830 C 0.65992 0.76457 0.80966 0.0
C831 C 0.68839 0.77594 0.82434 0.0
C832 C 0.69527 0.784 0.8661 0.0
C833 C 0.67362 0.78079 0.89257 0.0
C834 C 0.65204 0.75575 0.76527 0.0
C835 C 0.72551 0.79612 0.88276 0.0
C836 C 0.80049 0.69421 0.77745 0.0
C837 C 0.82416 0.7009 0.7559 0.0
C838 C 0.82556 0.72772 0.73742 0.0
C839 C 0.80267 0.74863 0.74032 0.0
C840 C 0.80325 0.77575 0.72183 0.0
C841 C 0.78115 0.7966 0.72619 0.0
C842 C 0.75751 0.79103 0.74902 0.0
C843 C 0.73542 0.81244 0.7547 0.0
C844 C 0.71261 0.80653 0.77816 0.0
C845 C 0.71118 0.77951 0.79627 0.0
C846 C 0.73266 0.75753 0.79032 0.0
C847 C 0.7315 0.72991 0.80756 0.0
C848 C 0.75337 0.70885 0.80271 0.0
C849 C 0.77744 0.71483 0.78101 0.0
C850 C 0.77867 0.74225 0.76259 0.0
C851 C 0.75614 0.76352 0.76704 0.0
C852 C 0.80185 0.92518 0.64434 0.0
C853 C 0.76973 0.91422 0.64202 0.0
O854 O 0.81805 0.58342 0.84543 0.0
O855 O 0.62344 0.76712 0.90285 0.0
O856 O 0.76081 0.91602 0.68068 0.0
O857 O 0.93352 0.7342 0.66949 0.0
H858 H 0.85022 0.59685 0.89246 0.0
H859 H 0.87669 0.57198 0.84302 0.0
H860 H 0.85449 0.53904 0.84138 0.0
H861 H 0.87881 0.55002 0.88688 0.0
H862 H 0.82443 0.63639 0.88756 0.0
H863 H 0.79449 0.59143 0.77299 0.0
H864 H 0.83629 0.7061 0.8499 0.0
H865 H 0.83129 0.68755 0.89544 0.0
H866 H 0.80052 0.70565 0.86806 0.0
H867 H 0.77229 0.61766 0.71752 0.0
H868 H 0.79922 0.64585 0.71122 0.0
H869 H 0.76358 0.65635 0.7258 0.0
H870 H 0.93174 0.68923 0.65452 0.0
H871 H 0.98502 0.68151 0.67638 0.0
H872 H 0.96669 0.69932 0.71658 0.0
H873 H 0.99024 0.72077 0.68864 0.0
H874 H 0.8842 0.70943 0.6322 0.0
H875 H 0.92246 0.76205 0.73612 0.0
H876 H 0.80814 0.71596 0.65505 0.0
H877 H 0.82558 0.68173 0.66824 0.0
H878 H 0.83265 0.69805 0.62193 0.0
H879 H 0.89622 0.77479 0.79194 0.0
H880 H 0.86871 0.7476 0.80034 0.0
H881 H 0.85735 0.78125 0.77739 0.0
H882 H 0.76962 0.89084 0.62949 0.0
H883 H 0.72414 0.87352 0.64641 0.0
H884 H 0.77275 0.9082 0.75707 0.0
H885 H 0.72138 0.80214 0.66632 0.0
H886 H 0.69652 0.82889 0.64288 0.0
H887 H 0.6892 0.81347 0.68994 0.0
H888 H 0.77568 0.88301 0.81785 0.0
H889 H 0.78096 0.84403 0.80648 0.0
H890 H 0.74625 0.85676 0.82183 0.0
H891 H 0.64319 0.76826 0.96332 0.0
H892 H 0.59067 0.8301 0.96833 0.0
H893 H 0.59732 0.76556 0.98448 0.0
H894 H 0.57997 0.7666 0.93808 0.0
H895 H 0.61668 0.753 0.82602 0.0
H896 H 0.67911 0.78705 0.92447 0.0
H897 H 0.66774 0.73865 0.75552 0.0
H898 H 0.65433 0.77521 0.74687 0.0
H899 H 0.62903 0.74692 0.75872 0.0
H900 H 0.72722 0.80166 0.91598 0.0
H901 H 0.73031 0.81636 0.86718 0.0
H902 H 0.74282 0.77962 0.87668 0.0
H903 H 0.84202 0.68508 0.75392 0.0
H904 H 0.82098 0.78125 0.70412 0.0
H905 H 0.78301 0.81725 0.71167 0.0
H906 H 0.69621 0.82341 0.7832 0.0
H907 H 0.7137 0.7243 0.82507 0.0
H908 H 0.7514 0.68797 0.81664 0.0
H909 H 0.80955 0.92397 0.61363 0.0
H910 H 0.81651 0.91106 0.66419 0.0
H911 H 0.80391 0.94842 0.65712 0.0
C912 C 0.05352 0.31396 0.61011 0.0
C913 C 0.07086 0.33914 0.62037 0.0
C914 C 0.06749 0.35633 0.58725 0.0
C915 C 0.04841 0.34075 0.55866 0.0
N916 N 0.03966 0.31499 0.57206 0.0
Co917 Co 0.01332 0.28535 0.54062 0.0
N918 N 0.99648 0.31509 0.50363 0.0
C919 C 0.00914 0.34092 0.49687 0.0
C920 C 0.99149 0.35688 0.46961 0.0
C921 C 0.96633 0.33985 0.45888 0.0
C922 C 0.97005 0.31444 0.48038 0.0
N923 N 0.98738 0.2557 0.5085 0.0
C924 C 0.96192 0.26002 0.48446 0.0
C925 C 0.95052 0.23338 0.46666 0.0
C926 C 0.96966 0.21168 0.48084 0.0
C927 C 0.99169 0.22632 0.50619 0.0
N928 N 0.03003 0.25547 0.57753 0.0
C929 C 0.02997 0.22605 0.56909 0.0
C930 C 0.04386 0.21101 0.60059 0.0
C931 C 0.05322 0.2324 0.63039 0.0
C932 C 0.0444 0.25945 0.61538 0.0
N933 N 0.98218 0.29401 0.57586 0.0
C934 C 0.93354 0.30719 0.61906 0.0
C935 C 0.94038 0.27777 0.60806 0.0
C936 C 0.9651 0.27167 0.58722 0.0
C937 C 0.95249 0.32963 0.60943 0.0
C938 C 0.97632 0.32266 0.58739 0.0
N939 N 0.04451 0.2768 0.50526 0.0
C940 C 0.09588 0.2673 0.49748 0.0
C941 C 0.08943 0.26462 0.45518 0.0
C942 C 0.05991 0.26799 0.43845 0.0
C943 C 0.03783 0.27416 0.46397 0.0
C944 C 0.07323 0.27349 0.52188 0.0
H945 H 0.01528 0.2766 0.45032 0.0
H946 H 0.07899 0.27541 0.55433 0.0
H947 H 0.96982 0.24889 0.57907 0.0
H948 H 0.98948 0.34058 0.57861 0.0
C949 C 0.0341 0.35159 0.52263 0.0
C950 C 0.05149 0.28876 0.63585 0.0
C951 C 0.94911 0.28933 0.47766 0.0
C952 C 0.01254 0.21349 0.53457 0.0
H953 H 0.08462 0.34455 0.64857 0.0
H954 H 0.07689 0.37809 0.58502 0.0
H955 H 0.99563 0.37889 0.46025 0.0
H956 H 0.94747 0.34565 0.43799 0.0
H957 H 0.93049 0.22997 0.44591 0.0
H958 H 0.96693 0.18802 0.47501 0.0
H959 H 0.04608 0.1873 0.60235 0.0
H960 H 0.06545 0.22823 0.65929 0.0
H961 H 0.92655 0.25956 0.61471 0.0
H962 H 0.94808 0.35262 0.61735 0.0
H963 H 0.1183 0.26436 0.51169 0.0
H964 H 0.05391 0.26554 0.40592 0.0
C965 C 0.69356 0.04863 0.57122 0.0
C966 C 0.6673 0.05447 0.58811 0.0
C967 C 0.64836 0.0312 0.57565 0.0
C968 C 0.66402 0.01247 0.55204 0.0
N969 N 0.69151 0.02266 0.54892 0.0
Co970 Co 0.72166 0.00252 0.51877 0.0
N971 N 0.69103 0.97856 0.48473 0.0
C972 C 0.66356 0.97276 0.49412 0.0
C973 C 0.64758 0.95461 0.46507 0.0
C974 C 0.66629 0.94861 0.43581 0.0
C975 C 0.69274 0.96354 0.4487 0.0
N976 N 0.75184 0.98203 0.48895 0.0
C977 C 0.74848 0.9669 0.45236 0.0
C978 C 0.77545 0.95515 0.44329 0.0
C979 C 0.79612 0.9633 0.47554 0.0
C980 C 0.78078 0.97948 0.50252 0.0
N981 N 0.75226 0.02635 0.5532 0.0
C982 C 0.7811 0.01935 0.56061 0.0
C983 C 0.79664 0.03976 0.58703 0.0
C984 C 0.77614 0.06071 0.59666 0.0
C985 C 0.74921 0.05198 0.57526 0.0
N986 N 0.72557 0.97208 0.55833 0.0
C987 C 0.74981 0.93271 0.61417 0.0
C988 C 0.74167 0.96119 0.62719 0.0
C989 C 0.72922 0.98042 0.59882 0.0
C990 C 0.74254 0.9233 0.57337 0.0
C991 C 0.72998 0.94327 0.54595 0.0
N992 N 0.71874 0.03334 0.47982 0.0
C993 C 0.74429 0.07085 0.44854 0.0
C994 C 0.71745 0.08498 0.43747 0.0
C995 C 0.69094 0.0716 0.44563 0.0
C996 C 0.69207 0.04557 0.46672 0.0
C997 C 0.74444 0.04508 0.4694 0.0
H998 H 0.67161 0.03617 0.47424 0.0
H999 H 0.76566 0.03568 0.47922 0.0
H1000 H 0.72508 0.00284 0.60931 0.0
H1001 H 0.72624 0.93608 0.51425 0.0
C1002 C 0.65226 0.9885 0.52664 0.0
C1003 C 0.72066 0.06703 0.57806 0.0
C1004 C 0.71962 0.9619 0.42761 0.0
C1005 C 0.79323 0.99663 0.53696 0.0
H1006 H 0.66215 0.07342 0.6073 0.0
H1007 H 0.6255 0.02893 0.58167 0.0
H1008 H 0.62474 0.94743 0.46444 0.0
H1009 H 0.66097 0.93468 0.40844 0.0
H1010 H 0.77996 0.94178 0.41672 0.0
H1011 H 0.81969 0.95879 0.47826 0.0
H1012 H 0.8202 0.04 0.59702 0.0
H1013 H 0.78052 0.07993 0.61735 0.0
H1014 H 0.74675 0.96921 0.65856 0.0
H1015 H 0.74823 0.9013 0.56229 0.0
H1016 H 0.76525 0.08038 0.44277 0.0
H1017 H 0.66971 0.08189 0.43742 0.0
C1018 C 0.05688 0.73792 0.56012 0.0
C1019 C 0.07338 0.76326 0.57403 0.0
C1020 C 0.06195 0.78614 0.55213 0.0
C1021 C 0.03916 0.77397 0.52608 0.0
N1022 N 0.03516 0.74486 0.53069 0.0
Co1023 Co 0.00573 0.71921 0.49655 0.0
N1024 N 0.9821 0.75368 0.47837 0.0
C1025 C 0.99213 0.78155 0.47797 0.0
C1026 C 0.97082 0.80041 0.46181 0.0
C1027 C 0.94587 0.78315 0.45152 0.0
C1028 C 0.95336 0.75472 0.46254 0.0
N1029 N 0.97636 0.69399 0.46195 0.0
C1030 C 0.94813 0.70022 0.44758 0.0
C1031 C 0.93541 0.67679 0.42284 0.0
C1032 C 0.9565 0.65501 0.42259 0.0
C1033 C 0.98087 0.66647 0.44673 0.0
N1034 N 0.02918 0.6844 0.51423 0.0
C1035 C 0.02752 0.65737 0.49475 0.0
C1036 C 0.04687 0.63758 0.51265 0.0
C1037 C 0.06202 0.65314 0.54495 0.0
C1038 C 0.05113 0.68201 0.54516 0.0
N1039 N 0.98265 0.71659 0.54232 0.0
C1040 C 0.95677 0.7121 0.61428 0.0
C1041 C 0.95967 0.68709 0.58823 0.0
C1042 C 0.9726 0.68981 0.55232 0.0
C1043 C 0.96607 0.7396 0.60273 0.0
C1044 C 0.97857 0.7414 0.5664 0.0
N1045 N 0.02943 0.72211 0.45119 0.0
C1046 C 0.0779 0.72557 0.42919 0.0
C1047 C 0.06558 0.7328 0.39047 0.0
C1048 C 0.03456 0.73393 0.38243 0.0
C1049 C 0.01681 0.72839 0.41326 0.0
C1050 C 0.05958 0.71987 0.45859 0.0
H1051 H 0.993 0.73005 0.40685 0.0
H1052 H 0.07014 0.71474 0.48791 0.0
H1053 H 0.97547 0.67011 0.53337 0.0
H1054 H 0.98602 0.76275 0.55858 0.0
C1055 C 0.01928 0.78974 0.49996 0.0
C1056 C 0.065 0.70727 0.57103 0.0
C1057 C 0.93374 0.72861 0.45585 0.0
C1058 C 0.00549 0.65053 0.46249 0.0
H1059 H 0.0926 0.76545 0.59628 0.0
H1060 H 0.06937 0.80897 0.55506 0.0
H1061 H 0.97273 0.82406 0.45938 0.0
H1062 H 0.92475 0.79077 0.43758 0.0
H1063 H 0.91331 0.67547 0.4067 0.0
H1064 H 0.95384 0.63299 0.40813 0.0
H1065 H 0.04951 0.61447 0.50356 0.0
H1066 H 0.07979 0.64397 0.56473 0.0
H1067 H 0.95299 0.66541 0.59633 0.0
H1068 H 0.96457 0.75946 0.62214 0.0
H1069 H 0.10171 0.72496 0.43726 0.0
H1070 H 0.02422 0.73981 0.35298 0.0
C1071 C 0.30674 0.95995 0.55972 0.0
C1072 C 0.33232 0.95036 0.58238 0.0
C1073 C 0.35216 0.9735 0.58671 0.0
C1074 C 0.33795 0.99592 0.56645 0.0
N1075 N 0.31053 0.98812 0.54921 0.0
Co1076 Co 0.28289 0.0141 0.51739 0.0
N1077 N 0.31548 0.04066 0.50718 0.0
C1078 C 0.34199 0.0436 0.52955 0.0
C1079 C 0.35967 0.06467 0.51577 0.0
C1080 C 0.34308 0.07559 0.48272 0.0
C1081 C 0.31624 0.06034 0.47811 0.0
N1082 N 0.25546 0.04032 0.48563 0.0
C1083 C 0.26133 0.05951 0.4576 0.0
C1084 C 0.23572 0.07445 0.44382 0.0
C1085 C 0.21325 0.06381 0.46384 0.0
C1086 C 0.22631 0.04324 0.4889 0.0
N1087 N 0.25005 0.98783 0.52797 0.0
C1088 C 0.2214 0.99602 0.52693 0.0
C1089 C 0.20374 0.97458 0.53958 0.0
C1090 C 0.22248 0.95165 0.54955 0.0
C1091 C 0.25082 0.96025 0.54216 0.0
N1092 N 0.27707 0.03787 0.56683 0.0
C1093 C 0.24934 0.06875 0.62689 0.0
C1094 C 0.25785 0.03929 0.63153 0.0
C1095 C 0.27162 0.02419 0.60102 0.0
C1096 C 0.25866 0.08347 0.59445 0.0
C1097 C 0.2731 0.06773 0.56515 0.0
N1098 N 0.2878 0.9904 0.46789 0.0
C1099 C 0.25698 0.96292 0.3912 0.0
C1100 C 0.29255 0.94342 0.38813 0.0
C1101 C 0.32805 0.9573 0.41659 0.0
C1102 C 0.32165 0.97978 0.46073 0.0
C1103 C 0.25694 0.98459 0.43734 0.0
H1104 H 0.34029 0.98611 0.48257 0.0
H1105 H 0.23598 0.99286 0.44524 0.0
H1106 H 0.27555 0.00087 0.60365 0.0
H1107 H 0.27862 0.07918 0.53929 0.0
C1108 C 0.35116 0.02252 0.55761 0.0
C1109 C 0.2783 0.94324 0.55247 0.0
C1110 C 0.29142 0.06557 0.44704 0.0
C1111 C 0.21161 0.02253 0.50976 0.0
H1112 H 0.33653 0.92913 0.59511 0.0
H1113 H 0.37461 0.97357 0.60175 0.0
H1114 H 0.38234 0.07052 0.52721 0.0
H1115 H 0.34994 0.09282 0.46437 0.0
H1116 H 0.23334 0.09165 0.42243 0.0
H1117 H 0.19001 0.0697 0.45953 0.0
H1118 H 0.18001 0.97534 0.54107 0.0
H1119 H 0.21577 0.93152 0.56212 0.0
H1120 H 0.25204 0.02744 0.65703 0.0
H1121 H 0.25338 0.10654 0.59051 0.0
H1122 H 0.2365 0.95578 0.37342 0.0
H1123 H 0.34934 0.94722 0.41313 0.0
C1124 C 0.54174 0.83007 0.09253 0.0
C1125 C 0.55085 0.85668 0.11305 0.0
C1126 C 0.54879 0.87784 0.08466 0.0
C1127 C 0.53868 0.86308 0.04845 0.0
N1128 N 0.53432 0.83407 0.0527 0.0
Co1129 Co 0.52075 0.80459 0.00884 0.0
N1130 N 0.50267 0.83537 0.97448 0.0
C1131 C 0.5099 0.86426 0.97761 0.0
C1132 C 0.49282 0.8801 0.94963 0.0
C1133 C 0.47382 0.85976 0.92784 0.0
C1134 C 0.4803 0.83256 0.94396 0.0
N1135 N 0.50732 0.77526 0.96462 0.0
C1136 C 0.4851 0.77752 0.93434 0.0
C1137 C 0.48297 0.75203 0.90895 0.0
C1138 C 0.50458 0.73315 0.92464 0.0
C1139 C 0.51874 0.74822 0.95848 0.0
N1140 N 0.53895 0.77371 0.04288 0.0
C1141 C 0.54711 0.74665 0.02949 0.0
C1142 C 0.55886 0.72999 0.0606 0.0
C1143 C 0.55795 0.74776 0.09544 0.0
C1144 C 0.54559 0.77448 0.08365 0.0
N1145 N 0.48362 0.80005 0.03219 0.0
C1146 C 0.42947 0.79389 0.06355 0.0
C1147 C 0.44598 0.76892 0.05342 0.0
C1148 C 0.47284 0.77248 0.03733 0.0
C1149 C 0.44116 0.82199 0.05897 0.0
C1150 C 0.46832 0.82458 0.0435 0.0
N1151 N 0.55811 0.80925 0.98584 0.0
C1152 C 0.62382 0.81413 0.00227 0.0
C1153 C 0.62239 0.80884 0.94637 0.0
C1154 C 0.58834 0.81613 0.91177 0.0
C1155 C 0.55572 0.81248 0.93646 0.0
C1156 C 0.58809 0.81069 0.01878 0.0
H1157 H 0.53448 0.81196 0.91826 0.0
H1158 H 0.58673 0.80896 0.05076 0.0
H1159 H 0.48476 0.75295 0.02864 0.0
H1160 H 0.4768 0.84646 0.04016 0.0
C1161 C 0.52774 0.87608 0.01221 0.0
C1162 C 0.54191 0.80102 0.11054 0.0
C1163 C 0.46659 0.80394 0.9289 0.0
C1164 C 0.53797 0.73603 0.98935 0.0
H1165 H 0.55848 0.8605 0.14497 0.0
H1166 H 0.55298 0.90134 0.09017 0.0
H1167 H 0.49305 0.90379 0.94669 0.0
H1168 H 0.45737 0.86463 0.90301 0.0
H1169 H 0.46743 0.74751 0.88212 0.0
H1170 H 0.50842 0.71063 0.91382 0.0
H1171 H 0.56596 0.70718 0.05854 0.0
H1172 H 0.56571 0.74134 0.12558 0.0
H1173 H 0.43789 0.74682 0.0571 0.0
H1174 H 0.42925 0.84185 0.06685 0.0
H1175 H 0.64387 0.81129 0.02258 0.0
H1176 H 0.58768 0.81479 0.87903 0.0
C1177 C 0.21183 0.55196 0.0371 0.0
C1178 C 0.18414 0.56127 0.04711 0.0
C1179 C 0.16393 0.53989 0.03128 0.0
C1180 C 0.18013 0.51878 0.01236 0.0
N1181 N 0.20918 0.52582 0.01521 0.0
Co1182 Co 0.2401 0.50206 0.99178 0.0
N1183 N 0.21051 0.4816 0.95198 0.0
C1184 C 0.18147 0.47841 0.95562 0.0
C1185 C 0.16674 0.46246 0.92303 0.0
C1186 C 0.18801 0.45529 0.89762 0.0
C1187 C 0.21457 0.46747 0.91616 0.0
N1188 N 0.27087 0.47792 0.96854 0.0
C1189 C 0.27005 0.46433 0.93114 0.0
C1190 C 0.2964 0.44932 0.92713 0.0
C1191 C 0.314 0.45393 0.96354 0.0
C1192 C 0.29754 0.47137 0.98776 0.0
N1193 N 0.26974 0.52242 0.03165 0.0
C1194 C 0.29645 0.51156 0.04506 0.0
C1195 C 0.31137 0.52963 0.07517 0.0
C1196 C 0.29273 0.55311 0.08098 0.0
C1197 C 0.2674 0.5482 0.05365 0.0
N1198 N 0.23562 0.4714 0.0303 0.0
C1199 C 0.24222 0.42698 0.08615 0.0
C1200 C 0.23919 0.41987 0.04427 0.0
C1201 C 0.2357 0.44227 0.01696 0.0
C1202 C 0.23971 0.45675 0.09945 0.0
C1203 C 0.23605 0.47859 0.07099 0.0
N1204 N 0.2452 0.53234 0.95328 0.0
C1205 C 0.28835 0.56297 0.90825 0.0
C1206 C 0.25552 0.58468 0.88944 0.0
C1207 C 0.21681 0.57115 0.89062 0.0
C1208 C 0.21475 0.54558 0.9293 0.0
C1209 C 0.27981 0.53837 0.94524 0.0
H1210 H 0.19319 0.53884 0.93643 0.0
H1211 H 0.29795 0.52793 0.96264 0.0
H1212 H 0.23499 0.43604 0.98502 0.0
H1213 H 0.23534 0.50144 0.08203 0.0
C1214 C 0.16836 0.49564 0.98526 0.0
C1215 C 0.24054 0.56678 0.0511 0.0
C1216 C 0.24367 0.46412 0.90081 0.0
C1217 C 0.30816 0.48697 0.02441 0.0
H1218 H 0.1787 0.58131 0.06386 0.0
H1219 H 0.1401 0.54046 0.03185 0.0
H1220 H 0.14318 0.45774 0.91743 0.0
H1221 H 0.18432 0.44243 0.86903 0.0
H1222 H 0.30251 0.43626 0.90115 0.0
H1223 H 0.33661 0.44659 0.97069 0.0
H1224 H 0.33343 0.52656 0.09045 0.0
H1225 H 0.29727 0.57122 0.10345 0.0
H1226 H 0.24113 0.39719 0.03262 0.0
H1227 H 0.24208 0.46323 0.13157 0.0
H1228 H 0.31093 0.56999 0.90609 0.0
H1229 H 0.19747 0.58268 0.87753 0.0
C1230 C 0.43118 0.25193 0.0311 0.0
C1231 C 0.41006 0.28568 0.04278 0.0
C1232 C 0.4364 0.31584 0.04292 0.0
C1233 C 0.47084 0.29893 0.03226 0.0
N1234 N 0.46563 0.26286 0.02617 0.0
Co1235 Co 0.49711 0.23288 0.02933 0.0
N1236 N 0.52808 0.26286 0.05367 0.0
C1237 C 0.52551 0.293 0.0583 0.0
C1238 C 0.55155 0.30708 0.07241 0.0
C1239 C 0.57223 0.28546 0.0755 0.0
C1240 C 0.55781 0.25877 0.06309 0.0
N1241 N 0.52737 0.20117 0.0364 0.0
C1242 C 0.55635 0.20298 0.05127 0.0
C1243 C 0.5686 0.17498 0.0552 0.0
C1244 C 0.54685 0.15503 0.04049 0.0
C1245 C 0.52249 0.1718 0.02916 0.0
N1246 N 0.46607 0.20427 0.00159 0.0
C1247 C 0.47021 0.17538 0.99162 0.0
C1248 C 0.44572 0.1619 0.97017 0.0
C1249 C 0.42456 0.18348 0.96645 0.0
C1250 C 0.43731 0.20888 0.98601 0.0
N1251 N 0.50998 0.24042 0.97525 0.0
C1252 C 0.54691 0.25301 0.91493 0.0
C1253 C 0.54088 0.22379 0.92344 0.0
C1254 C 0.5222 0.21803 0.95307 0.0
C1255 C 0.53031 0.27527 0.93292 0.0
C1256 C 0.51229 0.26854 0.96276 0.0
N1257 N 0.48531 0.22518 0.08363 0.0
C1258 C 0.46377 0.19326 0.12877 0.0
C1259 C 0.46528 0.21583 0.15938 0.0
C1260 C 0.47768 0.24299 0.15179 0.0
C1261 C 0.48746 0.24718 0.11397 0.0
C1262 C 0.47375 0.19835 0.0914 0.0
H1263 H 0.49589 0.2687 0.10939 0.0
H1264 H 0.47166 0.18031 0.06921 0.0
H1265 H 0.51928 0.19534 0.95908 0.0
H1266 H 0.50165 0.28667 0.97652 0.0
C1267 C 0.49905 0.3086 0.04806 0.0
C1268 C 0.41943 0.23464 0.99639 0.0
C1269 C 0.57359 0.23055 0.05704 0.0
C1270 C 0.49619 0.16113 0.00684 0.0
H1271 H 0.38638 0.28756 0.0441 0.0
H1272 H 0.43282 0.33885 0.05149 0.0
H1273 H 0.55532 0.33063 0.07822 0.0
H1274 H 0.59543 0.28989 0.08446 0.0
H1275 H 0.5911 0.16936 0.06637 0.0
H1276 H 0.54893 0.13123 0.03697 0.0
H1277 H 0.44306 0.13878 0.96018 0.0
H1278 H 0.40172 0.18039 0.95345 0.0
H1279 H 0.55144 0.20541 0.90852 0.0
H1280 H 0.53193 0.29814 0.92559 0.0
H1281 H 0.45489 0.17168 0.13363 0.0
H1282 H 0.47974 0.26095 0.17493 0.0
C1283 C 0.75203 0.56115 0.05235 0.0
C1284 C 0.72714 0.57887 0.0462 0.0
C1285 C 0.71222 0.56924 0.0094 0.0
C1286 C 0.72888 0.54638 0.99509 0.0
N1287 N 0.7532 0.54122 0.0207 0.0
Co1288 Co 0.78364 0.51113 0.01196 0.0
N1289 N 0.75577 0.48761 0.97294 0.0
C1290 C 0.73105 0.4978 0.95211 0.0
C1291 C 0.71641 0.47617 0.92681 0.0
C1292 C 0.73311 0.45102 0.93215 0.0
C1293 C 0.75709 0.45872 0.96058 0.0
N1294 N 0.81422 0.48123 0.00292 0.0
C1295 C 0.81079 0.45287 0.98797 0.0
C1296 C 0.83834 0.43981 0.98553 0.0
C1297 C 0.85941 0.46096 -0.00045 0.0
C1298 C 0.84373 0.48573 0.00967 0.0
N1299 N 0.81146 0.53488 0.05077 0.0
C1300 C 0.84121 0.53456 0.05219 0.0
C1301 C 0.8545 0.55518 0.08045 0.0
C1302 C 0.83152 0.56913 0.09761 0.0
C1303 C 0.80544 0.55588 0.07924 0.0
N1304 N 0.7717 0.48911 0.05621 0.0
C1305 C 0.75594 0.4506 0.11348 0.0
C1306 C 0.78556 0.4594 0.11283 0.0
C1307 C 0.79297 0.47842 0.08393 0.0
C1308 C 0.73409 0.46364 0.08668 0.0
C1309 C 0.74249 0.48272 0.05825 0.0
N1310 N 0.79617 0.53282 0.96747 0.0
C1311 C 0.81562 0.57715 0.94339 0.0
C1312 C 0.82316 0.56135 0.9085 0.0
C1313 C 0.81456 0.53158 0.9022 0.0
C1314 C 0.80155 0.51767 0.93224 0.0
C1315 C 0.80193 0.56253 0.97238 0.0
H1316 H 0.79677 0.49434 0.92742 0.0
H1317 H 0.79695 0.57502 -0.00058 0.0
H1318 H 0.81609 0.48371 0.08313 0.0
H1319 H 0.72545 0.49161 0.03704 0.0
C1320 C 0.71988 0.52585 0.96265 0.0
C1321 C 0.77509 0.56434 0.08715 0.0
C1322 C 0.78172 0.43899 0.97372 0.0
C1323 C 0.85533 0.51153 0.03153 0.0
H1324 H 0.72051 0.59684 0.06607 0.0
H1325 H 0.69111 0.57713 0.9957 0.0
H1326 H 0.69549 0.47807 0.90799 0.0
H1327 H 0.7281 0.42967 0.9167 0.0
H1328 H 0.8431 0.41765 0.97438 0.0
H1329 H 0.88327 0.4582 0.00316 0.0
H1330 H 0.87803 0.55902 0.08858 0.0
H1331 H 0.83378 0.5871 0.12066 0.0
H1332 H 0.80314 0.45086 0.13376 0.0
H1333 H 0.71074 0.45875 0.08651 0.0
H1334 H 0.82076 0.60052 0.94858 0.0
H1335 H 0.81851 0.51879 0.87483 0.0
loop_
_geom_bond_atom_site_label_1
_geom_bond_atom_site_label_2
_geom_bond_distance
_geom_bond_site_symmetry_2
_ccdc_geom_bond_type
C0 C1 1.560 . S
C0 H61 0.959 . S
C0 H62 0.959 . S
C0 H63 0.960 . S
C1 C0 1.560 . S
C1 O56 1.426 . S
C1 H60 0.980 . S
C2 C3 1.407 . S
C2 C7 1.418 . S
C2 O56 1.334 . S
C3 C2 1.407 . S
C3 C4 1.360 . S
C3 H64 0.929 . S
C4 C3 1.360 . S
C4 C5 1.401 . S
C4 C8 1.527 . S
C5 C4 1.401 . S
C5 C6 1.405 . S
C5 C38 1.587 . S
C6 C5 1.405 . S
C6 C7 1.332 . S
C6 C9 1.496 . S
C7 C2 1.418 . S
C7 C6 1.332 . S
C7 H65 0.929 . S
C8 C4 1.527 . S
C8 H66 0.959 . S
C8 H67 0.961 . S
C8 H68 0.961 . S
C9 C6 1.496 . S
C9 H69 0.960 . S
C9 H70 0.960 . S
C9 H71 0.961 . S
C10 C11 1.517 . S
C10 H73 0.961 . S
C10 H74 0.960 . S
C10 H75 0.959 . S
C11 C10 1.517 . S
C11 O59 1.468 . S
C11 H72 0.980 . S
C12 C13 1.349 . S
C12 C17 1.367 . S
C12 O59 1.408 . S
C13 C12 1.349 . S
C13 C14 1.407 . S
C13 H76 0.930 . S
C14 C13 1.407 . S
C14 C15 1.449 . S
C14 C18 1.535 . S
C15 C14 1.449 . S
C15 C16 1.384 . S
C15 C40 1.553 . S
C16 C15 1.384 . S
C16 C17 1.364 . S
C16 C19 1.450 . S
C17 C12 1.367 . S
C17 C16 1.364 . S
C17 H77 0.931 . S
C18 C14 1.535 . S
C18 H78 0.959 . S
C18 H79 0.961 . S
C18 H80 0.959 . S
C19 C16 1.450 . S
C19 H81 0.960 . S
C19 H82 0.960 . S
C19 H83 0.960 . S
C20 C21 1.309 . S
C20 C25 1.304 . S
C20 O58 1.435 . S
C21 C20 1.309 . S
C21 C22 1.476 . S
C21 H85 0.930 . S
C22 C21 1.476 . S
C22 C23 1.400 . S
C22 C26 1.567 . S
C23 C22 1.400 . S
C23 C24 1.373 . S
C23 C45 1.432 . S
C24 C23 1.373 . S
C24 C25 1.339 . S
C24 C27 1.530 . S
C25 C20 1.304 . S
C25 C24 1.339 . S
C25 H86 0.930 . S
C26 C22 1.567 . S
C26 H87 0.961 . S
C26 H88 0.960 . S
C26 H89 0.958 . S
C27 C24 1.530 . S
C27 H90 0.961 . S
C27 H91 0.960 . S
C27 H92 0.960 . S
C28 C29 1.530 . S
C28 H94 0.961 . S
C28 H95 0.961 . S
C28 H96 0.959 . S
C29 C28 1.530 . S
C29 O57 1.412 . S
C29 H93 0.980 . S
C30 C31 1.288 . S
C30 C35 1.377 . S
C30 O57 1.393 . S
C31 C30 1.288 . S
C31 C32 1.369 . S
C31 H97 0.932 . S
C32 C31 1.369 . S
C32 C33 1.398 . S
C32 C36 1.527 . S
C33 C32 1.398 . S
C33 C34 1.380 . S
C33 C47 1.497 . S
C34 C33 1.380 . S
C34 C35 1.383 . S
C34 C37 1.603 . S
C35 C30 1.377 . S
C35 C34 1.383 . S
C35 H98 0.929 . S
C36 C32 1.527 . S
C36 H99 0.961 . S
C36 H100 0.959 . S
C36 H101 0.959 . S
C37 C34 1.603 . S
C37 H102 0.960 . S
C37 H103 0.962 . S
C37 H104 0.961 . S
C38 C5 1.587 . S
C38 C39 1.360 . S
C38 C51 1.412 . S
C39 C38 1.360 . S
C39 C40 1.365 . S
C39 H105 0.929 . S
C40 C15 1.553 . S
C40 C39 1.365 . S
C40 C41 1.404 . S
C41 C40 1.404 . S
C41 C42 1.395 . S
C41 C52 1.451 . S
C42 C41 1.395 . S
C42 C43 1.322 . S
C42 H106 0.930 . S
C43 C42 1.322 . S
C43 C44 1.459 . S
C43 H107 0.929 . S
C44 C43 1.459 . S
C44 C45 1.445 . S
C44 C53 1.395 . S
C45 C23 1.432 . S
C45 C44 1.445 . S
C45 C46 1.370 . S
C46 C45 1.370 . S
C46 C47 1.438 . S
C46 H108 0.930 . S
C47 C33 1.497 . S
C47 C46 1.438 . S
C47 C48 1.360 . S
C48 C47 1.360 . S
C48 C49 1.401 . S
C48 C53 1.446 . S
C49 C48 1.401 . S
C49 C50 1.347 . S
C49 H109 0.929 . S
C50 C49 1.347 . S
C50 C51 1.455 . S
C50 H110 0.930 . S
C51 C38 1.412 . S
C51 C50 1.455 . S
C51 C52 1.331 . S
C52 C41 1.451 . S
C52 C51 1.331 . S
C52 C53 1.497 . S
C53 C44 1.395 . S
C53 C48 1.446 . S
C53 C52 1.497 . S
C54 C55 1.582 . S
C54 H111 0.962 . S
C54 H112 0.959 . S
C54 H113 0.958 . S
C55 C54 1.582 . S
C55 O58 1.458 . S
C55 H84 0.980 . S
O56 C1 1.426 . S
O56 C2 1.334 . S
O57 C29 1.412 . S
O57 C30 1.393 . S
O58 C20 1.435 . S
O58 C55 1.458 . S
O59 C11 1.468 . S
O59 C12 1.408 . S
H60 C1 0.980 . S
H61 C0 0.959 . S
H62 C0 0.959 . S
H63 C0 0.960 . S
H64 C3 0.929 . S
H65 C7 0.929 . S
H66 C8 0.959 . S
H67 C8 0.961 . S
H68 C8 0.961 . S
H69 C9 0.960 . S
H70 C9 0.960 . S
H71 C9 0.961 . S
H72 C11 0.980 . S
H73 C10 0.961 . S
H74 C10 0.960 . S
H75 C10 0.959 . S
H76 C13 0.930 . S
H77 C17 0.931 . S
H78 C18 0.959 . S
H79 C18 0.961 . S
H80 C18 0.959 . S
H81 C19 0.960 . S
H82 C19 0.960 . S
H83 C19 0.960 . S
H84 C55 0.980 . S
H85 C21 0.930 . S
H86 C25 0.930 . S
H87 C26 0.961 . S
H88 C26 0.960 . S
H89 C26 0.958 . S
H90 C27 0.961 . S
H91 C27 0.960 . S
H92 C27 0.960 . S
H93 C29 0.980 . S
H94 C28 0.961 . S
H95 C28 0.961 . S
H96 C28 0.959 . S
H97 C31 0.932 . S
H98 C35 0.929 . S
H99 C36 0.961 . S
H100 C36 0.959 . S
H101 C36 0.959 . S
H102 C37 0.960 . S
H103 C37 0.962 . S
H104 C37 0.961 . S
H105 C39 0.929 . S
H106 C42 0.930 . S
H107 C43 0.929 . S
H108 C46 0.930 . S
H109 C49 0.929 . S
H110 C50 0.930 . S
H111 C54 0.962 . S
H112 C54 0.959 . S
H113 C54 0.958 . S
C114 C115 1.560 . S
C114 H175 0.959 . S
C114 H176 0.959 . S
C114 H177 0.960 . S
C115 C114 1.560 . S
C115 O170 1.426 . S
C115 H174 0.980 . S
C116 C117 1.407 . S
C116 C121 1.418 . S
C116 O170 1.334 . S
C117 C116 1.407 . S
C117 C118 1.360 . S
C117 H178 0.929 . S
C118 C117 1.360 . S
C118 C119 1.401 . S
C118 C122 1.527 . S
C119 C118 1.401 . S
C119 C120 1.405 . S
C119 C152 1.587 . S
C120 C119 1.405 . S
C120 C121 1.332 . S
C120 C123 1.496 . S
C121 C116 1.418 . S
C121 C120 1.332 . S
C121 H179 0.929 . S
C122 C118 1.527 . S
C122 H180 0.959 . S
C122 H181 0.961 . S
C122 H182 0.961 . S
C123 C120 1.496 . S
C123 H183 0.960 . S
C123 H184 0.960 . S
C123 H185 0.961 . S
C124 C125 1.517 . S
C124 H187 0.961 . S
C124 H188 0.960 . S
C124 H189 0.959 . S
C125 C124 1.517 . S
C125 O173 1.468 . S
C125 H186 0.980 . S
C126 C127 1.349 . S
C126 C131 1.367 . S
C126 O173 1.408 . S
C127 C126 1.349 . S
C127 C128 1.407 . S
C127 H190 0.930 . S
C128 C127 1.407 . S
C128 C129 1.449 . S
C128 C132 1.535 . S
C129 C128 1.449 . S
C129 C130 1.384 . S
C129 C154 1.553 . S
C130 C129 1.384 . S
C130 C131 1.364 . S
C130 C133 1.450 . S
C131 C126 1.367 . S
C131 C130 1.364 . S
C131 H191 0.931 . S
C132 C128 1.535 . S
C132 H192 0.959 . S
C132 H193 0.961 . S
C132 H194 0.959 . S
C133 C130 1.450 . S
C133 H195 0.960 . S
C133 H196 0.960 . S
C133 H197 0.960 . S
C134 C135 1.309 . S
C134 C139 1.304 . S
C134 O172 1.435 . S
C135 C134 1.309 . S
C135 C136 1.476 . S
C135 H199 0.930 . S
C136 C135 1.476 . S
C136 C137 1.400 . S
C136 C140 1.567 . S
C137 C136 1.400 . S
C137 C138 1.373 . S
C137 C159 1.432 . S
C138 C137 1.373 . S
C138 C139 1.339 . S
C138 C141 1.530 . S
C139 C134 1.304 . S
C139 C138 1.339 . S
C139 H200 0.930 . S
C140 C136 1.567 . S
C140 H201 0.961 . S
C140 H202 0.960 . S
C140 H203 0.958 . S
C141 C138 1.530 . S
C141 H204 0.961 . S
C141 H205 0.960 . S
C141 H206 0.960 . S
C142 C143 1.530 . S
C142 H208 0.961 . S
C142 H209 0.961 . S
C142 H210 0.959 . S
C143 C142 1.530 . S
C143 O171 1.412 . S
C143 H207 0.980 . S
C144 C145 1.288 . S
C144 C149 1.377 . S
C144 O171 1.393 . S
C145 C144 1.288 . S
C145 C146 1.369 . S
C145 H211 0.932 . S
C146 C145 1.369 . S
C146 C147 1.398 . S
C146 C150 1.527 . S
C147 C146 1.398 . S
C147 C148 1.380 . S
C147 C161 1.497 . S
C148 C147 1.380 . S
C148 C149 1.383 . S
C148 C151 1.603 . S
C149 C144 1.377 . S
C149 C148 1.383 . S
C149 H212 0.929 . S
C150 C146 1.527 . S
C150 H213 0.961 . S
C150 H214 0.959 . S
C150 H215 0.959 . S
C151 C148 1.603 . S
C151 H216 0.960 . S
C151 H217 0.962 . S
C151 H218 0.961 . S
C152 C119 1.587 . S
C152 C153 1.360 . S
C152 C165 1.412 . S
C153 C152 1.360 . S
C153 C154 1.365 . S
C153 H219 0.929 . S
C154 C129 1.553 . S
C154 C153 1.365 . S
C154 C155 1.404 . S
C155 C154 1.404 . S
C155 C156 1.395 . S
C155 C166 1.451 . S
C156 C155 1.395 . S
C156 C157 1.322 . S
C156 H220 0.930 . S
C157 C156 1.322 . S
C157 C158 1.459 . S
C157 H221 0.929 . S
C158 C157 1.459 . S
C158 C159 1.445 . S
C158 C167 1.395 . S
C159 C137 1.432 . S
C159 C158 1.445 . S
C159 C160 1.370 . S
C160 C159 1.370 . S
C160 C161 1.438 . S
C160 H222 0.930 . S
C161 C147 1.497 . S
C161 C160 1.438 . S
C161 C162 1.360 . S
C162 C161 1.360 . S
C162 C163 1.401 . S
C162 C167 1.446 . S
C163 C162 1.401 . S
C163 C164 1.347 . S
C163 H223 0.929 . S
C164 C163 1.347 . S
C164 C165 1.455 . S
C164 H224 0.930 . S
C165 C152 1.412 . S
C165 C164 1.455 . S
C165 C166 1.331 . S
C166 C155 1.451 . S
C166 C165 1.331 . S
C166 C167 1.497 . S
C167 C158 1.395 . S
C167 C162 1.446 . S
C167 C166 1.497 . S
C168 C169 1.582 . S
C168 H225 0.962 . S
C168 H226 0.959 . S
C168 H227 0.958 . S
C169 C168 1.582 . S
C169 O172 1.458 . S
C169 H198 0.980 . S
O170 C115 1.426 . S
O170 C116 1.334 . S
O171 C143 1.412 . S
O171 C144 1.393 . S
O172 C134 1.435 . S
O172 C169 1.458 . S
O173 C125 1.468 . S
O173 C126 1.408 . S
H174 C115 0.980 . S
H175 C114 0.959 . S
H176 C114 0.959 . S
H177 C114 0.960 . S
H178 C117 0.929 . S
H179 C121 0.929 . S
H180 C122 0.959 . S
H181 C122 0.961 . S
H182 C122 0.961 . S
H183 C123 0.960 . S
H184 C123 0.960 . S
H185 C123 0.961 . S
H186 C125 0.980 . S
H187 C124 0.961 . S
H188 C124 0.960 . S
H189 C124 0.959 . S
H190 C127 0.930 . S
H191 C131 0.931 . S
H192 C132 0.959 . S
H193 C132 0.961 . S
H194 C132 0.959 . S
H195 C133 0.960 . S
H196 C133 0.960 . S
H197 C133 0.960 . S
H198 C169 0.980 . S
H199 C135 0.930 . S
H200 C139 0.930 . S
H201 C140 0.961 . S
H202 C140 0.960 . S
H203 C140 0.958 . S
H204 C141 0.961 . S
H205 C141 0.960 . S
H206 C141 0.960 . S
H207 C143 0.980 . S
H208 C142 0.961 . S
H209 C142 0.961 . S
H210 C142 0.959 . S
H211 C145 0.932 . S
H212 C149 0.929 . S
H213 C150 0.961 . S
H214 C150 0.959 . S
H215 C150 0.959 . S
H216 C151 0.960 . S
H217 C151 0.962 . S
H218 C151 0.961 . S
H219 C153 0.929 . S
H220 C156 0.930 . S
H221 C157 0.929 . S
H222 C160 0.930 . S
H223 C163 0.929 . S
H224 C164 0.930 . S
H225 C168 0.962 . S
H226 C168 0.959 . S
H227 C168 0.958 . S
C228 C229 1.560 . S
C228 H289 0.959 . S
C228 H290 0.959 . S
C228 H291 0.960 . S
C229 C228 1.560 . S
C229 O284 1.426 . S
C229 H288 0.980 . S
C230 C231 1.407 . S
C230 C235 1.418 . S
C230 O284 1.334 . S
C231 C230 1.407 . S
C231 C232 1.360 . S
C231 H292 0.929 . S
C232 C231 1.360 . S
C232 C233 1.401 . S
C232 C236 1.527 . S
C233 C232 1.401 . S
C233 C234 1.405 . S
C233 C266 1.587 . S
C234 C233 1.405 . S
C234 C235 1.332 . S
C234 C237 1.496 . S
C235 C230 1.418 . S
C235 C234 1.332 . S
C235 H293 0.929 . S
C236 C232 1.527 . S
C236 H294 0.959 . S
C236 H295 0.961 . S
C236 H296 0.961 . S
C237 C234 1.496 . S
C237 H297 0.960 . S
C237 H298 0.960 . S
C237 H299 0.961 . S
C238 C239 1.517 . S
C238 H301 0.961 . S
C238 H302 0.960 . S
C238 H303 0.959 . S
C239 C238 1.517 . S
C239 O287 1.468 . S
C239 H300 0.980 . S
C240 C241 1.349 . S
C240 C245 1.367 . S
C240 O287 1.408 . S
C241 C240 1.349 . S
C241 C242 1.407 . S
C241 H304 0.930 . S
C242 C241 1.407 . S
C242 C243 1.449 . S
C242 C246 1.535 . S
C243 C242 1.449 . S
C243 C244 1.384 . S
C243 C268 1.553 . S
C244 C243 1.384 . S
C244 C245 1.364 . S
C244 C247 1.450 . S
C245 C240 1.367 . S
C245 C244 1.364 . S
C245 H305 0.931 . S
C246 C242 1.535 . S
C246 H306 0.959 . S
C246 H307 0.961 . S
C246 H308 0.959 . S
C247 C244 1.450 . S
C247 H309 0.960 . S
C247 H310 0.960 . S
C247 H311 0.960 . S
C248 C249 1.309 . S
C248 C253 1.304 . S
C248 O286 1.435 . S
C249 C248 1.309 . S
C249 C250 1.476 . S
C249 H313 0.930 . S
C250 C249 1.476 . S
C250 C251 1.400 . S
C250 C254 1.567 . S
C251 C250 1.400 . S
C251 C252 1.373 . S
C251 C273 1.432 . S
C252 C251 1.373 . S
C252 C253 1.339 . S
C252 C255 1.530 . S
C253 C248 1.304 . S
C253 C252 1.339 . S
C253 H314 0.930 . S
C254 C250 1.567 . S
C254 H315 0.961 . S
C254 H316 0.960 . S
C254 H317 0.958 . S
C255 C252 1.530 . S
C255 H318 0.961 . S
C255 H319 0.960 . S
C255 H320 0.960 . S
C256 C257 1.530 . S
C256 H322 0.961 . S
C256 H323 0.961 . S
C256 H324 0.959 . S
C257 C256 1.530 . S
C257 O285 1.412 . S
C257 H321 0.980 . S
C258 C259 1.288 . S
C258 C263 1.377 . S
C258 O285 1.393 . S
C259 C258 1.288 . S
C259 C260 1.369 . S
C259 H325 0.932 . S
C260 C259 1.369 . S
C260 C261 1.398 . S
C260 C264 1.527 . S
C261 C260 1.398 . S
C261 C262 1.380 . S
C261 C275 1.497 . S
C262 C261 1.380 . S
C262 C263 1.383 . S
C262 C265 1.603 . S
C263 C258 1.377 . S
C263 C262 1.383 . S
C263 H326 0.929 . S
C264 C260 1.527 . S
C264 H327 0.961 . S
C264 H328 0.959 . S
C264 H329 0.959 . S
C265 C262 1.603 . S
C265 H330 0.960 . S
C265 H331 0.962 . S
C265 H332 0.961 . S
C266 C233 1.587 . S
C266 C267 1.360 . S
C266 C279 1.412 . S
C267 C266 1.360 . S
C267 C268 1.365 . S
C267 H333 0.929 . S
C268 C243 1.553 . S
C268 C267 1.365 . S
C268 C269 1.404 . S
C269 C268 1.404 . S
C269 C270 1.395 . S
C269 C280 1.451 . S
C270 C269 1.395 . S
C270 C271 1.322 . S
C270 H334 0.930 . S
C271 C270 1.322 . S
C271 C272 1.459 . S
C271 H335 0.929 . S
C272 C271 1.459 . S
C272 C273 1.445 . S
C272 C281 1.395 . S
C273 C251 1.432 . S
C273 C272 1.445 . S
C273 C274 1.370 . S
C274 C273 1.370 . S
C274 C275 1.438 . S
C274 H336 0.930 . S
C275 C261 1.497 . S
C275 C274 1.438 . S
C275 C276 1.360 . S
C276 C275 1.360 . S
C276 C277 1.401 . S
C276 C281 1.446 . S
C277 C276 1.401 . S
C277 C278 1.347 . S
C277 H337 0.929 . S
C278 C277 1.347 . S
C278 C279 1.455 . S
C278 H338 0.930 . S
C279 C266 1.412 . S
C279 C278 1.455 . S
C279 C280 1.331 . S
C280 C269 1.451 . S
C280 C279 1.331 . S
C280 C281 1.497 . S
C281 C272 1.395 . S
C281 C276 1.446 . S
C281 C280 1.497 . S
C282 C283 1.582 . S
C282 H339 0.962 . S
C282 H340 0.959 . S
C282 H341 0.958 . S
C283 C282 1.582 . S
C283 O286 1.458 . S
C283 H312 0.980 . S
O284 C229 1.426 . S
O284 C230 1.334 . S
O285 C257 1.412 . S
O285 C258 1.393 . S
O286 C248 1.435 . S
O286 C283 1.458 . S
O287 C239 1.468 . S
O287 C240 1.408 . S
H288 C229 0.980 . S
H289 C228 0.959 . S
H290 C228 0.959 . S
H291 C228 0.960 . S
H292 C231 0.929 . S
H293 C235 0.929 . S
H294 C236 0.959 . S
H295 C236 0.961 . S
H296 C236 0.961 . S
H297 C237 0.960 . S
H298 C237 0.960 . S
H299 C237 0.961 . S
H300 C239 0.980 . S
H301 C238 0.961 . S
H302 C238 0.960 . S
H303 C238 0.959 . S
H304 C241 0.930 . S
H305 C245 0.931 . S
H306 C246 0.959 . S
H307 C246 0.961 . S
H308 C246 0.959 . S
H309 C247 0.960 . S
H310 C247 0.960 . S
H311 C247 0.960 . S
H312 C283 0.980 . S
H313 C249 0.930 . S
H314 C253 0.930 . S
H315 C254 0.961 . S
H316 C254 0.960 . S
H317 C254 0.958 . S
H318 C255 0.961 . S
H319 C255 0.960 . S
H320 C255 0.960 . S
H321 C257 0.980 . S
H322 C256 0.961 . S
H323 C256 0.961 . S
H324 C256 0.959 . S
H325 C259 0.932 . S
H326 C263 0.929 . S
H327 C264 0.961 . S
H328 C264 0.959 . S
H329 C264 0.959 . S
H330 C265 0.960 . S
H331 C265 0.962 . S
H332 C265 0.961 . S
H333 C267 0.929 . S
H334 C270 0.930 . S
H335 C271 0.929 . S
H336 C274 0.930 . S
H337 C277 0.929 . S
H338 C278 0.930 . S
H339 C282 0.962 . S
H340 C282 0.959 . S
H341 C282 0.958 . S
C342 C343 1.560 . S
C342 H403 0.959 . S
C342 H404 0.959 . S
C342 H405 0.960 . S
C343 C342 1.560 . S
C343 O398 1.426 . S
C343 H402 0.980 . S
C344 C345 1.407 . S
C344 C349 1.418 . S
C344 O398 1.334 . S
C345 C344 1.407 . S
C345 C346 1.360 . S
C345 H406 0.929 . S
C346 C345 1.360 . S
C346 C347 1.401 . S
C346 C350 1.527 . S
C347 C346 1.401 . S
C347 C348 1.405 . S
C347 C380 1.587 . S
C348 C347 1.405 . S
C348 C349 1.332 . S
C348 C351 1.496 . S
C349 C344 1.418 . S
C349 C348 1.332 . S
C349 H407 0.929 . S
C350 C346 1.527 . S
C350 H408 0.959 . S
C350 H409 0.961 . S
C350 H410 0.961 . S
C351 C348 1.496 . S
C351 H411 0.960 . S
C351 H412 0.960 . S
C351 H413 0.961 . S
C352 C353 1.517 . S
C352 H415 0.961 . S
C352 H416 0.960 . S
C352 H417 0.959 . S
C353 C352 1.517 . S
C353 O401 1.468 . S
C353 H414 0.980 . S
C354 C355 1.349 . S
C354 C359 1.367 . S
C354 O401 1.408 . S
C355 C354 1.349 . S
C355 C356 1.407 . S
C355 H418 0.930 . S
C356 C355 1.407 . S
C356 C357 1.449 . S
C356 C360 1.535 . S
C357 C356 1.449 . S
C357 C358 1.384 . S
C357 C382 1.553 . S
C358 C357 1.384 . S
C358 C359 1.364 . S
C358 C361 1.450 . S
C359 C354 1.367 . S
C359 C358 1.364 . S
C359 H419 0.931 . S
C360 C356 1.535 . S
C360 H420 0.959 . S
C360 H421 0.961 . S
C360 H422 0.959 . S
C361 C358 1.450 . S
C361 H423 0.960 . S
C361 H424 0.960 . S
C361 H425 0.960 . S
C362 C363 1.309 . S
C362 C367 1.304 . S
C362 O400 1.435 . S
C363 C362 1.309 . S
C363 C364 1.476 . S
C363 H427 0.930 . S
C364 C363 1.476 . S
C364 C365 1.400 . S
C364 C368 1.567 . S
C365 C364 1.400 . S
C365 C366 1.373 . S
C365 C387 1.432 . S
C366 C365 1.373 . S
C366 C367 1.339 . S
C366 C369 1.530 . S
C367 C362 1.304 . S
C367 C366 1.339 . S
C367 H428 0.930 . S
C368 C364 1.567 . S
C368 H429 0.961 . S
C368 H430 0.960 . S
C368 H431 0.958 . S
C369 C366 1.530 . S
C369 H432 0.961 . S
C369 H433 0.960 . S
C369 H434 0.960 . S
C370 C371 1.530 . S
C370 H436 0.961 . S
C370 H437 0.961 . S
C370 H438 0.959 . S
C371 C370 1.530 . S
C371 O399 1.412 . S
C371 H435 0.980 . S
C372 C373 1.288 . S
C372 C377 1.377 . S
C372 O399 1.393 . S
C373 C372 1.288 . S
C373 C374 1.369 . S
C373 H439 0.932 . S
C374 C373 1.369 . S
C374 C375 1.398 . S
C374 C378 1.527 . S
C375 C374 1.398 . S
C375 C376 1.380 . S
C375 C389 1.497 . S
C376 C375 1.380 . S
C376 C377 1.383 . S
C376 C379 1.603 . S
C377 C372 1.377 . S
C377 C376 1.383 . S
C377 H440 0.929 . S
C378 C374 1.527 . S
C378 H441 0.961 . S
C378 H442 0.959 . S
C378 H443 0.959 . S
C379 C376 1.603 . S
C379 H444 0.960 . S
C379 H445 0.962 . S
C379 H446 0.961 . S
C380 C347 1.587 . S
C380 C381 1.360 . S
C380 C393 1.412 . S
C381 C380 1.360 . S
C381 C382 1.365 . S
C381 H447 0.929 . S
C382 C357 1.553 . S
C382 C381 1.365 . S
C382 C383 1.404 . S
C383 C382 1.404 . S
C383 C384 1.395 . S
C383 C394 1.451 . S
C384 C383 1.395 . S
C384 C385 1.322 . S
C384 H448 0.930 . S
C385 C384 1.322 . S
C385 C386 1.459 . S
C385 H449 0.929 . S
C386 C385 1.459 . S
C386 C387 1.445 . S
C386 C395 1.395 . S
C387 C365 1.432 . S
C387 C386 1.445 . S
C387 C388 1.370 . S
C388 C387 1.370 . S
C388 C389 1.438 . S
C388 H450 0.930 . S
C389 C375 1.497 . S
C389 C388 1.438 . S
C389 C390 1.360 . S
C390 C389 1.360 . S
C390 C391 1.401 . S
C390 C395 1.446 . S
C391 C390 1.401 . S
C391 C392 1.347 . S
C391 H451 0.929 . S
C392 C391 1.347 . S
C392 C393 1.455 . S
C392 H452 0.930 . S
C393 C380 1.412 . S
C393 C392 1.455 . S
C393 C394 1.331 . S
C394 C383 1.451 . S
C394 C393 1.331 . S
C394 C395 1.497 . S
C395 C386 1.395 . S
C395 C390 1.446 . S
C395 C394 1.497 . S
C396 C397 1.582 . S
C396 H453 0.962 . S
C396 H454 0.959 . S
C396 H455 0.958 . S
C397 C396 1.582 . S
C397 O400 1.458 . S
C397 H426 0.980 . S
O398 C343 1.426 . S
O398 C344 1.334 . S
O399 C371 1.412 . S
O399 C372 1.393 . S
O400 C362 1.435 . S
O400 C397 1.458 . S
O401 C353 1.468 . S
O401 C354 1.408 . S
H402 C343 0.980 . S
H403 C342 0.959 . S
H404 C342 0.959 . S
H405 C342 0.960 . S
H406 C345 0.929 . S
H407 C349 0.929 . S
H408 C350 0.959 . S
H409 C350 0.961 . S
H410 C350 0.961 . S
H411 C351 0.960 . S
H412 C351 0.960 . S
H413 C351 0.961 . S
H414 C353 0.980 . S
H415 C352 0.961 . S
H416 C352 0.960 . S
H417 C352 0.959 . S
H418 C355 0.930 . S
H419 C359 0.931 . S
H420 C360 0.959 . S
H421 C360 0.961 . S
H422 C360 0.959 . S
H423 C361 0.960 . S
H424 C361 0.960 . S
H425 C361 0.960 . S
H426 C397 0.980 . S
H427 C363 0.930 . S
H428 C367 0.930 . S
H429 C368 0.961 . S
H430 C368 0.960 . S
H431 C368 0.958 . S
H432 C369 0.961 . S
H433 C369 0.960 . S
H434 C369 0.960 . S
H435 C371 0.980 . S
H436 C370 0.961 . S
H437 C370 0.961 . S
H438 C370 0.959 . S
H439 C373 0.932 . S
H440 C377 0.929 . S
H441 C378 0.961 . S
H442 C378 0.959 . S
H443 C378 0.959 . S
H444 C379 0.960 . S
H445 C379 0.962 . S
H446 C379 0.961 . S
H447 C381 0.929 . S
H448 C384 0.930 . S
H449 C385 0.929 . S
H450 C388 0.930 . S
H451 C391 0.929 . S
H452 C392 0.930 . S
H453 C396 0.962 . S
H454 C396 0.959 . S
H455 C396 0.958 . S
C456 C457 1.560 . S
C456 H517 0.959 . S
C456 H518 0.959 . S
C456 H519 0.960 . S
C457 C456 1.560 . S
C457 O512 1.426 . S
C457 H516 0.980 . S
C458 C459 1.407 . S
C458 C463 1.418 . S
C458 O512 1.334 . S
C459 C458 1.407 . S
C459 C460 1.360 . S
C459 H520 0.929 . S
C460 C459 1.360 . S
C460 C461 1.401 . S
C460 C464 1.527 . S
C461 C460 1.401 . S
C461 C462 1.405 . S
C461 C494 1.587 . S
C462 C461 1.405 . S
C462 C463 1.332 . S
C462 C465 1.496 . S
C463 C458 1.418 . S
C463 C462 1.332 . S
C463 H521 0.929 . S
C464 C460 1.527 . S
C464 H522 0.959 . S
C464 H523 0.961 . S
C464 H524 0.961 . S
C465 C462 1.496 . S
C465 H525 0.960 . S
C465 H526 0.960 . S
C465 H527 0.961 . S
C466 C467 1.517 . S
C466 H529 0.961 . S
C466 H530 0.960 . S
C466 H531 0.959 . S
C467 C466 1.517 . S
C467 O515 1.468 . S
C467 H528 0.980 . S
C468 C469 1.349 . S
C468 C473 1.367 . S
C468 O515 1.408 . S
C469 C468 1.349 . S
C469 C470 1.407 . S
C469 H532 0.930 . S
C470 C469 1.407 . S
C470 C471 1.449 . S
C470 C474 1.535 . S
C471 C470 1.449 . S
C471 C472 1.384 . S
C471 C496 1.553 . S
C472 C471 1.384 . S
C472 C473 1.364 . S
C472 C475 1.450 . S
C473 C468 1.367 . S
C473 C472 1.364 . S
C473 H533 0.931 . S
C474 C470 1.535 . S
C474 H534 0.959 . S
C474 H535 0.961 . S
C474 H536 0.959 . S
C475 C472 1.450 . S
C475 H537 0.960 . S
C475 H538 0.960 . S
C475 H539 0.960 . S
C476 C477 1.309 . S
C476 C481 1.304 . S
C476 O514 1.435 . S
C477 C476 1.309 . S
C477 C478 1.476 . S
C477 H541 0.930 . S
C478 C477 1.476 . S
C478 C479 1.400 . S
C478 C482 1.567 . S
C479 C478 1.400 . S
C479 C480 1.373 . S
C479 C501 1.432 . S
C480 C479 1.373 . S
C480 C481 1.339 . S
C480 C483 1.530 . S
C481 C476 1.304 . S
C481 C480 1.339 . S
C481 H542 0.930 . S
C482 C478 1.567 . S
C482 H543 0.961 . S
C482 H544 0.960 . S
C482 H545 0.958 . S
C483 C480 1.530 . S
C483 H546 0.961 . S
C483 H547 0.960 . S
C483 H548 0.960 . S
C484 C485 1.530 . S
C484 H550 0.961 . S
C484 H551 0.961 . S
C484 H552 0.959 . S
C485 C484 1.530 . S
C485 O513 1.412 . S
C485 H549 0.980 . S
C486 C487 1.288 . S
C486 C491 1.377 . S
C486 O513 1.393 . S
C487 C486 1.288 . S
C487 C488 1.369 . S
C487 H553 0.932 . S
C488 C487 1.369 . S
C488 C489 1.398 . S
C488 C492 1.527 . S
C489 C488 1.398 . S
C489 C490 1.380 . S
C489 C503 1.497 . S
C490 C489 1.380 . S
C490 C491 1.383 . S
C490 C493 1.603 . S
C491 C486 1.377 . S
C491 C490 1.383 . S
C491 H554 0.929 . S
C492 C488 1.527 . S
C492 H555 0.961 . S
C492 H556 0.959 . S
C492 H557 0.959 . S
C493 C490 1.603 . S
C493 H558 0.960 . S
C493 H559 0.962 . S
C493 H560 0.961 . S
C494 C461 1.587 . S
C494 C495 1.360 . S
C494 C507 1.412 . S
C495 C494 1.360 . S
C495 C496 1.365 . S
C495 H561 0.929 . S
C496 C471 1.553 . S
C496 C495 1.365 . S
C496 C497 1.404 . S
C497 C496 1.404 . S
C497 C498 1.395 . S
C497 C508 1.451 . S
C498 C497 1.395 . S
C498 C499 1.322 . S
C498 H562 0.930 . S
C499 C498 1.322 . S
C499 C500 1.459 . S
C499 H563 0.929 . S
C500 C499 1.459 . S
C500 C501 1.445 . S
C500 C509 1.395 . S
C501 C479 1.432 . S
C501 C500 1.445 . S
C501 C502 1.370 . S
C502 C501 1.370 . S
C502 C503 1.438 . S
C502 H564 0.930 . S
C503 C489 1.497 . S
C503 C502 1.438 . S
C503 C504 1.360 . S
C504 C503 1.360 . S
C504 C505 1.401 . S
C504 C509 1.446 . S
C505 C504 1.401 . S
C505 C506 1.347 . S
C505 H565 0.929 . S
C506 C505 1.347 . S
C506 C507 1.455 . S
C506 H566 0.930 . S
C507 C494 1.412 . S
C507 C506 1.455 . S
C507 C508 1.331 . S
C508 C497 1.451 . S
C508 C507 1.331 . S
C508 C509 1.497 . S
C509 C500 1.395 . S
C509 C504 1.446 . S
C509 C508 1.497 . S
C510 C511 1.582 . S
C510 H567 0.962 . S
C510 H568 0.959 . S
C510 H569 0.958 . S
C511 C510 1.582 . S
C511 O514 1.458 . S
C511 H540 0.980 . S
O512 C457 1.426 . S
O512 C458 1.334 . S
O513 C485 1.412 . S
O513 C486 1.393 . S
O514 C476 1.435 . S
O514 C511 1.458 . S
O515 C467 1.468 . S
O515 C468 1.408 . S
H516 C457 0.980 . S
H517 C456 0.959 . S
H518 C456 0.959 . S
H519 C456 0.960 . S
H520 C459 0.929 . S
H521 C463 0.929 . S
H522 C464 0.959 . S
H523 C464 0.961 . S
H524 C464 0.961 . S
H525 C465 0.960 . S
H526 C465 0.960 . S
H527 C465 0.961 . S
H528 C467 0.980 . S
H529 C466 0.961 . S
H530 C466 0.960 . S
H531 C466 0.959 . S
H532 C469 0.930 . S
H533 C473 0.931 . S
H534 C474 0.959 . S
H535 C474 0.961 . S
H536 C474 0.959 . S
H537 C475 0.960 . S
H538 C475 0.960 . S
H539 C475 0.960 . S
H540 C511 0.980 . S
H541 C477 0.930 . S
H542 C481 0.930 . S
H543 C482 0.961 . S
H544 C482 0.960 . S
H545 C482 0.958 . S
H546 C483 0.961 . S
H547 C483 0.960 . S
H548 C483 0.960 . S
H549 C485 0.980 . S
H550 C484 0.961 . S
H551 C484 0.961 . S
H552 C484 0.959 . S
H553 C487 0.932 . S
H554 C491 0.929 . S
H555 C492 0.961 . S
H556 C492 0.959 . S
H557 C492 0.959 . S
H558 C493 0.960 . S
H559 C493 0.962 . S
H560 C493 0.961 . S
H561 C495 0.929 . S
H562 C498 0.930 . S
H563 C499 0.929 . S
H564 C502 0.930 . S
H565 C505 0.929 . S
H566 C506 0.930 . S
H567 C510 0.962 . S
H568 C510 0.959 . S
H569 C510 0.958 . S
C570 C571 1.560 . S
C570 H631 0.959 . S
C570 H632 0.959 . S
C570 H633 0.960 . S
C571 C570 1.560 . S
C571 O626 1.426 . S
C571 H630 0.980 . S
C572 C573 1.407 . S
C572 C577 1.418 . S
C572 O626 1.334 . S
C573 C572 1.407 . S
C573 C574 1.360 . S
C573 H634 0.929 . S
C574 C573 1.360 . S
C574 C575 1.401 . S
C574 C578 1.527 . S
C575 C574 1.401 . S
C575 C576 1.405 . S
C575 C608 1.587 . S
C576 C575 1.405 . S
C576 C577 1.332 . S
C576 C579 1.496 . S
C577 C572 1.418 . S
C577 C576 1.332 . S
C577 H635 0.929 . S
C578 C574 1.527 . S
C578 H636 0.959 . S
C578 H637 0.961 . S
C578 H638 0.961 . S
C579 C576 1.496 . S
C579 H639 0.960 . S
C579 H640 0.960 . S
C579 H641 0.961 . S
C580 C581 1.517 . S
C580 H643 0.961 . S
C580 H644 0.960 . S
C580 H645 0.959 . S
C581 C580 1.517 . S
C581 O629 1.468 . S
C581 H642 0.980 . S
C582 C583 1.349 . S
C582 C587 1.367 . S
C582 O629 1.408 . S
C583 C582 1.349 . S
C583 C584 1.407 . S
C583 H646 0.930 . S
C584 C583 1.407 . S
C584 C585 1.449 . S
C584 C588 1.535 . S
C585 C584 1.449 . S
C585 C586 1.384 . S
C585 C610 1.553 . S
C586 C585 1.384 . S
C586 C587 1.364 . S
C586 C589 1.450 . S
C587 C582 1.367 . S
C587 C586 1.364 . S
C587 H647 0.931 . S
C588 C584 1.535 . S
C588 H648 0.959 . S
C588 H649 0.961 . S
C588 H650 0.959 . S
C589 C586 1.450 . S
C589 H651 0.960 . S
C589 H652 0.960 . S
C589 H653 0.960 . S
C590 C591 1.309 . S
C590 C595 1.304 . S
C590 O628 1.435 . S
C591 C590 1.309 . S
C591 C592 1.476 . S
C591 H655 0.930 . S
C592 C591 1.476 . S
C592 C593 1.400 . S
C592 C596 1.567 . S
C593 C592 1.400 . S
C593 C594 1.373 . S
C593 C615 1.432 . S
C594 C593 1.373 . S
C594 C595 1.339 . S
C594 C597 1.530 . S
C595 C590 1.304 . S
C595 C594 1.339 . S
C595 H656 0.930 . S
C596 C592 1.567 . S
C596 H657 0.961 . S
C596 H658 0.960 . S
C596 H659 0.958 . S
C597 C594 1.530 . S
C597 H660 0.961 . S
C597 H661 0.960 . S
C597 H662 0.960 . S
C598 C599 1.530 . S
C598 H664 0.961 . S
C598 H665 0.961 . S
C598 H666 0.959 . S
C599 C598 1.530 . S
C599 O627 1.412 . S
C599 H663 0.980 . S
C600 C601 1.288 . S
C600 C605 1.377 . S
C600 O627 1.393 . S
C601 C600 1.288 . S
C601 C602 1.369 . S
C601 H667 0.932 . S
C602 C601 1.369 . S
C602 C603 1.398 . S
C602 C606 1.527 . S
C603 C602 1.398 . S
C603 C604 1.380 . S
C603 C617 1.497 . S
C604 C603 1.380 . S
C604 C605 1.383 . S
C604 C607 1.603 . S
C605 C600 1.377 . S
C605 C604 1.383 . S
C605 H668 0.929 . S
C606 C602 1.527 . S
C606 H669 0.961 . S
C606 H670 0.959 . S
C606 H671 0.959 . S
C607 C604 1.603 . S
C607 H672 0.960 . S
C607 H673 0.962 . S
C607 H674 0.961 . S
C608 C575 1.587 . S
C608 C609 1.360 . S
C608 C621 1.412 . S
C609 C608 1.360 . S
C609 C610 1.365 . S
C609 H675 0.929 . S
C610 C585 1.553 . S
C610 C609 1.365 . S
C610 C611 1.404 . S
C611 C610 1.404 . S
C611 C612 1.395 . S
C611 C622 1.451 . S
C612 C611 1.395 . S
C612 C613 1.322 . S
C612 H676 0.930 . S
C613 C612 1.322 . S
C613 C614 1.459 . S
C613 H677 0.929 . S
C614 C613 1.459 . S
C614 C615 1.445 . S
C614 C623 1.395 . S
C615 C593 1.432 . S
C615 C614 1.445 . S
C615 C616 1.370 . S
C616 C615 1.370 . S
C616 C617 1.438 . S
C616 H678 0.930 . S
C617 C603 1.497 . S
C617 C616 1.438 . S
C617 C618 1.360 . S
C618 C617 1.360 . S
C618 C619 1.401 . S
C618 C623 1.446 . S
C619 C618 1.401 . S
C619 C620 1.347 . S
C619 H679 0.929 . S
C620 C619 1.347 . S
C620 C621 1.455 . S
C620 H680 0.930 . S
C621 C608 1.412 . S
C621 C620 1.455 . S
C621 C622 1.331 . S
C622 C611 1.451 . S
C622 C621 1.331 . S
C622 C623 1.497 . S
C623 C614 1.395 . S
C623 C618 1.446 . S
C623 C622 1.497 . S
C624 C625 1.582 . S
C624 H681 0.962 . S
C624 H682 0.959 . S
C624 H683 0.958 . S
C625 C624 1.582 . S
C625 O628 1.458 . S
C625 H654 0.980 . S
O626 C571 1.426 . S
O626 C572 1.334 . S
O627 C599 1.412 . S
O627 C600 1.393 . S
O628 C590 1.435 . S
O628 C625 1.458 . S
O629 C581 1.468 . S
O629 C582 1.408 . S
H630 C571 0.980 . S
H631 C570 0.959 . S
H632 C570 0.959 . S
H633 C570 0.960 . S
H634 C573 0.929 . S
H635 C577 0.929 . S
H636 C578 0.959 . S
H637 C578 0.961 . S
H638 C578 0.961 . S
H639 C579 0.960 . S
H640 C579 0.960 . S
H641 C579 0.961 . S
H642 C581 0.980 . S
H643 C580 0.961 . S
H644 C580 0.960 . S
H645 C580 0.959 . S
H646 C583 0.930 . S
H647 C587 0.931 . S
H648 C588 0.959 . S
H649 C588 0.961 . S
H650 C588 0.959 . S
H651 C589 0.960 . S
H652 C589 0.960 . S
H653 C589 0.960 . S
H654 C625 0.980 . S
H655 C591 0.930 . S
H656 C595 0.930 . S
H657 C596 0.961 . S
H658 C596 0.960 . S
H659 C596 0.958 . S
H660 C597 0.961 . S
H661 C597 0.960 . S
H662 C597 0.960 . S
H663 C599 0.980 . S
H664 C598 0.961 . S
H665 C598 0.961 . S
H666 C598 0.959 . S
H667 C601 0.932 . S
H668 C605 0.929 . S
H669 C606 0.961 . S
H670 C606 0.959 . S
H671 C606 0.959 . S
H672 C607 0.960 . S
H673 C607 0.962 . S
H674 C607 0.961 . S
H675 C609 0.929 . S
H676 C612 0.930 . S
H677 C613 0.929 . S
H678 C616 0.930 . S
H679 C619 0.929 . S
H680 C620 0.930 . S
H681 C624 0.962 . S
H682 C624 0.959 . S
H683 C624 0.958 . S
C684 C685 1.560 . S
C684 H745 0.959 . S
C684 H746 0.959 . S
C684 H747 0.960 . S
C685 C684 1.560 . S
C685 O740 1.426 . S
C685 H744 0.980 . S
C686 C687 1.407 . S
C686 C691 1.418 . S
C686 O740 1.334 . S
C687 C686 1.407 . S
C687 C688 1.360 . S
C687 H748 0.929 . S
C688 C687 1.360 . S
C688 C689 1.401 . S
C688 C692 1.527 . S
C689 C688 1.401 . S
C689 C690 1.405 . S
C689 C722 1.587 . S
C690 C689 1.405 . S
C690 C691 1.332 . S
C690 C693 1.496 . S
C691 C686 1.418 . S
C691 C690 1.332 . S
C691 H749 0.929 . S
C692 C688 1.527 . S
C692 H750 0.959 . S
C692 H751 0.961 . S
C692 H752 0.961 . S
C693 C690 1.496 . S
C693 H753 0.960 . S
C693 H754 0.960 . S
C693 H755 0.961 . S
C694 C695 1.517 . S
C694 H757 0.961 . S
C694 H758 0.960 . S
C694 H759 0.959 . S
C695 C694 1.517 . S
C695 O743 1.468 . S
C695 H756 0.980 . S
C696 C697 1.349 . S
C696 C701 1.367 . S
C696 O743 1.408 . S
C697 C696 1.349 . S
C697 C698 1.407 . S
C697 H760 0.930 . S
C698 C697 1.407 . S
C698 C699 1.449 . S
C698 C702 1.535 . S
C699 C698 1.449 . S
C699 C700 1.384 . S
C699 C724 1.553 . S
C700 C699 1.384 . S
C700 C701 1.364 . S
C700 C703 1.450 . S
C701 C696 1.367 . S
C701 C700 1.364 . S
C701 H761 0.931 . S
C702 C698 1.535 . S
C702 H762 0.959 . S
C702 H763 0.961 . S
C702 H764 0.959 . S
C703 C700 1.450 . S
C703 H765 0.960 . S
C703 H766 0.960 . S
C703 H767 0.960 . S
C704 C705 1.309 . S
C704 C709 1.304 . S
C704 O742 1.435 . S
C705 C704 1.309 . S
C705 C706 1.476 . S
C705 H769 0.930 . S
C706 C705 1.476 . S
C706 C707 1.400 . S
C706 C710 1.567 . S
C707 C706 1.400 . S
C707 C708 1.373 . S
C707 C729 1.432 . S
C708 C707 1.373 . S
C708 C709 1.339 . S
C708 C711 1.530 . S
C709 C704 1.304 . S
C709 C708 1.339 . S
C709 H770 0.930 . S
C710 C706 1.567 . S
C710 H771 0.961 . S
C710 H772 0.960 . S
C710 H773 0.958 . S
C711 C708 1.530 . S
C711 H774 0.961 . S
C711 H775 0.960 . S
C711 H776 0.960 . S
C712 C713 1.530 . S
C712 H778 0.961 . S
C712 H779 0.961 . S
C712 H780 0.959 . S
C713 C712 1.530 . S
C713 O741 1.412 . S
C713 H777 0.980 . S
C714 C715 1.288 . S
C714 C719 1.377 . S
C714 O741 1.393 . S
C715 C714 1.288 . S
C715 C716 1.369 . S
C715 H781 0.932 . S
C716 C715 1.369 . S
C716 C717 1.398 . S
C716 C720 1.527 . S
C717 C716 1.398 . S
C717 C718 1.380 . S
C717 C731 1.497 . S
C718 C717 1.380 . S
C718 C719 1.383 . S
C718 C721 1.603 . S
C719 C714 1.377 . S
C719 C718 1.383 . S
C719 H782 0.929 . S
C720 C716 1.527 . S
C720 H783 0.961 . S
C720 H784 0.959 . S
C720 H785 0.959 . S
C721 C718 1.603 . S
C721 H786 0.960 . S
C721 H787 0.962 . S
C721 H788 0.961 . S
C722 C689 1.587 . S
C722 C723 1.360 . S
C722 C735 1.412 . S
C723 C722 1.360 . S
C723 C724 1.365 . S
C723 H789 0.929 . S
C724 C699 1.553 . S
C724 C723 1.365 . S
C724 C725 1.404 . S
C725 C724 1.404 . S
C725 C726 1.395 . S
C725 C736 1.451 . S
C726 C725 1.395 . S
C726 C727 1.322 . S
C726 H790 0.930 . S
C727 C726 1.322 . S
C727 C728 1.459 . S
C727 H791 0.929 . S
C728 C727 1.459 . S
C728 C729 1.445 . S
C728 C737 1.395 . S
C729 C707 1.432 . S
C729 C728 1.445 . S
C729 C730 1.370 . S
C730 C729 1.370 . S
C730 C731 1.438 . S
C730 H792 0.930 . S
C731 C717 1.497 . S
C731 C730 1.438 . S
C731 C732 1.360 . S
C732 C731 1.360 . S
C732 C733 1.401 . S
C732 C737 1.446 . S
C733 C732 1.401 . S
C733 C734 1.347 . S
C733 H793 0.929 . S
C734 C733 1.347 . S
C734 C735 1.455 . S
C734 H794 0.930 . S
C735 C722 1.412 . S
C735 C734 1.455 . S
C735 C736 1.331 . S
C736 C725 1.451 . S
C736 C735 1.331 . S
C736 C737 1.497 . S
C737 C728 1.395 . S
C737 C732 1.446 . S
C737 C736 1.497 . S
C738 C739 1.582 . S
C738 H795 0.962 . S
C738 H796 0.959 . S
C738 H797 0.958 . S
C739 C738 1.582 . S
C739 O742 1.458 . S
C739 H768 0.980 . S
O740 C685 1.426 . S
O740 C686 1.334 . S
O741 C713 1.412 . S
O741 C714 1.393 . S
O742 C704 1.435 . S
O742 C739 1.458 . S
O743 C695 1.468 . S
O743 C696 1.408 . S
H744 C685 0.980 . S
H745 C684 0.959 . S
H746 C684 0.959 . S
H747 C684 0.960 . S
H748 C687 0.929 . S
H749 C691 0.929 . S
H750 C692 0.959 . S
H751 C692 0.961 . S
H752 C692 0.961 . S
H753 C693 0.960 . S
H754 C693 0.960 . S
H755 C693 0.961 . S
H756 C695 0.980 . S
H757 C694 0.961 . S
H758 C694 0.960 . S
H759 C694 0.959 . S
H760 C697 0.930 . S
H761 C701 0.931 . S
H762 C702 0.959 . S
H763 C702 0.961 . S
H764 C702 0.959 . S
H765 C703 0.960 . S
H766 C703 0.960 . S
H767 C703 0.960 . S
H768 C739 0.980 . S
H769 C705 0.930 . S
H770 C709 0.930 . S
H771 C710 0.961 . S
H772 C710 0.960 . S
H773 C710 0.958 . S
H774 C711 0.961 . S
H775 C711 0.960 . S
H776 C711 0.960 . S
H777 C713 0.980 . S
H778 C712 0.961 . S
H779 C712 0.961 . S
H780 C712 0.959 . S
H781 C715 0.932 . S
H782 C719 0.929 . S
H783 C720 0.961 . S
H784 C720 0.959 . S
H785 C720 0.959 . S
H786 C721 0.960 . S
H787 C721 0.962 . S
H788 C721 0.961 . S
H789 C723 0.929 . S
H790 C726 0.930 . S
H791 C727 0.929 . S
H792 C730 0.930 . S
H793 C733 0.929 . S
H794 C734 0.930 . S
H795 C738 0.962 . S
H796 C738 0.959 . S
H797 C738 0.958 . S
C798 C799 1.560 . S
C798 H859 0.959 . S
C798 H860 0.959 . S
C798 H861 0.960 . S
C799 C798 1.560 . S
C799 O854 1.426 . S
C799 H858 0.980 . S
C800 C801 1.407 . S
C800 C805 1.418 . S
C800 O854 1.334 . S
C801 C800 1.407 . S
C801 C802 1.360 . S
C801 H862 0.929 . S
C802 C801 1.360 . S
C802 C803 1.401 . S
C802 C806 1.527 . S
C803 C802 1.401 . S
C803 C804 1.405 . S
C803 C836 1.587 . S
C804 C803 1.405 . S
C804 C805 1.332 . S
C804 C807 1.496 . S
C805 C800 1.418 . S
C805 C804 1.332 . S
C805 H863 0.929 . S
C806 C802 1.527 . S
C806 H864 0.959 . S
C806 H865 0.961 . S
C806 H866 0.961 . S
C807 C804 1.496 . S
C807 H867 0.960 . S
C807 H868 0.960 . S
C807 H869 0.961 . S
C808 C809 1.517 . S
C808 H871 0.961 . S
C808 H872 0.960 . S
C808 H873 0.959 . S
C809 C808 1.517 . S
C809 O857 1.468 . S
C809 H870 0.980 . S
C810 C811 1.349 . S
C810 C815 1.367 . S
C810 O857 1.408 . S
C811 C810 1.349 . S
C811 C812 1.407 . S
C811 H874 0.930 . S
C812 C811 1.407 . S
C812 C813 1.449 . S
C812 C816 1.535 . S
C813 C812 1.449 . S
C813 C814 1.384 . S
C813 C838 1.553 . S
C814 C813 1.384 . S
C814 C815 1.364 . S
C814 C817 1.450 . S
C815 C810 1.367 . S
C815 C814 1.364 . S
C815 H875 0.931 . S
C816 C812 1.535 . S
C816 H876 0.959 . S
C816 H877 0.961 . S
C816 H878 0.959 . S
C817 C814 1.450 . S
C817 H879 0.960 . S
C817 H880 0.960 . S
C817 H881 0.960 . S
C818 C819 1.309 . S
C818 C823 1.304 . S
C818 O856 1.435 . S
C819 C818 1.309 . S
C819 C820 1.476 . S
C819 H883 0.930 . S
C820 C819 1.476 . S
C820 C821 1.400 . S
C820 C824 1.567 . S
C821 C820 1.400 . S
C821 C822 1.373 . S
C821 C843 1.432 . S
C822 C821 1.373 . S
C822 C823 1.339 . S
C822 C825 1.530 . S
C823 C818 1.304 . S
C823 C822 1.339 . S
C823 H884 0.930 . S
C824 C820 1.567 . S
C824 H885 0.961 . S
C824 H886 0.960 . S
C824 H887 0.958 . S
C825 C822 1.530 . S
C825 H888 0.961 . S
C825 H889 0.960 . S
C825 H890 0.960 . S
C826 C827 1.530 . S
C826 H892 0.961 . S
C826 H893 0.961 . S
C826 H894 0.959 . S
C827 C826 1.530 . S
C827 O855 1.412 . S
C827 H891 0.980 . S
C828 C829 1.288 . S
C828 C833 1.377 . S
C828 O855 1.393 . S
C829 C828 1.288 . S
C829 C830 1.369 . S
C829 H895 0.932 . S
C830 C829 1.369 . S
C830 C831 1.398 . S
C830 C834 1.527 . S
C831 C830 1.398 . S
C831 C832 1.380 . S
C831 C845 1.497 . S
C832 C831 1.380 . S
C832 C833 1.383 . S
C832 C835 1.603 . S
C833 C828 1.377 . S
C833 C832 1.383 . S
C833 H896 0.929 . S
C834 C830 1.527 . S
C834 H897 0.961 . S
C834 H898 0.959 . S
C834 H899 0.959 . S
C835 C832 1.603 . S
C835 H900 0.960 . S
C835 H901 0.962 . S
C835 H902 0.961 . S
C836 C803 1.587 . S
C836 C837 1.360 . S
C836 C849 1.412 . S
C837 C836 1.360 . S
C837 C838 1.365 . S
C837 H903 0.929 . S
C838 C813 1.553 . S
C838 C837 1.365 . S
C838 C839 1.404 . S
C839 C838 1.404 . S
C839 C840 1.395 . S
C839 C850 1.451 . S
C840 C839 1.395 . S
C840 C841 1.322 . S
C840 H904 0.930 . S
C841 C840 1.322 . S
C841 C842 1.459 . S
C841 H905 0.929 . S
C842 C841 1.459 . S
C842 C843 1.445 . S
C842 C851 1.395 . S
C843 C821 1.432 . S
C843 C842 1.445 . S
C843 C844 1.370 . S
C844 C843 1.370 . S
C844 C845 1.438 . S
C844 H906 0.930 . S
C845 C831 1.497 . S
C845 C844 1.438 . S
C845 C846 1.360 . S
C846 C845 1.360 . S
C846 C847 1.401 . S
C846 C851 1.446 . S
C847 C846 1.401 . S
C847 C848 1.347 . S
C847 H907 0.929 . S
C848 C847 1.347 . S
C848 C849 1.455 . S
C848 H908 0.930 . S
C849 C836 1.412 . S
C849 C848 1.455 . S
C849 C850 1.331 . S
C850 C839 1.451 . S
C850 C849 1.331 . S
C850 C851 1.497 . S
C851 C842 1.395 . S
C851 C846 1.446 . S
C851 C850 1.497 . S
C852 C853 1.582 . S
C852 H909 0.962 . S
C852 H910 0.959 . S
C852 H911 0.958 . S
C853 C852 1.582 . S
C853 O856 1.458 . S
C853 H882 0.980 . S
O854 C799 1.426 . S
O854 C800 1.334 . S
O855 C827 1.412 . S
O855 C828 1.393 . S
O856 C818 1.435 . S
O856 C853 1.458 . S
O857 C809 1.468 . S
O857 C810 1.408 . S
H858 C799 0.980 . S
H859 C798 0.959 . S
H860 C798 0.959 . S
H861 C798 0.960 . S
H862 C801 0.929 . S
H863 C805 0.929 . S
H864 C806 0.959 . S
H865 C806 0.961 . S
H866 C806 0.961 . S
H867 C807 0.960 . S
H868 C807 0.960 . S
H869 C807 0.961 . S
H870 C809 0.980 . S
H871 C808 0.961 . S
H872 C808 0.960 . S
H873 C808 0.959 . S
H874 C811 0.930 . S
H875 C815 0.931 . S
H876 C816 0.959 . S
H877 C816 0.961 . S
H878 C816 0.959 . S
H879 C817 0.960 . S
H880 C817 0.960 . S
H881 C817 0.960 . S
H882 C853 0.980 . S
H883 C819 0.930 . S
H884 C823 0.930 . S
H885 C824 0.961 . S
H886 C824 0.960 . S
H887 C824 0.958 . S
H888 C825 0.961 . S
H889 C825 0.960 . S
H890 C825 0.960 . S
H891 C827 0.980 . S
H892 C826 0.961 . S
H893 C826 0.961 . S
H894 C826 0.959 . S
H895 C829 0.932 . S
H896 C833 0.929 . S
H897 C834 0.961 . S
H898 C834 0.959 . S
H899 C834 0.959 . S
H900 C835 0.960 . S
H901 C835 0.962 . S
H902 C835 0.961 . S
H903 C837 0.929 . S
H904 C840 0.930 . S
H905 C841 0.929 . S
H906 C844 0.930 . S
H907 C847 0.929 . S
H908 C848 0.930 . S
H909 C852 0.962 . S
H910 C852 0.959 . S
H911 C852 0.958 . S
C912 C913 1.443 . S
C912 N916 1.376 . S
C912 C950 1.389 . S
C913 C912 1.443 . S
C913 C914 1.340 . S
C913 H953 0.951 . S
C914 C913 1.340 . S
C914 C915 1.439 . S
C914 H954 0.950 . S
C915 C914 1.439 . S
C915 N916 1.374 . S
C915 C949 1.395 . S
N916 C912 1.376 . S
N916 C915 1.374 . S
N916 Co917 2.008 . S
Co917 N916 2.008 . S
Co917 N918 1.995 1_455 S
Co917 N923 2.008 1_455 S
Co917 N928 1.995 . S
Co917 N933 2.282 1_455 S
Co917 N939 2.282 . S
N918 Co917 1.995 1_655 S
N918 C919 1.376 . S
N918 C922 1.383 . S
C919 N918 1.376 . S
C919 C920 1.446 . S
C919 C949 1.391 1_655 S
C920 C919 1.446 . S
C920 C921 1.339 . S
C920 H955 0.949 . S
C921 C920 1.339 . S
C921 C922 1.439 . S
C921 H956 0.950 . S
C922 N918 1.383 . S
C922 C921 1.439 . S
C922 C951 1.392 . S
N923 Co917 2.008 1_655 S
N923 C924 1.376 . S
N923 C927 1.374 . S
C924 N923 1.376 . S
C924 C925 1.443 . S
C924 C951 1.389 . S
C925 C924 1.443 . S
C925 C926 1.340 . S
C925 H957 0.951 . S
C926 C925 1.340 . S
C926 C927 1.439 . S
C926 H958 0.950 . S
C927 N923 1.374 . S
C927 C926 1.439 . S
C927 C952 1.395 1_655 S
N928 Co917 1.995 . S
N928 C929 1.376 . S
N928 C932 1.383 . S
C929 N928 1.376 . S
C929 C930 1.446 . S
C929 C952 1.391 . S
C930 C929 1.446 . S
C930 C931 1.339 . S
C930 H959 0.949 . S
C931 C930 1.339 . S
C931 C932 1.439 . S
C931 H960 0.950 . S
C932 N928 1.383 . S
C932 C931 1.439 . S
C932 C950 1.392 . S
N933 Co917 2.282 1_655 S
N933 C936 1.332 . S
N933 C938 1.332 . S
C934 C935 1.386 . S
C934 C937 1.388 . S
C935 C934 1.386 . S
C935 C936 1.382 . S
C935 H961 0.950 . S
C936 N933 1.332 . S
C936 C935 1.382 . S
C936 H947 0.952 . S
C937 C934 1.388 . S
C937 C938 1.382 . S
C937 H962 0.950 . S
C938 N933 1.332 . S
C938 C937 1.382 . S
C938 H948 0.948 . S
N939 Co917 2.282 . S
N939 C943 1.332 . S
N939 C944 1.332 . S
C940 C941 1.388 . S
C940 C944 1.382 . S
C940 H963 0.950 . S
C941 C940 1.388 . S
C941 C942 1.386 . S
C942 C941 1.386 . S
C942 C943 1.382 . S
C942 H964 0.950 . S
C943 N939 1.332 . S
C943 C942 1.382 . S
C943 H945 0.952 . S
C944 N939 1.332 . S
C944 C940 1.382 . S
C944 H946 0.948 . S
H945 C943 0.952 . S
H946 C944 0.948 . S
H947 C936 0.952 . S
H948 C938 0.948 . S
C949 C915 1.395 . S
C949 C919 1.391 1_455 S
C950 C912 1.389 . S
C950 C932 1.392 . S
C951 C922 1.392 . S
C951 C924 1.389 . S
C952 C927 1.395 1_455 S
C952 C929 1.391 . S
H953 C913 0.951 . S
H954 C914 0.950 . S
H955 C920 0.949 . S
H956 C921 0.950 . S
H957 C925 0.951 . S
H958 C926 0.950 . S
H959 C930 0.949 . S
H960 C931 0.950 . S
H961 C935 0.950 . S
H962 C937 0.950 . S
H963 C940 0.950 . S
H964 C942 0.950 . S
C965 C966 1.443 . S
C965 N969 1.376 . S
C965 C1003 1.389 . S
C966 C965 1.443 . S
C966 C967 1.340 . S
C966 H1006 0.951 . S
C967 C966 1.340 . S
C967 C968 1.439 . S
C967 H1007 0.950 . S
C968 C967 1.439 . S
C968 N969 1.374 . S
C968 C1002 1.395 . S
N969 C965 1.376 . S
N969 C968 1.374 . S
N969 Co970 2.008 . S
Co970 N969 2.008 . S
Co970 N971 1.995 1_545 S
Co970 N976 2.008 1_545 S
Co970 N981 1.995 . S
Co970 N986 2.282 1_545 S
Co970 N992 2.282 . S
N971 Co970 1.995 1_565 S
N971 C972 1.376 . S
N971 C975 1.383 . S
C972 N971 1.376 . S
C972 C973 1.446 . S
C972 C1002 1.391 1_565 S
C973 C972 1.446 . S
C973 C974 1.339 . S
C973 H1008 0.949 . S
C974 C973 1.339 . S
C974 C975 1.439 . S
C974 H1009 0.950 . S
C975 N971 1.383 . S
C975 C974 1.439 . S
C975 C1004 1.392 . S
N976 Co970 2.008 1_565 S
N976 C977 1.376 . S
N976 C980 1.374 . S
C977 N976 1.376 . S
C977 C978 1.443 . S
C977 C1004 1.389 . S
C978 C977 1.443 . S
C978 C979 1.340 . S
C978 H1010 0.951 . S
C979 C978 1.340 . S
C979 C980 1.439 . S
C979 H1011 0.950 . S
C980 N976 1.374 . S
C980 C979 1.439 . S
C980 C1005 1.395 1_565 S
N981 Co970 1.995 . S
N981 C982 1.376 . S
N981 C985 1.383 . S
C982 N981 1.376 . S
C982 C983 1.446 . S
C982 C1005 1.391 . S
C983 C982 1.446 . S
C983 C984 1.339 . S
C983 H1012 0.949 . S
C984 C983 1.339 . S
C984 C985 1.439 . S
C984 H1013 0.950 . S
C985 N981 1.383 . S
C985 C984 1.439 . S
C985 C1003 1.392 . S
N986 Co970 2.282 1_565 S
N986 C989 1.332 . S
N986 C991 1.332 . S
C987 C988 1.386 . S
C987 C990 1.388 . S
C988 C987 1.386 . S
C988 C989 1.382 . S
C988 H1014 0.950 . S
C989 N986 1.332 . S
C989 C988 1.382 . S
C989 H1000 0.952 . S
C990 C987 1.388 . S
C990 C991 1.382 . S
C990 H1015 0.950 . S
C991 N986 1.332 . S
C991 C990 1.382 . S
C991 H1001 0.948 . S
N992 Co970 2.282 . S
N992 C996 1.332 . S
N992 C997 1.332 . S
C993 C994 1.388 . S
C993 C997 1.382 . S
C993 H1016 0.950 . S
C994 C993 1.388 . S
C994 C995 1.386 . S
C995 C994 1.386 . S
C995 C996 1.382 . S
C995 H1017 0.950 . S
C996 N992 1.332 . S
C996 C995 1.382 . S
C996 H998 0.952 . S
C997 N992 1.332 . S
C997 C993 1.382 . S
C997 H999 0.948 . S
H998 C996 0.952 . S
H999 C997 0.948 . S
H1000 C989 0.952 . S
H1001 C991 0.948 . S
C1002 C968 1.395 . S
C1002 C972 1.391 1_545 S
C1003 C965 1.389 . S
C1003 C985 1.392 . S
C1004 C975 1.392 . S
C1004 C977 1.389 . S
C1005 C980 1.395 1_545 S
C1005 C982 1.391 . S
H1006 C966 0.951 . S
H1007 C967 0.950 . S
H1008 C973 0.949 . S
H1009 C974 0.950 . S
H1010 C978 0.951 . S
H1011 C979 0.950 . S
H1012 C983 0.949 . S
H1013 C984 0.950 . S
H1014 C988 0.950 . S
H1015 C990 0.950 . S
H1016 C993 0.950 . S
H1017 C995 0.950 . S
C1018 C1019 1.443 . S
C1018 N1022 1.376 . S
C1018 C1056 1.389 . S
C1019 C1018 1.443 . S
C1019 C1020 1.340 . S
C1019 H1059 0.951 . S
C1020 C1019 1.340 . S
C1020 C1021 1.439 . S
C1020 H1060 0.950 . S
C1021 C1020 1.439 . S
C1021 N1022 1.374 . S
C1021 C1055 1.395 . S
N1022 C1018 1.376 . S
N1022 C1021 1.374 . S
N1022 Co1023 2.008 . S
Co1023 N1022 2.008 . S
Co1023 N1024 1.995 1_455 S
Co1023 N1029 2.008 1_455 S
Co1023 N1034 1.995 . S
Co1023 N1039 2.282 1_455 S
Co1023 N1045 2.282 . S
N1024 Co1023 1.995 1_655 S
N1024 C1025 1.376 . S
N1024 C1028 1.383 . S
C1025 N1024 1.376 . S
C1025 C1026 1.446 . S
C1025 C1055 1.391 1_655 S
C1026 C1025 1.446 . S
C1026 C1027 1.339 . S
C1026 H1061 0.949 . S
C1027 C1026 1.339 . S
C1027 C1028 1.439 . S
C1027 H1062 0.950 . S
C1028 N1024 1.383 . S
C1028 C1027 1.439 . S
C1028 C1057 1.392 . S
N1029 Co1023 2.008 1_655 S
N1029 C1030 1.376 . S
N1029 C1033 1.374 . S
C1030 N1029 1.376 . S
C1030 C1031 1.443 . S
C1030 C1057 1.389 . S
C1031 C1030 1.443 . S
C1031 C1032 1.340 . S
C1031 H1063 0.951 . S
C1032 C1031 1.340 . S
C1032 C1033 1.439 . S
C1032 H1064 0.950 . S
C1033 N1029 1.374 . S
C1033 C1032 1.439 . S
C1033 C1058 1.422 . S
N1034 Co1023 1.995 . S
N1034 C1035 1.376 . S
N1034 C1038 1.383 . S
C1035 N1034 1.376 . S
C1035 C1036 1.446 . S
C1035 C1058 1.363 1_455 S
C1036 C1035 1.446 . S
C1036 C1037 1.339 . S
C1036 H1065 0.949 . S
C1037 C1036 1.339 . S
C1037 C1038 1.439 . S
C1037 H1066 0.950 . S
C1038 N1034 1.383 . S
C1038 C1037 1.439 . S
C1038 C1056 1.392 . S
N1039 Co1023 2.282 1_655 S
N1039 C1042 1.332 . S
N1039 C1044 1.332 . S
C1040 C1041 1.386 . S
C1040 C1043 1.388 . S
C1041 C1040 1.386 . S
C1041 C1042 1.382 . S
C1041 H1067 0.950 . S
C1042 N1039 1.332 . S
C1042 C1041 1.382 . S
C1042 H1053 0.952 . S
C1043 C1040 1.388 . S
C1043 C1044 1.382 . S
C1043 H1068 0.950 . S
C1044 N1039 1.332 . S
C1044 C1043 1.382 . S
C1044 H1054 0.948 . S
N1045 Co1023 2.282 . S
N1045 C1049 1.332 . S
N1045 C1050 1.332 . S
C1046 C1047 1.388 . S
C1046 C1050 1.382 . S
C1046 H1069 0.950 . S
C1047 C1046 1.388 . S
C1047 C1048 1.386 . S
C1048 C1047 1.386 . S
C1048 C1049 1.382 . S
C1048 H1070 0.950 . S
C1049 N1045 1.332 . S
C1049 C1048 1.382 . S
C1049 H1051 0.952 . S
C1050 N1045 1.332 . S
C1050 C1046 1.382 . S
C1050 H1052 0.948 . S
H1051 C1049 0.952 . S
H1052 C1050 0.948 . S
H1053 C1042 0.952 . S
H1054 C1044 0.948 . S
C1055 C1021 1.395 . S
C1055 C1025 1.391 1_455 S
C1056 C1018 1.389 . S
C1056 C1038 1.392 . S
C1057 C1028 1.392 . S
C1057 C1030 1.389 . S
C1058 C1033 1.422 . S
C1058 C1035 1.363 1_655 S
H1059 C1019 0.951 . S
H1060 C1020 0.950 . S
H1061 C1026 0.949 . S
H1062 C1027 0.950 . S
H1063 C1031 0.951 . S
H1064 C1032 0.950 . S
H1065 C1036 0.949 . S
H1066 C1037 0.950 . S
H1067 C1041 0.950 . S
H1068 C1043 0.950 . S
H1069 C1046 0.950 . S
H1070 C1048 0.950 . S
C1071 C1072 1.443 . S
C1071 N1075 1.376 . S
C1071 C1109 1.389 . S
C1072 C1071 1.443 . S
C1072 C1073 1.340 . S
C1072 H1112 0.951 . S
C1073 C1072 1.340 . S
C1073 C1074 1.439 . S
C1073 H1113 0.950 . S
C1074 C1073 1.439 . S
C1074 N1075 1.374 . S
C1074 C1108 1.395 1_565 S
N1075 C1071 1.376 . S
N1075 C1074 1.374 . S
N1075 Co1076 2.008 1_565 S
Co1076 N1075 2.008 1_545 S
Co1076 N1077 1.995 . S
Co1076 N1082 2.008 . S
Co1076 N1087 1.995 1_545 S
Co1076 N1092 2.282 . S
Co1076 N1098 2.282 1_545 S
N1077 Co1076 1.995 . S
N1077 C1078 1.376 . S
N1077 C1081 1.383 . S
C1078 N1077 1.376 . S
C1078 C1079 1.446 . S
C1078 C1108 1.391 . S
C1079 C1078 1.446 . S
C1079 C1080 1.339 . S
C1079 H1114 0.949 . S
C1080 C1079 1.339 . S
C1080 C1081 1.439 . S
C1080 H1115 0.950 . S
C1081 N1077 1.383 . S
C1081 C1080 1.439 . S
C1081 C1110 1.392 . S
N1082 Co1076 2.008 . S
N1082 C1083 1.376 . S
N1082 C1086 1.374 . S
C1083 N1082 1.376 . S
C1083 C1084 1.443 . S
C1083 C1110 1.389 . S
C1084 C1083 1.443 . S
C1084 C1085 1.340 . S
C1084 H1116 0.951 . S
C1085 C1084 1.340 . S
C1085 C1086 1.439 . S
C1085 H1117 0.950 . S
C1086 N1082 1.374 . S
C1086 C1085 1.439 . S
C1086 C1111 1.395 . S
N1087 Co1076 1.995 1_565 S
N1087 C1088 1.376 . S
N1087 C1091 1.383 . S
C1088 N1087 1.376 . S
C1088 C1089 1.446 . S
C1088 C1111 1.391 1_565 S
C1089 C1088 1.446 . S
C1089 C1090 1.339 . S
C1089 H1118 0.949 . S
C1090 C1089 1.339 . S
C1090 C1091 1.439 . S
C1090 H1119 0.950 . S
C1091 N1087 1.383 . S
C1091 C1090 1.439 . S
C1091 C1109 1.392 . S
N1092 Co1076 2.282 . S
N1092 C1095 1.332 . S
N1092 C1097 1.332 . S
C1093 C1094 1.386 . S
C1093 C1096 1.388 . S
C1094 C1093 1.386 . S
C1094 C1095 1.382 . S
C1094 H1120 0.950 . S
C1095 N1092 1.332 . S
C1095 C1094 1.382 . S
C1095 H1106 0.952 . S
C1096 C1093 1.388 . S
C1096 C1097 1.382 . S
C1096 H1121 0.950 . S
C1097 N1092 1.332 . S
C1097 C1096 1.382 . S
C1097 H1107 0.948 . S
N1098 Co1076 2.282 1_565 S
N1098 C1102 1.332 . S
N1098 C1103 1.332 . S
C1099 C1100 1.388 . S
C1099 C1103 1.382 . S
C1099 H1122 0.950 . S
C1100 C1099 1.388 . S
C1100 C1101 1.386 . S
C1101 C1100 1.386 . S
C1101 C1102 1.382 . S
C1101 H1123 0.950 . S
C1102 N1098 1.332 . S
C1102 C1101 1.382 . S
C1102 H1104 0.952 . S
C1103 N1098 1.332 . S
C1103 C1099 1.382 . S
C1103 H1105 0.948 . S
H1104 C1102 0.952 . S
H1105 C1103 0.948 . S
H1106 C1095 0.952 . S
H1107 C1097 0.948 . S
C1108 C1074 1.395 1_545 S
C1108 C1078 1.391 . S
C1109 C1071 1.389 . S
C1109 C1091 1.392 . S
C1110 C1081 1.392 . S
C1110 C1083 1.389 . S
C1111 C1086 1.395 . S
C1111 C1088 1.391 1_545 S
H1112 C1072 0.951 . S
H1113 C1073 0.950 . S
H1114 C1079 0.949 . S
H1115 C1080 0.950 . S
H1116 C1084 0.951 . S
H1117 C1085 0.950 . S
H1118 C1089 0.949 . S
H1119 C1090 0.950 . S
H1120 C1094 0.950 . S
H1121 C1096 0.950 . S
H1122 C1099 0.950 . S
H1123 C1101 0.950 . S
C1124 C1125 1.443 . S
C1124 N1128 1.376 . S
C1124 C1162 1.389 . S
C1125 C1124 1.443 . S
C1125 C1126 1.340 . S
C1125 H1165 0.951 . S
C1126 C1125 1.340 . S
C1126 C1127 1.439 . S
C1126 H1166 0.950 . S
C1127 C1126 1.439 . S
C1127 N1128 1.374 . S
C1127 C1161 1.395 . S
N1128 C1124 1.376 . S
N1128 C1127 1.374 . S
N1128 Co1129 2.014 . S
Co1129 N1128 2.014 . S
Co1129 N1130 1.988 1_554 S
Co1129 N1135 2.003 1_554 S
Co1129 N1140 2.001 . S
Co1129 N1145 2.292 . S
Co1129 N1151 2.273 1_554 S
N1130 Co1129 1.988 1_556 S
N1130 C1131 1.376 . S
N1130 C1134 1.383 . S
C1131 N1130 1.376 . S
C1131 C1132 1.446 . S
C1131 C1161 1.391 1_556 S
C1132 C1131 1.446 . S
C1132 C1133 1.339 . S
C1132 H1167 0.949 . S
C1133 C1132 1.339 . S
C1133 C1134 1.439 . S
C1133 H1168 0.950 . S
C1134 N1130 1.383 . S
C1134 C1133 1.439 . S
C1134 C1163 1.392 . S
N1135 Co1129 2.003 1_556 S
N1135 C1136 1.376 . S
N1135 C1139 1.374 . S
C1136 N1135 1.376 . S
C1136 C1137 1.443 . S
C1136 C1163 1.389 . S
C1137 C1136 1.443 . S
C1137 C1138 1.340 . S
C1137 H1169 0.951 . S
C1138 C1137 1.340 . S
C1138 C1139 1.439 . S
C1138 H1170 0.950 . S
C1139 N1135 1.374 . S
C1139 C1138 1.439 . S
C1139 C1164 1.403 . S
N1140 Co1129 2.001 . S
N1140 C1141 1.376 . S
N1140 C1144 1.383 . S
C1141 N1140 1.376 . S
C1141 C1142 1.446 . S
C1141 C1164 1.384 1_554 S
C1142 C1141 1.446 . S
C1142 C1143 1.339 . S
C1142 H1171 0.949 . S
C1143 C1142 1.339 . S
C1143 C1144 1.439 . S
C1143 H1172 0.950 . S
C1144 N1140 1.383 . S
C1144 C1143 1.439 . S
C1144 C1162 1.392 . S
N1145 Co1129 2.292 . S
N1145 C1148 1.332 . S
N1145 C1150 1.332 . S
C1146 C1147 1.386 . S
C1146 C1149 1.388 . S
C1147 C1146 1.386 . S
C1147 C1148 1.382 . S
C1147 H1173 0.950 . S
C1148 N1145 1.332 . S
C1148 C1147 1.382 . S
C1148 H1159 0.952 . S
C1149 C1146 1.388 . S
C1149 C1150 1.382 . S
C1149 H1174 0.950 . S
C1150 N1145 1.332 . S
C1150 C1149 1.382 . S
C1150 H1160 0.948 . S
N1151 Co1129 2.273 1_556 S
N1151 C1155 1.332 . S
N1151 C1156 1.332 . S
C1152 C1153 1.388 . S
C1152 C1156 1.382 . S
C1152 H1175 0.950 . S
C1153 C1152 1.388 . S
C1153 C1154 1.386 . S
C1154 C1153 1.386 . S
C1154 C1155 1.382 . S
C1154 H1176 0.950 . S
C1155 N1151 1.332 . S
C1155 C1154 1.382 . S
C1155 H1157 0.952 . S
C1156 N1151 1.332 . S
C1156 C1152 1.382 . S
C1156 H1158 0.948 . S
H1157 C1155 0.952 . S
H1158 C1156 0.948 . S
H1159 C1148 0.952 . S
H1160 C1150 0.948 . S
C1161 C1127 1.395 . S
C1161 C1131 1.391 1_554 S
C1162 C1124 1.389 . S
C1162 C1144 1.392 . S
C1163 C1134 1.392 . S
C1163 C1136 1.389 . S
C1164 C1139 1.403 . S
C1164 C1141 1.384 1_556 S
H1165 C1125 0.951 . S
H1166 C1126 0.950 . S
H1167 C1132 0.949 . S
H1168 C1133 0.950 . S
H1169 C1137 0.951 . S
H1170 C1138 0.950 . S
H1171 C1142 0.949 . S
H1172 C1143 0.950 . S
H1173 C1147 0.950 . S
H1174 C1149 0.950 . S
H1175 C1152 0.950 . S
H1176 C1154 0.950 . S
C1177 C1178 1.443 . S
C1177 N1181 1.376 . S
C1177 C1215 1.389 . S
C1178 C1177 1.443 . S
C1178 C1179 1.340 . S
C1178 H1218 0.951 . S
C1179 C1178 1.340 . S
C1179 C1180 1.439 . S
C1179 H1219 0.950 . S
C1180 C1179 1.439 . S
C1180 N1181 1.374 . S
C1180 C1214 1.395 1_554 S
N1181 C1177 1.376 . S
N1181 C1180 1.374 . S
N1181 Co1182 2.008 . S
Co1182 N1181 2.008 . S
Co1182 N1183 1.995 1_554 S
Co1182 N1188 2.008 . S
Co1182 N1193 1.995 . S
Co1182 N1198 2.282 . S
Co1182 N1204 2.282 1_554 S
N1183 Co1182 1.995 1_556 S
N1183 C1184 1.376 . S
N1183 C1187 1.383 . S
C1184 N1183 1.376 . S
C1184 C1185 1.446 . S
C1184 C1214 1.391 . S
C1185 C1184 1.446 . S
C1185 C1186 1.339 . S
C1185 H1220 0.949 . S
C1186 C1185 1.339 . S
C1186 C1187 1.439 . S
C1186 H1221 0.950 . S
C1187 N1183 1.383 . S
C1187 C1186 1.439 . S
C1187 C1216 1.392 . S
N1188 Co1182 2.008 . S
N1188 C1189 1.377 1_554 S
N1188 C1192 1.373 . S
C1189 N1188 1.377 1_556 S
C1189 C1190 1.443 . S
C1189 C1216 1.389 . S
C1190 C1189 1.443 . S
C1190 C1191 1.340 . S
C1190 H1222 0.951 . S
C1191 C1190 1.340 . S
C1191 C1192 1.439 1_556 S
C1191 H1223 0.949 1_556 S
C1192 N1188 1.373 . S
C1192 C1191 1.439 1_554 S
C1192 C1217 1.395 . S
N1193 Co1182 1.995 . S
N1193 C1194 1.376 . S
N1193 C1197 1.383 . S
C1194 N1193 1.376 . S
C1194 C1195 1.446 . S
C1194 C1217 1.391 . S
C1195 C1194 1.446 . S
C1195 C1196 1.339 . S
C1195 H1224 0.949 . S
C1196 C1195 1.339 . S
C1196 C1197 1.439 . S
C1196 H1225 0.950 . S
C1197 N1193 1.383 . S
C1197 C1196 1.439 . S
C1197 C1215 1.392 . S
N1198 Co1182 2.282 . S
N1198 C1201 1.332 . S
N1198 C1203 1.332 . S
C1199 C1200 1.386 . S
C1199 C1202 1.388 . S
C1200 C1199 1.386 . S
C1200 C1201 1.382 . S
C1200 H1226 0.950 . S
C1201 N1198 1.332 . S
C1201 C1200 1.382 . S
C1201 H1212 0.952 . S
C1202 C1199 1.388 . S
C1202 C1203 1.382 . S
C1202 H1227 0.950 . S
C1203 N1198 1.332 . S
C1203 C1202 1.382 . S
C1203 H1213 0.948 . S
N1204 Co1182 2.282 1_556 S
N1204 C1208 1.332 . S
N1204 C1209 1.332 . S
C1205 C1206 1.388 . S
C1205 C1209 1.382 . S
C1205 H1228 0.950 . S
C1206 C1205 1.388 . S
C1206 C1207 1.386 . S
C1207 C1206 1.386 . S
C1207 C1208 1.382 . S
C1207 H1229 0.950 . S
C1208 N1204 1.332 . S
C1208 C1207 1.382 . S
C1208 H1210 0.952 . S
C1209 N1204 1.332 . S
C1209 C1205 1.382 . S
C1209 H1211 0.948 . S
H1210 C1208 0.952 . S
H1211 C1209 0.948 . S
H1212 C1201 0.952 . S
H1213 C1203 0.948 . S
C1214 C1180 1.395 1_556 S
C1214 C1184 1.391 . S
C1215 C1177 1.389 . S
C1215 C1197 1.392 . S
C1216 C1187 1.392 . S
C1216 C1189 1.389 . S
C1217 C1192 1.395 . S
C1217 C1194 1.391 . S
H1218 C1178 0.951 . S
H1219 C1179 0.950 . S
H1220 C1185 0.949 . S
H1221 C1186 0.950 . S
H1222 C1190 0.951 . S
H1223 C1191 0.949 1_554 S
H1224 C1195 0.949 . S
H1225 C1196 0.950 . S
H1226 C1200 0.950 . S
H1227 C1202 0.950 . S
H1228 C1205 0.950 . S
H1229 C1207 0.950 . S
C1230 C1231 1.443 . S
C1230 N1234 1.366 1_556 S
C1230 C1268 1.389 . S
C1231 C1230 1.443 . S
C1231 C1232 1.340 . S
C1231 H1271 0.951 . S
C1232 C1231 1.340 . S
C1232 C1233 1.439 1_556 S
C1232 H1272 0.950 . S
C1233 C1232 1.439 1_554 S
C1233 N1234 1.378 . S
C1233 C1267 1.395 . S
N1234 C1230 1.366 1_554 S
N1234 C1233 1.378 . S
N1234 Co1235 2.016 . S
Co1235 N1234 2.016 . S
Co1235 N1236 1.995 . S
Co1235 N1241 2.008 . S
Co1235 N1246 1.995 1_554 S
Co1235 N1251 2.282 1_554 S
Co1235 N1257 2.282 . S
N1236 Co1235 1.995 . S
N1236 C1237 1.376 . S
N1236 C1240 1.383 . S
C1237 N1236 1.376 . S
C1237 C1238 1.446 . S
C1237 C1267 1.391 . S
C1238 C1237 1.446 . S
C1238 C1239 1.339 . S
C1238 H1273 0.949 . S
C1239 C1238 1.339 . S
C1239 C1240 1.439 . S
C1239 H1274 0.950 . S
C1240 N1236 1.383 . S
C1240 C1239 1.439 . S
C1240 C1269 1.392 . S
N1241 Co1235 2.008 . S
N1241 C1242 1.376 . S
N1241 C1245 1.374 . S
C1242 N1241 1.376 . S
C1242 C1243 1.443 . S
C1242 C1269 1.389 . S
C1243 C1242 1.443 . S
C1243 C1244 1.340 . S
C1243 H1275 0.951 . S
C1244 C1243 1.340 . S
C1244 C1245 1.439 . S
C1244 H1276 0.950 . S
C1245 N1241 1.374 . S
C1245 C1244 1.439 . S
C1245 C1270 1.395 . S
N1246 Co1235 1.995 1_556 S
N1246 C1247 1.376 . S
N1246 C1250 1.383 . S
C1247 N1246 1.376 . S
C1247 C1248 1.446 . S
C1247 C1270 1.391 1_556 S
C1248 C1247 1.446 . S
C1248 C1249 1.339 . S
C1248 H1277 0.949 . S
C1249 C1248 1.339 . S
C1249 C1250 1.439 . S
C1249 H1278 0.950 . S
C1250 N1246 1.383 . S
C1250 C1249 1.439 . S
C1250 C1268 1.392 . S
N1251 Co1235 2.282 1_556 S
N1251 C1254 1.332 . S
N1251 C1256 1.332 . S
C1252 C1253 1.386 . S
C1252 C1255 1.388 . S
C1253 C1252 1.386 . S
C1253 C1254 1.382 . S
C1253 H1279 0.950 . S
C1254 N1251 1.332 . S
C1254 C1253 1.382 . S
C1254 H1265 0.952 . S
C1255 C1252 1.388 . S
C1255 C1256 1.382 . S
C1255 H1280 0.950 . S
C1256 N1251 1.332 . S
C1256 C1255 1.382 . S
C1256 H1266 0.948 . S
N1257 Co1235 2.282 . S
N1257 C1261 1.332 . S
N1257 C1262 1.332 . S
C1258 C1259 1.388 . S
C1258 C1262 1.382 . S
C1258 H1281 0.950 . S
C1259 C1258 1.388 . S
C1259 C1260 1.386 . S
C1260 C1259 1.386 . S
C1260 C1261 1.382 . S
C1260 H1282 0.950 . S
C1261 N1257 1.332 . S
C1261 C1260 1.382 . S
C1261 H1263 0.952 . S
C1262 N1257 1.332 . S
C1262 C1258 1.382 . S
C1262 H1264 0.948 . S
H1263 C1261 0.952 . S
H1264 C1262 0.948 . S
H1265 C1254 0.952 . S
H1266 C1256 0.948 . S
C1267 C1233 1.395 . S
C1267 C1237 1.391 . S
C1268 C1230 1.389 . S
C1268 C1250 1.392 . S
C1269 C1240 1.392 . S
C1269 C1242 1.389 . S
C1270 C1245 1.395 . S
C1270 C1247 1.391 1_554 S
H1271 C1231 0.951 . S
H1272 C1232 0.950 . S
H1273 C1238 0.949 . S
H1274 C1239 0.950 . S
H1275 C1243 0.951 . S
H1276 C1244 0.950 . S
H1277 C1248 0.949 . S
H1278 C1249 0.950 . S
H1279 C1253 0.950 . S
H1280 C1255 0.950 . S
H1281 C1258 0.950 . S
H1282 C1260 0.950 . S
C1283 C1284 1.443 . S
C1283 N1287 1.376 . S
C1283 C1321 1.389 . S
C1284 C1283 1.443 . S
C1284 C1285 1.340 . S
C1284 H1324 0.951 . S
C1285 C1284 1.340 . S
C1285 C1286 1.439 . S
C1285 H1325 0.950 . S
C1286 C1285 1.439 . S
C1286 N1287 1.374 . S
C1286 C1320 1.395 . S
N1287 C1283 1.376 . S
N1287 C1286 1.374 . S
N1287 Co1288 2.008 . S
Co1288 N1287 2.008 . S
Co1288 N1289 1.995 1_554 S
Co1288 N1294 2.008 . S
Co1288 N1299 1.995 . S
Co1288 N1304 2.282 . S
Co1288 N1310 2.282 1_554 S
N1289 Co1288 1.995 1_556 S
N1289 C1290 1.376 . S
N1289 C1293 1.383 . S
C1290 N1289 1.376 . S
C1290 C1291 1.446 . S
C1290 C1320 1.391 1_556 S
C1291 C1290 1.446 . S
C1291 C1292 1.339 . S
C1291 H1326 0.949 . S
C1292 C1291 1.339 . S
C1292 C1293 1.439 . S
C1292 H1327 0.950 . S
C1293 N1289 1.383 . S
C1293 C1292 1.439 . S
C1293 C1322 1.392 . S
N1294 Co1288 2.008 . S
N1294 C1295 1.376 1_554 S
N1294 C1298 1.374 . S
C1295 N1294 1.376 1_556 S
C1295 C1296 1.443 . S
C1295 C1322 1.389 . S
C1296 C1295 1.443 . S
C1296 C1297 1.340 . S
C1296 H1328 0.951 . S
C1297 C1296 1.340 . S
C1297 C1298 1.439 1_556 S
C1297 H1329 0.951 . S
C1298 N1294 1.374 . S
C1298 C1297 1.439 1_554 S
C1298 C1323 1.395 . S
N1299 Co1288 1.995 . S
N1299 C1300 1.376 . S
N1299 C1303 1.383 . S
C1300 N1299 1.376 . S
C1300 C1301 1.446 . S
C1300 C1323 1.391 . S
C1301 C1300 1.446 . S
C1301 C1302 1.339 . S
C1301 H1330 0.949 . S
C1302 C1301 1.339 . S
C1302 C1303 1.439 . S
C1302 H1331 0.950 . S
C1303 N1299 1.383 . S
C1303 C1302 1.439 . S
C1303 C1321 1.392 . S
N1304 Co1288 2.282 . S
N1304 C1307 1.332 . S
N1304 C1309 1.332 . S
C1305 C1306 1.386 . S
C1305 C1308 1.388 . S
C1306 C1305 1.386 . S
C1306 C1307 1.382 . S
C1306 H1332 0.950 . S
C1307 N1304 1.332 . S
C1307 C1306 1.382 . S
C1307 H1318 0.952 . S
C1308 C1305 1.388 . S
C1308 C1309 1.382 . S
C1308 H1333 0.950 . S
C1309 N1304 1.332 . S
C1309 C1308 1.382 . S
C1309 H1319 0.948 . S
N1310 Co1288 2.282 1_556 S
N1310 C1314 1.332 . S
N1310 C1315 1.332 . S
C1311 C1312 1.388 . S
C1311 C1315 1.382 . S
C1311 H1334 0.950 . S
C1312 C1311 1.388 . S
C1312 C1313 1.386 . S
C1313 C1312 1.386 . S
C1313 C1314 1.382 . S
C1313 H1335 0.950 . S
C1314 N1310 1.332 . S
C1314 C1313 1.382 . S
C1314 H1316 0.952 . S
C1315 N1310 1.332 . S
C1315 C1311 1.382 . S
C1315 H1317 0.948 . S
H1316 C1314 0.952 . S
H1317 C1315 0.948 . S
H1318 C1307 0.952 . S
H1319 C1309 0.948 . S
C1320 C1286 1.395 . S
C1320 C1290 1.391 1_554 S
C1321 C1283 1.389 . S
C1321 C1303 1.392 . S
C1322 C1293 1.392 . S
C1322 C1295 1.389 . S
C1323 C1298 1.395 . S
C1323 C1300 1.391 . S
H1324 C1284 0.951 . S
H1325 C1285 0.950 . S
H1326 C1291 0.949 . S
H1327 C1292 0.950 . S
H1328 C1296 0.951 . S
H1329 C1297 0.951 . S
H1330 C1301 0.949 . S
H1331 C1302 0.950 . S
H1332 C1306 0.950 . S
H1333 C1308 0.950 . S
H1334 C1311 0.950 . S
H1335 C1313 0.950 . S
C941 C29 1.172 . S
C994 C125 0.821 . S
C1057 C257 1.440 . S
C1100 C353 0.612 . S
C457 C1056 1.178 . S
C1093 C625 2.145 . S
C934 C685 1.121 . S
C987 C853 1.767 . S
C1040 C809 1.788 . S
C1109 C485 1.804 . S
C950 C581 1.700 . S
C1003 C713 1.498 . S
C951 C169 1.641 . S
C1004 C229 1.573 . S
C1047 C397 1.314 . S
C1110 C1 1.513 . S
C1153 C827 0.996 . S
C467 C1206 1.211 . S
C599 C1268 1.627 . S
C695 C1322 1.154 . S
C115 C1269 1.244 . S
C283 C1321 2.426 . S
C343 C1146 1.081 . S
C1199 C55 1.990 . S
C1259 C11 1.654 . S
C143 C1305 0.908 . S
C239 C1162 1.892 . S
C371 C1215 1.070 . S
C1163 C511 1.393 . S
C1216 C571 0.746 . S
C739 C1252 1.523 . S
C1312 C799 1.092 . S
