# Generated by pormake.
# Topology nom, (4,4)-cn, num edge types: 1
# Building blocks:
#     Node 0, Type 0, BuildingBlock: AZAVOO_clean_linker_0, # of connection points: 4
#     Node 1, Type 0, BuildingBlock: AZAVOO_clean_linker_0, # of connection points: 4
#     Node 2, Type 0, BuildingBlock: AZAVOO_clean_linker_0, # of connection points: 4
#     Node 3, Type 0, BuildingBlock: AZAVOO_clean_linker_0, # of connection points: 4
#     Node 4, Type 0, BuildingBlock: AZAVOO_clean_linker_0, # of connection points: 4
#     Node 5, Type 0, BuildingBlock: AZAVOO_clean_linker_0, # of connection points: 4
#     Node 6, Type 1, BuildingBlock: CEKHIL_clean_sbu_0, # of connection points: 4
#     Node 7, Type 1, BuildingBlock: CEKHIL_clean_sbu_0, # of connection points: 4
#     Node 8, Type 1, BuildingBlock: CEKHIL_clean_sbu_0, # of connection points: 4
#     Node 9, Type 1, BuildingBlock: CEKHIL_clean_sbu_0, # of connection points: 4
#     Node 10, Type 1, BuildingBlock: CEKHIL_clean_sbu_0, # of connection points: 4
#     Node 11, Type 1, BuildingBlock: CEKHIL_clean_sbu_0, # of connection points: 4
#     Edge 12, Type (0, 1), None
#     Edge 13, Type (0, 1), None
#     Edge 14, Type (0, 1), None
#     Edge 15, Type (0, 1), None
#     Edge 16, Type (0, 1), None
#     Edge 17, Type (0, 1), None
#     Edge 18, Type (0, 1), None
#     Edge 19, Type (0, 1), None
#     Edge 20, Type (0, 1), None
#     Edge 21, Type (0, 1), None
#     Edge 22, Type (0, 1), None
#     Edge 23, Type (0, 1), None
#     Edge 24, Type (0, 1), None
#     Edge 25, Type (0, 1), None
#     Edge 26, Type (0, 1), None
#     Edge 27, Type (0, 1), None
#     Edge 28, Type (0, 1), None
#     Edge 29, Type (0, 1), None
#     Edge 30, Type (0, 1), None
#     Edge 31, Type (0, 1), None
#     Edge 32, Type (0, 1), None
#     Edge 33, Type (0, 1), None
#     Edge 34, Type (0, 1), None
#     Edge 35, Type (0, 1), None
# Relax obj value: 0.180
# Max RMSD: 0.235
# Mean RMSD: 0.147
data_MOF--net-nom--node1-CEKHIL_clean_sbu_0--node2-AZAVOO_clean_linker_0--edge1-none
_symmetry_space_group_name_H-M    P1
_symmetry_Int_Tables_number       1
_symmetry_cell_setting            triclinic
loop_
_symmetry_equiv_pos_as_xyz
'x, y, z'
_cell_length_a     26.548997
_cell_length_b     26.708896
_cell_length_c     31.463796
_cell_angle_alpha  89.983133
_cell_angle_beta   90.035934
_cell_angle_gamma 124.24672
loop_
_atom_site_label
_atom_site_type_symbol
_atom_site_fract_x
_atom_site_fract_y
_atom_site_fract_z
_atom_type_partial_charge
H0 H 0.13462 0.54692 0.03142 0.0
H1 H 0.45307 0.80586 0.41778 0.0
H2 H 0.97898 0.44294 0.27185 0.0
H3 H 0.93178 0.38487 0.20747 0.0
H4 H 0.92826 0.53283 0.15564 0.0
H5 H 0.97483 0.59043 0.22126 0.0
H6 H 0.10285 0.51159 0.21566 0.0
H7 H 0.11502 0.51015 0.13855 0.0
H8 H 0.10798 0.66738 0.12606 0.0
H9 H 0.09591 0.66823 0.20311 0.0
H10 H 0.21654 0.57714 0.28597 0.0
H11 H 0.32216 0.63236 0.26064 0.0
H12 H 0.3067 0.77605 0.21545 0.0
H13 H 0.20406 0.7237 0.2445 0.0
H14 H 0.18486 0.55927 0.36588 0.0
H15 H 0.28427 0.60503 0.40011 0.0
H16 H 0.31332 0.78085 0.39097 0.0
H17 H 0.21464 0.73491 0.35544 0.0
H18 H 0.07243 0.50916 0.40455 0.0
H19 H 0.13088 0.53805 0.47083 0.0
H20 H 0.14824 0.70877 0.46896 0.0
H21 H 0.09181 0.68035 0.40229 0.0
H22 H 0.92434 0.45135 0.33511 0.0
H23 H 0.82001 0.4216 0.34698 0.0
H24 H 0.88449 0.60882 0.36456 0.0
H25 H 0.98958 0.6388 0.35111 0.0
O26 O 0.12863 0.54735 0.06171 0.0
O27 O 0.11953 0.62497 0.05679 0.0
O28 O 0.38686 0.69494 0.42814 0.0
O29 O 0.41078 0.78631 0.40981 0.0
C30 C 0.03218 0.56238 0.27991 0.0
C31 C 0.09074 0.59066 0.26157 0.0
C32 C 0.14247 0.61777 0.28747 0.0
C33 C 0.13664 0.61708 0.33184 0.0
C34 C 0.07869 0.59212 0.35086 0.0
C35 C 0.02577 0.5662 0.32461 0.0
C36 C 0.97997 0.52084 0.25169 0.0
C37 C 0.96503 0.46166 0.24765 0.0
C38 C 0.93955 0.42913 0.2101 0.0
C39 C 0.92847 0.45509 0.17552 0.0
C40 C 0.93779 0.51208 0.18114 0.0
C41 C 0.96298 0.54452 0.21908 0.0
C42 C 0.09819 0.58979 0.21477 0.0
C43 C 0.10396 0.54561 0.19613 0.0
C44 C 0.11089 0.54493 0.15214 0.0
C45 C 0.11242 0.58864 0.12614 0.0
C46 C 0.10686 0.633 0.14512 0.0
C47 C 0.10002 0.63365 0.18907 0.0
C48 C 0.20349 0.6473 0.26792 0.0
C49 C 0.23655 0.621 0.27112 0.0
C50 C 0.29645 0.65225 0.25645 0.0
C51 C 0.32283 0.70886 0.23678 0.0
C52 C 0.28799 0.73298 0.23106 0.0
C53 C 0.22918 0.703 0.24733 0.0
C54 C 0.19274 0.64385 0.35813 0.0
C55 C 0.21249 0.60761 0.37178 0.0
C56 C 0.26929 0.63385 0.39123 0.0
C57 C 0.30736 0.69688 0.39719 0.0
C58 C 0.28592 0.73255 0.38553 0.0
C59 C 0.2293 0.70634 0.36576 0.0
C60 C 0.07753 0.59253 0.39819 0.0
C61 C 0.08573 0.55134 0.41973 0.0
C62 C 0.1209 0.5687 0.45703 0.0
C63 C 0.14648 0.62672 0.47437 0.0
C64 C 0.13043 0.66416 0.4561 0.0
C65 C 0.09644 0.64728 0.4184 0.0
C66 C 0.96505 0.54732 0.34189 0.0
C67 C 0.91644 0.48609 0.34205 0.0
C68 C 0.85666 0.46922 0.34868 0.0
C69 C 0.84384 0.51302 0.35592 0.0
C70 C 0.89284 0.57411 0.35882 0.0
C71 C 0.95292 0.59114 0.35145 0.0
C72 C 0.12028 0.5882 0.07947 0.0
C73 C 0.37043 0.72578 0.41315 0.0
H74 H 0.55256 0.07951 0.18258 0.0
H75 H 0.72729 0.40173 0.60088 0.0
H76 H 0.56558 0.97237 0.40326 0.0
H77 H 0.54941 0.91798 0.33653 0.0
H78 H 0.36202 0.8631 0.33555 0.0
H79 H 0.37843 0.91619 0.40246 0.0
H80 H 0.60173 0.09162 0.36476 0.0
H81 H 0.59945 0.09434 0.28706 0.0
H82 H 0.41012 0.03308 0.29182 0.0
H83 H 0.41322 0.03074 0.36961 0.0
H84 H 0.64985 0.19608 0.42617 0.0
H85 H 0.68879 0.29839 0.40097 0.0
H86 H 0.5055 0.2536 0.39408 0.0
H87 H 0.46639 0.15067 0.42038 0.0
H88 H 0.65958 0.14853 0.50583 0.0
H89 H 0.7326 0.24185 0.54384 0.0
H90 H 0.5915 0.27289 0.56552 0.0
H91 H 0.51891 0.17982 0.52616 0.0
H92 H 0.59645 0.02135 0.5418 0.0
H93 H 0.65604 0.07093 0.60564 0.0
H94 H 0.53193 0.12056 0.63983 0.0
H95 H 0.47185 0.06936 0.57626 0.0
H96 H 0.51848 0.9075 0.47509 0.0
H97 H 0.45796 0.80138 0.49792 0.0
H98 H 0.32806 0.8278 0.55694 0.0
H99 H 0.388 0.93386 0.53301 0.0
O100 O 0.55275 0.07933 0.21334 0.0
O101 O 0.45567 0.04842 0.21742 0.0
O102 O 0.76505 0.33789 0.58484 0.0
O103 O 0.69797 0.36257 0.58844 0.0
C104 C 0.4888 0.99765 0.43753 0.0
C105 C 0.50815 0.05452 0.41947 0.0
C106 C 0.53285 0.10607 0.4453 0.0
C107 C 0.54136 0.10131 0.48897 0.0
C108 C 0.51694 0.0436 0.50805 0.0
C109 C 0.48886 0.99079 0.48229 0.0
C110 C 0.47295 0.94773 0.40786 0.0
C111 C 0.52024 0.9459 0.38964 0.0
C112 C 0.51118 0.91546 0.35124 0.0
C113 C 0.45485 0.88724 0.3303 0.0
C114 C 0.40629 0.88502 0.3506 0.0
C115 C 0.41513 0.91453 0.38924 0.0
C116 C 0.50765 0.06098 0.37263 0.0
C117 C 0.56005 0.07948 0.34891 0.0
C118 C 0.5585 0.0807 0.30456 0.0
C119 C 0.5045 0.06362 0.2832 0.0
C120 C 0.4524 0.04637 0.30726 0.0
C121 C 0.45405 0.04519 0.35164 0.0
C122 C 0.55543 0.16626 0.42598 0.0
C123 C 0.61796 0.20808 0.41918 0.0
C124 C 0.64004 0.26635 0.40465 0.0
C125 C 0.60005 0.28378 0.3959 0.0
C126 C 0.5371 0.24104 0.40043 0.0
C127 C 0.51492 0.18259 0.41563 0.0
C128 C 0.5841 0.15758 0.51324 0.0
C129 C 0.64448 0.17553 0.51885 0.0
C130 C 0.68606 0.22876 0.54065 0.0
C131 C 0.66802 0.26517 0.55724 0.0
C132 C 0.607 0.24632 0.55243 0.0
C133 C 0.56546 0.19322 0.53013 0.0
C134 C 0.53031 0.04253 0.55385 0.0
C135 C 0.57991 0.03958 0.56435 0.0
C136 C 0.61476 0.06925 0.6006 0.0
C137 C 0.60042 0.10228 0.62691 0.0
C138 C 0.54528 0.09699 0.61975 0.0
C139 C 0.51009 0.06665 0.58373 0.0
C140 C 0.45743 0.92877 0.50153 0.0
C141 C 0.47691 0.89062 0.49277 0.0
C142 C 0.44212 0.8298 0.50576 0.0
C143 C 0.3874 0.80574 0.52832 0.0
C144 C 0.36964 0.84474 0.53921 0.0
C145 C 0.4041 0.90551 0.52573 0.0
C146 C 0.5026 0.06332 0.23604 0.0
C147 C 0.71332 0.32384 0.57783 0.0
H148 H 0.53302 0.4199 0.89715 0.0
H149 H 0.71601 0.34822 0.4746 0.0
H150 H 0.56913 0.58914 0.65922 0.0
H151 H 0.59473 0.6461 0.72501 0.0
H152 H 0.42017 0.50609 0.77755 0.0
H153 H 0.3939 0.44998 0.71039 0.0
H154 H 0.58617 0.49877 0.71985 0.0
H155 H 0.58189 0.47917 0.79622 0.0
H156 H 0.39621 0.3235 0.78216 0.0
H157 H 0.40114 0.34392 0.70582 0.0
H158 H 0.64288 0.46876 0.6503 0.0
H159 H 0.69053 0.41678 0.6725 0.0
H160 H 0.51379 0.24754 0.67817 0.0
H161 H 0.46619 0.29945 0.65358 0.0
H162 H 0.65088 0.52192 0.57735 0.0
H163 H 0.72378 0.51112 0.53848 0.0
H164 H 0.57892 0.32784 0.50473 0.0
H165 H 0.50617 0.33897 0.5446 0.0
H166 H 0.59694 0.56098 0.52874 0.0
H167 H 0.629 0.54121 0.46131 0.0
H168 H 0.45144 0.37333 0.44931 0.0
H169 H 0.42138 0.39225 0.51696 0.0
H170 H 0.51778 0.60593 0.60191 0.0
H171 H 0.45889 0.64968 0.59027 0.0
H172 H 0.30051 0.4728 0.55926 0.0
H173 H 0.35916 0.42861 0.57296 0.0
O174 O 0.53402 0.4262 0.86679 0.0
O175 O 0.43933 0.34555 0.8577 0.0
O176 O 0.75461 0.45403 0.49227 0.0
O177 O 0.68664 0.35465 0.48682 0.0
C178 C 0.47686 0.47434 0.64752 0.0
C179 C 0.49555 0.43671 0.6616 0.0
C180 C 0.5235 0.41919 0.63318 0.0
C181 C 0.53137 0.43794 0.59055 0.0
C182 C 0.50424 0.46756 0.57487 0.0
C183 C 0.4754 0.48515 0.60345 0.0
C184 C 0.47913 0.51594 0.67958 0.0
C185 C 0.53499 0.57219 0.68403 0.0
C186 C 0.55034 0.60385 0.72216 0.0
C187 C 0.51046 0.57943 0.75692 0.0
C188 C 0.45267 0.52503 0.75165 0.0
C189 C 0.43684 0.49375 0.713 0.0
C190 C 0.4939 0.42281 0.7075 0.0
C191 C 0.54479 0.46028 0.73336 0.0
C192 C 0.54213 0.44904 0.77694 0.0
C193 C 0.48863 0.39985 0.79532 0.0
C194 C 0.43806 0.36181 0.76904 0.0
C195 C 0.44075 0.37323 0.72546 0.0
C196 C 0.55131 0.38758 0.6492 0.0
C197 C 0.61446 0.42032 0.65559 0.0
C198 C 0.64153 0.39072 0.66837 0.0
C199 C 0.60569 0.32826 0.67634 0.0
C200 C 0.54216 0.29576 0.6719 0.0
C201 C 0.51512 0.32522 0.65791 0.0
C202 C 0.57328 0.43136 0.56354 0.0
C203 C 0.63483 0.47963 0.56118 0.0
C204 C 0.67636 0.47337 0.53896 0.0
C205 C 0.65722 0.41841 0.51891 0.0
C206 C 0.59515 0.37047 0.52039 0.0
C207 C 0.55349 0.37675 0.54287 0.0
C208 C 0.50718 0.47737 0.52834 0.0
C209 C 0.56384 0.52165 0.51028 0.0
C210 C 0.58281 0.50946 0.47231 0.0
C211 C 0.54396 0.45426 0.45101 0.0
C212 C 0.48343 0.41554 0.46547 0.0
C213 C 0.46525 0.42706 0.50376 0.0
C214 C 0.44312 0.51368 0.58875 0.0
C215 C 0.4705 0.57636 0.59255 0.0
C216 C 0.43657 0.60139 0.58591 0.0
C217 C 0.37456 0.5647 0.57438 0.0
C218 C 0.34798 0.50238 0.56832 0.0
C219 C 0.38167 0.47713 0.5759 0.0
C220 C 0.48562 0.38866 0.84176 0.0
C221 C 0.70245 0.41042 0.49829 0.0
H222 H 0.06475 0.36371 0.09451 0.0
H223 H 0.43263 0.60138 0.67689 0.0
H224 H 0.00726 0.48363 0.8782 0.0
H225 H 0.96041 0.46941 0.94767 0.0
H226 H 0.89115 0.27932 0.94338 0.0
H227 H 0.93679 0.29379 0.87303 0.0
H228 H 0.0943 0.47514 0.92863 0.0
H229 H 0.08651 0.4445 0.0028 0.0
H230 H 0.05114 0.27296 0.96198 0.0
H231 H 0.05795 0.30379 0.88766 0.0
H232 H 0.19528 0.52045 0.88964 0.0
H233 H 0.30297 0.56855 0.90463 0.0
H234 H 0.30115 0.42953 0.83342 0.0
H235 H 0.19137 0.37918 0.8199 0.0
H236 H 0.21148 0.57482 0.79643 0.0
H237 H 0.31233 0.63846 0.76395 0.0
H238 H 0.2903 0.47926 0.70817 0.0
H239 H 0.18921 0.41609 0.74087 0.0
H240 H 0.0874 0.54952 0.75744 0.0
H241 H 0.14249 0.61906 0.69881 0.0
H242 H 0.15672 0.4831 0.63682 0.0
H243 H 0.09962 0.41303 0.6954 0.0
H244 H 0.95173 0.46091 0.81059 0.0
H245 H 0.84992 0.41796 0.78084 0.0
H246 H 0.87114 0.29837 0.70222 0.0
H247 H 0.9712 0.33939 0.73341 0.0
O248 O 0.06845 0.37504 0.06488 0.0
O249 O 0.05186 0.28795 0.04249 0.0
O250 O 0.40262 0.65682 0.72083 0.0
O251 O 0.39213 0.57723 0.68895 0.0
C252 C 0.02501 0.40428 0.84013 0.0
C253 C 0.07629 0.40835 0.85771 0.0
C254 C 0.12916 0.43159 0.83338 0.0
C255 C 0.13247 0.45304 0.79188 0.0
C256 C 0.08067 0.44632 0.77298 0.0
C257 C 0.02597 0.42042 0.79685 0.0
C258 C 0.97501 0.38969 0.87001 0.0
C259 C 0.97889 0.43818 0.89099 0.0
C260 C 0.95345 0.43026 0.93139 0.0
C261 C 0.92424 0.37376 0.95188 0.0
C262 C 0.915 0.32389 0.92903 0.0
C263 C 0.93963 0.33168 0.88826 0.0
C264 C 0.07607 0.3914 0.90282 0.0
C265 C 0.08498 0.431 0.93575 0.0
C266 C 0.08061 0.41345 0.97811 0.0
C267 C 0.06804 0.35626 0.98835 0.0
C268 C 0.06069 0.31727 0.95519 0.0
C269 C 0.06477 0.3348 0.91276 0.0
C270 C 0.18579 0.44634 0.85392 0.0
C271 C 0.21686 0.49803 0.87961 0.0
C272 C 0.27832 0.52573 0.88775 0.0
C273 C 0.30915 0.50224 0.86998 0.0
C274 C 0.27726 0.44741 0.84771 0.0
C275 C 0.21505 0.41891 0.84009 0.0
C276 C 0.19311 0.491 0.77085 0.0
C277 C 0.22846 0.55386 0.77702 0.0
C278 C 0.28604 0.59004 0.7585 0.0
C279 C 0.30935 0.56392 0.73343 0.0
C280 C 0.27363 0.50081 0.72721 0.0
C281 C 0.21596 0.46463 0.74582 0.0
C282 C 0.08923 0.47599 0.73092 0.0
C283 C 0.09959 0.53356 0.73025 0.0
C284 C 0.13247 0.57382 0.69696 0.0
C285 C 0.15607 0.55752 0.66362 0.0
C286 C 0.14055 0.49775 0.66235 0.0
C287 C 0.10674 0.45714 0.69543 0.0
C288 C 0.96845 0.40225 0.77506 0.0
C289 C 0.93423 0.42514 0.78724 0.0
C290 C 0.87626 0.40091 0.76993 0.0
C291 C 0.85214 0.35414 0.73965 0.0
C292 C 0.88811 0.33396 0.72574 0.0
C293 C 0.9455 0.35759 0.74342 0.0
C294 C 0.06232 0.33749 0.03346 0.0
C295 C 0.3708 0.60229 0.71407 0.0
H296 H 0.54006 0.9811 0.67861 0.0
H297 H 0.4802 0.65037 0.07269 0.0
H298 H 0.57588 0.09873 0.89067 0.0
H299 H 0.60871 0.15713 0.82505 0.0
H300 H 0.7885 0.19402 0.84129 0.0
H301 H 0.755 0.13581 0.90751 0.0
H302 H 0.50971 0.96442 0.86345 0.0
H303 H 0.50381 0.96316 0.78572 0.0
H304 H 0.69393 0.02781 0.77844 0.0
H305 H 0.69892 0.02815 0.8561 0.0
H306 H 0.46736 0.85476 0.94248 0.0
H307 H 0.42749 0.75004 0.92232 0.0
H308 H 0.60148 0.81066 0.86598 0.0
H309 H 0.64251 0.91341 0.88978 0.0
H310 H 0.48742 0.89889 0.0314 0.0
H311 H 0.43995 0.80145 0.06786 0.0
H312 H 0.58719 0.78809 0.02632 0.0
H313 H 0.63504 0.8863 0.99091 0.0
H314 H 0.5517 0.04345 0.04717 0.0
H315 H 0.50944 0.00405 0.11714 0.0
H316 H 0.62943 0.94381 0.13188 0.0
H317 H 0.67353 0.98629 0.06221 0.0
H318 H 0.6085 0.14573 0.96734 0.0
H319 H 0.66696 0.25149 0.99084 0.0
H320 H 0.79192 0.22335 0.05677 0.0
H321 H 0.73725 0.12009 0.02975 0.0
O322 O 0.54297 0.98051 0.70925 0.0
O323 O 0.64078 0.0136 0.70731 0.0
O324 O 0.43171 0.70448 0.08907 0.0
O325 O 0.50059 0.69117 0.06169 0.0
C326 C 0.63702 0.05965 0.93172 0.0
C327 C 0.60945 0.00236 0.91247 0.0
C328 C 0.58564 0.95074 0.93794 0.0
C329 C 0.59014 0.95571 0.98262 0.0
C330 C 0.61728 0.0131 0.00209 0.0
C331 C 0.6402 0.06519 0.97647 0.0
C332 C 0.66302 0.11291 0.90352 0.0
C333 C 0.62315 0.12197 0.88112 0.0
C334 C 0.64185 0.15469 0.84332 0.0
C335 C 0.70054 0.17824 0.82731 0.0
C336 C 0.74251 0.17502 0.8524 0.0
C337 C 0.72386 0.14275 0.89055 0.0
C338 C 0.60476 0.99662 0.86532 0.0
C339 C 0.54978 0.97759 0.84495 0.0
C340 C 0.54667 0.97724 0.80058 0.0
C341 C 0.59852 0.99579 0.77584 0.0
C342 C 0.6532 0.01346 0.79649 0.0
C343 C 0.65618 0.01366 0.84082 0.0
C344 C 0.55786 0.89107 0.91794 0.0
C345 C 0.49655 0.84513 0.92562 0.0
C346 C 0.47403 0.78574 0.91431 0.0
C347 C 0.512 0.77273 0.89352 0.0
C348 C 0.57167 0.81965 0.88254 0.0
C349 C 0.59492 0.87841 0.89552 0.0
C350 C 0.56475 0.89977 0.00861 0.0
C351 C 0.51 0.87547 0.03097 0.0
C352 C 0.48278 0.81961 0.05151 0.0
C353 C 0.50946 0.78668 0.04953 0.0
C354 C 0.56525 0.81205 0.02816 0.0
C355 C 0.59276 0.86821 0.00803 0.0
C356 C 0.61413 0.01585 0.04906 0.0
C357 C 0.57143 0.02501 0.06644 0.0
C358 C 0.54674 0.00158 0.1064 0.0
C359 C 0.56396 0.96802 0.12918 0.0
C360 C 0.61415 0.96816 0.11478 0.0
C361 C 0.63966 0.99271 0.07499 0.0
C362 C 0.66954 0.12572 0.99598 0.0
C363 C 0.64908 0.1628 0.98632 0.0
C364 C 0.68218 0.22289 -0.00018 0.0
C365 C 0.73443 0.2456 0.02478 0.0
C366 C 0.75227 0.20717 0.03697 0.0
C367 C 0.72074 0.14797 0.02198 0.0
C368 C 0.5956 0.99718 0.72875 0.0
C369 C 0.47829 0.72518 0.06825 0.0
H370 H 0.65705 0.53551 0.88154 0.0
H371 H 0.83834 0.45783 0.25909 0.0
H372 H 0.55688 0.59323 0.06224 0.0
H373 H 0.52153 0.59824 0.99229 0.0
H374 H 0.6855 0.77727 0.97453 0.0
H375 H 0.72004 0.77196 0.04554 0.0
H376 H 0.62236 0.54796 0.02221 0.0
H377 H 0.62351 0.54187 0.94496 0.0
H378 H 0.79336 0.71908 0.94154 0.0
H379 H 0.79078 0.72487 0.01918 0.0
H380 H 0.65467 0.49566 0.08413 0.0
H381 H 0.69155 0.43124 0.07116 0.0
H382 H 0.87561 0.59035 0.0613 0.0
H383 H 0.8386 0.65474 0.07667 0.0
H384 H 0.63524 0.49569 0.16831 0.0
H385 H 0.65842 0.43147 0.20666 0.0
H386 H 0.84782 0.58131 0.21391 0.0
H387 H 0.82366 0.64552 0.17593 0.0
H388 H 0.56794 0.55753 0.18775 0.0
H389 H 0.54368 0.48806 0.24618 0.0
H390 H 0.72802 0.60548 0.29321 0.0
H391 H 0.7512 0.67586 0.23497 0.0
H392 H 0.5427 0.62249 0.13077 0.0
H393 H 0.49357 0.67226 0.15406 0.0
H394 H 0.66433 0.82014 0.20555 0.0
H395 H 0.7142 0.77069 0.18063 0.0
O396 O 0.67838 0.57462 0.86795 0.0
O397 O 0.74001 0.67463 0.8694 0.0
O398 O 0.72964 0.40841 0.24189 0.0
O399 O 0.82762 0.48354 0.24624 0.0
C400 C 0.67188 0.66674 0.09017 0.0
C401 C 0.70253 0.64191 0.07297 0.0
C402 C 0.72301 0.61523 0.09981 0.0
C403 C 0.71349 0.61282 0.14391 0.0
C404 C 0.68338 0.63804 0.16173 0.0
C405 C 0.66337 0.66623 0.13481 0.0
C406 C 0.64066 0.68259 0.05945 0.0
C407 C 0.58352 0.63509 0.04445 0.0
C408 C 0.5643 0.63729 0.0037 0.0
C409 C 0.60191 0.68711 0.97707 0.0
C410 C 0.65613 0.73754 0.99385 0.0
C411 C 0.67527 0.73533 0.03488 0.0
C412 C 0.70641 0.63688 0.02615 0.0
C413 C 0.66014 0.58508 0.0047 0.0
C414 C 0.66117 0.58163 0.96045 0.0
C415 C 0.70902 0.62976 0.93685 0.0
C416 C 0.75585 0.68124 0.95871 0.0
C417 C 0.7547 0.68459 0.00301 0.0
C418 C 0.74426 0.57945 0.0816 0.0
C419 C 0.70281 0.51655 0.07841 0.0
C420 C 0.72384 0.48 0.07148 0.0
C421 C 0.78624 0.50626 0.06605 0.0
C422 C 0.82725 0.56953 0.0657 0.0
C423 C 0.80632 0.60615 0.07404 0.0
C424 C 0.72755 0.57557 0.1701 0.0
C425 C 0.68149 0.51491 0.17893 0.0
C426 C 0.69496 0.47819 0.20055 0.0
C427 C 0.755 0.50126 0.21335 0.0
C428 C 0.80108 0.56221 0.20462 0.0
C429 C 0.78744 0.59903 0.18306 0.0
C430 C 0.66181 0.62112 0.20632 0.0
C431 C 0.60203 0.57045 0.21212 0.0
C432 C 0.58875 0.52972 0.24509 0.0
C433 C 0.63504 0.53939 0.27291 0.0
C434 C 0.6919 0.5955 0.27141 0.0
C435 C 0.70483 0.63671 0.23869 0.0
C436 C 0.63243 0.69365 0.15285 0.0
C437 C 0.56989 0.66599 0.14644 0.0
C438 C 0.54189 0.69452 0.15983 0.0
C439 C 0.57552 0.75079 0.18066 0.0
C440 C 0.63754 0.77712 0.18914 0.0
C441 C 0.66591 0.74888 0.17503 0.0
C442 C 0.70989 0.62757 0.88957 0.0
C443 C 0.76972 0.46151 0.23478 0.0
Co444 Co 0.67652 0.44756 0.36824 0.0
O445 O 0.73811 0.44658 0.33658 0.0
O446 O 0.75884 0.51613 0.38413 0.0
C447 C 0.626 0.34806 0.38634 0.0
O448 O 0.62313 0.46017 0.40851 0.0
Co449 Co 0.54304 0.36782 0.33838 0.0
O450 O 0.52453 0.39155 0.39221 0.0
C451 C 0.62483 0.48971 0.30103 0.0
C452 C 0.77901 0.49316 0.3582 0.0
C453 C 0.56545 0.43481 0.41504 0.0
O454 O 0.66948 0.49768 0.32341 0.0
O455 O 0.57187 0.44001 0.30101 0.0
O456 O 0.67279 0.38987 0.40737 0.0
O457 O 0.61317 0.36635 0.35243 0.0
Co458 Co 0.2895 0.64008 0.55877 0.0
O459 O 0.35341 0.64067 0.58979 0.0
O460 O 0.29244 0.5704 0.54365 0.0
C461 C 0.34961 0.7404 0.54023 0.0
O462 O 0.22037 0.62527 0.51872 0.0
Co463 Co 0.24325 0.71891 0.58638 0.0
O464 O 0.19786 0.69338 0.53208 0.0
C465 C 0.19723 0.60331 0.63117 0.0
C466 C 0.33857 0.59197 0.56941 0.0
C467 C 0.19063 0.64946 0.5105 0.0
O468 O 0.22737 0.59161 0.60551 0.0
O469 O 0.20117 0.65335 0.63039 0.0
O470 O 0.35111 0.69967 0.51888 0.0
O471 O 0.31535 0.72025 0.57363 0.0
Co472 Co 0.68786 0.25999 0.71173 0.0
O473 O 0.68321 0.30855 0.66914 0.0
O474 O 0.61802 0.26332 0.72241 0.0
C475 C 0.78874 0.32389 0.72428 0.0
O476 O 0.67992 0.21095 0.76345 0.0
Co477 Co 0.76481 0.20674 0.70189 0.0
O478 O 0.7598 0.20341 0.76493 0.0
C479 C 0.6461 0.14741 0.65775 0.0
C480 C 0.6355 0.29807 0.68917 0.0
C481 C 0.71557 0.20069 0.78325 0.0
O482 O 0.63597 0.18414 0.6761 0.0
O483 O 0.69613 0.1512 0.66215 0.0
O484 O 0.75042 0.3335 0.74153 0.0
O485 O 0.76555 0.27966 0.69739 0.0
Co486 Co 0.47124 0.61903 0.87495 0.0
O487 O 0.39895 0.58932 0.84283 0.0
O488 O 0.40918 0.54003 0.89574 0.0
C489 C 0.4906 0.71036 0.88462 0.0
O490 O 0.53662 0.63671 0.91771 0.0
Co491 Co 0.59894 0.72636 0.84691 0.0
O492 O 0.61735 0.73194 0.90874 0.0
C493 C 0.52768 0.61296 0.79739 0.0
C494 C 0.37479 0.54236 0.86761 0.0
C495 C 0.58431 0.68565 0.93215 0.0
O496 O 0.49852 0.58499 0.83135 0.0
O497 O 0.56773 0.67025 0.79644 0.0
O498 O 0.45178 0.66608 0.90929 0.0
O499 O 0.51372 0.6974 0.854 0.0
Co500 Co 0.83935 0.40614 0.05401 0.0
O501 O 0.7833 0.41721 0.08352 0.0
O502 O 0.85266 0.48131 0.03647 0.0
C503 C 0.77093 0.30923 0.03773 0.0
O504 O 0.9012 0.40925 0.01389 0.0
Co505 Co 0.87249 0.31705 0.07971 0.0
O506 O 0.89011 0.3202 0.01765 0.0
C507 C 0.90671 0.42206 0.13435 0.0
C508 C 0.80824 0.46735 0.06203 0.0
C509 C 0.90349 0.36694 -0.00334 0.0
O510 O 0.89887 0.44714 0.10241 0.0
O511 O 0.89543 0.36871 0.13234 0.0
O512 O 0.77489 0.3517 0.01456 0.0
O513 O 0.80573 0.32654 0.07075 0.0
Co514 Co 0.48728 0.81388 0.21549 0.0
O515 O 0.49796 0.7703 0.17184 0.0
O516 O 0.55915 0.81361 0.22721 0.0
C517 C 0.38716 0.74414 0.2241 0.0
O518 O 0.48716 0.85866 0.2686 0.0
Co519 Co 0.40079 0.85675 0.20239 0.0
O520 O 0.4033 0.86 0.26502 0.0
C521 C 0.52206 0.92389 0.16165 0.0
C522 C 0.54459 0.78043 0.19318 0.0
C523 C 0.44745 0.86591 0.28583 0.0
O524 O 0.53678 0.89166 0.18161 0.0
O525 O 0.46926 0.91448 0.16417 0.0
O526 O 0.42661 0.73715 0.24254 0.0
O527 O 0.40928 0.78964 0.19859 0.0
loop_
_geom_bond_atom_site_label_1
_geom_bond_atom_site_label_2
_geom_bond_distance
_geom_bond_site_symmetry_2
_ccdc_geom_bond_type
H0 O26 0.856 . S
H1 O29 0.854 . S
H2 C37 0.930 1_455 S
H3 C38 0.930 . S
H4 C40 0.930 . S
H5 C41 0.930 . S
H6 C43 0.931 . S
H7 C44 0.930 . S
H8 C46 0.930 . S
H9 C47 0.929 . S
H10 C49 0.930 . S
H11 C50 0.931 . S
H12 C52 0.930 . S
H13 C53 0.929 . S
H14 C55 0.931 . S
H15 C56 0.930 . S
H16 C58 0.930 . S
H17 C59 0.932 . S
H18 C61 0.930 . S
H19 C62 0.929 . S
H20 C64 0.931 . S
H21 C65 0.930 . S
H22 C67 0.929 . S
H23 C68 0.931 . S
H24 C70 0.930 . S
H25 C71 0.929 1_455 S
O26 H0 0.856 . S
O26 C72 1.300 . S
O27 C72 1.209 . S
O28 C73 1.199 . S
O29 H1 0.854 . S
O29 C73 1.297 . S
C30 C31 1.404 . S
C30 C35 1.397 . S
C30 C36 1.492 . S
C31 C30 1.404 . S
C31 C32 1.396 . S
C31 C42 1.492 . S
C32 C31 1.396 . S
C32 C33 1.397 . S
C32 C48 1.509 . S
C33 C32 1.397 . S
C33 C34 1.412 . S
C33 C54 1.485 . S
C34 C33 1.412 . S
C34 C35 1.388 . S
C34 C60 1.490 . S
C35 C30 1.397 . S
C35 C34 1.388 . S
C35 C66 1.519 1_455 S
C36 C30 1.492 . S
C36 C37 1.363 1_455 S
C36 C41 1.390 1_455 S
C37 H2 0.930 1_655 S
C37 C36 1.363 1_655 S
C37 C38 1.372 . S
C38 H3 0.930 . S
C38 C37 1.372 . S
C38 C39 1.383 . S
C39 C38 1.383 . S
C39 C40 1.395 . S
C40 H4 0.930 . S
C40 C39 1.395 . S
C40 C41 1.362 . S
C41 H5 0.930 . S
C41 C36 1.390 1_655 S
C41 C40 1.362 . S
C42 C31 1.492 . S
C42 C43 1.377 . S
C42 C47 1.397 . S
C43 H6 0.931 . S
C43 C42 1.377 . S
C43 C44 1.376 . S
C44 H7 0.930 . S
C44 C43 1.376 . S
C44 C45 1.376 . S
C45 C44 1.376 . S
C45 C46 1.378 . S
C45 C72 1.486 . S
C46 H8 0.930 . S
C46 C45 1.378 . S
C46 C47 1.376 . S
C47 H9 0.929 . S
C47 C42 1.397 . S
C47 C46 1.376 . S
C48 C32 1.509 . S
C48 C49 1.391 . S
C48 C53 1.386 . S
C49 H10 0.930 . S
C49 C48 1.391 . S
C49 C50 1.375 . S
C50 H11 0.931 . S
C50 C49 1.375 . S
C50 C51 1.375 . S
C51 C50 1.375 . S
C51 C52 1.361 . S
C52 H12 0.930 . S
C52 C51 1.361 . S
C52 C53 1.399 . S
C53 H13 0.929 . S
C53 C48 1.386 . S
C53 C52 1.399 . S
C54 C33 1.485 . S
C54 C55 1.394 . S
C54 C59 1.360 . S
C55 H14 0.931 . S
C55 C54 1.394 . S
C55 C56 1.372 . S
C56 H15 0.930 . S
C56 C55 1.372 . S
C56 C57 1.397 . S
C57 C56 1.397 . S
C57 C58 1.390 . S
C57 C73 1.476 . S
C58 H16 0.930 . S
C58 C57 1.390 . S
C58 C59 1.366 . S
C59 H17 0.932 . S
C59 C54 1.360 . S
C59 C58 1.366 . S
C60 C34 1.490 . S
C60 C61 1.380 . S
C60 C65 1.386 . S
C61 H18 0.930 . S
C61 C60 1.380 . S
C61 C62 1.381 . S
C62 H19 0.929 . S
C62 C61 1.381 . S
C62 C63 1.371 . S
C63 C62 1.371 . S
C63 C64 1.380 . S
C64 H20 0.931 . S
C64 C63 1.380 . S
C64 C65 1.387 . S
C65 H21 0.930 . S
C65 C60 1.386 . S
C65 C64 1.387 . S
C66 C35 1.519 1_655 S
C66 C67 1.377 . S
C66 C71 1.361 . S
C67 H22 0.929 . S
C67 C66 1.377 . S
C67 C68 1.386 . S
C68 H23 0.931 . S
C68 C67 1.386 . S
C68 C69 1.363 . S
C69 C68 1.363 . S
C69 C70 1.385 . S
C70 H24 0.930 . S
C70 C69 1.385 . S
C70 C71 1.396 . S
C71 H25 0.929 1_655 S
C71 C66 1.361 . S
C71 C70 1.396 . S
C72 O26 1.300 . S
C72 O27 1.209 . S
C72 C45 1.486 . S
C73 O28 1.199 . S
C73 O29 1.297 . S
C73 C57 1.476 . S
H74 O100 0.856 . S
H75 O103 0.854 . S
H76 C111 0.930 1_545 S
H77 C112 0.930 . S
H78 C114 0.930 . S
H79 C115 0.930 . S
H80 C117 0.931 . S
H81 C118 0.930 . S
H82 C120 0.930 . S
H83 C121 0.929 . S
H84 C123 0.930 . S
H85 C124 0.931 . S
H86 C126 0.930 . S
H87 C127 0.929 . S
H88 C129 0.931 . S
H89 C130 0.930 . S
H90 C132 0.930 . S
H91 C133 0.932 . S
H92 C135 0.930 . S
H93 C136 0.929 . S
H94 C138 0.931 . S
H95 C139 0.930 . S
H96 C141 0.929 . S
H97 C142 0.931 . S
H98 C144 0.930 . S
H99 C145 0.929 . S
O100 H74 0.856 . S
O100 C146 1.300 . S
O101 C146 1.209 . S
O102 C147 1.199 . S
O103 H75 0.854 . S
O103 C147 1.297 . S
C104 C105 1.404 . S
C104 C109 1.397 . S
C104 C110 1.490 . S
C105 C104 1.404 . S
C105 C106 1.396 . S
C105 C116 1.492 . S
C106 C105 1.396 . S
C106 C107 1.397 . S
C106 C122 1.509 . S
C107 C106 1.397 . S
C107 C108 1.412 . S
C107 C128 1.485 . S
C108 C107 1.412 . S
C108 C109 1.388 . S
C108 C134 1.490 . S
C109 C104 1.397 . S
C109 C108 1.388 . S
C109 C140 1.519 1_545 S
C110 C104 1.490 . S
C110 C111 1.365 1_545 S
C110 C115 1.390 1_545 S
C111 H76 0.930 1_565 S
C111 C110 1.365 1_565 S
C111 C112 1.372 . S
C112 H77 0.930 . S
C112 C111 1.372 . S
C112 C113 1.383 . S
C113 C112 1.383 . S
C113 C114 1.395 . S
C114 H78 0.930 . S
C114 C113 1.395 . S
C114 C115 1.362 . S
C115 H79 0.930 . S
C115 C110 1.390 1_565 S
C115 C114 1.362 . S
C116 C105 1.492 . S
C116 C117 1.377 . S
C116 C121 1.397 . S
C117 H80 0.931 . S
C117 C116 1.377 . S
C117 C118 1.376 . S
C118 H81 0.930 . S
C118 C117 1.376 . S
C118 C119 1.376 . S
C119 C118 1.376 . S
C119 C120 1.378 . S
C119 C146 1.486 . S
C120 H82 0.930 . S
C120 C119 1.378 . S
C120 C121 1.376 . S
C121 H83 0.929 . S
C121 C116 1.397 . S
C121 C120 1.376 . S
C122 C106 1.509 . S
C122 C123 1.391 . S
C122 C127 1.386 . S
C123 H84 0.930 . S
C123 C122 1.391 . S
C123 C124 1.375 . S
C124 H85 0.931 . S
C124 C123 1.375 . S
C124 C125 1.375 . S
C125 C124 1.375 . S
C125 C126 1.361 . S
C126 H86 0.930 . S
C126 C125 1.361 . S
C126 C127 1.399 . S
C127 H87 0.929 . S
C127 C122 1.386 . S
C127 C126 1.399 . S
C128 C107 1.485 . S
C128 C129 1.394 . S
C128 C133 1.360 . S
C129 H88 0.931 . S
C129 C128 1.394 . S
C129 C130 1.372 . S
C130 H89 0.930 . S
C130 C129 1.372 . S
C130 C131 1.397 . S
C131 C130 1.397 . S
C131 C132 1.390 . S
C131 C147 1.476 . S
C132 H90 0.930 . S
C132 C131 1.390 . S
C132 C133 1.366 . S
C133 H91 0.932 . S
C133 C128 1.360 . S
C133 C132 1.366 . S
C134 C108 1.490 . S
C134 C135 1.380 . S
C134 C139 1.386 . S
C135 H92 0.930 . S
C135 C134 1.380 . S
C135 C136 1.381 . S
C136 H93 0.929 . S
C136 C135 1.381 . S
C136 C137 1.371 . S
C137 C136 1.371 . S
C137 C138 1.380 . S
C138 H94 0.931 . S
C138 C137 1.380 . S
C138 C139 1.387 . S
C139 H95 0.930 . S
C139 C134 1.386 . S
C139 C138 1.387 . S
C140 C109 1.519 1_565 S
C140 C141 1.377 . S
C140 C145 1.361 . S
C141 H96 0.929 . S
C141 C140 1.377 . S
C141 C142 1.386 . S
C142 H97 0.931 . S
C142 C141 1.386 . S
C142 C143 1.363 . S
C143 C142 1.363 . S
C143 C144 1.385 . S
C144 H98 0.930 . S
C144 C143 1.385 . S
C144 C145 1.396 . S
C145 H99 0.929 . S
C145 C140 1.361 . S
C145 C144 1.396 . S
C146 O100 1.300 . S
C146 O101 1.209 . S
C146 C119 1.486 . S
C147 O102 1.199 . S
C147 O103 1.297 . S
C147 C131 1.476 . S
H148 O174 0.856 . S
H149 O177 0.854 . S
H150 C185 0.930 . S
H151 C186 0.930 . S
H152 C188 0.930 . S
H153 C189 0.930 . S
H154 C191 0.931 . S
H155 C192 0.930 . S
H156 C194 0.930 . S
H157 C195 0.929 . S
H158 C197 0.930 . S
H159 C198 0.931 . S
H160 C200 0.930 . S
H161 C201 0.929 . S
H162 C203 0.931 . S
H163 C204 0.930 . S
H164 C206 0.930 . S
H165 C207 0.932 . S
H166 C209 0.930 . S
H167 C210 0.929 . S
H168 C212 0.931 . S
H169 C213 0.930 . S
H170 C215 0.929 . S
H171 C216 0.931 . S
H172 C218 0.930 . S
H173 C219 0.929 . S
O174 H148 0.856 . S
O174 C220 1.300 . S
O175 C220 1.209 . S
O176 C221 1.199 . S
O177 H149 0.854 . S
O177 C221 1.297 . S
C178 C179 1.404 . S
C178 C183 1.397 . S
C178 C184 1.492 . S
C179 C178 1.404 . S
C179 C180 1.396 . S
C179 C190 1.492 . S
C180 C179 1.396 . S
C180 C181 1.397 . S
C180 C196 1.509 . S
C181 C180 1.397 . S
C181 C182 1.412 . S
C181 C202 1.485 . S
C182 C181 1.412 . S
C182 C183 1.388 . S
C182 C208 1.490 . S
C183 C178 1.397 . S
C183 C182 1.388 . S
C183 C214 1.519 . S
C184 C178 1.492 . S
C184 C185 1.363 . S
C184 C189 1.390 . S
C185 H150 0.930 . S
C185 C184 1.363 . S
C185 C186 1.372 . S
C186 H151 0.930 . S
C186 C185 1.372 . S
C186 C187 1.383 . S
C187 C186 1.383 . S
C187 C188 1.395 . S
C188 H152 0.930 . S
C188 C187 1.395 . S
C188 C189 1.362 . S
C189 H153 0.930 . S
C189 C184 1.390 . S
C189 C188 1.362 . S
C190 C179 1.492 . S
C190 C191 1.377 . S
C190 C195 1.397 . S
C191 H154 0.931 . S
C191 C190 1.377 . S
C191 C192 1.376 . S
C192 H155 0.930 . S
C192 C191 1.376 . S
C192 C193 1.376 . S
C193 C192 1.376 . S
C193 C194 1.378 . S
C193 C220 1.486 . S
C194 H156 0.930 . S
C194 C193 1.378 . S
C194 C195 1.376 . S
C195 H157 0.929 . S
C195 C190 1.397 . S
C195 C194 1.376 . S
C196 C180 1.509 . S
C196 C197 1.391 . S
C196 C201 1.386 . S
C197 H158 0.930 . S
C197 C196 1.391 . S
C197 C198 1.375 . S
C198 H159 0.931 . S
C198 C197 1.375 . S
C198 C199 1.375 . S
C199 C198 1.375 . S
C199 C200 1.361 . S
C200 H160 0.930 . S
C200 C199 1.361 . S
C200 C201 1.399 . S
C201 H161 0.929 . S
C201 C196 1.386 . S
C201 C200 1.399 . S
C202 C181 1.485 . S
C202 C203 1.394 . S
C202 C207 1.360 . S
C203 H162 0.931 . S
C203 C202 1.394 . S
C203 C204 1.372 . S
C204 H163 0.930 . S
C204 C203 1.372 . S
C204 C205 1.397 . S
C205 C204 1.397 . S
C205 C206 1.390 . S
C205 C221 1.476 . S
C206 H164 0.930 . S
C206 C205 1.390 . S
C206 C207 1.366 . S
C207 H165 0.932 . S
C207 C202 1.360 . S
C207 C206 1.366 . S
C208 C182 1.490 . S
C208 C209 1.380 . S
C208 C213 1.386 . S
C209 H166 0.930 . S
C209 C208 1.380 . S
C209 C210 1.381 . S
C210 H167 0.929 . S
C210 C209 1.381 . S
C210 C211 1.371 . S
C211 C210 1.371 . S
C211 C212 1.380 . S
C212 H168 0.931 . S
C212 C211 1.380 . S
C212 C213 1.387 . S
C213 H169 0.930 . S
C213 C208 1.386 . S
C213 C212 1.387 . S
C214 C183 1.519 . S
C214 C215 1.377 . S
C214 C219 1.361 . S
C215 H170 0.929 . S
C215 C214 1.377 . S
C215 C216 1.386 . S
C216 H171 0.931 . S
C216 C215 1.386 . S
C216 C217 1.363 . S
C217 C216 1.363 . S
C217 C218 1.385 . S
C218 H172 0.930 . S
C218 C217 1.385 . S
C218 C219 1.396 . S
C219 H173 0.929 . S
C219 C214 1.361 . S
C219 C218 1.396 . S
C220 O174 1.300 . S
C220 O175 1.209 . S
C220 C193 1.486 . S
C221 O176 1.199 . S
C221 O177 1.297 . S
C221 C205 1.476 . S
H222 O248 0.856 . S
H223 O251 0.854 . S
H224 C259 0.930 1_455 S
H225 C260 0.930 . S
H226 C262 0.930 . S
H227 C263 0.930 . S
H228 C265 0.931 . S
H229 C266 0.930 . S
H230 C268 0.930 . S
H231 C269 0.929 . S
H232 C271 0.930 . S
H233 C272 0.931 . S
H234 C274 0.930 . S
H235 C275 0.929 . S
H236 C277 0.931 . S
H237 C278 0.930 . S
H238 C280 0.930 . S
H239 C281 0.932 . S
H240 C283 0.930 . S
H241 C284 0.929 . S
H242 C286 0.931 . S
H243 C287 0.930 . S
H244 C289 0.929 . S
H245 C290 0.931 . S
H246 C292 0.930 . S
H247 C293 0.929 . S
O248 H222 0.856 . S
O248 C294 1.300 . S
O249 C294 1.209 . S
O250 C295 1.199 . S
O251 H223 0.854 . S
O251 C295 1.297 . S
C252 C253 1.404 . S
C252 C257 1.397 . S
C252 C258 1.492 1_455 S
C253 C252 1.404 . S
C253 C254 1.396 . S
C253 C264 1.492 . S
C254 C253 1.396 . S
C254 C255 1.397 . S
C254 C270 1.509 . S
C255 C254 1.397 . S
C255 C256 1.412 . S
C255 C276 1.485 . S
C256 C255 1.412 . S
C256 C257 1.388 . S
C256 C282 1.490 . S
C257 C252 1.397 . S
C257 C256 1.388 . S
C257 C288 1.519 1_455 S
C258 C252 1.492 1_655 S
C258 C259 1.363 . S
C258 C263 1.390 . S
C259 H224 0.930 1_655 S
C259 C258 1.363 . S
C259 C260 1.372 . S
C260 H225 0.930 . S
C260 C259 1.372 . S
C260 C261 1.383 . S
C261 C260 1.383 . S
C261 C262 1.395 . S
C262 H226 0.930 . S
C262 C261 1.395 . S
C262 C263 1.362 . S
C263 H227 0.930 . S
C263 C258 1.390 . S
C263 C262 1.362 . S
C264 C253 1.492 . S
C264 C265 1.377 . S
C264 C269 1.397 . S
C265 H228 0.931 . S
C265 C264 1.377 . S
C265 C266 1.376 . S
C266 H229 0.930 . S
C266 C265 1.376 . S
C266 C267 1.376 . S
C267 C266 1.376 . S
C267 C268 1.378 . S
C267 C294 1.486 1_556 S
C268 H230 0.930 . S
C268 C267 1.378 . S
C268 C269 1.376 . S
C269 H231 0.929 . S
C269 C264 1.397 . S
C269 C268 1.376 . S
C270 C254 1.509 . S
C270 C271 1.391 . S
C270 C275 1.386 . S
C271 H232 0.930 . S
C271 C270 1.391 . S
C271 C272 1.375 . S
C272 H233 0.931 . S
C272 C271 1.375 . S
C272 C273 1.375 . S
C273 C272 1.375 . S
C273 C274 1.361 . S
C274 H234 0.930 . S
C274 C273 1.361 . S
C274 C275 1.399 . S
C275 H235 0.929 . S
C275 C270 1.386 . S
C275 C274 1.399 . S
C276 C255 1.485 . S
C276 C277 1.394 . S
C276 C281 1.360 . S
C277 H236 0.931 . S
C277 C276 1.394 . S
C277 C278 1.372 . S
C278 H237 0.930 . S
C278 C277 1.372 . S
C278 C279 1.397 . S
C279 C278 1.397 . S
C279 C280 1.390 . S
C279 C295 1.476 . S
C280 H238 0.930 . S
C280 C279 1.390 . S
C280 C281 1.366 . S
C281 H239 0.932 . S
C281 C276 1.360 . S
C281 C280 1.366 . S
C282 C256 1.490 . S
C282 C283 1.380 . S
C282 C287 1.386 . S
C283 H240 0.930 . S
C283 C282 1.380 . S
C283 C284 1.381 . S
C284 H241 0.929 . S
C284 C283 1.381 . S
C284 C285 1.371 . S
C285 C284 1.371 . S
C285 C286 1.380 . S
C286 H242 0.931 . S
C286 C285 1.380 . S
C286 C287 1.387 . S
C287 H243 0.930 . S
C287 C282 1.386 . S
C287 C286 1.387 . S
C288 C257 1.519 1_655 S
C288 C289 1.377 . S
C288 C293 1.361 . S
C289 H244 0.929 . S
C289 C288 1.377 . S
C289 C290 1.386 . S
C290 H245 0.931 . S
C290 C289 1.386 . S
C290 C291 1.363 . S
C291 C290 1.363 . S
C291 C292 1.385 . S
C292 H246 0.930 . S
C292 C291 1.385 . S
C292 C293 1.396 . S
C293 H247 0.929 . S
C293 C288 1.361 . S
C293 C292 1.396 . S
C294 O248 1.300 . S
C294 O249 1.209 . S
C294 C267 1.486 1_554 S
C295 O250 1.199 . S
C295 O251 1.297 . S
C295 C279 1.476 . S
H296 O322 0.856 . S
H297 O325 0.854 . S
H298 C333 0.930 . S
H299 C334 0.930 . S
H300 C336 0.930 . S
H301 C337 0.930 . S
H302 C339 0.931 . S
H303 C340 0.930 . S
H304 C342 0.930 1_545 S
H305 C343 0.929 1_545 S
H306 C345 0.930 . S
H307 C346 0.931 . S
H308 C348 0.930 . S
H309 C349 0.929 . S
H310 C351 0.931 . S
H311 C352 0.930 . S
H312 C354 0.930 . S
H313 C355 0.932 . S
H314 C357 0.930 . S
H315 C358 0.929 . S
H316 C360 0.931 . S
H317 C361 0.930 . S
H318 C363 0.930 1_556 S
H319 C364 0.931 . S
H320 C366 0.930 . S
H321 C367 0.929 . S
O322 H296 0.856 . S
O322 C368 1.300 . S
O323 C368 1.209 . S
O324 C369 1.199 . S
O325 H297 0.854 . S
O325 C369 1.297 . S
C326 C327 1.404 1_545 S
C326 C331 1.397 . S
C326 C332 1.492 . S
C327 C326 1.404 1_565 S
C327 C328 1.396 . S
C327 C338 1.492 . S
C328 C327 1.396 . S
C328 C329 1.397 . S
C328 C344 1.509 . S
C329 C328 1.397 . S
C329 C330 1.412 1_556 S
C329 C350 1.485 1_556 S
C330 C329 1.412 1_554 S
C330 C331 1.388 1_564 S
C330 C356 1.490 . S
C331 C326 1.397 . S
C331 C330 1.388 1_546 S
C331 C362 1.519 1_556 S
C332 C326 1.492 . S
C332 C333 1.363 . S
C332 C337 1.390 . S
C333 H298 0.930 . S
C333 C332 1.363 . S
C333 C334 1.372 . S
C334 H299 0.930 . S
C334 C333 1.372 . S
C334 C335 1.383 . S
C335 C334 1.383 . S
C335 C336 1.395 . S
C336 H300 0.930 . S
C336 C335 1.395 . S
C336 C337 1.362 . S
C337 H301 0.930 . S
C337 C332 1.390 . S
C337 C336 1.362 . S
C338 C327 1.492 . S
C338 C339 1.377 . S
C338 C343 1.397 . S
C339 H302 0.931 . S
C339 C338 1.377 . S
C339 C340 1.376 . S
C340 H303 0.930 . S
C340 C339 1.376 . S
C340 C341 1.376 . S
C341 C340 1.376 . S
C341 C342 1.378 . S
C341 C368 1.486 . S
C342 H304 0.930 1_565 S
C342 C341 1.378 . S
C342 C343 1.376 . S
C343 H305 0.929 1_565 S
C343 C338 1.397 . S
C343 C342 1.376 . S
C344 C328 1.509 . S
C344 C345 1.391 . S
C344 C349 1.386 . S
C345 H306 0.930 . S
C345 C344 1.391 . S
C345 C346 1.375 . S
C346 H307 0.931 . S
C346 C345 1.375 . S
C346 C347 1.375 . S
C347 C346 1.375 . S
C347 C348 1.361 . S
C348 H308 0.930 . S
C348 C347 1.361 . S
C348 C349 1.399 . S
C349 H309 0.929 . S
C349 C344 1.386 . S
C349 C348 1.399 . S
C350 C329 1.485 1_554 S
C350 C351 1.394 . S
C350 C355 1.360 . S
C351 H310 0.931 . S
C351 C350 1.394 . S
C351 C352 1.372 . S
C352 H311 0.930 . S
C352 C351 1.372 . S
C352 C353 1.397 . S
C353 C352 1.397 . S
C353 C354 1.390 . S
C353 C369 1.476 . S
C354 H312 0.930 . S
C354 C353 1.390 . S
C354 C355 1.366 . S
C355 H313 0.932 . S
C355 C350 1.360 . S
C355 C354 1.366 . S
C356 C330 1.490 . S
C356 C357 1.380 1_565 S
C356 C361 1.386 . S
C357 H314 0.930 . S
C357 C356 1.380 1_545 S
C357 C358 1.381 . S
C358 H315 0.929 . S
C358 C357 1.381 . S
C358 C359 1.371 . S
C359 C358 1.371 . S
C359 C360 1.380 1_545 S
C360 H316 0.931 . S
C360 C359 1.380 1_565 S
C360 C361 1.387 . S
C361 H317 0.930 . S
C361 C356 1.386 . S
C361 C360 1.387 . S
C362 C331 1.519 1_554 S
C362 C363 1.377 . S
C362 C367 1.361 . S
C363 H318 0.930 1_554 S
C363 C362 1.377 . S
C363 C364 1.386 . S
C364 H319 0.931 . S
C364 C363 1.386 . S
C364 C365 1.363 . S
C365 C364 1.363 . S
C365 C366 1.385 . S
C366 H320 0.930 . S
C366 C365 1.385 . S
C366 C367 1.396 . S
C367 H321 0.929 . S
C367 C362 1.361 . S
C367 C366 1.396 . S
C368 O322 1.300 . S
C368 O323 1.209 . S
C368 C341 1.486 . S
C369 O324 1.199 . S
C369 O325 1.297 . S
C369 C353 1.476 . S
H370 O396 0.856 . S
H371 O399 0.854 . S
H372 C407 0.930 . S
H373 C408 0.930 . S
H374 C410 0.930 . S
H375 C411 0.930 . S
H376 C413 0.931 . S
H377 C414 0.930 . S
H378 C416 0.930 . S
H379 C417 0.929 . S
H380 C419 0.930 . S
H381 C420 0.931 . S
H382 C422 0.930 . S
H383 C423 0.929 . S
H384 C425 0.931 . S
H385 C426 0.930 . S
H386 C428 0.930 . S
H387 C429 0.932 . S
H388 C431 0.930 . S
H389 C432 0.929 . S
H390 C434 0.931 . S
H391 C435 0.930 . S
H392 C437 0.929 . S
H393 C438 0.931 . S
H394 C440 0.930 . S
H395 C441 0.929 . S
O396 H370 0.856 . S
O396 C442 1.300 . S
O397 C442 1.209 . S
O398 C443 1.199 . S
O399 H371 0.854 . S
O399 C443 1.297 . S
C400 C401 1.404 . S
C400 C405 1.397 . S
C400 C406 1.492 . S
C401 C400 1.404 . S
C401 C402 1.396 . S
C401 C412 1.492 . S
C402 C401 1.396 . S
C402 C403 1.397 . S
C402 C418 1.509 . S
C403 C402 1.397 . S
C403 C404 1.412 . S
C403 C424 1.485 . S
C404 C403 1.412 . S
C404 C405 1.388 . S
C404 C430 1.490 . S
C405 C400 1.397 . S
C405 C404 1.388 . S
C405 C436 1.519 . S
C406 C400 1.492 . S
C406 C407 1.363 . S
C406 C411 1.390 . S
C407 H372 0.930 . S
C407 C406 1.363 . S
C407 C408 1.372 . S
C408 H373 0.930 . S
C408 C407 1.372 . S
C408 C409 1.383 . S
C409 C408 1.383 . S
C409 C410 1.395 . S
C410 H374 0.930 . S
C410 C409 1.395 . S
C410 C411 1.362 . S
C411 H375 0.930 . S
C411 C406 1.390 . S
C411 C410 1.362 . S
C412 C401 1.492 . S
C412 C413 1.377 . S
C412 C417 1.397 . S
C413 H376 0.931 . S
C413 C412 1.377 . S
C413 C414 1.376 1_554 S
C414 H377 0.930 . S
C414 C413 1.376 1_556 S
C414 C415 1.376 . S
C415 C414 1.376 . S
C415 C416 1.378 . S
C415 C442 1.486 . S
C416 H378 0.930 . S
C416 C415 1.378 . S
C416 C417 1.376 1_556 S
C417 H379 0.929 . S
C417 C412 1.397 . S
C417 C416 1.376 1_554 S
C418 C402 1.509 . S
C418 C419 1.391 . S
C418 C423 1.386 . S
C419 H380 0.930 . S
C419 C418 1.391 . S
C419 C420 1.375 . S
C420 H381 0.931 . S
C420 C419 1.375 . S
C420 C421 1.375 . S
C421 C420 1.375 . S
C421 C422 1.361 . S
C422 H382 0.930 . S
C422 C421 1.361 . S
C422 C423 1.399 . S
C423 H383 0.929 . S
C423 C418 1.386 . S
C423 C422 1.399 . S
C424 C403 1.485 . S
C424 C425 1.394 . S
C424 C429 1.360 . S
C425 H384 0.931 . S
C425 C424 1.394 . S
C425 C426 1.372 . S
C426 H385 0.930 . S
C426 C425 1.372 . S
C426 C427 1.397 . S
C427 C426 1.397 . S
C427 C428 1.390 . S
C427 C443 1.476 . S
C428 H386 0.930 . S
C428 C427 1.390 . S
C428 C429 1.366 . S
C429 H387 0.932 . S
C429 C424 1.360 . S
C429 C428 1.366 . S
C430 C404 1.490 . S
C430 C431 1.380 . S
C430 C435 1.386 . S
C431 H388 0.930 . S
C431 C430 1.380 . S
C431 C432 1.381 . S
C432 H389 0.929 . S
C432 C431 1.381 . S
C432 C433 1.371 . S
C433 C432 1.371 . S
C433 C434 1.380 . S
C434 H390 0.931 . S
C434 C433 1.380 . S
C434 C435 1.387 . S
C435 H391 0.930 . S
C435 C430 1.386 . S
C435 C434 1.387 . S
C436 C405 1.519 . S
C436 C437 1.377 . S
C436 C441 1.361 . S
C437 H392 0.929 . S
C437 C436 1.377 . S
C437 C438 1.386 . S
C438 H393 0.931 . S
C438 C437 1.386 . S
C438 C439 1.363 . S
C439 C438 1.363 . S
C439 C440 1.385 . S
C440 H394 0.930 . S
C440 C439 1.385 . S
C440 C441 1.396 . S
C441 H395 0.929 . S
C441 C436 1.361 . S
C441 C440 1.396 . S
C442 O396 1.300 . S
C442 O397 1.209 . S
C442 C415 1.486 . S
C443 O398 1.199 . S
C443 O399 1.297 . S
C443 C427 1.476 . S
Co444 O445 2.216 . S
Co444 O446 2.091 . S
Co444 O448 2.004 . S
Co444 O454 2.021 . S
Co444 O456 2.137 . S
Co444 O457 2.244 . S
O445 Co444 2.216 . S
O445 C452 1.247 . S
O446 Co444 2.091 . S
O446 C452 1.261 . S
C447 O456 1.247 . S
C447 O457 1.272 . S
O448 Co444 2.004 . S
O448 C453 1.259 . S
Co449 O450 2.061 . S
Co449 O455 2.052 . S
Co449 O457 2.135 . S
O450 Co449 2.061 . S
O450 C453 1.235 . S
C451 O454 1.238 . S
C451 O455 1.241 . S
C452 O445 1.247 . S
C452 O446 1.261 . S
C453 O448 1.259 . S
C453 O450 1.235 . S
O454 Co444 2.021 . S
O454 C451 1.238 . S
O455 Co449 2.052 . S
O455 C451 1.241 . S
O456 Co444 2.137 . S
O456 C447 1.247 . S
O457 Co444 2.244 . S
O457 C447 1.272 . S
O457 Co449 2.135 . S
Co458 O459 2.216 . S
Co458 O460 2.091 . S
Co458 O462 2.004 . S
Co458 O468 2.021 . S
Co458 O470 2.137 . S
Co458 O471 2.244 . S
O459 Co458 2.216 . S
O459 C466 1.247 . S
O460 Co458 2.091 . S
O460 C466 1.261 . S
C461 O470 1.247 . S
C461 O471 1.272 . S
O462 Co458 2.004 . S
O462 C467 1.259 . S
Co463 O464 2.061 . S
Co463 O469 2.052 . S
Co463 O471 2.135 . S
O464 Co463 2.061 . S
O464 C467 1.235 . S
C465 O468 1.238 . S
C465 O469 1.241 . S
C466 O459 1.247 . S
C466 O460 1.261 . S
C467 O462 1.259 . S
C467 O464 1.235 . S
O468 Co458 2.021 . S
O468 C465 1.238 . S
O469 Co463 2.052 . S
O469 C465 1.241 . S
O470 Co458 2.137 . S
O470 C461 1.247 . S
O471 Co458 2.244 . S
O471 C461 1.272 . S
O471 Co463 2.135 . S
Co472 O473 2.216 . S
Co472 O474 2.091 . S
Co472 O476 2.004 . S
Co472 O482 2.021 . S
Co472 O484 2.137 . S
Co472 O485 2.244 . S
O473 Co472 2.216 . S
O473 C480 1.247 . S
O474 Co472 2.091 . S
O474 C480 1.261 . S
C475 O484 1.247 . S
C475 O485 1.272 . S
O476 Co472 2.004 . S
O476 C481 1.259 . S
Co477 O478 2.061 . S
Co477 O483 2.052 . S
Co477 O485 2.135 . S
O478 Co477 2.061 . S
O478 C481 1.235 . S
C479 O482 1.238 . S
C479 O483 1.241 . S
C480 O473 1.247 . S
C480 O474 1.261 . S
C481 O476 1.259 . S
C481 O478 1.235 . S
O482 Co472 2.021 . S
O482 C479 1.238 . S
O483 Co477 2.052 . S
O483 C479 1.241 . S
O484 Co472 2.137 . S
O484 C475 1.247 . S
O485 Co472 2.244 . S
O485 C475 1.272 . S
O485 Co477 2.135 . S
Co486 O487 2.216 . S
Co486 O488 2.091 . S
Co486 O490 2.004 . S
Co486 O496 2.021 . S
Co486 O498 2.137 . S
Co486 O499 2.244 . S
O487 Co486 2.216 . S
O487 C494 1.247 . S
O488 Co486 2.091 . S
O488 C494 1.261 . S
C489 O498 1.247 . S
C489 O499 1.272 . S
O490 Co486 2.004 . S
O490 C495 1.259 . S
Co491 O492 2.061 . S
Co491 O497 2.052 . S
Co491 O499 2.135 . S
O492 Co491 2.061 . S
O492 C495 1.235 . S
C493 O496 1.238 . S
C493 O497 1.241 . S
C494 O487 1.247 . S
C494 O488 1.261 . S
C495 O490 1.259 . S
C495 O492 1.235 . S
O496 Co486 2.021 . S
O496 C493 1.238 . S
O497 Co491 2.052 . S
O497 C493 1.241 . S
O498 Co486 2.137 . S
O498 C489 1.247 . S
O499 Co486 2.244 . S
O499 C489 1.272 . S
O499 Co491 2.135 . S
Co500 O501 2.216 . S
Co500 O502 2.091 . S
Co500 O504 2.004 1_554 S
Co500 O510 2.021 . S
Co500 O512 2.137 . S
Co500 O513 2.244 . S
O501 Co500 2.216 . S
O501 C508 1.247 . S
O502 Co500 2.091 . S
O502 C508 1.261 . S
C503 O512 1.247 . S
C503 O513 1.272 . S
O504 Co500 2.004 1_556 S
O504 C509 1.259 . S
Co505 O506 2.061 . S
Co505 O511 2.052 . S
Co505 O513 2.135 . S
O506 Co505 2.061 . S
O506 C509 1.235 1_554 S
C507 O510 1.238 . S
C507 O511 1.241 . S
C508 O501 1.247 . S
C508 O502 1.261 . S
C509 O504 1.259 . S
C509 O506 1.235 1_556 S
O510 Co500 2.021 . S
O510 C507 1.238 . S
O511 Co505 2.052 . S
O511 C507 1.241 . S
O512 Co500 2.137 . S
O512 C503 1.247 . S
O513 Co500 2.244 . S
O513 C503 1.272 . S
O513 Co505 2.135 . S
Co514 O515 2.216 . S
Co514 O516 2.091 . S
Co514 O518 2.004 . S
Co514 O524 2.021 . S
Co514 O526 2.137 . S
Co514 O527 2.244 . S
O515 Co514 2.216 . S
O515 C522 1.247 . S
O516 Co514 2.091 . S
O516 C522 1.261 . S
C517 O526 1.247 . S
C517 O527 1.272 . S
O518 Co514 2.004 . S
O518 C523 1.259 . S
Co519 O520 2.061 . S
Co519 O525 2.052 . S
Co519 O527 2.135 . S
O520 Co519 2.061 . S
O520 C523 1.235 . S
C521 O524 1.238 . S
C521 O525 1.241 . S
C522 O515 1.247 . S
C522 O516 1.261 . S
C523 O518 1.259 . S
C523 O520 1.235 . S
O524 Co514 2.021 . S
O524 C521 1.238 . S
O525 Co519 2.052 . S
O525 C521 1.241 . S
O526 Co514 2.137 . S
O526 C517 1.247 . S
O527 Co514 2.244 . S
O527 C517 1.272 . S
O527 Co519 2.135 . S
C517 C51 1.650 . S
C125 C447 2.165 . S
C217 C466 2.892 . S
C291 C475 2.681 . S
C489 C347 0.855 . S
C421 C508 1.481 . S
C143 C461 3.316 . S
C199 C480 1.185 . S
C273 C494 1.458 . S
C503 C365 1.332 . S
C522 C439 2.882 . S
C452 C69 2.772 . S
C63 C467 2.284 . S
C137 C479 1.879 . S
C493 C187 2.296 . S
C261 C509 2.266 . S
C521 C359 1.954 1_565 S
C451 C433 1.897 . S
C523 C113 2.074 . S
C211 C453 2.019 . S
C465 C285 2.304 . S
C335 C481 2.008 . S
C409 C495 2.412 1_554 S
C39 C507 2.451 . S
