# Generated by pormake.
# Topology pts, (4,4)-cn, num edge types: 1
# Building blocks:
#     Node 0, Type 0, BuildingBlock: KUFVIS_clean_linker_0, # of connection points: 4
#     Node 1, Type 0, BuildingBlock: KUFVIS_clean_linker_0, # of connection points: 4
#     Node 2, Type 1, BuildingBlock: QUQFOY_clean_sbu_1, # of connection points: 4
#     Node 3, Type 1, BuildingBlock: QUQFOY_clean_sbu_1, # of connection points: 4
#     Edge 4, Type (0, 1), BuildingBlock: TEMPAE_clean_linker_10, # of connection points: 2
#     Edge 5, Type (0, 1), BuildingBlock: TEMPAE_clean_linker_10, # of connection points: 2
#     Edge 6, Type (0, 1), BuildingBlock: TEMPAE_clean_linker_10, # of connection points: 2
#     Edge 7, Type (0, 1), BuildingBlock: TEMPAE_clean_linker_10, # of connection points: 2
#     Edge 8, Type (0, 1), BuildingBlock: TEMPAE_clean_linker_10, # of connection points: 2
#     Edge 9, Type (0, 1), BuildingBlock: TEMPAE_clean_linker_10, # of connection points: 2
#     Edge 10, Type (0, 1), BuildingBlock: TEMPAE_clean_linker_10, # of connection points: 2
#     Edge 11, Type (0, 1), BuildingBlock: TEMPAE_clean_linker_10, # of connection points: 2
# Relax obj value: 0.103
# Max RMSD: 0.274
# Mean RMSD: 0.186
data_MOF--net-pts--node1-QUQFOY_clean_sbu_1--node2-KUFVIS_clean_linker_0--edge1-TEMPAE_clean_linker_10
_symmetry_space_group_name_H-M    P1
_symmetry_Int_Tables_number       1
_symmetry_cell_setting            triclinic
loop_
_symmetry_equiv_pos_as_xyz
'x, y, z'
_cell_length_a     24.369146
_cell_length_b     26.875645
_cell_length_c     37.765179
_cell_angle_alpha  89.939492
_cell_angle_beta   89.925716
_cell_angle_gamma 89.51175
loop_
_atom_site_label
_atom_site_type_symbol
_atom_site_fract_x
_atom_site_fract_y
_atom_site_fract_z
_atom_type_partial_charge
H0 H 0.32354 1.01871 -0.01802 0.0
H1 H 0.47402 1.02093 0.92363 0.0
H2 H 0.47516 0.99517 0.03676 0.0
H3 H 0.55332 0.03715 0.03332 0.0
H4 H 0.70427 1.0067 0.97938 0.0
H5 H 0.55235 0.97905 0.92648 0.0
C6 C 0.3678 1.0144 -0.01862 0.0
C7 C 0.39623 1.00649 0.01308 0.0
C8 C 0.39536 1.01743 0.94892 0.0
C9 C 0.45297 1.01637 0.94862 0.0
C10 C 0.48296 1.00919 -0.01972 0.0
C11 C 0.45368 1.0032 0.01232 0.0
C12 C 0.54445 1.00796 -0.02 0.0
C13 C 0.57436 0.0232 0.01007 0.0
C14 C 0.63191 0.02188 0.01021 0.0
C15 C 0.65982 1.00688 0.97956 0.0
C16 C 0.6314 0.99254 0.94906 0.0
C17 C 0.57381 0.99219 0.94967 0.0
H18 H 0.04968 0.69939 0.48132 0.0
H19 H 0.03363 0.56426 0.53987 0.0
H20 H 0.99693 0.56873 0.42737 0.0
H21 H 0.02012 0.49015 0.42806 0.0
H22 H 0.96859 0.36105 0.4847 0.0
H23 H 0.98438 0.49823 0.54061 0.0
C24 C 0.04116 0.65981 0.48184 0.0
C25 C 0.0257 0.63595 0.45069 0.0
C26 C 0.04202 0.6343 0.51401 0.0
C27 C 0.03031 0.58327 0.51474 0.0
C28 C 0.01505 0.55774 0.48347 0.0
C29 C 1.01126 0.58555 0.45162 0.0
C30 C 1.00241 0.50292 0.48401 0.0
C31 C 1.00605 0.47407 0.45268 0.0
C32 C 0.99193 0.42356 0.45274 0.0
C33 C 0.97682 0.40068 0.48442 0.0
C34 C 0.97612 0.42729 0.51611 0.0
C35 C 0.98753 0.47839 0.51582 0.0
O36 O 0.94417 0.99153 0.20291 0.0
Cd37 Cd 0.0136 0.97777 0.23278 0.0
Cd38 Cd 0.01321 0.08608 0.23132 0.0
O39 O 0.93909 0.07345 0.207 0.0
O40 O 0.01311 0.90393 0.23775 0.0
O41 O 1.00666 0.95482 0.28343 0.0
C42 C 1.00856 0.90985 0.27143 0.0
C43 C 0.01513 0.15262 0.27103 0.0
C44 C 0.91946 0.0324 0.19655 0.0
C45 C 0.11018 0.03066 0.19977 0.0
O46 O 0.08486 0.07181 0.20381 0.0
O47 O 0.08975 0.99025 0.21093 0.0
O48 O 0.0132 0.15969 0.23733 0.0
O49 O 0.01622 0.10726 0.28241 0.0
O50 O 0.93612 0.06392 0.76097 0.0
Cd51 Cd 1.00439 0.08892 0.7348 0.0
Cd52 Cd 0.02113 0.98043 0.7268 0.0
O53 O 0.94764 0.9827 0.75447 0.0
O54 O 0.99091 0.16186 0.72992 0.0
O55 O 1.00107 0.1115 0.68406 0.0
C56 C 0.99265 0.15592 0.6961 0.0
C57 C 0.03067 0.91216 0.6887 0.0
C58 C 0.92008 1.01964 0.76604 0.0
C59 C 0.10902 0.04424 0.76262 0.0
O60 O 0.09352 1.00253 0.75054 0.0
O61 O 0.07877 0.08276 0.75992 0.0
O62 O 0.03463 0.90737 0.72248 0.0
O63 O 0.02115 0.95614 0.67621 0.0
C64 C 0.31488 0.9771 0.04721 0.0
C65 C 0.36476 1.00274 0.0467 0.0
C66 C 0.27929 0.98053 0.07621 0.0
C67 C 0.29464 1.00913 0.10597 0.0
C68 C 0.34698 0.03159 0.10696 0.0
C69 C 0.38135 0.02853 0.07709 0.0
C70 C 0.22376 0.95612 0.07395 0.0
C71 C 0.36546 0.06103 0.13871 0.0
C72 C 0.17249 0.06531 0.15372 0.0
C73 C 0.16201 0.02904 0.17946 0.0
C74 C 0.21739 0.06055 0.13069 0.0
C75 C 0.25339 1.01916 0.13413 0.0
C76 C 0.24532 0.98444 0.1618 0.0
C77 C 0.19918 0.98937 0.18384 0.0
C78 C 0.22404 0.098 0.10117 0.0
C79 C 0.28385 0.94078 0.16703 0.0
H80 H 0.30256 0.95591 0.02418 0.0
H81 H 0.4199 0.04835 0.07693 0.0
H82 H 0.21701 0.93175 0.09722 0.0
H83 H 0.19104 0.98512 0.0742 0.0
H84 H 0.21917 0.93348 0.04955 0.0
H85 H 0.41026 0.06833 0.13799 0.0
H86 H 0.34343 0.09731 0.13932 0.0
H87 H 0.35553 0.04109 0.16362 0.0
H88 H 0.14385 0.09601 0.15022 0.0
H89 H 0.1916 0.9616 0.20407 0.0
H90 H 0.21708 0.07953 0.0753 0.0
H91 H 0.2664 0.11272 0.1009 0.0
H92 H 0.19481 0.12977 0.1036 0.0
H93 H 0.27698 0.91288 0.14591 0.0
H94 H 0.27752 0.92242 0.19307 0.0
H95 H 0.32719 0.95283 0.16508 0.0
C96 C 0.9243 0.36829 0.55429 0.0
C97 C 0.96968 0.39923 0.5495 0.0
C98 C 0.92393 0.3322 0.58116 0.0
C99 C 0.97061 0.32632 0.60311 0.0
C100 C 0.0151 0.3596 0.59972 0.0
C101 C 0.01387 0.39602 0.57306 0.0
C102 C 0.87515 0.29826 0.58445 0.0
C103 C 0.06585 0.35427 0.62235 0.0
C104 C 0.96448 0.24423 0.68502 0.0
C105 C 0.98578 0.19907 0.6721 0.0
C106 C 0.95857 0.28586 0.66281 0.0
C107 C 0.97525 0.28245 0.627 0.0
C108 C 0.99682 0.23694 0.61382 0.0
C109 C 1.00138 0.19566 0.63647 0.0
C110 C 0.93448 0.33343 0.67762 0.0
C111 C 0.01572 0.23201 0.57587 0.0
H112 H 0.89028 0.37076 0.53587 0.0
H113 H 0.04929 0.4195 0.56892 0.0
H114 H 0.88645 0.26061 0.57472 0.0
H115 H 0.86266 0.29446 0.61259 0.0
H116 H 0.83942 0.31202 0.56891 0.0
H117 H 0.09417 0.38611 0.61898 0.0
H118 H 0.05463 0.35121 0.65072 0.0
H119 H 0.08808 0.31957 0.615 0.0
H120 H 0.95204 0.24702 0.71251 0.0
H121 H 0.0181 0.16095 0.6264 0.0
H122 H 0.8979 0.34476 0.66201 0.0
H123 H 0.96472 0.36389 0.67539 0.0
H124 H 0.92228 0.32962 0.70584 0.0
H125 H 0.98102 0.23978 0.55764 0.0
H126 H 0.03238 0.19432 0.56993 0.0
H127 H 0.04799 0.2598 0.57018 0.0
C128 C 0.64886 1.0148 0.07554 0.0
C129 C 0.66384 0.03428 0.04247 0.0
C130 C 0.68419 1.01847 0.10478 0.0
C131 C 0.7359 0.04137 0.10053 0.0
C132 C 0.74942 0.06417 0.06791 0.0
C133 C 0.71289 0.06089 0.03944 0.0
C134 C 0.66766 0.99503 0.13947 0.0
C135 C 0.8042 0.08885 0.06219 0.0
C136 C 0.83245 0.07312 0.1758 0.0
C137 C 0.86901 0.03252 0.17485 0.0
C138 C 0.78683 0.07529 0.15316 0.0
C139 C 0.77859 0.03658 0.12841 0.0
C140 C 0.81442 0.9948 0.12813 0.0
C141 C 0.85882 0.99303 0.15165 0.0
C142 C 0.74857 0.11969 0.15491 0.0
C143 C 0.80751 0.95306 0.10178 0.0
H144 H 0.61097 0.99425 0.07813 0.0
H145 H 0.72397 0.07726 0.0142 0.0
H146 H 0.6906 0.95957 0.14316 0.0
H147 H 0.67805 1.01968 0.162 0.0
H148 H 0.62305 0.98691 0.14037 0.0
H149 H 0.80668 0.10792 0.03613 0.0
H150 H 0.81206 0.11646 0.08333 0.0
H151 H 0.83742 0.0604 0.06354 0.0
H152 H 0.83982 0.10349 0.19401 0.0
H153 H 0.887 0.96162 0.15074 0.0
H154 H 0.7052 0.10744 0.15521 0.0
H155 H 0.75418 0.14318 0.13104 0.0
H156 H 0.75613 0.14291 0.1787 0.0
H157 H 0.76556 0.93762 0.10362 0.0
H158 H 0.83763 0.92236 0.10596 0.0
H159 H 0.81276 0.96766 0.07448 0.0
C160 C 0.09467 0.69453 0.55046 0.0
C161 C 0.04916 0.66348 0.54678 0.0
C162 C 0.09555 0.73173 0.57647 0.0
C163 C 0.04931 0.73852 0.59874 0.0
C164 C 1.00475 0.70514 0.59656 0.0
C165 C 1.00542 0.66768 0.57069 0.0
C166 C 0.14438 0.7658 0.5785 0.0
C167 C 0.95452 0.71136 0.61962 0.0
C168 C 0.05806 0.82344 0.67886 0.0
C169 C 0.03648 0.86821 0.66539 0.0
C170 C 0.06307 0.78101 0.65743 0.0
C171 C 0.04531 0.78322 0.62183 0.0
C172 C 0.02346 0.8283 0.60807 0.0
C173 C 0.01972 0.8704 0.62996 0.0
C174 C 0.0874 0.73389 0.67283 0.0
C175 C 1.00351 0.83194 0.5703 0.0
H176 H 0.12834 0.69129 0.53178 0.0
H177 H 0.96991 0.64408 0.56741 0.0
H178 H 0.13278 0.8031 0.5682 0.0
H179 H 0.1576 0.77056 0.60638 0.0
H180 H 0.17971 0.75153 0.56277 0.0
H181 H 0.92612 0.67942 0.61724 0.0
H182 H 0.96638 0.71548 0.6478 0.0
H183 H 0.93213 0.74578 0.61181 0.0
H184 H 0.0714 0.82157 0.7062 0.0
H185 H 1.00281 0.90481 0.61947 0.0
H186 H 0.1236 0.72198 0.65702 0.0
H187 H 0.05706 0.70343 0.67151 0.0
H188 H 0.10026 0.73861 0.70083 0.0
H189 H 0.03767 0.82343 0.55177 0.0
H190 H 0.98678 0.86945 0.56386 0.0
H191 H 0.97101 0.80404 0.5656 0.0
C192 C 0.31475 0.99243 0.91265 0.0
C193 C 0.36269 1.02065 0.91573 0.0
C194 C 0.27931 0.99852 0.88389 0.0
C195 C 0.29293 0.03249 0.8567 0.0
C196 C 0.34304 0.05871 0.8583 0.0
C197 C 0.37719 0.0529 0.88807 0.0
C198 C 0.2261 0.96999 0.88344 0.0
C199 C 0.35969 0.09404 0.82921 0.0
C200 C 0.20299 1.01192 0.77665 0.0
C201 C 0.16089 0.04679 0.78269 0.0
C202 C 0.24924 1.00983 0.79873 0.0
C203 C 0.2524 0.04231 0.82813 0.0
C204 C 0.2115 0.07941 0.83311 0.0
C205 C 0.16654 0.0816 0.81001 0.0
C206 C 0.29297 0.97091 0.79185 0.0
C207 C 0.21277 0.11414 0.8645 0.0
H208 H 0.30414 0.96621 0.93334 0.0
H209 H 0.41418 0.07478 0.89016 0.0
H210 H 0.19083 0.9964 0.88328 0.0
H211 H 0.22342 0.94723 0.85905 0.0
H212 H 0.22184 0.94495 0.9067 0.0
H213 H 0.40329 0.10529 0.8316 0.0
H214 H 0.35344 0.07677 0.80285 0.0
H215 H 0.33361 0.12802 0.83034 0.0
H216 H 0.19913 0.98541 0.75519 0.0
H217 H 0.13407 0.10862 0.81476 0.0
H218 H 0.28851 0.93997 0.81107 0.0
H219 H 0.33448 0.98675 0.79548 0.0
H220 H 0.28996 0.95531 0.76469 0.0
H221 H 0.20575 0.09257 0.88916 0.0
H222 H 0.18089 0.14383 0.86271 0.0
H223 H 0.25352 0.13184 0.86682 0.0
C224 C 0.94934 0.36587 0.40962 0.0
C225 C 0.99533 0.39274 0.42045 0.0
C226 C 0.95356 0.32973 0.38304 0.0
C227 C 1.00528 0.31976 0.36734 0.0
C228 C 0.05143 0.34836 0.37713 0.0
C229 C 0.04581 0.38485 0.40355 0.0
C230 C 0.90318 0.30067 0.37294 0.0
C231 C 0.10726 0.3386 0.36113 0.0
C232 C 0.02346 0.18843 0.33197 0.0
C233 C 0.01511 0.1955 0.29561 0.0
C234 C 0.022 0.22886 0.35548 0.0
C235 C 1.01135 0.27739 0.34232 0.0
C236 C 1.00367 0.28484 0.30558 0.0
C237 C 1.00588 0.24383 0.28265 0.0
C238 C 0.03086 0.21953 0.39451 0.0
C239 C 0.9917 0.33591 0.29062 0.0
H240 H 0.91036 0.3721 0.42286 0.0
H241 H 0.08144 0.4053 0.41234 0.0
H242 H 0.89772 0.30093 0.34378 0.0
H243 H 0.90831 0.2613 0.38125 0.0
H244 H 0.86531 0.31585 0.38546 0.0
H245 H 0.13779 0.3668 0.36931 0.0
H246 H 0.1223 0.30133 0.36953 0.0
H247 H 0.10471 0.33833 0.33181 0.0
H248 H 0.03092 0.15125 0.34213 0.0
H249 H 0.99934 0.24963 0.25456 0.0
H250 H 0.99303 0.22928 0.40943 0.0
H251 H 0.06413 0.24361 0.40459 0.0
H252 H 0.04172 0.18011 0.40022 0.0
H253 H 0.95211 0.35006 0.3013 0.0
H254 H 0.98934 0.33578 0.26124 0.0
H255 H 0.02391 0.3624 0.29885 0.0
C256 C 0.64719 1.00292 0.88384 0.0
C257 C 0.66294 0.98152 0.91621 0.0
C258 C 0.68314 1.00275 0.85473 0.0
C259 C 0.73624 0.98161 0.85845 0.0
C260 C 0.75031 0.95607 0.88999 0.0
C261 C 0.71311 0.95569 0.91827 0.0
C262 C 0.66589 0.02878 0.82107 0.0
C263 C 0.80661 0.93331 0.89523 0.0
C264 C 0.83929 0.96781 0.78334 0.0
C265 C 0.87034 1.01112 0.78752 0.0
C266 C 0.79351 0.95871 0.80502 0.0
C267 C 0.77986 0.99292 0.83218 0.0
C268 C 0.81065 0.03706 0.83606 0.0
C269 C 0.85498 0.04591 0.81336 0.0
C270 C 0.7605 0.91214 0.79934 0.0
C271 C 0.79818 0.0741 0.86513 0.0
H272 H 0.60842 0.0228 0.88193 0.0
H273 H 0.72481 0.93779 0.9429 0.0
H274 H 0.68502 0.06606 0.81994 0.0
H275 H 0.67994 1.00764 0.79747 0.0
H276 H 0.62064 0.0338 0.81965 0.0
H277 H 0.80897 0.91029 0.91965 0.0
H278 H 0.81823 0.90981 0.87227 0.0
H279 H 0.83736 0.96341 0.89725 0.0
H280 H 0.85077 0.94108 0.76311 0.0
H281 H 0.87904 0.07932 0.81678 0.0
H282 H 0.716 0.92122 0.79871 0.0
H283 H 0.76734 0.88602 0.82167 0.0
H284 H 0.77187 0.8929 0.77433 0.0
H285 H 0.75522 0.08765 0.8629 0.0
H286 H 0.82586 0.10672 0.86434 0.0
H287 H 0.80246 0.05578 0.89135 0.0
C288 C 0.97171 0.67537 0.40191 0.0
C289 C 0.02248 0.66581 0.41791 0.0
C290 C 0.96653 0.7121 0.37558 0.0
C291 C 0.01339 0.73929 0.36503 0.0
C292 C 0.06532 0.72738 0.37966 0.0
C293 C 0.06914 0.69098 0.40613 0.0
C294 C 0.91048 0.72384 0.36064 0.0
C295 C 0.11642 0.75492 0.36878 0.0
C296 C 0.0134 0.81795 0.28149 0.0
C297 C 1.00671 0.86613 0.29529 0.0
C298 C 0.0142 0.77612 0.30375 0.0
C299 C 1.00793 0.78258 0.34069 0.0
C300 C 0.99972 0.83097 0.35471 0.0
C301 C 0.99937 0.8722 0.33184 0.0
C302 C 0.02334 0.72518 0.28785 0.0
C303 C 0.99256 0.8393 0.394 0.0
H304 H 0.93559 0.65624 0.41147 0.0
H305 H 0.10833 0.68351 0.41874 0.0
H306 H 0.89683 0.76106 0.37003 0.0
H307 H 0.91202 0.7253 0.33131 0.0
H308 H 0.87943 0.69603 0.36879 0.0
H309 H 0.15419 0.73811 0.3803 0.0
H310 H 0.1205 0.75529 0.33952 0.0
H311 H 0.11336 0.79419 0.37766 0.0
H312 H 0.019 0.81287 0.25324 0.0
H313 H 0.9939 0.90925 0.34268 0.0
H314 H 0.99057 0.69946 0.29651 0.0
H315 H 0.06292 0.70949 0.29736 0.0
H316 H 0.02413 0.72615 0.25844 0.0
H317 H 0.95873 0.81597 0.40428 0.0
H318 H 0.98344 0.87884 0.40045 0.0
H319 H 0.03053 0.8279 0.40813 0.0
loop_
_geom_bond_atom_site_label_1
_geom_bond_atom_site_label_2
_geom_bond_distance
_geom_bond_site_symmetry_2
_ccdc_geom_bond_type
H0 C6 0.929 1_565 S
H1 C9 0.931 . S
H2 C11 0.929 1_565 S
H3 C13 0.930 . S
H4 C15 0.930 . S
H5 C17 0.931 1_565 S
C6 H0 0.929 1_545 S
C6 C7 1.379 1_545 S
C6 C8 1.394 1_554 S
C7 C6 1.379 1_565 S
C7 C11 1.381 1_565 S
C8 C6 1.394 1_556 S
C8 C9 1.400 . S
C9 H1 0.931 . S
C9 C8 1.400 . S
C9 C10 1.375 1_556 S
C10 C9 1.375 1_554 S
C10 C11 1.418 . S
C10 C12 1.501 . S
C11 H2 0.929 1_545 S
C11 C7 1.381 1_545 S
C11 C10 1.418 . S
C12 C10 1.501 . S
C12 C13 1.384 . S
C12 C17 1.408 1_554 S
C13 H3 0.930 . S
C13 C12 1.384 . S
C13 C14 1.389 . S
C14 C13 1.389 . S
C14 C15 1.405 . S
C15 H4 0.930 . S
C15 C14 1.405 . S
C15 C16 1.367 1_554 S
C16 C15 1.367 1_556 S
C16 C17 1.401 . S
C17 H5 0.931 1_545 S
C17 C12 1.408 1_556 S
C17 C16 1.401 . S
H18 C24 0.930 . S
H19 C27 0.931 . S
H20 C29 0.931 . S
H21 C31 0.930 . S
H22 C33 0.930 . S
H23 C35 0.931 . S
C24 H18 0.930 . S
C24 C25 1.380 . S
C24 C26 1.394 1_455 S
C25 C24 1.380 . S
C25 C29 1.382 . S
C26 C24 1.394 1_655 S
C26 C27 1.400 . S
C27 H19 0.931 . S
C27 C26 1.400 . S
C27 C28 1.375 . S
C28 C27 1.375 . S
C28 C29 1.415 1_655 S
C28 C30 1.501 . S
C29 H20 0.931 . S
C29 C25 1.382 . S
C29 C28 1.415 1_455 S
C30 C28 1.501 . S
C30 C31 1.384 . S
C30 C35 1.408 1_655 S
C31 H21 0.930 . S
C31 C30 1.384 . S
C31 C32 1.389 . S
C32 C31 1.389 . S
C32 C33 1.405 . S
C33 H22 0.930 . S
C33 C32 1.405 . S
C33 C34 1.364 1_655 S
C34 C33 1.364 1_455 S
C34 C35 1.400 . S
C35 H23 0.931 . S
C35 C30 1.408 1_455 S
C35 C34 1.400 . S
O36 Cd37 2.223 1_655 S
O36 C44 1.315 . S
Cd37 O36 2.223 1_455 S
Cd37 O40 2.297 1_455 S
Cd37 O41 2.439 1_455 S
Cd37 O47 2.240 1_565 S
Cd38 O39 2.240 1_545 S
Cd38 O46 2.223 1_655 S
Cd38 O48 2.297 1_655 S
Cd38 O49 2.439 1_655 S
O39 Cd38 2.240 1_565 S
O39 C44 1.279 . S
O40 Cd37 2.297 1_655 S
O40 C42 1.247 . S
O41 Cd37 2.439 1_655 S
O41 C42 1.208 . S
C42 O40 1.247 . S
C42 O41 1.208 . S
C43 O48 1.247 . S
C43 O49 1.208 . S
C44 O36 1.315 . S
C44 O39 1.279 . S
C45 O46 1.315 . S
C45 O47 1.279 . S
O46 Cd38 2.223 1_455 S
O46 C45 1.315 . S
O47 Cd37 2.240 1_545 S
O47 C45 1.279 . S
O48 Cd38 2.297 1_455 S
O48 C43 1.247 . S
O49 Cd38 2.439 1_455 S
O49 C43 1.208 . S
O50 Cd51 2.223 1_655 S
O50 C58 1.315 . S
Cd51 O50 2.223 1_455 S
Cd51 O54 2.297 1_455 S
Cd51 O55 2.439 1_455 S
Cd51 O61 2.240 1_545 S
Cd52 O53 2.240 1_565 S
Cd52 O60 2.223 1_655 S
Cd52 O62 2.297 1_655 S
Cd52 O63 2.439 1_655 S
O53 Cd52 2.240 1_545 S
O53 C58 1.279 . S
O54 Cd51 2.297 1_655 S
O54 C56 1.247 . S
O55 Cd51 2.439 1_655 S
O55 C56 1.208 . S
C56 O54 1.247 . S
C56 O55 1.208 . S
C57 O62 1.247 . S
C57 O63 1.208 . S
C58 O50 1.315 . S
C58 O53 1.279 . S
C59 O60 1.315 . S
C59 O61 1.279 . S
O60 Cd52 2.223 1_455 S
O60 C59 1.315 . S
O61 Cd51 2.240 1_565 S
O61 C59 1.279 . S
O62 Cd52 2.297 1_455 S
O62 C57 1.247 . S
O63 Cd52 2.439 1_455 S
O63 C57 1.208 . S
C64 C65 1.391 . S
C64 C66 1.394 . S
C64 H80 0.931 . S
C65 C64 1.391 . S
C65 C69 1.376 1_565 S
C66 C64 1.394 . S
C66 C67 1.373 . S
C66 C70 1.531 . S
C67 C66 1.373 . S
C67 C68 1.407 1_565 S
C67 C75 1.500 1_565 S
C68 C67 1.407 1_545 S
C68 C69 1.392 . S
C68 C71 1.511 . S
C69 C65 1.376 1_545 S
C69 C68 1.392 . S
C69 H81 0.929 . S
C70 C66 1.531 . S
C70 H82 0.960 . S
C70 H83 0.962 1_565 S
C70 H84 0.960 . S
C71 C68 1.511 . S
C71 H85 0.961 . S
C71 H86 0.961 . S
C71 H87 0.961 1_545 S
C72 C73 1.370 . S
C72 C74 1.363 . S
C72 H88 0.931 . S
C73 C72 1.370 . S
C73 C77 1.408 1_545 S
C74 C72 1.363 . S
C74 C75 1.370 . S
C74 C78 1.524 . S
C75 C67 1.500 1_545 S
C75 C74 1.370 . S
C75 C76 1.403 1_545 S
C76 C75 1.403 1_565 S
C76 C77 1.404 . S
C76 C79 1.539 . S
C77 C73 1.408 1_565 S
C77 C76 1.404 . S
C77 H89 0.930 . S
C78 C74 1.524 . S
C78 H90 0.956 . S
C78 H91 0.961 . S
C78 H92 0.961 . S
C79 C76 1.539 . S
C79 H93 0.958 . S
C79 H94 0.961 . S
C79 H95 0.960 . S
H80 C64 0.931 . S
H81 C69 0.929 . S
H82 C70 0.960 . S
H83 C70 0.962 1_545 S
H84 C70 0.960 . S
H85 C71 0.961 . S
H86 C71 0.961 . S
H87 C71 0.961 1_565 S
H88 C72 0.931 . S
H89 C77 0.930 . S
H90 C78 0.956 . S
H91 C78 0.961 . S
H92 C78 0.961 . S
H93 C79 0.958 . S
H94 C79 0.961 . S
H95 C79 0.960 . S
C96 C97 1.391 1_655 S
C96 C98 1.394 . S
C96 H112 0.931 . S
C97 C96 1.391 1_455 S
C97 C101 1.376 . S
C98 C96 1.394 . S
C98 C99 1.369 . S
C98 C102 1.531 . S
C99 C98 1.369 . S
C99 C100 1.410 1_655 S
C99 C107 1.503 . S
C100 C99 1.410 1_455 S
C100 C101 1.392 . S
C100 C103 1.511 . S
C101 C97 1.376 . S
C101 C100 1.392 . S
C101 H113 0.929 . S
C102 C98 1.531 . S
C102 H114 0.960 . S
C102 H115 0.962 . S
C102 H116 0.960 . S
C103 C100 1.511 . S
C103 H117 0.961 . S
C103 H118 0.961 . S
C103 H119 0.961 . S
C104 C105 1.370 . S
C104 C106 1.363 . S
C104 H120 0.931 . S
C105 C104 1.370 . S
C105 C109 1.408 . S
C106 C104 1.363 . S
C106 C107 1.370 . S
C106 C110 1.524 . S
C107 C99 1.503 . S
C107 C106 1.370 . S
C107 C108 1.403 . S
C108 C107 1.403 . S
C108 C109 1.404 . S
C108 C111 1.539 1_655 S
C109 C105 1.408 . S
C109 C108 1.404 . S
C109 H121 0.934 . S
C110 C106 1.524 . S
C110 H122 0.956 . S
C110 H123 0.961 . S
C110 H124 0.961 . S
C111 C108 1.539 1_455 S
C111 H125 0.958 1_455 S
C111 H126 0.961 . S
C111 H127 0.960 . S
H112 C96 0.931 . S
H113 C101 0.929 . S
H114 C102 0.960 . S
H115 C102 0.962 . S
H116 C102 0.960 . S
H117 C103 0.961 . S
H118 C103 0.961 . S
H119 C103 0.961 . S
H120 C104 0.931 . S
H121 C109 0.934 . S
H122 C110 0.956 . S
H123 C110 0.961 . S
H124 C110 0.961 . S
H125 C111 0.958 1_655 S
H126 C111 0.961 . S
H127 C111 0.960 . S
C128 C129 1.391 1_565 S
C128 C130 1.394 . S
C128 H144 0.931 . S
C129 C128 1.391 1_545 S
C129 C133 1.376 . S
C130 C128 1.394 . S
C130 C131 1.369 . S
C130 C134 1.531 . S
C131 C130 1.369 . S
C131 C132 1.410 1_565 S
C131 C139 1.503 . S
C132 C131 1.410 1_545 S
C132 C133 1.392 . S
C132 C135 1.511 . S
C133 C129 1.376 . S
C133 C132 1.392 . S
C133 H145 0.929 . S
C134 C130 1.531 . S
C134 H146 0.960 . S
C134 H147 0.962 . S
C134 H148 0.960 . S
C135 C132 1.511 . S
C135 H149 0.961 . S
C135 H150 0.961 . S
C135 H151 0.961 1_545 S
C136 C137 1.370 1_545 S
C136 C138 1.363 . S
C136 H152 0.931 . S
C137 C136 1.370 1_565 S
C137 C141 1.408 . S
C138 C136 1.363 . S
C138 C139 1.370 1_545 S
C138 C142 1.524 . S
C139 C131 1.503 . S
C139 C138 1.370 1_565 S
C139 C140 1.403 . S
C140 C139 1.403 . S
C140 C141 1.404 . S
C140 C143 1.539 . S
C141 C137 1.408 . S
C141 C140 1.404 . S
C141 H153 0.930 . S
C142 C138 1.524 . S
C142 H154 0.956 . S
C142 H155 0.961 . S
C142 H156 0.961 . S
C143 C140 1.539 . S
C143 H157 0.958 . S
C143 H158 0.961 . S
C143 H159 0.960 . S
H144 C128 0.931 . S
H145 C133 0.929 . S
H146 C134 0.960 . S
H147 C134 0.962 . S
H148 C134 0.960 . S
H149 C135 0.961 . S
H150 C135 0.961 . S
H151 C135 0.961 1_565 S
H152 C136 0.931 . S
H153 C141 0.930 . S
H154 C142 0.956 . S
H155 C142 0.961 . S
H156 C142 0.961 . S
H157 C143 0.958 . S
H158 C143 0.961 . S
H159 C143 0.960 . S
C160 C161 1.391 1_455 S
C160 C162 1.394 . S
C160 H176 0.931 . S
C161 C160 1.391 1_655 S
C161 C165 1.376 . S
C162 C160 1.394 . S
C162 C163 1.369 . S
C162 C166 1.531 . S
C163 C162 1.369 . S
C163 C164 1.410 1_455 S
C163 C171 1.503 . S
C164 C163 1.410 1_655 S
C164 C165 1.392 . S
C164 C167 1.511 . S
C165 C161 1.376 . S
C165 C164 1.392 . S
C165 H177 0.929 . S
C166 C162 1.531 . S
C166 H178 0.960 . S
C166 H179 0.962 . S
C166 H180 0.960 . S
C167 C164 1.511 . S
C167 H181 0.961 . S
C167 H182 0.961 . S
C167 H183 0.961 . S
C168 C169 1.370 . S
C168 C170 1.363 . S
C168 H184 0.931 . S
C169 C168 1.370 . S
C169 C173 1.408 . S
C170 C168 1.363 . S
C170 C171 1.370 . S
C170 C174 1.524 . S
C171 C163 1.503 . S
C171 C170 1.370 . S
C171 C172 1.403 1_455 S
C172 C171 1.403 1_655 S
C172 C173 1.404 1_655 S
C172 C175 1.539 . S
C173 C169 1.408 . S
C173 C172 1.404 1_455 S
C173 H185 0.930 1_455 S
C174 C170 1.524 . S
C174 H186 0.956 . S
C174 H187 0.961 . S
C174 H188 0.961 . S
C175 C172 1.539 . S
C175 H189 0.958 . S
C175 H190 0.961 . S
C175 H191 0.960 . S
H176 C160 0.931 . S
H177 C165 0.929 . S
H178 C166 0.960 . S
H179 C166 0.962 . S
H180 C166 0.960 . S
H181 C167 0.961 . S
H182 C167 0.961 . S
H183 C167 0.961 . S
H184 C168 0.931 . S
H185 C173 0.930 1_655 S
H186 C174 0.956 . S
H187 C174 0.961 . S
H188 C174 0.961 . S
H189 C175 0.958 . S
H190 C175 0.961 . S
H191 C175 0.960 . S
C192 C193 1.391 . S
C192 C194 1.394 . S
C192 H208 0.931 . S
C193 C192 1.391 . S
C193 C197 1.376 . S
C194 C192 1.394 . S
C194 C195 1.369 . S
C194 C198 1.531 . S
C195 C194 1.369 . S
C195 C196 1.410 . S
C195 C203 1.503 1_545 S
C196 C195 1.410 . S
C196 C197 1.392 . S
C196 C199 1.511 . S
C197 C193 1.376 . S
C197 C196 1.392 . S
C197 H209 0.929 . S
C198 C194 1.531 . S
C198 H210 0.960 . S
C198 H211 0.962 1_545 S
C198 H212 0.960 . S
C199 C196 1.511 . S
C199 H213 0.961 . S
C199 H214 0.961 1_545 S
C199 H215 0.961 . S
C200 C201 1.370 . S
C200 C202 1.363 . S
C200 H216 0.931 . S
C201 C200 1.370 . S
C201 C205 1.408 1_565 S
C202 C200 1.363 . S
C202 C203 1.370 . S
C202 C206 1.524 . S
C203 C195 1.503 1_565 S
C203 C202 1.370 . S
C203 C204 1.403 1_565 S
C204 C203 1.403 1_545 S
C204 C205 1.404 . S
C204 C207 1.539 . S
C205 C201 1.408 1_545 S
C205 C204 1.404 . S
C205 H217 0.930 . S
C206 C202 1.524 . S
C206 H218 0.956 . S
C206 H219 0.961 . S
C206 H220 0.961 . S
C207 C204 1.539 . S
C207 H221 0.958 . S
C207 H222 0.961 . S
C207 H223 0.960 . S
H208 C192 0.931 . S
H209 C197 0.929 . S
H210 C198 0.960 . S
H211 C198 0.962 1_565 S
H212 C198 0.960 . S
H213 C199 0.961 . S
H214 C199 0.961 1_565 S
H215 C199 0.961 . S
H216 C200 0.931 . S
H217 C205 0.930 . S
H218 C206 0.956 . S
H219 C206 0.961 . S
H220 C206 0.961 . S
H221 C207 0.958 . S
H222 C207 0.961 . S
H223 C207 0.960 . S
C224 C225 1.391 . S
C224 C226 1.394 . S
C224 H240 0.931 . S
C225 C224 1.391 . S
C225 C229 1.376 1_655 S
C226 C224 1.394 . S
C226 C227 1.369 1_655 S
C226 C230 1.531 . S
C227 C226 1.369 1_455 S
C227 C228 1.410 . S
C227 C235 1.503 . S
C228 C227 1.410 . S
C228 C229 1.392 . S
C228 C231 1.511 . S
C229 C225 1.376 1_455 S
C229 C228 1.392 . S
C229 H241 0.929 . S
C230 C226 1.531 . S
C230 H242 0.960 . S
C230 H243 0.962 . S
C230 H244 0.960 . S
C231 C228 1.511 . S
C231 H245 0.961 . S
C231 H246 0.961 . S
C231 H247 0.961 . S
C232 C233 1.370 . S
C232 C234 1.363 . S
C232 H248 0.931 . S
C233 C232 1.370 . S
C233 C237 1.408 . S
C234 C232 1.363 . S
C234 C235 1.370 . S
C234 C238 1.524 . S
C235 C227 1.503 . S
C235 C234 1.370 . S
C235 C236 1.403 1_455 S
C236 C235 1.403 1_655 S
C236 C237 1.404 1_655 S
C236 C239 1.539 . S
C237 C233 1.408 . S
C237 C236 1.404 1_455 S
C237 H249 0.930 1_455 S
C238 C234 1.524 . S
C238 H250 0.956 . S
C238 H251 0.961 . S
C238 H252 0.961 . S
C239 C236 1.539 . S
C239 H253 0.958 . S
C239 H254 0.961 . S
C239 H255 0.960 . S
H240 C224 0.931 . S
H241 C229 0.929 . S
H242 C230 0.960 . S
H243 C230 0.962 . S
H244 C230 0.960 . S
H245 C231 0.961 . S
H246 C231 0.961 . S
H247 C231 0.961 . S
H248 C232 0.931 . S
H249 C237 0.930 1_655 S
H250 C238 0.956 . S
H251 C238 0.961 . S
H252 C238 0.961 . S
H253 C239 0.958 . S
H254 C239 0.961 . S
H255 C239 0.960 . S
C256 C257 1.391 . S
C256 C258 1.394 . S
C256 H272 0.931 . S
C257 C256 1.391 . S
C257 C261 1.376 1_545 S
C258 C256 1.394 . S
C258 C259 1.369 . S
C258 C262 1.531 . S
C259 C258 1.369 . S
C259 C260 1.410 1_545 S
C259 C267 1.503 . S
C260 C259 1.410 1_565 S
C260 C261 1.392 . S
C260 C263 1.511 . S
C261 C257 1.376 1_565 S
C261 C260 1.392 . S
C261 H273 0.929 . S
C262 C258 1.531 . S
C262 H274 0.960 . S
C262 H275 0.962 . S
C262 H276 0.960 . S
C263 C260 1.511 . S
C263 H277 0.961 . S
C263 H278 0.961 . S
C263 H279 0.961 . S
C264 C265 1.370 1_565 S
C264 C266 1.363 . S
C264 H280 0.931 . S
C265 C264 1.370 1_545 S
C265 C269 1.408 . S
C266 C264 1.363 . S
C266 C267 1.370 1_565 S
C266 C270 1.524 . S
C267 C259 1.503 . S
C267 C266 1.370 1_545 S
C267 C268 1.403 . S
C268 C267 1.403 . S
C268 C269 1.404 . S
C268 C271 1.539 . S
C269 C265 1.408 . S
C269 C268 1.404 . S
C269 H281 0.930 . S
C270 C266 1.524 . S
C270 H282 0.956 . S
C270 H283 0.961 . S
C270 H284 0.961 . S
C271 C268 1.539 . S
C271 H285 0.958 . S
C271 H286 0.961 . S
C271 H287 0.960 . S
H272 C256 0.931 . S
H273 C261 0.929 . S
H274 C262 0.960 . S
H275 C262 0.962 . S
H276 C262 0.960 . S
H277 C263 0.961 . S
H278 C263 0.961 . S
H279 C263 0.961 . S
H280 C264 0.931 . S
H281 C269 0.930 . S
H282 C270 0.956 . S
H283 C270 0.961 . S
H284 C270 0.961 . S
H285 C271 0.958 . S
H286 C271 0.961 . S
H287 C271 0.960 . S
C288 C289 1.391 1_655 S
C288 C290 1.394 . S
C288 H304 0.931 . S
C289 C288 1.391 1_455 S
C289 C293 1.376 . S
C290 C288 1.394 . S
C290 C291 1.369 . S
C290 C294 1.531 . S
C291 C290 1.369 . S
C291 C292 1.410 1_655 S
C291 C299 1.503 . S
C292 C291 1.410 1_455 S
C292 C293 1.392 . S
C292 C295 1.511 . S
C293 C289 1.376 . S
C293 C292 1.392 . S
C293 H305 0.929 . S
C294 C290 1.531 . S
C294 H306 0.960 . S
C294 H307 0.962 . S
C294 H308 0.960 . S
C295 C292 1.511 . S
C295 H309 0.961 . S
C295 H310 0.961 . S
C295 H311 0.961 . S
C296 C297 1.370 . S
C296 C298 1.363 . S
C296 H312 0.931 . S
C297 C296 1.370 . S
C297 C301 1.408 . S
C298 C296 1.363 . S
C298 C299 1.370 . S
C298 C302 1.524 . S
C299 C291 1.503 . S
C299 C298 1.370 . S
C299 C300 1.403 . S
C300 C299 1.403 . S
C300 C301 1.404 . S
C300 C303 1.539 . S
C301 C297 1.408 . S
C301 C300 1.404 . S
C301 H313 0.930 . S
C302 C298 1.524 . S
C302 H314 0.956 . S
C302 H315 0.961 1_655 S
C302 H316 0.961 . S
C303 C300 1.539 . S
C303 H317 0.958 . S
C303 H318 0.961 . S
C303 H319 0.971 . S
H304 C288 0.931 . S
H305 C293 0.929 . S
H306 C294 0.960 . S
H307 C294 0.962 . S
H308 C294 0.960 . S
H309 C295 0.961 . S
H310 C295 0.961 . S
H311 C295 0.961 . S
H312 C296 0.931 . S
H313 C301 0.930 . S
H314 C302 0.956 . S
H315 C302 0.961 1_455 S
H316 C302 0.961 . S
H317 C303 0.958 . S
H318 C303 0.961 . S
H319 C303 0.971 . S
C73 C45 1.671 . S
C65 C7 1.639 . S
C105 C56 1.568 . S
C97 C34 1.564 . S
C137 C44 1.675 . S
C129 C14 1.619 . S
C169 C57 1.563 . S
C161 C26 1.573 . S
C201 C59 1.666 . S
C193 C8 1.631 . S
C233 C43 1.560 . S
C225 C32 1.627 . S
C265 C58 1.671 . S
C257 C16 1.593 . S
C289 C25 1.562 . S
C297 C42 1.577 . S
