# Generated by pormake.
# Topology bwt, (3,3)-cn, num edge types: 1
# Building blocks:
#     Node 0, Type 0, BuildingBlock: OLANEW_clean_sbu_2, # of connection points: 3
#     Node 1, Type 0, BuildingBlock: OLANEW_clean_sbu_2, # of connection points: 3
#     Node 2, Type 0, BuildingBlock: OLANEW_clean_sbu_2, # of connection points: 3
#     Node 3, Type 0, BuildingBlock: OLANEW_clean_sbu_2, # of connection points: 3
#     Node 4, Type 0, BuildingBlock: OLANEW_clean_sbu_2, # of connection points: 3
#     Node 5, Type 0, BuildingBlock: OLANEW_clean_sbu_2, # of connection points: 3
#     Node 6, Type 0, BuildingBlock: OLANEW_clean_sbu_2, # of connection points: 3
#     Node 7, Type 0, BuildingBlock: OLANEW_clean_sbu_2, # of connection points: 3
#     Node 8, Type 0, BuildingBlock: OLANEW_clean_sbu_2, # of connection points: 3
#     Node 9, Type 0, BuildingBlock: OLANEW_clean_sbu_2, # of connection points: 3
#     Node 10, Type 0, BuildingBlock: OLANEW_clean_sbu_2, # of connection points: 3
#     Node 11, Type 0, BuildingBlock: OLANEW_clean_sbu_2, # of connection points: 3
#     Node 12, Type 0, BuildingBlock: OLANEW_clean_sbu_2, # of connection points: 3
#     Node 13, Type 0, BuildingBlock: OLANEW_clean_sbu_2, # of connection points: 3
#     Node 14, Type 0, BuildingBlock: OLANEW_clean_sbu_2, # of connection points: 3
#     Node 15, Type 0, BuildingBlock: OLANEW_clean_sbu_2, # of connection points: 3
#     Node 16, Type 0, BuildingBlock: OLANEW_clean_sbu_2, # of connection points: 3
#     Node 17, Type 0, BuildingBlock: OLANEW_clean_sbu_2, # of connection points: 3
#     Node 18, Type 0, BuildingBlock: OLANEW_clean_sbu_2, # of connection points: 3
#     Node 19, Type 0, BuildingBlock: OLANEW_clean_sbu_2, # of connection points: 3
#     Node 20, Type 0, BuildingBlock: OLANEW_clean_sbu_2, # of connection points: 3
#     Node 21, Type 0, BuildingBlock: OLANEW_clean_sbu_2, # of connection points: 3
#     Node 22, Type 0, BuildingBlock: OLANEW_clean_sbu_2, # of connection points: 3
#     Node 23, Type 0, BuildingBlock: OLANEW_clean_sbu_2, # of connection points: 3
#     Node 24, Type 1, BuildingBlock: PAMTOO_clean_linker_0, # of connection points: 3
#     Node 25, Type 1, BuildingBlock: PAMTOO_clean_linker_0, # of connection points: 3
#     Node 26, Type 1, BuildingBlock: PAMTOO_clean_linker_0, # of connection points: 3
#     Node 27, Type 1, BuildingBlock: PAMTOO_clean_linker_0, # of connection points: 3
#     Node 28, Type 1, BuildingBlock: PAMTOO_clean_linker_0, # of connection points: 3
#     Node 29, Type 1, BuildingBlock: PAMTOO_clean_linker_0, # of connection points: 3
#     Node 30, Type 1, BuildingBlock: PAMTOO_clean_linker_0, # of connection points: 3
#     Node 31, Type 1, BuildingBlock: PAMTOO_clean_linker_0, # of connection points: 3
#     Node 32, Type 1, BuildingBlock: PAMTOO_clean_linker_0, # of connection points: 3
#     Node 33, Type 1, BuildingBlock: PAMTOO_clean_linker_0, # of connection points: 3
#     Node 34, Type 1, BuildingBlock: PAMTOO_clean_linker_0, # of connection points: 3
#     Node 35, Type 1, BuildingBlock: PAMTOO_clean_linker_0, # of connection points: 3
#     Node 36, Type 1, BuildingBlock: PAMTOO_clean_linker_0, # of connection points: 3
#     Node 37, Type 1, BuildingBlock: PAMTOO_clean_linker_0, # of connection points: 3
#     Node 38, Type 1, BuildingBlock: PAMTOO_clean_linker_0, # of connection points: 3
#     Node 39, Type 1, BuildingBlock: PAMTOO_clean_linker_0, # of connection points: 3
#     Node 40, Type 1, BuildingBlock: PAMTOO_clean_linker_0, # of connection points: 3
#     Node 41, Type 1, BuildingBlock: PAMTOO_clean_linker_0, # of connection points: 3
#     Node 42, Type 1, BuildingBlock: PAMTOO_clean_linker_0, # of connection points: 3
#     Node 43, Type 1, BuildingBlock: PAMTOO_clean_linker_0, # of connection points: 3
#     Node 44, Type 1, BuildingBlock: PAMTOO_clean_linker_0, # of connection points: 3
#     Node 45, Type 1, BuildingBlock: PAMTOO_clean_linker_0, # of connection points: 3
#     Node 46, Type 1, BuildingBlock: PAMTOO_clean_linker_0, # of connection points: 3
#     Node 47, Type 1, BuildingBlock: PAMTOO_clean_linker_0, # of connection points: 3
#     Edge 48, Type (0, 1), BuildingBlock: KIFKEQ_clean_linker_1, # of connection points: 2
#     Edge 49, Type (0, 1), BuildingBlock: KIFKEQ_clean_linker_1, # of connection points: 2
#     Edge 50, Type (0, 1), BuildingBlock: KIFKEQ_clean_linker_1, # of connection points: 2
#     Edge 51, Type (0, 1), BuildingBlock: KIFKEQ_clean_linker_1, # of connection points: 2
#     Edge 52, Type (0, 1), BuildingBlock: KIFKEQ_clean_linker_1, # of connection points: 2
#     Edge 53, Type (0, 1), BuildingBlock: KIFKEQ_clean_linker_1, # of connection points: 2
#     Edge 54, Type (0, 1), BuildingBlock: KIFKEQ_clean_linker_1, # of connection points: 2
#     Edge 55, Type (0, 1), BuildingBlock: KIFKEQ_clean_linker_1, # of connection points: 2
#     Edge 56, Type (0, 1), BuildingBlock: KIFKEQ_clean_linker_1, # of connection points: 2
#     Edge 57, Type (0, 1), BuildingBlock: KIFKEQ_clean_linker_1, # of connection points: 2
#     Edge 58, Type (0, 1), BuildingBlock: KIFKEQ_clean_linker_1, # of connection points: 2
#     Edge 59, Type (0, 1), BuildingBlock: KIFKEQ_clean_linker_1, # of connection points: 2
#     Edge 60, Type (0, 1), BuildingBlock: KIFKEQ_clean_linker_1, # of connection points: 2
#     Edge 61, Type (0, 1), BuildingBlock: KIFKEQ_clean_linker_1, # of connection points: 2
#     Edge 62, Type (0, 1), BuildingBlock: KIFKEQ_clean_linker_1, # of connection points: 2
#     Edge 63, Type (0, 1), BuildingBlock: KIFKEQ_clean_linker_1, # of connection points: 2
#     Edge 64, Type (0, 1), BuildingBlock: KIFKEQ_clean_linker_1, # of connection points: 2
#     Edge 65, Type (0, 1), BuildingBlock: KIFKEQ_clean_linker_1, # of connection points: 2
#     Edge 66, Type (0, 1), BuildingBlock: KIFKEQ_clean_linker_1, # of connection points: 2
#     Edge 67, Type (0, 1), BuildingBlock: KIFKEQ_clean_linker_1, # of connection points: 2
#     Edge 68, Type (0, 1), BuildingBlock: KIFKEQ_clean_linker_1, # of connection points: 2
#     Edge 69, Type (0, 1), BuildingBlock: KIFKEQ_clean_linker_1, # of connection points: 2
#     Edge 70, Type (0, 1), BuildingBlock: KIFKEQ_clean_linker_1, # of connection points: 2
#     Edge 71, Type (0, 1), BuildingBlock: KIFKEQ_clean_linker_1, # of connection points: 2
#     Edge 72, Type (0, 1), BuildingBlock: KIFKEQ_clean_linker_1, # of connection points: 2
#     Edge 73, Type (0, 1), BuildingBlock: KIFKEQ_clean_linker_1, # of connection points: 2
#     Edge 74, Type (0, 1), BuildingBlock: KIFKEQ_clean_linker_1, # of connection points: 2
#     Edge 75, Type (0, 1), BuildingBlock: KIFKEQ_clean_linker_1, # of connection points: 2
#     Edge 76, Type (0, 1), BuildingBlock: KIFKEQ_clean_linker_1, # of connection points: 2
#     Edge 77, Type (0, 1), BuildingBlock: KIFKEQ_clean_linker_1, # of connection points: 2
#     Edge 78, Type (0, 1), BuildingBlock: KIFKEQ_clean_linker_1, # of connection points: 2
#     Edge 79, Type (0, 1), BuildingBlock: KIFKEQ_clean_linker_1, # of connection points: 2
#     Edge 80, Type (0, 1), BuildingBlock: KIFKEQ_clean_linker_1, # of connection points: 2
#     Edge 81, Type (0, 1), BuildingBlock: KIFKEQ_clean_linker_1, # of connection points: 2
#     Edge 82, Type (0, 1), BuildingBlock: KIFKEQ_clean_linker_1, # of connection points: 2
#     Edge 83, Type (0, 1), BuildingBlock: KIFKEQ_clean_linker_1, # of connection points: 2
#     Edge 84, Type (0, 1), BuildingBlock: KIFKEQ_clean_linker_1, # of connection points: 2
#     Edge 85, Type (0, 1), BuildingBlock: KIFKEQ_clean_linker_1, # of connection points: 2
#     Edge 86, Type (0, 1), BuildingBlock: KIFKEQ_clean_linker_1, # of connection points: 2
#     Edge 87, Type (0, 1), BuildingBlock: KIFKEQ_clean_linker_1, # of connection points: 2
#     Edge 88, Type (0, 1), BuildingBlock: KIFKEQ_clean_linker_1, # of connection points: 2
#     Edge 89, Type (0, 1), BuildingBlock: KIFKEQ_clean_linker_1, # of connection points: 2
#     Edge 90, Type (0, 1), BuildingBlock: KIFKEQ_clean_linker_1, # of connection points: 2
#     Edge 91, Type (0, 1), BuildingBlock: KIFKEQ_clean_linker_1, # of connection points: 2
#     Edge 92, Type (0, 1), BuildingBlock: KIFKEQ_clean_linker_1, # of connection points: 2
#     Edge 93, Type (0, 1), BuildingBlock: KIFKEQ_clean_linker_1, # of connection points: 2
#     Edge 94, Type (0, 1), BuildingBlock: KIFKEQ_clean_linker_1, # of connection points: 2
#     Edge 95, Type (0, 1), BuildingBlock: KIFKEQ_clean_linker_1, # of connection points: 2
#     Edge 96, Type (0, 1), BuildingBlock: KIFKEQ_clean_linker_1, # of connection points: 2
#     Edge 97, Type (0, 1), BuildingBlock: KIFKEQ_clean_linker_1, # of connection points: 2
#     Edge 98, Type (0, 1), BuildingBlock: KIFKEQ_clean_linker_1, # of connection points: 2
#     Edge 99, Type (0, 1), BuildingBlock: KIFKEQ_clean_linker_1, # of connection points: 2
#     Edge 100, Type (0, 1), BuildingBlock: KIFKEQ_clean_linker_1, # of connection points: 2
#     Edge 101, Type (0, 1), BuildingBlock: KIFKEQ_clean_linker_1, # of connection points: 2
#     Edge 102, Type (0, 1), BuildingBlock: KIFKEQ_clean_linker_1, # of connection points: 2
#     Edge 103, Type (0, 1), BuildingBlock: KIFKEQ_clean_linker_1, # of connection points: 2
#     Edge 104, Type (0, 1), BuildingBlock: KIFKEQ_clean_linker_1, # of connection points: 2
#     Edge 105, Type (0, 1), BuildingBlock: KIFKEQ_clean_linker_1, # of connection points: 2
#     Edge 106, Type (0, 1), BuildingBlock: KIFKEQ_clean_linker_1, # of connection points: 2
#     Edge 107, Type (0, 1), BuildingBlock: KIFKEQ_clean_linker_1, # of connection points: 2
#     Edge 108, Type (0, 1), BuildingBlock: KIFKEQ_clean_linker_1, # of connection points: 2
#     Edge 109, Type (0, 1), BuildingBlock: KIFKEQ_clean_linker_1, # of connection points: 2
#     Edge 110, Type (0, 1), BuildingBlock: KIFKEQ_clean_linker_1, # of connection points: 2
#     Edge 111, Type (0, 1), BuildingBlock: KIFKEQ_clean_linker_1, # of connection points: 2
#     Edge 112, Type (0, 1), BuildingBlock: KIFKEQ_clean_linker_1, # of connection points: 2
#     Edge 113, Type (0, 1), BuildingBlock: KIFKEQ_clean_linker_1, # of connection points: 2
#     Edge 114, Type (0, 1), BuildingBlock: KIFKEQ_clean_linker_1, # of connection points: 2
#     Edge 115, Type (0, 1), BuildingBlock: KIFKEQ_clean_linker_1, # of connection points: 2
#     Edge 116, Type (0, 1), BuildingBlock: KIFKEQ_clean_linker_1, # of connection points: 2
#     Edge 117, Type (0, 1), BuildingBlock: KIFKEQ_clean_linker_1, # of connection points: 2
#     Edge 118, Type (0, 1), BuildingBlock: KIFKEQ_clean_linker_1, # of connection points: 2
#     Edge 119, Type (0, 1), BuildingBlock: KIFKEQ_clean_linker_1, # of connection points: 2
# Relax obj value: 0.062
# Max RMSD: 0.119
# Mean RMSD: 0.060
data_MOF--net-bwt--node1-OLANEW_clean_sbu_2--node2-PAMTOO_clean_linker_0--edge1-KIFKEQ_clean_linker_1
_symmetry_space_group_name_H-M    P1
_symmetry_Int_Tables_number       1
_symmetry_cell_setting            triclinic
loop_
_symmetry_equiv_pos_as_xyz
'x, y, z'
_cell_length_a     60.998142
_cell_length_b     60.999267
_cell_length_c     61.008139
_cell_angle_alpha  94.78039
_cell_angle_beta   94.796208
_cell_angle_gamma 94.79121
loop_
_atom_site_label
_atom_site_type_symbol
_atom_site_fract_x
_atom_site_fract_y
_atom_site_fract_z
_atom_type_partial_charge
O0 O 0.3012 0.56871 0.4084 0.0
Cd1 Cd 0.30457 0.57905 0.37088 0.0
O2 O 0.33203 0.55238 0.41149 0.0
Cd3 Cd 0.34203 0.55977 0.37911 0.0
O4 O 0.36222 0.56763 0.35233 0.0
C5 C 0.37628 0.55449 0.34661 0.0
O6 O 0.3776 0.53619 0.35639 0.0
C7 C 0.31465 0.55819 0.41961 0.0
C8 C 0.26292 0.57532 0.34737 0.0
O9 O 0.27511 0.55918 0.34702 0.0
O10 O 0.27054 0.59342 0.35864 0.0
O11 O 0.21782 0.42703 0.7455 0.0
Cd12 Cd 0.20704 0.40887 0.70851 0.0
O13 O 0.19928 0.4022 0.76263 0.0
Cd14 Cd 0.17887 0.38811 0.73279 0.0
O15 O 0.14795 0.37856 0.71201 0.0
C16 C 0.13139 0.38873 0.71689 0.0
O17 O 0.13405 0.4043 0.73337 0.0
C18 C 0.21302 0.41916 0.76332 0.0
C19 C 0.24503 0.41079 0.68592 0.0
O20 O 0.23152 0.42576 0.6849 0.0
O21 O 0.24017 0.3944 0.69701 0.0
O22 O 0.68325 0.95439 0.65258 0.0
Cd23 Cd 0.68277 0.94915 0.6918 0.0
O24 O 0.71641 0.97178 0.6581 0.0
Cd25 Cd 0.7468 0.99038 0.65053 0.0
O26 O 0.77952 0.00689 0.64742 0.0
C27 C 0.78884 0.02006 0.66336 0.0
O28 O 0.77835 0.02364 0.68109 0.0
C29 C 0.69972 0.96425 0.64488 0.0
C30 C 0.6539 0.97596 0.71179 0.0
O31 O 0.67435 0.98257 0.71134 0.0
O32 O 0.64708 0.95656 0.70284 0.0
O33 O 0.74614 0.97165 0.23275 0.0
Cd34 Cd 0.74592 0.9685 0.27243 0.0
O35 O 0.74926 0.00796 0.23601 0.0
Cd36 Cd 0.73979 0.0081 0.26972 0.0
O37 O 0.71095 0.00037 0.2875 0.0
C38 C 0.69552 0.01307 0.28581 0.0
O39 O 0.69877 0.03098 0.27551 0.0
C40 C 0.74886 0.9898 0.22404 0.0
C41 C 0.78773 0.95889 0.28884 0.0
O42 O 0.77257 0.94346 0.28191 0.0
O43 O 0.78295 0.97893 0.28849 0.0
O44 O 0.37305 0.31627 0.54746 0.0
Cd45 Cd 0.33304 0.31567 0.54884 0.0
O46 O 0.37958 0.32282 0.58349 0.0
Cd47 Cd 0.34585 0.33092 0.58743 0.0
O48 O 0.32037 0.35379 0.59065 0.0
C49 C 0.3194 0.36826 0.57683 0.0
O50 O 0.33265 0.3677 0.56091 0.0
C51 C 0.38659 0.31854 0.56469 0.0
C52 C 0.31517 0.27188 0.54719 0.0
O53 O 0.31681 0.28171 0.52955 0.0
O54 O 0.32159 0.28292 0.56574 0.0
O55 O 0.22953 0.75045 0.95269 0.0
Cd56 Cd 0.26851 0.75386 0.9458 0.0
O57 O 0.23717 0.7509 0.98858 0.0
Cd58 Cd 0.27092 0.74265 0.98509 0.0
O59 O 0.28922 0.71337 0.9843 0.0
C60 C 0.29569 0.70455 0.96665 0.0
O61 O 0.2932 0.71447 0.94841 0.0
C62 C 0.22312 0.7512 0.97201 0.0
C63 C 0.28026 0.79727 0.9372 0.0
O64 O 0.27293 0.78245 0.92158 0.0
O65 O 0.28254 0.79145 0.95691 0.0
O66 O 0.75997 0.23866 0.36658 0.0
Cd67 Cd 0.72086 0.2307 0.35384 0.0
O68 O 0.76544 0.20392 0.37042 0.0
Cd69 Cd 0.73191 0.18896 0.36088 0.0
O70 O 0.71369 0.15758 0.36546 0.0
C71 C 0.71397 0.15275 0.38534 0.0
O72 O 0.72306 0.16752 0.40111 0.0
C73 C 0.77277 0.22416 0.37181 0.0
C74 C 0.69766 0.26213 0.37549 0.0
O75 O 0.70112 0.24392 0.3837 0.0
O76 O 0.70466 0.26523 0.35666 0.0
O77 O 0.59958 0.71115 0.00548 0.0
Cd78 Cd 0.63814 0.72371 0.01757 0.0
O79 O 0.60055 0.72312 0.97253 0.0
Cd80 Cd 0.63322 0.74097 0.98019 0.0
O81 O 0.65572 0.77113 0.98545 0.0
C82 C 0.65246 0.78526 0.00108 0.0
O83 O 0.63686 0.7804 0.01395 0.0
C84 C 0.59012 0.71301 0.98644 0.0
C85 C 0.66237 0.68802 0.02611 0.0
O86 O 0.65096 0.69674 0.04067 0.0
O87 O 0.66248 0.69626 0.00746 0.0
O88 O 0.54946 0.39108 0.28488 0.0
Cd89 Cd 0.55462 0.35334 0.29371 0.0
O90 O 0.58501 0.40153 0.29052 0.0
Cd91 Cd 0.59185 0.37198 0.3068 0.0
O92 O 0.59328 0.35288 0.33554 0.0
C93 C 0.57714 0.35384 0.34737 0.0
O94 O 0.56066 0.36511 0.34103 0.0
C95 C 0.56549 0.40569 0.28426 0.0
C96 C 0.55843 0.32691 0.2549 0.0
O97 O 0.53965 0.32874 0.26253 0.0
O98 O 0.57556 0.33731 0.26587 0.0
O99 O 0.02951 0.29618 0.78816 0.0
Cd100 Cd 0.03503 0.33364 0.80642 0.0
O101 O 0.02528 0.30916 0.75584 0.0
Cd102 Cd 0.01731 0.30819 0.72011 0.0
O103 O 0.01111 0.30285 0.68426 0.0
C104 C 0.99199 0.29516 0.67583 0.0
O105 O 0.97645 0.29102 0.68898 0.0
C106 C 0.02567 0.29265 0.76732 0.0
C107 C 0.01455 0.33518 0.84562 0.0
O108 O 0.0039 0.33807 0.82723 0.0
O109 O 0.03503 0.3319 0.84554 0.0
O110 O 0.43629 0.73662 0.22295 0.0
Cd111 Cd 0.42235 0.69875 0.20953 0.0
O112 O 0.40329 0.74864 0.22022 0.0
Cd113 Cd 0.3898 0.71969 0.19831 0.0
O114 O 0.38179 0.70189 0.16567 0.0
C115 C 0.39759 0.69828 0.15391 0.0
O116 O 0.41796 0.70419 0.16235 0.0
C117 C 0.42378 0.75192 0.2266 0.0
C118 C 0.42554 0.67417 0.24596 0.0
O119 O 0.44145 0.67645 0.23364 0.0
O120 O 0.40765 0.6828 0.24054 0.0
O121 O 0.98739 0.5844 0.71091 0.0
Cd122 Cd 0.98772 0.62372 0.72295 0.0
O123 O 0.00254 0.57564 0.74265 0.0
Cd124 Cd 0.00503 0.60887 0.75971 0.0
O125 O 0.00692 0.63333 0.78831 0.0
C126 C 0.9898 0.63487 0.79867 0.0
O127 O 0.97153 0.62272 0.79099 0.0
C128 C 0.99451 0.56995 0.72288 0.0
C129 C 0.00517 0.65051 0.69252 0.0
O130 O 0.01736 0.64511 0.709 0.0
O131 O 0.98471 0.64323 0.69039 0.0
O132 O 0.7008 0.3405 0.66586 0.0
Cd133 Cd 0.72139 0.3305 0.69905 0.0
O134 O 0.67688 0.35766 0.68429 0.0
Cd135 Cd 0.64685 0.37476 0.68637 0.0
O136 O 0.61658 0.39152 0.68701 0.0
C137 C 0.60548 0.39446 0.66908 0.0
O138 O 0.61254 0.38745 0.65022 0.0
C139 C 0.68412 0.35164 0.66599 0.0
C140 C 0.7665 0.33939 0.69527 0.0
O141 O 0.75638 0.32057 0.68811 0.0
O142 O 0.75536 0.35384 0.7046 0.0
O143 O 0.77892 0.64478 0.25601 0.0
Cd144 Cd 0.76691 0.6724 0.28264 0.0
O145 O 0.81431 0.646 0.26702 0.0
Cd146 Cd 0.84756 0.6349 0.26653 0.0
O147 O 0.88105 0.62466 0.27122 0.0
C148 C 0.88738 0.60891 0.25903 0.0
O149 O 0.87354 0.59872 0.24302 0.0
C150 C 0.79785 0.63806 0.25373 0.0
C151 C 0.72082 0.66641 0.27922 0.0
O152 O 0.731 0.67834 0.26627 0.0
O153 O 0.73238 0.65797 0.29433 0.0
O154 O 0.28559 0.04877 0.34004 0.0
Cd155 Cd 0.29424 0.04898 0.30176 0.0
O156 O 0.25244 0.03228 0.33051 0.0
Cd157 Cd 0.22009 0.01633 0.33594 0.0
O158 O 0.18575 0.00341 0.33709 0.0
C159 C 0.1708 0.01653 0.33454 0.0
O160 O 0.17663 0.03727 0.33177 0.0
C161 C 0.26721 0.04062 0.34554 0.0
C162 C 0.33264 0.02811 0.29672 0.0
O163 O 0.33357 0.04898 0.30198 0.0
O164 O 0.31355 0.01728 0.29349 0.0
O165 O 0.21418 0.00464 0.71847 0.0
Cd166 Cd 0.19848 0.01099 0.6816 0.0
O167 O 0.24271 0.02801 0.71489 0.0
Cd168 Cd 0.2758 0.04422 0.72509 0.0
O169 O 0.31009 0.05799 0.73254 0.0
C170 C 0.32363 0.04804 0.74422 0.0
O171 O 0.31659 0.02959 0.7521 0.0
C172 C 0.23255 0.01474 0.72642 0.0
C173 C 0.15816 0.02935 0.68274 0.0
O174 O 0.15886 0.00837 0.67992 0.0
O175 O 0.17649 0.04157 0.68501 0.0
O176 O 0.66848 0.70808 0.38721 0.0
Cd177 Cd 0.70523 0.72486 0.38222 0.0
O178 O 0.68217 0.68589 0.41024 0.0
Cd179 Cd 0.6791 0.65782 0.43016 0.0
O180 O 0.67572 0.62632 0.44454 0.0
C181 C 0.66088 0.61143 0.4361 0.0
O182 O 0.64757 0.61566 0.4192 0.0
C183 C 0.66551 0.69302 0.40013 0.0
C184 C 0.70711 0.77005 0.39447 0.0
O185 O 0.70181 0.76237 0.37435 0.0
O186 O 0.71192 0.7564 0.40861 0.0
O187 O 0.73693 0.2285 0.96701 0.0
Cd188 Cd 0.70162 0.2062 0.96563 0.0
O189 O 0.72548 0.25322 0.99062 0.0
Cd190 Cd 0.72961 0.28515 0.0104 0.0
O191 O 0.733 0.31904 0.02578 0.0
C192 C 0.74149 0.33441 0.01545 0.0
O193 O 0.74832 0.32937 0.99595 0.0
C194 C 0.74066 0.24644 0.97943 0.0
C195 C 0.70837 0.16401 0.97777 0.0
O196 O 0.70729 0.16804 0.95744 0.0
O197 O 0.70602 0.17987 0.99229 0.0
O198 O 0.27071 0.78836 0.65501 0.0
Cd199 Cd 0.30803 0.78263 0.66995 0.0
O200 O 0.27986 0.81941 0.64081 0.0
Cd201 Cd 0.27307 0.84904 0.62434 0.0
O202 O 0.2707 0.88149 0.61191 0.0
C203 C 0.27915 0.89842 0.62425 0.0
O204 O 0.28867 0.89571 0.64385 0.0
C205 C 0.26522 0.80423 0.64411 0.0
C206 C 0.31293 0.73751 0.66358 0.0
O207 O 0.30558 0.7458 0.68121 0.0
O208 O 0.31858 0.75067 0.64929 0.0
O209 O 0.36221 0.29093 0.05568 0.0
Cd210 Cd 0.32545 0.30313 0.05872 0.0
O211 O 0.34899 0.25891 0.03861 0.0
Cd212 Cd 0.35035 0.22646 0.02077 0.0
O213 O 0.3464 0.19277 0.00481 0.0
C214 C 0.34246 0.17686 0.01651 0.0
O215 O 0.3414 0.18121 0.03784 0.0
C216 C 0.36552 0.27219 0.04644 0.0
C217 C 0.32137 0.34028 0.03558 0.0
O218 O 0.32868 0.34223 0.05603 0.0
O219 O 0.31564 0.32079 0.02626 0.0
O220 O 0.33526 0.6439 0.70217 0.0
Cd221 Cd 0.32148 0.67582 0.72154 0.0
O222 O 0.35338 0.66529 0.68129 0.0
Cd223 Cd 0.37264 0.66978 0.6531 0.0
O224 O 0.38936 0.67056 0.6229 0.0
C225 C 0.38939 0.65304 0.61007 0.0
O226 O 0.37946 0.63453 0.6154 0.0
C227 C 0.34821 0.64613 0.68708 0.0
C228 C 0.33496 0.67676 0.76644 0.0
O229 O 0.31611 0.66722 0.75849 0.0
O230 O 0.34717 0.68619 0.75322 0.0
O231 O 0.98334 0.73524 0.24157 0.0
Cd232 Cd 0.98738 0.70007 0.22078 0.0
O233 O 0.00651 0.72761 0.26879 0.0
Cd234 Cd 0.02326 0.73414 0.30215 0.0
O235 O 0.03693 0.73749 0.33667 0.0
C236 C 0.02544 0.74463 0.35172 0.0
O237 O 0.00557 0.75033 0.34611 0.0
C238 C 0.99386 0.74082 0.26034 0.0
C239 C 0.99667 0.70631 0.17759 0.0
O240 O 0.9767 0.70276 0.18239 0.0
O241 O 0.0122 0.7068 0.19319 0.0
O242 O 0.65959 0.26669 0.77746 0.0
Cd243 Cd 0.68041 0.29977 0.76745 0.0
O244 O 0.64834 0.28413 0.80683 0.0
Cd245 Cd 0.63172 0.28489 0.83727 0.0
O246 O 0.6197 0.28428 0.86997 0.0
C247 C 0.62487 0.26907 0.88194 0.0
O248 O 0.63696 0.25392 0.87409 0.0
C249 C 0.64829 0.26657 0.79404 0.0
C250 C 0.66547 0.30696 0.72441 0.0
O251 O 0.6818 0.29546 0.72815 0.0
O252 O 0.65662 0.31549 0.74105 0.0
O253 O 0.10911 0.3419 0.29579 0.0
Cd254 Cd 0.11433 0.30479 0.30617 0.0
O255 O 0.08117 0.32834 0.27228 0.0
Cd256 Cd 0.05588 0.33018 0.24504 0.0
O257 O 0.0347 0.32871 0.21419 0.0
C258 C 0.04295 0.32285 0.19641 0.0
O259 O 0.06365 0.31822 0.19744 0.0
C260 C 0.09355 0.34494 0.28149 0.0
C261 C 0.08478 0.29363 0.3367 0.0
O262 O 0.10421 0.30274 0.3431 0.0
O263 O 0.07952 0.28951 0.31589 0.0
H264 H 0.30584 0.58357 0.5831 0.0
H265 H 0.2711 0.51891 0.58062 0.0
H266 H 0.27405 0.56308 0.63944 0.0
H267 H 0.25449 0.50666 0.64685 0.0
C268 C 0.26667 0.50984 0.63467 0.0
O269 O 0.25847 0.52432 0.6205 0.0
H270 H 0.28211 0.51736 0.64445 0.0
C271 C 0.29694 0.57095 0.59126 0.0
C272 C 0.29137 0.57584 0.61292 0.0
C273 C 0.28971 0.55053 0.57939 0.0
C274 C 0.27702 0.53468 0.58955 0.0
C275 C 0.27154 0.53925 0.61119 0.0
C276 C 0.27864 0.55975 0.62279 0.0
H277 H 0.29156 0.44745 0.9182 0.0
H278 H 0.29438 0.51629 0.90697 0.0
H279 H 0.32464 0.49659 0.96746 0.0
H280 H 0.3049 0.53598 0.97618 0.0
C281 C 0.30198 0.54105 0.95916 0.0
O282 O 0.31535 0.53021 0.94555 0.0
H283 H 0.28422 0.53637 0.95351 0.0
C284 C 0.29709 0.46455 0.92365 0.0
C285 C 0.30901 0.46985 0.94438 0.0
C286 C 0.29187 0.48111 0.90999 0.0
C287 C 0.29864 0.50328 0.91717 0.0
C288 C 0.31025 0.50878 0.93798 0.0
C289 C 0.31564 0.4921 0.95142 0.0
H290 H 0.69746 0.92099 0.4808 0.0
H291 H 0.6919 0.98975 0.47233 0.0
H292 H 0.69535 0.94376 0.41578 0.0
H293 H 0.71779 0.98583 0.4097 0.0
C294 C 0.71138 0.99613 0.42323 0.0
O295 O 0.69246 0.98514 0.42933 0.0
H296 H 0.72438 0.99881 0.43738 0.0
C297 C 0.69625 0.93426 0.4701 0.0
C298 C 0.69675 0.92969 0.44722 0.0
C299 C 0.69439 0.9558 0.47936 0.0
C300 C 0.69319 0.97298 0.46548 0.0
C301 C 0.69337 0.96853 0.44259 0.0
C302 C 0.6949 0.94692 0.43347 0.0
H303 H 0.73847 0.02656 0.06091 0.0
H304 H 0.73356 0.95558 0.05013 0.0
H305 H 0.72563 0.99415 0.99501 0.0
H306 H 0.69879 0.95071 0.98341 0.0
C307 C 0.70272 0.94619 0.00048 0.0
O308 O 0.72424 0.95423 0.00749 0.0
H309 H 0.69077 0.95385 0.01096 0.0
C310 C 0.73656 0.01165 0.04971 0.0
C311 C 0.73229 0.01311 0.02688 0.0
C312 C 0.73722 0.99102 0.05837 0.0
C313 C 0.73329 0.97167 0.04388 0.0
C314 C 0.72902 0.97293 0.02116 0.0
C315 C 0.72888 0.99354 0.01267 0.0
H316 H 0.55795 0.31404 0.58963 0.0
H317 H 0.54852 0.30506 0.51846 0.0
H318 H 0.61304 0.30329 0.5517 0.0
H319 H 0.61889 0.31824 0.50607 0.0
C320 C 0.60084 0.31995 0.50482 0.0
O321 O 0.59021 0.30205 0.51324 0.0
H322 H 0.59844 0.33563 0.5147 0.0
C323 C 0.56445 0.31109 0.57375 0.0
C324 C 0.58709 0.30885 0.573 0.0
C325 C 0.55016 0.30935 0.55422 0.0
C326 C 0.55906 0.3062 0.53378 0.0
C327 C 0.58165 0.30405 0.53295 0.0
C328 C 0.59555 0.30488 0.55252 0.0
H329 H 0.06792 0.73197 0.0305 0.0
H330 H 0.04876 0.72467 0.96048 0.0
H331 H 0.99952 0.71741 0.00614 0.0
H332 H 0.98087 0.69272 0.96249 0.0
C333 C 0.99802 0.69503 0.95763 0.0
O334 O 0.00662 0.71641 0.96448 0.0
H335 H 0.00746 0.68271 0.96599 0.0
C336 C 0.05525 0.72869 0.0168 0.0
C337 C 0.0331 0.72437 0.0211 0.0
C338 C 0.06118 0.72903 0.99504 0.0
C339 C 0.04456 0.72507 0.97741 0.0
C340 C 0.02241 0.72108 0.98152 0.0
C341 C 0.01668 0.72106 0.00328 0.0
H342 H 0.94301 0.26464 0.41333 0.0
H343 H 0.91747 0.2662 0.47712 0.0
H344 H 0.98724 0.27723 0.4727 0.0
H345 H 0.97208 0.24665 0.50473 0.0
C346 C 0.95883 0.25611 0.5113 0.0
O347 O 0.95614 0.27422 0.49955 0.0
H348 H 0.94323 0.24502 0.50938 0.0
C349 C 0.94572 0.26645 0.43121 0.0
C350 C 0.96733 0.27101 0.44137 0.0
C351 C 0.92753 0.26473 0.44385 0.0
C352 C 0.93119 0.2678 0.467 0.0
C353 C 0.95269 0.27217 0.47729 0.0
C354 C 0.97068 0.27398 0.46452 0.0
H355 H 0.42736 0.67639 0.91728 0.0
H356 H 0.41971 0.6636 0.98477 0.0
H357 H 0.36322 0.6561 0.93716 0.0
H358 H 0.34746 0.6646 0.98495 0.0
C359 C 0.36532 0.66934 0.98909 0.0
O360 O 0.377 0.65385 0.97849 0.0
H361 H 0.36866 0.68604 0.98323 0.0
C362 C 0.41695 0.67176 0.93001 0.0
C363 C 0.39415 0.66659 0.92454 0.0
C364 C 0.42648 0.67053 0.95162 0.0
C365 C 0.41285 0.66416 0.96788 0.0
C366 C 0.39014 0.65898 0.96257 0.0
C367 C 0.38088 0.65985 0.94091 0.0
H368 H 0.58077 0.56885 0.25582 0.0
H369 H 0.50952 0.56176 0.24829 0.0
H370 H 0.54471 0.62562 0.24752 0.0
H371 H 0.49029 0.63058 0.25383 0.0
C372 C 0.49635 0.61563 0.26064 0.0
O373 O 0.5056 0.60365 0.24416 0.0
H374 H 0.50893 0.62186 0.27456 0.0
C375 C 0.56514 0.57591 0.25314 0.0
C376 C 0.56511 0.59874 0.25182 0.0
C377 C 0.54522 0.5623 0.25194 0.0
C378 C 0.52509 0.57191 0.2494 0.0
C379 C 0.52497 0.59465 0.24759 0.0
C380 C 0.54495 0.60803 0.2488 0.0
H381 H 0.03346 0.13154 0.70387 0.0
H382 H 0.96278 0.13249 0.69636 0.0
H383 H 0.99213 0.07328 0.67658 0.0
H384 H 0.95348 0.08162 0.64702 0.0
C385 C 0.94436 0.09106 0.65913 0.0
O386 O 0.95493 0.09125 0.68003 0.0
H387 H 0.94403 0.10823 0.65427 0.0
C388 C 0.01723 0.12321 0.69869 0.0
C389 C 0.01523 0.10109 0.6897 0.0
C390 C 0.99846 0.13469 0.70115 0.0
C391 C 0.97745 0.1239 0.69444 0.0
C392 C 0.97524 0.10176 0.68572 0.0
C393 C 0.99406 0.09036 0.68346 0.0
H394 H 0.44564 0.91303 0.28621 0.0
H395 H 0.51531 0.90501 0.2911 0.0
H396 H 0.49314 0.96984 0.29946 0.0
H397 H 0.52878 0.96686 0.27221 0.0
C398 C 0.53762 0.95358 0.27954 0.0
O399 O 0.52767 0.9473 0.29779 0.0
H400 H 0.5366 0.93931 0.26674 0.0
C401 C 0.46266 0.92006 0.2892 0.0
C402 C 0.46719 0.94307 0.29308 0.0
C403 C 0.4798 0.90608 0.28851 0.0
C404 C 0.5018 0.91542 0.29185 0.0
C405 C 0.5065 0.93836 0.29587 0.0
C406 C 0.48926 0.95211 0.29679 0.0
H407 H 0.92505 0.41331 0.68428 0.0
H408 H 0.98371 0.40123 0.65215 0.0
H409 H 0.92867 0.35195 0.64492 0.0
H410 H 0.97951 0.33255 0.62554 0.0
C411 C 0.97852 0.34425 0.6403 0.0
O412 O 0.96823 0.36219 0.63357 0.0
H413 H 0.96838 0.3351 0.65154 0.0
C414 C 0.93428 0.40242 0.67439 0.0
C415 C 0.92428 0.38155 0.6657 0.0
C416 C 0.95564 0.40984 0.66953 0.0
C417 C 0.9672 0.39592 0.65604 0.0
C418 C 0.95737 0.37515 0.64721 0.0
C419 C 0.93595 0.36811 0.65186 0.0
H420 H 0.65107 0.36322 0.50157 0.0
H421 H 0.64398 0.43135 0.52207 0.0
H422 H 0.64968 0.41153 0.45398 0.0
H423 H 0.67873 0.45005 0.47306 0.0
C424 C 0.66752 0.45779 0.48431 0.0
O425 O 0.64765 0.44497 0.48308 0.0
H426 H 0.67572 0.45886 0.50142 0.0
C427 C 0.64897 0.37992 0.49752 0.0
C428 C 0.64993 0.38503 0.47552 0.0
C429 C 0.64676 0.39638 0.51457 0.0
C430 C 0.64553 0.41827 0.50931 0.0
C431 C 0.64693 0.42363 0.48758 0.0
C432 C 0.64877 0.40706 0.47071 0.0
H433 H 0.76486 0.59046 0.10038 0.0
H434 H 0.78039 0.52357 0.10725 0.0
H435 H 0.7392 0.53827 0.05086 0.0
H436 H 0.72381 0.49884 0.07013 0.0
C437 C 0.73977 0.49334 0.07685 0.0
O438 O 0.75709 0.50695 0.07093 0.0
H439 H 0.7399 0.49437 0.09518 0.0
C440 C 0.76423 0.57332 0.09381 0.0
C441 C 0.75138 0.5664 0.07388 0.0
C442 C 0.77466 0.55805 0.1062 0.0
C443 C 0.77261 0.53568 0.09799 0.0
C444 C 0.75989 0.52865 0.07807 0.0
C445 C 0.74933 0.54396 0.06605 0.0
H446 H 0.26599 0.10779 0.49774 0.0
H447 H 0.25962 0.04369 0.52245 0.0
H448 H 0.27642 0.10162 0.56753 0.0
H449 H 0.29673 0.06338 0.58575 0.0
C450 C 0.28926 0.05157 0.57172 0.0
O451 O 0.26936 0.05849 0.56382 0.0
H452 H 0.3012 0.05149 0.55883 0.0
C453 C 0.26621 0.09762 0.51149 0.0
C454 C 0.27166 0.10763 0.53305 0.0
C455 C 0.26178 0.07461 0.50736 0.0
C456 C 0.26269 0.0615 0.52523 0.0
C457 C 0.26778 0.07132 0.54684 0.0
C458 C 0.272 0.09433 0.55078 0.0
H459 H 0.28462 0.9498 0.87207 0.0
H460 H 0.29903 0.01902 0.8929 0.0
H461 H 0.31041 0.97106 0.93912 0.0
H462 H 0.2959 0.01035 0.96117 0.0
C463 C 0.29778 0.02139 0.9477 0.0
O464 O 0.31234 0.01318 0.93366 0.0
H465 H 0.28112 0.02177 0.93878 0.0
C466 C 0.29034 0.96287 0.88491 0.0
C467 C 0.29737 0.95752 0.9062 0.0
C468 C 0.29089 0.98495 0.87988 0.0
C469 C 0.29883 0.00186 0.89634 0.0
C470 C 0.30582 0.99675 0.91762 0.0
C471 C 0.30531 0.97468 0.92246 0.0
H472 H 0.50075 0.64349 0.38223 0.0
H473 H 0.50561 0.65069 0.4532 0.0
H474 H 0.44213 0.63534 0.41645 0.0
H475 H 0.4423 0.66816 0.45289 0.0
C476 C 0.45569 0.66318 0.46447 0.0
O477 O 0.46298 0.64369 0.45601 0.0
H478 H 0.46946 0.67658 0.46627 0.0
C479 C 0.49295 0.64273 0.39752 0.0
C480 C 0.46995 0.63826 0.3968 0.0
C481 C 0.50596 0.64734 0.41768 0.0
C482 C 0.49584 0.64681 0.43747 0.0
C483 C 0.47283 0.64254 0.43697 0.0
C484 C 0.45992 0.63823 0.41668 0.0
H485 H 0.9029 0.31461 0.96277 0.0
H486 H 0.90079 0.30873 0.03243 0.0
H487 H 0.96264 0.32572 0.00674 0.0
H488 H 0.96155 0.29081 0.03726 0.0
C489 C 0.9509 0.29816 0.04934 0.0
O490 O 0.94335 0.31725 0.04214 0.0
H491 H 0.93663 0.28585 0.05062 0.0
C492 C 0.91124 0.31573 0.97929 0.0
C493 C 0.93421 0.32108 0.98252 0.0
C494 C 0.899 0.31129 0.99718 0.0
C495 C 0.9099 0.3125 0.0185 0.0
C496 C 0.93281 0.31744 0.0218 0.0
C497 C 0.94491 0.32184 0.00391 0.0
H498 H 0.10338 0.75453 0.6092 0.0
H499 H 0.11223 0.77439 0.5442 0.0
H500 H 0.05337 0.73511 0.55538 0.0
H501 H 0.07339 0.72026 0.51587 0.0
C502 C 0.08089 0.73634 0.51134 0.0
O503 O 0.07547 0.75329 0.52572 0.0
H504 H 0.09914 0.73569 0.51257 0.0
C505 C 0.09703 0.75523 0.59217 0.0
C506 C 0.07647 0.74386 0.58437 0.0
C507 C 0.1101 0.76645 0.57796 0.0
C508 C 0.10242 0.76604 0.55555 0.0
C509 C 0.08213 0.75455 0.54751 0.0
C510 C 0.06909 0.74376 0.56189 0.0
H511 H 0.51882 0.25666 0.10166 0.0
H512 H 0.53881 0.25094 0.03554 0.0
H513 H 0.58775 0.26391 0.09086 0.0
H514 H 0.60456 0.28465 0.05156 0.0
C515 C 0.58912 0.27856 0.04107 0.0
O516 O 0.58101 0.25862 0.04774 0.0
H517 H 0.57725 0.29135 0.04328 0.0
C518 C 0.53174 0.25596 0.09052 0.0
C519 C 0.55391 0.26012 0.09916 0.0
C520 C 0.52598 0.25262 0.06763 0.0
C521 C 0.54283 0.25323 0.05327 0.0
C522 C 0.565 0.25721 0.06171 0.0
C523 C 0.57054 0.26053 0.08458 0.0
H524 H 0.37103 0.48958 0.64372 0.0
H525 H 0.44103 0.50852 0.64885 0.0
H526 H 0.41703 0.44056 0.65111 0.0
H527 H 0.45269 0.45805 0.68394 0.0
C528 C 0.46308 0.46807 0.67361 0.0
O529 O 0.45235 0.46849 0.65283 0.0
H530 H 0.46602 0.48524 0.68167 0.0
C531 C 0.38794 0.48524 0.64464 0.0
C532 C 0.39192 0.46314 0.64655 0.0
C533 C 0.4054 0.5019 0.64556 0.0
C534 C 0.42722 0.49602 0.64806 0.0
C535 C 0.43136 0.47393 0.64995 0.0
C536 C 0.41372 0.45752 0.64928 0.0
H537 H 0.93702 0.88805 0.31223 0.0
H538 H 0.00648 0.90915 0.32498 0.0
H539 H 0.95898 0.95691 0.32785 0.0
H540 H 0.99913 0.97699 0.31206 0.0
C541 C 0.00868 0.96242 0.31402 0.0
O542 O 0.00099 0.95105 0.33089 0.0
H543 H 0.00619 0.95194 0.29798 0.0
C544 C 0.95028 0.901 0.31669 0.0
C545 C 0.94516 0.92301 0.32011 0.0
C546 C 0.97231 0.89563 0.31839 0.0
C547 C 0.98935 0.91272 0.32365 0.0
C548 C 0.98444 0.93468 0.32707 0.0
C549 C 0.96244 0.93977 0.32562 0.0
H550 H 0.58358 0.10731 0.78114 0.0
H551 H 0.5217 0.13458 0.79023 0.0
H552 H 0.52225 0.06646 0.76665 0.0
H553 H 0.49226 0.09379 0.74211 0.0
C554 C 0.48566 0.10245 0.75661 0.0
O555 O 0.49731 0.09816 0.77591 0.0
H556 H 0.48765 0.1205 0.75478 0.0
C557 C 0.56576 0.10521 0.78114 0.0
C558 C 0.5545 0.0845 0.77386 0.0
C559 C 0.55424 0.12349 0.78712 0.0
C560 C 0.53103 0.12078 0.78577 0.0
C561 C 0.51962 0.1003 0.77822 0.0
C562 C 0.53131 0.0822 0.77243 0.0
H563 H 0.11826 0.50744 0.27621 0.0
H564 H 0.04786 0.51027 0.26664 0.0
H565 H 0.09049 0.56974 0.28533 0.0
H566 H 0.04875 0.56942 0.30637 0.0
C567 C 0.03858 0.55688 0.29464 0.0
O568 O 0.04938 0.55304 0.2759 0.0
H569 H 0.03624 0.54145 0.30308 0.0
C570 C 0.10402 0.51697 0.27543 0.0
C571 C 0.10706 0.53989 0.28088 0.0
C572 C 0.08281 0.50601 0.27035 0.0
C573 C 0.06439 0.51838 0.27051 0.0
C574 C 0.06722 0.54131 0.27581 0.0
C575 C 0.08849 0.55204 0.28107 0.0
H576 H 0.24296 0.5394 0.32149 0.0
H577 H 0.23208 0.60557 0.34664 0.0
H578 H 0.20556 0.53436 0.30359 0.0
H579 H 0.19456 0.60063 0.3283 0.0
H580 H 0.12116 0.56789 0.31763 0.0
H581 H 0.15942 0.57912 0.33211 0.0
H582 H 0.1822 0.54649 0.27376 0.0
H583 H 0.14404 0.53504 0.25956 0.0
C584 C 0.23266 0.55297 0.32302 0.0
C585 C 0.24051 0.57286 0.33554 0.0
C586 C 0.21123 0.55015 0.31259 0.0
C587 C 0.19707 0.56714 0.31441 0.0
C588 C 0.20499 0.58717 0.32671 0.0
C589 C 0.22652 0.59002 0.33713 0.0
C590 C 0.13436 0.56363 0.3077 0.0
C591 C 0.12969 0.55039 0.28761 0.0
C592 C 0.15628 0.57003 0.31598 0.0
C593 C 0.17388 0.56336 0.30425 0.0
C594 C 0.16905 0.55143 0.28344 0.0
C595 C 0.14722 0.54498 0.27525 0.0
H596 H 0.2598 0.44393 0.66204 0.0
H597 H 0.2786 0.38352 0.68757 0.0
H598 H 0.29629 0.45056 0.64939 0.0
H599 H 0.31525 0.39008 0.67443 0.0
H600 H 0.3837 0.43707 0.67969 0.0
H601 H 0.34761 0.41913 0.68605 0.0
H602 H 0.32101 0.43547 0.62237 0.0
H603 H 0.35673 0.45355 0.61614 0.0
C604 C 0.27157 0.43183 0.66459 0.0
C605 C 0.26629 0.41324 0.67589 0.0
C606 C 0.29247 0.43557 0.65719 0.0
C607 C 0.30857 0.42074 0.66077 0.0
C608 C 0.30315 0.40178 0.67148 0.0
C609 C 0.28216 0.39801 0.6789 0.0
C610 C 0.37028 0.43601 0.66673 0.0
C611 C 0.37282 0.44683 0.64754 0.0
C612 C 0.34963 0.42581 0.67037 0.0
C613 C 0.33134 0.42632 0.65483 0.0
C614 C 0.33462 0.4352 0.63474 0.0
C615 C 0.35511 0.44541 0.63113 0.0
H616 H 0.60924 0.96774 0.71336 0.0
H617 H 0.66394 0.01694 0.73354 0.0
H618 H 0.58404 0.99207 0.72989 0.0
H619 H 0.63878 0.04126 0.74974 0.0
H620 H 0.59231 0.07186 0.79434 0.0
H621 H 0.61556 0.04416 0.7805 0.0
H622 H 0.56882 0.02744 0.72315 0.0
H623 H 0.54553 0.05521 0.73702 0.0
C624 C 0.61589 0.98371 0.72135 0.0
C625 C 0.6386 0.99041 0.72214 0.0
C626 C 0.60144 0.99767 0.73072 0.0
C627 C 0.60942 0.01855 0.74118 0.0
C628 C 0.63215 0.02514 0.74211 0.0
C629 C 0.64656 0.01125 0.73268 0.0
C630 C 0.58695 0.0622 0.77883 0.0
C631 C 0.56719 0.06586 0.76667 0.0
C632 C 0.60028 0.04636 0.77088 0.0
C633 C 0.59416 0.03379 0.75061 0.0
C634 C 0.57391 0.03675 0.73891 0.0
C635 C 0.56056 0.05263 0.74687 0.0
H636 H 0.82366 0.98784 0.30372 0.0
H637 H 0.80303 0.91817 0.29007 0.0
H638 H 0.86159 0.97922 0.31257 0.0
H639 H 0.84082 0.9096 0.2992 0.0
H640 H 0.91366 0.9058 0.28735 0.0
H641 H 0.8755 0.91437 0.28176 0.0
H642 H 0.88568 0.96153 0.33934 0.0
H643 H 0.92404 0.95278 0.34511 0.0
C644 C 0.82716 0.97069 0.30285 0.0
C645 C 0.81035 0.95369 0.29604 0.0
C646 C 0.84888 0.96576 0.30802 0.0
C647 C 0.85423 0.94375 0.30642 0.0
C648 C 0.83728 0.92675 0.30025 0.0
C649 C 0.8156 0.93166 0.29513 0.0
C650 C 0.90772 0.91777 0.29904 0.0
C651 C 0.92187 0.92846 0.31681 0.0
C652 C 0.88583 0.92269 0.29581 0.0
C653 C 0.87751 0.9385 0.3102 0.0
C654 C 0.89166 0.94938 0.32788 0.0
C655 C 0.91362 0.94439 0.33117 0.0
H656 H 0.31135 0.24574 0.58138 0.0
H657 H 0.30048 0.24445 0.51035 0.0
H658 H 0.30041 0.20608 0.57894 0.0
H659 H 0.28925 0.20504 0.50799 0.0
H660 H 0.2988 0.1322 0.50941 0.0
H661 H 0.30808 0.17194 0.51357 0.0
H662 H 0.26874 0.1777 0.56909 0.0
H663 H 0.25933 0.13762 0.56486 0.0
C664 C 0.30642 0.23706 0.56528 0.0
C665 C 0.30695 0.24823 0.54604 0.0
C666 C 0.30006 0.21436 0.56391 0.0
C667 C 0.29417 0.20238 0.54327 0.0
C668 C 0.29409 0.21371 0.52412 0.0
C669 C 0.30041 0.23635 0.52548 0.0
C670 C 0.29195 0.14193 0.5224 0.0
C671 C 0.27805 0.1318 0.5366 0.0
C672 C 0.29727 0.16473 0.52477 0.0
C673 C 0.28889 0.17803 0.54145 0.0
C674 C 0.2755 0.16788 0.55611 0.0
C675 C 0.27012 0.14496 0.55371 0.0
H676 H 0.2965 0.8325 0.96652 0.0
H677 H 0.27458 0.81483 0.89763 0.0
H678 H 0.30161 0.87134 0.95935 0.0
H679 H 0.27989 0.85353 0.8905 0.0
H680 H 0.26376 0.92552 0.8929 0.0
H681 H 0.26124 0.88688 0.90033 0.0
H682 H 0.32431 0.89767 0.93921 0.0
H683 H 0.32704 0.93648 0.9315 0.0
C684 C 0.29298 0.83686 0.94983 0.0
C685 C 0.28501 0.82059 0.93267 0.0
C686 C 0.29599 0.8591 0.94571 0.0
C687 C 0.29098 0.8655 0.9244 0.0
C688 C 0.28356 0.84914 0.90716 0.0
C689 C 0.28065 0.82695 0.91124 0.0
C690 C 0.27725 0.91964 0.90281 0.0
C691 C 0.29572 0.93407 0.91141 0.0
C692 C 0.27578 0.89749 0.90709 0.0
C693 C 0.29267 0.88918 0.92019 0.0
C694 C 0.31097 0.90364 0.92916 0.0
C695 C 0.31251 0.92586 0.92478 0.0
H696 H 0.68664 0.30191 0.3622 0.0
H697 H 0.68494 0.26178 0.41725 0.0
H698 H 0.67194 0.3317 0.38415 0.0
H699 H 0.67097 0.29162 0.43931 0.0
H700 H 0.67635 0.38794 0.44133 0.0
H701 H 0.68486 0.3581 0.41522 0.0
H702 H 0.64034 0.31245 0.44432 0.0
H703 H 0.63191 0.3423 0.47039 0.0
C704 C 0.68302 0.2994 0.37892 0.0
C705 C 0.68704 0.27952 0.388 0.0
C706 C 0.67473 0.31652 0.39155 0.0
C707 C 0.67037 0.31413 0.41354 0.0
C708 C 0.67382 0.29397 0.42235 0.0
C709 C 0.68198 0.27686 0.40971 0.0
C710 C 0.66797 0.37165 0.44184 0.0
C711 C 0.65344 0.36748 0.45804 0.0
C712 C 0.67286 0.35451 0.42684 0.0
C713 C 0.66334 0.33282 0.42773 0.0
C714 C 0.64818 0.32888 0.44337 0.0
C715 C 0.64331 0.34599 0.4583 0.0
H716 H 0.65681 0.66022 0.05831 0.0
H717 H 0.69651 0.67294 0.00454 0.0
H718 H 0.67809 0.6293 0.06671 0.0
H719 H 0.71807 0.64213 0.01327 0.0
H720 H 0.76652 0.60663 0.06189 0.0
H721 H 0.74448 0.63509 0.04778 0.0
H722 H 0.6852 0.59109 0.04736 0.0
H723 H 0.70725 0.56257 0.06123 0.0
C724 C 0.67006 0.65639 0.04828 0.0
C725 C 0.67502 0.66903 0.0308 0.0
C726 C 0.68212 0.63861 0.05299 0.0
C727 C 0.69965 0.63332 0.04058 0.0
C728 C 0.70464 0.64591 0.02309 0.0
C729 C 0.69229 0.66347 0.01809 0.0
C730 C 0.74882 0.60297 0.05841 0.0
C731 C 0.73855 0.58245 0.06261 0.0
C732 C 0.73625 0.61918 0.05028 0.0
C733 C 0.71316 0.61528 0.04661 0.0
C734 C 0.70297 0.59452 0.05017 0.0
C735 C 0.71558 0.57818 0.05793 0.0
H736 H 0.59541 0.32169 0.23308 0.0
H737 H 0.52517 0.30288 0.22841 0.0
H738 H 0.59744 0.30238 0.19667 0.0
H739 H 0.52713 0.28402 0.19202 0.0
H740 H 0.53731 0.23942 0.13302 0.0
H741 H 0.54087 0.25278 0.1721 0.0
H742 H 0.58522 0.30804 0.1586 0.0
H743 H 0.58181 0.29451 0.11959 0.0
C744 C 0.58044 0.31331 0.22437 0.0
C745 C 0.5601 0.3139 0.2336 0.0
C746 C 0.58159 0.30233 0.20347 0.0
C747 C 0.56246 0.29166 0.19142 0.0
C748 C 0.54226 0.29176 0.20097 0.0
C749 C 0.5411 0.30274 0.22179 0.0
C750 C 0.54807 0.25424 0.1385 0.0
C751 C 0.55912 0.26603 0.12324 0.0
C752 C 0.55005 0.26194 0.16085 0.0
C753 C 0.56307 0.28165 0.16843 0.0
C754 C 0.57519 0.29271 0.15336 0.0
C755 C 0.57326 0.28495 0.13099 0.0
H756 H 0.97036 0.33498 0.84993 0.0
H757 H 0.03341 0.33483 0.88785 0.0
H758 H 0.95168 0.33265 0.88347 0.0
H759 H 0.01479 0.33334 0.9216 0.0
H760 H 0.97234 0.30373 0.97247 0.0
H761 H 0.99219 0.30837 0.93986 0.0
H762 H 0.94495 0.35239 0.917 0.0
H763 H 0.92482 0.34715 0.94936 0.0
C764 C 0.98026 0.33473 0.86549 0.0
C765 C 0.00336 0.33501 0.86622 0.0
C766 C 0.96955 0.33354 0.88477 0.0
C767 C 0.9817 0.3328 0.90531 0.0
C768 C 0.00487 0.3335 0.90606 0.0
C769 C 0.01557 0.3345 0.88672 0.0
C770 C 0.96637 0.31456 0.96056 0.0
C771 C 0.94701 0.32502 0.96338 0.0
C772 C 0.97776 0.31729 0.94188 0.0
C773 C 0.97016 0.33071 0.9257 0.0
C774 C 0.95105 0.34159 0.92887 0.0
C775 C 0.93955 0.33867 0.94744 0.0
H776 H 0.4634 0.66028 0.26462 0.0
H777 H 0.39446 0.66413 0.27449 0.0
H778 H 0.46962 0.64659 0.30057 0.0
H779 H 0.40064 0.64987 0.31061 0.0
H780 H 0.43432 0.66014 0.38434 0.0
H781 H 0.41986 0.66422 0.34648 0.0
H782 H 0.46247 0.61638 0.32234 0.0
H783 H 0.47669 0.61215 0.36005 0.0
C784 C 0.44945 0.6578 0.2743 0.0
C785 C 0.42845 0.66335 0.2667 0.0
C786 C 0.45299 0.64981 0.29493 0.0
C787 C 0.4356 0.64706 0.30849 0.0
C788 C 0.4144 0.65197 0.30063 0.0
C789 C 0.41086 0.66003 0.27991 0.0
C790 C 0.4399 0.64985 0.37095 0.0
C791 C 0.45684 0.63607 0.37505 0.0
C792 C 0.43166 0.65221 0.34924 0.0
C793 C 0.44029 0.64085 0.33134 0.0
C794 C 0.45569 0.62553 0.3357 0.0
C795 C 0.46383 0.62311 0.3573 0.0
H796 H 0.98611 0.65861 0.65212 0.0
H797 H 0.04528 0.67463 0.69658 0.0
H798 H 0.00175 0.68197 0.62553 0.0
H799 H 0.06078 0.698 0.67008 0.0
H800 H 0.07079 0.7558 0.62771 0.0
H801 H 0.05269 0.73366 0.65363 0.0
H802 H 0.03415 0.68147 0.60155 0.0
H803 H 0.05283 0.70326 0.57565 0.0
C804 C 0.00241 0.66715 0.65624 0.0
C805 C 0.01447 0.66477 0.67644 0.0
C806 C 0.01137 0.68044 0.64099 0.0
C807 C 0.03243 0.69184 0.64578 0.0
C808 C 0.0444 0.68959 0.66605 0.0
C809 C 0.03558 0.6761 0.68116 0.0
C810 C 0.06296 0.73957 0.62175 0.0
C811 C 0.06349 0.73126 0.5996 0.0
C812 C 0.05254 0.72693 0.63661 0.0
C813 C 0.04216 0.7058 0.62963 0.0
C814 C 0.0419 0.69778 0.60734 0.0
C815 C 0.05253 0.71033 0.59249 0.0
H816 H 0.7928 0.37709 0.71005 0.0
H817 H 0.79368 0.31342 0.67347 0.0
H818 H 0.83121 0.38634 0.70345 0.0
H819 H 0.8322 0.32262 0.66709 0.0
H820 H 0.89073 0.35944 0.63757 0.0
H821 H 0.85315 0.34828 0.64564 0.0
H822 H 0.86865 0.37585 0.71323 0.0
H823 H 0.90632 0.38683 0.70525 0.0
C824 C 0.80123 0.36499 0.70075 0.0
C825 C 0.79016 0.34454 0.69225 0.0
C826 C 0.82329 0.37026 0.69706 0.0
C827 C 0.83474 0.35522 0.68471 0.0
C828 C 0.82375 0.33465 0.67645 0.0
C829 C 0.80172 0.32934 0.68022 0.0
C830 C 0.88623 0.36285 0.65423 0.0
C831 C 0.90154 0.3741 0.67074 0.0
C832 C 0.86468 0.35647 0.65885 0.0
C833 C 0.8579 0.36123 0.68006 0.0
C834 C 0.87327 0.37223 0.69664 0.0
C835 C 0.89484 0.37855 0.69205 0.0
H836 H 0.69327 0.65047 0.30846 0.0
H837 H 0.69375 0.67003 0.24203 0.0
H838 H 0.65402 0.63772 0.30117 0.0
H839 H 0.65463 0.65685 0.23469 0.0
H840 H 0.57836 0.6329 0.28298 0.0
H841 H 0.61527 0.65295 0.28993 0.0
H842 H 0.6363 0.61575 0.23334 0.0
H843 H 0.59965 0.59543 0.22676 0.0
C844 C 0.68493 0.6523 0.29242 0.0
C845 C 0.6966 0.66116 0.27579 0.0
C846 C 0.66248 0.64511 0.2883 0.0
C847 C 0.6514 0.64626 0.26736 0.0
C848 C 0.66286 0.65574 0.25095 0.0
C849 C 0.6852 0.66334 0.2552 0.0
C850 C 0.59083 0.62934 0.27188 0.0
C851 C 0.5863 0.61272 0.25435 0.0
C852 C 0.61188 0.64068 0.2759 0.0
C853 C 0.62854 0.63588 0.26214 0.0
C854 C 0.62367 0.61989 0.24406 0.0
C855 C 0.6028 0.60824 0.24034 0.0
H856 H 0.37558 0.04613 0.3038 0.0
H857 H 0.33572 0.98426 0.28591 0.0
H858 H 0.40904 0.02692 0.30186 0.0
H859 H 0.36903 0.96511 0.28438 0.0
H860 H 0.43178 0.94017 0.26238 0.0
H861 H 0.40003 0.96183 0.26224 0.0
H862 H 0.42908 0.0002 0.32189 0.0
H863 H 0.46107 0.97849 0.32191 0.0
C864 C 0.37395 0.02845 0.29942 0.0
C865 C 0.35299 0.01672 0.29497 0.0
C866 C 0.39312 0.01745 0.29845 0.0
C867 C 0.3917 0.9945 0.29293 0.0
C868 C 0.37072 0.98284 0.28835 0.0
C869 C 0.3516 0.99382 0.28934 0.0
C870 C 0.43137 0.95321 0.27549 0.0
C871 C 0.44875 0.95745 0.29234 0.0
C872 C 0.41318 0.96561 0.27542 0.0
C873 C 0.4119 0.98255 0.2922 0.0
C874 C 0.42965 0.98734 0.30864 0.0
C875 C 0.44793 0.97492 0.30869 0.0
H876 H 0.11643 0.00846 0.67421 0.0
H877 H 0.15167 0.07264 0.69262 0.0
H878 H 0.08138 0.02503 0.67459 0.0
H879 H 0.11675 0.08907 0.69367 0.0
H880 H 0.05266 0.11608 0.67219 0.0
H881 H 0.08666 0.09813 0.66965 0.0
H882 H 0.05746 0.04195 0.6991 0.0
H883 H 0.0232 0.05985 0.70116 0.0
C884 C 0.11669 0.02608 0.67845 0.0
C885 C 0.13683 0.03924 0.6833 0.0
C886 C 0.0966 0.03557 0.67879 0.0
C887 C 0.09621 0.05842 0.68406 0.0
C888 C 0.1164 0.0715 0.6891 0.0
C889 C 0.13645 0.06204 0.68865 0.0
C890 C 0.05352 0.09989 0.67811 0.0
C891 C 0.03535 0.08942 0.68702 0.0
C892 C 0.07303 0.08962 0.67673 0.0
C893 C 0.07493 0.06869 0.68441 0.0
C894 C 0.05652 0.05798 0.69284 0.0
C895 C 0.03691 0.06822 0.69406 0.0
H896 H 0.71305 0.79032 0.43635 0.0
H897 H 0.70079 0.80365 0.36816 0.0
H898 H 0.71122 0.82915 0.44799 0.0
H899 H 0.69964 0.84277 0.37979 0.0
H900 H 0.6733 0.90571 0.41169 0.0
H901 H 0.67676 0.86741 0.39813 0.0
H902 H 0.7308 0.8646 0.44811 0.0
H903 H 0.72691 0.90258 0.46187 0.0
C904 C 0.71021 0.8016 0.42381 0.0
C905 C 0.70705 0.79389 0.40133 0.0
C906 C 0.70929 0.82392 0.43048 0.0
C907 C 0.70535 0.83915 0.41483 0.0
C908 C 0.70243 0.83147 0.3923 0.0
C909 C 0.70323 0.80907 0.38562 0.0
C910 C 0.68601 0.8969 0.4196 0.0
C911 C 0.69967 0.90699 0.43796 0.0
C912 C 0.68806 0.875 0.41182 0.0
C913 C 0.70394 0.86283 0.42215 0.0
C914 C 0.71805 0.87327 0.44007 0.0
C915 C 0.71588 0.89505 0.44793 0.0
H916 H 0.71655 0.15178 0.01951 0.0
H917 H 0.70943 0.12597 0.95089 0.0
H918 H 0.72334 0.11519 0.0304 0.0
H919 H 0.71631 0.08936 0.96185 0.0
H920 H 0.70223 0.02374 0.99439 0.0
H921 H 0.69733 0.06004 0.98177 0.0
H922 H 0.75215 0.08855 0.02747 0.0
H923 H 0.75741 0.05217 0.03983 0.0
C924 C 0.71645 0.13831 0.00675 0.0
C925 C 0.71242 0.14177 0.98433 0.0
C926 C 0.72049 0.11739 0.01299 0.0
C927 C 0.72042 0.09943 0.99697 0.0
C928 C 0.71631 0.10286 0.97456 0.0
C929 C 0.71245 0.12384 0.9683 0.0
C930 C 0.71354 0.03764 0.00146 0.0
C931 C 0.7302 0.03501 0.01818 0.0
C932 C 0.71066 0.05846 0.99427 0.0
C933 C 0.72427 0.07715 0.00373 0.0
C934 C 0.74119 0.07449 0.02012 0.0
C935 C 0.74418 0.05365 0.02721 0.0
H936 H 0.29851 0.70509 0.68876 0.0
H937 H 0.32851 0.71521 0.62826 0.0
H938 H 0.29578 0.66524 0.6794 0.0
H939 H 0.32551 0.67547 0.61877 0.0
H940 H 0.33024 0.60209 0.61318 0.0
H941 H 0.33802 0.64067 0.62781 0.0
H942 H 0.2738 0.63913 0.65284 0.0
H943 H 0.26591 0.60077 0.6381 0.0
C944 C 0.30468 0.69882 0.67356 0.0
C945 C 0.31352 0.71333 0.65915 0.0
C946 C 0.30297 0.67598 0.66811 0.0
C947 C 0.31019 0.66715 0.64821 0.0
C948 C 0.31993 0.68166 0.6343 0.0
C949 C 0.32154 0.70448 0.6397 0.0
C950 C 0.31778 0.60999 0.62182 0.0
C951 C 0.29735 0.59836 0.62427 0.0
C952 C 0.32225 0.6321 0.63018 0.0
C953 C 0.30647 0.64306 0.64131 0.0
C954 C 0.28646 0.63114 0.64461 0.0
C955 C 0.28194 0.60908 0.63617 0.0
H956 H 0.33443 0.3835 0.0499 0.0
H957 H 0.30534 0.34134 0.99262 0.0
H958 H 0.33334 0.41554 0.0285 0.0
H959 H 0.3038 0.37334 0.97145 0.0
H960 H 0.32444 0.4302 0.9329 0.0
H961 H 0.32842 0.39946 0.95555 0.0
H962 H 0.30728 0.43839 0.01107 0.0
H963 H 0.30354 0.46927 0.98838 0.0
C964 C 0.32768 0.38108 0.03279 0.0
C965 C 0.32002 0.35986 0.02294 0.0
C966 C 0.32698 0.39946 0.02056 0.0
C967 C 0.31862 0.39698 0.99822 0.0
C968 C 0.31075 0.37577 0.98849 0.0
C969 C 0.31147 0.35744 0.00069 0.0
C970 C 0.32073 0.4322 0.94997 0.0
C971 C 0.31353 0.45207 0.95883 0.0
C972 C 0.32293 0.41458 0.96293 0.0
C973 C 0.31789 0.41637 0.98504 0.0
C974 C 0.31145 0.43653 0.99414 0.0
C975 C 0.30933 0.45422 0.98117 0.0
H976 H 0.37591 0.69061 0.78671 0.0
H977 H 0.31163 0.66173 0.79947 0.0
H978 H 0.38935 0.68836 0.82504 0.0
H979 H 0.32487 0.66015 0.83811 0.0
H980 H 0.36394 0.63758 0.89884 0.0
H981 H 0.34891 0.64064 0.86096 0.0
H982 H 0.38657 0.704 0.86157 0.0
H983 H 0.4019 0.70062 0.89915 0.0
C984 C 0.36456 0.68401 0.79777 0.0
C985 C 0.3427 0.67634 0.79003 0.0
C986 C 0.37223 0.68283 0.81982 0.0
C987 C 0.3582 0.6741 0.83474 0.0
C988 C 0.33623 0.66667 0.82703 0.0
C989 C 0.32859 0.66771 0.80491 0.0
C990 C 0.36887 0.6522 0.89087 0.0
C991 C 0.38426 0.66875 0.90185 0.0
C992 C 0.36021 0.65402 0.8692 0.0
C993 C 0.36663 0.67252 0.85811 0.0
C994 C 0.38163 0.6893 0.86938 0.0
C995 C 0.3904 0.68739 0.89094 0.0
H996 H 0.96763 0.70448 0.14061 0.0
H997 H 0.03712 0.71585 0.16283 0.0
H998 H 0.97615 0.70923 0.10283 0.0
H999 H 0.04556 0.72109 0.12521 0.0
H1000 H 0.05473 0.70309 0.05275 0.0
H1001 H 0.04567 0.69926 0.09039 0.0
H1002 H 0.98942 0.73682 0.07921 0.0
H1003 H 0.99847 0.74055 0.04133 0.0
C1004 C 0.98471 0.70811 0.13746 0.0
C1005 C 0.00171 0.70967 0.15472 0.0
C1006 C 0.98957 0.71098 0.11582 0.0
C1007 C 0.01155 0.71547 0.11096 0.0
C1008 C 0.02849 0.71729 0.1283 0.0
C1009 C 0.02364 0.71439 0.1499 0.0
C1010 C 0.04056 0.71075 0.05838 0.0
C1011 C 0.02741 0.72227 0.04409 0.0
C1012 C 0.03536 0.70856 0.07998 0.0
C1013 C 0.01689 0.71784 0.08788 0.0
C1014 C 0.00363 0.72927 0.07357 0.0
C1015 C 0.00882 0.73143 0.05188 0.0
H1016 H 0.62955 0.32814 0.71147 0.0
H1017 H 0.68067 0.29123 0.68571 0.0
H1018 H 0.61274 0.32973 0.67425 0.0
H1019 H 0.66426 0.29341 0.64825 0.0
H1020 H 0.59367 0.3432 0.6049 0.0
H1021 H 0.61524 0.34466 0.64062 0.0
H1022 H 0.63395 0.27896 0.62376 0.0
H1023 H 0.61327 0.27815 0.58764 0.0
C1024 C 0.63737 0.32058 0.69781 0.0
C1025 C 0.65636 0.30942 0.70158 0.0
C1026 C 0.62779 0.32162 0.67637 0.0
C1027 C 0.63705 0.31163 0.65809 0.0
C1028 C 0.65638 0.3009 0.66188 0.0
C1029 C 0.66592 0.2998 0.68338 0.0
C1030 C 0.60262 0.32922 0.60886 0.0
C1031 C 0.60171 0.31048 0.59374 0.0
C1032 C 0.61482 0.32995 0.62936 0.0
C1033 C 0.62604 0.31179 0.63535 0.0
C1034 C 0.62573 0.29336 0.61975 0.0
C1035 C 0.61381 0.2928 0.59909 0.0
H1036 H 0.04164 0.27729 0.32795 0.0
H1037 H 0.09136 0.29878 0.38184 0.0
H1038 H 0.01448 0.27081 0.35422 0.0
H1039 H 0.06424 0.29172 0.40824 0.0
H1040 H 0.00228 0.30265 0.44552 0.0
H1041 H 0.03166 0.30688 0.42094 0.0
H1042 H 0.00441 0.24697 0.38181 0.0
H1043 H 0.97491 0.24303 0.40616 0.0
C1044 C 0.04684 0.2804 0.34542 0.0
C1045 C 0.06865 0.2886 0.3528 0.0
C1046 C 0.03129 0.27655 0.36052 0.0
C1047 C 0.03718 0.28071 0.38337 0.0
C1048 C 0.05909 0.28861 0.39075 0.0
C1049 C 0.07465 0.29253 0.37563 0.0
C1050 C 0.00278 0.29027 0.43182 0.0
C1051 C 0.98621 0.27264 0.42761 0.0
C1052 C 0.01962 0.29265 0.41775 0.0
C1053 C 0.02029 0.27736 0.39928 0.0
C1054 C 0.00412 0.2593 0.39559 0.0
C1055 C 0.98725 0.25701 0.40956 0.0
H1056 H 0.34168 0.53969 0.44965 0.0
H1057 H 0.27815 0.56595 0.44124 0.0
H1058 H 0.33569 0.53399 0.4879 0.0
H1059 H 0.27233 0.56045 0.47948 0.0
H1060 H 0.26054 0.53352 0.54447 0.0
H1061 H 0.26638 0.53187 0.50526 0.0
H1062 H 0.33419 0.5584 0.52194 0.0
H1063 H 0.32847 0.55954 0.56111 0.0
C1064 C 0.32638 0.54412 0.45589 0.0
C1065 C 0.31045 0.55341 0.4424 0.0
C1066 C 0.323 0.54092 0.47783 0.0
C1067 C 0.30357 0.5468 0.48673 0.0
C1068 C 0.28737 0.55549 0.47305 0.0
C1069 C 0.29078 0.5588 0.45116 0.0
C1070 C 0.27682 0.5385 0.53976 0.0
C1071 C 0.29402 0.54677 0.55584 0.0
C1072 C 0.2801 0.53779 0.51731 0.0
C1073 C 0.30068 0.54519 0.5105 0.0
C1074 C 0.31817 0.55244 0.52664 0.0
C1075 C 0.31486 0.55327 0.54906 0.0
H1076 H 0.23502 0.46031 0.77225 0.0
H1077 H 0.21519 0.40141 0.80295 0.0
H1078 H 0.25258 0.47729 0.80766 0.0
H1079 H 0.23358 0.41784 0.83803 0.0
H1080 H 0.25175 0.45772 0.9027 0.0
H1081 H 0.23149 0.44449 0.86731 0.0
H1082 H 0.28328 0.47622 0.83347 0.0
H1083 H 0.30287 0.49033 0.86911 0.0
C1084 C 0.23454 0.45094 0.78655 0.0
C1085 C 0.22366 0.42954 0.78481 0.0
C1086 C 0.24472 0.46063 0.80685 0.0
C1087 C 0.24452 0.44902 0.82583 0.0
C1088 C 0.23369 0.42754 0.82397 0.0
C1089 C 0.22325 0.41801 0.80377 0.0
C1090 C 0.2586 0.46203 0.88763 0.0
C1091 C 0.27884 0.47493 0.88851 0.0
C1092 C 0.24713 0.4543 0.86734 0.0
C1093 C 0.25586 0.45895 0.84742 0.0
C1094 C 0.27589 0.47247 0.8484 0.0
C1095 C 0.28718 0.48051 0.86878 0.0
H1096 H 0.66322 0.96531 0.61645 0.0
H1097 H 0.7343 0.9671 0.61873 0.0
H1098 H 0.66115 0.966 0.57641 0.0
H1099 H 0.73224 0.96847 0.57878 0.0
H1100 H 0.66838 0.93365 0.50582 0.0
H1101 H 0.66945 0.93838 0.54602 0.0
H1102 H 0.72055 0.99213 0.54781 0.0
H1103 H 0.71947 0.98732 0.50738 0.0
C1104 C 0.67844 0.9662 0.60846 0.0
C1105 C 0.69897 0.96658 0.62087 0.0
C1106 C 0.67723 0.96658 0.58554 0.0
C1107 C 0.69653 0.96738 0.5745 0.0
C1108 C 0.71712 0.9683 0.58692 0.0
C1109 C 0.71832 0.96773 0.60987 0.0
C1110 C 0.67973 0.94657 0.51481 0.0
C1111 C 0.69389 0.96007 0.50356 0.0
C1112 C 0.68024 0.94938 0.53778 0.0
C1113 C 0.6951 0.96562 0.55003 0.0
C1114 C 0.70903 0.97941 0.53876 0.0
C1115 C 0.7083 0.97678 0.51569 0.0
H1116 H 0.75268 0.02536 0.19957 0.0
H1117 H 0.74791 0.95397 0.19379 0.0
H1118 H 0.75159 0.02496 0.15951 0.0
H1119 H 0.74721 0.95363 0.15378 0.0
H1120 H 0.71596 0.96276 0.08389 0.0
H1121 H 0.72102 0.96204 0.12385 0.0
H1122 H 0.77218 0.01601 0.12772 0.0
H1123 H 0.76715 0.0167 0.08768 0.0
C1124 C 0.75168 0.00959 0.18979 0.0
C1125 C 0.75023 0.9897 0.1999 0.0
C1126 C 0.75116 0.00937 0.16682 0.0
C1127 C 0.74917 0.98926 0.15344 0.0
C1128 C 0.74839 0.96939 0.1636 0.0
C1129 C 0.74893 0.96961 0.18655 0.0
C1130 C 0.72853 0.97424 0.09321 0.0
C1131 C 0.74111 0.98982 0.0826 0.0
C1132 C 0.73143 0.97384 0.11613 0.0
C1133 C 0.74698 0.989 0.12898 0.0
C1134 C 0.75984 0.00432 0.11833 0.0
C1135 C 0.75695 0.00472 0.0954 0.0
H1136 H 0.40758 0.31144 0.52709 0.0
H1137 H 0.41968 0.32148 0.5982 0.0
H1138 H 0.44698 0.30891 0.52423 0.0
H1139 H 0.45902 0.31927 0.59527 0.0
H1140 H 0.52393 0.29017 0.58279 0.0
H1141 H 0.48445 0.29206 0.58501 0.0
H1142 H 0.48209 0.33256 0.53021 0.0
H1143 H 0.52172 0.33077 0.52804 0.0
C1144 C 0.41862 0.31312 0.54211 0.0
C1145 C 0.41045 0.31663 0.56288 0.0
C1146 C 0.44121 0.31181 0.54044 0.0
C1147 C 0.45613 0.3139 0.55951 0.0
C1148 C 0.44794 0.31732 0.58027 0.0
C1149 C 0.42538 0.31869 0.58194 0.0
C1150 C 0.51505 0.29968 0.57135 0.0
C1151 C 0.52602 0.31044 0.55532 0.0
C1152 C 0.49241 0.30073 0.57261 0.0
C1153 C 0.48015 0.31252 0.55784 0.0
C1154 C 0.49103 0.32312 0.54166 0.0
C1155 C 0.51373 0.3221 0.54042 0.0
H1156 H 0.18826 0.74833 0.94021 0.0
H1157 H 0.20395 0.75303 0.01097 0.0
H1158 H 0.14897 0.7439 0.94543 0.0
H1159 H 0.16473 0.74904 0.01614 0.0
H1160 H 0.09657 0.71186 0.01538 0.0
H1161 H 0.13541 0.71911 0.00972 0.0
H1162 H 0.11819 0.76237 0.95965 0.0
H1163 H 0.07914 0.75506 0.96534 0.0
C1164 C 0.18334 0.74872 0.95689 0.0
C1165 C 0.19927 0.75084 0.97517 0.0
C1166 C 0.16081 0.74626 0.95987 0.0
C1167 C 0.15373 0.74588 0.98119 0.0
C1168 C 0.16965 0.74883 0.99947 0.0
C1169 C 0.19215 0.75126 0.99651 0.0
C1170 C 0.10107 0.72307 0.0033 0.0
C1171 C 0.08478 0.73301 0.99093 0.0
C1172 C 0.12334 0.72727 7e-05 0.0
C1173 C 0.12993 0.7415 0.98439 0.0
C1174 C 0.11364 0.75121 0.97176 0.0
C1175 C 0.09128 0.747 0.97499 0.0
H1176 H 0.80485 0.19707 0.3818 0.0
H1177 H 0.79309 0.26602 0.38231 0.0
H1178 H 0.84214 0.20743 0.39882 0.0
H1179 H 0.83072 0.27639 0.39915 0.0
H1180 H 0.88957 0.28315 0.4534 0.0
H1181 H 0.85237 0.27386 0.43501 0.0
H1182 H 0.87746 0.22518 0.39045 0.0
H1183 H 0.91438 0.23395 0.40919 0.0
C1184 C 0.81027 0.21446 0.38535 0.0
C1185 C 0.79595 0.23072 0.3807 0.0
C1186 C 0.83171 0.2204 0.39503 0.0
C1187 C 0.83937 0.24272 0.40036 0.0
C1188 C 0.82519 0.25903 0.39545 0.0
C1189 C 0.80371 0.25309 0.38565 0.0
C1190 C 0.88707 0.27037 0.43977 0.0
C1191 C 0.9049 0.25928 0.43275 0.0
C1192 C 0.86584 0.26524 0.42908 0.0
C1193 C 0.86199 0.24882 0.41125 0.0
C1194 C 0.87985 0.23778 0.40424 0.0
C1195 C 0.90103 0.24295 0.41485 0.0
H1196 H 0.56142 0.695 0.01367 0.0
H1197 H 0.56554 0.71221 0.94674 0.0
H1198 H 0.52203 0.68419 0.00538 0.0
H1199 H 0.52632 0.70086 0.93831 0.0
H1200 H 0.45215 0.70527 0.939 0.0
H1201 H 0.4918 0.71417 0.94716 0.0
H1202 H 0.49509 0.65729 0.98468 0.0
H1203 H 0.45527 0.64854 0.97665 0.0
C1204 C 0.554 0.69621 0.9971 0.0
C1205 C 0.56663 0.70461 0.98091 0.0
C1206 C 0.53141 0.68992 0.99233 0.0
C1207 C 0.52095 0.69182 0.97123 0.0
C1208 C 0.53374 0.6996 0.95486 0.0
C1209 C 0.55629 0.70596 0.95965 0.0
C1210 C 0.46137 0.69458 0.94887 0.0
C1211 C 0.45059 0.67615 0.9571 0.0
C1212 C 0.48411 0.69964 0.9535 0.0
C1213 C 0.49669 0.68635 0.96644 0.0
C1214 C 0.48588 0.66801 0.97485 0.0
C1215 C 0.46307 0.66299 0.97027 0.0
H1216 H 0.52567 0.42177 0.27371 0.0
H1217 H 0.59612 0.43963 0.27879 0.0
H1218 H 0.51915 0.45877 0.26366 0.0
H1219 H 0.58957 0.47654 0.26904 0.0
H1220 H 0.57193 0.53448 0.23213 0.0
H1221 H 0.57564 0.49587 0.23791 0.0
H1222 H 0.52353 0.49698 0.28168 0.0
H1223 H 0.51984 0.53572 0.2759 0.0
C1224 C 0.53976 0.43352 0.27258 0.0
C1225 C 0.56143 0.42773 0.27709 0.0
C1226 C 0.53601 0.45475 0.26695 0.0
C1227 C 0.55383 0.47058 0.26555 0.0
C1228 C 0.57547 0.46464 0.26969 0.0
C1229 C 0.57922 0.4435 0.27541 0.0
C1230 C 0.56124 0.52647 0.24297 0.0
C1231 C 0.54577 0.53822 0.25377 0.0
C1232 C 0.56337 0.50436 0.24628 0.0
C1233 C 0.55006 0.49343 0.26044 0.0
C1234 C 0.53393 0.50489 0.27054 0.0
C1235 C 0.53181 0.52707 0.26723 0.0
H1236 H 0.00926 0.25711 0.78678 0.0
H1237 H 0.03252 0.27562 0.72536 0.0
H1238 H 0.00166 0.21892 0.77077 0.0
H1239 H 0.02367 0.2377 0.70903 0.0
H1240 H 0.98203 0.17061 0.68411 0.0
H1241 H 0.98803 0.20927 0.69985 0.0
H1242 H 0.02658 0.18928 0.75615 0.0
H1243 H 0.02085 0.15083 0.7403 0.0
C1244 C 0.0125 0.25313 0.76978 0.0
C1245 C 0.02087 0.26964 0.75714 0.0
C1246 C 0.00811 0.23128 0.76064 0.0
C1247 C 0.01182 0.22547 0.73861 0.0
C1248 C 0.02019 0.24188 0.72592 0.0
C1249 C 0.02496 0.2637 0.73519 0.0
C1250 C 0.99165 0.17455 0.69991 0.0
C1251 C 0.00102 0.15785 0.71103 0.0
C1252 C 0.99519 0.19659 0.70881 0.0
C1253 C 0.00776 0.20218 0.72918 0.0
C1254 C 0.01672 0.18538 0.74048 0.0
C1255 C 0.01354 0.16345 0.7314 0.0
H1256 H 0.4014 0.78712 0.23929 0.0
H1257 H 0.4672 0.76572 0.23941 0.0
H1258 H 0.41669 0.82316 0.25659 0.0
H1259 H 0.48247 0.80182 0.25699 0.0
H1260 H 0.49907 0.87861 0.25957 0.0
H1261 H 0.48668 0.84027 0.24663 0.0
H1262 H 0.4356 0.8409 0.29157 0.0
H1263 H 0.44803 0.87917 0.30455 0.0
C1264 C 0.41911 0.79004 0.24314 0.0
C1265 C 0.43307 0.77354 0.23789 0.0
C1266 C 0.42787 0.81066 0.25321 0.0
C1267 C 0.45079 0.81531 0.25822 0.0
C1268 C 0.46476 0.79877 0.25318 0.0
C1269 C 0.45598 0.77807 0.24319 0.0
C1270 C 0.48553 0.8704 0.26703 0.0
C1271 C 0.47438 0.88197 0.28291 0.0
C1272 C 0.4784 0.84845 0.2596 0.0
C1273 C 0.45998 0.83766 0.26788 0.0
C1274 C 0.44956 0.84891 0.28455 0.0
C1275 C 0.45669 0.8708 0.292 0.0
H1276 H 0.00621 0.5347 0.74474 0.0
H1277 H 0.9779 0.55158 0.68168 0.0
H1278 H 4e-05 0.49563 0.73175 0.0
H1279 H 0.97148 0.51245 0.66884 0.0
H1280 H 0.97713 0.44039 0.64656 0.0
H1281 H 0.98969 0.47884 0.65913 0.0
H1282 H 0.96741 0.46913 0.7233 0.0
H1283 H 0.95542 0.43064 0.71092 0.0
C1284 C 0.99881 0.53012 0.72805 0.0
C1285 C 0.99241 0.54631 0.71431 0.0
C1286 C 0.99519 0.5077 0.72065 0.0
C1287 C 0.98514 0.50092 0.69932 0.0
C1288 C 0.97944 0.51712 0.6853 0.0
C1289 C 0.98301 0.53957 0.69272 0.0
C1290 C 0.97532 0.44638 0.66348 0.0
C1291 C 0.9652 0.43253 0.67773 0.0
C1292 C 0.98229 0.46845 0.6706 0.0
C1293 C 0.97944 0.47708 0.69217 0.0
C1294 C 0.97003 0.46297 0.70664 0.0
C1295 C 0.96297 0.44098 0.69949 0.0
H1296 H 0.66632 0.39006 0.65766 0.0
H1297 H 0.67937 0.32692 0.62648 0.0
H1298 H 0.65233 0.40102 0.6219 0.0
H1299 H 0.66572 0.33796 0.59067 0.0
H1300 H 0.62799 0.35928 0.53056 0.0
H1301 H 0.63262 0.3482 0.56807 0.0
H1302 H 0.67184 0.40978 0.58895 0.0
H1303 H 0.66745 0.42069 0.5515 0.0
C1304 C 0.66557 0.37828 0.64328 0.0
C1305 C 0.67359 0.35751 0.64489 0.0
C1306 C 0.65786 0.38467 0.62277 0.0
C1307 C 0.65797 0.37037 0.60349 0.0
C1308 C 0.66522 0.34927 0.60525 0.0
C1309 C 0.67318 0.343 0.62571 0.0
C1310 C 0.63744 0.3705 0.54317 0.0
C1311 C 0.6474 0.39081 0.53791 0.0
C1312 C 0.64007 0.36416 0.56466 0.0
C1313 C 0.65265 0.37809 0.58142 0.0
C1314 C 0.66178 0.39882 0.57644 0.0
C1315 C 0.65924 0.40509 0.55494 0.0
H1316 H 0.76763 0.6047 0.237 0.0
H1317 H 0.83249 0.63474 0.22799 0.0
H1318 H 0.76757 0.58156 0.20264 0.0
H1319 H 0.83278 0.61099 0.19366 0.0
H1320 H 0.80159 0.59583 0.11969 0.0
H1321 H 0.81213 0.61137 0.15756 0.0
H1322 H 0.78294 0.55206 0.18163 0.0
H1323 H 0.77155 0.53692 0.14381 0.0
C1324 C 0.78216 0.60589 0.22794 0.0
C1325 C 0.80009 0.62144 0.23523 0.0
C1326 C 0.78223 0.59248 0.20831 0.0
C1327 C 0.80018 0.59441 0.19536 0.0
C1328 C 0.81866 0.60918 0.20323 0.0
C1329 C 0.81863 0.62258 0.22304 0.0
C1330 C 0.79771 0.58598 0.13307 0.0
C1331 C 0.78537 0.56532 0.12873 0.0
C1332 C 0.80399 0.59478 0.15479 0.0
C1333 C 0.7981 0.58307 0.17264 0.0
C1334 C 0.78741 0.56163 0.16824 0.0
C1335 C 0.78108 0.55286 0.14652 0.0
H1336 H 0.29798 0.03804 0.37964 0.0
H1337 H 0.22859 0.04506 0.36494 0.0
H1338 H 0.29344 0.04206 0.41896 0.0
H1339 H 0.22375 0.04804 0.40436 0.0
H1340 H 0.23551 0.08822 0.47358 0.0
H1341 H 0.23442 0.07618 0.43443 0.0
H1342 H 0.27766 0.02579 0.44957 0.0
H1343 H 0.27946 0.0385 0.48875 0.0
C1344 C 0.28164 0.03997 0.38484 0.0
C1345 C 0.26359 0.04091 0.36919 0.0
C1346 C 0.27898 0.04204 0.40738 0.0
C1347 C 0.25819 0.04522 0.41485 0.0
C1348 C 0.23999 0.04563 0.39916 0.0
C1349 C 0.24268 0.04355 0.37654 0.0
C1350 C 0.24461 0.07442 0.46856 0.0
C1351 C 0.25785 0.06454 0.48421 0.0
C1352 C 0.24379 0.06735 0.44612 0.0
C1353 C 0.25615 0.05017 0.43883 0.0
C1354 C 0.26823 0.03931 0.45463 0.0
C1355 C 0.26907 0.04643 0.4771 0.0
H1356 H 0.25557 0.04442 0.75782 0.0
H1357 H 0.23008 0.97598 0.74532 0.0
H1358 H 0.27005 0.03772 0.79491 0.0
H1359 H 0.24491 0.96902 0.78218 0.0
H1360 H 0.25221 0.96873 0.85649 0.0
H1361 H 0.23848 0.97637 0.81956 0.0
H1362 H 0.29727 0.02019 0.8157 0.0
H1363 H 0.31061 0.01297 0.85309 0.0
C1364 C 0.25353 0.02782 0.76285 0.0
C1365 C 0.24202 0.01063 0.74861 0.0
C1366 C 0.26176 0.02397 0.78414 0.0
C1367 C 0.25866 0.00282 0.79162 0.0
C1368 C 0.24727 0.98561 0.77718 0.0
C1369 C 0.23888 0.98953 0.756 0.0
C1370 C 0.2622 0.97996 0.8477 0.0
C1371 C 0.28252 0.99017 0.85758 0.0
C1372 C 0.2544 0.98427 0.82647 0.0
C1373 C 0.26685 0.99874 0.81448 0.0
C1374 C 0.28712 0.00915 0.82451 0.0
C1375 C 0.29481 0.005 0.84589 0.0
H1376 H 0.63041 0.68648 0.36927 0.0
H1377 H 0.64932 0.68055 0.43813 0.0
H1378 H 0.59225 0.67454 0.37457 0.0
H1379 H 0.61104 0.66888 0.44364 0.0
H1380 H 0.54129 0.63063 0.4392 0.0
H1381 H 0.58059 0.64021 0.43531 0.0
H1382 H 0.56293 0.68997 0.39219 0.0
H1383 H 0.52404 0.67995 0.39565 0.0
C1384 C 0.62638 0.68247 0.38552 0.0
C1385 C 0.64284 0.68414 0.4032 0.0
C1386 C 0.60451 0.67577 0.38863 0.0
C1387 C 0.59852 0.67095 0.40961 0.0
C1388 C 0.61512 0.67218 0.42722 0.0
C1389 C 0.63707 0.67875 0.42404 0.0
C1390 C 0.54598 0.64371 0.42908 0.0
C1391 C 0.52974 0.65438 0.4175 0.0
C1392 C 0.56841 0.64922 0.42683 0.0
C1393 C 0.5749 0.66559 0.4131 0.0
C1394 C 0.55854 0.67683 0.40235 0.0
C1395 C 0.53626 0.67122 0.40445 0.0
H1396 H 0.76408 0.2669 0.01647 0.0
H1397 H 0.76705 0.25296 0.94636 0.0
H1398 H 0.8017 0.28437 0.01996 0.0
H1399 H 0.80446 0.27122 0.9495 0.0
H1400 H 0.87902 0.27866 0.96735 0.0
H1401 H 0.8402 0.26484 0.96245 0.0
H1402 H 0.82614 0.31422 0.01322 0.0
H1403 H 0.86534 0.32728 0.0187 0.0
C1404 C 0.7726 0.2682 0.0017 0.0
C1405 C 0.76262 0.25883 0.98112 0.0
C1406 C 0.79421 0.27821 0.00366 0.0
C1407 C 0.80628 0.27923 0.98502 0.0
C1408 C 0.79592 0.27038 0.9643 0.0
C1409 C 0.77443 0.26006 0.96243 0.0
C1410 C 0.86754 0.28666 0.97729 0.0
C1411 C 0.87512 0.30401 0.9934 0.0
C1412 C 0.84523 0.27883 0.97443 0.0
C1413 C 0.82988 0.2884 0.98739 0.0
C1414 C 0.83748 0.30616 0.00319 0.0
C1415 C 0.8599 0.31375 0.00628 0.0
H1416 H 0.24954 0.81772 0.60454 0.0
H1417 H 0.22868 0.78962 0.66287 0.0
H1418 H 0.21129 0.81322 0.58797 0.0
H1419 H 0.19064 0.78479 0.64627 0.0
H1420 H 0.12175 0.79134 0.61729 0.0
H1421 H 0.15889 0.80491 0.63332 0.0
H1422 H 0.18576 0.77976 0.57396 0.0
H1423 H 0.1487 0.76591 0.558 0.0
C1424 C 0.23671 0.8112 0.61406 0.0
C1425 C 0.242 0.8043 0.63511 0.0
C1426 C 0.21488 0.80834 0.60447 0.0
C1427 C 0.19796 0.79868 0.61583 0.0
C1428 C 0.20322 0.79257 0.63721 0.0
C1429 C 0.22502 0.7952 0.64667 0.0
C1430 C 0.13557 0.7888 0.6076 0.0
C1431 C 0.13228 0.7773 0.58647 0.0
C1432 C 0.15682 0.79663 0.61677 0.0
C1433 C 0.17524 0.79326 0.60496 0.0
C1434 C 0.17186 0.78282 0.58337 0.0
C1435 C 0.15061 0.77488 0.57423 0.0
H1436 H 0.38155 0.23149 0.0476 0.0
H1437 H 0.40141 0.30038 0.04268 0.0
H1438 H 0.42002 0.22319 0.04736 0.0
H1439 H 0.43982 0.29235 0.04342 0.0
H1440 H 0.50669 0.27285 0.03356 0.0
H1441 H 0.46729 0.27444 0.02381 0.0
H1442 H 0.45239 0.23045 0.07362 0.0
H1443 H 0.49171 0.22815 0.08269 0.0
C1444 C 0.39403 0.24475 0.04589 0.0
C1445 C 0.38843 0.26652 0.04478 0.0
C1446 C 0.41612 0.24006 0.04609 0.0
C1447 C 0.43302 0.25708 0.04528 0.0
C1448 C 0.42725 0.27876 0.04364 0.0
C1449 C 0.40524 0.28342 0.04347 0.0
C1450 C 0.495 0.263 0.04196 0.0
C1451 C 0.50231 0.25059 0.05909 0.0
C1452 C 0.47242 0.26411 0.03655 0.0
C1453 C 0.45669 0.25285 0.04817 0.0
C1454 C 0.46401 0.23926 0.06426 0.0
C1455 C 0.48657 0.23812 0.06963 0.0
H1456 H 0.32702 0.60513 0.67671 0.0
H1457 H 0.38985 0.64283 0.67485 0.0
H1458 H 0.34264 0.57191 0.66201 0.0
H1459 H 0.40548 0.60963 0.6601 0.0
H1460 H 0.42633 0.53747 0.67172 0.0
H1461 H 0.41341 0.57408 0.67777 0.0
H1462 H 0.35933 0.55581 0.62757 0.0
H1463 H 0.37259 0.51939 0.62095 0.0
C1464 C 0.3441 0.60632 0.67291 0.0
C1465 C 0.35716 0.62656 0.67661 0.0
C1466 C 0.35298 0.5874 0.66433 0.0
C1467 C 0.37526 0.58826 0.65985 0.0
C1468 C 0.38826 0.60855 0.66336 0.0
C1469 C 0.37925 0.62756 0.67158 0.0
C1470 C 0.41214 0.54146 0.66143 0.0
C1471 C 0.40032 0.52536 0.64608 0.0
C1472 C 0.40468 0.56242 0.66496 0.0
C1473 C 0.38519 0.56762 0.65335 0.0
C1474 C 0.3742 0.55208 0.63699 0.0
C1475 C 0.3818 0.53124 0.63326 0.0
H1476 H 0.95631 0.76165 0.2616 0.0
H1477 H 0.02566 0.76912 0.28446 0.0
H1478 H 0.95223 0.79864 0.27867 0.0
H1479 H 0.02158 0.80614 0.3016 0.0
H1480 H 0.00616 0.88057 0.29608 0.0
H1481 H 0.0123 0.84238 0.2851 0.0
H1482 H 0.95554 0.81967 0.31753 0.0
H1483 H 0.94978 0.85781 0.32933 0.0
C1484 C 0.9706 0.77113 0.27052 0.0
C1485 C 0.99122 0.76246 0.27201 0.0
C1486 C 0.96825 0.7922 0.28038 0.0
C1487 C 0.98659 0.80516 0.29152 0.0
C1488 C 0.0072 0.79645 0.29313 0.0
C1489 C 0.00947 0.77521 0.28355 0.0
C1490 C 0.9953 0.86748 0.30139 0.0
C1491 C 0.97734 0.87235 0.31345 0.0
C1492 C 0.9988 0.8456 0.29502 0.0
C1493 C 0.98429 0.82813 0.30034 0.0
C1494 C 0.96679 0.83288 0.31297 0.0
C1495 C 0.96346 0.85473 0.31961 0.0
H1496 H 0.65902 0.22439 0.78724 0.0
H1497 H 0.60697 0.26282 0.80819 0.0
H1498 H 0.6355 0.19039 0.78967 0.0
H1499 H 0.58345 0.22878 0.81079 0.0
H1500 H 0.54293 0.16378 0.77535 0.0
H1501 H 0.56549 0.19904 0.78123 0.0
H1502 H 0.61651 0.16839 0.81764 0.0
H1503 H 0.59374 0.13319 0.81239 0.0
C1504 C 0.64269 0.22552 0.79275 0.0
C1505 C 0.63493 0.24618 0.79785 0.0
C1506 C 0.62928 0.2061 0.79426 0.0
C1507 C 0.60769 0.20697 0.80051 0.0
C1508 C 0.60004 0.22765 0.80596 0.0
C1509 C 0.61359 0.2471 0.80474 0.0
C1510 C 0.55867 0.16463 0.78515 0.0
C1511 C 0.5666 0.14555 0.79318 0.0
C1512 C 0.57162 0.18485 0.78846 0.0
C1513 C 0.59282 0.18637 0.79972 0.0
C1514 C 0.60035 0.16759 0.80863 0.0
C1515 C 0.58732 0.14744 0.80554 0.0
H1516 H 0.05452 0.36238 0.27103 0.0
H1517 H 0.1251 0.37874 0.28015 0.0
H1518 H 0.04927 0.40055 0.26382 0.0
H1519 H 0.1199 0.41689 0.27346 0.0
H1520 H 0.10666 0.47981 0.24482 0.0
H1521 H 0.10742 0.43984 0.24399 0.0
H1522 H 0.05439 0.4369 0.28663 0.0
H1523 H 0.05368 0.47696 0.28752 0.0
C1524 C 0.06892 0.374 0.27096 0.0
C1525 C 0.09025 0.36753 0.27572 0.0
C1526 C 0.0659 0.3959 0.26714 0.0
C1527 C 0.08417 0.41168 0.26791 0.0
C1528 C 0.1055 0.40505 0.27235 0.0
C1529 C 0.10849 0.38325 0.27635 0.0
C1530 C 0.09497 0.47058 0.25378 0.0
C1531 C 0.08032 0.48154 0.26649 0.0
C1532 C 0.09544 0.44772 0.25333 0.0
C1533 C 0.08121 0.43529 0.26551 0.0
C1534 C 0.06549 0.44603 0.27698 0.0
C1535 C 0.06505 0.46897 0.27747 0.0
H1536 H 0.40888 0.53056 0.33167 0.0
H1537 H 0.37958 0.59205 0.32504 0.0
H1538 H 0.43663 0.54162 0.30721 0.0
H1539 H 0.40743 0.60316 0.30087 0.0
H1540 H 0.45207 0.61404 0.24777 0.0
H1541 H 0.42154 0.59626 0.26532 0.0
H1542 H 0.46848 0.56836 0.30965 0.0
H1543 H 0.49885 0.58634 0.29208 0.0
C1544 C 0.40826 0.54637 0.32489 0.0
C1545 C 0.39207 0.56047 0.33042 0.0
C1546 C 0.42423 0.55274 0.31093 0.0
C1547 C 0.42435 0.57332 0.30214 0.0
C1548 C 0.40772 0.5871 0.30713 0.0
C1549 C 0.39179 0.58077 0.32112 0.0
C1550 C 0.45574 0.60387 0.2611 0.0
C1551 C 0.47769 0.60202 0.26909 0.0
C1552 C 0.43831 0.59375 0.27119 0.0
C1553 C 0.44255 0.58119 0.28915 0.0
C1554 C 0.46459 0.57783 0.29582 0.0
C1555 C 0.482 0.58824 0.28592 0.0
H1556 H 0.11949 0.35646 0.6829 0.0
H1557 H 0.09317 0.40747 0.72374 0.0
H1558 H 0.08265 0.34598 0.66423 0.0
H1559 H 0.05655 0.39724 0.70485 0.0
H1560 H 0.99056 0.35606 0.68411 0.0
H1561 H 0.02763 0.36687 0.70225 0.0
H1562 H 0.05459 0.35973 0.639 0.0
H1563 H 0.01744 0.34859 0.62105 0.0
C1564 C 0.1059 0.36553 0.6878 0.0
C1565 C 0.10928 0.38276 0.70487 0.0
C1566 C 0.0848 0.35959 0.67703 0.0
C1567 C 0.06664 0.37072 0.6831 0.0
C1568 C 0.07011 0.3881 0.7 0.0
C1569 C 0.09116 0.39405 0.71074 0.0
C1570 C 0.00448 0.35684 0.67419 0.0
C1571 C 0.00132 0.35132 0.65129 0.0
C1572 C 0.02566 0.36312 0.68449 0.0
C1573 C 0.04409 0.36413 0.67207 0.0
C1574 C 0.0408 0.35882 0.64908 0.0
C1575 C 0.01959 0.35259 0.63878 0.0
H1576 H 0.81587 0.01498 0.62997 0.0
H1577 H 0.81288 0.04946 0.69432 0.0
H1578 H 0.85317 0.03236 0.62854 0.0
H1579 H 0.85025 0.06654 0.69301 0.0
H1580 H 0.90855 0.11045 0.67294 0.0
H1581 H 0.87073 0.09368 0.67349 0.0
H1582 H 0.8905 0.0313 0.6466 0.0
H1583 H 0.92819 0.04829 0.64581 0.0
C1584 C 0.82316 0.02625 0.64381 0.0
C1585 C 0.81137 0.03082 0.66226 0.0
C1586 C 0.84459 0.03611 0.64305 0.0
C1587 C 0.8547 0.05083 0.66067 0.0
C1588 C 0.84285 0.0555 0.67904 0.0
C1589 C 0.82146 0.0456 0.67983 0.0
C1590 C 0.90466 0.0932 0.66701 0.0
C1591 C 0.92106 0.08073 0.65896 0.0
C1592 C 0.88311 0.08355 0.66746 0.0
C1593 C 0.87757 0.06116 0.65999 0.0
C1594 C 0.89412 0.04867 0.65211 0.0
C1595 C 0.91568 0.05833 0.65172 0.0
H1596 H 0.68182 0.97485 0.30336 0.0
H1597 H 0.65842 0.03496 0.28122 0.0
H1598 H 0.64385 0.96062 0.30711 0.0
H1599 H 0.6206 0.02056 0.28444 0.0
H1600 H 0.55374 0.99389 0.30014 0.0
H1601 H 0.5924 0.00898 0.30755 0.0
H1602 H 0.61317 0.94709 0.28049 0.0
H1603 H 0.57464 0.93204 0.2737 0.0
C1604 C 0.66863 0.98517 0.2996 0.0
C1605 C 0.67313 0.00592 0.2917 0.0
C1606 C 0.64685 0.97694 0.30162 0.0
C1607 C 0.62914 0.9893 0.29579 0.0
C1608 C 0.63381 0.01063 0.28924 0.0
C1609 C 0.65554 0.01886 0.28726 0.0
C1610 C 0.56669 0.98353 0.29608 0.0
C1611 C 0.56134 0.96202 0.28598 0.0
C1612 C 0.58877 0.99214 0.30023 0.0
C1613 C 0.6059 0.97934 0.29441 0.0
C1614 C 0.60045 0.95737 0.28537 0.0
C1615 C 0.57839 0.94878 0.28128 0.0
H1616 H 0.3187 0.40486 0.55401 0.0
H1617 H 0.28996 0.37465 0.60782 0.0
H1618 H 0.30152 0.43857 0.56355 0.0
H1619 H 0.27268 0.40833 0.61725 0.0
H1620 H 0.23934 0.47134 0.62694 0.0
H1621 H 0.24722 0.4361 0.60822 0.0
H1622 H 0.31109 0.46582 0.59511 0.0
H1623 H 0.30312 0.50078 0.61379 0.0
C1624 C 0.30839 0.40524 0.56763 0.0
C1625 C 0.30602 0.38719 0.58041 0.0
C1626 C 0.29856 0.4246 0.5731 0.0
C1627 C 0.28602 0.42629 0.59137 0.0
C1628 C 0.2822 0.40761 0.60306 0.0
C1629 C 0.29225 0.38832 0.59775 0.0
C1630 C 0.25495 0.47025 0.61984 0.0
C1631 C 0.27081 0.48855 0.62204 0.0
C1632 C 0.25944 0.45015 0.60912 0.0
C1633 C 0.27974 0.44814 0.60013 0.0
C1634 C 0.29514 0.46685 0.60152 0.0
C1635 C 0.29073 0.48681 0.61241 0.0
H1636 H 0.29484 0.6767 0.99939 0.0
H1637 H 0.31148 0.68065 0.93225 0.0
H1638 H 0.30056 0.63767 0.99664 0.0
H1639 H 0.31776 0.64149 0.9297 0.0
H1640 H 0.28975 0.56673 0.92654 0.0
H1641 H 0.2929 0.6071 0.928 0.0
H1642 H 0.3281 0.61081 0.99288 0.0
H1643 H 0.32458 0.57044 0.99143 0.0
C1644 C 0.30013 0.66935 0.98417 0.0
C1645 C 0.30248 0.68176 0.96595 0.0
C1646 C 0.30349 0.64694 0.98262 0.0
C1647 C 0.3095 0.63645 0.9629 0.0
C1648 C 0.31286 0.64907 0.94501 0.0
C1649 C 0.30938 0.67151 0.94652 0.0
C1650 C 0.2984 0.57627 0.94094 0.0
C1651 C 0.30653 0.56563 0.95904 0.0
C1652 C 0.30035 0.59932 0.94174 0.0
C1653 C 0.31052 0.61214 0.96068 0.0
C1654 C 0.31982 0.60138 0.97824 0.0
C1655 C 0.31788 0.57833 0.9774 0.0
H1656 H 0.69818 0.1169 0.3565 0.0
H1657 H 0.71562 0.13683 0.42583 0.0
H1658 H 0.6929 0.07843 0.36474 0.0
H1659 H 0.71098 0.09853 0.43395 0.0
H1660 H 0.69134 0.02847 0.44557 0.0
H1661 H 0.6867 0.06595 0.43563 0.0
H1662 H 0.71753 0.05151 0.37542 0.0
H1663 H 0.72145 0.01398 0.38514 0.0
C1664 C 0.70062 0.11312 0.37352 0.0
C1665 C 0.70755 0.12992 0.39047 0.0
C1666 C 0.69774 0.09106 0.37822 0.0
C1667 C 0.70175 0.08533 0.39998 0.0
C1668 C 0.70752 0.1023 0.41704 0.0
C1669 C 0.71034 0.12431 0.41235 0.0
C1670 C 0.69668 0.03329 0.43002 0.0
C1671 C 0.70656 0.01836 0.41602 0.0
C1672 C 0.69419 0.05475 0.42438 0.0
C1673 C 0.70178 0.0618 0.40474 0.0
C1674 C 0.71115 0.04658 0.39048 0.0
C1675 C 0.71354 0.02511 0.39609 0.0
H1676 H 0.6471 0.81981 0.03097 0.0
H1677 H 0.68401 0.80173 0.97581 0.0
H1678 H 0.66266 0.85789 0.03171 0.0
H1679 H 0.70007 0.83986 0.97692 0.0
H1680 H 0.69541 0.9139 0.96593 0.0
H1681 H 0.6867 0.87433 0.96754 0.0
H1682 H 0.69518 0.88352 0.03888 0.0
H1683 H 0.70327 0.92329 0.03709 0.0
C1684 C 0.65883 0.82388 0.01923 0.0
C1685 C 0.66412 0.80775 0.00319 0.0
C1686 C 0.66789 0.84573 0.01975 0.0
C1687 C 0.68253 0.85201 0.00428 0.0
C1688 C 0.68857 0.83567 0.98884 0.0
C1689 C 0.67947 0.81378 0.9883 0.0
C1690 C 0.69562 0.90737 0.98191 0.0
C1691 C 0.69978 0.92157 0.0014 0.0
C1692 C 0.69079 0.88469 0.98287 0.0
C1693 C 0.69012 0.87572 0.00335 0.0
C1694 C 0.69522 0.88991 0.02284 0.0
C1695 C 0.69999 0.91262 0.02186 0.0
H1696 H 0.54571 0.35439 0.37662 0.0
H1697 H 0.61011 0.33235 0.36727 0.0
H1698 H 0.54826 0.34278 0.41391 0.0
H1699 H 0.61267 0.3209 0.40474 0.0
H1700 H 0.60474 0.29029 0.46947 0.0
H1701 H 0.5964 0.29497 0.43015 0.0
H1702 H 0.57156 0.35773 0.44781 0.0
H1703 H 0.57952 0.35282 0.48681 0.0
C1704 C 0.56033 0.34687 0.38242 0.0
C1705 C 0.5778 0.34451 0.36903 0.0
C1706 C 0.56179 0.34028 0.40382 0.0
C1707 C 0.58072 0.3311 0.41232 0.0
C1708 C 0.59779 0.32778 0.3986 0.0
C1709 C 0.59637 0.33444 0.37717 0.0
C1710 C 0.59701 0.30478 0.46481 0.0
C1711 C 0.59275 0.32118 0.48105 0.0
C1712 C 0.59241 0.30756 0.4424 0.0
C1713 C 0.58343 0.32676 0.43591 0.0
C1714 C 0.57826 0.34265 0.45227 0.0
C1715 C 0.58286 0.33988 0.4746 0.0
H1716 H 0.9527 0.2798 0.65269 0.0
H1717 H 0.02079 0.30017 0.64415 0.0
H1718 H 0.94514 0.27152 0.61293 0.0
H1719 H 0.01308 0.29245 0.60427 0.0
H1720 H 0.99665 0.251 0.53739 0.0
H1721 H 0.00478 0.26131 0.57695 0.0
H1722 H 0.94174 0.28865 0.57884 0.0
H1723 H 0.93347 0.27766 0.5393 0.0
C1724 C 0.96604 0.28261 0.64232 0.0
C1725 C 0.98737 0.29053 0.65161 0.0
C1726 C 0.96166 0.27804 0.61948 0.0
C1727 C 0.97849 0.28131 0.60537 0.0
C1728 C 0.9998 0.28941 0.61467 0.0
C1729 C 0.00421 0.29393 0.63753 0.0
C1730 C 0.98461 0.25928 0.54631 0.0
C1731 C 0.96441 0.2635 0.53541 0.0
C1732 C 0.9893 0.26533 0.56892 0.0
C1733 C 0.97389 0.27578 0.58111 0.0
C1734 C 0.95383 0.28033 0.57004 0.0
C1735 C 0.94913 0.27421 0.54743 0.0
H1736 H 0.42759 0.68847 0.12457 0.0
H1737 H 0.35744 0.68935 0.12981 0.0
H1738 H 0.4205 0.67838 0.08497 0.0
H1739 H 0.35041 0.67976 0.09014 0.0
H1740 H 0.34338 0.64799 0.01973 0.0
H1741 H 0.35175 0.65156 0.0599 0.0
H1742 H 0.40856 0.69711 0.05335 0.0
H1743 H 0.40031 0.69305 0.01326 0.0
C1744 C 0.41064 0.68637 0.11731 0.0
C1745 C 0.39309 0.68989 0.13033 0.0
C1746 C 0.40659 0.68071 0.09458 0.0
C1747 C 0.38491 0.67848 0.08432 0.0
C1748 C 0.3673 0.68114 0.09751 0.0
C1749 C 0.37134 0.68675 0.12026 0.0
C1750 C 0.35769 0.65863 0.02699 0.0
C1751 C 0.37102 0.67057 0.01361 0.0
C1752 C 0.36245 0.66076 0.04994 0.0
C1753 C 0.38073 0.67475 0.05987 0.0
C1754 C 0.39448 0.68604 0.04627 0.0
C1755 C 0.38971 0.68389 0.02336 0.0
H1756 H 0.02556 0.66005 0.82066 0.0
H1757 H 0.95677 0.63953 0.82577 0.0
H1758 H 0.02826 0.67866 0.85793 0.0
H1759 H 0.9596 0.6576 0.86305 0.0
H1760 H 0.96608 0.70255 0.92557 0.0
H1761 H 0.96453 0.69217 0.88581 0.0
H1762 H 0.02863 0.66717 0.89489 0.0
H1763 H 0.03024 0.67815 0.93449 0.0
C1764 C 0.01097 0.65966 0.82964 0.0
C1765 C 0.99099 0.64815 0.82029 0.0
C1766 C 0.01255 0.67022 0.85106 0.0
C1767 C 0.99419 0.66951 0.86357 0.0
C1768 C 0.97401 0.65873 0.85383 0.0
C1769 C 0.97243 0.64821 0.83246 0.0
C1770 C 0.97988 0.69505 0.91892 0.0
C1771 C 0.99804 0.69064 0.93301 0.0
C1772 C 0.97898 0.68901 0.89622 0.0
C1773 C 0.99631 0.67853 0.88717 0.0
C1774 C 0.01504 0.67529 0.90123 0.0
C1775 C 0.01593 0.68139 0.92391 0.0
H1776 H 0.58859 0.41484 0.70475 0.0
H1777 H 0.57553 0.39908 0.63422 0.0
H1778 H 0.55438 0.43284 0.70533 0.0
H1779 H 0.54138 0.41724 0.63484 0.0
H1780 H 0.47005 0.42904 0.65088 0.0
H1781 H 0.50459 0.41141 0.64945 0.0
H1782 H 0.53866 0.46605 0.69199 0.0
H1783 H 0.50411 0.48355 0.69341 0.0
C1784 C 0.57845 0.41525 0.68937 0.0
C1785 C 0.58479 0.40553 0.66944 0.0
C1786 C 0.55892 0.42568 0.68969 0.0
C1787 C 0.54521 0.42649 0.67013 0.0
C1788 C 0.55151 0.41671 0.65021 0.0
C1789 C 0.57114 0.40642 0.64985 0.0
C1790 C 0.48502 0.43733 0.65968 0.0
C1791 C 0.48455 0.4578 0.67193 0.0
C1792 C 0.50476 0.42729 0.65886 0.0
C1793 C 0.52435 0.43738 0.67055 0.0
C1794 C 0.52381 0.4578 0.68293 0.0
C1795 C 0.5041 0.4679 0.68362 0.0
H1796 H 0.90599 0.5755 0.2366 0.0
H1797 H 0.91975 0.62618 0.29103 0.0
H1798 H 0.94277 0.56335 0.24407 0.0
H1799 H 0.95629 0.61376 0.29873 0.0
H1800 H 0.028 0.59956 0.29343 0.0
H1801 H 0.99186 0.61252 0.28365 0.0
H1802 H 0.96337 0.54484 0.27175 0.0
H1803 H 0.99966 0.53205 0.28114 0.0
C1804 C 0.91684 0.58405 0.25016 0.0
C1805 C 0.90989 0.6018 0.26323 0.0
C1806 C 0.93789 0.577 0.25452 0.0
C1807 C 0.95249 0.58755 0.27202 0.0
C1808 C 0.94559 0.60544 0.28494 0.0
C1809 C 0.92456 0.61247 0.2806 0.0
C1810 C 0.01394 0.58754 0.28875 0.0
C1811 C 0.01641 0.56485 0.28844 0.0
C1812 C 0.99326 0.59491 0.28323 0.0
C1813 C 0.97466 0.57972 0.27709 0.0
C1814 C 0.97735 0.55698 0.27625 0.0
C1815 C 0.99803 0.54963 0.28178 0.0
H1816 H 0.13505 0.03992 0.32722 0.0
H1817 H 0.15298 0.97479 0.33994 0.0
H1818 H 0.09617 0.02634 0.32399 0.0
H1819 H 0.11396 0.9613 0.33721 0.0
H1820 H 0.04399 0.94059 0.30253 0.0
H1821 H 0.08325 0.95337 0.30914 0.0
H1822 H 0.06673 0.01302 0.34498 0.0
H1823 H 0.02746 0.00032 0.33777 0.0
C1824 C 0.1307 0.02274 0.32954 0.0
C1825 C 0.14714 0.00842 0.33374 0.0
C1826 C 0.10837 0.01498 0.32783 0.0
C1827 C 0.10191 0.99272 0.33033 0.0
C1828 C 0.11836 0.97847 0.3349 0.0
C1829 C 0.14073 0.98624 0.33658 0.0
C1830 C 0.04887 0.95641 0.31181 0.0
C1831 C 0.03283 0.96975 0.31921 0.0
C1832 C 0.07131 0.96367 0.31577 0.0
C1833 C 0.07815 0.98433 0.32743 0.0
C1834 C 0.06202 0.99725 0.33556 0.0
C1835 C 0.03958 0.98998 0.33155 0.0
H1836 H 0.35733 0.02962 0.76638 0.0
H1837 H 0.34335 0.08585 0.7306 0.0
H1838 H 0.39641 0.04304 0.77133 0.0
H1839 H 0.3824 0.09904 0.73528 0.0
H1840 H 0.45106 0.12712 0.76452 0.0
H1841 H 0.41186 0.11432 0.76346 0.0
H1842 H 0.42735 0.04717 0.74841 0.0
H1843 H 0.46658 0.06009 0.74981 0.0
C1844 C 0.36257 0.04486 0.75962 0.0
C1845 C 0.34721 0.05662 0.74803 0.0
C1846 C 0.38498 0.05249 0.76236 0.0
C1847 C 0.39253 0.07208 0.75366 0.0
C1848 C 0.37711 0.08403 0.74242 0.0
C1849 C 0.35472 0.07638 0.73962 0.0
C1850 C 0.44601 0.10964 0.76105 0.0
C1851 C 0.46167 0.09458 0.7569 0.0
C1852 C 0.4236 0.10231 0.76036 0.0
C1853 C 0.41646 0.07974 0.75568 0.0
C1854 C 0.43231 0.06463 0.75222 0.0
C1855 C 0.4547 0.07198 0.75286 0.0
H1856 H 0.63318 0.57506 0.41984 0.0
H1857 H 0.68554 0.59755 0.47092 0.0
H1858 H 0.63238 0.53799 0.43219 0.0
H1859 H 0.68492 0.56048 0.48301 0.0
H1860 H 0.666 0.49581 0.51125 0.0
H1861 H 0.66207 0.53312 0.50041 0.0
H1862 H 0.65658 0.50779 0.43168 0.0
H1863 H 0.66022 0.47049 0.44268 0.0
C1864 C 0.64445 0.57214 0.43376 0.0
C1865 C 0.65949 0.58925 0.44434 0.0
C1866 C 0.64405 0.55087 0.44075 0.0
C1867 C 0.65862 0.54628 0.45853 0.0
C1868 C 0.6733 0.56352 0.46943 0.0
C1869 C 0.67374 0.58476 0.4624 0.0
C1870 C 0.66385 0.4983 0.49386 0.0
C1871 C 0.66379 0.48047 0.47775 0.0
C1872 C 0.66168 0.51961 0.48764 0.0
C1873 C 0.65922 0.52344 0.46519 0.0
C1874 C 0.6583 0.50538 0.44911 0.0
C1875 C 0.66053 0.48409 0.45535 0.0
H1876 H 0.75636 0.37125 0.99649 0.0
H1877 H 0.7297 0.35037 0.05563 0.0
H1878 H 0.75747 0.40972 0.01142 0.0
H1879 H 0.73056 0.38885 0.07038 0.0
H1880 H 0.75468 0.45923 0.09879 0.0
H1881 H 0.75662 0.42093 0.08412 0.0
H1882 H 0.73107 0.43684 0.01971 0.0
H1883 H 0.72943 0.47519 0.03447 0.0
C1884 C 0.75077 0.37484 0.01269 0.0
C1885 C 0.74288 0.35772 0.02484 0.0
C1886 C 0.75131 0.39691 0.02118 0.0
C1887 C 0.74406 0.40235 0.04206 0.0
C1888 C 0.73649 0.38521 0.05435 0.0
C1889 C 0.73588 0.36315 0.04583 0.0
C1890 C 0.74951 0.45445 0.08151 0.0
C1891 C 0.74158 0.46995 0.06778 0.0
C1892 C 0.75054 0.43256 0.07313 0.0
C1893 C 0.74385 0.42581 0.05079 0.0
C1894 C 0.73649 0.44154 0.03694 0.0
C1895 C 0.7354 0.46341 0.04537 0.0
H1896 H 0.29712 0.93746 0.64618 0.0
H1897 H 0.26057 0.91012 0.5849 0.0
H1898 H 0.2979 0.97414 0.63325 0.0
H1899 H 0.26092 0.94701 0.57213 0.0
H1900 H 0.29059 0.01193 0.54755 0.0
H1901 H 0.28671 0.97487 0.56011 0.0
H1902 H 0.27466 0.00306 0.62492 0.0
H1903 H 0.27913 0.04008 0.61233 0.0
C1904 C 0.28908 0.93929 0.63 0.0
C1905 C 0.27884 0.92082 0.61655 0.0
C1906 C 0.2894 0.96038 0.62264 0.0
C1907 C 0.27945 0.96357 0.60165 0.0
C1908 C 0.26898 0.94512 0.58828 0.0
C1909 C 0.26868 0.92398 0.59565 0.0
C1910 C 0.28712 0.01008 0.56446 0.0
C1911 C 0.28567 0.02876 0.57916 0.0
C1912 C 0.28471 0.9889 0.57163 0.0
C1913 C 0.28058 0.98598 0.5936 0.0
C1914 C 0.27829 0.00473 0.60803 0.0
C1915 C 0.28075 0.0259 0.60085 0.0
H1916 H 0.33184 0.13959 0.03671 0.0
H1917 H 0.34299 0.16212 0.97292 0.0
H1918 H 0.32262 0.10212 0.01957 0.0
H1919 H 0.33421 0.12447 0.95582 0.0
H1920 H 0.28979 0.06054 0.93113 0.0
H1921 H 0.30215 0.09798 0.9474 0.0
H1922 H 0.33828 0.07103 0.00136 0.0
H1923 H 0.3254 0.03363 0.9852 0.0
C1924 C 0.33254 0.13652 0.01905 0.0
C1925 C 0.33805 0.15389 0.00618 0.0
C1926 C 0.32738 0.11498 0.00923 0.0
C1927 C 0.32765 0.11027 0.9863 0.0
C1928 C 0.33356 0.12758 0.97348 0.0
C1929 C 0.3387 0.14915 0.9833 0.0
C1930 C 0.30037 0.06273 0.94647 0.0
C1931 C 0.30627 0.04435 0.95723 0.0
C1932 C 0.30761 0.08412 0.95571 0.0
C1933 C 0.32107 0.08752 0.9758 0.0
C1934 C 0.32758 0.06901 0.98611 0.0
C1935 C 0.32031 0.04763 0.97686 0.0
H1936 H 0.41304 0.68798 0.59523 0.0
H1937 H 0.38982 0.61938 0.57757 0.0
H1938 H 0.42973 0.68922 0.5604 0.0
H1939 H 0.4068 0.62059 0.54279 0.0
H1940 H 0.41665 0.6413 0.47236 0.0
H1941 H 0.40127 0.63787 0.50787 0.0
H1942 H 0.46003 0.67444 0.54134 0.0
H1943 H 0.47517 0.67799 0.50579 0.0
C1944 C 0.41159 0.67313 0.58398 0.0
C1945 C 0.40006 0.65359 0.58917 0.0
C1946 C 0.42129 0.67381 0.56407 0.0
C1947 C 0.41962 0.655 0.54885 0.0
C1948 C 0.40819 0.63542 0.55409 0.0
C1949 C 0.39857 0.6347 0.57406 0.0
C1950 C 0.42622 0.64849 0.48738 0.0
C1951 C 0.44688 0.66017 0.48642 0.0
C1952 C 0.41752 0.64645 0.50768 0.0
C1953 C 0.42937 0.65604 0.5274 0.0
C1954 C 0.45035 0.6672 0.52641 0.0
C1955 C 0.45906 0.66916 0.50612 0.0
H1956 H 0.06574 0.7342 0.36887 0.0
H1957 H 0.00428 0.75704 0.38795 0.0
H1958 H 0.07894 0.73393 0.40764 0.0
H1959 H 0.01767 0.75707 0.42678 0.0
H1960 H 0.03912 0.72624 0.4913 0.0
H1961 H 0.02576 0.72988 0.45293 0.0
H1962 H 0.09047 0.75852 0.44114 0.0
H1963 H 0.10376 0.75452 0.47945 0.0
C1964 C 0.05511 0.73934 0.38133 0.0
C1965 C 0.03391 0.74555 0.37529 0.0
C1966 C 0.06274 0.73931 0.40357 0.0
C1967 C 0.04935 0.74545 0.42031 0.0
C1968 C 0.02828 0.75199 0.41428 0.0
C1969 C 0.02066 0.75208 0.39202 0.0
C1970 C 0.05038 0.73335 0.48043 0.0
C1971 C 0.07251 0.73971 0.48808 0.0
C1972 C 0.04275 0.73558 0.45855 0.0
C1973 C 0.05711 0.74434 0.44392 0.0
C1974 C 0.07911 0.75135 0.45187 0.0
C1975 C 0.0867 0.74915 0.47377 0.0
H1976 H 0.63528 0.2404 0.91254 0.0
H1977 H 0.5995 0.29762 0.90301 0.0
H1978 H 0.62562 0.24117 0.95057 0.0
H1979 H 0.59012 0.29854 0.94112 0.0
H1980 H 0.5606 0.28167 0.00467 0.0
H1981 H 0.56805 0.27789 0.96576 0.0
H1982 H 0.63508 0.26462 0.98518 0.0
H1983 H 0.62739 0.26813 0.02397 0.0
C1984 C 0.62531 0.25311 0.91852 0.0
C1985 C 0.61823 0.269 0.90475 0.0
C1986 C 0.61988 0.25361 0.94036 0.0
C1987 C 0.60717 0.26995 0.9489 0.0
C1988 C 0.59974 0.28559 0.93499 0.0
C1989 C 0.60523 0.28513 0.91317 0.0
C1990 C 0.57689 0.27796 0.0005 0.0
C1991 C 0.59358 0.27564 0.01719 0.0
C1992 C 0.58119 0.27586 0.9783 0.0
C1993 C 0.60222 0.27114 0.97239 0.0
C1994 C 0.61868 0.26812 0.98916 0.0
C1995 C 0.61438 0.27029 0.01134 0.0
H1996 H 0.99983 0.33155 0.18825 0.0
H1997 H 0.0554 0.30922 0.1559 0.0
H1998 H 0.97744 0.32724 0.15283 0.0
H1999 H 0.03292 0.30446 0.12068 0.0
H2000 H 0.99304 0.31753 0.0576 0.0
H2001 H 0.01517 0.32519 0.0932 0.0
H2002 H 0.96033 0.29795 0.12597 0.0
H2003 H 0.9382 0.29086 0.0904 0.0
C2004 C 0.00727 0.32571 0.1736 0.0
C2005 C 0.0294 0.3207 0.17491 0.0
C2006 C 0.9944 0.32313 0.15332 0.0
C2007 C 0.00338 0.31549 0.13391 0.0
C2008 C 0.02557 0.31068 0.13524 0.0
C2009 C 0.03843 0.31328 0.15548 0.0
C2010 C 0.98582 0.31327 0.0725 0.0
C2011 C 0.96413 0.30332 0.07134 0.0
C2012 C 0.99845 0.31754 0.09283 0.0
C2013 C 0.98958 0.31201 0.11242 0.0
C2014 C 0.96762 0.30258 0.11124 0.0
C2015 C 0.95499 0.29835 0.0909 0.0
loop_
_geom_bond_atom_site_label_1
_geom_bond_atom_site_label_2
_geom_bond_distance
_geom_bond_site_symmetry_2
_ccdc_geom_bond_type
O0 Cd1 2.300 . S
O0 C7 1.275 . S
Cd1 O0 2.300 . S
Cd1 O9 2.381 . S
Cd1 O10 2.378 . S
O2 Cd3 2.385 . S
O2 C7 1.255 . S
Cd3 O2 2.385 . S
Cd3 O4 2.317 . S
O4 Cd3 2.317 . S
O4 C5 1.232 . S
C5 O4 1.232 . S
C5 O6 1.218 . S
O6 C5 1.218 . S
C7 O0 1.275 . S
C7 O2 1.255 . S
C8 O9 1.258 . S
C8 O10 1.256 . S
O9 Cd1 2.381 . S
O9 C8 1.258 . S
O10 Cd1 2.378 . S
O10 C8 1.256 . S
O11 Cd12 2.300 . S
O11 C18 1.275 . S
Cd12 O11 2.300 . S
Cd12 O20 2.381 . S
Cd12 O21 2.378 . S
O13 Cd14 2.385 . S
O13 C18 1.255 . S
Cd14 O13 2.385 . S
Cd14 O15 2.317 . S
O15 Cd14 2.317 . S
O15 C16 1.232 . S
C16 O15 1.232 . S
C16 O17 1.218 . S
O17 C16 1.218 . S
C18 O11 1.275 . S
C18 O13 1.255 . S
C19 O20 1.258 . S
C19 O21 1.256 . S
O20 Cd12 2.381 . S
O20 C19 1.258 . S
O21 Cd12 2.378 . S
O21 C19 1.256 . S
O22 Cd23 2.299 1_545 S
O22 C29 1.274 1_545 S
Cd23 O22 2.299 1_565 S
Cd23 O31 2.381 1_565 S
Cd23 O32 2.378 . S
O24 Cd25 2.385 . S
O24 C29 1.255 . S
Cd25 O24 2.385 . S
Cd25 O26 2.317 . S
O26 Cd25 2.317 . S
O26 C27 1.232 . S
C27 O26 1.232 . S
C27 O28 1.218 . S
O28 C27 1.218 . S
C29 O22 1.274 1_565 S
C29 O24 1.255 . S
C30 O31 1.258 . S
C30 O32 1.256 1_545 S
O31 Cd23 2.381 1_545 S
O31 C30 1.258 . S
O32 Cd23 2.378 . S
O32 C30 1.256 1_565 S
O33 Cd34 2.300 1_565 S
O33 C40 1.275 1_565 S
Cd34 O33 2.300 1_545 S
Cd34 O42 2.381 1_545 S
Cd34 O43 2.378 . S
O35 Cd36 2.385 . S
O35 C40 1.255 . S
Cd36 O35 2.385 . S
Cd36 O37 2.317 . S
O37 Cd36 2.317 . S
O37 C38 1.232 . S
C38 O37 1.232 . S
C38 O39 1.218 . S
O39 C38 1.218 . S
C40 O33 1.275 1_545 S
C40 O35 1.255 . S
C41 O42 1.258 1_545 S
C41 O43 1.256 . S
O42 Cd34 2.381 1_565 S
O42 C41 1.258 1_565 S
O43 Cd34 2.378 . S
O43 C41 1.256 . S
O44 Cd45 2.300 . S
O44 C51 1.275 . S
Cd45 O44 2.300 . S
Cd45 O53 2.381 . S
Cd45 O54 2.378 . S
O46 Cd47 2.385 . S
O46 C51 1.255 . S
Cd47 O46 2.385 . S
Cd47 O48 2.317 . S
O48 Cd47 2.317 . S
O48 C49 1.232 . S
C49 O48 1.232 . S
C49 O50 1.218 . S
O50 C49 1.218 . S
C51 O44 1.275 . S
C51 O46 1.255 . S
C52 O53 1.258 . S
C52 O54 1.256 . S
O53 Cd45 2.381 . S
O53 C52 1.258 . S
O54 Cd45 2.378 . S
O54 C52 1.256 . S
O55 Cd56 2.300 1_556 S
O55 C62 1.275 1_556 S
Cd56 O55 2.300 1_554 S
Cd56 O64 2.381 1_554 S
Cd56 O65 2.378 . S
O57 Cd58 2.385 . S
O57 C62 1.255 . S
Cd58 O57 2.385 . S
Cd58 O59 2.317 . S
O59 Cd58 2.317 . S
O59 C60 1.232 . S
C60 O59 1.232 . S
C60 O61 1.218 . S
O61 C60 1.218 . S
C62 O55 1.275 1_554 S
C62 O57 1.255 . S
C63 O64 1.258 1_554 S
C63 O65 1.256 . S
O64 Cd56 2.381 1_556 S
O64 C63 1.258 1_556 S
O65 Cd56 2.378 . S
O65 C63 1.256 . S
O66 Cd67 2.300 . S
O66 C73 1.275 . S
Cd67 O66 2.300 . S
Cd67 O75 2.381 . S
Cd67 O76 2.378 . S
O68 Cd69 2.385 . S
O68 C73 1.255 . S
Cd69 O68 2.385 . S
Cd69 O70 2.317 . S
O70 Cd69 2.317 . S
O70 C71 1.232 . S
C71 O70 1.232 . S
C71 O72 1.218 . S
O72 C71 1.218 . S
C73 O66 1.275 . S
C73 O68 1.255 . S
C74 O75 1.258 . S
C74 O76 1.256 . S
O75 Cd67 2.381 . S
O75 C74 1.258 . S
O76 Cd67 2.378 . S
O76 C74 1.256 . S
O77 Cd78 2.299 1_554 S
O77 C84 1.274 1_554 S
Cd78 O77 2.299 1_556 S
Cd78 O86 2.381 1_556 S
Cd78 O87 2.378 . S
O79 Cd80 2.385 . S
O79 C84 1.255 . S
Cd80 O79 2.385 . S
Cd80 O81 2.317 . S
O81 Cd80 2.317 . S
O81 C82 1.232 . S
C82 O81 1.232 . S
C82 O83 1.218 . S
O83 C82 1.218 . S
C84 O77 1.274 1_556 S
C84 O79 1.255 . S
C85 O86 1.258 . S
C85 O87 1.256 1_554 S
O86 Cd78 2.381 1_554 S
O86 C85 1.258 . S
O87 Cd78 2.378 . S
O87 C85 1.256 1_556 S
O88 Cd89 2.300 . S
O88 C95 1.275 . S
Cd89 O88 2.300 . S
Cd89 O97 2.381 . S
Cd89 O98 2.378 . S
O90 Cd91 2.385 . S
O90 C95 1.255 . S
Cd91 O90 2.385 . S
Cd91 O92 2.317 . S
O92 Cd91 2.317 . S
O92 C93 1.232 . S
C93 O92 1.232 . S
C93 O94 1.218 . S
O94 C93 1.218 . S
C95 O88 1.275 . S
C95 O90 1.255 . S
C96 O97 1.258 . S
C96 O98 1.256 . S
O97 Cd89 2.381 . S
O97 C96 1.258 . S
O98 Cd89 2.378 . S
O98 C96 1.256 . S
O99 Cd100 2.300 1_655 S
O99 C106 1.275 1_655 S
Cd100 O99 2.300 1_455 S
Cd100 O108 2.381 1_455 S
Cd100 O109 2.378 . S
O101 Cd102 2.385 . S
O101 C106 1.255 . S
Cd102 O101 2.385 . S
Cd102 O103 2.317 . S
O103 Cd102 2.317 . S
O103 C104 1.232 . S
C104 O103 1.232 . S
C104 O105 1.218 . S
O105 C104 1.218 . S
C106 O99 1.275 1_455 S
C106 O101 1.255 . S
C107 O108 1.258 1_455 S
C107 O109 1.256 . S
O108 Cd100 2.381 1_655 S
O108 C107 1.258 1_655 S
O109 Cd100 2.378 . S
O109 C107 1.256 . S
O110 Cd111 2.300 . S
O110 C117 1.275 . S
Cd111 O110 2.300 . S
Cd111 O119 2.381 . S
Cd111 O120 2.378 . S
O112 Cd113 2.385 . S
O112 C117 1.255 . S
Cd113 O112 2.385 . S
Cd113 O114 2.317 . S
O114 Cd113 2.317 . S
O114 C115 1.232 . S
C115 O114 1.232 . S
C115 O116 1.218 . S
O116 C115 1.218 . S
C117 O110 1.275 . S
C117 O112 1.255 . S
C118 O119 1.258 . S
C118 O120 1.256 . S
O119 Cd111 2.381 . S
O119 C118 1.258 . S
O120 Cd111 2.378 . S
O120 C118 1.256 . S
O121 Cd122 2.299 1_455 S
O121 C128 1.274 1_455 S
Cd122 O121 2.299 1_655 S
Cd122 O130 2.381 1_655 S
Cd122 O131 2.378 . S
O123 Cd124 2.385 . S
O123 C128 1.255 . S
Cd124 O123 2.385 . S
Cd124 O125 2.317 . S
O125 Cd124 2.317 . S
O125 C126 1.232 . S
C126 O125 1.232 . S
C126 O127 1.218 . S
O127 C126 1.218 . S
C128 O121 1.274 1_655 S
C128 O123 1.255 . S
C129 O130 1.258 . S
C129 O131 1.256 1_455 S
O130 Cd122 2.381 1_455 S
O130 C129 1.258 . S
O131 Cd122 2.378 . S
O131 C129 1.256 1_655 S
O132 Cd133 2.300 . S
O132 C139 1.275 . S
Cd133 O132 2.300 . S
Cd133 O141 2.381 . S
Cd133 O142 2.378 . S
O134 Cd135 2.385 . S
O134 C139 1.255 . S
Cd135 O134 2.385 . S
Cd135 O136 2.317 . S
O136 Cd135 2.317 . S
O136 C137 1.232 . S
C137 O136 1.232 . S
C137 O138 1.218 . S
O138 C137 1.218 . S
C139 O132 1.275 . S
C139 O134 1.255 . S
C140 O141 1.258 . S
C140 O142 1.256 . S
O141 Cd133 2.381 . S
O141 C140 1.258 . S
O142 Cd133 2.378 . S
O142 C140 1.256 . S
O143 Cd144 2.300 . S
O143 C150 1.275 . S
Cd144 O143 2.300 . S
Cd144 O152 2.381 . S
Cd144 O153 2.378 . S
O145 Cd146 2.385 . S
O145 C150 1.255 . S
Cd146 O145 2.385 . S
Cd146 O147 2.317 . S
O147 Cd146 2.317 . S
O147 C148 1.232 . S
C148 O147 1.232 . S
C148 O149 1.218 . S
O149 C148 1.218 . S
C150 O143 1.275 . S
C150 O145 1.255 . S
C151 O152 1.258 . S
C151 O153 1.256 . S
O152 Cd144 2.381 . S
O152 C151 1.258 . S
O153 Cd144 2.378 . S
O153 C151 1.256 . S
O154 Cd155 2.300 1_545 S
O154 C161 1.275 . S
Cd155 O154 2.300 1_565 S
Cd155 O163 2.381 1_565 S
Cd155 O164 2.378 . S
O156 Cd157 2.385 . S
O156 C161 1.255 1_565 S
Cd157 O156 2.385 . S
Cd157 O158 2.317 . S
O158 Cd157 2.317 . S
O158 C159 1.232 . S
C159 O158 1.232 . S
C159 O160 1.218 . S
O160 C159 1.218 . S
C161 O154 1.275 . S
C161 O156 1.255 1_545 S
C162 O163 1.258 1_565 S
C162 O164 1.256 . S
O163 Cd155 2.381 1_545 S
O163 C162 1.258 1_545 S
O164 Cd155 2.378 . S
O164 C162 1.256 . S
O165 Cd166 2.300 1_565 S
O165 C172 1.275 1_565 S
Cd166 O165 2.300 1_545 S
Cd166 O174 2.381 1_545 S
Cd166 O175 2.378 . S
O167 Cd168 2.385 . S
O167 C172 1.255 . S
Cd168 O167 2.385 . S
Cd168 O169 2.317 . S
O169 Cd168 2.317 . S
O169 C170 1.232 . S
C170 O169 1.232 . S
C170 O171 1.218 . S
O171 C170 1.218 . S
C172 O165 1.275 1_545 S
C172 O167 1.255 . S
C173 O174 1.258 1_545 S
C173 O175 1.256 . S
O174 Cd166 2.381 1_565 S
O174 C173 1.258 1_565 S
O175 Cd166 2.378 . S
O175 C173 1.256 . S
O176 Cd177 2.300 . S
O176 C183 1.275 . S
Cd177 O176 2.300 . S
Cd177 O185 2.381 . S
Cd177 O186 2.378 . S
O178 Cd179 2.385 . S
O178 C183 1.255 . S
Cd179 O178 2.385 . S
Cd179 O180 2.317 . S
O180 Cd179 2.317 . S
O180 C181 1.232 . S
C181 O180 1.232 . S
C181 O182 1.218 . S
O182 C181 1.218 . S
C183 O176 1.275 . S
C183 O178 1.255 . S
C184 O185 1.258 . S
C184 O186 1.256 . S
O185 Cd177 2.381 . S
O185 C184 1.258 . S
O186 Cd177 2.378 . S
O186 C184 1.256 . S
O187 Cd188 2.300 1_556 S
O187 C194 1.275 1_556 S
Cd188 O187 2.300 1_554 S
Cd188 O196 2.381 1_554 S
Cd188 O197 2.378 . S
O189 Cd190 2.385 . S
O189 C194 1.255 . S
Cd190 O189 2.385 . S
Cd190 O191 2.317 . S
O191 Cd190 2.317 . S
O191 C192 1.232 . S
C192 O191 1.232 . S
C192 O193 1.218 . S
O193 C192 1.218 . S
C194 O187 1.275 1_554 S
C194 O189 1.255 . S
C195 O196 1.258 1_554 S
C195 O197 1.256 . S
O196 Cd188 2.381 1_556 S
O196 C195 1.258 1_556 S
O197 Cd188 2.378 . S
O197 C195 1.256 . S
O198 Cd199 2.300 . S
O198 C205 1.275 . S
Cd199 O198 2.300 . S
Cd199 O207 2.381 . S
Cd199 O208 2.378 . S
O200 Cd201 2.385 . S
O200 C205 1.255 . S
Cd201 O200 2.385 . S
Cd201 O202 2.317 . S
O202 Cd201 2.317 . S
O202 C203 1.232 . S
C203 O202 1.232 . S
C203 O204 1.218 . S
O204 C203 1.218 . S
C205 O198 1.275 . S
C205 O200 1.255 . S
C206 O207 1.258 . S
C206 O208 1.256 . S
O207 Cd199 2.381 . S
O207 C206 1.258 . S
O208 Cd199 2.378 . S
O208 C206 1.256 . S
O209 Cd210 2.300 1_554 S
O209 C216 1.275 . S
Cd210 O209 2.300 1_556 S
Cd210 O218 2.381 1_556 S
Cd210 O219 2.378 . S
O211 Cd212 2.385 . S
O211 C216 1.255 1_556 S
Cd212 O211 2.385 . S
Cd212 O213 2.317 . S
O213 Cd212 2.317 . S
O213 C214 1.232 . S
C214 O213 1.232 . S
C214 O215 1.218 . S
O215 C214 1.218 . S
C216 O209 1.275 . S
C216 O211 1.255 1_554 S
C217 O218 1.258 1_556 S
C217 O219 1.256 . S
O218 Cd210 2.381 1_554 S
O218 C217 1.258 1_554 S
O219 Cd210 2.378 . S
O219 C217 1.256 . S
O220 Cd221 2.300 . S
O220 C227 1.275 . S
Cd221 O220 2.300 . S
Cd221 O229 2.381 . S
Cd221 O230 2.378 . S
O222 Cd223 2.385 . S
O222 C227 1.255 . S
Cd223 O222 2.385 . S
Cd223 O224 2.317 . S
O224 Cd223 2.317 . S
O224 C225 1.232 . S
C225 O224 1.232 . S
C225 O226 1.218 . S
O226 C225 1.218 . S
C227 O220 1.275 . S
C227 O222 1.255 . S
C228 O229 1.258 . S
C228 O230 1.256 . S
O229 Cd221 2.381 . S
O229 C228 1.258 . S
O230 Cd221 2.378 . S
O230 C228 1.256 . S
O231 Cd232 2.300 1_655 S
O231 C238 1.275 1_655 S
Cd232 O231 2.300 1_455 S
Cd232 O240 2.381 1_455 S
Cd232 O241 2.378 . S
O233 Cd234 2.385 . S
O233 C238 1.255 . S
Cd234 O233 2.385 . S
Cd234 O235 2.317 . S
O235 Cd234 2.317 . S
O235 C236 1.232 . S
C236 O235 1.232 . S
C236 O237 1.218 . S
O237 C236 1.218 . S
C238 O231 1.275 1_455 S
C238 O233 1.255 . S
C239 O240 1.258 1_455 S
C239 O241 1.256 . S
O240 Cd232 2.381 1_655 S
O240 C239 1.258 1_655 S
O241 Cd232 2.378 . S
O241 C239 1.256 . S
O242 Cd243 2.300 . S
O242 C249 1.275 . S
Cd243 O242 2.300 . S
Cd243 O251 2.381 . S
Cd243 O252 2.378 . S
O244 Cd245 2.385 . S
O244 C249 1.255 . S
Cd245 O244 2.385 . S
Cd245 O246 2.317 . S
O246 Cd245 2.317 . S
O246 C247 1.232 . S
C247 O246 1.232 . S
C247 O248 1.218 . S
O248 C247 1.218 . S
C249 O242 1.275 . S
C249 O244 1.255 . S
C250 O251 1.258 . S
C250 O252 1.256 . S
O251 Cd243 2.381 . S
O251 C250 1.258 . S
O252 Cd243 2.378 . S
O252 C250 1.256 . S
O253 Cd254 2.300 1_455 S
O253 C260 1.275 . S
Cd254 O253 2.300 1_655 S
Cd254 O262 2.381 1_655 S
Cd254 O263 2.378 . S
O255 Cd256 2.385 . S
O255 C260 1.255 1_655 S
Cd256 O255 2.385 . S
Cd256 O257 2.317 . S
O257 Cd256 2.317 . S
O257 C258 1.232 . S
C258 O257 1.232 . S
C258 O259 1.218 . S
O259 C258 1.218 . S
C260 O253 1.275 . S
C260 O255 1.255 1_455 S
C261 O262 1.258 1_655 S
C261 O263 1.256 . S
O262 Cd254 2.381 1_455 S
O262 C261 1.258 1_455 S
O263 Cd254 2.378 . S
O263 C261 1.256 . S
H264 C271 0.929 . S
H265 C274 0.930 . S
H266 C276 0.929 . S
H267 C268 0.969 . S
C268 H267 0.969 . S
C268 O269 1.550 . S
C268 H270 0.973 . S
O269 C268 1.550 . S
O269 C275 1.412 . S
H270 C268 0.973 . S
C271 H264 0.929 . S
C271 C272 1.400 . S
C271 C273 1.364 . S
C272 C271 1.400 . S
C272 C276 1.377 . S
C273 C271 1.364 . S
C273 C274 1.374 . S
C274 H265 0.930 . S
C274 C273 1.374 . S
C274 C275 1.383 . S
C275 O269 1.412 . S
C275 C274 1.383 . S
C275 C276 1.394 . S
C276 H266 0.929 . S
C276 C272 1.377 . S
C276 C275 1.394 . S
H277 C284 0.929 . S
H278 C287 0.930 . S
H279 C289 0.929 . S
H280 C281 0.969 . S
C281 H280 0.969 . S
C281 O282 1.550 . S
C281 H283 0.973 . S
O282 C281 1.550 . S
O282 C288 1.412 . S
H283 C281 0.973 . S
C284 H277 0.929 . S
C284 C285 1.400 . S
C284 C286 1.364 . S
C285 C284 1.400 . S
C285 C289 1.377 . S
C286 C284 1.364 . S
C286 C287 1.374 . S
C287 H278 0.930 . S
C287 C286 1.374 . S
C287 C288 1.383 . S
C288 O282 1.412 . S
C288 C287 1.383 . S
C288 C289 1.394 . S
C289 H279 0.929 . S
C289 C285 1.377 . S
C289 C288 1.394 . S
H290 C297 0.929 . S
H291 C300 0.930 . S
H292 C302 0.929 . S
H293 C294 0.969 . S
C294 H293 0.969 . S
C294 O295 1.550 . S
C294 H296 0.973 . S
O295 C294 1.550 . S
O295 C301 1.412 . S
H296 C294 0.973 . S
C297 H290 0.929 . S
C297 C298 1.400 . S
C297 C299 1.364 . S
C298 C297 1.400 . S
C298 C302 1.377 . S
C299 C297 1.364 . S
C299 C300 1.374 1_565 S
C300 H291 0.930 . S
C300 C299 1.374 1_545 S
C300 C301 1.383 . S
C301 O295 1.412 . S
C301 C300 1.383 . S
C301 C302 1.394 1_545 S
C302 H292 0.929 . S
C302 C298 1.377 . S
C302 C301 1.394 1_565 S
H303 C310 0.929 1_545 S
H304 C313 0.930 . S
H305 C315 0.929 . S
H306 C307 0.969 . S
C307 H306 0.969 . S
C307 O308 1.550 . S
C307 H309 0.973 . S
O308 C307 1.550 . S
O308 C314 1.412 . S
H309 C307 0.973 . S
C310 H303 0.929 1_565 S
C310 C311 1.400 . S
C310 C312 1.364 . S
C311 C310 1.400 . S
C311 C315 1.377 . S
C312 C310 1.364 . S
C312 C313 1.374 . S
C313 H304 0.930 . S
C313 C312 1.374 . S
C313 C314 1.383 . S
C314 O308 1.412 . S
C314 C313 1.383 . S
C314 C315 1.394 . S
C315 H305 0.929 . S
C315 C311 1.377 . S
C315 C314 1.394 . S
H316 C323 0.929 . S
H317 C326 0.930 . S
H318 C328 0.929 . S
H319 C320 0.969 . S
C320 H319 0.969 . S
C320 O321 1.550 . S
C320 H322 0.973 . S
O321 C320 1.550 . S
O321 C327 1.412 . S
H322 C320 0.973 . S
C323 H316 0.929 . S
C323 C324 1.400 . S
C323 C325 1.364 . S
C324 C323 1.400 . S
C324 C328 1.377 . S
C325 C323 1.364 . S
C325 C326 1.374 . S
C326 H317 0.930 . S
C326 C325 1.374 . S
C326 C327 1.383 . S
C327 O321 1.412 . S
C327 C326 1.383 . S
C327 C328 1.394 . S
C328 H318 0.929 . S
C328 C324 1.377 . S
C328 C327 1.394 . S
H329 C336 0.929 1_554 S
H330 C339 0.930 . S
H331 C341 0.929 . S
H332 C333 0.969 . S
C333 H332 0.969 . S
C333 O334 1.550 . S
C333 H335 0.973 . S
O334 C333 1.550 . S
O334 C340 1.412 . S
H335 C333 0.973 . S
C336 H329 0.929 1_556 S
C336 C337 1.400 . S
C336 C338 1.364 . S
C337 C336 1.400 . S
C337 C341 1.377 . S
C338 C336 1.364 . S
C338 C339 1.374 . S
C339 H330 0.930 . S
C339 C338 1.374 . S
C339 C340 1.383 . S
C340 O334 1.412 . S
C340 C339 1.383 . S
C340 C341 1.394 . S
C341 H331 0.929 . S
C341 C337 1.377 . S
C341 C340 1.394 . S
H342 C349 0.929 . S
H343 C352 0.930 . S
H344 C354 0.929 . S
H345 C346 0.969 . S
C346 H345 0.969 . S
C346 O347 1.550 . S
C346 H348 0.973 . S
O347 C346 1.550 . S
O347 C353 1.412 . S
H348 C346 0.973 . S
C349 H342 0.929 . S
C349 C350 1.400 . S
C349 C351 1.364 . S
C350 C349 1.400 . S
C350 C354 1.377 . S
C351 C349 1.364 . S
C351 C352 1.374 . S
C352 H343 0.930 . S
C352 C351 1.374 . S
C352 C353 1.383 . S
C353 O347 1.412 . S
C353 C352 1.383 . S
C353 C354 1.394 . S
C354 H344 0.929 . S
C354 C350 1.377 . S
C354 C353 1.394 . S
H355 C362 0.929 . S
H356 C365 0.930 . S
H357 C367 0.929 . S
H358 C359 0.969 . S
C359 H358 0.969 . S
C359 O360 1.550 . S
C359 H361 0.973 . S
O360 C359 1.550 . S
O360 C366 1.412 . S
H361 C359 0.973 . S
C362 H355 0.929 . S
C362 C363 1.400 . S
C362 C364 1.364 . S
C363 C362 1.400 . S
C363 C367 1.377 . S
C364 C362 1.364 . S
C364 C365 1.374 1_556 S
C365 H356 0.930 . S
C365 C364 1.374 1_554 S
C365 C366 1.383 . S
C366 O360 1.412 . S
C366 C365 1.383 . S
C366 C367 1.394 1_554 S
C367 H357 0.929 . S
C367 C363 1.377 . S
C367 C366 1.394 1_556 S
H368 C375 0.929 . S
H369 C378 0.930 . S
H370 C380 0.929 . S
H371 C372 0.969 . S
C372 H371 0.969 . S
C372 O373 1.550 . S
C372 H374 0.973 . S
O373 C372 1.550 . S
O373 C379 1.412 . S
H374 C372 0.973 . S
C375 H368 0.929 . S
C375 C376 1.400 . S
C375 C377 1.364 . S
C376 C375 1.400 . S
C376 C380 1.377 . S
C377 C375 1.364 . S
C377 C378 1.374 . S
C378 H369 0.930 . S
C378 C377 1.374 . S
C378 C379 1.383 . S
C379 O373 1.412 . S
C379 C378 1.383 . S
C379 C380 1.394 . S
C380 H370 0.929 . S
C380 C376 1.377 . S
C380 C379 1.394 . S
H381 C388 0.929 1_455 S
H382 C391 0.930 . S
H383 C393 0.929 . S
H384 C385 0.969 . S
C385 H384 0.969 . S
C385 O386 1.550 . S
C385 H387 0.973 . S
O386 C385 1.550 . S
O386 C392 1.412 . S
H387 C385 0.973 . S
C388 H381 0.929 1_655 S
C388 C389 1.400 . S
C388 C390 1.364 . S
C389 C388 1.400 . S
C389 C393 1.377 . S
C390 C388 1.364 . S
C390 C391 1.374 . S
C391 H382 0.930 . S
C391 C390 1.374 . S
C391 C392 1.383 . S
C392 O386 1.412 . S
C392 C391 1.383 . S
C392 C393 1.394 . S
C393 H383 0.929 . S
C393 C389 1.377 . S
C393 C392 1.394 . S
H394 C401 0.929 . S
H395 C404 0.930 . S
H396 C406 0.929 . S
H397 C398 0.969 . S
C398 H397 0.969 . S
C398 O399 1.550 . S
C398 H400 0.973 . S
O399 C398 1.550 . S
O399 C405 1.412 . S
H400 C398 0.973 . S
C401 H394 0.929 . S
C401 C402 1.400 . S
C401 C403 1.364 . S
C402 C401 1.400 . S
C402 C406 1.377 . S
C403 C401 1.364 . S
C403 C404 1.374 . S
C404 H395 0.930 . S
C404 C403 1.374 . S
C404 C405 1.383 . S
C405 O399 1.412 . S
C405 C404 1.383 . S
C405 C406 1.394 . S
C406 H396 0.929 . S
C406 C402 1.377 . S
C406 C405 1.394 . S
H407 C414 0.929 . S
H408 C417 0.930 . S
H409 C419 0.929 . S
H410 C411 0.969 . S
C411 H410 0.969 . S
C411 O412 1.550 . S
C411 H413 0.973 . S
O412 C411 1.550 . S
O412 C418 1.412 . S
H413 C411 0.973 . S
C414 H407 0.929 . S
C414 C415 1.400 . S
C414 C416 1.364 . S
C415 C414 1.400 . S
C415 C419 1.377 . S
C416 C414 1.364 . S
C416 C417 1.374 1_655 S
C417 H408 0.930 . S
C417 C416 1.374 1_455 S
C417 C418 1.383 . S
C418 O412 1.412 . S
C418 C417 1.383 . S
C418 C419 1.394 1_455 S
C419 H409 0.929 . S
C419 C415 1.377 . S
C419 C418 1.394 1_655 S
H420 C427 0.929 . S
H421 C430 0.930 . S
H422 C432 0.929 . S
H423 C424 0.969 . S
C424 H423 0.969 . S
C424 O425 1.550 . S
C424 H426 0.973 . S
O425 C424 1.550 . S
O425 C431 1.412 . S
H426 C424 0.973 . S
C427 H420 0.929 . S
C427 C428 1.400 . S
C427 C429 1.364 . S
C428 C427 1.400 . S
C428 C432 1.377 . S
C429 C427 1.364 . S
C429 C430 1.374 . S
C430 H421 0.930 . S
C430 C429 1.374 . S
C430 C431 1.383 . S
C431 O425 1.412 . S
C431 C430 1.383 . S
C431 C432 1.394 . S
C432 H422 0.929 . S
C432 C428 1.377 . S
C432 C431 1.394 . S
H433 C440 0.929 . S
H434 C443 0.930 . S
H435 C445 0.929 . S
H436 C437 0.969 . S
C437 H436 0.969 . S
C437 O438 1.550 . S
C437 H439 0.973 . S
O438 C437 1.550 . S
O438 C444 1.412 . S
H439 C437 0.973 . S
C440 H433 0.929 . S
C440 C441 1.400 . S
C440 C442 1.364 . S
C441 C440 1.400 . S
C441 C445 1.377 . S
C442 C440 1.364 . S
C442 C443 1.374 . S
C443 H434 0.930 . S
C443 C442 1.374 . S
C443 C444 1.383 . S
C444 O438 1.412 . S
C444 C443 1.383 . S
C444 C445 1.394 . S
C445 H435 0.929 . S
C445 C441 1.377 . S
C445 C444 1.394 . S
H446 C453 0.929 . S
H447 C456 0.930 . S
H448 C458 0.929 . S
H449 C450 0.969 . S
C450 H449 0.969 . S
C450 O451 1.550 . S
C450 H452 0.973 . S
O451 C450 1.550 . S
O451 C457 1.412 . S
H452 C450 0.973 . S
C453 H446 0.929 . S
C453 C454 1.400 . S
C453 C455 1.364 . S
C454 C453 1.400 . S
C454 C458 1.377 . S
C455 C453 1.364 . S
C455 C456 1.374 1_545 S
C456 H447 0.930 . S
C456 C455 1.374 1_565 S
C456 C457 1.383 . S
C457 O451 1.412 . S
C457 C456 1.383 . S
C457 C458 1.394 1_565 S
C458 H448 0.929 . S
C458 C454 1.377 . S
C458 C457 1.394 1_545 S
H459 C466 0.929 1_565 S
H460 C469 0.930 . S
H461 C471 0.929 . S
H462 C463 0.969 . S
C463 H462 0.969 . S
C463 O464 1.550 . S
C463 H465 0.973 . S
O464 C463 1.550 . S
O464 C470 1.412 . S
H465 C463 0.973 . S
C466 H459 0.929 1_545 S
C466 C467 1.400 . S
C466 C468 1.364 . S
C467 C466 1.400 . S
C467 C471 1.377 . S
C468 C466 1.364 . S
C468 C469 1.374 . S
C469 H460 0.930 . S
C469 C468 1.374 . S
C469 C470 1.383 . S
C470 O464 1.412 . S
C470 C469 1.383 . S
C470 C471 1.394 . S
C471 H461 0.929 . S
C471 C467 1.377 . S
C471 C470 1.394 . S
H472 C479 0.929 . S
H473 C482 0.930 . S
H474 C484 0.929 . S
H475 C476 0.969 . S
C476 H475 0.969 . S
C476 O477 1.550 . S
C476 H478 0.973 . S
O477 C476 1.550 . S
O477 C483 1.412 . S
H478 C476 0.973 . S
C479 H472 0.929 . S
C479 C480 1.400 . S
C479 C481 1.364 . S
C480 C479 1.400 . S
C480 C484 1.377 . S
C481 C479 1.364 . S
C481 C482 1.374 . S
C482 H473 0.930 . S
C482 C481 1.374 . S
C482 C483 1.383 . S
C483 O477 1.412 . S
C483 C482 1.383 . S
C483 C484 1.394 . S
C484 H474 0.929 . S
C484 C480 1.377 . S
C484 C483 1.394 . S
H485 C492 0.929 1_556 S
H486 C495 0.930 . S
H487 C497 0.929 . S
H488 C489 0.969 . S
C489 H488 0.969 . S
C489 O490 1.550 . S
C489 H491 0.973 . S
O490 C489 1.550 . S
O490 C496 1.412 . S
H491 C489 0.973 . S
C492 H485 0.929 1_554 S
C492 C493 1.400 . S
C492 C494 1.364 . S
C493 C492 1.400 . S
C493 C497 1.377 . S
C494 C492 1.364 . S
C494 C495 1.374 . S
C495 H486 0.930 . S
C495 C494 1.374 . S
C495 C496 1.383 . S
C496 O490 1.412 . S
C496 C495 1.383 . S
C496 C497 1.394 . S
C497 H487 0.929 . S
C497 C493 1.377 . S
C497 C496 1.394 . S
H498 C505 0.929 . S
H499 C508 0.930 . S
H500 C510 0.929 . S
H501 C502 0.969 . S
C502 H501 0.969 . S
C502 O503 1.550 . S
C502 H504 0.973 . S
O503 C502 1.550 . S
O503 C509 1.412 . S
H504 C502 0.973 . S
C505 H498 0.929 . S
C505 C506 1.400 . S
C505 C507 1.364 . S
C506 C505 1.400 . S
C506 C510 1.377 . S
C507 C505 1.364 . S
C507 C508 1.374 . S
C508 H499 0.930 . S
C508 C507 1.374 . S
C508 C509 1.383 . S
C509 O503 1.412 . S
C509 C508 1.383 . S
C509 C510 1.394 . S
C510 H500 0.929 . S
C510 C506 1.377 . S
C510 C509 1.394 . S
H511 C518 0.929 . S
H512 C521 0.930 . S
H513 C523 0.929 . S
H514 C515 0.969 . S
C515 H514 0.969 . S
C515 O516 1.550 . S
C515 H517 0.973 . S
O516 C515 1.550 . S
O516 C522 1.412 . S
H517 C515 0.973 . S
C518 H511 0.929 . S
C518 C519 1.400 . S
C518 C520 1.364 . S
C519 C518 1.400 . S
C519 C523 1.377 . S
C520 C518 1.364 . S
C520 C521 1.374 1_554 S
C521 H512 0.930 . S
C521 C520 1.374 1_556 S
C521 C522 1.383 . S
C522 O516 1.412 . S
C522 C521 1.383 . S
C522 C523 1.394 1_556 S
C523 H513 0.929 . S
C523 C519 1.377 . S
C523 C522 1.394 1_554 S
H524 C531 0.929 . S
H525 C534 0.930 . S
H526 C536 0.929 . S
H527 C528 0.969 . S
C528 H527 0.969 . S
C528 O529 1.550 . S
C528 H530 0.973 . S
O529 C528 1.550 . S
O529 C535 1.412 . S
H530 C528 0.973 . S
C531 H524 0.929 . S
C531 C532 1.400 . S
C531 C533 1.364 . S
C532 C531 1.400 . S
C532 C536 1.377 . S
C533 C531 1.364 . S
C533 C534 1.374 . S
C534 H525 0.930 . S
C534 C533 1.374 . S
C534 C535 1.383 . S
C535 O529 1.412 . S
C535 C534 1.383 . S
C535 C536 1.394 . S
C536 H526 0.929 . S
C536 C532 1.377 . S
C536 C535 1.394 . S
H537 C544 0.929 1_655 S
H538 C547 0.930 . S
H539 C549 0.929 . S
H540 C541 0.969 . S
C541 H540 0.969 . S
C541 O542 1.550 . S
C541 H543 0.973 . S
O542 C541 1.550 . S
O542 C548 1.412 . S
H543 C541 0.973 . S
C544 H537 0.929 1_455 S
C544 C545 1.400 . S
C544 C546 1.364 . S
C545 C544 1.400 . S
C545 C549 1.377 . S
C546 C544 1.364 . S
C546 C547 1.374 . S
C547 H538 0.930 . S
C547 C546 1.374 . S
C547 C548 1.383 . S
C548 O542 1.412 . S
C548 C547 1.383 . S
C548 C549 1.394 . S
C549 H539 0.929 . S
C549 C545 1.377 . S
C549 C548 1.394 . S
H550 C557 0.929 . S
H551 C560 0.930 . S
H552 C562 0.929 . S
H553 C554 0.969 . S
C554 H553 0.969 . S
C554 O555 1.550 . S
C554 H556 0.973 . S
O555 C554 1.550 . S
O555 C561 1.412 . S
H556 C554 0.973 . S
C557 H550 0.929 . S
C557 C558 1.400 . S
C557 C559 1.364 . S
C558 C557 1.400 . S
C558 C562 1.377 . S
C559 C557 1.364 . S
C559 C560 1.374 . S
C560 H551 0.930 . S
C560 C559 1.374 . S
C560 C561 1.383 . S
C561 O555 1.412 . S
C561 C560 1.383 . S
C561 C562 1.394 . S
C562 H552 0.929 . S
C562 C558 1.377 . S
C562 C561 1.394 . S
H563 C570 0.929 . S
H564 C573 0.930 . S
H565 C575 0.929 . S
H566 C567 0.969 . S
C567 H566 0.969 . S
C567 O568 1.550 . S
C567 H569 0.973 . S
O568 C567 1.550 . S
O568 C574 1.412 . S
H569 C567 0.973 . S
C570 H563 0.929 . S
C570 C571 1.400 . S
C570 C572 1.364 . S
C571 C570 1.400 . S
C571 C575 1.377 . S
C572 C570 1.364 . S
C572 C573 1.374 1_455 S
C573 H564 0.930 . S
C573 C572 1.374 1_655 S
C573 C574 1.383 . S
C574 O568 1.412 . S
C574 C573 1.383 . S
C574 C575 1.394 1_655 S
C575 H565 0.929 . S
C575 C571 1.377 . S
C575 C574 1.394 1_455 S
H576 C584 0.950 . S
H577 C589 0.950 . S
H578 C586 0.950 . S
H579 C588 0.950 . S
H580 C590 0.950 . S
H581 C592 0.950 . S
H582 C594 0.950 . S
H583 C595 0.950 . S
C584 H576 0.950 . S
C584 C585 1.386 . S
C584 C586 1.391 . S
C585 C584 1.386 . S
C585 C589 1.393 . S
C586 H578 0.950 . S
C586 C584 1.391 . S
C586 C587 1.400 . S
C587 C586 1.400 . S
C587 C588 1.398 . S
C587 C593 1.491 . S
C588 H579 0.950 . S
C588 C587 1.398 . S
C588 C589 1.391 . S
C589 H577 0.950 . S
C589 C585 1.393 . S
C589 C588 1.391 . S
C590 H580 0.950 . S
C590 C591 1.386 . S
C590 C592 1.391 . S
C591 C590 1.386 . S
C591 C595 1.393 . S
C592 H581 0.950 . S
C592 C590 1.391 . S
C592 C593 1.400 . S
C593 C587 1.491 . S
C593 C592 1.400 . S
C593 C594 1.398 . S
C594 H582 0.950 . S
C594 C593 1.398 . S
C594 C595 1.391 . S
C595 H583 0.950 . S
C595 C591 1.393 . S
C595 C594 1.391 . S
H596 C604 0.950 . S
H597 C609 0.950 . S
H598 C606 0.950 . S
H599 C608 0.950 . S
H600 C610 0.950 . S
H601 C612 0.950 . S
H602 C614 0.950 . S
H603 C615 0.950 . S
C604 H596 0.950 . S
C604 C605 1.386 . S
C604 C606 1.391 . S
C605 C604 1.386 . S
C605 C609 1.393 . S
C606 H598 0.950 . S
C606 C604 1.391 . S
C606 C607 1.400 . S
C607 C606 1.400 . S
C607 C608 1.398 . S
C607 C613 1.491 . S
C608 H599 0.950 . S
C608 C607 1.398 . S
C608 C609 1.391 . S
C609 H597 0.950 . S
C609 C605 1.393 . S
C609 C608 1.391 . S
C610 H600 0.950 . S
C610 C611 1.386 . S
C610 C612 1.391 . S
C611 C610 1.386 . S
C611 C615 1.393 . S
C612 H601 0.950 . S
C612 C610 1.391 . S
C612 C613 1.400 . S
C613 C607 1.491 . S
C613 C612 1.400 . S
C613 C614 1.398 . S
C614 H602 0.950 . S
C614 C613 1.398 . S
C614 C615 1.391 . S
C615 H603 0.950 . S
C615 C611 1.393 . S
C615 C614 1.391 . S
H616 C624 0.950 . S
H617 C629 0.950 . S
H618 C626 0.950 . S
H619 C628 0.950 . S
H620 C630 0.950 . S
H621 C632 0.950 . S
H622 C634 0.950 1_565 S
H623 C635 0.967 . S
C624 H616 0.950 . S
C624 C625 1.386 1_565 S
C624 C626 1.391 . S
C625 C624 1.386 1_545 S
C625 C629 1.393 . S
C626 H618 0.950 . S
C626 C624 1.391 . S
C626 C627 1.400 1_565 S
C627 C626 1.400 1_545 S
C627 C628 1.398 . S
C627 C633 1.491 . S
C628 H619 0.950 . S
C628 C627 1.398 . S
C628 C629 1.391 . S
C629 H617 0.950 . S
C629 C625 1.393 . S
C629 C628 1.391 . S
C630 H620 0.950 . S
C630 C631 1.386 . S
C630 C632 1.391 . S
C631 C630 1.386 . S
C631 C635 1.393 . S
C632 H621 0.950 . S
C632 C630 1.391 . S
C632 C633 1.400 . S
C633 C627 1.491 . S
C633 C632 1.400 . S
C633 C634 1.398 . S
C634 H622 0.950 1_545 S
C634 C633 1.398 . S
C634 C635 1.391 . S
C635 H623 0.967 . S
C635 C631 1.393 . S
C635 C634 1.391 . S
H636 C644 0.950 . S
H637 C649 0.950 . S
H638 C646 0.950 . S
H639 C648 0.950 . S
H640 C650 0.950 . S
H641 C652 0.950 . S
H642 C654 0.950 1_545 S
H643 C655 0.950 1_545 S
C644 H636 0.950 . S
C644 C645 1.386 1_545 S
C644 C646 1.391 . S
C645 C644 1.386 1_565 S
C645 C649 1.393 . S
C646 H638 0.950 . S
C646 C644 1.391 . S
C646 C647 1.400 1_545 S
C647 C646 1.400 1_565 S
C647 C648 1.398 . S
C647 C653 1.491 . S
C648 H639 0.950 . S
C648 C647 1.398 . S
C648 C649 1.391 . S
C649 H637 0.950 . S
C649 C645 1.393 . S
C649 C648 1.391 . S
C650 H640 0.950 . S
C650 C651 1.386 . S
C650 C652 1.391 . S
C651 C650 1.386 . S
C651 C655 1.393 . S
C652 H641 0.950 . S
C652 C650 1.391 . S
C652 C653 1.400 . S
C653 C647 1.491 . S
C653 C652 1.400 . S
C653 C654 1.398 . S
C654 H642 0.950 1_565 S
C654 C653 1.398 . S
C654 C655 1.391 . S
C655 H643 0.950 1_565 S
C655 C651 1.393 . S
C655 C654 1.391 . S
H656 C664 0.950 . S
H657 C669 0.950 . S
H658 C666 0.950 . S
H659 C668 0.950 . S
H660 C670 0.950 . S
H661 C672 0.950 . S
H662 C674 0.950 . S
H663 C675 0.950 . S
C664 H656 0.950 . S
C664 C665 1.386 . S
C664 C666 1.391 . S
C665 C664 1.386 . S
C665 C669 1.393 . S
C666 H658 0.950 . S
C666 C664 1.391 . S
C666 C667 1.400 . S
C667 C666 1.400 . S
C667 C668 1.398 . S
C667 C673 1.491 . S
C668 H659 0.950 . S
C668 C667 1.398 . S
C668 C669 1.391 . S
C669 H657 0.950 . S
C669 C665 1.393 . S
C669 C668 1.391 . S
C670 H660 0.950 . S
C670 C671 1.386 . S
C670 C672 1.391 . S
C671 C670 1.386 . S
C671 C675 1.393 . S
C672 H661 0.950 . S
C672 C670 1.391 . S
C672 C673 1.400 . S
C673 C667 1.491 . S
C673 C672 1.400 . S
C673 C674 1.398 . S
C674 H662 0.950 . S
C674 C673 1.398 . S
C674 C675 1.391 . S
C675 H663 0.950 . S
C675 C671 1.393 . S
C675 C674 1.391 . S
H676 C684 0.950 . S
H677 C689 0.950 . S
H678 C686 0.950 . S
H679 C688 0.950 . S
H680 C690 0.950 . S
H681 C692 0.950 . S
H682 C694 0.927 1_554 S
H683 C695 0.950 1_554 S
C684 H676 0.950 . S
C684 C685 1.386 1_554 S
C684 C686 1.391 . S
C685 C684 1.386 1_556 S
C685 C689 1.393 . S
C686 H678 0.950 . S
C686 C684 1.391 . S
C686 C687 1.400 1_554 S
C687 C686 1.400 1_556 S
C687 C688 1.398 . S
C687 C693 1.491 . S
C688 H679 0.950 . S
C688 C687 1.398 . S
C688 C689 1.391 . S
C689 H677 0.950 . S
C689 C685 1.393 . S
C689 C688 1.391 . S
C690 H680 0.950 . S
C690 C691 1.386 . S
C690 C692 1.391 . S
C691 C690 1.386 . S
C691 C695 1.393 . S
C692 H681 0.950 . S
C692 C690 1.391 . S
C692 C693 1.400 . S
C693 C687 1.491 . S
C693 C692 1.400 . S
C693 C694 1.414 . S
C694 H682 0.927 1_556 S
C694 C693 1.414 . S
C694 C695 1.398 . S
C695 H683 0.950 1_556 S
C695 C691 1.393 . S
C695 C694 1.398 . S
H696 C704 0.950 . S
H697 C709 0.950 . S
H698 C706 0.950 . S
H699 C708 0.950 . S
H700 C710 0.950 . S
H701 C712 0.950 . S
H702 C714 0.950 . S
H703 C715 0.950 . S
C704 H696 0.950 . S
C704 C705 1.386 . S
C704 C706 1.391 . S
C705 C704 1.386 . S
C705 C709 1.393 . S
C706 H698 0.950 . S
C706 C704 1.391 . S
C706 C707 1.400 . S
C707 C706 1.400 . S
C707 C708 1.398 . S
C707 C713 1.491 . S
C708 H699 0.950 . S
C708 C707 1.398 . S
C708 C709 1.391 . S
C709 H697 0.950 . S
C709 C705 1.393 . S
C709 C708 1.391 . S
C710 H700 0.950 . S
C710 C711 1.386 . S
C710 C712 1.391 . S
C711 C710 1.386 . S
C711 C715 1.393 . S
C712 H701 0.950 . S
C712 C710 1.391 . S
C712 C713 1.400 . S
C713 C707 1.491 . S
C713 C712 1.400 . S
C713 C714 1.398 . S
C714 H702 0.950 . S
C714 C713 1.398 . S
C714 C715 1.391 . S
C715 H703 0.950 . S
C715 C711 1.393 . S
C715 C714 1.391 . S
H716 C724 0.950 . S
H717 C729 0.950 . S
H718 C726 0.950 . S
H719 C728 0.950 . S
H720 C730 0.979 . S
H721 C732 0.950 1_556 S
H722 C734 0.950 . S
H723 C735 0.950 . S
C724 H716 0.950 . S
C724 C725 1.386 . S
C724 C726 1.391 . S
C725 C724 1.386 . S
C725 C729 1.393 1_554 S
C726 H718 0.950 . S
C726 C724 1.391 . S
C726 C727 1.400 . S
C727 C726 1.400 . S
C727 C728 1.398 1_554 S
C727 C733 1.491 . S
C728 H719 0.950 . S
C728 C727 1.398 1_556 S
C728 C729 1.391 . S
C729 H717 0.950 . S
C729 C725 1.393 1_556 S
C729 C728 1.391 . S
C730 H720 0.979 . S
C730 C731 1.386 . S
C730 C732 1.391 . S
C731 C730 1.386 . S
C731 C735 1.393 . S
C732 H721 0.950 1_554 S
C732 C730 1.391 . S
C732 C733 1.400 . S
C733 C727 1.491 . S
C733 C732 1.400 . S
C733 C734 1.398 . S
C734 H722 0.950 . S
C734 C733 1.398 . S
C734 C735 1.391 . S
C735 H723 0.950 . S
C735 C731 1.393 . S
C735 C734 1.391 . S
H736 C744 0.950 . S
H737 C749 0.950 . S
H738 C746 0.950 . S
H739 C748 0.950 . S
H740 C750 0.950 . S
H741 C752 0.950 . S
H742 C754 0.950 . S
H743 C755 0.950 . S
C744 H736 0.950 . S
C744 C745 1.386 . S
C744 C746 1.391 . S
C745 C744 1.386 . S
C745 C749 1.393 . S
C746 H738 0.950 . S
C746 C744 1.391 . S
C746 C747 1.400 . S
C747 C746 1.400 . S
C747 C748 1.398 . S
C747 C753 1.491 . S
C748 H739 0.950 . S
C748 C747 1.398 . S
C748 C749 1.391 . S
C749 H737 0.950 . S
C749 C745 1.393 . S
C749 C748 1.391 . S
C750 H740 0.950 . S
C750 C751 1.386 . S
C750 C752 1.391 . S
C751 C750 1.386 . S
C751 C755 1.393 . S
C752 H741 0.950 . S
C752 C750 1.391 . S
C752 C753 1.400 . S
C753 C747 1.491 . S
C753 C752 1.400 . S
C753 C754 1.398 . S
C754 H742 0.950 . S
C754 C753 1.398 . S
C754 C755 1.391 . S
C755 H743 0.950 . S
C755 C751 1.393 . S
C755 C754 1.391 . S
H756 C764 0.950 . S
H757 C769 0.950 . S
H758 C766 0.950 . S
H759 C768 0.950 . S
H760 C770 0.950 1_455 S
H761 C772 0.950 1_455 S
H762 C774 0.950 . S
H763 C775 0.950 . S
C764 H756 0.950 . S
C764 C765 1.386 . S
C764 C766 1.391 . S
C765 C764 1.386 . S
C765 C769 1.393 1_655 S
C766 H758 0.950 . S
C766 C764 1.391 . S
C766 C767 1.400 . S
C767 C766 1.400 . S
C767 C768 1.398 1_655 S
C767 C773 1.491 . S
C768 H759 0.950 . S
C768 C767 1.398 1_455 S
C768 C769 1.391 . S
C769 H757 0.950 . S
C769 C765 1.393 1_455 S
C769 C768 1.391 . S
C770 H760 0.950 1_655 S
C770 C771 1.386 . S
C770 C772 1.391 . S
C771 C770 1.386 . S
C771 C775 1.393 . S
C772 H761 0.950 1_655 S
C772 C770 1.391 . S
C772 C773 1.400 . S
C773 C767 1.491 . S
C773 C772 1.400 . S
C773 C774 1.398 . S
C774 H762 0.950 . S
C774 C773 1.398 . S
C774 C775 1.391 . S
C775 H763 0.950 . S
C775 C771 1.393 . S
C775 C774 1.391 . S
H776 C784 0.950 . S
H777 C789 0.950 . S
H778 C786 0.950 . S
H779 C788 0.950 . S
H780 C790 0.950 . S
H781 C792 0.950 . S
H782 C794 0.950 . S
H783 C795 0.950 . S
C784 H776 0.950 . S
C784 C785 1.386 . S
C784 C786 1.391 . S
C785 C784 1.386 . S
C785 C789 1.393 . S
C786 H778 0.950 . S
C786 C784 1.391 . S
C786 C787 1.400 . S
C787 C786 1.400 . S
C787 C788 1.398 . S
C787 C793 1.491 . S
C788 H779 0.950 . S
C788 C787 1.398 . S
C788 C789 1.391 . S
C789 H777 0.950 . S
C789 C785 1.393 . S
C789 C788 1.391 . S
C790 H780 0.950 . S
C790 C791 1.386 . S
C790 C792 1.391 . S
C791 C790 1.386 . S
C791 C795 1.393 . S
C792 H781 0.950 . S
C792 C790 1.391 . S
C792 C793 1.400 . S
C793 C787 1.491 . S
C793 C792 1.400 . S
C793 C794 1.398 . S
C794 H782 0.950 . S
C794 C793 1.398 . S
C794 C795 1.391 . S
C795 H783 0.950 . S
C795 C791 1.393 . S
C795 C794 1.391 . S
H796 C804 0.950 1_655 S
H797 C809 0.950 . S
H798 C806 0.950 . S
H799 C808 0.950 . S
H800 C810 0.950 . S
H801 C812 0.950 . S
H802 C814 0.950 . S
H803 C815 0.950 . S
C804 H796 0.950 1_455 S
C804 C805 1.386 . S
C804 C806 1.391 . S
C805 C804 1.386 . S
C805 C809 1.393 . S
C806 H798 0.950 . S
C806 C804 1.391 . S
C806 C807 1.400 . S
C807 C806 1.400 . S
C807 C808 1.398 . S
C807 C813 1.491 . S
C808 H799 0.950 . S
C808 C807 1.398 . S
C808 C809 1.391 . S
C809 H797 0.950 . S
C809 C805 1.393 . S
C809 C808 1.391 . S
C810 H800 0.950 . S
C810 C811 1.386 . S
C810 C812 1.391 . S
C811 C810 1.386 . S
C811 C815 1.393 . S
C812 H801 0.950 . S
C812 C810 1.391 . S
C812 C813 1.400 . S
C813 C807 1.491 . S
C813 C812 1.400 . S
C813 C814 1.398 . S
C814 H802 0.950 . S
C814 C813 1.398 . S
C814 C815 1.391 . S
C815 H803 0.950 . S
C815 C811 1.393 . S
C815 C814 1.391 . S
H816 C824 0.950 . S
H817 C829 0.950 . S
H818 C826 0.950 . S
H819 C828 0.950 . S
H820 C830 0.950 . S
H821 C832 0.950 . S
H822 C834 0.950 . S
H823 C835 0.950 . S
C824 H816 0.950 . S
C824 C825 1.386 . S
C824 C826 1.391 . S
C825 C824 1.386 . S
C825 C829 1.393 . S
C826 H818 0.950 . S
C826 C824 1.391 . S
C826 C827 1.400 . S
C827 C826 1.400 . S
C827 C828 1.398 . S
C827 C833 1.491 . S
C828 H819 0.950 . S
C828 C827 1.398 . S
C828 C829 1.391 . S
C829 H817 0.950 . S
C829 C825 1.393 . S
C829 C828 1.391 . S
C830 H820 0.950 . S
C830 C831 1.386 . S
C830 C832 1.391 . S
C831 C830 1.386 . S
C831 C835 1.393 . S
C832 H821 0.950 . S
C832 C830 1.391 . S
C832 C833 1.400 . S
C833 C827 1.491 . S
C833 C832 1.400 . S
C833 C834 1.398 . S
C834 H822 0.950 . S
C834 C833 1.398 . S
C834 C835 1.391 . S
C835 H823 0.950 . S
C835 C831 1.393 . S
C835 C834 1.391 . S
H836 C844 0.950 . S
H837 C849 0.950 . S
H838 C846 0.950 . S
H839 C848 0.950 . S
H840 C850 0.950 . S
H841 C852 0.950 . S
H842 C854 0.950 . S
H843 C855 0.950 . S
C844 H836 0.950 . S
C844 C845 1.386 . S
C844 C846 1.391 . S
C845 C844 1.386 . S
C845 C849 1.393 . S
C846 H838 0.950 . S
C846 C844 1.391 . S
C846 C847 1.400 . S
C847 C846 1.400 . S
C847 C848 1.398 . S
C847 C853 1.491 . S
C848 H839 0.950 . S
C848 C847 1.398 . S
C848 C849 1.391 . S
C849 H837 0.950 . S
C849 C845 1.393 . S
C849 C848 1.391 . S
C850 H840 0.950 . S
C850 C851 1.386 . S
C850 C852 1.391 . S
C851 C850 1.386 . S
C851 C855 1.393 . S
C852 H841 0.950 . S
C852 C850 1.391 . S
C852 C853 1.400 . S
C853 C847 1.491 . S
C853 C852 1.400 . S
C853 C854 1.398 . S
C854 H842 0.950 . S
C854 C853 1.398 . S
C854 C855 1.391 . S
C855 H843 0.950 . S
C855 C851 1.393 . S
C855 C854 1.391 . S
H856 C864 0.950 1_545 S
H857 C869 0.950 . S
H858 C866 0.950 . S
H859 C868 0.950 . S
H860 C870 0.950 . S
H861 C872 0.950 . S
H862 C874 0.950 . S
H863 C875 0.950 . S
C864 H856 0.950 1_565 S
C864 C865 1.386 . S
C864 C866 1.391 . S
C865 C864 1.386 . S
C865 C869 1.393 . S
C866 H858 0.950 . S
C866 C864 1.391 . S
C866 C867 1.400 . S
C867 C866 1.400 . S
C867 C868 1.398 . S
C867 C873 1.491 . S
C868 H859 0.950 . S
C868 C867 1.398 . S
C868 C869 1.391 . S
C869 H857 0.950 . S
C869 C865 1.393 . S
C869 C868 1.391 . S
C870 H860 0.950 . S
C870 C871 1.386 . S
C870 C872 1.391 . S
C871 C870 1.386 . S
C871 C875 1.393 . S
C872 H861 0.950 . S
C872 C870 1.391 . S
C872 C873 1.400 . S
C873 C867 1.491 . S
C873 C872 1.400 . S
C873 C874 1.398 . S
C874 H862 0.950 . S
C874 C873 1.398 . S
C874 C875 1.391 . S
C875 H863 0.950 . S
C875 C871 1.393 . S
C875 C874 1.391 . S
H876 C884 0.950 . S
H877 C889 0.950 . S
H878 C886 0.950 . S
H879 C888 0.950 . S
H880 C890 0.950 . S
H881 C892 0.950 . S
H882 C894 0.901 1_565 S
H883 C895 0.950 1_565 S
C884 H876 0.950 . S
C884 C885 1.386 1_565 S
C884 C886 1.391 . S
C885 C884 1.386 1_545 S
C885 C889 1.393 . S
C886 H878 0.950 . S
C886 C884 1.391 . S
C886 C887 1.400 1_565 S
C887 C886 1.400 1_545 S
C887 C888 1.398 . S
C887 C893 1.491 . S
C888 H879 0.950 . S
C888 C887 1.398 . S
C888 C889 1.391 . S
C889 H877 0.950 . S
C889 C885 1.393 . S
C889 C888 1.391 . S
C890 H880 0.950 . S
C890 C891 1.386 . S
C890 C892 1.391 . S
C891 C890 1.386 . S
C891 C895 1.393 . S
C892 H881 0.950 . S
C892 C890 1.391 . S
C892 C893 1.400 . S
C893 C887 1.491 . S
C893 C892 1.400 . S
C893 C894 1.432 . S
C894 H882 0.901 1_545 S
C894 C893 1.432 . S
C894 C895 1.406 . S
C895 H883 0.950 1_545 S
C895 C891 1.393 . S
C895 C894 1.406 . S
H896 C904 0.950 . S
H897 C909 0.950 . S
H898 C906 0.950 . S
H899 C908 0.950 . S
H900 C910 0.950 . S
H901 C912 0.950 . S
H902 C914 0.950 . S
H903 C915 0.950 . S
C904 H896 0.950 . S
C904 C905 1.386 . S
C904 C906 1.391 . S
C905 C904 1.386 . S
C905 C909 1.393 . S
C906 H898 0.950 . S
C906 C904 1.391 . S
C906 C907 1.400 . S
C907 C906 1.400 . S
C907 C908 1.398 . S
C907 C913 1.491 . S
C908 H899 0.950 . S
C908 C907 1.398 . S
C908 C909 1.391 . S
C909 H897 0.950 . S
C909 C905 1.393 . S
C909 C908 1.391 . S
C910 H900 0.950 . S
C910 C911 1.386 . S
C910 C912 1.391 . S
C911 C910 1.386 . S
C911 C915 1.393 . S
C912 H901 0.950 . S
C912 C910 1.391 . S
C912 C913 1.400 . S
C913 C907 1.491 . S
C913 C912 1.400 . S
C913 C914 1.398 . S
C914 H902 0.950 . S
C914 C913 1.398 . S
C914 C915 1.391 . S
C915 H903 0.950 . S
C915 C911 1.393 . S
C915 C914 1.391 . S
H916 C924 0.950 . S
H917 C929 0.950 . S
H918 C926 0.950 . S
H919 C928 0.950 . S
H920 C930 0.950 1_556 S
H921 C932 0.952 1_556 S
H922 C934 0.950 . S
H923 C935 0.950 . S
C924 H916 0.950 . S
C924 C925 1.386 . S
C924 C926 1.391 . S
C925 C924 1.386 . S
C925 C929 1.393 1_554 S
C926 H918 0.950 . S
C926 C924 1.391 . S
C926 C927 1.400 . S
C927 C926 1.400 . S
C927 C928 1.398 1_554 S
C927 C933 1.491 . S
C928 H919 0.950 . S
C928 C927 1.398 1_556 S
C928 C929 1.391 . S
C929 H917 0.950 . S
C929 C925 1.393 1_556 S
C929 C928 1.391 . S
C930 H920 0.950 1_554 S
C930 C931 1.386 . S
C930 C932 1.390 . S
C931 C930 1.386 . S
C931 C935 1.393 . S
C932 H921 0.952 1_554 S
C932 C930 1.390 . S
C932 C933 1.399 . S
C933 C927 1.491 . S
C933 C932 1.399 . S
C933 C934 1.398 . S
C934 H922 0.950 . S
C934 C933 1.398 . S
C934 C935 1.391 . S
C935 H923 0.950 . S
C935 C931 1.393 . S
C935 C934 1.391 . S
H936 C944 0.950 . S
H937 C949 0.950 . S
H938 C946 0.950 . S
H939 C948 0.950 . S
H940 C950 0.950 . S
H941 C952 0.950 . S
H942 C954 0.950 . S
H943 C955 0.950 . S
C944 H936 0.950 . S
C944 C945 1.386 . S
C944 C946 1.391 . S
C945 C944 1.386 . S
C945 C949 1.393 . S
C946 H938 0.950 . S
C946 C944 1.391 . S
C946 C947 1.400 . S
C947 C946 1.400 . S
C947 C948 1.398 . S
C947 C953 1.491 . S
C948 H939 0.950 . S
C948 C947 1.398 . S
C948 C949 1.391 . S
C949 H937 0.950 . S
C949 C945 1.393 . S
C949 C948 1.391 . S
C950 H940 0.950 . S
C950 C951 1.386 . S
C950 C952 1.391 . S
C951 C950 1.386 . S
C951 C955 1.393 . S
C952 H941 0.950 . S
C952 C950 1.391 . S
C952 C953 1.400 . S
C953 C947 1.491 . S
C953 C952 1.400 . S
C953 C954 1.398 . S
C954 H942 0.950 . S
C954 C953 1.398 . S
C954 C955 1.391 . S
C955 H943 0.950 . S
C955 C951 1.393 . S
C955 C954 1.391 . S
H956 C964 0.968 . S
H957 C969 0.950 . S
H958 C966 0.938 1_554 S
H959 C968 0.950 . S
H960 C970 0.950 . S
H961 C972 0.950 . S
H962 C974 0.950 . S
H963 C975 0.950 . S
C964 H956 0.968 . S
C964 C965 1.376 1_554 S
C964 C966 1.384 1_554 S
C965 C964 1.376 1_556 S
C965 C969 1.393 . S
C966 H958 0.938 1_556 S
C966 C964 1.384 1_556 S
C966 C967 1.400 . S
C967 C966 1.400 . S
C967 C968 1.398 . S
C967 C973 1.491 . S
C968 H959 0.950 . S
C968 C967 1.398 . S
C968 C969 1.391 . S
C969 H957 0.950 . S
C969 C965 1.393 . S
C969 C968 1.391 . S
C970 H960 0.950 . S
C970 C971 1.386 . S
C970 C972 1.391 . S
C971 C970 1.386 . S
C971 C975 1.393 . S
C972 H961 0.950 . S
C972 C970 1.391 . S
C972 C973 1.400 . S
C973 C967 1.491 . S
C973 C972 1.400 . S
C973 C974 1.398 . S
C974 H962 0.950 . S
C974 C973 1.398 . S
C974 C975 1.391 . S
C975 H963 0.950 . S
C975 C971 1.393 . S
C975 C974 1.391 . S
H976 C984 0.950 . S
H977 C989 0.950 . S
H978 C986 0.950 . S
H979 C988 0.950 . S
H980 C990 0.950 . S
H981 C992 0.950 . S
H982 C994 0.950 . S
H983 C995 0.950 . S
C984 H976 0.950 . S
C984 C985 1.386 . S
C984 C986 1.391 . S
C985 C984 1.386 . S
C985 C989 1.393 . S
C986 H978 0.950 . S
C986 C984 1.391 . S
C986 C987 1.400 . S
C987 C986 1.400 . S
C987 C988 1.398 . S
C987 C993 1.491 . S
C988 H979 0.950 . S
C988 C987 1.398 . S
C988 C989 1.391 . S
C989 H977 0.950 . S
C989 C985 1.393 . S
C989 C988 1.391 . S
C990 H980 0.950 . S
C990 C991 1.386 . S
C990 C992 1.391 . S
C991 C990 1.386 . S
C991 C995 1.393 . S
C992 H981 0.950 . S
C992 C990 1.391 . S
C992 C993 1.400 . S
C993 C987 1.491 . S
C993 C992 1.400 . S
C993 C994 1.398 . S
C994 H982 0.950 . S
C994 C993 1.398 . S
C994 C995 1.391 . S
C995 H983 0.950 . S
C995 C991 1.393 . S
C995 C994 1.391 . S
H996 C1004 0.950 . S
H997 C1009 0.950 . S
H998 C1006 0.950 . S
H999 C1008 0.950 . S
H1000 C1010 0.950 . S
H1001 C1012 0.950 . S
H1002 C1014 0.961 . S
H1003 C1015 0.950 1_655 S
C1004 H996 0.950 . S
C1004 C1005 1.386 1_655 S
C1004 C1006 1.391 . S
C1005 C1004 1.386 1_455 S
C1005 C1009 1.393 . S
C1006 H998 0.950 . S
C1006 C1004 1.391 . S
C1006 C1007 1.400 1_655 S
C1007 C1006 1.400 1_455 S
C1007 C1008 1.398 . S
C1007 C1013 1.491 . S
C1008 H999 0.950 . S
C1008 C1007 1.398 . S
C1008 C1009 1.391 . S
C1009 H997 0.950 . S
C1009 C1005 1.393 . S
C1009 C1008 1.391 . S
C1010 H1000 0.950 . S
C1010 C1011 1.386 . S
C1010 C1012 1.391 . S
C1011 C1010 1.386 . S
C1011 C1015 1.393 . S
C1012 H1001 0.950 . S
C1012 C1010 1.391 . S
C1012 C1013 1.400 . S
C1013 C1007 1.491 . S
C1013 C1012 1.400 . S
C1013 C1014 1.391 1_455 S
C1014 H1002 0.961 . S
C1014 C1013 1.391 1_655 S
C1014 C1015 1.388 1_655 S
C1015 H1003 0.950 1_455 S
C1015 C1011 1.393 . S
C1015 C1014 1.388 1_455 S
H1016 C1024 0.950 . S
H1017 C1029 0.950 . S
H1018 C1026 0.950 . S
H1019 C1028 0.950 . S
H1020 C1030 0.950 . S
H1021 C1032 0.950 . S
H1022 C1034 0.950 . S
H1023 C1035 0.950 . S
C1024 H1016 0.950 . S
C1024 C1025 1.386 . S
C1024 C1026 1.391 . S
C1025 C1024 1.386 . S
C1025 C1029 1.393 . S
C1026 H1018 0.950 . S
C1026 C1024 1.391 . S
C1026 C1027 1.400 . S
C1027 C1026 1.400 . S
C1027 C1028 1.398 . S
C1027 C1033 1.491 . S
C1028 H1019 0.950 . S
C1028 C1027 1.398 . S
C1028 C1029 1.391 . S
C1029 H1017 0.950 . S
C1029 C1025 1.393 . S
C1029 C1028 1.391 . S
C1030 H1020 0.950 . S
C1030 C1031 1.386 . S
C1030 C1032 1.391 . S
C1031 C1030 1.386 . S
C1031 C1035 1.393 . S
C1032 H1021 0.950 . S
C1032 C1030 1.391 . S
C1032 C1033 1.400 . S
C1033 C1027 1.491 . S
C1033 C1032 1.400 . S
C1033 C1034 1.398 . S
C1034 H1022 0.950 . S
C1034 C1033 1.398 . S
C1034 C1035 1.391 . S
C1035 H1023 0.950 . S
C1035 C1031 1.393 . S
C1035 C1034 1.391 . S
H1036 C1044 0.950 . S
H1037 C1049 0.950 . S
H1038 C1046 0.950 . S
H1039 C1048 0.950 . S
H1040 C1050 0.950 . S
H1041 C1052 0.950 1_455 S
H1042 C1054 0.950 . S
H1043 C1055 0.950 . S
C1044 H1036 0.950 . S
C1044 C1045 1.386 . S
C1044 C1046 1.391 . S
C1045 C1044 1.386 . S
C1045 C1049 1.393 1_655 S
C1046 H1038 0.950 . S
C1046 C1044 1.391 . S
C1046 C1047 1.400 . S
C1047 C1046 1.400 . S
C1047 C1048 1.398 1_655 S
C1047 C1053 1.491 . S
C1048 H1039 0.950 . S
C1048 C1047 1.398 1_455 S
C1048 C1049 1.391 . S
C1049 H1037 0.950 . S
C1049 C1045 1.393 1_455 S
C1049 C1048 1.391 . S
C1050 H1040 0.950 . S
C1050 C1051 1.386 . S
C1050 C1052 1.391 . S
C1051 C1050 1.386 . S
C1051 C1055 1.393 . S
C1052 H1041 0.950 1_655 S
C1052 C1050 1.391 . S
C1052 C1053 1.400 . S
C1053 C1047 1.491 . S
C1053 C1052 1.400 . S
C1053 C1054 1.398 . S
C1054 H1042 0.950 . S
C1054 C1053 1.398 . S
C1054 C1055 1.391 . S
C1055 H1043 0.950 . S
C1055 C1051 1.393 . S
C1055 C1054 1.391 . S
H1056 C1064 0.950 . S
H1057 C1069 0.950 . S
H1058 C1066 0.950 . S
H1059 C1068 0.950 . S
H1060 C1070 0.950 . S
H1061 C1072 0.950 . S
H1062 C1074 0.950 . S
H1063 C1075 0.950 . S
C1064 H1056 0.950 . S
C1064 C1065 1.386 . S
C1064 C1066 1.391 . S
C1065 C1064 1.386 . S
C1065 C1069 1.393 . S
C1066 H1058 0.950 . S
C1066 C1064 1.391 . S
C1066 C1067 1.400 . S
C1067 C1066 1.400 . S
C1067 C1068 1.398 . S
C1067 C1073 1.491 . S
C1068 H1059 0.950 . S
C1068 C1067 1.398 . S
C1068 C1069 1.391 . S
C1069 H1057 0.950 . S
C1069 C1065 1.393 . S
C1069 C1068 1.391 . S
C1070 H1060 0.950 . S
C1070 C1071 1.386 . S
C1070 C1072 1.391 . S
C1071 C1070 1.386 . S
C1071 C1075 1.393 . S
C1072 H1061 0.950 . S
C1072 C1070 1.391 . S
C1072 C1073 1.400 . S
C1073 C1067 1.491 . S
C1073 C1072 1.400 . S
C1073 C1074 1.398 . S
C1074 H1062 0.950 . S
C1074 C1073 1.398 . S
C1074 C1075 1.391 . S
C1075 H1063 0.950 . S
C1075 C1071 1.393 . S
C1075 C1074 1.391 . S
H1076 C1084 0.950 . S
H1077 C1089 0.950 . S
H1078 C1086 0.950 . S
H1079 C1088 0.950 . S
H1080 C1090 0.950 . S
H1081 C1092 0.950 . S
H1082 C1094 0.950 . S
H1083 C1095 0.950 . S
C1084 H1076 0.950 . S
C1084 C1085 1.386 . S
C1084 C1086 1.391 . S
C1085 C1084 1.386 . S
C1085 C1089 1.393 . S
C1086 H1078 0.950 . S
C1086 C1084 1.391 . S
C1086 C1087 1.400 . S
C1087 C1086 1.400 . S
C1087 C1088 1.398 . S
C1087 C1093 1.491 . S
C1088 H1079 0.950 . S
C1088 C1087 1.398 . S
C1088 C1089 1.391 . S
C1089 H1077 0.950 . S
C1089 C1085 1.393 . S
C1089 C1088 1.391 . S
C1090 H1080 0.950 . S
C1090 C1091 1.386 . S
C1090 C1092 1.391 . S
C1091 C1090 1.386 . S
C1091 C1095 1.393 . S
C1092 H1081 0.950 . S
C1092 C1090 1.391 . S
C1092 C1093 1.400 . S
C1093 C1087 1.491 . S
C1093 C1092 1.400 . S
C1093 C1094 1.398 . S
C1094 H1082 0.950 . S
C1094 C1093 1.398 . S
C1094 C1095 1.391 . S
C1095 H1083 0.950 . S
C1095 C1091 1.393 . S
C1095 C1094 1.391 . S
H1096 C1104 0.950 . S
H1097 C1109 0.950 . S
H1098 C1106 0.950 . S
H1099 C1108 0.950 . S
H1100 C1110 0.950 . S
H1101 C1112 0.950 . S
H1102 C1114 0.950 . S
H1103 C1115 0.950 . S
C1104 H1096 0.950 . S
C1104 C1105 1.386 1_545 S
C1104 C1106 1.391 . S
C1105 C1104 1.386 1_565 S
C1105 C1109 1.393 . S
C1106 H1098 0.950 . S
C1106 C1104 1.391 . S
C1106 C1107 1.400 1_545 S
C1107 C1106 1.400 1_565 S
C1107 C1108 1.398 . S
C1107 C1113 1.491 . S
C1108 H1099 0.950 . S
C1108 C1107 1.398 . S
C1108 C1109 1.391 . S
C1109 H1097 0.950 . S
C1109 C1105 1.393 . S
C1109 C1108 1.391 . S
C1110 H1100 0.950 . S
C1110 C1111 1.386 . S
C1110 C1112 1.391 . S
C1111 C1110 1.386 . S
C1111 C1115 1.393 1_565 S
C1112 H1101 0.950 . S
C1112 C1110 1.391 . S
C1112 C1113 1.400 . S
C1113 C1107 1.491 . S
C1113 C1112 1.400 . S
C1113 C1114 1.398 1_565 S
C1114 H1102 0.950 . S
C1114 C1113 1.398 1_545 S
C1114 C1115 1.391 . S
C1115 H1103 0.950 . S
C1115 C1111 1.393 1_545 S
C1115 C1114 1.391 . S
H1116 C1124 0.950 . S
H1117 C1129 0.950 . S
H1118 C1126 0.950 . S
H1119 C1128 0.950 . S
H1120 C1130 0.950 . S
H1121 C1132 0.950 . S
H1122 C1134 0.950 1_545 S
H1123 C1135 0.950 . S
C1124 H1116 0.950 . S
C1124 C1125 1.365 1_545 S
C1124 C1126 1.391 . S
C1125 C1124 1.365 1_565 S
C1125 C1129 1.420 . S
C1126 H1118 0.950 . S
C1126 C1124 1.391 . S
C1126 C1127 1.400 1_545 S
C1127 C1126 1.400 1_565 S
C1127 C1128 1.398 . S
C1127 C1133 1.491 . S
C1128 H1119 0.950 . S
C1128 C1127 1.398 . S
C1128 C1129 1.391 . S
C1129 H1117 0.950 . S
C1129 C1125 1.420 . S
C1129 C1128 1.391 . S
C1130 H1120 0.950 . S
C1130 C1131 1.386 . S
C1130 C1132 1.391 . S
C1131 C1130 1.386 . S
C1131 C1135 1.393 . S
C1132 H1121 0.950 . S
C1132 C1130 1.391 . S
C1132 C1133 1.400 . S
C1133 C1127 1.491 . S
C1133 C1132 1.400 . S
C1133 C1134 1.398 . S
C1134 H1122 0.950 1_565 S
C1134 C1133 1.398 . S
C1134 C1135 1.391 . S
C1135 H1123 0.950 . S
C1135 C1131 1.393 . S
C1135 C1134 1.391 . S
H1136 C1144 0.950 . S
H1137 C1149 0.950 . S
H1138 C1146 0.950 . S
H1139 C1148 0.950 . S
H1140 C1150 0.950 . S
H1141 C1152 0.950 . S
H1142 C1154 0.950 . S
H1143 C1155 0.950 . S
C1144 H1136 0.950 . S
C1144 C1145 1.386 . S
C1144 C1146 1.391 . S
C1145 C1144 1.386 . S
C1145 C1149 1.393 . S
C1146 H1138 0.950 . S
C1146 C1144 1.391 . S
C1146 C1147 1.400 . S
C1147 C1146 1.400 . S
C1147 C1148 1.398 . S
C1147 C1153 1.491 . S
C1148 H1139 0.950 . S
C1148 C1147 1.398 . S
C1148 C1149 1.391 . S
C1149 H1137 0.950 . S
C1149 C1145 1.393 . S
C1149 C1148 1.391 . S
C1150 H1140 0.950 . S
C1150 C1151 1.386 . S
C1150 C1152 1.391 . S
C1151 C1150 1.386 . S
C1151 C1155 1.393 . S
C1152 H1141 0.950 . S
C1152 C1150 1.391 . S
C1152 C1153 1.400 . S
C1153 C1147 1.491 . S
C1153 C1152 1.400 . S
C1153 C1154 1.398 . S
C1154 H1142 0.950 . S
C1154 C1153 1.398 . S
C1154 C1155 1.391 . S
C1155 H1143 0.950 . S
C1155 C1151 1.393 . S
C1155 C1154 1.391 . S
H1156 C1164 0.950 . S
H1157 C1169 0.942 1_554 S
H1158 C1166 0.950 . S
H1159 C1168 0.950 . S
H1160 C1170 0.950 . S
H1161 C1172 0.950 . S
H1162 C1174 0.950 . S
H1163 C1175 0.950 . S
C1164 H1156 0.950 . S
C1164 C1165 1.399 . S
C1164 C1166 1.391 . S
C1165 C1164 1.399 . S
C1165 C1169 1.391 . S
C1166 H1158 0.950 . S
C1166 C1164 1.391 . S
C1166 C1167 1.400 . S
C1167 C1166 1.400 . S
C1167 C1168 1.398 . S
C1167 C1173 1.491 . S
C1168 H1159 0.950 . S
C1168 C1167 1.398 . S
C1168 C1169 1.395 . S
C1169 H1157 0.942 1_556 S
C1169 C1165 1.391 . S
C1169 C1168 1.395 . S
C1170 H1160 0.950 . S
C1170 C1171 1.386 . S
C1170 C1172 1.391 . S
C1171 C1170 1.386 . S
C1171 C1175 1.393 . S
C1172 H1161 0.950 . S
C1172 C1170 1.391 . S
C1172 C1173 1.400 . S
C1173 C1167 1.491 . S
C1173 C1172 1.400 . S
C1173 C1174 1.398 . S
C1174 H1162 0.950 . S
C1174 C1173 1.398 . S
C1174 C1175 1.391 . S
C1175 H1163 0.950 . S
C1175 C1171 1.393 . S
C1175 C1174 1.391 . S
H1176 C1184 0.950 . S
H1177 C1189 0.950 . S
H1178 C1186 0.950 . S
H1179 C1188 0.950 . S
H1180 C1190 0.950 . S
H1181 C1192 0.950 . S
H1182 C1194 0.950 . S
H1183 C1195 0.950 . S
C1184 H1176 0.950 . S
C1184 C1185 1.386 . S
C1184 C1186 1.391 . S
C1185 C1184 1.386 . S
C1185 C1189 1.393 . S
C1186 H1178 0.950 . S
C1186 C1184 1.391 . S
C1186 C1187 1.400 . S
C1187 C1186 1.400 . S
C1187 C1188 1.398 . S
C1187 C1193 1.491 . S
C1188 H1179 0.950 . S
C1188 C1187 1.398 . S
C1188 C1189 1.391 . S
C1189 H1177 0.950 . S
C1189 C1185 1.393 . S
C1189 C1188 1.391 . S
C1190 H1180 0.950 . S
C1190 C1191 1.386 . S
C1190 C1192 1.391 . S
C1191 C1190 1.386 . S
C1191 C1195 1.393 . S
C1192 H1181 0.950 . S
C1192 C1190 1.391 . S
C1192 C1193 1.400 . S
C1193 C1187 1.491 . S
C1193 C1192 1.400 . S
C1193 C1194 1.398 . S
C1194 H1182 0.950 . S
C1194 C1193 1.398 . S
C1194 C1195 1.391 . S
C1195 H1183 0.950 . S
C1195 C1191 1.393 . S
C1195 C1194 1.391 . S
H1196 C1204 0.950 . S
H1197 C1209 0.950 . S
H1198 C1206 0.950 . S
H1199 C1208 0.950 . S
H1200 C1210 0.950 . S
H1201 C1212 0.950 . S
H1202 C1214 0.950 . S
H1203 C1215 0.950 . S
C1204 H1196 0.950 . S
C1204 C1205 1.386 1_554 S
C1204 C1206 1.391 . S
C1205 C1204 1.386 1_556 S
C1205 C1209 1.393 . S
C1206 H1198 0.950 . S
C1206 C1204 1.391 . S
C1206 C1207 1.400 1_554 S
C1207 C1206 1.400 1_556 S
C1207 C1208 1.398 . S
C1207 C1213 1.491 . S
C1208 H1199 0.950 . S
C1208 C1207 1.398 . S
C1208 C1209 1.391 . S
C1209 H1197 0.950 . S
C1209 C1205 1.393 . S
C1209 C1208 1.391 . S
C1210 H1200 0.950 . S
C1210 C1211 1.386 . S
C1210 C1212 1.391 . S
C1211 C1210 1.386 . S
C1211 C1215 1.393 1_556 S
C1212 H1201 0.950 . S
C1212 C1210 1.391 . S
C1212 C1213 1.400 . S
C1213 C1207 1.491 . S
C1213 C1212 1.400 . S
C1213 C1214 1.398 1_556 S
C1214 H1202 0.950 . S
C1214 C1213 1.398 1_554 S
C1214 C1215 1.391 . S
C1215 H1203 0.950 . S
C1215 C1211 1.393 1_554 S
C1215 C1214 1.391 . S
H1216 C1224 0.950 . S
H1217 C1229 0.950 . S
H1218 C1226 0.950 . S
H1219 C1228 0.950 . S
H1220 C1230 0.950 . S
H1221 C1232 0.950 . S
H1222 C1234 0.950 . S
H1223 C1235 0.950 . S
C1224 H1216 0.950 . S
C1224 C1225 1.386 . S
C1224 C1226 1.391 . S
C1225 C1224 1.386 . S
C1225 C1229 1.393 . S
C1226 H1218 0.950 . S
C1226 C1224 1.391 . S
C1226 C1227 1.400 . S
C1227 C1226 1.400 . S
C1227 C1228 1.398 . S
C1227 C1233 1.491 . S
C1228 H1219 0.950 . S
C1228 C1227 1.398 . S
C1228 C1229 1.391 . S
C1229 H1217 0.950 . S
C1229 C1225 1.393 . S
C1229 C1228 1.391 . S
C1230 H1220 0.950 . S
C1230 C1231 1.386 . S
C1230 C1232 1.391 . S
C1231 C1230 1.386 . S
C1231 C1235 1.393 . S
C1232 H1221 0.950 . S
C1232 C1230 1.391 . S
C1232 C1233 1.400 . S
C1233 C1227 1.491 . S
C1233 C1232 1.400 . S
C1233 C1234 1.398 . S
C1234 H1222 0.950 . S
C1234 C1233 1.398 . S
C1234 C1235 1.391 . S
C1235 H1223 0.950 . S
C1235 C1231 1.393 . S
C1235 C1234 1.391 . S
H1236 C1244 0.950 . S
H1237 C1249 0.950 . S
H1238 C1246 0.950 . S
H1239 C1248 0.950 . S
H1240 C1250 0.950 . S
H1241 C1252 0.950 1_455 S
H1242 C1254 0.950 . S
H1243 C1255 0.950 . S
C1244 H1236 0.950 . S
C1244 C1245 1.410 . S
C1244 C1246 1.391 . S
C1245 C1244 1.410 . S
C1245 C1249 1.374 1_655 S
C1246 H1238 0.950 . S
C1246 C1244 1.391 . S
C1246 C1247 1.400 . S
C1247 C1246 1.400 . S
C1247 C1248 1.398 1_655 S
C1247 C1253 1.491 . S
C1248 H1239 0.950 . S
C1248 C1247 1.398 1_455 S
C1248 C1249 1.391 . S
C1249 H1237 0.950 . S
C1249 C1245 1.374 1_455 S
C1249 C1248 1.391 . S
C1250 H1240 0.950 . S
C1250 C1251 1.386 . S
C1250 C1252 1.391 . S
C1251 C1250 1.386 . S
C1251 C1255 1.393 . S
C1252 H1241 0.950 1_655 S
C1252 C1250 1.391 . S
C1252 C1253 1.400 . S
C1253 C1247 1.491 . S
C1253 C1252 1.400 . S
C1253 C1254 1.398 . S
C1254 H1242 0.950 . S
C1254 C1253 1.398 . S
C1254 C1255 1.391 . S
C1255 H1243 0.950 . S
C1255 C1251 1.393 . S
C1255 C1254 1.391 . S
H1256 C1264 0.950 . S
H1257 C1269 0.950 . S
H1258 C1266 0.950 . S
H1259 C1268 0.950 . S
H1260 C1270 0.950 . S
H1261 C1272 0.950 . S
H1262 C1274 0.950 . S
H1263 C1275 0.950 . S
C1264 H1256 0.950 . S
C1264 C1265 1.386 . S
C1264 C1266 1.391 . S
C1265 C1264 1.386 . S
C1265 C1269 1.393 . S
C1266 H1258 0.950 . S
C1266 C1264 1.391 . S
C1266 C1267 1.400 . S
C1267 C1266 1.400 . S
C1267 C1268 1.398 . S
C1267 C1273 1.491 . S
C1268 H1259 0.950 . S
C1268 C1267 1.398 . S
C1268 C1269 1.391 . S
C1269 H1257 0.950 . S
C1269 C1265 1.393 . S
C1269 C1268 1.391 . S
C1270 H1260 0.950 . S
C1270 C1271 1.386 . S
C1270 C1272 1.391 . S
C1271 C1270 1.386 . S
C1271 C1275 1.393 . S
C1272 H1261 0.950 . S
C1272 C1270 1.391 . S
C1272 C1273 1.400 . S
C1273 C1267 1.491 . S
C1273 C1272 1.400 . S
C1273 C1274 1.398 . S
C1274 H1262 0.950 . S
C1274 C1273 1.398 . S
C1274 C1275 1.391 . S
C1275 H1263 0.950 . S
C1275 C1271 1.393 . S
C1275 C1274 1.391 . S
H1276 C1284 0.950 . S
H1277 C1289 0.953 . S
H1278 C1286 0.950 . S
H1279 C1288 0.970 . S
H1280 C1290 0.950 . S
H1281 C1292 0.950 . S
H1282 C1294 0.950 . S
H1283 C1295 0.950 . S
C1284 H1276 0.950 . S
C1284 C1285 1.386 . S
C1284 C1286 1.391 . S
C1285 C1284 1.386 . S
C1285 C1289 1.389 1_655 S
C1286 H1278 0.950 . S
C1286 C1284 1.391 . S
C1286 C1287 1.400 . S
C1287 C1286 1.400 . S
C1287 C1288 1.385 1_655 S
C1287 C1293 1.491 . S
C1288 H1279 0.970 . S
C1288 C1287 1.385 1_455 S
C1288 C1289 1.388 . S
C1289 H1277 0.953 . S
C1289 C1285 1.389 1_455 S
C1289 C1288 1.388 . S
C1290 H1280 0.950 . S
C1290 C1291 1.386 1_455 S
C1290 C1292 1.391 . S
C1291 C1290 1.386 1_655 S
C1291 C1295 1.393 . S
C1292 H1281 0.950 . S
C1292 C1290 1.391 . S
C1292 C1293 1.400 1_455 S
C1293 C1287 1.491 . S
C1293 C1292 1.400 1_655 S
C1293 C1294 1.398 . S
C1294 H1282 0.950 . S
C1294 C1293 1.398 . S
C1294 C1295 1.391 . S
C1295 H1283 0.950 . S
C1295 C1291 1.393 . S
C1295 C1294 1.391 . S
H1296 C1304 0.950 . S
H1297 C1309 0.950 . S
H1298 C1306 0.950 . S
H1299 C1308 0.950 . S
H1300 C1310 0.950 . S
H1301 C1312 0.950 . S
H1302 C1314 0.950 . S
H1303 C1315 0.950 . S
C1304 H1296 0.950 . S
C1304 C1305 1.386 . S
C1304 C1306 1.391 . S
C1305 C1304 1.386 . S
C1305 C1309 1.393 . S
C1306 H1298 0.950 . S
C1306 C1304 1.391 . S
C1306 C1307 1.400 . S
C1307 C1306 1.400 . S
C1307 C1308 1.398 . S
C1307 C1313 1.491 . S
C1308 H1299 0.950 . S
C1308 C1307 1.398 . S
C1308 C1309 1.391 . S
C1309 H1297 0.950 . S
C1309 C1305 1.393 . S
C1309 C1308 1.391 . S
C1310 H1300 0.950 . S
C1310 C1311 1.386 . S
C1310 C1312 1.391 . S
C1311 C1310 1.386 . S
C1311 C1315 1.393 . S
C1312 H1301 0.950 . S
C1312 C1310 1.391 . S
C1312 C1313 1.400 . S
C1313 C1307 1.491 . S
C1313 C1312 1.400 . S
C1313 C1314 1.398 . S
C1314 H1302 0.950 . S
C1314 C1313 1.398 . S
C1314 C1315 1.391 . S
C1315 H1303 0.950 . S
C1315 C1311 1.393 . S
C1315 C1314 1.391 . S
H1316 C1324 0.950 . S
H1317 C1329 0.950 . S
H1318 C1326 0.950 . S
H1319 C1328 0.950 . S
H1320 C1330 0.950 . S
H1321 C1332 0.950 . S
H1322 C1334 0.950 . S
H1323 C1335 0.950 . S
C1324 H1316 0.950 . S
C1324 C1325 1.386 . S
C1324 C1326 1.391 . S
C1325 C1324 1.386 . S
C1325 C1329 1.393 . S
C1326 H1318 0.950 . S
C1326 C1324 1.391 . S
C1326 C1327 1.400 . S
C1327 C1326 1.400 . S
C1327 C1328 1.398 . S
C1327 C1333 1.491 . S
C1328 H1319 0.950 . S
C1328 C1327 1.398 . S
C1328 C1329 1.391 . S
C1329 H1317 0.950 . S
C1329 C1325 1.393 . S
C1329 C1328 1.391 . S
C1330 H1320 0.950 . S
C1330 C1331 1.386 . S
C1330 C1332 1.391 . S
C1331 C1330 1.386 . S
C1331 C1335 1.393 . S
C1332 H1321 0.950 . S
C1332 C1330 1.391 . S
C1332 C1333 1.400 . S
C1333 C1327 1.491 . S
C1333 C1332 1.400 . S
C1333 C1334 1.398 . S
C1334 H1322 0.950 . S
C1334 C1333 1.398 . S
C1334 C1335 1.391 . S
C1335 H1323 0.950 . S
C1335 C1331 1.393 . S
C1335 C1334 1.391 . S
H1336 C1344 0.950 . S
H1337 C1349 0.950 . S
H1338 C1346 0.950 . S
H1339 C1348 0.950 . S
H1340 C1350 0.950 . S
H1341 C1352 0.950 . S
H1342 C1354 0.950 . S
H1343 C1355 0.950 . S
C1344 H1336 0.950 . S
C1344 C1345 1.386 1_565 S
C1344 C1346 1.391 . S
C1345 C1344 1.386 1_545 S
C1345 C1349 1.393 . S
C1346 H1338 0.950 . S
C1346 C1344 1.391 . S
C1346 C1347 1.400 1_565 S
C1347 C1346 1.400 1_545 S
C1347 C1348 1.398 . S
C1347 C1353 1.491 . S
C1348 H1339 0.950 . S
C1348 C1347 1.398 . S
C1348 C1349 1.391 . S
C1349 H1337 0.950 . S
C1349 C1345 1.393 . S
C1349 C1348 1.391 . S
C1350 H1340 0.950 . S
C1350 C1351 1.386 . S
C1350 C1352 1.391 . S
C1351 C1350 1.386 . S
C1351 C1355 1.393 1_545 S
C1352 H1341 0.950 . S
C1352 C1350 1.391 . S
C1352 C1353 1.400 . S
C1353 C1347 1.491 . S
C1353 C1352 1.400 . S
C1353 C1354 1.398 1_545 S
C1354 H1342 0.950 . S
C1354 C1353 1.398 1_565 S
C1354 C1355 1.391 . S
C1355 H1343 0.950 . S
C1355 C1351 1.393 1_565 S
C1355 C1354 1.391 . S
H1356 C1364 0.950 . S
H1357 C1369 0.950 . S
H1358 C1366 0.950 . S
H1359 C1368 0.950 . S
H1360 C1370 0.950 1_565 S
H1361 C1372 0.938 1_565 S
H1362 C1374 0.950 . S
H1363 C1375 0.950 . S
C1364 H1356 0.950 . S
C1364 C1365 1.401 . S
C1364 C1366 1.391 . S
C1365 C1364 1.401 . S
C1365 C1369 1.379 1_545 S
C1366 H1358 0.950 . S
C1366 C1364 1.391 . S
C1366 C1367 1.400 . S
C1367 C1366 1.400 . S
C1367 C1368 1.398 1_545 S
C1367 C1373 1.491 . S
C1368 H1359 0.950 . S
C1368 C1367 1.398 1_565 S
C1368 C1369 1.391 . S
C1369 H1357 0.950 . S
C1369 C1365 1.379 1_565 S
C1369 C1368 1.391 . S
C1370 H1360 0.950 1_545 S
C1370 C1371 1.386 . S
C1370 C1372 1.393 . S
C1371 C1370 1.386 . S
C1371 C1375 1.393 . S
C1372 H1361 0.938 1_545 S
C1372 C1370 1.393 . S
C1372 C1373 1.410 . S
C1373 C1367 1.491 . S
C1373 C1372 1.410 . S
C1373 C1374 1.398 . S
C1374 H1362 0.950 . S
C1374 C1373 1.398 . S
C1374 C1375 1.391 . S
C1375 H1363 0.950 . S
C1375 C1371 1.393 . S
C1375 C1374 1.391 . S
H1376 C1384 0.950 . S
H1377 C1389 0.950 . S
H1378 C1386 0.950 . S
H1379 C1388 0.950 . S
H1380 C1390 0.950 . S
H1381 C1392 0.950 . S
H1382 C1394 0.950 . S
H1383 C1395 0.950 . S
C1384 H1376 0.950 . S
C1384 C1385 1.386 . S
C1384 C1386 1.391 . S
C1385 C1384 1.386 . S
C1385 C1389 1.393 . S
C1386 H1378 0.950 . S
C1386 C1384 1.391 . S
C1386 C1387 1.400 . S
C1387 C1386 1.400 . S
C1387 C1388 1.398 . S
C1387 C1393 1.491 . S
C1388 H1379 0.950 . S
C1388 C1387 1.398 . S
C1388 C1389 1.391 . S
C1389 H1377 0.950 . S
C1389 C1385 1.393 . S
C1389 C1388 1.391 . S
C1390 H1380 0.950 . S
C1390 C1391 1.386 . S
C1390 C1392 1.391 . S
C1391 C1390 1.386 . S
C1391 C1395 1.393 . S
C1392 H1381 0.950 . S
C1392 C1390 1.391 . S
C1392 C1393 1.400 . S
C1393 C1387 1.491 . S
C1393 C1392 1.400 . S
C1393 C1394 1.398 . S
C1394 H1382 0.950 . S
C1394 C1393 1.398 . S
C1394 C1395 1.391 . S
C1395 H1383 0.950 . S
C1395 C1391 1.393 . S
C1395 C1394 1.391 . S
H1396 C1404 0.950 . S
H1397 C1409 0.950 . S
H1398 C1406 0.950 . S
H1399 C1408 0.950 . S
H1400 C1410 0.950 1_556 S
H1401 C1412 0.971 . S
H1402 C1414 0.950 . S
H1403 C1415 0.950 . S
C1404 H1396 0.950 . S
C1404 C1405 1.393 . S
C1404 C1406 1.391 . S
C1405 C1404 1.393 . S
C1405 C1409 1.387 1_554 S
C1406 H1398 0.950 . S
C1406 C1404 1.391 . S
C1406 C1407 1.400 . S
C1407 C1406 1.400 . S
C1407 C1408 1.398 1_554 S
C1407 C1413 1.491 . S
C1408 H1399 0.950 . S
C1408 C1407 1.398 1_556 S
C1408 C1409 1.391 . S
C1409 H1397 0.950 . S
C1409 C1405 1.387 1_556 S
C1409 C1408 1.391 . S
C1410 H1400 0.950 1_554 S
C1410 C1411 1.386 . S
C1410 C1412 1.389 1_554 S
C1411 C1410 1.386 . S
C1411 C1415 1.393 . S
C1412 H1401 0.971 . S
C1412 C1410 1.389 1_556 S
C1412 C1413 1.382 1_556 S
C1413 C1407 1.491 . S
C1413 C1412 1.382 1_554 S
C1413 C1414 1.398 . S
C1414 H1402 0.950 . S
C1414 C1413 1.398 . S
C1414 C1415 1.391 . S
C1415 H1403 0.950 . S
C1415 C1411 1.393 . S
C1415 C1414 1.391 . S
H1416 C1424 0.950 . S
H1417 C1429 0.950 . S
H1418 C1426 0.950 . S
H1419 C1428 0.950 . S
H1420 C1430 0.950 . S
H1421 C1432 0.950 . S
H1422 C1434 0.950 . S
H1423 C1435 0.950 . S
C1424 H1416 0.950 . S
C1424 C1425 1.386 . S
C1424 C1426 1.391 . S
C1425 C1424 1.386 . S
C1425 C1429 1.393 . S
C1426 H1418 0.950 . S
C1426 C1424 1.391 . S
C1426 C1427 1.400 . S
C1427 C1426 1.400 . S
C1427 C1428 1.398 . S
C1427 C1433 1.491 . S
C1428 H1419 0.950 . S
C1428 C1427 1.398 . S
C1428 C1429 1.391 . S
C1429 H1417 0.950 . S
C1429 C1425 1.393 . S
C1429 C1428 1.391 . S
C1430 H1420 0.950 . S
C1430 C1431 1.386 . S
C1430 C1432 1.391 . S
C1431 C1430 1.386 . S
C1431 C1435 1.393 . S
C1432 H1421 0.950 . S
C1432 C1430 1.391 . S
C1432 C1433 1.400 . S
C1433 C1427 1.491 . S
C1433 C1432 1.400 . S
C1433 C1434 1.398 . S
C1434 H1422 0.950 . S
C1434 C1433 1.398 . S
C1434 C1435 1.391 . S
C1435 H1423 0.950 . S
C1435 C1431 1.393 . S
C1435 C1434 1.391 . S
H1436 C1444 0.949 1_556 S
H1437 C1449 0.950 . S
H1438 C1446 0.950 1_556 S
H1439 C1448 0.950 . S
H1440 C1450 0.950 . S
H1441 C1452 0.950 . S
H1442 C1454 0.950 . S
H1443 C1455 0.946 1_556 S
C1444 H1436 0.949 1_554 S
C1444 C1445 1.386 . S
C1444 C1446 1.391 . S
C1445 C1444 1.386 . S
C1445 C1449 1.393 . S
C1446 H1438 0.950 1_554 S
C1446 C1444 1.391 . S
C1446 C1447 1.400 . S
C1447 C1446 1.400 . S
C1447 C1448 1.398 . S
C1447 C1453 1.491 . S
C1448 H1439 0.950 . S
C1448 C1447 1.398 . S
C1448 C1449 1.391 . S
C1449 H1437 0.950 . S
C1449 C1445 1.393 . S
C1449 C1448 1.391 . S
C1450 H1440 0.950 . S
C1450 C1451 1.386 . S
C1450 C1452 1.391 . S
C1451 C1450 1.386 . S
C1451 C1455 1.394 . S
C1452 H1441 0.950 . S
C1452 C1450 1.391 . S
C1452 C1453 1.400 . S
C1453 C1447 1.491 . S
C1453 C1452 1.400 . S
C1453 C1454 1.398 . S
C1454 H1442 0.950 . S
C1454 C1453 1.398 . S
C1454 C1455 1.395 . S
C1455 H1443 0.946 1_554 S
C1455 C1451 1.394 . S
C1455 C1454 1.395 . S
H1456 C1464 0.950 . S
H1457 C1469 0.950 . S
H1458 C1466 0.950 . S
H1459 C1468 0.950 . S
H1460 C1470 0.950 . S
H1461 C1472 0.950 . S
H1462 C1474 0.950 . S
H1463 C1475 0.950 . S
C1464 H1456 0.950 . S
C1464 C1465 1.386 . S
C1464 C1466 1.391 . S
C1465 C1464 1.386 . S
C1465 C1469 1.393 . S
C1466 H1458 0.950 . S
C1466 C1464 1.391 . S
C1466 C1467 1.400 . S
C1467 C1466 1.400 . S
C1467 C1468 1.398 . S
C1467 C1473 1.491 . S
C1468 H1459 0.950 . S
C1468 C1467 1.398 . S
C1468 C1469 1.391 . S
C1469 H1457 0.950 . S
C1469 C1465 1.393 . S
C1469 C1468 1.391 . S
C1470 H1460 0.950 . S
C1470 C1471 1.386 . S
C1470 C1472 1.391 . S
C1471 C1470 1.386 . S
C1471 C1475 1.393 . S
C1472 H1461 0.950 . S
C1472 C1470 1.391 . S
C1472 C1473 1.400 . S
C1473 C1467 1.491 . S
C1473 C1472 1.400 . S
C1473 C1474 1.398 . S
C1474 H1462 0.950 . S
C1474 C1473 1.398 . S
C1474 C1475 1.391 . S
C1475 H1463 0.950 . S
C1475 C1471 1.393 . S
C1475 C1474 1.391 . S
H1476 C1484 0.950 . S
H1477 C1489 0.950 . S
H1478 C1486 0.950 . S
H1479 C1488 0.950 . S
H1480 C1490 0.950 . S
H1481 C1492 0.950 . S
H1482 C1494 0.950 1_655 S
H1483 C1495 0.969 . S
C1484 H1476 0.950 . S
C1484 C1485 1.361 1_655 S
C1484 C1486 1.391 . S
C1485 C1484 1.361 1_455 S
C1485 C1489 1.423 . S
C1486 H1478 0.950 . S
C1486 C1484 1.391 . S
C1486 C1487 1.400 1_655 S
C1487 C1486 1.400 1_455 S
C1487 C1488 1.398 . S
C1487 C1493 1.491 . S
C1488 H1479 0.950 . S
C1488 C1487 1.398 . S
C1488 C1489 1.391 . S
C1489 H1477 0.950 . S
C1489 C1485 1.423 . S
C1489 C1488 1.391 . S
C1490 H1480 0.950 . S
C1490 C1491 1.386 . S
C1490 C1492 1.391 . S
C1491 C1490 1.386 . S
C1491 C1495 1.393 . S
C1492 H1481 0.950 . S
C1492 C1490 1.391 . S
C1492 C1493 1.400 . S
C1493 C1487 1.491 . S
C1493 C1492 1.400 . S
C1493 C1494 1.398 . S
C1494 H1482 0.950 1_455 S
C1494 C1493 1.398 . S
C1494 C1495 1.391 . S
C1495 H1483 0.969 . S
C1495 C1491 1.393 . S
C1495 C1494 1.391 . S
H1496 C1504 0.950 . S
H1497 C1509 0.950 . S
H1498 C1506 0.950 . S
H1499 C1508 0.950 . S
H1500 C1510 0.950 . S
H1501 C1512 0.950 . S
H1502 C1514 0.950 . S
H1503 C1515 0.950 . S
C1504 H1496 0.950 . S
C1504 C1505 1.386 . S
C1504 C1506 1.391 . S
C1505 C1504 1.386 . S
C1505 C1509 1.393 . S
C1506 H1498 0.950 . S
C1506 C1504 1.391 . S
C1506 C1507 1.400 . S
C1507 C1506 1.400 . S
C1507 C1508 1.398 . S
C1507 C1513 1.491 . S
C1508 H1499 0.950 . S
C1508 C1507 1.398 . S
C1508 C1509 1.391 . S
C1509 H1497 0.950 . S
C1509 C1505 1.393 . S
C1509 C1508 1.391 . S
C1510 H1500 0.950 . S
C1510 C1511 1.386 . S
C1510 C1512 1.391 . S
C1511 C1510 1.386 . S
C1511 C1515 1.393 . S
C1512 H1501 0.950 . S
C1512 C1510 1.391 . S
C1512 C1513 1.400 . S
C1513 C1507 1.491 . S
C1513 C1512 1.400 . S
C1513 C1514 1.398 . S
C1514 H1502 0.950 . S
C1514 C1513 1.398 . S
C1514 C1515 1.391 . S
C1515 H1503 0.950 . S
C1515 C1511 1.393 . S
C1515 C1514 1.391 . S
H1516 C1524 0.950 . S
H1517 C1529 0.950 . S
H1518 C1526 0.950 . S
H1519 C1528 0.950 . S
H1520 C1530 0.950 . S
H1521 C1532 0.950 . S
H1522 C1534 0.950 . S
H1523 C1535 0.950 . S
C1524 H1516 0.950 . S
C1524 C1525 1.386 1_655 S
C1524 C1526 1.391 . S
C1525 C1524 1.386 1_455 S
C1525 C1529 1.393 . S
C1526 H1518 0.950 . S
C1526 C1524 1.391 . S
C1526 C1527 1.400 1_655 S
C1527 C1526 1.400 1_455 S
C1527 C1528 1.398 . S
C1527 C1533 1.491 . S
C1528 H1519 0.950 . S
C1528 C1527 1.398 . S
C1528 C1529 1.391 . S
C1529 H1517 0.950 . S
C1529 C1525 1.393 . S
C1529 C1528 1.391 . S
C1530 H1520 0.950 . S
C1530 C1531 1.386 . S
C1530 C1532 1.391 . S
C1531 C1530 1.386 . S
C1531 C1535 1.393 1_455 S
C1532 H1521 0.950 . S
C1532 C1530 1.391 . S
C1532 C1533 1.400 . S
C1533 C1527 1.491 . S
C1533 C1532 1.400 . S
C1533 C1534 1.398 1_455 S
C1534 H1522 0.950 . S
C1534 C1533 1.398 1_655 S
C1534 C1535 1.391 . S
C1535 H1523 0.950 . S
C1535 C1531 1.393 1_655 S
C1535 C1534 1.391 . S
H1536 C1544 0.950 . S
H1537 C1549 0.950 . S
H1538 C1546 0.950 . S
H1539 C1548 0.950 . S
H1540 C1550 0.950 . S
H1541 C1552 0.950 . S
H1542 C1554 0.950 . S
H1543 C1555 0.950 . S
C1544 H1536 0.950 . S
C1544 C1545 1.386 . S
C1544 C1546 1.391 . S
C1545 C1544 1.386 . S
C1545 C1549 1.393 . S
C1546 H1538 0.950 . S
C1546 C1544 1.391 . S
C1546 C1547 1.400 . S
C1547 C1546 1.400 . S
C1547 C1548 1.398 . S
C1547 C1553 1.491 . S
C1548 H1539 0.950 . S
C1548 C1547 1.398 . S
C1548 C1549 1.391 . S
C1549 H1537 0.950 . S
C1549 C1545 1.393 . S
C1549 C1548 1.391 . S
C1550 H1540 0.950 . S
C1550 C1551 1.386 . S
C1550 C1552 1.391 . S
C1551 C1550 1.386 . S
C1551 C1555 1.393 . S
C1552 H1541 0.950 . S
C1552 C1550 1.391 . S
C1552 C1553 1.400 . S
C1553 C1547 1.491 . S
C1553 C1552 1.400 . S
C1553 C1554 1.398 . S
C1554 H1542 0.950 . S
C1554 C1553 1.398 . S
C1554 C1555 1.391 . S
C1555 H1543 0.950 . S
C1555 C1551 1.393 . S
C1555 C1554 1.391 . S
H1556 C1564 0.950 . S
H1557 C1569 0.950 . S
H1558 C1566 0.950 . S
H1559 C1568 0.950 . S
H1560 C1570 0.950 . S
H1561 C1572 0.950 . S
H1562 C1574 0.950 . S
H1563 C1575 0.950 . S
C1564 H1556 0.950 . S
C1564 C1565 1.386 . S
C1564 C1566 1.391 . S
C1565 C1564 1.386 . S
C1565 C1569 1.393 . S
C1566 H1558 0.950 . S
C1566 C1564 1.391 . S
C1566 C1567 1.400 . S
C1567 C1566 1.400 . S
C1567 C1568 1.398 . S
C1567 C1573 1.491 . S
C1568 H1559 0.950 . S
C1568 C1567 1.398 . S
C1568 C1569 1.391 . S
C1569 H1557 0.950 . S
C1569 C1565 1.393 . S
C1569 C1568 1.391 . S
C1570 H1560 0.950 . S
C1570 C1571 1.386 . S
C1570 C1572 1.391 . S
C1571 C1570 1.386 . S
C1571 C1575 1.393 . S
C1572 H1561 0.950 . S
C1572 C1570 1.391 . S
C1572 C1573 1.400 . S
C1573 C1567 1.491 . S
C1573 C1572 1.400 . S
C1573 C1574 1.398 . S
C1574 H1562 0.950 . S
C1574 C1573 1.398 . S
C1574 C1575 1.391 . S
C1575 H1563 0.950 . S
C1575 C1571 1.393 . S
C1575 C1574 1.391 . S
H1576 C1584 0.950 . S
H1577 C1589 0.950 . S
H1578 C1586 0.950 . S
H1579 C1588 0.950 . S
H1580 C1590 0.950 . S
H1581 C1592 0.950 . S
H1582 C1594 0.932 1_565 S
H1583 C1595 0.950 . S
C1584 H1576 0.950 . S
C1584 C1585 1.386 1_565 S
C1584 C1586 1.391 . S
C1585 C1584 1.386 1_545 S
C1585 C1589 1.393 . S
C1586 H1578 0.950 . S
C1586 C1584 1.391 . S
C1586 C1587 1.400 1_565 S
C1587 C1586 1.400 1_545 S
C1587 C1588 1.398 . S
C1587 C1593 1.491 . S
C1588 H1579 0.950 . S
C1588 C1587 1.398 . S
C1588 C1589 1.391 . S
C1589 H1577 0.950 . S
C1589 C1585 1.393 . S
C1589 C1588 1.391 . S
C1590 H1580 0.950 . S
C1590 C1591 1.386 . S
C1590 C1592 1.391 . S
C1591 C1590 1.386 . S
C1591 C1595 1.393 . S
C1592 H1581 0.950 . S
C1592 C1590 1.391 . S
C1592 C1593 1.400 . S
C1593 C1587 1.491 . S
C1593 C1592 1.400 . S
C1593 C1594 1.398 . S
C1594 H1582 0.932 1_545 S
C1594 C1593 1.398 . S
C1594 C1595 1.391 . S
C1595 H1583 0.950 . S
C1595 C1591 1.393 . S
C1595 C1594 1.391 . S
H1596 C1604 0.950 . S
H1597 C1609 0.950 . S
H1598 C1606 0.950 . S
H1599 C1608 0.950 1_545 S
H1600 C1610 0.950 . S
H1601 C1612 0.950 . S
H1602 C1614 0.950 . S
H1603 C1615 0.950 . S
C1604 H1596 0.950 . S
C1604 C1605 1.386 . S
C1604 C1606 1.391 . S
C1605 C1604 1.386 . S
C1605 C1609 1.393 1_565 S
C1606 H1598 0.950 . S
C1606 C1604 1.391 . S
C1606 C1607 1.400 . S
C1607 C1606 1.400 . S
C1607 C1608 1.398 . S
C1607 C1613 1.491 . S
C1608 H1599 0.950 1_565 S
C1608 C1607 1.398 . S
C1608 C1609 1.391 1_565 S
C1609 H1597 0.950 . S
C1609 C1605 1.393 1_545 S
C1609 C1608 1.391 1_545 S
C1610 H1600 0.950 . S
C1610 C1611 1.386 . S
C1610 C1612 1.391 . S
C1611 C1610 1.386 . S
C1611 C1615 1.393 . S
C1612 H1601 0.950 . S
C1612 C1610 1.391 . S
C1612 C1613 1.400 . S
C1613 C1607 1.491 . S
C1613 C1612 1.400 . S
C1613 C1614 1.398 . S
C1614 H1602 0.950 . S
C1614 C1613 1.398 . S
C1614 C1615 1.391 . S
C1615 H1603 0.950 . S
C1615 C1611 1.393 . S
C1615 C1614 1.391 . S
H1616 C1624 0.950 . S
H1617 C1629 0.950 . S
H1618 C1626 0.950 . S
H1619 C1628 0.950 . S
H1620 C1630 0.950 . S
H1621 C1632 0.950 . S
H1622 C1634 0.950 . S
H1623 C1635 0.950 . S
C1624 H1616 0.950 . S
C1624 C1625 1.386 . S
C1624 C1626 1.391 . S
C1625 C1624 1.386 . S
C1625 C1629 1.393 . S
C1626 H1618 0.950 . S
C1626 C1624 1.391 . S
C1626 C1627 1.400 . S
C1627 C1626 1.400 . S
C1627 C1628 1.398 . S
C1627 C1633 1.491 . S
C1628 H1619 0.950 . S
C1628 C1627 1.398 . S
C1628 C1629 1.391 . S
C1629 H1617 0.950 . S
C1629 C1625 1.393 . S
C1629 C1628 1.391 . S
C1630 H1620 0.950 . S
C1630 C1631 1.386 . S
C1630 C1632 1.391 . S
C1631 C1630 1.386 . S
C1631 C1635 1.393 . S
C1632 H1621 0.950 . S
C1632 C1630 1.391 . S
C1632 C1633 1.400 . S
C1633 C1627 1.491 . S
C1633 C1632 1.400 . S
C1633 C1634 1.398 . S
C1634 H1622 0.950 . S
C1634 C1633 1.398 . S
C1634 C1635 1.391 . S
C1635 H1623 0.950 . S
C1635 C1631 1.393 . S
C1635 C1634 1.391 . S
H1636 C1644 0.950 . S
H1637 C1649 0.950 . S
H1638 C1646 0.950 . S
H1639 C1648 0.950 . S
H1640 C1650 0.950 . S
H1641 C1652 0.950 . S
H1642 C1654 0.950 . S
H1643 C1655 0.950 . S
C1644 H1636 0.950 . S
C1644 C1645 1.386 . S
C1644 C1646 1.391 . S
C1645 C1644 1.386 . S
C1645 C1649 1.393 . S
C1646 H1638 0.950 . S
C1646 C1644 1.391 . S
C1646 C1647 1.400 . S
C1647 C1646 1.400 . S
C1647 C1648 1.398 . S
C1647 C1653 1.491 . S
C1648 H1639 0.950 . S
C1648 C1647 1.398 . S
C1648 C1649 1.391 . S
C1649 H1637 0.950 . S
C1649 C1645 1.393 . S
C1649 C1648 1.391 . S
C1650 H1640 0.950 . S
C1650 C1651 1.386 . S
C1650 C1652 1.391 . S
C1651 C1650 1.386 . S
C1651 C1655 1.393 . S
C1652 H1641 0.950 . S
C1652 C1650 1.391 . S
C1652 C1653 1.400 . S
C1653 C1647 1.491 . S
C1653 C1652 1.400 . S
C1653 C1654 1.398 . S
C1654 H1642 0.950 . S
C1654 C1653 1.398 . S
C1654 C1655 1.391 . S
C1655 H1643 0.950 . S
C1655 C1651 1.393 . S
C1655 C1654 1.391 . S
H1656 C1664 0.950 . S
H1657 C1669 0.950 . S
H1658 C1666 0.950 . S
H1659 C1668 0.950 . S
H1660 C1670 0.950 . S
H1661 C1672 0.950 . S
H1662 C1674 0.950 . S
H1663 C1675 0.950 . S
C1664 H1656 0.950 . S
C1664 C1665 1.386 . S
C1664 C1666 1.391 . S
C1665 C1664 1.386 . S
C1665 C1669 1.393 . S
C1666 H1658 0.950 . S
C1666 C1664 1.391 . S
C1666 C1667 1.400 . S
C1667 C1666 1.400 . S
C1667 C1668 1.398 . S
C1667 C1673 1.491 . S
C1668 H1659 0.950 . S
C1668 C1667 1.398 . S
C1668 C1669 1.391 . S
C1669 H1657 0.950 . S
C1669 C1665 1.393 . S
C1669 C1668 1.391 . S
C1670 H1660 0.950 . S
C1670 C1671 1.386 . S
C1670 C1672 1.391 . S
C1671 C1670 1.386 . S
C1671 C1675 1.393 . S
C1672 H1661 0.950 . S
C1672 C1670 1.391 . S
C1672 C1673 1.400 . S
C1673 C1667 1.491 . S
C1673 C1672 1.400 . S
C1673 C1674 1.398 . S
C1674 H1662 0.950 . S
C1674 C1673 1.398 . S
C1674 C1675 1.391 . S
C1675 H1663 0.950 . S
C1675 C1671 1.393 . S
C1675 C1674 1.391 . S
H1676 C1684 0.950 . S
H1677 C1689 0.950 . S
H1678 C1686 0.950 . S
H1679 C1688 0.950 . S
H1680 C1690 0.950 . S
H1681 C1692 0.950 . S
H1682 C1694 0.950 . S
H1683 C1695 0.950 . S
C1684 H1676 0.950 . S
C1684 C1685 1.386 . S
C1684 C1686 1.391 . S
C1685 C1684 1.386 . S
C1685 C1689 1.393 1_554 S
C1686 H1678 0.950 . S
C1686 C1684 1.391 . S
C1686 C1687 1.400 . S
C1687 C1686 1.400 . S
C1687 C1688 1.398 1_554 S
C1687 C1693 1.491 . S
C1688 H1679 0.950 . S
C1688 C1687 1.398 1_556 S
C1688 C1689 1.391 . S
C1689 H1677 0.950 . S
C1689 C1685 1.393 1_556 S
C1689 C1688 1.391 . S
C1690 H1680 0.950 . S
C1690 C1691 1.386 1_556 S
C1690 C1692 1.391 . S
C1691 C1690 1.386 1_554 S
C1691 C1695 1.393 . S
C1692 H1681 0.950 . S
C1692 C1690 1.391 . S
C1692 C1693 1.400 1_556 S
C1693 C1687 1.491 . S
C1693 C1692 1.400 1_554 S
C1693 C1694 1.398 . S
C1694 H1682 0.950 . S
C1694 C1693 1.398 . S
C1694 C1695 1.391 . S
C1695 H1683 0.950 . S
C1695 C1691 1.393 . S
C1695 C1694 1.391 . S
H1696 C1704 0.950 . S
H1697 C1709 0.950 . S
H1698 C1706 0.950 . S
H1699 C1708 0.950 . S
H1700 C1710 0.950 . S
H1701 C1712 0.950 . S
H1702 C1714 0.950 . S
H1703 C1715 0.950 . S
C1704 H1696 0.950 . S
C1704 C1705 1.386 . S
C1704 C1706 1.391 . S
C1705 C1704 1.386 . S
C1705 C1709 1.393 . S
C1706 H1698 0.950 . S
C1706 C1704 1.391 . S
C1706 C1707 1.400 . S
C1707 C1706 1.400 . S
C1707 C1708 1.398 . S
C1707 C1713 1.491 . S
C1708 H1699 0.950 . S
C1708 C1707 1.398 . S
C1708 C1709 1.391 . S
C1709 H1697 0.950 . S
C1709 C1705 1.393 . S
C1709 C1708 1.391 . S
C1710 H1700 0.950 . S
C1710 C1711 1.386 . S
C1710 C1712 1.391 . S
C1711 C1710 1.386 . S
C1711 C1715 1.393 . S
C1712 H1701 0.950 . S
C1712 C1710 1.391 . S
C1712 C1713 1.400 . S
C1713 C1707 1.491 . S
C1713 C1712 1.400 . S
C1713 C1714 1.398 . S
C1714 H1702 0.950 . S
C1714 C1713 1.398 . S
C1714 C1715 1.391 . S
C1715 H1703 0.950 . S
C1715 C1711 1.393 . S
C1715 C1714 1.391 . S
H1716 C1724 0.950 . S
H1717 C1729 0.950 . S
H1718 C1726 0.950 . S
H1719 C1728 0.950 . S
H1720 C1730 0.938 1_455 S
H1721 C1732 0.950 1_455 S
H1722 C1734 0.950 . S
H1723 C1735 0.950 . S
C1724 H1716 0.950 . S
C1724 C1725 1.386 . S
C1724 C1726 1.391 . S
C1725 C1724 1.386 . S
C1725 C1729 1.393 1_655 S
C1726 H1718 0.950 . S
C1726 C1724 1.391 . S
C1726 C1727 1.400 . S
C1727 C1726 1.400 . S
C1727 C1728 1.398 1_655 S
C1727 C1733 1.491 . S
C1728 H1719 0.950 . S
C1728 C1727 1.398 1_455 S
C1728 C1729 1.391 . S
C1729 H1717 0.950 . S
C1729 C1725 1.393 1_455 S
C1729 C1728 1.391 . S
C1730 H1720 0.938 1_655 S
C1730 C1731 1.386 . S
C1730 C1732 1.391 . S
C1731 C1730 1.386 . S
C1731 C1735 1.393 . S
C1732 H1721 0.950 1_655 S
C1732 C1730 1.391 . S
C1732 C1733 1.400 . S
C1733 C1727 1.491 . S
C1733 C1732 1.400 . S
C1733 C1734 1.398 . S
C1734 H1722 0.950 . S
C1734 C1733 1.398 . S
C1734 C1735 1.391 . S
C1735 H1723 0.950 . S
C1735 C1731 1.393 . S
C1735 C1734 1.391 . S
H1736 C1744 0.950 . S
H1737 C1749 0.950 . S
H1738 C1746 0.950 . S
H1739 C1748 0.950 . S
H1740 C1750 0.950 . S
H1741 C1752 0.950 . S
H1742 C1754 0.950 . S
H1743 C1755 0.950 . S
C1744 H1736 0.950 . S
C1744 C1745 1.386 . S
C1744 C1746 1.391 . S
C1745 C1744 1.386 . S
C1745 C1749 1.393 . S
C1746 H1738 0.950 . S
C1746 C1744 1.391 . S
C1746 C1747 1.400 . S
C1747 C1746 1.400 . S
C1747 C1748 1.398 . S
C1747 C1753 1.491 . S
C1748 H1739 0.950 . S
C1748 C1747 1.398 . S
C1748 C1749 1.391 . S
C1749 H1737 0.950 . S
C1749 C1745 1.393 . S
C1749 C1748 1.391 . S
C1750 H1740 0.950 . S
C1750 C1751 1.386 . S
C1750 C1752 1.391 . S
C1751 C1750 1.386 . S
C1751 C1755 1.393 . S
C1752 H1741 0.950 . S
C1752 C1750 1.391 . S
C1752 C1753 1.400 . S
C1753 C1747 1.491 . S
C1753 C1752 1.400 . S
C1753 C1754 1.398 . S
C1754 H1742 0.950 . S
C1754 C1753 1.398 . S
C1754 C1755 1.391 . S
C1755 H1743 0.950 . S
C1755 C1751 1.393 . S
C1755 C1754 1.391 . S
H1756 C1764 0.942 1_655 S
H1757 C1769 0.950 . S
H1758 C1766 0.950 . S
H1759 C1768 0.950 . S
H1760 C1770 0.950 . S
H1761 C1772 0.950 . S
H1762 C1774 0.950 . S
H1763 C1775 0.950 . S
C1764 H1756 0.942 1_455 S
C1764 C1765 1.386 . S
C1764 C1766 1.391 . S
C1765 C1764 1.386 . S
C1765 C1769 1.393 . S
C1766 H1758 0.950 . S
C1766 C1764 1.391 . S
C1766 C1767 1.400 . S
C1767 C1766 1.400 . S
C1767 C1768 1.398 . S
C1767 C1773 1.491 . S
C1768 H1759 0.950 . S
C1768 C1767 1.398 . S
C1768 C1769 1.391 . S
C1769 H1757 0.950 . S
C1769 C1765 1.393 . S
C1769 C1768 1.391 . S
C1770 H1760 0.950 . S
C1770 C1771 1.386 . S
C1770 C1772 1.391 . S
C1771 C1770 1.386 . S
C1771 C1775 1.393 . S
C1772 H1761 0.950 . S
C1772 C1770 1.391 . S
C1772 C1773 1.400 . S
C1773 C1767 1.491 . S
C1773 C1772 1.400 . S
C1773 C1774 1.398 . S
C1774 H1762 0.950 . S
C1774 C1773 1.398 . S
C1774 C1775 1.391 . S
C1775 H1763 0.950 . S
C1775 C1771 1.393 . S
C1775 C1774 1.391 . S
H1776 C1784 0.950 . S
H1777 C1789 0.950 . S
H1778 C1786 0.950 . S
H1779 C1788 0.950 . S
H1780 C1790 0.950 . S
H1781 C1792 0.950 . S
H1782 C1794 0.950 . S
H1783 C1795 0.950 . S
C1784 H1776 0.950 . S
C1784 C1785 1.386 . S
C1784 C1786 1.391 . S
C1785 C1784 1.386 . S
C1785 C1789 1.393 . S
C1786 H1778 0.950 . S
C1786 C1784 1.391 . S
C1786 C1787 1.400 . S
C1787 C1786 1.400 . S
C1787 C1788 1.398 . S
C1787 C1793 1.491 . S
C1788 H1779 0.950 . S
C1788 C1787 1.398 . S
C1788 C1789 1.391 . S
C1789 H1777 0.950 . S
C1789 C1785 1.393 . S
C1789 C1788 1.391 . S
C1790 H1780 0.950 . S
C1790 C1791 1.386 . S
C1790 C1792 1.391 . S
C1791 C1790 1.386 . S
C1791 C1795 1.393 . S
C1792 H1781 0.950 . S
C1792 C1790 1.391 . S
C1792 C1793 1.400 . S
C1793 C1787 1.491 . S
C1793 C1792 1.400 . S
C1793 C1794 1.398 . S
C1794 H1782 0.950 . S
C1794 C1793 1.398 . S
C1794 C1795 1.391 . S
C1795 H1783 0.950 . S
C1795 C1791 1.393 . S
C1795 C1794 1.391 . S
H1796 C1804 0.950 . S
H1797 C1809 0.950 . S
H1798 C1806 0.950 . S
H1799 C1808 0.950 . S
H1800 C1810 0.950 . S
H1801 C1812 0.950 . S
H1802 C1814 0.950 . S
H1803 C1815 0.950 . S
C1804 H1796 0.950 . S
C1804 C1805 1.386 . S
C1804 C1806 1.391 . S
C1805 C1804 1.386 . S
C1805 C1809 1.393 . S
C1806 H1798 0.950 . S
C1806 C1804 1.391 . S
C1806 C1807 1.400 . S
C1807 C1806 1.400 . S
C1807 C1808 1.398 . S
C1807 C1813 1.491 . S
C1808 H1799 0.950 . S
C1808 C1807 1.398 . S
C1808 C1809 1.391 . S
C1809 H1797 0.950 . S
C1809 C1805 1.393 . S
C1809 C1808 1.391 . S
C1810 H1800 0.950 . S
C1810 C1811 1.386 . S
C1810 C1812 1.391 . S
C1811 C1810 1.386 . S
C1811 C1815 1.393 . S
C1812 H1801 0.950 . S
C1812 C1810 1.391 . S
C1812 C1813 1.400 . S
C1813 C1807 1.491 . S
C1813 C1812 1.400 . S
C1813 C1814 1.398 . S
C1814 H1802 0.950 . S
C1814 C1813 1.398 . S
C1814 C1815 1.391 . S
C1815 H1803 0.950 . S
C1815 C1811 1.393 . S
C1815 C1814 1.391 . S
H1816 C1824 0.949 1_545 S
H1817 C1829 0.950 . S
H1818 C1826 0.950 . S
H1819 C1828 0.950 . S
H1820 C1830 0.950 . S
H1821 C1832 0.950 . S
H1822 C1834 0.950 . S
H1823 C1835 0.950 . S
C1824 H1816 0.949 1_565 S
C1824 C1825 1.387 . S
C1824 C1826 1.392 . S
C1825 C1824 1.387 . S
C1825 C1829 1.393 . S
C1826 H1818 0.950 . S
C1826 C1824 1.392 . S
C1826 C1827 1.400 . S
C1827 C1826 1.400 . S
C1827 C1828 1.398 . S
C1827 C1833 1.491 . S
C1828 H1819 0.950 . S
C1828 C1827 1.398 . S
C1828 C1829 1.391 . S
C1829 H1817 0.950 . S
C1829 C1825 1.393 . S
C1829 C1828 1.391 . S
C1830 H1820 0.950 . S
C1830 C1831 1.386 . S
C1830 C1832 1.391 . S
C1831 C1830 1.386 . S
C1831 C1835 1.393 . S
C1832 H1821 0.950 . S
C1832 C1830 1.391 . S
C1832 C1833 1.400 . S
C1833 C1827 1.491 . S
C1833 C1832 1.400 . S
C1833 C1834 1.398 . S
C1834 H1822 0.950 . S
C1834 C1833 1.398 . S
C1834 C1835 1.391 . S
C1835 H1823 0.950 . S
C1835 C1831 1.393 . S
C1835 C1834 1.391 . S
H1836 C1844 0.950 . S
H1837 C1849 0.950 . S
H1838 C1846 0.950 . S
H1839 C1848 0.950 . S
H1840 C1850 0.950 . S
H1841 C1852 0.950 . S
H1842 C1854 0.950 1_565 S
H1843 C1855 0.950 1_565 S
C1844 H1836 0.950 . S
C1844 C1845 1.386 1_565 S
C1844 C1846 1.391 . S
C1845 C1844 1.386 1_545 S
C1845 C1849 1.393 . S
C1846 H1838 0.950 . S
C1846 C1844 1.391 . S
C1846 C1847 1.400 1_565 S
C1847 C1846 1.400 1_545 S
C1847 C1848 1.398 . S
C1847 C1853 1.491 . S
C1848 H1839 0.950 . S
C1848 C1847 1.398 . S
C1848 C1849 1.391 . S
C1849 H1837 0.950 . S
C1849 C1845 1.393 . S
C1849 C1848 1.391 . S
C1850 H1840 0.950 . S
C1850 C1851 1.386 . S
C1850 C1852 1.391 . S
C1851 C1850 1.386 . S
C1851 C1855 1.393 . S
C1852 H1841 0.950 . S
C1852 C1850 1.391 . S
C1852 C1853 1.400 . S
C1853 C1847 1.491 . S
C1853 C1852 1.400 . S
C1853 C1854 1.398 . S
C1854 H1842 0.950 1_545 S
C1854 C1853 1.398 . S
C1854 C1855 1.391 . S
C1855 H1843 0.950 1_545 S
C1855 C1851 1.393 . S
C1855 C1854 1.391 . S
H1856 C1864 0.950 . S
H1857 C1869 0.950 . S
H1858 C1866 0.950 . S
H1859 C1868 0.950 . S
H1860 C1870 0.950 . S
H1861 C1872 0.950 . S
H1862 C1874 0.950 . S
H1863 C1875 0.950 . S
C1864 H1856 0.950 . S
C1864 C1865 1.386 . S
C1864 C1866 1.391 . S
C1865 C1864 1.386 . S
C1865 C1869 1.393 . S
C1866 H1858 0.950 . S
C1866 C1864 1.391 . S
C1866 C1867 1.400 . S
C1867 C1866 1.400 . S
C1867 C1868 1.398 . S
C1867 C1873 1.491 . S
C1868 H1859 0.950 . S
C1868 C1867 1.398 . S
C1868 C1869 1.391 . S
C1869 H1857 0.950 . S
C1869 C1865 1.393 . S
C1869 C1868 1.391 . S
C1870 H1860 0.950 . S
C1870 C1871 1.386 . S
C1870 C1872 1.391 . S
C1871 C1870 1.386 . S
C1871 C1875 1.393 . S
C1872 H1861 0.950 . S
C1872 C1870 1.391 . S
C1872 C1873 1.400 . S
C1873 C1867 1.491 . S
C1873 C1872 1.400 . S
C1873 C1874 1.398 . S
C1874 H1862 0.950 . S
C1874 C1873 1.398 . S
C1874 C1875 1.391 . S
C1875 H1863 0.950 . S
C1875 C1871 1.393 . S
C1875 C1874 1.391 . S
H1876 C1884 0.950 . S
H1877 C1889 0.950 . S
H1878 C1886 0.950 . S
H1879 C1888 0.950 . S
H1880 C1890 0.950 . S
H1881 C1892 0.950 . S
H1882 C1894 0.950 1_556 S
H1883 C1895 0.950 . S
C1884 H1876 0.950 . S
C1884 C1885 1.386 1_556 S
C1884 C1886 1.391 . S
C1885 C1884 1.386 1_554 S
C1885 C1889 1.393 . S
C1886 H1878 0.950 . S
C1886 C1884 1.391 . S
C1886 C1887 1.400 1_556 S
C1887 C1886 1.400 1_554 S
C1887 C1888 1.398 . S
C1887 C1893 1.491 . S
C1888 H1879 0.950 . S
C1888 C1887 1.398 . S
C1888 C1889 1.391 . S
C1889 H1877 0.950 . S
C1889 C1885 1.393 . S
C1889 C1888 1.391 . S
C1890 H1880 0.950 . S
C1890 C1891 1.386 . S
C1890 C1892 1.391 . S
C1891 C1890 1.386 . S
C1891 C1895 1.393 . S
C1892 H1881 0.950 . S
C1892 C1890 1.391 . S
C1892 C1893 1.400 . S
C1893 C1887 1.491 . S
C1893 C1892 1.400 . S
C1893 C1894 1.398 . S
C1894 H1882 0.950 1_554 S
C1894 C1893 1.398 . S
C1894 C1895 1.391 . S
C1895 H1883 0.950 . S
C1895 C1891 1.393 . S
C1895 C1894 1.391 . S
H1896 C1904 0.950 . S
H1897 C1909 0.950 . S
H1898 C1906 0.950 . S
H1899 C1908 0.950 . S
H1900 C1910 0.950 . S
H1901 C1912 0.950 . S
H1902 C1914 0.950 . S
H1903 C1915 0.950 . S
C1904 H1896 0.950 . S
C1904 C1905 1.386 . S
C1904 C1906 1.391 . S
C1905 C1904 1.386 . S
C1905 C1909 1.393 . S
C1906 H1898 0.950 . S
C1906 C1904 1.391 . S
C1906 C1907 1.400 . S
C1907 C1906 1.400 . S
C1907 C1908 1.398 . S
C1907 C1913 1.491 . S
C1908 H1899 0.950 . S
C1908 C1907 1.398 . S
C1908 C1909 1.391 . S
C1909 H1897 0.950 . S
C1909 C1905 1.393 . S
C1909 C1908 1.391 . S
C1910 H1900 0.950 . S
C1910 C1911 1.386 . S
C1910 C1912 1.391 . S
C1911 C1910 1.386 . S
C1911 C1915 1.393 . S
C1912 H1901 0.950 . S
C1912 C1910 1.391 . S
C1912 C1913 1.400 . S
C1913 C1907 1.491 . S
C1913 C1912 1.400 . S
C1913 C1914 1.398 . S
C1914 H1902 0.950 . S
C1914 C1913 1.398 . S
C1914 C1915 1.391 . S
C1915 H1903 0.950 . S
C1915 C1911 1.393 . S
C1915 C1914 1.391 . S
H1916 C1924 0.950 . S
H1917 C1929 0.950 . S
H1918 C1926 0.950 . S
H1919 C1928 0.950 . S
H1920 C1930 0.950 . S
H1921 C1932 0.950 . S
H1922 C1934 0.950 1_554 S
H1923 C1935 0.950 1_554 S
C1924 H1916 0.950 . S
C1924 C1925 1.386 1_554 S
C1924 C1926 1.391 . S
C1925 C1924 1.386 1_556 S
C1925 C1929 1.393 . S
C1926 H1918 0.950 . S
C1926 C1924 1.391 . S
C1926 C1927 1.400 1_554 S
C1927 C1926 1.400 1_556 S
C1927 C1928 1.398 . S
C1927 C1933 1.491 . S
C1928 H1919 0.950 . S
C1928 C1927 1.398 . S
C1928 C1929 1.391 . S
C1929 H1917 0.950 . S
C1929 C1925 1.393 . S
C1929 C1928 1.391 . S
C1930 H1920 0.950 . S
C1930 C1931 1.386 . S
C1930 C1932 1.391 . S
C1931 C1930 1.386 . S
C1931 C1935 1.393 . S
C1932 H1921 0.950 . S
C1932 C1930 1.391 . S
C1932 C1933 1.400 . S
C1933 C1927 1.491 . S
C1933 C1932 1.400 . S
C1933 C1934 1.398 . S
C1934 H1922 0.950 1_556 S
C1934 C1933 1.398 . S
C1934 C1935 1.391 . S
C1935 H1923 0.950 1_556 S
C1935 C1931 1.393 . S
C1935 C1934 1.391 . S
H1936 C1944 0.950 . S
H1937 C1949 0.950 . S
H1938 C1946 0.950 . S
H1939 C1948 0.950 . S
H1940 C1950 0.950 . S
H1941 C1952 0.950 . S
H1942 C1954 0.950 . S
H1943 C1955 0.950 . S
C1944 H1936 0.950 . S
C1944 C1945 1.386 . S
C1944 C1946 1.391 . S
C1945 C1944 1.386 . S
C1945 C1949 1.393 . S
C1946 H1938 0.950 . S
C1946 C1944 1.391 . S
C1946 C1947 1.400 . S
C1947 C1946 1.400 . S
C1947 C1948 1.398 . S
C1947 C1953 1.491 . S
C1948 H1939 0.950 . S
C1948 C1947 1.398 . S
C1948 C1949 1.391 . S
C1949 H1937 0.950 . S
C1949 C1945 1.393 . S
C1949 C1948 1.391 . S
C1950 H1940 0.950 . S
C1950 C1951 1.386 . S
C1950 C1952 1.391 . S
C1951 C1950 1.386 . S
C1951 C1955 1.393 . S
C1952 H1941 0.950 . S
C1952 C1950 1.391 . S
C1952 C1953 1.400 . S
C1953 C1947 1.491 . S
C1953 C1952 1.400 . S
C1953 C1954 1.398 . S
C1954 H1942 0.950 . S
C1954 C1953 1.398 . S
C1954 C1955 1.391 . S
C1955 H1943 0.950 . S
C1955 C1951 1.393 . S
C1955 C1954 1.391 . S
H1956 C1964 0.950 . S
H1957 C1969 0.950 . S
H1958 C1966 0.950 . S
H1959 C1968 0.950 . S
H1960 C1970 0.950 . S
H1961 C1972 0.950 1_655 S
H1962 C1974 0.950 . S
H1963 C1975 0.950 . S
C1964 H1956 0.950 . S
C1964 C1965 1.386 . S
C1964 C1966 1.391 . S
C1965 C1964 1.386 . S
C1965 C1969 1.393 1_455 S
C1966 H1958 0.950 . S
C1966 C1964 1.391 . S
C1966 C1967 1.400 . S
C1967 C1966 1.400 . S
C1967 C1968 1.398 1_455 S
C1967 C1973 1.491 . S
C1968 H1959 0.950 . S
C1968 C1967 1.398 1_655 S
C1968 C1969 1.391 . S
C1969 H1957 0.950 . S
C1969 C1965 1.393 1_655 S
C1969 C1968 1.391 . S
C1970 H1960 0.950 . S
C1970 C1971 1.386 . S
C1970 C1972 1.391 . S
C1971 C1970 1.386 . S
C1971 C1975 1.393 . S
C1972 H1961 0.950 1_455 S
C1972 C1970 1.391 . S
C1972 C1973 1.400 . S
C1973 C1967 1.491 . S
C1973 C1972 1.400 . S
C1973 C1974 1.398 . S
C1974 H1962 0.950 . S
C1974 C1973 1.398 . S
C1974 C1975 1.391 . S
C1975 H1963 0.950 . S
C1975 C1971 1.393 . S
C1975 C1974 1.391 . S
H1976 C1984 0.950 . S
H1977 C1989 0.950 . S
H1978 C1986 0.950 . S
H1979 C1988 0.950 . S
H1980 C1990 0.950 . S
H1981 C1992 0.950 . S
H1982 C1994 0.950 . S
H1983 C1995 0.950 . S
C1984 H1976 0.950 . S
C1984 C1985 1.386 . S
C1984 C1986 1.391 . S
C1985 C1984 1.386 . S
C1985 C1989 1.393 . S
C1986 H1978 0.950 . S
C1986 C1984 1.391 . S
C1986 C1987 1.400 . S
C1987 C1986 1.400 . S
C1987 C1988 1.398 . S
C1987 C1993 1.491 . S
C1988 H1979 0.950 . S
C1988 C1987 1.398 . S
C1988 C1989 1.391 . S
C1989 H1977 0.950 . S
C1989 C1985 1.393 . S
C1989 C1988 1.391 . S
C1990 H1980 0.950 . S
C1990 C1991 1.386 . S
C1990 C1992 1.391 . S
C1991 C1990 1.386 . S
C1991 C1995 1.393 . S
C1992 H1981 0.950 . S
C1992 C1990 1.391 . S
C1992 C1993 1.400 . S
C1993 C1987 1.491 . S
C1993 C1992 1.400 . S
C1993 C1994 1.398 . S
C1994 H1982 0.950 . S
C1994 C1993 1.398 . S
C1994 C1995 1.391 . S
C1995 H1983 0.950 . S
C1995 C1991 1.393 . S
C1995 C1994 1.391 . S
H1996 C2004 0.950 . S
H1997 C2009 0.950 . S
H1998 C2006 0.950 . S
H1999 C2008 0.950 . S
H2000 C2010 0.950 . S
H2001 C2012 0.950 . S
H2002 C2014 0.950 . S
H2003 C2015 0.950 . S
C2004 H1996 0.950 . S
C2004 C2005 1.386 . S
C2004 C2006 1.391 . S
C2005 C2004 1.386 . S
C2005 C2009 1.393 . S
C2006 H1998 0.950 . S
C2006 C2004 1.391 . S
C2006 C2007 1.400 . S
C2007 C2006 1.400 . S
C2007 C2008 1.398 . S
C2007 C2013 1.491 . S
C2008 H1999 0.950 . S
C2008 C2007 1.398 . S
C2008 C2009 1.391 . S
C2009 H1997 0.950 . S
C2009 C2005 1.393 . S
C2009 C2008 1.391 . S
C2010 H2000 0.950 . S
C2010 C2011 1.386 . S
C2010 C2012 1.391 . S
C2011 C2010 1.386 . S
C2011 C2015 1.393 . S
C2012 H2001 0.950 . S
C2012 C2010 1.391 . S
C2012 C2013 1.400 . S
C2013 C2007 1.491 . S
C2013 C2012 1.400 . S
C2013 C2014 1.398 . S
C2014 H2002 0.950 . S
C2014 C2013 1.398 . S
C2014 C2015 1.391 . S
C2015 H2003 0.950 . S
C2015 C2011 1.393 . S
C2015 C2014 1.391 . S
C591 C571 1.577 . S
C585 C8 1.580 . S
C611 C532 1.476 . S
C605 C19 1.456 . S
C631 C558 1.224 . S
C625 C30 1.250 . S
C651 C545 1.592 1_655 S
C645 C41 1.579 1_565 S
C671 C454 1.581 . S
C665 C52 1.586 . S
C685 C63 1.581 1_556 S
C691 C467 1.588 1_565 S
C711 C428 1.472 . S
C705 C74 1.471 . S
C725 C85 1.242 . S
C731 C441 1.218 . S
C751 C519 1.568 . S
C745 C96 1.588 . S
C765 C107 1.566 1_655 S
C771 C493 1.588 1_556 S
C785 C118 1.456 . S
C791 C480 1.479 . S
C811 C506 1.217 . S
C805 C129 1.246 . S
C831 C415 1.569 . S
C825 C140 1.567 . S
C845 C151 1.404 . S
C851 C376 1.477 . S
C871 C402 1.240 . S
C865 C162 1.219 . S
C885 C173 1.524 . S
C891 C389 1.587 1_455 S
C911 C298 1.570 . S
C905 C184 1.566 . S
C931 C311 1.588 1_545 S
C925 C195 1.543 . S
C945 C206 1.395 . S
C951 C272 1.480 . S
C965 C217 1.233 . S
C971 C285 1.215 . S
C985 C228 1.566 . S
C991 C363 1.571 . S
C1005 C239 1.525 . S
C1011 C337 1.585 1_554 S
C1031 C324 1.470 . S
C1025 C250 1.419 . S
C1045 C261 1.241 . S
C1051 C350 1.219 . S
C1071 C273 1.429 . S
C1065 C7 1.437 . S
C1091 C286 1.349 . S
C1085 C18 1.407 . S
C1105 C29 1.297 . S
C1111 C299 1.297 . S
C1125 C40 1.148 1_565 S
C1131 C312 1.158 . S
C1151 C325 1.424 . S
C1145 C51 1.441 . S
C1165 C62 1.154 1_556 S
C1171 C338 1.156 . S
C1191 C351 1.379 . S
C1185 C73 1.403 . S
C1211 C364 1.291 . S
C1205 C84 1.298 . S
C1231 C377 1.427 . S
C1225 C95 1.439 . S
C1245 C106 1.159 1_655 S
C1251 C390 1.157 . S
C1265 C117 1.397 . S
C1271 C403 1.359 . S
C1285 C128 1.283 . S
C1291 C416 1.305 . S
C1305 C139 1.389 . S
C1311 C429 1.430 . S
C1325 C150 1.317 . S
C1331 C442 1.367 . S
C1345 C161 1.259 . S
C1351 C455 1.304 . S
C1365 C172 1.106 . S
C1371 C468 1.162 . S
C1385 C183 1.397 . S
C1391 C481 1.420 . S
C1411 C494 1.163 . S
C1405 C194 1.106 . S
C1431 C507 1.377 . S
C1425 C205 1.301 . S
C1451 C520 1.292 . S
C1445 C216 1.236 . S
C1471 C533 1.411 . S
C1465 C227 1.386 . S
C1485 C238 1.117 . S
C1491 C546 1.157 . S
C1505 C249 1.289 . S
C1511 C559 1.348 . S
C1525 C260 1.246 . S
C1531 C572 1.302 . S
C1545 C5 1.366 . S
C1551 C372 1.459 . S
C1571 C411 1.473 . S
C1565 C16 1.401 . S
C1585 C27 1.225 1_545 S
C1591 C385 1.286 . S
C1611 C398 1.548 . S
C1605 C38 1.380 1_565 S
C1625 C49 1.363 . S
C1631 C268 1.467 . S
C1645 C60 1.375 1_556 S
C1651 C281 1.549 . S
C1665 C71 1.403 . S
C1671 C294 1.476 . S
C1685 C82 1.246 1_554 S
C1691 C307 1.292 . S
C1711 C320 1.466 . S
C1705 C93 1.364 . S
C1731 C346 1.556 . S
C1725 C104 1.407 1_655 S
C1745 C115 1.439 . S
C1751 C359 1.479 . S
C1765 C126 1.224 1_455 S
C1771 C333 1.283 . S
C1791 C528 1.428 . S
C1785 C137 1.229 . S
C1811 C567 1.424 . S
C1805 C148 1.235 . S
C1825 C159 1.211 . S
C1831 C541 1.277 . S
C1851 C554 1.522 . S
C1845 C170 1.248 . S
C1865 C181 1.239 . S
C1871 C424 1.443 . S
C1885 C192 1.257 . S
C1891 C437 1.512 . S
C1905 C203 1.242 . S
C1911 C450 1.431 . S
C1931 C463 1.287 . S
C1925 C214 1.215 . S
C1951 C476 1.426 . S
C1945 C225 1.232 . S
C1971 C502 1.501 . S
C1965 C236 1.236 . S
C1985 C247 1.223 . S
C1991 C515 1.448 . S
C2011 C489 1.306 . S
C2005 C258 1.158 . S
