# Generated by pormake.
# Topology anh, (6,3)-cn, num edge types: 1
# Building blocks:
#     Node 0, Type 0, BuildingBlock: HISSIN_clean_sbu_0, # of connection points: 6
#     Node 1, Type 0, BuildingBlock: HISSIN_clean_sbu_0, # of connection points: 6
#     Node 2, Type 0, BuildingBlock: HISSIN_clean_sbu_0, # of connection points: 6
#     Node 3, Type 1, BuildingBlock: BELTOD_clean_linker_0, # of connection points: 3
#     Node 4, Type 1, BuildingBlock: BELTOD_clean_linker_0, # of connection points: 3
#     Node 5, Type 1, BuildingBlock: BELTOD_clean_linker_0, # of connection points: 3
#     Node 6, Type 1, BuildingBlock: BELTOD_clean_linker_0, # of connection points: 3
#     Node 7, Type 1, BuildingBlock: BELTOD_clean_linker_0, # of connection points: 3
#     Node 8, Type 1, BuildingBlock: BELTOD_clean_linker_0, # of connection points: 3
#     Edge 9, Type (0, 1), None
#     Edge 10, Type (0, 1), None
#     Edge 11, Type (0, 1), None
#     Edge 12, Type (0, 1), None
#     Edge 13, Type (0, 1), None
#     Edge 14, Type (0, 1), None
#     Edge 15, Type (0, 1), None
#     Edge 16, Type (0, 1), None
#     Edge 17, Type (0, 1), None
#     Edge 18, Type (0, 1), None
#     Edge 19, Type (0, 1), None
#     Edge 20, Type (0, 1), None
#     Edge 21, Type (0, 1), None
#     Edge 22, Type (0, 1), None
#     Edge 23, Type (0, 1), None
#     Edge 24, Type (0, 1), None
#     Edge 25, Type (0, 1), None
#     Edge 26, Type (0, 1), None
# Relax obj value: 0.524
# Max RMSD: 0.228
# Mean RMSD: 0.180
data_MOF--net-anh--node1-HISSIN_clean_sbu_0--node2-BELTOD_clean_linker_0--edge1-none
_symmetry_space_group_name_H-M    P1
_symmetry_Int_Tables_number       1
_symmetry_cell_setting            triclinic
loop_
_symmetry_equiv_pos_as_xyz
'x, y, z'
_cell_length_a     17.439137
_cell_length_b     17.402704
_cell_length_c     32.122333
_cell_angle_alpha  95.931449
_cell_angle_beta   89.649688
_cell_angle_gamma 120.33347
loop_
_atom_site_label
_atom_site_type_symbol
_atom_site_fract_x
_atom_site_fract_y
_atom_site_fract_z
_atom_type_partial_charge
Eu0 Eu 1.10852 0.62169 0.12638 0.0
Eu1 Eu 1.19272 0.81301 0.18234 0.0
C2 C 1.12793 0.63875 0.22827 0.0
C3 C 1.05714 0.39055 0.09135 0.0
C4 C 1.12384 0.40594 0.12094 0.0
C5 C 0.99245 0.23107 0.09183 0.0
C6 C 1.12186 0.33406 0.13761 0.0
C7 C 0.99452 0.30296 0.07524 0.0
C8 C 1.05261 0.24614 0.12515 0.0
C9 C 1.04231 0.46374 0.08422 0.0
O10 O 0.31341 0.79076 0.17426 0.0
O11 O 0.25239 0.6591 0.12979 0.0
C12 C 0.32115 0.72753 0.15088 0.0
O13 O 1.14692 0.72507 0.08032 0.0
O14 O 0.26718 0.90859 0.2369 0.0
O15 O 1.21086 0.94748 0.18906 0.0
O16 O 0.25997 0.83929 0.12211 0.0
C17 C 1.2224 0.80211 0.08493 0.0
O18 O 0.9881 0.63601 0.14044 0.0
O19 O 1.05837 0.78792 0.15558 0.0
O20 O 1.12657 0.71364 0.22942 0.0
O21 O 1.00146 0.48293 0.11402 0.0
O22 O 1.11051 0.53519 0.07259 0.0
O23 O 1.1363 0.60017 0.19237 0.0
C24 C 0.36168 1.04479 0.21102 0.0
C25 C 0.38563 1.05272 0.16899 0.0
C26 C 0.5159 1.10326 0.23258 0.0
C27 C 0.47201 1.07631 0.15878 0.0
C28 C 0.42911 1.07859 0.24287 0.0
C29 C 0.5352 1.09394 0.19048 0.0
C30 C 0.27097 0.97534 0.21975 0.0
C31 C 0.98471 0.71012 0.14576 0.0
H32 H 1.17279 0.47359 0.13377 0.0
H33 H 0.93748 0.16449 0.08163 0.0
H34 H 1.16953 0.34776 0.16286 0.0
H35 H 0.94247 0.29016 0.05256 0.0
H36 H 0.33559 1.02867 0.14355 0.0
H37 H 0.56413 1.1166 0.25751 0.0
H38 H 0.48616 1.06946 0.12616 0.0
H39 H 0.41253 1.0736 0.27542 0.0
Eu40 Eu 0.72909 0.98741 0.47401 0.0
Eu41 Eu 0.62417 1.09736 0.47295 0.0
C42 C 0.69878 1.07203 0.56265 0.0
C43 C 0.9088 0.92727 0.48061 0.0
C44 C 0.93647 0.86592 0.46904 0.0
C45 C 1.03668 1.01191 0.52971 0.0
C46 C 1.01135 0.87474 0.48927 0.0
C47 C 0.9616 1.003 0.50931 0.0
C48 C 1.05891 0.94469 0.52179 0.0
C49 C 0.82073 0.9068 0.46591 0.0
O50 O 0.76685 0.21139 0.4717 0.0
O51 O 0.83776 1.13019 0.46231 0.0
C52 C 0.83888 0.20708 0.46386 0.0
O53 O 0.65277 0.95196 0.41326 0.0
O54 O 0.56942 0.17468 0.50426 0.0
O55 O 0.55099 1.14259 0.437 0.0
O56 O 0.68098 1.09128 0.40935 0.0
C57 C 0.67187 1.0163 0.39074 0.0
O58 O 0.58304 0.877 0.47684 0.0
O59 O 0.51126 0.95178 0.46115 0.0
O60 O 0.64482 1.0908 0.54298 0.0
O61 O 0.81939 0.95692 0.43879 0.0
O62 O 0.76393 0.89351 0.49498 0.0
O63 O 0.74396 1.04042 0.54195 0.0
C64 C 0.59738 0.29141 0.46589 0.0
C65 C 0.66821 0.32785 0.43902 0.0
C66 C 0.66401 0.43472 0.50906 0.0
C67 C 0.73982 0.41465 0.44929 0.0
C68 C 0.59194 0.34814 0.49863 0.0
C69 C 0.74153 0.4651 0.48656 0.0
C70 C 0.55026 0.19447 0.4692 0.0
C71 C 0.50927 0.87672 0.4668 0.0
H72 H 0.8966 0.80761 0.4466 0.0
H73 H 1.0722 1.06659 0.55441 0.0
H74 H 1.02548 0.82097 0.48257 0.0
H75 H 0.94125 1.05165 0.51805 0.0
H76 H 0.67394 0.28615 0.41317 0.0
H77 H 0.66345 0.47275 0.53786 0.0
H78 H 0.79811 0.43844 0.43089 0.0
H79 H 0.53787 0.32167 0.51964 0.0
Eu80 Eu 0.61802 0.5694 0.80488 0.0
Eu81 Eu 0.79948 0.6752 0.85766 0.0
C82 C 0.63259 0.59086 0.90314 0.0
C83 C 0.4094 0.54256 0.76864 0.0
C84 C 0.33941 0.51976 0.7956 0.0
C85 C 0.43296 0.69302 0.77221 0.0
C86 C 0.32219 0.58574 0.81365 0.0
C87 C 0.44852 0.62666 0.75347 0.0
C88 C 0.37642 0.67567 0.80572 0.0
C89 C 0.46048 0.49585 0.76867 0.0
O90 O 0.79465 0.54273 0.83379 0.0
O91 O 0.64608 0.45676 0.8131 0.0
C92 C 0.72414 0.46376 0.82003 0.0
O93 O 0.72536 0.5854 0.75948 0.0
O94 O 0.9358 0.72524 0.88007 0.0
O95 O 0.84707 0.75115 0.91927 0.0
O96 O 0.84695 0.70766 0.79437 0.0
C97 C 0.80924 0.65102 0.76072 0.0
O98 O 0.66052 0.71057 0.79205 0.0
O99 O 0.76628 0.78495 0.84549 0.0
O100 O 0.6927 0.5716 0.89194 0.0
O101 O 0.53285 0.52975 0.74792 0.0
O102 O 0.47442 0.4784 0.8056 0.0
O103 O 0.60068 0.61402 0.87307 0.0
C104 C 0.99696 0.86296 0.92253 0.0
C105 C 1.05303 0.89202 0.95858 0.0
C106 C 1.09093 1.00553 0.8962 0.0
C107 C 1.13115 0.97508 0.96206 0.0
C108 C 1.01246 0.92225 0.89281 0.0
C109 C 1.15503 1.02861 0.92878 0.0
C110 C 0.92835 0.7686 0.9142 0.0
C111 C 0.71603 0.78574 0.81493 0.0
H112 H 0.30589 0.45444 0.8068 0.0
H113 H 0.4732 0.75976 0.76337 0.0
H114 H 0.27268 0.56779 0.83695 0.0
H115 H 0.50032 0.64563 0.73127 0.0
H116 H 1.04051 0.84751 0.98226 0.0
H117 H 1.10681 1.04595 0.87049 0.0
H118 H 1.17811 0.99051 0.98793 0.0
H119 H 0.96796 0.90112 0.86524 0.0
P120 P 0.7931 0.97855 0.216 0.0
H121 H 0.82402 0.15426 0.19842 0.0
H122 H 0.71626 0.20353 0.1922 0.0
H123 H 0.50465 0.92783 0.17194 0.0
H124 H 0.61111 0.87832 0.18106 0.0
H125 H 0.87682 0.95305 0.14253 0.0
H126 H 0.98685 1.06656 0.10261 0.0
H127 H 1.05846 0.26363 0.2109 0.0
H128 H 0.95298 1.14824 0.25116 0.0
H129 H 0.7104 0.8534 0.27784 0.0
H130 H 0.82159 1.13699 0.27284 0.0
O131 O 0.7561 0.87024 0.20102 0.0
H132 H 0.65288 0.86636 0.34558 0.0
H133 H 0.76464 1.15047 0.34104 0.0
C134 C 0.72543 1.01224 0.19042 0.0
C135 C 0.75499 1.10405 0.19094 0.0
C136 C 0.69369 1.13259 0.18736 0.0
C137 C 0.60298 1.06919 0.18146 0.0
C138 C 0.57488 0.97749 0.17582 0.0
C139 C 0.63563 0.94914 0.18084 0.0
C140 C 0.90406 1.04307 0.19917 0.0
C141 C 0.92028 1.01929 0.15849 0.0
C142 C 0.98291 1.08465 0.13552 0.0
C143 C 1.02775 0.17485 0.15284 0.0
C144 C 1.02373 0.19503 0.19615 0.0
C145 C 0.96217 1.12893 0.21932 0.0
C146 C 0.77283 0.99439 0.27045 0.0
C147 C 0.72451 0.91896 0.29163 0.0
C148 C 0.69028 0.92633 0.3302 0.0
C149 C 0.70319 1.00942 0.34844 0.0
C150 C 0.75255 1.08538 0.32755 0.0
C151 C 0.78691 1.07784 0.28884 0.0
P152 P 1.04382 0.69085 0.61349 0.0
H153 H 1.00536 0.53515 0.55316 0.0
H154 H 0.88227 0.4446 0.50126 0.0
H155 H 0.79142 0.63401 0.523 0.0
H156 H 0.91543 0.72514 0.57464 0.0
H157 H 1.17795 0.78 0.55412 0.0
H158 H 1.18125 0.88916 0.51136 0.0
H159 H 1.0448 0.96182 0.60593 0.0
H160 H 1.04006 0.85311 0.64746 0.0
H161 H 0.85567 0.56057 0.62666 0.0
H162 H 1.08276 0.77744 0.6998 0.0
O163 O 1.11153 0.65031 0.61831 0.0
H164 H 0.76075 0.54853 0.68434 0.0
H165 H 0.98815 0.76552 0.75786 0.0
C166 C 0.969 0.63625 0.56789 0.0
C167 C 0.96098 0.55889 0.54572 0.0
C168 C 0.89104 0.50773 0.51576 0.0
C169 C 0.82766 0.53278 0.50807 0.0
C170 C 0.83967 0.61375 0.5282 0.0
C171 C 0.91042 0.66555 0.55769 0.0
C172 C 1.10566 0.80568 0.60322 0.0
C173 C 1.15445 0.82395 0.56703 0.0
C174 C 1.1561 0.88639 0.54243 0.0
C175 C 1.10874 0.93014 0.55423 0.0
C176 C 1.08001 0.92759 0.59531 0.0
C177 C 1.07721 0.86442 0.6195 0.0
C178 C 0.97613 0.67275 0.65826 0.0
C179 C 0.88538 0.60638 0.65495 0.0
C180 C 0.83067 0.59926 0.68806 0.0
C181 C 0.86601 0.65762 0.72526 0.0
C182 C 0.958 0.7207 0.72924 0.0
C183 C 1.01262 0.72736 0.69621 0.0
P184 P 0.43792 0.98417 0.93791 0.0
H185 H 0.4712 0.97733 0.84747 0.0
H186 H 0.4337 0.8529 0.79369 0.0
H187 H 0.35309 0.67386 0.89012 0.0
H188 H 0.38076 0.7955 0.94188 0.0
H189 H 0.42523 1.1281 0.98537 0.0
H190 H 0.29846 1.15054 0.98262 0.0
H191 H 0.23068 1.01852 0.85596 0.0
H192 H 0.35013 0.99033 0.8598 0.0
H193 H 0.48565 0.99421 0.02652 0.0
H194 H 0.24766 0.85997 0.94515 0.0
O195 O 0.54565 1.0485 0.95258 0.0
H196 H 0.39901 0.9209 0.08467 0.0
H197 H 1.15972 0.78382 0.0036 0.0
C198 C 0.42213 0.89507 0.89831 0.0
C199 C 0.44164 0.91033 0.85656 0.0
C200 C 0.42133 0.83869 0.82581 0.0
C201 C 0.3868 0.751 0.83674 0.0
C202 C 0.37383 0.7381 0.87936 0.0
C203 C 0.39107 0.80892 0.90957 0.0
C204 C 0.39453 1.05282 0.92381 0.0
C205 C 0.38593 1.10836 0.95612 0.0
C206 C 0.31382 1.12226 0.9544 0.0
C207 C 0.25076 1.07975 0.92038 0.0
C208 C 0.27541 1.04816 0.88366 0.0
C209 C 0.34489 1.03107 0.88592 0.0
C210 C 0.37336 0.93197 0.98151 0.0
C211 C 0.41469 0.94887 0.02117 0.0
C212 C 0.36465 0.90678 0.05443 0.0
C213 C 0.27228 0.846 0.04869 0.0
C214 C 0.23067 0.82948 0.00889 0.0
C215 C 0.28083 0.87311 0.97564 0.0
P216 P 1.17456 0.51918 0.39647 0.0
H217 H 0.34596 0.56347 0.43749 0.0
H218 H 0.47954 0.70416 0.46326 0.0
H219 H 0.34071 0.84661 0.44741 0.0
H220 H 1.20668 0.70534 0.42215 0.0
H221 H 1.14867 0.39212 0.45672 0.0
H222 H 1.01645 0.26409 0.48109 0.0
H223 H 0.84914 0.3365 0.41813 0.0
H224 H 0.98105 0.464 0.39341 0.0
H225 H 1.09345 0.62612 0.37293 0.0
H226 H 1.19511 0.4693 0.30806 0.0
O227 O 1.22215 0.45843 0.38258 0.0
H228 H 1.08001 0.67743 0.30648 0.0
H229 H 1.17781 0.51666 0.24189 0.0
C230 C 0.26488 0.62201 0.42652 0.0
C231 C 0.34293 0.62436 0.44009 0.0
C232 C 0.42033 0.70578 0.45497 0.0
C233 C 0.42279 0.78831 0.45695 0.0
C234 C 0.34278 0.78525 0.44597 0.0
C235 C 0.26514 0.70353 0.43126 0.0
C236 C 1.07643 0.43995 0.42341 0.0
C237 C 1.08377 0.38236 0.44897 0.0
C238 C 1.00767 0.30815 0.46272 0.0
C239 C 0.92133 0.29 0.45223 0.0
C240 C 0.91422 0.34959 0.42796 0.0
C241 C 0.99027 0.42302 0.41365 0.0
C242 C 1.14806 0.54568 0.34646 0.0
C243 C 1.11301 0.60253 0.34469 0.0
C244 C 1.10458 0.63136 0.30637 0.0
C245 C 1.12872 0.60214 0.26856 0.0
C246 C 1.15878 0.54111 0.27013 0.0
C247 C 1.16884 0.5139 0.30843 0.0
P248 P 0.77233 1.14001 0.75548 0.0
H249 H 0.89369 0.32424 0.79661 0.0
H250 H 0.87637 0.4518 0.8204 0.0
H251 H 0.59285 0.28664 0.79478 0.0
H252 H 0.61063 0.15761 0.77106 0.0
H253 H 0.83825 1.10072 0.83139 0.0
H254 H 0.82145 0.96182 0.85352 0.0
H255 H 0.62616 0.809 0.75167 0.0
H256 H 0.6402 0.94627 0.73102 0.0
H257 H 0.67175 0.18893 0.69728 0.0
H258 H 0.80623 1.0378 0.68803 0.0
O259 O 0.88289 0.18824 0.7557 0.0
H260 H 0.64411 0.16254 0.62085 0.0
H261 H 0.78001 1.01221 0.61227 0.0
C262 C 0.75358 0.22934 0.78148 0.0
C263 C 0.8271 0.31388 0.79657 0.0
C264 C 0.81724 0.38808 0.81032 0.0
C265 C 0.73329 0.38138 0.80947 0.0
C266 C 0.65899 0.29571 0.79594 0.0
C267 C 0.66892 0.22099 0.78243 0.0
C268 C 0.7399 1.03577 0.77955 0.0
C269 C 0.78925 1.03708 0.81465 0.0
C270 C 0.78035 0.957 0.82711 0.0
C271 C 0.72208 0.87241 0.80468 0.0
C272 C 0.67078 0.87151 0.77047 0.0
C273 C 0.67885 0.9511 0.75843 0.0
C274 C 0.74025 1.11428 0.69916 0.0
C275 C 0.69429 1.14891 0.67922 0.0
C276 C 0.67874 1.1341 0.63514 0.0
C277 C 0.70996 1.08546 0.60984 0.0
C278 C 0.755 1.05036 0.63019 0.0
C279 C 0.76974 1.06454 0.67392 0.0
P280 P 0.61295 0.64866 0.09488 0.0
H281 H 0.67387 0.54639 0.13889 0.0
H282 H 0.81949 0.5678 0.15577 0.0
H283 H 0.94439 0.83603 0.12087 0.0
H284 H 0.796 0.8122 0.1018 0.0
H285 H 0.51729 0.62559 0.17269 0.0
H286 H 0.39749 0.65344 0.19467 0.0
H287 H 0.44036 0.80511 0.09059 0.0
H288 H 0.56164 0.77915 0.0691 0.0
H289 H 0.74325 0.64075 0.03979 0.0
H290 H 0.49704 0.63869 0.02282 0.0
O291 O 0.54618 0.54018 0.0999 0.0
H292 H 0.74783 0.61256 0.96557 0.0
H293 H 0.50406 0.61445 0.94614 0.0
C294 C 0.72188 0.67819 0.11956 0.0
C295 C 0.73165 0.61097 0.13555 0.0
C296 C 0.81613 0.62306 0.14503 0.0
C297 C 0.89509 0.70355 0.13965 0.0
C298 C 0.88572 0.77316 0.12581 0.0
C299 C 0.80042 0.76013 0.11539 0.0
C300 C 0.54922 0.69913 0.11874 0.0
C301 C 0.5039 0.66816 0.15542 0.0
C302 C 0.43492 0.6842 0.16814 0.0
C303 C 0.4096 0.73293 0.14496 0.0
C304 C 0.4589 0.769 0.10984 0.0
C305 C 0.52836 0.75341 0.09725 0.0
C306 C 0.62245 0.64729 0.03795 0.0
C307 C 0.69151 0.63808 0.02028 0.0
C308 C 0.69343 0.6205 0.97704 0.0
C309 C 0.62665 0.61185 0.94918 0.0
C310 C 0.55729 0.62183 0.96642 0.0
C311 C 0.55419 0.63732 0.01044 0.0
loop_
_geom_bond_atom_site_label_1
_geom_bond_atom_site_label_2
_geom_bond_distance
_geom_bond_site_symmetry_2
_ccdc_geom_bond_type
Eu0 C9 2.828 . S
Eu0 O11 2.392 1_655 S
Eu0 O13 2.418 . S
Eu0 O18 2.373 . S
Eu0 O21 2.488 . S
Eu0 O22 2.471 . S
Eu0 O23 2.349 . S
Eu1 O10 2.373 . S
Eu1 O14 2.488 . S
Eu1 O15 2.471 . S
Eu1 O16 2.349 . S
Eu1 O19 2.392 1_455 S
Eu1 O20 2.418 . S
Eu1 C30 2.828 . S
C2 O20 1.244 . S
C2 O23 1.265 1_455 S
C3 C4 1.379 . S
C3 C7 1.373 . S
C3 C9 1.505 . S
C4 C3 1.379 . S
C4 C6 1.369 . S
C4 H32 0.930 . S
C5 C7 1.383 . S
C5 C8 1.382 . S
C5 H33 0.930 . S
C6 C4 1.369 . S
C6 C8 1.392 . S
C6 H34 0.930 . S
C7 C3 1.373 . S
C7 C5 1.383 . S
C7 H35 0.931 . S
C8 C5 1.382 . S
C8 C6 1.392 . S
C9 Eu0 2.828 . S
C9 C3 1.505 . S
C9 O21 1.249 . S
C9 O22 1.244 . S
O10 Eu1 2.373 . S
O10 C12 1.258 . S
O11 Eu0 2.392 1_455 S
O11 C12 1.242 . S
C12 O10 1.258 . S
C12 O11 1.242 . S
O13 Eu0 2.418 . S
O13 C17 1.244 . S
O14 Eu1 2.488 . S
O14 C30 1.249 . S
O15 Eu1 2.471 . S
O15 C30 1.244 . S
O16 Eu1 2.349 . S
O16 C17 1.265 1_455 S
C17 O13 1.244 . S
C17 O16 1.265 1_655 S
O18 Eu0 2.373 . S
O18 C31 1.258 . S
O19 Eu1 2.392 1_655 S
O19 C31 1.242 . S
O20 Eu1 2.418 . S
O20 C2 1.244 . S
O21 Eu0 2.488 . S
O21 C9 1.249 . S
O22 Eu0 2.471 . S
O22 C9 1.244 . S
O23 Eu0 2.349 . S
O23 C2 1.265 1_655 S
C24 C25 1.379 . S
C24 C28 1.373 . S
C24 C30 1.505 . S
C25 C24 1.379 . S
C25 C27 1.369 . S
C25 H36 0.930 . S
C26 C28 1.383 . S
C26 C29 1.382 . S
C26 H37 0.930 . S
C27 C25 1.369 . S
C27 C29 1.392 . S
C27 H38 0.930 . S
C28 C24 1.373 . S
C28 C26 1.383 . S
C28 H39 0.931 . S
C29 C26 1.382 . S
C29 C27 1.392 . S
C30 Eu1 2.828 . S
C30 O14 1.249 . S
C30 O15 1.244 . S
C30 C24 1.505 . S
C31 O18 1.258 . S
C31 O19 1.242 . S
H32 C4 0.930 . S
H33 C5 0.930 . S
H34 C6 0.930 . S
H35 C7 0.931 . S
H36 C25 0.930 . S
H37 C26 0.930 . S
H38 C27 0.930 . S
H39 C28 0.931 . S
Eu40 C49 2.828 . S
Eu40 O51 2.392 1_565 S
Eu40 O53 2.418 . S
Eu40 O58 2.373 . S
Eu40 O61 2.488 . S
Eu40 O62 2.471 . S
Eu40 O63 2.349 . S
Eu41 O50 2.373 . S
Eu41 O54 2.488 . S
Eu41 O55 2.471 . S
Eu41 O56 2.349 . S
Eu41 O59 2.392 1_545 S
Eu41 O60 2.418 . S
Eu41 C70 2.828 . S
C42 O60 1.244 . S
C42 O63 1.265 1_545 S
C43 C44 1.379 . S
C43 C47 1.373 . S
C43 C49 1.505 . S
C44 C43 1.379 . S
C44 C46 1.369 . S
C44 H72 0.930 . S
C45 C47 1.383 . S
C45 C48 1.382 . S
C45 H73 0.930 . S
C46 C44 1.369 . S
C46 C48 1.392 . S
C46 H74 0.930 . S
C47 C43 1.373 . S
C47 C45 1.383 . S
C47 H75 0.931 . S
C48 C45 1.382 . S
C48 C46 1.392 . S
C49 Eu40 2.828 . S
C49 C43 1.505 . S
C49 O61 1.249 . S
C49 O62 1.244 . S
O50 Eu41 2.373 . S
O50 C52 1.258 . S
O51 Eu40 2.392 1_545 S
O51 C52 1.242 . S
C52 O50 1.258 . S
C52 O51 1.242 . S
O53 Eu40 2.418 . S
O53 C57 1.244 . S
O54 Eu41 2.488 . S
O54 C70 1.249 . S
O55 Eu41 2.471 . S
O55 C70 1.244 . S
O56 Eu41 2.349 . S
O56 C57 1.265 1_545 S
C57 O53 1.244 . S
C57 O56 1.265 1_565 S
O58 Eu40 2.373 . S
O58 C71 1.258 . S
O59 Eu41 2.392 1_565 S
O59 C71 1.242 . S
O60 Eu41 2.418 . S
O60 C42 1.244 . S
O61 Eu40 2.488 . S
O61 C49 1.249 . S
O62 Eu40 2.471 . S
O62 C49 1.244 . S
O63 Eu40 2.349 . S
O63 C42 1.265 1_565 S
C64 C65 1.379 . S
C64 C68 1.373 . S
C64 C70 1.505 . S
C65 C64 1.379 . S
C65 C67 1.369 . S
C65 H76 0.930 . S
C66 C68 1.383 . S
C66 C69 1.382 . S
C66 H77 0.930 . S
C67 C65 1.369 . S
C67 C69 1.392 . S
C67 H78 0.930 . S
C68 C64 1.373 . S
C68 C66 1.383 . S
C68 H79 0.931 . S
C69 C66 1.382 . S
C69 C67 1.392 . S
C70 Eu41 2.828 . S
C70 O54 1.249 . S
C70 O55 1.244 . S
C70 C64 1.505 . S
C71 O58 1.258 . S
C71 O59 1.242 . S
H72 C44 0.930 . S
H73 C45 0.930 . S
H74 C46 0.930 . S
H75 C47 0.931 . S
H76 C65 0.930 . S
H77 C66 0.930 . S
H78 C67 0.930 . S
H79 C68 0.931 . S
Eu80 C89 2.828 . S
Eu80 O91 2.392 . S
Eu80 O93 2.418 . S
Eu80 O98 2.373 . S
Eu80 O101 2.488 . S
Eu80 O102 2.471 . S
Eu80 O103 2.349 . S
Eu81 O90 2.373 . S
Eu81 O94 2.488 . S
Eu81 O95 2.471 . S
Eu81 O96 2.349 . S
Eu81 O99 2.392 . S
Eu81 O100 2.418 . S
Eu81 C110 2.828 . S
C82 O100 1.244 . S
C82 O103 1.265 . S
C83 C84 1.379 . S
C83 C87 1.373 . S
C83 C89 1.505 . S
C84 C83 1.379 . S
C84 C86 1.369 . S
C84 H112 0.930 . S
C85 C87 1.383 . S
C85 C88 1.382 . S
C85 H113 0.930 . S
C86 C84 1.369 . S
C86 C88 1.392 . S
C86 H114 0.930 . S
C87 C83 1.373 . S
C87 C85 1.383 . S
C87 H115 0.931 . S
C88 C85 1.382 . S
C88 C86 1.392 . S
C89 Eu80 2.828 . S
C89 C83 1.505 . S
C89 O101 1.249 . S
C89 O102 1.244 . S
O90 Eu81 2.373 . S
O90 C92 1.258 . S
O91 Eu80 2.392 . S
O91 C92 1.242 . S
C92 O90 1.258 . S
C92 O91 1.242 . S
O93 Eu80 2.418 . S
O93 C97 1.244 . S
O94 Eu81 2.488 . S
O94 C110 1.249 . S
O95 Eu81 2.471 . S
O95 C110 1.244 . S
O96 Eu81 2.349 . S
O96 C97 1.265 . S
C97 O93 1.244 . S
C97 O96 1.265 . S
O98 Eu80 2.373 . S
O98 C111 1.258 . S
O99 Eu81 2.392 . S
O99 C111 1.242 . S
O100 Eu81 2.418 . S
O100 C82 1.244 . S
O101 Eu80 2.488 . S
O101 C89 1.249 . S
O102 Eu80 2.471 . S
O102 C89 1.244 . S
O103 Eu80 2.349 . S
O103 C82 1.265 . S
C104 C105 1.379 . S
C104 C108 1.373 . S
C104 C110 1.505 . S
C105 C104 1.379 . S
C105 C107 1.369 . S
C105 H116 0.930 . S
C106 C108 1.383 . S
C106 C109 1.382 . S
C106 H117 0.930 . S
C107 C105 1.369 . S
C107 C109 1.392 . S
C107 H118 0.930 . S
C108 C104 1.373 . S
C108 C106 1.383 . S
C108 H119 0.931 . S
C109 C106 1.382 . S
C109 C107 1.392 . S
C110 Eu81 2.828 . S
C110 O94 1.249 . S
C110 O95 1.244 . S
C110 C104 1.505 . S
C111 O98 1.258 . S
C111 O99 1.242 . S
H112 C84 0.930 . S
H113 C85 0.930 . S
H114 C86 0.930 . S
H115 C87 0.931 . S
H116 C105 0.930 . S
H117 C106 0.930 . S
H118 C107 0.930 . S
H119 C108 0.931 . S
P120 O131 1.490 . S
P120 C134 1.812 . S
P120 C140 1.803 1_565 S
P120 C146 1.819 1_565 S
H121 C135 0.941 . S
H122 C136 0.939 . S
H123 C138 0.940 . S
H124 C139 0.940 . S
H125 C141 0.939 . S
H126 C142 0.942 . S
H127 C144 0.940 . S
H128 C145 0.939 . S
H129 C147 0.941 . S
H130 C151 0.939 . S
O131 P120 1.490 . S
H132 C148 0.939 . S
H133 C150 0.940 . S
C134 P120 1.812 . S
C134 C135 1.389 . S
C134 C139 1.391 . S
C135 H121 0.941 . S
C135 C134 1.389 . S
C135 C136 1.397 . S
C136 H122 0.939 . S
C136 C135 1.397 . S
C136 C137 1.378 . S
C137 C136 1.378 . S
C137 C138 1.378 . S
C138 H123 0.940 . S
C138 C137 1.378 . S
C138 C139 1.396 . S
C139 H124 0.940 . S
C139 C134 1.391 . S
C139 C138 1.396 . S
C140 P120 1.803 1_545 S
C140 C141 1.378 . S
C140 C145 1.400 . S
C141 H125 0.939 . S
C141 C140 1.378 . S
C141 C142 1.361 . S
C142 H126 0.942 . S
C142 C141 1.361 . S
C142 C143 1.369 . S
C143 C142 1.369 . S
C143 C144 1.404 . S
C144 H127 0.940 . S
C144 C143 1.404 . S
C144 C145 1.389 . S
C145 H128 0.939 . S
C145 C140 1.400 . S
C145 C144 1.389 . S
C146 P120 1.819 1_545 S
C146 C147 1.391 1_545 S
C146 C151 1.391 . S
C147 H129 0.941 . S
C147 C146 1.391 1_565 S
C147 C148 1.396 . S
C148 H132 0.939 . S
C148 C147 1.396 . S
C148 C149 1.397 1_565 S
C149 C148 1.397 1_545 S
C149 C150 1.385 . S
C150 H133 0.940 . S
C150 C149 1.385 . S
C150 C151 1.388 . S
C151 H130 0.939 . S
C151 C146 1.391 . S
C151 C150 1.388 . S
P152 O163 1.490 . S
P152 C166 1.812 . S
P152 C172 1.803 . S
P152 C178 1.819 . S
H153 C167 0.941 . S
H154 C168 0.939 . S
H155 C170 0.940 . S
H156 C171 0.940 . S
H157 C173 0.939 . S
H158 C174 0.942 . S
H159 C176 0.940 . S
H160 C177 0.939 . S
H161 C179 0.941 . S
H162 C183 0.939 . S
O163 P152 1.490 . S
H164 C180 0.939 . S
H165 C182 0.940 . S
C166 P152 1.812 . S
C166 C167 1.389 . S
C166 C171 1.391 . S
C167 H153 0.941 . S
C167 C166 1.389 . S
C167 C168 1.397 . S
C168 H154 0.939 . S
C168 C167 1.397 . S
C168 C169 1.378 . S
C169 C168 1.378 . S
C169 C170 1.378 . S
C170 H155 0.940 . S
C170 C169 1.378 . S
C170 C171 1.396 . S
C171 H156 0.940 . S
C171 C166 1.391 . S
C171 C170 1.396 . S
C172 P152 1.803 . S
C172 C173 1.378 . S
C172 C177 1.400 . S
C173 H157 0.939 . S
C173 C172 1.378 . S
C173 C174 1.361 . S
C174 H158 0.942 . S
C174 C173 1.361 . S
C174 C175 1.369 . S
C175 C174 1.369 . S
C175 C176 1.404 . S
C176 H159 0.940 . S
C176 C175 1.404 . S
C176 C177 1.389 . S
C177 H160 0.939 . S
C177 C172 1.400 . S
C177 C176 1.389 . S
C178 P152 1.819 . S
C178 C179 1.391 . S
C178 C183 1.391 . S
C179 H161 0.941 . S
C179 C178 1.391 . S
C179 C180 1.396 . S
C180 H164 0.939 . S
C180 C179 1.396 . S
C180 C181 1.397 . S
C181 C180 1.397 . S
C181 C182 1.385 . S
C182 H165 0.940 . S
C182 C181 1.385 . S
C182 C183 1.388 . S
C183 H162 0.939 . S
C183 C178 1.391 . S
C183 C182 1.388 . S
P184 O195 1.490 . S
P184 C198 1.812 . S
P184 C204 1.803 . S
P184 C210 1.819 . S
H185 C199 0.941 . S
H186 C200 0.939 . S
H187 C202 0.940 . S
H188 C203 0.940 . S
H189 C205 0.939 . S
H190 C206 0.942 . S
H191 C208 0.940 . S
H192 C209 0.939 . S
H193 C211 0.941 . S
H194 C215 0.939 1_656 S
O195 P184 1.490 . S
H196 C212 0.939 . S
H197 C214 0.940 . S
C198 P184 1.812 . S
C198 C199 1.389 . S
C198 C203 1.391 . S
C199 H185 0.941 . S
C199 C198 1.389 . S
C199 C200 1.397 . S
C200 H186 0.939 . S
C200 C199 1.397 . S
C200 C201 1.378 . S
C201 C200 1.378 . S
C201 C202 1.378 . S
C202 H187 0.940 . S
C202 C201 1.378 . S
C202 C203 1.396 . S
C203 H188 0.940 . S
C203 C198 1.391 . S
C203 C202 1.396 . S
C204 P184 1.803 . S
C204 C205 1.378 1_455 S
C204 C209 1.400 1_455 S
C205 H189 0.939 . S
C205 C204 1.378 1_655 S
C205 C206 1.361 . S
C206 H190 0.942 . S
C206 C205 1.361 . S
C206 C207 1.369 . S
C207 C206 1.369 . S
C207 C208 1.404 . S
C208 H191 0.940 . S
C208 C207 1.404 . S
C208 C209 1.389 . S
C209 H192 0.939 . S
C209 C204 1.400 1_655 S
C209 C208 1.389 . S
C210 P184 1.819 . S
C210 C211 1.391 1_556 S
C210 C215 1.391 1_556 S
C211 H193 0.941 . S
C211 C210 1.391 1_554 S
C211 C212 1.396 . S
C212 H196 0.939 . S
C212 C211 1.396 . S
C212 C213 1.397 . S
C213 C212 1.397 . S
C213 C214 1.385 1_455 S
C214 H197 0.940 . S
C214 C213 1.385 1_655 S
C214 C215 1.388 1_655 S
C215 H194 0.939 1_454 S
C215 C210 1.391 1_554 S
C215 C214 1.388 1_455 S
P216 O227 1.490 . S
P216 C230 1.812 . S
P216 C236 1.803 1_455 S
P216 C242 1.819 . S
H217 C231 0.941 . S
H218 C232 0.939 . S
H219 C234 0.940 . S
H220 C235 0.940 . S
H221 C237 0.939 . S
H222 C238 0.942 . S
H223 C240 0.940 . S
H224 C241 0.939 . S
H225 C243 0.941 . S
H226 C247 0.939 . S
O227 P216 1.490 . S
H228 C244 0.939 . S
H229 C246 0.940 . S
C230 P216 1.812 . S
C230 C231 1.389 . S
C230 C235 1.391 . S
C231 H217 0.941 . S
C231 C230 1.389 . S
C231 C232 1.397 . S
C232 H218 0.939 . S
C232 C231 1.397 . S
C232 C233 1.378 . S
C233 C232 1.378 . S
C233 C234 1.378 . S
C234 H219 0.940 . S
C234 C233 1.378 . S
C234 C235 1.396 . S
C235 H220 0.940 . S
C235 C230 1.391 . S
C235 C234 1.396 . S
C236 P216 1.803 1_655 S
C236 C237 1.378 . S
C236 C241 1.400 . S
C237 H221 0.939 . S
C237 C236 1.378 . S
C237 C238 1.361 . S
C238 H222 0.942 . S
C238 C237 1.361 . S
C238 C239 1.369 . S
C239 C238 1.369 . S
C239 C240 1.404 . S
C240 H223 0.940 . S
C240 C239 1.404 . S
C240 C241 1.389 . S
C241 H224 0.939 . S
C241 C236 1.400 . S
C241 C240 1.389 . S
C242 P216 1.819 . S
C242 C243 1.391 . S
C242 C247 1.391 1_455 S
C243 H225 0.941 . S
C243 C242 1.391 . S
C243 C244 1.396 . S
C244 H228 0.939 . S
C244 C243 1.396 . S
C244 C245 1.397 . S
C245 C244 1.397 . S
C245 C246 1.385 1_455 S
C246 H229 0.940 . S
C246 C245 1.385 1_655 S
C246 C247 1.388 . S
C247 H226 0.939 . S
C247 C242 1.391 1_655 S
C247 C246 1.388 . S
P248 O259 1.490 . S
P248 C262 1.812 . S
P248 C268 1.803 1_545 S
P248 C274 1.819 . S
H249 C263 0.941 . S
H250 C264 0.939 . S
H251 C266 0.940 . S
H252 C267 0.940 . S
H253 C269 0.939 . S
H254 C270 0.942 . S
H255 C272 0.940 . S
H256 C273 0.939 . S
H257 C275 0.941 . S
H258 C279 0.939 . S
O259 P248 1.490 . S
H260 C276 0.939 . S
H261 C278 0.940 . S
C262 P248 1.812 . S
C262 C263 1.389 . S
C262 C267 1.391 . S
C263 H249 0.941 . S
C263 C262 1.389 . S
C263 C264 1.397 . S
C264 H250 0.939 . S
C264 C263 1.397 . S
C264 C265 1.378 . S
C265 C264 1.378 . S
C265 C266 1.378 . S
C266 H251 0.940 . S
C266 C265 1.378 . S
C266 C267 1.396 . S
C267 H252 0.940 . S
C267 C262 1.391 . S
C267 C266 1.396 . S
C268 P248 1.803 1_565 S
C268 C269 1.378 . S
C268 C273 1.400 . S
C269 H253 0.939 . S
C269 C268 1.378 . S
C269 C270 1.361 . S
C270 H254 0.942 . S
C270 C269 1.361 . S
C270 C271 1.369 . S
C271 C270 1.369 . S
C271 C272 1.404 . S
C272 H255 0.940 . S
C272 C271 1.404 . S
C272 C273 1.389 . S
C273 H256 0.939 . S
C273 C268 1.400 . S
C273 C272 1.389 . S
C274 P248 1.819 . S
C274 C275 1.391 . S
C274 C279 1.391 1_545 S
C275 H257 0.941 . S
C275 C274 1.391 . S
C275 C276 1.396 . S
C276 H260 0.939 . S
C276 C275 1.396 . S
C276 C277 1.397 . S
C277 C276 1.397 . S
C277 C278 1.385 1_545 S
C278 H261 0.940 . S
C278 C277 1.385 1_565 S
C278 C279 1.388 . S
C279 H258 0.939 . S
C279 C274 1.391 1_565 S
C279 C278 1.388 . S
P280 O291 1.490 . S
P280 C294 1.812 . S
P280 C300 1.803 . S
P280 C306 1.819 . S
H281 C295 0.941 . S
H282 C296 0.939 . S
H283 C298 0.940 . S
H284 C299 0.940 . S
H285 C301 0.939 . S
H286 C302 0.942 . S
H287 C304 0.940 . S
H288 C305 0.939 . S
H289 C307 0.941 . S
H290 C311 0.939 . S
O291 P280 1.490 . S
H292 C308 0.939 . S
H293 C310 0.940 . S
C294 P280 1.812 . S
C294 C295 1.389 . S
C294 C299 1.391 . S
C295 H281 0.941 . S
C295 C294 1.389 . S
C295 C296 1.397 . S
C296 H282 0.939 . S
C296 C295 1.397 . S
C296 C297 1.378 . S
C297 C296 1.378 . S
C297 C298 1.378 . S
C298 H283 0.940 . S
C298 C297 1.378 . S
C298 C299 1.396 . S
C299 H284 0.940 . S
C299 C294 1.391 . S
C299 C298 1.396 . S
C300 P280 1.803 . S
C300 C301 1.378 . S
C300 C305 1.400 . S
C301 H285 0.939 . S
C301 C300 1.378 . S
C301 C302 1.361 . S
C302 H286 0.942 . S
C302 C301 1.361 . S
C302 C303 1.369 . S
C303 C302 1.369 . S
C303 C304 1.404 . S
C304 H287 0.940 . S
C304 C303 1.404 . S
C304 C305 1.389 . S
C305 H288 0.939 . S
C305 C300 1.400 . S
C305 C304 1.389 . S
C306 P280 1.819 . S
C306 C307 1.391 . S
C306 C311 1.391 . S
C307 H289 0.941 . S
C307 C306 1.391 . S
C307 C308 1.396 1_554 S
C308 H292 0.939 . S
C308 C307 1.396 1_556 S
C308 C309 1.397 . S
C309 C308 1.397 . S
C309 C310 1.385 . S
C310 H293 0.940 . S
C310 C309 1.385 . S
C310 C311 1.388 1_556 S
C311 H290 0.939 . S
C311 C306 1.391 . S
C311 C310 1.388 1_554 S
C12 C303 4.611 . S
C52 C239 4.656 . S
C111 C271 4.726 . S
C31 C297 4.902 . S
C233 C71 4.865 . S
C265 C92 4.785 . S
C48 C175 2.743 . S
C109 C207 2.771 . S
C29 C137 2.322 . S
C169 C69 2.644 . S
C201 C88 2.620 . S
C8 C143 2.410 . S
C213 C17 1.652 1_455 S
C57 C149 0.909 1_565 S
C97 C181 1.627 . S
C277 C42 2.029 . S
C309 C82 2.046 . S
C2 C245 2.083 . S
