# Generated by pormake.
# Topology hwx, (6,3)-cn, num edge types: 1
# Building blocks:
#     Node 0, Type 0, BuildingBlock: OJICUG_clean_sbu_0, # of connection points: 6
#     Node 1, Type 0, BuildingBlock: OJICUG_clean_sbu_0, # of connection points: 6
#     Node 2, Type 0, BuildingBlock: OJICUG_clean_sbu_0, # of connection points: 6
#     Node 3, Type 0, BuildingBlock: OJICUG_clean_sbu_0, # of connection points: 6
#     Node 4, Type 1, BuildingBlock: BETDIP_clean_linker_0, # of connection points: 3
#     Node 5, Type 1, BuildingBlock: BETDIP_clean_linker_0, # of connection points: 3
#     Node 6, Type 1, BuildingBlock: BETDIP_clean_linker_0, # of connection points: 3
#     Node 7, Type 1, BuildingBlock: BETDIP_clean_linker_0, # of connection points: 3
#     Node 8, Type 1, BuildingBlock: BETDIP_clean_linker_0, # of connection points: 3
#     Node 9, Type 1, BuildingBlock: BETDIP_clean_linker_0, # of connection points: 3
#     Node 10, Type 1, BuildingBlock: BETDIP_clean_linker_0, # of connection points: 3
#     Node 11, Type 1, BuildingBlock: BETDIP_clean_linker_0, # of connection points: 3
#     Edge 12, Type (0, 1), BuildingBlock: AJUNOK_clean_linker_0, # of connection points: 2
#     Edge 13, Type (0, 1), BuildingBlock: AJUNOK_clean_linker_0, # of connection points: 2
#     Edge 14, Type (0, 1), BuildingBlock: AJUNOK_clean_linker_0, # of connection points: 2
#     Edge 15, Type (0, 1), BuildingBlock: AJUNOK_clean_linker_0, # of connection points: 2
#     Edge 16, Type (0, 1), BuildingBlock: AJUNOK_clean_linker_0, # of connection points: 2
#     Edge 17, Type (0, 1), BuildingBlock: AJUNOK_clean_linker_0, # of connection points: 2
#     Edge 18, Type (0, 1), BuildingBlock: AJUNOK_clean_linker_0, # of connection points: 2
#     Edge 19, Type (0, 1), BuildingBlock: AJUNOK_clean_linker_0, # of connection points: 2
#     Edge 20, Type (0, 1), BuildingBlock: AJUNOK_clean_linker_0, # of connection points: 2
#     Edge 21, Type (0, 1), BuildingBlock: AJUNOK_clean_linker_0, # of connection points: 2
#     Edge 22, Type (0, 1), BuildingBlock: AJUNOK_clean_linker_0, # of connection points: 2
#     Edge 23, Type (0, 1), BuildingBlock: AJUNOK_clean_linker_0, # of connection points: 2
#     Edge 24, Type (0, 1), BuildingBlock: AJUNOK_clean_linker_0, # of connection points: 2
#     Edge 25, Type (0, 1), BuildingBlock: AJUNOK_clean_linker_0, # of connection points: 2
#     Edge 26, Type (0, 1), BuildingBlock: AJUNOK_clean_linker_0, # of connection points: 2
#     Edge 27, Type (0, 1), BuildingBlock: AJUNOK_clean_linker_0, # of connection points: 2
#     Edge 28, Type (0, 1), BuildingBlock: AJUNOK_clean_linker_0, # of connection points: 2
#     Edge 29, Type (0, 1), BuildingBlock: AJUNOK_clean_linker_0, # of connection points: 2
#     Edge 30, Type (0, 1), BuildingBlock: AJUNOK_clean_linker_0, # of connection points: 2
#     Edge 31, Type (0, 1), BuildingBlock: AJUNOK_clean_linker_0, # of connection points: 2
#     Edge 32, Type (0, 1), BuildingBlock: AJUNOK_clean_linker_0, # of connection points: 2
#     Edge 33, Type (0, 1), BuildingBlock: AJUNOK_clean_linker_0, # of connection points: 2
#     Edge 34, Type (0, 1), BuildingBlock: AJUNOK_clean_linker_0, # of connection points: 2
#     Edge 35, Type (0, 1), BuildingBlock: AJUNOK_clean_linker_0, # of connection points: 2
# Relax obj value: 0.006
# Max RMSD: 0.040
# Mean RMSD: 0.038
data_MOF--net-hwx--node1-OJICUG_clean_sbu_0--node2-BETDIP_clean_linker_0--edge1-AJUNOK_clean_linker_0
_symmetry_space_group_name_H-M    P1
_symmetry_Int_Tables_number       1
_symmetry_cell_setting            triclinic
loop_
_symmetry_equiv_pos_as_xyz
'x, y, z'
_cell_length_a     39.587569
_cell_length_b     39.598638
_cell_length_c     15.190361
_cell_angle_alpha  92.059308
_cell_angle_beta   92.21678
_cell_angle_gamma 90.054701
loop_
_atom_site_label
_atom_site_type_symbol
_atom_site_fract_x
_atom_site_fract_y
_atom_site_fract_z
_atom_type_partial_charge
Sc0 Sc 0.23135 0.22804 0.1165 0.0
Sc1 Sc 0.17659 0.17592 0.9831 0.0
Sc2 Sc 0.23329 0.23145 0.88645 0.0
O3 O 0.21373 0.21179 -0.00474 0.0
C4 C 0.22947 0.29697 0.01401 0.0
C5 C 0.15184 0.22273 0.1427 0.0
C6 C 0.15445 0.22635 0.83257 0.0
C7 C 0.22258 0.14876 0.14145 0.0
C8 C 0.29939 0.22349 0.01124 0.0
C9 C 0.22567 0.15301 0.83089 0.0
O10 O 0.22976 0.28038 0.08402 0.0
O11 O 0.14627 0.20093 0.08044 0.0
O12 O 0.18387 0.23869 0.82549 0.0
O13 O 0.23534 0.17752 0.16241 0.0
O14 O 0.28487 0.22654 0.93577 0.0
O15 O 0.2027 0.14699 0.88437 0.0
O16 O 0.2833 0.22364 0.08197 0.0
O17 O 0.2006 0.14424 0.07907 0.0
O18 O 0.23841 0.18223 0.82379 0.0
O19 O 0.18115 0.23436 0.16315 0.0
O20 O 0.23063 0.28279 0.93776 0.0
O21 O 0.14829 0.2033 0.88567 0.0
Sc22 Sc 0.26759 0.73239 0.37811 0.0
Sc23 Sc 0.32263 0.67611 0.48796 0.0
Sc24 Sc 0.26522 0.72627 0.60723 0.0
O25 O 0.28517 0.71157 0.49106 0.0
C26 C 0.269 0.79653 0.51168 0.0
C27 C 0.34686 0.72831 0.34823 0.0
C28 C 0.34436 0.72165 0.65745 0.0
C29 C 0.27609 0.65441 0.31972 0.0
C30 C 0.19932 0.72296 0.47972 0.0
C31 C 0.27404 0.64685 0.62911 0.0
O32 O 0.26933 0.78328 0.43419 0.0
O33 O 0.35235 0.70439 0.40041 0.0
O34 O 0.31457 0.73223 0.67041 0.0
O35 O 0.26369 0.68374 0.31031 0.0
O36 O 0.21379 0.72238 0.55584 0.0
O37 O 0.29756 0.64334 0.57502 0.0
O38 O 0.21553 0.72659 0.41013 0.0
O39 O 0.29795 0.64788 0.38019 0.0
O40 O 0.2605 0.67517 0.64728 0.0
O41 O 0.31765 0.74062 0.33373 0.0
O42 O 0.26741 0.77898 0.57971 0.0
O43 O 0.35123 0.70073 0.59534 0.0
Sc44 Sc 0.76914 0.76716 0.88669 0.0
Sc45 Sc 0.82192 0.82302 0.01547 0.0
Sc46 Sc 0.76737 0.76696 0.11714 0.0
O47 O 0.78615 0.78573 0.00647 0.0
C48 C 0.7009 0.76959 -0.00833 0.0
C49 C 0.7744 0.84633 0.85519 0.0
C50 C 0.7722 0.84613 0.16607 0.0
C51 C 0.84834 0.77562 0.85935 0.0
C52 C 0.77417 0.69992 -0.0041 0.0
C53 C 0.84596 0.77554 0.17054 0.0
O54 O 0.71692 0.76917 0.92073 0.0
O55 O 0.79636 0.85237 0.91687 0.0
O56 O 0.76016 0.81672 0.17521 0.0
O57 O 0.8195 0.76269 0.83989 0.0
O58 O 0.77228 0.71518 0.0706 0.0
O59 O 0.8515 0.79796 0.11515 0.0
O60 O 0.77339 0.71544 0.92406 0.0
O61 O 0.85309 0.79815 0.92015 0.0
O62 O 0.81693 0.76252 0.17882 0.0
O63 O 0.76272 0.8169 0.83675 0.0
O64 O 0.71578 0.76898 0.06722 0.0
O65 O 0.79494 0.8521 0.11198 0.0
Sc66 Sc 0.73052 0.26671 0.61435 0.0
Sc67 Sc 0.677 0.32177 0.49614 0.0
Sc68 Sc 0.73243 0.26691 0.38396 0.0
O69 O 0.71331 0.28516 0.49816 0.0
C70 C 0.7988 0.27045 0.5098 0.0
C71 C 0.7246 0.34594 0.6603 0.0
C72 C 0.72631 0.34581 0.34963 0.0
C73 C 0.65136 0.27439 0.64481 0.0
C74 C 0.72604 0.19962 0.49175 0.0
C75 C 0.65354 0.27334 0.33343 0.0
O76 O 0.78272 0.26918 0.58042 0.0
O77 O 0.7025 0.35161 0.59978 0.0
O78 O 0.73891 0.3167 0.33544 0.0
O79 O 0.68031 0.26174 0.66133 0.0
O80 O 0.72817 0.2151 0.4203 0.0
O81 O 0.6475 0.29585 0.39243 0.0
O82 O 0.72643 0.21491 0.56679 0.0
O83 O 0.64633 0.29668 0.58778 0.0
O84 O 0.68291 0.26143 0.32201 0.0
O85 O 0.73661 0.31668 0.67335 0.0
O86 O 0.78405 0.26999 0.43398 0.0
O87 O 0.70334 0.3513 0.40437 0.0
H88 H 0.24323 0.49886 0.82494 0.0
H89 H 0.2447 0.50731 0.10955 0.0
H90 H 0.24982 0.59619 0.95808 0.0
H91 H 0.22013 0.45693 0.09771 0.0
C92 C 0.22918 0.44402 0.03906 0.0
C93 C 0.244 0.51415 0.88562 0.0
C94 C 0.246 0.54937 0.88259 0.0
C95 C 0.24239 0.4986 0.96701 0.0
C96 C 0.24437 0.51868 0.04587 0.0
C97 C 0.24638 0.55397 0.04252 0.0
C98 C 0.24718 0.56896 0.96084 0.0
N99 N 0.23948 0.46284 0.96681 0.0
H100 H 0.99496 0.73422 0.66548 0.0
H101 H 0.9915 0.73537 0.38093 0.0
H102 H 0.90053 0.74713 0.52207 0.0
H103 H 0.03969 0.7074 0.39402 0.0
C104 C 0.05234 0.71663 0.45478 0.0
C105 C 0.98076 0.73576 0.60331 0.0
C106 C 0.94568 0.74044 0.60261 0.0
C107 C 0.99757 0.73274 0.52368 0.0
C108 C 0.97904 0.73597 0.44305 0.0
C109 C 0.94395 0.74072 0.44258 0.0
C110 C 0.92756 0.74254 0.52231 0.0
N111 N 0.03312 0.72772 0.52737 0.0
H112 H 0.76893 0.49133 0.16481 0.0
H113 H 0.76676 0.49154 0.8803 0.0
H114 H 0.75677 0.39849 0.0121 0.0
H115 H 0.78913 0.54245 0.9 0.0
C116 C 0.78186 0.55303 0.96334 0.0
C117 C 0.76749 0.47784 0.10139 0.0
C118 C 0.76321 0.4427 0.0973 0.0
C119 C 0.76976 0.49579 0.02382 0.0
C120 C 0.76663 0.47826 0.94121 0.0
C121 C 0.76246 0.44304 0.93723 0.0
C122 C 0.76118 0.42558 0.01531 0.0
N123 N 0.77359 0.53145 0.03204 0.0
H124 H 0.00604 0.26554 0.33665 0.0
H125 H 0.00991 0.2699 0.6216 0.0
H126 H 0.10072 0.25596 0.48101 0.0
H127 H 0.95602 0.25949 0.60844 0.0
C128 C 0.94582 0.26727 0.54509 0.0
C129 C 0.02031 0.2652 0.39897 0.0
C130 C 0.05552 0.26134 0.39993 0.0
C131 C 0.00332 0.26805 0.47838 0.0
C132 C 0.02209 0.26722 0.55933 0.0
C133 C 0.05727 0.26298 0.56022 0.0
C134 C 0.07365 0.26039 0.48049 0.0
N135 N 0.96752 0.27127 0.47377 0.0
H136 H 0.73033 0.99137 0.6626 0.0
H137 H 0.72939 0.99107 0.37814 0.0
H138 H 0.74092 0.89834 0.51247 0.0
H139 H 0.70827 0.04229 0.3939 0.0
C140 C 0.71612 0.05284 0.45835 0.0
C141 C 0.73105 0.97778 0.59947 0.0
C142 C 0.73529 0.94265 0.59634 0.0
C143 C 0.72796 0.99558 0.52131 0.0
C144 C 0.73016 0.97791 0.43927 0.0
C145 C 0.73433 0.94271 0.43621 0.0
C146 C 0.73645 0.9254 0.51474 0.0
N147 N 0.72443 0.03126 0.52862 0.0
H148 H 0.50485 0.23559 0.83229 0.0
H149 H 0.50687 0.23496 0.11676 0.0
H150 H 0.5991 0.24429 0.98142 0.0
H151 H 0.45875 0.20494 0.09173 0.0
C152 C 0.44627 0.21639 0.0354 0.0
C153 C 0.51884 0.23627 0.8951 0.0
C154 C 0.55411 0.23978 0.8978 0.0
C155 C 0.50153 0.23327 0.97345 0.0
C156 C 0.51975 0.23539 0.05528 0.0
C157 C 0.55501 0.23874 0.05773 0.0
C158 C 0.57189 0.24061 0.97908 0.0
N159 N 0.46584 0.22933 0.96769 0.0
H160 H 0.25856 0.00165 0.33872 0.0
H161 H 0.25886 0.00639 0.6235 0.0
H162 H 0.25309 0.09726 0.48011 0.0
H163 H 0.27873 0.95517 0.61406 0.0
C164 C 0.27148 0.94345 0.55057 0.0
C165 C 0.25838 0.01616 0.40059 0.0
C166 C 0.25608 0.05147 0.40038 0.0
C167 C 0.26054 -0.00055 0.48061 0.0
C168 C 0.25903 0.01848 0.5609 0.0
C169 C 0.25713 0.05381 0.56048 0.0
C170 C 0.25588 0.06998 0.48033 0.0
N171 N 0.26324 0.96363 0.47733 0.0
H172 H 0.49311 0.76265 0.15864 0.0
H173 H 0.4908 0.75734 0.87384 0.0
H174 H 0.39849 0.75578 0.01144 0.0
H175 H 0.5432 0.77597 0.88857 0.0
C176 C 0.5538 0.77025 0.95322 0.0
C177 C 0.47907 0.76154 0.09589 0.0
C178 C 0.44373 0.7601 0.09387 0.0
C179 C 0.49647 0.76168 0.01712 0.0
C180 C 0.4781 0.75888 0.93555 0.0
C181 C 0.44267 0.75745 0.93371 0.0
C182 C 0.42583 0.75824 0.01286 0.0
N183 N 0.5323 0.76369 0.02336 0.0
C184 C 0.12689 0.26556 0.24525 0.0
C185 C 0.12337 0.23495 0.19565 0.0
C186 C 0.10282 0.27566 0.30562 0.0
C187 C 0.07432 0.25558 0.31874 0.0
H188 H 0.1491 0.28127 0.24012 0.0
H189 H 0.10756 0.29835 0.3463 0.0
S190 S 0.0511 0.17521 0.19931 0.0
N191 N 0.08731 0.18623 0.15795 0.0
N192 N 0.04223 0.20531 0.27287 0.0
C193 C 0.06907 0.22628 0.26527 0.0
C194 C 0.09359 0.21592 0.20334 0.0
C195 C 0.28628 0.59092 0.69507 0.0
C196 C 0.26332 0.61727 0.67786 0.0
C197 C 0.279 0.56621 0.75548 0.0
C198 C 0.24846 0.56699 0.79947 0.0
H199 H 0.31098 0.59075 0.66677 0.0
H200 H 0.2984 0.5481 0.77308 0.0
S201 S 0.17732 0.62626 0.76488 0.0
N202 N 0.20673 0.63935 0.69977 0.0
N203 N 0.19339 0.59294 0.81354 0.0
C204 C 0.22408 0.5911 0.77651 0.0
C205 C 0.23144 0.61627 0.71558 0.0
C206 C 0.87001 0.73545 0.27947 0.0
C207 C 0.87414 0.76446 0.22992 0.0
C208 C 0.89423 0.72638 0.34362 0.0
C209 C 0.92357 0.74586 0.36069 0.0
H210 H 0.84735 0.72015 0.27092 0.0
H211 H 0.88922 0.70484 0.38323 0.0
S212 S 0.94841 0.82219 0.24475 0.0
N213 N 0.91151 0.81111 0.19798 0.0
N214 N 0.95684 0.79393 0.3198 0.0
C215 C 0.92922 0.77361 0.30831 0.0
C216 C 0.90453 0.78296 0.24264 0.0
C217 C 0.76656 0.37048 0.77169 0.0
C218 C 0.73658 0.37428 0.72008 0.0
C219 C 0.77646 0.39464 0.83693 0.0
C220 C 0.75681 0.42355 0.85319 0.0
H221 H 0.78197 0.34804 0.76401 0.0
H222 H 0.79869 0.38976 0.87841 0.0
S223 S 0.67808 0.4475 0.73149 0.0
N224 N 0.68888 0.41096 0.6849 0.0
N225 N 0.70756 0.45617 0.80892 0.0
C226 C 0.72811 0.42897 0.79847 0.0
C227 C 0.71796 0.40435 0.73159 0.0
C228 C 0.59666 0.28151 0.25895 0.0
C229 C 0.62543 0.26119 0.27322 0.0
C230 C 0.57193 0.27254 0.19361 0.0
C231 C 0.57514 0.2429 0.14111 0.0
H232 H 0.59409 0.30541 0.295 0.0
H233 H 0.55144 0.28996 0.18018 0.0
S234 S 0.64206 0.17809 0.16211 0.0
N235 N 0.65302 0.20774 0.23702 0.0
N236 N 0.60661 0.19129 0.11401 0.0
C237 C 0.60222 0.22112 0.15925 0.0
C238 C 0.62738 0.23016 0.22537 0.0
C239 C 0.21673 0.09609 0.75594 0.0
C240 C 0.23711 0.12508 0.77165 0.0
C241 C 0.22486 0.07133 0.69196 0.0
C242 C 0.25369 0.07469 0.64202 0.0
H243 H 0.19341 0.09326 0.78999 0.0
H244 H 0.2074 0.05059 0.67766 0.0
S245 S 0.31841 0.14231 0.66733 0.0
N246 N 0.2898 0.15316 0.73932 0.0
N247 N 0.30472 0.10661 0.61892 0.0
C248 C 0.27556 0.10207 0.66146 0.0
C249 C 0.26736 0.12728 0.7263 0.0
C250 C 0.40405 0.72041 0.28571 0.0
C251 C 0.37517 0.74069 0.29702 0.0
C252 C 0.42833 0.72864 0.2252 0.0
C253 C 0.42456 0.75744 0.17457 0.0
H254 H 0.40692 0.6969 0.31951 0.0
H255 H 0.44875 0.71106 0.21324 0.0
S256 S 0.3576 0.82233 0.19135 0.0
N257 N 0.34721 0.79362 0.26179 0.0
N258 N 0.39284 0.80867 0.14771 0.0
C259 C 0.39763 0.77948 0.19092 0.0
C260 C 0.37291 0.7712 0.25226 0.0
C261 C 0.73217 0.87002 0.74822 0.0
C262 C 0.7621 0.87439 0.80058 0.0
C263 C 0.72198 0.89395 0.68735 0.0
C264 C 0.74126 0.92318 0.67649 0.0
H265 H 0.71704 0.84734 0.75181 0.0
H266 H 0.6998 0.88869 0.64498 0.0
S267 S 0.81965 0.9486 0.80278 0.0
N268 N 0.80932 0.9119 0.84265 0.0
N269 N 0.79008 0.95671 0.72686 0.0
C270 C 0.76988 0.92915 0.73226 0.0
C271 C 0.78034 0.90477 0.79465 0.0
C272 C 0.87449 0.73371 0.75648 0.0
C273 C 0.87722 0.76423 0.80675 0.0
C274 C 0.89886 0.72441 0.69619 0.0
C275 C 0.9269 0.74521 0.684 0.0
H276 H 0.85262 0.71747 0.76084 0.0
H277 H 0.89467 0.70183 0.65473 0.0
S278 S 0.94824 0.82557 0.80559 0.0
N279 N 0.91219 0.8136 0.84615 0.0
N280 N 0.95787 0.79596 0.73145 0.0
C281 C 0.93145 0.77439 0.7382 0.0
C282 C 0.90661 0.78396 0.79997 0.0
C283 C 0.76779 0.36985 0.24908 0.0
C284 C 0.73834 0.37407 0.29742 0.0
C285 C 0.77741 0.39387 0.1897 0.0
C286 C 0.75807 0.42309 0.17652 0.0
H287 H 0.78291 0.34716 0.25436 0.0
H288 H 0.79915 0.38868 0.15017 0.0
S289 S 0.68109 0.44839 0.29299 0.0
N290 N 0.69169 0.41161 0.33378 0.0
N291 N 0.70991 0.45657 0.22094 0.0
C292 C 0.73005 0.42898 0.22865 0.0
C293 C 0.72014 0.40449 0.28941 0.0
C294 C 0.13196 0.26667 0.72172 0.0
C295 C 0.12656 0.23855 0.77369 0.0
C296 C 0.10796 0.27624 0.65747 0.0
C297 C 0.0776 0.25815 0.64259 0.0
H298 H 0.15546 0.28073 0.7282 0.0
H299 H 0.11395 0.29694 0.61592 0.0
S300 S 0.04914 0.18507 0.76634 0.0
N301 N 0.08676 0.19469 0.81103 0.0
N302 N 0.042 0.21266 0.68889 0.0
C303 C 0.0707 0.23154 0.69774 0.0
C304 C 0.09512 0.22171 0.76354 0.0
C305 C 0.28489 0.59716 0.24823 0.0
C306 C 0.26535 0.62682 0.25598 0.0
C307 C 0.2772 0.57221 0.18265 0.0
C308 C 0.24964 0.57601 0.12295 0.0
H309 H 0.30718 0.59377 0.29057 0.0
H310 H 0.294 0.55078 0.17554 0.0
S311 S 0.18747 0.64587 0.12259 0.0
N312 N 0.21486 0.65639 0.20367 0.0
N313 N 0.2006 0.60934 0.08103 0.0
C314 C 0.22859 0.60425 0.13354 0.0
C315 C 0.23641 0.62971 0.19981 0.0
C316 C 0.40098 0.71365 0.73341 0.0
C317 C 0.37211 0.73379 0.71872 0.0
C318 C 0.42561 0.72287 0.79881 0.0
C319 C 0.42224 0.75262 0.85086 0.0
H320 H 0.40373 0.68975 0.69746 0.0
H321 H 0.44623 0.70561 0.81244 0.0
S322 S 0.35494 0.81697 0.82842 0.0
N323 N 0.3441 0.78703 0.7542 0.0
N324 N 0.39049 0.80415 0.87667 0.0
C325 C 0.395 0.77419 0.83223 0.0
C326 C 0.36988 0.76481 0.76632 0.0
C327 C 0.73044 0.86968 0.27094 0.0
C328 C 0.75986 0.87425 0.2235 0.0
C329 C 0.72053 0.89368 0.33451 0.0
C330 C 0.7396 0.92319 0.35314 0.0
H331 H 0.71555 0.84677 0.26152 0.0
H332 H 0.69881 0.88824 0.37298 0.0
S333 S 0.81651 0.94932 0.24181 0.0
N334 N 0.80623 0.91238 0.19429 0.0
N335 N 0.78755 0.9572 0.31512 0.0
C336 C 0.76762 0.92937 0.30226 0.0
C337 C 0.77779 0.90494 0.23714 0.0
C338 C 0.62583 0.23316 0.74343 0.0
C339 C 0.62275 0.26317 0.69682 0.0
C340 C 0.60164 0.2241 0.80287 0.0
C341 C 0.5734 0.24465 0.81798 0.0
H342 H 0.6478 0.21711 0.73669 0.0
H343 H 0.60601 0.20183 0.84112 0.0
S344 S 0.55131 0.3238 0.70682 0.0
N345 N 0.58735 0.31186 0.6643 0.0
N346 N 0.54204 0.29471 0.77734 0.0
C347 C 0.56859 0.27336 0.76759 0.0
C348 C 0.59325 0.28268 0.70668 0.0
C349 C 0.26426 0.12177 0.24373 0.0
C350 C 0.23346 0.11974 0.19429 0.0
C351 C 0.2731 0.09741 0.30469 0.0
C352 C 0.25149 0.07011 0.31848 0.0
H353 H 0.2811 0.14311 0.23816 0.0
H354 H 0.29599 0.10107 0.34541 0.0
S355 S 0.16995 0.05084 0.19954 0.0
N356 N 0.18288 0.08626 0.15733 0.0
N357 N 0.19958 0.0406 0.2733 0.0
C358 C 0.22196 0.06623 0.26503 0.0
C359 C 0.21289 0.09106 0.20254 0.0
C360 C 0.23749 0.35366 0.94979 0.0
C361 C 0.22848 0.33444 0.02156 0.0
C362 C 0.23772 0.38903 0.95563 0.0
C363 C 0.22872 0.40662 0.03331 0.0
H364 H 0.24488 0.34133 0.8887 0.0
H365 H 0.24507 0.40256 0.89868 0.0
S366 S 0.20178 0.36871 0.23901 0.0
N367 N 0.20938 0.336 0.17231 0.0
N368 N 0.20984 0.4025 0.18273 0.0
C369 C 0.21926 0.38789 0.10515 0.0
C370 C 0.21914 0.35184 0.09949 0.0
C371 C 0.1426 0.72541 0.54743 0.0
C372 C 0.16189 0.72011 0.47215 0.0
C373 C 0.1072 0.72418 0.54182 0.0
C374 C 0.08973 0.71724 0.46083 0.0
H375 H 0.15485 0.73112 0.61124 0.0
H376 H 0.09354 0.72875 0.60148 0.0
S377 S 0.12779 0.70022 0.24471 0.0
N378 N 0.16046 0.70678 0.3141 0.0
N379 N 0.09397 0.70427 0.30433 0.0
C380 C 0.10853 0.7113 0.38544 0.0
C381 C 0.14457 0.7128 0.39082 0.0
C382 C 0.78319 0.64561 0.9103 0.0
C383 C 0.777 0.66243 -0.00857 0.0
C384 C 0.78508 0.61033 0.90292 0.0
C385 C 0.7807 0.5903 0.97602 0.0
H386 H 0.78654 0.65973 0.85148 0.0
H387 H 0.78966 0.5986 0.83894 0.0
S388 S 0.76503 0.62145 0.20445 0.0
N389 N 0.76732 0.65601 0.14741 0.0
N390 N 0.77083 0.58974 0.13322 0.0
C391 C 0.77495 0.6066 0.05799 0.0
C392 C 0.77314 0.64263 0.06573 0.0
C393 C 0.85321 0.26297 0.59626 0.0
C394 C 0.83635 0.27132 0.51666 0.0
C395 C 0.88854 0.26218 0.60419 0.0
C396 C 0.90856 0.26976 0.53315 0.0
H397 H 0.83908 0.25641 0.65289 0.0
H398 H 0.90028 0.25517 0.66652 0.0
S399 S 0.87722 0.29553 0.31191 0.0
N400 N 0.84264 0.28898 0.3662 0.0
N401 N 0.90906 0.28749 0.38134 0.0
C402 C 0.89221 0.27892 0.45358 0.0
C403 C 0.85613 0.27967 0.44532 0.0
C404 C 0.71578 0.14541 0.40462 0.0
C405 C 0.72299 0.16217 0.48663 0.0
C406 C 0.71327 0.11015 0.39709 0.0
C407 C 0.71804 0.09011 0.47094 0.0
H408 H 0.71196 0.15958 0.34538 0.0
H409 H 0.70784 0.09844 0.3325 0.0
S410 S 0.73672 0.1212 0.70143 0.0
N411 N 0.73432 0.15574 0.64392 0.0
N412 N 0.72963 0.08952 0.62953 0.0
C413 C 0.72492 0.10638 0.55366 0.0
C414 C 0.72735 0.14238 0.56151 0.0
C415 C 0.35637 0.23195 0.9492 0.0
C416 C 0.33673 0.22031 0.0173 0.0
C417 C 0.39176 0.23052 0.95494 0.0
C418 C 0.40886 0.21711 0.02869 0.0
H419 H 0.34438 0.24287 0.89159 0.0
H420 H 0.4057 0.24021 0.9013 0.0
S421 S 0.36946 0.18109 0.2221 0.0
N422 N 0.33721 0.19342 0.1591 0.0
N423 N 0.40368 0.19072 0.16941 0.0
C424 C 0.38962 0.2047 0.09626 0.0
C425 C 0.3536 0.20631 0.09075 0.0
C426 C 0.26754 0.85432 0.44892 0.0
C427 C 0.27013 0.834 0.52322 0.0
C428 C 0.26789 0.88968 0.45782 0.0
C429 C 0.27112 0.90612 0.54131 0.0
H430 H 0.26498 0.84292 0.38314 0.0
H431 H 0.26576 0.90412 0.39864 0.0
S432 S 0.27876 0.86534 0.7569 0.0
N433 N 0.27603 0.83354 0.68369 0.0
N434 N 0.27694 0.8999 0.69944 0.0
C435 C 0.27395 0.88635 0.61599 0.0
C436 C 0.27337 0.85035 0.60724 0.0
C437 C 0.64654 0.7744 0.9028 0.0
C438 C 0.66331 0.77037 0.9853 0.0
C439 C 0.61121 0.77451 0.89397 0.0
C440 C 0.59109 0.77046 0.96697 0.0
H441 H 0.66074 0.77748 0.84407 0.0
H442 H 0.59953 0.77758 0.82906 0.0
S443 S 0.62204 0.75971 0.19836 0.0
N444 N 0.65669 0.76276 0.14221 0.0
N445 N 0.59036 0.76291 0.12533 0.0
C446 C 0.60733 0.76668 0.05017 0.0
C447 C 0.64339 0.76668 0.05935 0.0
loop_
_geom_bond_atom_site_label_1
_geom_bond_atom_site_label_2
_geom_bond_distance
_geom_bond_site_symmetry_2
_ccdc_geom_bond_type
Sc0 O3 2.025 . S
Sc0 O10 2.105 . S
Sc0 O13 2.105 . S
Sc0 O16 2.105 . S
Sc0 O19 2.105 . S
Sc1 O3 2.025 . S
Sc1 O11 2.105 . S
Sc1 O15 2.105 1_554 S
Sc1 O17 2.105 . S
Sc1 O21 2.105 1_554 S
Sc2 O3 2.025 1_556 S
Sc2 O12 2.105 . S
Sc2 O14 2.105 . S
Sc2 O18 2.105 . S
Sc2 O20 2.105 . S
O3 Sc0 2.025 . S
O3 Sc1 2.025 . S
O3 Sc2 2.025 1_554 S
C4 O10 1.268 . S
C4 O20 1.268 1_554 S
C5 O11 1.268 . S
C5 O19 1.268 . S
C6 O12 1.268 . S
C6 O21 1.268 . S
C7 O13 1.268 . S
C7 O17 1.268 . S
C8 O14 1.268 1_554 S
C8 O16 1.268 . S
C9 O15 1.268 . S
C9 O18 1.268 . S
O10 Sc0 2.105 . S
O10 C4 1.268 . S
O11 Sc1 2.105 . S
O11 C5 1.268 . S
O12 Sc2 2.105 . S
O12 C6 1.268 . S
O13 Sc0 2.105 . S
O13 C7 1.268 . S
O14 Sc2 2.105 . S
O14 C8 1.268 1_556 S
O15 Sc1 2.105 1_556 S
O15 C9 1.268 . S
O16 Sc0 2.105 . S
O16 C8 1.268 . S
O17 Sc1 2.105 . S
O17 C7 1.268 . S
O18 Sc2 2.105 . S
O18 C9 1.268 . S
O19 Sc0 2.105 . S
O19 C5 1.268 . S
O20 Sc2 2.105 . S
O20 C4 1.268 1_556 S
O21 Sc1 2.105 1_556 S
O21 C6 1.268 . S
Sc22 O25 2.025 . S
Sc22 O32 2.105 . S
Sc22 O35 2.105 . S
Sc22 O38 2.105 . S
Sc22 O41 2.105 . S
Sc23 O25 2.025 . S
Sc23 O33 2.105 . S
Sc23 O37 2.105 . S
Sc23 O39 2.105 . S
Sc23 O43 2.105 . S
Sc24 O25 2.025 . S
Sc24 O34 2.105 . S
Sc24 O36 2.105 . S
Sc24 O40 2.105 . S
Sc24 O42 2.105 . S
O25 Sc22 2.025 . S
O25 Sc23 2.025 . S
O25 Sc24 2.025 . S
C26 O32 1.268 . S
C26 O42 1.268 . S
C27 O33 1.268 . S
C27 O41 1.268 . S
C28 O34 1.268 . S
C28 O43 1.268 . S
C29 O35 1.268 . S
C29 O39 1.268 . S
C30 O36 1.268 . S
C30 O38 1.268 . S
C31 O37 1.268 . S
C31 O40 1.268 . S
O32 Sc22 2.105 . S
O32 C26 1.268 . S
O33 Sc23 2.105 . S
O33 C27 1.268 . S
O34 Sc24 2.105 . S
O34 C28 1.268 . S
O35 Sc22 2.105 . S
O35 C29 1.268 . S
O36 Sc24 2.105 . S
O36 C30 1.268 . S
O37 Sc23 2.105 . S
O37 C31 1.268 . S
O38 Sc22 2.105 . S
O38 C30 1.268 . S
O39 Sc23 2.105 . S
O39 C29 1.268 . S
O40 Sc24 2.105 . S
O40 C31 1.268 . S
O41 Sc22 2.105 . S
O41 C27 1.268 . S
O42 Sc24 2.105 . S
O42 C26 1.268 . S
O43 Sc23 2.105 . S
O43 C28 1.268 . S
Sc44 O47 2.025 1_556 S
Sc44 O54 2.105 . S
Sc44 O57 2.105 . S
Sc44 O60 2.105 . S
Sc44 O63 2.105 . S
Sc45 O47 2.025 . S
Sc45 O55 2.105 1_554 S
Sc45 O59 2.105 . S
Sc45 O61 2.105 1_554 S
Sc45 O65 2.105 . S
Sc46 O47 2.025 . S
Sc46 O56 2.105 . S
Sc46 O58 2.105 . S
Sc46 O62 2.105 . S
Sc46 O64 2.105 . S
O47 Sc44 2.025 1_554 S
O47 Sc45 2.025 . S
O47 Sc46 2.025 . S
C48 O54 1.268 1_554 S
C48 O64 1.268 . S
C49 O55 1.268 . S
C49 O63 1.268 . S
C50 O56 1.268 . S
C50 O65 1.268 . S
C51 O57 1.268 . S
C51 O61 1.268 . S
C52 O58 1.268 . S
C52 O60 1.268 1_554 S
C53 O59 1.268 . S
C53 O62 1.268 . S
O54 Sc44 2.105 . S
O54 C48 1.268 1_556 S
O55 Sc45 2.105 1_556 S
O55 C49 1.268 . S
O56 Sc46 2.105 . S
O56 C50 1.268 . S
O57 Sc44 2.105 . S
O57 C51 1.268 . S
O58 Sc46 2.105 . S
O58 C52 1.268 . S
O59 Sc45 2.105 . S
O59 C53 1.268 . S
O60 Sc44 2.105 . S
O60 C52 1.268 1_556 S
O61 Sc45 2.105 1_556 S
O61 C51 1.268 . S
O62 Sc46 2.105 . S
O62 C53 1.268 . S
O63 Sc44 2.105 . S
O63 C49 1.268 . S
O64 Sc46 2.105 . S
O64 C48 1.268 . S
O65 Sc45 2.105 . S
O65 C50 1.268 . S
Sc66 O69 2.025 . S
Sc66 O76 2.105 . S
Sc66 O79 2.105 . S
Sc66 O82 2.105 . S
Sc66 O85 2.105 . S
Sc67 O69 2.025 . S
Sc67 O77 2.105 . S
Sc67 O81 2.105 . S
Sc67 O83 2.105 . S
Sc67 O87 2.105 . S
Sc68 O69 2.025 . S
Sc68 O78 2.105 . S
Sc68 O80 2.105 . S
Sc68 O84 2.105 . S
Sc68 O86 2.105 . S
O69 Sc66 2.025 . S
O69 Sc67 2.025 . S
O69 Sc68 2.025 . S
C70 O76 1.268 . S
C70 O86 1.268 . S
C71 O77 1.268 . S
C71 O85 1.268 . S
C72 O78 1.268 . S
C72 O87 1.268 . S
C73 O79 1.268 . S
C73 O83 1.268 . S
C74 O80 1.268 . S
C74 O82 1.268 . S
C75 O81 1.268 . S
C75 O84 1.268 . S
O76 Sc66 2.105 . S
O76 C70 1.268 . S
O77 Sc67 2.105 . S
O77 C71 1.268 . S
O78 Sc68 2.105 . S
O78 C72 1.268 . S
O79 Sc66 2.105 . S
O79 C73 1.268 . S
O80 Sc68 2.105 . S
O80 C74 1.268 . S
O81 Sc67 2.105 . S
O81 C75 1.268 . S
O82 Sc66 2.105 . S
O82 C74 1.268 . S
O83 Sc67 2.105 . S
O83 C73 1.268 . S
O84 Sc68 2.105 . S
O84 C75 1.268 . S
O85 Sc66 2.105 . S
O85 C71 1.268 . S
O86 Sc68 2.105 . S
O86 C70 1.268 . S
O87 Sc67 2.105 . S
O87 C72 1.268 . S
H88 C93 0.930 . S
H89 C96 0.930 . S
H90 C98 0.930 . S
H91 C92 1.016 . S
C92 H91 1.016 . S
C92 N99 1.286 1_554 S
C93 H88 0.930 . S
C93 C94 1.397 . S
C93 C95 1.361 . S
C94 C93 1.397 . S
C94 C98 1.390 1_556 S
C95 C93 1.361 . S
C95 C96 1.393 1_556 S
C95 N99 1.413 . S
C96 H89 0.930 . S
C96 C95 1.393 1_554 S
C96 C97 1.399 . S
C97 C96 1.399 . S
C97 C98 1.381 . S
C98 H90 0.930 . S
C98 C94 1.390 1_554 S
C98 C97 1.381 . S
N99 C92 1.286 1_556 S
N99 C95 1.413 . S
H100 C105 0.930 . S
H101 C108 0.930 . S
H102 C110 0.930 . S
H103 C104 1.016 . S
C104 H103 1.016 . S
C104 N111 1.286 . S
C105 H100 0.930 . S
C105 C106 1.397 . S
C105 C107 1.361 1_655 S
C106 C105 1.397 . S
C106 C110 1.390 . S
C107 C105 1.361 1_455 S
C107 C108 1.393 1_455 S
C107 N111 1.413 . S
C108 H101 0.930 . S
C108 C107 1.393 1_655 S
C108 C109 1.399 . S
C109 C108 1.399 . S
C109 C110 1.381 . S
C110 H102 0.930 . S
C110 C106 1.390 . S
C110 C109 1.381 . S
N111 C104 1.286 . S
N111 C107 1.413 . S
H112 C117 0.930 . S
H113 C120 0.930 . S
H114 C122 0.930 . S
H115 C116 1.016 . S
C116 H115 1.016 . S
C116 N123 1.287 1_556 S
C117 H112 0.930 . S
C117 C118 1.397 . S
C117 C119 1.361 . S
C118 C117 1.397 . S
C118 C122 1.390 . S
C119 C117 1.361 . S
C119 C120 1.393 1_554 S
C119 N123 1.413 . S
C120 H113 0.930 . S
C120 C119 1.393 1_556 S
C120 C121 1.399 . S
C121 C120 1.399 . S
C121 C122 1.381 1_556 S
C122 H114 0.930 . S
C122 C118 1.390 . S
C122 C121 1.381 1_554 S
N123 C116 1.287 1_554 S
N123 C119 1.413 . S
H124 C129 0.930 . S
H125 C132 0.930 . S
H126 C134 0.930 . S
H127 C128 1.016 . S
C128 H127 1.016 . S
C128 N135 1.286 . S
C129 H124 0.930 . S
C129 C130 1.397 . S
C129 C131 1.361 . S
C130 C129 1.397 . S
C130 C134 1.390 . S
C131 C129 1.361 . S
C131 C132 1.393 . S
C131 N135 1.413 1_455 S
C132 H125 0.930 . S
C132 C131 1.393 . S
C132 C133 1.399 . S
C133 C132 1.399 . S
C133 C134 1.381 . S
C134 H126 0.930 . S
C134 C130 1.390 . S
C134 C133 1.381 . S
N135 C128 1.286 . S
N135 C131 1.413 1_655 S
H136 C141 0.930 . S
H137 C144 0.930 . S
H138 C146 0.930 . S
H139 C140 1.016 . S
C140 H139 1.016 . S
C140 N147 1.286 . S
C141 H136 0.930 . S
C141 C142 1.397 . S
C141 C143 1.361 . S
C142 C141 1.397 . S
C142 C146 1.390 . S
C143 C141 1.361 . S
C143 C144 1.393 . S
C143 N147 1.413 1_565 S
C144 H137 0.930 . S
C144 C143 1.393 . S
C144 C145 1.399 . S
C145 C144 1.399 . S
C145 C146 1.381 . S
C146 H138 0.930 . S
C146 C142 1.390 . S
C146 C145 1.381 . S
N147 C140 1.286 . S
N147 C143 1.413 1_545 S
H148 C153 0.930 . S
H149 C156 0.930 . S
H150 C158 0.930 . S
H151 C152 1.016 . S
C152 H151 1.016 . S
C152 N159 1.286 1_554 S
C153 H148 0.930 . S
C153 C154 1.397 . S
C153 C155 1.361 . S
C154 C153 1.397 . S
C154 C158 1.390 1_556 S
C155 C153 1.361 . S
C155 C156 1.393 1_556 S
C155 N159 1.413 . S
C156 H149 0.930 . S
C156 C155 1.393 1_554 S
C156 C157 1.399 . S
C157 C156 1.399 . S
C157 C158 1.381 . S
C158 H150 0.930 . S
C158 C154 1.390 1_554 S
C158 C157 1.381 . S
N159 C152 1.286 1_556 S
N159 C155 1.413 . S
H160 C165 0.930 . S
H161 C168 0.930 . S
H162 C170 0.930 . S
H163 C164 1.016 . S
C164 H163 1.016 . S
C164 N171 1.286 . S
C165 H160 0.930 . S
C165 C166 1.397 . S
C165 C167 1.342 1_545 S
C166 C165 1.397 . S
C166 C170 1.390 . S
C167 C165 1.342 1_565 S
C167 C168 1.380 1_565 S
C167 N171 1.445 . S
C168 H161 0.930 . S
C168 C167 1.380 1_545 S
C168 C169 1.399 . S
C169 C168 1.399 . S
C169 C170 1.381 . S
C170 H162 0.930 . S
C170 C166 1.390 . S
C170 C169 1.381 . S
N171 C164 1.286 . S
N171 C167 1.445 . S
H172 C177 0.930 . S
H173 C180 0.930 . S
H174 C182 0.930 . S
H175 C176 1.018 . S
C176 H175 1.018 . S
C176 N183 1.285 1_556 S
C177 H172 0.930 . S
C177 C178 1.397 . S
C177 C179 1.361 . S
C178 C177 1.397 . S
C178 C182 1.390 . S
C179 C177 1.361 . S
C179 C180 1.393 1_554 S
C179 N183 1.413 . S
C180 H173 0.930 . S
C180 C179 1.393 1_556 S
C180 C181 1.399 . S
C181 C180 1.399 . S
C181 C182 1.381 1_556 S
C182 H174 0.930 . S
C182 C178 1.390 . S
C182 C181 1.381 1_554 S
N183 C176 1.285 1_554 S
N183 C179 1.413 . S
C184 C185 1.369 . S
C184 C186 1.419 . S
C184 H188 0.930 . S
C185 C184 1.369 . S
C185 C194 1.429 . S
C186 C184 1.419 . S
C186 C187 1.363 . S
C186 H189 0.929 . S
C187 C186 1.363 . S
C187 C193 1.428 . S
H188 C184 0.930 . S
H189 C186 0.929 . S
S190 N191 1.613 . S
S190 N192 1.610 . S
N191 S190 1.613 . S
N191 C194 1.350 . S
N192 S190 1.610 . S
N192 C193 1.351 . S
C193 C187 1.428 . S
C193 N192 1.351 . S
C193 C194 1.434 . S
C194 C185 1.429 . S
C194 N191 1.350 . S
C194 C193 1.434 . S
C195 C196 1.369 . S
C195 C197 1.419 . S
C195 H199 0.930 . S
C196 C195 1.369 . S
C196 C205 1.429 . S
C197 C195 1.419 . S
C197 C198 1.363 . S
C197 H200 0.929 . S
C198 C197 1.363 . S
C198 C204 1.428 . S
H199 C195 0.930 . S
H200 C197 0.929 . S
S201 N202 1.613 . S
S201 N203 1.610 . S
N202 S201 1.613 . S
N202 C205 1.350 . S
N203 S201 1.610 . S
N203 C204 1.351 . S
C204 C198 1.428 . S
C204 N203 1.351 . S
C204 C205 1.434 . S
C205 C196 1.429 . S
C205 N202 1.350 . S
C205 C204 1.434 . S
C206 C207 1.369 . S
C206 C208 1.419 . S
C206 H210 0.930 . S
C207 C206 1.369 . S
C207 C216 1.429 . S
C208 C206 1.419 . S
C208 C209 1.363 . S
C208 H211 0.929 . S
C209 C208 1.363 . S
C209 C215 1.428 . S
H210 C206 0.930 . S
H211 C208 0.929 . S
S212 N213 1.613 . S
S212 N214 1.610 . S
N213 S212 1.613 . S
N213 C216 1.350 . S
N214 S212 1.610 . S
N214 C215 1.351 . S
C215 C209 1.428 . S
C215 N214 1.351 . S
C215 C216 1.434 . S
C216 C207 1.429 . S
C216 N213 1.350 . S
C216 C215 1.434 . S
C217 C218 1.369 . S
C217 C219 1.419 . S
C217 H221 0.930 . S
C218 C217 1.369 . S
C218 C227 1.429 . S
C219 C217 1.419 . S
C219 C220 1.363 . S
C219 H222 0.929 . S
C220 C219 1.363 . S
C220 C226 1.428 . S
H221 C217 0.930 . S
H222 C219 0.929 . S
S223 N224 1.613 . S
S223 N225 1.610 . S
N224 S223 1.613 . S
N224 C227 1.350 . S
N225 S223 1.610 . S
N225 C226 1.351 . S
C226 C220 1.428 . S
C226 N225 1.351 . S
C226 C227 1.434 . S
C227 C218 1.429 . S
C227 N224 1.350 . S
C227 C226 1.434 . S
C228 C229 1.369 . S
C228 C230 1.419 . S
C228 H232 0.930 . S
C229 C228 1.369 . S
C229 C238 1.429 . S
C230 C228 1.419 . S
C230 C231 1.363 . S
C230 H233 0.929 . S
C231 C230 1.363 . S
C231 C237 1.428 . S
H232 C228 0.930 . S
H233 C230 0.929 . S
S234 N235 1.613 . S
S234 N236 1.610 . S
N235 S234 1.613 . S
N235 C238 1.350 . S
N236 S234 1.610 . S
N236 C237 1.351 . S
C237 C231 1.428 . S
C237 N236 1.351 . S
C237 C238 1.434 . S
C238 C229 1.429 . S
C238 N235 1.350 . S
C238 C237 1.434 . S
C239 C240 1.369 . S
C239 C241 1.419 . S
C239 H243 0.930 . S
C240 C239 1.369 . S
C240 C249 1.429 . S
C241 C239 1.419 . S
C241 C242 1.363 . S
C241 H244 0.929 . S
C242 C241 1.363 . S
C242 C248 1.428 . S
H243 C239 0.930 . S
H244 C241 0.929 . S
S245 N246 1.613 . S
S245 N247 1.610 . S
N246 S245 1.613 . S
N246 C249 1.350 . S
N247 S245 1.610 . S
N247 C248 1.351 . S
C248 C242 1.428 . S
C248 N247 1.351 . S
C248 C249 1.434 . S
C249 C240 1.429 . S
C249 N246 1.350 . S
C249 C248 1.434 . S
C250 C251 1.369 . S
C250 C252 1.419 . S
C250 H254 0.930 . S
C251 C250 1.369 . S
C251 C260 1.429 . S
C252 C250 1.419 . S
C252 C253 1.363 . S
C252 H255 0.929 . S
C253 C252 1.363 . S
C253 C259 1.428 . S
H254 C250 0.930 . S
H255 C252 0.929 . S
S256 N257 1.613 . S
S256 N258 1.610 . S
N257 S256 1.613 . S
N257 C260 1.350 . S
N258 S256 1.610 . S
N258 C259 1.351 . S
C259 C253 1.428 . S
C259 N258 1.351 . S
C259 C260 1.434 . S
C260 C251 1.429 . S
C260 N257 1.350 . S
C260 C259 1.434 . S
C261 C262 1.369 . S
C261 C263 1.419 . S
C261 H265 0.930 . S
C262 C261 1.369 . S
C262 C271 1.429 . S
C263 C261 1.419 . S
C263 C264 1.363 . S
C263 H266 0.929 . S
C264 C263 1.363 . S
C264 C270 1.428 . S
H265 C261 0.930 . S
H266 C263 0.929 . S
S267 N268 1.613 . S
S267 N269 1.610 . S
N268 S267 1.613 . S
N268 C271 1.350 . S
N269 S267 1.610 . S
N269 C270 1.351 . S
C270 C264 1.428 . S
C270 N269 1.351 . S
C270 C271 1.434 . S
C271 C262 1.429 . S
C271 N268 1.350 . S
C271 C270 1.434 . S
C272 C273 1.369 . S
C272 C274 1.419 . S
C272 H276 0.930 . S
C273 C272 1.369 . S
C273 C282 1.429 . S
C274 C272 1.419 . S
C274 C275 1.363 . S
C274 H277 0.929 . S
C275 C274 1.363 . S
C275 C281 1.428 . S
H276 C272 0.930 . S
H277 C274 0.929 . S
S278 N279 1.613 . S
S278 N280 1.610 . S
N279 S278 1.613 . S
N279 C282 1.350 . S
N280 S278 1.610 . S
N280 C281 1.351 . S
C281 C275 1.428 . S
C281 N280 1.351 . S
C281 C282 1.434 . S
C282 C273 1.429 . S
C282 N279 1.350 . S
C282 C281 1.434 . S
C283 C284 1.369 . S
C283 C285 1.419 . S
C283 H287 0.930 . S
C284 C283 1.369 . S
C284 C293 1.429 . S
C285 C283 1.419 . S
C285 C286 1.363 . S
C285 H288 0.929 . S
C286 C285 1.363 . S
C286 C292 1.428 . S
H287 C283 0.930 . S
H288 C285 0.929 . S
S289 N290 1.613 . S
S289 N291 1.610 . S
N290 S289 1.613 . S
N290 C293 1.350 . S
N291 S289 1.610 . S
N291 C292 1.351 . S
C292 C286 1.428 . S
C292 N291 1.351 . S
C292 C293 1.434 . S
C293 C284 1.429 . S
C293 N290 1.350 . S
C293 C292 1.434 . S
C294 C295 1.369 . S
C294 C296 1.419 . S
C294 H298 0.930 . S
C295 C294 1.369 . S
C295 C304 1.429 . S
C296 C294 1.419 . S
C296 C297 1.363 . S
C296 H299 0.929 . S
C297 C296 1.363 . S
C297 C303 1.428 . S
H298 C294 0.930 . S
H299 C296 0.929 . S
S300 N301 1.613 . S
S300 N302 1.610 . S
N301 S300 1.613 . S
N301 C304 1.350 . S
N302 S300 1.610 . S
N302 C303 1.351 . S
C303 C297 1.428 . S
C303 N302 1.351 . S
C303 C304 1.434 . S
C304 C295 1.429 . S
C304 N301 1.350 . S
C304 C303 1.434 . S
C305 C306 1.369 . S
C305 C307 1.419 . S
C305 H309 0.930 . S
C306 C305 1.369 . S
C306 C315 1.429 . S
C307 C305 1.419 . S
C307 C308 1.363 . S
C307 H310 0.929 . S
C308 C307 1.363 . S
C308 C314 1.428 . S
H309 C305 0.930 . S
H310 C307 0.929 . S
S311 N312 1.613 . S
S311 N313 1.610 . S
N312 S311 1.613 . S
N312 C315 1.350 . S
N313 S311 1.610 . S
N313 C314 1.351 . S
C314 C308 1.428 . S
C314 N313 1.351 . S
C314 C315 1.434 . S
C315 C306 1.429 . S
C315 N312 1.350 . S
C315 C314 1.434 . S
C316 C317 1.369 . S
C316 C318 1.419 . S
C316 H320 0.930 . S
C317 C316 1.369 . S
C317 C326 1.429 . S
C318 C316 1.419 . S
C318 C319 1.363 . S
C318 H321 0.929 . S
C319 C318 1.363 . S
C319 C325 1.428 . S
H320 C316 0.930 . S
H321 C318 0.929 . S
S322 N323 1.613 . S
S322 N324 1.610 . S
N323 S322 1.613 . S
N323 C326 1.350 . S
N324 S322 1.610 . S
N324 C325 1.351 . S
C325 C319 1.428 . S
C325 N324 1.351 . S
C325 C326 1.434 . S
C326 C317 1.429 . S
C326 N323 1.350 . S
C326 C325 1.434 . S
C327 C328 1.369 . S
C327 C329 1.419 . S
C327 H331 0.930 . S
C328 C327 1.369 . S
C328 C337 1.429 . S
C329 C327 1.419 . S
C329 C330 1.363 . S
C329 H332 0.929 . S
C330 C329 1.363 . S
C330 C336 1.428 . S
H331 C327 0.930 . S
H332 C329 0.929 . S
S333 N334 1.613 . S
S333 N335 1.610 . S
N334 S333 1.613 . S
N334 C337 1.350 . S
N335 S333 1.610 . S
N335 C336 1.351 . S
C336 C330 1.428 . S
C336 N335 1.351 . S
C336 C337 1.434 . S
C337 C328 1.429 . S
C337 N334 1.350 . S
C337 C336 1.434 . S
C338 C339 1.369 . S
C338 C340 1.419 . S
C338 H342 0.930 . S
C339 C338 1.369 . S
C339 C348 1.429 . S
C340 C338 1.419 . S
C340 C341 1.363 . S
C340 H343 0.929 . S
C341 C340 1.363 . S
C341 C347 1.428 . S
H342 C338 0.930 . S
H343 C340 0.929 . S
S344 N345 1.613 . S
S344 N346 1.610 . S
N345 S344 1.613 . S
N345 C348 1.350 . S
N346 S344 1.610 . S
N346 C347 1.351 . S
C347 C341 1.428 . S
C347 N346 1.351 . S
C347 C348 1.434 . S
C348 C339 1.429 . S
C348 N345 1.350 . S
C348 C347 1.434 . S
C349 C350 1.369 . S
C349 C351 1.419 . S
C349 H353 0.930 . S
C350 C349 1.369 . S
C350 C359 1.429 . S
C351 C349 1.419 . S
C351 C352 1.363 . S
C351 H354 0.929 . S
C352 C351 1.363 . S
C352 C358 1.428 . S
H353 C349 0.930 . S
H354 C351 0.929 . S
S355 N356 1.613 . S
S355 N357 1.610 . S
N356 S355 1.613 . S
N356 C359 1.350 . S
N357 S355 1.610 . S
N357 C358 1.351 . S
C358 C352 1.428 . S
C358 N357 1.351 . S
C358 C359 1.434 . S
C359 C350 1.429 . S
C359 N356 1.350 . S
C359 C358 1.434 . S
C360 C361 1.369 1_556 S
C360 C362 1.419 . S
C360 H364 0.930 . S
C361 C360 1.369 1_554 S
C361 C370 1.429 . S
C362 C360 1.419 . S
C362 C363 1.363 1_556 S
C362 H365 0.929 . S
C363 C362 1.363 1_554 S
C363 C369 1.428 . S
H364 C360 0.930 . S
H365 C362 0.929 . S
S366 N367 1.613 . S
S366 N368 1.610 . S
N367 S366 1.613 . S
N367 C370 1.350 . S
N368 S366 1.610 . S
N368 C369 1.351 . S
C369 C363 1.428 . S
C369 N368 1.351 . S
C369 C370 1.434 . S
C370 C361 1.429 . S
C370 N367 1.350 . S
C370 C369 1.434 . S
C371 C372 1.369 . S
C371 C373 1.419 . S
C371 H375 0.930 . S
C372 C371 1.369 . S
C372 C381 1.429 . S
C373 C371 1.419 . S
C373 C374 1.363 . S
C373 H376 0.929 . S
C374 C373 1.363 . S
C374 C380 1.428 . S
H375 C371 0.930 . S
H376 C373 0.929 . S
S377 N378 1.613 . S
S377 N379 1.610 . S
N378 S377 1.613 . S
N378 C381 1.350 . S
N379 S377 1.610 . S
N379 C380 1.351 . S
C380 C374 1.428 . S
C380 N379 1.351 . S
C380 C381 1.434 . S
C381 C372 1.429 . S
C381 N378 1.350 . S
C381 C380 1.434 . S
C382 C383 1.369 1_556 S
C382 C384 1.419 . S
C382 H386 0.930 . S
C383 C382 1.369 1_554 S
C383 C392 1.429 . S
C384 C382 1.419 . S
C384 C385 1.363 1_556 S
C384 H387 0.929 . S
C385 C384 1.363 1_554 S
C385 C391 1.428 . S
H386 C382 0.930 . S
H387 C384 0.929 . S
S388 N389 1.613 . S
S388 N390 1.610 . S
N389 S388 1.613 . S
N389 C392 1.350 . S
N390 S388 1.610 . S
N390 C391 1.351 . S
C391 C385 1.428 . S
C391 N390 1.351 . S
C391 C392 1.434 . S
C392 C383 1.429 . S
C392 N389 1.350 . S
C392 C391 1.434 . S
C393 C394 1.369 . S
C393 C395 1.419 . S
C393 H397 0.930 . S
C394 C393 1.369 . S
C394 C403 1.429 . S
C395 C393 1.419 . S
C395 C396 1.363 . S
C395 H398 0.929 . S
C396 C395 1.363 . S
C396 C402 1.428 . S
H397 C393 0.930 . S
H398 C395 0.929 . S
S399 N400 1.613 . S
S399 N401 1.610 . S
N400 S399 1.613 . S
N400 C403 1.350 . S
N401 S399 1.610 . S
N401 C402 1.351 . S
C402 C396 1.428 . S
C402 N401 1.351 . S
C402 C403 1.434 . S
C403 C394 1.429 . S
C403 N400 1.350 . S
C403 C402 1.434 . S
C404 C405 1.369 . S
C404 C406 1.419 . S
C404 H408 0.930 . S
C405 C404 1.369 . S
C405 C414 1.429 . S
C406 C404 1.419 . S
C406 C407 1.363 . S
C406 H409 0.929 . S
C407 C406 1.363 . S
C407 C413 1.428 . S
H408 C404 0.930 . S
H409 C406 0.929 . S
S410 N411 1.613 . S
S410 N412 1.610 . S
N411 S410 1.613 . S
N411 C414 1.350 . S
N412 S410 1.610 . S
N412 C413 1.351 . S
C413 C407 1.428 . S
C413 N412 1.351 . S
C413 C414 1.434 . S
C414 C405 1.429 . S
C414 N411 1.350 . S
C414 C413 1.434 . S
C415 C416 1.369 1_556 S
C415 C417 1.419 . S
C415 H419 0.930 . S
C416 C415 1.369 1_554 S
C416 C425 1.429 . S
C417 C415 1.419 . S
C417 C418 1.363 1_556 S
C417 H420 0.929 . S
C418 C417 1.363 1_554 S
C418 C424 1.428 . S
H419 C415 0.930 . S
H420 C417 0.929 . S
S421 N422 1.613 . S
S421 N423 1.610 . S
N422 S421 1.613 . S
N422 C425 1.350 . S
N423 S421 1.610 . S
N423 C424 1.351 . S
C424 C418 1.428 . S
C424 N423 1.351 . S
C424 C425 1.434 . S
C425 C416 1.429 . S
C425 N422 1.350 . S
C425 C424 1.434 . S
C426 C427 1.369 . S
C426 C428 1.419 . S
C426 H430 0.930 . S
C427 C426 1.369 . S
C427 C436 1.429 . S
C428 C426 1.419 . S
C428 C429 1.363 . S
C428 H431 0.929 . S
C429 C428 1.363 . S
C429 C435 1.428 . S
H430 C426 0.930 . S
H431 C428 0.929 . S
S432 N433 1.613 . S
S432 N434 1.610 . S
N433 S432 1.613 . S
N433 C436 1.350 . S
N434 S432 1.610 . S
N434 C435 1.351 . S
C435 C429 1.428 . S
C435 N434 1.351 . S
C435 C436 1.434 . S
C436 C427 1.429 . S
C436 N433 1.350 . S
C436 C435 1.434 . S
C437 C438 1.369 1_556 S
C437 C439 1.419 . S
C437 H441 0.930 . S
C438 C437 1.369 1_554 S
C438 C447 1.429 . S
C439 C437 1.419 . S
C439 C440 1.363 1_556 S
C439 H442 0.929 . S
C440 C439 1.363 1_554 S
C440 C446 1.428 . S
H441 C437 0.930 . S
H442 C439 0.929 . S
S443 N444 1.613 . S
S443 N445 1.610 . S
N444 S443 1.613 . S
N444 C447 1.350 . S
N445 S443 1.610 . S
N445 C446 1.351 . S
C446 C440 1.428 . S
C446 N445 1.351 . S
C446 C447 1.434 . S
C447 C438 1.429 . S
C447 N444 1.350 . S
C447 C446 1.434 . S
C185 C5 1.461 . S
C187 C130 1.474 . S
C196 C31 1.475 . S
C198 C94 1.484 . S
C209 C109 1.477 . S
C207 C53 1.497 . S
C218 C71 1.480 . S
C220 C121 1.466 . S
C231 C157 1.469 . S
C229 C75 1.483 . S
C242 C169 1.477 . S
C240 C9 1.497 . S
C253 C178 1.483 . S
C251 C27 1.473 . S
C264 C142 1.471 . S
C262 C49 1.456 . S
C273 C51 1.459 . S
C275 C106 1.462 . S
C284 C72 1.473 . S
C286 C118 1.471 . S
C295 C6 1.495 . S
C297 C133 1.481 . S
C308 C97 1.471 . S
C306 C29 1.481 . S
C317 C28 1.480 . S
C319 C181 1.470 . S
C330 C145 1.481 . S
C328 C50 1.495 . S
C341 C154 1.474 . S
C339 C73 1.476 . S
C350 C7 1.460 . S
C352 C166 1.463 . S
C363 C92 1.503 . S
C361 C4 1.507 . S
C374 C104 1.511 . S
C372 C30 1.509 . S
C383 C52 1.509 . S
C385 C116 1.513 1_554 S
C394 C70 1.509 . S
C396 C128 1.506 . S
C407 C140 1.504 . S
C405 C74 1.506 . S
C416 C8 1.509 . S
C418 C152 1.511 . S
C427 C26 1.509 . S
C429 C164 1.510 . S
C438 C48 1.506 . S
C440 C176 1.504 1_554 S
