# Generated by pormake.
# Topology eea, (3,6)-cn, num edge types: 1
# Building blocks:
#     Node 0, Type 0, BuildingBlock: ESEHIV_clean_linker_0, # of connection points: 3
#     Node 1, Type 0, BuildingBlock: ESEHIV_clean_linker_0, # of connection points: 3
#     Node 2, Type 0, BuildingBlock: ESEHIV_clean_linker_0, # of connection points: 3
#     Node 3, Type 0, BuildingBlock: ESEHIV_clean_linker_0, # of connection points: 3
#     Node 4, Type 0, BuildingBlock: ESEHIV_clean_linker_0, # of connection points: 3
#     Node 5, Type 0, BuildingBlock: ESEHIV_clean_linker_0, # of connection points: 3
#     Node 6, Type 0, BuildingBlock: ESEHIV_clean_linker_0, # of connection points: 3
#     Node 7, Type 0, BuildingBlock: ESEHIV_clean_linker_0, # of connection points: 3
#     Node 8, Type 0, BuildingBlock: ESEHIV_clean_linker_0, # of connection points: 3
#     Node 9, Type 0, BuildingBlock: ESEHIV_clean_linker_0, # of connection points: 3
#     Node 10, Type 0, BuildingBlock: ESEHIV_clean_linker_0, # of connection points: 3
#     Node 11, Type 0, BuildingBlock: ESEHIV_clean_linker_0, # of connection points: 3
#     Node 12, Type 0, BuildingBlock: ESEHIV_clean_linker_0, # of connection points: 3
#     Node 13, Type 0, BuildingBlock: ESEHIV_clean_linker_0, # of connection points: 3
#     Node 14, Type 0, BuildingBlock: ESEHIV_clean_linker_0, # of connection points: 3
#     Node 15, Type 0, BuildingBlock: ESEHIV_clean_linker_0, # of connection points: 3
#     Node 16, Type 0, BuildingBlock: ESEHIV_clean_linker_0, # of connection points: 3
#     Node 17, Type 0, BuildingBlock: ESEHIV_clean_linker_0, # of connection points: 3
#     Node 18, Type 1, BuildingBlock: NUHQIS_clean_sbu_0, # of connection points: 6
#     Node 19, Type 1, BuildingBlock: NUHQIS_clean_sbu_0, # of connection points: 6
#     Node 20, Type 1, BuildingBlock: NUHQIS_clean_sbu_0, # of connection points: 6
#     Node 21, Type 1, BuildingBlock: NUHQIS_clean_sbu_0, # of connection points: 6
#     Node 22, Type 1, BuildingBlock: NUHQIS_clean_sbu_0, # of connection points: 6
#     Node 23, Type 1, BuildingBlock: NUHQIS_clean_sbu_0, # of connection points: 6
#     Node 24, Type 1, BuildingBlock: NUHQIS_clean_sbu_0, # of connection points: 6
#     Node 25, Type 1, BuildingBlock: NUHQIS_clean_sbu_0, # of connection points: 6
#     Node 26, Type 1, BuildingBlock: NUHQIS_clean_sbu_0, # of connection points: 6
#     Edge 27, Type (0, 1), BuildingBlock: OJICUG_clean_linker_0, # of connection points: 2
#     Edge 28, Type (0, 1), BuildingBlock: OJICUG_clean_linker_0, # of connection points: 2
#     Edge 29, Type (0, 1), BuildingBlock: OJICUG_clean_linker_0, # of connection points: 2
#     Edge 30, Type (0, 1), BuildingBlock: OJICUG_clean_linker_0, # of connection points: 2
#     Edge 31, Type (0, 1), BuildingBlock: OJICUG_clean_linker_0, # of connection points: 2
#     Edge 32, Type (0, 1), BuildingBlock: OJICUG_clean_linker_0, # of connection points: 2
#     Edge 33, Type (0, 1), BuildingBlock: OJICUG_clean_linker_0, # of connection points: 2
#     Edge 34, Type (0, 1), BuildingBlock: OJICUG_clean_linker_0, # of connection points: 2
#     Edge 35, Type (0, 1), BuildingBlock: OJICUG_clean_linker_0, # of connection points: 2
#     Edge 36, Type (0, 1), BuildingBlock: OJICUG_clean_linker_0, # of connection points: 2
#     Edge 37, Type (0, 1), BuildingBlock: OJICUG_clean_linker_0, # of connection points: 2
#     Edge 38, Type (0, 1), BuildingBlock: OJICUG_clean_linker_0, # of connection points: 2
#     Edge 39, Type (0, 1), BuildingBlock: OJICUG_clean_linker_0, # of connection points: 2
#     Edge 40, Type (0, 1), BuildingBlock: OJICUG_clean_linker_0, # of connection points: 2
#     Edge 41, Type (0, 1), BuildingBlock: OJICUG_clean_linker_0, # of connection points: 2
#     Edge 42, Type (0, 1), BuildingBlock: OJICUG_clean_linker_0, # of connection points: 2
#     Edge 43, Type (0, 1), BuildingBlock: OJICUG_clean_linker_0, # of connection points: 2
#     Edge 44, Type (0, 1), BuildingBlock: OJICUG_clean_linker_0, # of connection points: 2
#     Edge 45, Type (0, 1), BuildingBlock: OJICUG_clean_linker_0, # of connection points: 2
#     Edge 46, Type (0, 1), BuildingBlock: OJICUG_clean_linker_0, # of connection points: 2
#     Edge 47, Type (0, 1), BuildingBlock: OJICUG_clean_linker_0, # of connection points: 2
#     Edge 48, Type (0, 1), BuildingBlock: OJICUG_clean_linker_0, # of connection points: 2
#     Edge 49, Type (0, 1), BuildingBlock: OJICUG_clean_linker_0, # of connection points: 2
#     Edge 50, Type (0, 1), BuildingBlock: OJICUG_clean_linker_0, # of connection points: 2
#     Edge 51, Type (0, 1), BuildingBlock: OJICUG_clean_linker_0, # of connection points: 2
#     Edge 52, Type (0, 1), BuildingBlock: OJICUG_clean_linker_0, # of connection points: 2
#     Edge 53, Type (0, 1), BuildingBlock: OJICUG_clean_linker_0, # of connection points: 2
#     Edge 54, Type (0, 1), BuildingBlock: OJICUG_clean_linker_0, # of connection points: 2
#     Edge 55, Type (0, 1), BuildingBlock: OJICUG_clean_linker_0, # of connection points: 2
#     Edge 56, Type (0, 1), BuildingBlock: OJICUG_clean_linker_0, # of connection points: 2
#     Edge 57, Type (0, 1), BuildingBlock: OJICUG_clean_linker_0, # of connection points: 2
#     Edge 58, Type (0, 1), BuildingBlock: OJICUG_clean_linker_0, # of connection points: 2
#     Edge 59, Type (0, 1), BuildingBlock: OJICUG_clean_linker_0, # of connection points: 2
#     Edge 60, Type (0, 1), BuildingBlock: OJICUG_clean_linker_0, # of connection points: 2
#     Edge 61, Type (0, 1), BuildingBlock: OJICUG_clean_linker_0, # of connection points: 2
#     Edge 62, Type (0, 1), BuildingBlock: OJICUG_clean_linker_0, # of connection points: 2
#     Edge 63, Type (0, 1), BuildingBlock: OJICUG_clean_linker_0, # of connection points: 2
#     Edge 64, Type (0, 1), BuildingBlock: OJICUG_clean_linker_0, # of connection points: 2
#     Edge 65, Type (0, 1), BuildingBlock: OJICUG_clean_linker_0, # of connection points: 2
#     Edge 66, Type (0, 1), BuildingBlock: OJICUG_clean_linker_0, # of connection points: 2
#     Edge 67, Type (0, 1), BuildingBlock: OJICUG_clean_linker_0, # of connection points: 2
#     Edge 68, Type (0, 1), BuildingBlock: OJICUG_clean_linker_0, # of connection points: 2
#     Edge 69, Type (0, 1), BuildingBlock: OJICUG_clean_linker_0, # of connection points: 2
#     Edge 70, Type (0, 1), BuildingBlock: OJICUG_clean_linker_0, # of connection points: 2
#     Edge 71, Type (0, 1), BuildingBlock: OJICUG_clean_linker_0, # of connection points: 2
#     Edge 72, Type (0, 1), BuildingBlock: OJICUG_clean_linker_0, # of connection points: 2
#     Edge 73, Type (0, 1), BuildingBlock: OJICUG_clean_linker_0, # of connection points: 2
#     Edge 74, Type (0, 1), BuildingBlock: OJICUG_clean_linker_0, # of connection points: 2
#     Edge 75, Type (0, 1), BuildingBlock: OJICUG_clean_linker_0, # of connection points: 2
#     Edge 76, Type (0, 1), BuildingBlock: OJICUG_clean_linker_0, # of connection points: 2
#     Edge 77, Type (0, 1), BuildingBlock: OJICUG_clean_linker_0, # of connection points: 2
#     Edge 78, Type (0, 1), BuildingBlock: OJICUG_clean_linker_0, # of connection points: 2
#     Edge 79, Type (0, 1), BuildingBlock: OJICUG_clean_linker_0, # of connection points: 2
#     Edge 80, Type (0, 1), BuildingBlock: OJICUG_clean_linker_0, # of connection points: 2
# Relax obj value: 0.034
# Max RMSD: 0.131
# Mean RMSD: 0.113
data_MOF--net-eea--node1-NUHQIS_clean_sbu_0--node2-ESEHIV_clean_linker_0--edge1-OJICUG_clean_linker_0
_symmetry_space_group_name_H-M    P1
_symmetry_Int_Tables_number       1
_symmetry_cell_setting            triclinic
loop_
_symmetry_equiv_pos_as_xyz
'x, y, z'
_cell_length_a     34.346314
_cell_length_b     33.724591
_cell_length_c     55.378198
_cell_angle_alpha  92.925691
_cell_angle_beta   93.220014
_cell_angle_gamma 119.37519
loop_
_atom_site_label
_atom_site_type_symbol
_atom_site_fract_x
_atom_site_fract_y
_atom_site_fract_z
_atom_type_partial_charge
H0 H 0.29014 0.21623 0.44952 0.0
H1 H 0.29302 0.09083 0.44893 0.0
H2 H 0.259 0.13192 0.38249 0.0
C3 C 0.28693 0.18633 0.43937 0.0
C4 C 0.27137 0.17676 0.41454 0.0
C5 C 0.29729 0.15656 0.45144 0.0
C6 C 0.28922 0.11566 0.43892 0.0
C7 C 0.27362 0.10557 0.41419 0.0
C8 C 0.26806 0.13799 0.4019 0.0
H9 H 0.81798 0.08388 0.45353 0.0
H10 H 0.94342 0.20773 0.45297 0.0
H11 H 0.89635 0.10282 0.39317 0.0
C12 C 0.84783 0.1047 0.44458 0.0
C13 C 0.85306 0.08885 0.42183 0.0
C14 C 0.88063 0.14692 0.45613 0.0
C15 C 0.91849 0.17479 0.4441 0.0
C16 C 0.92455 0.15944 0.42104 0.0
C17 C 0.8915 0.1162 0.41024 0.0
H18 H 0.80931 0.73185 0.45382 0.0
H19 H 0.93834 0.74073 0.4553 0.0
H20 H 0.89902 0.80423 0.40078 0.0
C21 C 0.84113 0.74387 0.44622 0.0
C22 C 0.84951 0.76809 0.42539 0.0
C23 C 0.87352 0.73517 0.45759 0.0
C24 C 0.9144 0.74935 0.44716 0.0
C25 C 0.92355 0.77302 0.42594 0.0
C26 C 0.89127 0.78337 0.41591 0.0
H27 H 0.05167 0.26022 0.59212 0.0
H28 H 0.17658 0.26012 0.5912 0.0
H29 H 0.09658 0.21028 0.65131 0.0
C30 C 0.07621 0.25264 0.60056 0.0
C31 C 0.0689 0.23301 0.62301 0.0
C32 C 0.11596 0.26405 0.58944 0.0
C33 C 0.1474 0.2537 0.60049 0.0
C34 C 0.14103 0.23417 0.62282 0.0
C35 C 0.10187 0.22471 0.63399 0.0
H36 H 0.68884 0.89944 0.60323 0.0
H37 H 0.68765 0.7713 0.5982 0.0
H38 H 0.74189 0.86103 0.66407 0.0
C39 C 0.69502 0.8745 0.61168 0.0
C40 C 0.71567 0.88455 0.63545 0.0
C41 C 0.68476 0.83373 0.59814 0.0
C42 C 0.69434 0.80226 0.60882 0.0
C43 C 0.71513 0.81198 0.63263 0.0
C44 C 0.72486 0.85278 0.64593 0.0
H45 H 0.05441 0.78742 0.5919 0.0
H46 H 0.1767 0.91505 0.5916 0.0
H47 H 0.09987 0.88945 0.65293 0.0
C48 C 0.07867 0.82045 0.60095 0.0
C49 C 0.07222 0.83438 0.62427 0.0
C50 C 0.11605 0.84982 0.58892 0.0
C51 C 0.14787 0.89236 0.60074 0.0
C52 C 0.14235 0.90661 0.62382 0.0
C53 C 0.10447 0.87765 0.63535 0.0
H54 H 0.94667 0.54126 0.78268 0.0
H55 H 0.94546 0.41345 0.78312 0.0
H56 H 0.91158 0.45429 0.71648 0.0
C57 C 0.9426 0.51059 0.77292 0.0
C58 C 0.92723 0.50076 0.74812 0.0
C59 C 0.95013 0.47951 0.78553 0.0
C60 C 0.94144 0.43819 0.77316 0.0
C61 C 0.92651 0.42819 0.74832 0.0
C62 C 0.92139 0.46066 0.73583 0.0
H63 H 0.48878 0.42592 0.78797 0.0
H64 H 0.61847 0.54489 0.7884 0.0
H65 H 0.56035 0.44804 0.72472 0.0
C66 C 0.51842 0.44646 0.77879 0.0
C67 C 0.52137 0.43172 0.75528 0.0
C68 C 0.55306 0.48718 0.79077 0.0
C69 C 0.59119 0.51425 0.77869 0.0
C70 C 0.59469 0.50042 0.75465 0.0
C71 C 0.5589 0.45931 0.74312 0.0
H72 H 0.47715 0.06954 0.7881 0.0
H73 H 0.60282 0.07099 0.78846 0.0
H74 H 0.56697 0.13746 0.73427 0.0
C75 C 0.50845 0.07977 0.78023 0.0
C76 C 0.5173 0.1035 0.75918 0.0
C77 C 0.53973 0.06924 0.79145 0.0
C78 C 0.57983 0.08111 0.78058 0.0
C79 C 0.58949 0.10445 0.75927 0.0
C80 C 0.55853 0.11672 0.74945 0.0
H81 H 0.71895 0.59081 0.92487 0.0
H82 H 0.84492 0.59227 0.92517 0.0
H83 H 0.75765 0.5282 0.98034 0.0
C84 C 0.74231 0.58127 0.93288 0.0
C85 C 0.73299 0.55831 0.95436 0.0
C86 C 0.78257 0.59352 0.92204 0.0
C87 C 0.81379 0.58287 0.93314 0.0
C88 C 0.80544 0.56034 0.95449 0.0
C89 C 0.76477 0.54754 0.96459 0.0
H90 H 0.36304 0.23783 0.93375 0.0
H91 H 0.36743 0.11337 0.93239 0.0
H92 H 0.39387 0.1945 1.00025 0.0
C93 C 0.36698 0.21292 0.94361 0.0
C94 C 0.38064 0.22183 0.96858 0.0
C95 C 0.3602 0.1728 0.93083 0.0
C96 C 0.36902 0.14217 0.94291 0.0
C97 C 0.38302 0.15061 0.96791 0.0
C98 C 0.38564 0.18896 0.98077 0.0
H99 H 0.71061 0.12696 0.92104 0.0
H100 H 0.84199 0.24466 0.92414 0.0
H101 H 0.76137 0.22569 0.9836 0.0
C102 C 0.73715 0.15812 0.93079 0.0
C103 C 0.73137 0.17258 0.9541 0.0
C104 C 0.77666 0.18486 0.91965 0.0
C105 C 0.81084 0.22527 0.93228 0.0
C106 C 0.80553 0.24075 0.95517 0.0
C107 C 0.76569 0.21411 0.96589 0.0
H108 H 0.61596 0.87685 0.11673 0.0
H109 H 0.61908 0.75073 0.11327 0.0
H110 H 0.57609 0.79132 0.04956 0.0
C111 C 0.61211 0.84691 0.10624 0.0
C112 C 0.59479 0.83763 0.08174 0.0
C113 C 0.62141 0.81582 0.11768 0.0
C114 C 0.61346 0.7756 0.10436 0.0
C115 C 0.59615 0.76621 0.07997 0.0
C116 C 0.58857 0.79814 0.0686 0.0
H117 H 0.15547 0.75639 0.12195 0.0
H118 H 0.28392 0.877 0.1225 0.0
H119 H 0.22746 0.78018 0.05877 0.0
C120 C 0.18501 0.77741 0.11282 0.0
C121 C 0.18835 0.76298 0.0893 0.0
C122 C 0.21909 0.8185 0.12481 0.0
C123 C 0.25703 0.84612 0.11276 0.0
C124 C 0.2609 0.83267 0.08873 0.0
C125 C 0.22571 0.7912 0.07717 0.0
H126 H 0.14367 0.40012 0.12077 0.0
H127 H 0.27096 0.40446 0.1224 0.0
H128 H 0.23164 0.46281 0.06519 0.0
C129 C 0.17492 0.41011 0.11284 0.0
C130 C 0.18325 0.43239 0.09131 0.0
C131 C 0.20664 0.40075 0.12453 0.0
C132 C 0.24696 0.41271 0.11389 0.0
C133 C 0.25543 0.43357 0.09183 0.0
C134 C 0.22387 0.44423 0.08122 0.0
H135 H 0.38739 0.92982 0.25906 0.0
H136 H 0.5129 0.92992 0.25933 0.0
H137 H 0.42759 0.87191 0.31632 0.0
C138 C 0.41122 0.92109 0.26731 0.0
C139 C 0.40271 0.89996 0.28934 0.0
C140 C 0.45125 0.93253 0.25638 0.0
C141 C 0.48223 0.92162 0.26758 0.0
C142 C 0.47425 0.90022 0.2893 0.0
C143 C 0.43446 0.88958 0.29995 0.0
H144 H 0.02885 0.5736 0.26985 0.0
H145 H 0.03384 0.44863 0.26694 0.0
H146 H 0.07467 0.53568 0.33366 0.0
C147 C 0.03493 0.54919 0.27896 0.0
C148 C 0.05297 0.55944 0.30325 0.0
C149 C 0.02709 0.50881 0.26588 0.0
C150 C 0.03736 0.47847 0.27738 0.0
C151 C 0.05559 0.48861 0.30174 0.0
C152 C 0.06146 0.52815 0.31473 0.0
H153 H 0.38249 0.44675 0.25729 0.0
H154 H 0.50618 0.57396 0.25886 0.0
H155 H 0.43129 0.54205 0.32129 0.0
C156 C 0.40781 0.47868 0.26699 0.0
C157 C 0.40246 0.49047 0.29096 0.0
C158 C 0.4453 0.50882 0.25529 0.0
C159 C 0.4776 0.55042 0.26788 0.0
C160 C 0.4728 0.5627 0.29161 0.0
C161 C 0.4354 0.53236 0.30305 0.0
Tb162 Tb 0.48158 0.97053 0.99661 0.0
Eu163 Eu 0.51795 0.0338 0.05094 0.0
C164 C 0.53158 0.9491 0.03769 0.0
C165 C 0.42171 0.94152 0.04104 0.0
C166 C 0.47576 0.95184 0.92977 0.0
C167 C 0.46865 0.94117 0.88553 0.0
C168 C 0.45705 0.92343 0.90807 0.0
C169 C 0.50666 -0.00166 0.92857 0.0
C170 C 0.51834 0.01614 0.90604 0.0
C171 C 0.49932 0.98788 0.88413 0.0
C172 C 0.46257 0.9331 0.9535 0.0
O173 O 0.47671 0.03147 0.9928 0.0
O174 O 0.4695 0.05082 0.03208 0.0
O175 O 0.56418 0.07837 0.02406 0.0
O176 O 0.55297 0.01819 0.99747 0.0
C177 C 0.4627 0.05077 1.00858 0.0
O178 O 0.51023 0.07313 0.08115 0.0
O179 O 0.56285 0.05593 0.0845 0.0
O180 O 0.55186 0.99238 0.0456 0.0
O181 O 0.49613 0.93101 0.02174 0.0
O182 O 0.42267 0.94041 1.01723 0.0
O183 O 0.45698 0.96765 0.05629 0.0
C184 C 0.57566 0.06166 1.0054 0.0
O185 O 0.49464 0.93565 0.9684 0.0
O186 O 0.43718 0.94521 0.96474 0.0
C187 C 0.52491 0.05245 0.11946 0.0
C188 C 0.49716 0.01611 0.16463 0.0
C189 C 0.52842 0.06279 0.16359 0.0
C190 C 0.54208 0.0807 0.14128 0.0
C191 C 0.49338 0.00603 0.12032 0.0
C192 C 0.47962 0.98809 0.14259 0.0
C193 C 0.54004 0.07122 0.09593 0.0
H194 H 0.45373 0.91812 0.86918 0.0
H195 H 0.43327 0.88744 0.90853 0.0
H196 H 0.52148 0.02102 0.94508 0.0
H197 H 0.54156 0.05231 0.90583 0.0
H198 H 0.54229 0.08567 0.18005 0.0
H199 H 0.56626 0.11664 0.14109 0.0
H200 H 0.4797 0.98343 0.10377 0.0
H201 H 0.45603 0.95196 0.14254 0.0
Tb202 Tb 0.02328 0.51332 1.00033 0.0
Eu203 Eu 0.96757 0.4891 0.04946 0.0
C204 C 0.0545 0.58376 0.04616 0.0
C205 C 0.05479 0.47711 0.04525 0.0
C206 C 0.04696 0.52672 0.93661 0.0
C207 C 0.06086 0.53826 0.89442 0.0
C208 C 0.07697 0.5451 0.91889 0.0
C209 C 0.00071 0.50143 0.92973 0.0
C210 C 0.98457 0.49472 0.90534 0.0
C211 C 0.01446 0.51303 0.88739 0.0
C212 C 0.06352 0.53545 0.96233 0.0
O213 O 0.9763 0.44053 0.99392 0.0
O214 O 0.92526 0.43062 0.02172 0.0
O215 O 0.94289 0.52666 0.02615 0.0
O216 O 0.95872 0.50736 0.98922 0.0
C217 C 0.93778 0.416 1.00294 0.0
O218 O 0.92737 0.44103 0.07473 0.0
O219 O 0.94185 0.51136 0.07919 0.0
O220 O 0.03461 0.55074 0.06016 0.0
O221 O 0.04467 0.57686 0.02257 0.0
O222 O 0.06591 0.50185 0.02654 0.0
O223 O 0.01652 0.46357 0.05474 0.0
C224 C 0.93678 0.52191 1.00233 0.0
O225 O 0.05269 0.56147 0.9751 0.0
O226 O 0.05692 0.49973 0.97336 0.0
C227 C 0.94016 0.47499 0.11436 0.0
C228 C 0.9685 0.48138 0.16366 0.0
C229 C 0.92254 0.46091 0.15591 0.0
C230 C 0.90847 0.45783 0.13137 0.0
C231 C 0.98596 0.49451 0.12192 0.0
C232 C 4e-05 0.49778 0.1464 0.0
C233 C 0.92565 0.47234 0.08872 0.0
H234 H 0.08475 0.55227 0.881 0.0
H235 H 0.11278 0.56483 0.92398 0.0
H236 H 0.97707 0.48724 0.94326 0.0
H237 H 0.94865 0.47568 0.90059 0.0
H238 H 0.8976 0.44834 0.16888 0.0
H239 H 0.87297 0.44247 0.12571 0.0
H240 H 0.01079 0.50747 0.10889 0.0
H241 H 0.03562 0.51317 0.15184 0.0
Tb242 Tb 0.5137 0.4895 0.04702 0.0
Eu243 Eu 0.47123 0.50549 0.99498 0.0
C244 C 0.45644 0.40848 1.0067 0.0
C245 C 0.56901 0.51077 1.001 0.0
C246 C 0.52165 0.48054 0.1127 0.0
C247 C 0.51343 0.46024 0.15441 0.0
C248 C 0.5303 0.45965 0.13195 0.0
C249 C 0.49511 0.50105 0.11603 0.0
C250 C 0.47789 0.50122 0.13825 0.0
C251 C 0.48744 0.48157 0.15792 0.0
C252 C 0.54005 0.48117 0.08916 0.0
O253 O 0.54799 0.56133 0.04108 0.0
O254 O 0.48894 0.5641 0.02229 0.0
O255 O 0.41324 0.47491 1.01836 0.0
O256 O 0.45471 0.49454 0.05553 0.0
C257 C 0.52717 0.58388 0.03579 0.0
O258 O 0.47765 0.55377 0.96858 0.0
O259 O 0.42549 0.48303 0.96182 0.0
O260 O 0.465 0.43672 0.98987 0.0
O261 O 0.46632 0.42193 0.02995 0.0
O262 O 0.5602 0.49017 0.02129 0.0
O263 O 0.54309 0.52487 0.99073 0.0
C264 C 0.41617 0.47929 0.04231 0.0
O265 O 0.5151 0.4468 0.07323 0.0
O266 O 0.55606 0.51965 0.07927 0.0
C267 C 0.46623 0.51927 0.92916 0.0
C268 C 0.50457 0.51699 0.88557 0.0
C269 C 0.47687 0.53684 0.88716 0.0
C270 C 0.45799 0.53811 0.90883 0.0
C271 C 0.49401 0.49982 0.9277 0.0
C272 C 0.51322 0.49896 0.90626 0.0
C273 C 0.44852 0.52186 0.95246 0.0
H274 H 0.52191 0.4452 0.16919 0.0
H275 H 0.55066 0.44356 0.12975 0.0
H276 H 0.48821 0.51762 0.1015 0.0
H277 H 0.4574 0.51724 0.14004 0.0
H278 H 0.46898 0.55053 0.87153 0.0
H279 H 0.43692 0.55364 0.90969 0.0
H280 H 0.501 0.48536 0.94327 0.0
H281 H 0.53493 0.48414 0.90597 0.0
Tb282 Tb 0.1457 0.30212 0.33029 0.0
Eu283 Eu 0.18231 0.36397 0.38498 0.0
C284 C 0.1942 0.27809 0.37282 0.0
C285 C 0.08593 0.26995 0.37422 0.0
C286 C 0.13801 0.28581 0.26283 0.0
C287 C 0.13896 0.27433 0.21907 0.0
C288 C 0.12696 0.25655 0.24156 0.0
C289 C 0.16126 0.33325 0.26121 0.0
C290 C 0.17382 0.3511 0.23879 0.0
C291 C 0.16279 0.32188 0.21736 0.0
C292 C 0.12672 0.2667 0.28663 0.0
O293 O 0.11082 0.34036 0.33514 0.0
O294 O 0.16432 0.40306 0.35927 0.0
O295 O 0.24232 0.38727 0.36306 0.0
O296 O 0.20209 0.36894 0.32591 0.0
C297 C 0.12896 0.38345 0.3433 0.0
O298 O 0.17158 0.40205 0.41455 0.0
O299 O 0.22833 0.39082 0.41812 0.0
O300 O 0.1838 0.29968 0.38919 0.0
O301 O 0.18762 0.27952 0.34935 0.0
O302 O 0.09678 0.25695 0.35394 0.0
O303 O 0.11008 0.3109 0.38569 0.0
C304 C 0.24058 0.38914 0.33936 0.0
O305 O 0.16032 0.27116 0.30087 0.0
O306 O 0.1005 0.27643 0.29864 0.0
C307 C 0.18929 0.38436 0.45293 0.0
C308 C 0.1615 0.34724 0.49783 0.0
C309 C 0.18846 0.39477 0.49674 0.0
C310 C 0.20203 0.41311 0.47451 0.0
C311 C 0.16252 0.33699 0.45391 0.0
C312 C 0.14853 0.31864 0.47605 0.0
C313 C 0.20323 0.40344 0.42937 0.0
H314 H 0.13015 0.25079 0.20303 0.0
H315 H 0.10922 0.21985 0.24236 0.0
H316 H 0.1697 0.35648 0.27733 0.0
H317 H 0.19155 0.38783 0.23816 0.0
H318 H 0.19882 0.41789 0.51307 0.0
H319 H 0.22254 0.44976 0.47419 0.0
H320 H 0.15272 0.31417 0.4375 0.0
H321 H 0.12841 0.28192 0.47616 0.0
Tb322 Tb 0.68388 0.83889 0.33335 0.0
Eu323 Eu 0.62831 0.81679 0.38198 0.0
C324 C 0.71693 0.91052 0.37908 0.0
C325 C 0.71608 0.80531 0.37861 0.0
C326 C 0.70919 0.85131 0.2694 0.0
C327 C 0.72627 0.86542 0.22779 0.0
C328 C 0.74063 0.87022 0.25241 0.0
C329 C 0.66324 0.8276 0.26169 0.0
C330 C 0.64884 0.82277 0.23712 0.0
C331 C 0.68021 0.84162 0.21991 0.0
C332 C 0.72427 0.85819 0.29525 0.0
O333 O 0.63945 0.76515 0.33033 0.0
O334 O 0.58419 0.76246 0.35257 0.0
O335 O 0.60747 0.85815 0.35939 0.0
O336 O 0.62075 0.83653 0.32232 0.0
C337 C 0.59821 0.74364 0.33655 0.0
O338 O 0.58746 0.76791 0.40677 0.0
O339 O 0.60116 0.838 0.41139 0.0
O340 O 0.6951 0.87831 0.39325 0.0
O341 O 0.70844 0.90328 0.35539 0.0
O342 O 0.7276 0.83075 0.36022 0.0
O343 O 0.6769 0.79037 0.38734 0.0
C344 C 0.60094 0.85356 0.33558 0.0
O345 O 0.7157 0.88601 0.30799 0.0
O346 O 0.71426 0.82136 0.30603 0.0
C347 C 0.59847 0.80118 0.44647 0.0
C348 C 0.62523 0.80789 0.49606 0.0
C349 C 0.57947 0.78767 0.48789 0.0
C350 C 0.56619 0.78445 0.4632 0.0
C351 C 0.64405 0.82042 0.45447 0.0
C352 C 0.65735 0.82383 0.47908 0.0
C353 C 0.58486 0.79877 0.42071 0.0
H354 H 0.75118 0.87983 0.21491 0.0
H355 H 0.77624 0.88882 0.25818 0.0
H356 H 0.63855 0.8132 0.2747 0.0
H357 H 0.61314 0.80478 0.23164 0.0
H358 H 0.55411 0.77542 0.50063 0.0
H359 H 0.53085 0.76937 0.45721 0.0
H360 H 0.66933 0.83311 0.44167 0.0
H361 H 0.69278 0.83898 0.48484 0.0
Tb362 Tb 0.18257 0.82326 0.38285 0.0
Eu363 Eu 0.14142 0.84095 0.33099 0.0
C364 C 0.12385 0.74449 0.3438 0.0
C365 C 0.23873 0.84825 0.33694 0.0
C366 C 0.19064 0.81028 0.44742 0.0
C367 C 0.18478 0.79481 0.48989 0.0
C368 C 0.20041 0.79165 0.46738 0.0
C369 C 0.1646 0.83148 0.45011 0.0
C370 C 0.14862 0.83424 0.4724 0.0
C371 C 0.15887 0.81643 0.49272 0.0
C372 C 0.20541 0.80608 0.42341 0.0
O373 O 0.18941 0.89006 0.38917 0.0
O374 O 0.19056 0.90944 0.34986 0.0
O375 O 0.09401 0.84017 0.35785 0.0
O376 O 0.11382 0.80712 0.38834 0.0
C377 C 0.19968 0.92037 0.37332 0.0
O378 O 0.14223 0.88593 0.3036 0.0
O379 O 0.09871 0.8131 0.29686 0.0
O380 O 0.10364 0.76692 0.33714 0.0
O381 O 0.16302 0.76551 0.35652 0.0
O382 O 0.23996 0.85293 0.36085 0.0
O383 O 0.20107 0.83307 0.32306 0.0
C384 C 0.08697 0.82065 0.37843 0.0
O385 O 0.17398 0.77528 0.40777 0.0
O386 O 0.22899 0.84435 0.41372 0.0
C387 C 0.13681 0.85235 0.26431 0.0
C388 C 0.17442 0.85078 0.22035 0.0
C389 C 0.14732 0.87124 0.22247 0.0
C390 C 0.12877 0.87211 0.24432 0.0
C391 C 0.16443 0.83279 0.26235 0.0
C392 C 0.18336 0.83239 0.24078 0.0
C393 C 0.11714 0.8521 0.28735 0.0
H394 H 0.19379 0.78119 0.50517 0.0
H395 H 0.22023 0.77487 0.46559 0.0
H396 H 0.15652 0.84588 0.43488 0.0
H397 H 0.12812 0.85034 0.47366 0.0
H398 H 0.1393 0.88529 0.20705 0.0
H399 H 0.10764 0.88753 0.24549 0.0
H400 H 0.17085 0.8171 0.27747 0.0
H401 H 0.20463 0.81709 0.24006 0.0
Tb402 Tb 0.81547 0.63493 0.66195 0.0
Eu403 Eu 0.85029 0.69618 0.7167 0.0
C404 C 0.86659 0.61309 0.70262 0.0
C405 C 0.75576 0.60511 0.70633 0.0
C406 C 0.80654 0.61679 0.59508 0.0
C407 C 0.80643 0.60555 0.55122 0.0
C408 C 0.79428 0.58762 0.57368 0.0
C409 C 0.83136 0.66422 0.59367 0.0
C410 C 0.84391 0.68218 0.57129 0.0
C411 C 0.83147 0.65311 0.5497 0.0
C412 C 0.79363 0.59786 0.61878 0.0
O413 O 0.81756 0.69943 0.65877 0.0
O414 O 0.80109 0.71171 0.69675 0.0
O415 O 0.90085 0.74069 0.69157 0.0
O416 O 0.88639 0.6835 0.66148 0.0
C417 C 0.79923 0.71578 0.67337 0.0
O418 O 0.83946 0.73385 0.74653 0.0
O419 O 0.89355 0.71894 0.75087 0.0
O420 O 0.88521 0.6556 0.71182 0.0
O421 O 0.83183 0.59532 0.68619 0.0
O422 O 0.75633 0.60747 0.68264 0.0
O423 O 0.79186 0.62796 0.72143 0.0
C424 C 0.91119 0.72536 0.67188 0.0
O425 O 0.82559 0.59879 0.63311 0.0
O426 O 0.76981 0.61132 0.63066 0.0
C427 C 0.85406 0.7144 0.78524 0.0
C428 C 0.827 0.67794 0.83045 0.0
C429 C 0.85874 0.72447 0.82943 0.0
C430 C 0.87209 0.74242 0.8071 0.0
C431 C 0.82194 0.66817 0.78607 0.0
C432 C 0.80854 0.65017 0.80837 0.0
C433 C 0.86941 0.73314 0.76176 0.0
H434 H 0.79653 0.58209 0.53505 0.0
H435 H 0.7752 0.55093 0.57431 0.0
H436 H 0.84074 0.6874 0.60991 0.0
H437 H 0.86257 0.71893 0.57085 0.0
H438 H 0.87329 0.7472 0.84591 0.0
H439 H 0.89678 0.7782 0.80693 0.0
H440 H 0.80758 0.64577 0.76948 0.0
H441 H 0.78454 0.61414 0.80829 0.0
Tb442 Tb 0.35719 0.18103 0.66694 0.0
Eu443 Eu 0.30016 0.15705 0.71537 0.0
C444 C 0.38708 0.25274 0.71227 0.0
C445 C 0.38768 0.14587 0.71207 0.0
C446 C 0.38476 0.19338 0.60332 0.0
C447 C 0.40359 0.20564 0.56183 0.0
C448 C 0.41695 0.21002 0.58657 0.0
C449 C 0.33903 0.17224 0.5952 0.0
C450 C 0.32563 0.16794 0.57049 0.0
C451 C 0.35779 0.18468 0.55355 0.0
C452 C 0.39898 0.19974 0.62929 0.0
O453 O 0.31115 0.10752 0.66303 0.0
O454 O 0.25593 0.10441 0.68549 0.0
O455 O 0.27478 0.19423 0.69242 0.0
O456 O 0.29561 0.18126 0.65527 0.0
C457 C 0.26968 0.08635 0.66895 0.0
O458 O 0.2596 0.10719 0.73978 0.0
O459 O 0.27354 0.17731 0.7454 0.0
O460 O 0.36595 0.22018 0.72638 0.0
O461 O 0.37962 0.24533 0.68856 0.0
O462 O 0.40024 0.17322 0.6945 0.0
O463 O 0.34762 0.12923 0.71983 0.0
C464 C 0.27212 0.19345 0.66864 0.0
O465 O 0.39108 0.22818 0.64192 0.0
O466 O 0.3876 0.1626 0.64 0.0
C467 C 0.27258 0.13949 0.77975 0.0
C468 C 0.30221 0.14521 0.82871 0.0
C469 C 0.25617 0.12596 0.82145 0.0
C470 C 0.24145 0.12321 0.79707 0.0
C471 C 0.31841 0.15776 0.7868 0.0
C472 C 0.33315 0.16068 0.81112 0.0
C473 C 0.25763 0.13773 0.75432 0.0
H474 H 0.42912 0.21923 0.54922 0.0
H475 H 0.45239 0.22672 0.59264 0.0
H476 H 0.31377 0.15925 0.60798 0.0
H477 H 0.29011 0.15105 0.56463 0.0
H478 H 0.23171 0.11419 0.8347 0.0
H479 H 0.20594 0.10891 0.79179 0.0
H480 H 0.34279 0.17012 0.77351 0.0
H481 H 0.36874 0.17515 0.81619 0.0
Tb482 Tb 0.84613 0.14897 0.71535 0.0
Eu483 Eu 0.80513 0.16612 0.66326 0.0
C484 C 0.78827 0.06985 0.67636 0.0
C485 C 0.90331 0.17564 0.66985 0.0
C486 C 0.85358 0.1386 0.78004 0.0
C487 C 0.84449 0.12304 0.82241 0.0
C488 C 0.86053 0.1186 0.80023 0.0
C489 C 0.82987 0.16244 0.78219 0.0
C490 C 0.81366 0.16666 0.80418 0.0
C491 C 0.8211 0.14744 0.82469 0.0
C492 C 0.8686 0.13301 0.75631 0.0
O493 O 0.85095 0.21488 0.72154 0.0
O494 O 0.85312 0.23485 0.68233 0.0
O495 O 0.75722 0.16484 0.68992 0.0
O496 O 0.77722 0.13234 0.72061 0.0
C497 C 0.86108 0.24541 0.70584 0.0
O498 O 0.80425 0.21084 0.63613 0.0
O499 O 0.76375 0.13775 0.62875 0.0
O500 O 0.76788 0.0921 0.66964 0.0
O501 O 0.82733 0.09104 0.6892 0.0
O502 O 0.90398 0.18001 0.69373 0.0
O503 O 0.86579 0.15979 0.65574 0.0
C504 C 0.75032 0.1457 0.7106 0.0
O505 O 0.83722 0.10174 0.74081 0.0
O506 O 0.89267 0.17065 0.74619 0.0
C507 C 0.80034 0.17936 0.59647 0.0
C508 C 0.83696 0.17959 0.55195 0.0
C509 C 0.8067 0.19621 0.55418 0.0
C510 C 0.78859 0.19615 0.57632 0.0
C511 C 0.83134 0.164 0.59444 0.0
C512 C 0.84973 0.16445 0.57256 0.0
C513 C 0.78037 0.17708 0.61962 0.0
H514 H 0.85122 0.1082 0.83788 0.0
H515 H 0.87841 0.0997 0.79886 0.0
H516 H 0.8237 0.17773 0.76676 0.0
H517 H 0.79514 0.18495 0.80505 0.0
H518 H 0.79579 0.20772 0.53864 0.0
H519 H 0.76476 0.20827 0.57754 0.0
H520 H 0.84057 0.15064 0.60969 0.0
H521 H 0.87344 0.15212 0.57171 0.0
C522 C 0.31625 0.84013 0.05827 0.0
C523 C 0.30178 0.86079 0.07585 0.0
H524 H 0.36466 0.84961 0.0329 0.0
C525 C 0.32693 0.90856 0.08096 0.0
H526 H 0.29912 0.80346 0.05419 0.0
C527 C 0.36558 0.9345 0.06936 0.0
C528 C 0.37931 0.91369 0.05177 0.0
H529 H 0.31686 0.92622 0.09385 0.0
H530 H 0.38472 0.9711 0.07404 0.0
C531 C 0.3541 0.86642 0.04607 0.0
C532 C 0.122 0.45348 0.09329 0.0
C533 C 0.14986 0.44356 0.0794 0.0
H534 H 0.06993 0.47116 0.09337 0.0
C535 C 0.14568 0.44482 0.05398 0.0
H536 H 0.1246 0.45411 0.11288 0.0
C537 C 0.11538 0.45641 0.04293 0.0
C538 C 0.08742 0.46561 0.05688 0.0
H539 H 0.16541 0.43636 0.04241 0.0
H540 H 0.11314 0.45719 0.02339 0.0
C541 C 0.09079 0.46371 0.08213 0.0
C542 C 0.53858 0.69835 0.05354 0.0
C543 C 0.58063 0.72086 0.06717 0.0
H544 H 0.4889 0.63754 0.0328 0.0
C545 C 0.60594 0.69869 0.06955 0.0
H546 H 0.51787 0.71423 0.0518 0.0
C547 C 0.58898 0.65431 0.05889 0.0
C548 C 0.54652 0.6316 0.04567 0.0
H549 H 0.63857 0.71547 0.07983 0.0
H550 H 0.60887 0.63767 0.06129 0.0
C551 C 0.5218 0.65424 0.04279 0.0
C552 C 0.84911 0.29185 0.99301 0.0
C553 C 0.84116 0.28528 0.96752 0.0
H554 H 0.88567 0.33883 0.02419 0.0
C555 C 0.86693 0.32209 0.95388 0.0
H556 H 0.83094 0.26421 1.00417 0.0
C557 C 0.89956 0.3642 0.96541 0.0
C558 C 0.90612 0.37078 0.99079 0.0
H559 H 0.86126 0.31894 0.93428 0.0
H560 H 0.91848 0.39211 0.9545 0.0
C561 C 0.88076 0.33441 1.00453 0.0
C562 C 0.65034 0.53478 0.95265 0.0
C563 C 0.69057 0.54548 0.96638 0.0
H564 H 0.58103 0.51562 0.95277 0.0
C565 C 0.6897 0.54321 0.99181 0.0
H566 H 0.64885 0.53506 0.9331 0.0
C567 C 0.65001 0.53023 1.003 0.0
C568 C 0.61031 0.52044 0.98923 0.0
H569 H 0.71989 0.5523 1.00333 0.0
H570 H 0.65081 0.52942 0.02254 0.0
C571 C 0.61105 0.523 0.96395 0.0
C572 C 0.38414 0.07704 0.97193 0.0
C573 C 0.40041 0.12321 0.97994 0.0
H574 H 0.39227 0.01822 0.97449 0.0
C575 C 0.43632 0.14433 0.99838 0.0
H576 H 0.35607 0.0592 0.9582 0.0
C577 C 0.4555 0.12015 1.00834 0.0
C578 C 0.44039 0.07501 0.99946 0.0
H579 H 0.45102 0.18012 1.00461 0.0
H580 H 0.48344 0.13732 0.02224 0.0
C581 C 0.40456 0.05342 0.98132 0.0
C582 C 0.67198 0.16503 0.98161 0.0
C583 C 0.69033 0.14441 0.96665 0.0
H584 H 0.622 0.15544 1.00592 0.0
C585 C 0.67057 0.09665 0.96485 0.0
H586 H 0.68566 0.2017 0.98313 0.0
C587 C 0.63386 0.0703 0.97768 0.0
C588 C 0.61595 0.09089 0.99289 0.0
H589 H 0.68404 0.0795 0.95392 0.0
H590 H 0.61975 0.03356 0.97577 0.0
C591 C 0.63544 0.1386 0.99472 0.0
C592 C 0.86336 0.535 0.95296 0.0
C593 C 0.83944 0.55067 0.96659 0.0
H594 H 0.91264 0.51354 0.95345 0.0
C595 C 0.84825 0.55722 0.99203 0.0
H596 H 0.85712 0.52914 0.93337 0.0
C597 C 0.87987 0.54806 1.00357 0.0
C598 C 0.90362 0.53216 0.98998 0.0
H599 H 0.83098 0.56994 1.00307 0.0
H600 H 0.88567 0.55352 0.02318 0.0
C601 C 0.89506 0.52584 0.96452 0.0
C602 C 0.43287 0.28751 0.99872 0.0
C603 C 0.39571 0.26777 0.98104 0.0
H604 H 0.48071 0.34773 1.02103 0.0
C605 C 0.37663 0.29427 0.97359 0.0
H606 H 0.44931 0.26884 1.00463 0.0
C607 C 0.39623 0.34014 0.98222 0.0
C608 C 0.43408 0.35973 0.99913 0.0
H609 H 0.34734 0.28008 0.96057 0.0
H610 H 0.38205 0.36044 0.97556 0.0
C611 C 0.45139 0.33291 1.00797 0.0
C612 C 0.13641 0.67962 0.09205 0.0
C613 C 0.15365 0.71727 0.07805 0.0
H614 H 0.09158 0.60818 0.09305 0.0
C615 C 0.13785 0.71065 0.05341 0.0
H616 H 0.14852 0.68337 0.11098 0.0
C617 C 0.10551 0.66727 0.04302 0.0
C618 C 0.08821 0.62976 0.05711 0.0
H619 H 0.15014 0.73903 0.04221 0.0
H620 H 0.09397 0.66324 0.02398 0.0
C621 C 0.10392 0.63643 0.08174 0.0
C622 C 0.29425 0.43767 0.05385 0.0
C623 C 0.29671 0.4442 0.07938 0.0
H624 H 0.32934 0.44358 0.02225 0.0
C625 C 0.33889 0.46204 0.09257 0.0
H626 H 0.26229 0.42326 0.04304 0.0
C627 C 0.3775 0.47362 0.08056 0.0
C628 C 0.37508 0.46759 0.05501 0.0
H629 H 0.34229 0.46796 0.11217 0.0
H630 H 0.4093 0.48754 0.09139 0.0
C631 C 0.33281 0.44924 0.04186 0.0
C632 C 0.53815 0.84607 0.05553 0.0
C633 C 0.57925 0.86652 0.07015 0.0
H634 H 0.49106 0.8561 0.03354 0.0
C635 C 0.60491 0.91424 0.07355 0.0
H636 H 0.51718 0.80926 0.05297 0.0
C637 C 0.58971 0.94103 0.06256 0.0
C638 C 0.54857 0.92054 0.04797 0.0
H639 H 0.63681 0.93083 0.08455 0.0
H640 H 0.6102 0.97785 0.06561 0.0
C641 C 0.52308 0.87282 0.04443 0.0
C642 C 0.00765 0.21389 0.42235 0.0
C643 C 0.96608 0.18694 0.40866 0.0
H644 H 0.07771 0.26052 0.42207 0.0
C645 C 0.96494 0.1855 0.38305 0.0
H646 H 0.0105 0.21511 0.44198 0.0
C647 C 0.0042 0.21055 0.37157 0.0
C648 C 0.04519 0.23832 0.38546 0.0
H649 H 0.93357 0.16577 0.37179 0.0
H650 H 0.00217 0.20965 0.35194 0.0
C651 C 0.04648 0.23952 0.41091 0.0
C652 C 0.78424 0.7834 0.42701 0.0
C653 C 0.81471 0.77726 0.4134 0.0
H654 H 0.72887 0.79625 0.42668 0.0
C655 C 0.81149 0.77982 0.38808 0.0
H656 H 0.78589 0.78279 0.44655 0.0
C657 C 0.77969 0.78917 0.37687 0.0
C658 C 0.74928 0.79484 0.39051 0.0
H659 H 0.83322 0.77414 0.3767 0.0
H660 H 0.77843 0.79122 0.3574 0.0
C661 C 0.75158 0.79145 0.41566 0.0
C662 C 0.22065 0.0399 0.38428 0.0
C663 C 0.25788 0.05933 0.40192 0.0
H664 H 0.1738 0.98072 0.36104 0.0
C665 C 0.27707 0.03271 0.409 0.0
H666 H 0.20383 0.05843 0.37878 0.0
C667 C 0.25811 0.98728 0.39959 0.0
C668 C 0.22082 0.96837 0.38232 0.0
H669 H 0.30625 0.04658 0.42207 0.0
H670 H 0.27259 0.96692 0.40575 0.0
C671 C 0.20287 0.99511 0.37426 0.0
C672 C 0.55161 0.6279 0.30135 0.0
C673 C 0.50541 0.6085 0.30379 0.0
H674 H 0.61723 0.68593 0.30967 0.0
C675 C 0.49023 0.63391 0.3172 0.0
H676 H 0.56446 0.60902 0.29136 0.0
C677 C 0.52046 0.67763 0.32792 0.0
C678 C 0.56655 0.69719 0.32526 0.0
H679 H 0.45482 0.62047 0.31902 0.0
H680 H 0.50752 0.69633 0.33798 0.0
C681 C 0.58186 0.67191 0.31188 0.0
C682 C 0.31891 0.86908 0.28787 0.0
C683 C 0.36081 0.88806 0.30147 0.0
H684 H 0.24807 0.84101 0.28821 0.0
C685 C 0.36216 0.89377 0.32699 0.0
H686 H 0.31632 0.86358 0.26826 0.0
C687 C 0.32277 0.88054 0.33855 0.0
C688 C 0.28081 0.86119 0.32493 0.0
H689 H 0.39384 0.90881 0.33812 0.0
H690 H 0.32532 0.88575 0.35816 0.0
C691 C 0.27955 0.85576 0.29942 0.0
C692 C 0.11487 0.48314 0.32719 0.0
C693 C 0.07326 0.46114 0.31302 0.0
H694 H 0.16487 0.47588 0.34807 0.0
C695 C 0.04969 0.41332 0.30936 0.0
H696 H 0.13441 0.52007 0.32989 0.0
C697 C 0.06753 0.38802 0.31956 0.0
C698 C 0.1092 0.41013 0.33365 0.0
H699 H 0.01747 0.39549 0.29868 0.0
H700 H 0.04868 0.35113 0.3163 0.0
C701 C 0.13251 0.45789 0.33753 0.0
C702 C 0.36381 0.45604 0.32804 0.0
C703 C 0.36122 0.46148 0.30303 0.0
H704 H 0.32807 0.42946 0.35919 0.0
C705 C 0.31869 0.44243 0.29017 0.0
H706 H 0.39608 0.4699 0.33847 0.0
C707 C 0.2798 0.4194 0.30206 0.0
C708 C 0.2823 0.4147 0.32715 0.0
H709 H 0.31536 0.44656 0.27102 0.0
H710 H 0.24772 0.40573 0.29152 0.0
C711 C 0.32483 0.43298 0.33997 0.0
C712 C 0.52926 0.87112 0.28704 0.0
C713 C 0.50747 0.88899 0.30101 0.0
H714 H 0.57566 0.84589 0.28686 0.0
C715 C 0.51737 0.89575 0.32638 0.0
H716 H 0.52211 0.86499 0.26749 0.0
C717 C 0.54785 0.88455 0.33751 0.0
C718 C 0.56934 0.86632 0.32358 0.0
H719 H 0.5018 0.91009 0.33769 0.0
H720 H 0.55445 0.89017 0.35709 0.0
C721 C 0.55981 0.85993 0.29818 0.0
C722 C 0.11119 0.6285 0.32882 0.0
C723 C 0.06872 0.60526 0.31561 0.0
H724 H 0.16175 0.69061 0.34821 0.0
C725 C 0.04341 0.62738 0.31289 0.0
H726 H 0.13191 0.61268 0.33082 0.0
C727 C 0.06088 0.67244 0.3226 0.0
C728 C 0.10389 0.69599 0.3352 0.0
H729 H 0.01043 0.61009 0.30298 0.0
H730 H 0.04098 0.689 0.31987 0.0
C731 C 0.12849 0.67333 0.33862 0.0
C732 C 0.79926 0.00601 0.42504 0.0
C733 C 0.81875 0.04298 0.41067 0.0
H734 H 0.75174 0.93536 0.42639 0.0
C735 C 0.8047 0.03593 0.38576 0.0
H736 H 0.80997 0.01014 0.44421 0.0
C737 C 0.77156 0.99288 0.37547 0.0
C738 C 0.75173 0.9561 0.38993 0.0
H739 H 0.81878 0.06386 0.37428 0.0
H740 H 0.76129 0.98858 0.35623 0.0
C741 C 0.76599 0.9631 0.4148 0.0
C742 C 0.96687 0.78943 0.3885 0.0
C743 C 0.96612 0.7865 0.41388 0.0
H744 H 0.00529 0.80338 0.35762 0.0
C745 C 0.00634 0.79627 0.42737 0.0
H746 H 0.93673 0.78103 0.37712 0.0
C747 C 0.04542 0.80769 0.41587 0.0
C748 C 0.04596 0.81083 0.39063 0.0
H749 H 0.00798 0.79545 0.44689 0.0
H750 H 0.07541 0.81433 0.42685 0.0
C751 C 0.00631 0.80204 0.37714 0.0
C752 C 0.21744 0.1827 0.38428 0.0
C753 C 0.25424 0.20414 0.40223 0.0
H754 H 0.17035 0.18989 0.36038 0.0
C755 C 0.27236 0.25097 0.40916 0.0
H756 H 0.20146 0.14645 0.37887 0.0
C757 C 0.25301 0.27509 0.3992 0.0
C758 C 0.21619 0.25326 0.38159 0.0
H759 H 0.3011 0.26897 0.42248 0.0
H760 H 0.2667 0.31087 0.4053 0.0
C761 C 0.19914 0.20729 0.37376 0.0
C762 C 0.66183 0.57533 0.74656 0.0
C763 C 0.63574 0.52757 0.74167 0.0
H764 H 0.72041 0.63691 0.73923 0.0
C765 C 0.64932 0.50593 0.72415 0.0
H766 H 0.65254 0.5937 0.75946 0.0
C767 C 0.68714 0.53124 0.71172 0.0
C768 C 0.71317 0.57851 0.71711 0.0
H769 H 0.63151 0.4692 0.72027 0.0
H770 H 0.69701 0.51366 0.69862 0.0
C771 C 0.70044 0.60031 0.7347 0.0
C772 C 0.48092 0.11725 0.7218 0.0
C773 C 0.4836 0.11426 0.74713 0.0
H774 H 0.44934 0.13037 0.69108 0.0
C775 C 0.45363 0.12149 0.76064 0.0
H776 H 0.50212 0.11069 0.71044 0.0
C777 C 0.42196 0.13087 0.74919 0.0
C778 C 0.42027 0.13468 0.72406 0.0
H779 H 0.45485 0.12064 0.78015 0.0
H780 H 0.39949 0.13628 0.76011 0.0
C781 C 0.45025 0.12809 0.71053 0.0
C782 C 0.87593 0.36242 0.71784 0.0
C783 C 0.91245 0.3825 0.7359 0.0
H784 H 0.83187 0.30334 0.69372 0.0
C785 C 0.93332 0.35735 0.74289 0.0
H786 H 0.858 0.37989 0.71238 0.0
C787 C 0.91672 0.31262 0.7329 0.0
C788 C 0.88018 0.29302 0.71515 0.0
H789 H 0.9621 0.37187 0.75626 0.0
H790 H 0.93241 0.29332 0.739 0.0
C791 C 0.8605 0.31836 0.70725 0.0
C792 C 0.16051 0.97964 0.64768 0.0
C793 C 0.17528 0.95271 0.63541 0.0
H794 H 0.17872 0.04291 0.66781 0.0
C795 C 0.22158 0.97045 0.63392 0.0
H796 H 0.12507 0.96747 0.64869 0.0
C797 C 0.2524 0.01419 0.64452 0.0
C798 C 0.2375 0.04073 0.65704 0.0
H799 H 0.23406 0.95034 0.6248 0.0
H800 H 0.28787 0.02687 0.64324 0.0
C801 C 0.19128 0.02305 0.6585 0.0
C802 C 0.98466 0.19785 0.62132 0.0
C803 C 0.02665 0.21997 0.635 0.0
H804 H 0.91345 0.16563 0.62146 0.0
C805 C 0.02769 0.2272 0.66041 0.0
H806 H 0.98236 0.19101 0.60182 0.0
C807 C 0.98791 0.21243 0.67179 0.0
C808 C 0.94588 0.18998 0.65811 0.0
H809 H 0.0594 0.24457 0.67156 0.0
H810 H 0.99017 0.21892 0.69132 0.0
C811 C 0.94495 0.18296 0.6327 0.0
C812 C 0.7557 0.76809 0.62814 0.0
C813 C 0.73247 0.78321 0.64264 0.0
H814 H 0.79532 0.73545 0.62653 0.0
C815 C 0.73025 0.77485 0.66728 0.0
H816 H 0.75877 0.77479 0.60922 0.0
C817 C 0.75196 0.75296 0.67738 0.0
C818 C 0.77612 0.73891 0.66298 0.0
H819 H 0.71229 0.78589 0.67883 0.0
H820 H 0.74999 0.7473 0.69646 0.0
C821 C 0.7772 0.74609 0.63819 0.0
C822 C 0.03236 0.80746 0.66235 0.0
C823 C 0.03104 0.80563 0.63671 0.0
H824 H -0.00465 0.78482 0.69362 0.0
C825 C 0.98945 0.77786 0.62315 0.0
H826 H 0.06373 0.82737 0.67358 0.0
C827 C 0.95071 0.75256 0.63478 0.0
C828 C 0.95211 0.75515 0.66025 0.0
H829 H 0.98643 0.77605 0.60352 0.0
H830 H 0.9194 0.73112 0.62376 0.0
C831 C 0.99321 0.78307 0.67397 0.0
C832 C 0.221 0.24952 0.6308 0.0
C833 C 0.17502 0.2234 0.63435 0.0
H834 H 0.28754 0.25972 0.63841 0.0
C835 C 0.16188 0.18678 0.64908 0.0
H836 H 0.23307 0.27859 0.62013 0.0
C837 C 0.19362 0.17751 0.66037 0.0
C838 C 0.23905 0.20345 0.65655 0.0
H839 H 0.12697 0.16474 0.65181 0.0
H840 H 0.18255 0.14944 0.67178 0.0
C841 C 0.25249 0.23911 0.64144 0.0
C842 C 0.7759 0.9541 0.66014 0.0
C843 C 0.73237 0.93038 0.64813 0.0
H844 H 0.82765 0.0168 0.6786 0.0
C845 C 0.70644 0.95204 0.64682 0.0
H846 H 0.79703 0.9386 0.66108 0.0
C847 C 0.72427 0.99712 0.65655 0.0
C848 C 0.76829 0.02124 0.66786 0.0
H849 H 0.67262 0.93438 0.63793 0.0
H850 H 0.70378 0.01325 0.65485 0.0
C851 C 0.7936 -0.00096 0.67002 0.0
C852 C 0.47068 0.37947 0.71942 0.0
C853 C 0.48619 0.38617 0.74411 0.0
H854 H 0.427 0.33199 0.68996 0.0
C855 C 0.46837 0.34869 0.75823 0.0
H856 H 0.48337 0.40774 0.70813 0.0
C857 C 0.43572 0.30556 0.74795 0.0
C858 C 0.42049 0.29878 0.72325 0.0
H859 H 0.48024 0.35247 0.7772 0.0
H860 H 0.42304 0.27741 0.75932 0.0
C861 C 0.43823 0.33614 0.70906 0.0
C862 C 0.63145 0.11793 0.72144 0.0
C863 C 0.63126 0.11571 0.74687 0.0
H864 H 0.6689 0.13 0.69024 0.0
C865 C 0.67129 0.12429 0.7601 0.0
H866 H 0.60133 0.11034 0.71026 0.0
C867 C 0.70973 0.13412 0.74831 0.0
C868 C 0.70979 0.13678 0.72303 0.0
H869 H 0.6733 0.12387 0.77965 0.0
H870 H 0.73966 0.14008 0.75911 0.0
C871 C 0.67027 0.12895 0.70978 0.0
C872 C 0.87346 0.50975 0.71968 0.0
C873 C 0.91338 0.52993 0.73532 0.0
H874 H 0.82757 0.52018 0.69684 0.0
C875 C 0.93884 0.57766 0.73908 0.0
H876 H 0.85266 0.47295 0.71675 0.0
C877 C 0.92421 0.60466 0.7278 0.0
C878 C 0.88384 0.58443 0.71255 0.0
H879 H 0.96994 0.59411 0.75079 0.0
H880 H 0.94432 0.64144 0.73133 0.0
C881 C 0.85896 0.53674 0.70831 0.0
C882 C 0.42887 0.94225 0.21356 0.0
C883 C 0.46159 0.95604 0.23338 0.0
H884 H 0.41407 0.95021 0.17651 0.0
C885 C 0.50538 0.9912 0.23067 0.0
H886 H 0.39486 0.91521 0.2149 0.0
C887 C 0.51651 0.01102 0.20866 0.0
C888 C 0.48423 0.99642 0.18855 0.0
H889 H 0.5314 0.00324 0.24559 0.0
H890 H 0.55092 0.03702 0.20724 0.0
C891 C 0.44007 0.96203 0.19142 0.0
C892 C 0.9772 0.45836 0.22951 0.0
C893 C 0.01235 0.50088 0.23964 0.0
H894 H 0.93552 0.41881 0.19734 0.0
C895 C 0.03347 0.53635 0.22457 0.0
H896 H 0.96041 0.43053 0.2408 0.0
C897 C 0.01938 0.52973 0.19991 0.0
C898 C 0.9838 0.48751 0.18977 0.0
H899 H 0.06109 0.56928 0.23186 0.0
H900 H 0.0359 0.55796 0.18883 0.0
C901 C 0.96282 0.45181 0.20477 0.0
C902 C 0.44765 0.45722 0.22138 0.0
C903 C 0.45088 0.49894 0.22961 0.0
H904 H 0.45654 0.41873 0.19222 0.0
C905 C 0.46338 0.53338 0.21363 0.0
H906 H 0.43821 0.43012 0.23332 0.0
C907 C 0.47436 0.52722 0.1904 0.0
C908 C 0.4728 0.48622 0.1823 0.0
H909 H 0.46573 0.56576 0.21933 0.0
H910 H 0.48557 0.55542 0.17911 0.0
C911 C 0.45868 0.45097 0.19796 0.0
C912 C 0.94592 0.45428 0.82752 0.0
C913 C 0.96533 0.489 0.81182 0.0
H914 H 0.94669 0.43437 0.86346 0.0
C915 C 0.00025 0.53223 0.82127 0.0
H916 H 0.91847 0.4208 0.82087 0.0
C917 C 0.01607 0.54022 0.84583 0.0
C918 C -0.0028 0.50517 0.86142 0.0
H919 H 0.01595 0.55957 0.80957 0.0
H920 H 0.04302 0.57388 0.85262 0.0
C921 C 0.96175 0.46222 0.852 0.0
C922 C 0.53636 0.46573 0.83287 0.0
C923 C 0.5485 0.49906 0.81625 0.0
H924 H 0.51209 0.44464 0.86715 0.0
C925 C 0.54969 0.54029 0.82323 0.0
H926 H 0.53513 0.43359 0.82793 0.0
C927 C 0.53657 0.54689 0.84599 0.0
C928 C 0.52228 0.51245 0.86217 0.0
H929 H 0.55861 0.56637 0.81068 0.0
H930 H 0.53685 0.57859 0.85072 0.0
C931 C 0.52331 0.47222 0.85544 0.0
C932 C 0.48685 0.01122 0.81808 0.0
C933 C 0.53029 0.04628 0.81465 0.0
H934 H 0.44298 0.96594 0.84233 0.0
C935 C 0.56396 0.06077 0.83405 0.0
H936 H 0.46011 -0.00133 0.80353 0.0
C937 C 0.55417 0.04163 0.8564 0.0
C938 C 0.51046 0.00721 0.85998 0.0
H939 H 0.59772 0.08785 0.8322 0.0
H940 H 0.58097 0.0539 0.8709 0.0
C941 C 0.4771 0.99202 0.84035 0.0
C942 C 0.09375 0.27133 0.54614 0.0
C943 C 0.12582 0.28718 0.56639 0.0
H944 H 0.07974 0.27757 0.50864 0.0
C945 C 0.16884 0.32417 0.56414 0.0
H946 H 0.0604 0.24282 0.5472 0.0
C947 C 0.17992 0.34408 0.54216 0.0
C948 C 0.14842 0.32744 0.52164 0.0
H949 H 0.19427 0.33752 0.57942 0.0
H950 H 0.21371 0.37176 0.54108 0.0
C951 C 0.10502 0.291 0.52398 0.0
C952 C 0.68986 0.86223 0.55712 0.0
C953 C 0.66863 0.82661 0.5721 0.0
H954 H 0.69247 0.88423 0.52146 0.0
C955 C 0.63287 0.78448 0.56194 0.0
H956 H 0.71796 0.89486 0.56439 0.0
C957 C 0.61836 0.77831 0.53722 0.0
C958 C 0.63981 0.81399 0.52228 0.0
H959 H 0.61596 0.75653 0.57313 0.0
H960 H 0.59084 0.74549 0.52974 0.0
C961 C 0.67562 0.85599 0.53249 0.0
C962 C 0.13417 0.87138 0.54685 0.0
C963 C 0.12203 0.83825 0.5636 0.0
H964 H 0.15632 0.89113 0.51203 0.0
C965 C 0.11948 0.79639 0.55646 0.0
H966 H 0.13599 0.90382 0.55169 0.0
C967 C 0.13075 0.78874 0.53334 0.0
C968 C 0.14447 0.82273 0.51691 0.0
H969 H 0.11033 0.77028 0.56902 0.0
H970 H 0.12901 0.75639 0.52842 0.0
C971 C 0.14545 0.86387 0.52394 0.0
C972 C 0.67032 0.86595 0.1544 0.0
C973 C 0.63602 0.82322 0.14396 0.0
H974 H 0.71122 0.90537 0.18674 0.0
C975 C 0.61585 0.78704 0.15873 0.0
H976 H 0.68645 0.89436 0.14339 0.0
C977 C 0.63013 0.79318 0.18336 0.0
C978 C 0.66483 0.83567 0.19379 0.0
H979 H 0.58883 0.75391 0.15126 0.0
H980 H 0.6144 0.76438 0.19415 0.0
C981 C 0.68473 0.87208 0.1791 0.0
C982 C 0.21704 0.8723 0.15741 0.0
C983 C 0.2144 0.8304 0.15027 0.0
H984 H 0.20651 0.91188 0.18526 0.0
C985 C 0.20181 0.79705 0.16688 0.0
H986 H 0.22641 0.89847 0.14487 0.0
C987 C 0.18993 0.8043 0.18965 0.0
C988 C 0.19059 0.84534 0.19661 0.0
H989 H 0.19962 0.76448 0.16189 0.0
H990 H 0.17846 0.77678 0.20141 0.0
C991 C 0.20506 0.87965 0.18037 0.0
C992 C 0.22869 0.39675 0.16833 0.0
C993 C 0.19698 0.3786 0.14788 0.0
H994 H 0.24281 0.39349 0.20625 0.0
C995 C 0.15465 0.3407 0.15032 0.0
H996 H 0.26148 0.42608 0.16713 0.0
C997 C 0.144 0.32194 0.17264 0.0
C998 C 0.17516 0.34084 0.19331 0.0
H999 H 0.12951 0.32568 0.13492 0.0
H1000 H 0.11079 0.29329 0.17386 0.0
C1001 C 0.2178 0.37834 0.1908 0.0
C1002 C 0.75963 0.60388 0.87952 0.0
C1003 C 0.79267 0.6174 0.89915 0.0
H1004 H 0.74414 0.61227 0.84269 0.0
C1005 C 0.83642 0.65248 0.89629 0.0
H1006 H 0.72565 0.57688 0.88096 0.0
C1007 C 0.84718 0.67244 0.87429 0.0
C1008 C 0.81454 0.65812 0.85438 0.0
H1009 H 0.8627 0.66437 0.91106 0.0
H1010 H 0.88157 0.69832 0.87274 0.0
C1011 C 0.77043 0.62386 0.85742 0.0
C1012 C 0.31106 0.12237 0.89445 0.0
C1013 C 0.34676 0.16463 0.90446 0.0
H1014 H 0.26881 0.08303 0.86243 0.0
C1015 C 0.36871 0.1997 0.8893 0.0
H1016 H 0.29362 0.09488 0.90585 0.0
C1017 C 0.35461 0.193 0.86463 0.0
C1018 C 0.3182 0.15115 0.85466 0.0
H1019 H 0.39668 0.23243 0.89655 0.0
H1020 H 0.37154 0.22099 0.85345 0.0
C1021 C 0.29671 0.11575 0.86974 0.0
C1022 C 0.79952 0.20654 0.8782 0.0
C1023 C 0.78302 0.17264 0.89454 0.0
H1024 H 0.82521 0.22559 0.84394 0.0
C1025 C 0.77676 0.12918 0.88734 0.0
H1026 H 0.80444 0.2403 0.88316 0.0
C1027 C 0.78856 0.12053 0.86456 0.0
C1028 C 0.80641 0.15507 0.84852 0.0
H1029 H 0.7643 0.10249 0.89962 0.0
H1030 H 0.78396 0.08693 0.85958 0.0
C1031 C 0.81114 0.19796 0.85559 0.0
C1032 C 0.29426 0.18129 0.4945 0.0
C1033 C 0.31418 0.16637 0.47747 0.0
H1034 H 0.29266 0.19905 0.53197 0.0
C1035 C 0.34944 0.15899 0.48554 0.0
H1036 H 0.26676 0.18686 0.48882 0.0
C1037 C 0.36399 0.16558 0.51018 0.0
C1038 C 0.34351 0.17959 0.5273 0.0
H1039 H 0.36561 0.14779 0.47277 0.0
H1040 H 0.39059 0.15865 0.51588 0.0
C1041 C 0.30874 0.18775 0.5192 0.0
C1042 C 0.86562 0.12709 0.49854 0.0
C1043 C 0.87531 0.15918 0.48139 0.0
H1044 H 0.84523 0.10788 0.5337 0.0
C1045 C 0.87517 0.19989 0.488 0.0
H1046 H 0.86558 0.09544 0.49394 0.0
C1047 C 0.86352 0.20726 0.51107 0.0
C1048 C 0.85233 0.17424 0.52795 0.0
H1049 H 0.88228 0.22504 0.47503 0.0
H1050 H 0.8628 0.2385 0.5156 0.0
C1051 C 0.85422 0.13442 0.52143 0.0
C1052 C 0.82211 0.67365 0.48299 0.0
C1053 C 0.8643 0.7118 0.48059 0.0
H1054 H 0.77872 0.62548 0.50638 0.0
C1055 C 0.89642 0.72922 0.50087 0.0
H1056 H 0.79667 0.65908 0.46772 0.0
C1057 C 0.88606 0.70996 0.52315 0.0
C1058 C 0.84348 0.6724 0.52568 0.0
H1059 H 0.92912 0.75871 0.49974 0.0
H1060 H 0.9114 0.72464 0.53846 0.0
C1061 C 0.81192 0.65414 0.50515 0.0
loop_
_geom_bond_atom_site_label_1
_geom_bond_atom_site_label_2
_geom_bond_distance
_geom_bond_site_symmetry_2
_ccdc_geom_bond_type
H0 C3 0.931 . S
H1 C6 0.928 . S
H2 C8 0.930 . S
C3 H0 0.931 . S
C3 C4 1.413 . S
C3 C5 1.360 . S
C4 C3 1.413 . S
C4 C8 1.429 . S
C5 C3 1.360 . S
C5 C6 1.372 . S
C6 H1 0.928 . S
C6 C5 1.372 . S
C6 C7 1.404 . S
C7 C6 1.404 . S
C7 C8 1.391 . S
C8 H2 0.930 . S
C8 C4 1.429 . S
C8 C7 1.391 . S
H9 C12 0.931 . S
H10 C15 0.928 . S
H11 C17 0.930 . S
C12 H9 0.931 . S
C12 C13 1.413 . S
C12 C14 1.360 . S
C13 C12 1.413 . S
C13 C17 1.429 . S
C14 C12 1.360 . S
C14 C15 1.372 . S
C15 H10 0.928 . S
C15 C14 1.372 . S
C15 C16 1.404 . S
C16 C15 1.404 . S
C16 C17 1.391 . S
C17 H11 0.930 . S
C17 C13 1.429 . S
C17 C16 1.391 . S
H18 C21 0.931 . S
H19 C24 0.928 . S
H20 C26 0.930 . S
C21 H18 0.931 . S
C21 C22 1.413 . S
C21 C23 1.360 . S
C22 C21 1.413 . S
C22 C26 1.429 . S
C23 C21 1.360 . S
C23 C24 1.372 . S
C24 H19 0.928 . S
C24 C23 1.372 . S
C24 C25 1.404 . S
C25 C24 1.404 . S
C25 C26 1.391 . S
C26 H20 0.930 . S
C26 C22 1.429 . S
C26 C25 1.391 . S
H27 C30 0.931 . S
H28 C33 0.928 . S
H29 C35 0.930 . S
C30 H27 0.931 . S
C30 C31 1.413 . S
C30 C32 1.360 . S
C31 C30 1.413 . S
C31 C35 1.429 . S
C32 C30 1.360 . S
C32 C33 1.372 . S
C33 H28 0.928 . S
C33 C32 1.372 . S
C33 C34 1.404 . S
C34 C33 1.404 . S
C34 C35 1.391 . S
C35 H29 0.930 . S
C35 C31 1.429 . S
C35 C34 1.391 . S
H36 C39 0.931 . S
H37 C42 0.928 . S
H38 C44 0.930 . S
C39 H36 0.931 . S
C39 C40 1.413 . S
C39 C41 1.360 . S
C40 C39 1.413 . S
C40 C44 1.429 . S
C41 C39 1.360 . S
C41 C42 1.372 . S
C42 H37 0.928 . S
C42 C41 1.372 . S
C42 C43 1.404 . S
C43 C42 1.404 . S
C43 C44 1.391 . S
C44 H38 0.930 . S
C44 C40 1.429 . S
C44 C43 1.391 . S
H45 C48 0.931 . S
H46 C51 0.928 . S
H47 C53 0.930 . S
C48 H45 0.931 . S
C48 C49 1.413 . S
C48 C50 1.360 . S
C49 C48 1.413 . S
C49 C53 1.429 . S
C50 C48 1.360 . S
C50 C51 1.372 . S
C51 H46 0.928 . S
C51 C50 1.372 . S
C51 C52 1.404 . S
C52 C51 1.404 . S
C52 C53 1.391 . S
C53 H47 0.930 . S
C53 C49 1.429 . S
C53 C52 1.391 . S
H54 C57 0.931 . S
H55 C60 0.928 . S
H56 C62 0.930 . S
C57 H54 0.931 . S
C57 C58 1.413 . S
C57 C59 1.360 . S
C58 C57 1.413 . S
C58 C62 1.429 . S
C59 C57 1.360 . S
C59 C60 1.372 . S
C60 H55 0.928 . S
C60 C59 1.372 . S
C60 C61 1.404 . S
C61 C60 1.404 . S
C61 C62 1.391 . S
C62 H56 0.930 . S
C62 C58 1.429 . S
C62 C61 1.391 . S
H63 C66 0.931 . S
H64 C69 0.928 . S
H65 C71 0.930 . S
C66 H63 0.931 . S
C66 C67 1.413 . S
C66 C68 1.360 . S
C67 C66 1.413 . S
C67 C71 1.429 . S
C68 C66 1.360 . S
C68 C69 1.372 . S
C69 H64 0.928 . S
C69 C68 1.372 . S
C69 C70 1.404 . S
C70 C69 1.404 . S
C70 C71 1.391 . S
C71 H65 0.930 . S
C71 C67 1.429 . S
C71 C70 1.391 . S
H72 C75 0.931 . S
H73 C78 0.928 . S
H74 C80 0.930 . S
C75 H72 0.931 . S
C75 C76 1.413 . S
C75 C77 1.360 . S
C76 C75 1.413 . S
C76 C80 1.429 . S
C77 C75 1.360 . S
C77 C78 1.372 . S
C78 H73 0.928 . S
C78 C77 1.372 . S
C78 C79 1.404 . S
C79 C78 1.404 . S
C79 C80 1.391 . S
C80 H74 0.930 . S
C80 C76 1.429 . S
C80 C79 1.391 . S
H81 C84 0.931 . S
H82 C87 0.928 . S
H83 C89 0.930 . S
C84 H81 0.931 . S
C84 C85 1.413 . S
C84 C86 1.360 . S
C85 C84 1.413 . S
C85 C89 1.429 . S
C86 C84 1.360 . S
C86 C87 1.372 . S
C87 H82 0.928 . S
C87 C86 1.372 . S
C87 C88 1.404 . S
C88 C87 1.404 . S
C88 C89 1.391 . S
C89 H83 0.930 . S
C89 C85 1.429 . S
C89 C88 1.391 . S
H90 C93 0.931 . S
H91 C96 0.928 . S
H92 C98 0.930 . S
C93 H90 0.931 . S
C93 C94 1.413 . S
C93 C95 1.360 . S
C94 C93 1.413 . S
C94 C98 1.429 . S
C95 C93 1.360 . S
C95 C96 1.372 . S
C96 H91 0.928 . S
C96 C95 1.372 . S
C96 C97 1.404 . S
C97 C96 1.404 . S
C97 C98 1.391 . S
C98 H92 0.930 . S
C98 C94 1.429 . S
C98 C97 1.391 . S
H99 C102 0.931 . S
H100 C105 0.928 . S
H101 C107 0.930 . S
C102 H99 0.931 . S
C102 C103 1.413 . S
C102 C104 1.360 . S
C103 C102 1.413 . S
C103 C107 1.429 . S
C104 C102 1.360 . S
C104 C105 1.372 . S
C105 H100 0.928 . S
C105 C104 1.372 . S
C105 C106 1.404 . S
C106 C105 1.404 . S
C106 C107 1.391 . S
C107 H101 0.930 . S
C107 C103 1.429 . S
C107 C106 1.391 . S
H108 C111 0.931 . S
H109 C114 0.928 . S
H110 C116 0.930 . S
C111 H108 0.931 . S
C111 C112 1.413 . S
C111 C113 1.360 . S
C112 C111 1.413 . S
C112 C116 1.429 . S
C113 C111 1.360 . S
C113 C114 1.372 . S
C114 H109 0.928 . S
C114 C113 1.372 . S
C114 C115 1.404 . S
C115 C114 1.404 . S
C115 C116 1.391 . S
C116 H110 0.930 . S
C116 C112 1.429 . S
C116 C115 1.391 . S
H117 C120 0.931 . S
H118 C123 0.928 . S
H119 C125 0.930 . S
C120 H117 0.931 . S
C120 C121 1.413 . S
C120 C122 1.360 . S
C121 C120 1.413 . S
C121 C125 1.429 . S
C122 C120 1.360 . S
C122 C123 1.372 . S
C123 H118 0.928 . S
C123 C122 1.372 . S
C123 C124 1.404 . S
C124 C123 1.404 . S
C124 C125 1.391 . S
C125 H119 0.930 . S
C125 C121 1.429 . S
C125 C124 1.391 . S
H126 C129 0.931 . S
H127 C132 0.928 . S
H128 C134 0.930 . S
C129 H126 0.931 . S
C129 C130 1.413 . S
C129 C131 1.360 . S
C130 C129 1.413 . S
C130 C134 1.429 . S
C131 C129 1.360 . S
C131 C132 1.372 . S
C132 H127 0.928 . S
C132 C131 1.372 . S
C132 C133 1.404 . S
C133 C132 1.404 . S
C133 C134 1.391 . S
C134 H128 0.930 . S
C134 C130 1.429 . S
C134 C133 1.391 . S
H135 C138 0.931 . S
H136 C141 0.928 . S
H137 C143 0.930 . S
C138 H135 0.931 . S
C138 C139 1.413 . S
C138 C140 1.360 . S
C139 C138 1.413 . S
C139 C143 1.429 . S
C140 C138 1.360 . S
C140 C141 1.372 . S
C141 H136 0.928 . S
C141 C140 1.372 . S
C141 C142 1.404 . S
C142 C141 1.404 . S
C142 C143 1.391 . S
C143 H137 0.930 . S
C143 C139 1.429 . S
C143 C142 1.391 . S
H144 C147 0.931 . S
H145 C150 0.928 . S
H146 C152 0.930 . S
C147 H144 0.931 . S
C147 C148 1.413 . S
C147 C149 1.360 . S
C148 C147 1.413 . S
C148 C152 1.429 . S
C149 C147 1.360 . S
C149 C150 1.372 . S
C150 H145 0.928 . S
C150 C149 1.372 . S
C150 C151 1.404 . S
C151 C150 1.404 . S
C151 C152 1.391 . S
C152 H146 0.930 . S
C152 C148 1.429 . S
C152 C151 1.391 . S
H153 C156 0.931 . S
H154 C159 0.928 . S
H155 C161 0.930 . S
C156 H153 0.931 . S
C156 C157 1.413 . S
C156 C158 1.360 . S
C157 C156 1.413 . S
C157 C161 1.429 . S
C158 C156 1.360 . S
C158 C159 1.372 . S
C159 H154 0.928 . S
C159 C158 1.372 . S
C159 C160 1.404 . S
C160 C159 1.404 . S
C160 C161 1.391 . S
C161 H155 0.930 . S
C161 C157 1.429 . S
C161 C160 1.391 . S
Tb162 C172 2.825 . S
Tb162 O173 2.347 1_565 S
Tb162 O176 2.366 1_565 S
Tb162 O181 2.418 . S
Tb162 O182 2.400 . S
Tb162 O185 2.479 . S
Tb162 O186 2.471 . S
Eu163 O174 2.418 . S
Eu163 O175 2.384 . S
Eu163 O178 2.479 . S
Eu163 O179 2.471 . S
Eu163 O180 2.347 1_545 S
Eu163 O183 2.366 1_545 S
Eu163 C193 2.825 . S
C164 O180 1.259 . S
C164 O181 1.265 1_554 S
C165 O182 1.237 1_554 S
C165 O183 1.265 . S
C166 C168 1.380 . S
C166 C169 1.374 1_565 S
C166 C172 1.507 . S
C167 C168 1.384 . S
C167 C171 1.387 1_565 S
C167 H194 0.930 . S
C168 C166 1.380 . S
C168 C167 1.384 . S
C168 H195 0.931 . S
C169 C166 1.374 1_545 S
C169 C170 1.390 . S
C169 H196 0.930 . S
C170 C169 1.390 . S
C170 C171 1.391 . S
C170 H197 0.930 . S
C171 C167 1.387 1_545 S
C171 C170 1.391 . S
C172 Tb162 2.825 . S
C172 C166 1.507 . S
C172 O185 1.238 . S
C172 O186 1.247 . S
O173 Tb162 2.347 1_545 S
O173 C177 1.259 . S
O174 Eu163 2.418 . S
O174 C177 1.265 1_554 S
O175 Eu163 2.384 . S
O175 C184 1.255 1_554 S
O176 Tb162 2.366 1_545 S
O176 C184 1.265 . S
C177 O173 1.259 . S
C177 O174 1.265 1_556 S
O178 Eu163 2.479 . S
O178 C193 1.238 . S
O179 Eu163 2.471 . S
O179 C193 1.247 . S
O180 Eu163 2.347 1_565 S
O180 C164 1.259 . S
O181 Tb162 2.418 . S
O181 C164 1.265 1_556 S
O182 Tb162 2.400 . S
O182 C165 1.237 1_556 S
O183 Eu163 2.366 1_565 S
O183 C165 1.265 . S
C184 O175 1.255 1_556 S
C184 O176 1.265 . S
O185 Tb162 2.479 . S
O185 C172 1.238 . S
O186 Tb162 2.471 . S
O186 C172 1.247 . S
C187 C190 1.380 . S
C187 C191 1.374 1_545 S
C187 C193 1.507 . S
C188 C189 1.367 1_565 S
C188 C192 1.408 . S
C189 C188 1.367 1_545 S
C189 C190 1.384 . S
C189 H198 0.930 . S
C190 C187 1.380 . S
C190 C189 1.384 . S
C190 H199 0.931 . S
C191 C187 1.374 1_565 S
C191 C192 1.390 . S
C191 H200 0.930 . S
C192 C188 1.408 . S
C192 C191 1.390 . S
C192 H201 0.930 . S
C193 Eu163 2.825 . S
C193 O178 1.238 . S
C193 O179 1.247 . S
C193 C187 1.507 . S
H194 C167 0.930 . S
H195 C168 0.931 . S
H196 C169 0.930 . S
H197 C170 0.930 . S
H198 C189 0.930 . S
H199 C190 0.931 . S
H200 C191 0.930 . S
H201 C192 0.930 . S
Tb202 C212 2.825 . S
Tb202 O213 2.347 1_455 S
Tb202 O216 2.366 1_455 S
Tb202 O221 2.418 . S
Tb202 O222 2.384 1_556 S
Tb202 O225 2.479 . S
Tb202 O226 2.471 1_455 S
Eu203 O214 2.418 . S
Eu203 O215 2.348 1_554 S
Eu203 O218 2.479 . S
Eu203 O219 2.471 1_655 S
Eu203 O220 2.347 1_655 S
Eu203 O223 2.366 1_655 S
Eu203 C233 2.825 . S
C204 O220 1.259 . S
C204 O221 1.265 1_554 S
C205 O222 1.255 . S
C205 O223 1.265 . S
C206 C208 1.380 . S
C206 C209 1.374 1_455 S
C206 C212 1.507 . S
C207 C208 1.384 . S
C207 C211 1.387 1_455 S
C207 H234 0.930 . S
C208 C206 1.380 . S
C208 C207 1.384 . S
C208 H235 0.931 . S
C209 C206 1.374 1_655 S
C209 C210 1.390 . S
C209 H236 0.930 . S
C210 C209 1.390 . S
C210 C211 1.391 . S
C210 H237 0.930 . S
C211 C207 1.387 1_655 S
C211 C210 1.391 . S
C212 Tb202 2.825 . S
C212 C206 1.507 . S
C212 O225 1.238 . S
C212 O226 1.247 1_455 S
O213 Tb202 2.347 1_655 S
O213 C217 1.259 . S
O214 Eu203 2.418 . S
O214 C217 1.265 1_554 S
O215 Eu203 2.348 1_556 S
O215 C224 1.299 . S
O216 Tb202 2.366 1_655 S
O216 C224 1.265 . S
C217 O213 1.259 . S
C217 O214 1.265 1_556 S
O218 Eu203 2.479 . S
O218 C233 1.238 . S
O219 Eu203 2.471 1_455 S
O219 C233 1.247 1_455 S
O220 Eu203 2.347 1_455 S
O220 C204 1.259 . S
O221 Tb202 2.418 . S
O221 C204 1.265 1_556 S
O222 Tb202 2.384 1_554 S
O222 C205 1.255 . S
O223 Eu203 2.366 1_455 S
O223 C205 1.265 . S
C224 O215 1.299 . S
C224 O216 1.265 . S
O225 Tb202 2.479 . S
O225 C212 1.238 . S
O226 Tb202 2.471 1_655 S
O226 C212 1.247 1_655 S
C227 C230 1.380 . S
C227 C231 1.374 1_655 S
C227 C233 1.507 . S
C228 C229 1.387 1_455 S
C228 C232 1.391 . S
C229 C228 1.387 1_655 S
C229 C230 1.384 . S
C229 H238 0.930 . S
C230 C227 1.380 . S
C230 C229 1.384 . S
C230 H239 0.931 . S
C231 C227 1.374 1_455 S
C231 C232 1.390 . S
C231 H240 0.930 . S
C232 C228 1.391 . S
C232 C231 1.390 . S
C232 H241 0.930 . S
C233 Eu203 2.825 . S
C233 O218 1.238 . S
C233 O219 1.247 1_655 S
C233 C227 1.507 . S
H234 C207 0.930 . S
H235 C208 0.931 . S
H236 C209 0.930 . S
H237 C210 0.930 . S
H238 C229 0.930 . S
H239 C230 0.931 . S
H240 C231 0.930 . S
H241 C232 0.930 . S
Tb242 C252 2.825 . S
Tb242 O253 2.347 . S
Tb242 O256 2.366 . S
Tb242 O261 2.418 . S
Tb242 O262 2.384 . S
Tb242 O265 2.479 . S
Tb242 O266 2.471 . S
Eu243 O254 2.418 . S
Eu243 O255 2.384 1_556 S
Eu243 O258 2.479 . S
Eu243 O259 2.471 . S
Eu243 O260 2.347 . S
Eu243 O263 2.366 . S
Eu243 C273 2.825 . S
C244 O260 1.259 . S
C244 O261 1.265 1_556 S
C245 O262 1.255 1_556 S
C245 O263 1.265 . S
C246 C248 1.380 . S
C246 C249 1.374 . S
C246 C252 1.507 . S
C247 C248 1.384 . S
C247 C251 1.387 . S
C247 H274 0.930 . S
C248 C246 1.380 . S
C248 C247 1.384 . S
C248 H275 0.931 . S
C249 C246 1.374 . S
C249 C250 1.390 . S
C249 H276 0.930 . S
C250 C249 1.390 . S
C250 C251 1.391 . S
C250 H277 0.930 . S
C251 C247 1.387 . S
C251 C250 1.391 . S
C252 Tb242 2.825 . S
C252 C246 1.507 . S
C252 O265 1.238 . S
C252 O266 1.247 . S
O253 Tb242 2.347 . S
O253 C257 1.259 . S
O254 Eu243 2.418 . S
O254 C257 1.265 1_556 S
O255 Eu243 2.384 1_554 S
O255 C264 1.255 . S
O256 Tb242 2.366 . S
O256 C264 1.265 . S
C257 O253 1.259 . S
C257 O254 1.265 1_554 S
O258 Eu243 2.479 . S
O258 C273 1.238 . S
O259 Eu243 2.471 . S
O259 C273 1.247 . S
O260 Eu243 2.347 . S
O260 C244 1.259 . S
O261 Tb242 2.418 . S
O261 C244 1.265 1_554 S
O262 Tb242 2.384 . S
O262 C245 1.255 1_554 S
O263 Eu243 2.366 . S
O263 C245 1.265 . S
C264 O255 1.255 . S
C264 O256 1.265 . S
O265 Tb242 2.479 . S
O265 C252 1.238 . S
O266 Tb242 2.471 . S
O266 C252 1.247 . S
C267 C270 1.380 . S
C267 C271 1.374 . S
C267 C273 1.507 . S
C268 C269 1.387 . S
C268 C272 1.391 . S
C269 C268 1.387 . S
C269 C270 1.384 . S
C269 H278 0.930 . S
C270 C267 1.380 . S
C270 C269 1.384 . S
C270 H279 0.931 . S
C271 C267 1.374 . S
C271 C272 1.390 . S
C271 H280 0.930 . S
C272 C268 1.391 . S
C272 C271 1.390 . S
C272 H281 0.930 . S
C273 Eu243 2.825 . S
C273 O258 1.238 . S
C273 O259 1.247 . S
C273 C267 1.507 . S
H274 C247 0.930 . S
H275 C248 0.931 . S
H276 C249 0.930 . S
H277 C250 0.930 . S
H278 C269 0.930 . S
H279 C270 0.931 . S
H280 C271 0.930 . S
H281 C272 0.930 . S
Tb282 C292 2.825 . S
Tb282 O293 2.347 . S
Tb282 O296 2.366 . S
Tb282 O301 2.418 . S
Tb282 O302 2.384 . S
Tb282 O305 2.479 . S
Tb282 O306 2.471 . S
Eu283 O294 2.418 . S
Eu283 O295 2.384 . S
Eu283 O298 2.479 . S
Eu283 O299 2.471 . S
Eu283 O300 2.347 . S
Eu283 O303 2.366 . S
Eu283 C313 2.825 . S
C284 O300 1.259 . S
C284 O301 1.265 . S
C285 O302 1.255 . S
C285 O303 1.265 . S
C286 C288 1.380 . S
C286 C289 1.374 . S
C286 C292 1.507 . S
C287 C288 1.384 . S
C287 C291 1.387 . S
C287 H314 0.930 . S
C288 C286 1.380 . S
C288 C287 1.384 . S
C288 H315 0.931 . S
C289 C286 1.374 . S
C289 C290 1.390 . S
C289 H316 0.930 . S
C290 C289 1.390 . S
C290 C291 1.391 . S
C290 H317 0.930 . S
C291 C287 1.387 . S
C291 C290 1.391 . S
C292 Tb282 2.825 . S
C292 C286 1.507 . S
C292 O305 1.238 . S
C292 O306 1.247 . S
O293 Tb282 2.347 . S
O293 C297 1.259 . S
O294 Eu283 2.418 . S
O294 C297 1.265 . S
O295 Eu283 2.384 . S
O295 C304 1.255 . S
O296 Tb282 2.366 . S
O296 C304 1.265 . S
C297 O293 1.259 . S
C297 O294 1.265 . S
O298 Eu283 2.479 . S
O298 C313 1.238 . S
O299 Eu283 2.471 . S
O299 C313 1.247 . S
O300 Eu283 2.347 . S
O300 C284 1.259 . S
O301 Tb282 2.418 . S
O301 C284 1.265 . S
O302 Tb282 2.384 . S
O302 C285 1.255 . S
O303 Eu283 2.366 . S
O303 C285 1.265 . S
C304 O295 1.255 . S
C304 O296 1.265 . S
O305 Tb282 2.479 . S
O305 C292 1.238 . S
O306 Tb282 2.471 . S
O306 C292 1.247 . S
C307 C310 1.380 . S
C307 C311 1.374 . S
C307 C313 1.507 . S
C308 C309 1.387 . S
C308 C312 1.391 . S
C309 C308 1.387 . S
C309 C310 1.384 . S
C309 H318 0.930 . S
C310 C307 1.380 . S
C310 C309 1.384 . S
C310 H319 0.931 . S
C311 C307 1.374 . S
C311 C312 1.390 . S
C311 H320 0.930 . S
C312 C308 1.391 . S
C312 C311 1.390 . S
C312 H321 0.930 . S
C313 Eu283 2.825 . S
C313 O298 1.238 . S
C313 O299 1.247 . S
C313 C307 1.507 . S
H314 C287 0.930 . S
H315 C288 0.931 . S
H316 C289 0.930 . S
H317 C290 0.930 . S
H318 C309 0.930 . S
H319 C310 0.931 . S
H320 C311 0.930 . S
H321 C312 0.930 . S
Tb322 C332 2.825 . S
Tb322 O333 2.347 . S
Tb322 O336 2.366 . S
Tb322 O341 2.418 . S
Tb322 O342 2.384 . S
Tb322 O345 2.479 . S
Tb322 O346 2.471 . S
Eu323 O334 2.418 . S
Eu323 O335 2.384 . S
Eu323 O338 2.479 . S
Eu323 O339 2.471 . S
Eu323 O340 2.347 . S
Eu323 O343 2.366 . S
Eu323 C353 2.825 . S
C324 O340 1.259 . S
C324 O341 1.265 . S
C325 O342 1.255 . S
C325 O343 1.265 . S
C326 C328 1.380 . S
C326 C329 1.374 . S
C326 C332 1.507 . S
C327 C328 1.384 . S
C327 C331 1.387 . S
C327 H354 0.930 . S
C328 C326 1.380 . S
C328 C327 1.384 . S
C328 H355 0.931 . S
C329 C326 1.374 . S
C329 C330 1.390 . S
C329 H356 0.930 . S
C330 C329 1.390 . S
C330 C331 1.391 . S
C330 H357 0.930 . S
C331 C327 1.387 . S
C331 C330 1.391 . S
C332 Tb322 2.825 . S
C332 C326 1.507 . S
C332 O345 1.238 . S
C332 O346 1.247 . S
O333 Tb322 2.347 . S
O333 C337 1.259 . S
O334 Eu323 2.418 . S
O334 C337 1.265 . S
O335 Eu323 2.384 . S
O335 C344 1.255 . S
O336 Tb322 2.366 . S
O336 C344 1.265 . S
C337 O333 1.259 . S
C337 O334 1.265 . S
O338 Eu323 2.479 . S
O338 C353 1.238 . S
O339 Eu323 2.471 . S
O339 C353 1.247 . S
O340 Eu323 2.347 . S
O340 C324 1.259 . S
O341 Tb322 2.418 . S
O341 C324 1.265 . S
O342 Tb322 2.384 . S
O342 C325 1.255 . S
O343 Eu323 2.366 . S
O343 C325 1.265 . S
C344 O335 1.255 . S
C344 O336 1.265 . S
O345 Tb322 2.479 . S
O345 C332 1.238 . S
O346 Tb322 2.471 . S
O346 C332 1.247 . S
C347 C350 1.380 . S
C347 C351 1.374 . S
C347 C353 1.507 . S
C348 C349 1.387 . S
C348 C352 1.391 . S
C349 C348 1.387 . S
C349 C350 1.384 . S
C349 H358 0.930 . S
C350 C347 1.380 . S
C350 C349 1.384 . S
C350 H359 0.931 . S
C351 C347 1.374 . S
C351 C352 1.390 . S
C351 H360 0.930 . S
C352 C348 1.391 . S
C352 C351 1.390 . S
C352 H361 0.930 . S
C353 Eu323 2.825 . S
C353 O338 1.238 . S
C353 O339 1.247 . S
C353 C347 1.507 . S
H354 C327 0.930 . S
H355 C328 0.931 . S
H356 C329 0.930 . S
H357 C330 0.930 . S
H358 C349 0.930 . S
H359 C350 0.931 . S
H360 C351 0.930 . S
H361 C352 0.930 . S
Tb362 C372 2.825 . S
Tb362 O373 2.347 . S
Tb362 O376 2.366 . S
Tb362 O381 2.418 . S
Tb362 O382 2.384 . S
Tb362 O385 2.479 . S
Tb362 O386 2.471 . S
Eu363 O374 2.418 . S
Eu363 O375 2.384 . S
Eu363 O378 2.479 . S
Eu363 O379 2.471 . S
Eu363 O380 2.347 . S
Eu363 O383 2.366 . S
Eu363 C393 2.825 . S
C364 O380 1.259 . S
C364 O381 1.265 . S
C365 O382 1.255 . S
C365 O383 1.265 . S
C366 C368 1.380 . S
C366 C369 1.374 . S
C366 C372 1.507 . S
C367 C368 1.384 . S
C367 C371 1.387 . S
C367 H394 0.930 . S
C368 C366 1.380 . S
C368 C367 1.384 . S
C368 H395 0.931 . S
C369 C366 1.374 . S
C369 C370 1.390 . S
C369 H396 0.930 . S
C370 C369 1.390 . S
C370 C371 1.391 . S
C370 H397 0.930 . S
C371 C367 1.387 . S
C371 C370 1.391 . S
C372 Tb362 2.825 . S
C372 C366 1.507 . S
C372 O385 1.238 . S
C372 O386 1.247 . S
O373 Tb362 2.347 . S
O373 C377 1.259 . S
O374 Eu363 2.418 . S
O374 C377 1.265 . S
O375 Eu363 2.384 . S
O375 C384 1.255 . S
O376 Tb362 2.366 . S
O376 C384 1.265 . S
C377 O373 1.259 . S
C377 O374 1.265 . S
O378 Eu363 2.479 . S
O378 C393 1.238 . S
O379 Eu363 2.471 . S
O379 C393 1.247 . S
O380 Eu363 2.347 . S
O380 C364 1.259 . S
O381 Tb362 2.418 . S
O381 C364 1.265 . S
O382 Tb362 2.384 . S
O382 C365 1.255 . S
O383 Eu363 2.366 . S
O383 C365 1.265 . S
C384 O375 1.255 . S
C384 O376 1.265 . S
O385 Tb362 2.479 . S
O385 C372 1.238 . S
O386 Tb362 2.471 . S
O386 C372 1.247 . S
C387 C390 1.380 . S
C387 C391 1.374 . S
C387 C393 1.507 . S
C388 C389 1.387 . S
C388 C392 1.391 . S
C389 C388 1.387 . S
C389 C390 1.384 . S
C389 H398 0.930 . S
C390 C387 1.380 . S
C390 C389 1.384 . S
C390 H399 0.931 . S
C391 C387 1.374 . S
C391 C392 1.390 . S
C391 H400 0.930 . S
C392 C388 1.391 . S
C392 C391 1.390 . S
C392 H401 0.930 . S
C393 Eu363 2.825 . S
C393 O378 1.238 . S
C393 O379 1.247 . S
C393 C387 1.507 . S
H394 C367 0.930 . S
H395 C368 0.931 . S
H396 C369 0.930 . S
H397 C370 0.930 . S
H398 C389 0.930 . S
H399 C390 0.931 . S
H400 C391 0.930 . S
H401 C392 0.930 . S
Tb402 C412 2.825 . S
Tb402 O413 2.347 . S
Tb402 O416 2.366 . S
Tb402 O421 2.418 . S
Tb402 O422 2.384 . S
Tb402 O425 2.479 . S
Tb402 O426 2.471 . S
Eu403 O414 2.418 . S
Eu403 O415 2.384 . S
Eu403 O418 2.479 . S
Eu403 O419 2.471 . S
Eu403 O420 2.347 . S
Eu403 O423 2.366 . S
Eu403 C433 2.825 . S
C404 O420 1.259 . S
C404 O421 1.265 . S
C405 O422 1.255 . S
C405 O423 1.265 . S
C406 C408 1.380 . S
C406 C409 1.374 . S
C406 C412 1.507 . S
C407 C408 1.384 . S
C407 C411 1.387 . S
C407 H434 0.930 . S
C408 C406 1.380 . S
C408 C407 1.384 . S
C408 H435 0.931 . S
C409 C406 1.374 . S
C409 C410 1.390 . S
C409 H436 0.930 . S
C410 C409 1.390 . S
C410 C411 1.391 . S
C410 H437 0.930 . S
C411 C407 1.387 . S
C411 C410 1.391 . S
C412 Tb402 2.825 . S
C412 C406 1.507 . S
C412 O425 1.238 . S
C412 O426 1.247 . S
O413 Tb402 2.347 . S
O413 C417 1.259 . S
O414 Eu403 2.418 . S
O414 C417 1.265 . S
O415 Eu403 2.384 . S
O415 C424 1.255 . S
O416 Tb402 2.366 . S
O416 C424 1.265 . S
C417 O413 1.259 . S
C417 O414 1.265 . S
O418 Eu403 2.479 . S
O418 C433 1.238 . S
O419 Eu403 2.471 . S
O419 C433 1.247 . S
O420 Eu403 2.347 . S
O420 C404 1.259 . S
O421 Tb402 2.418 . S
O421 C404 1.265 . S
O422 Tb402 2.384 . S
O422 C405 1.255 . S
O423 Eu403 2.366 . S
O423 C405 1.265 . S
C424 O415 1.255 . S
C424 O416 1.265 . S
O425 Tb402 2.479 . S
O425 C412 1.238 . S
O426 Tb402 2.471 . S
O426 C412 1.247 . S
C427 C430 1.380 . S
C427 C431 1.374 . S
C427 C433 1.507 . S
C428 C429 1.387 . S
C428 C432 1.391 . S
C429 C428 1.387 . S
C429 C430 1.384 . S
C429 H438 0.930 . S
C430 C427 1.380 . S
C430 C429 1.384 . S
C430 H439 0.931 . S
C431 C427 1.374 . S
C431 C432 1.390 . S
C431 H440 0.930 . S
C432 C428 1.391 . S
C432 C431 1.390 . S
C432 H441 0.930 . S
C433 Eu403 2.825 . S
C433 O418 1.238 . S
C433 O419 1.247 . S
C433 C427 1.507 . S
H434 C407 0.930 . S
H435 C408 0.931 . S
H436 C409 0.930 . S
H437 C410 0.930 . S
H438 C429 0.930 . S
H439 C430 0.931 . S
H440 C431 0.930 . S
H441 C432 0.930 . S
Tb442 C452 2.825 . S
Tb442 O453 2.347 . S
Tb442 O456 2.366 . S
Tb442 O461 2.418 . S
Tb442 O462 2.384 . S
Tb442 O465 2.479 . S
Tb442 O466 2.471 . S
Eu443 O454 2.418 . S
Eu443 O455 2.384 . S
Eu443 O458 2.479 . S
Eu443 O459 2.471 . S
Eu443 O460 2.347 . S
Eu443 O463 2.366 . S
Eu443 C473 2.825 . S
C444 O460 1.259 . S
C444 O461 1.265 . S
C445 O462 1.255 . S
C445 O463 1.265 . S
C446 C448 1.380 . S
C446 C449 1.374 . S
C446 C452 1.507 . S
C447 C448 1.384 . S
C447 C451 1.387 . S
C447 H474 0.930 . S
C448 C446 1.380 . S
C448 C447 1.384 . S
C448 H475 0.931 . S
C449 C446 1.374 . S
C449 C450 1.390 . S
C449 H476 0.930 . S
C450 C449 1.390 . S
C450 C451 1.391 . S
C450 H477 0.930 . S
C451 C447 1.387 . S
C451 C450 1.391 . S
C452 Tb442 2.825 . S
C452 C446 1.507 . S
C452 O465 1.238 . S
C452 O466 1.247 . S
O453 Tb442 2.347 . S
O453 C457 1.259 . S
O454 Eu443 2.418 . S
O454 C457 1.265 . S
O455 Eu443 2.384 . S
O455 C464 1.255 . S
O456 Tb442 2.366 . S
O456 C464 1.265 . S
C457 O453 1.259 . S
C457 O454 1.265 . S
O458 Eu443 2.479 . S
O458 C473 1.238 . S
O459 Eu443 2.471 . S
O459 C473 1.247 . S
O460 Eu443 2.347 . S
O460 C444 1.259 . S
O461 Tb442 2.418 . S
O461 C444 1.265 . S
O462 Tb442 2.384 . S
O462 C445 1.255 . S
O463 Eu443 2.366 . S
O463 C445 1.265 . S
C464 O455 1.255 . S
C464 O456 1.265 . S
O465 Tb442 2.479 . S
O465 C452 1.238 . S
O466 Tb442 2.471 . S
O466 C452 1.247 . S
C467 C470 1.380 . S
C467 C471 1.374 . S
C467 C473 1.507 . S
C468 C469 1.387 . S
C468 C472 1.391 . S
C469 C468 1.387 . S
C469 C470 1.384 . S
C469 H478 0.930 . S
C470 C467 1.380 . S
C470 C469 1.384 . S
C470 H479 0.931 . S
C471 C467 1.374 . S
C471 C472 1.390 . S
C471 H480 0.930 . S
C472 C468 1.391 . S
C472 C471 1.390 . S
C472 H481 0.930 . S
C473 Eu443 2.825 . S
C473 O458 1.238 . S
C473 O459 1.247 . S
C473 C467 1.507 . S
H474 C447 0.930 . S
H475 C448 0.931 . S
H476 C449 0.930 . S
H477 C450 0.930 . S
H478 C469 0.930 . S
H479 C470 0.931 . S
H480 C471 0.930 . S
H481 C472 0.930 . S
Tb482 C492 2.825 . S
Tb482 O493 2.347 . S
Tb482 O496 2.366 . S
Tb482 O501 2.418 . S
Tb482 O502 2.384 . S
Tb482 O505 2.479 . S
Tb482 O506 2.471 . S
Eu483 O494 2.418 . S
Eu483 O495 2.384 . S
Eu483 O498 2.479 . S
Eu483 O499 2.471 . S
Eu483 O500 2.347 . S
Eu483 O503 2.366 . S
Eu483 C513 2.825 . S
C484 O500 1.259 . S
C484 O501 1.265 . S
C485 O502 1.255 . S
C485 O503 1.265 . S
C486 C488 1.380 . S
C486 C489 1.374 . S
C486 C492 1.507 . S
C487 C488 1.384 . S
C487 C491 1.387 . S
C487 H514 0.930 . S
C488 C486 1.380 . S
C488 C487 1.384 . S
C488 H515 0.931 . S
C489 C486 1.374 . S
C489 C490 1.390 . S
C489 H516 0.930 . S
C490 C489 1.390 . S
C490 C491 1.391 . S
C490 H517 0.930 . S
C491 C487 1.387 . S
C491 C490 1.391 . S
C492 Tb482 2.825 . S
C492 C486 1.507 . S
C492 O505 1.238 . S
C492 O506 1.247 . S
O493 Tb482 2.347 . S
O493 C497 1.259 . S
O494 Eu483 2.418 . S
O494 C497 1.265 . S
O495 Eu483 2.384 . S
O495 C504 1.255 . S
O496 Tb482 2.366 . S
O496 C504 1.265 . S
C497 O493 1.259 . S
C497 O494 1.265 . S
O498 Eu483 2.479 . S
O498 C513 1.238 . S
O499 Eu483 2.471 . S
O499 C513 1.247 . S
O500 Eu483 2.347 . S
O500 C484 1.259 . S
O501 Tb482 2.418 . S
O501 C484 1.265 . S
O502 Tb482 2.384 . S
O502 C485 1.255 . S
O503 Eu483 2.366 . S
O503 C485 1.265 . S
C504 O495 1.255 . S
C504 O496 1.265 . S
O505 Tb482 2.479 . S
O505 C492 1.238 . S
O506 Tb482 2.471 . S
O506 C492 1.247 . S
C507 C510 1.380 . S
C507 C511 1.374 . S
C507 C513 1.507 . S
C508 C509 1.387 . S
C508 C512 1.391 . S
C509 C508 1.387 . S
C509 C510 1.384 . S
C509 H518 0.930 . S
C510 C507 1.380 . S
C510 C509 1.384 . S
C510 H519 0.931 . S
C511 C507 1.374 . S
C511 C512 1.390 . S
C511 H520 0.930 . S
C512 C508 1.391 . S
C512 C511 1.390 . S
C512 H521 0.930 . S
C513 Eu483 2.825 . S
C513 O498 1.238 . S
C513 O499 1.247 . S
C513 C507 1.507 . S
H514 C487 0.930 . S
H515 C488 0.931 . S
H516 C489 0.930 . S
H517 C490 0.930 . S
H518 C509 0.930 . S
H519 C510 0.931 . S
H520 C511 0.930 . S
H521 C512 0.930 . S
C522 C523 1.387 . S
C522 H526 0.950 . S
C522 C531 1.390 . S
C523 C522 1.387 . S
C523 C525 1.387 . S
H524 C531 0.950 . S
C525 C523 1.387 . S
C525 C527 1.390 . S
C525 H529 0.950 . S
H526 C522 0.950 . S
C527 C525 1.390 . S
C527 C528 1.387 . S
C527 H530 0.950 . S
C528 C527 1.387 . S
C528 C531 1.387 . S
H529 C525 0.950 . S
H530 C527 0.950 . S
C531 C522 1.390 . S
C531 H524 0.950 . S
C531 C528 1.387 . S
C532 C533 1.387 . S
C532 H536 0.950 . S
C532 C541 1.390 . S
C533 C532 1.387 . S
C533 C535 1.387 . S
H534 C541 0.950 . S
C535 C533 1.387 . S
C535 C537 1.390 . S
C535 H539 0.950 . S
H536 C532 0.950 . S
C537 C535 1.390 . S
C537 C538 1.387 . S
C537 H540 0.950 . S
C538 C537 1.387 . S
C538 C541 1.387 . S
H539 C535 0.950 . S
H540 C537 0.950 . S
C541 C532 1.390 . S
C541 H534 0.950 . S
C541 C538 1.387 . S
C542 C543 1.387 . S
C542 H546 0.950 . S
C542 C551 1.390 . S
C543 C542 1.387 . S
C543 C545 1.387 . S
H544 C551 0.950 . S
C545 C543 1.387 . S
C545 C547 1.390 . S
C545 H549 0.950 . S
H546 C542 0.950 . S
C547 C545 1.390 . S
C547 C548 1.387 . S
C547 H550 0.950 . S
C548 C547 1.387 . S
C548 C551 1.387 . S
H549 C545 0.950 . S
H550 C547 0.950 . S
C551 C542 1.390 . S
C551 H544 0.950 . S
C551 C548 1.387 . S
C552 C553 1.387 . S
C552 H556 0.950 . S
C552 C561 1.390 . S
C553 C552 1.387 . S
C553 C555 1.387 . S
H554 C561 0.950 1_554 S
C555 C553 1.387 . S
C555 C557 1.390 . S
C555 H559 0.950 . S
H556 C552 0.950 . S
C557 C555 1.390 . S
C557 C558 1.387 . S
C557 H560 0.950 . S
C558 C557 1.387 . S
C558 C561 1.387 . S
H559 C555 0.950 . S
H560 C557 0.950 . S
C561 C552 1.390 . S
C561 H554 0.950 1_556 S
C561 C558 1.387 . S
C562 C563 1.387 . S
C562 H566 0.950 . S
C562 C571 1.390 . S
C563 C562 1.387 . S
C563 C565 1.387 . S
H564 C571 0.950 . S
C565 C563 1.387 . S
C565 C567 1.390 . S
C565 H569 0.950 . S
H566 C562 0.950 . S
C567 C565 1.390 . S
C567 C568 1.387 . S
C567 H570 0.950 . S
C568 C567 1.387 . S
C568 C571 1.387 . S
H569 C565 0.950 . S
H570 C567 0.950 . S
C571 C562 1.390 . S
C571 H564 0.950 . S
C571 C568 1.387 . S
C572 C573 1.387 . S
C572 H576 0.950 . S
C572 C581 1.390 . S
C573 C572 1.387 . S
C573 C575 1.387 . S
H574 C581 0.950 . S
C575 C573 1.387 . S
C575 C577 1.390 . S
C575 H579 0.950 . S
H576 C572 0.950 . S
C577 C575 1.390 . S
C577 C578 1.387 . S
C577 H580 0.950 1_556 S
C578 C577 1.387 . S
C578 C581 1.387 . S
H579 C575 0.950 . S
H580 C577 0.950 1_554 S
C581 C572 1.390 . S
C581 H574 0.950 . S
C581 C578 1.387 . S
C582 C583 1.387 . S
C582 H586 0.950 . S
C582 C591 1.390 . S
C583 C582 1.387 . S
C583 C585 1.387 . S
H584 C591 0.950 . S
C585 C583 1.387 . S
C585 C587 1.390 . S
C585 H589 0.950 . S
H586 C582 0.950 . S
C587 C585 1.390 . S
C587 C588 1.387 . S
C587 H590 0.950 . S
C588 C587 1.387 . S
C588 C591 1.387 . S
H589 C585 0.950 . S
H590 C587 0.950 . S
C591 C582 1.390 . S
C591 H584 0.950 . S
C591 C588 1.387 . S
C592 C593 1.387 . S
C592 H596 0.950 . S
C592 C601 1.390 . S
C593 C592 1.387 . S
C593 C595 1.387 . S
H594 C601 0.950 . S
C595 C593 1.387 . S
C595 C597 1.390 . S
C595 H599 0.950 . S
H596 C592 0.950 . S
C597 C595 1.390 . S
C597 C598 1.387 . S
C597 H600 0.950 . S
C598 C597 1.387 . S
C598 C601 1.387 . S
H599 C595 0.950 . S
H600 C597 0.950 . S
C601 C592 1.390 . S
C601 H594 0.950 . S
C601 C598 1.387 . S
C602 C603 1.387 . S
C602 H606 0.950 . S
C602 C611 1.390 . S
C603 C602 1.387 . S
C603 C605 1.387 . S
H604 C611 0.950 . S
C605 C603 1.387 . S
C605 C607 1.390 . S
C605 H609 0.950 . S
H606 C602 0.950 . S
C607 C605 1.390 . S
C607 C608 1.387 . S
C607 H610 0.950 . S
C608 C607 1.387 . S
C608 C611 1.387 . S
H609 C605 0.950 . S
H610 C607 0.950 . S
C611 C602 1.390 . S
C611 H604 0.950 . S
C611 C608 1.387 . S
C612 C613 1.387 . S
C612 H616 0.950 . S
C612 C621 1.390 . S
C613 C612 1.387 . S
C613 C615 1.387 . S
H614 C621 0.950 . S
C615 C613 1.387 . S
C615 C617 1.390 . S
C615 H619 0.950 . S
H616 C612 0.950 . S
C617 C615 1.390 . S
C617 C618 1.387 . S
C617 H620 0.950 1_554 S
C618 C617 1.387 . S
C618 C621 1.387 . S
H619 C615 0.950 . S
H620 C617 0.950 1_556 S
C621 C612 1.390 . S
C621 H614 0.950 . S
C621 C618 1.387 . S
C622 C623 1.387 . S
C622 H626 0.950 . S
C622 C631 1.390 . S
C623 C622 1.387 . S
C623 C625 1.387 . S
H624 C631 0.950 . S
C625 C623 1.387 . S
C625 C627 1.390 . S
C625 H629 0.950 . S
H626 C622 0.950 . S
C627 C625 1.390 . S
C627 C628 1.387 . S
C627 H630 0.950 . S
C628 C627 1.387 . S
C628 C631 1.387 . S
H629 C625 0.950 . S
H630 C627 0.950 . S
C631 C622 1.390 . S
C631 H624 0.950 . S
C631 C628 1.387 . S
C632 C633 1.387 . S
C632 H636 0.950 . S
C632 C641 1.390 . S
C633 C632 1.387 . S
C633 C635 1.387 . S
H634 C641 0.950 . S
C635 C633 1.387 . S
C635 C637 1.390 . S
C635 H639 0.950 . S
H636 C632 0.950 . S
C637 C635 1.390 . S
C637 C638 1.387 . S
C637 H640 0.950 . S
C638 C637 1.387 . S
C638 C641 1.387 . S
H639 C635 0.950 . S
H640 C637 0.950 . S
C641 C632 1.390 . S
C641 H634 0.950 . S
C641 C638 1.387 . S
C642 C643 1.387 . S
C642 H646 0.950 . S
C642 C651 1.390 1_655 S
C643 C642 1.387 . S
C643 C645 1.387 . S
H644 C651 0.950 . S
C645 C643 1.387 . S
C645 C647 1.400 . S
C645 H649 0.950 . S
H646 C642 0.950 . S
C647 C645 1.400 . S
C647 C648 1.382 1_655 S
C647 H650 0.945 1_655 S
C648 C647 1.382 1_455 S
C648 C651 1.387 . S
H649 C645 0.950 . S
H650 C647 0.945 1_455 S
C651 C642 1.390 1_455 S
C651 H644 0.950 . S
C651 C648 1.387 . S
C652 C653 1.387 . S
C652 H656 0.950 . S
C652 C661 1.390 . S
C653 C652 1.387 . S
C653 C655 1.387 . S
H654 C661 0.950 . S
C655 C653 1.387 . S
C655 C657 1.390 . S
C655 H659 0.950 . S
H656 C652 0.950 . S
C657 C655 1.390 . S
C657 C658 1.387 . S
C657 H660 0.950 . S
C658 C657 1.387 . S
C658 C661 1.387 . S
H659 C655 0.950 . S
H660 C657 0.950 . S
C661 C652 1.390 . S
C661 H654 0.950 . S
C661 C658 1.387 . S
C662 C663 1.387 . S
C662 H666 0.950 . S
C662 C671 1.390 1_545 S
C663 C662 1.387 . S
C663 C665 1.387 . S
H664 C671 0.950 . S
C665 C663 1.387 . S
C665 C667 1.390 1_545 S
C665 H669 0.950 . S
H666 C662 0.950 . S
C667 C665 1.390 1_565 S
C667 C668 1.387 . S
C667 H670 0.950 . S
C668 C667 1.387 . S
C668 C671 1.387 . S
H669 C665 0.950 . S
H670 C667 0.950 . S
C671 C662 1.390 1_565 S
C671 H664 0.950 . S
C671 C668 1.387 . S
C672 C673 1.387 . S
C672 H676 0.950 . S
C672 C681 1.390 . S
C673 C672 1.387 . S
C673 C675 1.387 . S
H674 C681 0.950 . S
C675 C673 1.387 . S
C675 C677 1.390 . S
C675 H679 0.950 . S
H676 C672 0.950 . S
C677 C675 1.390 . S
C677 C678 1.387 . S
C677 H680 0.950 . S
C678 C677 1.387 . S
C678 C681 1.387 . S
H679 C675 0.950 . S
H680 C677 0.950 . S
C681 C672 1.390 . S
C681 H674 0.950 . S
C681 C678 1.387 . S
C682 C683 1.387 . S
C682 H686 0.950 . S
C682 C691 1.390 . S
C683 C682 1.387 . S
C683 C685 1.387 . S
H684 C691 0.950 . S
C685 C683 1.387 . S
C685 C687 1.390 . S
C685 H689 0.950 . S
H686 C682 0.950 . S
C687 C685 1.390 . S
C687 C688 1.387 . S
C687 H690 0.950 . S
C688 C687 1.387 . S
C688 C691 1.387 . S
H689 C685 0.950 . S
H690 C687 0.950 . S
C691 C682 1.390 . S
C691 H684 0.950 . S
C691 C688 1.387 . S
C692 C693 1.387 . S
C692 H696 0.950 . S
C692 C701 1.390 . S
C693 C692 1.387 . S
C693 C695 1.387 . S
H694 C701 0.950 . S
C695 C693 1.387 . S
C695 C697 1.390 . S
C695 H699 0.950 . S
H696 C692 0.950 . S
C697 C695 1.390 . S
C697 C698 1.387 . S
C697 H700 0.950 . S
C698 C697 1.387 . S
C698 C701 1.387 . S
H699 C695 0.950 . S
H700 C697 0.950 . S
C701 C692 1.390 . S
C701 H694 0.950 . S
C701 C698 1.387 . S
C702 C703 1.387 . S
C702 H706 0.950 . S
C702 C711 1.390 . S
C703 C702 1.387 . S
C703 C705 1.387 . S
H704 C711 0.950 . S
C705 C703 1.387 . S
C705 C707 1.390 . S
C705 H709 0.950 . S
H706 C702 0.950 . S
C707 C705 1.390 . S
C707 C708 1.387 . S
C707 H710 0.950 . S
C708 C707 1.387 . S
C708 C711 1.387 . S
H709 C705 0.950 . S
H710 C707 0.950 . S
C711 C702 1.390 . S
C711 H704 0.950 . S
C711 C708 1.387 . S
C712 C713 1.387 . S
C712 H716 0.950 . S
C712 C721 1.390 . S
C713 C712 1.387 . S
C713 C715 1.387 . S
H714 C721 0.950 . S
C715 C713 1.387 . S
C715 C717 1.390 . S
C715 H719 0.950 . S
H716 C712 0.950 . S
C717 C715 1.390 . S
C717 C718 1.387 . S
C717 H720 0.950 . S
C718 C717 1.387 . S
C718 C721 1.387 . S
H719 C715 0.950 . S
H720 C717 0.950 . S
C721 C712 1.390 . S
C721 H714 0.950 . S
C721 C718 1.387 . S
C722 C723 1.387 . S
C722 H726 0.950 . S
C722 C731 1.390 . S
C723 C722 1.387 . S
C723 C725 1.387 . S
H724 C731 0.950 . S
C725 C723 1.387 . S
C725 C727 1.390 . S
C725 H729 0.950 . S
H726 C722 0.950 . S
C727 C725 1.390 . S
C727 C728 1.387 . S
C727 H730 0.950 . S
C728 C727 1.387 . S
C728 C731 1.387 . S
H729 C725 0.950 . S
H730 C727 0.950 . S
C731 C722 1.390 . S
C731 H724 0.950 . S
C731 C728 1.387 . S
C732 C733 1.387 . S
C732 H736 0.950 . S
C732 C741 1.390 1_545 S
C733 C732 1.387 . S
C733 C735 1.387 . S
H734 C741 0.950 . S
C735 C733 1.387 . S
C735 C737 1.390 . S
C735 H739 0.950 . S
H736 C732 0.950 . S
C737 C735 1.390 . S
C737 C738 1.387 1_545 S
C737 H740 0.950 1_545 S
C738 C737 1.387 1_565 S
C738 C741 1.387 . S
H739 C735 0.950 . S
H740 C737 0.950 1_565 S
C741 C732 1.390 1_565 S
C741 H734 0.950 . S
C741 C738 1.387 . S
C742 C743 1.387 . S
C742 H746 0.950 . S
C742 C751 1.390 1_655 S
C743 C742 1.387 . S
C743 C745 1.381 1_655 S
H744 C751 0.950 . S
C745 C743 1.381 1_455 S
C745 C747 1.406 . S
C745 H749 0.941 1_455 S
H746 C742 0.950 . S
C747 C745 1.406 . S
C747 C748 1.387 . S
C747 H750 0.950 . S
C748 C747 1.387 . S
C748 C751 1.387 . S
H749 C745 0.941 1_655 S
H750 C747 0.950 . S
C751 C742 1.390 1_455 S
C751 H744 0.950 . S
C751 C748 1.387 . S
C752 C753 1.387 . S
C752 H756 0.950 . S
C752 C761 1.390 . S
C753 C752 1.387 . S
C753 C755 1.387 . S
H754 C761 0.950 . S
C755 C753 1.387 . S
C755 C757 1.390 . S
C755 H759 0.950 . S
H756 C752 0.950 . S
C757 C755 1.390 . S
C757 C758 1.387 . S
C757 H760 0.950 . S
C758 C757 1.387 . S
C758 C761 1.387 . S
H759 C755 0.950 . S
H760 C757 0.950 . S
C761 C752 1.390 . S
C761 H754 0.950 . S
C761 C758 1.387 . S
C762 C763 1.387 . S
C762 H766 0.950 . S
C762 C771 1.390 . S
C763 C762 1.387 . S
C763 C765 1.387 . S
H764 C771 0.950 . S
C765 C763 1.387 . S
C765 C767 1.390 . S
C765 H769 0.950 . S
H766 C762 0.950 . S
C767 C765 1.390 . S
C767 C768 1.387 . S
C767 H770 0.950 . S
C768 C767 1.387 . S
C768 C771 1.387 . S
H769 C765 0.950 . S
H770 C767 0.950 . S
C771 C762 1.390 . S
C771 H764 0.950 . S
C771 C768 1.387 . S
C772 C773 1.387 . S
C772 H776 0.950 . S
C772 C781 1.390 . S
C773 C772 1.387 . S
C773 C775 1.387 . S
H774 C781 0.950 . S
C775 C773 1.387 . S
C775 C777 1.390 . S
C775 H779 0.950 . S
H776 C772 0.950 . S
C777 C775 1.390 . S
C777 C778 1.387 . S
C777 H780 0.950 . S
C778 C777 1.387 . S
C778 C781 1.387 . S
H779 C775 0.950 . S
H780 C777 0.950 . S
C781 C772 1.390 . S
C781 H774 0.950 . S
C781 C778 1.387 . S
C782 C783 1.387 . S
C782 H786 0.950 . S
C782 C791 1.390 . S
C783 C782 1.387 . S
C783 C785 1.387 . S
H784 C791 0.950 . S
C785 C783 1.387 . S
C785 C787 1.390 . S
C785 H789 0.950 . S
H786 C782 0.950 . S
C787 C785 1.390 . S
C787 C788 1.387 . S
C787 H790 0.950 . S
C788 C787 1.387 . S
C788 C791 1.387 . S
H789 C785 0.950 . S
H790 C787 0.950 . S
C791 C782 1.390 . S
C791 H784 0.950 . S
C791 C788 1.387 . S
C792 C793 1.387 . S
C792 H796 0.950 . S
C792 C801 1.390 1_565 S
C793 C792 1.387 . S
C793 C795 1.387 . S
H794 C801 0.950 . S
C795 C793 1.387 . S
C795 C797 1.390 1_565 S
C795 H799 0.950 . S
H796 C792 0.950 . S
C797 C795 1.390 1_545 S
C797 C798 1.387 . S
C797 H800 0.950 . S
C798 C797 1.387 . S
C798 C801 1.387 . S
H799 C795 0.950 . S
H800 C797 0.950 . S
C801 C792 1.390 1_545 S
C801 H794 0.950 . S
C801 C798 1.387 . S
C802 C803 1.387 1_655 S
C802 H806 0.950 . S
C802 C811 1.390 . S
C803 C802 1.387 1_455 S
C803 C805 1.387 . S
H804 C811 0.950 . S
C805 C803 1.387 . S
C805 C807 1.390 1_455 S
C805 H809 0.950 . S
H806 C802 0.950 . S
C807 C805 1.390 1_655 S
C807 C808 1.387 . S
C807 H810 0.950 . S
C808 C807 1.387 . S
C808 C811 1.387 . S
H809 C805 0.950 . S
H810 C807 0.950 . S
C811 C802 1.390 . S
C811 H804 0.950 . S
C811 C808 1.387 . S
C812 C813 1.387 . S
C812 H816 0.950 . S
C812 C821 1.390 . S
C813 C812 1.387 . S
C813 C815 1.387 . S
H814 C821 0.950 . S
C815 C813 1.387 . S
C815 C817 1.390 . S
C815 H819 0.950 . S
H816 C812 0.950 . S
C817 C815 1.390 . S
C817 C818 1.387 . S
C817 H820 0.950 . S
C818 C817 1.387 . S
C818 C821 1.387 . S
H819 C815 0.950 . S
H820 C817 0.950 . S
C821 C812 1.390 . S
C821 H814 0.950 . S
C821 C818 1.387 . S
C822 C823 1.387 . S
C822 H826 0.950 . S
C822 C831 1.390 . S
C823 C822 1.387 . S
C823 C825 1.387 . S
H824 C831 0.941 1_655 S
C825 C823 1.387 . S
C825 C827 1.390 1_455 S
C825 H829 0.950 . S
H826 C822 0.950 . S
C827 C825 1.390 1_655 S
C827 C828 1.387 . S
C827 H830 0.950 . S
C828 C827 1.387 . S
C828 C831 1.387 1_655 S
H829 C825 0.950 . S
H830 C827 0.950 . S
C831 C822 1.390 . S
C831 H824 0.941 1_455 S
C831 C828 1.387 1_455 S
C832 C833 1.387 . S
C832 H836 0.950 . S
C832 C841 1.390 . S
C833 C832 1.387 . S
C833 C835 1.387 . S
H834 C841 0.950 . S
C835 C833 1.387 . S
C835 C837 1.390 . S
C835 H839 0.950 . S
H836 C832 0.950 . S
C837 C835 1.390 . S
C837 C838 1.387 . S
C837 H840 0.950 . S
C838 C837 1.387 . S
C838 C841 1.387 . S
H839 C835 0.950 . S
H840 C837 0.950 . S
C841 C832 1.390 . S
C841 H834 0.950 . S
C841 C838 1.387 . S
C842 C843 1.387 . S
C842 H846 0.950 . S
C842 C851 1.390 1_565 S
C843 C842 1.387 . S
C843 C845 1.387 . S
H844 C851 0.950 . S
C845 C843 1.387 . S
C845 C847 1.390 1_565 S
C845 H849 0.950 . S
H846 C842 0.950 . S
C847 C845 1.390 1_545 S
C847 C848 1.387 . S
C847 H850 0.950 . S
C848 C847 1.387 . S
C848 C851 1.387 . S
H849 C845 0.950 . S
H850 C847 0.950 . S
C851 C842 1.390 1_545 S
C851 H844 0.950 . S
C851 C848 1.387 . S
C852 C853 1.387 . S
C852 H856 0.950 . S
C852 C861 1.390 . S
C853 C852 1.387 . S
C853 C855 1.387 . S
H854 C861 0.950 . S
C855 C853 1.387 . S
C855 C857 1.390 . S
C855 H859 0.950 . S
H856 C852 0.950 . S
C857 C855 1.390 . S
C857 C858 1.387 . S
C857 H860 0.950 . S
C858 C857 1.387 . S
C858 C861 1.387 . S
H859 C855 0.950 . S
H860 C857 0.950 . S
C861 C852 1.390 . S
C861 H854 0.950 . S
C861 C858 1.387 . S
C862 C863 1.387 . S
C862 H866 0.950 . S
C862 C871 1.390 . S
C863 C862 1.387 . S
C863 C865 1.387 . S
H864 C871 0.950 . S
C865 C863 1.387 . S
C865 C867 1.390 . S
C865 H869 0.950 . S
H866 C862 0.950 . S
C867 C865 1.390 . S
C867 C868 1.387 . S
C867 H870 0.950 . S
C868 C867 1.387 . S
C868 C871 1.387 . S
H869 C865 0.950 . S
H870 C867 0.950 . S
C871 C862 1.390 . S
C871 H864 0.950 . S
C871 C868 1.387 . S
C872 C873 1.387 . S
C872 H876 0.950 . S
C872 C881 1.390 . S
C873 C872 1.387 . S
C873 C875 1.387 . S
H874 C881 0.950 . S
C875 C873 1.387 . S
C875 C877 1.390 . S
C875 H879 0.950 . S
H876 C872 0.950 . S
C877 C875 1.390 . S
C877 C878 1.387 . S
C877 H880 0.950 . S
C878 C877 1.387 . S
C878 C881 1.387 . S
H879 C875 0.950 . S
H880 C877 0.950 . S
C881 C872 1.390 . S
C881 H874 0.950 . S
C881 C878 1.387 . S
C882 C883 1.387 . S
C882 H886 0.950 . S
C882 C891 1.390 . S
C883 C882 1.387 . S
C883 C885 1.387 1_565 S
H884 C891 0.950 . S
C885 C883 1.387 1_545 S
C885 C887 1.390 . S
C885 H889 0.950 . S
H886 C882 0.950 . S
C887 C885 1.390 . S
C887 C888 1.387 1_545 S
C887 H890 0.950 . S
C888 C887 1.387 1_565 S
C888 C891 1.387 . S
H889 C885 0.950 . S
H890 C887 0.950 . S
C891 C882 1.390 . S
C891 H884 0.950 . S
C891 C888 1.387 . S
C892 C893 1.387 . S
C892 H896 0.948 . S
C892 C901 1.390 . S
C893 C892 1.387 . S
C893 C895 1.387 . S
H894 C901 0.950 . S
C895 C893 1.387 . S
C895 C897 1.390 . S
C895 H899 0.950 . S
H896 C892 0.948 . S
C897 C895 1.390 . S
C897 C898 1.387 . S
C897 H900 0.950 . S
C898 C897 1.387 . S
C898 C901 1.387 . S
H899 C895 0.950 . S
H900 C897 0.950 . S
C901 C892 1.390 . S
C901 H894 0.950 . S
C901 C898 1.387 . S
C902 C903 1.387 . S
C902 H906 0.950 . S
C902 C911 1.390 . S
C903 C902 1.387 . S
C903 C905 1.387 . S
H904 C911 0.950 . S
C905 C903 1.387 . S
C905 C907 1.390 . S
C905 H909 0.950 . S
H906 C902 0.950 . S
C907 C905 1.390 . S
C907 C908 1.387 . S
C907 H910 0.950 . S
C908 C907 1.387 . S
C908 C911 1.387 . S
H909 C905 0.950 . S
H910 C907 0.950 . S
C911 C902 1.390 . S
C911 H904 0.950 . S
C911 C908 1.387 . S
C912 C913 1.387 . S
C912 H916 0.950 . S
C912 C921 1.390 . S
C913 C912 1.387 . S
C913 C915 1.387 . S
H914 C921 0.950 . S
C915 C913 1.387 . S
C915 C917 1.390 . S
C915 H919 0.950 1_655 S
H916 C912 0.950 . S
C917 C915 1.390 . S
C917 C918 1.387 . S
C917 H920 0.950 1_655 S
C918 C917 1.387 . S
C918 C921 1.387 . S
H919 C915 0.950 1_455 S
H920 C917 0.950 1_455 S
C921 C912 1.390 . S
C921 H914 0.950 . S
C921 C918 1.387 . S
C922 C923 1.387 . S
C922 H926 0.950 . S
C922 C931 1.390 . S
C923 C922 1.387 . S
C923 C925 1.387 . S
H924 C931 0.950 . S
C925 C923 1.387 . S
C925 C927 1.390 . S
C925 H929 0.950 . S
H926 C922 0.950 . S
C927 C925 1.390 . S
C927 C928 1.387 . S
C927 H930 0.950 . S
C928 C927 1.387 . S
C928 C931 1.387 . S
H929 C925 0.950 . S
H930 C927 0.950 . S
C931 C922 1.390 . S
C931 H924 0.950 . S
C931 C928 1.387 . S
C932 C933 1.376 1_565 S
C932 H936 0.956 . S
C932 C941 1.395 . S
C933 C932 1.376 1_545 S
C933 C935 1.387 . S
H934 C941 0.950 . S
C935 C933 1.387 . S
C935 C937 1.390 . S
C935 H939 0.950 . S
H936 C932 0.956 . S
C937 C935 1.390 . S
C937 C938 1.387 . S
C937 H940 0.950 . S
C938 C937 1.387 . S
C938 C941 1.387 1_545 S
H939 C935 0.950 . S
H940 C937 0.950 . S
C941 C932 1.395 . S
C941 H934 0.950 . S
C941 C938 1.387 1_565 S
C942 C943 1.387 . S
C942 H946 0.950 . S
C942 C951 1.390 . S
C943 C942 1.387 . S
C943 C945 1.387 . S
H944 C951 0.950 . S
C945 C943 1.387 . S
C945 C947 1.390 . S
C945 H949 0.950 . S
H946 C942 0.950 . S
C947 C945 1.390 . S
C947 C948 1.387 . S
C947 H950 0.950 . S
C948 C947 1.387 . S
C948 C951 1.387 . S
H949 C945 0.950 . S
H950 C947 0.950 . S
C951 C942 1.390 . S
C951 H944 0.950 . S
C951 C948 1.387 . S
C952 C953 1.387 . S
C952 H956 0.950 . S
C952 C961 1.390 . S
C953 C952 1.387 . S
C953 C955 1.387 . S
H954 C961 0.950 . S
C955 C953 1.387 . S
C955 C957 1.390 . S
C955 H959 0.950 . S
H956 C952 0.950 . S
C957 C955 1.390 . S
C957 C958 1.387 . S
C957 H960 0.950 . S
C958 C957 1.387 . S
C958 C961 1.387 . S
H959 C955 0.950 . S
H960 C957 0.950 . S
C961 C952 1.390 . S
C961 H954 0.950 . S
C961 C958 1.387 . S
C962 C963 1.387 . S
C962 H966 0.950 . S
C962 C971 1.390 . S
C963 C962 1.387 . S
C963 C965 1.387 . S
H964 C971 0.950 . S
C965 C963 1.387 . S
C965 C967 1.390 . S
C965 H969 0.950 . S
H966 C962 0.950 . S
C967 C965 1.390 . S
C967 C968 1.387 . S
C967 H970 0.950 . S
C968 C967 1.387 . S
C968 C971 1.387 . S
H969 C965 0.950 . S
H970 C967 0.950 . S
C971 C962 1.390 . S
C971 H964 0.950 . S
C971 C968 1.387 . S
C972 C973 1.387 . S
C972 H976 0.950 . S
C972 C981 1.390 . S
C973 C972 1.387 . S
C973 C975 1.387 . S
H974 C981 0.950 . S
C975 C973 1.387 . S
C975 C977 1.390 . S
C975 H979 0.950 . S
H976 C972 0.950 . S
C977 C975 1.390 . S
C977 C978 1.387 . S
C977 H980 0.950 . S
C978 C977 1.387 . S
C978 C981 1.387 . S
H979 C975 0.950 . S
H980 C977 0.950 . S
C981 C972 1.390 . S
C981 H974 0.950 . S
C981 C978 1.387 . S
C982 C983 1.387 . S
C982 H986 0.950 . S
C982 C991 1.390 . S
C983 C982 1.387 . S
C983 C985 1.387 . S
H984 C991 0.950 . S
C985 C983 1.387 . S
C985 C987 1.390 . S
C985 H989 0.950 . S
H986 C982 0.950 . S
C987 C985 1.390 . S
C987 C988 1.387 . S
C987 H990 0.950 . S
C988 C987 1.387 . S
C988 C991 1.387 . S
H989 C985 0.950 . S
H990 C987 0.950 . S
C991 C982 1.390 . S
C991 H984 0.950 . S
C991 C988 1.387 . S
C992 C993 1.387 . S
C992 H996 0.950 . S
C992 C1001 1.390 . S
C993 C992 1.387 . S
C993 C995 1.387 . S
H994 C1001 0.950 . S
C995 C993 1.387 . S
C995 C997 1.390 . S
C995 H999 0.950 . S
H996 C992 0.950 . S
C997 C995 1.390 . S
C997 C998 1.387 . S
C997 H1000 0.950 . S
C998 C997 1.387 . S
C998 C1001 1.387 . S
H999 C995 0.950 . S
H1000 C997 0.950 . S
C1001 C992 1.390 . S
C1001 H994 0.950 . S
C1001 C998 1.387 . S
C1002 C1003 1.387 . S
C1002 H1006 0.950 . S
C1002 C1011 1.390 . S
C1003 C1002 1.387 . S
C1003 C1005 1.387 . S
H1004 C1011 0.950 . S
C1005 C1003 1.387 . S
C1005 C1007 1.390 . S
C1005 H1009 0.950 . S
H1006 C1002 0.950 . S
C1007 C1005 1.390 . S
C1007 C1008 1.387 . S
C1007 H1010 0.950 . S
C1008 C1007 1.387 . S
C1008 C1011 1.387 . S
H1009 C1005 0.950 . S
H1010 C1007 0.950 . S
C1011 C1002 1.390 . S
C1011 H1004 0.950 . S
C1011 C1008 1.387 . S
C1012 C1013 1.387 . S
C1012 H1016 0.950 . S
C1012 C1021 1.390 . S
C1013 C1012 1.387 . S
C1013 C1015 1.387 . S
H1014 C1021 0.950 . S
C1015 C1013 1.387 . S
C1015 C1017 1.390 . S
C1015 H1019 0.950 . S
H1016 C1012 0.950 . S
C1017 C1015 1.390 . S
C1017 C1018 1.387 . S
C1017 H1020 0.950 . S
C1018 C1017 1.387 . S
C1018 C1021 1.387 . S
H1019 C1015 0.950 . S
H1020 C1017 0.950 . S
C1021 C1012 1.390 . S
C1021 H1014 0.950 . S
C1021 C1018 1.387 . S
C1022 C1023 1.387 . S
C1022 H1026 0.950 . S
C1022 C1031 1.390 . S
C1023 C1022 1.387 . S
C1023 C1025 1.387 . S
H1024 C1031 0.950 . S
C1025 C1023 1.387 . S
C1025 C1027 1.390 . S
C1025 H1029 0.950 . S
H1026 C1022 0.950 . S
C1027 C1025 1.390 . S
C1027 C1028 1.387 . S
C1027 H1030 0.950 . S
C1028 C1027 1.387 . S
C1028 C1031 1.387 . S
H1029 C1025 0.950 . S
H1030 C1027 0.950 . S
C1031 C1022 1.390 . S
C1031 H1024 0.950 . S
C1031 C1028 1.387 . S
C1032 C1033 1.387 . S
C1032 H1036 0.950 . S
C1032 C1041 1.390 . S
C1033 C1032 1.387 . S
C1033 C1035 1.387 . S
H1034 C1041 0.950 . S
C1035 C1033 1.387 . S
C1035 C1037 1.390 . S
C1035 H1039 0.950 . S
H1036 C1032 0.950 . S
C1037 C1035 1.390 . S
C1037 C1038 1.387 . S
C1037 H1040 0.950 . S
C1038 C1037 1.387 . S
C1038 C1041 1.387 . S
H1039 C1035 0.950 . S
H1040 C1037 0.950 . S
C1041 C1032 1.390 . S
C1041 H1034 0.950 . S
C1041 C1038 1.387 . S
C1042 C1043 1.387 . S
C1042 H1046 0.950 . S
C1042 C1051 1.390 . S
C1043 C1042 1.387 . S
C1043 C1045 1.387 . S
H1044 C1051 0.950 . S
C1045 C1043 1.387 . S
C1045 C1047 1.390 . S
C1045 H1049 0.950 . S
H1046 C1042 0.950 . S
C1047 C1045 1.390 . S
C1047 C1048 1.387 . S
C1047 H1050 0.950 . S
C1048 C1047 1.387 . S
C1048 C1051 1.387 . S
H1049 C1045 0.950 . S
H1050 C1047 0.950 . S
C1051 C1042 1.390 . S
C1051 H1044 0.950 . S
C1051 C1048 1.387 . S
C1052 C1053 1.387 . S
C1052 H1056 0.950 . S
C1052 C1061 1.390 . S
C1053 C1052 1.387 . S
C1053 C1055 1.387 . S
H1054 C1061 0.950 . S
C1055 C1053 1.387 . S
C1055 C1057 1.390 . S
C1055 H1059 0.950 . S
H1056 C1052 0.950 . S
C1057 C1055 1.390 . S
C1057 C1058 1.387 . S
C1057 H1060 0.950 . S
C1058 C1057 1.387 . S
C1058 C1061 1.387 . S
H1059 C1055 0.950 . S
H1060 C1057 0.950 . S
C1061 C1052 1.390 . S
C1061 H1054 0.950 . S
C1061 C1058 1.387 . S
C523 C124 1.569 . S
C528 C165 1.588 . S
C533 C130 1.685 . S
C538 C205 1.691 . S
C543 C115 1.569 . S
C548 C257 1.584 . S
C553 C106 1.495 . S
C558 C217 1.500 . S
C568 C245 1.485 . S
C563 C85 1.470 . S
C573 C97 1.375 . S
C578 C177 1.400 . S
C588 C184 1.608 . S
C583 C103 1.587 . S
C598 C224 1.673 . S
C593 C88 1.664 . S
C603 C94 1.570 . S
C608 C244 1.584 . S
C613 C121 1.495 . S
C618 C204 1.498 . S
C623 C133 1.450 . S
C628 C264 1.464 . S
C638 C164 1.418 . S
C633 C112 1.392 . S
C648 C285 1.589 . S
C643 C16 1.571 . S
C653 C22 1.685 . S
C658 C325 1.692 . S
C663 C7 1.569 . S
C668 C377 1.585 . S
C673 C160 1.497 . S
C678 C337 1.500 . S
C683 C139 1.470 . S
C688 C365 1.484 . S
C693 C151 1.373 . S
C698 C297 1.399 . S
C703 C157 1.588 . S
C708 C304 1.608 . S
C713 C142 1.664 . S
C718 C344 1.674 . S
C728 C364 1.584 . S
C723 C148 1.570 . S
C733 C13 1.494 . S
C738 C324 1.497 . S
C748 C384 1.464 . S
C743 C25 1.450 . S
C753 C4 1.392 . S
C758 C284 1.418 . S
C768 C405 1.589 . S
C763 C70 1.571 . S
C773 C76 1.685 . S
C778 C445 1.692 . S
C788 C497 1.584 . S
C783 C61 1.569 . S
C798 C457 1.498 . S
C793 C52 1.495 . S
C808 C485 1.484 . S
C803 C31 1.470 . S
C813 C43 1.375 . S
C818 C417 1.400 . S
C823 C49 1.588 . S
C828 C424 1.608 . S
C833 C34 1.663 . S
C838 C464 1.673 . S
C848 C484 1.584 . S
C843 C40 1.571 . S
C853 C67 1.495 . S
C858 C444 1.496 . S
C863 C79 1.450 . S
C868 C504 1.464 . S
C873 C58 1.392 . S
C878 C404 1.419 . S
C883 C140 1.500 . S
C888 C188 1.480 . S
C898 C228 1.680 . S
C893 C149 1.703 . S
C903 C158 1.548 . S
C908 C251 1.542 . S
C913 C59 1.720 . S
C918 C211 1.694 . S
C923 C68 1.532 . S
C928 C268 1.527 . S
C938 C171 1.475 . S
C933 C77 1.500 . S
C943 C32 1.500 . S
C948 C308 1.474 . S
C953 C41 1.704 . S
C958 C348 1.682 . S
C963 C50 1.547 . S
C968 C371 1.541 . S
C973 C113 1.721 . S
C978 C331 1.696 . S
C988 C388 1.526 . S
C983 C122 1.532 . S
C993 C131 1.499 . S
C998 C291 1.473 . S
C1003 C86 1.500 . S
C1008 C428 1.473 . S
C1013 C95 1.703 . S
C1018 C468 1.679 . S
C1028 C491 1.541 . S
C1023 C104 1.547 . S
C1033 C5 1.721 . S
C1038 C451 1.696 . S
C1043 C14 1.533 . S
C1048 C508 1.527 . S
C1053 C23 1.500 . S
C1058 C411 1.475 . S
