# Generated by pormake.
# Topology pts, (4,4)-cn, num edge types: 1
# Building blocks:
#     Node 0, Type 0, BuildingBlock: MUDLON_clean_linker_0, # of connection points: 4
#     Node 1, Type 0, BuildingBlock: MUDLON_clean_linker_0, # of connection points: 4
#     Node 2, Type 1, BuildingBlock: UXUYUI_clean_sbu_0, # of connection points: 4
#     Node 3, Type 1, BuildingBlock: UXUYUI_clean_sbu_0, # of connection points: 4
#     Edge 4, Type (0, 1), BuildingBlock: TEMPAE_clean_linker_10, # of connection points: 2
#     Edge 5, Type (0, 1), BuildingBlock: TEMPAE_clean_linker_10, # of connection points: 2
#     Edge 6, Type (0, 1), BuildingBlock: TEMPAE_clean_linker_10, # of connection points: 2
#     Edge 7, Type (0, 1), BuildingBlock: TEMPAE_clean_linker_10, # of connection points: 2
#     Edge 8, Type (0, 1), BuildingBlock: TEMPAE_clean_linker_10, # of connection points: 2
#     Edge 9, Type (0, 1), BuildingBlock: TEMPAE_clean_linker_10, # of connection points: 2
#     Edge 10, Type (0, 1), BuildingBlock: TEMPAE_clean_linker_10, # of connection points: 2
#     Edge 11, Type (0, 1), BuildingBlock: TEMPAE_clean_linker_10, # of connection points: 2
# Relax obj value: 0.012
# Max RMSD: 0.056
# Mean RMSD: 0.052
data_MOF--net-pts--node1-UXUYUI_clean_sbu_0--node2-MUDLON_clean_linker_0--edge1-TEMPAE_clean_linker_10
_symmetry_space_group_name_H-M    P1
_symmetry_Int_Tables_number       1
_symmetry_cell_setting            triclinic
loop_
_symmetry_equiv_pos_as_xyz
'x, y, z'
_cell_length_a     40.848817
_cell_length_b     40.837081
_cell_length_c     52.277199
_cell_angle_alpha  89.985704
_cell_angle_beta   90.033735
_cell_angle_gamma 90.004024
loop_
_atom_site_label
_atom_site_type_symbol
_atom_site_fract_x
_atom_site_fract_y
_atom_site_fract_z
_atom_type_partial_charge
H0 H 0.64398 0.02666 0.02449 0.0
N1 N 0.61606 0.96822 0.01056 0.0
H2 H 0.6801 0.03587 0.06064 0.0
H3 H 0.6301 0.92645 0.04788 0.0
H4 H 0.66849 0.93459 0.08316 0.0
H5 H 0.65405 0.92209 0.99094 0.0
H6 H 0.69437 0.92803 0.9566 0.0
H7 H 0.62319 0.02196 0.97955 0.0
H8 H 0.66348 0.02811 0.94517 0.0
H9 H 0.58858 0.0284 0.02156 0.0
H10 H 0.56694 0.93089 0.99485 0.0
H11 H 0.53119 0.04283 0.01855 0.0
H12 H 0.50914 0.94567 0.99059 0.0
H13 H 0.36789 0.07914 0.03579 0.0
H14 H 0.33074 0.07541 0.07257 0.0
H15 H 0.31129 0.97422 0.05395 0.0
H16 H 0.34814 0.97809 0.01757 0.0
H17 H 0.367 0.97681 0.97449 0.0
H18 H 0.32737 0.97059 0.93977 0.0
H19 H 0.31179 0.07531 0.93953 0.0
H20 H 0.35031 0.08094 0.97508 0.0
H21 H 0.43098 0.06968 0.98839 0.0
H22 H 0.48877 0.05411 0.98918 0.0
H23 H 0.4616 0.95721 0.01494 0.0
N24 N 0.37966 0.03346 0.00083 0.0
H25 H 0.40413 0.97258 0.01288 0.0
C26 C 0.63365 0.97589 0.03374 0.0
C27 C 0.64801 0.00677 0.03776 0.0
C28 C 0.66936 0.01182 0.05826 0.0
C29 C 0.67773 0.98589 0.07477 0.0
C30 C 0.66238 0.95534 0.07118 0.0
C31 C 0.64047 0.95054 0.05097 0.0
C32 C 0.6356 0.9714 0.98775 0.0
C33 C 0.65557 0.94507 0.98065 0.0
C34 C 0.67871 0.9486 0.96123 0.0
C35 C 0.68223 0.97863 0.94842 0.0
C36 C 0.66115 0.00464 0.95467 0.0
C37 C 0.63812 0.00115 0.9743 0.0
C38 C 0.58223 0.97819 0.00875 0.0
C39 C 0.57164 0.00998 0.01499 0.0
C40 C 0.53857 0.0184 0.01296 0.0
C41 C 0.51533 0.99545 0.00432 0.0
C42 C 0.52613 0.96384 0.99775 0.0
C43 C 0.55918 0.95538 1e-05 0.0
C44 C 0.36105 0.02901 0.024 0.0
C45 C 0.35605 0.05603 0.04002 0.0
C46 C 0.3347 0.05391 0.06085 0.0
C47 C 0.31804 0.02453 0.06609 0.0
C48 C 0.32407 0.99706 0.05061 0.0
C49 C 0.34524 0.99928 0.02971 0.0
C50 C 0.36123 0.02941 0.97756 0.0
C51 C 0.35529 0.99842 0.9668 0.0
C52 C 0.33274 0.99495 0.9468 0.0
C53 C 0.31596 0.02241 0.9371 0.0
C54 C 0.32364 0.05355 0.94692 0.0
C55 C 0.34589 0.05691 0.96702 0.0
C56 C 0.41322 0.02259 0.00081 0.0
C57 C 0.43762 0.04503 0.99403 0.0
C58 C 0.47063 0.03613 0.99472 0.0
C59 C 0.48002 0.00446 0.00242 0.0
C60 C 0.45538 0.98171 0.0087 0.0
C61 C 0.42231 0.9906 0.00776 0.0
H62 H 0.92477 0.63406 0.53975 0.0
N63 N 0.96841 0.61995 0.50376 0.0
H64 H 0.93064 0.67352 0.5747 0.0
H65 H 0.02546 0.65008 0.51854 0.0
H66 H 0.03201 0.68806 0.5539 0.0
H67 H 0.024 0.62919 0.47528 0.0
H68 H 0.03058 0.66882 0.44058 0.0
H69 H 0.92141 0.65281 0.48012 0.0
H70 H 0.92743 0.69172 0.44484 0.0
H71 H 0.9317 0.56927 0.49046 0.0
H72 H 0.02893 0.5943 0.51585 0.0
H73 H 0.947 0.51138 0.48944 0.0
H74 H 0.04396 0.5368 0.51608 0.0
H75 H 0.97751 0.3493 0.51385 0.0
H76 H 0.96771 0.31069 0.54862 0.0
H77 H 0.06148 0.33533 0.58155 0.0
H78 H 0.07135 0.37396 0.54638 0.0
H79 H 0.07965 0.34365 0.48606 0.0
H80 H 0.07391 0.30539 0.45047 0.0
H81 H 0.97707 0.34347 0.43526 0.0
H82 H 0.98269 0.38083 0.47148 0.0
H83 H 0.97392 0.40886 0.51693 0.0
H84 H 0.95871 0.46646 0.5165 0.0
H85 H 0.05554 0.49157 0.48945 0.0
N86 N 0.03439 0.38321 0.50506 0.0
H87 H 0.07098 0.43376 0.49115 0.0
C88 C 0.97456 0.63878 0.52662 0.0
C89 C 0.94839 0.64531 0.54314 0.0
C90 C 0.95186 0.66782 0.56312 0.0
C91 C 0.98176 0.68421 0.56701 0.0
C92 C 0.00847 0.67634 0.5512 0.0
C93 C 0.00488 0.65411 0.53111 0.0
C94 C 0.97213 0.63827 0.48039 0.0
C95 C 0.00273 0.64236 0.46849 0.0
C96 C 0.00643 0.66497 0.44857 0.0
C97 C 0.97961 0.68379 0.44019 0.0
C98 C 0.94872 0.67814 0.45119 0.0
C99 C 0.94511 0.65569 0.47112 0.0
C100 C 0.97885 0.58621 0.50344 0.0
C101 C 0.95627 0.56222 0.49599 0.0
C102 C 0.96503 0.52914 0.49562 0.0
C103 C 0.9967 0.51923 0.50286 0.0
C104 C 0.01947 0.54343 0.51009 0.0
C105 C 0.01074 0.57656 0.51022 0.0
C106 C 0.02545 0.3644 0.52739 0.0
C107 C 0.9958 0.34689 0.52869 0.0
C108 C 0.99024 0.32469 0.54854 0.0
C109 C 0.01398 0.31978 0.56761 0.0
C110 C 0.0427 0.33874 0.56715 0.0
C111 C 0.04839 0.36075 0.54713 0.0
C112 C 0.03183 0.36516 0.48141 0.0
C113 C 0.05749 0.34415 0.47467 0.0
C114 C 0.05414 0.32237 0.45427 0.0
C115 C 0.02495 0.32122 0.44 0.0
C116 C 0.99971 0.34337 0.44606 0.0
C117 C 0.00303 0.36505 0.46663 0.0
C118 C 0.02393 0.41697 0.50441 0.0
C119 C 0.99201 0.42666 0.5111 0.0
C120 C 0.9832 0.45976 0.51057 0.0
C121 C 0.0059 0.48387 0.50304 0.0
C122 C 0.03758 0.4739 0.49587 0.0
C123 C 0.04642 0.44085 0.49664 0.0
Li124 Li 0.00399 0.03165 0.2717 0.0
Li125 Li 0.0034 0.97001 0.26874 0.0
Li126 Li 0.03101 0.00289 0.23691 0.0
Li127 Li 0.97267 1.00027 0.23756 0.0
C128 C 0.07328 0.99395 0.27456 0.0
N129 N 0.13959 0.98094 0.27256 0.0
C130 C 0.08433 0.96196 0.27062 0.0
C131 C 0.09593 0.01932 0.27755 0.0
C132 C 0.11796 0.95589 0.26966 0.0
C133 C 0.12936 0.01224 0.27645 0.0
C134 C 0.95204 0.98735 0.2966 0.0
C135 C 0.91874 0.94585 0.31661 0.0
N136 N 0.92538 0.95916 0.33989 0.0
C137 C 0.95838 1.00074 0.3207 0.0
C138 C 0.93188 0.95982 0.29449 0.0
C139 C 0.9447 0.9861 0.34236 0.0
C140 C 0.98061 0.09196 0.29039 0.0
N141 N 0.00432 0.06892 0.29331 0.0
C142 C 0.02962 0.10013 0.3265 0.0
C143 C 0.02838 0.07228 0.31105 0.0
C144 C 0.00565 0.12463 0.32384 0.0
C145 C 0.98077 0.12014 0.30556 0.0
H146 H 0.96169 0.08848 0.27616 0.0
H147 H 0.04671 0.05338 0.31312 0.0
C148 C 1.00076 0.90146 0.27799 0.0
N149 N 0.00518 0.93121 0.28913 0.0
C150 C 1.00044 0.87307 0.29286 0.0
C151 C 0.01064 0.90626 0.33029 0.0
C152 C 0.01079 0.93402 0.31467 0.0
C153 C 0.00503 0.87527 0.31944 0.0
H154 H 0.99748 0.89971 0.25756 0.0
H155 H 0.0149 0.95793 0.32296 0.0
C156 C 0.01276 0.0611 0.21672 0.0
N157 N 0.03922 0.10304 0.18078 0.0
C158 C 0.01577 0.05116 0.19125 0.0
C159 C 0.02305 0.09242 0.2239 0.0
C160 C 0.02929 0.0727 0.17337 0.0
C161 C 0.03638 0.11326 0.20544 0.0
C162 C 0.98692 0.94723 0.21264 0.0
C163 C 0.99663 0.94952 0.18705 0.0
C164 C 0.95921 0.92882 0.21896 0.0
C165 C 0.97848 0.93332 0.16825 0.0
C166 C 0.94166 0.91307 0.1996 0.0
N167 N 0.95159 0.91562 0.17486 0.0
C168 C 0.08014 0.97786 0.20392 0.0
C169 C 0.08822 0.03314 0.21609 0.0
C170 C 0.10851 0.97851 0.18904 0.0
N171 N 0.07015 0.00516 0.21658 0.0
C172 C 0.11678 0.03487 0.20153 0.0
C173 C 0.12708 0.0074 0.18754 0.0
H174 H 0.06625 0.95544 0.20559 0.0
H175 H 0.08058 0.05413 0.22714 0.0
C176 C 0.90377 0.9996 0.23112 0.0
N177 N 0.93269 0.0012 0.21828 0.0
C178 C 0.87416 0.99865 0.21771 0.0
C179 C 0.90462 0.00124 0.17815 0.0
C180 C 0.93353 0.00277 0.19231 0.0
C181 C 0.87449 0.99896 0.19088 0.0
H182 H 0.90367 0.99882 0.25177 0.0
H183 H 0.95665 0.00461 0.18249 0.0
O184 O 0.04044 1.00048 0.27476 0.0
O185 O 0.96575 1.00097 0.27521 0.0
O186 O 0.99973 0.04039 0.23457 0.0
O187 O 0.00416 0.9632 0.23136 0.0
H188 H 0.06713 0.9421 0.26797 0.0
H189 H 0.0878 0.04431 0.2802 0.0
H190 H 0.12687 0.93128 0.26649 0.0
H191 H 0.14717 0.03166 0.27856 0.0
H192 H 0.90329 0.9244 0.31527 0.0
H193 H 0.97394 0.022 0.32272 0.0
H194 H 0.92663 0.9492 0.276 0.0
H195 H 0.94955 0.99609 0.36115 0.0
H196 H 0.04948 0.10264 0.34008 0.0
H197 H 0.96149 0.13805 0.30309 0.0
H198 H 0.99675 0.84961 0.28363 0.0
H199 H 0.01414 0.90914 0.3507 0.0
H200 H 0.00852 0.02683 0.18546 0.0
H201 H 0.02094 0.10049 0.24354 0.0
H202 H 0.03204 0.06522 0.15364 0.0
H203 H 0.04453 0.13754 0.21073 0.0
H204 H 0.01758 0.9641 0.18163 0.0
H205 H 0.95106 0.92705 0.23857 0.0
H206 H 0.98565 0.93503 0.14838 0.0
H207 H 0.92008 0.89892 0.20424 0.0
H208 H 0.11603 0.95655 0.17903 0.0
H209 H 0.13039 0.05762 0.20095 0.0
H210 H 0.85133 0.99695 0.22815 0.0
H211 H 0.90576 0.00198 0.15745 0.0
Li212 Li 0.96482 0.00291 0.77298 0.0
Li213 Li 0.02479 1.00043 0.77063 0.0
Li214 Li 0.99279 0.03195 0.73744 0.0
Li215 Li 0.99388 0.97168 0.73857 0.0
C216 C 0.98727 0.06663 0.78867 0.0
N217 N 0.96908 0.12145 0.81627 0.0
C218 C 0.99907 0.07137 0.81351 0.0
C219 C 0.96677 0.09019 0.77771 0.0
C220 C 0.98942 0.0991 0.82721 0.0
C221 C 0.95771 0.11762 0.79201 0.0
C222 C 0.00761 0.94635 0.79539 0.0
C223 C 0.05096 0.91175 0.81125 0.0
N224 N 0.03718 0.91252 0.83492 0.0
C225 C 0.99375 0.94662 0.81982 0.0
C226 C 0.03632 0.92859 0.79099 0.0
C227 C 0.00911 0.92941 0.83957 0.0
C228 C 0.89976 0.98808 0.78615 0.0
N229 N 0.92743 0.0028 0.79491 0.0
C230 C 0.9013 0.01527 0.83465 0.0
C231 C 0.92876 0.01604 0.81874 0.0
C232 C 0.87215 1.00068 0.82597 0.0
C233 C 0.87165 0.98705 0.80129 0.0
H234 H 0.89951 0.97709 0.76734 0.0
H235 H 0.95132 0.02657 0.82565 0.0
C236 C 0.09344 0.00116 0.7782 0.0
N237 N 0.0641 1.00067 0.79047 0.0
C238 C 0.12261 0.00123 0.79219 0.0
C239 C 0.09082 1.00024 0.83116 0.0
C240 C 0.06231 1.00039 0.81643 0.0
C241 C 0.12151 1.00071 0.81905 0.0
H242 H 0.09421 0.00157 0.75754 0.0
H243 H 0.0387 1.00018 0.82574 0.0
C244 C 0.92691 0.0129 0.72504 0.0
N245 N 0.8697 0.03694 0.7039 0.0
C246 C 0.91466 0.99958 0.70234 0.0
C247 C 0.90981 0.03817 0.73714 0.0
C248 C 0.88578 0.01216 0.6919 0.0
C249 C 0.88101 0.05005 0.72613 0.0
C250 C 0.04565 0.9889 0.71195 0.0
C251 C 0.03996 0.00223 0.68773 0.0
C252 C 0.06568 0.96134 0.71446 0.0
C253 C 0.05418 0.9875 0.66633 0.0
C254 C 0.07939 0.94728 0.69259 0.0
N255 N 0.07339 0.96053 0.66918 0.0
C256 C 0.01732 0.09263 0.72201 0.0
C257 C 0.97181 0.07541 0.69728 0.0
C258 C 0.01983 0.12147 0.70775 0.0
N259 N 0.99353 0.07038 0.71662 0.0
C260 C 0.97314 0.10411 0.68279 0.0
C261 C 0.99743 0.12751 0.68794 0.0
H262 H 0.03435 0.0879 0.73742 0.0
H263 H 0.95363 0.05715 0.69284 0.0
C264 C 0.99669 0.90354 0.72843 0.0
N265 N 0.99204 0.93346 0.71762 0.0
C266 C 0.99578 0.87529 0.71339 0.0
C267 C 0.98477 0.90912 0.67643 0.0
C268 C 0.98606 0.93672 0.69217 0.0
C269 C 0.98971 0.87789 0.68703 0.0
H270 H 0.00095 0.90154 0.74875 0.0
H271 H 0.98249 0.9608 0.68406 0.0
O272 O 0.99678 0.03971 0.77492 0.0
O273 O 0.99312 0.96339 0.77589 0.0
O274 O 0.95526 1.00091 0.73542 0.0
O275 O 0.03145 0.0026 0.73307 0.0
H276 H 0.01531 0.05371 0.82222 0.0
H277 H 0.95816 0.08761 0.75828 0.0
H278 H 0.99816 0.10289 0.84652 0.0
H279 H 0.94175 0.13594 0.78376 0.0
H280 H 0.07333 0.89813 0.80816 0.0
H281 H 0.97146 0.96006 0.82353 0.0
H282 H 0.0474 0.92817 0.77222 0.0
H283 H 0.99874 0.92953 0.8586 0.0
H284 H 0.90316 0.02536 0.85375 0.0
H285 H 0.84973 0.97578 0.79364 0.0
H286 H 0.14576 0.00141 0.7821 0.0
H287 H 0.08883 1.00032 0.85182 0.0
H288 H 0.92732 0.97979 0.69283 0.0
H289 H 0.91837 0.04816 0.75504 0.0
H290 H 0.87612 0.00218 0.67428 0.0
H291 H 0.86756 0.0696 0.73531 0.0
H292 H 0.0245 0.02353 0.68544 0.0
H293 H 0.07035 0.95075 0.73307 0.0
H294 H 0.04986 0.99744 0.64745 0.0
H295 H 0.09475 0.9258 0.69422 0.0
H296 H 0.03887 0.13899 0.71232 0.0
H297 H 0.95578 0.10767 0.66737 0.0
H298 H 0.99931 0.85164 0.72236 0.0
H299 H 0.98036 0.91223 0.65615 0.0
C300 C 0.26922 0.048 0.0884 0.0
C301 C 0.29268 0.02305 0.08641 0.0
C302 C 0.24336 0.04572 0.10596 0.0
C303 C 0.24097 0.01789 0.122 0.0
C304 C 0.26513 0.99309 0.12064 0.0
C305 C 0.29064 0.99591 0.10277 0.0
C306 C 0.21798 0.07259 0.10672 0.0
C307 C 0.26357 0.96321 0.13761 0.0
C308 C 0.18534 0.02439 0.18005 0.0
C309 C 0.15677 0.00904 0.17119 0.0
C310 C 0.21316 0.02699 0.16442 0.0
C311 C 0.21231 0.01408 0.1393 0.0
C312 C 0.18366 0.99824 0.13036 0.0
C313 C 0.15627 0.99586 0.14643 0.0
C314 C 0.24335 0.04382 0.17467 0.0
C315 C 0.18172 0.98434 0.10363 0.0
H316 H 0.27042 0.06881 0.07556 0.0
H317 H 0.3089 0.97672 0.10146 0.0
H318 H 0.19381 0.06262 0.10094 0.0
H319 H 0.21539 0.08212 0.12648 0.0
H320 H 0.2242 0.09331 0.09383 0.0
H321 H 0.2853 0.94712 0.13526 0.0
H322 H 0.26179 0.97066 0.15797 0.0
H323 H 0.24129 0.94881 0.13306 0.0
H324 H 0.18598 0.03425 0.19929 0.0
H325 H 0.13414 0.98433 0.13938 0.0
H326 H 0.24894 0.06574 0.16293 0.0
H327 H 0.26476 0.0272 0.17333 0.0
H328 H 0.24041 0.05159 0.19491 0.0
H329 H 0.18514 0.00421 0.0894 0.0
H330 H 0.15791 0.97212 0.09982 0.0
H331 H 0.20166 0.96631 0.10061 0.0
C332 C 0.01603 0.29865 0.61269 0.0
C333 C 0.00997 0.29314 0.58664 0.0
C334 C 0.01343 0.27306 0.63056 0.0
C335 C 0.00515 0.24117 0.62206 0.0
C336 C 0.99894 0.23557 0.59578 0.0
C337 C 0.00123 0.26165 0.57843 0.0
C338 C 0.01972 0.28006 0.65848 0.0
C339 C 0.99052 0.20185 0.58588 0.0
C340 C 0.02978 0.1671 0.66162 0.0
C341 C 0.99975 0.15769 0.67229 0.0
C342 C 0.032 0.19459 0.64558 0.0
C343 C 0.0036 0.21338 0.64044 0.0
C344 C 0.97341 0.20453 0.6518 0.0
C345 C 0.97179 0.1766 0.66742 0.0
C346 C 0.06453 0.20292 0.63352 0.0
C347 C 0.94271 0.22422 0.6471 0.0
H348 H 0.02264 0.32303 0.61907 0.0
H349 H 0.99703 0.25722 0.55825 0.0
H350 H 0.9983 0.27243 0.67009 0.0
H351 H 0.04104 0.26562 0.66523 0.0
H352 H 0.02463 0.30641 0.6621 0.0
H353 H 0.98626 0.20166 0.56489 0.0
H354 H 0.0107 0.18457 0.59034 0.0
H355 H 0.96821 0.19254 0.59553 0.0
H356 H 0.05136 0.15233 0.66519 0.0
H357 H 0.94862 0.16952 0.67589 0.0
H358 H 0.07134 0.22858 0.63799 0.0
H359 H 0.06259 0.20094 0.6124 0.0
H360 H 0.0845 0.18652 0.64015 0.0
H361 H 0.94711 0.2504 0.65164 0.0
H362 H 0.92173 0.21538 0.65872 0.0
H363 H 0.93588 0.22282 0.62659 0.0
C364 C 0.73183 0.00919 0.08861 0.0
C365 C 0.70424 0.98992 0.09419 0.0
C366 C 0.75806 0.01163 0.10582 0.0
C367 C 0.75717 0.99379 0.129 0.0
C368 C 0.7293 0.9747 0.13504 0.0
C369 C 0.70304 0.97324 0.11768 0.0
C370 C 0.78718 0.0326 0.0988 0.0
C371 C 0.72763 0.95504 0.15946 0.0
C372 C 0.84058 0.97322 0.15665 0.0
C373 C 0.84367 0.99663 0.17608 0.0
C374 C 0.81205 0.97132 0.14179 0.0
C375 C 0.78626 0.99381 0.14616 0.0
C376 C 0.7891 0.01726 0.16601 0.0
C377 C 0.81771 0.01818 0.18092 0.0
C378 C 0.80975 0.94558 0.12113 0.0
C379 C 0.7624 0.04202 0.17093 0.0
H380 H 0.73354 0.02166 0.07037 0.0
H381 H 0.68171 0.95871 0.12244 0.0
H382 H 0.79304 0.04973 0.11463 0.0
H383 H 0.80896 0.01684 0.09581 0.0
H384 H 0.78289 0.04705 0.08111 0.0
H385 H 0.70373 0.94241 0.1618 0.0
H386 H 0.74736 0.93635 0.15954 0.0
H387 H 0.73174 0.97115 0.17623 0.0
H388 H 0.86056 0.95633 0.15313 0.0
H389 H 0.82023 0.0364 0.19588 0.0
H390 H 0.80852 0.95753 0.10209 0.0
H391 H 0.787 0.93105 0.12351 0.0
H392 H 0.83101 0.92862 0.12132 0.0
H393 H 0.75948 0.05802 0.15392 0.0
H394 H 0.76774 0.05766 0.18781 0.0
H395 H 0.73867 0.02945 0.17404 0.0
C396 C 0.96882 0.70874 0.61001 0.0
C397 C 0.98442 0.71108 0.58617 0.0
C398 C 0.9697 0.73485 0.62751 0.0
C399 C 0.98676 0.76389 0.62108 0.0
C400 C 0.00309 0.76616 0.59728 0.0
C401 C 0.00157 0.73985 0.58009 0.0
C402 C 0.95194 0.73157 0.6527 0.0
C403 C 0.02162 0.79668 0.58973 0.0
C404 C 0.9636 0.84453 0.65238 0.0
C405 C 0.98846 0.8482 0.67066 0.0
C406 C 0.96239 0.81687 0.63649 0.0
C407 C 0.98676 0.79239 0.63881 0.0
C408 C 0.01176 0.7958 0.6574 0.0
C409 C 0.01225 0.82363 0.67316 0.0
C410 C 0.9352 0.814 0.61703 0.0
C411 C 0.03834 0.77037 0.66027 0.0
H412 H 0.95583 0.6865 0.615 0.0
H413 H 0.01317 0.74222 0.56155 0.0
H414 H 0.96916 0.73571 0.6688 0.0
H415 H 0.93257 0.75054 0.65408 0.0
H416 H 0.94045 0.7071 0.65507 0.0
H417 H 0.0343 0.79393 0.57106 0.0
H418 H 0.00449 0.81769 0.58841 0.0
H419 H 0.04007 0.80281 0.60455 0.0
H420 H 0.94491 0.86324 0.65063 0.0
H421 H 0.0317 0.82652 0.68709 0.0
H422 H 0.92175 0.79067 0.61981 0.0
H423 H 0.94566 0.81353 0.59745 0.0
H424 H 0.9175 0.83459 0.61828 0.0
H425 H 0.02736 0.74592 0.6637 0.0
H426 H 0.05534 0.77609 0.67626 0.0
H427 H 0.0527 0.76875 0.6423 0.0
C428 C 0.2915 0.996 0.89793 0.0
C429 C 0.28903 0.01852 0.91812 0.0
C430 C 0.26558 0.9916 0.88056 0.0
C431 C 0.23657 0.01025 0.88339 0.0
C432 C 0.23405 0.03317 0.90359 0.0
C433 C 0.26017 0.03689 0.92073 0.0
C434 C 0.26911 0.96687 0.85928 0.0
C435 C 0.20354 0.05354 0.9073 0.0
C436 C 0.17761 0.02288 0.82802 0.0
C437 C 0.1521 0.00141 0.83445 0.0
C438 C 0.20576 0.02527 0.84334 0.0
C439 C 0.2085 0.00565 0.86558 0.0
C440 C 0.18329 0.98319 0.87172 0.0
C441 C 0.15537 0.9814 0.85612 0.0
C442 C 0.23202 0.04965 0.83624 0.0
C443 C 0.1854 0.96168 0.89516 0.0
H444 H 0.31378 0.9819 0.89563 0.0
H445 H 0.25768 0.05383 0.93657 0.0
H446 H 0.24965 0.94803 0.86088 0.0
H447 H 0.26596 0.97907 0.84047 0.0
H448 H 0.2933 0.95446 0.8596 0.0
H449 H 0.20583 0.07092 0.92354 0.0
H450 H 0.19818 0.06769 0.88967 0.0
H451 H 0.18225 0.03731 0.91089 0.0
H452 H 0.17511 0.03863 0.81145 0.0
H453 H 0.13595 0.9644 0.86095 0.0
H454 H 0.25628 0.03746 0.83556 0.0
H455 H 0.23343 0.06905 0.85106 0.0
H456 H 0.22728 0.06142 0.81744 0.0
H457 H 0.20874 0.94779 0.89514 0.0
H458 H 0.16476 0.94402 0.89633 0.0
H459 H 0.18521 0.9771 0.91262 0.0
C460 C 0.04622 0.28592 0.40431 0.0
C461 C 0.0202 0.29544 0.42018 0.0
C462 C 0.04312 0.2593 0.3875 0.0
C463 C 0.01315 0.24195 0.3863 0.0
C464 C 0.98636 0.25225 0.40145 0.0
C465 C 0.99025 0.27873 0.4183 0.0
C466 C 0.07228 0.24903 0.37168 0.0
C467 C 0.95392 0.23455 0.40055 0.0
C468 C 0.99891 0.18543 0.32954 0.0
C469 C 0.00677 0.15471 0.33995 0.0
C470 C 1.00047 0.21401 0.34445 0.0
C471 C 0.01047 0.2119 0.37032 0.0
C472 C 0.01829 0.181 0.38099 0.0
C473 C 0.01617 0.15281 0.36574 0.0
C474 C 0.99169 0.24649 0.33247 0.0
C475 C 0.02913 0.17773 0.4085 0.0
H476 H 0.06927 0.299 0.4053 0.0
H477 H 0.97012 0.28555 0.43069 0.0
H478 H 0.08025 0.22414 0.37748 0.0
H479 H 0.06551 0.24784 0.35115 0.0
H480 H 0.09331 0.26605 0.37388 0.0
H481 H 0.93475 0.24725 0.41189 0.0
H482 H 0.94532 0.23229 0.38049 0.0
H483 H 0.95688 0.20938 0.40819 0.0
H484 H 0.99205 0.18727 0.30957 0.0
H485 H 0.02171 0.12918 0.37412 0.0
H486 H 0.01322 0.26304 0.33285 0.0
H487 H 0.97199 0.25851 0.34365 0.0
H488 H 0.98335 0.24384 0.31234 0.0
H489 H 0.05146 0.19263 0.4118 0.0
H490 H 0.03449 0.15195 0.41385 0.0
H491 H 0.00984 0.18725 0.42144 0.0
C492 C 0.74097 0.97308 0.93603 0.0
C493 C 0.70917 0.9832 0.92974 0.0
C494 C 0.76693 0.97707 0.91878 0.0
C495 C 0.76091 0.99127 0.89453 0.0
C496 C 0.72887 0.00169 0.88808 0.0
C497 C 0.70337 0.99773 0.90587 0.0
C498 C 0.80081 0.96604 0.92653 0.0
C499 C 0.72147 0.0166 0.8623 0.0
C500 C 0.83462 0.02513 0.85896 0.0
C501 C 0.84275 0.99893 0.84278 0.0
C502 C 0.8077 0.02324 0.87558 0.0
C503 C 0.78819 0.99459 0.87586 0.0
C504 C 0.79576 0.96838 0.85918 0.0
C505 C 0.82303 0.97077 0.84299 0.0
C506 C 0.80051 0.05163 0.8932 0.0
C507 C 0.77546 0.93746 0.85885 0.0
H508 H 0.74563 0.96234 0.95465 0.0
H509 H 0.67877 0.00544 0.90094 0.0
H510 H 0.8096 0.94676 0.91325 0.0
H511 H 0.81821 0.98684 0.92521 0.0
H512 H 0.8015 0.95618 0.94633 0.0
H513 H 0.69536 0.02383 0.86038 0.0
H514 H 0.73698 0.03854 0.85917 0.0
H515 H 0.72744 0.99883 0.84694 0.0
H516 H 0.84934 0.04721 0.85865 0.0
H517 H 0.82932 0.95017 0.83089 0.0
H518 H 0.80268 0.04357 0.91341 0.0
H519 H 0.77502 0.06024 0.89035 0.0
H520 H 0.81742 0.07256 0.89008 0.0
H521 H 0.77747 0.92484 0.87758 0.0
H522 H 0.7833 0.92023 0.8436 0.0
H523 H 0.74925 0.94352 0.8559 0.0
C524 C 0.96873 0.74102 0.42532 0.0
C525 C 0.98411 0.71072 0.42134 0.0
C526 C 0.97297 0.76705 0.40816 0.0
C527 C 0.99322 0.76282 0.38646 0.0
C528 C 0.00893 0.73236 0.3823 0.0
C529 C 0.00419 0.70665 0.39981 0.0
C530 C 0.95587 0.79917 0.41334 0.0
C531 C 0.03067 0.72695 0.35935 0.0
C532 C 0.97872 0.82205 0.3316 0.0
C533 C 0.00321 0.84554 0.3358 0.0
C534 C 0.97574 0.79454 0.34753 0.0
C535 C 0.99776 0.7904 0.36819 0.0
C536 C 0.02298 0.81364 0.37222 0.0
C537 C 0.02537 0.84095 0.356 0.0
C538 C 0.94843 0.7704 0.34268 0.0
C539 C 0.04701 0.81001 0.394 0.0
H540 H 0.95372 0.74462 0.44218 0.0
H541 H 0.01598 0.68325 0.39652 0.0
H542 H 0.9742 0.81906 0.41535 0.0
H543 H 0.93983 0.80565 0.39697 0.0
H544 H 0.94073 0.79837 0.43098 0.0
H545 H 0.04129 0.70191 0.35896 0.0
H546 H 0.01649 0.73085 0.3415 0.0
H547 H 0.05096 0.74501 0.35939 0.0
H548 H 0.96125 0.82563 0.31624 0.0
H549 H 0.04464 0.85875 0.35913 0.0
H550 H 0.93116 0.77055 0.35906 0.0
H551 H 0.95843 0.74522 0.34111 0.0
H552 H 0.93455 0.77611 0.32495 0.0
H553 H 0.03382 0.81129 0.41252 0.0
H554 H 0.06616 0.82933 0.39377 0.0
H555 H 0.05911 0.78572 0.39308 0.0
loop_
_geom_bond_atom_site_label_1
_geom_bond_atom_site_label_2
_geom_bond_distance
_geom_bond_site_symmetry_2
_ccdc_geom_bond_type
H0 C27 0.929 . S
N1 C26 1.433 . S
N1 C32 1.435 1_554 S
N1 C38 1.423 1_554 S
H2 C28 0.930 . S
H3 C31 0.931 . S
H4 C30 0.929 . S
H5 C33 0.930 . S
H6 C34 0.932 . S
H7 C37 0.929 . S
H8 C36 0.931 . S
H9 C39 0.929 . S
H10 C43 0.932 1_565 S
H11 C40 0.931 . S
H12 C42 0.929 1_565 S
H13 C45 0.929 . S
H14 C46 0.930 . S
H15 C48 0.929 . S
H16 C49 0.931 . S
H17 C51 0.930 . S
H18 C52 0.932 . S
H19 C54 0.931 . S
H20 C55 0.929 . S
H21 C57 0.929 . S
H22 C58 0.931 . S
H23 C60 0.929 1_565 S
N24 C44 1.433 . S
N24 C50 1.435 1_554 S
N24 C56 1.423 1_554 S
H25 C61 0.932 1_565 S
C26 N1 1.433 . S
C26 C27 1.363 . S
C26 C31 1.370 1_545 S
C27 H0 0.929 . S
C27 C26 1.363 . S
C27 C28 1.385 . S
C28 H2 0.930 . S
C28 C27 1.385 . S
C28 C29 1.357 . S
C29 C28 1.357 . S
C29 C30 1.406 1_545 S
C30 H4 0.929 . S
C30 C29 1.406 1_565 S
C30 C31 1.391 . S
C31 H3 0.931 . S
C31 C26 1.370 1_565 S
C31 C30 1.391 . S
C32 N1 1.435 1_556 S
C32 C33 1.358 1_545 S
C32 C37 1.371 . S
C33 H5 0.930 . S
C33 C32 1.358 1_565 S
C33 C34 1.405 . S
C34 H6 0.932 . S
C34 C33 1.405 . S
C34 C35 1.383 1_565 S
C35 C34 1.383 1_545 S
C35 C36 1.393 . S
C36 H8 0.931 . S
C36 C35 1.393 . S
C36 C37 1.382 . S
C37 H7 0.929 . S
C37 C32 1.371 . S
C37 C36 1.382 . S
C38 N1 1.423 1_556 S
C38 C39 1.362 1_556 S
C38 C43 1.388 . S
C39 H9 0.929 . S
C39 C38 1.362 1_554 S
C39 C40 1.376 . S
C40 H11 0.931 . S
C40 C39 1.376 . S
C40 C41 1.396 1_554 S
C41 C40 1.396 1_556 S
C41 C42 1.348 . S
C41 C59 1.472 . S
C42 H12 0.929 1_545 S
C42 C41 1.348 . S
C42 C43 1.443 . S
C43 H10 0.932 1_545 S
C43 C38 1.388 . S
C43 C42 1.443 . S
C44 N24 1.433 . S
C44 C45 1.363 . S
C44 C49 1.370 1_545 S
C45 H13 0.929 . S
C45 C44 1.363 . S
C45 C46 1.385 . S
C46 H14 0.930 . S
C46 C45 1.385 . S
C46 C47 1.357 . S
C47 C46 1.357 . S
C47 C48 1.406 1_545 S
C48 H15 0.929 . S
C48 C47 1.406 1_565 S
C48 C49 1.391 . S
C49 H16 0.931 . S
C49 C44 1.370 1_565 S
C49 C48 1.391 . S
C50 N24 1.435 1_556 S
C50 C51 1.358 1_545 S
C50 C55 1.371 . S
C51 H17 0.930 . S
C51 C50 1.358 1_565 S
C51 C52 1.405 . S
C52 H18 0.932 . S
C52 C51 1.405 . S
C52 C53 1.383 1_565 S
C53 C52 1.383 1_545 S
C53 C54 1.393 . S
C54 H19 0.931 . S
C54 C53 1.393 . S
C54 C55 1.382 . S
C55 H20 0.929 . S
C55 C50 1.371 . S
C55 C54 1.382 . S
C56 N24 1.423 1_556 S
C56 C57 1.362 1_556 S
C56 C61 1.388 . S
C57 H21 0.929 . S
C57 C56 1.362 1_554 S
C57 C58 1.376 . S
C58 H22 0.931 . S
C58 C57 1.376 . S
C58 C59 1.396 1_554 S
C59 C41 1.472 . S
C59 C58 1.396 1_556 S
C59 C60 1.348 . S
C60 H23 0.929 1_545 S
C60 C59 1.348 . S
C60 C61 1.443 . S
C61 H25 0.932 1_545 S
C61 C56 1.388 . S
C61 C60 1.443 . S
H62 C89 0.929 . S
N63 C88 1.433 . S
N63 C94 1.435 . S
N63 C100 1.423 . S
H64 C90 0.930 . S
H65 C93 0.931 . S
H66 C92 0.929 . S
H67 C95 0.930 . S
H68 C96 0.932 . S
H69 C99 0.929 . S
H70 C98 0.931 . S
H71 C101 0.929 . S
H72 C105 0.932 1_455 S
H73 C102 0.931 . S
H74 C104 0.929 1_455 S
H75 C107 0.929 . S
H76 C108 0.930 . S
H77 C110 0.929 . S
H78 C111 0.931 . S
H79 C113 0.930 . S
H80 C114 0.932 . S
H81 C116 0.931 . S
H82 C117 0.929 . S
H83 C119 0.929 . S
H84 C120 0.931 . S
H85 C122 0.929 1_455 S
N86 C106 1.433 . S
N86 C112 1.435 . S
N86 C118 1.423 . S
H87 C123 0.932 1_455 S
C88 N63 1.433 . S
C88 C89 1.363 . S
C88 C93 1.370 1_655 S
C89 H62 0.929 . S
C89 C88 1.363 . S
C89 C90 1.385 . S
C90 H64 0.930 . S
C90 C89 1.385 . S
C90 C91 1.357 . S
C91 C90 1.357 . S
C91 C92 1.406 1_655 S
C92 H66 0.929 . S
C92 C91 1.406 1_455 S
C92 C93 1.391 . S
C93 H65 0.931 . S
C93 C88 1.370 1_455 S
C93 C92 1.391 . S
C94 N63 1.435 . S
C94 C95 1.358 1_655 S
C94 C99 1.371 . S
C95 H67 0.930 . S
C95 C94 1.358 1_455 S
C95 C96 1.405 . S
C96 H68 0.932 . S
C96 C95 1.405 . S
C96 C97 1.383 1_455 S
C97 C96 1.383 1_655 S
C97 C98 1.393 . S
C98 H70 0.931 . S
C98 C97 1.393 . S
C98 C99 1.382 . S
C99 H69 0.929 . S
C99 C94 1.371 . S
C99 C98 1.382 . S
C100 N63 1.423 . S
C100 C101 1.362 . S
C100 C105 1.388 . S
C101 H71 0.929 . S
C101 C100 1.362 . S
C101 C102 1.376 . S
C102 H73 0.931 . S
C102 C101 1.376 . S
C102 C103 1.396 . S
C103 C102 1.396 . S
C103 C104 1.348 . S
C103 C121 1.472 . S
C104 H74 0.929 1_655 S
C104 C103 1.348 . S
C104 C105 1.443 . S
C105 H72 0.932 1_655 S
C105 C100 1.388 . S
C105 C104 1.443 . S
C106 N86 1.433 . S
C106 C107 1.363 . S
C106 C111 1.370 1_655 S
C107 H75 0.929 . S
C107 C106 1.363 . S
C107 C108 1.385 . S
C108 H76 0.930 . S
C108 C107 1.385 . S
C108 C109 1.357 . S
C109 C108 1.357 . S
C109 C110 1.406 1_655 S
C110 H77 0.929 . S
C110 C109 1.406 1_455 S
C110 C111 1.391 . S
C111 H78 0.931 . S
C111 C106 1.370 1_455 S
C111 C110 1.391 . S
C112 N86 1.435 . S
C112 C113 1.358 1_655 S
C112 C117 1.371 . S
C113 H79 0.930 . S
C113 C112 1.358 1_455 S
C113 C114 1.405 . S
C114 H80 0.932 . S
C114 C113 1.405 . S
C114 C115 1.383 1_455 S
C115 C114 1.383 1_655 S
C115 C116 1.393 . S
C116 H81 0.931 . S
C116 C115 1.393 . S
C116 C117 1.382 . S
C117 H82 0.929 . S
C117 C112 1.371 . S
C117 C116 1.382 . S
C118 N86 1.423 . S
C118 C119 1.362 . S
C118 C123 1.388 . S
C119 H83 0.929 . S
C119 C118 1.362 . S
C119 C120 1.376 . S
C120 H84 0.931 . S
C120 C119 1.376 . S
C120 C121 1.396 . S
C121 C103 1.472 . S
C121 C120 1.396 . S
C121 C122 1.348 . S
C122 H85 0.929 1_655 S
C122 C121 1.348 . S
C122 C123 1.443 . S
C123 H87 0.932 1_655 S
C123 C118 1.388 . S
C123 C122 1.443 . S
Li124 N141 1.990 . S
Li124 O184 1.956 1_545 S
Li124 O185 1.970 1_455 S
Li124 O186 1.961 1_455 S
Li125 N149 1.990 . S
Li125 O184 1.970 1_655 S
Li125 O185 1.956 1_565 S
Li125 O187 1.961 1_655 S
Li126 N171 1.990 . S
Li126 O184 1.961 1_545 S
Li126 O186 1.956 1_455 S
Li126 O187 1.970 1_545 S
Li127 N177 1.990 . S
Li127 O185 1.961 1_565 S
Li127 O186 1.970 1_565 S
Li127 O187 1.956 1_655 S
C128 C130 1.348 1_545 S
C128 C131 1.356 . S
C128 O184 1.325 1_545 S
N129 C132 1.314 1_545 S
N129 C133 1.279 . S
C130 C128 1.348 1_565 S
C130 C132 1.353 . S
C130 H188 0.929 . S
C131 C128 1.356 . S
C131 C133 1.358 . S
C131 H189 0.930 . S
C132 N129 1.314 1_565 S
C132 C130 1.353 . S
C132 H190 0.930 . S
C133 N129 1.279 . S
C133 C131 1.358 . S
C133 H191 0.930 . S
C134 C137 1.348 . S
C134 C138 1.356 1_545 S
C134 O185 1.325 . S
C135 N136 1.279 . S
C135 C138 1.358 . S
C135 H192 0.930 . S
N136 C135 1.279 . S
N136 C139 1.314 1_565 S
C137 C134 1.348 . S
C137 C139 1.353 . S
C137 H193 0.929 . S
C138 C134 1.356 1_565 S
C138 C135 1.358 . S
C138 H194 0.930 . S
C139 N136 1.314 1_545 S
C139 C137 1.353 . S
C139 H195 0.930 . S
C140 N141 1.314 1_655 S
C140 C145 1.353 . S
C140 H146 0.930 . S
N141 Li124 1.990 . S
N141 C140 1.314 1_455 S
N141 C143 1.279 . S
C142 C143 1.358 . S
C142 C144 1.356 . S
C142 H196 0.930 . S
C143 N141 1.279 . S
C143 C142 1.358 . S
C143 H147 0.930 . S
C144 C142 1.356 . S
C144 C145 1.348 1_455 S
C145 C140 1.353 . S
C145 C144 1.348 1_655 S
C145 H197 0.929 . S
H146 C140 0.930 . S
H147 C143 0.930 . S
C148 N149 1.314 1_455 S
C148 C150 1.353 . S
C148 H154 0.930 . S
N149 Li125 1.990 . S
N149 C148 1.314 1_655 S
N149 C152 1.279 . S
C150 C148 1.353 . S
C150 C153 1.348 . S
C150 H198 0.929 . S
C151 C152 1.358 . S
C151 C153 1.356 1_655 S
C151 H199 0.930 . S
C152 N149 1.279 . S
C152 C151 1.358 . S
C152 H155 0.930 . S
C153 C150 1.348 . S
C153 C151 1.356 1_455 S
H154 C148 0.930 . S
H155 C152 0.930 . S
C156 C158 1.348 1_455 S
C156 C159 1.356 . S
C156 O186 1.325 1_455 S
N157 C160 1.314 1_455 S
N157 C161 1.279 . S
C158 C156 1.348 1_655 S
C158 C160 1.353 . S
C158 H200 0.929 . S
C159 C156 1.356 . S
C159 C161 1.358 . S
C159 H201 0.930 . S
C160 N157 1.314 1_655 S
C160 C158 1.353 . S
C160 H202 0.930 . S
C161 N157 1.279 . S
C161 C159 1.358 . S
C161 H203 0.930 . S
C162 C163 1.348 . S
C162 C164 1.356 1_455 S
C162 O187 1.325 . S
C163 C162 1.348 . S
C163 C165 1.353 . S
C163 H204 0.929 . S
C164 C162 1.356 1_655 S
C164 C166 1.358 . S
C164 H205 0.930 . S
C165 C163 1.353 . S
C165 N167 1.314 1_455 S
C165 H206 0.930 . S
C166 C164 1.358 . S
C166 N167 1.279 . S
C166 H207 0.930 . S
N167 C165 1.314 1_655 S
N167 C166 1.279 . S
C168 C170 1.353 . S
C168 N171 1.314 1_565 S
C168 H174 0.930 . S
C169 N171 1.279 . S
C169 C172 1.358 . S
C169 H175 0.930 . S
C170 C168 1.353 . S
C170 C173 1.348 1_565 S
C170 H208 0.929 . S
N171 Li126 1.990 . S
N171 C168 1.314 1_545 S
N171 C169 1.279 . S
C172 C169 1.358 . S
C172 C173 1.356 . S
C172 H209 0.930 . S
C173 C170 1.348 1_545 S
C173 C172 1.356 . S
H174 C168 0.930 . S
H175 C169 0.930 . S
C176 N177 1.314 1_545 S
C176 C178 1.353 . S
C176 H182 0.930 . S
N177 Li127 1.990 . S
N177 C176 1.314 1_565 S
N177 C180 1.279 . S
C178 C176 1.353 . S
C178 C181 1.348 . S
C178 H210 0.929 . S
C179 C180 1.358 . S
C179 C181 1.356 1_565 S
C179 H211 0.930 . S
C180 N177 1.279 . S
C180 C179 1.358 . S
C180 H183 0.930 . S
C181 C178 1.348 . S
C181 C179 1.356 1_545 S
H182 C176 0.930 . S
H183 C180 0.930 . S
O184 Li124 1.956 1_565 S
O184 Li125 1.970 1_455 S
O184 Li126 1.961 1_565 S
O184 C128 1.325 1_565 S
O185 Li124 1.970 1_655 S
O185 Li125 1.956 1_545 S
O185 Li127 1.961 1_545 S
O185 C134 1.325 . S
O186 Li124 1.961 1_655 S
O186 Li126 1.956 1_655 S
O186 Li127 1.970 1_545 S
O186 C156 1.325 1_655 S
O187 Li125 1.961 1_455 S
O187 Li126 1.970 1_565 S
O187 Li127 1.956 1_455 S
O187 C162 1.325 . S
H188 C130 0.929 . S
H189 C131 0.930 . S
H190 C132 0.930 . S
H191 C133 0.930 . S
H192 C135 0.930 . S
H193 C137 0.929 . S
H194 C138 0.930 . S
H195 C139 0.930 . S
H196 C142 0.930 . S
H197 C145 0.929 . S
H198 C150 0.929 . S
H199 C151 0.930 . S
H200 C158 0.929 . S
H201 C159 0.930 . S
H202 C160 0.930 . S
H203 C161 0.930 . S
H204 C163 0.929 . S
H205 C164 0.930 . S
H206 C165 0.930 . S
H207 C166 0.930 . S
H208 C170 0.929 . S
H209 C172 0.930 . S
H210 C178 0.929 . S
H211 C179 0.930 . S
Li212 N229 1.990 . S
Li212 O272 1.956 1_655 S
Li212 O273 1.970 1_545 S
Li212 O274 1.961 1_545 S
Li213 N237 1.990 . S
Li213 O272 1.970 1_565 S
Li213 O273 1.956 1_455 S
Li213 O275 1.961 1_565 S
Li214 N259 1.990 . S
Li214 O272 1.961 1_655 S
Li214 O274 1.956 1_545 S
Li214 O275 1.970 1_655 S
Li215 N265 1.990 . S
Li215 O273 1.961 1_455 S
Li215 O274 1.970 1_455 S
Li215 O275 1.956 1_565 S
C216 C218 1.348 . S
C216 C219 1.356 1_455 S
C216 O272 1.325 . S
N217 C220 1.314 1_655 S
N217 C221 1.279 . S
C218 C216 1.348 . S
C218 C220 1.353 . S
C218 H276 0.929 . S
C219 C216 1.356 1_655 S
C219 C221 1.358 . S
C219 H277 0.930 . S
C220 N217 1.314 1_455 S
C220 C218 1.353 . S
C220 H278 0.930 . S
C221 N217 1.279 . S
C221 C219 1.358 . S
C221 H279 0.930 . S
C222 C225 1.348 1_455 S
C222 C226 1.356 . S
C222 O273 1.325 1_455 S
C223 N224 1.279 . S
C223 C226 1.358 . S
C223 H280 0.930 . S
N224 C223 1.279 . S
N224 C227 1.314 1_455 S
C225 C222 1.348 1_655 S
C225 C227 1.353 . S
C225 H281 0.929 . S
C226 C222 1.356 . S
C226 C223 1.358 . S
C226 H282 0.930 . S
C227 N224 1.314 1_655 S
C227 C225 1.353 . S
C227 H283 0.930 . S
C228 N229 1.314 1_565 S
C228 C233 1.353 . S
C228 H234 0.930 . S
N229 Li212 1.990 . S
N229 C228 1.314 1_545 S
N229 C231 1.279 . S
C230 C231 1.358 . S
C230 C232 1.356 . S
C230 H284 0.930 . S
C231 N229 1.279 . S
C231 C230 1.358 . S
C231 H235 0.930 . S
C232 C230 1.356 . S
C232 C233 1.348 1_545 S
C233 C228 1.353 . S
C233 C232 1.348 1_565 S
C233 H285 0.929 . S
H234 C228 0.930 . S
H235 C231 0.930 . S
C236 N237 1.314 1_545 S
C236 C238 1.353 . S
C236 H242 0.930 . S
N237 Li213 1.990 . S
N237 C236 1.314 1_565 S
N237 C240 1.279 . S
C238 C236 1.353 . S
C238 C241 1.348 . S
C238 H286 0.929 . S
C239 C240 1.358 . S
C239 C241 1.356 1_565 S
C239 H287 0.930 . S
C240 N237 1.279 . S
C240 C239 1.358 . S
C240 H243 0.930 . S
C241 C238 1.348 . S
C241 C239 1.356 1_545 S
H242 C236 0.930 . S
H243 C240 0.930 . S
C244 C246 1.348 1_545 S
C244 C247 1.356 . S
C244 O274 1.325 1_545 S
N245 C248 1.314 1_545 S
N245 C249 1.279 . S
C246 C244 1.348 1_565 S
C246 C248 1.353 . S
C246 H288 0.929 . S
C247 C244 1.356 . S
C247 C249 1.358 . S
C247 H289 0.930 . S
C248 N245 1.314 1_565 S
C248 C246 1.353 . S
C248 H290 0.930 . S
C249 N245 1.279 . S
C249 C247 1.358 . S
C249 H291 0.930 . S
C250 C251 1.348 . S
C250 C252 1.356 1_545 S
C250 O275 1.325 . S
C251 C250 1.348 . S
C251 C253 1.353 . S
C251 H292 0.929 . S
C252 C250 1.356 1_565 S
C252 C254 1.358 . S
C252 H293 0.930 . S
C253 C251 1.353 . S
C253 N255 1.314 1_545 S
C253 H294 0.930 . S
C254 C252 1.358 . S
C254 N255 1.279 . S
C254 H295 0.930 . S
N255 C253 1.314 1_565 S
N255 C254 1.279 . S
C256 C258 1.353 . S
C256 N259 1.314 1_455 S
C256 H262 0.930 . S
C257 N259 1.279 . S
C257 C260 1.358 . S
C257 H263 0.930 . S
C258 C256 1.353 . S
C258 C261 1.348 . S
C258 H296 0.929 . S
N259 Li214 1.990 . S
N259 C256 1.314 1_655 S
N259 C257 1.279 . S
C260 C257 1.358 . S
C260 C261 1.356 1_655 S
C260 H297 0.930 . S
C261 C258 1.348 . S
C261 C260 1.356 1_455 S
H262 C256 0.930 . S
H263 C257 0.930 . S
C264 N265 1.314 1_655 S
C264 C266 1.353 . S
C264 H270 0.930 . S
N265 Li215 1.990 . S
N265 C264 1.314 1_455 S
N265 C268 1.279 . S
C266 C264 1.353 . S
C266 C269 1.348 1_655 S
C266 H298 0.929 . S
C267 C268 1.358 . S
C267 C269 1.356 . S
C267 H299 0.930 . S
C268 N265 1.279 . S
C268 C267 1.358 . S
C268 H271 0.930 . S
C269 C266 1.348 1_455 S
C269 C267 1.356 . S
H270 C264 0.930 . S
H271 C268 0.930 . S
O272 Li212 1.956 1_455 S
O272 Li213 1.970 1_545 S
O272 Li214 1.961 1_455 S
O272 C216 1.325 . S
O273 Li212 1.970 1_565 S
O273 Li213 1.956 1_655 S
O273 Li215 1.961 1_655 S
O273 C222 1.325 1_655 S
O274 Li212 1.961 1_565 S
O274 Li214 1.956 1_565 S
O274 Li215 1.970 1_655 S
O274 C244 1.325 1_565 S
O275 Li213 1.961 1_545 S
O275 Li214 1.970 1_455 S
O275 Li215 1.956 1_545 S
O275 C250 1.325 . S
H276 C218 0.929 . S
H277 C219 0.930 . S
H278 C220 0.930 . S
H279 C221 0.930 . S
H280 C223 0.930 . S
H281 C225 0.929 . S
H282 C226 0.930 . S
H283 C227 0.930 . S
H284 C230 0.930 . S
H285 C233 0.929 . S
H286 C238 0.929 . S
H287 C239 0.930 . S
H288 C246 0.929 . S
H289 C247 0.930 . S
H290 C248 0.930 . S
H291 C249 0.930 . S
H292 C251 0.929 . S
H293 C252 0.930 . S
H294 C253 0.930 . S
H295 C254 0.930 . S
H296 C258 0.929 . S
H297 C260 0.930 . S
H298 C266 0.929 . S
H299 C267 0.930 . S
C300 C301 1.391 . S
C300 C302 1.394 . S
C300 H316 0.931 . S
C301 C300 1.391 . S
C301 C305 1.376 . S
C302 C300 1.394 . S
C302 C303 1.369 . S
C302 C306 1.531 . S
C303 C302 1.369 . S
C303 C304 1.410 . S
C303 C311 1.503 . S
C304 C303 1.410 . S
C304 C305 1.392 . S
C304 C307 1.511 . S
C305 C301 1.376 . S
C305 C304 1.392 . S
C305 H317 0.929 . S
C306 C302 1.531 . S
C306 H318 0.960 . S
C306 H319 0.962 1_565 S
C306 H320 0.960 . S
C307 C304 1.511 . S
C307 H321 0.961 . S
C307 H322 0.961 . S
C307 H323 0.961 . S
C308 C309 1.370 1_545 S
C308 C310 1.363 . S
C308 H324 0.931 . S
C309 C308 1.370 1_565 S
C309 C313 1.408 . S
C310 C308 1.363 . S
C310 C311 1.370 1_545 S
C310 C314 1.524 . S
C311 C303 1.503 . S
C311 C310 1.370 1_565 S
C311 C312 1.403 . S
C312 C311 1.403 . S
C312 C313 1.404 . S
C312 C315 1.539 . S
C313 C309 1.408 . S
C313 C312 1.404 . S
C313 H325 0.930 . S
C314 C310 1.524 . S
C314 H326 0.956 . S
C314 H327 0.961 . S
C314 H328 0.961 . S
C315 C312 1.539 . S
C315 H329 0.958 . S
C315 H330 0.961 . S
C315 H331 0.960 . S
H316 C300 0.931 . S
H317 C305 0.929 . S
H318 C306 0.960 . S
H319 C306 0.962 1_545 S
H320 C306 0.960 . S
H321 C307 0.961 . S
H322 C307 0.961 . S
H323 C307 0.961 . S
H324 C308 0.931 . S
H325 C313 0.930 . S
H326 C314 0.956 . S
H327 C314 0.961 . S
H328 C314 0.961 . S
H329 C315 0.958 . S
H330 C315 0.961 . S
H331 C315 0.960 . S
C332 C333 1.391 . S
C332 C334 1.394 . S
C332 H348 0.931 . S
C333 C332 1.391 . S
C333 C337 1.376 . S
C334 C332 1.394 . S
C334 C335 1.369 . S
C334 C338 1.531 . S
C335 C334 1.369 . S
C335 C336 1.410 . S
C335 C343 1.503 . S
C336 C335 1.410 . S
C336 C337 1.393 . S
C336 C339 1.511 1_655 S
C337 C333 1.376 . S
C337 C336 1.393 . S
C337 H349 0.928 1_655 S
C338 C334 1.531 . S
C338 H350 0.960 . S
C338 H351 0.962 1_655 S
C338 H352 0.960 . S
C339 C336 1.511 1_455 S
C339 H353 0.964 . S
C339 H354 0.964 . S
C339 H355 0.956 1_455 S
C340 C341 1.361 1_455 S
C340 C342 1.363 . S
C340 H356 0.931 . S
C341 C340 1.361 1_655 S
C341 C345 1.419 . S
C342 C340 1.363 . S
C342 C343 1.370 1_455 S
C342 C346 1.524 . S
C343 C335 1.503 . S
C343 C342 1.370 1_655 S
C343 C344 1.403 . S
C344 C343 1.403 . S
C344 C345 1.404 . S
C344 C347 1.539 . S
C345 C341 1.419 . S
C345 C344 1.404 . S
C345 H357 0.930 . S
C346 C342 1.524 . S
C346 H358 0.956 . S
C346 H359 0.961 . S
C346 H360 0.961 . S
C347 C344 1.539 . S
C347 H361 0.958 . S
C347 H362 0.961 . S
C347 H363 0.960 . S
H348 C332 0.931 . S
H349 C337 0.928 1_455 S
H350 C338 0.960 . S
H351 C338 0.962 1_455 S
H352 C338 0.960 . S
H353 C339 0.964 . S
H354 C339 0.964 . S
H355 C339 0.956 1_655 S
H356 C340 0.931 . S
H357 C345 0.930 . S
H358 C346 0.956 . S
H359 C346 0.961 . S
H360 C346 0.961 . S
H361 C347 0.958 . S
H362 C347 0.961 . S
H363 C347 0.960 . S
C364 C365 1.391 . S
C364 C366 1.394 . S
C364 H380 0.931 . S
C365 C364 1.391 . S
C365 C369 1.376 1_545 S
C366 C364 1.394 . S
C366 C367 1.369 . S
C366 C370 1.531 . S
C367 C366 1.369 . S
C367 C368 1.410 1_545 S
C367 C375 1.503 . S
C368 C367 1.410 1_565 S
C368 C369 1.392 . S
C368 C371 1.511 . S
C369 C365 1.376 1_565 S
C369 C368 1.392 . S
C369 H381 0.929 . S
C370 C366 1.531 . S
C370 H382 0.960 . S
C370 H383 0.962 . S
C370 H384 0.960 . S
C371 C368 1.511 . S
C371 H385 0.961 . S
C371 H386 0.961 . S
C371 H387 0.961 1_565 S
C372 C373 1.370 1_565 S
C372 C374 1.363 . S
C372 H388 0.931 . S
C373 C372 1.370 1_545 S
C373 C377 1.408 . S
C374 C372 1.363 . S
C374 C375 1.370 1_565 S
C374 C378 1.524 . S
C375 C367 1.503 . S
C375 C374 1.370 1_545 S
C375 C376 1.403 . S
C376 C375 1.403 . S
C376 C377 1.404 . S
C376 C379 1.539 . S
C377 C373 1.408 . S
C377 C376 1.404 . S
C377 H389 0.930 . S
C378 C374 1.524 . S
C378 H390 0.956 . S
C378 H391 0.961 . S
C378 H392 0.961 . S
C379 C376 1.539 . S
C379 H393 0.958 . S
C379 H394 0.961 . S
C379 H395 0.960 . S
H380 C364 0.931 . S
H381 C369 0.929 . S
H382 C370 0.960 . S
H383 C370 0.962 . S
H384 C370 0.960 . S
H385 C371 0.961 . S
H386 C371 0.961 . S
H387 C371 0.961 1_545 S
H388 C372 0.931 . S
H389 C377 0.930 . S
H390 C378 0.956 . S
H391 C378 0.961 . S
H392 C378 0.961 . S
H393 C379 0.958 . S
H394 C379 0.961 . S
H395 C379 0.960 . S
C396 C397 1.363 1_655 S
C396 C398 1.394 . S
C396 H412 0.931 . S
C397 C396 1.363 1_455 S
C397 C401 1.404 . S
C398 C396 1.394 . S
C398 C399 1.369 1_655 S
C398 C402 1.531 . S
C399 C398 1.369 1_455 S
C399 C400 1.410 . S
C399 C407 1.503 . S
C400 C399 1.410 . S
C400 C401 1.392 . S
C400 C403 1.511 . S
C401 C397 1.404 . S
C401 C400 1.392 . S
C401 H413 0.929 . S
C402 C398 1.531 . S
C402 H414 0.960 . S
C402 H415 0.962 . S
C402 H416 0.960 . S
C403 C400 1.511 . S
C403 H417 0.961 . S
C403 H418 0.961 . S
C403 H419 0.961 . S
C404 C405 1.369 . S
C404 C406 1.363 . S
C404 H420 0.931 . S
C405 C404 1.369 . S
C405 C409 1.409 1_655 S
C406 C404 1.363 . S
C406 C407 1.370 1_655 S
C406 C410 1.524 . S
C407 C399 1.503 . S
C407 C406 1.370 1_455 S
C407 C408 1.403 . S
C408 C407 1.403 . S
C408 C409 1.404 . S
C408 C411 1.539 . S
C409 C405 1.409 1_455 S
C409 C408 1.404 . S
C409 H421 0.930 . S
C410 C406 1.524 . S
C410 H422 0.956 . S
C410 H423 0.963 1_655 S
C410 H424 0.961 . S
C411 C408 1.539 . S
C411 H425 0.958 . S
C411 H426 0.961 . S
C411 H427 0.960 . S
H412 C396 0.931 . S
H413 C401 0.929 . S
H414 C402 0.960 . S
H415 C402 0.962 . S
H416 C402 0.960 . S
H417 C403 0.961 . S
H418 C403 0.961 . S
H419 C403 0.961 . S
H420 C404 0.931 . S
H421 C409 0.930 . S
H422 C410 0.956 . S
H423 C410 0.963 1_455 S
H424 C410 0.961 . S
H425 C411 0.958 . S
H426 C411 0.961 . S
H427 C411 0.960 . S
C428 C429 1.391 . S
C428 C430 1.394 . S
C428 H444 0.931 . S
C429 C428 1.391 . S
C429 C433 1.376 1_565 S
C430 C428 1.394 . S
C430 C431 1.369 . S
C430 C434 1.531 . S
C431 C430 1.369 . S
C431 C432 1.410 1_565 S
C431 C439 1.503 . S
C432 C431 1.410 1_545 S
C432 C433 1.392 . S
C432 C435 1.511 . S
C433 C429 1.376 1_545 S
C433 C432 1.392 . S
C433 H445 0.929 . S
C434 C430 1.531 . S
C434 H446 0.960 . S
C434 H447 0.962 . S
C434 H448 0.960 . S
C435 C432 1.511 . S
C435 H449 0.961 . S
C435 H450 0.961 . S
C435 H451 0.961 . S
C436 C437 1.370 . S
C436 C438 1.363 . S
C436 H452 0.931 . S
C437 C436 1.370 . S
C437 C441 1.409 1_545 S
C438 C436 1.363 . S
C438 C439 1.370 1_545 S
C438 C442 1.524 . S
C439 C431 1.503 . S
C439 C438 1.370 1_565 S
C439 C440 1.403 . S
C440 C439 1.403 . S
C440 C441 1.404 . S
C440 C443 1.539 . S
C441 C437 1.409 1_565 S
C441 C440 1.404 . S
C441 H453 0.930 . S
C442 C438 1.524 . S
C442 H454 0.956 . S
C442 H455 0.961 . S
C442 H456 0.961 . S
C443 C440 1.539 . S
C443 H457 0.958 . S
C443 H458 0.961 . S
C443 H459 0.960 . S
H444 C428 0.931 . S
H445 C433 0.929 . S
H446 C434 0.960 . S
H447 C434 0.962 . S
H448 C434 0.960 . S
H449 C435 0.961 . S
H450 C435 0.961 . S
H451 C435 0.961 . S
H452 C436 0.931 . S
H453 C441 0.930 . S
H454 C442 0.956 . S
H455 C442 0.961 . S
H456 C442 0.961 . S
H457 C443 0.958 . S
H458 C443 0.961 . S
H459 C443 0.960 . S
C460 C461 1.369 1_455 S
C460 C462 1.394 . S
C460 H476 0.931 . S
C461 C460 1.369 1_655 S
C461 C465 1.399 . S
C462 C460 1.394 . S
C462 C463 1.369 1_455 S
C462 C466 1.531 . S
C463 C462 1.369 1_655 S
C463 C464 1.410 . S
C463 C471 1.503 . S
C464 C463 1.410 . S
C464 C465 1.392 . S
C464 C467 1.511 . S
C465 C461 1.399 . S
C465 C464 1.392 . S
C465 H477 0.929 . S
C466 C462 1.531 . S
C466 H478 0.960 . S
C466 H479 0.962 . S
C466 H480 0.960 . S
C467 C464 1.511 . S
C467 H481 0.961 . S
C467 H482 0.961 . S
C467 H483 0.961 . S
C468 C469 1.370 1_455 S
C468 C470 1.363 . S
C468 H484 0.931 . S
C469 C468 1.370 1_655 S
C469 C473 1.408 . S
C470 C468 1.363 . S
C470 C471 1.370 1_455 S
C470 C474 1.524 . S
C471 C463 1.503 . S
C471 C470 1.370 1_655 S
C471 C472 1.403 . S
C472 C471 1.403 . S
C472 C473 1.404 . S
C472 C475 1.539 . S
C473 C469 1.408 . S
C473 C472 1.404 . S
C473 H485 0.930 . S
C474 C470 1.524 . S
C474 H486 0.956 . S
C474 H487 0.961 1_455 S
C474 H488 0.961 . S
C475 C472 1.539 . S
C475 H489 0.958 . S
C475 H490 0.961 . S
C475 H491 0.960 . S
H476 C460 0.931 . S
H477 C465 0.929 . S
H478 C466 0.960 . S
H479 C466 0.962 . S
H480 C466 0.960 . S
H481 C467 0.961 . S
H482 C467 0.961 . S
H483 C467 0.961 . S
H484 C468 0.931 . S
H485 C473 0.930 . S
H486 C474 0.956 . S
H487 C474 0.961 1_655 S
H488 C474 0.961 . S
H489 C475 0.958 . S
H490 C475 0.961 . S
H491 C475 0.960 . S
C492 C493 1.391 . S
C492 C494 1.394 . S
C492 H508 0.931 . S
C493 C492 1.391 . S
C493 C497 1.376 1_565 S
C494 C492 1.394 . S
C494 C495 1.369 . S
C494 C498 1.531 . S
C495 C494 1.369 . S
C495 C496 1.410 1_565 S
C495 C503 1.503 . S
C496 C495 1.410 1_545 S
C496 C497 1.392 . S
C496 C499 1.511 . S
C497 C493 1.376 1_545 S
C497 C496 1.392 . S
C497 H509 0.929 . S
C498 C494 1.531 . S
C498 H510 0.960 . S
C498 H511 0.962 . S
C498 H512 0.960 . S
C499 C496 1.511 . S
C499 H513 0.961 . S
C499 H514 0.961 . S
C499 H515 0.961 . S
C500 C501 1.370 1_545 S
C500 C502 1.363 . S
C500 H516 0.931 . S
C501 C500 1.370 1_565 S
C501 C505 1.408 . S
C502 C500 1.363 . S
C502 C503 1.370 1_545 S
C502 C506 1.524 . S
C503 C495 1.503 . S
C503 C502 1.370 1_565 S
C503 C504 1.403 . S
C504 C503 1.403 . S
C504 C505 1.404 . S
C504 C507 1.539 . S
C505 C501 1.408 . S
C505 C504 1.404 . S
C505 H517 0.930 . S
C506 C502 1.524 . S
C506 H518 0.956 . S
C506 H519 0.961 . S
C506 H520 0.961 . S
C507 C504 1.539 . S
C507 H521 0.958 . S
C507 H522 0.961 . S
C507 H523 0.960 . S
H508 C492 0.931 . S
H509 C497 0.929 . S
H510 C498 0.960 . S
H511 C498 0.962 . S
H512 C498 0.960 . S
H513 C499 0.961 . S
H514 C499 0.961 . S
H515 C499 0.961 . S
H516 C500 0.931 . S
H517 C505 0.930 . S
H518 C506 0.956 . S
H519 C506 0.961 . S
H520 C506 0.961 . S
H521 C507 0.958 . S
H522 C507 0.961 . S
H523 C507 0.960 . S
C524 C525 1.391 1_655 S
C524 C526 1.394 . S
C524 H540 0.931 . S
C525 C524 1.391 1_455 S
C525 C529 1.376 . S
C526 C524 1.394 . S
C526 C527 1.369 1_655 S
C526 C530 1.531 . S
C527 C526 1.369 1_455 S
C527 C528 1.410 . S
C527 C535 1.503 . S
C528 C527 1.410 . S
C528 C529 1.392 . S
C528 C531 1.511 . S
C529 C525 1.376 . S
C529 C528 1.392 . S
C529 H541 0.929 . S
C530 C526 1.531 . S
C530 H542 0.960 . S
C530 H543 0.962 . S
C530 H544 0.960 . S
C531 C528 1.511 . S
C531 H545 0.961 . S
C531 H546 0.961 . S
C531 H547 0.961 . S
C532 C533 1.370 1_655 S
C532 C534 1.363 . S
C532 H548 0.931 . S
C533 C532 1.370 1_455 S
C533 C537 1.408 . S
C534 C532 1.363 . S
C534 C535 1.370 1_655 S
C534 C538 1.524 . S
C535 C527 1.503 . S
C535 C534 1.370 1_455 S
C535 C536 1.403 . S
C536 C535 1.403 . S
C536 C537 1.404 . S
C536 C539 1.539 . S
C537 C533 1.408 . S
C537 C536 1.404 . S
C537 H549 0.930 . S
C538 C534 1.524 . S
C538 H550 0.956 . S
C538 H551 0.961 . S
C538 H552 0.961 . S
C539 C536 1.539 . S
C539 H553 0.958 . S
C539 H554 0.961 . S
C539 H555 0.960 . S
H540 C524 0.931 . S
H541 C529 0.929 . S
H542 C530 0.960 . S
H543 C530 0.962 . S
H544 C530 0.960 . S
H545 C531 0.961 . S
H546 C531 0.961 . S
H547 C531 0.961 . S
H548 C532 0.931 . S
H549 C537 0.930 . S
H550 C538 0.956 . S
H551 C538 0.961 . S
H552 C538 0.961 . S
H553 C539 0.958 . S
H554 C539 0.961 . S
H555 C539 0.960 . S
C309 C173 1.762 1_565 S
C301 C47 1.636 1_565 S
C341 C261 1.761 1_655 S
C333 C109 1.614 . S
C373 C181 1.761 . S
C365 C29 1.638 . S
C405 C269 1.758 1_655 S
C397 C91 1.668 1_455 S
C437 C241 1.375 . S
C429 C53 1.344 1_565 S
C469 C144 1.376 1_655 S
C461 C115 1.333 . S
C501 C232 1.377 1_565 S
C493 C35 1.372 1_565 S
C525 C97 1.345 1_455 S
C533 C153 1.380 . S
