# Generated by pormake.
# Topology tsx, (6,3)-cn, num edge types: 1
# Building blocks:
#     Node 0, Type 0, BuildingBlock: LEVNOQ01_clean_sbu_1, # of connection points: 6
#     Node 1, Type 0, BuildingBlock: LEVNOQ01_clean_sbu_1, # of connection points: 6
#     Node 2, Type 1, BuildingBlock: MIDCAF_clean_linker_0, # of connection points: 3
#     Node 3, Type 1, BuildingBlock: MIDCAF_clean_linker_0, # of connection points: 3
#     Node 4, Type 1, BuildingBlock: MIDCAF_clean_linker_0, # of connection points: 3
#     Node 5, Type 1, BuildingBlock: MIDCAF_clean_linker_0, # of connection points: 3
#     Edge 6, Type (0, 1), BuildingBlock: EZIPEK_clean_linker_0, # of connection points: 2
#     Edge 7, Type (0, 1), BuildingBlock: EZIPEK_clean_linker_0, # of connection points: 2
#     Edge 8, Type (0, 1), BuildingBlock: EZIPEK_clean_linker_0, # of connection points: 2
#     Edge 9, Type (0, 1), BuildingBlock: EZIPEK_clean_linker_0, # of connection points: 2
#     Edge 10, Type (0, 1), BuildingBlock: EZIPEK_clean_linker_0, # of connection points: 2
#     Edge 11, Type (0, 1), BuildingBlock: EZIPEK_clean_linker_0, # of connection points: 2
#     Edge 12, Type (0, 1), BuildingBlock: EZIPEK_clean_linker_0, # of connection points: 2
#     Edge 13, Type (0, 1), BuildingBlock: EZIPEK_clean_linker_0, # of connection points: 2
#     Edge 14, Type (0, 1), BuildingBlock: EZIPEK_clean_linker_0, # of connection points: 2
#     Edge 15, Type (0, 1), BuildingBlock: EZIPEK_clean_linker_0, # of connection points: 2
#     Edge 16, Type (0, 1), BuildingBlock: EZIPEK_clean_linker_0, # of connection points: 2
#     Edge 17, Type (0, 1), BuildingBlock: EZIPEK_clean_linker_0, # of connection points: 2
# Relax obj value: 0.132
# Max RMSD: 0.158
# Mean RMSD: 0.121
data_MOF--net-tsx--node1-LEVNOQ01_clean_sbu_1--node2-MIDCAF_clean_linker_0--edge1-EZIPEK_clean_linker_0
_symmetry_space_group_name_H-M    P1
_symmetry_Int_Tables_number       1
_symmetry_cell_setting            triclinic
loop_
_symmetry_equiv_pos_as_xyz
'x, y, z'
_cell_length_a     17.261858
_cell_length_b     21.135826
_cell_length_c     35.054135
_cell_angle_alpha  97.324609
_cell_angle_beta   90.79885
_cell_angle_gamma 91.34659
loop_
_atom_site_label
_atom_site_type_symbol
_atom_site_fract_x
_atom_site_fract_y
_atom_site_fract_z
_atom_type_partial_charge
O0 O 0.10914 0.04353 0.10936 0.0
Mg1 Mg 0.19596 0.0532 0.06853 0.0
O2 O 0.01146 0.01386 0.06806 0.0
Mg3 Mg 0.0477 0.02895 0.00548 0.0
O4 O 0.14514 0.09637 0.02673 0.0
O5 O 0.24666 0.14105 0.059 0.0
O6 O 0.08576 0.04305 0.94335 0.0
O7 O 0.97507 0.1247 0.01357 0.0
Mg8 Mg 0.91607 0.03365 0.96299 0.0
O9 O 0.94891 0.95124 0.98342 0.0
O10 O 0.97465 0.06133 0.91557 0.0
O11 O 0.85424 0.10163 -0.00293 0.0
O12 O 0.84587 0.959 0.94513 0.0
C13 C 0.19848 0.92879 0.01359 0.0
C14 C 0.03993 0.02324 0.10229 0.0
C15 C 0.19546 0.1425 0.03208 0.0
C16 C 0.04736 0.05672 0.91432 0.0
C17 C 0.90472 0.14158 0.01174 0.0
C18 C 0.8887 0.92461 0.96426 0.0
O19 O 0.23519 0.9664 0.03916 0.0
O20 O 0.13185 0.94195 0.00037 0.0
O21 O 0.6249 0.5396 0.59877 0.0
Mg22 Mg 0.70186 0.55426 0.55415 0.0
O23 O 0.51664 0.51717 0.56336 0.0
Mg24 Mg 0.53951 0.53425 0.50007 0.0
O25 O 0.64116 0.59954 0.5173 0.0
O26 O 0.74906 0.64275 0.5442 0.0
O27 O 0.56868 0.55048 0.43659 0.0
O28 O 0.46767 0.62665 0.51022 0.0
Mg29 Mg 0.3891 0.52848 0.44726 0.0
O30 O 0.43323 0.46757 0.48248 0.0
O31 O 0.46132 0.53858 0.40051 0.0
O32 O 0.35459 0.61361 0.47914 0.0
O33 O 0.32366 0.4468 0.44803 0.0
C34 C 0.68395 0.42888 0.50183 0.0
C35 C 0.55419 0.52132 0.59535 0.0
C36 C 0.69137 0.64586 0.52088 0.0
C37 C 0.53367 0.54935 0.40415 0.0
C38 C 0.40152 0.64713 0.50181 0.0
C39 C 0.37345 0.43031 0.47249 0.0
O40 O 0.73066 0.46857 0.52103 0.0
O41 O 0.61458 0.44322 0.49366 0.0
C42 C 0.92562 0.22063 0.44559 0.0
C43 C 0.8688 0.21129 0.47269 0.0
C44 C 0.86477 0.15394 0.48868 0.0
C45 C 0.91464 0.10512 0.47629 0.0
H46 H 0.14189 -0.00159 0.50216 0.0
H47 H 0.2284 0.93593 0.53779 0.0
H48 H 0.23955 0.79402 0.43828 0.0
H49 H 0.15288 0.85562 0.40262 0.0
H50 H 0.11369 0.93485 0.31413 0.0
H51 H 0.09063 0.93503 0.24488 0.0
H52 H 0.85793 -0.00175 0.26671 0.0
H53 H 0.88088 -0.00078 0.33586 0.0
H54 H 0.0148 0.17746 0.40992 0.0
H55 H 0.92922 0.26486 0.43304 0.0
H56 H 0.82084 0.14605 0.50947 0.0
H57 H 0.90702 0.06014 0.48722 0.0
N58 N 0.05457 0.02259 0.44678 0.0
N59 N 0.06926 0.95105 0.39031 0.0
N60 N 0.98774 0.03814 0.39033 0.0
C61 C 0.08696 0.96949 0.42825 0.0
C62 C 0.0188 0.98515 0.37143 0.0
C63 C 0.00559 0.05707 0.42773 0.0
C64 C 0.13997 0.93195 0.4496 0.0
C65 C 0.16217 0.9537 0.48798 0.0
C66 C 0.21166 0.91825 0.50839 0.0
C67 C 0.23961 0.86043 0.49062 0.0
C68 C 0.21788 0.83857 0.45242 0.0
C69 C 0.16853 0.87392 0.43205 0.0
C70 C 0.9996 0.96823 0.33023 0.0
C71 C 0.0569 0.94672 0.30404 0.0
C72 C 0.0438 0.9469 0.26457 0.0
C73 C 0.97307 0.96775 0.25099 0.0
C74 C 0.91296 0.9825 0.27679 0.0
C75 C 0.92639 0.98327 0.31619 0.0
C76 C 0.96787 0.11273 0.44735 0.0
C77 C 0.97441 0.17116 0.43261 0.0
C78 C 0.83913 0.86481 0.55314 0.0
C79 C 0.82714 0.86177 0.51317 0.0
C80 C 0.8711 0.9025 0.49282 0.0
C81 C 0.92826 0.94324 0.512 0.0
H82 H 0.2387 0.06744 0.556 0.0
H83 H 0.32244 0.14715 0.53022 0.0
H84 H 0.12588 0.26745 0.5225 0.0
H85 H 0.04171 0.187 0.54742 0.0
H86 H 0.17539 0.09699 0.67599 0.0
H87 H 0.19168 0.10449 0.74587 0.0
H88 H 0.97689 -0.00137 0.75253 0.0
H89 H 0.96028 0.98994 0.68255 0.0
H90 H 0.89886 0.90968 0.6034 0.0
H91 H 0.80626 0.83372 0.5696 0.0
H92 H 0.86231 0.90212 0.46214 0.0
H93 H 0.96493 0.97073 0.49531 0.0
N94 N 0.03536 0.03623 0.554 0.0
N95 N 0.09779 0.07933 0.61176 0.0
N96 N 0.00407 -0.00249 0.61192 0.0
C97 C 0.08749 0.07806 0.57331 0.0
C98 C 0.05585 0.03959 0.6314 0.0
C99 C 0.99392 -0.0049 0.57316 0.0
C100 C 0.1343 0.12143 0.55316 0.0
C101 C 0.21352 0.11049 0.54806 0.0
C102 C 0.26118 0.15584 0.53362 0.0
C103 C 0.23015 0.21301 0.52483 0.0
C104 C 0.15051 0.22339 0.52917 0.0
C105 C 0.10262 0.17758 0.54311 0.0
C106 C 0.06639 0.0429 0.67364 0.0
C107 C 0.13148 0.07524 0.69224 0.0
C108 C 0.14105 0.07965 0.73214 0.0
C109 C 0.08516 0.05266 0.75421 0.0
C110 C 0.02039 0.02004 0.73585 0.0
C111 C 0.01116 0.01496 0.69589 0.0
C112 C 0.93787 0.94825 0.55223 0.0
C113 C 0.89277 0.9081 0.5725 0.0
C114 C 0.37239 0.68474 0.91703 0.0
C115 C 0.36784 0.70412 0.9566 0.0
C116 C 0.40491 0.66878 0.98243 0.0
C117 C 0.44456 0.6137 0.96875 0.0
H118 H 0.61207 0.47412 -0.00309 0.0
H119 H 0.70783 0.41912 0.03221 0.0
H120 H 0.72852 0.27689 0.9335 0.0
H121 H 0.63732 0.333 0.89752 0.0
H122 H 0.60825 0.39982 0.81034 0.0
H123 H 0.60359 0.40306 0.74063 0.0
H124 H 0.36859 0.46741 0.74861 0.0
H125 H 0.37295 0.46492 0.81812 0.0
H126 H 0.41301 0.61569 0.87264 0.0
H127 H 0.34481 0.71194 0.89668 0.0
H128 H 0.40255 0.68352 0.01314 0.0
H129 H 0.47185 0.58727 0.98917 0.0
N130 N 0.53159 0.49995 0.93605 0.0
N131 N 0.55044 0.42194 0.88297 0.0
N132 N 0.46938 0.50726 0.87702 0.0
C133 C 0.5647 0.44451 0.92068 0.0
C134 C 0.50209 0.45283 0.86122 0.0
C135 C 0.48368 0.5316 0.9141 0.0
C136 C 0.6181 0.40941 0.94388 0.0
C137 C 0.63793 0.43194 0.98247 0.0
C138 C 0.69207 0.40009 0.0029 0.0
C139 C 0.72524 0.34385 0.98547 0.0
C140 C 0.70375 0.3203 0.9475 0.0
C141 C 0.65127 0.35264 0.92693 0.0
C142 C 0.49149 0.43341 0.81956 0.0
C143 C 0.55453 0.41191 0.79698 0.0
C144 C 0.55197 0.41378 0.75722 0.0
C145 C 0.48608 0.43632 0.73985 0.0
C146 C 0.41985 0.45006 0.76168 0.0
C147 C 0.42264 0.44885 0.80134 0.0
C148 C 0.4471 0.59256 0.92918 0.0
C149 C 0.41145 0.62952 0.90344 0.0
C150 C 0.34756 0.36331 0.05329 0.0
C151 C 0.33052 0.35922 0.0138 0.0
C152 C 0.36486 0.40344 0.99225 0.0
C153 C 0.41641 0.45063 0.01015 0.0
H154 H 0.61422 0.57849 0.99218 0.0
H155 H 0.69829 0.64882 0.96006 0.0
H156 H 0.70326 0.78671 0.06199 0.0
H157 H 0.62157 0.71547 0.09483 0.0
H158 H 0.65489 0.62996 0.17093 0.0
H159 H 0.67669 0.63644 0.24054 0.0
H160 H 0.48667 0.50278 0.24775 0.0
H161 H 0.46469 0.49515 0.17832 0.0
H162 H 0.40926 0.41221 0.10173 0.0
H163 H 0.32147 0.32954 0.07044 0.0
H164 H 0.3522 0.40123 0.96174 0.0
H165 H 0.44239 0.48365 0.9929 0.0
N166 N 0.52367 0.54788 0.04933 0.0
N167 N 0.58059 0.59955 0.10644 0.0
N168 N 0.49724 0.51116 0.10827 0.0
C169 C 0.57042 0.59517 0.06774 0.0
C170 C 0.54459 0.55763 0.12691 0.0
C171 C 0.48625 0.5059 0.0695 0.0
C172 C 0.61234 0.64071 0.04628 0.0
C173 C 0.63271 0.6237 0.00773 0.0
C174 C 0.68058 0.66397 0.98927 0.0
C175 C 0.70699 0.72272 0.00878 0.0
C176 C 0.68347 0.74139 0.04656 0.0
C177 C 0.63701 0.70056 0.06526 0.0
C178 C 0.55779 0.56212 0.16901 0.0
C179 C 0.61755 0.60196 0.18728 0.0
C180 C 0.63036 0.60572 0.22699 0.0
C181 C 0.58293 0.57042 0.24908 0.0
C182 C 0.5236 0.53051 0.23102 0.0
C183 C 0.51119 0.52624 0.19135 0.0
C184 C 0.43336 0.45509 0.04986 0.0
C185 C 0.39806 0.41067 0.07115 0.0
C186 C 0.16386 0.252 0.01924 0.0
C187 C 0.20047 0.19383 0.00748 0.0
C188 C 0.30564 0.24953 0.97898 0.0
C189 C 0.27593 0.30777 -0.00332 0.0
N190 N 0.16392 0.36667 0.01742 0.0
N191 N 0.28422 0.13483 0.96303 0.0
C192 C 0.19939 0.30949 0.0105 0.0
C193 C 0.26331 0.19205 0.98209 0.0
N194 N 0.09986 0.25243 0.04165 0.0
N195 N 0.37676 0.24882 0.96246 0.0
H196 H 0.25295 0.09279 0.96586 0.0
H197 H 0.32694 0.13005 0.94226 0.0
H198 H 0.40782 0.2906 0.95912 0.0
H199 H 0.4056 0.20716 0.953 0.0
H200 H 0.07461 0.29395 0.05442 0.0
H201 H 0.0736 0.21029 0.04824 0.0
H202 H 0.10624 0.37118 0.02543 0.0
H203 H 0.19128 0.40886 0.01147 0.0
C204 C 0.31011 0.87738 0.97824 0.0
C205 C 0.23845 0.87061 -0.00305 0.0
C206 C 0.24813 0.75428 0.98564 0.0
C207 C 0.32349 0.76144 0.97081 0.0
N208 N 0.43198 0.82963 0.95876 0.0
N209 N 0.14683 0.80354 0.0254 0.0
C210 C 0.35618 0.82301 0.96873 0.0
C211 C 0.20916 0.80925 0.0024 0.0
N212 N 0.33301 0.93552 0.96851 0.0
N213 N 0.21324 0.69514 0.98309 0.0
H214 H 0.11908 0.84299 0.03943 0.0
H215 H 0.12739 0.76022 0.03347 0.0
H216 H 0.24031 0.65366 0.97136 0.0
H217 H 0.15528 0.68789 0.98963 0.0
H218 H 0.38081 0.94211 0.95151 0.0
H219 H 0.30007 0.97629 0.97426 0.0
H220 H 0.46152 0.87352 0.96096 0.0
H221 H 0.4675 0.79082 0.95146 0.0
C222 C 0.79766 0.83276 0.94331 0.0
C223 C 0.86231 0.85698 0.96643 0.0
C224 C 0.84021 0.77209 0.00691 0.0
C225 C 0.76389 0.76312 0.99099 0.0
N226 N 0.66915 0.78565 0.94333 0.0
N227 N 0.96146 0.83345 0.01117 0.0
C228 C 0.74265 0.79268 0.95849 0.0
C229 C 0.88915 0.82143 -0.00452 0.0
N230 N 0.79051 0.84653 0.90645 0.0
N231 N 0.86588 0.7322 0.03194 0.0
H232 H 0.00365 0.85879 -0.00198 0.0
H233 H 0.98096 0.81558 0.03575 0.0
H234 H 0.83198 0.69439 0.03954 0.0
H235 H 0.92206 0.73294 0.04307 0.0
H236 H 0.74707 0.82636 0.88744 0.0
H237 H 0.83421 0.87121 0.89371 0.0
H238 H 0.64952 0.81183 0.922 0.0
H239 H 0.62597 0.75796 0.95417 0.0
C240 C 0.90677 0.25324 -0.00584 0.0
C241 C 0.88187 0.20927 0.01925 0.0
C242 C 0.76404 0.26965 0.03355 0.0
C243 C 0.78474 0.30895 0.00521 0.0
N244 N 0.88267 0.35485 0.97005 0.0
N245 N 0.80518 0.18943 0.0731 0.0
C246 C 0.85969 0.30634 0.98975 0.0
C247 C 0.81684 0.22289 0.04277 0.0
N248 N 0.97048 0.24109 0.97197 0.0
N249 N 0.69235 0.27383 0.0495 0.0
H250 H 0.84412 0.15522 0.07984 0.0
H251 H 0.76221 0.19974 0.09335 0.0
H252 H 0.65274 0.30789 0.04357 0.0
H253 H 0.67076 0.24179 0.0672 0.0
H254 H 0.98486 0.26578 0.9491 0.0
H255 H 0.00792 0.20426 0.97528 0.0
H256 H 0.93806 0.36021 0.95922 0.0
H257 H 0.93806 0.36021 0.95922 0.0
C258 C 0.6573 0.75782 0.51732 0.0
C259 C 0.68766 0.70062 0.49904 0.0
C260 C 0.79033 0.75903 0.47079 0.0
C261 C 0.76781 0.81507 0.49448 0.0
N262 N 0.66198 0.87364 0.52385 0.0
N263 N 0.75509 0.64941 0.4451 0.0
C264 C 0.6936 0.81642 0.51124 0.0
C265 C 0.74359 0.70277 0.47039 0.0
N266 N 0.59951 0.75544 0.54326 0.0
N267 N 0.85906 0.7574 0.45198 0.0
H268 H 0.72144 0.60787 0.44596 0.0
H269 H 0.79167 0.64861 0.42166 0.0
H270 H 0.89492 0.79739 0.45124 0.0
H271 H 0.88187 0.71554 0.43817 0.0
H272 H 0.58036 0.7954 0.56074 0.0
H273 H 0.57246 0.71232 0.54767 0.0
H274 H 0.60608 0.8779 0.53456 0.0
H275 H 0.69006 0.91664 0.51996 0.0
C276 C 0.74683 0.33858 0.52656 0.0
C277 C 0.70964 0.36226 0.49521 0.0
C278 C 0.75656 0.27205 0.45205 0.0
C279 C 0.80903 0.25937 0.48158 0.0
N280 N 0.85708 0.28275 0.54711 0.0
N281 N 0.6715 0.34812 0.42818 0.0
C282 C 0.80426 0.29243 0.51915 0.0
C283 C 0.71104 0.32741 0.45797 0.0
N284 N 0.72679 0.36053 0.56338 0.0
N285 N 0.74929 0.23047 0.41889 0.0
H286 H 0.63255 0.38501 0.43226 0.0
H287 H 0.67875 0.32976 0.39948 0.0
H288 H 0.78055 0.18862 0.41413 0.0
H289 H 0.70719 0.23412 0.39778 0.0
H290 H 0.74754 0.3412 0.58732 0.0
H291 H 0.68264 0.39311 0.56938 0.0
H292 H 0.86048 0.31081 0.5738 0.0
H293 H 0.90183 0.25051 0.5426 0.0
C294 C 0.34457 0.31397 0.46172 0.0
C295 C 0.35889 0.36958 0.48834 0.0
C296 C 0.30872 0.31331 0.54 0.0
C297 C 0.28124 0.26339 0.51223 0.0
N298 N 0.26991 0.21511 0.44631 0.0
N299 N 0.35213 0.42417 0.55304 0.0
C300 C 0.29911 0.26287 0.47296 0.0
C301 C 0.34215 0.36952 0.5279 0.0
N302 N 0.375 0.31035 0.42575 0.0
N303 N 0.30119 0.30527 0.57772 0.0
H304 H 0.37604 0.46617 0.54516 0.0
H305 H 0.33227 0.42949 0.58113 0.0
H306 H 0.32371 0.3368 0.60071 0.0
H307 H 0.32371 0.3368 0.60071 0.0
H308 H 0.37216 0.2692 0.40593 0.0
H309 H 0.41001 0.34684 0.41724 0.0
H310 H 0.27341 0.21598 0.41675 0.0
H311 H 0.23756 0.17635 0.45379 0.0
C312 C 0.41301 0.76403 0.49766 0.0
C313 C 0.3799 0.71316 0.51524 0.0
C314 C 0.26518 0.77517 0.53228 0.0
C315 C 0.29418 0.82221 0.51049 0.0
N316 N 0.40458 0.87481 0.4866 0.0
N317 N 0.29132 0.67871 0.56094 0.0
C318 C 0.37194 0.82142 0.49854 0.0
C319 C 0.3118 0.72216 0.53699 0.0
N320 N 0.47932 0.7554 0.47707 0.0
N321 N 0.19154 0.77908 0.54595 0.0
H322 H 0.32583 0.6398 0.56437 0.0
H323 H 0.24499 0.68426 0.57968 0.0
H324 H 0.15737 0.81854 0.5437 0.0
H325 H 0.16367 0.74274 0.55834 0.0
H326 H 0.50105 0.78804 0.45979 0.0
H327 H 0.5112 0.71401 0.47601 0.0
H328 H 0.46308 0.87912 0.48023 0.0
H329 H 0.37409 0.91696 0.48689 0.0
C330 C 0.97832 0.94587 0.14227 0.0
C331 C 0.99365 0.00979 0.13566 0.0
C332 C 0.97765 0.04748 0.20379 0.0
C333 C 0.967 0.98318 0.21096 0.0
N334 N 0.93409 0.87408 0.18691 0.0
N335 N 0.98094 0.12164 0.15631 0.0
C336 C 0.95916 0.93327 0.18 0.0
C337 C 0.98356 0.06068 0.16528 0.0
N338 N 0.98713 0.89717 0.11322 0.0
N339 N 0.98759 0.0954 0.23371 0.0
H340 H 0.98482 0.13176 0.12798 0.0
H341 H 0.9671 0.16071 0.17602 0.0
H342 H 0.98411 0.08819 0.2625 0.0
H343 H 0.0047 0.14181 0.23013 0.0
H344 H 0.98567 0.84916 0.11712 0.0
H345 H 0.99937 0.9051 0.08518 0.0
H346 H 0.92066 0.83685 0.16525 0.0
H347 H 0.9201 0.86407 0.21443 0.0
C348 C 0.08335 0.11706 0.86085 0.0
C349 C 0.08398 0.05893 0.87675 0.0
C350 C 0.11101 0.00131 0.81346 0.0
C351 C 0.0945 0.05718 0.79665 0.0
N352 N 0.06294 0.16881 0.80387 0.0
N353 N 0.09868 0.94485 0.86913 0.0
C354 C 0.08159 0.11569 0.82022 0.0
C355 C 0.09966 0.00089 0.85347 0.0
N356 N 0.08389 0.17328 0.88488 0.0
N357 N 0.13761 0.94884 0.79106 0.0
H358 H 0.09348 0.94282 0.89854 0.0
H359 H 0.09918 0.9001 0.85282 0.0
H360 H 0.14658 0.94786 0.76162 0.0
H361 H 0.15743 0.90862 0.80212 0.0
H362 H 0.08979 0.21787 0.87544 0.0
H363 H 0.08644 0.17459 0.91476 0.0
H364 H 0.04465 0.2108 0.81957 0.0
H365 H 0.0605 0.1697 0.77421 0.0
C366 C 0.51446 0.54577 0.66306 0.0
C367 C 0.51775 0.50072 0.62971 0.0
C368 C 0.48338 0.41448 0.6676 0.0
C369 C 0.49202 0.45841 0.70154 0.0
N370 N 0.52378 0.56501 0.73244 0.0
N371 N 0.51017 0.3913 0.59957 0.0
C372 C 0.50896 0.52402 0.69953 0.0
C373 C 0.50224 0.4348 0.63158 0.0
N374 N 0.51632 0.6095 0.65962 0.0
N375 N 0.45734 0.35356 0.66995 0.0
H376 H 0.52284 0.40417 0.57257 0.0
H377 H 0.5085 0.34215 0.60003 0.0
H378 H 0.44437 0.33733 0.69608 0.0
H379 H 0.44304 0.32066 0.64607 0.0
H380 H 0.50689 0.64493 0.68246 0.0
H381 H 0.51955 0.62657 0.63301 0.0
H382 H 0.54557 0.61137 0.73249 0.0
H383 H 0.52038 0.55147 0.75996 0.0
C384 C 0.61113 0.51383 0.34584 0.0
C385 C 0.57549 0.56362 0.36961 0.0
C386 C 0.56516 0.62641 0.31595 0.0
C387 C 0.59433 0.57416 0.29131 0.0
N388 N 0.66647 0.47746 0.28373 0.0
N389 N 0.54455 0.67425 0.38171 0.0
C390 C 0.62499 0.521 0.30674 0.0
C391 C 0.56176 0.62255 0.35604 0.0
N392 N 0.6277 0.45869 0.36031 0.0
N393 N 0.53604 0.67759 0.30083 0.0
H394 H 0.54293 0.67168 0.41122 0.0
H395 H 0.53979 0.72024 0.37441 0.0
H396 H 0.53821 0.68241 0.27164 0.0
H397 H 0.50593 0.71367 0.31682 0.0
H398 H 0.64541 0.41732 0.34376 0.0
H399 H 0.62128 0.4544 0.38935 0.0
H400 H 0.69536 0.43997 0.29368 0.0
H401 H 0.6774 0.48218 0.255 0.0
loop_
_geom_bond_atom_site_label_1
_geom_bond_atom_site_label_2
_geom_bond_distance
_geom_bond_site_symmetry_2
_ccdc_geom_bond_type
O0 Mg1 1.990 . S
O0 C14 1.253 . S
Mg1 O0 1.990 . S
Mg1 O4 2.180 . S
Mg1 O5 2.117 . S
Mg1 O19 2.030 1_545 S
O2 Mg3 2.072 1_554 S
O2 C14 1.260 . S
Mg3 O2 2.072 1_556 S
Mg3 O4 2.099 1_556 S
Mg3 O6 2.079 . S
Mg3 O7 2.072 1_456 S
Mg3 O9 2.099 1_445 S
Mg3 O20 2.079 1_545 S
O4 Mg1 2.180 . S
O4 Mg3 2.099 1_554 S
O4 C15 1.279 . S
O5 Mg1 2.117 . S
O5 C15 1.250 . S
O6 Mg3 2.079 . S
O6 C16 1.264 . S
O7 Mg3 2.072 1_654 S
O7 C17 1.260 1_554 S
Mg8 O9 2.180 1_545 S
Mg8 O10 2.030 . S
Mg8 O11 1.990 . S
Mg8 O12 2.117 1_545 S
O9 Mg3 2.099 1_665 S
O9 Mg8 2.180 1_565 S
O9 C18 1.281 . S
O10 Mg8 2.030 . S
O10 C16 1.248 1_655 S
O11 Mg8 1.990 . S
O11 C17 1.253 . S
O12 Mg8 2.117 1_565 S
O12 C18 1.252 . S
C13 O19 1.248 . S
C13 O20 1.264 1_554 S
C14 O0 1.253 . S
C14 O2 1.260 . S
C15 O4 1.279 . S
C15 O5 1.250 . S
C16 O6 1.264 . S
C16 O10 1.248 1_455 S
C17 O7 1.260 1_556 S
C17 O11 1.253 . S
C18 O9 1.281 . S
C18 O12 1.252 . S
O19 Mg1 2.030 1_565 S
O19 C13 1.248 . S
O20 Mg3 2.079 1_565 S
O20 C13 1.264 1_556 S
O21 Mg22 1.990 . S
O21 C35 1.253 . S
Mg22 O21 1.990 . S
Mg22 O25 2.180 . S
Mg22 O26 2.117 . S
Mg22 O40 2.030 . S
O23 Mg24 2.072 . S
O23 C35 1.260 . S
Mg24 O23 2.072 . S
Mg24 O25 2.099 . S
Mg24 O27 2.079 . S
Mg24 O28 2.072 . S
Mg24 O30 2.099 . S
Mg24 O41 2.079 . S
O25 Mg22 2.180 . S
O25 Mg24 2.099 . S
O25 C36 1.279 . S
O26 Mg22 2.117 . S
O26 C36 1.250 . S
O27 Mg24 2.079 . S
O27 C37 1.264 . S
O28 Mg24 2.072 . S
O28 C38 1.260 . S
Mg29 O30 2.180 . S
Mg29 O31 2.030 . S
Mg29 O32 1.990 . S
Mg29 O33 2.117 . S
O30 Mg24 2.099 . S
O30 Mg29 2.180 . S
O30 C39 1.279 . S
O31 Mg29 2.030 . S
O31 C37 1.248 . S
O32 Mg29 1.990 . S
O32 C38 1.253 . S
O33 Mg29 2.117 . S
O33 C39 1.250 . S
C34 O40 1.248 . S
C34 O41 1.264 . S
C35 O21 1.253 . S
C35 O23 1.260 . S
C36 O25 1.279 . S
C36 O26 1.250 . S
C37 O27 1.264 . S
C37 O31 1.248 . S
C38 O28 1.260 . S
C38 O32 1.253 . S
C39 O30 1.279 . S
C39 O33 1.250 . S
O40 Mg22 2.030 . S
O40 C34 1.248 . S
O41 Mg24 2.079 . S
O41 C34 1.264 . S
C42 C43 1.384 . S
C42 H55 0.947 . S
C42 C77 1.382 . S
C43 C42 1.384 . S
C43 C44 1.378 . S
C44 C43 1.378 . S
C44 C45 1.378 . S
C44 H56 0.952 . S
C45 C44 1.378 . S
C45 H57 0.950 1_655 S
C45 C76 1.383 . S
H46 C65 0.947 . S
H47 C66 0.946 . S
H48 C68 0.953 . S
H49 C69 0.945 . S
H50 C71 0.952 . S
H51 C72 0.949 . S
H52 C74 0.950 . S
H53 C75 0.948 . S
H54 C77 0.951 . S
H55 C42 0.947 . S
H56 C44 0.952 . S
H57 C45 0.950 1_455 S
N58 C61 1.382 1_545 S
N58 C63 1.363 . S
N59 C61 1.371 . S
N59 C62 1.372 1_565 S
N60 C62 1.361 . S
N60 C63 1.377 . S
C61 N58 1.382 1_565 S
C61 N59 1.371 . S
C61 C64 1.480 . S
C62 N59 1.372 1_545 S
C62 N60 1.361 . S
C62 C70 1.457 . S
C63 N58 1.363 . S
C63 N60 1.377 . S
C63 C76 1.479 1_455 S
C64 C61 1.480 . S
C64 C65 1.383 . S
C64 C69 1.385 . S
C65 H46 0.947 . S
C65 C64 1.383 . S
C65 C66 1.388 . S
C66 H47 0.946 . S
C66 C65 1.388 . S
C66 C67 1.384 . S
C67 C66 1.384 . S
C67 C68 1.377 . S
C68 H48 0.953 . S
C68 C67 1.377 . S
C68 C69 1.369 . S
C69 H49 0.945 . S
C69 C64 1.385 . S
C69 C68 1.369 . S
C70 C62 1.457 . S
C70 C71 1.372 1_545 S
C70 C75 1.364 . S
C71 H50 0.952 . S
C71 C70 1.372 1_565 S
C71 C72 1.389 . S
C72 H51 0.949 . S
C72 C71 1.389 . S
C72 C73 1.387 . S
C73 C72 1.387 . S
C73 C74 1.372 1_565 S
C74 H52 0.950 . S
C74 C73 1.372 1_545 S
C74 C75 1.379 . S
C75 H53 0.948 . S
C75 C70 1.364 . S
C75 C74 1.379 . S
C76 C45 1.383 . S
C76 C63 1.479 1_655 S
C76 C77 1.398 . S
C77 C42 1.382 . S
C77 H54 0.951 . S
C77 C76 1.398 . S
C78 C79 1.384 . S
C78 H91 0.947 . S
C78 C113 1.382 . S
C79 C78 1.384 . S
C79 C80 1.378 . S
C80 C79 1.378 . S
C80 C81 1.378 . S
C80 H92 0.952 . S
C81 C80 1.378 . S
C81 H93 0.950 . S
C81 C112 1.383 . S
H82 C101 0.947 . S
H83 C102 0.946 . S
H84 C104 0.953 . S
H85 C105 0.945 . S
H86 C107 0.952 . S
H87 C108 0.949 . S
H88 C110 0.950 . S
H89 C111 0.948 1_565 S
H90 C113 0.951 . S
H91 C78 0.947 . S
H92 C80 0.952 . S
H93 C81 0.950 . S
N94 C97 1.382 . S
N94 C99 1.363 1_455 S
N95 C97 1.371 . S
N95 C98 1.372 . S
N96 C98 1.361 1_655 S
N96 C99 1.377 . S
C97 N94 1.382 . S
C97 N95 1.371 . S
C97 C100 1.480 . S
C98 N95 1.372 . S
C98 N96 1.361 1_455 S
C98 C106 1.457 . S
C99 N94 1.363 1_655 S
C99 N96 1.377 . S
C99 C112 1.479 1_545 S
C100 C97 1.480 . S
C100 C101 1.383 . S
C100 C105 1.385 . S
C101 H82 0.947 . S
C101 C100 1.383 . S
C101 C102 1.388 . S
C102 H83 0.946 . S
C102 C101 1.388 . S
C102 C103 1.384 . S
C103 C102 1.384 . S
C103 C104 1.377 . S
C104 H84 0.953 . S
C104 C103 1.377 . S
C104 C105 1.369 . S
C105 H85 0.945 . S
C105 C100 1.385 . S
C105 C104 1.369 . S
C106 C98 1.457 . S
C106 C107 1.372 . S
C106 C111 1.364 1_455 S
C107 H86 0.952 . S
C107 C106 1.372 . S
C107 C108 1.389 . S
C108 H87 0.949 . S
C108 C107 1.389 . S
C108 C109 1.387 . S
C109 C108 1.387 . S
C109 C110 1.372 1_455 S
C110 H88 0.950 . S
C110 C109 1.372 1_655 S
C110 C111 1.379 . S
C111 H89 0.948 1_545 S
C111 C106 1.364 1_655 S
C111 C110 1.379 . S
C112 C81 1.383 . S
C112 C99 1.479 1_565 S
C112 C113 1.398 . S
C113 C78 1.382 . S
C113 H90 0.951 . S
C113 C112 1.398 . S
C114 C115 1.381 1_556 S
C114 H127 0.947 . S
C114 C149 1.382 . S
C115 C114 1.381 1_554 S
C115 C116 1.380 . S
C116 C115 1.380 . S
C116 C117 1.378 1_554 S
C116 H128 0.952 . S
C117 C116 1.378 1_556 S
C117 H129 0.950 1_556 S
C117 C148 1.383 . S
H118 C137 0.947 1_554 S
H119 C138 0.946 . S
H120 C140 0.953 . S
H121 C141 0.945 . S
H122 C143 0.952 . S
H123 C144 0.949 . S
H124 C146 0.950 . S
H125 C147 0.948 . S
H126 C149 0.951 . S
H127 C114 0.947 . S
H128 C116 0.952 . S
H129 C117 0.950 1_554 S
N130 C133 1.382 . S
N130 C135 1.363 . S
N131 C133 1.371 . S
N131 C134 1.372 . S
N132 C134 1.361 . S
N132 C135 1.377 . S
C133 N130 1.382 . S
C133 N131 1.371 . S
C133 C136 1.480 . S
C134 N131 1.372 . S
C134 N132 1.361 . S
C134 C142 1.457 . S
C135 N130 1.363 . S
C135 N132 1.377 . S
C135 C148 1.479 . S
C136 C133 1.480 . S
C136 C137 1.383 . S
C136 C141 1.385 . S
C137 H118 0.947 1_556 S
C137 C136 1.383 . S
C137 C138 1.388 1_556 S
C138 H119 0.946 . S
C138 C137 1.388 1_554 S
C138 C139 1.384 1_554 S
C139 C138 1.384 1_556 S
C139 C140 1.377 . S
C140 H120 0.953 . S
C140 C139 1.377 . S
C140 C141 1.369 . S
C141 H121 0.945 . S
C141 C136 1.385 . S
C141 C140 1.369 . S
C142 C134 1.457 . S
C142 C143 1.372 . S
C142 C147 1.364 . S
C143 H122 0.952 . S
C143 C142 1.372 . S
C143 C144 1.389 . S
C144 H123 0.949 . S
C144 C143 1.389 . S
C144 C145 1.387 . S
C145 C144 1.387 . S
C145 C146 1.372 . S
C146 H124 0.950 . S
C146 C145 1.372 . S
C146 C147 1.379 . S
C147 H125 0.948 . S
C147 C142 1.364 . S
C147 C146 1.379 . S
C148 C117 1.383 . S
C148 C135 1.479 . S
C148 C149 1.398 . S
C149 C114 1.382 . S
C149 H126 0.951 . S
C149 C148 1.398 . S
C150 C151 1.384 . S
C150 H163 0.947 . S
C150 C185 1.382 . S
C151 C150 1.384 . S
C151 C152 1.378 1_554 S
C152 C151 1.378 1_556 S
C152 C153 1.378 1_556 S
C152 H164 0.952 . S
C153 C152 1.378 1_554 S
C153 H165 0.950 1_554 S
C153 C184 1.383 . S
H154 C173 0.947 . S
H155 C174 0.946 1_556 S
H156 C176 0.953 . S
H157 C177 0.945 . S
H158 C179 0.952 . S
H159 C180 0.949 . S
H160 C182 0.950 . S
H161 C183 0.948 . S
H162 C185 0.951 . S
H163 C150 0.947 . S
H164 C152 0.952 . S
H165 C153 0.950 1_556 S
N166 C169 1.382 . S
N166 C171 1.363 . S
N167 C169 1.371 . S
N167 C170 1.372 . S
N168 C170 1.361 . S
N168 C171 1.377 . S
C169 N166 1.382 . S
C169 N167 1.371 . S
C169 C172 1.480 . S
C170 N167 1.372 . S
C170 N168 1.361 . S
C170 C178 1.457 . S
C171 N166 1.363 . S
C171 N168 1.377 . S
C171 C184 1.479 . S
C172 C169 1.480 . S
C172 C173 1.383 . S
C172 C177 1.385 . S
C173 H154 0.947 . S
C173 C172 1.383 . S
C173 C174 1.388 . S
C174 H155 0.946 1_554 S
C174 C173 1.388 . S
C174 C175 1.384 . S
C175 C174 1.384 . S
C175 C176 1.377 . S
C176 H156 0.953 . S
C176 C175 1.377 . S
C176 C177 1.369 . S
C177 H157 0.945 . S
C177 C172 1.385 . S
C177 C176 1.369 . S
C178 C170 1.457 . S
C178 C179 1.372 . S
C178 C183 1.364 . S
C179 H158 0.952 . S
C179 C178 1.372 . S
C179 C180 1.389 . S
C180 H159 0.949 . S
C180 C179 1.389 . S
C180 C181 1.387 . S
C181 C180 1.387 . S
C181 C182 1.372 . S
C182 H160 0.950 . S
C182 C181 1.372 . S
C182 C183 1.379 . S
C183 H161 0.948 . S
C183 C178 1.364 . S
C183 C182 1.379 . S
C184 C153 1.383 . S
C184 C171 1.479 . S
C184 C185 1.398 . S
C185 C150 1.382 . S
C185 H162 0.951 . S
C185 C184 1.398 . S
C186 C187 1.363 . S
C186 C192 1.379 . S
C186 N194 1.356 . S
C187 C186 1.363 . S
C187 C193 1.363 1_554 S
C188 C189 1.361 1_556 S
C188 C193 1.379 . S
C188 N195 1.356 . S
C189 C188 1.361 1_554 S
C189 C192 1.367 . S
N190 C192 1.356 . S
N190 H202 0.984 . S
N190 H203 0.985 . S
N191 C193 1.356 . S
N191 H196 0.984 . S
N191 H197 0.985 . S
C192 C186 1.379 . S
C192 C189 1.367 . S
C192 N190 1.356 . S
C193 C187 1.363 1_556 S
C193 C188 1.379 . S
C193 N191 1.356 . S
N194 C186 1.356 . S
N194 H200 0.984 . S
N194 H201 0.984 . S
N195 C188 1.356 . S
N195 H198 0.984 . S
N195 H199 0.985 . S
H196 N191 0.984 . S
H197 N191 0.985 . S
H198 N195 0.984 . S
H199 N195 0.985 . S
H200 N194 0.984 . S
H201 N194 0.984 . S
H202 N190 0.984 . S
H203 N190 0.985 . S
C204 C205 1.363 . S
C204 C210 1.379 . S
C204 N212 1.356 . S
C205 C204 1.363 . S
C205 C211 1.363 1_554 S
C206 C207 1.363 1_556 S
C206 C211 1.379 . S
C206 N213 1.356 . S
C207 C206 1.363 1_554 S
C207 C210 1.363 . S
N208 C210 1.356 . S
N208 H220 0.984 . S
N208 H221 0.985 . S
N209 C211 1.356 . S
N209 H214 0.984 . S
N209 H215 0.985 . S
C210 C204 1.379 . S
C210 C207 1.363 . S
C210 N208 1.356 . S
C211 C205 1.363 1_556 S
C211 C206 1.379 . S
C211 N209 1.356 . S
N212 C204 1.356 . S
N212 H218 0.984 . S
N212 H219 0.984 . S
N213 C206 1.356 . S
N213 H216 0.984 . S
N213 H217 0.985 . S
H214 N209 0.984 . S
H215 N209 0.985 . S
H216 N213 0.984 . S
H217 N213 0.985 . S
H218 N212 0.984 . S
H219 N212 0.984 . S
H220 N208 0.984 . S
H221 N208 0.985 . S
C222 C223 1.363 1_556 S
C222 C228 1.379 . S
C222 N230 1.356 . S
C223 C222 1.363 1_554 S
C223 C229 1.363 . S
C224 C225 1.363 . S
C224 C229 1.379 . S
C224 N231 1.356 . S
C225 C224 1.363 . S
C225 C228 1.363 1_554 S
N226 C228 1.356 . S
N226 H238 0.984 . S
N226 H239 0.985 . S
N227 C229 1.356 . S
N227 H232 0.984 . S
N227 H233 0.985 . S
C228 C222 1.379 . S
C228 C225 1.363 1_556 S
C228 N226 1.356 . S
C229 C223 1.363 . S
C229 C224 1.379 . S
C229 N227 1.356 . S
N230 C222 1.356 . S
N230 H236 0.984 . S
N230 H237 0.984 . S
N231 C224 1.356 . S
N231 H234 0.984 . S
N231 H235 0.985 . S
H232 N227 0.984 . S
H233 N227 0.985 . S
H234 N231 0.984 . S
H235 N231 0.985 . S
H236 N230 0.984 . S
H237 N230 0.984 . S
H238 N226 0.984 . S
H239 N226 0.985 . S
C240 C241 1.389 . S
C240 C246 1.379 . S
C240 N248 1.356 . S
C241 C240 1.389 . S
C241 C247 1.341 1_556 S
C242 C243 1.363 1_554 S
C242 C247 1.379 . S
C242 N249 1.356 . S
C243 C242 1.363 1_556 S
C243 C246 1.363 . S
N244 C246 1.356 . S
N244 H256 0.984 . S
N244 H257 0.985 . S
N245 C247 1.356 . S
N245 H250 0.984 . S
N245 H251 0.985 . S
C246 C240 1.379 . S
C246 C243 1.363 . S
C246 N244 1.356 . S
C247 C241 1.341 1_554 S
C247 C242 1.379 . S
C247 N245 1.356 . S
N248 C240 1.356 . S
N248 H254 0.984 . S
N248 H255 0.984 . S
N249 C242 1.356 . S
N249 H252 0.984 . S
N249 H253 0.985 . S
H250 N245 0.984 . S
H251 N245 0.985 . S
H252 N249 0.984 . S
H253 N249 0.985 . S
H254 N248 0.984 . S
H255 N248 0.984 . S
H256 N244 0.984 . S
H257 N244 0.985 . S
C258 C259 1.363 . S
C258 C264 1.379 . S
C258 N266 1.356 . S
C259 C258 1.363 . S
C259 C265 1.363 . S
C260 C261 1.363 . S
C260 C265 1.379 . S
C260 N267 1.356 . S
C261 C260 1.363 . S
C261 C264 1.363 . S
N262 C264 1.356 . S
N262 H274 0.984 . S
N262 H275 0.985 . S
N263 C265 1.356 . S
N263 H268 0.984 . S
N263 H269 0.985 . S
C264 C258 1.379 . S
C264 C261 1.363 . S
C264 N262 1.356 . S
C265 C259 1.363 . S
C265 C260 1.379 . S
C265 N263 1.356 . S
N266 C258 1.356 . S
N266 H272 0.984 . S
N266 H273 0.984 . S
N267 C260 1.356 . S
N267 H270 0.984 . S
N267 H271 0.985 . S
H268 N263 0.984 . S
H269 N263 0.985 . S
H270 N267 0.984 . S
H271 N267 0.985 . S
H272 N266 0.984 . S
H273 N266 0.984 . S
H274 N262 0.984 . S
H275 N262 0.985 . S
C276 C277 1.363 . S
C276 C282 1.379 . S
C276 N284 1.356 . S
C277 C276 1.363 . S
C277 C283 1.363 . S
C278 C279 1.363 . S
C278 C283 1.379 . S
C278 N285 1.356 . S
C279 C278 1.363 . S
C279 C282 1.363 . S
N280 C282 1.356 . S
N280 H292 0.984 . S
N280 H293 0.985 . S
N281 C283 1.356 . S
N281 H286 0.984 . S
N281 H287 0.985 . S
C282 C276 1.379 . S
C282 C279 1.363 . S
C282 N280 1.356 . S
C283 C277 1.363 . S
C283 C278 1.379 . S
C283 N281 1.356 . S
N284 C276 1.356 . S
N284 H290 0.984 . S
N284 H291 0.984 . S
N285 C278 1.356 . S
N285 H288 0.984 . S
N285 H289 0.985 . S
H286 N281 0.984 . S
H287 N281 0.985 . S
H288 N285 0.984 . S
H289 N285 0.985 . S
H290 N284 0.984 . S
H291 N284 0.984 . S
H292 N280 0.984 . S
H293 N280 0.985 . S
C294 C295 1.363 . S
C294 C300 1.379 . S
C294 N302 1.356 . S
C295 C294 1.363 . S
C295 C301 1.363 . S
C296 C297 1.363 . S
C296 C301 1.379 . S
C296 N303 1.356 . S
C297 C296 1.363 . S
C297 C300 1.363 . S
N298 C300 1.356 . S
N298 H310 0.984 . S
N298 H311 0.985 . S
N299 C301 1.356 . S
N299 H304 0.984 . S
N299 H305 0.985 . S
C300 C294 1.379 . S
C300 C297 1.363 . S
C300 N298 1.356 . S
C301 C295 1.363 . S
C301 C296 1.379 . S
C301 N299 1.356 . S
N302 C294 1.356 . S
N302 H308 0.984 . S
N302 H309 0.984 . S
N303 C296 1.356 . S
N303 H306 0.984 . S
N303 H307 0.985 . S
H304 N299 0.984 . S
H305 N299 0.985 . S
H306 N303 0.984 . S
H307 N303 0.985 . S
H308 N302 0.984 . S
H309 N302 0.984 . S
H310 N298 0.984 . S
H311 N298 0.985 . S
C312 C313 1.363 . S
C312 C318 1.379 . S
C312 N320 1.356 . S
C313 C312 1.363 . S
C313 C319 1.363 . S
C314 C315 1.363 . S
C314 C319 1.379 . S
C314 N321 1.356 . S
C315 C314 1.363 . S
C315 C318 1.363 . S
N316 C318 1.356 . S
N316 H328 0.984 . S
N316 H329 0.985 . S
N317 C319 1.356 . S
N317 H322 0.984 . S
N317 H323 0.985 . S
C318 C312 1.379 . S
C318 C315 1.363 . S
C318 N316 1.356 . S
C319 C313 1.363 . S
C319 C314 1.379 . S
C319 N317 1.356 . S
N320 C312 1.356 . S
N320 H326 0.984 . S
N320 H327 0.984 . S
N321 C314 1.356 . S
N321 H324 0.984 . S
N321 H325 0.985 . S
H322 N317 0.984 . S
H323 N317 0.985 . S
H324 N321 0.984 . S
H325 N321 0.985 . S
H326 N320 0.984 . S
H327 N320 0.984 . S
H328 N316 0.984 . S
H329 N316 0.985 . S
C330 C331 1.363 1_565 S
C330 C336 1.379 . S
C330 N338 1.356 . S
C331 C330 1.363 1_545 S
C331 C337 1.363 . S
C332 C333 1.363 1_545 S
C332 C337 1.379 . S
C332 N339 1.356 . S
C333 C332 1.363 1_565 S
C333 C336 1.363 . S
N334 C336 1.356 . S
N334 H346 0.984 1_455 S
N334 H347 0.985 . S
N335 C337 1.356 . S
N335 H340 0.984 . S
N335 H341 0.985 . S
C336 C330 1.379 . S
C336 C333 1.363 . S
C336 N334 1.356 . S
C337 C331 1.363 . S
C337 C332 1.379 . S
C337 N335 1.356 . S
N338 C330 1.356 . S
N338 H344 0.984 1_455 S
N338 H345 0.984 . S
N339 C332 1.356 . S
N339 H342 0.984 . S
N339 H343 0.985 . S
H340 N335 0.984 . S
H341 N335 0.985 . S
H342 N339 0.984 . S
H343 N339 0.985 . S
H344 N338 0.984 1_655 S
H345 N338 0.984 . S
H346 N334 0.984 1_655 S
H347 N334 0.985 . S
C348 C349 1.363 . S
C348 C354 1.379 . S
C348 N356 1.356 . S
C349 C348 1.363 . S
C349 C355 1.363 . S
C350 C351 1.363 . S
C350 C355 1.379 . S
C350 N357 1.356 1_545 S
C351 C350 1.363 . S
C351 C354 1.363 . S
N352 C354 1.356 . S
N352 H364 0.984 1_455 S
N352 H365 0.985 1_455 S
N353 C355 1.356 1_565 S
N353 H358 0.984 . S
N353 H359 0.985 . S
C354 C348 1.379 . S
C354 C351 1.363 . S
C354 N352 1.356 . S
C355 C349 1.363 . S
C355 C350 1.379 . S
C355 N353 1.356 1_545 S
N356 C348 1.356 . S
N356 H362 0.984 . S
N356 H363 0.984 . S
N357 C350 1.356 1_565 S
N357 H360 0.984 1_565 S
N357 H361 0.985 . S
H358 N353 0.984 . S
H359 N353 0.985 . S
H360 N357 0.984 1_545 S
H361 N357 0.985 . S
H362 N356 0.984 . S
H363 N356 0.984 . S
H364 N352 0.984 1_655 S
H365 N352 0.985 1_655 S
C366 C367 1.363 . S
C366 C372 1.379 . S
C366 N374 1.356 . S
C367 C366 1.363 . S
C367 C373 1.363 . S
C368 C369 1.363 . S
C368 C373 1.379 . S
C368 N375 1.356 . S
C369 C368 1.363 . S
C369 C372 1.363 . S
N370 C372 1.356 . S
N370 H382 0.984 . S
N370 H383 0.985 . S
N371 C373 1.356 . S
N371 H376 0.984 . S
N371 H377 0.985 . S
C372 C366 1.379 . S
C372 C369 1.363 . S
C372 N370 1.356 . S
C373 C367 1.363 . S
C373 C368 1.379 . S
C373 N371 1.356 . S
N374 C366 1.356 . S
N374 H380 0.984 . S
N374 H381 0.984 . S
N375 C368 1.356 . S
N375 H378 0.984 . S
N375 H379 0.985 . S
H376 N371 0.984 . S
H377 N371 0.985 . S
H378 N375 0.984 . S
H379 N375 0.985 . S
H380 N374 0.984 . S
H381 N374 0.984 . S
H382 N370 0.984 . S
H383 N370 0.985 . S
C384 C385 1.363 . S
C384 C390 1.379 . S
C384 N392 1.356 . S
C385 C384 1.363 . S
C385 C391 1.363 . S
C386 C387 1.363 . S
C386 C391 1.379 . S
C386 N393 1.356 . S
C387 C386 1.363 . S
C387 C390 1.363 . S
N388 C390 1.356 . S
N388 H400 0.984 . S
N388 H401 0.985 . S
N389 C391 1.356 . S
N389 H394 0.984 . S
N389 H395 0.985 . S
C390 C384 1.379 . S
C390 C387 1.363 . S
C390 N388 1.356 . S
C391 C385 1.363 . S
C391 C386 1.379 . S
C391 N389 1.356 . S
N392 C384 1.356 . S
N392 H398 0.984 . S
N392 H399 0.984 . S
N393 C386 1.356 . S
N393 H396 0.984 . S
N393 H397 0.985 . S
H394 N389 0.984 . S
H395 N389 0.985 . S
H396 N393 0.984 . S
H397 N393 0.985 . S
H398 N392 0.984 . S
H399 N392 0.984 . S
H400 N388 0.984 . S
H401 N388 0.985 . S
C189 C151 1.557 . S
C187 C15 1.517 . S
C205 C13 1.613 . S
C207 C115 1.582 . S
C223 C18 1.307 1_554 S
C225 C175 1.506 . S
C241 C17 1.419 . S
C243 C139 1.428 . S
C259 C36 1.517 . S
C261 C79 1.557 . S
C277 C34 1.613 . S
C279 C43 1.581 . S
C297 C103 1.506 . S
C295 C39 1.308 . S
C315 C67 1.428 . S
C313 C38 1.420 . S
C331 C14 1.516 . S
C333 C73 1.551 . S
C349 C16 1.404 . S
C351 C109 1.437 . S
C369 C145 1.551 . S
C367 C35 1.516 . S
C385 C37 1.404 . S
C387 C181 1.437 . S
