# Generated by pormake.
# Topology csq, (4,8)-cn, num edge types: 1
# Building blocks:
#     Node 0, Type 0, BuildingBlock: NAHDIM_clean_linker_0, # of connection points: 4
#     Node 1, Type 0, BuildingBlock: NAHDIM_clean_linker_0, # of connection points: 4
#     Node 2, Type 0, BuildingBlock: NAHDIM_clean_linker_0, # of connection points: 4
#     Node 3, Type 0, BuildingBlock: NAHDIM_clean_linker_0, # of connection points: 4
#     Node 4, Type 0, BuildingBlock: NAHDIM_clean_linker_0, # of connection points: 4
#     Node 5, Type 0, BuildingBlock: NAHDIM_clean_linker_0, # of connection points: 4
#     Node 6, Type 1, BuildingBlock: TAGTUT_clean_sbu_3, # of connection points: 8
#     Node 7, Type 1, BuildingBlock: TAGTUT_clean_sbu_3, # of connection points: 8
#     Node 8, Type 1, BuildingBlock: TAGTUT_clean_sbu_3, # of connection points: 8
#     Edge 9, Type (0, 1), BuildingBlock: ZUJKAS_clean_linker_0, # of connection points: 2
#     Edge 10, Type (0, 1), BuildingBlock: ZUJKAS_clean_linker_0, # of connection points: 2
#     Edge 11, Type (0, 1), BuildingBlock: ZUJKAS_clean_linker_0, # of connection points: 2
#     Edge 12, Type (0, 1), BuildingBlock: ZUJKAS_clean_linker_0, # of connection points: 2
#     Edge 13, Type (0, 1), BuildingBlock: ZUJKAS_clean_linker_0, # of connection points: 2
#     Edge 14, Type (0, 1), BuildingBlock: ZUJKAS_clean_linker_0, # of connection points: 2
#     Edge 15, Type (0, 1), BuildingBlock: ZUJKAS_clean_linker_0, # of connection points: 2
#     Edge 16, Type (0, 1), BuildingBlock: ZUJKAS_clean_linker_0, # of connection points: 2
#     Edge 17, Type (0, 1), BuildingBlock: ZUJKAS_clean_linker_0, # of connection points: 2
#     Edge 18, Type (0, 1), BuildingBlock: ZUJKAS_clean_linker_0, # of connection points: 2
#     Edge 19, Type (0, 1), BuildingBlock: ZUJKAS_clean_linker_0, # of connection points: 2
#     Edge 20, Type (0, 1), BuildingBlock: ZUJKAS_clean_linker_0, # of connection points: 2
#     Edge 21, Type (0, 1), BuildingBlock: ZUJKAS_clean_linker_0, # of connection points: 2
#     Edge 22, Type (0, 1), BuildingBlock: ZUJKAS_clean_linker_0, # of connection points: 2
#     Edge 23, Type (0, 1), BuildingBlock: ZUJKAS_clean_linker_0, # of connection points: 2
#     Edge 24, Type (0, 1), BuildingBlock: ZUJKAS_clean_linker_0, # of connection points: 2
#     Edge 25, Type (0, 1), BuildingBlock: ZUJKAS_clean_linker_0, # of connection points: 2
#     Edge 26, Type (0, 1), BuildingBlock: ZUJKAS_clean_linker_0, # of connection points: 2
#     Edge 27, Type (0, 1), BuildingBlock: ZUJKAS_clean_linker_0, # of connection points: 2
#     Edge 28, Type (0, 1), BuildingBlock: ZUJKAS_clean_linker_0, # of connection points: 2
#     Edge 29, Type (0, 1), BuildingBlock: ZUJKAS_clean_linker_0, # of connection points: 2
#     Edge 30, Type (0, 1), BuildingBlock: ZUJKAS_clean_linker_0, # of connection points: 2
#     Edge 31, Type (0, 1), BuildingBlock: ZUJKAS_clean_linker_0, # of connection points: 2
#     Edge 32, Type (0, 1), BuildingBlock: ZUJKAS_clean_linker_0, # of connection points: 2
# Relax obj value: 0.052
# Max RMSD: 0.125
# Mean RMSD: 0.094
data_MOF--net-csq--node1-TAGTUT_clean_sbu_3--node2-NAHDIM_clean_linker_0--edge1-ZUJKAS_clean_linker_0
_symmetry_space_group_name_H-M    P1
_symmetry_Int_Tables_number       1
_symmetry_cell_setting            triclinic
loop_
_symmetry_equiv_pos_as_xyz
'x, y, z'
_cell_length_a     82.087754
_cell_length_b     81.342063
_cell_length_c     31.707837
_cell_angle_alpha  92.11541
_cell_angle_beta   92.140907
_cell_angle_gamma 119.9389
loop_
_atom_site_label
_atom_site_type_symbol
_atom_site_fract_x
_atom_site_fract_y
_atom_site_fract_z
_atom_type_partial_charge
C0 C 0.30908 0.50351 0.41854 0.0
C1 C 0.30787 0.48968 0.38287 0.0
C2 C 0.29008 0.48554 0.31569 0.0
C3 C 0.28093 0.46562 0.3101 0.0
C4 C 0.26509 0.4556 0.28157 0.0
C5 C 0.25849 0.46574 0.25786 0.0
C6 C 0.26824 0.48584 0.26202 0.0
C7 C 0.28402 0.49548 0.29071 0.0
C8 C 0.25525 0.43418 0.27709 0.0
C9 C 0.26171 0.49711 0.23683 0.0
C10 C 0.15024 0.42567 0.40749 0.0
C11 C 0.154 0.43829 0.37027 0.0
C12 C 0.16124 0.43023 0.30219 0.0
C13 C 0.17208 0.44834 0.28723 0.0
C14 C 0.18615 0.45191 0.25928 0.0
C15 C 0.18964 0.43711 0.24678 0.0
C16 C 0.17806 0.41858 0.26029 0.0
C17 C 0.1637 0.4153 0.28728 0.0
C18 C 0.19784 0.47173 0.24473 0.0
C19 C 0.1815 0.40249 0.24818 0.0
C20 C 0.15334 0.39763 0.97458 0.0
C21 C 0.16268 0.41726 0.98486 0.0
C22 C 0.18031 0.42641 0.00752 0.0
C23 C 0.18846 0.41555 0.02109 0.0
C24 C 0.17931 0.39584 0.00935 0.0
C25 C 0.16198 0.3872 0.98552 0.0
C26 C 0.19002 0.4476 0.01758 0.0
C27 C 0.18757 0.38378 0.02284 0.0
C28 C 0.32569 0.44295 0.05533 0.0
C29 C 0.31882 0.43948 0.00846 0.0
C30 C 0.29196 0.44505 0.01041 0.0
C31 C 0.2864 0.45851 0.00417 0.0
C32 C 0.26908 0.45567 0.01734 0.0
C33 C 0.25698 0.43882 0.03686 0.0
C34 C 0.26209 0.42472 0.04149 0.0
C35 C 0.27954 0.42799 0.02839 0.0
C36 C 0.26403 0.47096 0.01192 0.0
C37 C 0.24937 0.40645 0.06168 0.0
C38 C 0.24086 0.45538 0.23032 0.0
C39 C 0.22396 0.45055 0.24853 0.0
C40 C 0.20681 0.44163 0.22438 0.0
C41 C 0.20644 0.43741 0.18057 0.0
C42 C 0.18954 0.42883 0.15506 0.0
C43 C 0.18934 0.42452 0.11207 0.0
C44 C 0.20609 0.42886 0.09278 0.0
C45 C 0.20608 0.42461 0.04902 0.0
C46 C 0.22292 0.42849 0.03137 0.0
C47 C 0.23988 0.43664 0.05622 0.0
C48 C 0.24027 0.44163 0.09958 0.0
C49 C 0.25723 0.45047 0.12506 0.0
C50 C 0.25748 0.45509 0.16781 0.0
C51 C 0.24076 0.45087 0.18684 0.0
C52 C 0.22349 0.44194 0.16182 0.0
C53 C 0.22329 0.43754 0.11798 0.0
C54 C 0.10423 0.37199 0.97425 0.0
C55 C 0.12113 0.3911 0.965 0.0
O56 O 0.3048 0.49568 0.34454 0.0
O57 O 0.30945 0.4493 0.99937 0.0
O58 O 0.13589 0.38837 0.95457 0.0
O59 O 0.1491 0.42714 0.33273 0.0
H60 H 0.29579 0.47556 0.38922 0.0
H61 H 0.2956 0.50361 0.41874 0.0
H62 H 0.32064 0.51819 0.4142 0.0
H63 H 0.31162 0.49904 0.44965 0.0
H64 H 0.2861 0.45785 0.32782 0.0
H65 H 0.2914 0.51086 0.29472 0.0
H66 H 0.24062 0.42814 0.287 0.0
H67 H 0.26258 0.42841 0.29643 0.0
H68 H 0.25436 0.42937 0.24342 0.0
H69 H 0.27113 0.51269 0.24291 0.0
H70 H 0.24727 0.49335 0.24495 0.0
H71 H 0.26109 0.49341 0.20253 0.0
H72 H 0.16943 0.44873 0.37302 0.0
H73 H 0.15382 0.4343 0.43795 0.0
H74 H 0.15913 0.41892 0.40627 0.0
H75 H 0.13524 0.41422 0.40634 0.0
H76 H 0.16978 0.45975 0.29825 0.0
H77 H 0.15509 0.40134 0.29889 0.0
H78 H 0.20038 0.47124 0.21067 0.0
H79 H 0.21172 0.47892 0.26285 0.0
H80 H 0.19099 0.4804 0.24983 0.0
H81 H 0.1719 0.38921 0.2633 0.0
H82 H 0.19628 0.40658 0.25752 0.0
H83 H 0.17942 0.39954 0.21338 0.0
H84 H 0.12498 0.40037 0.99474 0.0
H85 H 0.15618 0.42541 0.97517 0.0
H86 H 0.15472 0.37208 0.97681 0.0
H87 H 0.18884 0.45046 0.05149 0.0
H88 H 0.18368 0.45439 0.9984 0.0
H89 H 0.20524 0.45435 0.01192 0.0
H90 H 0.17776 0.36838 0.01494 0.0
H91 H 0.1912 0.38604 0.05746 0.0
H92 H 0.20076 0.38808 0.00675 0.0
H93 H 0.30918 0.424 0.0011 0.0
H94 H 0.33361 0.43547 0.06221 0.0
H95 H 0.31358 0.43746 0.07571 0.0
H96 H 0.33499 0.4584 0.06376 0.0
H97 H 0.29596 0.47155 0.98999 0.0
H98 H 0.28339 0.41724 0.03305 0.0
H99 H 0.2629 0.47659 0.04346 0.0
H100 H 0.25007 0.46486 0.99437 0.0
H101 H 0.27463 0.48295 0.99467 0.0
H102 H 0.25441 0.39609 0.05902 0.0
H103 H 0.23485 0.39978 0.04673 0.0
H104 H 0.24867 0.40961 0.09571 0.0
H105 H 0.22417 0.45393 0.28206 0.0
H106 H 0.17626 0.42529 0.16814 0.0
H107 H 0.17586 0.4177 0.09419 0.0
H108 H 0.22279 0.42481 0.99807 0.0
H109 H 0.27055 0.454 0.11224 0.0
H110 H 0.27093 0.46189 0.18584 0.0
H111 H 0.09978 0.36165 0.9464 0.0
H112 H 0.09219 0.37383 0.98264 0.0
H113 H 0.10806 0.36604 0.00135 0.0
C114 C 0.84222 0.26606 0.3923 0.0
C115 C 0.85628 0.27979 0.36246 0.0
C116 C 0.83647 0.26998 0.2963 0.0
C117 C 0.84187 0.25762 0.27776 0.0
C118 C 0.83062 0.24429 0.24475 0.0
C119 C 0.81351 0.24312 0.23042 0.0
C120 C 0.8083 0.25589 0.2483 0.0
C121 C 0.82007 0.26941 0.28053 0.0
C122 C 0.83687 0.23123 0.22561 0.0
C123 C 0.79004 0.2549 0.23426 0.0
C124 C 0.74189 0.10616 0.31782 0.0
C125 C 0.73617 0.11984 0.29968 0.0
C126 C 0.74912 0.13955 0.24043 0.0
C127 C 0.74309 0.1527 0.24814 0.0
C128 C 0.75179 0.17033 0.22988 0.0
C129 C 0.76712 0.17503 0.2043 0.0
C130 C 0.77325 0.16175 0.19675 0.0
C131 C 0.76379 0.14396 0.21404 0.0
C132 C 0.74462 0.18393 0.23806 0.0
C133 C 0.78999 0.16639 0.17107 0.0
C134 C 0.73489 0.154 0.93383 0.0
C135 C 0.72755 0.16406 0.95493 0.0
C136 C 0.73957 0.18127 0.97826 0.0
C137 C 0.75921 0.18813 0.98143 0.0
C138 C 0.76665 0.17839 0.95841 0.0
C139 C 0.75434 0.16158 0.93421 0.0
C140 C 0.7312 0.1917 0.00076 0.0
C141 C 0.78751 0.1853 0.96076 0.0
C142 C 0.87079 0.32687 0.00622 0.0
C143 C 0.86604 0.31762 0.96111 0.0
C144 C 0.83486 0.28988 0.96966 0.0
C145 C 0.81599 0.28477 0.97263 0.0
C146 C 0.80323 0.26787 0.99052 0.0
C147 C 0.80943 0.25548 0.00465 0.0
C148 C 0.82833 0.26015 1.00008 0.0
C149 C 0.84091 0.27742 0.98331 0.0
C150 C 0.78318 0.26335 0.99466 0.0
C151 C 0.83529 0.24689 0.0128 0.0
C152 C 0.80047 0.22762 0.19911 0.0
C153 C 0.78954 0.20954 0.21392 0.0
C154 C 0.77716 0.19403 0.18659 0.0
C155 C 0.77529 0.19662 0.14321 0.0
C156 C 0.76263 0.18143 0.11503 0.0
C157 C 0.76147 0.18389 0.07212 0.0
C158 C 0.77266 0.20174 0.05574 0.0
C159 C 0.77172 0.20428 0.012 0.0
C160 C 0.78346 0.22205 0.99658 0.0
C161 C 0.79618 0.23752 0.02377 0.0
C162 C 0.79694 0.23537 0.06781 0.0
C163 C 0.80923 0.2507 0.09628 0.0
C164 C 0.8104 0.24824 0.13931 0.0
C165 C 0.7992 0.23039 0.15559 0.0
C166 C 0.78651 0.21482 0.12758 0.0
C167 C 0.78527 0.21735 0.08372 0.0
C168 C 0.71067 0.10471 0.92887 0.0
C169 C 0.70792 0.122 0.92955 0.0
O170 O 0.84669 0.28266 0.32917 0.0
O171 O 0.84663 0.3068 0.95337 0.0
O172 O 0.7235 0.13687 0.91313 0.0
O173 O 0.74114 0.12256 0.25818 0.0
H174 H 0.86476 0.27366 0.35036 0.0
H175 H 0.83287 0.25205 0.37518 0.0
H176 H 0.83338 0.27173 0.40466 0.0
H177 H 0.84979 0.26386 0.41931 0.0
H178 H 0.85489 0.25837 0.28849 0.0
H179 H 0.81616 0.27917 0.29472 0.0
H180 H 0.82763 0.21658 0.23532 0.0
H181 H 0.85167 0.23571 0.23584 0.0
H182 H 0.83553 0.23079 0.19055 0.0
H183 H 0.78753 0.26513 0.25306 0.0
H184 H 0.77806 0.24032 0.23717 0.0
H185 H 0.79026 0.25804 0.20045 0.0
H186 H 0.74421 0.13355 0.31916 0.0
H187 H 0.73848 0.10406 0.35149 0.0
H188 H 0.75731 0.11214 0.31618 0.0
H189 H 0.73445 0.09216 0.29957 0.0
H190 H 0.73148 0.1491 0.26805 0.0
H191 H 0.76827 0.13364 0.20829 0.0
H192 H 0.74281 0.18959 0.20798 0.0
H193 H 0.75511 0.19616 0.25918 0.0
H194 H 0.73099 0.17711 0.2533 0.0
H195 H 0.79504 0.15613 0.17496 0.0
H196 H 0.8018 0.18093 0.18033 0.0
H197 H 0.78598 0.16594 0.13707 0.0
H198 H 0.70675 0.12557 0.96319 0.0
H199 H 0.71246 0.15839 0.95334 0.0
H200 H 0.75979 0.15376 0.91709 0.0
H201 H 0.73113 0.18936 0.03503 0.0
H202 H 0.71649 0.18668 0.98862 0.0
H203 H 0.73983 0.20724 0.99721 0.0
H204 H 0.79089 0.17552 0.94275 0.0
H205 H 0.79279 0.1868 0.99425 0.0
H206 H 0.79518 0.19953 0.94783 0.0
H207 H 0.87247 0.3085 0.95738 0.0
H208 H 0.8863 0.33554 0.01282 0.0
H209 H 0.86514 0.31576 0.0295 0.0
H210 H 0.86453 0.33613 0.01064 0.0
H211 H 0.81138 0.29435 0.96172 0.0
H212 H 0.85532 0.28081 0.98053 0.0
H213 H 0.77912 0.25981 0.02754 0.0
H214 H 0.77358 0.25071 0.97342 0.0
H215 H 0.7811 0.27534 0.9863 0.0
H216 H 0.84926 0.251 0.00065 0.0
H217 H 0.8251 0.23206 0.00091 0.0
H218 H 0.83663 0.24716 0.0478 0.0
H219 H 0.79093 0.20745 0.24718 0.0
H220 H 0.75359 0.1674 0.12577 0.0
H221 H 0.75172 0.17152 0.05199 0.0
H222 H 0.783 0.22374 0.96285 0.0
H223 H 0.81817 0.26476 0.08556 0.0
H224 H 0.82027 0.26048 0.15965 0.0
H225 H 0.71137 0.10013 0.89585 0.0
H226 H 0.69895 0.09266 0.9437 0.0
H227 H 0.72403 0.10841 0.94698 0.0
C228 C 0.55253 0.81132 0.30789 0.0
C229 C 0.56092 0.83038 0.28723 0.0
C230 C 0.55826 0.81905 0.21344 0.0
C231 C 0.57648 0.82188 0.21006 0.0
C232 C 0.58015 0.81181 0.17856 0.0
C233 C 0.56528 0.79854 0.15008 0.0
C234 C 0.5471 0.79631 0.15217 0.0
C235 C 0.54391 0.80685 0.18353 0.0
C236 C 0.59982 0.81489 0.17657 0.0
C237 C 0.5309 0.78221 0.12247 0.0
C238 C 0.56222 0.71152 0.28668 0.0
C239 C 0.54936 0.69599 0.2528 0.0
C240 C 0.56223 0.71035 0.18821 0.0
C241 C 0.54708 0.70952 0.16451 0.0
C242 C 0.54991 0.72408 0.13819 0.0
C243 C 0.56826 0.73986 0.13607 0.0
C244 C 0.58371 0.74021 0.15836 0.0
C245 C 0.5805 0.72524 0.18383 0.0
C246 C 0.53316 0.72304 0.11423 0.0
C247 C 0.60342 0.75686 0.15708 0.0
C248 C 0.61066 0.73969 0.87586 0.0
C249 C 0.59131 0.73181 0.88041 0.0
C250 C 0.58439 0.74224 0.9019 0.0
C251 C 0.59723 0.7606 0.92056 0.0
C252 C 0.61678 0.7686 0.9154 0.0
C253 C 0.62318 0.75815 0.89225 0.0
C254 C 0.56341 0.73356 0.90491 0.0
C255 C 0.63097 0.78811 0.9346 0.0
C256 C 0.60061 0.88708 0.90053 0.0
C257 C 0.59327 0.8743 0.85942 0.0
C258 C 0.58145 0.84242 0.88628 0.0
C259 C 0.56514 0.82539 0.89303 0.0
C260 C 0.56605 0.81076 0.91313 0.0
C261 C 0.58378 0.81344 0.9276 0.0
C262 C 0.6004 0.83059 0.92055 0.0
C263 C 0.59909 0.8448 0.8994 0.0
C264 C 0.54803 0.79249 0.91903 0.0
C265 C 0.61957 0.83395 0.9353 0.0
C266 C 0.56835 0.78557 0.1216 0.0
C267 C 0.56723 0.76954 0.13892 0.0
C268 C 0.57075 0.75695 0.11529 0.0
C269 C 0.57588 0.76054 0.07314 0.0
C270 C 0.5804 0.7487 0.04907 0.0
C271 C 0.58561 0.7525 0.0077 0.0
C272 C 0.58569 0.76781 0.98822 0.0
C273 C 0.59043 0.77149 0.94577 0.0
C274 C 0.58962 0.78639 0.92704 0.0
C275 C 0.58488 0.79825 0.94996 0.0
C276 C 0.58106 0.7954 0.99306 0.0
C277 C 0.57736 0.80775 0.01781 0.0
C278 C 0.57342 0.80472 0.06008 0.0
C279 C 0.57271 0.78903 0.07897 0.0
C280 C 0.57655 0.77648 0.0547 0.0
C281 C 0.58106 0.77987 0.01192 0.0
C282 C 0.63206 0.71157 0.87375 0.0
C283 C 0.61359 0.71168 0.86654 0.0
O284 O 0.55396 0.82757 0.24539 0.0
O285 O 0.57937 0.85608 0.86742 0.0
O286 O 0.61761 0.72966 0.85618 0.0
O287 O 0.55925 0.69749 0.21724 0.0
H288 H 0.57649 0.83696 0.28883 0.0
H289 H 0.55671 0.80184 0.29142 0.0
H290 H 0.5369 0.80418 0.30619 0.0
H291 H 0.55783 0.81353 0.34157 0.0
H292 H 0.58791 0.83188 0.23187 0.0
H293 H 0.52995 0.80496 0.18605 0.0
H294 H 0.6 0.80207 0.18682 0.0
H295 H 0.61029 0.82736 0.1972 0.0
H296 H 0.60418 0.81698 0.14355 0.0
H297 H 0.51767 0.78237 0.12777 0.0
H298 H 0.52841 0.76766 0.12675 0.0
H299 H 0.53445 0.78542 0.08922 0.0
H300 H 0.53717 0.69798 0.24448 0.0
H301 H 0.55451 0.7104 0.3155 0.0
H302 H 0.56702 0.72578 0.27465 0.0
H303 H 0.5748 0.71029 0.2953 0.0
H304 H 0.53301 0.6977 0.16754 0.0
H305 H 0.59209 0.72561 0.20223 0.0
H306 H 0.53636 0.72651 0.08091 0.0
H307 H 0.53005 0.73371 0.12881 0.0
H308 H 0.52038 0.70877 0.11453 0.0
H309 H 0.61399 0.75469 0.1751 0.0
H310 H 0.60396 0.76993 0.17057 0.0
H311 H 0.60734 0.75926 0.12382 0.0
H312 H 0.60654 0.70816 0.89699 0.0
H313 H 0.58166 0.71759 0.86683 0.0
H314 H 0.63809 0.76409 0.88814 0.0
H315 H 0.5597 0.7292 0.93753 0.0
H316 H 0.55531 0.72083 0.88269 0.0
H317 H 0.559 0.74412 0.89811 0.0
H318 H 0.64567 0.79099 0.93336 0.0
H319 H 0.6282 0.78976 0.96806 0.0
H320 H 0.62969 0.79897 0.91693 0.0
H321 H 0.6051 0.87372 0.84481 0.0
H322 H 0.61135 0.90178 0.89371 0.0
H323 H 0.60731 0.88182 0.92314 0.0
H324 H 0.58889 0.88751 0.91606 0.0
H325 H 0.5516 0.8236 0.8825 0.0
H326 H 0.61191 0.8577 0.89363 0.0
H327 H 0.54539 0.79127 0.95315 0.0
H328 H 0.54932 0.78009 0.90801 0.0
H329 H 0.53568 0.7918 0.90166 0.0
H330 H 0.63072 0.84906 0.93392 0.0
H331 H 0.62321 0.82509 0.9147 0.0
H332 H 0.61951 0.82971 0.96821 0.0
H333 H 0.56357 0.76681 0.17148 0.0
H334 H 0.58021 0.7365 0.06218 0.0
H335 H 0.5893 0.74309 0.99101 0.0
H336 H 0.59291 0.7889 0.89424 0.0
H337 H 0.57756 0.81997 0.00482 0.0
H338 H 0.57074 0.81469 0.07767 0.0
H339 H 0.64011 0.71535 0.84484 0.0
H340 H 0.62919 0.69729 0.88245 0.0
H341 H 0.64086 0.7221 0.90002 0.0
C342 C 0.90713 0.62935 0.30239 0.0
C343 C 0.89303 0.61019 0.27979 0.0
C344 C 0.87296 0.60394 0.21591 0.0
C345 C 0.85976 0.58481 0.22094 0.0
C346 C 0.84214 0.57593 0.19828 0.0
C347 C 0.83754 0.58654 0.17078 0.0
C348 C 0.85089 0.60584 0.16564 0.0
C349 C 0.86863 0.61413 0.18759 0.0
C350 C 0.82843 0.55524 0.20392 0.0
C351 C 0.84636 0.61782 0.13761 0.0
C352 C 0.74876 0.57612 0.33228 0.0
C353 C 0.73538 0.57661 0.29799 0.0
C354 C 0.74414 0.56457 0.23635 0.0
C355 C 0.75592 0.58165 0.2179 0.0
C356 C 0.76899 0.5827 0.18931 0.0
C357 C 0.77042 0.56638 0.17937 0.0
C358 C 0.75822 0.54902 0.19712 0.0
C359 C 0.74498 0.54828 0.22485 0.0
C360 C 0.78145 0.60132 0.17011 0.0
C361 C 0.7595 0.53139 0.18765 0.0
C362 C 0.71653 0.52002 0.91897 0.0
C363 C 0.72754 0.53976 0.9256 0.0
C364 C 0.74612 0.54823 0.94323 0.0
C365 C 0.75355 0.53654 0.9553 0.0
C366 C 0.7425 0.51656 0.94755 0.0
C367 C 0.72415 0.50855 0.9289 0.0
C368 C 0.75769 0.5696 0.94954 0.0
C369 C 0.74994 0.50364 0.95968 0.0
C370 C 0.90229 0.58508 0.93996 0.0
C371 C 0.88554 0.56547 0.9262 0.0
C372 C 0.85502 0.56318 0.91492 0.0
C373 C 0.84885 0.57623 0.9104 0.0
C374 C 0.83205 0.57312 0.92729 0.0
C375 C 0.82108 0.55632 0.94823 0.0
C376 C 0.82648 0.5423 0.94949 0.0
C377 C 0.84349 0.54593 0.93294 0.0
C378 C 0.82659 0.58825 0.92498 0.0
C379 C 0.81478 0.52395 0.97033 0.0
C380 C 0.81856 0.57763 0.14842 0.0
C381 C 0.80358 0.57557 0.17152 0.0
C382 C 0.78542 0.56782 0.15246 0.0
C383 C 0.782 0.562 0.10891 0.0
C384 C 0.76395 0.55432 0.08859 0.0
C385 C 0.76074 0.54856 0.04574 0.0
C386 C 0.77555 0.5506 0.02134 0.0
C387 C 0.77252 0.54507 0.97755 0.0
C388 C 0.78758 0.54721 0.95439 0.0
C389 C 0.80563 0.55463 0.97388 0.0
C390 C 0.80893 0.56027 0.01753 0.0
C391 C 0.82695 0.56779 0.03805 0.0
C392 C 0.83008 0.57323 0.08096 0.0
C393 C 0.8154 0.57167 0.10498 0.0
C394 C 0.79707 0.56397 0.08509 0.0
C395 C 0.79384 0.55829 0.04127 0.0
C396 C 0.67633 0.48971 0.94772 0.0
C397 C 0.68368 0.50872 0.9273 0.0
O398 O 0.88991 0.61299 0.23812 0.0
O399 O 0.87232 0.56774 0.90249 0.0
O400 O 0.69852 0.51194 0.90284 0.0
O401 O 0.7318 0.56325 0.26518 0.0
H402 H 0.87971 0.60472 0.29634 0.0
H403 H 0.90143 0.63918 0.30114 0.0
H404 H 0.92075 0.63587 0.28707 0.0
H405 H 0.90966 0.62752 0.33614 0.0
H406 H 0.86324 0.57677 0.24228 0.0
H407 H 0.87898 0.62888 0.18388 0.0
H408 H 0.81638 0.55402 0.22115 0.0
H409 H 0.83502 0.54838 0.22203 0.0
H410 H 0.82273 0.54735 0.17263 0.0
H411 H 0.85717 0.63314 0.14188 0.0
H412 H 0.83244 0.61612 0.14435 0.0
H413 H 0.84558 0.61304 0.104 0.0
H414 H 0.74201 0.59111 0.28618 0.0
H415 H 0.75153 0.58661 0.35895 0.0
H416 H 0.76243 0.5798 0.31907 0.0
H417 H 0.7426 0.5617 0.34446 0.0
H418 H 0.75486 0.59416 0.22528 0.0
H419 H 0.73565 0.53512 0.23892 0.0
H420 H 0.78124 0.59901 0.1353 0.0
H421 H 0.7962 0.60722 0.18301 0.0
H422 H 0.77706 0.61199 0.17692 0.0
H423 H 0.74978 0.51934 0.20605 0.0
H424 H 0.77413 0.53447 0.19497 0.0
H425 H 0.75601 0.52698 0.15347 0.0
H426 H 0.68864 0.52025 0.95294 0.0
H427 H 0.72151 0.54848 0.9171 0.0
H428 H 0.71549 0.49329 0.92297 0.0
H429 H 0.75935 0.57388 0.98377 0.0
H430 H 0.751 0.57667 0.93271 0.0
H431 H 0.772 0.57479 0.93821 0.0
H432 H 0.73907 0.48836 0.95448 0.0
H433 H 0.75513 0.50663 0.99349 0.0
H434 H 0.76203 0.50644 0.9406 0.0
H435 H 0.87962 0.55827 0.95566 0.0
H436 H 0.91305 0.58365 0.95921 0.0
H437 H 0.89746 0.59325 0.95954 0.0
H438 H 0.90884 0.59319 0.912 0.0
H439 H 0.85774 0.58934 0.89562 0.0
H440 H 0.84797 0.53549 0.9348 0.0
H441 H 0.82712 0.59423 0.95738 0.0
H442 H 0.81189 0.5819 0.91129 0.0
H443 H 0.83604 0.60001 0.90559 0.0
H444 H 0.81939 0.51346 0.96338 0.0
H445 H 0.79969 0.51758 0.9596 0.0
H446 H 0.81602 0.52692 0.00511 0.0
H447 H 0.80612 0.58021 0.20486 0.0
H448 H 0.75207 0.55261 0.10564 0.0
H449 H 0.74651 0.54258 0.03198 0.0
H450 H 0.78518 0.5429 0.9209 0.0
H451 H 0.83891 0.56956 0.02124 0.0
H452 H 0.84422 0.57878 0.09502 0.0
H453 H 0.6718 0.47792 0.9231 0.0
H454 H 0.6642 0.48683 0.96681 0.0
H455 H 0.68757 0.49014 0.96915 0.0
C456 C 0.25641 0.85801 0.82188 0.0
C457 C 0.27236 0.86744 0.85674 0.0
C458 C 0.26179 0.84187 0.90619 0.0
C459 C 0.24783 0.84466 0.92391 0.0
C460 C 0.23532 0.8317 0.95122 0.0
C461 C 0.23658 0.81548 0.96054 0.0
C462 C 0.25078 0.81277 0.94328 0.0
C463 C 0.26336 0.82617 0.91676 0.0
C464 C 0.2205 0.83517 0.96953 0.0
C465 C 0.25236 0.79549 0.95199 0.0
C466 C 0.12098 0.7443 0.80304 0.0
C467 C 0.12993 0.73491 0.82858 0.0
C468 C 0.14123 0.74353 0.90233 0.0
C469 C 0.15521 0.73841 0.90323 0.0
C470 C 0.1706 0.7472 0.93321 0.0
C471 C 0.17216 0.76162 0.96233 0.0
C472 C 0.15752 0.76605 0.96285 0.0
C473 C 0.14201 0.75661 0.93326 0.0
C474 C 0.18564 0.74171 0.93243 0.0
C475 C 0.15879 0.78154 0.99286 0.0
C476 C 0.15859 0.73195 0.23966 0.0
C477 C 0.16997 0.72602 0.21984 0.0
C478 C 0.18425 0.73819 0.19445 0.0
C479 C 0.18719 0.75664 0.18895 0.0
C480 C 0.17595 0.76274 0.20954 0.0
C481 C 0.16192 0.75035 0.23506 0.0
C482 C 0.19629 0.73143 0.17374 0.0
C483 C 0.17878 0.78237 0.20461 0.0
C484 C 0.31528 0.87983 0.22285 0.0
C485 C 0.31276 0.8662 0.25754 0.0
C486 C 0.28855 0.83538 0.22345 0.0
C487 C 0.28542 0.81828 0.20391 0.0
C488 C 0.26775 0.805 0.18447 0.0
C489 C 0.25286 0.80902 0.18442 0.0
C490 C 0.25572 0.82603 0.20516 0.0
C491 C 0.27348 0.83898 0.22468 0.0
C492 C 0.26508 0.78685 0.1632 0.0
C493 C 0.24008 0.83068 0.20599 0.0
C494 C 0.22224 0.80077 0.98598 0.0
C495 C 0.20483 0.78799 0.96545 0.0
C496 C 0.1903 0.77402 0.98712 0.0
C497 C 0.19322 0.77259 0.03078 0.0
C498 C 0.17899 0.7587 0.0537 0.0
C499 C 0.1819 0.75778 0.09693 0.0
C500 C 0.19928 0.77049 0.11869 0.0
C501 C 0.20236 0.76981 0.16266 0.0
C502 C 0.21997 0.78235 0.183 0.0
C503 C 0.23459 0.79593 0.16082 0.0
C504 C 0.23162 0.79721 0.11713 0.0
C505 C 0.24582 0.81117 0.09422 0.0
C506 C 0.24275 0.81243 0.05133 0.0
C507 C 0.22545 0.79965 0.02959 0.0
C508 C 0.21089 0.78548 0.05205 0.0
C509 C 0.21395 0.78434 0.09595 0.0
C510 C 0.11318 0.6995 0.23808 0.0
C511 C 0.13178 0.70146 0.25516 0.0
O512 O 0.27385 0.85371 0.87852 0.0
O513 O 0.30629 0.84797 0.23996 0.0
O514 O 0.14474 0.72054 0.2645 0.0
O515 O 0.12727 0.73659 0.87112 0.0
H516 H 0.2695 0.87645 0.87901 0.0
H517 H 0.2427 0.84917 0.83581 0.0
H518 H 0.25893 0.84876 0.79962 0.0
H519 H 0.2554 0.869 0.80398 0.0
H520 H 0.24646 0.85679 0.91651 0.0
H521 H 0.27421 0.82417 0.90314 0.0
H522 H 0.20642 0.82447 0.95498 0.0
H523 H 0.22288 0.84957 0.96375 0.0
H524 H 0.22029 0.83348 0.00414 0.0
H525 H 0.26354 0.79496 0.93431 0.0
H526 H 0.23871 0.78236 0.94319 0.0
H527 H 0.25559 0.79554 0.98631 0.0
H528 H 0.14525 0.74287 0.82298 0.0
H529 H 0.12283 0.74297 0.76878 0.0
H530 H 0.12791 0.75965 0.81316 0.0
H531 H 0.10571 0.7377 0.80803 0.0
H532 H 0.15428 0.72783 0.87997 0.0
H533 H 0.13098 0.76025 0.9325 0.0
H534 H 0.19017 0.74055 0.9651 0.0
H535 H 0.19813 0.75292 0.91777 0.0
H536 H 0.18071 0.72801 0.91392 0.0
H537 H 0.14653 0.78371 0.98815 0.0
H538 H 0.17186 0.79515 0.98845 0.0
H539 H 0.15951 0.77791 0.026 0.0
H540 H 0.13663 0.69529 0.23006 0.0
H541 H 0.16799 0.71206 0.22485 0.0
H542 H 0.15324 0.75488 0.25105 0.0
H543 H 0.19492 0.73186 0.13889 0.0
H544 H 0.19232 0.71672 0.18139 0.0
H545 H 0.21133 0.74111 0.18417 0.0
H546 H 0.16826 0.78461 0.22105 0.0
H547 H 0.17778 0.78471 0.17055 0.0
H548 H 0.19309 0.79319 0.21769 0.0
H549 H 0.30245 0.86604 0.27955 0.0
H550 H 0.32106 0.89453 0.23704 0.0
H551 H 0.3016 0.87561 0.20574 0.0
H552 H 0.32502 0.8798 0.19947 0.0
H553 H 0.29702 0.81549 0.20339 0.0
H554 H 0.27543 0.85195 0.24019 0.0
H555 H 0.26243 0.78681 0.12859 0.0
H556 H 0.25257 0.77442 0.17488 0.0
H557 H 0.27758 0.78514 0.16883 0.0
H558 H 0.24467 0.84474 0.22246 0.0
H559 H 0.22812 0.8196 0.22228 0.0
H560 H 0.23482 0.83064 0.17318 0.0
H561 H 0.20246 0.78908 0.932 0.0
H562 H 0.16539 0.74851 0.03847 0.0
H563 H 0.17038 0.74693 0.11309 0.0
H564 H 0.22226 0.7817 0.21669 0.0
H565 H 0.25946 0.82137 0.10921 0.0
H566 H 0.25415 0.82353 0.03539 0.0
H567 H 0.10255 0.6843 0.23034 0.0
H568 H 0.11542 0.70724 0.20876 0.0
H569 H 0.10761 0.70557 0.26167 0.0
C570 C 0.37822 0.25437 0.4034 0.0
C571 C 0.39777 0.26255 0.38634 0.0
C572 C 0.40625 0.25586 0.31756 0.0
C573 C 0.42543 0.2626 0.32748 0.0
C574 C 0.43556 0.2567 0.30243 0.0
C575 C 0.42616 0.24339 0.26749 0.0
C576 C 0.40693 0.2371 0.25672 0.0
C577 C 0.39739 0.24384 0.28138 0.0
C578 C 0.45616 0.26422 0.31426 0.0
C579 C 0.39613 0.2225 0.22058 0.0
C580 C 0.44844 0.1361 0.4038 0.0
C581 C 0.44091 0.14683 0.38104 0.0
C582 C 0.45167 0.17282 0.3334 0.0
C583 C 0.43365 0.16787 0.3162 0.0
C584 C 0.43126 0.17945 0.28778 0.0
C585 C 0.44714 0.19657 0.27725 0.0
C586 C 0.46528 0.20162 0.29472 0.0
C587 C 0.4673 0.18947 0.322 0.0
C588 C 0.41173 0.17346 0.26938 0.0
C589 C 0.48251 0.22003 0.28539 0.0
C590 C 0.47478 0.1793 0.01061 0.0
C591 C 0.45611 0.17476 0.01662 0.0
C592 C 0.45225 0.18765 0.03833 0.0
C593 C 0.46731 0.20533 0.05511 0.0
C594 C 0.48609 0.21005 0.0489 0.0
C595 C 0.48956 0.197 0.02646 0.0
C596 C 0.432 0.1823 0.04351 0.0
C597 C 0.50248 0.22878 0.0664 0.0
C598 C 0.47328 0.33442 0.01535 0.0
C599 C 0.47697 0.32345 0.98021 0.0
C600 C 0.46218 0.29081 0.00373 0.0
C601 C 0.44656 0.27252 0.99744 0.0
C602 C 0.44466 0.25774 0.02213 0.0
C603 C 0.45893 0.26133 0.05358 0.0
C604 C 0.47477 0.27983 0.06033 0.0
C605 C 0.47613 0.29441 0.03575 0.0
C606 C 0.42749 0.23825 0.01429 0.0
C607 C 0.49044 0.28414 0.0931 0.0
C608 C 0.43553 0.23401 0.24629 0.0
C609 C 0.4376 0.22064 0.26874 0.0
C610 C 0.44464 0.20981 0.2503 0.0
C611 C 0.44931 0.21193 0.20763 0.0
C612 C 0.4552 0.20035 0.18712 0.0
C613 C 0.45978 0.20255 0.14512 0.0
C614 C 0.4588 0.21652 0.12212 0.0
C615 C 0.46327 0.21875 0.0793 0.0
C616 C 0.46304 0.23337 0.058 0.0
C617 C 0.45788 0.24558 0.07786 0.0
C618 C 0.45237 0.24293 0.11998 0.0
C619 C 0.44614 0.25428 0.14031 0.0
C620 C 0.44068 0.25146 0.18175 0.0
C621 C 0.44133 0.23726 0.20446 0.0
C622 C 0.44795 0.22592 0.18486 0.0
C623 C 0.45308 0.22849 0.14232 0.0
C624 C 0.46177 0.13582 0.01515 0.0
C625 C 0.46692 0.14821 0.9771 0.0
O626 O 0.39583 0.26041 0.34253 0.0
O627 O 0.46319 0.30438 0.97821 0.0
O628 O 0.47918 0.16712 0.99016 0.0
O629 O 0.45461 0.16203 0.36097 0.0
H630 H 0.40403 0.25413 0.39877 0.0
H631 H 0.36944 0.23912 0.39258 0.0
H632 H 0.37111 0.26209 0.39187 0.0
H633 H 0.3793 0.25548 0.43855 0.0
H634 H 0.43248 0.27235 0.35489 0.0
H635 H 0.38262 0.23893 0.27384 0.0
H636 H 0.45775 0.25334 0.33115 0.0
H637 H 0.46231 0.27741 0.33536 0.0
H638 H 0.46429 0.26719 0.28554 0.0
H639 H 0.38078 0.21738 0.21984 0.0
H640 H 0.39823 0.21009 0.22297 0.0
H641 H 0.40142 0.22883 0.19014 0.0
H642 H 0.43181 0.15065 0.39941 0.0
H643 H 0.43483 0.10925 0.3712 0.0
H644 H 0.44661 0.13825 0.43821 0.0
H645 H 0.46423 0.14544 0.40671 0.0
H646 H 0.42139 0.155 0.32469 0.0
H647 H 0.48114 0.19315 0.3354 0.0
H648 H 0.41189 0.17526 0.23482 0.0
H649 H 0.4068 0.18265 0.28419 0.0
H650 H 0.40145 0.15843 0.27494 0.0
H651 H 0.49515 0.2229 0.30548 0.0
H652 H 0.47995 0.23211 0.29046 0.0
H653 H 0.48557 0.2194 0.25177 0.0
H654 H 0.45389 0.14676 0.96142 0.0
H655 H 0.44439 0.16122 0.00467 0.0
H656 H 0.5039 0.20046 0.02167 0.0
H657 H 0.429 0.18045 0.07739 0.0
H658 H 0.4219 0.1689 0.02501 0.0
H659 H 0.42956 0.19386 0.03333 0.0
H660 H 0.51628 0.22988 0.06094 0.0
H661 H 0.50149 0.23062 0.10092 0.0
H662 H 0.50194 0.24061 0.05128 0.0
H663 H 0.49106 0.32494 0.98679 0.0
H664 H 0.48427 0.34971 0.017 0.0
H665 H 0.47364 0.32877 0.04648 0.0
H666 H 0.45923 0.3331 0.00943 0.0
H667 H 0.43581 0.26983 0.97292 0.0
H668 H 0.48824 0.30847 0.04172 0.0
H669 H 0.42121 0.23266 0.04465 0.0
H670 H 0.43169 0.22834 1.00013 0.0
H671 H 0.4166 0.23834 0.99256 0.0
H672 H 0.50259 0.29877 0.09182 0.0
H673 H 0.49548 0.27385 0.08853 0.0
H674 H 0.48505 0.28261 0.12515 0.0
H675 H 0.43347 0.21847 0.3011 0.0
H676 H 0.45619 0.18935 0.20327 0.0
H677 H 0.46421 0.19322 0.13095 0.0
H678 H 0.46682 0.2352 0.02538 0.0
H679 H 0.44529 0.26537 0.12426 0.0
H680 H 0.43598 0.26057 0.19589 0.0
H681 H 0.47463 0.1372 0.03159 0.0
H682 H 0.45209 0.12065 0.00466 0.0
H683 H 0.45452 0.14016 0.03809 0.0
C684 C 0.03472 0.48988 0.54232 0.0
C685 C 0.03586 0.46739 0.69655 0.0
C686 C 0.98166 0.46413 0.69899 0.0
Mg687 Mg 0.01423 0.51184 0.50459 0.0
Mg688 Mg 0.00444 0.5388 0.56617 0.0
O689 O 0.00168 0.51478 0.5554 0.0
Mg690 Mg 0.01181 0.5045 0.59881 0.0
O691 O 0.02197 0.49276 0.63856 0.0
Mg692 Mg 0.00689 0.46555 0.61513 0.0
Mg693 Mg 0.02218 0.49685 0.69719 0.0
C694 C 0.98805 0.52002 0.65227 0.0
O695 O 0.03364 0.53392 0.63072 0.0
O696 O 0.99565 0.52089 0.46489 0.0
O697 O 0.0364 0.52776 0.69882 0.0
O698 O 0.03833 0.54326 0.5099 0.0
O699 O 0.98812 0.53762 0.51049 0.0
O700 O 0.03313 0.56013 0.55887 0.0
O701 O 0.99036 0.47488 0.57117 0.0
O702 O 0.99078 0.48052 0.5026 0.0
C703 C 0.98469 0.46904 0.53241 0.0
C704 C 0.98705 0.5301 0.47347 0.0
O705 O 0.99181 0.50661 0.64537 0.0
O706 O 0.02582 0.45941 0.66179 0.0
O707 O 0.993 0.53389 0.62812 0.0
O708 O 0.98478 0.45727 0.66532 0.0
O709 O 0.0368 0.48217 0.7149 0.0
O710 O 0.99379 0.4804 0.71605 0.0
O711 O 0.03111 0.50329 0.55017 0.0
O712 O 0.02817 0.47512 0.56404 0.0
C713 C 0.04351 0.55885 0.53155 0.0
C714 C 0.03999 0.53937 0.66947 0.0
C715 C 0.50409 0.0301 0.52459 0.0
C716 C 0.56067 0.02436 0.46774 0.0
C717 C 0.52974 0.96719 0.50991 0.0
Mg718 Mg 0.47771 0.00919 0.60118 0.0
Mg719 Mg 0.49284 0.99433 0.6804 0.0
O720 O 0.48849 0.99323 0.62174 0.0
Mg721 Mg 0.51025 0.00204 0.58498 0.0
O722 O 0.53058 0.01092 0.54455 0.0
Mg723 Mg 0.51497 0.99856 0.49008 0.0
Mg724 Mg 0.55074 0.00681 0.55512 0.0
C725 C 0.51483 0.97344 0.65003 0.0
O726 O 0.53287 0.02198 0.63705 0.0
O727 O 0.45251 0.99149 0.643 0.0
O728 O 0.55735 0.01806 0.62049 0.0
O729 O 0.49227 0.03211 0.65668 0.0
O730 O 0.46384 0.98119 0.69515 0.0
O731 O 0.50671 0.0235 0.7044 0.0
O732 O 0.4893 0.9827 0.53105 0.0
O733 O 0.46506 0.98696 0.54523 0.0
C734 C 0.47254 0.9795 0.52223 0.0
C735 C 0.45027 0.98211 0.67622 0.0
O736 O 0.51603 0.97916 0.6123 0.0
O737 O 0.54301 0.0162 0.45606 0.0
O738 O 0.5077 0.97852 0.6797 0.0
O739 O 0.52008 0.97299 0.48932 0.0
O740 O 0.56665 0.02302 0.50469 0.0
O741 O 0.54175 0.97754 0.5398 0.0
O742 O 0.50372 0.0244 0.5619 0.0
O743 O 0.50907 0.02338 0.49355 0.0
C744 C 0.50271 0.03568 0.69063 0.0
C745 C 0.54933 0.02421 0.64554 0.0
C746 C 0.51629 0.53468 0.65042 0.0
C747 C 0.46019 0.4761 0.71741 0.0
C748 C 0.48572 0.44527 0.66589 0.0
Mg749 Mg 0.53904 0.5351 0.5683 0.0
Mg750 Mg 0.51892 0.50219 0.48967 0.0
O751 O 0.5254 0.50749 0.54791 0.0
Mg752 Mg 0.5054 0.49723 0.58935 0.0
O753 O 0.48677 0.48835 0.63386 0.0
Mg754 Mg 0.50412 0.49292 0.68479 0.0
Mg755 Mg 0.46529 0.46407 0.62647 0.0
C756 C 0.49515 0.46064 0.5231 0.0
O757 O 0.48139 0.49415 0.54315 0.0
O758 O 0.56167 0.53889 0.52116 0.0
O759 O 0.4561 0.46775 0.56391 0.0
O760 O 0.52407 0.54319 0.51713 0.0
O761 O 0.54738 0.51497 0.47072 0.0
O762 O 0.50756 0.51946 0.46835 0.0
O763 O 0.52754 0.49935 0.63852 0.0
O764 O 0.55253 0.52599 0.62006 0.0
C765 C 0.54504 0.51202 0.64399 0.0
C766 C 0.5621 0.52975 0.48757 0.0
O767 O 0.49685 0.46708 0.5617 0.0
O768 O 0.47821 0.48572 0.72464 0.0
O769 O 0.50115 0.4715 0.49208 0.0
O770 O 0.49667 0.46161 0.68452 0.0
O771 O 0.45237 0.46705 0.68174 0.0
O772 O 0.47289 0.44273 0.63813 0.0
O773 O 0.51494 0.5277 0.6127 0.0
O774 O 0.51191 0.52413 0.68194 0.0
C775 C 0.51295 0.53621 0.48387 0.0
C776 C 0.46393 0.48104 0.5382 0.0
H777 H 0.1679 0.47669 0.38302 0.0
H778 H 0.1503 0.49324 0.39539 0.0
H779 H 0.09806 0.43989 0.37694 0.0
H780 H 0.1156 0.42342 0.3628 0.0
H781 H 0.0954 0.46932 0.34359 0.0
H782 H 0.12785 0.48945 0.5083 0.0
H783 H 0.14409 0.49806 0.46732 0.0
H784 H 0.13046 0.47294 0.47373 0.0
C785 C 0.15265 0.46856 0.38098 0.0
C786 C 0.14309 0.44873 0.3727 0.0
C787 C 0.14263 0.47801 0.38825 0.0
C788 C 0.1229 0.46774 0.38814 0.0
C789 C 0.1133 0.44809 0.37744 0.0
H790 H 0.02987 0.46066 0.48998 0.0
H791 H 0.05241 0.46027 0.44269 0.0
C792 C 0.1233 0.43867 0.36961 0.0
C793 C 0.11222 0.47696 0.40246 0.0
H794 H 0.10444 0.49677 0.49067 0.0
C795 C 0.09757 0.47561 0.37553 0.0
C796 C 0.11512 0.48525 0.44414 0.0
C797 C 0.13011 0.48642 0.47525 0.0
C798 C 0.08517 0.48147 0.38984 0.0
C799 C 0.08746 0.48876 0.43212 0.0
C800 C 0.10285 0.49131 0.45813 0.0
C801 C 0.07238 0.49039 0.45257 0.0
C802 C 0.06926 0.47912 0.36019 0.0
C803 C 0.07595 0.50757 0.4732 0.0
C804 C 0.06291 0.50785 0.50012 0.0
C805 C 0.04647 0.49084 0.50749 0.0
C806 C 0.0425 0.47394 0.48495 0.0
C807 C 0.05529 0.47373 0.45762 0.0
H808 H 0.07284 0.47945 0.32667 0.0
H809 H 0.05657 0.46515 0.36421 0.0
H810 H 0.06571 0.49042 0.36707 0.0
H811 H 0.08918 0.52052 0.47006 0.0
H812 H 0.06629 0.52103 0.51737 0.0
H813 H 0.71865 0.12639 0.36397 0.0
H814 H 0.68496 0.11081 0.3746 0.0
H815 H 0.67277 0.07972 0.25348 0.0
H816 H 0.70662 0.09486 0.24338 0.0
H817 H 0.65439 0.10871 0.33117 0.0
H818 H 0.64817 0.03732 0.33275 0.0
H819 H 0.67065 0.05893 0.33388 0.0
H820 H 0.65626 0.04957 0.28529 0.0
C821 C 0.70876 0.11644 0.33935 0.0
C822 C 0.71524 0.11197 0.30273 0.0
C823 C 0.68953 0.10755 0.34541 0.0
C824 C 0.67635 0.09393 0.31507 0.0
C825 C 0.6827 0.08995 0.27762 0.0
H826 H 0.55848 0.01973 0.38099 0.0
H827 H 0.58409 0.03704 0.33382 0.0
C828 C 0.70201 0.09873 0.2717 0.0
C829 C 0.65621 0.08323 0.32454 0.0
H830 H 0.62179 0.03942 0.35012 0.0
C831 C 0.64713 0.0935 0.33455 0.0
C832 C 0.64671 0.06334 0.32885 0.0
C833 C 0.65593 0.0516 0.31997 0.0
C834 C 0.62927 0.08461 0.35095 0.0
C835 C 0.62031 0.065 0.35747 0.0
C836 C 0.62874 0.05446 0.34477 0.0
C837 C 0.60401 0.05592 0.38397 0.0
C838 C 0.62045 0.09638 0.36304 0.0
C839 C 0.60683 0.06087 0.42748 0.0
C840 C 0.59249 0.0509 0.4543 0.0
C841 C 0.57495 0.03585 0.43811 0.0
C842 C 0.57184 0.03134 0.39423 0.0
C843 C 0.5864 0.04117 0.36734 0.0
H844 H 0.62639 0.10967 0.34603 0.0
H845 H 0.60494 0.08817 0.35622 0.0
H846 H 0.62328 0.10035 0.3975 0.0
H847 H 0.6204 0.07204 0.44095 0.0
H848 H 0.59526 0.05478 0.48794 0.0
H849 H 0.51718 0.67593 0.29384 0.0
H850 H 0.50687 0.64669 0.33053 0.0
H851 H 0.55473 0.64351 0.28908 0.0
H852 H 0.56543 0.67308 0.25353 0.0
H853 H 0.49746 0.61002 0.30591 0.0
H854 H 0.56115 0.64418 0.41654 0.0
H855 H 0.55518 0.65755 0.38133 0.0
H856 H 0.56645 0.64489 0.36203 0.0
C857 C 0.52532 0.66881 0.29204 0.0
C858 C 0.54195 0.67664 0.27035 0.0
C859 C 0.51944 0.65213 0.31301 0.0
C860 C 0.53015 0.64306 0.31296 0.0
C861 C 0.54641 0.65046 0.29007 0.0
H862 H 0.50287 0.53316 0.39953 0.0
H863 H 0.50393 0.55832 0.35793 0.0
C864 C 0.55241 0.66724 0.26941 0.0
C865 C 0.52483 0.62646 0.3387 0.0
H866 H 0.54115 0.61097 0.41957 0.0
C867 C 0.50696 0.6102 0.33089 0.0
C868 C 0.53709 0.6269 0.37185 0.0
C869 C 0.55596 0.64438 0.3838 0.0
C870 C 0.50118 0.59421 0.35484 0.0
C871 C 0.51376 0.5944 0.38686 0.0
C872 C 0.5315 0.61079 0.39497 0.0
C873 C 0.50928 0.57778 0.41202 0.0
C874 C 0.48159 0.57742 0.34605 0.0
C875 C 0.51151 0.58014 0.45635 0.0
C876 C 0.51124 0.56591 0.48013 0.0
C877 C 0.50862 0.54899 0.46004 0.0
C878 C 0.50481 0.546 0.41595 0.0
C879 C 0.50535 0.56037 0.39208 0.0
H880 H 0.47197 0.5817 0.33089 0.0
H881 H 0.48218 0.56684 0.32401 0.0
H882 H 0.47556 0.57046 0.37552 0.0
H883 H 0.51448 0.59342 0.47243 0.0
H884 H 0.51408 0.56859 0.51408 0.0
H885 H 0.91928 0.60775 0.23183 0.0
H886 H 0.93384 0.58809 0.24299 0.0
H887 H 0.899 0.5635 0.34736 0.0
H888 H 0.88424 0.58272 0.33571 0.0
H889 H 0.95436 0.59064 0.31212 0.0
H890 H 0.89559 0.51685 0.29085 0.0
H891 H 0.89373 0.53657 0.27197 0.0
H892 H 0.8895 0.53037 0.3261 0.0
C893 C 0.91439 0.59772 0.25632 0.0
C894 C 0.90042 0.59651 0.28252 0.0
C895 C 0.92272 0.58654 0.26271 0.0
C896 C 0.91723 0.57399 0.29541 0.0
C897 C 0.90304 0.57256 0.32102 0.0
H898 H 0.9584 0.5372 0.48339 0.0
H899 H 0.94185 0.54501 0.42949 0.0
C900 C 0.89471 0.58367 0.31459 0.0
C901 C 0.92787 0.56429 0.30682 0.0
H902 H 0.92156 0.52233 0.34126 0.0
C903 C 0.94731 0.57557 0.31713 0.0
C904 C 0.91874 0.54459 0.31309 0.0
C905 C 0.89827 0.5314 0.29942 0.0
C906 C 0.95744 0.56804 0.33718 0.0
C907 C 0.94787 0.5488 0.34709 0.0
C908 C 0.92881 0.53714 0.33379 0.0
C909 C 0.95654 0.54169 0.37763 0.0
C910 C 0.97797 0.58101 0.35077 0.0
C911 C 0.97001 0.53685 0.36597 0.0
C912 C 0.97949 0.53223 0.39685 0.0
C913 C 0.97575 0.53269 0.43971 0.0
C914 C 0.96175 0.5369 0.45075 0.0
C915 C 0.95219 0.54127 0.41999 0.0
H916 H 0.98347 0.59557 0.33987 0.0
H917 H 0.97992 0.58197 0.3858 0.0
H918 H 0.98646 0.57504 0.33793 0.0
H919 H 0.97353 0.53716 0.33331 0.0
H920 H 0.99024 0.52907 0.38744 0.0
H921 H 0.34442 0.86596 0.23216 0.0
H922 H 0.37564 0.88053 0.26993 0.0
H923 H 0.35433 0.89719 0.37561 0.0
H924 H 0.3233 0.88287 0.33807 0.0
H925 H 0.39694 0.91978 0.29765 0.0
H926 H 0.38376 0.87371 0.43133 0.0
H927 H 0.36855 0.86604 0.38338 0.0
H928 H 0.36638 0.88078 0.4239 0.0
C929 C 0.34637 0.87245 0.26376 0.0
C930 C 0.3314 0.87315 0.28235 0.0
C931 C 0.36416 0.88075 0.28523 0.0
C932 C 0.36719 0.88965 0.32579 0.0
C933 C 0.35217 0.89 0.34472 0.0
H934 H 0.44528 0.98142 0.47576 0.0
H935 H 0.42325 0.95842 0.42098 0.0
C936 C 0.33447 0.88188 0.32319 0.0
C937 C 0.38632 0.90025 0.34707 0.0
H938 H 0.41019 0.90574 0.44175 0.0
C939 C 0.40005 0.91646 0.3287 0.0
C940 C 0.39043 0.89577 0.3873 0.0
C941 C 0.37656 0.87801 0.40749 0.0
C942 C 0.41717 0.92916 0.35111 0.0
C943 C 0.42055 0.92553 0.39281 0.0
C944 C 0.40752 0.90853 0.40979 0.0
C945 C 0.43575 0.94048 0.42159 0.0
C946 C 0.43112 0.94686 0.33089 0.0
C947 C 0.45024 0.9381 0.43979 0.0
C948 C 0.46307 0.95142 0.47102 0.0
C949 C 0.46118 0.96695 0.48508 0.0
C950 C 0.44701 0.96953 0.46573 0.0
C951 C 0.43448 0.95647 0.43423 0.0
H952 H 0.42925 0.94495 0.29582 0.0
H953 H 0.42893 0.95879 0.34095 0.0
H954 H 0.44582 0.95085 0.34086 0.0
H955 H 0.45131 0.92573 0.43062 0.0
H956 H 0.47383 0.94907 0.48559 0.0
H957 H 0.40105 0.29438 0.35013 0.0
H958 H 0.41954 0.32758 0.37788 0.0
H959 H 0.43913 0.31035 0.48641 0.0
H960 H 0.42085 0.27708 0.45849 0.0
H961 H 0.42263 0.33615 0.50068 0.0
H962 H 0.47965 0.36113 0.38867 0.0
H963 H 0.45592 0.34682 0.36588 0.0
H964 H 0.46567 0.33646 0.40034 0.0
C965 C 0.40956 0.29771 0.3795 0.0
C966 C 0.40992 0.28322 0.40169 0.0
C967 C 0.42004 0.31663 0.39536 0.0
C968 C 0.43081 0.32134 0.43389 0.0
C969 C 0.431 0.30694 0.45644 0.0
H970 H 0.49078 0.43296 0.57611 0.0
H971 H 0.47583 0.39871 0.5582 0.0
C972 C 0.42066 0.28802 0.44042 0.0
C973 C 0.44146 0.34132 0.451 0.0
H974 H 0.47826 0.38472 0.43179 0.0
C975 C 0.43492 0.34681 0.48601 0.0
C976 C 0.45744 0.35504 0.43168 0.0
C977 C 0.46525 0.34965 0.39473 0.0
C978 C 0.44349 0.36595 0.50112 0.0
C979 C 0.45927 0.3798 0.48115 0.0
C980 C 0.46614 0.37411 0.44698 0.0
C981 C 0.46814 0.40041 0.49307 0.0
C982 C 0.43506 0.37124 0.53701 0.0
C983 C 0.46913 0.41278 0.4623 0.0
C984 C 0.47784 0.43228 0.47227 0.0
C985 C 0.48569 0.43987 0.51337 0.0
C986 C 0.48461 0.42749 0.54435 0.0
C987 C 0.47603 0.40792 0.53418 0.0
H988 H 0.4205 0.35976 0.54182 0.0
H989 H 0.44379 0.37375 0.56672 0.0
H990 H 0.43477 0.38447 0.53119 0.0
H991 H 0.46312 0.40731 0.4304 0.0
H992 H 0.47833 0.44141 0.44773 0.0
H993 H 0.60972 0.89594 0.79225 0.0
H994 H 0.59762 0.91206 0.74759 0.0
H995 H 0.54679 0.88812 0.81467 0.0
H996 H 0.55877 0.87211 0.85937 0.0
H997 H 0.56045 0.8964 0.69551 0.0
H998 H 0.57201 0.94782 0.82946 0.0
H999 H 0.58348 0.9338 0.8284 0.0
H1000 H 0.55934 0.92326 0.84147 0.0
C1001 C 0.59583 0.89388 0.79689 0.0
C1002 C 0.58509 0.88259 0.82893 0.0
C1003 C 0.58896 0.90307 0.77143 0.0
C1004 C 0.57137 0.90129 0.77803 0.0
C1005 C 0.56043 0.88967 0.80923 0.0
H1006 H 0.50206 0.94674 0.70781 0.0
H1007 H 0.51655 0.92877 0.73319 0.0
C1008 C 0.56725 0.88049 0.83459 0.0
C1009 C 0.56481 0.91247 0.75446 0.0
H1010 H 0.55371 0.94735 0.76924 0.0
C1011 C 0.55913 0.90769 0.71133 0.0
C1012 C 0.56332 0.92727 0.77529 0.0
C1013 C 0.57 0.93351 0.82112 0.0
C1014 C 0.55106 0.91678 0.68895 0.0
C1015 C 0.54888 0.93105 0.71036 0.0
C1016 C 0.55526 0.93628 0.75304 0.0
C1017 C 0.53902 0.94011 0.69034 0.0
C1018 C 0.54425 0.91058 0.64321 0.0
C1019 C 0.54668 0.95219 0.65723 0.0
C1020 C 0.53834 0.96248 0.64252 0.0
C1021 C 0.52234 0.9609 0.66095 0.0
C1022 C 0.51442 0.9483 0.69309 0.0
C1023 C 0.52265 0.938 0.70757 0.0
H1024 H 0.54405 0.89722 0.6334 0.0
H1025 H 0.52986 0.90843 0.63746 0.0
H1026 H 0.55374 0.92187 0.62291 0.0
H1027 H 0.55952 0.9543 0.64408 0.0
H1028 H 0.54501 0.97244 0.61852 0.0
H1029 H 0.65804 0.51851 0.95259 0.0
H1030 H 0.63143 0.51687 0.91111 0.0
H1031 H 0.64714 0.49679 0.80064 0.0
H1032 H 0.67321 0.49762 0.84237 0.0
H1033 H 0.63074 0.53539 0.84566 0.0
H1034 H 0.59216 0.45866 0.79755 0.0
H1035 H 0.61142 0.46892 0.8375 0.0
H1036 H 0.61596 0.46973 0.78222 0.0
C1037 C 0.65579 0.51378 0.91941 0.0
C1038 C 0.66792 0.50857 0.90056 0.0
C1039 C 0.64057 0.51278 0.8958 0.0
C1040 C 0.63709 0.50643 0.85288 0.0
C1041 C 0.64923 0.50128 0.83392 0.0
H1042 H 0.58311 0.53393 0.65697 0.0
H1043 H 0.60356 0.53186 0.71124 0.0
C1044 C 0.66432 0.50206 0.85765 0.0
C1045 C 0.62131 0.50606 0.82748 0.0
H1046 H 0.5841 0.47835 0.75686 0.0
C1047 C 0.6204 0.52282 0.82669 0.0
C1048 C 0.60751 0.48956 0.80345 0.0
C1049 C 0.60667 0.47066 0.80558 0.0
C1050 C 0.60667 0.52382 0.80101 0.0
C1051 C 0.59384 0.50778 0.77441 0.0
C1052 C 0.59412 0.49073 0.77677 0.0
C1053 C 0.581 0.50886 0.74187 0.0
C1054 C 0.60614 0.54211 0.80259 0.0
C1055 C 0.56148 0.49612 0.73997 0.0
C1056 C 0.54964 0.49708 0.70833 0.0
C1057 C 0.55717 0.51078 0.67807 0.0
C1058 C 0.57674 0.52335 0.68001 0.0
C1059 C 0.5885 0.52229 0.71128 0.0
H1060 H 0.61186 0.55011 0.83379 0.0
H1061 H 0.61504 0.55128 0.77815 0.0
H1062 H 0.59158 0.53944 0.79651 0.0
H1063 H 0.55541 0.4855 0.76302 0.0
H1064 H 0.53465 0.48714 0.70764 0.0
H1065 H 0.09388 0.7054 0.83592 0.0
H1066 H 0.0798 0.67243 0.80734 0.0
H1067 H 0.13304 0.68487 0.75952 0.0
H1068 H 0.14696 0.71801 0.78671 0.0
H1069 H 0.10447 0.66481 0.7011 0.0
H1070 H 0.08628 0.63047 0.85328 0.0
H1071 H 0.0762 0.64529 0.84465 0.0
H1072 H 0.10141 0.65576 0.85061 0.0
C1073 C 0.10257 0.70103 0.81953 0.0
C1074 C 0.12152 0.71422 0.81368 0.0
C1075 C 0.09457 0.68218 0.80344 0.0
C1076 C 0.10545 0.6761 0.78187 0.0
C1077 C 0.1244 0.68924 0.77618 0.0
H1078 H 0.06926 0.55688 0.72877 0.0
H1079 H 0.08646 0.59054 0.75305 0.0
C1080 C 0.13235 0.70812 0.79188 0.0
C1081 C 0.09696 0.65617 0.76422 0.0
H1082 H 0.07287 0.61006 0.79072 0.0
C1083 C 0.09767 0.65282 0.72071 0.0
C1084 C 0.08832 0.64056 0.78993 0.0
C1085 C 0.08816 0.64317 0.83726 0.0
C1086 C 0.08968 0.63427 0.70208 0.0
C1087 C 0.08034 0.61865 0.72754 0.0
C1088 C 0.0799 0.62203 0.77113 0.0
C1089 C 0.07097 0.59863 0.70996 0.0
C1090 C 0.09164 0.63163 0.65553 0.0
C1091 C 0.05661 0.59198 0.67748 0.0
C1092 C 0.04695 0.57279 0.66322 0.0
C1093 C 0.0513 0.55989 0.68159 0.0
C1094 C 0.06569 0.56656 0.71395 0.0
C1095 C 0.0755 0.58576 0.72784 0.0
H1096 H 0.10382 0.64443 0.64393 0.0
H1097 H 0.09345 0.61917 0.64869 0.0
H1098 H 0.07875 0.62927 0.63739 0.0
H1099 H 0.05244 0.60148 0.66409 0.0
H1100 H 0.03548 0.56789 0.63931 0.0
H1101 H 0.50377 0.15571 0.97679 0.0
H1102 H 0.51669 0.14133 0.92871 0.0
H1103 H 0.46262 0.10981 0.85952 0.0
H1104 H 0.44968 0.12404 0.9072 0.0
H1105 H 0.47964 0.08807 0.89135 0.0
H1106 H 0.52743 0.14879 0.7985 0.0
H1107 H 0.52857 0.15252 0.85517 0.0
H1108 H 0.50791 0.1482 0.82435 0.0
C1109 C 0.4948 0.14605 0.9507 0.0
C1110 C 0.4758 0.14128 0.94519 0.0
C1111 C 0.50218 0.13786 0.92334 0.0
C1112 C 0.49065 0.1247 0.89034 0.0
C1113 C 0.47178 0.12008 0.88458 0.0
H1114 H 0.49462 0.06373 0.67427 0.0
H1115 H 0.49621 0.08784 0.72502 0.0
C1116 C 0.46443 0.12826 0.91173 0.0
C1117 C 0.49755 0.11444 0.86364 0.0
H1118 H 0.52456 0.11901 0.7806 0.0
C1119 C 0.48966 0.09485 0.8675 0.0
C1120 C 0.51055 0.12339 0.83255 0.0
C1121 C 0.51913 0.14437 0.82697 0.0
C1122 C 0.49393 0.08378 0.84018 0.0
C1123 C 0.50669 0.09263 0.80848 0.0
C1124 C 0.51497 0.11234 0.80525 0.0
C1125 C 0.5098 0.08114 0.77585 0.0
C1126 C 0.48403 0.06255 0.84414 0.0
C1127 C 0.51785 0.07008 0.78696 0.0
C1128 C 0.51689 0.05616 0.75804 0.0
C1129 C 0.50786 0.05311 0.71753 0.0
C1130 C 0.50145 0.06549 0.70533 0.0
C1131 C 0.5024 0.07936 0.73428 0.0
H1132 H 0.47223 0.05765 0.8654 0.0
H1133 H 0.47838 0.05485 0.81266 0.0
H1134 H 0.49424 0.0586 0.85729 0.0
H1135 H 0.5239 0.07147 0.81875 0.0
H1136 H 0.52221 0.04707 0.76833 0.0
H1137 H 0.33035 0.41756 0.96572 0.0
H1138 H 0.35748 0.42791 0.9226 0.0
H1139 H 0.37248 0.48639 0.94853 0.0
H1140 H 0.3451 0.47605 0.99128 0.0
H1141 H 0.37301 0.47776 0.86442 0.0
H1142 H 0.41299 0.4528 0.96087 0.0
H1143 H 0.38918 0.43429 0.9476 0.0
H1144 H 0.39364 0.45479 0.98056 0.0
C1145 C 0.3394 0.43262 0.96211 0.0
C1146 C 0.33546 0.44598 0.98127 0.0
C1147 C 0.35501 0.43852 0.9379 0.0
C1148 C 0.36716 0.45793 0.93293 0.0
C1149 C 0.36332 0.47135 0.95215 0.0
H1150 H 0.4704 0.49285 0.79835 0.0
H1151 H 0.4494 0.49129 0.85308 0.0
C1152 C 0.34767 0.46544 0.97636 0.0
C1153 C 0.38326 0.46404 0.90582 0.0
H1154 H 0.42145 0.45906 0.8889 0.0
C1155 C 0.38376 0.47392 0.87011 0.0
C1156 C 0.3975 0.45935 0.91369 0.0
C1157 C 0.39845 0.4499 0.95302 0.0
C1158 C 0.3975 0.47828 0.84076 0.0
C1159 C 0.41086 0.47231 0.84698 0.0
C1160 C 0.41104 0.46341 0.88392 0.0
C1161 C 0.42374 0.4738 0.81397 0.0
C1162 C 0.3974 0.489 0.803 0.0
C1163 C 0.41624 0.46425 0.77423 0.0
C1164 C 0.42811 0.46508 0.74306 0.0
C1165 C 0.4478 0.47539 0.75101 0.0
C1166 C 0.45532 0.48483 0.79109 0.0
C1167 C 0.44336 0.48397 0.82239 0.0
H1168 H 0.39062 0.49763 0.80958 0.0
H1169 H 0.41192 0.49854 0.79352 0.0
H1170 H 0.38923 0.47869 0.77594 0.0
H1171 H 0.40113 0.45594 0.76742 0.0
H1172 H 0.42176 0.45752 0.71274 0.0
H1173 H 0.9021 0.33519 0.93759 0.0
H1174 H 0.91727 0.3607 0.88966 0.0
H1175 H 0.86482 0.35998 0.86558 0.0
H1176 H 0.84977 0.33499 0.91517 0.0
H1177 H 0.91047 0.361 0.80788 0.0
H1178 H 0.90007 0.41575 0.89244 0.0
H1179 H 0.89548 0.39404 0.91563 0.0
H1180 H 0.87866 0.39396 0.87751 0.0
C1181 C 0.8938 0.34047 0.92201 0.0
C1182 C 0.87468 0.33284 0.92963 0.0
C1183 C 0.90247 0.35505 0.89466 0.0
C1184 C 0.89226 0.36241 0.87422 0.0
C1185 C 0.87311 0.35481 0.88156 0.0
H1186 H 0.94871 0.43363 0.66576 0.0
H1187 H 0.92363 0.40946 0.70503 0.0
C1188 C 0.86445 0.34034 0.9095 0.0
C1189 C 0.90182 0.37774 0.84471 0.0
H1190 H 0.91456 0.42375 0.82753 0.0
C1191 C 0.91128 0.3747 0.81205 0.0
C1192 C 0.90298 0.39566 0.85037 0.0
C1193 C 0.89392 0.40017 0.88609 0.0
C1194 C 0.92237 0.38918 0.78582 0.0
C1195 C 0.92345 0.40708 0.7912 0.0
C1196 C 0.91356 0.40998 0.82312 0.0
C1197 C 0.93619 0.4234 0.76668 0.0
C1198 C 0.93362 0.38538 0.75421 0.0
C1199 C 0.95069 0.44006 0.78799 0.0
C1200 C 0.96475 0.45417 0.76554 0.0
C1201 C 0.96468 0.45171 0.7214 0.0
C1202 C 0.94931 0.43576 0.69984 0.0
C1203 C 0.93505 0.42186 0.72227 0.0
H1204 H 0.93493 0.37283 0.76163 0.0
H1205 H 0.92641 0.38245 0.72225 0.0
H1206 H 0.94801 0.39784 0.75328 0.0
H1207 H 0.95177 0.44168 0.82222 0.0
H1208 H 0.97635 0.46632 0.78307 0.0
H1209 H 0.89303 0.56739 0.84211 0.0
H1210 H 0.90687 0.55141 0.80302 0.0
H1211 H 0.90772 0.52273 0.91409 0.0
H1212 H 0.89391 0.5388 0.9535 0.0
H1213 H 0.94204 0.54134 0.87862 0.0
H1214 H 0.88598 0.4967 0.75531 0.0
H1215 H 0.89069 0.52076 0.75857 0.0
H1216 H 0.88143 0.5063 0.80284 0.0
C1217 C 0.89571 0.5573 0.85785 0.0
C1218 C 0.89205 0.55403 0.90058 0.0
C1219 C 0.90355 0.54813 0.83548 0.0
C1220 C 0.90793 0.53557 0.85542 0.0
C1221 C 0.90417 0.53215 0.89799 0.0
H1222 H 0.96264 0.48902 0.69281 0.0
H1223 H 0.94272 0.48884 0.74912 0.0
C1224 C 0.89627 0.5413 0.92038 0.0
C1225 C 0.91829 0.52774 0.83287 0.0
H1226 H 0.91787 0.50554 0.7391 0.0
C1227 C 0.93659 0.5331 0.84862 0.0
C1228 C 0.91108 0.51675 0.79407 0.0
C1229 C 0.89113 0.50962 0.77692 0.0
C1230 C 0.9484 0.5291 0.82484 0.0
C1231 C 0.94174 0.51964 0.78434 0.0
C1232 C 0.92296 0.51291 0.77011 0.0
C1233 C 0.95478 0.51939 0.75383 0.0
C1234 C 0.96823 0.53583 0.84224 0.0
C1235 C 0.96811 0.53659 0.73824 0.0
C1236 C 0.97926 0.53672 0.7061 0.0
C1237 C 0.97736 0.51963 0.68899 0.0
C1238 C 0.96446 0.5024 0.70563 0.0
C1239 C 0.95307 0.50227 0.73761 0.0
H1240 H 0.96943 0.53771 0.87732 0.0
H1241 H 0.97289 0.52566 0.83244 0.0
H1242 H 0.9779 0.54978 0.82974 0.0
H1243 H 0.96945 0.54992 0.75 0.0
H1244 H 0.98916 0.55023 0.69414 0.0
H1245 H 0.29767 0.85812 0.8239 0.0
H1246 H 0.32716 0.87902 0.79179 0.0
H1247 H 0.31696 0.92588 0.80945 0.0
H1248 H 0.28774 0.90517 0.84287 0.0
H1249 H 0.33369 0.8993 0.72161 0.0
H1250 H 0.36975 0.94806 0.86401 0.0
H1251 H 0.3483 0.92557 0.86623 0.0
H1252 H 0.34751 0.94584 0.84796 0.0
C1253 C 0.30188 0.87296 0.82159 0.0
C1254 C 0.29075 0.88021 0.83726 0.0
C1255 C 0.31864 0.88484 0.80294 0.0
C1256 C 0.32446 0.90411 0.79909 0.0
C1257 C 0.31303 0.91121 0.81324 0.0
H1258 H 0.41677 0.978 0.64369 0.0
H1259 H 0.38564 0.95985 0.67189 0.0
C1260 C 0.29635 0.89938 0.83222 0.0
C1261 C 0.34245 0.91668 0.78001 0.0
H1262 H 0.38551 0.9565 0.80063 0.0
C1263 C 0.34502 0.91184 0.7388 0.0
C1264 C 0.35724 0.93294 0.8027 0.0
C1265 C 0.3557 0.93836 0.8478 0.0
C1266 C 0.36205 0.92275 0.71975 0.0
C1267 C 0.37674 0.93912 0.74226 0.0
C1268 C 0.37412 0.94405 0.78331 0.0
C1269 C 0.39546 0.95053 0.72518 0.0
C1270 C 0.36442 0.91632 0.67631 0.0
C1271 C 0.41131 0.95165 0.74635 0.0
C1272 C 0.42905 0.96204 0.73056 0.0
C1273 C 0.43138 0.97163 0.69323 0.0
C1274 C 0.41549 0.97075 0.67239 0.0
C1275 C 0.39767 0.96029 0.6883 0.0
H1276 H 0.35334 0.90142 0.66711 0.0
H1277 H 0.3635 0.92561 0.65272 0.0
H1278 H 0.37843 0.91742 0.67491 0.0
H1279 H 0.40991 0.94427 0.77493 0.0
H1280 H 0.44093 0.96243 0.74763 0.0
H1281 H 0.50762 0.34989 0.9418 0.0
H1282 H 0.50834 0.36655 0.87855 0.0
H1283 H 0.44778 0.33373 0.86208 0.0
H1284 H 0.44691 0.31697 0.92567 0.0
H1285 H 0.47431 0.34199 0.78217 0.0
H1286 H 0.48311 0.4029 0.88638 0.0
H1287 H 0.4971 0.39232 0.90062 0.0
H1288 H 0.47201 0.3789 0.90315 0.0
C1289 C 0.49448 0.34592 0.92418 0.0
C1290 C 0.47724 0.33191 0.93828 0.0
C1291 C 0.49492 0.35543 0.88812 0.0
C1292 C 0.47813 0.35123 0.86563 0.0
C1293 C 0.46088 0.33696 0.87884 0.0
H1294 H 0.45798 0.40773 0.65862 0.0
H1295 H 0.45623 0.38266 0.70194 0.0
C1296 C 0.46042 0.32744 0.91508 0.0
C1297 C 0.47867 0.36313 0.83102 0.0
H1298 H 0.48614 0.40739 0.81362 0.0
C1299 C 0.47677 0.35626 0.78881 0.0
C1300 C 0.48187 0.38167 0.84006 0.0
C1301 C 0.48354 0.38946 0.88495 0.0
C1302 C 0.47854 0.36778 0.75522 0.0
C1303 C 0.48209 0.38648 0.76438 0.0
C1304 C 0.4836 0.39311 0.80667 0.0
C1305 C 0.48444 0.39972 0.73116 0.0
C1306 C 0.47712 0.36012 0.71039 0.0
C1307 C 0.50109 0.4174 0.73213 0.0
C1308 C 0.50207 0.43177 0.7078 0.0
C1309 C 0.48638 0.42875 0.68202 0.0
C1310 C 0.47031 0.41049 0.67812 0.0
C1311 C 0.46929 0.39611 0.70282 0.0
H1312 H 0.47858 0.34725 0.70909 0.0
H1313 H 0.46315 0.35622 0.69522 0.0
H1314 H 0.48809 0.37107 0.69171 0.0
H1315 H 0.51296 0.42045 0.75368 0.0
H1316 H 0.51473 0.44561 0.71122 0.0
H1317 H 0.11567 0.42167 0.9705 0.0
H1318 H 0.104 0.43394 0.91478 0.0
H1319 H 0.10247 0.39227 0.82417 0.0
H1320 H 0.11425 0.37993 0.87994 0.0
H1321 H 0.11912 0.44749 0.83132 0.0
H1322 H 0.04729 0.38348 0.82229 0.0
H1323 H 0.06384 0.38925 0.86718 0.0
H1324 H 0.0671 0.37984 0.81821 0.0
C1325 C 0.1131 0.4153 0.93859 0.0
C1326 C 0.11589 0.39988 0.9295 0.0
C1327 C 0.10643 0.4223 0.90684 0.0
C1328 C 0.10223 0.41388 0.86555 0.0
C1329 C 0.10549 0.39883 0.85598 0.0
H1330 H 0.03902 0.43672 0.66816 0.0
H1331 H 0.05668 0.4235 0.70331 0.0
C1332 C 0.11228 0.39187 0.88772 0.0
C1333 C 0.09369 0.42048 0.83327 0.0
H1334 H 0.05175 0.40864 0.7812 0.0
C1335 C 0.10446 0.43894 0.81992 0.0
C1336 C 0.0746 0.40921 0.81828 0.0
C1337 C 0.06241 0.38936 0.83223 0.0
C1338 C 0.09648 0.44665 0.79277 0.0
C1339 C 0.07711 0.43575 0.77957 0.0
C1340 C 0.06657 0.41697 0.79143 0.0
C1341 C 0.06714 0.44413 0.75689 0.0
C1342 C 0.10885 0.46647 0.77886 0.0
C1343 C 0.06696 0.45992 0.77562 0.0
C1344 C 0.05697 0.46749 0.75574 0.0
C1345 C 0.0467 0.45932 0.71676 0.0
C1346 C 0.0468 0.4434 0.69807 0.0
C1347 C 0.05689 0.43584 0.71807 0.0
H1348 H 0.12383 0.47011 0.77911 0.0
H1349 H 0.10428 0.46807 0.74661 0.0
H1350 H 0.10804 0.47684 0.80116 0.0
H1351 H 0.07431 0.46623 0.80612 0.0
H1352 H 0.05715 0.47965 0.77134 0.0
H1353 H 0.70303 0.13352 0.85055 0.0
H1354 H 0.67363 0.12247 0.80833 0.0
H1355 H 0.64267 0.08712 0.9077 0.0
H1356 H 0.67197 0.09917 0.9513 0.0
H1357 H 0.65308 0.08892 0.77744 0.0
H1358 H 0.60714 0.10434 0.87349 0.0
H1359 H 0.63206 0.11492 0.88707 0.0
H1360 H 0.61565 0.09156 0.90323 0.0
C1361 C 0.68995 0.12385 0.86404 0.0
C1362 C 0.68984 0.11722 0.90445 0.0
C1363 C 0.6731 0.1175 0.83975 0.0
C1364 C 0.65581 0.1041 0.85489 0.0
C1365 C 0.65566 0.09788 0.89567 0.0
H1366 H 0.56892 0.01432 0.69858 0.0
H1367 H 0.59301 0.03483 0.75352 0.0
C1368 C 0.67245 0.10457 0.92038 0.0
C1369 C 0.63852 0.09465 0.82595 0.0
H1370 H 0.59106 0.078 0.81995 0.0
C1371 C 0.63964 0.08692 0.7866 0.0
C1372 C 0.6209 0.09212 0.83735 0.0
C1373 C 0.61893 0.10139 0.87742 0.0
C1374 C 0.62363 0.07606 0.75931 0.0
C1375 C 0.60581 0.07214 0.77233 0.0
C1376 C 0.60469 0.08065 0.81057 0.0
C1377 C 0.58836 0.05859 0.74688 0.0
C1378 C 0.626 0.06871 0.71686 0.0
C1379 C 0.57673 0.06463 0.72755 0.0
C1380 C 0.56259 0.05269 0.69673 0.0
C1381 C 0.56021 0.03478 0.68481 0.0
C1382 C 0.57072 0.0282 0.70694 0.0
C1383 C 0.5845 0.03991 0.73813 0.0
H1384 H 0.64049 0.07763 0.70652 0.0
H1385 H 0.62349 0.05407 0.71933 0.0
H1386 H 0.61584 0.06833 0.69216 0.0
H1387 H 0.57939 0.07895 0.73426 0.0
H1388 H 0.55457 0.05799 0.68003 0.0
H1389 H 0.58307 0.67668 0.87542 0.0
H1390 H 0.56517 0.65106 0.82098 0.0
H1391 H 0.59844 0.68737 0.72537 0.0
H1392 H 0.61662 0.71312 0.7801 0.0
H1393 H 0.54396 0.64877 0.74476 0.0
H1394 H 0.60651 0.64118 0.71487 0.0
H1395 H 0.60601 0.65476 0.76062 0.0
H1396 H 0.60874 0.66414 0.70939 0.0
C1397 C 0.58637 0.6793 0.84273 0.0
C1398 C 0.60115 0.69689 0.83193 0.0
C1399 C 0.57614 0.66468 0.81166 0.0
C1400 C 0.58059 0.66728 0.76925 0.0
C1401 C 0.59492 0.68504 0.75801 0.0
H1402 H 0.53564 0.56377 0.59811 0.0
H1403 H 0.55012 0.59805 0.61626 0.0
C1404 C 0.60519 0.69973 0.78918 0.0
C1405 C 0.57091 0.65083 0.7379 0.0
H1406 H 0.57728 0.61736 0.68495 0.0
C1407 C 0.55128 0.6421 0.7309 0.0
C1408 C 0.58053 0.64225 0.71955 0.0
C1409 C 0.60159 0.65092 0.72648 0.0
C1410 C 0.54088 0.62441 0.70823 0.0
C1411 C 0.55035 0.61513 0.69282 0.0
C1412 C 0.57009 0.62453 0.6969 0.0
C1413 C 0.54004 0.59464 0.67922 0.0
C1414 C 0.51977 0.61542 0.70251 0.0
C1415 C 0.52968 0.58147 0.7086 0.0
C1416 C 0.52164 0.56205 0.69861 0.0
C1417 C 0.52379 0.55531 0.65893 0.0
C1418 C 0.53373 0.5685 0.62893 0.0
C1419 C 0.54198 0.58806 0.63919 0.0
H1420 H 0.51548 0.6264 0.70242 0.0
H1421 H 0.51415 0.60633 0.67261 0.0
H1422 H 0.51325 0.60641 0.72928 0.0
H1423 H 0.52835 0.58624 0.73998 0.0
H1424 H 0.514 0.55232 0.72242 0.0
H1425 H 0.40381 0.11423 0.40496 0.0
H1426 H 0.42093 0.09765 0.45686 0.0
H1427 H 0.47446 0.11865 0.36215 0.0
H1428 H 0.45883 0.13582 0.30783 0.0
H1429 H 0.43167 0.07276 0.44363 0.0
H1430 H 0.50253 0.13488 0.47618 0.0
H1431 H 0.48353 0.13684 0.45126 0.0
H1432 H 0.49764 0.13025 0.42023 0.0
C1433 C 0.41647 0.11435 0.3961 0.0
C1434 C 0.43144 0.12988 0.35532 0.0
C1435 C 0.42777 0.10503 0.42945 0.0
C1436 C 0.45032 0.10777 0.41734 0.0
C1437 C 0.46171 0.11852 0.37008 0.0
H1438 H 0.50719 0.04814 0.45222 0.0
H1439 H 0.49419 0.06836 0.43466 0.0
C1440 C 0.45158 0.12828 0.33473 0.0
C1441 C 0.45841 0.09866 0.44357 0.0
H1442 H 0.50017 0.104 0.48283 0.0
C1443 C 0.44657 0.07974 0.45314 0.0
C1444 C 0.47782 0.10782 0.45626 0.0
C1445 C 0.491 0.12863 0.45078 0.0
C1446 C 0.45389 0.06928 0.47221 0.0
C1447 C 0.47348 0.07807 0.48211 0.0
C1448 C 0.48516 0.09729 0.47481 0.0
C1449 C 0.48233 0.06692 0.49507 0.0
C1450 C 0.44084 0.0486 0.47937 0.0
C1451 C 0.48023 0.05971 0.53527 0.0
C1452 C 0.48775 0.04813 0.54561 0.0
C1453 C 0.49731 0.0435 0.5157 0.0
C1454 C 0.49977 0.05125 0.47592 0.0
C1455 C 0.49241 0.06288 0.46582 0.0
H1456 H 0.42616 0.04353 0.46695 0.0
H1457 H 0.44595 0.0397 0.4639 0.0
H1458 H 0.44074 0.0465 0.51376 0.0
H1459 H 0.47258 0.06283 0.55834 0.0
H1460 H 0.48569 0.0425 0.57657 0.0
H1461 H 0.31397 0.46166 0.4112 0.0
H1462 H 0.34393 0.46201 0.41973 0.0
H1463 H 0.37237 0.51647 0.3653 0.0
H1464 H 0.34242 0.51623 0.35686 0.0
H1465 H 0.37247 0.46717 0.35885 0.0
H1466 H 0.39773 0.52484 0.48704 0.0
H1467 H 0.3732 0.51078 0.46898 0.0
H1468 H 0.38954 0.52884 0.43717 0.0
C1469 C 0.32656 0.47354 0.40041 0.0
C1470 C 0.32588 0.48888 0.38326 0.0
C1471 C 0.34363 0.47372 0.40522 0.0
C1472 C 0.36033 0.48931 0.39337 0.0
C1473 C 0.35963 0.50436 0.37484 0.0
H1474 H 0.47097 0.51136 0.49128 0.0
H1475 H 0.4483 0.51442 0.44462 0.0
C1476 C 0.34254 0.50418 0.36992 0.0
C1477 C 0.37856 0.49037 0.40364 0.0
H1478 H 0.41688 0.51176 0.47401 0.0
C1479 C 0.38235 0.47708 0.3836 0.0
C1480 C 0.39145 0.50342 0.4357 0.0
C1481 C 0.38784 0.51775 0.45878 0.0
C1482 C 0.39844 0.47609 0.39582 0.0
C1483 C 0.41078 0.48842 0.42957 0.0
C1484 C 0.40746 0.50235 0.44805 0.0
C1485 C 0.42565 0.4856 0.45018 0.0
C1486 C 0.40189 0.46163 0.37294 0.0
C1487 C 0.4206 0.46828 0.46795 0.0
C1488 C 0.4335 0.46648 0.49439 0.0
C1489 C 0.4517 0.48204 0.50405 0.0
C1490 C 0.45712 0.49907 0.48431 0.0
C1491 C 0.44415 0.50086 0.45774 0.0
H1492 H 0.39598 0.45872 0.33965 0.0
H1493 H 0.41716 0.46644 0.3731 0.0
H1494 H 0.39472 0.44805 0.38876 0.0
H1495 H 0.40631 0.45645 0.46347 0.0
H1496 H 0.42887 0.45312 0.50888 0.0
H1497 H 0.88982 0.29001 0.40531 0.0
H1498 H 0.91167 0.32021 0.44444 0.0
H1499 H 0.87456 0.34183 0.41298 0.0
H1500 H 0.85237 0.31147 0.37538 0.0
H1501 H 0.93066 0.35418 0.41464 0.0
H1502 H 0.88579 0.35717 0.53683 0.0
H1503 H 0.87918 0.33577 0.50455 0.0
H1504 H 0.87486 0.35383 0.4848 0.0
C1505 C 0.88634 0.30122 0.40693 0.0
C1506 C 0.86963 0.29855 0.38643 0.0
C1507 C 0.89877 0.31841 0.42937 0.0
C1508 C 0.89467 0.33322 0.43206 0.0
C1509 C 0.87785 0.33049 0.41217 0.0
H1510 H 0.96977 0.45233 0.45378 0.0
H1511 H 0.94876 0.41878 0.43391 0.0
C1512 C 0.86531 0.31322 0.3901 0.0
C1513 C 0.90859 0.35197 0.45297 0.0
H1514 H 0.91324 0.38701 0.52361 0.0
C1515 C 0.9269 0.36123 0.43891 0.0
C1516 C 0.90385 0.36106 0.48524 0.0
C1517 C 0.8849 0.35134 0.50405 0.0
C1518 C 0.94029 0.37965 0.45467 0.0
C1519 C 0.93508 0.38928 0.48451 0.0
C1520 C 0.91711 0.3797 0.50025 0.0
C1521 C 0.94767 0.40965 0.49749 0.0
C1522 C 0.95985 0.3887 0.43889 0.0
C1523 C 0.95352 0.41576 0.54015 0.0
C1524 C 0.96549 0.43508 0.55181 0.0
C1525 C 0.9717 0.44858 0.52095 0.0
C1526 C 0.96545 0.44236 0.47839 0.0
C1527 C 0.95351 0.42313 0.46687 0.0
H1528 H 0.96335 0.37779 0.42769 0.0
H1529 H 0.96062 0.39726 0.41179 0.0
H1530 H 0.97064 0.39823 0.46395 0.0
H1531 H 0.949 0.40556 0.56432 0.0
H1532 H 0.96993 0.43939 0.58487 0.0
H1533 H 0.52886 0.83347 0.279 0.0
H1534 H 0.52151 0.85484 0.32011 0.0
H1535 H 0.57418 0.87707 0.39421 0.0
H1536 H 0.5818 0.85619 0.35252 0.0
H1537 H 0.51758 0.85821 0.40531 0.0
H1538 H 0.57698 0.9251 0.35437 0.0
H1539 H 0.5699 0.9022 0.32845 0.0
H1540 H 0.58445 0.90988 0.37706 0.0
C1541 C 0.53899 0.84316 0.30359 0.0
C1542 C 0.55622 0.84367 0.3116 0.0
C1543 C 0.53472 0.85523 0.32725 0.0
C1544 C 0.5475 0.86786 0.35955 0.0
C1545 C 0.56436 0.86786 0.36862 0.0
H1546 H 0.5514 0.9525 0.53869 0.0
H1547 H 0.55373 0.92624 0.50535 0.0
C1548 C 0.56869 0.85592 0.34484 0.0
C1549 C 0.54327 0.88104 0.38393 0.0
H1550 H 0.56054 0.92805 0.41166 0.0
C1551 C 0.5269 0.87349 0.40653 0.0
C1552 C 0.55541 0.90098 0.38528 0.0
C1553 C 0.57256 0.91005 0.35966 0.0
C1554 C 0.5226 0.88538 0.43118 0.0
C1555 C 0.53497 0.90522 0.43316 0.0
C1556 C 0.55122 0.91277 0.41038 0.0
C1557 C 0.5312 0.91865 0.45762 0.0
C1558 C 0.50507 0.87675 0.45548 0.0
C1559 C 0.51741 0.92268 0.44238 0.0
C1560 C 0.5161 0.93778 0.46111 0.0
C1561 C 0.52863 0.94911 0.49535 0.0
C1562 C 0.54161 0.94417 0.51223 0.0
C1563 C 0.54297 0.92916 0.49327 0.0
H1564 H 0.49833 0.86104 0.45539 0.0
H1565 H 0.50846 0.88281 0.48872 0.0
H1566 H 0.49477 0.8803 0.44104 0.0
H1567 H 0.50831 0.91478 0.41465 0.0
H1568 H 0.50588 0.9411 0.44745 0.0
H1569 H 0.70295 0.54194 0.30425 0.0
H1570 H 0.67394 0.53582 0.33617 0.0
H1571 H 0.69846 0.59572 0.3701 0.0
H1572 H 0.72726 0.60201 0.33664 0.0
H1573 H 0.66845 0.54211 0.41656 0.0
H1574 H 0.64878 0.58389 0.31316 0.0
H1575 H 0.66679 0.57828 0.30069 0.0
H1576 H 0.67197 0.59752 0.33865 0.0
C1577 C 0.70202 0.55385 0.31771 0.0
C1578 C 0.71714 0.57256 0.3167 0.0
C1579 C 0.68549 0.55032 0.33621 0.0
C1580 C 0.68386 0.56536 0.35462 0.0
C1581 C 0.69916 0.58397 0.35485 0.0
H1582 H 0.59633 0.5616 0.50967 0.0
H1583 H 0.62642 0.57117 0.4783 0.0
C1584 C 0.71561 0.58754 0.33592 0.0
C1585 C 0.66639 0.56141 0.37485 0.0
H1586 H 0.63078 0.5717 0.37296 0.0
C1587 C 0.66023 0.54858 0.40698 0.0
C1588 C 0.65564 0.56985 0.36224 0.0
C1589 C 0.661 0.58301 0.32653 0.0
C1590 C 0.64362 0.54397 0.4268 0.0
C1591 C 0.63301 0.55246 0.4143 0.0
C1592 C 0.63916 0.5654 0.38257 0.0
C1593 C 0.61488 0.54716 0.43238 0.0
C1594 C 0.63733 0.52992 0.46075 0.0
C1595 C 0.59856 0.53064 0.41647 0.0
C1596 C 0.58139 0.52515 0.43408 0.0
C1597 C 0.58026 0.5361 0.46809 0.0
C1598 C 0.5967 0.55283 0.48362 0.0
C1599 C 0.61388 0.55834 0.46577 0.0
H1600 H 0.64802 0.52584 0.46951 0.0
H1601 H 0.6344 0.536 0.48945 0.0
H1602 H 0.62403 0.51689 0.44938 0.0
H1603 H 0.59915 0.52189 0.39062 0.0
H1604 H 0.56907 0.51219 0.42128 0.0
H1605 H 0.12659 0.6657 0.26082 0.0
H1606 H 0.11811 0.64629 0.32217 0.0
H1607 H 0.12098 0.69268 0.39884 0.0
H1608 H 0.12911 0.71206 0.33726 0.0
H1609 H 0.13588 0.65163 0.40444 0.0
H1610 H 0.06692 0.64918 0.40831 0.0
H1611 H 0.08152 0.65761 0.36406 0.0
H1612 H 0.08752 0.67243 0.41203 0.0
C1613 C 0.1257 0.67185 0.29093 0.0
C1614 C 0.12871 0.69045 0.29437 0.0
C1615 C 0.12088 0.66077 0.32593 0.0
C1616 C 0.11879 0.66801 0.36494 0.0
C1617 C 0.12234 0.68677 0.3689 0.0
H1618 H 0.05783 0.59529 0.56604 0.0
H1619 H 0.08052 0.62454 0.5351 0.0
C1620 C 0.12711 0.69786 0.33382 0.0
C1621 C 0.11167 0.65534 0.40035 0.0
H1622 H 0.07269 0.63122 0.45618 0.0
C1623 C 0.12217 0.64733 0.41622 0.0
C1624 C 0.09383 0.64984 0.41581 0.0
C1625 C 0.08167 0.65756 0.39909 0.0
C1626 C 0.11501 0.63349 0.44617 0.0
C1627 C 0.09678 0.6273 0.45999 0.0
C1628 C 0.08671 0.63602 0.4457 0.0
C1629 C 0.08674 0.61025 0.48467 0.0
C1630 C 0.12693 0.62542 0.46216 0.0
C1631 C 0.08324 0.59254 0.46762 0.0
C1632 C 0.07032 0.5758 0.48521 0.0
C1633 C 0.06041 0.57642 0.51992 0.0
C1634 C 0.06505 0.59426 0.53905 0.0
C1635 C 0.07804 0.61102 0.52142 0.0
H1636 H 0.14218 0.63594 0.4614 0.0
H1637 H 0.12386 0.62095 0.49496 0.0
H1638 H 0.12393 0.61282 0.44136 0.0
H1639 H 0.08948 0.59152 0.43885 0.0
H1640 H 0.06718 0.56235 0.46974 0.0
loop_
_geom_bond_atom_site_label_1
_geom_bond_atom_site_label_2
_geom_bond_distance
_geom_bond_site_symmetry_2
_ccdc_geom_bond_type
C0 C1 1.560 . S
C0 H61 0.959 . S
C0 H62 0.959 . S
C0 H63 0.960 . S
C1 C0 1.560 . S
C1 O56 1.426 . S
C1 H60 0.980 . S
C2 C3 1.407 . S
C2 C7 1.418 . S
C2 O56 1.334 . S
C3 C2 1.407 . S
C3 C4 1.360 . S
C3 H64 0.929 . S
C4 C3 1.360 . S
C4 C5 1.401 . S
C4 C8 1.527 . S
C5 C4 1.401 . S
C5 C6 1.405 . S
C5 C38 1.587 . S
C6 C5 1.405 . S
C6 C7 1.332 . S
C6 C9 1.496 . S
C7 C2 1.418 . S
C7 C6 1.332 . S
C7 H65 0.929 . S
C8 C4 1.527 . S
C8 H66 0.959 . S
C8 H67 0.961 . S
C8 H68 0.961 . S
C9 C6 1.496 . S
C9 H69 0.960 . S
C9 H70 0.960 . S
C9 H71 0.961 . S
C10 C11 1.517 . S
C10 H73 0.961 . S
C10 H74 0.960 . S
C10 H75 0.959 . S
C11 C10 1.517 . S
C11 O59 1.468 . S
C11 H72 0.980 . S
C12 C13 1.349 . S
C12 C17 1.367 . S
C12 O59 1.408 . S
C13 C12 1.349 . S
C13 C14 1.407 . S
C13 H76 0.930 . S
C14 C13 1.407 . S
C14 C15 1.449 . S
C14 C18 1.535 . S
C15 C14 1.449 . S
C15 C16 1.384 . S
C15 C40 1.553 . S
C16 C15 1.384 . S
C16 C17 1.364 . S
C16 C19 1.450 . S
C17 C12 1.367 . S
C17 C16 1.364 . S
C17 H77 0.931 . S
C18 C14 1.535 . S
C18 H78 0.959 . S
C18 H79 0.961 . S
C18 H80 0.959 . S
C19 C16 1.450 . S
C19 H81 0.960 . S
C19 H82 0.960 . S
C19 H83 0.960 . S
C20 C21 1.309 . S
C20 C25 1.304 . S
C20 O58 1.435 1_554 S
C21 C20 1.309 . S
C21 C22 1.476 . S
C21 H85 0.930 . S
C22 C21 1.476 . S
C22 C23 1.400 . S
C22 C26 1.567 . S
C23 C22 1.400 . S
C23 C24 1.373 . S
C23 C45 1.432 . S
C24 C23 1.373 . S
C24 C25 1.339 . S
C24 C27 1.530 . S
C25 C20 1.304 . S
C25 C24 1.339 . S
C25 H86 0.930 . S
C26 C22 1.567 . S
C26 H87 0.961 . S
C26 H88 0.960 . S
C26 H89 0.958 . S
C27 C24 1.530 . S
C27 H90 0.961 . S
C27 H91 0.960 . S
C27 H92 0.960 . S
C28 C29 1.530 . S
C28 H94 0.961 . S
C28 H95 0.961 1_556 S
C28 H96 0.959 . S
C29 C28 1.530 . S
C29 O57 1.412 . S
C29 H93 0.980 1_556 S
C30 C31 1.288 . S
C30 C35 1.377 . S
C30 O57 1.393 1_554 S
C31 C30 1.288 . S
C31 C32 1.369 . S
C31 H97 0.932 . S
C32 C31 1.369 . S
C32 C33 1.398 . S
C32 C36 1.527 . S
C33 C32 1.398 . S
C33 C34 1.380 . S
C33 C47 1.497 . S
C34 C33 1.380 . S
C34 C35 1.383 . S
C34 C37 1.603 . S
C35 C30 1.377 . S
C35 C34 1.383 . S
C35 H98 0.929 . S
C36 C32 1.527 . S
C36 H99 0.961 . S
C36 H100 0.959 . S
C36 H101 0.959 . S
C37 C34 1.603 . S
C37 H102 0.960 . S
C37 H103 0.962 . S
C37 H104 0.961 . S
C38 C5 1.587 . S
C38 C39 1.360 . S
C38 C51 1.412 . S
C39 C38 1.360 . S
C39 C40 1.365 . S
C39 H105 0.929 . S
C40 C15 1.553 . S
C40 C39 1.365 . S
C40 C41 1.404 . S
C41 C40 1.404 . S
C41 C42 1.395 . S
C41 C52 1.451 . S
C42 C41 1.395 . S
C42 C43 1.322 . S
C42 H106 0.930 . S
C43 C42 1.322 . S
C43 C44 1.459 . S
C43 H107 0.929 . S
C44 C43 1.459 . S
C44 C45 1.445 . S
C44 C53 1.395 . S
C45 C23 1.432 . S
C45 C44 1.445 . S
C45 C46 1.370 . S
C46 C45 1.370 . S
C46 C47 1.438 . S
C46 H108 0.930 . S
C47 C33 1.497 . S
C47 C46 1.438 . S
C47 C48 1.360 . S
C48 C47 1.360 . S
C48 C49 1.401 . S
C48 C53 1.446 . S
C49 C48 1.401 . S
C49 C50 1.347 . S
C49 H109 0.929 . S
C50 C49 1.347 . S
C50 C51 1.455 . S
C50 H110 0.930 . S
C51 C38 1.412 . S
C51 C50 1.455 . S
C51 C52 1.331 . S
C52 C41 1.451 . S
C52 C51 1.331 . S
C52 C53 1.497 . S
C53 C44 1.395 . S
C53 C48 1.446 . S
C53 C52 1.497 . S
C54 C55 1.582 . S
C54 H111 0.962 . S
C54 H112 0.959 . S
C54 H113 0.958 . S
C55 C54 1.582 . S
C55 O58 1.458 . S
C55 H84 0.980 1_556 S
O56 C1 1.426 . S
O56 C2 1.334 . S
O57 C29 1.412 . S
O57 C30 1.393 1_556 S
O58 C20 1.435 1_556 S
O58 C55 1.458 . S
O59 C11 1.468 . S
O59 C12 1.408 . S
H60 C1 0.980 . S
H61 C0 0.959 . S
H62 C0 0.959 . S
H63 C0 0.960 . S
H64 C3 0.929 . S
H65 C7 0.929 . S
H66 C8 0.959 . S
H67 C8 0.961 . S
H68 C8 0.961 . S
H69 C9 0.960 . S
H70 C9 0.960 . S
H71 C9 0.961 . S
H72 C11 0.980 . S
H73 C10 0.961 . S
H74 C10 0.960 . S
H75 C10 0.959 . S
H76 C13 0.930 . S
H77 C17 0.931 . S
H78 C18 0.959 . S
H79 C18 0.961 . S
H80 C18 0.959 . S
H81 C19 0.960 . S
H82 C19 0.960 . S
H83 C19 0.960 . S
H84 C55 0.980 1_554 S
H85 C21 0.930 . S
H86 C25 0.930 . S
H87 C26 0.961 . S
H88 C26 0.960 . S
H89 C26 0.958 . S
H90 C27 0.961 . S
H91 C27 0.960 . S
H92 C27 0.960 . S
H93 C29 0.980 1_554 S
H94 C28 0.961 . S
H95 C28 0.961 1_554 S
H96 C28 0.959 . S
H97 C31 0.932 . S
H98 C35 0.929 . S
H99 C36 0.961 . S
H100 C36 0.959 . S
H101 C36 0.959 . S
H102 C37 0.960 . S
H103 C37 0.962 . S
H104 C37 0.961 . S
H105 C39 0.929 . S
H106 C42 0.930 . S
H107 C43 0.929 . S
H108 C46 0.930 . S
H109 C49 0.929 . S
H110 C50 0.930 . S
H111 C54 0.962 . S
H112 C54 0.959 . S
H113 C54 0.958 . S
C114 C115 1.560 . S
C114 H175 0.959 . S
C114 H176 0.959 . S
C114 H177 0.960 . S
C115 C114 1.560 . S
C115 O170 1.426 . S
C115 H174 0.980 . S
C116 C117 1.407 . S
C116 C121 1.418 . S
C116 O170 1.334 . S
C117 C116 1.407 . S
C117 C118 1.360 . S
C117 H178 0.929 . S
C118 C117 1.360 . S
C118 C119 1.401 . S
C118 C122 1.527 . S
C119 C118 1.401 . S
C119 C120 1.405 . S
C119 C152 1.587 . S
C120 C119 1.405 . S
C120 C121 1.332 . S
C120 C123 1.496 . S
C121 C116 1.418 . S
C121 C120 1.332 . S
C121 H179 0.929 . S
C122 C118 1.527 . S
C122 H180 0.959 . S
C122 H181 0.961 . S
C122 H182 0.961 . S
C123 C120 1.496 . S
C123 H183 0.960 . S
C123 H184 0.960 . S
C123 H185 0.961 . S
C124 C125 1.517 . S
C124 H187 0.961 . S
C124 H188 0.960 . S
C124 H189 0.959 . S
C125 C124 1.517 . S
C125 O173 1.468 . S
C125 H186 0.980 . S
C126 C127 1.349 . S
C126 C131 1.367 . S
C126 O173 1.408 . S
C127 C126 1.349 . S
C127 C128 1.407 . S
C127 H190 0.930 . S
C128 C127 1.407 . S
C128 C129 1.449 . S
C128 C132 1.535 . S
C129 C128 1.449 . S
C129 C130 1.384 . S
C129 C154 1.553 . S
C130 C129 1.384 . S
C130 C131 1.364 . S
C130 C133 1.450 . S
C131 C126 1.367 . S
C131 C130 1.364 . S
C131 H191 0.931 . S
C132 C128 1.535 . S
C132 H192 0.959 . S
C132 H193 0.961 . S
C132 H194 0.959 . S
C133 C130 1.450 . S
C133 H195 0.960 . S
C133 H196 0.960 . S
C133 H197 0.960 . S
C134 C135 1.309 . S
C134 C139 1.304 . S
C134 O172 1.435 . S
C135 C134 1.309 . S
C135 C136 1.476 . S
C135 H199 0.930 . S
C136 C135 1.476 . S
C136 C137 1.400 . S
C136 C140 1.567 1_556 S
C137 C136 1.400 . S
C137 C138 1.373 . S
C137 C159 1.432 1_556 S
C138 C137 1.373 . S
C138 C139 1.339 . S
C138 C141 1.530 . S
C139 C134 1.304 . S
C139 C138 1.339 . S
C139 H200 0.930 . S
C140 C136 1.567 1_554 S
C140 H201 0.960 . S
C140 H202 0.960 . S
C140 H203 0.959 1_554 S
C141 C138 1.530 . S
C141 H204 0.961 . S
C141 H205 0.960 1_556 S
C141 H206 0.960 . S
C142 C143 1.530 . S
C142 H208 0.961 . S
C142 H209 0.961 . S
C142 H210 0.959 . S
C143 C142 1.530 . S
C143 O171 1.412 . S
C143 H207 0.980 . S
C144 C145 1.288 . S
C144 C149 1.377 . S
C144 O171 1.393 . S
C145 C144 1.288 . S
C145 C146 1.369 . S
C145 H211 0.932 . S
C146 C145 1.369 . S
C146 C147 1.398 . S
C146 C150 1.527 . S
C147 C146 1.398 . S
C147 C148 1.380 . S
C147 C161 1.497 1_556 S
C148 C147 1.380 . S
C148 C149 1.383 . S
C148 C151 1.603 . S
C149 C144 1.377 . S
C149 C148 1.383 . S
C149 H212 0.929 . S
C150 C146 1.527 . S
C150 H213 0.961 1_556 S
C150 H214 0.959 . S
C150 H215 0.959 . S
C151 C148 1.603 . S
C151 H216 0.960 . S
C151 H217 0.962 . S
C151 H218 0.961 1_556 S
C152 C119 1.587 . S
C152 C153 1.360 . S
C152 C165 1.412 . S
C153 C152 1.360 . S
C153 C154 1.365 . S
C153 H219 0.929 . S
C154 C129 1.553 . S
C154 C153 1.365 . S
C154 C155 1.404 . S
C155 C154 1.404 . S
C155 C156 1.395 . S
C155 C166 1.451 . S
C156 C155 1.395 . S
C156 C157 1.322 . S
C156 H220 0.930 . S
C157 C156 1.322 . S
C157 C158 1.459 . S
C157 H221 0.929 . S
C158 C157 1.459 . S
C158 C159 1.445 . S
C158 C167 1.395 . S
C159 C137 1.432 1_554 S
C159 C158 1.445 . S
C159 C160 1.370 1_554 S
C160 C159 1.370 1_556 S
C160 C161 1.438 1_556 S
C160 H222 0.930 . S
C161 C147 1.497 1_554 S
C161 C160 1.438 1_554 S
C161 C162 1.360 . S
C162 C161 1.360 . S
C162 C163 1.401 . S
C162 C167 1.446 . S
C163 C162 1.401 . S
C163 C164 1.347 . S
C163 H223 0.929 . S
C164 C163 1.347 . S
C164 C165 1.455 . S
C164 H224 0.930 . S
C165 C152 1.412 . S
C165 C164 1.455 . S
C165 C166 1.331 . S
C166 C155 1.451 . S
C166 C165 1.331 . S
C166 C167 1.497 . S
C167 C158 1.395 . S
C167 C162 1.446 . S
C167 C166 1.497 . S
C168 C169 1.582 . S
C168 H225 0.962 . S
C168 H226 0.959 . S
C168 H227 0.958 . S
C169 C168 1.582 . S
C169 O172 1.458 . S
C169 H198 0.980 . S
O170 C115 1.426 . S
O170 C116 1.334 . S
O171 C143 1.412 . S
O171 C144 1.393 . S
O172 C134 1.435 . S
O172 C169 1.458 . S
O173 C125 1.468 . S
O173 C126 1.408 . S
H174 C115 0.980 . S
H175 C114 0.959 . S
H176 C114 0.959 . S
H177 C114 0.960 . S
H178 C117 0.929 . S
H179 C121 0.929 . S
H180 C122 0.959 . S
H181 C122 0.961 . S
H182 C122 0.961 . S
H183 C123 0.960 . S
H184 C123 0.960 . S
H185 C123 0.961 . S
H186 C125 0.980 . S
H187 C124 0.961 . S
H188 C124 0.960 . S
H189 C124 0.959 . S
H190 C127 0.930 . S
H191 C131 0.931 . S
H192 C132 0.959 . S
H193 C132 0.961 . S
H194 C132 0.959 . S
H195 C133 0.960 . S
H196 C133 0.960 . S
H197 C133 0.960 . S
H198 C169 0.980 . S
H199 C135 0.930 . S
H200 C139 0.930 . S
H201 C140 0.960 . S
H202 C140 0.960 . S
H203 C140 0.959 1_556 S
H204 C141 0.961 . S
H205 C141 0.960 1_554 S
H206 C141 0.960 . S
H207 C143 0.980 . S
H208 C142 0.961 . S
H209 C142 0.961 . S
H210 C142 0.959 . S
H211 C145 0.932 . S
H212 C149 0.929 . S
H213 C150 0.961 1_554 S
H214 C150 0.959 . S
H215 C150 0.959 . S
H216 C151 0.960 . S
H217 C151 0.962 . S
H218 C151 0.961 1_554 S
H219 C153 0.929 . S
H220 C156 0.930 . S
H221 C157 0.929 . S
H222 C160 0.930 . S
H223 C163 0.929 . S
H224 C164 0.930 . S
H225 C168 0.962 . S
H226 C168 0.959 . S
H227 C168 0.958 . S
C228 C229 1.560 . S
C228 H289 0.959 . S
C228 H290 0.959 . S
C228 H291 0.960 . S
C229 C228 1.560 . S
C229 O284 1.426 . S
C229 H288 0.980 . S
C230 C231 1.407 . S
C230 C235 1.418 . S
C230 O284 1.334 . S
C231 C230 1.407 . S
C231 C232 1.360 . S
C231 H292 0.929 . S
C232 C231 1.360 . S
C232 C233 1.401 . S
C232 C236 1.527 . S
C233 C232 1.401 . S
C233 C234 1.405 . S
C233 C266 1.587 . S
C234 C233 1.405 . S
C234 C235 1.332 . S
C234 C237 1.496 . S
C235 C230 1.418 . S
C235 C234 1.332 . S
C235 H293 0.929 . S
C236 C232 1.527 . S
C236 H294 0.959 . S
C236 H295 0.961 . S
C236 H296 0.961 . S
C237 C234 1.496 . S
C237 H297 0.960 . S
C237 H298 0.960 . S
C237 H299 0.961 . S
C238 C239 1.517 . S
C238 H301 0.961 . S
C238 H302 0.960 . S
C238 H303 0.959 . S
C239 C238 1.517 . S
C239 O287 1.468 . S
C239 H300 0.980 . S
C240 C241 1.349 . S
C240 C245 1.367 . S
C240 O287 1.408 . S
C241 C240 1.349 . S
C241 C242 1.407 . S
C241 H304 0.930 . S
C242 C241 1.407 . S
C242 C243 1.449 . S
C242 C246 1.535 . S
C243 C242 1.449 . S
C243 C244 1.384 . S
C243 C268 1.553 . S
C244 C243 1.384 . S
C244 C245 1.364 . S
C244 C247 1.450 . S
C245 C240 1.367 . S
C245 C244 1.364 . S
C245 H305 0.931 . S
C246 C242 1.535 . S
C246 H306 0.959 . S
C246 H307 0.961 . S
C246 H308 0.959 . S
C247 C244 1.450 . S
C247 H309 0.960 . S
C247 H310 0.960 . S
C247 H311 0.960 . S
C248 C249 1.309 . S
C248 C253 1.304 . S
C248 O286 1.435 . S
C249 C248 1.309 . S
C249 C250 1.476 . S
C249 H313 0.930 . S
C250 C249 1.476 . S
C250 C251 1.400 . S
C250 C254 1.567 . S
C251 C250 1.400 . S
C251 C252 1.373 . S
C251 C273 1.432 . S
C252 C251 1.373 . S
C252 C253 1.339 . S
C252 C255 1.530 . S
C253 C248 1.304 . S
C253 C252 1.339 . S
C253 H314 0.930 . S
C254 C250 1.567 . S
C254 H315 0.961 . S
C254 H316 0.960 . S
C254 H317 0.958 . S
C255 C252 1.530 . S
C255 H318 0.961 . S
C255 H319 0.960 . S
C255 H320 0.960 . S
C256 C257 1.530 . S
C256 H322 0.961 . S
C256 H323 0.961 . S
C256 H324 0.959 . S
C257 C256 1.530 . S
C257 O285 1.412 . S
C257 H321 0.980 . S
C258 C259 1.288 . S
C258 C263 1.377 . S
C258 O285 1.393 . S
C259 C258 1.288 . S
C259 C260 1.369 . S
C259 H325 0.932 . S
C260 C259 1.369 . S
C260 C261 1.398 . S
C260 C264 1.527 . S
C261 C260 1.398 . S
C261 C262 1.380 . S
C261 C275 1.497 . S
C262 C261 1.380 . S
C262 C263 1.383 . S
C262 C265 1.603 . S
C263 C258 1.377 . S
C263 C262 1.383 . S
C263 H326 0.929 . S
C264 C260 1.527 . S
C264 H327 0.961 . S
C264 H328 0.959 . S
C264 H329 0.959 . S
C265 C262 1.603 . S
C265 H330 0.960 . S
C265 H331 0.962 . S
C265 H332 0.961 . S
C266 C233 1.587 . S
C266 C267 1.360 . S
C266 C279 1.412 . S
C267 C266 1.360 . S
C267 C268 1.365 . S
C267 H333 0.929 . S
C268 C243 1.553 . S
C268 C267 1.365 . S
C268 C269 1.404 . S
C269 C268 1.404 . S
C269 C270 1.395 . S
C269 C280 1.451 . S
C270 C269 1.395 . S
C270 C271 1.322 . S
C270 H334 0.930 . S
C271 C270 1.322 . S
C271 C272 1.459 . S
C271 H335 0.929 . S
C272 C271 1.459 . S
C272 C273 1.445 1_554 S
C272 C281 1.395 . S
C273 C251 1.432 . S
C273 C272 1.445 1_556 S
C273 C274 1.370 . S
C274 C273 1.370 . S
C274 C275 1.438 . S
C274 H336 0.930 . S
C275 C261 1.497 . S
C275 C274 1.438 . S
C275 C276 1.360 1_556 S
C276 C275 1.360 1_554 S
C276 C277 1.401 . S
C276 C281 1.446 . S
C277 C276 1.401 . S
C277 C278 1.347 . S
C277 H337 0.929 . S
C278 C277 1.347 . S
C278 C279 1.455 . S
C278 H338 0.930 . S
C279 C266 1.412 . S
C279 C278 1.455 . S
C279 C280 1.331 . S
C280 C269 1.451 . S
C280 C279 1.331 . S
C280 C281 1.497 . S
C281 C272 1.395 . S
C281 C276 1.446 . S
C281 C280 1.497 . S
C282 C283 1.582 . S
C282 H339 0.962 . S
C282 H340 0.959 . S
C282 H341 0.958 . S
C283 C282 1.582 . S
C283 O286 1.458 . S
C283 H312 0.980 . S
O284 C229 1.426 . S
O284 C230 1.334 . S
O285 C257 1.412 . S
O285 C258 1.393 . S
O286 C248 1.435 . S
O286 C283 1.458 . S
O287 C239 1.468 . S
O287 C240 1.408 . S
H288 C229 0.980 . S
H289 C228 0.959 . S
H290 C228 0.959 . S
H291 C228 0.960 . S
H292 C231 0.929 . S
H293 C235 0.929 . S
H294 C236 0.959 . S
H295 C236 0.961 . S
H296 C236 0.961 . S
H297 C237 0.960 . S
H298 C237 0.960 . S
H299 C237 0.961 . S
H300 C239 0.980 . S
H301 C238 0.961 . S
H302 C238 0.960 . S
H303 C238 0.959 . S
H304 C241 0.930 . S
H305 C245 0.931 . S
H306 C246 0.959 . S
H307 C246 0.961 . S
H308 C246 0.959 . S
H309 C247 0.960 . S
H310 C247 0.960 . S
H311 C247 0.960 . S
H312 C283 0.980 . S
H313 C249 0.930 . S
H314 C253 0.930 . S
H315 C254 0.961 . S
H316 C254 0.960 . S
H317 C254 0.958 . S
H318 C255 0.961 . S
H319 C255 0.960 . S
H320 C255 0.960 . S
H321 C257 0.980 . S
H322 C256 0.961 . S
H323 C256 0.961 . S
H324 C256 0.959 . S
H325 C259 0.932 . S
H326 C263 0.929 . S
H327 C264 0.961 . S
H328 C264 0.959 . S
H329 C264 0.959 . S
H330 C265 0.960 . S
H331 C265 0.962 . S
H332 C265 0.961 . S
H333 C267 0.929 . S
H334 C270 0.930 . S
H335 C271 0.929 . S
H336 C274 0.930 . S
H337 C277 0.929 . S
H338 C278 0.930 . S
H339 C282 0.962 . S
H340 C282 0.959 . S
H341 C282 0.958 . S
C342 C343 1.560 . S
C342 H403 0.959 . S
C342 H404 0.959 . S
C342 H405 0.960 . S
C343 C342 1.560 . S
C343 O398 1.426 . S
C343 H402 0.980 . S
C344 C345 1.407 . S
C344 C349 1.418 . S
C344 O398 1.334 . S
C345 C344 1.407 . S
C345 C346 1.360 . S
C345 H406 0.929 . S
C346 C345 1.360 . S
C346 C347 1.401 . S
C346 C350 1.527 . S
C347 C346 1.401 . S
C347 C348 1.405 . S
C347 C380 1.587 . S
C348 C347 1.405 . S
C348 C349 1.332 . S
C348 C351 1.496 . S
C349 C344 1.418 . S
C349 C348 1.332 . S
C349 H407 0.929 . S
C350 C346 1.527 . S
C350 H408 0.959 . S
C350 H409 0.961 . S
C350 H410 0.961 . S
C351 C348 1.496 . S
C351 H411 0.960 . S
C351 H412 0.960 . S
C351 H413 0.961 . S
C352 C353 1.517 . S
C352 H415 0.961 . S
C352 H416 0.960 . S
C352 H417 0.959 . S
C353 C352 1.517 . S
C353 O401 1.468 . S
C353 H414 0.980 . S
C354 C355 1.349 . S
C354 C359 1.367 . S
C354 O401 1.408 . S
C355 C354 1.349 . S
C355 C356 1.407 . S
C355 H418 0.930 . S
C356 C355 1.407 . S
C356 C357 1.449 . S
C356 C360 1.535 . S
C357 C356 1.449 . S
C357 C358 1.384 . S
C357 C382 1.553 . S
C358 C357 1.384 . S
C358 C359 1.364 . S
C358 C361 1.450 . S
C359 C354 1.367 . S
C359 C358 1.364 . S
C359 H419 0.931 . S
C360 C356 1.535 . S
C360 H420 0.959 . S
C360 H421 0.961 . S
C360 H422 0.959 . S
C361 C358 1.450 . S
C361 H423 0.960 . S
C361 H424 0.960 . S
C361 H425 0.960 . S
C362 C363 1.309 . S
C362 C367 1.304 . S
C362 O400 1.435 . S
C363 C362 1.309 . S
C363 C364 1.476 . S
C363 H427 0.930 . S
C364 C363 1.476 . S
C364 C365 1.400 . S
C364 C368 1.567 . S
C365 C364 1.400 . S
C365 C366 1.373 . S
C365 C387 1.432 . S
C366 C365 1.373 . S
C366 C367 1.339 . S
C366 C369 1.530 . S
C367 C362 1.304 . S
C367 C366 1.339 . S
C367 H428 0.930 . S
C368 C364 1.567 . S
C368 H429 0.961 . S
C368 H430 0.960 . S
C368 H431 0.958 . S
C369 C366 1.530 . S
C369 H432 0.961 . S
C369 H433 0.960 . S
C369 H434 0.960 . S
C370 C371 1.530 . S
C370 H436 0.961 . S
C370 H437 0.961 . S
C370 H438 0.959 . S
C371 C370 1.530 . S
C371 O399 1.412 . S
C371 H435 0.980 . S
C372 C373 1.288 . S
C372 C377 1.377 . S
C372 O399 1.393 . S
C373 C372 1.288 . S
C373 C374 1.369 . S
C373 H439 0.932 . S
C374 C373 1.369 . S
C374 C375 1.398 . S
C374 C378 1.527 . S
C375 C374 1.398 . S
C375 C376 1.380 . S
C375 C389 1.497 . S
C376 C375 1.380 . S
C376 C377 1.383 . S
C376 C379 1.603 . S
C377 C372 1.377 . S
C377 C376 1.383 . S
C377 H440 0.929 . S
C378 C374 1.527 . S
C378 H441 0.961 . S
C378 H442 0.959 . S
C378 H443 0.959 . S
C379 C376 1.603 . S
C379 H444 0.960 . S
C379 H445 0.962 . S
C379 H446 0.961 . S
C380 C347 1.587 . S
C380 C381 1.360 . S
C380 C393 1.412 . S
C381 C380 1.360 . S
C381 C382 1.365 . S
C381 H447 0.929 . S
C382 C357 1.553 . S
C382 C381 1.365 . S
C382 C383 1.404 . S
C383 C382 1.404 . S
C383 C384 1.395 . S
C383 C394 1.451 . S
C384 C383 1.395 . S
C384 C385 1.322 . S
C384 H448 0.930 . S
C385 C384 1.322 . S
C385 C386 1.459 1_554 S
C385 H449 0.929 . S
C386 C385 1.459 1_556 S
C386 C387 1.445 . S
C386 C395 1.395 1_556 S
C387 C365 1.432 . S
C387 C386 1.445 . S
C387 C388 1.370 . S
C388 C387 1.370 . S
C388 C389 1.438 . S
C388 H450 0.930 . S
C389 C375 1.497 . S
C389 C388 1.438 . S
C389 C390 1.360 . S
C390 C389 1.360 . S
C390 C391 1.401 1_556 S
C390 C395 1.446 1_556 S
C391 C390 1.401 1_554 S
C391 C392 1.347 . S
C391 H451 0.929 . S
C392 C391 1.347 . S
C392 C393 1.455 . S
C392 H452 0.930 . S
C393 C380 1.412 . S
C393 C392 1.455 . S
C393 C394 1.331 . S
C394 C383 1.451 . S
C394 C393 1.331 . S
C394 C395 1.497 . S
C395 C386 1.395 1_554 S
C395 C390 1.446 1_554 S
C395 C394 1.497 . S
C396 C397 1.582 . S
C396 H453 0.962 . S
C396 H454 0.959 . S
C396 H455 0.958 . S
C397 C396 1.582 . S
C397 O400 1.458 . S
C397 H426 0.980 . S
O398 C343 1.426 . S
O398 C344 1.334 . S
O399 C371 1.412 . S
O399 C372 1.393 . S
O400 C362 1.435 . S
O400 C397 1.458 . S
O401 C353 1.468 . S
O401 C354 1.408 . S
H402 C343 0.980 . S
H403 C342 0.959 . S
H404 C342 0.959 . S
H405 C342 0.960 . S
H406 C345 0.929 . S
H407 C349 0.929 . S
H408 C350 0.959 . S
H409 C350 0.961 . S
H410 C350 0.961 . S
H411 C351 0.960 . S
H412 C351 0.960 . S
H413 C351 0.961 . S
H414 C353 0.980 . S
H415 C352 0.961 . S
H416 C352 0.960 . S
H417 C352 0.959 . S
H418 C355 0.930 . S
H419 C359 0.931 . S
H420 C360 0.959 . S
H421 C360 0.961 . S
H422 C360 0.959 . S
H423 C361 0.960 . S
H424 C361 0.960 . S
H425 C361 0.960 . S
H426 C397 0.980 . S
H427 C363 0.930 . S
H428 C367 0.930 . S
H429 C368 0.961 . S
H430 C368 0.960 . S
H431 C368 0.958 . S
H432 C369 0.961 . S
H433 C369 0.960 . S
H434 C369 0.960 . S
H435 C371 0.980 . S
H436 C370 0.961 . S
H437 C370 0.961 . S
H438 C370 0.959 . S
H439 C373 0.932 . S
H440 C377 0.929 . S
H441 C378 0.961 . S
H442 C378 0.959 . S
H443 C378 0.959 . S
H444 C379 0.960 . S
H445 C379 0.962 . S
H446 C379 0.961 . S
H447 C381 0.929 . S
H448 C384 0.930 . S
H449 C385 0.929 . S
H450 C388 0.930 . S
H451 C391 0.929 . S
H452 C392 0.930 . S
H453 C396 0.962 . S
H454 C396 0.959 . S
H455 C396 0.958 . S
C456 C457 1.560 . S
C456 H517 0.959 . S
C456 H518 0.959 . S
C456 H519 0.960 . S
C457 C456 1.560 . S
C457 O512 1.426 . S
C457 H516 0.980 . S
C458 C459 1.407 . S
C458 C463 1.418 . S
C458 O512 1.334 . S
C459 C458 1.407 . S
C459 C460 1.360 . S
C459 H520 0.929 . S
C460 C459 1.360 . S
C460 C461 1.401 . S
C460 C464 1.527 . S
C461 C460 1.401 . S
C461 C462 1.405 . S
C461 C494 1.587 1_556 S
C462 C461 1.405 . S
C462 C463 1.332 . S
C462 C465 1.497 . S
C463 C458 1.418 . S
C463 C462 1.332 . S
C463 H521 0.929 . S
C464 C460 1.527 . S
C464 H522 0.959 . S
C464 H523 0.961 . S
C464 H524 0.948 1_556 S
C465 C462 1.497 . S
C465 H525 0.961 . S
C465 H526 0.961 . S
C465 H527 0.958 1_556 S
C466 C467 1.517 . S
C466 H529 0.961 . S
C466 H530 0.960 . S
C466 H531 0.959 . S
C467 C466 1.517 . S
C467 O515 1.468 . S
C467 H528 0.980 . S
C468 C469 1.349 . S
C468 C473 1.367 . S
C468 O515 1.408 . S
C469 C468 1.349 . S
C469 C470 1.407 . S
C469 H532 0.930 . S
C470 C469 1.407 . S
C470 C471 1.449 . S
C470 C474 1.535 . S
C471 C470 1.449 . S
C471 C472 1.384 . S
C471 C496 1.553 1_556 S
C472 C471 1.384 . S
C472 C473 1.364 . S
C472 C475 1.450 . S
C473 C468 1.367 . S
C473 C472 1.364 . S
C473 H533 0.931 . S
C474 C470 1.535 . S
C474 H534 0.959 . S
C474 H535 0.961 . S
C474 H536 0.959 . S
C475 C472 1.450 . S
C475 H537 0.960 . S
C475 H538 0.960 . S
C475 H539 0.960 1_556 S
C476 C477 1.309 . S
C476 C481 1.304 . S
C476 O514 1.435 . S
C477 C476 1.309 . S
C477 C478 1.476 . S
C477 H541 0.930 . S
C478 C477 1.476 . S
C478 C479 1.400 . S
C478 C482 1.567 . S
C479 C478 1.400 . S
C479 C480 1.373 . S
C479 C501 1.432 . S
C480 C479 1.373 . S
C480 C481 1.339 . S
C480 C483 1.530 . S
C481 C476 1.304 . S
C481 C480 1.339 . S
C481 H542 0.930 . S
C482 C478 1.567 . S
C482 H543 0.961 . S
C482 H544 0.960 . S
C482 H545 0.958 . S
C483 C480 1.530 . S
C483 H546 0.961 . S
C483 H547 0.960 . S
C483 H548 0.960 . S
C484 C485 1.530 . S
C484 H550 0.961 . S
C484 H551 0.961 . S
C484 H552 0.959 . S
C485 C484 1.530 . S
C485 O513 1.412 . S
C485 H549 0.980 . S
C486 C487 1.288 . S
C486 C491 1.377 . S
C486 O513 1.393 . S
C487 C486 1.288 . S
C487 C488 1.369 . S
C487 H553 0.932 . S
C488 C487 1.369 . S
C488 C489 1.398 . S
C488 C492 1.527 . S
C489 C488 1.398 . S
C489 C490 1.380 . S
C489 C503 1.497 . S
C490 C489 1.380 . S
C490 C491 1.383 . S
C490 C493 1.603 . S
C491 C486 1.377 . S
C491 C490 1.383 . S
C491 H554 0.929 . S
C492 C488 1.527 . S
C492 H555 0.961 . S
C492 H556 0.959 . S
C492 H557 0.959 . S
C493 C490 1.603 . S
C493 H558 0.960 . S
C493 H559 0.962 . S
C493 H560 0.961 . S
C494 C461 1.587 1_554 S
C494 C495 1.360 1_554 S
C494 C507 1.412 . S
C495 C494 1.360 1_556 S
C495 C496 1.365 1_556 S
C495 H561 0.929 . S
C496 C471 1.553 1_554 S
C496 C495 1.365 1_554 S
C496 C497 1.404 . S
C497 C496 1.404 . S
C497 C498 1.395 . S
C497 C508 1.451 . S
C498 C497 1.395 . S
C498 C499 1.322 . S
C498 H562 0.930 . S
C499 C498 1.322 . S
C499 C500 1.459 . S
C499 H563 0.929 . S
C500 C499 1.459 . S
C500 C501 1.445 . S
C500 C509 1.395 . S
C501 C479 1.432 . S
C501 C500 1.445 . S
C501 C502 1.370 . S
C502 C501 1.370 . S
C502 C503 1.438 . S
C502 H564 0.930 . S
C503 C489 1.497 . S
C503 C502 1.438 . S
C503 C504 1.360 . S
C504 C503 1.360 . S
C504 C505 1.401 . S
C504 C509 1.446 . S
C505 C504 1.401 . S
C505 C506 1.347 . S
C505 H565 0.929 . S
C506 C505 1.347 . S
C506 C507 1.455 . S
C506 H566 0.930 . S
C507 C494 1.412 . S
C507 C506 1.455 . S
C507 C508 1.331 . S
C508 C497 1.451 . S
C508 C507 1.331 . S
C508 C509 1.497 . S
C509 C500 1.395 . S
C509 C504 1.446 . S
C509 C508 1.497 . S
C510 C511 1.582 . S
C510 H567 0.962 . S
C510 H568 0.959 . S
C510 H569 0.958 . S
C511 C510 1.582 . S
C511 O514 1.458 . S
C511 H540 0.980 . S
O512 C457 1.426 . S
O512 C458 1.334 . S
O513 C485 1.412 . S
O513 C486 1.393 . S
O514 C476 1.435 . S
O514 C511 1.458 . S
O515 C467 1.468 . S
O515 C468 1.408 . S
H516 C457 0.980 . S
H517 C456 0.959 . S
H518 C456 0.959 . S
H519 C456 0.960 . S
H520 C459 0.929 . S
H521 C463 0.929 . S
H522 C464 0.959 . S
H523 C464 0.961 . S
H524 C464 0.948 1_554 S
H525 C465 0.961 . S
H526 C465 0.961 . S
H527 C465 0.958 1_554 S
H528 C467 0.980 . S
H529 C466 0.961 . S
H530 C466 0.960 . S
H531 C466 0.959 . S
H532 C469 0.930 . S
H533 C473 0.931 . S
H534 C474 0.959 . S
H535 C474 0.961 . S
H536 C474 0.959 . S
H537 C475 0.960 . S
H538 C475 0.960 . S
H539 C475 0.960 1_554 S
H540 C511 0.980 . S
H541 C477 0.930 . S
H542 C481 0.930 . S
H543 C482 0.961 . S
H544 C482 0.960 . S
H545 C482 0.958 . S
H546 C483 0.961 . S
H547 C483 0.960 . S
H548 C483 0.960 . S
H549 C485 0.980 . S
H550 C484 0.961 . S
H551 C484 0.961 . S
H552 C484 0.959 . S
H553 C487 0.932 . S
H554 C491 0.929 . S
H555 C492 0.961 . S
H556 C492 0.959 . S
H557 C492 0.959 . S
H558 C493 0.960 . S
H559 C493 0.962 . S
H560 C493 0.961 . S
H561 C495 0.929 . S
H562 C498 0.930 . S
H563 C499 0.929 . S
H564 C502 0.930 . S
H565 C505 0.929 . S
H566 C506 0.930 . S
H567 C510 0.962 . S
H568 C510 0.959 . S
H569 C510 0.958 . S
C570 C571 1.560 . S
C570 H631 0.959 . S
C570 H632 0.959 . S
C570 H633 0.960 . S
C571 C570 1.560 . S
C571 O626 1.426 . S
C571 H630 0.980 . S
C572 C573 1.407 . S
C572 C577 1.418 . S
C572 O626 1.334 . S
C573 C572 1.407 . S
C573 C574 1.360 . S
C573 H634 0.929 . S
C574 C573 1.360 . S
C574 C575 1.401 . S
C574 C578 1.527 . S
C575 C574 1.401 . S
C575 C576 1.405 . S
C575 C608 1.587 . S
C576 C575 1.405 . S
C576 C577 1.332 . S
C576 C579 1.496 . S
C577 C572 1.418 . S
C577 C576 1.332 . S
C577 H635 0.929 . S
C578 C574 1.527 . S
C578 H636 0.959 . S
C578 H637 0.961 . S
C578 H638 0.961 . S
C579 C576 1.496 . S
C579 H639 0.960 . S
C579 H640 0.960 . S
C579 H641 0.961 . S
C580 C581 1.517 . S
C580 H643 0.961 . S
C580 H644 0.960 . S
C580 H645 0.959 . S
C581 C580 1.517 . S
C581 O629 1.468 . S
C581 H642 0.980 . S
C582 C583 1.349 . S
C582 C587 1.367 . S
C582 O629 1.408 . S
C583 C582 1.349 . S
C583 C584 1.407 . S
C583 H646 0.930 . S
C584 C583 1.407 . S
C584 C585 1.449 . S
C584 C588 1.535 . S
C585 C584 1.449 . S
C585 C586 1.384 . S
C585 C610 1.553 . S
C586 C585 1.384 . S
C586 C587 1.364 . S
C586 C589 1.450 . S
C587 C582 1.367 . S
C587 C586 1.364 . S
C587 H647 0.931 . S
C588 C584 1.535 . S
C588 H648 0.959 . S
C588 H649 0.961 . S
C588 H650 0.959 . S
C589 C586 1.450 . S
C589 H651 0.960 . S
C589 H652 0.960 . S
C589 H653 0.960 . S
C590 C591 1.309 . S
C590 C595 1.304 . S
C590 O628 1.435 1_554 S
C591 C590 1.309 . S
C591 C592 1.476 . S
C591 H655 0.930 . S
C592 C591 1.476 . S
C592 C593 1.400 . S
C592 C596 1.567 . S
C593 C592 1.400 . S
C593 C594 1.373 . S
C593 C615 1.432 . S
C594 C593 1.373 . S
C594 C595 1.339 . S
C594 C597 1.530 . S
C595 C590 1.304 . S
C595 C594 1.339 . S
C595 H656 0.930 . S
C596 C592 1.567 . S
C596 H657 0.961 . S
C596 H658 0.960 . S
C596 H659 0.958 . S
C597 C594 1.530 . S
C597 H660 0.961 . S
C597 H661 0.960 . S
C597 H662 0.960 . S
C598 C599 1.530 . S
C598 H664 0.961 . S
C598 H665 0.961 . S
C598 H666 0.959 . S
C599 C598 1.530 . S
C599 O627 1.412 . S
C599 H663 0.965 1_556 S
C600 C601 1.288 . S
C600 C605 1.377 . S
C600 O627 1.393 1_554 S
C601 C600 1.288 . S
C601 C602 1.369 . S
C601 H667 0.932 . S
C602 C601 1.369 . S
C602 C603 1.398 . S
C602 C606 1.527 . S
C603 C602 1.398 . S
C603 C604 1.380 . S
C603 C617 1.497 . S
C604 C603 1.380 . S
C604 C605 1.383 . S
C604 C607 1.603 . S
C605 C600 1.377 . S
C605 C604 1.383 . S
C605 H668 0.929 . S
C606 C602 1.527 . S
C606 H669 0.961 . S
C606 H670 0.959 . S
C606 H671 0.959 . S
C607 C604 1.603 . S
C607 H672 0.960 . S
C607 H673 0.962 . S
C607 H674 0.961 . S
C608 C575 1.587 . S
C608 C609 1.360 . S
C608 C621 1.412 . S
C609 C608 1.360 . S
C609 C610 1.365 . S
C609 H675 0.929 . S
C610 C585 1.553 . S
C610 C609 1.365 . S
C610 C611 1.404 . S
C611 C610 1.404 . S
C611 C612 1.395 . S
C611 C622 1.451 . S
C612 C611 1.395 . S
C612 C613 1.322 . S
C612 H676 0.930 . S
C613 C612 1.322 . S
C613 C614 1.459 . S
C613 H677 0.929 . S
C614 C613 1.459 . S
C614 C615 1.445 . S
C614 C623 1.395 . S
C615 C593 1.432 . S
C615 C614 1.445 . S
C615 C616 1.370 . S
C616 C615 1.370 . S
C616 C617 1.438 . S
C616 H678 0.930 . S
C617 C603 1.497 . S
C617 C616 1.438 . S
C617 C618 1.360 . S
C618 C617 1.360 . S
C618 C619 1.401 . S
C618 C623 1.446 . S
C619 C618 1.401 . S
C619 C620 1.347 . S
C619 H679 0.929 . S
C620 C619 1.347 . S
C620 C621 1.455 . S
C620 H680 0.930 . S
C621 C608 1.412 . S
C621 C620 1.455 . S
C621 C622 1.331 . S
C622 C611 1.451 . S
C622 C621 1.331 . S
C622 C623 1.497 . S
C623 C614 1.395 . S
C623 C618 1.446 . S
C623 C622 1.497 . S
C624 C625 1.582 . S
C624 H681 0.962 . S
C624 H682 0.959 . S
C624 H683 0.958 . S
C625 C624 1.582 . S
C625 O628 1.458 . S
C625 H654 0.980 1_556 S
O626 C571 1.426 . S
O626 C572 1.334 . S
O627 C599 1.412 . S
O627 C600 1.393 1_556 S
O628 C590 1.435 1_556 S
O628 C625 1.458 . S
O629 C581 1.468 . S
O629 C582 1.408 . S
H630 C571 0.980 . S
H631 C570 0.959 . S
H632 C570 0.959 . S
H633 C570 0.960 . S
H634 C573 0.929 . S
H635 C577 0.929 . S
H636 C578 0.959 . S
H637 C578 0.961 . S
H638 C578 0.961 . S
H639 C579 0.960 . S
H640 C579 0.960 . S
H641 C579 0.961 . S
H642 C581 0.980 . S
H643 C580 0.961 . S
H644 C580 0.960 . S
H645 C580 0.959 . S
H646 C583 0.930 . S
H647 C587 0.931 . S
H648 C588 0.959 . S
H649 C588 0.961 . S
H650 C588 0.959 . S
H651 C589 0.960 . S
H652 C589 0.960 . S
H653 C589 0.960 . S
H654 C625 0.980 1_554 S
H655 C591 0.930 . S
H656 C595 0.930 . S
H657 C596 0.961 . S
H658 C596 0.960 . S
H659 C596 0.958 . S
H660 C597 0.961 . S
H661 C597 0.960 . S
H662 C597 0.960 . S
H663 C599 0.965 1_554 S
H664 C598 0.961 . S
H665 C598 0.961 . S
H666 C598 0.959 . S
H667 C601 0.932 . S
H668 C605 0.929 . S
H669 C606 0.961 . S
H670 C606 0.959 . S
H671 C606 0.959 . S
H672 C607 0.960 . S
H673 C607 0.962 . S
H674 C607 0.961 . S
H675 C609 0.929 . S
H676 C612 0.930 . S
H677 C613 0.929 . S
H678 C616 0.930 . S
H679 C619 0.929 . S
H680 C620 0.930 . S
H681 C624 0.962 . S
H682 C624 0.959 . S
H683 C624 0.958 . S
C684 O711 1.312 . S
C684 O712 1.208 . S
C685 O706 1.331 . S
C685 O709 1.244 . S
C686 O708 1.264 . S
C686 O710 1.273 . S
Mg687 O689 1.936 . S
Mg687 O696 2.081 1_455 S
Mg687 O698 2.023 . S
Mg687 O702 2.031 1_455 S
Mg687 O711 2.291 . S
Mg688 O689 1.963 . S
Mg688 O699 1.942 1_455 S
Mg688 O700 1.955 . S
Mg688 O707 1.986 1_455 S
O689 Mg687 1.936 . S
O689 Mg688 1.963 . S
O689 Mg690 1.915 . S
Mg690 O689 1.915 . S
Mg690 O691 1.915 . S
Mg690 O695 2.013 . S
Mg690 O701 2.114 1_455 S
Mg690 O705 2.013 1_455 S
Mg690 O711 2.114 . S
O691 Mg690 1.915 . S
O691 Mg692 1.936 . S
O691 Mg693 1.963 . S
Mg692 O691 1.936 . S
Mg692 O701 2.291 1_455 S
Mg692 O706 2.081 . S
Mg692 O708 2.023 1_455 S
Mg692 O712 2.031 . S
Mg693 O691 1.963 . S
Mg693 O697 1.986 . S
Mg693 O709 1.942 . S
Mg693 O710 1.955 1_455 S
C694 O705 1.191 . S
C694 O707 1.307 . S
O695 Mg690 2.013 . S
O695 C714 1.191 . S
O696 Mg687 2.081 1_655 S
O696 C704 1.331 . S
O697 Mg693 1.986 . S
O697 C714 1.307 . S
O698 Mg687 2.023 . S
O698 C713 1.264 . S
O699 Mg688 1.942 1_655 S
O699 C704 1.244 . S
O700 Mg688 1.955 . S
O700 C713 1.273 . S
O701 Mg690 2.114 1_655 S
O701 Mg692 2.291 1_655 S
O701 C703 1.312 . S
O702 Mg687 2.031 1_655 S
O702 C703 1.208 . S
C703 O701 1.312 . S
C703 O702 1.208 . S
C704 O696 1.331 . S
C704 O699 1.244 . S
O705 Mg690 2.013 1_655 S
O705 C694 1.191 . S
O706 C685 1.331 . S
O706 Mg692 2.081 . S
O707 Mg688 1.986 1_655 S
O707 C694 1.307 . S
O708 C686 1.264 . S
O708 Mg692 2.023 1_655 S
O709 C685 1.244 . S
O709 Mg693 1.942 . S
O710 C686 1.273 . S
O710 Mg693 1.955 1_655 S
O711 C684 1.312 . S
O711 Mg687 2.291 . S
O711 Mg690 2.114 . S
O712 C684 1.208 . S
O712 Mg692 2.031 . S
C713 O698 1.264 . S
C713 O700 1.273 . S
C714 O695 1.191 . S
C714 O697 1.307 . S
C715 O742 1.312 . S
C715 O743 1.208 . S
C716 O737 1.331 . S
C716 O740 1.244 . S
C717 O739 1.264 . S
C717 O741 1.273 . S
Mg718 O720 1.936 1_545 S
Mg718 O727 2.081 1_545 S
Mg718 O729 2.023 . S
Mg718 O733 2.031 1_545 S
Mg718 O742 2.291 . S
Mg719 O720 1.963 . S
Mg719 O730 1.942 . S
Mg719 O731 1.955 1_565 S
Mg719 O738 1.986 . S
O720 Mg718 1.936 1_565 S
O720 Mg719 1.963 . S
O720 Mg721 1.915 1_565 S
Mg721 O720 1.915 1_545 S
Mg721 O722 1.915 . S
Mg721 O726 2.013 . S
Mg721 O732 2.114 1_545 S
Mg721 O736 2.013 1_545 S
Mg721 O742 2.114 . S
O722 Mg721 1.915 . S
O722 Mg723 1.936 . S
O722 Mg724 1.963 . S
Mg723 O722 1.936 . S
Mg723 O732 2.291 1_545 S
Mg723 O737 2.081 . S
Mg723 O739 2.023 1_545 S
Mg723 O743 2.031 . S
Mg724 O722 1.963 . S
Mg724 O728 1.986 . S
Mg724 O740 1.942 . S
Mg724 O741 1.955 1_545 S
C725 O736 1.191 . S
C725 O738 1.307 . S
O726 Mg721 2.013 . S
O726 C745 1.191 . S
O727 Mg718 2.081 1_565 S
O727 C735 1.331 . S
O728 Mg724 1.986 . S
O728 C745 1.307 . S
O729 Mg718 2.023 . S
O729 C744 1.264 . S
O730 Mg719 1.942 . S
O730 C735 1.244 . S
O731 Mg719 1.955 1_545 S
O731 C744 1.273 . S
O732 Mg721 2.114 1_565 S
O732 Mg723 2.291 1_565 S
O732 C734 1.312 . S
O733 Mg718 2.031 1_565 S
O733 C734 1.208 . S
C734 O732 1.312 . S
C734 O733 1.208 . S
C735 O727 1.331 . S
C735 O730 1.244 . S
O736 Mg721 2.013 1_565 S
O736 C725 1.191 . S
O737 C716 1.331 . S
O737 Mg723 2.081 . S
O738 Mg719 1.986 . S
O738 C725 1.307 . S
O739 C717 1.264 . S
O739 Mg723 2.023 1_565 S
O740 C716 1.244 . S
O740 Mg724 1.942 . S
O741 C717 1.273 . S
O741 Mg724 1.955 1_565 S
O742 C715 1.312 . S
O742 Mg718 2.291 . S
O742 Mg721 2.114 . S
O743 C715 1.208 . S
O743 Mg723 2.031 . S
C744 O729 1.264 . S
C744 O731 1.273 . S
C745 O726 1.191 . S
C745 O728 1.307 . S
C746 O773 1.312 . S
C746 O774 1.208 . S
C747 O768 1.331 . S
C747 O771 1.244 . S
C748 O770 1.264 . S
C748 O772 1.273 . S
Mg749 O751 1.936 . S
Mg749 O758 2.081 . S
Mg749 O760 2.023 . S
Mg749 O764 2.031 . S
Mg749 O773 2.291 . S
Mg750 O751 1.963 . S
Mg750 O761 1.942 . S
Mg750 O762 1.955 . S
Mg750 O769 1.986 . S
O751 Mg749 1.936 . S
O751 Mg750 1.963 . S
O751 Mg752 1.915 . S
Mg752 O751 1.915 . S
Mg752 O753 1.915 . S
Mg752 O757 2.013 . S
Mg752 O763 2.114 . S
Mg752 O767 2.013 . S
Mg752 O773 2.114 . S
O753 Mg752 1.915 . S
O753 Mg754 1.936 . S
O753 Mg755 1.963 . S
Mg754 O753 1.936 . S
Mg754 O763 2.291 . S
Mg754 O768 2.081 . S
Mg754 O770 2.023 . S
Mg754 O774 2.031 . S
Mg755 O753 1.963 . S
Mg755 O759 1.986 . S
Mg755 O771 1.942 . S
Mg755 O772 1.955 . S
C756 O767 1.191 . S
C756 O769 1.307 . S
O757 Mg752 2.013 . S
O757 C776 1.191 . S
O758 Mg749 2.081 . S
O758 C766 1.331 . S
O759 Mg755 1.986 . S
O759 C776 1.307 . S
O760 Mg749 2.023 . S
O760 C775 1.264 . S
O761 Mg750 1.942 . S
O761 C766 1.244 . S
O762 Mg750 1.955 . S
O762 C775 1.273 . S
O763 Mg752 2.114 . S
O763 Mg754 2.291 . S
O763 C765 1.312 . S
O764 Mg749 2.031 . S
O764 C765 1.208 . S
C765 O763 1.312 . S
C765 O764 1.208 . S
C766 O758 1.331 . S
C766 O761 1.244 . S
O767 Mg752 2.013 . S
O767 C756 1.191 . S
O768 C747 1.331 . S
O768 Mg754 2.081 . S
O769 Mg750 1.986 . S
O769 C756 1.307 . S
O770 C748 1.264 . S
O770 Mg754 2.023 . S
O771 C747 1.244 . S
O771 Mg755 1.942 . S
O772 C748 1.273 . S
O772 Mg755 1.955 . S
O773 C746 1.312 . S
O773 Mg749 2.291 . S
O773 Mg752 2.114 . S
O774 C746 1.208 . S
O774 Mg754 2.031 . S
C775 O760 1.264 . S
C775 O762 1.273 . S
C776 O757 1.191 . S
C776 O759 1.307 . S
H777 C785 0.929 . S
H778 C787 0.930 . S
H779 C789 0.930 . S
H780 C792 0.929 . S
H781 C795 0.930 . S
H782 C797 0.960 . S
H783 C797 0.960 . S
H784 C797 0.960 . S
C785 H777 0.929 . S
C785 C786 1.377 . S
C785 C787 1.384 . S
C786 C785 1.377 . S
C786 C792 1.390 . S
C787 H778 0.930 . S
C787 C785 1.384 . S
C787 C788 1.372 . S
C788 C787 1.372 . S
C788 C789 1.400 . S
C788 C793 1.490 . S
C789 H779 0.930 . S
C789 C788 1.400 . S
C789 C792 1.386 . S
H790 C806 0.930 . S
H791 C807 0.931 . S
C792 H780 0.929 . S
C792 C786 1.390 . S
C792 C789 1.386 . S
C793 C788 1.490 . S
C793 C795 1.395 . S
C793 C796 1.403 . S
H794 C800 0.930 . S
C795 H781 0.930 . S
C795 C793 1.395 . S
C795 C798 1.403 . S
C796 C793 1.403 . S
C796 C797 1.524 . S
C796 C800 1.400 . S
C797 H782 0.960 . S
C797 H783 0.960 . S
C797 H784 0.960 . S
C797 C796 1.524 . S
C798 C795 1.403 . S
C798 C799 1.392 . S
C798 C802 1.495 . S
C799 C798 1.392 . S
C799 C800 1.385 . S
C799 C801 1.478 . S
C800 H794 0.930 . S
C800 C796 1.400 . S
C800 C799 1.385 . S
C801 C799 1.478 . S
C801 C803 1.381 . S
C801 C807 1.383 . S
C802 C798 1.495 . S
C802 H808 0.959 . S
C802 H809 0.961 . S
C802 H810 0.960 . S
C803 C801 1.381 . S
C803 C804 1.394 . S
C803 H811 0.930 . S
C804 C803 1.394 . S
C804 C805 1.383 . S
C804 H812 0.929 . S
C805 C804 1.383 . S
C805 C806 1.377 . S
C806 H790 0.930 . S
C806 C805 1.377 . S
C806 C807 1.379 . S
C807 H791 0.931 . S
C807 C801 1.383 . S
C807 C806 1.379 . S
H808 C802 0.959 . S
H809 C802 0.961 . S
H810 C802 0.960 . S
H811 C803 0.930 . S
H812 C804 0.929 . S
H813 C821 0.929 . S
H814 C823 0.930 . S
H815 C825 0.930 . S
H816 C828 0.929 . S
H817 C831 0.930 . S
H818 C833 0.960 . S
H819 C833 0.960 . S
H820 C833 0.960 . S
C821 H813 0.929 . S
C821 C822 1.377 . S
C821 C823 1.384 . S
C822 C821 1.377 . S
C822 C828 1.390 . S
C823 H814 0.930 . S
C823 C821 1.384 . S
C823 C824 1.372 . S
C824 C823 1.372 . S
C824 C825 1.400 . S
C824 C829 1.490 . S
C825 H815 0.930 . S
C825 C824 1.400 . S
C825 C828 1.386 . S
H826 C842 0.930 . S
H827 C843 0.931 . S
C828 H816 0.929 . S
C828 C822 1.390 . S
C828 C825 1.386 . S
C829 C824 1.490 . S
C829 C831 1.395 . S
C829 C832 1.403 . S
H830 C836 0.930 . S
C831 H817 0.930 . S
C831 C829 1.395 . S
C831 C834 1.403 . S
C832 C829 1.403 . S
C832 C833 1.524 . S
C832 C836 1.400 . S
C833 H818 0.960 . S
C833 H819 0.960 . S
C833 H820 0.960 . S
C833 C832 1.524 . S
C834 C831 1.403 . S
C834 C835 1.392 . S
C834 C838 1.495 . S
C835 C834 1.392 . S
C835 C836 1.385 . S
C835 C837 1.478 . S
C836 H830 0.930 . S
C836 C832 1.400 . S
C836 C835 1.385 . S
C837 C835 1.478 . S
C837 C839 1.381 . S
C837 C843 1.383 . S
C838 C834 1.495 . S
C838 H844 0.959 . S
C838 H845 0.961 . S
C838 H846 0.960 . S
C839 C837 1.381 . S
C839 C840 1.394 . S
C839 H847 0.930 . S
C840 C839 1.394 . S
C840 C841 1.383 . S
C840 H848 0.929 . S
C841 C840 1.383 . S
C841 C842 1.377 . S
C842 H826 0.930 . S
C842 C841 1.377 . S
C842 C843 1.379 . S
C843 H827 0.931 . S
C843 C837 1.383 . S
C843 C842 1.379 . S
H844 C838 0.959 . S
H845 C838 0.961 . S
H846 C838 0.960 . S
H847 C839 0.930 . S
H848 C840 0.929 . S
H849 C857 0.929 . S
H850 C859 0.930 . S
H851 C861 0.930 . S
H852 C864 0.929 . S
H853 C867 0.930 . S
H854 C869 0.960 . S
H855 C869 0.960 . S
H856 C869 0.960 . S
C857 H849 0.929 . S
C857 C858 1.377 . S
C857 C859 1.384 . S
C858 C857 1.377 . S
C858 C864 1.390 . S
C859 H850 0.930 . S
C859 C857 1.384 . S
C859 C860 1.372 . S
C860 C859 1.372 . S
C860 C861 1.400 . S
C860 C865 1.490 . S
C861 H851 0.930 . S
C861 C860 1.400 . S
C861 C864 1.386 . S
H862 C878 0.930 . S
H863 C879 0.931 . S
C864 H852 0.929 . S
C864 C858 1.390 . S
C864 C861 1.386 . S
C865 C860 1.490 . S
C865 C867 1.395 . S
C865 C868 1.403 . S
H866 C872 0.930 . S
C867 H853 0.930 . S
C867 C865 1.395 . S
C867 C870 1.403 . S
C868 C865 1.403 . S
C868 C869 1.524 . S
C868 C872 1.400 . S
C869 H854 0.960 . S
C869 H855 0.960 . S
C869 H856 0.960 . S
C869 C868 1.524 . S
C870 C867 1.403 . S
C870 C871 1.392 . S
C870 C874 1.495 . S
C871 C870 1.392 . S
C871 C872 1.385 . S
C871 C873 1.478 . S
C872 H866 0.930 . S
C872 C868 1.400 . S
C872 C871 1.385 . S
C873 C871 1.478 . S
C873 C875 1.381 . S
C873 C879 1.383 . S
C874 C870 1.495 . S
C874 H880 0.959 . S
C874 H881 0.961 . S
C874 H882 0.960 . S
C875 C873 1.381 . S
C875 C876 1.394 . S
C875 H883 0.930 . S
C876 C875 1.394 . S
C876 C877 1.383 . S
C876 H884 0.929 . S
C877 C876 1.383 . S
C877 C878 1.377 . S
C878 H862 0.930 . S
C878 C877 1.377 . S
C878 C879 1.379 . S
C879 H863 0.931 . S
C879 C873 1.383 . S
C879 C878 1.379 . S
H880 C874 0.959 . S
H881 C874 0.961 . S
H882 C874 0.960 . S
H883 C875 0.930 . S
H884 C876 0.929 . S
H885 C893 0.929 . S
H886 C895 0.930 . S
H887 C897 0.930 . S
H888 C900 0.929 . S
H889 C903 0.930 . S
H890 C905 0.960 . S
H891 C905 0.960 . S
H892 C905 0.960 . S
C893 H885 0.929 . S
C893 C894 1.377 . S
C893 C895 1.384 . S
C894 C893 1.377 . S
C894 C900 1.390 . S
C895 H886 0.930 . S
C895 C893 1.384 . S
C895 C896 1.372 . S
C896 C895 1.372 . S
C896 C897 1.400 . S
C896 C901 1.490 . S
C897 H887 0.930 . S
C897 C896 1.400 . S
C897 C900 1.386 . S
H898 C914 0.930 . S
H899 C915 0.931 . S
C900 H888 0.929 . S
C900 C894 1.390 . S
C900 C897 1.386 . S
C901 C896 1.490 . S
C901 C903 1.395 . S
C901 C904 1.403 . S
H902 C908 0.930 . S
C903 H889 0.930 . S
C903 C901 1.395 . S
C903 C906 1.403 . S
C904 C901 1.403 . S
C904 C905 1.524 . S
C904 C908 1.400 . S
C905 H890 0.960 . S
C905 H891 0.960 . S
C905 H892 0.960 . S
C905 C904 1.524 . S
C906 C903 1.403 . S
C906 C907 1.392 . S
C906 C910 1.495 . S
C907 C906 1.392 . S
C907 C908 1.385 . S
C907 C909 1.478 . S
C908 H902 0.930 . S
C908 C904 1.400 . S
C908 C907 1.385 . S
C909 C907 1.478 . S
C909 C911 1.381 . S
C909 C915 1.383 . S
C910 C906 1.495 . S
C910 H916 0.959 . S
C910 H917 0.961 . S
C910 H918 0.960 . S
C911 C909 1.381 . S
C911 C912 1.394 . S
C911 H919 0.930 . S
C912 C911 1.394 . S
C912 C913 1.383 . S
C912 H920 0.929 . S
C913 C912 1.383 . S
C913 C914 1.377 . S
C914 H898 0.930 . S
C914 C913 1.377 . S
C914 C915 1.379 . S
C915 H899 0.931 . S
C915 C909 1.383 . S
C915 C914 1.379 . S
H916 C910 0.959 . S
H917 C910 0.961 . S
H918 C910 0.960 . S
H919 C911 0.930 . S
H920 C912 0.929 . S
H921 C929 0.929 . S
H922 C931 0.930 . S
H923 C933 0.930 . S
H924 C936 0.929 . S
H925 C939 0.930 . S
H926 C941 0.960 . S
H927 C941 0.960 . S
H928 C941 0.960 . S
C929 H921 0.929 . S
C929 C930 1.377 . S
C929 C931 1.384 . S
C930 C929 1.377 . S
C930 C936 1.390 . S
C931 H922 0.930 . S
C931 C929 1.384 . S
C931 C932 1.372 . S
C932 C931 1.372 . S
C932 C933 1.400 . S
C932 C937 1.490 . S
C933 H923 0.930 . S
C933 C932 1.400 . S
C933 C936 1.386 . S
H934 C950 0.930 . S
H935 C951 0.931 . S
C936 H924 0.929 . S
C936 C930 1.390 . S
C936 C933 1.386 . S
C937 C932 1.490 . S
C937 C939 1.395 . S
C937 C940 1.403 . S
H938 C944 0.930 . S
C939 H925 0.930 . S
C939 C937 1.395 . S
C939 C942 1.403 . S
C940 C937 1.403 . S
C940 C941 1.524 . S
C940 C944 1.400 . S
C941 H926 0.960 . S
C941 H927 0.960 . S
C941 H928 0.960 . S
C941 C940 1.524 . S
C942 C939 1.403 . S
C942 C943 1.392 . S
C942 C946 1.495 . S
C943 C942 1.392 . S
C943 C944 1.385 . S
C943 C945 1.478 . S
C944 H938 0.930 . S
C944 C940 1.400 . S
C944 C943 1.385 . S
C945 C943 1.478 . S
C945 C947 1.381 . S
C945 C951 1.383 . S
C946 C942 1.495 . S
C946 H952 0.959 . S
C946 H953 0.961 . S
C946 H954 0.960 . S
C947 C945 1.381 . S
C947 C948 1.394 . S
C947 H955 0.930 . S
C948 C947 1.394 . S
C948 C949 1.383 . S
C948 H956 0.929 . S
C949 C948 1.383 . S
C949 C950 1.377 . S
C950 H934 0.930 . S
C950 C949 1.377 . S
C950 C951 1.379 . S
C951 H935 0.931 . S
C951 C945 1.383 . S
C951 C950 1.379 . S
H952 C946 0.959 . S
H953 C946 0.961 . S
H954 C946 0.960 . S
H955 C947 0.930 . S
H956 C948 0.929 . S
H957 C965 0.929 . S
H958 C967 0.930 . S
H959 C969 0.930 . S
H960 C972 0.929 . S
H961 C975 0.930 . S
H962 C977 0.960 . S
H963 C977 0.960 . S
H964 C977 0.960 . S
C965 H957 0.929 . S
C965 C966 1.377 . S
C965 C967 1.384 . S
C966 C965 1.377 . S
C966 C972 1.390 . S
C967 H958 0.930 . S
C967 C965 1.384 . S
C967 C968 1.372 . S
C968 C967 1.372 . S
C968 C969 1.400 . S
C968 C973 1.490 . S
C969 H959 0.930 . S
C969 C968 1.400 . S
C969 C972 1.386 . S
H970 C986 0.930 . S
H971 C987 0.931 . S
C972 H960 0.929 . S
C972 C966 1.390 . S
C972 C969 1.386 . S
C973 C968 1.490 . S
C973 C975 1.395 . S
C973 C976 1.403 . S
H974 C980 0.930 . S
C975 H961 0.930 . S
C975 C973 1.395 . S
C975 C978 1.403 . S
C976 C973 1.403 . S
C976 C977 1.524 . S
C976 C980 1.400 . S
C977 H962 0.960 . S
C977 H963 0.960 . S
C977 H964 0.960 . S
C977 C976 1.524 . S
C978 C975 1.403 . S
C978 C979 1.392 . S
C978 C982 1.495 . S
C979 C978 1.392 . S
C979 C980 1.385 . S
C979 C981 1.478 . S
C980 H974 0.930 . S
C980 C976 1.400 . S
C980 C979 1.385 . S
C981 C979 1.478 . S
C981 C983 1.381 . S
C981 C987 1.383 . S
C982 C978 1.495 . S
C982 H988 0.959 . S
C982 H989 0.961 . S
C982 H990 0.960 . S
C983 C981 1.381 . S
C983 C984 1.394 . S
C983 H991 0.930 . S
C984 C983 1.394 . S
C984 C985 1.383 . S
C984 H992 0.929 . S
C985 C984 1.383 . S
C985 C986 1.377 . S
C986 H970 0.930 . S
C986 C985 1.377 . S
C986 C987 1.379 . S
C987 H971 0.931 . S
C987 C981 1.383 . S
C987 C986 1.379 . S
H988 C982 0.959 . S
H989 C982 0.961 . S
H990 C982 0.960 . S
H991 C983 0.930 . S
H992 C984 0.929 . S
H993 C1001 0.929 . S
H994 C1003 0.930 . S
H995 C1005 0.930 . S
H996 C1008 0.929 . S
H997 C1011 0.930 . S
H998 C1013 0.960 . S
H999 C1013 0.960 . S
H1000 C1013 0.960 . S
C1001 H993 0.929 . S
C1001 C1002 1.377 . S
C1001 C1003 1.384 . S
C1002 C1001 1.377 . S
C1002 C1008 1.390 . S
C1003 H994 0.930 . S
C1003 C1001 1.384 . S
C1003 C1004 1.372 . S
C1004 C1003 1.372 . S
C1004 C1005 1.400 . S
C1004 C1009 1.490 . S
C1005 H995 0.930 . S
C1005 C1004 1.400 . S
C1005 C1008 1.386 . S
H1006 C1022 0.930 . S
H1007 C1023 0.931 . S
C1008 H996 0.929 . S
C1008 C1002 1.390 . S
C1008 C1005 1.386 . S
C1009 C1004 1.490 . S
C1009 C1011 1.395 . S
C1009 C1012 1.403 . S
H1010 C1016 0.930 . S
C1011 H997 0.930 . S
C1011 C1009 1.395 . S
C1011 C1014 1.403 . S
C1012 C1009 1.403 . S
C1012 C1013 1.524 . S
C1012 C1016 1.400 . S
C1013 H998 0.960 . S
C1013 H999 0.960 . S
C1013 H1000 0.960 . S
C1013 C1012 1.524 . S
C1014 C1011 1.403 . S
C1014 C1015 1.392 . S
C1014 C1018 1.495 . S
C1015 C1014 1.392 . S
C1015 C1016 1.385 . S
C1015 C1017 1.478 . S
C1016 H1010 0.930 . S
C1016 C1012 1.400 . S
C1016 C1015 1.385 . S
C1017 C1015 1.478 . S
C1017 C1019 1.381 . S
C1017 C1023 1.383 . S
C1018 C1014 1.495 . S
C1018 H1024 0.959 . S
C1018 H1025 0.961 . S
C1018 H1026 0.960 . S
C1019 C1017 1.381 . S
C1019 C1020 1.394 . S
C1019 H1027 0.930 . S
C1020 C1019 1.394 . S
C1020 C1021 1.383 . S
C1020 H1028 0.929 . S
C1021 C1020 1.383 . S
C1021 C1022 1.377 . S
C1022 H1006 0.930 . S
C1022 C1021 1.377 . S
C1022 C1023 1.379 . S
C1023 H1007 0.931 . S
C1023 C1017 1.383 . S
C1023 C1022 1.379 . S
H1024 C1018 0.959 . S
H1025 C1018 0.961 . S
H1026 C1018 0.960 . S
H1027 C1019 0.930 . S
H1028 C1020 0.929 . S
H1029 C1037 0.929 . S
H1030 C1039 0.930 . S
H1031 C1041 0.930 . S
H1032 C1044 0.929 . S
H1033 C1047 0.930 . S
H1034 C1049 0.960 . S
H1035 C1049 0.960 . S
H1036 C1049 0.960 . S
C1037 H1029 0.929 . S
C1037 C1038 1.377 . S
C1037 C1039 1.384 . S
C1038 C1037 1.377 . S
C1038 C1044 1.390 . S
C1039 H1030 0.930 . S
C1039 C1037 1.384 . S
C1039 C1040 1.372 . S
C1040 C1039 1.372 . S
C1040 C1041 1.400 . S
C1040 C1045 1.490 . S
C1041 H1031 0.930 . S
C1041 C1040 1.400 . S
C1041 C1044 1.386 . S
H1042 C1058 0.930 . S
H1043 C1059 0.931 . S
C1044 H1032 0.929 . S
C1044 C1038 1.390 . S
C1044 C1041 1.386 . S
C1045 C1040 1.490 . S
C1045 C1047 1.395 . S
C1045 C1048 1.403 . S
H1046 C1052 0.930 . S
C1047 H1033 0.930 . S
C1047 C1045 1.395 . S
C1047 C1050 1.403 . S
C1048 C1045 1.403 . S
C1048 C1049 1.524 . S
C1048 C1052 1.400 . S
C1049 H1034 0.960 . S
C1049 H1035 0.960 . S
C1049 H1036 0.960 . S
C1049 C1048 1.524 . S
C1050 C1047 1.403 . S
C1050 C1051 1.392 . S
C1050 C1054 1.495 . S
C1051 C1050 1.392 . S
C1051 C1052 1.385 . S
C1051 C1053 1.478 . S
C1052 H1046 0.930 . S
C1052 C1048 1.400 . S
C1052 C1051 1.385 . S
C1053 C1051 1.478 . S
C1053 C1055 1.381 . S
C1053 C1059 1.383 . S
C1054 C1050 1.495 . S
C1054 H1060 0.959 . S
C1054 H1061 0.961 . S
C1054 H1062 0.960 . S
C1055 C1053 1.381 . S
C1055 C1056 1.394 . S
C1055 H1063 0.930 . S
C1056 C1055 1.394 . S
C1056 C1057 1.383 . S
C1056 H1064 0.929 . S
C1057 C1056 1.383 . S
C1057 C1058 1.377 . S
C1058 H1042 0.930 . S
C1058 C1057 1.377 . S
C1058 C1059 1.379 . S
C1059 H1043 0.931 . S
C1059 C1053 1.383 . S
C1059 C1058 1.379 . S
H1060 C1054 0.959 . S
H1061 C1054 0.961 . S
H1062 C1054 0.960 . S
H1063 C1055 0.930 . S
H1064 C1056 0.929 . S
H1065 C1073 0.929 . S
H1066 C1075 0.930 . S
H1067 C1077 0.930 . S
H1068 C1080 0.929 . S
H1069 C1083 0.930 . S
H1070 C1085 0.960 . S
H1071 C1085 0.960 . S
H1072 C1085 0.960 . S
C1073 H1065 0.929 . S
C1073 C1074 1.377 . S
C1073 C1075 1.384 . S
C1074 C1073 1.377 . S
C1074 C1080 1.390 . S
C1075 H1066 0.930 . S
C1075 C1073 1.384 . S
C1075 C1076 1.372 . S
C1076 C1075 1.372 . S
C1076 C1077 1.400 . S
C1076 C1081 1.490 . S
C1077 H1067 0.930 . S
C1077 C1076 1.400 . S
C1077 C1080 1.386 . S
H1078 C1094 0.930 . S
H1079 C1095 0.931 . S
C1080 H1068 0.929 . S
C1080 C1074 1.390 . S
C1080 C1077 1.386 . S
C1081 C1076 1.490 . S
C1081 C1083 1.395 . S
C1081 C1084 1.403 . S
H1082 C1088 0.930 . S
C1083 H1069 0.930 . S
C1083 C1081 1.395 . S
C1083 C1086 1.403 . S
C1084 C1081 1.403 . S
C1084 C1085 1.524 . S
C1084 C1088 1.400 . S
C1085 H1070 0.960 . S
C1085 H1071 0.960 . S
C1085 H1072 0.960 . S
C1085 C1084 1.524 . S
C1086 C1083 1.403 . S
C1086 C1087 1.392 . S
C1086 C1090 1.495 . S
C1087 C1086 1.392 . S
C1087 C1088 1.385 . S
C1087 C1089 1.478 . S
C1088 H1082 0.930 . S
C1088 C1084 1.400 . S
C1088 C1087 1.385 . S
C1089 C1087 1.478 . S
C1089 C1091 1.381 . S
C1089 C1095 1.383 . S
C1090 C1086 1.495 . S
C1090 H1096 0.959 . S
C1090 H1097 0.961 . S
C1090 H1098 0.960 . S
C1091 C1089 1.381 . S
C1091 C1092 1.394 . S
C1091 H1099 0.930 . S
C1092 C1091 1.394 . S
C1092 C1093 1.383 . S
C1092 H1100 0.929 . S
C1093 C1092 1.383 . S
C1093 C1094 1.377 . S
C1094 H1078 0.930 . S
C1094 C1093 1.377 . S
C1094 C1095 1.379 . S
C1095 H1079 0.931 . S
C1095 C1089 1.383 . S
C1095 C1094 1.379 . S
H1096 C1090 0.959 . S
H1097 C1090 0.961 . S
H1098 C1090 0.960 . S
H1099 C1091 0.930 . S
H1100 C1092 0.929 . S
H1101 C1109 0.929 . S
H1102 C1111 0.930 . S
H1103 C1113 0.930 . S
H1104 C1116 0.929 . S
H1105 C1119 0.930 . S
H1106 C1121 0.960 . S
H1107 C1121 0.960 . S
H1108 C1121 0.960 . S
C1109 H1101 0.929 . S
C1109 C1110 1.377 . S
C1109 C1111 1.384 . S
C1110 C1109 1.377 . S
C1110 C1116 1.390 . S
C1111 H1102 0.930 . S
C1111 C1109 1.384 . S
C1111 C1112 1.372 . S
C1112 C1111 1.372 . S
C1112 C1113 1.400 . S
C1112 C1117 1.490 . S
C1113 H1103 0.930 . S
C1113 C1112 1.400 . S
C1113 C1116 1.386 . S
H1114 C1130 0.930 . S
H1115 C1131 0.931 . S
C1116 H1104 0.929 . S
C1116 C1110 1.390 . S
C1116 C1113 1.386 . S
C1117 C1112 1.490 . S
C1117 C1119 1.395 . S
C1117 C1120 1.403 . S
H1118 C1124 0.930 . S
C1119 H1105 0.930 . S
C1119 C1117 1.395 . S
C1119 C1122 1.403 . S
C1120 C1117 1.403 . S
C1120 C1121 1.524 . S
C1120 C1124 1.400 . S
C1121 H1106 0.960 . S
C1121 H1107 0.960 . S
C1121 H1108 0.960 . S
C1121 C1120 1.524 . S
C1122 C1119 1.403 . S
C1122 C1123 1.392 . S
C1122 C1126 1.495 . S
C1123 C1122 1.392 . S
C1123 C1124 1.385 . S
C1123 C1125 1.478 . S
C1124 H1118 0.930 . S
C1124 C1120 1.400 . S
C1124 C1123 1.385 . S
C1125 C1123 1.478 . S
C1125 C1127 1.381 . S
C1125 C1131 1.383 . S
C1126 C1122 1.495 . S
C1126 H1132 0.959 . S
C1126 H1133 0.961 . S
C1126 H1134 0.960 . S
C1127 C1125 1.381 . S
C1127 C1128 1.394 . S
C1127 H1135 0.930 . S
C1128 C1127 1.394 . S
C1128 C1129 1.383 . S
C1128 H1136 0.929 . S
C1129 C1128 1.383 . S
C1129 C1130 1.377 . S
C1130 H1114 0.930 . S
C1130 C1129 1.377 . S
C1130 C1131 1.379 . S
C1131 H1115 0.931 . S
C1131 C1125 1.383 . S
C1131 C1130 1.379 . S
H1132 C1126 0.959 . S
H1133 C1126 0.961 . S
H1134 C1126 0.960 . S
H1135 C1127 0.930 . S
H1136 C1128 0.929 . S
H1137 C1145 0.929 . S
H1138 C1147 0.930 . S
H1139 C1149 0.930 . S
H1140 C1152 0.929 . S
H1141 C1155 0.930 . S
H1142 C1157 0.960 . S
H1143 C1157 0.960 . S
H1144 C1157 0.960 . S
C1145 H1137 0.929 . S
C1145 C1146 1.377 . S
C1145 C1147 1.384 . S
C1146 C1145 1.377 . S
C1146 C1152 1.390 . S
C1147 H1138 0.930 . S
C1147 C1145 1.384 . S
C1147 C1148 1.372 . S
C1148 C1147 1.372 . S
C1148 C1149 1.400 . S
C1148 C1153 1.490 . S
C1149 H1139 0.930 . S
C1149 C1148 1.400 . S
C1149 C1152 1.386 . S
H1150 C1166 0.930 . S
H1151 C1167 0.931 . S
C1152 H1140 0.929 . S
C1152 C1146 1.390 . S
C1152 C1149 1.386 . S
C1153 C1148 1.490 . S
C1153 C1155 1.395 . S
C1153 C1156 1.403 . S
H1154 C1160 0.930 . S
C1155 H1141 0.930 . S
C1155 C1153 1.395 . S
C1155 C1158 1.403 . S
C1156 C1153 1.403 . S
C1156 C1157 1.524 . S
C1156 C1160 1.400 . S
C1157 H1142 0.960 . S
C1157 H1143 0.960 . S
C1157 H1144 0.960 . S
C1157 C1156 1.524 . S
C1158 C1155 1.403 . S
C1158 C1159 1.392 . S
C1158 C1162 1.495 . S
C1159 C1158 1.392 . S
C1159 C1160 1.385 . S
C1159 C1161 1.478 . S
C1160 H1154 0.930 . S
C1160 C1156 1.400 . S
C1160 C1159 1.385 . S
C1161 C1159 1.478 . S
C1161 C1163 1.381 . S
C1161 C1167 1.383 . S
C1162 C1158 1.495 . S
C1162 H1168 0.959 . S
C1162 H1169 0.961 . S
C1162 H1170 0.960 . S
C1163 C1161 1.381 . S
C1163 C1164 1.394 . S
C1163 H1171 0.930 . S
C1164 C1163 1.394 . S
C1164 C1165 1.383 . S
C1164 H1172 0.929 . S
C1165 C1164 1.383 . S
C1165 C1166 1.377 . S
C1166 H1150 0.930 . S
C1166 C1165 1.377 . S
C1166 C1167 1.379 . S
C1167 H1151 0.931 . S
C1167 C1161 1.383 . S
C1167 C1166 1.379 . S
H1168 C1162 0.959 . S
H1169 C1162 0.961 . S
H1170 C1162 0.960 . S
H1171 C1163 0.930 . S
H1172 C1164 0.929 . S
H1173 C1181 0.929 . S
H1174 C1183 0.930 . S
H1175 C1185 0.930 . S
H1176 C1188 0.929 . S
H1177 C1191 0.930 . S
H1178 C1193 0.960 . S
H1179 C1193 0.960 . S
H1180 C1193 0.960 . S
C1181 H1173 0.929 . S
C1181 C1182 1.377 . S
C1181 C1183 1.384 . S
C1182 C1181 1.377 . S
C1182 C1188 1.390 . S
C1183 H1174 0.930 . S
C1183 C1181 1.384 . S
C1183 C1184 1.372 . S
C1184 C1183 1.372 . S
C1184 C1185 1.400 . S
C1184 C1189 1.490 . S
C1185 H1175 0.930 . S
C1185 C1184 1.400 . S
C1185 C1188 1.386 . S
H1186 C1202 0.930 . S
H1187 C1203 0.931 . S
C1188 H1176 0.929 . S
C1188 C1182 1.390 . S
C1188 C1185 1.386 . S
C1189 C1184 1.490 . S
C1189 C1191 1.395 . S
C1189 C1192 1.403 . S
H1190 C1196 0.930 . S
C1191 H1177 0.930 . S
C1191 C1189 1.395 . S
C1191 C1194 1.403 . S
C1192 C1189 1.403 . S
C1192 C1193 1.524 . S
C1192 C1196 1.400 . S
C1193 H1178 0.960 . S
C1193 H1179 0.960 . S
C1193 H1180 0.960 . S
C1193 C1192 1.524 . S
C1194 C1191 1.403 . S
C1194 C1195 1.392 . S
C1194 C1198 1.495 . S
C1195 C1194 1.392 . S
C1195 C1196 1.385 . S
C1195 C1197 1.478 . S
C1196 H1190 0.930 . S
C1196 C1192 1.400 . S
C1196 C1195 1.385 . S
C1197 C1195 1.478 . S
C1197 C1199 1.381 . S
C1197 C1203 1.383 . S
C1198 C1194 1.495 . S
C1198 H1204 0.959 . S
C1198 H1205 0.961 . S
C1198 H1206 0.960 . S
C1199 C1197 1.381 . S
C1199 C1200 1.394 . S
C1199 H1207 0.930 . S
C1200 C1199 1.394 . S
C1200 C1201 1.383 . S
C1200 H1208 0.929 . S
C1201 C1200 1.383 . S
C1201 C1202 1.377 . S
C1202 H1186 0.930 . S
C1202 C1201 1.377 . S
C1202 C1203 1.379 . S
C1203 H1187 0.931 . S
C1203 C1197 1.383 . S
C1203 C1202 1.379 . S
H1204 C1198 0.959 . S
H1205 C1198 0.961 . S
H1206 C1198 0.960 . S
H1207 C1199 0.930 . S
H1208 C1200 0.929 . S
H1209 C1217 0.929 . S
H1210 C1219 0.930 . S
H1211 C1221 0.930 . S
H1212 C1224 0.929 . S
H1213 C1227 0.930 . S
H1214 C1229 0.960 . S
H1215 C1229 0.960 . S
H1216 C1229 0.960 . S
C1217 H1209 0.929 . S
C1217 C1218 1.377 . S
C1217 C1219 1.384 . S
C1218 C1217 1.377 . S
C1218 C1224 1.390 . S
C1219 H1210 0.930 . S
C1219 C1217 1.384 . S
C1219 C1220 1.372 . S
C1220 C1219 1.372 . S
C1220 C1221 1.400 . S
C1220 C1225 1.490 . S
C1221 H1211 0.930 . S
C1221 C1220 1.400 . S
C1221 C1224 1.386 . S
H1222 C1238 0.930 . S
H1223 C1239 0.931 . S
C1224 H1212 0.929 . S
C1224 C1218 1.390 . S
C1224 C1221 1.386 . S
C1225 C1220 1.490 . S
C1225 C1227 1.395 . S
C1225 C1228 1.403 . S
H1226 C1232 0.930 . S
C1227 H1213 0.930 . S
C1227 C1225 1.395 . S
C1227 C1230 1.403 . S
C1228 C1225 1.403 . S
C1228 C1229 1.524 . S
C1228 C1232 1.400 . S
C1229 H1214 0.960 . S
C1229 H1215 0.960 . S
C1229 H1216 0.960 . S
C1229 C1228 1.524 . S
C1230 C1227 1.403 . S
C1230 C1231 1.392 . S
C1230 C1234 1.495 . S
C1231 C1230 1.392 . S
C1231 C1232 1.385 . S
C1231 C1233 1.478 . S
C1232 H1226 0.930 . S
C1232 C1228 1.400 . S
C1232 C1231 1.385 . S
C1233 C1231 1.478 . S
C1233 C1235 1.381 . S
C1233 C1239 1.383 . S
C1234 C1230 1.495 . S
C1234 H1240 0.959 . S
C1234 H1241 0.961 . S
C1234 H1242 0.960 . S
C1235 C1233 1.381 . S
C1235 C1236 1.394 . S
C1235 H1243 0.930 . S
C1236 C1235 1.394 . S
C1236 C1237 1.383 . S
C1236 H1244 0.929 . S
C1237 C1236 1.383 . S
C1237 C1238 1.377 . S
C1238 H1222 0.930 . S
C1238 C1237 1.377 . S
C1238 C1239 1.379 . S
C1239 H1223 0.931 . S
C1239 C1233 1.383 . S
C1239 C1238 1.379 . S
H1240 C1234 0.959 . S
H1241 C1234 0.961 . S
H1242 C1234 0.960 . S
H1243 C1235 0.930 . S
H1244 C1236 0.929 . S
H1245 C1253 0.929 . S
H1246 C1255 0.930 . S
H1247 C1257 0.930 . S
H1248 C1260 0.929 . S
H1249 C1263 0.930 . S
H1250 C1265 0.960 . S
H1251 C1265 0.960 . S
H1252 C1265 0.960 . S
C1253 H1245 0.929 . S
C1253 C1254 1.377 . S
C1253 C1255 1.384 . S
C1254 C1253 1.377 . S
C1254 C1260 1.390 . S
C1255 H1246 0.930 . S
C1255 C1253 1.384 . S
C1255 C1256 1.372 . S
C1256 C1255 1.372 . S
C1256 C1257 1.400 . S
C1256 C1261 1.490 . S
C1257 H1247 0.930 . S
C1257 C1256 1.400 . S
C1257 C1260 1.386 . S
H1258 C1274 0.930 . S
H1259 C1275 0.931 . S
C1260 H1248 0.929 . S
C1260 C1254 1.390 . S
C1260 C1257 1.386 . S
C1261 C1256 1.490 . S
C1261 C1263 1.395 . S
C1261 C1264 1.403 . S
H1262 C1268 0.930 . S
C1263 H1249 0.930 . S
C1263 C1261 1.395 . S
C1263 C1266 1.403 . S
C1264 C1261 1.403 . S
C1264 C1265 1.524 . S
C1264 C1268 1.400 . S
C1265 H1250 0.960 . S
C1265 H1251 0.960 . S
C1265 H1252 0.960 . S
C1265 C1264 1.524 . S
C1266 C1263 1.403 . S
C1266 C1267 1.392 . S
C1266 C1270 1.495 . S
C1267 C1266 1.392 . S
C1267 C1268 1.385 . S
C1267 C1269 1.478 . S
C1268 H1262 0.930 . S
C1268 C1264 1.400 . S
C1268 C1267 1.385 . S
C1269 C1267 1.478 . S
C1269 C1271 1.381 . S
C1269 C1275 1.383 . S
C1270 C1266 1.495 . S
C1270 H1276 0.959 . S
C1270 H1277 0.961 . S
C1270 H1278 0.960 . S
C1271 C1269 1.381 . S
C1271 C1272 1.394 . S
C1271 H1279 0.930 . S
C1272 C1271 1.394 . S
C1272 C1273 1.383 . S
C1272 H1280 0.929 . S
C1273 C1272 1.383 . S
C1273 C1274 1.377 . S
C1274 H1258 0.930 . S
C1274 C1273 1.377 . S
C1274 C1275 1.379 . S
C1275 H1259 0.931 . S
C1275 C1269 1.383 . S
C1275 C1274 1.379 . S
H1276 C1270 0.959 . S
H1277 C1270 0.961 . S
H1278 C1270 0.960 . S
H1279 C1271 0.930 . S
H1280 C1272 0.929 . S
H1281 C1289 0.929 . S
H1282 C1291 0.930 . S
H1283 C1293 0.930 . S
H1284 C1296 0.929 . S
H1285 C1299 0.930 . S
H1286 C1301 0.960 . S
H1287 C1301 0.960 . S
H1288 C1301 0.960 . S
C1289 H1281 0.929 . S
C1289 C1290 1.377 . S
C1289 C1291 1.384 . S
C1290 C1289 1.377 . S
C1290 C1296 1.390 . S
C1291 H1282 0.930 . S
C1291 C1289 1.384 . S
C1291 C1292 1.372 . S
C1292 C1291 1.372 . S
C1292 C1293 1.400 . S
C1292 C1297 1.490 . S
C1293 H1283 0.930 . S
C1293 C1292 1.400 . S
C1293 C1296 1.386 . S
H1294 C1310 0.930 . S
H1295 C1311 0.931 . S
C1296 H1284 0.929 . S
C1296 C1290 1.390 . S
C1296 C1293 1.386 . S
C1297 C1292 1.490 . S
C1297 C1299 1.395 . S
C1297 C1300 1.403 . S
H1298 C1304 0.930 . S
C1299 H1285 0.930 . S
C1299 C1297 1.395 . S
C1299 C1302 1.403 . S
C1300 C1297 1.403 . S
C1300 C1301 1.524 . S
C1300 C1304 1.400 . S
C1301 H1286 0.960 . S
C1301 H1287 0.960 . S
C1301 H1288 0.960 . S
C1301 C1300 1.524 . S
C1302 C1299 1.403 . S
C1302 C1303 1.392 . S
C1302 C1306 1.495 . S
C1303 C1302 1.392 . S
C1303 C1304 1.385 . S
C1303 C1305 1.478 . S
C1304 H1298 0.930 . S
C1304 C1300 1.400 . S
C1304 C1303 1.385 . S
C1305 C1303 1.478 . S
C1305 C1307 1.381 . S
C1305 C1311 1.383 . S
C1306 C1302 1.495 . S
C1306 H1312 0.959 . S
C1306 H1313 0.961 . S
C1306 H1314 0.960 . S
C1307 C1305 1.381 . S
C1307 C1308 1.394 . S
C1307 H1315 0.930 . S
C1308 C1307 1.394 . S
C1308 C1309 1.383 . S
C1308 H1316 0.929 . S
C1309 C1308 1.383 . S
C1309 C1310 1.377 . S
C1310 H1294 0.930 . S
C1310 C1309 1.377 . S
C1310 C1311 1.379 . S
C1311 H1295 0.931 . S
C1311 C1305 1.383 . S
C1311 C1310 1.379 . S
H1312 C1306 0.959 . S
H1313 C1306 0.961 . S
H1314 C1306 0.960 . S
H1315 C1307 0.930 . S
H1316 C1308 0.929 . S
H1317 C1325 0.949 . S
H1318 C1327 0.930 . S
H1319 C1329 0.930 . S
H1320 C1332 0.929 . S
H1321 C1335 0.930 . S
H1322 C1337 0.960 . S
H1323 C1337 0.960 . S
H1324 C1337 0.960 . S
C1325 H1317 0.949 . S
C1325 C1326 1.377 . S
C1325 C1327 1.384 . S
C1326 C1325 1.377 . S
C1326 C1332 1.390 . S
C1327 H1318 0.930 . S
C1327 C1325 1.384 . S
C1327 C1328 1.372 . S
C1328 C1327 1.372 . S
C1328 C1329 1.400 . S
C1328 C1333 1.490 . S
C1329 H1319 0.930 . S
C1329 C1328 1.400 . S
C1329 C1332 1.386 . S
H1330 C1346 0.930 . S
H1331 C1347 0.931 . S
C1332 H1320 0.929 . S
C1332 C1326 1.390 . S
C1332 C1329 1.386 . S
C1333 C1328 1.490 . S
C1333 C1335 1.395 . S
C1333 C1336 1.403 . S
H1334 C1340 0.930 . S
C1335 H1321 0.930 . S
C1335 C1333 1.395 . S
C1335 C1338 1.403 . S
C1336 C1333 1.403 . S
C1336 C1337 1.524 . S
C1336 C1340 1.400 . S
C1337 H1322 0.960 . S
C1337 H1323 0.960 . S
C1337 H1324 0.960 . S
C1337 C1336 1.524 . S
C1338 C1335 1.403 . S
C1338 C1339 1.392 . S
C1338 C1342 1.495 . S
C1339 C1338 1.392 . S
C1339 C1340 1.385 . S
C1339 C1341 1.478 . S
C1340 H1334 0.930 . S
C1340 C1336 1.400 . S
C1340 C1339 1.385 . S
C1341 C1339 1.478 . S
C1341 C1343 1.381 . S
C1341 C1347 1.383 . S
C1342 C1338 1.495 . S
C1342 H1348 0.959 . S
C1342 H1349 0.961 . S
C1342 H1350 0.960 . S
C1343 C1341 1.381 . S
C1343 C1344 1.394 . S
C1343 H1351 0.930 . S
C1344 C1343 1.394 . S
C1344 C1345 1.383 . S
C1344 H1352 0.929 . S
C1345 C1344 1.383 . S
C1345 C1346 1.377 . S
C1346 H1330 0.930 . S
C1346 C1345 1.377 . S
C1346 C1347 1.379 . S
C1347 H1331 0.931 . S
C1347 C1341 1.383 . S
C1347 C1346 1.379 . S
H1348 C1342 0.959 . S
H1349 C1342 0.961 . S
H1350 C1342 0.960 . S
H1351 C1343 0.930 . S
H1352 C1344 0.929 . S
H1353 C1361 0.929 . S
H1354 C1363 0.930 . S
H1355 C1365 0.930 . S
H1356 C1368 0.929 . S
H1357 C1371 0.930 . S
H1358 C1373 0.960 . S
H1359 C1373 0.960 . S
H1360 C1373 0.960 . S
C1361 H1353 0.929 . S
C1361 C1362 1.377 . S
C1361 C1363 1.384 . S
C1362 C1361 1.377 . S
C1362 C1368 1.390 . S
C1363 H1354 0.930 . S
C1363 C1361 1.384 . S
C1363 C1364 1.372 . S
C1364 C1363 1.372 . S
C1364 C1365 1.400 . S
C1364 C1369 1.490 . S
C1365 H1355 0.930 . S
C1365 C1364 1.400 . S
C1365 C1368 1.386 . S
H1366 C1382 0.930 . S
H1367 C1383 0.931 . S
C1368 H1356 0.929 . S
C1368 C1362 1.390 . S
C1368 C1365 1.386 . S
C1369 C1364 1.490 . S
C1369 C1371 1.395 . S
C1369 C1372 1.403 . S
H1370 C1376 0.930 . S
C1371 H1357 0.930 . S
C1371 C1369 1.395 . S
C1371 C1374 1.403 . S
C1372 C1369 1.403 . S
C1372 C1373 1.524 . S
C1372 C1376 1.400 . S
C1373 H1358 0.960 . S
C1373 H1359 0.960 . S
C1373 H1360 0.960 . S
C1373 C1372 1.524 . S
C1374 C1371 1.403 . S
C1374 C1375 1.392 . S
C1374 C1378 1.495 . S
C1375 C1374 1.392 . S
C1375 C1376 1.385 . S
C1375 C1377 1.478 . S
C1376 H1370 0.930 . S
C1376 C1372 1.400 . S
C1376 C1375 1.385 . S
C1377 C1375 1.478 . S
C1377 C1379 1.381 . S
C1377 C1383 1.383 . S
C1378 C1374 1.495 . S
C1378 H1384 0.959 . S
C1378 H1385 0.961 . S
C1378 H1386 0.960 . S
C1379 C1377 1.381 . S
C1379 C1380 1.394 . S
C1379 H1387 0.930 . S
C1380 C1379 1.394 . S
C1380 C1381 1.383 . S
C1380 H1388 0.929 . S
C1381 C1380 1.383 . S
C1381 C1382 1.377 . S
C1382 H1366 0.930 . S
C1382 C1381 1.377 . S
C1382 C1383 1.379 . S
C1383 H1367 0.931 . S
C1383 C1377 1.383 . S
C1383 C1382 1.379 . S
H1384 C1378 0.959 . S
H1385 C1378 0.961 . S
H1386 C1378 0.960 . S
H1387 C1379 0.930 . S
H1388 C1380 0.929 . S
H1389 C1397 0.929 . S
H1390 C1399 0.930 . S
H1391 C1401 0.930 . S
H1392 C1404 0.929 . S
H1393 C1407 0.930 . S
H1394 C1409 0.960 . S
H1395 C1409 0.960 . S
H1396 C1409 0.960 . S
C1397 H1389 0.929 . S
C1397 C1398 1.377 . S
C1397 C1399 1.384 . S
C1398 C1397 1.377 . S
C1398 C1404 1.390 . S
C1399 H1390 0.930 . S
C1399 C1397 1.384 . S
C1399 C1400 1.372 . S
C1400 C1399 1.372 . S
C1400 C1401 1.400 . S
C1400 C1405 1.490 . S
C1401 H1391 0.930 . S
C1401 C1400 1.400 . S
C1401 C1404 1.386 . S
H1402 C1418 0.930 . S
H1403 C1419 0.931 . S
C1404 H1392 0.929 . S
C1404 C1398 1.390 . S
C1404 C1401 1.386 . S
C1405 C1400 1.490 . S
C1405 C1407 1.395 . S
C1405 C1408 1.403 . S
H1406 C1412 0.930 . S
C1407 H1393 0.930 . S
C1407 C1405 1.395 . S
C1407 C1410 1.403 . S
C1408 C1405 1.403 . S
C1408 C1409 1.524 . S
C1408 C1412 1.400 . S
C1409 H1394 0.960 . S
C1409 H1395 0.960 . S
C1409 H1396 0.960 . S
C1409 C1408 1.524 . S
C1410 C1407 1.403 . S
C1410 C1411 1.392 . S
C1410 C1414 1.495 . S
C1411 C1410 1.392 . S
C1411 C1412 1.385 . S
C1411 C1413 1.478 . S
C1412 H1406 0.930 . S
C1412 C1408 1.400 . S
C1412 C1411 1.385 . S
C1413 C1411 1.478 . S
C1413 C1415 1.381 . S
C1413 C1419 1.383 . S
C1414 C1410 1.495 . S
C1414 H1420 0.959 . S
C1414 H1421 0.961 . S
C1414 H1422 0.960 . S
C1415 C1413 1.381 . S
C1415 C1416 1.394 . S
C1415 H1423 0.930 . S
C1416 C1415 1.394 . S
C1416 C1417 1.383 . S
C1416 H1424 0.929 . S
C1417 C1416 1.383 . S
C1417 C1418 1.377 . S
C1418 H1402 0.930 . S
C1418 C1417 1.377 . S
C1418 C1419 1.379 . S
C1419 H1403 0.931 . S
C1419 C1413 1.383 . S
C1419 C1418 1.379 . S
H1420 C1414 0.959 . S
H1421 C1414 0.961 . S
H1422 C1414 0.960 . S
H1423 C1415 0.930 . S
H1424 C1416 0.929 . S
H1425 C1433 0.929 . S
H1426 C1435 0.930 . S
H1427 C1437 0.930 . S
H1428 C1440 0.929 . S
H1429 C1443 0.930 . S
H1430 C1445 0.960 . S
H1431 C1445 0.960 . S
H1432 C1445 0.960 . S
C1433 H1425 0.929 . S
C1433 C1434 1.377 . S
C1433 C1435 1.384 . S
C1434 C1433 1.377 . S
C1434 C1440 1.390 . S
C1435 H1426 0.930 . S
C1435 C1433 1.384 . S
C1435 C1436 1.372 . S
C1436 C1435 1.372 . S
C1436 C1437 1.400 . S
C1436 C1441 1.490 . S
C1437 H1427 0.930 . S
C1437 C1436 1.400 . S
C1437 C1440 1.386 . S
H1438 C1454 0.930 . S
H1439 C1455 0.931 . S
C1440 H1428 0.929 . S
C1440 C1434 1.390 . S
C1440 C1437 1.386 . S
C1441 C1436 1.490 . S
C1441 C1443 1.395 . S
C1441 C1444 1.403 . S
H1442 C1448 0.930 . S
C1443 H1429 0.930 . S
C1443 C1441 1.395 . S
C1443 C1446 1.403 . S
C1444 C1441 1.403 . S
C1444 C1445 1.524 . S
C1444 C1448 1.400 . S
C1445 H1430 0.960 . S
C1445 H1431 0.960 . S
C1445 H1432 0.960 . S
C1445 C1444 1.524 . S
C1446 C1443 1.403 . S
C1446 C1447 1.392 . S
C1446 C1450 1.495 . S
C1447 C1446 1.392 . S
C1447 C1448 1.385 . S
C1447 C1449 1.478 . S
C1448 H1442 0.930 . S
C1448 C1444 1.400 . S
C1448 C1447 1.385 . S
C1449 C1447 1.478 . S
C1449 C1451 1.381 . S
C1449 C1455 1.383 . S
C1450 C1446 1.495 . S
C1450 H1456 0.959 . S
C1450 H1457 0.961 . S
C1450 H1458 0.960 . S
C1451 C1449 1.381 . S
C1451 C1452 1.394 . S
C1451 H1459 0.930 . S
C1452 C1451 1.394 . S
C1452 C1453 1.383 . S
C1452 H1460 0.929 . S
C1453 C1452 1.383 . S
C1453 C1454 1.377 . S
C1454 H1438 0.930 . S
C1454 C1453 1.377 . S
C1454 C1455 1.379 . S
C1455 H1439 0.931 . S
C1455 C1449 1.383 . S
C1455 C1454 1.379 . S
H1456 C1450 0.959 . S
H1457 C1450 0.961 . S
H1458 C1450 0.960 . S
H1459 C1451 0.930 . S
H1460 C1452 0.929 . S
H1461 C1469 0.929 . S
H1462 C1471 0.930 . S
H1463 C1473 0.930 . S
H1464 C1476 0.929 . S
H1465 C1479 0.930 . S
H1466 C1481 0.960 . S
H1467 C1481 0.960 . S
H1468 C1481 0.960 . S
C1469 H1461 0.929 . S
C1469 C1470 1.377 . S
C1469 C1471 1.384 . S
C1470 C1469 1.377 . S
C1470 C1476 1.390 . S
C1471 H1462 0.930 . S
C1471 C1469 1.384 . S
C1471 C1472 1.372 . S
C1472 C1471 1.372 . S
C1472 C1473 1.400 . S
C1472 C1477 1.490 . S
C1473 H1463 0.930 . S
C1473 C1472 1.400 . S
C1473 C1476 1.386 . S
H1474 C1490 0.930 . S
H1475 C1491 0.931 . S
C1476 H1464 0.929 . S
C1476 C1470 1.390 . S
C1476 C1473 1.386 . S
C1477 C1472 1.490 . S
C1477 C1479 1.395 . S
C1477 C1480 1.403 . S
H1478 C1484 0.930 . S
C1479 H1465 0.930 . S
C1479 C1477 1.395 . S
C1479 C1482 1.403 . S
C1480 C1477 1.403 . S
C1480 C1481 1.524 . S
C1480 C1484 1.400 . S
C1481 H1466 0.960 . S
C1481 H1467 0.960 . S
C1481 H1468 0.960 . S
C1481 C1480 1.524 . S
C1482 C1479 1.403 . S
C1482 C1483 1.392 . S
C1482 C1486 1.495 . S
C1483 C1482 1.392 . S
C1483 C1484 1.385 . S
C1483 C1485 1.478 . S
C1484 H1478 0.930 . S
C1484 C1480 1.400 . S
C1484 C1483 1.385 . S
C1485 C1483 1.478 . S
C1485 C1487 1.381 . S
C1485 C1491 1.383 . S
C1486 C1482 1.495 . S
C1486 H1492 0.959 . S
C1486 H1493 0.961 . S
C1486 H1494 0.960 . S
C1487 C1485 1.381 . S
C1487 C1488 1.394 . S
C1487 H1495 0.930 . S
C1488 C1487 1.394 . S
C1488 C1489 1.383 . S
C1488 H1496 0.929 . S
C1489 C1488 1.383 . S
C1489 C1490 1.377 . S
C1490 H1474 0.930 . S
C1490 C1489 1.377 . S
C1490 C1491 1.379 . S
C1491 H1475 0.931 . S
C1491 C1485 1.383 . S
C1491 C1490 1.379 . S
H1492 C1486 0.959 . S
H1493 C1486 0.961 . S
H1494 C1486 0.960 . S
H1495 C1487 0.930 . S
H1496 C1488 0.929 . S
H1497 C1505 0.929 . S
H1498 C1507 0.930 . S
H1499 C1509 0.930 . S
H1500 C1512 0.929 . S
H1501 C1515 0.930 . S
H1502 C1517 0.960 . S
H1503 C1517 0.960 . S
H1504 C1517 0.960 . S
C1505 H1497 0.929 . S
C1505 C1506 1.377 . S
C1505 C1507 1.384 . S
C1506 C1505 1.377 . S
C1506 C1512 1.390 . S
C1507 H1498 0.930 . S
C1507 C1505 1.384 . S
C1507 C1508 1.372 . S
C1508 C1507 1.372 . S
C1508 C1509 1.400 . S
C1508 C1513 1.490 . S
C1509 H1499 0.930 . S
C1509 C1508 1.400 . S
C1509 C1512 1.386 . S
H1510 C1526 0.930 . S
H1511 C1527 0.931 . S
C1512 H1500 0.929 . S
C1512 C1506 1.390 . S
C1512 C1509 1.386 . S
C1513 C1508 1.490 . S
C1513 C1515 1.395 . S
C1513 C1516 1.403 . S
H1514 C1520 0.930 . S
C1515 H1501 0.930 . S
C1515 C1513 1.395 . S
C1515 C1518 1.403 . S
C1516 C1513 1.403 . S
C1516 C1517 1.524 . S
C1516 C1520 1.400 . S
C1517 H1502 0.960 . S
C1517 H1503 0.960 . S
C1517 H1504 0.960 . S
C1517 C1516 1.524 . S
C1518 C1515 1.403 . S
C1518 C1519 1.392 . S
C1518 C1522 1.495 . S
C1519 C1518 1.392 . S
C1519 C1520 1.385 . S
C1519 C1521 1.478 . S
C1520 H1514 0.930 . S
C1520 C1516 1.400 . S
C1520 C1519 1.385 . S
C1521 C1519 1.478 . S
C1521 C1523 1.381 . S
C1521 C1527 1.383 . S
C1522 C1518 1.495 . S
C1522 H1528 0.959 . S
C1522 H1529 0.961 . S
C1522 H1530 0.960 . S
C1523 C1521 1.381 . S
C1523 C1524 1.394 . S
C1523 H1531 0.930 . S
C1524 C1523 1.394 . S
C1524 C1525 1.383 . S
C1524 H1532 0.929 . S
C1525 C1524 1.383 . S
C1525 C1526 1.377 . S
C1526 H1510 0.930 . S
C1526 C1525 1.377 . S
C1526 C1527 1.379 . S
C1527 H1511 0.931 . S
C1527 C1521 1.383 . S
C1527 C1526 1.379 . S
H1528 C1522 0.959 . S
H1529 C1522 0.961 . S
H1530 C1522 0.960 . S
H1531 C1523 0.930 . S
H1532 C1524 0.929 . S
H1533 C1541 0.929 . S
H1534 C1543 0.930 . S
H1535 C1545 0.930 . S
H1536 C1548 0.929 . S
H1537 C1551 0.930 . S
H1538 C1553 0.960 . S
H1539 C1553 0.960 . S
H1540 C1553 0.960 . S
C1541 H1533 0.929 . S
C1541 C1542 1.377 . S
C1541 C1543 1.384 . S
C1542 C1541 1.377 . S
C1542 C1548 1.390 . S
C1543 H1534 0.930 . S
C1543 C1541 1.384 . S
C1543 C1544 1.372 . S
C1544 C1543 1.372 . S
C1544 C1545 1.400 . S
C1544 C1549 1.490 . S
C1545 H1535 0.930 . S
C1545 C1544 1.400 . S
C1545 C1548 1.386 . S
H1546 C1562 0.930 . S
H1547 C1563 0.931 . S
C1548 H1536 0.929 . S
C1548 C1542 1.390 . S
C1548 C1545 1.386 . S
C1549 C1544 1.490 . S
C1549 C1551 1.395 . S
C1549 C1552 1.403 . S
H1550 C1556 0.930 . S
C1551 H1537 0.930 . S
C1551 C1549 1.395 . S
C1551 C1554 1.403 . S
C1552 C1549 1.403 . S
C1552 C1553 1.524 . S
C1552 C1556 1.400 . S
C1553 H1538 0.960 . S
C1553 H1539 0.960 . S
C1553 H1540 0.960 . S
C1553 C1552 1.524 . S
C1554 C1551 1.403 . S
C1554 C1555 1.392 . S
C1554 C1558 1.495 . S
C1555 C1554 1.392 . S
C1555 C1556 1.385 . S
C1555 C1557 1.478 . S
C1556 H1550 0.930 . S
C1556 C1552 1.400 . S
C1556 C1555 1.385 . S
C1557 C1555 1.478 . S
C1557 C1559 1.381 . S
C1557 C1563 1.383 . S
C1558 C1554 1.495 . S
C1558 H1564 0.959 . S
C1558 H1565 0.961 . S
C1558 H1566 0.960 . S
C1559 C1557 1.381 . S
C1559 C1560 1.394 . S
C1559 H1567 0.930 . S
C1560 C1559 1.394 . S
C1560 C1561 1.383 . S
C1560 H1568 0.929 . S
C1561 C1560 1.383 . S
C1561 C1562 1.377 . S
C1562 H1546 0.930 . S
C1562 C1561 1.377 . S
C1562 C1563 1.379 . S
C1563 H1547 0.931 . S
C1563 C1557 1.383 . S
C1563 C1562 1.379 . S
H1564 C1558 0.959 . S
H1565 C1558 0.961 . S
H1566 C1558 0.960 . S
H1567 C1559 0.930 . S
H1568 C1560 0.929 . S
H1569 C1577 0.929 . S
H1570 C1579 0.930 . S
H1571 C1581 0.930 . S
H1572 C1584 0.929 . S
H1573 C1587 0.930 . S
H1574 C1589 0.960 . S
H1575 C1589 0.960 . S
H1576 C1589 0.960 . S
C1577 H1569 0.929 . S
C1577 C1578 1.377 . S
C1577 C1579 1.384 . S
C1578 C1577 1.377 . S
C1578 C1584 1.390 . S
C1579 H1570 0.930 . S
C1579 C1577 1.384 . S
C1579 C1580 1.372 . S
C1580 C1579 1.372 . S
C1580 C1581 1.400 . S
C1580 C1585 1.490 . S
C1581 H1571 0.930 . S
C1581 C1580 1.400 . S
C1581 C1584 1.386 . S
H1582 C1598 0.930 . S
H1583 C1599 0.931 . S
C1584 H1572 0.929 . S
C1584 C1578 1.390 . S
C1584 C1581 1.386 . S
C1585 C1580 1.490 . S
C1585 C1587 1.395 . S
C1585 C1588 1.403 . S
H1586 C1592 0.930 . S
C1587 H1573 0.930 . S
C1587 C1585 1.395 . S
C1587 C1590 1.403 . S
C1588 C1585 1.403 . S
C1588 C1589 1.524 . S
C1588 C1592 1.400 . S
C1589 H1574 0.960 . S
C1589 H1575 0.960 . S
C1589 H1576 0.960 . S
C1589 C1588 1.524 . S
C1590 C1587 1.403 . S
C1590 C1591 1.392 . S
C1590 C1594 1.495 . S
C1591 C1590 1.392 . S
C1591 C1592 1.385 . S
C1591 C1593 1.478 . S
C1592 H1586 0.930 . S
C1592 C1588 1.400 . S
C1592 C1591 1.385 . S
C1593 C1591 1.478 . S
C1593 C1595 1.381 . S
C1593 C1599 1.383 . S
C1594 C1590 1.495 . S
C1594 H1600 0.959 . S
C1594 H1601 0.961 . S
C1594 H1602 0.960 . S
C1595 C1593 1.381 . S
C1595 C1596 1.394 . S
C1595 H1603 0.930 . S
C1596 C1595 1.394 . S
C1596 C1597 1.383 . S
C1596 H1604 0.929 . S
C1597 C1596 1.383 . S
C1597 C1598 1.377 . S
C1598 H1582 0.930 . S
C1598 C1597 1.377 . S
C1598 C1599 1.379 . S
C1599 H1583 0.931 . S
C1599 C1593 1.383 . S
C1599 C1598 1.379 . S
H1600 C1594 0.959 . S
H1601 C1594 0.961 . S
H1602 C1594 0.960 . S
H1603 C1595 0.930 . S
H1604 C1596 0.929 . S
H1605 C1613 0.929 . S
H1606 C1615 0.930 . S
H1607 C1617 0.930 . S
H1608 C1620 0.929 . S
H1609 C1623 0.930 . S
H1610 C1625 0.960 . S
H1611 C1625 0.960 . S
H1612 C1625 0.960 . S
C1613 H1605 0.929 . S
C1613 C1614 1.377 . S
C1613 C1615 1.384 . S
C1614 C1613 1.377 . S
C1614 C1620 1.390 . S
C1615 H1606 0.930 . S
C1615 C1613 1.384 . S
C1615 C1616 1.372 . S
C1616 C1615 1.372 . S
C1616 C1617 1.400 . S
C1616 C1621 1.490 . S
C1617 H1607 0.930 . S
C1617 C1616 1.400 . S
C1617 C1620 1.386 . S
H1618 C1634 0.930 . S
H1619 C1635 0.931 . S
C1620 H1608 0.929 . S
C1620 C1614 1.390 . S
C1620 C1617 1.386 . S
C1621 C1616 1.490 . S
C1621 C1623 1.395 . S
C1621 C1624 1.403 . S
H1622 C1628 0.930 . S
C1623 H1609 0.930 . S
C1623 C1621 1.395 . S
C1623 C1626 1.403 . S
C1624 C1621 1.403 . S
C1624 C1625 1.524 . S
C1624 C1628 1.400 . S
C1625 H1610 0.960 . S
C1625 H1611 0.960 . S
C1625 H1612 0.960 . S
C1625 C1624 1.524 . S
C1626 C1623 1.403 . S
C1626 C1627 1.392 . S
C1626 C1630 1.495 . S
C1627 C1626 1.392 . S
C1627 C1628 1.385 . S
C1627 C1629 1.478 . S
C1628 H1622 0.930 . S
C1628 C1624 1.400 . S
C1628 C1627 1.385 . S
C1629 C1627 1.478 . S
C1629 C1631 1.381 . S
C1629 C1635 1.383 . S
C1630 C1626 1.495 . S
C1630 H1636 0.959 . S
C1630 H1637 0.961 . S
C1630 H1638 0.960 . S
C1631 C1629 1.381 . S
C1631 C1632 1.394 . S
C1631 H1639 0.930 . S
C1632 C1631 1.394 . S
C1632 C1633 1.383 . S
C1632 H1640 0.929 . S
C1633 C1632 1.383 . S
C1633 C1634 1.377 . S
C1634 H1618 0.930 . S
C1634 C1633 1.377 . S
C1634 C1635 1.379 . S
C1635 H1619 0.931 . S
C1635 C1629 1.383 . S
C1635 C1634 1.379 . S
H1636 C1630 0.959 . S
H1637 C1630 0.961 . S
H1638 C1630 0.960 . S
H1639 C1631 0.930 . S
H1640 C1632 0.929 . S
C786 C11 1.382 . S
C805 C684 1.714 . S
C822 C125 1.211 . S
C841 C716 1.670 . S
C877 C775 2.148 . S
C858 C239 1.572 . S
C913 C704 1.346 . S
C894 C343 1.192 . S
C930 C485 1.215 . S
C949 C734 1.614 . S
C985 C756 1.002 . S
C966 C571 0.928 . S
C1021 C725 1.709 . S
C1002 C257 1.209 . S
C1038 C397 0.761 . S
C1057 C765 1.205 . S
C1093 C714 1.691 . S
C1074 C467 1.255 . S
C1110 C625 1.132 . S
C1129 C744 1.635 . S
C1146 C29 1.594 . S
C1165 C747 2.016 . S
C1201 C686 1.667 . S
C1182 C143 1.231 . S
C1237 C694 1.503 . S
C1218 C371 1.319 . S
C1273 C735 1.418 . S
C1254 C457 1.098 . S
C1309 C748 2.025 . S
C1290 C599 1.788 . S
C1345 C685 1.568 . S
C1326 C55 1.280 . S
C1381 C745 1.526 . S
C1362 C169 1.300 . S
C1398 C283 0.905 . S
C1417 C746 1.071 . S
C1453 C715 1.533 . S
C1434 C581 0.953 . S
C1489 C776 0.874 . S
C1470 C1 0.793 . S
C1525 C703 1.309 . S
C1506 C115 1.028 . S
C1561 C717 1.423 . S
C1542 C229 1.080 . S
C1578 C353 1.247 . S
C1597 C766 2.022 . S
C1614 C511 1.370 . S
C1633 C713 1.711 . S
