# Generated by pormake.
# Topology pts, (4,4)-cn, num edge types: 1
# Building blocks:
#     Node 0, Type 0, BuildingBlock: GIZVER_clean_linker_0, # of connection points: 4
#     Node 1, Type 0, BuildingBlock: GIZVER_clean_linker_0, # of connection points: 4
#     Node 2, Type 1, BuildingBlock: QUQFOY_clean_sbu_1, # of connection points: 4
#     Node 3, Type 1, BuildingBlock: QUQFOY_clean_sbu_1, # of connection points: 4
#     Edge 4, Type (0, 1), BuildingBlock: ZUJKAS_clean_linker_0, # of connection points: 2
#     Edge 5, Type (0, 1), BuildingBlock: ZUJKAS_clean_linker_0, # of connection points: 2
#     Edge 6, Type (0, 1), BuildingBlock: ZUJKAS_clean_linker_0, # of connection points: 2
#     Edge 7, Type (0, 1), BuildingBlock: ZUJKAS_clean_linker_0, # of connection points: 2
#     Edge 8, Type (0, 1), BuildingBlock: ZUJKAS_clean_linker_0, # of connection points: 2
#     Edge 9, Type (0, 1), BuildingBlock: ZUJKAS_clean_linker_0, # of connection points: 2
#     Edge 10, Type (0, 1), BuildingBlock: ZUJKAS_clean_linker_0, # of connection points: 2
#     Edge 11, Type (0, 1), BuildingBlock: ZUJKAS_clean_linker_0, # of connection points: 2
# Relax obj value: 0.105
# Max RMSD: 0.276
# Mean RMSD: 0.184
data_MOF--net-pts--node1-QUQFOY_clean_sbu_1--node2-GIZVER_clean_linker_0--edge1-ZUJKAS_clean_linker_0
_symmetry_space_group_name_H-M    P1
_symmetry_Int_Tables_number       1
_symmetry_cell_setting            triclinic
loop_
_symmetry_equiv_pos_as_xyz
'x, y, z'
_cell_length_a     31.811901
_cell_length_b     34.655304
_cell_length_c     47.123525
_cell_angle_alpha  90.392249
_cell_angle_beta   89.577901
_cell_angle_gamma 90.292291
loop_
_atom_site_label
_atom_site_type_symbol
_atom_site_fract_x
_atom_site_fract_y
_atom_site_fract_z
_atom_type_partial_charge
H0 H 0.55492 0.08642 0.03551 0.0
H1 H 0.55168 0.09044 0.94429 0.0
H2 H 0.65234 0.03191 0.98628 0.0
H3 H 0.5107 0.134 0.01066 0.0
H4 H 0.50772 0.13388 0.97278 0.0
H5 H 0.47374 0.08349 0.03891 0.0
H6 H 0.37069 0.02556 -0.00172 0.0
H7 H 0.45833 0.09231 0.94855 0.0
C8 C 0.56822 0.07841 0.01507 0.0
C9 C 0.60533 0.05674 0.01382 0.0
C10 C 0.54856 0.09037 -0.00995 0.0
C11 C 0.56644 0.0807 0.9636 0.0
C12 C 0.60376 0.05928 0.96205 0.0
C13 C 0.62258 0.04699 0.98726 0.0
C14 C 0.5096 0.11483 -0.00836 0.0
C15 C 0.47102 0.08953 -0.00665 0.0
C16 C 0.45699 0.07566 0.01975 0.0
C17 C 0.42085 0.05247 0.02156 0.0
C18 C 0.39897 0.04302 -0.00326 0.0
C19 C 0.41146 0.05789 0.97031 0.0
C20 C 0.4483 0.08037 0.9687 0.0
H21 H 0.06573 0.5641 0.44188 0.0
H22 H 0.06122 0.56049 0.53319 0.0
H23 H 1.00354 0.65408 0.48853 0.0
H24 H 0.11467 0.5236 0.46844 0.0
H25 H 0.11318 0.52258 0.50627 0.0
H26 H 0.05845 0.48841 0.44033 0.0
H27 H 0.01335 0.38513 0.48046 0.0
H28 H 0.07547 0.47234 0.53015 0.0
C29 C 0.05471 0.57586 0.46195 0.0
C30 C 0.03178 0.61032 0.46235 0.0
C31 C 0.06484 0.55737 0.48747 0.0
C32 C 0.05224 0.57402 0.51348 0.0
C33 C 0.0299 0.60895 0.51412 0.0
C34 C 0.01904 0.62628 0.48838 0.0
C35 C 0.093 0.52247 0.48707 0.0
C36 C 0.06795 0.48539 0.48566 0.0
C37 C 0.05308 0.47165 0.45936 0.0
C38 C 0.03297 0.43557 0.45741 0.0
C39 C 0.02766 0.41353 0.48201 0.0
C40 C 0.04351 0.42606 0.50818 0.0
C41 C 0.06256 0.46262 0.51009 0.0
O42 O 0.95371 0.98932 0.21798 0.0
Cd43 Cd 0.0087 0.97802 0.2392 0.0
Cd44 Cd 0.01065 0.06441 0.23798 0.0
O45 O 0.95559 0.05304 0.21653 0.0
O46 O 0.00604 0.92081 0.24282 0.0
O47 O 0.00788 0.96012 0.2799 0.0
C48 C 0.00625 0.92533 0.26995 0.0
C49 C 0.00958 0.12039 0.26611 0.0
C50 C 0.93758 0.02118 0.21069 0.0
C51 C 0.0847 0.01878 0.21371 0.0
O52 O 0.06802 0.05113 0.21967 0.0
O53 O 0.0658 0.98734 0.21938 0.0
O54 O 0.012 0.12194 0.23887 0.0
O55 O 0.00789 0.08672 0.27765 0.0
O56 O 0.9568 0.05168 0.75503 0.0
Cd57 Cd 0.01402 0.06026 0.73478 0.0
Cd58 Cd 0.01207 0.97504 0.74228 0.0
O59 O 0.95592 0.98861 0.76173 0.0
O60 O 0.01485 0.11761 0.73168 0.0
O61 O 0.01626 0.07907 0.69425 0.0
C62 C 0.01633 0.1137 0.70454 0.0
C63 C 0.01218 0.9212 0.71216 0.0
C64 C 0.9388 0.02147 0.76444 0.0
C65 C 0.0859 0.01988 0.76552 0.0
O66 O 0.06736 0.98751 0.76294 0.0
O67 O 0.06991 0.05045 0.75558 0.0
O68 O 0.01135 0.91767 0.73936 0.0
O69 O 0.01292 0.95567 0.70187 0.0
H70 H 0.40339 0.10056 0.06584 0.0
H71 H 0.35654 0.08721 0.10589 0.0
H72 H 0.34777 0.96795 0.07957 0.0
H73 H 0.3939 0.98154 0.03899 0.0
H74 H 0.27281 1.00047 0.08264 0.0
H75 H 0.35732 0.03525 0.18173 0.0
H76 H 0.3607 0.07395 0.15675 0.0
H77 H 0.3843 0.02812 0.14826 0.0
C78 C 0.39277 0.0712 0.06925 0.0
C79 C 0.40209 0.04208 0.04933 0.0
C80 C 0.36604 0.06354 0.09222 0.0
C81 C 0.34881 0.02649 0.0959 0.0
C82 C 0.36074 0.99672 0.07718 0.0
H83 H 0.12845 0.9553 0.19543 0.0
H84 H 0.19517 0.95409 0.16932 0.0
C85 C 0.38708 1.00446 0.05405 0.0
C86 C 0.31345 0.02045 0.11612 0.0
H87 H 0.28137 0.0359 0.1846 0.0
C88 C 0.27497 1.00748 0.10506 0.0
C89 C 0.31613 0.02997 0.14531 0.0
C90 C 0.35699 0.04223 0.15875 0.0
C91 C 0.23876 1.00515 0.12207 0.0
C92 C 0.24116 0.01573 0.15102 0.0
C93 C 0.27974 0.02788 0.16234 0.0
C94 C 0.20321 0.01609 0.16931 0.0
C95 C 0.19777 0.99292 0.10869 0.0
C96 C 0.18632 0.05133 0.17851 0.0
C97 C 0.14816 0.0522 0.19337 0.0
C98 C 0.12632 0.01775 0.1994 0.0
C99 C 0.14423 0.98238 0.19099 0.0
C100 C 0.18235 0.98159 0.17608 0.0
H101 H 0.19977 0.9923 0.08514 0.0
H102 H 0.18929 0.96351 0.11603 0.0
H103 H 0.17206 1.01272 0.1152 0.0
H104 H 0.20203 0.07825 0.17344 0.0
H105 H 0.13545 0.07992 0.19968 0.0
H106 H 0.06671 0.35087 0.50643 0.0
H107 H 0.06266 0.30346 0.54417 0.0
H108 H 0.02 0.39145 0.60268 0.0
H109 H 0.02253 0.43927 0.56428 0.0
H110 H 0.10248 0.29979 0.59504 0.0
H111 H 0.92912 0.30844 0.61057 0.0
H112 H 0.95554 0.32994 0.58053 0.0
H113 H 0.95769 0.35296 0.61476 0.0
C114 C 0.05604 0.36017 0.52725 0.0
C115 C 0.04399 0.39863 0.53225 0.0
C116 C 0.05409 0.33307 0.54887 0.0
C117 C 0.0403 0.34371 0.5761 0.0
C118 C 0.02986 0.38245 0.58162 0.0
H119 H 0.00647 0.18892 0.72039 0.0
H120 H 0.01275 0.24624 0.69065 0.0
C121 C 0.03169 0.40978 0.55981 0.0
C122 C 0.03665 0.31356 0.59818 0.0
H123 H 0.96535 0.26315 0.63811 0.0
C124 C 0.07255 0.29198 0.60462 0.0
C125 C 0.99752 0.30335 0.61059 0.0
C126 C 0.95763 0.3246 0.60369 0.0
C127 C 0.07024 0.26 0.62266 0.0
C128 C 0.03098 0.24921 0.63441 0.0
C129 C 0.99533 0.2715 0.62885 0.0
C130 C 0.02627 0.21436 0.65211 0.0
C131 C 0.10972 0.23776 0.6289 0.0
C132 C 0.03114 0.17745 0.64009 0.0
C133 C 0.0273 0.14453 0.65697 0.0
C134 C 0.01871 0.1481 0.68616 0.0
C135 C 0.0133 0.18517 0.69799 0.0
C136 C 0.01681 0.21798 0.68107 0.0
H137 H 0.13851 0.25428 0.62309 0.0
H138 H 0.11113 0.23027 0.65175 0.0
H139 H 0.10956 0.21044 0.61648 0.0
H140 H 0.038 0.17415 0.61766 0.0
H141 H 0.03158 0.11641 0.64725 0.0
H142 H 0.63968 0.98764 0.02829 0.0
H143 H 0.68782 0.97519 0.06746 0.0
H144 H 0.67387 0.09291 0.09628 0.0
H145 H 0.62518 0.1052 0.05755 0.0
H146 H 0.76187 1.01037 0.07257 0.0
H147 H 0.66968 0.03702 0.17069 0.0
H148 H 0.64523 0.03033 0.13654 0.0
H149 H 0.66668 0.07662 0.14651 0.0
C150 C 0.64621 1.01055 0.0434 0.0
C151 C 0.62874 0.04737 0.03993 0.0
C152 C 0.67363 1.00342 0.06576 0.0
C153 C 0.68415 0.03298 0.08499 0.0
C154 C 0.6654 0.06935 0.08219 0.0
H155 H 0.89047 0.08342 0.19526 0.0
H156 H 0.82681 0.08334 0.16644 0.0
C157 C 0.63767 0.07639 0.05999 0.0
C158 C 0.71847 0.02726 0.10566 0.0
H159 H 0.74507 0.03886 0.17533 0.0
C160 C 0.75797 0.01598 0.09511 0.0
C161 C 0.71342 0.03479 0.13505 0.0
C162 C 0.67133 0.04498 0.14791 0.0
C163 C 0.79287 1.01326 0.11295 0.0
C164 C 0.78807 0.02185 0.14212 0.0
C165 C 0.74852 0.03243 0.15288 0.0
C166 C 0.8244 0.02131 0.16144 0.0
C167 C 0.835 1.00249 0.10035 0.0
C168 C 0.84355 0.98636 0.16848 0.0
C169 C 0.8799 0.98623 0.18494 0.0
C170 C 0.89777 0.02114 0.19458 0.0
C171 C 0.87773 0.05605 0.18806 0.0
C172 C 0.84127 0.05609 0.17171 0.0
H173 H 0.83473 1.00252 0.07678 0.0
H174 H 0.85975 0.02281 0.10779 0.0
H175 H 0.84362 0.97314 0.10748 0.0
H176 H 0.83074 0.95922 0.16083 0.0
H177 H 0.89439 0.95882 0.18965 0.0
H178 H 0.08503 0.61938 0.55778 0.0
H179 H 0.0794 0.66593 0.59678 0.0
H180 H 0.95522 0.69684 0.56901 0.0
H181 H 0.9599 0.64919 0.53073 0.0
H182 H 0.073 0.742 0.58741 0.0
H183 H 0.93833 0.69489 0.65386 0.0
H184 H 0.96343 0.66334 0.6283 0.0
H185 H 0.92507 0.69791 0.61701 0.0
C186 C 0.05585 0.63494 0.56064 0.0
C187 C 0.02296 0.63066 0.54107 0.0
C188 C 0.05284 0.66184 0.58279 0.0
C189 C 0.01687 0.68485 0.58588 0.0
C190 C 0.98301 0.67903 0.56739 0.0
H191 H 0.00939 0.91796 0.65404 0.0
H192 H 0.01043 0.86017 0.62383 0.0
C193 C 0.9859 0.652 0.54533 0.0
C194 C 0.01676 0.71791 0.60608 0.0
H195 H 0.96038 0.76084 0.65942 0.0
C196 C 0.04861 0.74589 0.60336 0.0
C197 C 0.98506 0.72292 0.62697 0.0
C198 C 0.95128 0.69296 0.63194 0.0
C199 C 0.04916 0.77911 0.62053 0.0
C200 C 0.01643 0.78497 0.64055 0.0
C201 C 0.98512 0.75657 0.64377 0.0
C202 C 0.01461 0.82006 0.65871 0.0
C203 C 0.08509 0.80739 0.61727 0.0
C204 C 0.01539 0.81664 0.68833 0.0
C205 C 0.01442 0.84953 0.70561 0.0
C206 C 0.01256 0.88655 0.69361 0.0
C207 C 0.01116 0.8899 0.66393 0.0
C208 C 0.01197 0.85691 0.64664 0.0
H209 H 0.11288 0.79379 0.60695 0.0
H210 H 0.07496 0.83165 0.60373 0.0
H211 H 0.09475 0.81937 0.63815 0.0
H212 H 0.01727 0.78849 0.69809 0.0
H213 H 0.01543 0.84589 0.72841 0.0
H214 H 0.32584 0.06056 0.96966 0.0
H215 H 0.27927 0.0528 0.92951 0.0
H216 H 0.3862 0.04035 0.87342 0.0
H217 H 0.43353 0.04565 0.91417 0.0
H218 H 0.27249 0.09793 0.8846 0.0
H219 H 0.31411 0.94943 0.84936 0.0
H220 H 0.33095 0.96927 0.88292 0.0
H221 H 0.35714 0.98314 0.85062 0.0
C222 C 0.33969 0.05512 0.94897 0.0
C223 C 0.38356 0.05299 0.9453 0.0
C224 C 0.31291 0.05118 0.92591 0.0
C225 C 0.32914 0.04552 0.89848 0.0
C226 C 0.37292 0.04389 0.89449 0.0
H227 H 0.14599 0.07623 0.76187 0.0
H228 H 0.21001 0.08255 0.78997 0.0
C229 C 0.39994 0.0474 0.91775 0.0
C230 C 0.29953 0.04271 0.87437 0.0
H231 H 0.26239 0.98167 0.82307 0.0
C232 C 0.27045 0.07262 0.87098 0.0
C233 C 0.29682 1.00955 0.85679 0.0
C234 C 0.32614 0.97582 0.86015 0.0
C235 C 0.23766 0.06971 0.85139 0.0
C236 C 0.23481 0.03653 0.83379 0.0
C237 C 0.26479 1.00716 0.83645 0.0
C238 C 0.19905 0.03052 0.81417 0.0
C239 C 0.20515 0.10133 0.85093 0.0
C240 C 0.17288 0.99805 0.81727 0.0
C241 C 0.13679 0.99391 0.80078 0.0
C242 C 0.12598 0.02243 0.78111 0.0
C243 C 0.15312 0.05413 0.77722 0.0
C244 C 0.18962 0.05786 0.79335 0.0
H245 H 0.20584 0.11921 0.87059 0.0
H246 H 0.21168 0.12066 0.83274 0.0
H247 H 0.17299 0.0892 0.84853 0.0
H248 H 0.17961 0.97649 0.83312 0.0
H249 H 0.11657 0.9691 0.80419 0.0
H250 H 0.96102 0.39768 0.44225 0.0
H251 H 0.9542 0.35071 0.40356 0.0
H252 H 0.0762 0.38417 0.37143 0.0
H253 H 0.08374 0.43046 0.41059 0.0
H254 H 0.96039 0.34781 0.34361 0.0
H255 H 0.09119 0.27141 0.39667 0.0
H256 H 0.06429 0.31168 0.4129 0.0
H257 H 0.10311 0.31979 0.38566 0.0
C258 C 0.98587 0.39577 0.42646 0.0
C259 C 0.0232 0.41724 0.42968 0.0
C260 C 0.98192 0.36897 0.40437 0.0
C261 C 0.01518 0.36329 0.38513 0.0
C262 C 0.05053 0.38765 0.38645 0.0
H263 H 0.01621 0.19436 0.2471 0.0
H264 H 0.01632 0.25384 0.27514 0.0
C265 C 0.05458 0.41442 0.40863 0.0
C266 C 0.01492 0.32888 0.36629 0.0
H267 H 0.06361 0.24236 0.35552 0.0
C268 C 0.98309 0.32483 0.34602 0.0
C269 C 0.04399 0.29856 0.37003 0.0
C270 C 0.07738 0.30023 0.39264 0.0
C271 C 0.97973 0.2913 0.32922 0.0
C272 C 0.00936 0.26135 0.33258 0.0
C273 C 0.04107 0.26543 0.35291 0.0
C274 C 0.00798 0.22529 0.31548 0.0
C275 C 0.94382 0.28778 0.3086 0.0
C276 C 1.00427 0.18934 0.32891 0.0
C277 C 1.00462 0.15515 0.31295 0.0
C278 C 0.00886 0.15634 0.28327 0.0
C279 C 0.01265 0.19241 0.26992 0.0
C280 C 0.0124 0.22651 0.28588 0.0
H281 H 0.91799 0.30809 0.31394 0.0
H282 H 0.9554 0.2947 0.28695 0.0
H283 H 0.9309 0.25795 0.30825 0.0
H284 H 1.0011 0.18776 0.35178 0.0
H285 H 1.00167 0.12785 0.32386 0.0
H286 H 0.61841 0.11193 0.92028 0.0
H287 H 0.66594 0.10511 0.87951 0.0
H288 H 0.6888 0.98668 0.90199 0.0
H289 H 0.64073 0.99308 0.94249 0.0
H290 H 0.75072 0.08699 0.88861 0.0
H291 H 0.67706 0.98135 0.81503 0.0
H292 H 0.64735 1.00754 0.84166 0.0
H293 H 0.67794 0.96631 0.85143 0.0
C294 C 0.63242 0.08406 0.91597 0.0
C295 C 0.62597 0.05305 0.93462 0.0
C296 C 0.65973 0.08028 0.89277 0.0
C297 C 0.68064 0.04534 0.88763 0.0
C298 C 0.67245 0.0137 0.90528 0.0
H299 H 0.89654 0.96562 0.79418 0.0
H300 H 0.83178 0.97284 0.82193 0.0
C301 C 0.64529 0.0175 0.92855 0.0
C302 C 0.71512 0.04345 0.86641 0.0
H303 H 0.75028 0.99422 0.80797 0.0
C304 C 0.75043 0.06712 0.87072 0.0
C305 C 0.71474 0.01716 0.84335 0.0
C306 C 0.6771 0.99184 0.83737 0.0
C307 C 0.78603 0.06437 0.85314 0.0
C308 C 0.78587 0.03786 0.83016 0.0
C309 C 0.75026 0.01458 0.82556 0.0
C310 C 0.82312 0.03295 0.81145 0.0
C311 C 0.82412 0.08875 0.86009 0.0
C312 C 0.83913 0.06411 0.79581 0.0
C313 C 0.87636 0.06022 0.78016 0.0
C314 C 0.89798 0.0249 0.77956 0.0
C315 C 0.88082 0.99327 0.79427 0.0
C316 C 0.84374 0.99729 0.81009 0.0
H317 H 0.82292 0.10002 0.88221 0.0
H318 H 0.85353 0.07199 0.85725 0.0
H319 H 0.82544 0.11383 0.8456 0.0
H320 H 0.82318 0.09164 0.79608 0.0
H321 H 0.88839 0.08504 0.76879 0.0
H322 H 0.95808 0.63591 0.44055 0.0
H323 H 0.94944 0.68393 0.40313 0.0
H324 H 0.084 0.68739 0.39069 0.0
H325 H 0.0923 0.63808 0.42705 0.0
H326 H 0.9751 0.75439 0.40565 0.0
H327 H 0.0486 0.68936 0.31035 0.0
H328 H 0.0364 0.66143 0.34153 0.0
H329 H 0.08434 0.68929 0.33954 0.0
C330 C 0.98556 0.64605 0.42905 0.0
C331 C 0.02577 0.63308 0.43631 0.0
C332 C 0.98069 0.67362 0.40784 0.0
C333 C 0.01601 0.68913 0.39381 0.0
C334 C 0.05613 0.67517 0.4005 0.0
H335 H 0.02881 0.92132 0.32582 0.0
H336 H 0.02985 0.86382 0.35573 0.0
C337 C 0.06091 0.64704 0.42133 0.0
C338 C 0.01129 0.72263 0.37455 0.0
H339 H 0.04165 0.7585 0.31028 0.0
C340 C 0.9892 0.75503 0.38463 0.0
C341 C 0.02923 0.72351 0.34699 0.0
C342 C 0.05055 0.68884 0.33388 0.0
C343 C 0.98531 0.78846 0.36824 0.0
C344 C 0.00548 0.7902 0.34141 0.0
C345 C 0.02672 0.75748 0.33103 0.0
C346 C 1.00459 0.82538 0.32356 0.0
C347 C 0.959 0.82122 0.37975 0.0
C348 C 0.99134 0.82281 0.29526 0.0
C349 C 0.99171 0.85539 0.278 0.0
C350 C 1.00495 0.89136 0.28873 0.0
C351 C 0.01795 0.89408 0.31709 0.0
C352 C 0.01828 0.86126 0.33425 0.0
H353 H 0.93522 0.81079 0.39534 0.0
H354 H 0.97967 0.8422 0.39088 0.0
H355 H 0.94243 0.83647 0.3625 0.0
H356 H 0.98072 0.79551 0.28648 0.0
H357 H 0.98144 0.85239 0.25622 0.0
loop_
_geom_bond_atom_site_label_1
_geom_bond_atom_site_label_2
_geom_bond_distance
_geom_bond_site_symmetry_2
_ccdc_geom_bond_type
H0 C8 0.930 . S
H1 C11 0.930 . S
H2 C13 0.930 1_565 S
H3 C14 0.970 . S
H4 C14 0.970 1_556 S
H5 C16 0.930 . S
H6 C18 0.930 1_565 S
H7 C20 0.930 . S
C8 H0 0.930 . S
C8 C9 1.382 . S
C8 C10 1.426 . S
C9 C8 1.382 . S
C9 C13 1.389 . S
C10 C8 1.426 . S
C10 C11 1.375 1_554 S
C10 C14 1.532 . S
C11 H1 0.930 . S
C11 C10 1.375 1_556 S
C11 C12 1.416 . S
C12 C11 1.416 . S
C12 C13 1.371 1_556 S
C13 H2 0.930 1_545 S
C13 C9 1.389 . S
C13 C12 1.371 1_554 S
C14 H3 0.970 . S
C14 H4 0.970 1_554 S
C14 C10 1.532 . S
C14 C15 1.499 . S
C15 C14 1.499 . S
C15 C16 1.370 . S
C15 C20 1.415 1_554 S
C16 H5 0.930 . S
C16 C15 1.370 . S
C16 C17 1.407 . S
C17 C16 1.407 . S
C17 C18 1.365 . S
C18 H6 0.930 1_545 S
C18 C17 1.365 . S
C18 C19 1.393 1_554 S
C19 C18 1.393 1_556 S
C19 C20 1.387 . S
C20 H7 0.930 . S
C20 C15 1.415 1_556 S
C20 C19 1.387 . S
H21 C29 0.930 . S
H22 C32 0.930 . S
H23 C34 0.930 1_655 S
H24 C35 0.970 . S
H25 C35 0.970 . S
H26 C37 0.930 . S
H27 C39 0.930 1_655 S
H28 C41 0.930 . S
C29 H21 0.930 . S
C29 C30 1.382 . S
C29 C31 1.426 . S
C30 C29 1.382 . S
C30 C34 1.389 . S
C31 C29 1.426 . S
C31 C32 1.375 . S
C31 C35 1.532 . S
C32 H22 0.930 . S
C32 C31 1.375 . S
C32 C33 1.416 . S
C33 C32 1.416 . S
C33 C34 1.371 . S
C34 H23 0.930 1_455 S
C34 C30 1.389 . S
C34 C33 1.371 . S
C35 H24 0.970 . S
C35 H25 0.970 . S
C35 C31 1.532 . S
C35 C36 1.499 . S
C36 C35 1.499 . S
C36 C37 1.370 . S
C36 C41 1.415 . S
C37 H26 0.930 . S
C37 C36 1.370 . S
C37 C38 1.407 . S
C38 C37 1.407 . S
C38 C39 1.365 . S
C39 H27 0.930 1_455 S
C39 C38 1.365 . S
C39 C40 1.393 . S
C40 C39 1.393 . S
C40 C41 1.387 . S
C41 H28 0.930 . S
C41 C36 1.415 . S
C41 C40 1.387 . S
O42 Cd43 2.223 1_655 S
O42 C50 1.315 . S
Cd43 O42 2.223 1_455 S
Cd43 O46 2.297 1_455 S
Cd43 O47 2.439 1_455 S
Cd43 O53 2.240 1_565 S
Cd44 O45 2.240 . S
Cd44 O52 2.223 1_655 S
Cd44 O54 2.297 1_655 S
Cd44 O55 2.439 1_655 S
O45 Cd44 2.240 . S
O45 C50 1.279 1_545 S
O46 Cd43 2.297 1_655 S
O46 C48 1.247 . S
O47 Cd43 2.439 1_655 S
O47 C48 1.208 . S
C48 O46 1.247 . S
C48 O47 1.208 . S
C49 O54 1.247 . S
C49 O55 1.208 . S
C50 O42 1.315 . S
C50 O45 1.279 1_565 S
C51 O52 1.315 . S
C51 O53 1.279 . S
O52 Cd44 2.223 1_455 S
O52 C51 1.315 . S
O53 Cd43 2.240 1_545 S
O53 C51 1.279 . S
O54 Cd44 2.297 1_455 S
O54 C49 1.247 . S
O55 Cd44 2.439 1_455 S
O55 C49 1.208 . S
O56 Cd57 2.223 1_655 S
O56 C64 1.315 . S
Cd57 O56 2.223 1_455 S
Cd57 O60 2.297 1_455 S
Cd57 O61 2.439 1_455 S
Cd57 O67 2.240 . S
Cd58 O59 2.240 1_565 S
Cd58 O66 2.223 1_655 S
Cd58 O68 2.297 1_655 S
Cd58 O69 2.439 1_655 S
O59 Cd58 2.240 1_545 S
O59 C64 1.279 . S
O60 Cd57 2.297 1_655 S
O60 C62 1.247 . S
O61 Cd57 2.439 1_655 S
O61 C62 1.208 . S
C62 O60 1.247 . S
C62 O61 1.208 . S
C63 O68 1.247 . S
C63 O69 1.208 . S
C64 O56 1.315 . S
C64 O59 1.279 . S
C65 O66 1.315 . S
C65 O67 1.279 1_565 S
O66 Cd58 2.223 1_455 S
O66 C65 1.315 . S
O67 Cd57 2.240 . S
O67 C65 1.279 1_545 S
O68 Cd58 2.297 1_455 S
O68 C63 1.247 . S
O69 Cd58 2.439 1_455 S
O69 C63 1.208 . S
H70 C78 0.929 . S
H71 C80 0.930 . S
H72 C82 0.930 1_565 S
H73 C85 0.929 . S
H74 C88 0.918 1_565 S
H75 C90 0.960 . S
H76 C90 0.960 . S
H77 C90 0.960 . S
C78 H70 0.929 . S
C78 C79 1.377 . S
C78 C80 1.384 . S
C79 C78 1.377 . S
C79 C85 1.390 1_545 S
C80 H71 0.930 . S
C80 C78 1.384 . S
C80 C81 1.372 . S
C81 C80 1.372 . S
C81 C82 1.400 . S
C81 C86 1.490 . S
C82 H72 0.930 1_545 S
C82 C81 1.400 . S
C82 C85 1.386 1_545 S
H83 C99 0.930 . S
H84 C100 0.931 1_565 S
C85 H73 0.929 . S
C85 C79 1.390 1_565 S
C85 C82 1.386 1_565 S
C86 C81 1.490 . S
C86 C88 1.406 . S
C86 C89 1.403 . S
H87 C93 0.930 . S
C88 H74 0.918 1_545 S
C88 C86 1.406 . S
C88 C91 1.404 . S
C89 C86 1.403 . S
C89 C90 1.524 . S
C89 C93 1.400 . S
C90 H75 0.960 . S
C90 H76 0.960 . S
C90 H77 0.960 . S
C90 C89 1.524 . S
C91 C88 1.404 . S
C91 C92 1.392 . S
C91 C95 1.495 1_545 S
C92 C91 1.392 . S
C92 C93 1.385 . S
C92 C94 1.478 . S
C93 H87 0.930 . S
C93 C89 1.400 . S
C93 C92 1.385 . S
C94 C92 1.478 . S
C94 C96 1.381 . S
C94 C100 1.383 . S
C95 C91 1.495 1_565 S
C95 H101 0.959 . S
C95 H102 0.961 . S
C95 H103 0.960 . S
C96 C94 1.381 . S
C96 C97 1.394 . S
C96 H104 0.930 . S
C97 C96 1.394 . S
C97 C98 1.383 . S
C97 H105 0.929 . S
C98 C97 1.383 . S
C98 C99 1.377 . S
C99 H83 0.930 . S
C99 C98 1.377 . S
C99 C100 1.379 . S
C100 H84 0.931 1_545 S
C100 C94 1.383 . S
C100 C99 1.379 . S
H101 C95 0.959 . S
H102 C95 0.961 . S
H103 C95 0.960 . S
H104 C96 0.930 . S
H105 C97 0.929 . S
H106 C114 0.929 1_655 S
H107 C116 0.930 . S
H108 C118 0.930 . S
H109 C121 0.929 . S
H110 C124 0.930 . S
H111 C126 0.960 . S
H112 C126 0.960 . S
H113 C126 0.960 . S
C114 H106 0.929 1_455 S
C114 C115 1.377 . S
C114 C116 1.384 1_455 S
C115 C114 1.377 . S
C115 C121 1.390 . S
C116 H107 0.930 . S
C116 C114 1.384 1_655 S
C116 C117 1.372 1_655 S
C117 C116 1.372 1_455 S
C117 C118 1.400 . S
C117 C122 1.490 . S
C118 H108 0.930 . S
C118 C117 1.400 . S
C118 C121 1.386 . S
H119 C135 0.930 1_455 S
H120 C136 0.931 . S
C121 H109 0.929 . S
C121 C115 1.390 . S
C121 C118 1.386 . S
C122 C117 1.490 . S
C122 C124 1.400 . S
C122 C125 1.397 1_455 S
H123 C129 0.930 . S
C124 H110 0.930 . S
C124 C122 1.400 . S
C124 C127 1.403 . S
C125 C122 1.397 1_655 S
C125 C126 1.524 . S
C125 C129 1.400 . S
C126 H111 0.960 . S
C126 H112 0.960 . S
C126 H113 0.960 . S
C126 C125 1.524 . S
C127 C124 1.403 . S
C127 C128 1.373 1_455 S
C127 C131 1.495 . S
C128 C127 1.373 1_655 S
C128 C129 1.404 . S
C128 C130 1.479 . S
C129 H123 0.930 . S
C129 C125 1.400 . S
C129 C128 1.404 . S
C130 C128 1.479 . S
C130 C132 1.381 . S
C130 C136 1.383 1_655 S
C131 C127 1.495 . S
C131 H137 0.959 . S
C131 H138 0.961 . S
C131 H139 0.960 . S
C132 C130 1.381 . S
C132 C133 1.394 . S
C132 H140 0.930 . S
C133 C132 1.394 . S
C133 C134 1.383 . S
C133 H141 0.929 . S
C134 C133 1.383 . S
C134 C135 1.377 . S
C135 H119 0.930 1_655 S
C135 C134 1.377 . S
C135 C136 1.379 1_655 S
C136 H120 0.931 . S
C136 C130 1.383 1_455 S
C136 C135 1.379 1_455 S
H137 C131 0.959 . S
H138 C131 0.961 . S
H139 C131 0.960 . S
H140 C132 0.930 . S
H141 C133 0.929 . S
H142 C150 0.929 . S
H143 C152 0.930 . S
H144 C154 0.930 . S
H145 C157 0.929 . S
H146 C160 0.930 . S
H147 C162 0.960 . S
H148 C162 0.960 . S
H149 C162 0.960 1_545 S
C150 H142 0.929 . S
C150 C151 1.377 1_565 S
C150 C152 1.384 . S
C151 C150 1.377 1_545 S
C151 C157 1.390 . S
C152 H143 0.930 . S
C152 C150 1.384 . S
C152 C153 1.372 1_565 S
C153 C152 1.372 1_545 S
C153 C154 1.400 . S
C153 C158 1.490 . S
C154 H144 0.930 . S
C154 C153 1.400 . S
C154 C157 1.386 . S
H155 C171 0.930 . S
H156 C172 0.931 . S
C157 H145 0.929 . S
C157 C151 1.390 . S
C157 C154 1.386 . S
C158 C153 1.490 . S
C158 C160 1.395 . S
C158 C161 1.403 . S
H159 C165 0.934 . S
C160 H146 0.930 . S
C160 C158 1.395 . S
C160 C163 1.403 . S
C161 C158 1.403 . S
C161 C162 1.524 1_545 S
C161 C165 1.399 1_545 S
C162 H147 0.960 . S
C162 H148 0.960 . S
C162 H149 0.960 1_565 S
C162 C161 1.524 1_565 S
C163 C160 1.403 . S
C163 C164 1.392 . S
C163 C167 1.495 . S
C164 C163 1.392 . S
C164 C165 1.383 1_545 S
C164 C166 1.478 . S
C165 H159 0.934 . S
C165 C161 1.399 1_565 S
C165 C164 1.383 1_565 S
C166 C164 1.478 . S
C166 C168 1.369 1_545 S
C166 C172 1.394 . S
C167 C163 1.495 . S
C167 H173 0.959 . S
C167 H174 0.961 . S
C167 H175 0.960 1_545 S
C168 C166 1.369 1_565 S
C168 C169 1.394 . S
C168 H176 0.930 . S
C169 C168 1.394 . S
C169 C170 1.383 . S
C169 H177 0.929 . S
C170 C169 1.383 . S
C170 C171 1.377 1_565 S
C171 H155 0.930 . S
C171 C170 1.377 1_545 S
C171 C172 1.379 . S
C172 H156 0.931 . S
C172 C166 1.394 . S
C172 C171 1.379 . S
H173 C167 0.959 . S
H174 C167 0.961 . S
H175 C167 0.960 1_565 S
H176 C168 0.930 . S
H177 C169 0.929 . S
H178 C186 0.929 . S
H179 C188 0.930 . S
H180 C190 0.930 . S
H181 C193 0.929 . S
H182 C196 0.930 . S
H183 C198 0.960 . S
H184 C198 0.960 1_455 S
H185 C198 0.960 . S
C186 H178 0.929 . S
C186 C187 1.377 . S
C186 C188 1.384 . S
C187 C186 1.377 . S
C187 C193 1.390 1_455 S
C188 H179 0.930 . S
C188 C186 1.384 . S
C188 C189 1.372 . S
C189 C188 1.372 . S
C189 C190 1.400 1_455 S
C189 C194 1.490 . S
C190 H180 0.930 . S
C190 C189 1.400 1_655 S
C190 C193 1.386 . S
H191 C207 0.927 . S
H192 C208 0.931 . S
C193 H181 0.929 . S
C193 C187 1.390 1_655 S
C193 C190 1.386 . S
C194 C189 1.490 . S
C194 C196 1.395 . S
C194 C197 1.403 . S
H195 C201 0.930 1_655 S
C196 H182 0.930 . S
C196 C194 1.395 . S
C196 C199 1.403 . S
C197 C194 1.403 . S
C197 C198 1.524 1_455 S
C197 C201 1.400 . S
C198 H183 0.960 . S
C198 H184 0.960 1_655 S
C198 H185 0.960 . S
C198 C197 1.524 1_655 S
C199 C196 1.403 . S
C199 C200 1.392 . S
C199 C203 1.495 . S
C200 C199 1.392 . S
C200 C201 1.385 . S
C200 C202 1.478 . S
C201 H195 0.930 1_455 S
C201 C197 1.400 . S
C201 C200 1.385 . S
C202 C200 1.478 . S
C202 C204 1.381 . S
C202 C208 1.383 1_455 S
C203 C199 1.495 . S
C203 H209 0.959 . S
C203 H210 0.961 . S
C203 H211 0.960 . S
C204 C202 1.381 . S
C204 C205 1.394 . S
C204 H212 0.930 . S
C205 C204 1.394 . S
C205 C206 1.383 . S
C205 H213 0.929 . S
C206 C205 1.383 . S
C206 C207 1.379 1_455 S
C207 H191 0.927 . S
C207 C206 1.379 1_655 S
C207 C208 1.379 . S
C208 H192 0.931 . S
C208 C202 1.383 1_655 S
C208 C207 1.379 . S
H209 C203 0.959 . S
H210 C203 0.961 . S
H211 C203 0.960 . S
H212 C204 0.930 . S
H213 C205 0.929 . S
H214 C222 0.929 . S
H215 C224 0.930 . S
H216 C226 0.930 1_565 S
H217 C229 0.929 . S
H218 C232 0.930 . S
H219 C234 0.960 . S
H220 C234 0.960 . S
H221 C234 0.960 . S
C222 H214 0.929 . S
C222 C223 1.377 . S
C222 C224 1.384 . S
C223 C222 1.377 . S
C223 C229 1.390 . S
C224 H215 0.930 . S
C224 C222 1.384 . S
C224 C225 1.372 . S
C225 C224 1.372 . S
C225 C226 1.400 . S
C225 C230 1.490 . S
C226 H216 0.930 1_545 S
C226 C225 1.400 . S
C226 C229 1.386 . S
H227 C243 0.930 . S
H228 C244 0.931 . S
C229 H217 0.929 . S
C229 C223 1.390 . S
C229 C226 1.386 . S
C230 C225 1.490 . S
C230 C232 1.395 . S
C230 C233 1.403 1_545 S
H231 C237 0.930 . S
C232 H218 0.930 . S
C232 C230 1.395 . S
C232 C235 1.403 . S
C233 C230 1.403 1_565 S
C233 C234 1.524 . S
C233 C237 1.400 . S
C234 H219 0.960 . S
C234 H220 0.960 . S
C234 H221 0.960 . S
C234 C233 1.524 . S
C235 C232 1.403 . S
C235 C236 1.392 . S
C235 C239 1.495 . S
C236 C235 1.392 . S
C236 C237 1.385 1_545 S
C236 C238 1.478 . S
C237 H231 0.930 . S
C237 C233 1.400 . S
C237 C236 1.385 1_565 S
C238 C236 1.478 . S
C238 C240 1.381 . S
C238 C244 1.383 . S
C239 C235 1.495 . S
C239 H245 0.959 . S
C239 H246 0.961 . S
C239 H247 0.960 . S
C240 C238 1.381 . S
C240 C241 1.394 . S
C240 H248 0.930 . S
C241 C240 1.394 . S
C241 C242 1.383 1_545 S
C241 H249 0.929 . S
C242 C241 1.383 1_565 S
C242 C243 1.377 . S
C243 H227 0.930 . S
C243 C242 1.377 . S
C243 C244 1.379 1_565 S
C244 H228 0.931 . S
C244 C238 1.383 . S
C244 C243 1.379 1_545 S
H245 C239 0.959 . S
H246 C239 0.961 . S
H247 C239 0.960 . S
H248 C240 0.930 . S
H249 C241 0.929 . S
H250 C258 0.929 . S
H251 C260 0.930 . S
H252 C262 0.930 . S
H253 C265 0.929 . S
H254 C268 0.930 . S
H255 C270 0.960 . S
H256 C270 0.960 . S
H257 C270 0.960 . S
C258 H250 0.929 . S
C258 C259 1.377 1_655 S
C258 C260 1.384 . S
C259 C258 1.377 1_455 S
C259 C265 1.390 . S
C260 H251 0.930 . S
C260 C258 1.384 . S
C260 C261 1.372 1_655 S
C261 C260 1.372 1_455 S
C261 C262 1.400 . S
C261 C266 1.490 . S
C262 H252 0.930 . S
C262 C261 1.400 . S
C262 C265 1.386 . S
H263 C279 0.930 . S
H264 C280 0.931 . S
C265 H253 0.929 . S
C265 C259 1.390 . S
C265 C262 1.386 . S
C266 C261 1.490 . S
C266 C268 1.395 1_455 S
C266 C269 1.403 . S
H267 C273 0.930 . S
C268 H254 0.930 . S
C268 C266 1.395 1_655 S
C268 C271 1.403 . S
C269 C266 1.403 . S
C269 C270 1.524 . S
C269 C273 1.400 . S
C270 H255 0.960 . S
C270 H256 0.960 . S
C270 H257 0.960 . S
C270 C269 1.524 . S
C271 C268 1.403 . S
C271 C272 1.392 1_655 S
C271 C275 1.495 . S
C272 C271 1.392 1_455 S
C272 C273 1.385 . S
C272 C274 1.478 . S
C273 H267 0.930 . S
C273 C269 1.400 . S
C273 C272 1.385 . S
C274 C272 1.478 . S
C274 C276 1.381 . S
C274 C280 1.383 . S
C275 C271 1.495 . S
C275 H281 0.959 . S
C275 H282 0.961 . S
C275 H283 0.960 . S
C276 C274 1.381 . S
C276 C277 1.394 . S
C276 H284 0.930 1_455 S
C277 C276 1.394 . S
C277 C278 1.383 . S
C277 H285 0.929 . S
C278 C277 1.383 . S
C278 C279 1.377 . S
C279 H263 0.930 . S
C279 C278 1.377 . S
C279 C280 1.379 . S
C280 H264 0.931 . S
C280 C274 1.383 . S
C280 C279 1.379 . S
H281 C275 0.959 . S
H282 C275 0.961 . S
H283 C275 0.960 . S
H284 C276 0.930 1_655 S
H285 C277 0.929 . S
H286 C294 0.929 . S
H287 C296 0.930 . S
H288 C298 0.930 . S
H289 C301 0.929 . S
H290 C304 0.930 . S
H291 C306 0.960 . S
H292 C306 0.960 1_545 S
H293 C306 0.960 . S
C294 H286 0.929 . S
C294 C295 1.377 . S
C294 C296 1.384 . S
C295 C294 1.377 . S
C295 C301 1.390 1_545 S
C296 H287 0.930 . S
C296 C294 1.384 . S
C296 C297 1.372 . S
C297 C296 1.372 . S
C297 C298 1.400 1_545 S
C297 C302 1.490 . S
C298 H288 0.930 . S
C298 C297 1.400 1_565 S
C298 C301 1.386 . S
H299 C315 0.930 . S
H300 C316 0.931 . S
C301 H289 0.929 . S
C301 C295 1.390 1_565 S
C301 C298 1.386 . S
C302 C297 1.490 . S
C302 C304 1.395 . S
C302 C305 1.403 . S
H303 C309 0.930 . S
C304 H290 0.930 . S
C304 C302 1.395 . S
C304 C307 1.403 . S
C305 C302 1.403 . S
C305 C306 1.524 1_545 S
C305 C309 1.400 . S
C306 H291 0.960 . S
C306 H292 0.960 1_565 S
C306 H293 0.960 . S
C306 C305 1.524 1_565 S
C307 C304 1.403 . S
C307 C308 1.392 . S
C307 C311 1.495 . S
C308 C307 1.392 . S
C308 C309 1.385 . S
C308 C310 1.478 . S
C309 H303 0.930 . S
C309 C305 1.400 . S
C309 C308 1.385 . S
C310 C308 1.478 . S
C310 C312 1.381 . S
C310 C316 1.383 1_545 S
C311 C307 1.495 . S
C311 H317 0.959 . S
C311 H318 0.961 . S
C311 H319 0.960 . S
C312 C310 1.381 . S
C312 C313 1.394 . S
C312 H320 0.930 . S
C313 C312 1.394 . S
C313 C314 1.383 . S
C313 H321 0.929 . S
C314 C313 1.383 . S
C314 C315 1.377 1_545 S
C315 H299 0.930 . S
C315 C314 1.377 1_565 S
C315 C316 1.379 . S
C316 H300 0.931 . S
C316 C310 1.383 1_565 S
C316 C315 1.379 . S
H317 C311 0.959 . S
H318 C311 0.961 . S
H319 C311 0.960 . S
H320 C312 0.930 . S
H321 C313 0.929 . S
H322 C330 0.929 . S
H323 C332 0.930 . S
H324 C334 0.930 . S
H325 C337 0.929 . S
H326 C340 0.930 . S
H327 C342 0.960 . S
H328 C342 0.960 . S
H329 C342 0.960 . S
C330 H322 0.929 . S
C330 C331 1.377 1_655 S
C330 C332 1.384 . S
C331 C330 1.377 1_455 S
C331 C337 1.390 . S
C332 H323 0.930 . S
C332 C330 1.384 . S
C332 C333 1.372 1_655 S
C333 C332 1.372 1_455 S
C333 C334 1.400 . S
C333 C338 1.490 1_455 S
C334 H324 0.930 . S
C334 C333 1.400 . S
C334 C337 1.386 . S
H335 C351 0.930 . S
H336 C352 0.931 . S
C337 H325 0.929 . S
C337 C331 1.390 . S
C337 C334 1.386 . S
C338 C333 1.490 1_655 S
C338 C340 1.395 . S
C338 C341 1.403 1_655 S
H339 C345 0.930 . S
C340 H326 0.930 . S
C340 C338 1.395 . S
C340 C343 1.403 . S
C341 C338 1.403 1_455 S
C341 C342 1.524 . S
C341 C345 1.400 . S
C342 H327 0.960 . S
C342 H328 0.960 . S
C342 H329 0.960 . S
C342 C341 1.524 . S
C343 C340 1.403 . S
C343 C344 1.392 . S
C343 C347 1.495 . S
C344 C343 1.392 . S
C344 C345 1.385 1_655 S
C344 C346 1.478 . S
C345 H339 0.930 . S
C345 C341 1.400 . S
C345 C344 1.385 1_455 S
C346 C344 1.478 . S
C346 C348 1.381 . S
C346 C352 1.383 1_655 S
C347 C343 1.495 . S
C347 H353 0.959 . S
C347 H354 0.961 . S
C347 H355 0.960 . S
C348 C346 1.381 . S
C348 C349 1.394 . S
C348 H356 0.930 . S
C349 C348 1.394 . S
C349 C350 1.383 . S
C349 H357 0.929 . S
C350 C349 1.383 . S
C350 C351 1.377 1_655 S
C351 H335 0.930 . S
C351 C350 1.377 1_455 S
C351 C352 1.379 . S
C352 H336 0.931 . S
C352 C346 1.383 1_455 S
C352 C351 1.379 . S
H353 C347 0.959 . S
H354 C347 0.961 . S
H355 C347 0.960 . S
H356 C348 0.930 . S
H357 C349 0.929 . S
C98 C51 1.689 . S
C79 C17 1.593 . S
C134 C62 1.569 . S
C115 C40 1.592 . S
C170 C50 1.690 . S
C151 C9 1.631 . S
C206 C63 1.607 . S
C187 C33 1.545 . S
C242 C65 1.675 . S
C223 C19 1.625 . S
C278 C49 1.566 . S
C259 C38 1.554 . S
C314 C64 1.682 . S
C295 C12 1.582 . S
C331 C30 1.600 . S
C350 C48 1.616 . S
