# Generated by pormake.
# Topology pyr, (3,6)-cn, num edge types: 1
# Building blocks:
#     Node 0, Type 0, BuildingBlock: QEWDON_clean_linker_0, # of connection points: 3
#     Node 1, Type 0, BuildingBlock: QEWDON_clean_linker_0, # of connection points: 3
#     Node 2, Type 0, BuildingBlock: QEWDON_clean_linker_0, # of connection points: 3
#     Node 3, Type 0, BuildingBlock: QEWDON_clean_linker_0, # of connection points: 3
#     Node 4, Type 0, BuildingBlock: QEWDON_clean_linker_0, # of connection points: 3
#     Node 5, Type 0, BuildingBlock: QEWDON_clean_linker_0, # of connection points: 3
#     Node 6, Type 0, BuildingBlock: QEWDON_clean_linker_0, # of connection points: 3
#     Node 7, Type 0, BuildingBlock: QEWDON_clean_linker_0, # of connection points: 3
#     Node 8, Type 1, BuildingBlock: MIDCAF_clean_sbu_0, # of connection points: 6
#     Node 9, Type 1, BuildingBlock: MIDCAF_clean_sbu_0, # of connection points: 6
#     Node 10, Type 1, BuildingBlock: MIDCAF_clean_sbu_0, # of connection points: 6
#     Node 11, Type 1, BuildingBlock: MIDCAF_clean_sbu_0, # of connection points: 6
#     Edge 12, Type (0, 1), BuildingBlock: OJICUG_clean_linker_0, # of connection points: 2
#     Edge 13, Type (0, 1), BuildingBlock: OJICUG_clean_linker_0, # of connection points: 2
#     Edge 14, Type (0, 1), BuildingBlock: OJICUG_clean_linker_0, # of connection points: 2
#     Edge 15, Type (0, 1), BuildingBlock: OJICUG_clean_linker_0, # of connection points: 2
#     Edge 16, Type (0, 1), BuildingBlock: OJICUG_clean_linker_0, # of connection points: 2
#     Edge 17, Type (0, 1), BuildingBlock: OJICUG_clean_linker_0, # of connection points: 2
#     Edge 18, Type (0, 1), BuildingBlock: OJICUG_clean_linker_0, # of connection points: 2
#     Edge 19, Type (0, 1), BuildingBlock: OJICUG_clean_linker_0, # of connection points: 2
#     Edge 20, Type (0, 1), BuildingBlock: OJICUG_clean_linker_0, # of connection points: 2
#     Edge 21, Type (0, 1), BuildingBlock: OJICUG_clean_linker_0, # of connection points: 2
#     Edge 22, Type (0, 1), BuildingBlock: OJICUG_clean_linker_0, # of connection points: 2
#     Edge 23, Type (0, 1), BuildingBlock: OJICUG_clean_linker_0, # of connection points: 2
#     Edge 24, Type (0, 1), BuildingBlock: OJICUG_clean_linker_0, # of connection points: 2
#     Edge 25, Type (0, 1), BuildingBlock: OJICUG_clean_linker_0, # of connection points: 2
#     Edge 26, Type (0, 1), BuildingBlock: OJICUG_clean_linker_0, # of connection points: 2
#     Edge 27, Type (0, 1), BuildingBlock: OJICUG_clean_linker_0, # of connection points: 2
#     Edge 28, Type (0, 1), BuildingBlock: OJICUG_clean_linker_0, # of connection points: 2
#     Edge 29, Type (0, 1), BuildingBlock: OJICUG_clean_linker_0, # of connection points: 2
#     Edge 30, Type (0, 1), BuildingBlock: OJICUG_clean_linker_0, # of connection points: 2
#     Edge 31, Type (0, 1), BuildingBlock: OJICUG_clean_linker_0, # of connection points: 2
#     Edge 32, Type (0, 1), BuildingBlock: OJICUG_clean_linker_0, # of connection points: 2
#     Edge 33, Type (0, 1), BuildingBlock: OJICUG_clean_linker_0, # of connection points: 2
#     Edge 34, Type (0, 1), BuildingBlock: OJICUG_clean_linker_0, # of connection points: 2
#     Edge 35, Type (0, 1), BuildingBlock: OJICUG_clean_linker_0, # of connection points: 2
# Relax obj value: 0.153
# Max RMSD: 0.263
# Mean RMSD: 0.189
data_MOF--net-pyr--node1-MIDCAF_clean_sbu_0--node2-QEWDON_clean_linker_0--edge1-OJICUG_clean_linker_0
_symmetry_space_group_name_H-M    P1
_symmetry_Int_Tables_number       1
_symmetry_cell_setting            triclinic
loop_
_symmetry_equiv_pos_as_xyz
'x, y, z'
_cell_length_a     25.941108
_cell_length_b     26.163933
_cell_length_c     28.311616
_cell_angle_alpha  90.316423
_cell_angle_beta   91.180695
_cell_angle_gamma 101.02458
loop_
_atom_site_label
_atom_site_type_symbol
_atom_site_fract_x
_atom_site_fract_y
_atom_site_fract_z
_atom_type_partial_charge
H0 H 0.33644 0.27692 0.21429 0.0
C1 C 0.31054 0.26072 0.24224 0.0
C2 C 0.31419 0.21136 0.26025 0.0
C3 C 0.27342 0.28939 0.25912 0.0
H4 H 0.2823 0.15317 0.31072 0.0
C5 C 0.27949 0.19072 0.29601 0.0
C6 C 0.24158 0.21787 0.31366 0.0
C7 C 0.23893 0.26747 0.29497 0.0
C8 C 0.27528 0.34387 0.24128 0.0
H9 H 0.21046 0.28896 0.30838 0.0
C10 C 0.231 0.36194 0.22171 0.0
C11 C 0.23723 0.41224 0.20083 0.0
C12 C 0.32446 0.37776 0.24148 0.0
H13 H 0.35889 0.3657 0.25662 0.0
C14 C 0.33028 0.42725 0.22202 0.0
H15 H 0.19273 0.33659 0.2211 0.0
C16 C 0.28736 0.44414 0.20151 0.0
H17 H 0.2932 0.48283 0.18662 0.0
H18 H 0.36849 0.45262 0.22255 0.0
H19 H 0.29966 0.88037 0.88112 0.0
C20 C 0.31841 0.85616 0.85847 0.0
C21 C 0.36693 0.84402 0.87251 0.0
C22 C 0.29355 0.83856 0.81533 0.0
H23 H 0.42954 0.80605 0.85096 0.0
C24 C 0.39159 0.81442 0.84093 0.0
C25 C 0.36732 0.7957 0.7968 0.0
C26 C 0.31799 0.80842 0.78486 0.0
C27 C 0.24027 0.8497 0.80447 0.0
H28 H 0.29722 0.79341 0.75265 0.0
C29 C 0.2288 0.87475 0.76245 0.0
C30 C 0.17958 0.88991 0.75598 0.0
C31 C 0.20125 0.83814 0.83865 0.0
H32 H 0.20882 0.81865 0.87101 0.0
C33 C 0.15237 0.85197 0.83182 0.0
H34 H 0.25864 0.88437 0.73602 0.0
C35 C 0.1417 0.87804 0.79107 0.0
H36 H 0.10347 0.88861 0.78676 0.0
H37 H 0.12276 0.8429 0.8585 0.0
H38 H 0.7326 0.42505 0.90306 0.0
C39 C 0.72217 0.3837 0.90999 0.0
C40 C 0.75821 0.35782 0.93315 0.0
C41 C 0.6706 0.35774 0.90044 0.0
H42 H 0.76972 0.28438 0.96224 0.0
C43 C 0.74246 0.30473 0.94429 0.0
C44 C 0.69061 0.2787 0.93543 0.0
C45 C 0.65538 0.3055 0.91276 0.0
C46 C 0.63011 0.38617 0.88336 0.0
H47 H 0.61459 0.28687 0.90736 0.0
C48 C 0.63497 0.41176 0.8398 0.0
C49 C 0.5936 0.4342 0.82204 0.0
C50 C 0.58467 0.38506 0.90987 0.0
H51 H 0.58046 0.36581 0.94375 0.0
C52 C 0.54416 0.40838 0.89276 0.0
H53 H 0.66973 0.41236 0.81904 0.0
C54 C 0.54832 0.4325 0.8489 0.0
H55 H 0.5163 0.45025 0.83607 0.0
H56 H 0.50927 0.40737 0.91334 0.0
H57 H 0.83455 0.84968 0.31477 0.0
C58 C 0.80126 0.83041 0.3347 0.0
C59 C 0.79761 0.84351 0.38249 0.0
C60 C 0.76249 0.79196 0.31289 0.0
H61 H 0.75333 0.82825 0.44566 0.0
C62 C 0.7549 0.81869 0.40844 0.0
C63 C 0.71552 0.78046 0.38781 0.0
C64 C 0.71966 0.7669 0.33992 0.0
C65 C 0.76625 0.77863 0.26182 0.0
H66 H 0.68978 0.73686 0.32384 0.0
C67 C 0.81365 0.7694 0.24253 0.0
C68 C 0.8162 0.75512 0.19426 0.0
C69 C 0.72183 0.77512 0.23197 0.0
H70 H 0.68519 0.78261 0.24548 0.0
C71 C 0.72424 0.76247 0.18429 0.0
H72 H 0.84802 0.77233 0.26546 0.0
C73 C 0.77063 0.7522 0.16563 0.0
H74 H 0.7699 0.74017 0.12896 0.0
H75 H 0.68959 0.75973 0.16174 0.0
H76 H 0.87443 0.86453 0.93528 0.0
C77 C 0.89746 0.88117 0.90567 0.0
C78 C 0.94686 0.86788 0.89726 0.0
C79 C 0.87675 0.91486 0.87535 0.0
H80 H 0.01366 0.88089 0.85022 0.0
C81 C 0.97583 0.89047 0.85775 0.0
C82 C 0.95552 0.92529 0.82768 0.0
C83 C 0.90605 0.93666 0.83698 0.0
C84 C 0.82231 0.92391 0.87999 0.0
H85 H 0.88974 0.96254 0.81361 0.0
C86 C 0.80657 0.94976 0.91953 0.0
C87 C 0.75517 0.96073 0.92115 0.0
C88 C 0.78635 0.90862 0.84248 0.0
H89 H 0.79767 0.88885 0.81174 0.0
C90 C 0.7356 0.91852 0.84415 0.0
H91 H 0.83462 0.96237 0.94809 0.0
C92 C 0.72003 0.9442 0.88303 0.0
H93 H 0.67985 0.95008 0.88349 0.0
H94 H 0.70808 0.90608 0.81519 0.0
H95 H 0.7284 0.18983 0.51831 0.0
C96 C 0.7066 0.17836 0.48562 0.0
C97 C 0.727 0.14743 0.45274 0.0
C98 C 0.65785 0.19345 0.47803 0.0
H99 H 0.71214 0.10673 0.38583 0.0
C100 C 0.69725 0.13106 0.4113 0.0
C101 C 0.64891 0.14724 0.40196 0.0
C102 C 0.62979 0.17893 0.43537 0.0
C103 C 0.63485 0.21868 0.51788 0.0
H104 H 0.59191 0.18974 0.42934 0.0
C105 C 0.61815 0.26699 0.51366 0.0
C106 C 0.60156 0.2914 0.55407 0.0
C107 C 0.6325 0.19446 0.56223 0.0
H108 H 0.64439 0.1572 0.56647 0.0
C109 C 0.61527 0.21785 0.60164 0.0
H110 H 0.61982 0.2862 0.47978 0.0
C111 C 0.60031 0.266 0.59777 0.0
H112 H 0.58683 0.28309 0.62904 0.0
H113 H 0.61373 0.19862 0.63548 0.0
H114 H 0.49302 0.67611 0.17882 0.0
C115 C 0.45611 0.66043 0.16065 0.0
C116 C 0.43009 0.69362 0.13459 0.0
C117 C 0.43343 0.60768 0.16588 0.0
H118 H 0.36085 0.69861 0.09293 0.0
C119 C 0.38223 0.67303 0.11189 0.0
C120 C 0.35936 0.62041 0.11687 0.0
C121 C 0.38493 0.58756 0.14367 0.0
C122 C 0.4559 0.57669 0.20123 0.0
H123 H 0.36593 0.54748 0.14922 0.0
C124 C 0.46328 0.59569 0.2477 0.0
C125 C 0.48106 0.56616 0.28343 0.0
C126 C 0.46756 0.52797 0.19001 0.0
H127 H 0.46164 0.51256 0.15431 0.0
C128 C 0.48713 0.49898 0.22511 0.0
H129 H 0.45359 0.63314 0.25632 0.0
C130 C 0.49372 0.51778 0.27166 0.0
H131 H 0.50694 0.49372 0.2986 0.0
H132 H 0.49617 0.46137 0.21644 0.0
H133 H 0.13094 0.51683 0.68212 0.0
C134 C 0.13147 0.48219 0.6611 0.0
C135 C 0.17931 0.47287 0.64419 0.0
C136 C 0.08455 0.44616 0.65172 0.0
H137 H 0.21742 0.41961 0.60555 0.0
C138 C 0.1803 0.42737 0.61781 0.0
C139 C 0.13382 0.39173 0.60733 0.0
C140 C 0.08606 0.40172 0.62402 0.0
C141 C 0.03449 0.45231 0.67359 0.0
H142 H 0.05036 0.37304 0.61797 0.0
C143 C 0.03312 0.46357 0.72212 0.0
C144 C 0.98534 0.46617 0.74397 0.0
C145 C 0.98737 0.44398 0.6468 0.0
H146 H 0.98726 0.43517 0.60937 0.0
C147 C 0.93995 0.44707 0.66811 0.0
H148 H 0.06934 0.47001 0.74296 0.0
C149 C 0.93881 0.45809 0.71637 0.0
H150 H 0.90151 0.45985 0.73218 0.0
H151 H 0.90387 0.44068 0.64716 0.0
Zn152 Zn 0.99865 0.11809 0.60015 0.0
Zn153 Zn 0.07588 0.00334 0.50216 0.0
Zn154 Zn 0.0329 0.06621 0.54372 0.0
C155 C 0.11406 0.09958 0.4592 0.0
C156 C 0.96828 0.9765 0.48137 0.0
O157 O 0.03195 0.03282 0.61976 0.0
O158 O 0.98056 0.07659 0.65741 0.0
C159 C 0.08678 0.18106 0.56758 0.0
O160 O 0.09319 0.116 0.49612 0.0
O161 O 0.1092 0.05108 0.45267 0.0
O162 O 0.00879 0.95641 0.48403 0.0
O163 O 0.96929 0.02243 0.49838 0.0
O164 O 0.06216 0.17337 0.6056 0.0
O165 O 0.07792 0.14643 0.53439 0.0
O166 O 0.94942 0.06568 0.51686 0.0
O167 O 0.94032 0.13389 0.55937 0.0
C168 C 0.92373 0.10215 0.5262 0.0
O169 O 0.07134 0.01696 0.59472 0.0
O170 O 0.12148 0.978 0.55027 0.0
C171 C 0.0061 0.04019 0.65725 0.0
C172 C 0.1069 0.98846 0.59082 0.0
Zn173 Zn 0.46495 0.06957 0.06403 0.0
Zn174 Zn 0.59369 0.99487 0.16086 0.0
Zn175 Zn 0.53135 0.03157 0.11479 0.0
C176 C 0.64775 0.0208 0.08159 0.0
C177 C 0.51197 0.91404 0.14277 0.0
O178 O 0.48982 0.07903 0.16449 0.0
O179 O 0.42674 0.09562 0.11642 0.0
C180 C 0.56647 0.11517 0.03549 0.0
O181 O 0.60949 0.04596 0.07833 0.0
O182 O 0.64969 0.99105 0.11614 0.0
O183 O 0.54697 0.92791 0.17431 0.0
O184 O 0.50244 0.94714 0.1119 0.0
O185 O 0.51904 0.11935 0.02973 0.0
O186 O 0.57926 0.08237 0.06508 0.0
O187 O 0.47985 0.96604 0.07138 0.0
O188 O 0.43135 0.00786 0.0262 0.0
C189 C 0.44645 0.96624 0.03667 0.0
O190 O 0.53357 0.06304 0.19106 0.0
O191 O 0.60953 0.04358 0.2135 0.0
C192 C 0.44778 0.09814 0.15719 0.0
C193 C 0.57171 0.06582 0.22195 0.0
Zn194 Zn 0.57444 0.66272 0.63328 0.0
Zn195 Zn 0.43667 0.53648 0.54578 0.0
Zn196 Zn 0.49997 0.5946 0.58838 0.0
C197 C 0.51178 0.47887 0.55916 0.0
C198 C 0.46481 0.60259 0.4807 0.0
O199 O 0.45885 0.64048 0.63946 0.0
O200 O 0.52555 0.69649 0.67137 0.0
C201 C 0.58213 0.56003 0.66051 0.0
O202 O 0.52234 0.51474 0.59149 0.0
O203 O 0.47679 0.48223 0.52841 0.0
O204 O 0.41965 0.57995 0.49263 0.0
O205 O 0.50272 0.60948 0.5116 0.0
O206 O 0.60397 0.60711 0.66728 0.0
O207 O 0.54463 0.54801 0.62955 0.0
O208 O 0.54523 0.64439 0.53417 0.0
O209 O 0.6071 0.6975 0.57496 0.0
C210 C 0.58581 0.68147 0.53568 0.0
O211 O 0.42175 0.59802 0.61887 0.0
O212 O 0.38506 0.51879 0.59518 0.0
C213 C 0.47673 0.67868 0.66831 0.0
C214 C 0.3837 0.55835 0.62027 0.0
Zn215 Zn 0.08705 0.6314 0.97417 0.0
Zn216 Zn 0.9822 0.54326 0.10688 0.0
Zn217 Zn 0.02693 0.58916 0.03735 0.0
C218 C 0.07559 0.51767 0.12188 0.0
C219 C 0.93075 0.49426 0.02643 0.0
O220 O 0.00974 0.67145 0.02673 0.0
O221 O 0.06608 0.69909 0.97059 0.0
C222 C 0.15515 0.60564 0.03739 0.0
O223 O 0.08196 0.54927 0.08611 0.0
O224 O 0.0313 0.50743 0.14067 0.0
O225 O 0.92636 0.49612 0.07069 0.0
O226 O 0.968 0.52554 0.00621 0.0
O227 O 0.15666 0.62952 0.99885 0.0
O228 O 0.11061 0.58737 0.05647 0.0
O229 O 1.00046 0.54721 0.96962 0.0
O230 O 0.06256 0.58369 0.9213 0.0
C231 C 0.02149 0.55064 0.92861 0.0
O232 O 0.98678 0.64871 0.0721 0.0
O233 O 0.96418 0.60494 0.13727 0.0
C234 C 0.02929 0.70668 0.99649 0.0
C235 C 0.96649 0.646 0.11359 0.0
C236 C 0.19505 0.21604 0.39314 0.0
C237 C 0.20408 0.19183 0.35008 0.0
H238 H 0.15975 0.20654 0.46206 0.0
C239 C 0.17974 0.13964 0.34283 0.0
H240 H 0.21321 0.25629 0.39995 0.0
C241 C 0.14978 0.11159 0.37785 0.0
C242 C 0.1426 0.13429 0.42198 0.0
H243 H 0.18477 0.11985 0.31 0.0
H244 H 0.13282 0.07118 0.37027 0.0
C245 C 0.16457 0.18752 0.42882 0.0
C246 C 0.44482 0.88591 0.92522 0.0
C247 C 0.39092 0.8643 0.91975 0.0
H248 H 0.50509 0.93403 0.96786 0.0
C249 C 0.35843 0.86787 0.95867 0.0
H250 H 0.47122 0.88435 0.89635 0.0
C251 C 0.3778 0.89681 0.99934 0.0
C252 C 0.43065 0.92163 0.00321 0.0
H253 H 0.31701 0.85065 0.95671 0.0
H254 H 0.35064 0.90247 0.02658 0.0
C255 C 0.46438 0.91422 0.96646 0.0
C256 C 0.55503 0.44668 0.74282 0.0
C257 C 0.59683 0.4596 0.77557 0.0
H258 H 0.51826 0.46775 0.6798 0.0
C259 C 0.63863 0.50046 0.76574 0.0
H260 H 0.52271 0.41482 0.74949 0.0
C261 C 0.63621 0.53102 0.7257 0.0
C262 C 0.59224 0.52063 0.6948 0.0
H263 H 0.67132 0.51094 0.79059 0.0
H264 H 0.66717 0.56456 0.72048 0.0
C265 C 0.55281 0.47678 0.70271 0.0
C266 C 0.89456 0.71137 0.20305 0.0
C267 C 0.86381 0.73815 0.17448 0.0
H268 H 0.95247 0.66349 0.2063 0.0
C269 C 0.87554 0.74292 0.12586 0.0
H270 H 0.88731 0.70624 0.24038 0.0
C271 C 0.91284 0.71704 0.10585 0.0
C272 C 0.93972 0.68637 0.13407 0.0
H273 H 0.85416 0.76462 0.10265 0.0
H274 H 0.9177 0.71801 0.06804 0.0
C275 C 0.93205 0.68631 0.18323 0.0
C276 C 0.40386 0.20502 0.22756 0.0
C277 C 0.35282 0.18059 0.24059 0.0
H278 H 0.47515 0.1975 0.19262 0.0
C279 C 0.33797 0.12652 0.23237 0.0
H280 H 0.4172 0.24637 0.23365 0.0
C281 C 0.37156 0.09858 0.2094 0.0
C282 C 0.42149 0.12342 0.19465 0.0
H283 H 0.29904 0.10613 0.24116 0.0
H284 H 0.35715 0.05794 0.20057 0.0
C285 C 0.43767 0.17682 0.20487 0.0
C286 C 0.17134 0.89837 0.6678 0.0
C287 C 0.16659 0.91833 0.71326 0.0
H288 H 0.15533 0.90426 0.59368 0.0
C289 C 0.14514 0.96358 0.71798 0.0
H290 H 0.18749 0.86348 0.6631 0.0
C291 C 0.12744 0.98744 0.67823 0.0
C292 C 0.12924 0.9658 0.63296 0.0
H293 H 0.14164 0.9803 0.75259 0.0
H294 H 0.11224 0.02277 0.68306 0.0
C295 C 0.15266 0.92169 0.62811 0.0
C296 C 0.83707 0.43104 0.92919 0.0
C297 C 0.80811 0.38838 0.95329 0.0
H298 H 0.89836 0.49883 0.9338 0.0
C299 C 0.82351 0.37867 0.99975 0.0
H300 H 0.82636 0.43948 0.8933 0.0
C301 C 0.86503 0.41194 0.02231 0.0
C302 C 0.89215 0.45602 0.99922 0.0
H303 H 0.8017 0.34701 0.01995 0.0
H304 H 0.87464 0.40407 0.05864 0.0
C305 C 0.87872 0.46467 0.95207 0.0
C306 C 0.66119 0.69916 0.42179 0.0
C307 C 0.67262 0.75377 0.41841 0.0
H308 H 0.62547 0.6334 0.46273 0.0
C309 C 0.64901 0.78333 0.45028 0.0
H310 H 0.67944 0.67538 0.39834 0.0
C311 C 0.61822 0.75932 0.48686 0.0
C312 C 0.60944 0.70512 0.49195 0.0
H313 H 0.65675 0.82545 0.44845 0.0
H314 H 0.60301 0.78333 0.51238 0.0
C315 C 0.63006 0.67507 0.45847 0.0
C316 C 0.19708 0.45412 0.13245 0.0
C317 C 0.19295 0.43381 0.17865 0.0
H318 H 0.16295 0.4945 0.07756 0.0
C319 C 0.15003 0.44119 0.20541 0.0
H320 H 0.22987 0.44932 0.11088 0.0
C321 C 0.11315 0.4693 0.18706 0.0
C322 C 0.11763 0.49057 0.14115 0.0
H323 H 0.14606 0.42695 0.24126 0.0
H324 H 0.08109 0.47474 0.20926 0.0
C325 C 0.15942 0.4812 0.11366 0.0
C326 C 0.62877 0.19272 0.93383 0.0
C327 C 0.66959 0.22755 0.95699 0.0
H328 H 0.56303 0.13023 0.94142 0.0
C329 C 0.68231 0.21805 0.00436 0.0
H330 H 0.61892 0.19805 0.89704 0.0
C331 C 0.65113 0.17806 0.02931 0.0
C332 C 0.60643 0.14804 0.00743 0.0
H333 H 0.71334 0.24414 0.0234 0.0
H334 H 0.65929 0.1736 0.06659 0.0
C335 C 0.5968 0.15397 0.9591 0.0
C336 C 0.8528 0.93254 0.39719 0.0
C337 C 0.84052 0.87918 0.40759 0.0
H338 H 0.90261 0.00645 0.41398 0.0
C339 C 0.86788 0.85949 0.44427 0.0
H340 H 0.83159 0.94847 0.3693 0.0
C341 C 0.90794 0.89209 0.46934 0.0
C342 C 0.92084 0.94531 0.45891 0.0
H343 H 0.85872 0.81852 0.45305 0.0
H344 H 0.92948 0.87551 0.4966 0.0
C345 C 0.89261 0.96564 0.42306 0.0
C346 C 0.38266 0.76191 0.71402 0.0
C347 C 0.39251 0.76239 0.7635 0.0
H348 H 0.39978 0.73386 0.64539 0.0
C349 C 0.4268 0.73051 0.7806 0.0
H350 H 0.35767 0.78631 0.69854 0.0
C351 C 0.45179 0.70139 0.74959 0.0
C352 C 0.4423 0.70169 0.70051 0.0
H353 H 0.43491 0.72805 0.81805 0.0
H354 H 0.47953 0.67916 0.76403 0.0
C355 C 0.40679 0.73165 0.68311 0.0
C356 C 0.99654 0.00676 0.78707 0.0
C357 C 0.98404 0.9521 0.78651 0.0
H358 H 0.01367 0.0768 0.74695 0.0
C359 C 0.9869 0.92591 0.74323 0.0
H360 H 0.9941 0.0281 0.8196 0.0
C361 C 0.99828 0.95412 0.70098 0.0
C362 C 0.00632 0.00894 0.70137 0.0
H363 H 0.97652 0.88383 0.74148 0.0
H364 H 0.99707 0.93313 0.66778 0.0
C365 C 0.0073 0.03466 0.74524 0.0
C366 C 0.60961 0.16244 0.32168 0.0
C367 C 0.61744 0.12832 0.35836 0.0
H368 H 0.58695 0.16933 0.24854 0.0
C369 C 0.59866 0.07481 0.35168 0.0
H370 H 0.62381 0.20394 0.32593 0.0
C371 C 0.57604 0.05539 0.3083 0.0
C372 C 0.57226 0.08876 0.27007 0.0
H373 H 0.60388 0.04767 0.37933 0.0
H374 H 0.56582 0.01354 0.30326 0.0
C375 C 0.58768 0.14276 0.27765 0.0
C376 C 0.52254 0.57763 0.36468 0.0
C377 C 0.4818 0.5841 0.33323 0.0
H378 H 0.54881 0.57883 0.43678 0.0
C379 C 0.43948 0.60489 0.35031 0.0
H380 H 0.55575 0.56201 0.35249 0.0
C381 C 0.43638 0.61591 0.39827 0.0
C382 C 0.47559 0.60659 0.43003 0.0
H383 H 0.40706 0.60971 0.32712 0.0
H384 H 0.40172 0.62862 0.41096 0.0
C385 C 0.51936 0.58868 0.41273 0.0
C386 C 0.01634 0.45803 0.8277 0.0
C387 C 0.98485 0.4793 0.79507 0.0
H388 H 0.05132 0.46347 0.8973 0.0
C389 C 0.95693 0.51699 0.81087 0.0
H390 H 0.03765 0.42834 0.81678 0.0
C391 C 0.96422 0.53638 0.85715 0.0
C392 C 0.99885 0.51785 0.88845 0.0
H393 H 0.93261 0.53435 0.78657 0.0
H394 H 0.94607 0.56868 0.86734 0.0
C395 C 0.02347 0.47737 0.87396 0.0
C396 C 0.69872 0.0188 0.95737 0.0
C397 C 0.7363 0.98661 0.96298 0.0
H398 H 0.64093 0.05473 0.99015 0.0
C399 C 0.75104 0.97483 0.00906 0.0
H400 H 0.68742 0.03016 0.92252 0.0
C401 C 0.72549 0.99066 0.04804 0.0
C402 C 0.68411 0.01819 0.04203 0.0
H403 H 0.7797 0.95031 0.01507 0.0
H404 H 0.7358 0.97805 0.08277 0.0
C405 C 0.6726 0.03396 0.99636 0.0
C406 C 0.78813 0.0822 0.4641 0.0
C407 C 0.77987 0.13403 0.46287 0.0
H408 H 0.84028 0.03061 0.48525 0.0
C409 C 0.82165 0.17403 0.47677 0.0
H410 H 0.7566 0.05042 0.4538 0.0
C411 C 0.8689 0.16283 0.49431 0.0
C412 C 0.87641 0.11115 0.49871 0.0
H413 H 0.81705 0.21432 0.47576 0.0
H414 H 0.8992 0.19504 0.50624 0.0
C415 C 0.83607 0.07081 0.48197 0.0
C416 C 0.29766 0.59777 0.04935 0.0
C417 C 0.30589 0.60282 0.09821 0.0
H418 H 0.24247 0.59372 0.99188 0.0
C419 C 0.26317 0.60262 0.12789 0.0
H420 H 0.33048 0.59872 0.02607 0.0
C421 C 0.21294 0.601 0.10842 0.0
C422 C 0.20522 0.59898 0.05922 0.0
H423 H 0.26935 0.60752 0.16574 0.0
H424 H 0.18092 0.6041 0.13156 0.0
C425 C 0.24759 0.5956 0.02997 0.0
C426 C 0.26822 0.4928 0.68185 0.0
C427 C 0.22931 0.50938 0.65403 0.0
H428 H 0.35066 0.49943 0.69515 0.0
C429 C 0.2426 0.5549 0.62737 0.0
H430 H 0.2587 0.45769 0.70258 0.0
C431 C 0.29541 0.57917 0.62343 0.0
C432 C 0.33505 0.55777 0.6459 0.0
H433 H 0.2131 0.5681 0.60545 0.0
H434 H 0.30551 0.60972 0.59765 0.0
C435 C 0.32075 0.51716 0.6781 0.0
C436 C 0.02048 0.83609 0.94176 0.0
C437 C 0.9669 0.82955 0.92914 0.0
H438 H 0.08159 0.80361 0.97524 0.0
C439 C 0.93271 0.78533 0.94667 0.0
H440 H 0.04805 0.86975 0.92985 0.0
C441 C 0.95199 0.74749 0.97349 0.0
C442 C 0.00595 0.75297 0.984 0.0
H443 H 0.89124 0.7783 0.93743 0.0
H444 H 0.92524 0.71204 0.98263 0.0
C445 C 0.03959 0.79852 0.96873 0.0
C446 C 0.44933 0.78081 0.09517 0.0
C447 C 0.44943 0.75054 0.13604 0.0
H448 H 0.46965 0.85673 0.06513 0.0
C449 C 0.46654 0.77516 0.17926 0.0
H450 H 0.43629 0.76271 0.0614 0.0
C451 C 0.48476 0.82867 0.18141 0.0
C452 C 0.48612 0.85886 0.14046 0.0
H453 H 0.46568 0.75304 0.21157 0.0
H454 H 0.49852 0.84635 0.2152 0.0
C455 C 0.46773 0.83464 0.09737 0.0
C456 C 0.09914 0.32151 0.54779 0.0
C457 C 0.13513 0.34086 0.58441 0.0
H458 H 0.05795 0.25359 0.51095 0.0
C459 C 0.16601 0.30774 0.60465 0.0
H460 H 0.07508 0.34639 0.53147 0.0
C461 C 0.156 0.25468 0.59305 0.0
C462 C 0.11576 0.23426 0.5604 0.0
H463 H 0.19389 0.3216 0.63305 0.0
H464 H 0.17554 0.22876 0.61346 0.0
C465 C 0.08997 0.26859 0.53547 0.0
C466 C 0.60055 0.38126 0.5866 0.0
C467 C 0.58379 0.34239 0.55187 0.0
H468 H 0.59264 0.45529 0.61544 0.0
C469 C 0.54579 0.35046 0.51831 0.0
H470 H 0.63029 0.37646 0.61275 0.0
C471 C 0.52327 0.39497 0.52075 0.0
C472 C 0.53847 0.43308 0.55655 0.0
H473 H 0.53173 0.32125 0.49139 0.0
H474 H 0.49302 0.39888 0.49483 0.0
C475 C 0.57855 0.42627 0.5886 0.0
loop_
_geom_bond_atom_site_label_1
_geom_bond_atom_site_label_2
_geom_bond_distance
_geom_bond_site_symmetry_2
_ccdc_geom_bond_type
H0 C1 0.949 . S
C1 H0 0.949 . S
C1 C2 1.395 . S
C1 C3 1.391 . S
C2 C1 1.395 . S
C2 C5 1.390 . S
C3 C1 1.391 . S
C3 C7 1.387 . S
C3 C8 1.491 . S
H4 C5 0.950 . S
C5 C2 1.390 . S
C5 H4 0.950 . S
C5 C6 1.378 . S
C6 C5 1.378 . S
C6 C7 1.409 . S
C7 C3 1.387 . S
C7 C6 1.409 . S
C7 H9 0.951 . S
C8 C3 1.491 . S
C8 C10 1.382 . S
C8 C12 1.404 . S
H9 C7 0.951 . S
C10 C8 1.382 . S
C10 C11 1.390 . S
C10 H15 0.949 . S
C11 C10 1.390 . S
C11 C16 1.399 . S
C12 C8 1.404 . S
C12 H13 0.950 . S
C12 C14 1.375 . S
H13 C12 0.950 . S
C14 C12 1.375 . S
C14 C16 1.382 . S
C14 H18 0.950 . S
H15 C10 0.949 . S
C16 C11 1.399 . S
C16 C14 1.382 . S
C16 H17 0.952 . S
H17 C16 0.952 . S
H18 C14 0.950 . S
H19 C20 0.949 . S
C20 H19 0.949 . S
C20 C21 1.395 . S
C20 C22 1.391 . S
C21 C20 1.395 . S
C21 C24 1.390 . S
C22 C20 1.391 . S
C22 C26 1.387 . S
C22 C27 1.491 . S
H23 C24 0.950 . S
C24 C21 1.390 . S
C24 H23 0.950 . S
C24 C25 1.378 . S
C25 C24 1.378 . S
C25 C26 1.409 . S
C26 C22 1.387 . S
C26 C25 1.409 . S
C26 H28 0.951 . S
C27 C22 1.491 . S
C27 C29 1.382 . S
C27 C31 1.404 . S
H28 C26 0.951 . S
C29 C27 1.382 . S
C29 C30 1.390 . S
C29 H34 0.949 . S
C30 C29 1.390 . S
C30 C35 1.399 . S
C31 C27 1.404 . S
C31 H32 0.950 . S
C31 C33 1.375 . S
H32 C31 0.950 . S
C33 C31 1.375 . S
C33 C35 1.382 . S
C33 H37 0.950 . S
H34 C29 0.949 . S
C35 C30 1.399 . S
C35 C33 1.382 . S
C35 H36 0.952 . S
H36 C35 0.952 . S
H37 C33 0.950 . S
H38 C39 0.949 . S
C39 H38 0.949 . S
C39 C40 1.395 . S
C39 C41 1.391 . S
C40 C39 1.395 . S
C40 C43 1.390 . S
C41 C39 1.391 . S
C41 C45 1.387 . S
C41 C46 1.491 . S
H42 C43 0.950 . S
C43 C40 1.390 . S
C43 H42 0.950 . S
C43 C44 1.378 . S
C44 C43 1.378 . S
C44 C45 1.409 . S
C45 C41 1.387 . S
C45 C44 1.409 . S
C45 H47 0.951 . S
C46 C41 1.491 . S
C46 C48 1.382 . S
C46 C50 1.404 . S
H47 C45 0.951 . S
C48 C46 1.382 . S
C48 C49 1.390 . S
C48 H53 0.949 . S
C49 C48 1.390 . S
C49 C54 1.399 . S
C50 C46 1.404 . S
C50 H51 0.950 . S
C50 C52 1.375 . S
H51 C50 0.950 . S
C52 C50 1.375 . S
C52 C54 1.382 . S
C52 H56 0.950 . S
H53 C48 0.949 . S
C54 C49 1.399 . S
C54 C52 1.382 . S
C54 H55 0.952 . S
H55 C54 0.952 . S
H56 C52 0.950 . S
H57 C58 0.949 . S
C58 H57 0.949 . S
C58 C59 1.395 . S
C58 C60 1.391 . S
C59 C58 1.395 . S
C59 C62 1.390 . S
C60 C58 1.391 . S
C60 C64 1.387 . S
C60 C65 1.491 . S
H61 C62 0.950 . S
C62 C59 1.390 . S
C62 H61 0.950 . S
C62 C63 1.378 . S
C63 C62 1.378 . S
C63 C64 1.409 . S
C64 C60 1.387 . S
C64 C63 1.409 . S
C64 H66 0.951 . S
C65 C60 1.491 . S
C65 C67 1.382 . S
C65 C69 1.404 . S
H66 C64 0.951 . S
C67 C65 1.382 . S
C67 C68 1.390 . S
C67 H72 0.949 . S
C68 C67 1.390 . S
C68 C73 1.399 . S
C69 C65 1.404 . S
C69 H70 0.950 . S
C69 C71 1.375 . S
H70 C69 0.950 . S
C71 C69 1.375 . S
C71 C73 1.382 . S
C71 H75 0.950 . S
H72 C67 0.949 . S
C73 C68 1.399 . S
C73 C71 1.382 . S
C73 H74 0.952 . S
H74 C73 0.952 . S
H75 C71 0.950 . S
H76 C77 0.967 . S
C77 H76 0.967 . S
C77 C78 1.395 . S
C77 C79 1.391 . S
C78 C77 1.395 . S
C78 C81 1.390 1_655 S
C79 C77 1.391 . S
C79 C83 1.387 1_565 S
C79 C84 1.491 1_565 S
H80 C81 0.950 . S
C81 C78 1.390 1_455 S
C81 H80 0.950 . S
C81 C82 1.378 1_455 S
C82 C81 1.378 1_655 S
C82 C83 1.409 1_565 S
C83 C79 1.387 1_545 S
C83 C82 1.409 1_545 S
C83 H85 0.951 . S
C84 C79 1.491 1_545 S
C84 C86 1.382 1_556 S
C84 C88 1.404 . S
H85 C83 0.951 . S
C86 C84 1.382 1_554 S
C86 C87 1.390 . S
C86 H91 0.949 . S
C87 C86 1.390 . S
C87 C92 1.399 1_554 S
C88 C84 1.404 . S
C88 H89 0.950 . S
C88 C90 1.375 . S
H89 C88 0.950 . S
C90 C88 1.375 . S
C90 C92 1.382 . S
C90 H94 0.950 . S
H91 C86 0.949 . S
C92 C87 1.399 1_556 S
C92 C90 1.382 . S
C92 H93 0.952 . S
H93 C92 0.952 . S
H94 C90 0.950 . S
H95 C96 0.949 . S
C96 H95 0.949 . S
C96 C97 1.395 . S
C96 C98 1.391 . S
C97 C96 1.395 . S
C97 C100 1.390 . S
C98 C96 1.391 . S
C98 C102 1.387 . S
C98 C103 1.491 . S
H99 C100 0.950 . S
C100 C97 1.390 . S
C100 H99 0.950 . S
C100 C101 1.378 . S
C101 C100 1.378 . S
C101 C102 1.409 . S
C102 C98 1.387 . S
C102 C101 1.409 . S
C102 H104 0.951 . S
C103 C98 1.491 . S
C103 C105 1.382 . S
C103 C107 1.404 . S
H104 C102 0.951 . S
C105 C103 1.382 . S
C105 C106 1.390 . S
C105 H110 0.949 . S
C106 C105 1.390 . S
C106 C111 1.399 . S
C107 C103 1.404 . S
C107 H108 0.950 . S
C107 C109 1.375 . S
H108 C107 0.950 . S
C109 C107 1.375 . S
C109 C111 1.382 . S
C109 H113 0.950 . S
H110 C105 0.949 . S
C111 C106 1.399 . S
C111 C109 1.382 . S
C111 H112 0.952 . S
H112 C111 0.952 . S
H113 C109 0.950 . S
H114 C115 0.949 . S
C115 H114 0.949 . S
C115 C116 1.395 . S
C115 C117 1.391 . S
C116 C115 1.395 . S
C116 C119 1.390 . S
C117 C115 1.391 . S
C117 C121 1.387 . S
C117 C122 1.491 . S
H118 C119 0.950 . S
C119 C116 1.390 . S
C119 H118 0.950 . S
C119 C120 1.378 . S
C120 C119 1.378 . S
C120 C121 1.409 . S
C121 C117 1.387 . S
C121 C120 1.409 . S
C121 H123 0.951 . S
C122 C117 1.491 . S
C122 C124 1.382 . S
C122 C126 1.404 . S
H123 C121 0.951 . S
C124 C122 1.382 . S
C124 C125 1.390 . S
C124 H129 0.949 . S
C125 C124 1.390 . S
C125 C130 1.399 . S
C126 C122 1.404 . S
C126 H127 0.950 . S
C126 C128 1.375 . S
H127 C126 0.950 . S
C128 C126 1.375 . S
C128 C130 1.382 . S
C128 H132 0.950 . S
H129 C124 0.949 . S
C130 C125 1.399 . S
C130 C128 1.382 . S
C130 H131 0.952 . S
H131 C130 0.952 . S
H132 C128 0.950 . S
H133 C134 0.949 . S
C134 H133 0.949 . S
C134 C135 1.395 . S
C134 C136 1.391 . S
C135 C134 1.395 . S
C135 C138 1.390 . S
C136 C134 1.391 . S
C136 C140 1.387 . S
C136 C141 1.491 . S
H137 C138 0.950 . S
C138 C135 1.390 . S
C138 H137 0.950 . S
C138 C139 1.378 . S
C139 C138 1.378 . S
C139 C140 1.409 . S
C140 C136 1.387 . S
C140 C139 1.409 . S
C140 H142 0.951 . S
C141 C136 1.491 . S
C141 C143 1.382 . S
C141 C145 1.404 . S
H142 C140 0.951 . S
C143 C141 1.382 . S
C143 C144 1.390 . S
C143 H148 0.949 . S
C144 C143 1.390 . S
C144 C149 1.399 . S
C145 C141 1.404 . S
C145 H146 0.950 . S
C145 C147 1.375 . S
H146 C145 0.950 . S
C147 C145 1.375 . S
C147 C149 1.382 . S
C147 H151 0.950 . S
H148 C143 0.949 . S
C149 C144 1.399 . S
C149 C147 1.382 . S
C149 H150 0.952 . S
H150 C149 0.952 . S
H151 C147 0.950 . S
Zn152 O158 1.920 . S
Zn152 O164 1.898 . S
Zn152 O167 1.905 . S
Zn153 O161 1.905 1_565 S
Zn153 O162 1.898 . S
Zn153 O170 1.920 . S
Zn154 O157 2.080 1_455 S
Zn154 O160 2.114 . S
Zn154 O163 2.120 1_445 S
Zn154 O165 2.120 . S
Zn154 O166 2.114 1_455 S
Zn154 O169 2.080 . S
C155 O160 1.166 . S
C155 O161 1.182 . S
C156 O162 1.167 1_655 S
C156 O163 1.299 . S
O157 Zn154 2.080 1_655 S
O157 C171 1.305 . S
O158 Zn152 1.920 . S
O158 C171 1.234 . S
C159 O164 1.167 1_455 S
C159 O165 1.299 . S
O160 Zn154 2.114 . S
O160 C155 1.166 . S
O161 Zn153 1.905 1_545 S
O161 C155 1.182 . S
O162 Zn153 1.898 . S
O162 C156 1.167 1_455 S
O163 Zn154 2.120 1_665 S
O163 C156 1.299 . S
O164 Zn152 1.898 . S
O164 C159 1.167 1_655 S
O165 Zn154 2.120 . S
O165 C159 1.299 . S
O166 Zn154 2.114 1_655 S
O166 C168 1.166 . S
O167 Zn152 1.905 . S
O167 C168 1.182 . S
C168 O166 1.166 . S
C168 O167 1.182 . S
O169 Zn154 2.080 . S
O169 C172 1.305 1_545 S
O170 Zn153 1.920 . S
O170 C172 1.234 . S
C171 O157 1.305 . S
C171 O158 1.234 . S
C172 O169 1.305 1_565 S
C172 O170 1.234 . S
Zn173 O179 1.920 . S
Zn173 O185 1.898 . S
Zn173 O188 1.905 1_554 S
Zn174 O182 1.905 . S
Zn174 O183 1.898 . S
Zn174 O191 1.920 1_565 S
Zn175 O178 2.080 . S
Zn175 O181 2.114 . S
Zn175 O184 2.120 1_545 S
Zn175 O186 2.120 . S
Zn175 O187 2.114 . S
Zn175 O190 2.080 . S
C176 O181 1.166 . S
C176 O182 1.182 1_545 S
C177 O183 1.167 . S
C177 O184 1.299 . S
O178 Zn175 2.080 . S
O178 C192 1.305 . S
O179 Zn173 1.920 . S
O179 C192 1.234 . S
C180 O185 1.167 . S
C180 O186 1.299 . S
O181 Zn175 2.114 . S
O181 C176 1.166 . S
O182 Zn174 1.905 . S
O182 C176 1.182 1_565 S
O183 Zn174 1.898 . S
O183 C177 1.167 . S
O184 Zn175 2.120 1_565 S
O184 C177 1.299 . S
O185 Zn173 1.898 . S
O185 C180 1.167 . S
O186 Zn175 2.120 . S
O186 C180 1.299 . S
O187 Zn175 2.114 . S
O187 C189 1.165 . S
O188 Zn173 1.905 1_556 S
O188 C189 1.197 1_556 S
C189 O187 1.165 . S
C189 O188 1.197 1_554 S
O190 Zn175 2.080 . S
O190 C193 1.305 . S
O191 Zn174 1.920 1_545 S
O191 C193 1.234 . S
C192 O178 1.305 . S
C192 O179 1.234 . S
C193 O190 1.305 . S
C193 O191 1.234 . S
Zn194 O200 1.920 . S
Zn194 O206 1.898 . S
Zn194 O209 1.905 . S
Zn195 O203 1.905 . S
Zn195 O204 1.898 . S
Zn195 O212 1.920 . S
Zn196 O199 2.080 . S
Zn196 O202 2.114 . S
Zn196 O205 2.120 . S
Zn196 O207 2.120 . S
Zn196 O208 2.114 . S
Zn196 O211 2.080 . S
C197 O202 1.166 . S
C197 O203 1.182 . S
C198 O204 1.167 . S
C198 O205 1.299 . S
O199 Zn196 2.080 . S
O199 C213 1.305 . S
O200 Zn194 1.920 . S
O200 C213 1.234 . S
C201 O206 1.167 . S
C201 O207 1.299 . S
O202 Zn196 2.114 . S
O202 C197 1.166 . S
O203 Zn195 1.905 . S
O203 C197 1.182 . S
O204 Zn195 1.898 . S
O204 C198 1.167 . S
O205 Zn196 2.120 . S
O205 C198 1.299 . S
O206 Zn194 1.898 . S
O206 C201 1.167 . S
O207 Zn196 2.120 . S
O207 C201 1.299 . S
O208 Zn196 2.114 . S
O208 C210 1.166 . S
O209 Zn194 1.905 . S
O209 C210 1.182 . S
C210 O208 1.166 . S
C210 O209 1.182 . S
O211 Zn196 2.080 . S
O211 C214 1.305 . S
O212 Zn195 1.920 . S
O212 C214 1.234 . S
C213 O199 1.305 . S
C213 O200 1.234 . S
C214 O211 1.305 . S
C214 O212 1.234 . S
Zn215 O221 1.920 . S
Zn215 O227 1.898 . S
Zn215 O230 1.905 . S
Zn216 O224 1.905 1_655 S
Zn216 O225 1.898 . S
Zn216 O233 1.920 . S
Zn217 O220 2.080 1_554 S
Zn217 O223 2.114 . S
Zn217 O226 2.120 1_455 S
Zn217 O228 2.120 . S
Zn217 O229 2.114 1_554 S
Zn217 O232 2.080 . S
C218 O223 1.166 . S
C218 O224 1.182 . S
C219 O225 1.165 1_556 S
C219 O226 1.298 1_556 S
O220 Zn217 2.080 1_556 S
O220 C234 1.305 . S
O221 Zn215 1.920 . S
O221 C234 1.234 . S
C222 O227 1.167 1_554 S
C222 O228 1.299 . S
O223 Zn217 2.114 . S
O223 C218 1.166 . S
O224 Zn216 1.905 1_455 S
O224 C218 1.182 . S
O225 Zn216 1.898 . S
O225 C219 1.165 1_554 S
O226 Zn217 2.120 1_655 S
O226 C219 1.298 1_554 S
O227 Zn215 1.898 . S
O227 C222 1.167 1_556 S
O228 Zn217 2.120 . S
O228 C222 1.299 . S
O229 Zn217 2.114 1_556 S
O229 C231 1.166 . S
O230 Zn215 1.905 . S
O230 C231 1.182 . S
C231 O229 1.166 . S
C231 O230 1.182 . S
O232 Zn217 2.080 . S
O232 C235 1.305 1_455 S
O233 Zn216 1.920 . S
O233 C235 1.234 . S
C234 O220 1.305 . S
C234 O221 1.234 . S
C235 O232 1.305 1_655 S
C235 O233 1.234 . S
C236 C237 1.387 . S
C236 H240 0.950 . S
C236 C245 1.390 . S
C237 C236 1.387 . S
C237 C239 1.387 . S
H238 C245 0.950 . S
C239 C237 1.387 . S
C239 C241 1.390 . S
C239 H243 0.950 . S
H240 C236 0.950 . S
C241 C239 1.390 . S
C241 C242 1.387 . S
C241 H244 0.950 . S
C242 C241 1.387 . S
C242 C245 1.387 . S
H243 C239 0.950 . S
H244 C241 0.950 . S
C245 C236 1.390 . S
C245 H238 0.950 . S
C245 C242 1.387 . S
C246 C247 1.387 . S
C246 H250 0.950 . S
C246 C255 1.390 . S
C247 C246 1.387 . S
C247 C249 1.387 . S
H248 C255 0.950 1_545 S
C249 C247 1.387 . S
C249 C251 1.390 . S
C249 H253 0.950 . S
H250 C246 0.950 . S
C251 C249 1.390 . S
C251 C252 1.387 . S
C251 H254 0.950 . S
C252 C251 1.387 . S
C252 C255 1.387 . S
H253 C249 0.950 . S
H254 C251 0.950 . S
C255 C246 1.390 . S
C255 H248 0.950 1_565 S
C255 C252 1.387 . S
C256 C257 1.387 . S
C256 H260 0.950 . S
C256 C265 1.390 . S
C257 C256 1.387 . S
C257 C259 1.387 . S
H258 C265 0.950 . S
C259 C257 1.387 . S
C259 C261 1.390 . S
C259 H263 0.950 . S
H260 C256 0.950 . S
C261 C259 1.390 . S
C261 C262 1.387 . S
C261 H264 0.950 . S
C262 C261 1.387 . S
C262 C265 1.387 . S
H263 C259 0.950 . S
H264 C261 0.950 . S
C265 C256 1.390 . S
C265 H258 0.950 . S
C265 C262 1.387 . S
C266 C267 1.387 . S
C266 H270 0.950 . S
C266 C275 1.390 . S
C267 C266 1.387 . S
C267 C269 1.387 . S
H268 C275 0.950 . S
C269 C267 1.387 . S
C269 C271 1.390 . S
C269 H273 0.950 . S
H270 C266 0.950 . S
C271 C269 1.390 . S
C271 C272 1.387 . S
C271 H274 0.950 . S
C272 C271 1.387 . S
C272 C275 1.387 . S
H273 C269 0.950 . S
H274 C271 0.950 . S
C275 C266 1.390 . S
C275 H268 0.950 . S
C275 C272 1.387 . S
C276 C277 1.387 . S
C276 H280 0.950 . S
C276 C285 1.390 . S
C277 C276 1.387 . S
C277 C279 1.387 . S
H278 C285 0.950 . S
C279 C277 1.387 . S
C279 C281 1.390 . S
C279 H283 0.950 . S
H280 C276 0.950 . S
C281 C279 1.390 . S
C281 C282 1.387 . S
C281 H284 0.950 . S
C282 C281 1.387 . S
C282 C285 1.387 . S
H283 C279 0.950 . S
H284 C281 0.950 . S
C285 C276 1.390 . S
C285 H278 0.950 . S
C285 C282 1.387 . S
C286 C287 1.387 . S
C286 H290 0.950 . S
C286 C295 1.390 . S
C287 C286 1.387 . S
C287 C289 1.387 1_565 S
H288 C295 0.950 . S
C289 C287 1.387 1_545 S
C289 C291 1.390 . S
C289 H293 0.950 . S
H290 C286 0.950 . S
C291 C289 1.390 . S
C291 C292 1.387 1_545 S
C291 H294 0.950 . S
C292 C291 1.387 1_565 S
C292 C295 1.387 . S
H293 C289 0.950 . S
H294 C291 0.950 . S
C295 C286 1.390 . S
C295 H288 0.950 . S
C295 C292 1.387 . S
C296 C297 1.387 . S
C296 H300 0.950 . S
C296 C305 1.390 . S
C297 C296 1.387 . S
C297 C299 1.387 . S
H298 C305 0.950 . S
C299 C297 1.387 . S
C299 C301 1.390 1_556 S
C299 H303 0.950 1_556 S
H300 C296 0.950 . S
C301 C299 1.390 1_554 S
C301 C302 1.387 1_554 S
C301 H304 0.950 . S
C302 C301 1.387 1_556 S
C302 C305 1.387 . S
H303 C299 0.950 1_554 S
H304 C301 0.950 . S
C305 C296 1.390 . S
C305 H298 0.950 . S
C305 C302 1.387 . S
C306 C307 1.387 . S
C306 H310 0.950 . S
C306 C315 1.390 . S
C307 C306 1.387 . S
C307 C309 1.387 . S
H308 C315 0.950 . S
C309 C307 1.387 . S
C309 C311 1.390 . S
C309 H313 0.950 . S
H310 C306 0.950 . S
C311 C309 1.390 . S
C311 C312 1.387 . S
C311 H314 0.950 . S
C312 C311 1.387 . S
C312 C315 1.387 . S
H313 C309 0.950 . S
H314 C311 0.950 . S
C315 C306 1.390 . S
C315 H308 0.950 . S
C315 C312 1.387 . S
C316 C317 1.387 . S
C316 H320 0.950 . S
C316 C325 1.390 . S
C317 C316 1.387 . S
C317 C319 1.387 . S
H318 C325 0.950 . S
C319 C317 1.387 . S
C319 C321 1.390 . S
C319 H323 0.950 . S
H320 C316 0.950 . S
C321 C319 1.390 . S
C321 C322 1.387 . S
C321 H324 0.950 . S
C322 C321 1.387 . S
C322 C325 1.387 . S
H323 C319 0.950 . S
H324 C321 0.950 . S
C325 C316 1.390 . S
C325 H318 0.950 . S
C325 C322 1.387 . S
C326 C327 1.387 . S
C326 H330 0.950 . S
C326 C335 1.390 . S
C327 C326 1.387 . S
C327 C329 1.387 1_556 S
H328 C335 0.950 . S
C329 C327 1.387 1_554 S
C329 C331 1.390 . S
C329 H333 0.950 . S
H330 C326 0.950 . S
C331 C329 1.390 . S
C331 C332 1.387 . S
C331 H334 0.950 . S
C332 C331 1.387 . S
C332 C335 1.387 1_554 S
H333 C329 0.950 . S
H334 C331 0.950 . S
C335 C326 1.390 . S
C335 H328 0.950 . S
C335 C332 1.387 1_556 S
C336 C337 1.387 . S
C336 H340 0.950 . S
C336 C345 1.390 . S
C337 C336 1.387 . S
C337 C339 1.387 . S
H338 C345 0.950 . S
C339 C337 1.387 . S
C339 C341 1.390 . S
C339 H343 0.950 . S
H340 C336 0.950 . S
C341 C339 1.390 . S
C341 C342 1.387 . S
C341 H344 0.950 . S
C342 C341 1.387 . S
C342 C345 1.387 . S
H343 C339 0.950 . S
H344 C341 0.950 . S
C345 C336 1.390 . S
C345 H338 0.950 . S
C345 C342 1.387 . S
C346 C347 1.387 . S
C346 H350 0.950 . S
C346 C355 1.390 . S
C347 C346 1.387 . S
C347 C349 1.387 . S
H348 C355 0.950 . S
C349 C347 1.387 . S
C349 C351 1.390 . S
C349 H353 0.950 . S
H350 C346 0.950 . S
C351 C349 1.390 . S
C351 C352 1.387 . S
C351 H354 0.950 . S
C352 C351 1.387 . S
C352 C355 1.387 . S
H353 C349 0.950 . S
H354 C351 0.950 . S
C355 C346 1.390 . S
C355 H348 0.950 . S
C355 C352 1.387 . S
C356 C357 1.387 1_655 S
C356 H360 0.950 . S
C356 C365 1.390 . S
C357 C356 1.387 1_455 S
C357 C359 1.387 1_545 S
H358 C365 0.950 . S
C359 C357 1.387 1_565 S
C359 C361 1.390 . S
C359 H363 0.950 . S
H360 C356 0.950 . S
C361 C359 1.390 . S
C361 C362 1.387 1_465 S
C361 H364 0.950 . S
C362 C361 1.387 1_645 S
C362 C365 1.387 . S
H363 C359 0.950 . S
H364 C361 0.950 . S
C365 C356 1.390 . S
C365 H358 0.950 . S
C365 C362 1.387 . S
C366 C367 1.387 . S
C366 H370 0.950 . S
C366 C375 1.390 . S
C367 C366 1.387 . S
C367 C369 1.387 . S
H368 C375 0.950 . S
C369 C367 1.387 . S
C369 C371 1.390 . S
C369 H373 0.950 1_545 S
H370 C366 0.950 . S
C371 C369 1.390 . S
C371 C372 1.387 . S
C371 H374 0.950 1_545 S
C372 C371 1.387 . S
C372 C375 1.387 . S
H373 C369 0.950 1_565 S
H374 C371 0.950 1_565 S
C375 C366 1.390 . S
C375 H368 0.950 . S
C375 C372 1.387 . S
C376 C377 1.387 . S
C376 H380 0.950 . S
C376 C385 1.390 . S
C377 C376 1.387 . S
C377 C379 1.387 . S
H378 C385 0.950 . S
C379 C377 1.387 . S
C379 C381 1.390 . S
C379 H383 0.950 . S
H380 C376 0.950 . S
C381 C379 1.390 . S
C381 C382 1.387 . S
C381 H384 0.950 . S
C382 C381 1.387 . S
C382 C385 1.387 . S
H383 C379 0.950 . S
H384 C381 0.950 . S
C385 C376 1.390 . S
C385 H378 0.950 . S
C385 C382 1.387 . S
C386 C387 1.387 . S
C386 H390 0.950 . S
C386 C395 1.390 . S
C387 C386 1.387 . S
C387 C389 1.387 . S
H388 C395 0.950 . S
C389 C387 1.387 . S
C389 C391 1.390 . S
C389 H393 0.950 1_455 S
H390 C386 0.950 . S
C391 C389 1.390 . S
C391 C392 1.387 . S
C391 H394 0.950 1_455 S
C392 C391 1.387 . S
C392 C395 1.387 . S
H393 C389 0.950 1_655 S
H394 C391 0.950 1_655 S
C395 C386 1.390 . S
C395 H388 0.950 . S
C395 C392 1.387 . S
C396 C397 1.387 . S
C396 H400 0.950 . S
C396 C405 1.390 . S
C397 C396 1.387 . S
C397 C399 1.387 1_545 S
H398 C405 0.950 . S
C399 C397 1.387 1_565 S
C399 C401 1.390 . S
C399 H403 0.950 . S
H400 C396 0.950 . S
C401 C399 1.390 . S
C401 C402 1.387 1_565 S
C401 H404 0.950 . S
C402 C401 1.387 1_545 S
C402 C405 1.387 . S
H403 C399 0.950 . S
H404 C401 0.950 . S
C405 C396 1.390 . S
C405 H398 0.950 . S
C405 C402 1.387 . S
C406 C407 1.387 . S
C406 H410 0.950 . S
C406 C415 1.390 . S
C407 C406 1.387 . S
C407 C409 1.387 . S
H408 C415 0.950 . S
C409 C407 1.387 . S
C409 C411 1.390 . S
C409 H413 0.950 . S
H410 C406 0.950 . S
C411 C409 1.390 . S
C411 C412 1.387 . S
C411 H414 0.950 . S
C412 C411 1.387 . S
C412 C415 1.387 . S
H413 C409 0.950 . S
H414 C411 0.950 . S
C415 C406 1.390 . S
C415 H408 0.950 . S
C415 C412 1.387 . S
C416 C417 1.387 . S
C416 H420 0.950 . S
C416 C425 1.390 . S
C417 C416 1.387 . S
C417 C419 1.387 . S
H418 C425 0.927 1_556 S
C419 C417 1.387 . S
C419 C421 1.390 . S
C419 H423 0.950 . S
H420 C416 0.950 . S
C421 C419 1.390 . S
C421 C422 1.387 . S
C421 H424 0.950 . S
C422 C421 1.387 . S
C422 C425 1.387 . S
H423 C419 0.950 . S
H424 C421 0.950 . S
C425 C416 1.390 . S
C425 H418 0.927 1_554 S
C425 C422 1.387 . S
C426 C427 1.387 . S
C426 H430 0.950 . S
C426 C435 1.390 . S
C427 C426 1.387 . S
C427 C429 1.387 . S
H428 C435 0.950 . S
C429 C427 1.387 . S
C429 C431 1.390 . S
C429 H433 0.950 . S
H430 C426 0.950 . S
C431 C429 1.390 . S
C431 C432 1.387 . S
C431 H434 0.950 . S
C432 C431 1.387 . S
C432 C435 1.387 . S
H433 C429 0.950 . S
H434 C431 0.950 . S
C435 C426 1.390 . S
C435 H428 0.950 . S
C435 C432 1.387 . S
C436 C437 1.387 1_554 S
C436 H440 0.950 . S
C436 C445 1.390 . S
C437 C436 1.387 1_556 S
C437 C439 1.387 1_455 S
H438 C445 0.950 . S
C439 C437 1.387 1_655 S
C439 C441 1.390 . S
C439 H443 0.950 . S
H440 C436 0.950 . S
C441 C439 1.390 . S
C441 C442 1.387 1_655 S
C441 H444 0.950 . S
C442 C441 1.387 1_455 S
C442 C445 1.387 1_556 S
H443 C439 0.950 . S
H444 C441 0.950 . S
C445 C436 1.390 . S
C445 H438 0.950 . S
C445 C442 1.387 1_554 S
C446 C447 1.387 . S
C446 H450 0.950 . S
C446 C455 1.390 . S
C447 C446 1.387 . S
C447 C449 1.387 . S
H448 C455 0.950 . S
C449 C447 1.387 . S
C449 C451 1.390 . S
C449 H453 0.950 . S
H450 C446 0.950 . S
C451 C449 1.390 . S
C451 C452 1.387 . S
C451 H454 0.950 . S
C452 C451 1.387 . S
C452 C455 1.387 . S
H453 C449 0.950 . S
H454 C451 0.950 . S
C455 C446 1.390 . S
C455 H448 0.950 . S
C455 C452 1.387 . S
C456 C457 1.387 . S
C456 H460 0.950 . S
C456 C465 1.390 . S
C457 C456 1.387 . S
C457 C459 1.387 . S
H458 C465 0.950 . S
C459 C457 1.387 . S
C459 C461 1.390 . S
C459 H463 0.950 . S
H460 C456 0.950 . S
C461 C459 1.390 . S
C461 C462 1.387 . S
C461 H464 0.950 . S
C462 C461 1.387 . S
C462 C465 1.387 . S
H463 C459 0.950 . S
H464 C461 0.950 . S
C465 C456 1.390 . S
C465 H458 0.950 . S
C465 C462 1.387 . S
C466 C467 1.387 . S
C466 H470 0.950 . S
C466 C475 1.390 . S
C467 C466 1.387 . S
C467 C469 1.387 . S
H468 C475 0.950 . S
C469 C467 1.387 . S
C469 C471 1.390 . S
C469 H473 0.950 . S
H470 C466 0.950 . S
C471 C469 1.390 . S
C471 C472 1.387 . S
C471 H474 0.950 . S
C472 C471 1.387 . S
C472 C475 1.387 . S
H473 C469 0.950 . S
H474 C471 0.950 . S
C475 C466 1.390 . S
C475 H468 0.950 . S
C475 C472 1.387 . S
C237 C6 1.789 . S
C242 C155 1.631 . S
C247 C21 1.993 . S
C252 C189 1.830 1_566 S
C262 C201 1.057 . S
C257 C49 1.034 . S
C267 C68 1.262 . S
C272 C235 1.243 . S
C282 C192 1.962 . S
C277 C2 2.114 . S
C292 C172 1.328 . S
C287 C30 1.213 . S
C302 C219 1.267 . S
C297 C40 1.463 . S
C312 C210 1.384 . S
C307 C63 1.428 . S
C317 C11 1.432 . S
C322 C218 1.545 . S
C332 C180 1.605 . S
C327 C44 1.683 . S
C337 C59 1.238 . S
C342 C156 1.161 . S
C347 C25 1.779 . S
C352 C213 1.676 . S
C362 C171 1.964 . S
C357 C82 2.004 1_445 S
C367 C101 1.821 . S
C372 C193 1.660 . S
C377 C125 1.505 . S
C382 C198 1.415 . S
C387 C144 1.135 . S
C392 C231 1.285 . S
C397 C87 1.267 . S
C402 C176 1.422 . S
C412 C168 1.961 . S
C407 C97 2.096 . S
C422 C222 1.450 . S
C417 C120 1.473 . S
C432 C214 1.404 . S
C427 C135 1.556 . S
C437 C78 1.879 1_455 S
C442 C234 1.781 . S
C452 C177 1.285 . S
C447 C116 1.354 . S
C462 C159 1.660 . S
C457 C139 1.721 . S
C467 C106 1.526 . S
C472 C197 1.551 . S
