# Generated by pormake.
# Topology anh, (6,3)-cn, num edge types: 1
# Building blocks:
#     Node 0, Type 0, BuildingBlock: INOVEN_clean_sbu_0, # of connection points: 6
#     Node 1, Type 0, BuildingBlock: INOVEN_clean_sbu_0, # of connection points: 6
#     Node 2, Type 0, BuildingBlock: INOVEN_clean_sbu_0, # of connection points: 6
#     Node 3, Type 1, BuildingBlock: VETTIZ_charged_linker_0, # of connection points: 3
#     Node 4, Type 1, BuildingBlock: VETTIZ_charged_linker_0, # of connection points: 3
#     Node 5, Type 1, BuildingBlock: VETTIZ_charged_linker_0, # of connection points: 3
#     Node 6, Type 1, BuildingBlock: VETTIZ_charged_linker_0, # of connection points: 3
#     Node 7, Type 1, BuildingBlock: VETTIZ_charged_linker_0, # of connection points: 3
#     Node 8, Type 1, BuildingBlock: VETTIZ_charged_linker_0, # of connection points: 3
#     Edge 9, Type (0, 1), BuildingBlock: MIFKUJ_clean_linker_0, # of connection points: 2
#     Edge 10, Type (0, 1), BuildingBlock: MIFKUJ_clean_linker_0, # of connection points: 2
#     Edge 11, Type (0, 1), BuildingBlock: MIFKUJ_clean_linker_0, # of connection points: 2
#     Edge 12, Type (0, 1), BuildingBlock: MIFKUJ_clean_linker_0, # of connection points: 2
#     Edge 13, Type (0, 1), BuildingBlock: MIFKUJ_clean_linker_0, # of connection points: 2
#     Edge 14, Type (0, 1), BuildingBlock: MIFKUJ_clean_linker_0, # of connection points: 2
#     Edge 15, Type (0, 1), BuildingBlock: MIFKUJ_clean_linker_0, # of connection points: 2
#     Edge 16, Type (0, 1), BuildingBlock: MIFKUJ_clean_linker_0, # of connection points: 2
#     Edge 17, Type (0, 1), BuildingBlock: MIFKUJ_clean_linker_0, # of connection points: 2
#     Edge 18, Type (0, 1), BuildingBlock: MIFKUJ_clean_linker_0, # of connection points: 2
#     Edge 19, Type (0, 1), BuildingBlock: MIFKUJ_clean_linker_0, # of connection points: 2
#     Edge 20, Type (0, 1), BuildingBlock: MIFKUJ_clean_linker_0, # of connection points: 2
#     Edge 21, Type (0, 1), BuildingBlock: MIFKUJ_clean_linker_0, # of connection points: 2
#     Edge 22, Type (0, 1), BuildingBlock: MIFKUJ_clean_linker_0, # of connection points: 2
#     Edge 23, Type (0, 1), BuildingBlock: MIFKUJ_clean_linker_0, # of connection points: 2
#     Edge 24, Type (0, 1), BuildingBlock: MIFKUJ_clean_linker_0, # of connection points: 2
#     Edge 25, Type (0, 1), BuildingBlock: MIFKUJ_clean_linker_0, # of connection points: 2
#     Edge 26, Type (0, 1), BuildingBlock: MIFKUJ_clean_linker_0, # of connection points: 2
# Relax obj value: 0.165
# Max RMSD: 0.204
# Mean RMSD: 0.154
data_MOF--net-anh--node1-INOVEN_clean_sbu_0--node2-VETTIZ_charged_linker_0--edge1-MIFKUJ_clean_linker_0
_symmetry_space_group_name_H-M    P1
_symmetry_Int_Tables_number       1
_symmetry_cell_setting            triclinic
loop_
_symmetry_equiv_pos_as_xyz
'x, y, z'
_cell_length_a     46.710118
_cell_length_b     52.406038
_cell_length_c     82.739432
_cell_angle_alpha  93.114545
_cell_angle_beta   89.345661
_cell_angle_gamma 127.59788
loop_
_atom_site_label
_atom_site_type_symbol
_atom_site_fract_x
_atom_site_fract_y
_atom_site_fract_z
_atom_type_partial_charge
Gd0 Gd 0.07744 0.49566 0.16387 0.0
Gd1 Gd 0.04473 0.52802 0.16613 0.0
C2 C 0.12986 0.57474 0.1664 0.0
C3 C 0.11585 0.47718 0.15863 0.0
C4 C 0.15489 0.50004 0.15944 0.0
C5 C 0.1737 0.498 0.17165 0.0
C6 C 0.17228 0.52806 0.15079 0.0
C7 C 0.22813 0.55003 0.16505 0.0
C8 C 0.20851 0.55298 0.15373 0.0
C9 C 0.21003 0.52299 0.17459 0.0
C10 C 0.05695 0.49829 0.19402 0.0
C11 C 0.99224 0.45052 0.16226 0.0
C12 C 1.01817 0.55388 0.17973 0.0
C13 C 0.97985 0.53609 0.1825 0.0
C14 C 0.96004 0.53981 0.1717 0.0
C15 C 0.96217 0.5084 0.19154 0.0
C16 C 0.9078 0.48517 0.17584 0.0
C17 C 0.92625 0.48288 0.18809 0.0
C18 C 0.9243 0.51431 0.16823 0.0
C19 C 0.05021 0.51983 0.13362 0.0
O20 O 0.12847 0.54864 0.16579 0.0
O21 O 0.10042 0.57235 0.16591 0.0
O22 O 0.10134 0.47441 0.17262 0.0
O23 O 0.09989 0.47999 0.14672 0.0
O24 O 0.05004 0.47248 0.18682 0.0
O25 O 0.07322 0.52125 0.18457 0.0
O26 O 0.99503 0.47607 0.1679 0.0
O27 O 1.02076 0.45342 0.15704 0.0
O28 O 1.02632 0.55683 0.16442 0.0
O29 O 0.03399 0.54492 0.18795 0.0
O30 O 0.03516 0.53194 0.14001 0.0
O31 O 0.06024 0.51092 0.14474 0.0
H32 H 0.16024 0.47718 0.17894 0.0
H33 H 0.158 0.53098 0.14178 0.0
H34 H 0.22201 0.57337 0.14615 0.0
H35 H 0.22441 0.5196 0.1833 0.0
H36 H 0.97309 0.56106 0.16475 0.0
H37 H 0.9767 0.50515 0.20024 0.0
H38 H 0.91306 0.46122 0.19471 0.0
H39 H 0.90962 0.51738 0.15951 0.0
Gd40 Gd 0.56512 1.00509 0.48674 0.0
Gd41 Gd 0.52236 0.029 0.4857 0.0
C42 C 0.47654 0.95366 0.48318 0.0
C43 C 0.58858 0.9732 0.4935 0.0
C44 C 0.57391 0.93892 0.49255 0.0
C45 C 0.57615 0.92459 0.47821 0.0
C46 C 0.55912 0.92064 0.50625 0.0
C47 C 0.55211 0.87543 0.49176 0.0
C48 C 0.54824 0.88919 0.50586 0.0
C49 C 0.56526 0.89313 0.47782 0.0
C50 C 0.55684 0.01788 0.45684 0.0
C51 C 0.61066 0.08057 0.48738 0.0
C52 C 0.4998 0.062 0.48001 0.0
C53 C 0.51609 0.09665 0.48199 0.0
C54 C 0.51759 0.11078 0.49722 0.0
C55 C 0.52975 0.11583 0.46856 0.0
C56 C 0.54368 0.16186 0.48531 0.0
C57 C 0.54341 0.14814 0.4702 0.0
C58 C 0.53135 0.14308 0.49886 0.0
C59 C 0.53092 0.01619 0.51566 0.0
O60 O 0.50723 0.959 0.48714 0.0
O61 O 0.47568 0.9775 0.47989 0.0
O62 O 0.59461 0.98682 0.4798 0.0
O63 O 0.57482 0.98183 0.50431 0.0
O64 O 0.58593 0.02279 0.46209 0.0
O65 O 0.53236 1.00401 0.46713 0.0
O66 O 0.5795 0.07449 0.48383 0.0
O67 O 0.61227 0.05733 0.49114 0.0
O68 O 0.49272 0.0468 0.49326 0.0
O69 O 0.51327 0.05376 0.46883 0.0
O70 O 0.50121 0.00968 0.51006 0.0
O71 O 0.55547 0.03042 0.50538 0.0
H72 H 0.58723 0.93792 0.4674 0.0
H73 H 0.55702 0.93097 0.51748 0.0
H74 H 0.53854 0.8763 0.51685 0.0
H75 H 0.56805 0.88297 0.46672 0.0
H76 H 0.50741 0.09677 0.50785 0.0
H77 H 0.52921 0.10569 0.45669 0.0
H78 H 0.55306 0.16224 0.4596 0.0
H79 H 0.53083 0.15294 0.51062 0.0
Gd80 Gd 0.61424 0.57457 0.83299 0.0
Gd81 Gd 0.56555 0.50337 0.83365 0.0
C82 C 0.52379 0.53572 0.83657 0.0
C83 C 0.64145 0.63279 0.82647 0.0
C84 C 0.62814 0.65228 0.82743 0.0
C85 C 0.6278 0.66662 0.84226 0.0
C86 C 0.61586 0.65692 0.81332 0.0
C87 C 0.60436 0.69076 0.82864 0.0
C88 C 0.60413 0.67588 0.8139 0.0
C89 C 0.61598 0.6856 0.84285 0.0
C90 C 0.60266 0.55232 0.86213 0.0
C91 C 0.65611 0.54282 0.83468 0.0
C92 C 0.53721 0.4442 0.83902 0.0
C93 C 0.54855 0.42318 0.83719 0.0
C94 C 0.54823 0.40986 0.82187 0.0
C95 C 0.55843 0.41515 0.85092 0.0
C96 C 0.56558 0.37986 0.83416 0.0
C97 C 0.5667 0.39356 0.84942 0.0
C98 C 0.55687 0.38857 0.82038 0.0
C99 C 0.57596 0.5258 0.80403 0.0
O100 O 0.5567 0.56278 0.83356 0.0
O101 O 0.5205 0.50889 0.83853 0.0
O102 O 0.64785 0.62554 0.84018 0.0
O103 O 0.62585 0.60876 0.81544 0.0
O104 O 0.63421 0.57711 0.85795 0.0
O105 O 0.57892 0.54159 0.85123 0.0
O106 O 0.6229 0.51621 0.83752 0.0
O107 O 0.65966 0.5689 0.83053 0.0
O108 O 0.53114 0.45278 0.82572 0.0
O109 O 0.55385 0.46764 0.85033 0.0
O110 O 0.54538 0.5006 0.80865 0.0
O111 O 0.60037 0.5366 0.81473 0.0
H112 H 0.63692 0.66345 0.85341 0.0
H113 H 0.61581 0.64626 0.80171 0.0
H114 H 0.59598 0.6797 0.80265 0.0
H115 H 0.6161 0.69633 0.85443 0.0
H116 H 0.5406 0.41532 0.81103 0.0
H117 H 0.55897 0.425 0.86287 0.0
H118 H 0.57336 0.3871 0.86019 0.0
H119 H 0.55544 0.37794 0.80852 0.0
C120 C 0.63701 0.10604 0.18083 0.0
C121 C 0.66502 0.13586 0.18877 0.0
C122 C 0.66592 0.13953 0.20571 0.0
C123 C 0.61198 0.08451 0.20698 0.0
C124 C 0.61043 0.08056 0.19026 0.0
C125 C 0.57807 0.0468 0.18443 0.0
H126 H 0.42732 0.89957 0.20614 0.0
C127 C 0.58135 0.05418 0.21349 0.0
C128 C 0.5608 0.03163 0.20043 0.0
H129 H 0.46412 0.92564 0.15752 0.0
H130 H 0.51542 0.97969 0.16784 0.0
H131 H 0.50226 0.92746 0.2204 0.0
H132 H 0.44169 0.9641 0.21895 0.0
H133 H 0.4625 0.97603 0.23828 0.0
H134 H 0.43135 0.93364 0.23219 0.0
H135 H 0.46617 0.91508 0.23391 0.0
H136 H 0.51231 0.94934 0.23897 0.0
C137 C 0.59199 0.02994 0.17539 0.0
C138 C 0.55311 0.04948 0.17387 0.0
C139 C 0.5705 0.04697 0.27467 0.0
C140 C 0.54558 0.02171 0.28446 0.0
C141 C 0.51574 0.99235 0.27708 0.0
C142 C 0.51112 0.98787 0.26024 0.0
C143 C 0.53671 0.01294 0.25055 0.0
C144 C 0.56559 0.04195 0.25778 0.0
C145 C 0.59001 0.06567 0.24549 0.0
C146 C 0.57125 0.04583 0.22972 0.0
C147 C 0.54019 0.01513 0.23282 0.0
C148 C 0.62785 0.07396 0.24775 0.0
C149 C 0.58939 0.09496 0.24766 0.0
C150 C 0.44621 0.91699 0.19766 0.0
C151 C 0.44156 0.90868 0.18107 0.0
C152 C 0.46722 0.93172 0.17042 0.0
C153 C 0.49688 0.96295 0.17644 0.0
C154 C 0.50116 0.97081 0.19326 0.0
C155 C 0.47592 0.94758 0.20344 0.0
C156 C 0.48469 0.95841 0.22093 0.0
C157 C 0.51898 0.99234 0.21984 0.0
C158 C 0.52898 1.00009 0.20366 0.0
C159 C 0.49151 0.93647 0.22912 0.0
C160 C 0.45349 0.95789 0.22811 0.0
H161 H 0.64244 0.11873 0.22768 0.0
H162 H 0.63589 0.10277 0.16776 0.0
H163 H 0.54819 0.06579 0.18008 0.0
H164 H 0.52635 0.02608 0.17145 0.0
H165 H 0.5656 0.05947 0.16208 0.0
H166 H 0.6148 0.03394 0.18233 0.0
H167 H 0.60183 0.03962 0.16327 0.0
H168 H 0.57121 1.00358 0.17385 0.0
H169 H 0.59376 0.0698 0.27999 0.0
H170 H 0.49583 0.97275 0.28438 0.0
H171 H 0.48785 0.96489 0.25547 0.0
H172 H 0.62542 0.05256 0.25133 0.0
H173 H 0.64417 0.09349 0.25735 0.0
H174 H 0.64333 0.08096 0.23651 0.0
H175 H 0.56358 0.08792 0.25288 0.0
H176 H 0.59082 0.10512 0.23603 0.0
H177 H 0.61171 0.11433 0.25592 0.0
H178 H 0.68732 0.16224 0.21196 0.0
C179 C 0.63975 0.11415 0.21481 0.0
C180 C 0.55351 0.59513 0.52809 0.0
C181 C 0.55305 0.61953 0.53553 0.0
C182 C 0.55625 0.62462 0.55249 0.0
C183 C 0.55801 0.57985 0.55459 0.0
C184 C 0.55567 0.57536 0.53787 0.0
C185 C 0.55429 0.5469 0.53217 0.0
H186 H 0.55277 0.42229 0.55102 0.0
C187 C 0.5575 0.55416 0.56128 0.0
C188 C 0.55508 0.53461 0.54822 0.0
H189 H 0.55456 0.45304 0.50335 0.0
H190 H 0.55228 0.49501 0.51523 0.0
H191 H 0.61093 0.49433 0.56761 0.0
H192 H 0.49508 0.42674 0.56522 0.0
H193 H 0.50552 0.44891 0.5838 0.0
H194 H 0.52096 0.42481 0.58023 0.0
H195 H 0.58491 0.45647 0.57703 0.0
H196 H 0.59487 0.49231 0.58722 0.0
C197 C 0.58856 0.5595 0.52232 0.0
C198 C 0.51819 0.52228 0.52258 0.0
C199 C 0.56547 0.5499 0.62229 0.0
C200 C 0.56274 0.52724 0.63202 0.0
C201 C 0.55545 0.49899 0.62434 0.0
C202 C 0.55282 0.4942 0.60748 0.0
C203 C 0.55672 0.51746 0.59801 0.0
C204 C 0.5618 0.54424 0.60541 0.0
C205 C 0.56185 0.56473 0.59331 0.0
C206 C 0.55801 0.54665 0.57746 0.0
C207 C 0.5553 0.51919 0.58035 0.0
C208 C 0.59858 0.59892 0.59491 0.0
C209 C 0.52838 0.56378 0.59633 0.0
C210 C 0.55298 0.43824 0.54313 0.0
C211 C 0.55444 0.4348 0.52628 0.0
C212 C 0.55352 0.45535 0.51639 0.0
C213 C 0.55249 0.47981 0.52333 0.0
C214 C 0.55236 0.48361 0.54029 0.0
C215 C 0.55226 0.46277 0.54984 0.0
C216 C 0.55242 0.47031 0.5676 0.0
C217 C 0.55334 0.49964 0.56722 0.0
C218 C 0.55328 0.50732 0.55123 0.0
C219 C 0.58743 0.47866 0.57542 0.0
C220 C 0.51687 0.44125 0.5747 0.0
H221 H 0.56127 0.61004 0.57492 0.0
H222 H 0.55092 0.59083 0.51504 0.0
H223 H 0.49583 0.52127 0.52826 0.0
H224 H 0.5093 0.49733 0.52245 0.0
H225 H 0.52012 0.52904 0.5099 0.0
H226 H 0.61216 0.58357 0.52739 0.0
H227 H 0.58447 0.56208 0.50949 0.0
H228 H 0.59713 0.54402 0.52274 0.0
H229 H 0.57079 0.57181 0.62756 0.0
H230 H 0.55149 0.48024 0.63131 0.0
H231 H 0.54786 0.47249 0.60249 0.0
H232 H 0.62095 0.59756 0.5974 0.0
H233 H 0.59856 0.61376 0.60502 0.0
H234 H 0.60601 0.61196 0.58371 0.0
H235 H 0.50547 0.54016 0.60081 0.0
H236 H 0.51744 0.56604 0.5852 0.0
H237 H 0.53463 0.58287 0.60555 0.0
H238 H 0.55622 0.64363 0.55833 0.0
C239 C 0.55898 0.60504 0.56207 0.0
C240 C 0.17742 0.54049 0.85357 0.0
C241 C 0.20502 0.54085 0.86193 0.0
C242 C 0.20375 0.54154 0.8789 0.0
C243 C 0.15059 0.54086 0.87932 0.0
C244 C 0.15044 0.54078 0.86261 0.0
C245 C 0.1189 0.54139 0.85698 0.0
H246 H 0.97265 0.54083 0.88477 0.0
C247 C 0.12005 0.54045 0.88587 0.0
C248 C 0.10036 0.54089 0.87297 0.0
H249 H 0.99827 0.54475 0.83433 0.0
H250 H 0.04945 0.54419 0.84165 0.0
H251 H 0.97913 0.48697 0.89165 0.0
H252 H 0.05034 0.59011 0.89823 0.0
H253 H 0.05634 0.57639 0.91576 0.0
H254 H 1.0123 0.56497 0.91077 0.0
H255 H 0.97449 0.50812 0.90794 0.0
H256 H 1.00219 0.49509 0.91004 0.0
C257 C 0.09218 0.51148 0.84577 0.0
C258 C 0.13456 0.5725 0.84837 0.0
C259 C 0.10471 0.53535 0.94763 0.0
C260 C 0.079 0.53293 0.95812 0.0
C261 C 0.05078 0.5316 0.95087 0.0
C262 C 0.04864 0.53345 0.93409 0.0
C263 C 0.07454 0.53611 0.92385 0.0
C264 C 0.10174 0.53669 0.93069 0.0
C265 C 0.12613 0.53852 0.91789 0.0
C266 C 0.10926 0.5391 0.90226 0.0
C267 C 0.0792 0.53799 0.90584 0.0
C268 C 0.12323 0.50741 0.91832 0.0
C269 C 0.16464 0.57058 0.92137 0.0
C270 C 0.98804 0.54099 0.87488 0.0
C271 C 0.97917 0.54224 0.85879 0.0
C272 C 1.00294 0.54368 0.84697 0.0
C273 C 1.03287 0.54325 0.85117 0.0
C274 C 0.04036 0.54146 0.86752 0.0
C275 C 1.01733 0.54045 0.87879 0.0
C276 C 1.02673 0.53841 0.8956 0.0
C277 C 0.05935 0.53894 0.8932 0.0
C278 C 0.06883 0.54054 0.87663 0.0
C279 C 0.99403 0.50567 0.90179 0.0
C280 C 0.03673 0.5688 0.90575 0.0
H281 H 0.17945 0.5419 0.90026 0.0
H282 H 0.17715 0.5404 0.8405 0.0
H283 H 0.15424 0.59401 0.8565 0.0
H284 H 0.11286 0.57402 0.84479 0.0
H285 H 0.14875 0.57334 0.8373 0.0
H286 H 0.08138 0.48911 0.85203 0.0
H287 H 0.10571 0.5114 0.83465 0.0
H288 H 0.06907 0.51101 0.84212 0.0
H289 H 0.12697 0.53653 0.9524 0.0
H290 H 1.02961 0.52862 0.95811 0.0
H291 H 1.02654 0.53265 0.92977 0.0
H292 H 0.09602 0.4867 0.92215 0.0
H293 H 0.14345 0.51075 0.92695 0.0
H294 H 0.12614 0.49906 0.90629 0.0
H295 H 0.16348 0.58958 0.92718 0.0
H296 H 0.17986 0.58119 0.91022 0.0
H297 H 0.18058 0.56727 0.92962 0.0
H298 H 0.22358 0.54199 0.88588 0.0
C299 C 0.17749 0.54147 0.88739 0.0
C300 C 0.94994 0.43405 0.47261 0.0
C301 C 0.92096 0.40453 0.46485 0.0
C302 C 0.91771 0.40157 0.44789 0.0
C303 C 0.97194 0.45641 0.44629 0.0
C304 C 0.97521 0.45986 0.46302 0.0
C305 C 1.00809 0.49337 0.46873 0.0
H306 H 0.15965 0.63951 0.44707 0.0
C307 C 1.00234 0.48677 0.43963 0.0
C308 C 1.02393 0.50891 0.45266 0.0
H309 H 0.12614 0.61122 0.49581 0.0
H310 H 0.07183 0.55912 0.48532 0.0
H311 H 0.14098 0.57444 0.4327 0.0
H312 H 0.0835 0.61432 0.43394 0.0
H313 H 0.0719 0.5929 0.4151 0.0
H314 H 0.11858 0.62641 0.41985 0.0
H315 H 0.15247 0.60664 0.42051 0.0
H316 H 0.12004 0.56494 0.41352 0.0
C317 C 0.03372 0.49011 0.47836 0.0
C318 C 0.99511 0.51017 0.4787 0.0
C319 C 1.01345 0.49337 0.37828 0.0
C320 C 0.03812 0.51862 0.36841 0.0
C321 C 0.06674 0.54867 0.37576 0.0
C322 C 0.07091 0.55358 0.39264 0.0
C323 C 0.046 0.52829 0.4024 0.0
C324 C 1.01771 0.49889 0.39521 0.0
C325 C 0.99326 0.47531 0.40759 0.0
C326 C 1.01188 0.49533 0.42335 0.0
C327 C 0.04276 0.52613 0.42019 0.0
C328 C 0.99402 0.44612 0.40561 0.0
C329 C 0.95533 0.46681 0.40524 0.0
C330 C 0.14067 0.62205 0.45551 0.0
C331 C 0.14724 0.62908 0.4722 0.0
C332 C 0.12158 0.60609 0.48284 0.0
C333 C 0.09025 0.57592 0.47672 0.0
C334 C 0.08452 0.56901 0.45982 0.0
C335 C 0.10952 0.59238 0.44965 0.0
C336 C 0.09956 0.58227 0.43212 0.0
C337 C 0.06477 0.54858 0.43317 0.0
C338 C 0.05566 0.54041 0.44939 0.0
C339 C 0.12976 0.58219 0.42415 0.0
C340 C 0.09325 0.60514 0.42473 0.0
H341 H 0.93877 0.42306 0.42574 0.0
H342 H 0.95284 0.43683 0.48569 0.0
H343 H 0.97169 0.50635 0.47246 0.0
H344 H 1.01601 0.53653 0.48023 0.0
H345 H 0.98644 0.50031 0.49086 0.0
H346 H 0.03722 0.4732 0.4717 0.0
H347 H 1.02262 0.48055 0.49039 0.0
H348 H 0.06104 0.51315 0.48023 0.0
H349 H 0.991 0.47008 0.37296 0.0
H350 H 0.08626 0.56835 0.3684 0.0
H351 H 0.09352 0.57696 0.39739 0.0
H352 H 1.02122 0.45398 0.40203 0.0
H353 H 0.97422 0.42814 0.39611 0.0
H354 H 0.98889 0.43399 0.41697 0.0
H355 H 0.95735 0.48728 0.40044 0.0
H356 H 0.94101 0.46221 0.41673 0.0
H357 H 0.93812 0.44561 0.39656 0.0
H358 H 0.89557 0.37907 0.44177 0.0
C359 C 0.9429 0.4272 0.43861 0.0
C360 C 0.55448 0.94314 0.79233 0.0
C361 C 0.55409 0.91806 0.78497 0.0
C362 C 0.55432 0.91506 0.76794 0.0
C363 C 0.55343 0.96032 0.76578 0.0
C364 C 0.55403 0.96391 0.78249 0.0
C365 C 0.55374 0.99161 0.78808 0.0
H366 H 0.55704 0.11743 0.7683 0.0
C367 C 0.55213 0.985 0.75898 0.0
C368 C 0.55224 1.00349 0.77195 0.0
H369 H 0.55735 0.08896 0.81622 0.0
H370 H 0.55282 0.04294 0.80468 0.0
H371 H 0.60925 0.10444 0.7519 0.0
H372 H 0.49348 0.04595 0.75445 0.0
H373 H 0.50251 0.03684 0.73526 0.0
H374 H 0.51813 0.07744 0.74061 0.0
H375 H 0.58253 0.11273 0.74143 0.0
H376 H 0.591 0.08589 0.73252 0.0
C377 C 0.58948 0.017 0.7977 0.0
C378 C 0.51925 0.97811 0.79789 0.0
C379 C 0.54899 0.99006 0.69779 0.0
C380 C 0.54592 0.00933 0.68794 0.0
C381 C 0.5433 0.03273 0.69521 0.0
C382 C 0.54436 0.03735 0.71209 0.0
C383 C 0.54766 0.0181 0.72185 0.0
C384 C 0.5493 0.99458 0.71468 0.0
C385 C 0.55082 0.97534 0.72702 0.0
C386 C 0.55067 0.99171 0.74273 0.0
C387 C 0.54913 0.01685 0.73962 0.0
C388 C 0.58669 0.97985 0.72502 0.0
C389 C 0.51614 0.93992 0.72469 0.0
C390 C 0.55627 0.10127 0.77625 0.0
C391 C 0.55812 0.10682 0.7931 0.0
C392 C 0.55618 0.08504 0.80318 0.0
C393 C 0.5537 0.05852 0.79645 0.0
C394 C 0.55275 0.05368 0.77949 0.0
C395 C 0.5533 0.07458 0.76974 0.0
C396 C 0.5506 0.06522 0.75204 0.0
C397 C 0.54995 0.03604 0.75266 0.0
C398 C 0.55124 0.02932 0.76875 0.0
C399 C 0.58491 0.09347 0.7439 0.0
C400 C 0.51453 0.05607 0.74508 0.0
H401 H 0.55409 0.9322 0.7455 0.0
H402 H 0.55445 0.94612 0.80539 0.0
H403 H 0.49606 0.95405 0.79262 0.0
H404 H 0.51021 0.99326 0.7977 0.0
H405 H 0.52336 0.97522 0.81066 0.0
H406 H 0.61259 0.01967 0.79175 0.0
H407 H 0.58821 0.00973 0.81021 0.0
H408 H 0.59665 0.04135 0.79831 0.0
H409 H 0.55054 0.97161 0.69246 0.0
H410 H 0.54093 0.04777 0.68776 0.0
H411 H 0.54274 0.05586 0.71687 0.0
H412 H 0.60855 1.00428 0.72095 0.0
H413 H 0.58349 0.96189 0.71588 0.0
H414 H 0.59734 0.97839 0.7365 0.0
H415 H 0.49261 0.9389 0.721 0.0
H416 H 0.50779 0.9269 0.73594 0.0
H417 H 0.51953 0.92629 0.71514 0.0
H418 H 0.55501 0.89652 0.76198 0.0
C419 C 0.55396 0.93594 0.75835 0.0
C420 C 0.60738 0.46225 0.12922 0.0
C421 C 0.63767 0.46632 0.12338 0.0
C422 C 0.64249 0.4656 0.1065 0.0
C423 C 0.58991 0.46304 0.1022 0.0
C424 C 0.58451 0.46109 0.11862 0.0
C425 C 0.55445 0.46113 0.12399 0.0
H426 H 0.42049 0.46562 0.10795 0.0
C427 C 0.56313 0.46552 0.09531 0.0
C428 C 0.54231 0.46385 0.10802 0.0
H429 H 0.45133 0.44848 0.153 0.0
H430 H 0.50231 0.45774 0.14063 0.0
H431 H 0.50548 0.52322 0.09615 0.0
H432 H 0.42565 0.42092 0.08646 0.0
H433 H 0.45148 0.43512 0.06902 0.0
H434 H 0.42583 0.44922 0.07514 0.0
H435 H 0.46297 0.50457 0.08569 0.0
H436 H 0.50187 0.51397 0.07506 0.0
C437 C 0.57038 0.49194 0.13546 0.0
C438 C 0.52607 0.42813 0.13152 0.0
C439 C 0.56368 0.48513 0.03651 0.0
C440 C 0.54027 0.48655 0.02683 0.0
C441 C 0.51086 0.48365 0.03392 0.0
C442 C 0.50529 0.47994 0.05046 0.0
C443 C 0.52868 0.47814 0.05983 0.0
C444 C 0.5569 0.48016 0.05282 0.0
C445 C 0.57743 0.47544 0.06446 0.0
C446 C 0.55714 0.47092 0.07967 0.0
C447 C 0.52906 0.473 0.0769 0.0
C448 C 0.61706 0.5065 0.06572 0.0
C449 C 0.57313 0.44455 0.05882 0.0
C450 C 0.43735 0.46226 0.1149 0.0
C451 C 0.43173 0.45566 0.13141 0.0
C452 C 0.45503 0.45304 0.14023 0.0
C453 C 0.48453 0.4581 0.13289 0.0
C454 C 0.48932 0.46369 0.11634 0.0
C455 C 0.46623 0.46586 0.10756 0.0
C456 C 0.47566 0.47128 0.08999 0.0
C457 C 0.50755 0.47054 0.08977 0.0
C458 C 0.51494 0.46642 0.10522 0.0
C459 C 0.48697 0.50495 0.08639 0.0
C460 C 0.44306 0.44291 0.07951 0.0
H461 H 0.62365 0.4648 0.08303 0.0
H462 H 0.60293 0.46334 0.14202 0.0
H463 H 0.52989 0.40964 0.12792 0.0
H464 H 0.49804 0.41695 0.12735 0.0
H465 H 0.52772 0.43077 0.14496 0.0
H466 H 0.59845 0.51213 0.13221 0.0
H467 H 0.5713 0.48711 0.14827 0.0
H468 H 0.55541 0.50199 0.13466 0.0
H469 H 0.58689 0.48779 0.0316 0.0
H470 H 0.49182 0.48382 0.02669 0.0
H471 H 0.48271 0.4781 0.05526 0.0
H472 H 0.61809 0.52831 0.06636 0.0
H473 H 0.63231 0.5078 0.05499 0.0
H474 H 0.63161 0.50854 0.07671 0.0
H475 H 0.54632 0.42629 0.05273 0.0
H476 H 0.57401 0.43221 0.069 0.0
H477 H 0.59422 0.45004 0.0501 0.0
H478 H 0.66556 0.46781 0.10174 0.0
C479 C 0.61842 0.46397 0.09574 0.0
H480 H 0.2594 0.55926 0.13613 0.0
H481 H 0.29614 0.54143 0.13289 0.0
H482 H 0.32176 0.55932 0.18412 0.0
H483 H 0.28342 0.57629 0.18771 0.0
H484 H 0.3779 0.57584 0.15957 0.0
H485 H 0.25318 0.47638 0.17694 0.0
H486 H 0.18939 0.42775 0.17447 0.0
H487 H 0.20168 0.41552 0.12379 0.0
H488 H 0.26532 0.46404 0.12598 0.0
H489 H 0.44268 0.48665 0.1607 0.0
H490 H 0.41133 0.50829 0.16934 0.0
H491 H 0.33695 0.45693 0.12823 0.0
H492 H 0.36457 0.43126 0.12109 0.0
H493 H 0.3045 0.45704 0.15064 0.0
H494 H 0.42047 0.54344 0.12896 0.0
H495 H 0.4864 0.58475 0.12665 0.0
H496 H 0.49369 0.62107 0.17544 0.0
H497 H 0.42797 0.57997 0.17804 0.0
C498 C 0.27435 0.5613 0.14668 0.0
C499 C 0.2665 0.5666 0.16242 0.0
C500 C 0.29434 0.55007 0.14478 0.0
C501 C 0.30884 0.54709 0.15848 0.0
C502 C 0.30874 0.56019 0.17364 0.0
C503 C 0.28807 0.57092 0.17557 0.0
C504 C 0.32457 0.53068 0.15687 0.0
C505 C 0.36215 0.54983 0.15764 0.0
C506 C 0.30337 0.497 0.15369 0.0
C507 C 0.26357 0.47464 0.15153 0.0
C508 C 0.24177 0.46417 0.16515 0.0
C509 C 0.2058 0.43629 0.16384 0.0
C510 C 0.19138 0.41874 0.14895 0.0
C511 C 0.21267 0.42935 0.13526 0.0
C512 C 0.24857 0.45717 0.13651 0.0
C513 C 0.41825 0.47838 0.15412 0.0
C514 C 0.40629 0.45805 0.13994 0.0
C515 C 0.40129 0.49169 0.15875 0.0
C516 C 0.37338 0.48545 0.14892 0.0
C517 C 0.35904 0.4624 0.13582 0.0
C518 C 0.3746 0.44768 0.13177 0.0
C519 C 0.35821 0.5022 0.1523 0.0
C520 C 0.32066 0.48315 0.15227 0.0
C521 C 0.37957 0.5361 0.15486 0.0
C522 C 0.41946 0.55827 0.1538 0.0
C523 C 0.43628 0.55982 0.13929 0.0
C524 C 0.47357 0.58336 0.13789 0.0
C525 C 0.49424 0.60542 0.15091 0.0
C526 C 0.47772 0.6039 0.16539 0.0
C527 C 0.4405 0.5805 0.16683 0.0
H528 H 0.52303 0.62377 0.14976 0.0
H529 H 0.16383 0.39677 0.14806 0.0
H530 H 0.61552 0.135 0.48654 0.0
H531 H 0.66947 0.19032 0.48434 0.0
H532 H 0.73546 0.15829 0.48362 0.0
H533 H 0.68127 0.10259 0.48634 0.0
H534 H 0.76615 0.2106 0.5025 0.0
H535 H 0.71471 0.18114 0.44857 0.0
H536 H 0.6677 0.16103 0.42732 0.0
H537 H 0.65953 0.23631 0.44164 0.0
H538 H 0.70612 0.25662 0.46311 0.0
H539 H 0.9236 0.35668 0.47313 0.0
H540 H 0.87185 0.30204 0.47943 0.0
H541 H 0.80371 0.33184 0.48106 0.0
H542 H 0.85549 0.38634 0.47442 0.0
H543 H 0.77469 0.2803 0.46145 0.0
H544 H 0.8249 0.30919 0.51551 0.0
H545 H 0.87133 0.32924 0.53703 0.0
H546 H 0.88132 0.25513 0.5225 0.0
H547 H 0.83529 0.2349 0.50076 0.0
C548 C 0.64148 0.13962 0.48594 0.0
C549 C 0.64404 0.11429 0.48665 0.0
C550 C 0.67238 0.17135 0.48453 0.0
C551 C 0.70663 0.17858 0.48348 0.0
C552 C 0.70936 0.15338 0.48435 0.0
C553 C 0.67838 0.12154 0.48595 0.0
C554 C 0.73956 0.21256 0.48207 0.0
C555 C 0.76823 0.22567 0.49334 0.0
C556 C 0.742 0.23264 0.47041 0.0
C557 C 0.71371 0.22022 0.45756 0.0
C558 C 0.70267 0.19324 0.44728 0.0
C559 C 0.67614 0.18184 0.43517 0.0
C560 C 0.66058 0.19733 0.43316 0.0
C561 C 0.67156 0.2243 0.44323 0.0
C562 C 0.69805 0.23578 0.45536 0.0
C563 C 0.89789 0.35182 0.47554 0.0
C564 C 0.89361 0.3758 0.47369 0.0
C565 C 0.86822 0.32053 0.47904 0.0
C566 C 0.83372 0.31267 0.48078 0.0
C567 C 0.82997 0.33721 0.47979 0.0
C568 C 0.85962 0.36846 0.47624 0.0
C569 C 0.80113 0.27842 0.482 0.0
C570 C 0.77259 0.26523 0.47062 0.0
C571 C 0.79878 0.25827 0.49354 0.0
C572 C 0.82694 0.27077 0.5064 0.0
C573 C 0.83728 0.29739 0.5168 0.0
C574 C 0.86346 0.30873 0.52906 0.0
C575 C 0.87934 0.29353 0.5311 0.0
C576 C 0.86905 0.26692 0.52089 0.0
C577 C 0.84291 0.2555 0.5086 0.0
H578 H 0.89956 0.30231 0.54062 0.0
H579 H 0.64008 0.18849 0.42377 0.0
H580 H 0.55063 0.68422 0.81102 0.0
H581 H 0.54139 0.72484 0.80803 0.0
H582 H 0.62553 0.78797 0.84398 0.0
H583 H 0.6361 0.74803 0.84664 0.0
H584 H 0.56155 0.78664 0.84568 0.0
H585 H 0.65056 0.80308 0.8088 0.0
H586 H 0.67731 0.78959 0.78745 0.0
H587 H 0.59116 0.76122 0.7543 0.0
H588 H 0.56347 0.77394 0.77555 0.0
H589 H 0.59493 0.93049 0.8122 0.0
H590 H 0.60075 0.89239 0.82488 0.0
H591 H 0.51872 0.81565 0.79178 0.0
H592 H 0.51216 0.85305 0.77941 0.0
H593 H 0.5884 0.82923 0.79093 0.0
H594 H 0.49741 0.80951 0.82801 0.0
H595 H 0.47202 0.82589 0.84858 0.0
H596 H 0.56275 0.86262 0.88061 0.0
H597 H 0.58897 0.84685 0.8601 0.0
C598 C 0.56719 0.70669 0.81833 0.0
C599 C 0.59463 0.71306 0.82883 0.0
C600 C 0.56166 0.72976 0.81669 0.0
C601 C 0.58311 0.75948 0.82564 0.0
C602 C 0.60874 0.76513 0.83698 0.0
C603 C 0.61462 0.74218 0.8385 0.0
C604 C 0.58069 0.78545 0.82203 0.0
C605 C 0.56788 0.79633 0.83379 0.0
C606 C 0.58881 0.7979 0.80649 0.0
C607 C 0.60467 0.78906 0.79386 0.0
C608 C 0.63699 0.79348 0.79704 0.0
C609 C 0.6524 0.78608 0.78493 0.0
C610 C 0.63589 0.77445 0.76954 0.0
C611 C 0.60387 0.77014 0.76624 0.0
C612 C 0.5883 0.77742 0.77832 0.0
C613 C 0.57747 0.9053 0.80797 0.0
C614 C 0.55359 0.8948 0.79462 0.0
C615 C 0.58086 0.88364 0.81518 0.0
C616 C 0.56037 0.85138 0.80912 0.0
C617 C 0.53492 0.84054 0.79653 0.0
C618 C 0.53136 0.86196 0.78943 0.0
C619 C 0.56809 0.82959 0.81433 0.0
C620 C 0.58225 0.81969 0.80286 0.0
C621 C 0.56117 0.81816 0.83006 0.0
C622 C 0.54537 0.82739 0.84245 0.0
C623 C 0.51213 0.82137 0.83938 0.0
C624 C 0.49754 0.83047 0.85104 0.0
C625 C 0.51583 0.84539 0.86587 0.0
C626 C 0.54867 0.85112 0.8691 0.0
C627 C 0.56339 0.84208 0.85747 0.0
H628 H 0.5045 0.85244 0.87488 0.0
H629 H 0.64795 0.76888 0.76016 0.0
H630 H 0.87099 0.45466 0.14724 0.0
H631 H 0.82038 0.45588 0.14184 0.0
H632 H 0.808 0.46343 0.19323 0.0
H633 H 0.85814 0.46233 0.19865 0.0
H634 H 0.74351 0.42046 0.16363 0.0
H635 H 0.85556 0.53989 0.18804 0.0
H636 H 0.91512 0.5923 0.18446 0.0
H637 H 0.8935 0.58176 0.13325 0.0
H638 H 0.83404 0.52937 0.13659 0.0
H639 H 0.62904 0.44673 0.15432 0.0
H640 H 0.67611 0.46377 0.17383 0.0
H641 H 0.75633 0.52231 0.13855 0.0
H642 H 0.70968 0.51065 0.12 0.0
H643 H 0.78804 0.53423 0.16473 0.0
H644 H 0.69281 0.4323 0.13293 0.0
H645 H 0.63029 0.38375 0.1265 0.0
H646 H 0.61791 0.35795 0.17589 0.0
H647 H 0.6801 0.40666 0.18261 0.0
C648 C 0.85566 0.4542 0.15731 0.0
C649 C 0.86927 0.46054 0.17328 0.0
C650 C 0.82789 0.45607 0.15421 0.0
C651 C 0.81312 0.46203 0.16725 0.0
C652 C 0.82091 0.4603 0.18319 0.0
C653 C 0.84858 0.45851 0.18623 0.0
C654 C 0.78969 0.47044 0.16463 0.0
C655 C 0.75296 0.44525 0.16381 0.0
C656 C 0.80286 0.50283 0.16473 0.0
C657 C 0.8411 0.53025 0.16251 0.0
C658 C 0.86413 0.5483 0.17598 0.0
C659 C 0.89767 0.57815 0.17401 0.0
C660 C 0.90825 0.5902 0.15862 0.0
C661 C 0.88552 0.57225 0.14513 0.0
C662 C 0.85205 0.54239 0.14705 0.0
C663 C 0.6567 0.46487 0.15097 0.0
C664 C 0.66584 0.47622 0.13524 0.0
C665 C 0.68352 0.4748 0.16228 0.0
C666 C 0.71892 0.49227 0.15713 0.0
C667 C 0.72865 0.50764 0.14249 0.0
C668 C 0.70196 0.49973 0.13156 0.0
C669 C 0.74142 0.48421 0.16294 0.0
C670 C 0.77828 0.50938 0.16488 0.0
C671 C 0.72849 0.45158 0.16223 0.0
C672 C 0.6906 0.42337 0.15834 0.0
C673 C 0.67653 0.41641 0.14242 0.0
C674 C 0.64121 0.38889 0.13873 0.0
C675 C 0.62007 0.36787 0.1508 0.0
C676 C 0.63418 0.37437 0.16658 0.0
C677 C 0.66936 0.40199 0.17036 0.0
H678 H 0.59282 0.34647 0.1479 0.0
H679 H 0.9339 0.61356 0.15716 0.0
H680 H 0.46826 0.89781 0.47661 0.0
H681 H 0.41196 0.8424 0.47587 0.0
H682 H 0.35208 0.87852 0.48796 0.0
H683 H 0.40817 0.93401 0.48834 0.0
H684 H 0.33535 0.82687 0.50684 0.0
H685 H 0.34789 0.85382 0.45121 0.0
H686 H 0.37884 0.87202 0.42527 0.0
H687 H 0.38424 0.79301 0.4218 0.0
H688 H 0.35402 0.77472 0.44792 0.0
H689 H 0.15626 0.67984 0.48939 0.0
H690 H 0.21264 0.73522 0.49297 0.0
H691 H 0.27139 0.70416 0.4705 0.0
H692 H 0.21508 0.64936 0.46654 0.0
H693 H 0.28887 0.75445 0.45699 0.0
H694 H 0.27898 0.72726 0.51191 0.0
H695 H 0.25103 0.70869 0.5384 0.0
H696 H 0.24407 0.78667 0.54406 0.0
H697 H 0.27131 0.80535 0.51743 0.0
C698 C 0.44306 0.89392 0.47906 0.0
C699 C 0.44255 0.92021 0.48245 0.0
C700 C 0.41094 0.86229 0.4786 0.0
C701 C 0.37783 0.85636 0.48182 0.0
C702 C 0.37733 0.88257 0.48541 0.0
C703 C 0.40933 0.91423 0.48553 0.0
C704 C 0.34374 0.8228 0.48152 0.0
C705 C 0.32483 0.81107 0.49591 0.0
C706 C 0.33072 0.80201 0.46735 0.0
C707 C 0.34906 0.81312 0.45165 0.0
C708 C 0.35605 0.84053 0.44503 0.0
C709 C 0.37341 0.85084 0.43027 0.0
C710 C 0.3836 0.83374 0.42192 0.0
C711 C 0.37641 0.80628 0.4283 0.0
C712 C 0.35918 0.79595 0.44309 0.0
C713 C 0.18145 0.6848 0.48568 0.0
C714 C 0.18148 0.66037 0.47784 0.0
C715 C 0.21367 0.71645 0.48766 0.0
C716 C 0.24649 0.72404 0.482 0.0
C717 C 0.24656 0.69913 0.47489 0.0
C718 C 0.21445 0.66773 0.47277 0.0
C719 C 0.28029 0.75808 0.48242 0.0
C720 C 0.29921 0.77004 0.46799 0.0
C721 C 0.29361 0.7789 0.49663 0.0
C722 C 0.27675 0.76745 0.51255 0.0
C723 C 0.2711 0.74023 0.5187 0.0
C724 C 0.25544 0.72972 0.53377 0.0
C725 C 0.24566 0.74642 0.54288 0.0
C726 C 0.25155 0.7737 0.53696 0.0
C727 C 0.26708 0.78425 0.52188 0.0
H728 H 0.23361 0.73828 0.55456 0.0
H729 H 0.39697 0.84172 0.41048 0.0
H730 H 0.52172 0.32041 0.84568 0.0
H731 H 0.52425 0.27546 0.84063 0.0
H732 H 0.62266 0.33701 0.81446 0.0
H733 H 0.61866 0.38149 0.81873 0.0
H734 H 0.58171 0.28417 0.79799 0.0
H735 H 0.617 0.30687 0.8547 0.0
H736 H 0.61251 0.31508 0.884 0.0
H737 H 0.5101 0.2209 0.88418 0.0
H738 H 0.51384 0.21225 0.85488 0.0
H739 H 0.61363 0.16912 0.78838 0.0
H740 H 0.61907 0.21719 0.79743 0.0
H741 H 0.517 0.15728 0.8212 0.0
H742 H 0.5125 0.10925 0.81274 0.0
H743 H 0.56213 0.21002 0.83919 0.0
H744 H 0.52587 0.18731 0.78285 0.0
H745 H 0.53119 0.17677 0.75398 0.0
H746 H 0.63482 0.26981 0.7532 0.0
H747 H 0.63036 0.28072 0.78213 0.0
C748 C 0.54414 0.32435 0.83907 0.0
C749 C 0.5701 0.35428 0.83266 0.0
C750 C 0.54577 0.29873 0.83627 0.0
C751 C 0.57403 0.30281 0.8274 0.0
C752 C 0.60059 0.33316 0.82136 0.0
C753 C 0.59845 0.35859 0.82384 0.0
C754 C 0.57427 0.27485 0.82336 0.0
C755 C 0.57812 0.26838 0.8071 0.0
C756 C 0.56835 0.25338 0.83507 0.0
C757 C 0.56558 0.25905 0.85258 0.0
C758 C 0.59337 0.28806 0.86096 0.0
C759 C 0.59099 0.29274 0.87758 0.0
C760 C 0.56101 0.26856 0.88594 0.0
C761 C 0.5333 0.23963 0.8777 0.0
C762 C 0.53555 0.23481 0.8611 0.0
C763 C 0.59264 0.1664 0.79571 0.0
C764 C 0.56263 0.13571 0.79988 0.0
C765 C 0.59558 0.19376 0.80076 0.0
C766 C 0.56801 0.19081 0.80966 0.0
C767 C 0.53853 0.16015 0.81428 0.0
C768 C 0.53595 0.13278 0.80948 0.0
C769 C 0.56965 0.2196 0.81393 0.0
C770 C 0.56599 0.22606 0.83016 0.0
C771 C 0.57557 0.24096 0.8022 0.0
C772 C 0.5779 0.23472 0.7847 0.0
C773 C 0.54987 0.20546 0.77654 0.0
C774 C 0.55273 0.19942 0.76016 0.0
C775 C 0.58336 0.22258 0.75177 0.0
C776 C 0.61113 0.25189 0.75972 0.0
C777 C 0.60843 0.25803 0.7761 0.0
H778 H 0.58554 0.21784 0.7391 0.0
H779 H 0.55928 0.2722 0.89881 0.0
H780 H 0.49687 0.82042 0.50576 0.0
H781 H 0.49254 0.7722 0.50967 0.0
H782 H 0.59002 0.81232 0.48299 0.0
H783 H 0.59457 0.86043 0.47908 0.0
H784 H 0.54274 0.74923 0.47573 0.0
H785 H 0.59165 0.81943 0.52375 0.0
H786 H 0.59553 0.8516 0.5477 0.0
H787 H 0.50066 0.76653 0.56654 0.0
H788 H 0.49567 0.73395 0.54252 0.0
H789 H 0.59677 0.6616 0.51281 0.0
H790 H 0.59147 0.70051 0.50077 0.0
H791 H 0.49072 0.65903 0.52494 0.0
H792 H 0.4965 0.62091 0.53718 0.0
H793 H 0.54022 0.7225 0.53256 0.0
H794 H 0.49337 0.65204 0.48409 0.0
H795 H 0.49526 0.62064 0.46141 0.0
H796 H 0.59169 0.7073 0.44457 0.0
H797 H 0.59073 0.73918 0.46732 0.0
C798 C 0.51717 0.81879 0.50061 0.0
C799 C 0.54619 0.8443 0.49221 0.0
C800 C 0.51467 0.79128 0.50284 0.0
C801 C 0.54131 0.78899 0.49683 0.0
C802 C 0.56919 0.81363 0.48771 0.0
C803 C 0.57165 0.84106 0.48544 0.0
C804 C 0.54142 0.7619 0.50082 0.0
C805 C 0.54234 0.74343 0.48816 0.0
C806 C 0.54087 0.75439 0.51706 0.0
C807 C 0.54294 0.77432 0.53116 0.0
C808 C 0.57124 0.80766 0.53285 0.0
C809 C 0.57371 0.82596 0.54648 0.0
C810 C 0.54827 0.81115 0.5586 0.0
C811 C 0.52025 0.77801 0.55711 0.0
C812 C 0.51755 0.75963 0.54347 0.0
C813 C 0.57317 0.66048 0.51516 0.0
C814 C 0.54718 0.63878 0.52596 0.0
C815 C 0.57008 0.68251 0.50828 0.0
C816 C 0.54072 0.68259 0.51203 0.0
C817 C 0.51361 0.65937 0.52197 0.0
C818 C 0.5169 0.63771 0.52894 0.0
C819 C 0.54035 0.70922 0.5075 0.0
C820 C 0.53998 0.72796 0.52011 0.0
C821 C 0.54179 0.71708 0.4913 0.0
C822 C 0.54216 0.69797 0.47751 0.0
C823 C 0.51515 0.66438 0.47563 0.0
C824 C 0.51603 0.6465 0.46275 0.0
C825 C 0.54363 0.66195 0.45158 0.0
C826 C 0.57035 0.69535 0.45324 0.0
C827 C 0.56963 0.71334 0.46612 0.0
H828 H 0.54427 0.64806 0.44161 0.0
H829 H 0.55035 0.82533 0.56918 0.0
H830 H 0.72133 0.57526 0.81763 0.0
H831 H 0.7735 0.57477 0.82064 0.0
H832 H 0.722 0.51218 0.85993 0.0
H833 H 0.66912 0.51137 0.85641 0.0
H834 H 0.79648 0.55995 0.86777 0.0
H835 H 0.72966 0.48309 0.82383 0.0
H836 H 0.69812 0.46092 0.79723 0.0
H837 H 0.79588 0.53277 0.77368 0.0
H838 H 0.82793 0.55566 0.8002 0.0
H839 H 0.9168 0.51927 0.87705 0.0
H840 H 0.86658 0.52053 0.8727 0.0
H841 H 0.91019 0.56413 0.82745 0.0
H842 H 0.9617 0.56323 0.83183 0.0
H843 H 0.8405 0.52772 0.8224 0.0
H844 H 0.90721 0.60543 0.8667 0.0
H845 H 0.93863 0.62616 0.89341 0.0
H846 H 0.84094 0.55242 0.91635 0.0
H847 H 0.809 0.53112 0.88974 0.0
C848 C 0.72073 0.56118 0.82692 0.0
C849 C 0.68975 0.54323 0.83665 0.0
C850 C 0.75111 0.56083 0.82865 0.0
C851 C 0.75311 0.54338 0.84059 0.0
C852 C 0.72247 0.52603 0.85055 0.0
C853 C 0.6916 0.52549 0.84846 0.0
C854 C 0.7865 0.54321 0.8427 0.0
C855 C 0.80553 0.5525 0.85776 0.0
C856 C 0.80037 0.53432 0.82993 0.0
C857 C 0.78107 0.52137 0.81401 0.0
C858 C 0.74432 0.49445 0.813 0.0
C859 C 0.72638 0.48167 0.79793 0.0
C860 C 0.74495 0.4955 0.78377 0.0
C861 C 0.78151 0.52214 0.78466 0.0
C862 C 0.79958 0.53502 0.79971 0.0
C863 C 0.91702 0.52998 0.86621 0.0
C864 C 0.9457 0.54193 0.85513 0.0
C865 C 0.88722 0.53064 0.86368 0.0
C866 C 0.88341 0.54335 0.84986 0.0
C867 C 0.91124 0.55434 0.83842 0.0
C868 C 0.94137 0.55376 0.84098 0.0
C869 C 0.85072 0.5446 0.84749 0.0
C870 C 0.83171 0.53544 0.83239 0.0
C871 C 0.83688 0.55372 0.86022 0.0
C872 C 0.85583 0.56652 0.87623 0.0
C873 C 0.89249 0.59355 0.87744 0.0
C874 C 0.91038 0.60542 0.89255 0.0
C875 C 0.89182 0.59056 0.90656 0.0
C876 C 0.85529 0.56389 0.90548 0.0
C877 C 0.83726 0.55194 0.8904 0.0
H878 H 0.90572 0.59976 0.91825 0.0
H879 H 0.73104 0.48551 0.77211 0.0
H880 H 0.20039 0.59691 0.16224 0.0
H881 H 0.25525 0.65328 0.16347 0.0
H882 H 0.19113 0.68451 0.177 0.0
H883 H 0.13705 0.62905 0.17537 0.0
H884 H 0.2343 0.71987 0.1544 0.0
H885 H 0.24716 0.68682 0.20469 0.0
H886 H 0.24905 0.6511 0.22209 0.0
H887 H 0.34148 0.67156 0.19714 0.0
H888 H 0.33993 0.70722 0.17948 0.0
H889 H 0.37067 0.88115 0.1849 0.0
H890 H 0.31933 0.82384 0.18126 0.0
H891 H 0.39035 0.80333 0.16257 0.0
H892 H 0.44198 0.861 0.16625 0.0
H893 H 0.34547 0.76227 0.18663 0.0
H894 H 0.33119 0.7991 0.13705 0.0
H895 H 0.32577 0.83448 0.12113 0.0
H896 H 0.23199 0.80713 0.14743 0.0
H897 H 0.23706 0.77181 0.16362 0.0
C898 C 0.19818 0.61577 0.16544 0.0
C899 C 0.16423 0.60822 0.16832 0.0
C900 C 0.2295 0.64805 0.16625 0.0
C901 C 0.22737 0.67331 0.17025 0.0
C902 C 0.19358 0.66565 0.17366 0.0
C903 C 0.16255 0.63367 0.17272 0.0
C904 C 0.25982 0.70786 0.17056 0.0
C905 C 0.25849 0.72911 0.16155 0.0
C906 C 0.29153 0.72006 0.17979 0.0
C907 C 0.29327 0.69947 0.19069 0.0
C908 C 0.26783 0.68362 0.20288 0.0
C909 C 0.26884 0.6634 0.21279 0.0
C910 C 0.29532 0.659 0.2107 0.0
C911 C 0.32098 0.67498 0.19874 0.0
C912 C 0.3201 0.69526 0.1888 0.0
C913 C 0.3751 0.86449 0.1796 0.0
C914 C 0.41012 0.87551 0.17556 0.0
C915 C 0.34582 0.83173 0.17761 0.0
C916 C 0.35091 0.80921 0.1716 0.0
C917 C 0.38578 0.82026 0.16721 0.0
C918 C 0.41513 0.8532 0.16908 0.0
C919 C 0.31992 0.77412 0.17038 0.0
C920 C 0.32142 0.75287 0.17934 0.0
C921 C 0.28794 0.76198 0.1614 0.0
C922 C 0.28466 0.78298 0.1516 0.0
C923 C 0.30954 0.80078 0.13949 0.0
C924 C 0.3065 0.82078 0.13041 0.0
C925 C 0.27859 0.82309 0.13328 0.0
C926 C 0.25359 0.80532 0.14522 0.0
C927 C 0.25649 0.78525 0.15433 0.0
H928 H 0.2763 0.83862 0.12624 0.0
H929 H 0.29601 0.64327 0.21835 0.0
H930 H 0.58725 0.21052 0.50828 0.0
H931 H 0.59447 0.26072 0.51291 0.0
H932 H 0.52687 0.23586 0.47064 0.0
H933 H 0.52044 0.18621 0.46574 0.0
H934 H 0.57757 0.29822 0.47294 0.0
H935 H 0.49339 0.21849 0.50944 0.0
H936 H 0.47178 0.1796 0.53061 0.0
H937 H 0.55224 0.25546 0.56415 0.0
H938 H 0.57481 0.29471 0.54308 0.0
H939 H 0.51814 0.39242 0.49993 0.0
H940 H 0.52066 0.3486 0.49043 0.0
H941 H 0.60079 0.37823 0.52777 0.0
H942 H 0.59891 0.4221 0.53709 0.0
H943 H 0.54213 0.31332 0.52728 0.0
H944 H 0.62607 0.39288 0.49033 0.0
H945 H 0.64333 0.43201 0.46979 0.0
H946 H 0.55895 0.35597 0.43758 0.0
H947 H 0.5408 0.31642 0.45806 0.0
C948 C 0.57447 0.2161 0.49985 0.0
C949 C 0.55303 0.19441 0.48674 0.0
C950 C 0.57847 0.24467 0.50252 0.0
C951 C 0.56042 0.25159 0.49234 0.0
C952 C 0.54089 0.23093 0.47868 0.0
C953 C 0.5373 0.2026 0.47588 0.0
C954 C 0.55976 0.27905 0.49651 0.0
C955 C 0.56955 0.30135 0.48479 0.0
C956 C 0.54935 0.28323 0.51199 0.0
C957 C 0.5361 0.25948 0.5246 0.0
C958 C 0.50674 0.22683 0.52127 0.0
C959 C 0.49428 0.20472 0.53327 0.0
C960 C 0.5107 0.21503 0.5487 0.0
C961 C 0.53961 0.24748 0.55217 0.0
C962 C 0.55227 0.26966 0.54021 0.0
C963 C 0.53671 0.38985 0.50589 0.0
C964 C 0.558 0.41032 0.51935 0.0
C965 C 0.53804 0.36485 0.50051 0.0
C966 C 0.56079 0.36024 0.5085 0.0
C967 C 0.58287 0.38132 0.52157 0.0
C968 C 0.58166 0.40625 0.52689 0.0
C969 C 0.56061 0.3326 0.50387 0.0
C970 C 0.55033 0.31016 0.51548 0.0
C971 C 0.57025 0.32822 0.48832 0.0
C972 C 0.5819 0.35174 0.47578 0.0
C973 C 0.61108 0.38452 0.4789 0.0
C974 C 0.62102 0.40678 0.46727 0.0
C975 C 0.60219 0.3965 0.4524 0.0
C976 C 0.57349 0.3639 0.44911 0.0
C977 C 0.56338 0.34154 0.46072 0.0
H978 H 0.60988 0.41378 0.44342 0.0
H979 H 0.50095 0.19789 0.55798 0.0
H980 H 0.52122 0.58775 0.84241 0.0
H981 H 0.46919 0.58832 0.8455 0.0
H982 H 0.3968 0.48504 0.83766 0.0
H983 H 0.44894 0.48438 0.83493 0.0
H984 H 0.36666 0.5079 0.82214 0.0
H985 H 0.41261 0.52829 0.87672 0.0
H986 H 0.45679 0.55615 0.89959 0.0
H987 H 0.47285 0.64414 0.89108 0.0
H988 H 0.42906 0.61688 0.86804 0.0
H989 H 0.20424 0.49154 0.84556 0.0
H990 H 0.25488 0.48956 0.84047 0.0
H991 H 0.32974 0.58874 0.85829 0.0
H992 H 0.27905 0.59011 0.86381 0.0
H993 H 0.35856 0.56683 0.86848 0.0
H994 H 0.31541 0.54964 0.81411 0.0
H995 H 0.27313 0.52448 0.79051 0.0
H996 H 0.25445 0.43471 0.79699 0.0
H997 H 0.29628 0.45923 0.82077 0.0
C998 C 0.49435 0.56494 0.84136 0.0
C999 C 0.49052 0.536 0.8384 0.0
C1000 C 0.46395 0.56526 0.84325 0.0
C1001 C 0.42752 0.5367 0.84204 0.0
C1002 C 0.42369 0.5078 0.83878 0.0
C1003 C 0.45412 0.50742 0.83724 0.0
C1004 C 0.3941 0.53697 0.84403 0.0
C1005 C 0.365 0.52055 0.83247 0.0
C1006 C 0.39067 0.55397 0.85708 0.0
C1007 C 0.41789 0.57064 0.87054 0.0
C1008 C 0.42589 0.55368 0.87961 0.0
C1009 C 0.45077 0.56934 0.89264 0.0
C1010 C 0.46769 0.60192 0.89676 0.0
C1011 C 0.45979 0.61892 0.88785 0.0
C1012 C 0.43493 0.60338 0.87482 0.0
C1013 C 0.23149 0.51341 0.84787 0.0
C1014 C 0.23648 0.54146 0.85458 0.0
C1015 C 0.26119 0.51227 0.84499 0.0
C1016 C 0.29799 0.53913 0.84863 0.0
C1017 C 0.30273 0.56719 0.85515 0.0
C1018 C 0.27314 0.56822 0.85811 0.0
C1019 C 0.33096 0.53806 0.84648 0.0
C1020 C 0.36004 0.55425 0.85807 0.0
C1021 C 0.3346 0.52131 0.8333 0.0
C1022 C 0.30857 0.50616 0.81936 0.0
C1023 C 0.30195 0.52443 0.81062 0.0
C1024 C 0.27815 0.51031 0.79718 0.0
C1025 C 0.26101 0.47798 0.79229 0.0
C1026 C 0.26766 0.45972 0.80083 0.0
C1027 C 0.2914 0.47371 0.81429 0.0
H1028 H 0.24267 0.46712 0.78186 0.0
H1029 H 0.48686 0.61397 0.90688 0.0
H1030 H 0.98288 0.39374 0.16122 0.0
H1031 H 0.92745 0.33968 0.16454 0.0
H1032 H 0.86768 0.37779 0.16914 0.0
H1033 H 0.92373 0.43247 0.16651 0.0
H1034 H 0.84533 0.33512 0.19028 0.0
H1035 H 0.86877 0.33555 0.13307 0.0
H1036 H 0.90402 0.34136 0.1092 0.0
H1037 H 0.90928 0.26759 0.12504 0.0
H1038 H 0.87458 0.26172 0.14914 0.0
H1039 H 0.67 0.18821 0.18154 0.0
H1040 H 0.7255 0.24115 0.17551 0.0
H1041 H 0.78334 0.20105 0.17298 0.0
H1042 H 0.7275 0.14796 0.17867 0.0
H1043 H 0.80754 0.24392 0.15115 0.0
H1044 H 0.78379 0.24161 0.20749 0.0
H1045 H 0.74995 0.23516 0.23201 0.0
H1046 H 0.74704 0.31174 0.21892 0.0
H1047 H 0.78021 0.31822 0.19414 0.0
C1048 C 0.95791 0.39069 0.16275 0.0
C1049 C 0.95771 0.4175 0.16334 0.0
C1050 C 0.92609 0.35959 0.16462 0.0
C1051 C 0.89298 0.35428 0.16669 0.0
C1052 C 0.89275 0.38108 0.16743 0.0
C1053 C 0.92479 0.41236 0.16585 0.0
C1054 C 0.85876 0.32097 0.16835 0.0
C1055 C 0.83678 0.31534 0.18155 0.0
C1056 C 0.84818 0.29462 0.15739 0.0
C1057 C 0.86938 0.29844 0.14298 0.0
C1058 C 0.87772 0.32078 0.13153 0.0
C1059 C 0.89757 0.32405 0.11795 0.0
C1060 C 0.90895 0.30492 0.11562 0.0
C1061 C 0.90051 0.28245 0.12687 0.0
C1062 C 0.88076 0.27914 0.14049 0.0
C1063 C 0.69428 0.19053 0.17902 0.0
C1064 C 0.69442 0.16398 0.18019 0.0
C1065 C 0.72614 0.22088 0.17589 0.0
C1066 C 0.7589 0.22536 0.17418 0.0
C1067 C 0.75851 0.19831 0.17432 0.0
C1068 C 0.72655 0.1679 0.17737 0.0
C1069 C 0.79368 0.25832 0.17282 0.0
C1070 C 0.81595 0.26378 0.15981 0.0
C1071 C 0.80468 0.28443 0.18404 0.0
C1072 C 0.78412 0.28012 0.19883 0.0
C1073 C 0.77557 0.25682 0.20973 0.0
C1074 C 0.75656 0.2532 0.2237 0.0
C1075 C 0.74626 0.27296 0.227 0.0
C1076 C 0.75495 0.29639 0.21633 0.0
C1077 C 0.77383 0.30002 0.20232 0.0
H1078 H 0.73163 0.27018 0.23784 0.0
H1079 H 0.92425 0.30744 0.10508 0.0
H1080 H 0.08976 0.50362 0.11691 0.0
H1081 H 0.09853 0.50341 0.08744 0.0
H1082 H 1.03097 0.53241 0.0805 0.0
H1083 H 1.02215 0.53247 0.10958 0.0
H1084 H 1.01314 0.48684 0.05845 0.0
H1085 H 0.12573 0.5846 0.07919 0.0
H1086 H 0.18246 0.61708 0.09554 0.0
H1087 H 0.21811 0.56706 0.071 0.0
H1088 H 0.16123 0.53381 0.05471 0.0
H1089 H 0.05516 0.55423 0.98226 0.0
H1090 H 0.05291 0.54805 0.01123 0.0
H1091 H 0.10694 0.5049 0.00563 0.0
H1092 H 0.10755 0.50919 0.97621 0.0
H1093 H 0.13344 0.55184 0.03349 0.0
H1094 H 1.02255 0.45638 0.01177 0.0
H1095 H 0.96565 0.42362 0.99554 0.0
H1096 H 0.92714 0.46942 0.02214 0.0
H1097 H 0.98409 0.50286 0.03835 0.0
C1098 C 0.07666 0.50977 0.10906 0.0
C1099 C 0.05515 0.518 0.11572 0.0
C1100 C 0.08189 0.50988 0.09216 0.0
C1101 C 0.06566 0.51814 0.0815 0.0
C1102 C 0.04386 0.52588 0.08824 0.0
C1103 C 0.03885 0.52596 0.105 0.0
C1104 C 0.07053 0.51857 0.06336 0.0
C1105 C 0.03956 0.50132 0.05309 0.0
C1106 C 0.10489 0.53653 0.05604 0.0
C1107 C 0.13897 0.55637 0.06589 0.0
C1108 C 0.14547 0.58026 0.0774 0.0
C1109 C 0.17769 0.59886 0.08664 0.0
C1110 C 0.20381 0.59405 0.08436 0.0
C1111 C 0.19779 0.57068 0.0728 0.0
C1112 C 0.16556 0.55194 0.06357 0.0
C1113 C 0.06607 0.54279 0.98691 0.0
C1114 C 0.08079 0.53156 0.97639 0.0
C1115 C 0.0651 0.53963 0.00371 0.0
C1116 C 0.07941 0.52571 0.0108 0.0
C1117 C 0.09562 0.51573 0.00057 0.0
C1118 C 0.09607 0.51837 0.98363 0.0
C1119 C 0.076 0.52082 0.02876 0.0
C1120 C 0.10712 0.53716 0.03892 0.0
C1121 C 0.04179 0.50204 0.03606 0.0
C1122 C 1.00775 0.48236 0.02616 0.0
C1123 C 1.00212 0.45973 0.01404 0.0
C1124 C 0.96982 0.44098 0.00487 0.0
C1125 C 0.94283 0.44449 0.00778 0.0
C1126 C 0.94809 0.46676 0.01987 0.0
C1127 C 0.98037 0.48561 0.02906 0.0
H1128 H 0.91781 0.4299 0.00069 0.0
H1129 H 0.22876 0.60851 0.09151 0.0
H1130 H 0.55791 0.0628 0.44139 0.0
H1131 H 0.55565 0.06617 0.41197 0.0
H1132 H 0.53946 0.97597 0.40426 0.0
H1133 H 0.54241 0.97305 0.43361 0.0
H1134 H 0.59272 0.02054 0.38651 0.0
H1135 H 0.47143 0.98209 0.39693 0.0
H1136 H 0.42359 0.98212 0.40982 0.0
H1137 H 0.46952 0.075 0.39199 0.0
H1138 H 0.51795 0.07573 0.37917 0.0
H1139 H 0.53987 0.97906 0.30416 0.0
H1140 H 0.54352 0.98254 0.33368 0.0
H1141 H 0.56664 0.07589 0.33469 0.0
H1142 H 0.56237 0.07225 0.30496 0.0
H1143 H 0.51358 0.03528 0.35587 0.0
H1144 H 0.63308 0.07142 0.34399 0.0
H1145 H 0.67887 0.06926 0.33039 0.0
H1146 H 0.63432 0.97852 0.35057 0.0
H1147 H 0.58796 0.97994 0.36413 0.0
C1148 C 0.55308 0.04344 0.43334 0.0
C1149 C 0.55 0.01754 0.43957 0.0
C1150 C 0.5518 0.04535 0.41658 0.0
C1151 C 0.54729 0.02126 0.4059 0.0
C1152 C 0.54306 0.99485 0.41226 0.0
C1153 C 0.54453 0.99307 0.42897 0.0
C1154 C 0.54949 0.02452 0.38812 0.0
C1155 C 0.57511 0.0234 0.37981 0.0
C1156 C 0.52739 0.02935 0.37942 0.0
C1157 C 0.49858 0.02915 0.38728 0.0
C1158 C 0.47156 1.00268 0.39591 0.0
C1159 C 0.44428 1.00252 0.40317 0.0
C1160 C 0.44359 0.0286 0.40178 0.0
C1161 C 0.47014 0.05486 0.39309 0.0
C1162 C 0.4975 0.05515 0.38582 0.0
C1163 C 0.54575 1.00035 0.31066 0.0
C1164 C 0.55058 0.02529 0.3023 0.0
C1165 C 0.54812 1.00242 0.32752 0.0
C1166 C 0.55557 0.02955 0.33637 0.0
C1167 C 0.56093 0.05477 0.32807 0.0
C1168 C 0.55872 0.05277 0.31113 0.0
C1169 C 0.55632 0.03069 0.35431 0.0
C1170 C 0.53137 0.03272 0.36264 0.0
C1171 C 0.5789 0.02652 0.36304 0.0
C1172 C 0.60691 0.0257 0.355 0.0
C1173 C 0.6329 0.0509 0.34544 0.0
C1174 C 0.65899 0.04983 0.33775 0.0
C1175 C 0.65947 0.02374 0.33959 0.0
C1176 C 0.63391 0.99871 0.34916 0.0
C1177 C 0.60777 0.99966 0.35687 0.0
H1178 H 0.67967 0.02295 0.33363 0.0
H1179 H 0.42243 0.02841 0.40739 0.0
H1180 H 0.56794 0.56653 0.78988 0.0
H1181 H 0.57091 0.57531 0.76082 0.0
H1182 H 0.5988 0.51112 0.75142 0.0
H1183 H 0.59671 0.50315 0.78045 0.0
H1184 H 0.63727 0.56136 0.73336 0.0
H1185 H 0.51154 0.48622 0.74694 0.0
H1186 H 0.45617 0.46832 0.76136 0.0
H1187 H 0.46069 0.5457 0.74291 0.0
H1188 H 0.51644 0.56437 0.72858 0.0
H1189 H 0.58994 0.50681 0.65257 0.0
H1190 H 0.59439 0.51247 0.68176 0.0
H1191 H 0.55599 0.56934 0.68199 0.0
H1192 H 0.54689 0.56026 0.65267 0.0
H1193 H 0.52675 0.53156 0.70507 0.0
H1194 H 0.65112 0.60303 0.68908 0.0
H1195 H 0.70398 0.61668 0.67374 0.0
H1196 H 0.7001 0.54269 0.69619 0.0
H1197 H 0.64711 0.52845 0.71157 0.0
C1198 C 0.57542 0.55493 0.78155 0.0
C1199 C 0.58249 0.53449 0.78718 0.0
C1200 C 0.57681 0.5597 0.765 0.0
C1201 C 0.58463 0.54354 0.75393 0.0
C1202 C 0.59281 0.5239 0.75974 0.0
C1203 C 0.59168 0.51936 0.77626 0.0
C1204 C 0.58303 0.54586 0.73622 0.0
C1205 C 0.61309 0.5548 0.72716 0.0
C1206 C 0.55177 0.53803 0.72817 0.0
C1207 C 0.51842 0.52695 0.73688 0.0
C1208 C 0.50092 0.49961 0.74609 0.0
C1209 C 0.46944 0.48929 0.75423 0.0
C1210 C 0.45499 0.50593 0.7531 0.0
C1211 C 0.47197 0.53289 0.74381 0.0
C1212 C 0.50351 0.54336 0.73569 0.0
C1213 C 0.58155 0.51994 0.65869 0.0
C1214 C 0.56767 0.53277 0.65001 0.0
C1215 C 0.58506 0.52389 0.67551 0.0
C1216 C 0.57665 0.54222 0.68415 0.0
C1217 C 0.56307 0.55537 0.67561 0.0
C1218 C 0.55834 0.55049 0.65875 0.0
C1219 C 0.58082 0.54649 0.70211 0.0
C1220 C 0.55126 0.53884 0.71125 0.0
C1221 C 0.61248 0.5553 0.71025 0.0
C1222 C 0.64515 0.56468 0.70145 0.0
C1223 C 0.66158 0.5897 0.69074 0.0
C1224 C 0.69154 0.59752 0.68203 0.0
C1225 C 0.70538 0.58055 0.68398 0.0
C1226 C 0.68941 0.55585 0.69471 0.0
C1227 C 0.6595 0.54797 0.70347 0.0
H1228 H 0.72848 0.58656 0.67718 0.0
H1229 H 0.43058 0.49787 0.75939 0.0
H1230 H 0.47983 0.98862 0.53839 0.0
H1231 H 0.48756 0.98615 0.56718 0.0
H1232 H 0.60112 0.03336 0.5609 0.0
H1233 H 0.59349 0.03594 0.53172 0.0
H1234 H 0.56499 0.97997 0.58279 0.0
H1235 H 0.58175 0.07874 0.5754 0.0
H1236 H 0.56634 0.1123 0.56495 0.0
H1237 H 0.46534 0.05705 0.58928 0.0
H1238 H 0.47996 0.0229 0.59971 0.0
H1239 H 0.59874 0.01752 0.66896 0.0
H1240 H 0.60052 0.01706 0.63928 0.0
H1241 H 0.49321 0.99097 0.6373 0.0
H1242 H 0.49231 0.99298 0.66691 0.0
H1243 H 0.534 0.03784 0.61916 0.0
H1244 H 0.51401 0.93719 0.62548 0.0
H1245 H 0.52762 0.90264 0.63634 0.0
H1246 H 0.63163 0.95903 0.61458 0.0
H1247 H 0.61879 0.99415 0.60373 0.0
C1248 C 0.50647 0.99833 0.54306 0.0
C1249 C 0.53616 0.01286 0.53283 0.0
C1250 C 0.51082 0.99685 0.55954 0.0
C1251 C 0.54496 0.00989 0.56623 0.0
C1252 C 0.57454 0.0232 0.55597 0.0
C1253 C 0.57019 0.02478 0.53935 0.0
C1254 C 0.54944 0.01114 0.58408 0.0
C1255 C 0.55883 0.99303 0.59079 0.0
C1256 C 0.54072 0.02766 0.59451 0.0
C1257 C 0.53185 0.04814 0.58823 0.0
C1258 C 0.55614 0.0736 0.57842 0.0
C1259 C 0.54757 0.09276 0.57252 0.0
C1260 C 0.51486 0.08678 0.57642 0.0
C1261 C 0.49066 0.06165 0.58626 0.0
C1262 C 0.4991 0.04242 0.59218 0.0
C1263 C 0.57545 0.01129 0.66209 0.0
C1264 C 0.54543 1.00536 0.6701 0.0
C1265 C 0.57637 0.01089 0.64515 0.0
C1266 C 0.54691 1.00379 0.63596 0.0
C1267 C 0.51639 0.99671 0.64406 0.0
C1268 C 0.51578 0.99774 0.66096 0.0
C1269 C 0.54848 0.00585 0.61803 0.0
C1270 C 0.54037 0.02481 0.61126 0.0
C1271 C 0.55806 0.98986 0.60764 0.0
C1272 C 0.56557 0.96845 0.61391 0.0
C1273 C 0.53986 0.94232 0.62308 0.0
C1274 C 0.54742 0.92262 0.62923 0.0
C1275 C 0.5805 0.92869 0.62619 0.0
C1276 C 0.60603 0.95438 0.61694 0.0
C1277 C 0.5986 0.97416 0.61076 0.0
H1278 H 0.58633 0.91344 0.63098 0.0
H1279 H 0.50828 0.10165 0.57185 0.0
H1280 H 0.63687 0.53526 0.87912 0.0
H1281 H 0.62362 0.51704 0.9069 0.0
H1282 H 0.53719 0.5254 0.90823 0.0
H1283 H 0.54935 0.54223 0.88034 0.0
H1284 H 0.60226 0.56521 0.9323 0.0
H1285 H 0.50725 0.45869 0.90846 0.0
H1286 H 0.48252 0.41003 0.89052 0.0
H1287 H 0.55173 0.39437 0.91396 0.0
H1288 H 0.57739 0.44335 0.93185 0.0
H1289 H 0.52725 0.51951 0.00771 0.0
H1290 H 0.53737 0.52644 0.979 0.0
H1291 H 0.58274 0.47511 0.97838 0.0
H1292 H 0.56759 0.46367 0.00651 0.0
H1293 H 0.54327 0.4573 0.95353 0.0
H1294 H 0.63685 0.56226 0.97847 0.0
H1295 H 0.66055 0.6101 -0.00303 0.0
H1296 H 0.59605 0.62923 0.97191 0.0
H1297 H 0.57176 0.58139 0.95335 0.0
C1298 C 0.61491 0.53281 0.88542 0.0
C1299 C 0.59433 0.5404 0.8781 0.0
C1300 C 0.60719 0.5222 0.90103 0.0
C1301 C 0.5795 0.51998 0.90928 0.0
C1302 C 0.5584 0.52681 0.90177 0.0
C1303 C 0.56543 0.53651 0.88605 0.0
C1304 C 0.5756 0.51473 0.92643 0.0
C1305 C 0.58926 0.54168 0.93706 0.0
C1306 C 0.55965 0.48413 0.93225 0.0
C1307 C 0.54472 0.45503 0.92129 0.0
C1308 C 0.51764 0.44519 0.90962 0.0
C1309 C 0.50333 0.41746 0.8995 0.0
C1310 C 0.51568 0.39921 0.90104 0.0
C1311 C 0.5423 0.40861 0.91273 0.0
C1312 C 0.55674 0.43636 0.92286 0.0
C1313 C 0.53848 0.50892 0.00143 0.0
C1314 C 0.54675 0.49116 0.00946 0.0
C1315 C 0.54512 0.51363 0.9851 0.0
C1316 C 0.56194 0.50223 0.97679 0.0
C1317 C 0.57014 0.48443 0.98471 0.0
C1318 C 0.56197 0.47838 0.00085 0.0
C1319 C 0.5696 0.50781 0.95964 0.0
C1320 C 0.55688 0.48102 0.94892 0.0
C1321 C 0.58685 0.53873 0.95372 0.0
C1322 C 0.60241 0.56816 0.96455 0.0
C1323 C 0.62771 0.57666 0.97692 0.0
C1324 C 0.64123 0.60377 0.98742 0.0
C1325 C 0.62978 0.62267 0.98563 0.0
C1326 C 0.60493 0.6146 0.97327 0.0
C1327 C 0.59137 0.58755 0.96273 0.0
H1328 H 0.64018 0.64357 0.9938 0.0
H1329 H 0.50453 0.37772 0.89322 0.0
H1330 H 0.04398 0.45589 0.21592 0.0
H1331 H 0.04013 0.45973 0.24514 0.0
H1332 H 0.05858 0.55066 0.24213 0.0
H1333 H 0.06649 0.54849 0.21289 0.0
H1334 H 0.09077 0.55538 0.26731 0.0
H1335 H 0.96887 0.47018 0.24802 0.0
H1336 H 0.92112 0.41911 0.23306 0.0
H1337 H 0.94533 0.36775 0.26131 0.0
H1338 H 0.99348 0.41855 0.2763 0.0
H1339 H 0.03743 0.55643 0.34738 0.0
H1340 H 0.0369 0.55215 0.31778 0.0
H1341 H 1.03186 0.46731 0.31934 0.0
H1342 H 1.03102 0.47093 0.34903 0.0
H1343 H 0.9908 0.45998 0.29512 0.0
H1344 H 0.11312 0.54464 0.31374 0.0
H1345 H 0.15958 0.59497 0.32955 0.0
H1346 H 0.13324 0.6467 0.30307 0.0
H1347 H 0.08628 0.59655 0.28723 0.0
C1348 C 0.0472 0.47676 0.22143 0.0
C1349 C 0.0545 0.50146 0.2119 0.0
C1350 C 0.04455 0.47875 0.23823 0.0
C1351 C 0.04743 0.5048 0.246 0.0
C1352 C 0.05558 0.52995 0.23654 0.0
C1353 C 0.05962 0.52852 0.21971 0.0
C1354 C 0.04278 0.50602 0.26395 0.0
C1355 C 0.06848 0.53461 0.27327 0.0
C1356 C 1.01426 0.47882 0.27205 0.0
C1357 C 0.98493 0.44821 0.2632 0.0
C1358 C 0.96408 0.44801 0.25099 0.0
C1359 C 0.93695 0.41911 0.24251 0.0
C1360 C 0.93024 0.39022 0.24621 0.0
C1361 C 0.95056 0.39014 0.25845 0.0
C1362 C 0.97773 0.41897 0.26695 0.0
C1363 C 0.03594 0.53674 0.34137 0.0
C1364 C 0.03458 0.51417 0.35047 0.0
C1365 C 0.03581 0.53438 0.32446 0.0
C1366 C 0.03528 0.50988 0.31626 0.0
C1367 C 1.03249 0.48655 0.32534 0.0
C1368 C 1.03199 0.4886 0.3423 0.0
C1369 C 0.03871 0.50916 0.29829 0.0
C1370 C 1.01286 0.48072 0.28904 0.0
C1371 C 0.06699 0.53644 0.29026 0.0
C1372 C 0.09609 0.56683 0.29936 0.0
C1373 C 0.11722 0.56674 0.31131 0.0
C1374 C 0.1436 0.59522 0.32028 0.0
C1375 C 0.14933 0.624 0.31733 0.0
C1376 C 0.12878 0.62439 0.30534 0.0
C1377 C 0.10232 0.59595 0.29634 0.0
H1378 H 0.16972 0.64602 0.32432 0.0
H1379 H 0.90926 0.36788 0.23962 0.0
loop_
_geom_bond_atom_site_label_1
_geom_bond_atom_site_label_2
_geom_bond_distance
_geom_bond_site_symmetry_2
_ccdc_geom_bond_type
Gd0 C3 2.818 . S
Gd0 O20 2.377 . S
Gd0 O22 2.448 . S
Gd0 O23 2.506 . S
Gd0 O24 2.435 . S
Gd0 O25 2.717 . S
Gd0 O27 2.395 1_455 S
Gd0 O31 2.327 . S
Gd1 C12 2.818 1_455 S
Gd1 O21 2.395 . S
Gd1 O25 2.327 . S
Gd1 O26 2.377 1_455 S
Gd1 O28 2.448 1_455 S
Gd1 O29 2.506 1_455 S
Gd1 O30 2.435 . S
Gd1 O31 2.717 . S
C2 O20 1.240 . S
C2 O21 1.240 . S
C3 Gd0 2.818 . S
C3 C4 1.510 . S
C3 O22 1.249 . S
C3 O23 1.252 . S
C4 C3 1.510 . S
C4 C5 1.404 . S
C4 C6 1.352 . S
C5 C4 1.404 . S
C5 C9 1.389 . S
C5 H32 0.930 . S
C6 C4 1.352 . S
C6 C8 1.374 . S
C6 H33 0.931 . S
C7 C8 1.359 . S
C7 C9 1.364 . S
C8 C6 1.374 . S
C8 C7 1.359 . S
C8 H34 0.931 . S
C9 C5 1.389 . S
C9 C7 1.364 . S
C9 H35 0.931 . S
C10 O24 1.256 . S
C10 O25 1.257 . S
C11 O26 1.240 . S
C11 O27 1.240 . S
C12 Gd1 2.818 1_655 S
C12 C13 1.510 . S
C12 O28 1.249 . S
C12 O29 1.252 . S
C13 C12 1.510 . S
C13 C14 1.404 . S
C13 C15 1.352 . S
C14 C13 1.404 . S
C14 C18 1.389 . S
C14 H36 0.930 . S
C15 C13 1.352 . S
C15 C17 1.374 . S
C15 H37 0.931 . S
C16 C17 1.359 . S
C16 C18 1.364 . S
C17 C15 1.374 . S
C17 C16 1.359 . S
C17 H38 0.931 . S
C18 C14 1.389 . S
C18 C16 1.364 . S
C18 H39 0.931 . S
C19 O30 1.256 . S
C19 O31 1.257 . S
O20 Gd0 2.377 . S
O20 C2 1.240 . S
O21 Gd1 2.395 . S
O21 C2 1.240 . S
O22 Gd0 2.448 . S
O22 C3 1.249 . S
O23 Gd0 2.506 . S
O23 C3 1.252 . S
O24 Gd0 2.435 . S
O24 C10 1.256 . S
O25 Gd0 2.717 . S
O25 Gd1 2.327 . S
O25 C10 1.257 . S
O26 Gd1 2.377 1_655 S
O26 C11 1.240 . S
O27 Gd0 2.395 1_655 S
O27 C11 1.240 . S
O28 Gd1 2.448 1_655 S
O28 C12 1.249 . S
O29 Gd1 2.506 1_655 S
O29 C12 1.252 . S
O30 Gd1 2.435 . S
O30 C19 1.256 . S
O31 Gd0 2.327 . S
O31 Gd1 2.717 . S
O31 C19 1.257 . S
H32 C5 0.930 . S
H33 C6 0.931 . S
H34 C8 0.931 . S
H35 C9 0.931 . S
H36 C14 0.930 . S
H37 C15 0.931 . S
H38 C17 0.931 . S
H39 C18 0.931 . S
Gd40 C43 2.818 . S
Gd40 O60 2.377 . S
Gd40 O62 2.448 . S
Gd40 O63 2.506 . S
Gd40 O64 2.435 . S
Gd40 O65 2.717 1_565 S
Gd40 O67 2.395 1_565 S
Gd40 O71 2.327 1_565 S
Gd41 C52 2.818 . S
Gd41 O61 2.395 1_545 S
Gd41 O65 2.327 . S
Gd41 O66 2.377 . S
Gd41 O68 2.448 . S
Gd41 O69 2.506 . S
Gd41 O70 2.435 . S
Gd41 O71 2.717 . S
C42 O60 1.240 . S
C42 O61 1.240 . S
C43 Gd40 2.818 . S
C43 C44 1.510 . S
C43 O62 1.249 . S
C43 O63 1.252 . S
C44 C43 1.510 . S
C44 C45 1.404 . S
C44 C46 1.352 . S
C45 C44 1.404 . S
C45 C49 1.389 . S
C45 H72 0.930 . S
C46 C44 1.352 . S
C46 C48 1.374 . S
C46 H73 0.931 . S
C47 C48 1.359 . S
C47 C49 1.364 . S
C48 C46 1.374 . S
C48 C47 1.359 . S
C48 H74 0.931 . S
C49 C45 1.389 . S
C49 C47 1.364 . S
C49 H75 0.931 . S
C50 O64 1.256 1_545 S
C50 O65 1.257 . S
C51 O66 1.240 . S
C51 O67 1.240 . S
C52 Gd41 2.818 . S
C52 C53 1.510 . S
C52 O68 1.249 . S
C52 O69 1.252 . S
C53 C52 1.510 . S
C53 C54 1.404 . S
C53 C55 1.352 . S
C54 C53 1.404 . S
C54 C58 1.389 . S
C54 H76 0.930 . S
C55 C53 1.352 . S
C55 C57 1.374 . S
C55 H77 0.931 . S
C56 C57 1.359 . S
C56 C58 1.364 . S
C57 C55 1.374 . S
C57 C56 1.359 . S
C57 H78 0.931 . S
C58 C54 1.389 . S
C58 C56 1.364 . S
C58 H79 0.931 . S
C59 O70 1.256 . S
C59 O71 1.257 . S
O60 Gd40 2.377 . S
O60 C42 1.240 . S
O61 Gd41 2.395 1_565 S
O61 C42 1.240 . S
O62 Gd40 2.448 . S
O62 C43 1.249 . S
O63 Gd40 2.506 . S
O63 C43 1.252 . S
O64 Gd40 2.435 . S
O64 C50 1.256 1_565 S
O65 Gd40 2.717 1_545 S
O65 Gd41 2.327 . S
O65 C50 1.257 . S
O66 Gd41 2.377 . S
O66 C51 1.240 . S
O67 Gd40 2.395 1_545 S
O67 C51 1.240 . S
O68 Gd41 2.448 . S
O68 C52 1.249 . S
O69 Gd41 2.506 . S
O69 C52 1.252 . S
O70 Gd41 2.435 . S
O70 C59 1.256 . S
O71 Gd40 2.327 1_545 S
O71 Gd41 2.717 . S
O71 C59 1.257 . S
H72 C45 0.930 . S
H73 C46 0.931 . S
H74 C48 0.931 . S
H75 C49 0.931 . S
H76 C54 0.930 . S
H77 C55 0.931 . S
H78 C57 0.931 . S
H79 C58 0.931 . S
Gd80 C83 2.818 . S
Gd80 O100 2.377 . S
Gd80 O102 2.448 . S
Gd80 O103 2.506 . S
Gd80 O104 2.435 . S
Gd80 O105 2.717 . S
Gd80 O107 2.395 . S
Gd80 O111 2.327 . S
Gd81 C92 2.818 . S
Gd81 O101 2.395 . S
Gd81 O105 2.327 . S
Gd81 O106 2.377 . S
Gd81 O108 2.448 . S
Gd81 O109 2.506 . S
Gd81 O110 2.435 . S
Gd81 O111 2.717 . S
C82 O100 1.240 . S
C82 O101 1.240 . S
C83 Gd80 2.818 . S
C83 C84 1.510 . S
C83 O102 1.249 . S
C83 O103 1.252 . S
C84 C83 1.510 . S
C84 C85 1.404 . S
C84 C86 1.352 . S
C85 C84 1.404 . S
C85 C89 1.389 . S
C85 H112 0.930 . S
C86 C84 1.352 . S
C86 C88 1.374 . S
C86 H113 0.931 . S
C87 C88 1.359 . S
C87 C89 1.364 . S
C88 C86 1.374 . S
C88 C87 1.359 . S
C88 H114 0.931 . S
C89 C85 1.389 . S
C89 C87 1.364 . S
C89 H115 0.931 . S
C90 O104 1.256 . S
C90 O105 1.257 . S
C91 O106 1.240 . S
C91 O107 1.240 . S
C92 Gd81 2.818 . S
C92 C93 1.510 . S
C92 O108 1.249 . S
C92 O109 1.252 . S
C93 C92 1.510 . S
C93 C94 1.404 . S
C93 C95 1.352 . S
C94 C93 1.404 . S
C94 C98 1.389 . S
C94 H116 0.930 . S
C95 C93 1.352 . S
C95 C97 1.374 . S
C95 H117 0.931 . S
C96 C97 1.359 . S
C96 C98 1.364 . S
C97 C95 1.374 . S
C97 C96 1.359 . S
C97 H118 0.931 . S
C98 C94 1.389 . S
C98 C96 1.364 . S
C98 H119 0.931 . S
C99 O110 1.256 . S
C99 O111 1.257 . S
O100 Gd80 2.377 . S
O100 C82 1.240 . S
O101 Gd81 2.395 . S
O101 C82 1.240 . S
O102 Gd80 2.448 . S
O102 C83 1.249 . S
O103 Gd80 2.506 . S
O103 C83 1.252 . S
O104 Gd80 2.435 . S
O104 C90 1.256 . S
O105 Gd80 2.717 . S
O105 Gd81 2.327 . S
O105 C90 1.257 . S
O106 Gd81 2.377 . S
O106 C91 1.240 . S
O107 Gd80 2.395 . S
O107 C91 1.240 . S
O108 Gd81 2.448 . S
O108 C92 1.249 . S
O109 Gd81 2.506 . S
O109 C92 1.252 . S
O110 Gd81 2.435 . S
O110 C99 1.256 . S
O111 Gd80 2.327 . S
O111 Gd81 2.717 . S
O111 C99 1.257 . S
H112 C85 0.930 . S
H113 C86 0.931 . S
H114 C88 0.931 . S
H115 C89 0.931 . S
H116 C94 0.930 . S
H117 C95 0.931 . S
H118 C97 0.931 . S
H119 C98 0.931 . S
C120 C121 1.391 . S
C120 C124 1.391 . S
C120 H162 0.948 . S
C121 C120 1.391 . S
C121 C122 1.391 . S
C122 C121 1.391 . S
C122 H178 0.947 . S
C122 C179 1.392 . S
C123 C124 1.391 . S
C123 C127 1.397 . S
C123 C179 1.419 . S
C124 C120 1.391 . S
C124 C123 1.391 . S
C124 C125 1.399 . S
C125 C124 1.399 . S
C125 C128 1.396 . S
C125 C137 1.453 . S
C125 C138 1.684 . S
H126 C150 0.948 . S
C127 C123 1.397 . S
C127 C128 1.394 . S
C127 C146 1.723 . S
C128 C125 1.396 . S
C128 C127 1.394 . S
C128 C158 1.723 1_545 S
H129 C152 0.947 . S
H130 C153 0.948 . S
H131 C159 0.982 . S
H132 C160 0.979 . S
H133 C160 0.980 . S
H134 C160 0.983 . S
H135 C159 0.979 . S
H136 C159 0.977 . S
C137 C125 1.453 . S
C137 H166 0.982 . S
C137 H167 0.979 . S
C137 H168 0.977 . S
C138 C125 1.684 . S
C138 H163 0.979 . S
C138 H164 0.980 . S
C138 H165 0.983 . S
C139 C140 1.391 . S
C139 C144 1.391 . S
C139 H169 0.948 . S
C140 C139 1.391 . S
C140 C141 1.391 1_545 S
C141 C140 1.391 1_565 S
C141 C142 1.392 . S
C141 H170 0.947 . S
C142 C141 1.392 . S
C142 C143 1.419 1_565 S
C142 H171 0.948 . S
C143 C142 1.419 1_545 S
C143 C144 1.391 . S
C143 C147 1.397 . S
C144 C139 1.391 . S
C144 C143 1.391 . S
C144 C145 1.399 . S
C145 C144 1.399 . S
C145 C146 1.396 . S
C145 C148 1.453 . S
C145 C149 1.684 . S
C146 C127 1.723 . S
C146 C145 1.396 . S
C146 C147 1.394 . S
C147 C143 1.397 . S
C147 C146 1.394 . S
C147 C157 1.723 1_545 S
C148 C145 1.453 . S
C148 H172 0.982 . S
C148 H173 0.979 . S
C148 H174 0.977 . S
C149 C145 1.684 . S
C149 H175 0.979 . S
C149 H176 0.980 . S
C149 H177 0.983 . S
C150 H126 0.948 . S
C150 C151 1.391 . S
C150 C155 1.391 . S
C151 C150 1.391 . S
C151 C152 1.391 . S
C152 H129 0.947 . S
C152 C151 1.391 . S
C152 C153 1.392 . S
C153 H130 0.948 . S
C153 C152 1.392 . S
C153 C154 1.419 . S
C154 C153 1.419 . S
C154 C155 1.391 . S
C154 C158 1.397 . S
C155 C150 1.391 . S
C155 C154 1.391 . S
C155 C156 1.399 . S
C156 C155 1.399 . S
C156 C157 1.396 . S
C156 C159 1.453 . S
C156 C160 1.684 . S
C157 C147 1.723 1_565 S
C157 C156 1.396 . S
C157 C158 1.394 . S
C158 C128 1.723 1_565 S
C158 C154 1.397 . S
C158 C157 1.394 . S
C159 H131 0.982 . S
C159 H135 0.979 . S
C159 H136 0.977 . S
C159 C156 1.453 . S
C160 H132 0.979 . S
C160 H133 0.980 . S
C160 H134 0.983 . S
C160 C156 1.684 . S
H161 C179 0.948 . S
H162 C120 0.948 . S
H163 C138 0.979 . S
H164 C138 0.980 . S
H165 C138 0.983 . S
H166 C137 0.982 . S
H167 C137 0.979 . S
H168 C137 0.977 . S
H169 C139 0.948 . S
H170 C141 0.947 . S
H171 C142 0.948 . S
H172 C148 0.982 . S
H173 C148 0.979 . S
H174 C148 0.977 . S
H175 C149 0.979 . S
H176 C149 0.980 . S
H177 C149 0.983 . S
H178 C122 0.947 . S
C179 C122 1.392 . S
C179 C123 1.419 . S
C179 H161 0.948 . S
C180 C181 1.391 . S
C180 C184 1.391 . S
C180 H222 0.948 . S
C181 C180 1.391 . S
C181 C182 1.391 . S
C182 C181 1.391 . S
C182 H238 0.947 . S
C182 C239 1.392 . S
C183 C184 1.391 . S
C183 C187 1.397 . S
C183 C239 1.419 . S
C184 C180 1.391 . S
C184 C183 1.391 . S
C184 C185 1.399 . S
C185 C184 1.399 . S
C185 C188 1.396 . S
C185 C197 1.453 . S
C185 C198 1.684 . S
H186 C210 0.948 . S
C187 C183 1.397 . S
C187 C188 1.394 . S
C187 C206 1.723 . S
C188 C185 1.396 . S
C188 C187 1.394 . S
C188 C218 1.723 . S
H189 C212 0.947 . S
H190 C213 0.948 . S
H191 C219 0.982 . S
H192 C220 0.979 . S
H193 C220 0.980 . S
H194 C220 0.983 . S
H195 C219 0.979 . S
H196 C219 0.977 . S
C197 C185 1.453 . S
C197 H226 0.982 . S
C197 H227 0.979 . S
C197 H228 0.977 . S
C198 C185 1.684 . S
C198 H223 0.979 . S
C198 H224 0.980 . S
C198 H225 0.983 . S
C199 C200 1.391 . S
C199 C204 1.391 . S
C199 H229 0.948 . S
C200 C199 1.391 . S
C200 C201 1.391 . S
C201 C200 1.391 . S
C201 C202 1.392 . S
C201 H230 0.947 . S
C202 C201 1.392 . S
C202 C203 1.419 . S
C202 H231 0.948 . S
C203 C202 1.419 . S
C203 C204 1.391 . S
C203 C207 1.397 . S
C204 C199 1.391 . S
C204 C203 1.391 . S
C204 C205 1.399 . S
C205 C204 1.399 . S
C205 C206 1.396 . S
C205 C208 1.453 . S
C205 C209 1.684 . S
C206 C187 1.723 . S
C206 C205 1.396 . S
C206 C207 1.394 . S
C207 C203 1.397 . S
C207 C206 1.394 . S
C207 C217 1.723 . S
C208 C205 1.453 . S
C208 H232 0.982 . S
C208 H233 0.979 . S
C208 H234 0.977 . S
C209 C205 1.684 . S
C209 H235 0.979 . S
C209 H236 0.980 . S
C209 H237 0.983 . S
C210 H186 0.948 . S
C210 C211 1.391 . S
C210 C215 1.391 . S
C211 C210 1.391 . S
C211 C212 1.391 . S
C212 H189 0.947 . S
C212 C211 1.391 . S
C212 C213 1.392 . S
C213 H190 0.948 . S
C213 C212 1.392 . S
C213 C214 1.419 . S
C214 C213 1.419 . S
C214 C215 1.391 . S
C214 C218 1.397 . S
C215 C210 1.391 . S
C215 C214 1.391 . S
C215 C216 1.399 . S
C216 C215 1.399 . S
C216 C217 1.396 . S
C216 C219 1.453 . S
C216 C220 1.684 . S
C217 C207 1.723 . S
C217 C216 1.396 . S
C217 C218 1.394 . S
C218 C188 1.723 . S
C218 C214 1.397 . S
C218 C217 1.394 . S
C219 H191 0.982 . S
C219 H195 0.979 . S
C219 H196 0.977 . S
C219 C216 1.453 . S
C220 H192 0.979 . S
C220 H193 0.980 . S
C220 H194 0.983 . S
C220 C216 1.684 . S
H221 C239 0.948 . S
H222 C180 0.948 . S
H223 C198 0.979 . S
H224 C198 0.980 . S
H225 C198 0.983 . S
H226 C197 0.982 . S
H227 C197 0.979 . S
H228 C197 0.977 . S
H229 C199 0.948 . S
H230 C201 0.947 . S
H231 C202 0.948 . S
H232 C208 0.982 . S
H233 C208 0.979 . S
H234 C208 0.977 . S
H235 C209 0.979 . S
H236 C209 0.980 . S
H237 C209 0.983 . S
H238 C182 0.947 . S
C239 C182 1.392 . S
C239 C183 1.419 . S
C239 H221 0.948 . S
C240 C241 1.391 . S
C240 C244 1.391 . S
C240 H282 0.948 . S
C241 C240 1.391 . S
C241 C242 1.391 . S
C242 C241 1.391 . S
C242 H298 0.947 . S
C242 C299 1.392 . S
C243 C244 1.391 . S
C243 C247 1.397 . S
C243 C299 1.419 . S
C244 C240 1.391 . S
C244 C243 1.391 . S
C244 C245 1.399 . S
C245 C244 1.399 . S
C245 C248 1.396 . S
C245 C257 1.453 . S
C245 C258 1.684 . S
H246 C270 0.948 . S
C247 C243 1.397 . S
C247 C248 1.394 . S
C247 C266 1.723 . S
C248 C245 1.396 . S
C248 C247 1.394 . S
C248 C278 1.723 . S
H249 C272 0.947 . S
H250 C273 0.948 . S
H251 C279 0.982 . S
H252 C280 0.979 1_455 S
H253 C280 0.969 1_455 S
H254 C280 0.983 . S
H255 C279 0.979 . S
H256 C279 0.977 . S
C257 C245 1.453 . S
C257 H286 0.982 . S
C257 H287 0.979 . S
C257 H288 0.977 . S
C258 C245 1.684 . S
C258 H283 0.979 . S
C258 H284 0.980 . S
C258 H285 0.983 . S
C259 C260 1.391 . S
C259 C264 1.391 . S
C259 H289 0.948 . S
C260 C259 1.391 . S
C260 C261 1.391 . S
C261 C260 1.391 . S
C261 C262 1.392 . S
C261 H290 0.947 . S
C262 C261 1.392 . S
C262 C263 1.419 . S
C262 H291 0.948 . S
C263 C262 1.419 . S
C263 C264 1.391 . S
C263 C267 1.397 . S
C264 C259 1.391 . S
C264 C263 1.391 . S
C264 C265 1.399 . S
C265 C264 1.399 . S
C265 C266 1.396 . S
C265 C268 1.453 . S
C265 C269 1.684 . S
C266 C247 1.723 . S
C266 C265 1.396 . S
C266 C267 1.394 . S
C267 C263 1.397 . S
C267 C266 1.394 . S
C267 C277 1.723 . S
C268 C265 1.453 . S
C268 H292 0.982 . S
C268 H293 0.979 . S
C268 H294 0.977 . S
C269 C265 1.684 . S
C269 H295 0.979 . S
C269 H296 0.980 . S
C269 H297 0.983 . S
C270 H246 0.948 . S
C270 C271 1.391 . S
C270 C275 1.391 . S
C271 C270 1.391 . S
C271 C272 1.391 . S
C272 H249 0.947 . S
C272 C271 1.391 . S
C272 C273 1.392 1_655 S
C273 H250 0.948 . S
C273 C272 1.392 1_455 S
C273 C274 1.419 . S
C274 C273 1.419 . S
C274 C275 1.391 1_455 S
C274 C278 1.397 . S
C275 C270 1.391 . S
C275 C274 1.391 1_655 S
C275 C276 1.406 . S
C276 C275 1.406 . S
C276 C277 1.373 1_655 S
C276 C279 1.462 . S
C276 C280 1.696 . S
C277 C267 1.723 . S
C277 C276 1.373 1_455 S
C277 C278 1.394 . S
C278 C248 1.723 . S
C278 C274 1.397 . S
C278 C277 1.394 . S
C279 H251 0.982 . S
C279 H255 0.979 . S
C279 H256 0.977 . S
C279 C276 1.462 . S
C280 H252 0.979 1_655 S
C280 H253 0.969 1_655 S
C280 H254 0.983 . S
C280 C276 1.696 . S
H281 C299 0.948 . S
H282 C240 0.948 . S
H283 C258 0.979 . S
H284 C258 0.980 . S
H285 C258 0.983 . S
H286 C257 0.982 . S
H287 C257 0.979 . S
H288 C257 0.977 . S
H289 C259 0.948 . S
H290 C261 0.947 . S
H291 C262 0.948 . S
H292 C268 0.982 . S
H293 C268 0.979 . S
H294 C268 0.977 . S
H295 C269 0.979 . S
H296 C269 0.980 . S
H297 C269 0.983 . S
H298 C242 0.947 . S
C299 C242 1.392 . S
C299 C243 1.419 . S
C299 H281 0.948 . S
C300 C301 1.391 . S
C300 C304 1.391 . S
C300 H342 0.948 . S
C301 C300 1.391 . S
C301 C302 1.391 . S
C302 C301 1.391 . S
C302 H358 0.947 . S
C302 C359 1.392 . S
C303 C304 1.391 . S
C303 C307 1.397 . S
C303 C359 1.419 . S
C304 C300 1.391 . S
C304 C303 1.391 . S
C304 C305 1.399 . S
C305 C304 1.399 . S
C305 C308 1.396 . S
C305 C317 1.453 . S
C305 C318 1.684 . S
H306 C330 0.948 . S
C307 C303 1.397 . S
C307 C308 1.394 . S
C307 C326 1.723 . S
C308 C305 1.396 . S
C308 C307 1.394 . S
C308 C338 1.723 1_655 S
H309 C332 0.947 . S
H310 C333 0.948 . S
H311 C339 0.982 . S
H312 C340 0.979 . S
H313 C340 0.980 . S
H314 C340 0.983 . S
H315 C339 0.979 . S
H316 C339 0.977 . S
C317 C305 1.453 . S
C317 H346 0.982 1_655 S
C317 H347 0.979 . S
C317 H348 0.977 1_655 S
C318 C305 1.684 . S
C318 H343 0.979 . S
C318 H344 0.980 . S
C318 H345 0.983 . S
C319 C320 1.391 1_655 S
C319 C324 1.391 . S
C319 H349 0.948 . S
C320 C319 1.391 1_455 S
C320 C321 1.391 . S
C321 C320 1.391 . S
C321 C322 1.392 . S
C321 H350 0.947 . S
C322 C321 1.392 . S
C322 C323 1.419 . S
C322 H351 0.948 . S
C323 C322 1.419 . S
C323 C324 1.391 1_455 S
C323 C327 1.397 . S
C324 C319 1.391 . S
C324 C323 1.391 1_655 S
C324 C325 1.399 . S
C325 C324 1.399 . S
C325 C326 1.396 . S
C325 C328 1.453 . S
C325 C329 1.684 . S
C326 C307 1.723 . S
C326 C325 1.396 . S
C326 C327 1.394 1_655 S
C327 C323 1.397 . S
C327 C326 1.394 1_455 S
C327 C337 1.723 . S
C328 C325 1.453 . S
C328 H352 0.982 . S
C328 H353 0.979 . S
C328 H354 0.977 . S
C329 C325 1.684 . S
C329 H355 0.979 . S
C329 H356 0.980 . S
C329 H357 0.983 . S
C330 H306 0.948 . S
C330 C331 1.391 . S
C330 C335 1.391 . S
C331 C330 1.391 . S
C331 C332 1.391 . S
C332 H309 0.947 . S
C332 C331 1.391 . S
C332 C333 1.392 . S
C333 H310 0.948 . S
C333 C332 1.392 . S
C333 C334 1.419 . S
C334 C333 1.419 . S
C334 C335 1.391 . S
C334 C338 1.397 . S
C335 C330 1.391 . S
C335 C334 1.391 . S
C335 C336 1.399 . S
C336 C335 1.399 . S
C336 C337 1.396 . S
C336 C339 1.453 . S
C336 C340 1.684 . S
C337 C327 1.723 . S
C337 C336 1.396 . S
C337 C338 1.394 . S
C338 C308 1.723 1_455 S
C338 C334 1.397 . S
C338 C337 1.394 . S
C339 H311 0.982 . S
C339 H315 0.979 . S
C339 H316 0.977 . S
C339 C336 1.453 . S
C340 H312 0.979 . S
C340 H313 0.980 . S
C340 H314 0.983 . S
C340 C336 1.684 . S
H341 C359 0.948 . S
H342 C300 0.948 . S
H343 C318 0.979 . S
H344 C318 0.980 . S
H345 C318 0.983 . S
H346 C317 0.982 1_455 S
H347 C317 0.979 . S
H348 C317 0.977 1_455 S
H349 C319 0.948 . S
H350 C321 0.947 . S
H351 C322 0.948 . S
H352 C328 0.982 . S
H353 C328 0.979 . S
H354 C328 0.977 . S
H355 C329 0.979 . S
H356 C329 0.980 . S
H357 C329 0.983 . S
H358 C302 0.947 . S
C359 C302 1.392 . S
C359 C303 1.419 . S
C359 H341 0.948 . S
C360 C361 1.391 . S
C360 C364 1.391 . S
C360 H402 0.948 . S
C361 C360 1.391 . S
C361 C362 1.391 . S
C362 C361 1.391 . S
C362 H418 0.947 . S
C362 C419 1.392 . S
C363 C364 1.391 . S
C363 C367 1.397 . S
C363 C419 1.419 . S
C364 C360 1.391 . S
C364 C363 1.391 . S
C364 C365 1.399 . S
C365 C364 1.399 . S
C365 C368 1.396 . S
C365 C377 1.453 1_565 S
C365 C378 1.684 . S
H366 C390 0.948 . S
C367 C363 1.397 . S
C367 C368 1.394 . S
C367 C386 1.723 . S
C368 C365 1.396 . S
C368 C367 1.394 . S
C368 C398 1.723 1_565 S
H369 C392 0.947 . S
H370 C393 0.948 . S
H371 C399 0.982 . S
H372 C400 0.979 . S
H373 C400 0.980 . S
H374 C400 0.983 . S
H375 C399 0.979 . S
H376 C399 0.977 . S
C377 C365 1.453 1_545 S
C377 H406 0.982 . S
C377 H407 0.986 . S
C377 H408 0.977 . S
C378 C365 1.684 . S
C378 H403 0.979 . S
C378 H404 0.976 1_565 S
C378 H405 0.983 . S
C379 C380 1.404 . S
C379 C384 1.391 . S
C379 H409 0.948 . S
C380 C379 1.404 . S
C380 C381 1.377 1_565 S
C381 C380 1.377 1_545 S
C381 C382 1.392 . S
C381 H410 0.947 . S
C382 C381 1.392 . S
C382 C383 1.419 . S
C382 H411 0.948 . S
C383 C382 1.419 . S
C383 C384 1.391 1_545 S
C383 C387 1.397 . S
C384 C379 1.391 . S
C384 C383 1.391 1_565 S
C384 C385 1.399 . S
C385 C384 1.399 . S
C385 C386 1.396 . S
C385 C388 1.453 . S
C385 C389 1.684 . S
C386 C367 1.723 . S
C386 C385 1.396 . S
C386 C387 1.394 1_565 S
C387 C383 1.397 . S
C387 C386 1.394 1_545 S
C387 C397 1.723 . S
C388 C385 1.453 . S
C388 H412 0.982 . S
C388 H413 0.979 . S
C388 H414 0.977 . S
C389 C385 1.684 . S
C389 H415 0.979 . S
C389 H416 0.980 . S
C389 H417 0.983 . S
C390 H366 0.948 . S
C390 C391 1.391 . S
C390 C395 1.391 . S
C391 C390 1.391 . S
C391 C392 1.391 . S
C392 H369 0.947 . S
C392 C391 1.391 . S
C392 C393 1.392 . S
C393 H370 0.948 . S
C393 C392 1.392 . S
C393 C394 1.419 . S
C394 C393 1.419 . S
C394 C395 1.391 . S
C394 C398 1.397 . S
C395 C390 1.391 . S
C395 C394 1.391 . S
C395 C396 1.399 . S
C396 C395 1.399 . S
C396 C397 1.396 . S
C396 C399 1.453 . S
C396 C400 1.684 . S
C397 C387 1.723 . S
C397 C396 1.396 . S
C397 C398 1.394 . S
C398 C368 1.723 1_545 S
C398 C394 1.397 . S
C398 C397 1.394 . S
C399 H371 0.982 . S
C399 H375 0.979 . S
C399 H376 0.977 . S
C399 C396 1.453 . S
C400 H372 0.979 . S
C400 H373 0.980 . S
C400 H374 0.983 . S
C400 C396 1.684 . S
H401 C419 0.948 . S
H402 C360 0.948 . S
H403 C378 0.979 . S
H404 C378 0.976 1_545 S
H405 C378 0.983 . S
H406 C377 0.982 . S
H407 C377 0.986 . S
H408 C377 0.977 . S
H409 C379 0.948 . S
H410 C381 0.947 . S
H411 C382 0.948 . S
H412 C388 0.982 . S
H413 C388 0.979 . S
H414 C388 0.977 . S
H415 C389 0.979 . S
H416 C389 0.980 . S
H417 C389 0.983 . S
H418 C362 0.947 . S
C419 C362 1.392 . S
C419 C363 1.419 . S
C419 H401 0.948 . S
C420 C421 1.391 . S
C420 C424 1.391 . S
C420 H462 0.948 . S
C421 C420 1.391 . S
C421 C422 1.391 . S
C422 C421 1.391 . S
C422 H478 0.947 . S
C422 C479 1.392 . S
C423 C424 1.391 . S
C423 C427 1.397 . S
C423 C479 1.419 . S
C424 C420 1.391 . S
C424 C423 1.391 . S
C424 C425 1.399 . S
C425 C424 1.399 . S
C425 C428 1.396 . S
C425 C437 1.453 . S
C425 C438 1.684 . S
H426 C450 0.948 . S
C427 C423 1.397 . S
C427 C428 1.394 . S
C427 C446 1.723 . S
C428 C425 1.396 . S
C428 C427 1.394 . S
C428 C458 1.723 . S
H429 C452 0.947 . S
H430 C453 0.948 . S
H431 C459 0.982 . S
H432 C460 0.979 . S
H433 C460 0.980 . S
H434 C460 0.983 . S
H435 C459 0.979 . S
H436 C459 0.977 . S
C437 C425 1.453 . S
C437 H466 0.982 . S
C437 H467 0.979 . S
C437 H468 0.977 . S
C438 C425 1.684 . S
C438 H463 0.979 . S
C438 H464 0.980 . S
C438 H465 0.983 . S
C439 C440 1.391 . S
C439 C444 1.391 . S
C439 H469 0.948 . S
C440 C439 1.391 . S
C440 C441 1.391 . S
C441 C440 1.391 . S
C441 C442 1.392 . S
C441 H470 0.947 . S
C442 C441 1.392 . S
C442 C443 1.419 . S
C442 H471 0.948 . S
C443 C442 1.419 . S
C443 C444 1.391 . S
C443 C447 1.397 . S
C444 C439 1.391 . S
C444 C443 1.391 . S
C444 C445 1.399 . S
C445 C444 1.399 . S
C445 C446 1.396 . S
C445 C448 1.453 . S
C445 C449 1.684 . S
C446 C427 1.723 . S
C446 C445 1.396 . S
C446 C447 1.394 . S
C447 C443 1.397 . S
C447 C446 1.394 . S
C447 C457 1.723 . S
C448 C445 1.453 . S
C448 H472 0.982 . S
C448 H473 0.979 . S
C448 H474 0.977 . S
C449 C445 1.684 . S
C449 H475 0.979 . S
C449 H476 0.980 . S
C449 H477 0.983 . S
C450 H426 0.948 . S
C450 C451 1.391 . S
C450 C455 1.391 . S
C451 C450 1.391 . S
C451 C452 1.391 . S
C452 H429 0.947 . S
C452 C451 1.391 . S
C452 C453 1.392 . S
C453 H430 0.948 . S
C453 C452 1.392 . S
C453 C454 1.419 . S
C454 C453 1.419 . S
C454 C455 1.391 . S
C454 C458 1.397 . S
C455 C450 1.391 . S
C455 C454 1.391 . S
C455 C456 1.399 . S
C456 C455 1.399 . S
C456 C457 1.396 . S
C456 C459 1.453 . S
C456 C460 1.684 . S
C457 C447 1.723 . S
C457 C456 1.396 . S
C457 C458 1.394 . S
C458 C428 1.723 . S
C458 C454 1.397 . S
C458 C457 1.394 . S
C459 H431 0.982 . S
C459 H435 0.979 . S
C459 H436 0.977 . S
C459 C456 1.453 . S
C460 H432 0.979 . S
C460 H433 0.980 . S
C460 H434 0.983 . S
C460 C456 1.684 . S
H461 C479 0.948 . S
H462 C420 0.948 . S
H463 C438 0.979 . S
H464 C438 0.980 . S
H465 C438 0.983 . S
H466 C437 0.982 . S
H467 C437 0.979 . S
H468 C437 0.977 . S
H469 C439 0.948 . S
H470 C441 0.947 . S
H471 C442 0.948 . S
H472 C448 0.982 . S
H473 C448 0.979 . S
H474 C448 0.977 . S
H475 C449 0.979 . S
H476 C449 0.980 . S
H477 C449 0.983 . S
H478 C422 0.947 . S
C479 C422 1.392 . S
C479 C423 1.419 . S
C479 H461 0.948 . S
H480 C498 0.951 . S
H481 C500 0.951 . S
H482 C502 0.950 . S
H483 C503 0.950 . S
H484 C505 0.950 . S
H485 C508 0.950 . S
H486 C509 0.950 . S
H487 C511 0.950 . S
H488 C512 0.950 . S
H489 C513 0.951 . S
H490 C515 0.951 . S
H491 C517 0.950 . S
H492 C518 0.950 . S
H493 C520 0.950 . S
H494 C523 0.950 . S
H495 C524 0.950 . S
H496 C526 0.950 . S
H497 C527 0.950 . S
C498 H480 0.951 . S
C498 C499 1.366 . S
C498 C500 1.388 . S
C499 C498 1.366 . S
C499 C503 1.385 . S
C500 H481 0.951 . S
C500 C498 1.388 . S
C500 C501 1.366 . S
C501 C500 1.366 . S
C501 C502 1.414 . S
C501 C504 1.499 . S
C502 H482 0.950 . S
C502 C501 1.414 . S
C502 C503 1.374 . S
C503 H483 0.950 . S
C503 C499 1.385 . S
C503 C502 1.374 . S
C504 C501 1.499 . S
C504 C505 1.373 . S
C504 C506 1.389 . S
C505 H484 0.950 . S
C505 C504 1.373 . S
C505 C521 1.377 . S
C506 C504 1.389 . S
C506 C507 1.524 . S
C506 C520 1.377 . S
C507 C506 1.524 . S
C507 C508 1.397 . S
C507 C512 1.363 . S
C508 H485 0.950 . S
C508 C507 1.397 . S
C508 C509 1.334 . S
C509 H486 0.950 . S
C509 C508 1.334 . S
C509 C510 1.287 . S
C510 C509 1.287 . S
C510 C511 1.524 . S
C510 H529 0.913 . S
C511 H487 0.950 . S
C511 C510 1.524 . S
C511 C512 1.415 . S
C512 H488 0.950 . S
C512 C507 1.363 . S
C512 C511 1.415 . S
C513 H489 0.951 . S
C513 C514 1.366 . S
C513 C515 1.388 . S
C514 C513 1.366 . S
C514 C518 1.385 . S
C515 H490 0.951 . S
C515 C513 1.388 . S
C515 C516 1.366 . S
C516 C515 1.366 . S
C516 C517 1.414 . S
C516 C519 1.499 . S
C517 H491 0.950 . S
C517 C516 1.414 . S
C517 C518 1.374 . S
C518 H492 0.950 . S
C518 C514 1.385 . S
C518 C517 1.374 . S
C519 C516 1.499 . S
C519 C520 1.373 . S
C519 C521 1.389 . S
C520 H493 0.950 . S
C520 C506 1.377 . S
C520 C519 1.373 . S
C521 C505 1.377 . S
C521 C519 1.389 . S
C521 C522 1.524 . S
C522 C521 1.524 . S
C522 C523 1.397 . S
C522 C527 1.363 . S
C523 H494 0.950 . S
C523 C522 1.397 . S
C523 C524 1.334 . S
C524 H495 0.950 . S
C524 C523 1.334 . S
C524 C525 1.287 . S
C525 C524 1.287 . S
C525 C526 1.524 . S
C525 H528 0.999 . S
C526 H496 0.950 . S
C526 C525 1.524 . S
C526 C527 1.415 . S
C527 H497 0.950 . S
C527 C522 1.363 . S
C527 C526 1.415 . S
H528 C525 0.999 . S
H529 C510 0.913 . S
H530 C548 0.951 . S
H531 C550 0.951 . S
H532 C552 0.950 . S
H533 C553 0.950 . S
H534 C555 0.950 . S
H535 C558 0.950 . S
H536 C559 0.950 . S
H537 C561 0.950 . S
H538 C562 0.950 . S
H539 C563 0.951 . S
H540 C565 0.951 . S
H541 C567 0.950 . S
H542 C568 0.950 . S
H543 C570 0.950 . S
H544 C573 0.950 . S
H545 C574 0.950 . S
H546 C576 0.950 . S
H547 C577 0.950 . S
C548 H530 0.951 . S
C548 C549 1.366 . S
C548 C550 1.388 . S
C549 C548 1.366 . S
C549 C553 1.385 . S
C550 H531 0.951 . S
C550 C548 1.388 . S
C550 C551 1.366 . S
C551 C550 1.366 . S
C551 C552 1.414 . S
C551 C554 1.499 . S
C552 H532 0.950 . S
C552 C551 1.414 . S
C552 C553 1.374 . S
C553 H533 0.950 . S
C553 C549 1.385 . S
C553 C552 1.374 . S
C554 C551 1.499 . S
C554 C555 1.373 . S
C554 C556 1.389 . S
C555 H534 0.950 . S
C555 C554 1.373 . S
C555 C571 1.377 . S
C556 C554 1.389 . S
C556 C557 1.524 . S
C556 C570 1.377 . S
C557 C556 1.524 . S
C557 C558 1.397 . S
C557 C562 1.363 . S
C558 H535 0.950 . S
C558 C557 1.397 . S
C558 C559 1.334 . S
C559 H536 0.950 . S
C559 C558 1.334 . S
C559 C560 1.287 . S
C560 C559 1.287 . S
C560 C561 1.524 . S
C560 H579 0.913 . S
C561 H537 0.950 . S
C561 C560 1.524 . S
C561 C562 1.415 . S
C562 H538 0.950 . S
C562 C557 1.363 . S
C562 C561 1.415 . S
C563 H539 0.951 . S
C563 C564 1.366 . S
C563 C565 1.388 . S
C564 C563 1.366 . S
C564 C568 1.385 . S
C565 H540 0.951 . S
C565 C563 1.388 . S
C565 C566 1.366 . S
C566 C565 1.366 . S
C566 C567 1.414 . S
C566 C569 1.499 . S
C567 H541 0.950 . S
C567 C566 1.414 . S
C567 C568 1.374 . S
C568 H542 0.950 . S
C568 C564 1.385 . S
C568 C567 1.374 . S
C569 C566 1.499 . S
C569 C570 1.373 . S
C569 C571 1.389 . S
C570 H543 0.950 . S
C570 C556 1.377 . S
C570 C569 1.373 . S
C571 C555 1.377 . S
C571 C569 1.389 . S
C571 C572 1.524 . S
C572 C571 1.524 . S
C572 C573 1.397 . S
C572 C577 1.363 . S
C573 H544 0.950 . S
C573 C572 1.397 . S
C573 C574 1.334 . S
C574 H545 0.950 . S
C574 C573 1.334 . S
C574 C575 1.287 . S
C575 C574 1.287 . S
C575 C576 1.524 . S
C575 H578 0.999 . S
C576 H546 0.950 . S
C576 C575 1.524 . S
C576 C577 1.415 . S
C577 H547 0.950 . S
C577 C572 1.363 . S
C577 C576 1.415 . S
H578 C575 0.999 . S
H579 C560 0.913 . S
H580 C598 0.951 . S
H581 C600 0.951 . S
H582 C602 0.950 . S
H583 C603 0.950 . S
H584 C605 0.950 . S
H585 C608 0.950 . S
H586 C609 0.950 . S
H587 C611 0.950 . S
H588 C612 0.950 . S
H589 C613 0.951 . S
H590 C615 0.951 . S
H591 C617 0.950 . S
H592 C618 0.950 . S
H593 C620 0.950 . S
H594 C623 0.950 . S
H595 C624 0.950 . S
H596 C626 0.950 . S
H597 C627 0.950 . S
C598 H580 0.951 . S
C598 C599 1.366 . S
C598 C600 1.388 . S
C599 C598 1.366 . S
C599 C603 1.385 . S
C600 H581 0.951 . S
C600 C598 1.388 . S
C600 C601 1.366 . S
C601 C600 1.366 . S
C601 C602 1.414 . S
C601 C604 1.499 . S
C602 H582 0.950 . S
C602 C601 1.414 . S
C602 C603 1.374 . S
C603 H583 0.950 . S
C603 C599 1.385 . S
C603 C602 1.374 . S
C604 C601 1.499 . S
C604 C605 1.373 . S
C604 C606 1.389 . S
C605 H584 0.950 . S
C605 C604 1.373 . S
C605 C621 1.377 . S
C606 C604 1.389 . S
C606 C607 1.524 . S
C606 C620 1.377 . S
C607 C606 1.524 . S
C607 C608 1.397 . S
C607 C612 1.363 . S
C608 H585 0.950 . S
C608 C607 1.397 . S
C608 C609 1.334 . S
C609 H586 0.950 . S
C609 C608 1.334 . S
C609 C610 1.287 . S
C610 C609 1.287 . S
C610 C611 1.524 . S
C610 H629 0.913 . S
C611 H587 0.950 . S
C611 C610 1.524 . S
C611 C612 1.415 . S
C612 H588 0.950 . S
C612 C607 1.363 . S
C612 C611 1.415 . S
C613 H589 0.951 . S
C613 C614 1.366 . S
C613 C615 1.388 . S
C614 C613 1.366 . S
C614 C618 1.385 . S
C615 H590 0.951 . S
C615 C613 1.388 . S
C615 C616 1.366 . S
C616 C615 1.366 . S
C616 C617 1.414 . S
C616 C619 1.499 . S
C617 H591 0.950 . S
C617 C616 1.414 . S
C617 C618 1.374 . S
C618 H592 0.950 . S
C618 C614 1.385 . S
C618 C617 1.374 . S
C619 C616 1.499 . S
C619 C620 1.373 . S
C619 C621 1.389 . S
C620 H593 0.950 . S
C620 C606 1.377 . S
C620 C619 1.373 . S
C621 C605 1.377 . S
C621 C619 1.389 . S
C621 C622 1.524 . S
C622 C621 1.524 . S
C622 C623 1.397 . S
C622 C627 1.363 . S
C623 H594 0.950 . S
C623 C622 1.397 . S
C623 C624 1.334 . S
C624 H595 0.950 . S
C624 C623 1.334 . S
C624 C625 1.287 . S
C625 C624 1.287 . S
C625 C626 1.524 . S
C625 H628 0.999 . S
C626 H596 0.950 . S
C626 C625 1.524 . S
C626 C627 1.415 . S
C627 H597 0.950 . S
C627 C622 1.363 . S
C627 C626 1.415 . S
H628 C625 0.999 . S
H629 C610 0.913 . S
H630 C648 0.951 . S
H631 C650 0.951 . S
H632 C652 0.950 . S
H633 C653 0.950 . S
H634 C655 0.950 . S
H635 C658 0.950 . S
H636 C659 0.950 . S
H637 C661 0.950 . S
H638 C662 0.950 . S
H639 C663 0.951 . S
H640 C665 0.951 . S
H641 C667 0.950 . S
H642 C668 0.950 . S
H643 C670 0.950 . S
H644 C673 0.950 . S
H645 C674 0.950 . S
H646 C676 0.950 . S
H647 C677 0.950 . S
C648 H630 0.951 . S
C648 C649 1.366 . S
C648 C650 1.388 . S
C649 C648 1.366 . S
C649 C653 1.385 . S
C650 H631 0.951 . S
C650 C648 1.388 . S
C650 C651 1.366 . S
C651 C650 1.366 . S
C651 C652 1.414 . S
C651 C654 1.499 . S
C652 H632 0.950 . S
C652 C651 1.414 . S
C652 C653 1.374 . S
C653 H633 0.950 . S
C653 C649 1.385 . S
C653 C652 1.374 . S
C654 C651 1.499 . S
C654 C655 1.373 . S
C654 C656 1.389 . S
C655 H634 0.950 . S
C655 C654 1.373 . S
C655 C671 1.377 . S
C656 C654 1.389 . S
C656 C657 1.524 . S
C656 C670 1.377 . S
C657 C656 1.524 . S
C657 C658 1.397 . S
C657 C662 1.363 . S
C658 H635 0.950 . S
C658 C657 1.397 . S
C658 C659 1.334 . S
C659 H636 0.950 . S
C659 C658 1.334 . S
C659 C660 1.287 . S
C660 C659 1.287 . S
C660 C661 1.524 . S
C660 H679 0.913 . S
C661 H637 0.950 . S
C661 C660 1.524 . S
C661 C662 1.415 . S
C662 H638 0.950 . S
C662 C657 1.363 . S
C662 C661 1.415 . S
C663 H639 0.951 . S
C663 C664 1.366 . S
C663 C665 1.388 . S
C664 C663 1.366 . S
C664 C668 1.385 . S
C665 H640 0.951 . S
C665 C663 1.388 . S
C665 C666 1.366 . S
C666 C665 1.366 . S
C666 C667 1.414 . S
C666 C669 1.499 . S
C667 H641 0.950 . S
C667 C666 1.414 . S
C667 C668 1.374 . S
C668 H642 0.950 . S
C668 C664 1.385 . S
C668 C667 1.374 . S
C669 C666 1.499 . S
C669 C670 1.373 . S
C669 C671 1.389 . S
C670 H643 0.950 . S
C670 C656 1.377 . S
C670 C669 1.373 . S
C671 C655 1.377 . S
C671 C669 1.389 . S
C671 C672 1.524 . S
C672 C671 1.524 . S
C672 C673 1.397 . S
C672 C677 1.363 . S
C673 H644 0.950 . S
C673 C672 1.397 . S
C673 C674 1.334 . S
C674 H645 0.950 . S
C674 C673 1.334 . S
C674 C675 1.287 . S
C675 C674 1.287 . S
C675 C676 1.524 . S
C675 H678 0.999 . S
C676 H646 0.950 . S
C676 C675 1.524 . S
C676 C677 1.415 . S
C677 H647 0.950 . S
C677 C672 1.363 . S
C677 C676 1.415 . S
H678 C675 0.999 . S
H679 C660 0.913 . S
H680 C698 0.951 . S
H681 C700 0.951 . S
H682 C702 0.950 . S
H683 C703 0.950 . S
H684 C705 0.950 . S
H685 C708 0.950 . S
H686 C709 0.950 . S
H687 C711 0.950 . S
H688 C712 0.950 . S
H689 C713 0.951 . S
H690 C715 0.951 . S
H691 C717 0.950 . S
H692 C718 0.950 . S
H693 C720 0.950 . S
H694 C723 0.950 . S
H695 C724 0.950 . S
H696 C726 0.950 . S
H697 C727 0.950 . S
C698 H680 0.951 . S
C698 C699 1.366 . S
C698 C700 1.388 . S
C699 C698 1.366 . S
C699 C703 1.385 . S
C700 H681 0.951 . S
C700 C698 1.388 . S
C700 C701 1.366 . S
C701 C700 1.366 . S
C701 C702 1.414 . S
C701 C704 1.499 . S
C702 H682 0.950 . S
C702 C701 1.414 . S
C702 C703 1.374 . S
C703 H683 0.950 . S
C703 C699 1.385 . S
C703 C702 1.374 . S
C704 C701 1.499 . S
C704 C705 1.373 . S
C704 C706 1.389 . S
C705 H684 0.950 . S
C705 C704 1.373 . S
C705 C721 1.377 . S
C706 C704 1.389 . S
C706 C707 1.524 . S
C706 C720 1.377 . S
C707 C706 1.524 . S
C707 C708 1.397 . S
C707 C712 1.363 . S
C708 H685 0.950 . S
C708 C707 1.397 . S
C708 C709 1.334 . S
C709 H686 0.950 . S
C709 C708 1.334 . S
C709 C710 1.287 . S
C710 C709 1.287 . S
C710 C711 1.524 . S
C710 H729 0.913 . S
C711 H687 0.950 . S
C711 C710 1.524 . S
C711 C712 1.415 . S
C712 H688 0.950 . S
C712 C707 1.363 . S
C712 C711 1.415 . S
C713 H689 0.951 . S
C713 C714 1.366 . S
C713 C715 1.388 . S
C714 C713 1.366 . S
C714 C718 1.385 . S
C715 H690 0.951 . S
C715 C713 1.388 . S
C715 C716 1.366 . S
C716 C715 1.366 . S
C716 C717 1.414 . S
C716 C719 1.499 . S
C717 H691 0.950 . S
C717 C716 1.414 . S
C717 C718 1.374 . S
C718 H692 0.950 . S
C718 C714 1.385 . S
C718 C717 1.374 . S
C719 C716 1.499 . S
C719 C720 1.373 . S
C719 C721 1.389 . S
C720 H693 0.950 . S
C720 C706 1.377 . S
C720 C719 1.373 . S
C721 C705 1.377 . S
C721 C719 1.389 . S
C721 C722 1.524 . S
C722 C721 1.524 . S
C722 C723 1.397 . S
C722 C727 1.363 . S
C723 H694 0.950 . S
C723 C722 1.397 . S
C723 C724 1.334 . S
C724 H695 0.950 . S
C724 C723 1.334 . S
C724 C725 1.287 . S
C725 C724 1.287 . S
C725 C726 1.524 . S
C725 H728 0.999 . S
C726 H696 0.950 . S
C726 C725 1.524 . S
C726 C727 1.415 . S
C727 H697 0.950 . S
C727 C722 1.363 . S
C727 C726 1.415 . S
H728 C725 0.999 . S
H729 C710 0.913 . S
H730 C748 0.951 . S
H731 C750 0.951 . S
H732 C752 0.950 . S
H733 C753 0.950 . S
H734 C755 0.950 . S
H735 C758 0.950 . S
H736 C759 0.950 . S
H737 C761 0.950 . S
H738 C762 0.950 . S
H739 C763 0.951 . S
H740 C765 0.951 . S
H741 C767 0.950 . S
H742 C768 0.950 . S
H743 C770 0.950 . S
H744 C773 0.950 . S
H745 C774 0.950 . S
H746 C776 0.950 . S
H747 C777 0.950 . S
C748 H730 0.951 . S
C748 C749 1.366 . S
C748 C750 1.388 . S
C749 C748 1.366 . S
C749 C753 1.385 . S
C750 H731 0.951 . S
C750 C748 1.388 . S
C750 C751 1.366 . S
C751 C750 1.366 . S
C751 C752 1.414 . S
C751 C754 1.499 . S
C752 H732 0.950 . S
C752 C751 1.414 . S
C752 C753 1.374 . S
C753 H733 0.950 . S
C753 C749 1.385 . S
C753 C752 1.374 . S
C754 C751 1.499 . S
C754 C755 1.373 . S
C754 C756 1.389 . S
C755 H734 0.950 . S
C755 C754 1.373 . S
C755 C771 1.377 . S
C756 C754 1.389 . S
C756 C757 1.524 . S
C756 C770 1.377 . S
C757 C756 1.524 . S
C757 C758 1.397 . S
C757 C762 1.363 . S
C758 H735 0.950 . S
C758 C757 1.397 . S
C758 C759 1.334 . S
C759 H736 0.950 . S
C759 C758 1.334 . S
C759 C760 1.287 . S
C760 C759 1.287 . S
C760 C761 1.524 . S
C760 H779 0.913 . S
C761 H737 0.950 . S
C761 C760 1.524 . S
C761 C762 1.415 . S
C762 H738 0.950 . S
C762 C757 1.363 . S
C762 C761 1.415 . S
C763 H739 0.951 . S
C763 C764 1.366 . S
C763 C765 1.388 . S
C764 C763 1.366 . S
C764 C768 1.385 . S
C765 H740 0.951 . S
C765 C763 1.388 . S
C765 C766 1.366 . S
C766 C765 1.366 . S
C766 C767 1.414 . S
C766 C769 1.499 . S
C767 H741 0.950 . S
C767 C766 1.414 . S
C767 C768 1.374 . S
C768 H742 0.950 . S
C768 C764 1.385 . S
C768 C767 1.374 . S
C769 C766 1.499 . S
C769 C770 1.373 . S
C769 C771 1.389 . S
C770 H743 0.950 . S
C770 C756 1.377 . S
C770 C769 1.373 . S
C771 C755 1.377 . S
C771 C769 1.389 . S
C771 C772 1.524 . S
C772 C771 1.524 . S
C772 C773 1.397 . S
C772 C777 1.363 . S
C773 H744 0.950 . S
C773 C772 1.397 . S
C773 C774 1.334 . S
C774 H745 0.950 . S
C774 C773 1.334 . S
C774 C775 1.287 . S
C775 C774 1.287 . S
C775 C776 1.524 . S
C775 H778 0.999 . S
C776 H746 0.950 . S
C776 C775 1.524 . S
C776 C777 1.415 . S
C777 H747 0.950 . S
C777 C772 1.363 . S
C777 C776 1.415 . S
H778 C775 0.999 . S
H779 C760 0.913 . S
H780 C798 0.951 . S
H781 C800 0.951 . S
H782 C802 0.950 . S
H783 C803 0.950 . S
H784 C805 0.950 . S
H785 C808 0.950 . S
H786 C809 0.950 . S
H787 C811 0.950 . S
H788 C812 0.950 . S
H789 C813 0.951 . S
H790 C815 0.951 . S
H791 C817 0.950 . S
H792 C818 0.950 . S
H793 C820 0.950 . S
H794 C823 0.950 . S
H795 C824 0.950 . S
H796 C826 0.950 . S
H797 C827 0.950 . S
C798 H780 0.951 . S
C798 C799 1.366 . S
C798 C800 1.388 . S
C799 C798 1.366 . S
C799 C803 1.385 . S
C800 H781 0.951 . S
C800 C798 1.388 . S
C800 C801 1.366 . S
C801 C800 1.366 . S
C801 C802 1.414 . S
C801 C804 1.499 . S
C802 H782 0.950 . S
C802 C801 1.414 . S
C802 C803 1.374 . S
C803 H783 0.950 . S
C803 C799 1.385 . S
C803 C802 1.374 . S
C804 C801 1.499 . S
C804 C805 1.373 . S
C804 C806 1.389 . S
C805 H784 0.950 . S
C805 C804 1.373 . S
C805 C821 1.377 . S
C806 C804 1.389 . S
C806 C807 1.524 . S
C806 C820 1.377 . S
C807 C806 1.524 . S
C807 C808 1.397 . S
C807 C812 1.363 . S
C808 H785 0.950 . S
C808 C807 1.397 . S
C808 C809 1.334 . S
C809 H786 0.950 . S
C809 C808 1.334 . S
C809 C810 1.287 . S
C810 C809 1.287 . S
C810 C811 1.524 . S
C810 H829 0.913 . S
C811 H787 0.950 . S
C811 C810 1.524 . S
C811 C812 1.415 . S
C812 H788 0.950 . S
C812 C807 1.363 . S
C812 C811 1.415 . S
C813 H789 0.951 . S
C813 C814 1.366 . S
C813 C815 1.388 . S
C814 C813 1.366 . S
C814 C818 1.385 . S
C815 H790 0.951 . S
C815 C813 1.388 . S
C815 C816 1.366 . S
C816 C815 1.366 . S
C816 C817 1.414 . S
C816 C819 1.499 . S
C817 H791 0.950 . S
C817 C816 1.414 . S
C817 C818 1.374 . S
C818 H792 0.950 . S
C818 C814 1.385 . S
C818 C817 1.374 . S
C819 C816 1.499 . S
C819 C820 1.373 . S
C819 C821 1.389 . S
C820 H793 0.950 . S
C820 C806 1.377 . S
C820 C819 1.373 . S
C821 C805 1.377 . S
C821 C819 1.389 . S
C821 C822 1.524 . S
C822 C821 1.524 . S
C822 C823 1.397 . S
C822 C827 1.363 . S
C823 H794 0.950 . S
C823 C822 1.397 . S
C823 C824 1.334 . S
C824 H795 0.950 . S
C824 C823 1.334 . S
C824 C825 1.287 . S
C825 C824 1.287 . S
C825 C826 1.524 . S
C825 H828 0.999 . S
C826 H796 0.950 . S
C826 C825 1.524 . S
C826 C827 1.415 . S
C827 H797 0.950 . S
C827 C822 1.363 . S
C827 C826 1.415 . S
H828 C825 0.999 . S
H829 C810 0.913 . S
H830 C848 0.951 . S
H831 C850 0.951 . S
H832 C852 0.950 . S
H833 C853 0.950 . S
H834 C855 0.950 . S
H835 C858 0.950 . S
H836 C859 0.950 . S
H837 C861 0.950 . S
H838 C862 0.950 . S
H839 C863 0.951 . S
H840 C865 0.951 . S
H841 C867 0.950 . S
H842 C868 0.950 . S
H843 C870 0.950 . S
H844 C873 0.950 . S
H845 C874 0.950 . S
H846 C876 0.950 . S
H847 C877 0.950 . S
C848 H830 0.951 . S
C848 C849 1.366 . S
C848 C850 1.388 . S
C849 C848 1.366 . S
C849 C853 1.385 . S
C850 H831 0.951 . S
C850 C848 1.388 . S
C850 C851 1.366 . S
C851 C850 1.366 . S
C851 C852 1.414 . S
C851 C854 1.499 . S
C852 H832 0.950 . S
C852 C851 1.414 . S
C852 C853 1.374 . S
C853 H833 0.950 . S
C853 C849 1.385 . S
C853 C852 1.374 . S
C854 C851 1.499 . S
C854 C855 1.373 . S
C854 C856 1.389 . S
C855 H834 0.950 . S
C855 C854 1.373 . S
C855 C871 1.377 . S
C856 C854 1.389 . S
C856 C857 1.524 . S
C856 C870 1.377 . S
C857 C856 1.524 . S
C857 C858 1.397 . S
C857 C862 1.363 . S
C858 H835 0.950 . S
C858 C857 1.397 . S
C858 C859 1.334 . S
C859 H836 0.950 . S
C859 C858 1.334 . S
C859 C860 1.287 . S
C860 C859 1.287 . S
C860 C861 1.524 . S
C860 H879 0.913 . S
C861 H837 0.950 . S
C861 C860 1.524 . S
C861 C862 1.415 . S
C862 H838 0.950 . S
C862 C857 1.363 . S
C862 C861 1.415 . S
C863 H839 0.951 . S
C863 C864 1.366 . S
C863 C865 1.388 . S
C864 C863 1.366 . S
C864 C868 1.385 . S
C865 H840 0.951 . S
C865 C863 1.388 . S
C865 C866 1.366 . S
C866 C865 1.366 . S
C866 C867 1.414 . S
C866 C869 1.499 . S
C867 H841 0.950 . S
C867 C866 1.414 . S
C867 C868 1.374 . S
C868 H842 0.950 . S
C868 C864 1.385 . S
C868 C867 1.374 . S
C869 C866 1.499 . S
C869 C870 1.373 . S
C869 C871 1.389 . S
C870 H843 0.950 . S
C870 C856 1.377 . S
C870 C869 1.373 . S
C871 C855 1.377 . S
C871 C869 1.389 . S
C871 C872 1.524 . S
C872 C871 1.524 . S
C872 C873 1.397 . S
C872 C877 1.363 . S
C873 H844 0.950 . S
C873 C872 1.397 . S
C873 C874 1.334 . S
C874 H845 0.950 . S
C874 C873 1.334 . S
C874 C875 1.287 . S
C875 C874 1.287 . S
C875 C876 1.524 . S
C875 H878 0.999 . S
C876 H846 0.950 . S
C876 C875 1.524 . S
C876 C877 1.415 . S
C877 H847 0.950 . S
C877 C872 1.363 . S
C877 C876 1.415 . S
H878 C875 0.999 . S
H879 C860 0.913 . S
H880 C898 0.951 . S
H881 C900 0.951 . S
H882 C902 0.950 . S
H883 C903 0.950 . S
H884 C905 0.950 . S
H885 C908 0.950 . S
H886 C909 0.950 . S
H887 C911 0.950 . S
H888 C912 0.950 . S
H889 C913 0.951 . S
H890 C915 0.951 . S
H891 C917 0.950 . S
H892 C918 0.950 . S
H893 C920 0.950 . S
H894 C923 0.950 . S
H895 C924 0.950 . S
H896 C926 0.950 . S
H897 C927 0.950 . S
C898 H880 0.951 . S
C898 C899 1.366 . S
C898 C900 1.388 . S
C899 C898 1.366 . S
C899 C903 1.385 . S
C900 H881 0.951 . S
C900 C898 1.388 . S
C900 C901 1.366 . S
C901 C900 1.366 . S
C901 C902 1.414 . S
C901 C904 1.499 . S
C902 H882 0.950 . S
C902 C901 1.414 . S
C902 C903 1.374 . S
C903 H883 0.950 . S
C903 C899 1.385 . S
C903 C902 1.374 . S
C904 C901 1.499 . S
C904 C905 1.373 . S
C904 C906 1.389 . S
C905 H884 0.950 . S
C905 C904 1.373 . S
C905 C921 1.377 . S
C906 C904 1.389 . S
C906 C907 1.524 . S
C906 C920 1.377 . S
C907 C906 1.524 . S
C907 C908 1.397 . S
C907 C912 1.363 . S
C908 H885 0.950 . S
C908 C907 1.397 . S
C908 C909 1.334 . S
C909 H886 0.950 . S
C909 C908 1.334 . S
C909 C910 1.287 . S
C910 C909 1.287 . S
C910 C911 1.524 . S
C910 H929 0.913 . S
C911 H887 0.950 . S
C911 C910 1.524 . S
C911 C912 1.415 . S
C912 H888 0.950 . S
C912 C907 1.363 . S
C912 C911 1.415 . S
C913 H889 0.951 . S
C913 C914 1.366 . S
C913 C915 1.388 . S
C914 C913 1.366 . S
C914 C918 1.385 . S
C915 H890 0.951 . S
C915 C913 1.388 . S
C915 C916 1.366 . S
C916 C915 1.366 . S
C916 C917 1.414 . S
C916 C919 1.499 . S
C917 H891 0.950 . S
C917 C916 1.414 . S
C917 C918 1.374 . S
C918 H892 0.950 . S
C918 C914 1.385 . S
C918 C917 1.374 . S
C919 C916 1.499 . S
C919 C920 1.373 . S
C919 C921 1.389 . S
C920 H893 0.950 . S
C920 C906 1.377 . S
C920 C919 1.373 . S
C921 C905 1.377 . S
C921 C919 1.389 . S
C921 C922 1.524 . S
C922 C921 1.524 . S
C922 C923 1.397 . S
C922 C927 1.363 . S
C923 H894 0.950 . S
C923 C922 1.397 . S
C923 C924 1.334 . S
C924 H895 0.950 . S
C924 C923 1.334 . S
C924 C925 1.287 . S
C925 C924 1.287 . S
C925 C926 1.524 . S
C925 H928 0.999 . S
C926 H896 0.950 . S
C926 C925 1.524 . S
C926 C927 1.415 . S
C927 H897 0.950 . S
C927 C922 1.363 . S
C927 C926 1.415 . S
H928 C925 0.999 . S
H929 C910 0.913 . S
H930 C948 0.951 . S
H931 C950 0.951 . S
H932 C952 0.950 . S
H933 C953 0.950 . S
H934 C955 0.950 . S
H935 C958 0.950 . S
H936 C959 0.950 . S
H937 C961 0.950 . S
H938 C962 0.950 . S
H939 C963 0.951 . S
H940 C965 0.951 . S
H941 C967 0.950 . S
H942 C968 0.950 . S
H943 C970 0.950 . S
H944 C973 0.950 . S
H945 C974 0.950 . S
H946 C976 0.950 . S
H947 C977 0.950 . S
C948 H930 0.951 . S
C948 C949 1.366 . S
C948 C950 1.388 . S
C949 C948 1.366 . S
C949 C953 1.385 . S
C950 H931 0.951 . S
C950 C948 1.388 . S
C950 C951 1.366 . S
C951 C950 1.366 . S
C951 C952 1.414 . S
C951 C954 1.499 . S
C952 H932 0.950 . S
C952 C951 1.414 . S
C952 C953 1.374 . S
C953 H933 0.950 . S
C953 C949 1.385 . S
C953 C952 1.374 . S
C954 C951 1.499 . S
C954 C955 1.373 . S
C954 C956 1.389 . S
C955 H934 0.950 . S
C955 C954 1.373 . S
C955 C971 1.377 . S
C956 C954 1.389 . S
C956 C957 1.524 . S
C956 C970 1.377 . S
C957 C956 1.524 . S
C957 C958 1.397 . S
C957 C962 1.363 . S
C958 H935 0.950 . S
C958 C957 1.397 . S
C958 C959 1.334 . S
C959 H936 0.950 . S
C959 C958 1.334 . S
C959 C960 1.287 . S
C960 C959 1.287 . S
C960 C961 1.524 . S
C960 H979 0.913 . S
C961 H937 0.950 . S
C961 C960 1.524 . S
C961 C962 1.415 . S
C962 H938 0.950 . S
C962 C957 1.363 . S
C962 C961 1.415 . S
C963 H939 0.951 . S
C963 C964 1.366 . S
C963 C965 1.388 . S
C964 C963 1.366 . S
C964 C968 1.385 . S
C965 H940 0.951 . S
C965 C963 1.388 . S
C965 C966 1.366 . S
C966 C965 1.366 . S
C966 C967 1.414 . S
C966 C969 1.499 . S
C967 H941 0.950 . S
C967 C966 1.414 . S
C967 C968 1.374 . S
C968 H942 0.950 . S
C968 C964 1.385 . S
C968 C967 1.374 . S
C969 C966 1.499 . S
C969 C970 1.373 . S
C969 C971 1.389 . S
C970 H943 0.950 . S
C970 C956 1.377 . S
C970 C969 1.373 . S
C971 C955 1.377 . S
C971 C969 1.389 . S
C971 C972 1.524 . S
C972 C971 1.524 . S
C972 C973 1.397 . S
C972 C977 1.363 . S
C973 H944 0.950 . S
C973 C972 1.397 . S
C973 C974 1.334 . S
C974 H945 0.950 . S
C974 C973 1.334 . S
C974 C975 1.287 . S
C975 C974 1.287 . S
C975 C976 1.524 . S
C975 H978 0.999 . S
C976 H946 0.950 . S
C976 C975 1.524 . S
C976 C977 1.415 . S
C977 H947 0.950 . S
C977 C972 1.363 . S
C977 C976 1.415 . S
H978 C975 0.999 . S
H979 C960 0.913 . S
H980 C998 0.951 . S
H981 C1000 0.951 . S
H982 C1002 0.950 . S
H983 C1003 0.950 . S
H984 C1005 0.950 . S
H985 C1008 0.950 . S
H986 C1009 0.950 . S
H987 C1011 0.950 . S
H988 C1012 0.950 . S
H989 C1013 0.951 . S
H990 C1015 0.951 . S
H991 C1017 0.950 . S
H992 C1018 0.950 . S
H993 C1020 0.950 . S
H994 C1023 0.950 . S
H995 C1024 0.950 . S
H996 C1026 0.950 . S
H997 C1027 0.950 . S
C998 H980 0.951 . S
C998 C999 1.366 . S
C998 C1000 1.388 . S
C999 C998 1.366 . S
C999 C1003 1.385 . S
C1000 H981 0.951 . S
C1000 C998 1.388 . S
C1000 C1001 1.366 . S
C1001 C1000 1.366 . S
C1001 C1002 1.414 . S
C1001 C1004 1.499 . S
C1002 H982 0.950 . S
C1002 C1001 1.414 . S
C1002 C1003 1.374 . S
C1003 H983 0.950 . S
C1003 C999 1.385 . S
C1003 C1002 1.374 . S
C1004 C1001 1.499 . S
C1004 C1005 1.373 . S
C1004 C1006 1.389 . S
C1005 H984 0.950 . S
C1005 C1004 1.373 . S
C1005 C1021 1.377 . S
C1006 C1004 1.389 . S
C1006 C1007 1.524 . S
C1006 C1020 1.377 . S
C1007 C1006 1.524 . S
C1007 C1008 1.397 . S
C1007 C1012 1.363 . S
C1008 H985 0.950 . S
C1008 C1007 1.397 . S
C1008 C1009 1.334 . S
C1009 H986 0.950 . S
C1009 C1008 1.334 . S
C1009 C1010 1.287 . S
C1010 C1009 1.287 . S
C1010 C1011 1.524 . S
C1010 H1029 0.913 . S
C1011 H987 0.950 . S
C1011 C1010 1.524 . S
C1011 C1012 1.415 . S
C1012 H988 0.950 . S
C1012 C1007 1.363 . S
C1012 C1011 1.415 . S
C1013 H989 0.951 . S
C1013 C1014 1.366 . S
C1013 C1015 1.388 . S
C1014 C1013 1.366 . S
C1014 C1018 1.385 . S
C1015 H990 0.951 . S
C1015 C1013 1.388 . S
C1015 C1016 1.366 . S
C1016 C1015 1.366 . S
C1016 C1017 1.414 . S
C1016 C1019 1.499 . S
C1017 H991 0.950 . S
C1017 C1016 1.414 . S
C1017 C1018 1.374 . S
C1018 H992 0.950 . S
C1018 C1014 1.385 . S
C1018 C1017 1.374 . S
C1019 C1016 1.499 . S
C1019 C1020 1.373 . S
C1019 C1021 1.389 . S
C1020 H993 0.950 . S
C1020 C1006 1.377 . S
C1020 C1019 1.373 . S
C1021 C1005 1.377 . S
C1021 C1019 1.389 . S
C1021 C1022 1.524 . S
C1022 C1021 1.524 . S
C1022 C1023 1.397 . S
C1022 C1027 1.363 . S
C1023 H994 0.950 . S
C1023 C1022 1.397 . S
C1023 C1024 1.334 . S
C1024 H995 0.950 . S
C1024 C1023 1.334 . S
C1024 C1025 1.287 . S
C1025 C1024 1.287 . S
C1025 C1026 1.524 . S
C1025 H1028 0.999 . S
C1026 H996 0.950 . S
C1026 C1025 1.524 . S
C1026 C1027 1.415 . S
C1027 H997 0.950 . S
C1027 C1022 1.363 . S
C1027 C1026 1.415 . S
H1028 C1025 0.999 . S
H1029 C1010 0.913 . S
H1030 C1048 0.951 . S
H1031 C1050 0.951 . S
H1032 C1052 0.950 . S
H1033 C1053 0.950 . S
H1034 C1055 0.950 . S
H1035 C1058 0.950 . S
H1036 C1059 0.950 . S
H1037 C1061 0.950 . S
H1038 C1062 0.950 . S
H1039 C1063 0.951 . S
H1040 C1065 0.951 . S
H1041 C1067 0.950 . S
H1042 C1068 0.950 . S
H1043 C1070 0.950 . S
H1044 C1073 0.950 . S
H1045 C1074 0.950 . S
H1046 C1076 0.950 . S
H1047 C1077 0.950 . S
C1048 H1030 0.951 . S
C1048 C1049 1.366 . S
C1048 C1050 1.388 . S
C1049 C1048 1.366 . S
C1049 C1053 1.385 . S
C1050 H1031 0.951 . S
C1050 C1048 1.388 . S
C1050 C1051 1.366 . S
C1051 C1050 1.366 . S
C1051 C1052 1.414 . S
C1051 C1054 1.499 . S
C1052 H1032 0.950 . S
C1052 C1051 1.414 . S
C1052 C1053 1.374 . S
C1053 H1033 0.950 . S
C1053 C1049 1.385 . S
C1053 C1052 1.374 . S
C1054 C1051 1.499 . S
C1054 C1055 1.373 . S
C1054 C1056 1.389 . S
C1055 H1034 0.950 . S
C1055 C1054 1.373 . S
C1055 C1071 1.377 . S
C1056 C1054 1.389 . S
C1056 C1057 1.524 . S
C1056 C1070 1.377 . S
C1057 C1056 1.524 . S
C1057 C1058 1.397 . S
C1057 C1062 1.363 . S
C1058 H1035 0.950 . S
C1058 C1057 1.397 . S
C1058 C1059 1.334 . S
C1059 H1036 0.950 . S
C1059 C1058 1.334 . S
C1059 C1060 1.287 . S
C1060 C1059 1.287 . S
C1060 C1061 1.524 . S
C1060 H1079 0.913 . S
C1061 H1037 0.950 . S
C1061 C1060 1.524 . S
C1061 C1062 1.415 . S
C1062 H1038 0.950 . S
C1062 C1057 1.363 . S
C1062 C1061 1.415 . S
C1063 H1039 0.951 . S
C1063 C1064 1.366 . S
C1063 C1065 1.388 . S
C1064 C1063 1.366 . S
C1064 C1068 1.385 . S
C1065 H1040 0.951 . S
C1065 C1063 1.388 . S
C1065 C1066 1.366 . S
C1066 C1065 1.366 . S
C1066 C1067 1.414 . S
C1066 C1069 1.499 . S
C1067 H1041 0.950 . S
C1067 C1066 1.414 . S
C1067 C1068 1.374 . S
C1068 H1042 0.950 . S
C1068 C1064 1.385 . S
C1068 C1067 1.374 . S
C1069 C1066 1.499 . S
C1069 C1070 1.373 . S
C1069 C1071 1.389 . S
C1070 H1043 0.950 . S
C1070 C1056 1.377 . S
C1070 C1069 1.373 . S
C1071 C1055 1.377 . S
C1071 C1069 1.389 . S
C1071 C1072 1.524 . S
C1072 C1071 1.524 . S
C1072 C1073 1.397 . S
C1072 C1077 1.363 . S
C1073 H1044 0.950 . S
C1073 C1072 1.397 . S
C1073 C1074 1.334 . S
C1074 H1045 0.950 . S
C1074 C1073 1.334 . S
C1074 C1075 1.287 . S
C1075 C1074 1.287 . S
C1075 C1076 1.524 . S
C1075 H1078 0.999 . S
C1076 H1046 0.950 . S
C1076 C1075 1.524 . S
C1076 C1077 1.415 . S
C1077 H1047 0.950 . S
C1077 C1072 1.363 . S
C1077 C1076 1.415 . S
H1078 C1075 0.999 . S
H1079 C1060 0.913 . S
H1080 C1098 0.951 . S
H1081 C1100 0.951 . S
H1082 C1102 0.950 . S
H1083 C1103 0.950 . S
H1084 C1105 0.950 1_655 S
H1085 C1108 0.950 . S
H1086 C1109 0.950 . S
H1087 C1111 0.950 . S
H1088 C1112 0.950 . S
H1089 C1113 0.951 . S
H1090 C1115 0.951 . S
H1091 C1117 0.950 . S
H1092 C1118 0.950 . S
H1093 C1120 0.950 . S
H1094 C1123 0.950 . S
H1095 C1124 0.950 . S
H1096 C1126 0.950 . S
H1097 C1127 0.950 . S
C1098 H1080 0.951 . S
C1098 C1099 1.366 . S
C1098 C1100 1.388 . S
C1099 C1098 1.366 . S
C1099 C1103 1.385 . S
C1100 H1081 0.951 . S
C1100 C1098 1.388 . S
C1100 C1101 1.366 . S
C1101 C1100 1.366 . S
C1101 C1102 1.414 . S
C1101 C1104 1.499 . S
C1102 H1082 0.950 . S
C1102 C1101 1.414 . S
C1102 C1103 1.374 . S
C1103 H1083 0.950 . S
C1103 C1099 1.385 . S
C1103 C1102 1.374 . S
C1104 C1101 1.499 . S
C1104 C1105 1.373 . S
C1104 C1106 1.389 . S
C1105 H1084 0.950 1_455 S
C1105 C1104 1.373 . S
C1105 C1121 1.377 . S
C1106 C1104 1.389 . S
C1106 C1107 1.524 . S
C1106 C1120 1.377 . S
C1107 C1106 1.524 . S
C1107 C1108 1.397 . S
C1107 C1112 1.363 . S
C1108 H1085 0.950 . S
C1108 C1107 1.397 . S
C1108 C1109 1.334 . S
C1109 H1086 0.950 . S
C1109 C1108 1.334 . S
C1109 C1110 1.287 . S
C1110 C1109 1.287 . S
C1110 C1111 1.524 . S
C1110 H1129 0.913 . S
C1111 H1087 0.950 . S
C1111 C1110 1.524 . S
C1111 C1112 1.415 . S
C1112 H1088 0.950 . S
C1112 C1107 1.363 . S
C1112 C1111 1.415 . S
C1113 H1089 0.951 . S
C1113 C1114 1.366 . S
C1113 C1115 1.388 1_556 S
C1114 C1113 1.366 . S
C1114 C1118 1.385 . S
C1115 H1090 0.951 . S
C1115 C1113 1.388 1_554 S
C1115 C1116 1.366 . S
C1116 C1115 1.366 . S
C1116 C1117 1.414 . S
C1116 C1119 1.499 . S
C1117 H1091 0.950 . S
C1117 C1116 1.414 . S
C1117 C1118 1.374 1_554 S
C1118 H1092 0.950 . S
C1118 C1114 1.385 . S
C1118 C1117 1.374 1_556 S
C1119 C1116 1.499 . S
C1119 C1120 1.373 . S
C1119 C1121 1.389 . S
C1120 H1093 0.950 . S
C1120 C1106 1.377 . S
C1120 C1119 1.373 . S
C1121 C1105 1.377 . S
C1121 C1119 1.389 . S
C1121 C1122 1.524 1_455 S
C1122 C1121 1.524 1_655 S
C1122 C1123 1.397 . S
C1122 C1127 1.363 . S
C1123 H1094 0.950 . S
C1123 C1122 1.397 . S
C1123 C1124 1.334 . S
C1124 H1095 0.950 . S
C1124 C1123 1.334 . S
C1124 C1125 1.287 . S
C1125 C1124 1.287 . S
C1125 C1126 1.524 . S
C1125 H1128 0.999 . S
C1126 H1096 0.950 . S
C1126 C1125 1.524 . S
C1126 C1127 1.415 . S
C1127 H1097 0.950 . S
C1127 C1122 1.363 . S
C1127 C1126 1.415 . S
H1128 C1125 0.999 . S
H1129 C1110 0.913 . S
H1130 C1148 0.951 . S
H1131 C1150 0.951 . S
H1132 C1152 0.950 . S
H1133 C1153 0.950 . S
H1134 C1155 0.950 . S
H1135 C1158 0.950 . S
H1136 C1159 0.950 . S
H1137 C1161 0.950 . S
H1138 C1162 0.950 . S
H1139 C1163 0.937 1_565 S
H1140 C1165 0.963 . S
H1141 C1167 0.950 . S
H1142 C1168 0.950 . S
H1143 C1170 0.950 . S
H1144 C1173 0.950 . S
H1145 C1174 0.950 . S
H1146 C1176 0.950 . S
H1147 C1177 0.950 . S
C1148 H1130 0.951 . S
C1148 C1149 1.366 . S
C1148 C1150 1.388 . S
C1149 C1148 1.366 . S
C1149 C1153 1.385 1_545 S
C1150 H1131 0.951 . S
C1150 C1148 1.388 . S
C1150 C1151 1.366 . S
C1151 C1150 1.366 . S
C1151 C1152 1.414 1_545 S
C1151 C1154 1.499 . S
C1152 H1132 0.950 . S
C1152 C1151 1.414 1_565 S
C1152 C1153 1.374 . S
C1153 H1133 0.950 . S
C1153 C1149 1.385 1_565 S
C1153 C1152 1.374 . S
C1154 C1151 1.499 . S
C1154 C1155 1.373 . S
C1154 C1156 1.389 . S
C1155 H1134 0.950 . S
C1155 C1154 1.373 . S
C1155 C1171 1.377 . S
C1156 C1154 1.389 . S
C1156 C1157 1.524 . S
C1156 C1170 1.377 . S
C1157 C1156 1.524 . S
C1157 C1158 1.397 1_545 S
C1157 C1162 1.363 . S
C1158 H1135 0.950 . S
C1158 C1157 1.397 1_565 S
C1158 C1159 1.334 . S
C1159 H1136 0.950 . S
C1159 C1158 1.334 . S
C1159 C1160 1.287 1_565 S
C1160 C1159 1.287 1_545 S
C1160 C1161 1.524 . S
C1160 H1179 0.913 . S
C1161 H1137 0.950 . S
C1161 C1160 1.524 . S
C1161 C1162 1.415 . S
C1162 H1138 0.950 . S
C1162 C1157 1.363 . S
C1162 C1161 1.415 . S
C1163 H1139 0.937 1_545 S
C1163 C1164 1.381 . S
C1163 C1165 1.386 1_545 S
C1164 C1163 1.381 . S
C1164 C1168 1.385 . S
C1165 H1140 0.963 . S
C1165 C1163 1.386 1_565 S
C1165 C1166 1.354 1_565 S
C1166 C1165 1.354 1_545 S
C1166 C1167 1.414 . S
C1166 C1169 1.499 . S
C1167 H1141 0.950 . S
C1167 C1166 1.414 . S
C1167 C1168 1.374 . S
C1168 H1142 0.950 . S
C1168 C1164 1.385 . S
C1168 C1167 1.374 . S
C1169 C1166 1.499 . S
C1169 C1170 1.373 . S
C1169 C1171 1.389 . S
C1170 H1143 0.950 . S
C1170 C1156 1.377 . S
C1170 C1169 1.373 . S
C1171 C1155 1.377 . S
C1171 C1169 1.389 . S
C1171 C1172 1.524 . S
C1172 C1171 1.524 . S
C1172 C1173 1.397 . S
C1172 C1177 1.363 1_545 S
C1173 H1144 0.950 . S
C1173 C1172 1.397 . S
C1173 C1174 1.334 . S
C1174 H1145 0.950 . S
C1174 C1173 1.334 . S
C1174 C1175 1.287 . S
C1175 C1174 1.287 . S
C1175 C1176 1.524 1_545 S
C1175 H1178 0.999 . S
C1176 H1146 0.950 . S
C1176 C1175 1.524 1_565 S
C1176 C1177 1.415 . S
C1177 H1147 0.950 . S
C1177 C1172 1.363 1_565 S
C1177 C1176 1.415 . S
H1178 C1175 0.999 . S
H1179 C1160 0.913 . S
H1180 C1198 0.951 . S
H1181 C1200 0.951 . S
H1182 C1202 0.950 . S
H1183 C1203 0.950 . S
H1184 C1205 0.950 . S
H1185 C1208 0.950 . S
H1186 C1209 0.950 . S
H1187 C1211 0.950 . S
H1188 C1212 0.950 . S
H1189 C1213 0.951 . S
H1190 C1215 0.951 . S
H1191 C1217 0.950 . S
H1192 C1218 0.950 . S
H1193 C1220 0.950 . S
H1194 C1223 0.950 . S
H1195 C1224 0.950 . S
H1196 C1226 0.950 . S
H1197 C1227 0.950 . S
C1198 H1180 0.951 . S
C1198 C1199 1.366 . S
C1198 C1200 1.388 . S
C1199 C1198 1.366 . S
C1199 C1203 1.385 . S
C1200 H1181 0.951 . S
C1200 C1198 1.388 . S
C1200 C1201 1.366 . S
C1201 C1200 1.366 . S
C1201 C1202 1.414 . S
C1201 C1204 1.499 . S
C1202 H1182 0.950 . S
C1202 C1201 1.414 . S
C1202 C1203 1.374 . S
C1203 H1183 0.950 . S
C1203 C1199 1.385 . S
C1203 C1202 1.374 . S
C1204 C1201 1.499 . S
C1204 C1205 1.373 . S
C1204 C1206 1.389 . S
C1205 H1184 0.950 . S
C1205 C1204 1.373 . S
C1205 C1221 1.377 . S
C1206 C1204 1.389 . S
C1206 C1207 1.524 . S
C1206 C1220 1.377 . S
C1207 C1206 1.524 . S
C1207 C1208 1.397 . S
C1207 C1212 1.363 . S
C1208 H1185 0.950 . S
C1208 C1207 1.397 . S
C1208 C1209 1.334 . S
C1209 H1186 0.950 . S
C1209 C1208 1.334 . S
C1209 C1210 1.287 . S
C1210 C1209 1.287 . S
C1210 C1211 1.524 . S
C1210 H1229 0.913 . S
C1211 H1187 0.950 . S
C1211 C1210 1.524 . S
C1211 C1212 1.415 . S
C1212 H1188 0.950 . S
C1212 C1207 1.363 . S
C1212 C1211 1.415 . S
C1213 H1189 0.951 . S
C1213 C1214 1.366 . S
C1213 C1215 1.388 . S
C1214 C1213 1.366 . S
C1214 C1218 1.385 . S
C1215 H1190 0.951 . S
C1215 C1213 1.388 . S
C1215 C1216 1.366 . S
C1216 C1215 1.366 . S
C1216 C1217 1.414 . S
C1216 C1219 1.499 . S
C1217 H1191 0.950 . S
C1217 C1216 1.414 . S
C1217 C1218 1.374 . S
C1218 H1192 0.950 . S
C1218 C1214 1.385 . S
C1218 C1217 1.374 . S
C1219 C1216 1.499 . S
C1219 C1220 1.373 . S
C1219 C1221 1.389 . S
C1220 H1193 0.950 . S
C1220 C1206 1.377 . S
C1220 C1219 1.373 . S
C1221 C1205 1.377 . S
C1221 C1219 1.389 . S
C1221 C1222 1.524 . S
C1222 C1221 1.524 . S
C1222 C1223 1.397 . S
C1222 C1227 1.363 . S
C1223 H1194 0.950 . S
C1223 C1222 1.397 . S
C1223 C1224 1.334 . S
C1224 H1195 0.950 . S
C1224 C1223 1.334 . S
C1224 C1225 1.287 . S
C1225 C1224 1.287 . S
C1225 C1226 1.524 . S
C1225 H1228 0.999 . S
C1226 H1196 0.950 . S
C1226 C1225 1.524 . S
C1226 C1227 1.415 . S
C1227 H1197 0.950 . S
C1227 C1222 1.363 . S
C1227 C1226 1.415 . S
H1228 C1225 0.999 . S
H1229 C1210 0.913 . S
H1230 C1248 0.951 . S
H1231 C1250 0.951 . S
H1232 C1252 0.950 . S
H1233 C1253 0.950 . S
H1234 C1255 0.950 . S
H1235 C1258 0.950 . S
H1236 C1259 0.950 . S
H1237 C1261 0.950 . S
H1238 C1262 0.950 . S
H1239 C1263 0.951 . S
H1240 C1265 0.951 . S
H1241 C1267 0.950 . S
H1242 C1268 0.950 . S
H1243 C1270 0.950 . S
H1244 C1273 0.950 . S
H1245 C1274 0.950 . S
H1246 C1276 0.950 . S
H1247 C1277 0.950 . S
C1248 H1230 0.951 . S
C1248 C1249 1.366 1_565 S
C1248 C1250 1.388 . S
C1249 C1248 1.366 1_545 S
C1249 C1253 1.385 . S
C1250 H1231 0.951 . S
C1250 C1248 1.388 . S
C1250 C1251 1.366 1_565 S
C1251 C1250 1.366 1_545 S
C1251 C1252 1.414 . S
C1251 C1254 1.499 . S
C1252 H1232 0.950 . S
C1252 C1251 1.414 . S
C1252 C1253 1.374 . S
C1253 H1233 0.950 . S
C1253 C1249 1.385 . S
C1253 C1252 1.374 . S
C1254 C1251 1.499 . S
C1254 C1255 1.373 1_545 S
C1254 C1256 1.389 . S
C1255 H1234 0.950 . S
C1255 C1254 1.373 1_565 S
C1255 C1271 1.377 . S
C1256 C1254 1.389 . S
C1256 C1257 1.524 . S
C1256 C1270 1.377 . S
C1257 C1256 1.524 . S
C1257 C1258 1.397 . S
C1257 C1262 1.363 . S
C1258 H1235 0.950 . S
C1258 C1257 1.397 . S
C1258 C1259 1.334 . S
C1259 H1236 0.950 . S
C1259 C1258 1.334 . S
C1259 C1260 1.287 . S
C1260 C1259 1.287 . S
C1260 C1261 1.524 . S
C1260 H1279 0.913 . S
C1261 H1237 0.950 . S
C1261 C1260 1.524 . S
C1261 C1262 1.415 . S
C1262 H1238 0.950 . S
C1262 C1257 1.363 . S
C1262 C1261 1.415 . S
C1263 H1239 0.951 . S
C1263 C1264 1.366 1_545 S
C1263 C1265 1.388 . S
C1264 C1263 1.366 1_565 S
C1264 C1268 1.385 . S
C1265 H1240 0.951 . S
C1265 C1263 1.388 . S
C1265 C1266 1.366 1_545 S
C1266 C1265 1.366 1_565 S
C1266 C1267 1.414 . S
C1266 C1269 1.504 . S
C1267 H1241 0.950 . S
C1267 C1266 1.414 . S
C1267 C1268 1.374 . S
C1268 H1242 0.950 . S
C1268 C1264 1.385 . S
C1268 C1267 1.374 . S
C1269 C1266 1.504 . S
C1269 C1270 1.335 1_565 S
C1269 C1271 1.421 . S
C1270 H1243 0.950 . S
C1270 C1256 1.377 . S
C1270 C1269 1.335 1_545 S
C1271 C1255 1.377 . S
C1271 C1269 1.421 . S
C1271 C1272 1.524 . S
C1272 C1271 1.524 . S
C1272 C1273 1.397 . S
C1272 C1277 1.363 . S
C1273 H1244 0.950 . S
C1273 C1272 1.397 . S
C1273 C1274 1.334 . S
C1274 H1245 0.950 . S
C1274 C1273 1.334 . S
C1274 C1275 1.287 . S
C1275 C1274 1.287 . S
C1275 C1276 1.524 . S
C1275 H1278 0.999 . S
C1276 H1246 0.950 . S
C1276 C1275 1.524 . S
C1276 C1277 1.415 . S
C1277 H1247 0.950 . S
C1277 C1272 1.363 . S
C1277 C1276 1.415 . S
H1278 C1275 0.999 . S
H1279 C1260 0.913 . S
H1280 C1298 0.951 . S
H1281 C1300 0.951 . S
H1282 C1302 0.950 . S
H1283 C1303 0.950 . S
H1284 C1305 0.950 . S
H1285 C1308 0.950 . S
H1286 C1309 0.950 . S
H1287 C1311 0.950 . S
H1288 C1312 0.950 . S
H1289 C1313 0.951 . S
H1290 C1315 0.951 . S
H1291 C1317 0.950 . S
H1292 C1318 0.950 . S
H1293 C1320 0.950 . S
H1294 C1323 0.950 . S
H1295 C1324 0.950 1_554 S
H1296 C1326 0.950 . S
H1297 C1327 0.950 . S
C1298 H1280 0.951 . S
C1298 C1299 1.366 . S
C1298 C1300 1.388 . S
C1299 C1298 1.366 . S
C1299 C1303 1.385 . S
C1300 H1281 0.951 . S
C1300 C1298 1.388 . S
C1300 C1301 1.366 . S
C1301 C1300 1.366 . S
C1301 C1302 1.414 . S
C1301 C1304 1.499 . S
C1302 H1282 0.950 . S
C1302 C1301 1.414 . S
C1302 C1303 1.374 . S
C1303 H1283 0.950 . S
C1303 C1299 1.385 . S
C1303 C1302 1.374 . S
C1304 C1301 1.499 . S
C1304 C1305 1.373 . S
C1304 C1306 1.389 . S
C1305 H1284 0.950 . S
C1305 C1304 1.373 . S
C1305 C1321 1.377 . S
C1306 C1304 1.389 . S
C1306 C1307 1.524 . S
C1306 C1320 1.377 . S
C1307 C1306 1.524 . S
C1307 C1308 1.397 . S
C1307 C1312 1.363 . S
C1308 H1285 0.950 . S
C1308 C1307 1.397 . S
C1308 C1309 1.334 . S
C1309 H1286 0.950 . S
C1309 C1308 1.334 . S
C1309 C1310 1.287 . S
C1310 C1309 1.287 . S
C1310 C1311 1.524 . S
C1310 H1329 0.913 . S
C1311 H1287 0.950 . S
C1311 C1310 1.524 . S
C1311 C1312 1.415 . S
C1312 H1288 0.950 . S
C1312 C1307 1.363 . S
C1312 C1311 1.415 . S
C1313 H1289 0.951 . S
C1313 C1314 1.366 . S
C1313 C1315 1.388 1_554 S
C1314 C1313 1.366 . S
C1314 C1318 1.385 . S
C1315 H1290 0.951 . S
C1315 C1313 1.388 1_556 S
C1315 C1316 1.366 . S
C1316 C1315 1.366 . S
C1316 C1317 1.414 . S
C1316 C1319 1.499 . S
C1317 H1291 0.950 . S
C1317 C1316 1.414 . S
C1317 C1318 1.374 1_556 S
C1318 H1292 0.950 . S
C1318 C1314 1.385 . S
C1318 C1317 1.374 1_554 S
C1319 C1316 1.499 . S
C1319 C1320 1.373 . S
C1319 C1321 1.389 . S
C1320 H1293 0.950 . S
C1320 C1306 1.377 . S
C1320 C1319 1.373 . S
C1321 C1305 1.377 . S
C1321 C1319 1.389 . S
C1321 C1322 1.524 . S
C1322 C1321 1.524 . S
C1322 C1323 1.397 . S
C1322 C1327 1.363 . S
C1323 H1294 0.950 . S
C1323 C1322 1.397 . S
C1323 C1324 1.334 . S
C1324 H1295 0.950 1_556 S
C1324 C1323 1.334 . S
C1324 C1325 1.287 . S
C1325 C1324 1.287 . S
C1325 C1326 1.524 . S
C1325 H1328 0.999 . S
C1326 H1296 0.950 . S
C1326 C1325 1.524 . S
C1326 C1327 1.415 . S
C1327 H1297 0.950 . S
C1327 C1322 1.363 . S
C1327 C1326 1.415 . S
H1328 C1325 0.999 . S
H1329 C1310 0.913 . S
H1330 C1348 0.951 . S
H1331 C1350 0.951 . S
H1332 C1352 0.950 . S
H1333 C1353 0.950 . S
H1334 C1355 0.950 . S
H1335 C1358 0.950 . S
H1336 C1359 0.950 . S
H1337 C1361 0.950 . S
H1338 C1362 0.950 . S
H1339 C1363 0.926 . S
H1340 C1365 0.951 . S
H1341 C1367 0.950 . S
H1342 C1368 0.973 1_655 S
H1343 C1370 0.950 . S
H1344 C1373 0.950 . S
H1345 C1374 0.950 . S
H1346 C1376 0.950 . S
H1347 C1377 0.950 . S
C1348 H1330 0.951 . S
C1348 C1349 1.366 . S
C1348 C1350 1.388 . S
C1349 C1348 1.366 . S
C1349 C1353 1.385 . S
C1350 H1331 0.951 . S
C1350 C1348 1.388 . S
C1350 C1351 1.366 . S
C1351 C1350 1.366 . S
C1351 C1352 1.414 . S
C1351 C1354 1.499 . S
C1352 H1332 0.950 . S
C1352 C1351 1.414 . S
C1352 C1353 1.374 . S
C1353 H1333 0.950 . S
C1353 C1349 1.385 . S
C1353 C1352 1.374 . S
C1354 C1351 1.499 . S
C1354 C1355 1.373 . S
C1354 C1356 1.389 1_455 S
C1355 H1334 0.950 . S
C1355 C1354 1.373 . S
C1355 C1371 1.377 . S
C1356 C1354 1.389 1_655 S
C1356 C1357 1.524 . S
C1356 C1370 1.377 . S
C1357 C1356 1.524 . S
C1357 C1358 1.397 . S
C1357 C1362 1.363 . S
C1358 H1335 0.950 . S
C1358 C1357 1.397 . S
C1358 C1359 1.334 . S
C1359 H1336 0.950 . S
C1359 C1358 1.334 . S
C1359 C1360 1.287 . S
C1360 C1359 1.287 . S
C1360 C1361 1.524 . S
C1360 H1379 0.913 . S
C1361 H1337 0.950 . S
C1361 C1360 1.524 . S
C1361 C1362 1.415 . S
C1362 H1338 0.950 . S
C1362 C1357 1.363 . S
C1362 C1361 1.415 . S
C1363 H1339 0.926 . S
C1363 C1364 1.406 1_455 S
C1363 C1365 1.393 . S
C1364 C1363 1.406 1_655 S
C1364 C1368 1.357 1_655 S
C1365 H1340 0.951 . S
C1365 C1363 1.393 . S
C1365 C1366 1.366 . S
C1366 C1365 1.366 . S
C1366 C1367 1.414 . S
C1366 C1369 1.499 . S
C1367 H1341 0.950 . S
C1367 C1366 1.414 . S
C1367 C1368 1.375 . S
C1368 H1342 0.973 1_455 S
C1368 C1364 1.357 1_455 S
C1368 C1367 1.375 . S
C1369 C1366 1.499 . S
C1369 C1370 1.373 1_455 S
C1369 C1371 1.389 . S
C1370 H1343 0.950 . S
C1370 C1356 1.377 . S
C1370 C1369 1.373 1_655 S
C1371 C1355 1.377 . S
C1371 C1369 1.389 . S
C1371 C1372 1.524 . S
C1372 C1371 1.524 . S
C1372 C1373 1.397 . S
C1372 C1377 1.363 . S
C1373 H1344 0.950 . S
C1373 C1372 1.397 . S
C1373 C1374 1.334 . S
C1374 H1345 0.950 . S
C1374 C1373 1.334 . S
C1374 C1375 1.287 . S
C1375 C1374 1.287 . S
C1375 C1376 1.524 . S
C1375 H1378 0.999 . S
C1376 H1346 0.950 . S
C1376 C1375 1.524 . S
C1376 C1377 1.415 . S
C1377 H1347 0.950 . S
C1377 C1372 1.363 . S
C1377 C1376 1.415 . S
H1378 C1375 0.999 . S
H1379 C1360 0.913 . S
C499 C7 0.506 . S
C514 C451 0.455 . S
C549 C51 1.841 . S
C564 C301 1.722 . S
C599 C87 1.139 . S
C614 C361 1.113 . S
C649 C16 0.314 . S
C664 C421 0.401 . S
C714 C331 1.993 . S
C699 C42 1.987 . S
C764 C391 1.311 . S
C749 C96 1.303 . S
C799 C47 1.136 . S
C814 C181 1.100 . S
C849 C91 3.063 . S
C864 C271 3.053 . S
C899 C2 2.022 . S
C914 C151 2.038 . S
C964 C211 1.281 . S
C949 C56 1.272 . S
C1014 C241 2.771 . S
C999 C82 2.904 . S
C1049 C11 1.829 . S
C1064 C121 1.715 . S
C1114 C260 1.737 . S
C1099 C19 1.697 . S
C1149 C50 1.341 . S
C1164 C140 1.356 . S
C1199 C99 1.463 . S
C1214 C200 1.483 . S
C1264 C380 1.464 . S
C1249 C59 1.452 . S
C1314 C440 1.121 . S
C1299 C90 1.113 . S
C1349 C10 1.340 . S
C1364 C320 1.354 1_655 S
