# Generated by pormake.
# Topology ptr, (4,4)-cn, num edge types: 1
# Building blocks:
#     Node 0, Type 0, BuildingBlock: KUFVIS_clean_sbu_0, # of connection points: 4
#     Node 1, Type 0, BuildingBlock: KUFVIS_clean_sbu_0, # of connection points: 4
#     Node 2, Type 0, BuildingBlock: KUFVIS_clean_sbu_0, # of connection points: 4
#     Node 3, Type 0, BuildingBlock: KUFVIS_clean_sbu_0, # of connection points: 4
#     Node 4, Type 0, BuildingBlock: KUFVIS_clean_sbu_0, # of connection points: 4
#     Node 5, Type 0, BuildingBlock: KUFVIS_clean_sbu_0, # of connection points: 4
#     Node 6, Type 0, BuildingBlock: KUFVIS_clean_sbu_0, # of connection points: 4
#     Node 7, Type 0, BuildingBlock: KUFVIS_clean_sbu_0, # of connection points: 4
#     Node 8, Type 0, BuildingBlock: KUFVIS_clean_sbu_0, # of connection points: 4
#     Node 9, Type 0, BuildingBlock: KUFVIS_clean_sbu_0, # of connection points: 4
#     Node 10, Type 0, BuildingBlock: KUFVIS_clean_sbu_0, # of connection points: 4
#     Node 11, Type 0, BuildingBlock: KUFVIS_clean_sbu_0, # of connection points: 4
#     Node 12, Type 0, BuildingBlock: KUFVIS_clean_sbu_0, # of connection points: 4
#     Node 13, Type 0, BuildingBlock: KUFVIS_clean_sbu_0, # of connection points: 4
#     Node 14, Type 0, BuildingBlock: KUFVIS_clean_sbu_0, # of connection points: 4
#     Node 15, Type 0, BuildingBlock: KUFVIS_clean_sbu_0, # of connection points: 4
#     Node 16, Type 0, BuildingBlock: KUFVIS_clean_sbu_0, # of connection points: 4
#     Node 17, Type 0, BuildingBlock: KUFVIS_clean_sbu_0, # of connection points: 4
#     Node 18, Type 1, BuildingBlock: NAHDIM_clean_linker_0, # of connection points: 4
#     Node 19, Type 1, BuildingBlock: NAHDIM_clean_linker_0, # of connection points: 4
#     Node 20, Type 1, BuildingBlock: NAHDIM_clean_linker_0, # of connection points: 4
#     Node 21, Type 1, BuildingBlock: NAHDIM_clean_linker_0, # of connection points: 4
#     Node 22, Type 1, BuildingBlock: NAHDIM_clean_linker_0, # of connection points: 4
#     Node 23, Type 1, BuildingBlock: NAHDIM_clean_linker_0, # of connection points: 4
#     Node 24, Type 1, BuildingBlock: NAHDIM_clean_linker_0, # of connection points: 4
#     Node 25, Type 1, BuildingBlock: NAHDIM_clean_linker_0, # of connection points: 4
#     Node 26, Type 1, BuildingBlock: NAHDIM_clean_linker_0, # of connection points: 4
#     Node 27, Type 1, BuildingBlock: NAHDIM_clean_linker_0, # of connection points: 4
#     Node 28, Type 1, BuildingBlock: NAHDIM_clean_linker_0, # of connection points: 4
#     Node 29, Type 1, BuildingBlock: NAHDIM_clean_linker_0, # of connection points: 4
#     Node 30, Type 1, BuildingBlock: NAHDIM_clean_linker_0, # of connection points: 4
#     Node 31, Type 1, BuildingBlock: NAHDIM_clean_linker_0, # of connection points: 4
#     Node 32, Type 1, BuildingBlock: NAHDIM_clean_linker_0, # of connection points: 4
#     Node 33, Type 1, BuildingBlock: NAHDIM_clean_linker_0, # of connection points: 4
#     Node 34, Type 1, BuildingBlock: NAHDIM_clean_linker_0, # of connection points: 4
#     Node 35, Type 1, BuildingBlock: NAHDIM_clean_linker_0, # of connection points: 4
#     Edge 36, Type (0, 1), BuildingBlock: TEMPAE_clean_linker_10, # of connection points: 2
#     Edge 37, Type (0, 1), BuildingBlock: TEMPAE_clean_linker_10, # of connection points: 2
#     Edge 38, Type (0, 1), BuildingBlock: TEMPAE_clean_linker_10, # of connection points: 2
#     Edge 39, Type (0, 1), BuildingBlock: TEMPAE_clean_linker_10, # of connection points: 2
#     Edge 40, Type (0, 1), BuildingBlock: TEMPAE_clean_linker_10, # of connection points: 2
#     Edge 41, Type (0, 1), BuildingBlock: TEMPAE_clean_linker_10, # of connection points: 2
#     Edge 42, Type (0, 1), BuildingBlock: TEMPAE_clean_linker_10, # of connection points: 2
#     Edge 43, Type (0, 1), BuildingBlock: TEMPAE_clean_linker_10, # of connection points: 2
#     Edge 44, Type (0, 1), BuildingBlock: TEMPAE_clean_linker_10, # of connection points: 2
#     Edge 45, Type (0, 1), BuildingBlock: TEMPAE_clean_linker_10, # of connection points: 2
#     Edge 46, Type (0, 1), BuildingBlock: TEMPAE_clean_linker_10, # of connection points: 2
#     Edge 47, Type (0, 1), BuildingBlock: TEMPAE_clean_linker_10, # of connection points: 2
#     Edge 48, Type (0, 1), BuildingBlock: TEMPAE_clean_linker_10, # of connection points: 2
#     Edge 49, Type (0, 1), BuildingBlock: TEMPAE_clean_linker_10, # of connection points: 2
#     Edge 50, Type (0, 1), BuildingBlock: TEMPAE_clean_linker_10, # of connection points: 2
#     Edge 51, Type (0, 1), BuildingBlock: TEMPAE_clean_linker_10, # of connection points: 2
#     Edge 52, Type (0, 1), BuildingBlock: TEMPAE_clean_linker_10, # of connection points: 2
#     Edge 53, Type (0, 1), BuildingBlock: TEMPAE_clean_linker_10, # of connection points: 2
#     Edge 54, Type (0, 1), BuildingBlock: TEMPAE_clean_linker_10, # of connection points: 2
#     Edge 55, Type (0, 1), BuildingBlock: TEMPAE_clean_linker_10, # of connection points: 2
#     Edge 56, Type (0, 1), BuildingBlock: TEMPAE_clean_linker_10, # of connection points: 2
#     Edge 57, Type (0, 1), BuildingBlock: TEMPAE_clean_linker_10, # of connection points: 2
#     Edge 58, Type (0, 1), BuildingBlock: TEMPAE_clean_linker_10, # of connection points: 2
#     Edge 59, Type (0, 1), BuildingBlock: TEMPAE_clean_linker_10, # of connection points: 2
#     Edge 60, Type (0, 1), BuildingBlock: TEMPAE_clean_linker_10, # of connection points: 2
#     Edge 61, Type (0, 1), BuildingBlock: TEMPAE_clean_linker_10, # of connection points: 2
#     Edge 62, Type (0, 1), BuildingBlock: TEMPAE_clean_linker_10, # of connection points: 2
#     Edge 63, Type (0, 1), BuildingBlock: TEMPAE_clean_linker_10, # of connection points: 2
#     Edge 64, Type (0, 1), BuildingBlock: TEMPAE_clean_linker_10, # of connection points: 2
#     Edge 65, Type (0, 1), BuildingBlock: TEMPAE_clean_linker_10, # of connection points: 2
#     Edge 66, Type (0, 1), BuildingBlock: TEMPAE_clean_linker_10, # of connection points: 2
#     Edge 67, Type (0, 1), BuildingBlock: TEMPAE_clean_linker_10, # of connection points: 2
#     Edge 68, Type (0, 1), BuildingBlock: TEMPAE_clean_linker_10, # of connection points: 2
#     Edge 69, Type (0, 1), BuildingBlock: TEMPAE_clean_linker_10, # of connection points: 2
#     Edge 70, Type (0, 1), BuildingBlock: TEMPAE_clean_linker_10, # of connection points: 2
#     Edge 71, Type (0, 1), BuildingBlock: TEMPAE_clean_linker_10, # of connection points: 2
#     Edge 72, Type (0, 1), BuildingBlock: TEMPAE_clean_linker_10, # of connection points: 2
#     Edge 73, Type (0, 1), BuildingBlock: TEMPAE_clean_linker_10, # of connection points: 2
#     Edge 74, Type (0, 1), BuildingBlock: TEMPAE_clean_linker_10, # of connection points: 2
#     Edge 75, Type (0, 1), BuildingBlock: TEMPAE_clean_linker_10, # of connection points: 2
#     Edge 76, Type (0, 1), BuildingBlock: TEMPAE_clean_linker_10, # of connection points: 2
#     Edge 77, Type (0, 1), BuildingBlock: TEMPAE_clean_linker_10, # of connection points: 2
#     Edge 78, Type (0, 1), BuildingBlock: TEMPAE_clean_linker_10, # of connection points: 2
#     Edge 79, Type (0, 1), BuildingBlock: TEMPAE_clean_linker_10, # of connection points: 2
#     Edge 80, Type (0, 1), BuildingBlock: TEMPAE_clean_linker_10, # of connection points: 2
#     Edge 81, Type (0, 1), BuildingBlock: TEMPAE_clean_linker_10, # of connection points: 2
#     Edge 82, Type (0, 1), BuildingBlock: TEMPAE_clean_linker_10, # of connection points: 2
#     Edge 83, Type (0, 1), BuildingBlock: TEMPAE_clean_linker_10, # of connection points: 2
#     Edge 84, Type (0, 1), BuildingBlock: TEMPAE_clean_linker_10, # of connection points: 2
#     Edge 85, Type (0, 1), BuildingBlock: TEMPAE_clean_linker_10, # of connection points: 2
#     Edge 86, Type (0, 1), BuildingBlock: TEMPAE_clean_linker_10, # of connection points: 2
#     Edge 87, Type (0, 1), BuildingBlock: TEMPAE_clean_linker_10, # of connection points: 2
#     Edge 88, Type (0, 1), BuildingBlock: TEMPAE_clean_linker_10, # of connection points: 2
#     Edge 89, Type (0, 1), BuildingBlock: TEMPAE_clean_linker_10, # of connection points: 2
#     Edge 90, Type (0, 1), BuildingBlock: TEMPAE_clean_linker_10, # of connection points: 2
#     Edge 91, Type (0, 1), BuildingBlock: TEMPAE_clean_linker_10, # of connection points: 2
#     Edge 92, Type (0, 1), BuildingBlock: TEMPAE_clean_linker_10, # of connection points: 2
#     Edge 93, Type (0, 1), BuildingBlock: TEMPAE_clean_linker_10, # of connection points: 2
#     Edge 94, Type (0, 1), BuildingBlock: TEMPAE_clean_linker_10, # of connection points: 2
#     Edge 95, Type (0, 1), BuildingBlock: TEMPAE_clean_linker_10, # of connection points: 2
#     Edge 96, Type (0, 1), BuildingBlock: TEMPAE_clean_linker_10, # of connection points: 2
#     Edge 97, Type (0, 1), BuildingBlock: TEMPAE_clean_linker_10, # of connection points: 2
#     Edge 98, Type (0, 1), BuildingBlock: TEMPAE_clean_linker_10, # of connection points: 2
#     Edge 99, Type (0, 1), BuildingBlock: TEMPAE_clean_linker_10, # of connection points: 2
#     Edge 100, Type (0, 1), BuildingBlock: TEMPAE_clean_linker_10, # of connection points: 2
#     Edge 101, Type (0, 1), BuildingBlock: TEMPAE_clean_linker_10, # of connection points: 2
#     Edge 102, Type (0, 1), BuildingBlock: TEMPAE_clean_linker_10, # of connection points: 2
#     Edge 103, Type (0, 1), BuildingBlock: TEMPAE_clean_linker_10, # of connection points: 2
#     Edge 104, Type (0, 1), BuildingBlock: TEMPAE_clean_linker_10, # of connection points: 2
#     Edge 105, Type (0, 1), BuildingBlock: TEMPAE_clean_linker_10, # of connection points: 2
#     Edge 106, Type (0, 1), BuildingBlock: TEMPAE_clean_linker_10, # of connection points: 2
#     Edge 107, Type (0, 1), BuildingBlock: TEMPAE_clean_linker_10, # of connection points: 2
# Relax obj value: 0.038
# Max RMSD: 0.204
# Mean RMSD: 0.072
data_MOF--net-ptr--node1-KUFVIS_clean_sbu_0--node2-NAHDIM_clean_linker_0--edge1-TEMPAE_clean_linker_10
_symmetry_space_group_name_H-M    P1
_symmetry_Int_Tables_number       1
_symmetry_cell_setting            triclinic
loop_
_symmetry_equiv_pos_as_xyz
'x, y, z'
_cell_length_a     94.950419
_cell_length_b     94.003381
_cell_length_c     80.844688
_cell_angle_alpha  90.527944
_cell_angle_beta   91.033277
_cell_angle_gamma 119.56812
loop_
_atom_site_label
_atom_site_type_symbol
_atom_site_fract_x
_atom_site_fract_y
_atom_site_fract_z
_atom_type_partial_charge
Mn0 Mn 0.01024 0.34712 0.00346 0.0
Mn1 Mn 0.04528 0.38274 0.00555 0.0
C2 C 0.01329 0.36839 0.9871 0.0
C3 C 0.99614 0.32063 0.99233 0.0
C4 C 0.01945 0.37183 0.03164 0.0
O5 O 0.02571 0.34171 0.01601 0.0
O6 O 0.04941 0.36484 0.01253 0.0
C7 C 0.06277 0.37654 0.97901 0.0
N8 N 0.05692 0.3859 0.98564 0.0
C9 C 0.06751 0.40498 0.96347 0.0
C10 C 0.07382 0.39565 0.9565 0.0
C11 C 0.07136 0.38132 0.96426 0.0
C12 C 0.059 0.39957 0.97814 0.0
H13 H 0.06082 0.36547 0.98489 0.0
C14 C 0.04112 0.35 0.01717 0.0
O15 O 0.99195 0.32435 0.00624 0.0
O16 O 0.00841 0.33225 0.98505 0.0
N17 N 0.04308 0.40106 0.99891 0.0
C18 C 0.03532 0.40808 0.00662 0.0
C19 C 0.03613 0.42226 0.00011 0.0
C20 C 0.04507 0.42918 0.98588 0.0
C21 C 0.05304 0.42179 0.97821 0.0
C22 C 0.05177 0.40766 0.98524 0.0
H23 H 0.02855 0.40293 0.01765 0.0
O24 O 0.99897 0.35617 0.98967 0.0
O25 O 0.02536 0.36737 0.99363 0.0
O26 O 0.00856 0.35912 0.02391 0.0
O27 O 0.03382 0.38072 0.02643 0.0
C28 C 0.06211 0.42783 0.96382 0.0
C29 C 0.06919 0.41934 0.95634 0.0
H30 H 0.08044 0.3993 0.94512 0.0
H31 H 0.07607 0.37398 0.95889 0.0
H32 H 0.02992 0.42787 0.00608 0.0
H33 H 0.04569 0.44013 0.98091 0.0
H34 H 0.06363 0.43895 0.95833 0.0
H35 H 0.07584 0.42392 0.94508 0.0
Mn36 Mn 0.65425 0.65168 0.01868 0.0
Mn37 Mn 0.65821 0.61982 0.00527 0.0
C38 C 0.6411 0.62711 0.03219 0.0
C39 C 0.66464 0.67609 0.03391 0.0
C40 C 0.63671 0.6309 0.98812 0.0
O41 O 0.67342 0.66202 0.0034 0.0
O42 O 0.67692 0.64049 0.99783 0.0
C43 C 0.68724 0.62601 0.02514 0.0
N44 N 0.6715 0.61589 0.02043 0.0
C45 C 0.67029 0.59401 0.03665 0.0
C46 C 0.68652 0.60417 0.04165 0.0
C47 C 0.695 0.62027 0.03594 0.0
C48 C 0.66315 0.60048 0.02606 0.0
H49 H 0.69381 0.63835 0.02067 0.0
C50 C 0.68128 0.6557 0.99695 0.0
O51 O 0.65477 0.67299 0.02133 0.0
O52 O 0.66832 0.66492 0.03772 0.0
N53 N 0.64104 0.59896 0.01156 0.0
C54 C 0.62525 0.59106 0.00625 0.0
C55 C 0.61501 0.57488 0.011 0.0
C56 C 0.62119 0.56692 0.02091 0.0
C57 C 0.63747 0.57533 0.02628 0.0
C58 C 0.64706 0.59146 0.02122 0.0
H59 H 0.62052 0.59701 0.99836 0.0
O60 O 0.63656 0.63798 0.03398 0.0
O61 O 0.65359 0.63121 0.023 0.0
O62 O 0.63857 0.64175 0.99884 0.0
O63 O 0.64407 0.62263 0.98893 0.0
C64 C 0.64459 0.56834 0.03638 0.0
C65 C 0.66092 0.57774 0.04176 0.0
H66 H 0.69256 0.59975 0.0499 0.0
H67 H 0.70751 0.6282 0.03978 0.0
H68 H 0.60245 0.56849 0.00686 0.0
H69 H 0.6133 0.55437 0.02436 0.0
H70 H 0.6376 0.55575 0.04014 0.0
H71 H 0.66615 0.57231 0.04979 0.0
Mn72 Mn 0.3418 0.00085 0.01468 0.0
Mn73 Mn 0.37442 0.03845 0.0135 0.0
C74 C 0.36387 0.00736 0.03206 0.0
C75 C 0.31585 0.98402 0.02436 0.0
C76 C 0.36638 0.01179 0.98751 0.0
O77 O 0.33386 0.01409 0.0016 0.0
O78 O 0.35504 0.03951 0.00556 0.0
C79 C 0.36567 0.05507 0.03929 0.0
N80 N 0.3763 0.05071 0.03319 0.0
C81 C 0.39558 0.06521 0.05531 0.0
C82 C 0.38492 0.07002 0.06175 0.0
C83 C 0.36984 0.06483 0.05376 0.0
C84 C 0.39067 0.05534 0.04096 0.0
H85 H 0.35408 0.05109 0.03317 0.0
C86 C 0.34055 0.0296 0.00044 0.0
O87 O 0.32057 0.98056 0.01066 0.0
O88 O 0.3262 0.9972 0.03238 0.0
N89 N 0.39408 0.03936 0.02101 0.0
C90 C 0.4025 0.03278 0.01382 0.0
C91 C 0.41767 0.03642 0.02055 0.0
C92 C 0.42414 0.04698 0.03441 0.0
C93 C 0.41525 0.0536 0.0416 0.0
C94 C 0.40015 0.04945 0.03442 0.0
H95 H 0.39773 0.02489 0.00299 0.0
O96 O 0.35304 0.99219 0.02913 0.0
O97 O 0.36105 0.01822 0.02526 0.0
O98 O 0.35456 0.00026 0.99489 0.0
O99 O 0.37382 0.02664 0.99279 0.0
C100 C 0.42077 0.06416 0.05559 0.0
C101 C 0.41085 0.06977 0.06259 0.0
H102 H 0.38812 0.0776 0.07287 0.0
H103 H 0.3615 0.06839 0.05871 0.0
H104 H 0.42444 0.03123 0.01496 0.0
H105 H 0.43592 0.04987 0.03947 0.0
H106 H 0.4326 0.06797 0.06113 0.0
H107 H 0.41509 0.07759 0.07358 0.0
Mn108 Mn 0.99758 0.66296 0.01006 0.0
Mn109 Mn 0.03513 0.66804 0.01555 0.0
C110 C 0.00526 0.64746 0.99445 0.0
C111 C 0.98043 0.67145 0.99848 0.0
C112 C 0.00763 0.64827 0.03853 0.0
O113 O 0.00951 0.68438 0.0228 0.0
O114 O 0.03444 0.68735 0.02516 0.0
C115 C 0.0523 0.69615 0.99346 0.0
N116 N 0.0483 0.68068 0.99786 0.0
C117 C 0.0647 0.67882 0.97654 0.0
C118 C 0.06907 0.69477 0.97184 0.0
C119 C 0.06278 0.70344 0.98029 0.0
C120 C 0.05411 0.67216 0.98968 0.0
H121 H 0.04753 0.70289 0.99996 0.0
C122 C 0.02432 0.69243 0.02743 0.0
O123 O 0.97706 0.66352 0.01222 0.0
O124 O 0.99359 0.67413 0.99125 0.0
N125 N 0.038 0.65068 0.00682 0.0
C126 C 0.03201 0.63516 0.01239 0.0
C127 C 0.03699 0.6248 0.00514 0.0
C128 C 0.04823 0.63056 0.9924 0.0
C129 C 0.05419 0.64656 0.98683 0.0
C130 C 0.04881 0.65633 0.99455 0.0
H131 H 0.02348 0.63071 0.02228 0.0
O132 O 0.99003 0.64283 0.99622 0.0
O133 O 0.01564 0.66139 0.00147 0.0
O134 O 0.99701 0.6504 0.03081 0.0
O135 O 0.02231 0.6545 0.03404 0.0
C136 C 0.06524 0.65319 0.97391 0.0
C137 C 0.07037 0.66925 0.96867 0.0
H138 H 0.07719 0.70044 0.96172 0.0
H139 H 0.06604 0.71573 0.9767 0.0
H140 H 0.03227 0.61244 0.00944 0.0
H141 H 0.0522 0.6226 0.987 0.0
H142 H 0.06976 0.646 0.96781 0.0
H143 H 0.07866 0.67411 0.95854 0.0
Mn144 Mn 0.35234 0.35476 0.00526 0.0
Mn145 Mn 0.38387 0.35019 0.99384 0.0
C146 C 0.3766 0.36825 0.02 0.0
C147 C 0.32821 0.34572 0.01909 0.0
C148 C 0.37345 0.37167 0.97571 0.0
O149 O 0.34185 0.33454 0.99041 0.0
O150 O 0.36332 0.33149 0.98459 0.0
C151 C 0.37636 0.32046 0.0126 0.0
N152 N 0.38679 0.33636 0.00904 0.0
C153 C 0.4073 0.33705 0.02749 0.0
C154 C 0.39681 0.32066 0.03129 0.0
C155 C 0.38125 0.31235 0.02386 0.0
C156 C 0.40172 0.34452 0.01625 0.0
H157 H 0.36441 0.31401 0.00688 0.0
C158 C 0.34812 0.3267 0.98375 0.0
O159 O 0.33156 0.35487 0.00622 0.0
O160 O 0.33901 0.34195 0.02412 0.0
N161 N 0.40443 0.36715 0.00212 0.0
C162 C 0.41263 0.38323 0.99801 0.0
C163 C 0.42825 0.39339 0.00474 0.0
C164 C 0.43534 0.38688 0.01545 0.0
C165 C 0.42664 0.37031 0.01954 0.0
C166 C 0.4111 0.3608 0.0125 0.0
H167 H 0.40728 0.38827 0.98971 0.0
O168 O 0.3662 0.37342 0.02062 0.0
O169 O 0.37236 0.3552 0.0109 0.0
O170 O 0.362 0.36917 0.9853 0.0
O171 O 0.38226 0.365 0.97757 0.0
C172 C 0.43274 0.36288 0.03038 0.0
C173 C 0.42302 0.34632 0.0345 0.0
H174 H 0.40055 0.31436 0.03995 0.0
H175 H 0.37306 0.29972 0.02678 0.0
H176 H 0.43484 0.40618 0.0016 0.0
H177 H 0.44742 0.39474 0.02054 0.0
H178 H 0.44486 0.36983 0.03571 0.0
H179 H 0.42774 0.34084 0.04311 0.0
Mn180 Mn 0.6625 0.99978 0.01099 0.0
Mn181 Mn 0.6313 0.96134 0.01369 0.0
C182 C 0.63969 0.99158 0.9944 0.0
C183 C 0.68773 0.01759 0.00036 0.0
C184 C 0.63828 0.98835 0.03877 0.0
O185 O 0.67217 0.98791 0.0236 0.0
O186 O 0.65139 0.96205 0.02237 0.0
C187 C 0.64162 0.94495 0.9892 0.0
N188 N 0.63035 0.94873 0.99462 0.0
C189 C 0.61176 0.93297 0.97243 0.0
C190 C 0.62313 0.92882 0.96664 0.0
C191 C 0.63816 0.9349 0.97502 0.0
C192 C 0.61595 0.94314 0.98652 0.0
H193 H 0.65316 0.94956 0.99565 0.0
C194 C 0.66605 0.97267 0.02626 0.0
O195 O 0.6831 0.02086 0.01423 0.0
O196 O 0.67768 0.00405 0.99268 0.0
N197 N 0.61104 0.95868 0.00571 0.0
C198 C 0.60175 0.96447 0.01244 0.0
C199 C 0.58639 0.95971 0.00541 0.0
C200 C 0.58067 0.94887 0.9917 0.0
C201 C 0.59046 0.94309 0.98498 0.0
C202 C 0.60566 0.94827 0.9925 0.0
H203 H 0.60598 0.97261 0.02312 0.0
O204 O 0.64983 0.00702 0.997 0.0
O205 O 0.64354 0.9814 0.00116 0.0
O206 O 0.65 0.99995 0.03133 0.0
O207 O 0.63105 0.97347 0.03365 0.0
C208 C 0.58574 0.93236 0.97114 0.0
C209 C 0.59645 0.92746 0.96474 0.0
H210 H 0.62047 0.92103 0.95575 0.0
H211 H 0.64702 0.93181 0.9706 0.0
H212 H 0.57892 0.96426 0.01063 0.0
H213 H 0.56874 0.94508 0.98644 0.0
H214 H 0.57392 0.92785 0.96528 0.0
H215 H 0.59278 0.91944 0.95392 0.0
Mn216 Mn 0.66874 0.68159 0.33967 0.0
Mn217 Mn 0.70392 0.7153 0.35079 0.0
C218 C 0.67742 0.70546 0.32507 0.0
C219 C 0.65464 0.65663 0.32532 0.0
C220 C 0.67264 0.70417 0.369 0.0
O221 O 0.67971 0.67249 0.35464 0.0
O222 O 0.70334 0.69549 0.35999 0.0
C223 C 0.72592 0.70779 0.33178 0.0
N224 N 0.72034 0.71822 0.33569 0.0
C225 C 0.74012 0.7392 0.31875 0.0
C226 C 0.7462 0.72875 0.31465 0.0
C227 C 0.73898 0.71293 0.3211 0.0
C228 C 0.72694 0.73331 0.32926 0.0
H229 H 0.72046 0.69566 0.33679 0.0
C230 C 0.69392 0.68006 0.36116 0.0
O231 O 0.64874 0.65983 0.33829 0.0
O232 O 0.66877 0.66793 0.32072 0.0
N233 N 0.70666 0.73555 0.34276 0.0
C234 C 0.69872 0.74371 0.34714 0.0
C235 C 0.70431 0.75968 0.34161 0.0
C236 C 0.71812 0.76717 0.33186 0.0
C237 C 0.72596 0.75845 0.32732 0.0
C238 C 0.71983 0.74258 0.33319 0.0
H239 H 0.68828 0.73811 0.35487 0.0
O240 O 0.66232 0.69409 0.32443 0.0
O241 O 0.68717 0.70236 0.33389 0.0
O242 O 0.66388 0.69169 0.35974 0.0
O243 O 0.68776 0.71365 0.36689 0.0
C244 C 0.73966 0.7649 0.31727 0.0
C245 C 0.7466 0.75521 0.31281 0.0
H246 H 0.75634 0.73272 0.30649 0.0
H247 H 0.74354 0.70477 0.31792 0.0
H248 H 0.69813 0.76629 0.34504 0.0
H249 H 0.72257 0.77961 0.32789 0.0
H250 H 0.74486 0.77725 0.31276 0.0
H251 H 0.75691 0.76019 0.3048 0.0
Mn252 Mn 0.31369 0.9806 0.353 0.0
Mn253 Mn 0.31334 0.94496 0.34591 0.0
C254 C 0.29868 0.95844 0.36962 0.0
C255 C 0.32534 0.00695 0.36436 0.0
C256 C 0.29364 0.95595 0.32536 0.0
O257 O 0.33308 0.98735 0.33842 0.0
O258 O 0.33224 0.96318 0.33516 0.0
C259 C 0.34319 0.95246 0.36505 0.0
N260 N 0.32706 0.94252 0.36184 0.0
C261 C 0.32597 0.92259 0.38098 0.0
C262 C 0.34258 0.93258 0.38447 0.0
C263 C 0.3512 0.94763 0.37655 0.0
C264 C 0.31859 0.92818 0.36962 0.0
H265 H 0.34989 0.96394 0.35883 0.0
C266 C 0.33879 0.97858 0.33278 0.0
O267 O 0.31605 0.00267 0.3512 0.0
O268 O 0.32785 0.99587 0.37109 0.0
N269 N 0.29602 0.92608 0.35555 0.0
C270 C 0.27992 0.91835 0.35147 0.0
C271 C 0.26954 0.90312 0.35834 0.0
C272 C 0.27587 0.89592 0.36912 0.0
C273 C 0.29245 0.90423 0.37334 0.0
C274 C 0.30218 0.91936 0.36612 0.0
H275 H 0.27506 0.92368 0.34294 0.0
O276 O 0.29535 0.97024 0.36848 0.0
O277 O 0.31094 0.96005 0.3612 0.0
O278 O 0.29828 0.96937 0.33326 0.0
O279 O 0.29856 0.94591 0.32897 0.0
C280 C 0.29973 0.89805 0.38433 0.0
C281 C 0.31643 0.90732 0.38831 0.0
H282 H 0.34882 0.92883 0.39324 0.0
H283 H 0.36402 0.95542 0.3792 0.0
H284 H 0.25674 0.89684 0.35515 0.0
H285 H 0.26787 0.88402 0.37412 0.0
H286 H 0.29257 0.88626 0.38993 0.0
H287 H 0.32182 0.90258 0.39702 0.0
Mn288 Mn 0.01695 0.33121 0.34174 0.0
Mn289 Mn 0.05202 0.3654 0.3336 0.0
C290 C 0.03934 0.33933 0.3591 0.0
C291 C 0.99122 0.31792 0.35279 0.0
C292 C 0.04072 0.33312 0.31553 0.0
O293 O 0.00981 0.3429 0.32555 0.0
O294 O 0.0337 0.36546 0.32133 0.0
C295 C 0.04484 0.38949 0.34965 0.0
N296 N 0.05466 0.38284 0.34796 0.0
C297 C 0.07457 0.40278 0.36692 0.0
C298 C 0.06472 0.40989 0.36883 0.0
C299 C 0.04973 0.40314 0.36023 0.0
C300 C 0.06895 0.38905 0.3564 0.0
H301 H 0.0334 0.38444 0.34292 0.0
C302 C 0.01836 0.35672 0.31892 0.0
O303 O 0.99503 0.3117 0.34044 0.0
O304 O 0.00241 0.3319 0.35887 0.0
N305 N 0.07093 0.36745 0.34461 0.0
C306 C 0.07858 0.35861 0.34208 0.0
C307 C 0.09367 0.36363 0.34992 0.0
C308 C 0.10085 0.37781 0.36002 0.0
C309 C 0.09269 0.38663 0.36255 0.0
C310 C 0.07766 0.381 0.35448 0.0
H311 H 0.07326 0.34788 0.33406 0.0
O312 O 0.02768 0.32423 0.35868 0.0
O313 O 0.03746 0.34937 0.34952 0.0
O314 O 0.02755 0.32522 0.32322 0.0
O315 O 0.05075 0.34823 0.31838 0.0
C316 C 0.0989 0.40084 0.37268 0.0
C317 C 0.08976 0.40878 0.37504 0.0
H318 H 0.0685 0.42049 0.37689 0.0
H319 H 0.04204 0.40853 0.36167 0.0
H320 H 0.09986 0.35671 0.34799 0.0
H321 H 0.11262 0.3818 0.3658 0.0
H322 H 0.11064 0.4057 0.37883 0.0
H323 H 0.09453 0.4195 0.38311 0.0
Mn324 Mn 0.66549 0.97911 0.34291 0.0
Mn325 Mn 0.70147 0.9837 0.35593 0.0
C326 C 0.6772 0.96652 0.32834 0.0
C327 C 0.65051 0.98867 0.32854 0.0
C328 C 0.66973 0.96145 0.37242 0.0
O329 O 0.67427 0.99871 0.35869 0.0
O330 O 0.69905 0.00223 0.36479 0.0
C331 C 0.72347 0.0138 0.33821 0.0
N332 N 0.71822 0.99781 0.34157 0.0
C333 C 0.73859 0.99751 0.32454 0.0
C334 C 0.74427 0.01399 0.32095 0.0
C335 C 0.73661 0.02215 0.32775 0.0
C336 C 0.72538 0.9898 0.33495 0.0
H337 H 0.71767 0.02014 0.34347 0.0
C338 C 0.68835 0.00676 0.36546 0.0
O339 O 0.64441 0.97864 0.34066 0.0
O340 O 0.66527 0.99302 0.32458 0.0
N341 N 0.70552 0.96686 0.34797 0.0
C342 C 0.69779 0.95066 0.35162 0.0
C343 C 0.7036 0.94061 0.34533 0.0
C344 C 0.71738 0.94735 0.33551 0.0
C345 C 0.72509 0.96403 0.33186 0.0
C346 C 0.7187 0.97342 0.33841 0.0
H347 H 0.68725 0.94544 0.35924 0.0
O348 O 0.66175 0.96127 0.32683 0.0
O349 O 0.68535 0.97915 0.33815 0.0
O350 O 0.66067 0.96374 0.36225 0.0
O351 O 0.68513 0.96864 0.37146 0.0
C352 C 0.7388 0.97171 0.32192 0.0
C353 C 0.74545 0.98838 0.31811 0.0
H354 H 0.75442 0.02048 0.31291 0.0
H355 H 0.74088 0.03486 0.32499 0.0
H356 H 0.69752 0.92772 0.3481 0.0
H357 H 0.72186 0.93957 0.33073 0.0
H358 H 0.74428 0.96486 0.31705 0.0
H359 H 0.75579 0.99405 0.31017 0.0
Mn360 Mn 0.02433 0.69275 0.34303 0.0
Mn361 Mn 0.05855 0.69331 0.33152 0.0
C362 C 0.04797 0.70748 0.35863 0.0
C363 C 0.99982 0.68041 0.35667 0.0
C364 C 0.04519 0.71295 0.31457 0.0
O365 O 0.01612 0.67342 0.32698 0.0
O366 O 0.03944 0.6738 0.32123 0.0
C367 C 0.05407 0.66363 0.3485 0.0
N368 N 0.06311 0.67998 0.34589 0.0
C369 C 0.08436 0.68227 0.3643 0.0
C370 C 0.07532 0.66544 0.36712 0.0
C371 C 0.06007 0.65609 0.35924 0.0
C372 C 0.07771 0.68912 0.35355 0.0
H373 H 0.04237 0.65639 0.34242 0.0
C374 C 0.02399 0.66738 0.32 0.0
O375 O 0.00228 0.69011 0.3444 0.0
O376 O 0.01163 0.67791 0.36104 0.0
N377 N 0.0779 0.71131 0.3408 0.0
C378 C 0.08454 0.72756 0.33771 0.0
C379 C 0.09957 0.73869 0.34508 0.0
C380 C 0.10771 0.73298 0.35538 0.0
C381 C 0.10062 0.71619 0.35839 0.0
C382 C 0.08558 0.7057 0.35078 0.0
H383 H 0.07839 0.73201 0.32972 0.0
O384 O 0.03636 0.71097 0.35952 0.0
O385 O 0.04531 0.6954 0.3487 0.0
O386 O 0.03315 0.70866 0.32393 0.0
O387 O 0.05525 0.70772 0.31615 0.0
C388 C 0.10786 0.70947 0.3687 0.0
C389 C 0.09966 0.69256 0.37181 0.0
H390 H 0.07992 0.65958 0.37538 0.0
H391 H 0.05299 0.64311 0.3614 0.0
H392 H 0.10491 0.75163 0.34277 0.0
H393 H 0.11933 0.74159 0.36099 0.0
H394 H 0.11968 0.71722 0.3744 0.0
H395 H 0.1052 0.68759 0.38004 0.0
Mn396 Mn 0.3144 0.33638 0.34808 0.0
Mn397 Mn 0.28277 0.30099 0.36026 0.0
C398 C 0.29027 0.32466 0.33289 0.0
C399 C 0.3385 0.35017 0.33383 0.0
C400 C 0.29283 0.33386 0.37682 0.0
O401 O 0.32477 0.32756 0.3641 0.0
O402 O 0.30322 0.30331 0.37012 0.0
C403 C 0.29043 0.27771 0.34321 0.0
N404 N 0.27997 0.28342 0.346 0.0
C405 C 0.25957 0.26258 0.32809 0.0
C406 C 0.27008 0.25642 0.32509 0.0
C407 C 0.2856 0.26407 0.33262 0.0
C408 C 0.26509 0.27627 0.33867 0.0
H409 H 0.30235 0.28351 0.34902 0.0
C410 C 0.31841 0.31373 0.37111 0.0
O411 O 0.33532 0.35713 0.34604 0.0
O412 O 0.32764 0.33525 0.3299 0.0
N413 N 0.26231 0.29703 0.35137 0.0
C414 C 0.25412 0.30522 0.35456 0.0
C415 C 0.23858 0.29947 0.34751 0.0
C416 C 0.23155 0.28527 0.33744 0.0
C417 C 0.24022 0.27707 0.33432 0.0
C418 C 0.25569 0.28342 0.34159 0.0
H419 H 0.25943 0.31609 0.36236 0.0
O420 O 0.30062 0.34013 0.33169 0.0
O421 O 0.29446 0.31653 0.34285 0.0
O422 O 0.30443 0.34244 0.36726 0.0
O423 O 0.28428 0.3183 0.37549 0.0
C424 C 0.23415 0.26288 0.3242 0.0
C425 C 0.24388 0.25575 0.32093 0.0
H426 H 0.26639 0.24589 0.31695 0.0
H427 H 0.29381 0.25943 0.33031 0.0
H428 H 0.23201 0.30593 0.3499 0.0
H429 H 0.21954 0.28084 0.33207 0.0
H430 H 0.22205 0.25742 0.31878 0.0
H431 H 0.2392 0.24504 0.31285 0.0
Mn432 Mn 0.33058 0.01963 0.6727 0.0
Mn433 Mn 0.36472 0.05501 0.68244 0.0
C434 C 0.33802 0.04237 0.65662 0.0
C435 C 0.31715 0.99377 0.66003 0.0
C436 C 0.33334 0.04347 0.70035 0.0
O437 O 0.34259 0.01231 0.68836 0.0
O438 O 0.3651 0.03642 0.69355 0.0
C439 C 0.38793 0.04779 0.66546 0.0
N440 N 0.3815 0.05775 0.66794 0.0
C441 C 0.40071 0.078 0.64997 0.0
C442 C 0.40759 0.068 0.64724 0.0
C443 C 0.40109 0.05277 0.65494 0.0
C444 C 0.38745 0.07226 0.66036 0.0
H445 H 0.38308 0.03616 0.6715 0.0
C446 C 0.3565 0.02094 0.69528 0.0
O447 O 0.31124 0.99746 0.67265 0.0
O448 O 0.33093 0.00516 0.65472 0.0
N449 N 0.36649 0.07424 0.67265 0.0
C450 C 0.35794 0.08202 0.67592 0.0
C451 C 0.36286 0.09745 0.6692 0.0
C452 C 0.37664 0.10479 0.65941 0.0
C453 C 0.38511 0.09643 0.65599 0.0
C454 C 0.37964 0.08111 0.66304 0.0
H455 H 0.34752 0.07657 0.6837 0.0
O456 O 0.32312 0.03052 0.65652 0.0
O457 O 0.3483 0.04046 0.6659 0.0
O458 O 0.3252 0.03021 0.69198 0.0
O459 O 0.34821 0.05362 0.69785 0.0
C460 C 0.39881 0.10273 0.64596 0.0
C461 C 0.40648 0.09343 0.64278 0.0
H462 H 0.41782 0.07186 0.63924 0.0
H463 H 0.40631 0.04497 0.65288 0.0
H464 H 0.35619 0.10377 0.67177 0.0
H465 H 0.38059 0.11683 0.65455 0.0
H466 H 0.40347 0.11464 0.6405 0.0
H467 H 0.41682 0.09828 0.63481 0.0
Mn468 Mn 0.97853 0.30761 0.67589 0.0
Mn469 Mn 0.9843 0.27536 0.66906 0.0
C470 C 0.9619 0.28293 0.68825 0.0
C471 C 0.9846 0.33193 0.68967 0.0
C472 C 0.96676 0.28571 0.6446 0.0
O473 O 0.00096 0.3182 0.66618 0.0
O474 O 0.00377 0.29601 0.66274 0.0
C475 C 0.01009 0.28403 0.6947 0.0
N476 N 0.99543 0.27303 0.68784 0.0
C477 C 0.99262 0.25236 0.70694 0.0
C478 C 0.00771 0.26345 0.71419 0.0
C479 C 0.01643 0.27938 0.7081 0.0
C480 C 0.9868 0.25779 0.69381 0.0
H481 H 0.01688 0.29623 0.68996 0.0
C482 C 0.00912 0.31142 0.66182 0.0
O483 O 0.97847 0.32863 0.67474 0.0
O484 O 0.98729 0.32107 0.69667 0.0
N485 N 0.96686 0.25435 0.67448 0.0
C486 C 0.95235 0.24529 0.66633 0.0
C487 C 0.94245 0.22884 0.67037 0.0
C488 C 0.94762 0.22187 0.68265 0.0
C489 C 0.96234 0.23155 0.69126 0.0
C490 C 0.97182 0.24779 0.68649 0.0
H491 H 0.94846 0.25051 0.65666 0.0
O492 O 0.95741 0.29384 0.6865 0.0
O493 O 0.97633 0.28695 0.68318 0.0
O494 O 0.9683 0.29784 0.65322 0.0
O495 O 0.97235 0.27647 0.64925 0.0
C496 C 0.9681 0.22568 0.7042 0.0
C497 C 0.98314 0.23614 0.71217 0.0
H498 H 0.0127 0.25986 0.72444 0.0
H499 H 0.02807 0.28801 0.71365 0.0
H500 H 0.931 0.22147 0.66381 0.0
H501 H 0.94024 0.20901 0.68526 0.0
H502 H 0.96101 0.21317 0.70819 0.0
H503 H 0.98735 0.23155 0.72224 0.0
Mn504 Mn 0.67738 0.66308 0.67607 0.0
Mn505 Mn 0.70797 0.69968 0.66481 0.0
C506 C 0.70178 0.67456 0.6907 0.0
C507 C 0.6533 0.64771 0.68987 0.0
C508 C 0.69891 0.66787 0.64667 0.0
O509 O 0.66622 0.67192 0.66099 0.0
O510 O 0.6871 0.69683 0.65587 0.0
C511 C 0.69927 0.72101 0.6841 0.0
N512 N 0.71027 0.71632 0.68011 0.0
C513 C 0.73091 0.73777 0.69728 0.0
C514 C 0.71983 0.74288 0.70154 0.0
C515 C 0.7039 0.7344 0.695 0.0
C516 C 0.72552 0.7242 0.68657 0.0
H517 H 0.68707 0.71461 0.67896 0.0
C518 C 0.6721 0.686 0.65459 0.0
O519 O 0.65693 0.64186 0.67705 0.0
O520 O 0.66377 0.66246 0.69483 0.0
N521 N 0.72903 0.70448 0.67254 0.0
C522 C 0.73796 0.69747 0.66785 0.0
C523 C 0.75413 0.70436 0.67345 0.0
C524 C 0.76103 0.71855 0.68355 0.0
C525 C 0.75158 0.7255 0.6883 0.0
C526 C 0.73552 0.71804 0.6824 0.0
H527 H 0.73281 0.68678 0.65978 0.0
O528 O 0.69155 0.65901 0.69148 0.0
O529 O 0.69718 0.6831 0.6818 0.0
O530 O 0.68778 0.6585 0.65631 0.0
O531 O 0.70683 0.68342 0.64837 0.0
C532 C 0.75747 0.73959 0.69857 0.0
C533 C 0.74708 0.74559 0.70324 0.0
H534 H 0.72339 0.75327 0.70985 0.0
H535 H 0.69527 0.73824 0.69826 0.0
H536 H 0.76134 0.6989 0.6698 0.0
H537 H 0.77359 0.724 0.68759 0.0
H538 H 0.76993 0.74585 0.70306 0.0
H539 H 0.75167 0.75623 0.7114 0.0
Mn540 Mn 0.33695 0.32132 0.67988 0.0
Mn541 Mn 0.37078 0.32186 0.69408 0.0
C542 C 0.34702 0.30709 0.66555 0.0
C543 C 0.32491 0.33383 0.66522 0.0
C544 C 0.33779 0.30155 0.70918 0.0
O545 O 0.34665 0.34032 0.69628 0.0
O546 O 0.37026 0.34145 0.70318 0.0
C547 C 0.39533 0.35139 0.67735 0.0
N548 N 0.38854 0.33511 0.68033 0.0
C549 C 0.40777 0.33276 0.66318 0.0
C550 C 0.41504 0.34953 0.66001 0.0
C551 C 0.40875 0.35887 0.66707 0.0
C552 C 0.3944 0.32598 0.67348 0.0
H553 H 0.39055 0.35862 0.68275 0.0
C554 C 0.3605 0.34719 0.70361 0.0
O555 O 0.31739 0.32367 0.67693 0.0
O556 O 0.3393 0.33647 0.66183 0.0
N557 N 0.37297 0.30388 0.68596 0.0
C558 C 0.36381 0.28766 0.68921 0.0
C559 C 0.36815 0.27654 0.68259 0.0
C560 C 0.38191 0.28221 0.67283 0.0
C561 C 0.39113 0.29896 0.66963 0.0
C562 C 0.3862 0.30946 0.67653 0.0
H563 H 0.35324 0.28322 0.69673 0.0
O564 O 0.33201 0.30344 0.66342 0.0
O565 O 0.35574 0.31918 0.6758 0.0
O566 O 0.3299 0.30516 0.69873 0.0
O567 O 0.35314 0.3075 0.70889 0.0
C568 C 0.40492 0.30562 0.65975 0.0
C569 C 0.41315 0.32248 0.65639 0.0
H570 H 0.42538 0.35533 0.65208 0.0
H571 H 0.41425 0.3718 0.66462 0.0
H572 H 0.36091 0.26362 0.68503 0.0
H573 H 0.38521 0.27359 0.66774 0.0
H574 H 0.40924 0.29786 0.65456 0.0
H575 H 0.42355 0.32739 0.6485 0.0
Mn576 Mn 0.68957 0.01991 0.66805 0.0
Mn577 Mn 0.72009 0.01274 0.65912 0.0
C578 C 0.71392 0.03355 0.68272 0.0
C579 C 0.66606 0.01399 0.68196 0.0
C580 C 0.71106 0.03364 0.63801 0.0
O581 O 0.67816 0.99844 0.65498 0.0
O582 O 0.69914 0.99412 0.65063 0.0
C583 C 0.71117 0.98421 0.68041 0.0
N584 N 0.72214 0.99964 0.67588 0.0
C585 C 0.74202 0.00073 0.69551 0.0
C586 C 0.73096 0.98482 0.70033 0.0
C587 C 0.71545 0.97656 0.6928 0.0
C588 C 0.73704 0.00776 0.68316 0.0
H589 H 0.69925 0.9778 0.67462 0.0
C590 C 0.68404 0.98976 0.64943 0.0
O591 O 0.66956 0.02162 0.66804 0.0
O592 O 0.67609 0.00948 0.68767 0.0
N593 N 0.74092 0.02961 0.66686 0.0
C594 C 0.74973 0.04528 0.66163 0.0
C595 C 0.76537 0.0554 0.66833 0.0
C596 C 0.77185 0.04925 0.68019 0.0
C597 C 0.76255 0.03309 0.68539 0.0
C598 C 0.74702 0.0236 0.67832 0.0
H599 H 0.74484 0.05005 0.65245 0.0
O600 O 0.70421 0.03956 0.68198 0.0
O601 O 0.70905 0.01971 0.67486 0.0
O602 O 0.69964 0.03231 0.64703 0.0
O603 O 0.71939 0.02667 0.64125 0.0
C604 C 0.76804 0.02604 0.69737 0.0
C605 C 0.75773 0.00993 0.70256 0.0
H606 H 0.73422 0.97887 0.70988 0.0
H607 H 0.70683 0.9643 0.6965 0.0
H608 H 0.77243 0.06789 0.66432 0.0
H609 H 0.78394 0.05708 0.6853 0.0
H610 H 0.78014 0.03294 0.70276 0.0
H611 H 0.76198 0.00477 0.71202 0.0
Mn612 Mn 0.97315 0.66602 0.68062 0.0
Mn613 Mn 0.93868 0.63265 0.69169 0.0
C614 C 0.94992 0.65639 0.66415 0.0
C615 C 0.99811 0.6782 0.66776 0.0
C616 C 0.95135 0.66604 0.70801 0.0
O617 O 0.98106 0.65542 0.69743 0.0
O618 O 0.95755 0.63272 0.7029 0.0
C619 C 0.94381 0.60698 0.67613 0.0
N620 N 0.93462 0.61432 0.67793 0.0
C621 C 0.91373 0.59447 0.65967 0.0
C622 C 0.92293 0.58665 0.65766 0.0
C623 C 0.93807 0.59299 0.66586 0.0
C624 C 0.92014 0.60845 0.66994 0.0
H625 H 0.95541 0.61175 0.68249 0.0
C626 C 0.97297 0.64173 0.70453 0.0
O627 O 0.99509 0.68555 0.6797 0.0
O628 O 0.98661 0.6637 0.6633 0.0
N629 N 0.91954 0.63091 0.68149 0.0
C630 C 0.91278 0.64061 0.68373 0.0
C631 C 0.89786 0.63633 0.67588 0.0
C632 C 0.88996 0.622 0.66602 0.0
C633 C 0.89717 0.61222 0.6639 0.0
C634 C 0.91212 0.6172 0.67189 0.0
H635 H 0.91873 0.65154 0.69143 0.0
O636 O 0.96139 0.67151 0.6633 0.0
O637 O 0.95243 0.64742 0.67461 0.0
O638 O 0.96366 0.67352 0.69899 0.0
O639 O 0.94137 0.65075 0.70647 0.0
C640 C 0.89014 0.59776 0.65413 0.0
C641 C 0.8985 0.589 0.65184 0.0
H642 H 0.91852 0.57582 0.6498 0.0
H643 H 0.94527 0.58705 0.66433 0.0
H644 H 0.89241 0.64398 0.67751 0.0
H645 H 0.87841 0.6187 0.66004 0.0
H646 H 0.87835 0.59333 0.64821 0.0
H647 H 0.89312 0.5781 0.64399 0.0
C648 C 0.20859 0.30754 0.0548 0.0
C649 C 0.22033 0.31237 0.06975 0.0
C650 C 0.20292 0.2971 0.09223 0.0
C651 C 0.20326 0.30988 0.10167 0.0
C652 C 0.19057 0.30696 0.11219 0.0
C653 C 0.17739 0.29089 0.11346 0.0
C654 C 0.17745 0.27784 0.10467 0.0
C655 C 0.19033 0.28111 0.09424 0.0
C656 C 0.19105 0.32112 0.12167 0.0
C657 C 0.16369 0.26054 0.10598 0.0
C658 C 0.07759 0.30153 0.06431 0.0
C659 C 0.08464 0.29224 0.07245 0.0
C660 C 0.10246 0.29562 0.09614 0.0
C661 C 0.10292 0.28104 0.09374 0.0
C662 C 0.11407 0.27818 0.10271 0.0
C663 C 0.12524 0.29033 0.11395 0.0
C664 C 0.12499 0.30519 0.11608 0.0
C665 C 0.11332 0.30743 0.10743 0.0
C666 C 0.11386 0.26215 0.10018 0.0
C667 C 0.1371 0.3188 0.12737 0.0
C668 C 0.09651 0.28105 0.21882 0.0
C669 C 0.09672 0.26625 0.21718 0.0
C670 C 0.1093 0.26562 0.20892 0.0
C671 C 0.12207 0.28013 0.2025 0.0
C672 C 0.12222 0.29515 0.20478 0.0
C673 C 0.10928 0.29533 0.21266 0.0
C674 C 0.10877 0.2494 0.20673 0.0
C675 C 0.13588 0.31101 0.19863 0.0
C676 C 0.23246 0.2717 0.22078 0.0
C677 C 0.22507 0.28186 0.22723 0.0
C678 C 0.19704 0.27415 0.21946 0.0
C679 C 0.18257 0.26032 0.21446 0.0
C680 C 0.17047 0.26175 0.20568 0.0
C681 C 0.17283 0.27746 0.20211 0.0
C682 C 0.1872 0.29156 0.20769 0.0
C683 C 0.19918 0.28977 0.21634 0.0
C684 C 0.15523 0.24645 0.20007 0.0
C685 C 0.18988 0.30849 0.20447 0.0
C686 C 0.16313 0.28799 0.12316 0.0
C687 C 0.15074 0.28926 0.11491 0.0
C688 C 0.13732 0.28764 0.12332 0.0
C689 C 0.13611 0.28456 0.14047 0.0
C690 C 0.12262 0.28249 0.14927 0.0
C691 C 0.12204 0.28058 0.16632 0.0
C692 C 0.13489 0.28053 0.17521 0.0
C693 C 0.13484 0.27954 0.19266 0.0
C694 C 0.14742 0.27873 0.20104 0.0
C695 C 0.16024 0.27907 0.19247 0.0
C696 C 0.16084 0.28074 0.17508 0.0
C697 C 0.17382 0.28167 0.1661 0.0
C698 C 0.17455 0.2839 0.14906 0.0
C699 C 0.16225 0.28512 0.14034 0.0
C700 C 0.14878 0.28363 0.14906 0.0
C701 C 0.14814 0.28155 0.16645 0.0
C702 C 0.05757 0.25868 0.22382 0.0
C703 C 0.07177 0.2706 0.23514 0.0
O704 O 0.21444 0.29982 0.08104 0.0
O705 O 0.20839 0.27187 0.22755 0.0
O706 O 0.0842 0.28217 0.22588 0.0
O707 O 0.0918 0.29878 0.0878 0.0
H708 H 0.22121 0.32364 0.0753 0.0
H709 H 0.19679 0.306 0.05879 0.0
H710 H 0.2064 0.29582 0.04906 0.0
H711 H 0.21352 0.31725 0.04539 0.0
H712 H 0.21341 0.32216 0.10089 0.0
H713 H 0.19033 0.27128 0.08713 0.0
H714 H 0.18051 0.32252 0.11787 0.0
H715 H 0.20233 0.33284 0.1196 0.0
H716 H 0.19013 0.31861 0.13512 0.0
H717 H 0.16598 0.25161 0.09913 0.0
H718 H 0.15236 0.25974 0.10096 0.0
H719 H 0.16174 0.25707 0.11918 0.0
H720 H 0.07658 0.27871 0.07242 0.0
H721 H 0.06421 0.29262 0.06323 0.0
H722 H 0.09192 0.31145 0.04362 0.0
H723 H 0.07639 0.30931 0.07426 0.0
H724 H 0.09447 0.27176 0.0851 0.0
H725 H 0.11289 0.31866 0.10912 0.0
H726 H 0.11396 0.25674 0.11232 0.0
H727 H 0.12492 0.26434 0.09365 0.0
H728 H 0.1031 0.25316 0.09276 0.0
H729 H 0.13744 0.33059 0.12497 0.0
H730 H 0.14945 0.32055 0.12584 0.0
H731 H 0.13375 0.3156 0.14043 0.0
H732 H 0.07618 0.26349 0.2424 0.0
H733 H 0.087 0.25508 0.22197 0.0
H734 H 0.10907 0.3067 0.21407 0.0
H735 H 0.11005 0.24715 0.19347 0.0
H736 H 0.09734 0.23903 0.21118 0.0
H737 H 0.11909 0.2497 0.21371 0.0
H738 H 0.13573 0.32183 0.20407 0.0
H739 H 0.13473 0.31136 0.18497 0.0
H740 H 0.14777 0.31194 0.20161 0.0
H741 H 0.22846 0.29206 0.21849 0.0
H742 H 0.24581 0.2794 0.21992 0.0
H743 H 0.22738 0.26669 0.20822 0.0
H744 H 0.22968 0.26133 0.22909 0.0
H745 H 0.18093 0.24834 0.21719 0.0
H746 H 0.21006 0.30055 0.22083 0.0
H747 H 0.15358 0.2465 0.18644 0.0
H748 H 0.14458 0.24621 0.2058 0.0
H749 H 0.15547 0.23513 0.2034 0.0
H750 H 0.20135 0.31821 0.21029 0.0
H751 H 0.17962 0.30969 0.20928 0.0
H752 H 0.19023 0.31046 0.19093 0.0
H753 H 0.15175 0.29192 0.10181 0.0
H754 H 0.11243 0.28256 0.1431 0.0
H755 H 0.11143 0.27926 0.17245 0.0
H756 H 0.14726 0.27787 0.21442 0.0
H757 H 0.18368 0.28092 0.17217 0.0
H758 H 0.18492 0.28477 0.14281 0.0
H759 H 0.05328 0.26533 0.21574 0.0
H760 H 0.04736 0.2499 0.23137 0.0
H761 H 0.06129 0.25157 0.21575 0.0
C762 C 0.7563 0.94257 0.06001 0.0
C763 C 0.73985 0.93075 0.06712 0.0
C764 C 0.73476 0.91643 0.09311 0.0
C765 C 0.71842 0.90458 0.09076 0.0
C766 C 0.71149 0.89035 0.1002 0.0
C767 C 0.72128 0.88773 0.11184 0.0
C768 C 0.73785 0.89969 0.11408 0.0
C769 C 0.74421 0.91412 0.10502 0.0
C770 C 0.69374 0.87811 0.09764 0.0
C771 C 0.74904 0.89721 0.12574 0.0
C772 C 0.69846 0.76604 0.07005 0.0
C773 C 0.70601 0.78307 0.07684 0.0
C774 C 0.69824 0.80093 0.09157 0.0
C775 C 0.7141 0.8126 0.09668 0.0
C776 C 0.71705 0.82647 0.1061 0.0
C777 C 0.70393 0.8288 0.11035 0.0
C778 C 0.688 0.81718 0.10507 0.0
C779 C 0.68537 0.80334 0.09583 0.0
C780 C 0.73417 0.83858 0.11163 0.0
C781 C 0.67375 0.81938 0.10923 0.0
C782 C 0.69895 0.80103 0.21736 0.0
C783 C 0.71408 0.81331 0.21194 0.0
C784 C 0.71546 0.82678 0.20329 0.0
C785 C 0.70146 0.82802 0.19985 0.0
C786 C 0.68623 0.81576 0.20526 0.0
C787 C 0.68518 0.8024 0.21394 0.0
C788 C 0.73193 0.83966 0.1977 0.0
C789 C 0.67107 0.8167 0.2017 0.0
C790 C 0.72932 0.95465 0.22046 0.0
C791 C 0.71683 0.93765 0.2262 0.0
C792 C 0.71982 0.91387 0.21884 0.0
C793 C 0.73195 0.91012 0.21519 0.0
C794 C 0.72843 0.89592 0.20612 0.0
C795 C 0.71227 0.88506 0.20081 0.0
C796 C 0.69981 0.88845 0.20501 0.0
C797 C 0.7037 0.90282 0.21406 0.0
C798 C 0.74199 0.89257 0.20208 0.0
C799 C 0.68242 0.87692 0.19984 0.0
C800 C 0.71451 0.87218 0.12106 0.0
C801 C 0.71163 0.85803 0.11235 0.0
C802 C 0.70683 0.84332 0.12044 0.0
C803 C 0.70525 0.84271 0.13781 0.0
C804 C 0.70137 0.82838 0.14646 0.0
C805 C 0.70039 0.82806 0.16361 0.0
C806 C 0.70312 0.84203 0.17277 0.0
C807 C 0.70284 0.84203 0.19025 0.0
C808 C 0.70536 0.85604 0.19897 0.0
C809 C 0.70852 0.87028 0.19071 0.0
C810 C 0.70918 0.87062 0.17323 0.0
C811 C 0.71264 0.88483 0.16453 0.0
C812 C 0.71404 0.88527 0.1474 0.0
C813 C 0.7121 0.87155 0.13833 0.0
C814 C 0.70784 0.85687 0.14677 0.0
C815 C 0.70655 0.85646 0.16426 0.0
C816 C 0.71407 0.77682 0.21746 0.0
C817 C 0.70914 0.78462 0.23135 0.0
O818 O 0.74175 0.93022 0.0841 0.0
O819 O 0.72417 0.92806 0.22727 0.0
O820 O 0.69704 0.7877 0.22575 0.0
O821 O 0.69483 0.78721 0.08267 0.0
H822 H 0.73589 0.91846 0.06142 0.0
H823 H 0.76517 0.93849 0.06315 0.0
H824 H 0.7609 0.95512 0.06522 0.0
H825 H 0.75533 0.94289 0.04631 0.0
H826 H 0.71105 0.90656 0.08169 0.0
H827 H 0.75682 0.92341 0.10672 0.0
H828 H 0.69244 0.86728 0.09068 0.0
H829 H 0.68724 0.88328 0.09055 0.0
H830 H 0.68785 0.87386 0.10973 0.0
H831 H 0.76199 0.90567 0.12317 0.0
H832 H 0.74676 0.88445 0.12484 0.0
H833 H 0.74686 0.89957 0.13865 0.0
H834 H 0.71524 0.79265 0.06888 0.0
H835 H 0.70695 0.75448 0.08622 0.0
H836 H 0.70129 0.76746 0.05651 0.0
H837 H 0.68518 0.76176 0.068 0.0
H838 H 0.7242 0.81092 0.09346 0.0
H839 H 0.6732 0.79429 0.09183 0.0
H840 H 0.73784 0.85063 0.10607 0.0
H841 H 0.74295 0.8346 0.10804 0.0
H842 H 0.73483 0.84031 0.12529 0.0
H843 H 0.66226 0.80977 0.10333 0.0
H844 H 0.67597 0.83155 0.10517 0.0
H845 H 0.67232 0.81896 0.12285 0.0
H846 H 0.72009 0.79626 0.23526 0.0
H847 H 0.7249 0.8125 0.21424 0.0
H848 H 0.67356 0.79291 0.2181 0.0
H849 H 0.73197 0.84 0.18398 0.0
H850 H 0.74177 0.83735 0.20206 0.0
H851 H 0.73459 0.8519 0.20238 0.0
H852 H 0.6601 0.80609 0.20661 0.0
H853 H 0.66936 0.81718 0.18813 0.0
H854 H 0.67235 0.82812 0.20729 0.0
H855 H 0.70681 0.9326 0.21674 0.0
H856 H 0.72375 0.96259 0.21929 0.0
H857 H 0.73383 0.95363 0.20817 0.0
H858 H 0.73978 0.96048 0.22937 0.0
H859 H 0.7443 0.91858 0.21922 0.0
H860 H 0.6941 0.90524 0.21751 0.0
H861 H 0.74252 0.89126 0.18848 0.0
H862 H 0.73962 0.88087 0.20764 0.0
H863 H 0.75397 0.90245 0.20677 0.0
H864 H 0.67407 0.88112 0.20435 0.0
H865 H 0.67857 0.86456 0.2047 0.0
H866 H 0.68134 0.87578 0.18614 0.0
H867 H 0.71346 0.85854 0.09911 0.0
H868 H 0.69927 0.81729 0.14009 0.0
H869 H 0.69754 0.81674 0.16962 0.0
H870 H 0.70538 0.85603 0.2124 0.0
H871 H 0.71449 0.89583 0.17088 0.0
H872 H 0.71683 0.89656 0.14136 0.0
H873 H 0.72277 0.77311 0.22234 0.0
H874 H 0.72005 0.78571 0.20749 0.0
H875 H 0.70336 0.76596 0.21186 0.0
C876 C 0.19048 0.90837 0.0522 0.0
C877 C 0.20197 0.91814 0.0667 0.0
C878 C 0.1883 0.89921 0.08937 0.0
C879 C 0.17613 0.90334 0.0919 0.0
C880 C 0.16313 0.89399 0.10223 0.0
C881 C 0.16208 0.88004 0.10992 0.0
C882 C 0.17438 0.87593 0.10748 0.0
C883 C 0.18747 0.88576 0.09747 0.0
C884 C 0.1504 0.89893 0.10476 0.0
C885 C 0.17354 0.86094 0.1151 0.0
C886 C 0.05096 0.81263 0.05237 0.0
C887 C 0.06327 0.80955 0.06181 0.0
C888 C 0.07649 0.82099 0.08847 0.0
C889 C 0.08874 0.81679 0.08833 0.0
C890 C 0.10252 0.82504 0.09877 0.0
C891 C 0.10426 0.83808 0.10914 0.0
C892 C 0.09186 0.84234 0.10918 0.0
C893 C 0.07791 0.83338 0.09918 0.0
C894 C 0.11526 0.81987 0.09859 0.0
C895 C 0.09342 0.85657 0.11946 0.0
C896 C 0.07834 0.81381 0.21582 0.0
C897 C 0.08863 0.80817 0.21009 0.0
C898 C 0.1028 0.81864 0.20171 0.0
C899 C 0.1066 0.83499 0.19887 0.0
C900 C 0.0964 0.84075 0.20496 0.0
C901 C 0.08253 0.83012 0.21359 0.0
C902 C 0.11364 0.81224 0.19579 0.0
C903 C 0.10005 0.85809 0.20225 0.0
C904 C 0.21246 0.9425 0.22469 0.0
C905 C 0.20729 0.92776 0.23594 0.0
C906 C 0.19091 0.90328 0.2183 0.0
C907 C 0.19015 0.8891 0.21175 0.0
C908 C 0.17643 0.87745 0.20274 0.0
C909 C 0.16328 0.88027 0.19991 0.0
C910 C 0.16394 0.89461 0.20646 0.0
C911 C 0.17767 0.90588 0.21573 0.0
C912 C 0.17605 0.86219 0.19615 0.0
C913 C 0.15018 0.89807 0.20363 0.0
C914 C 0.14768 0.86923 0.11971 0.0
C915 C 0.13331 0.85873 0.11102 0.0
C916 C 0.11936 0.84782 0.11925 0.0
C917 C 0.11981 0.84697 0.1367 0.0
C918 C 0.10627 0.83559 0.14536 0.0
C919 C 0.10664 0.83524 0.16256 0.0
C920 C 0.12065 0.84613 0.17177 0.0
C921 C 0.12107 0.84604 0.18928 0.0
C922 C 0.13519 0.85709 0.19804 0.0
C923 C 0.14895 0.86843 0.1898 0.0
C924 C 0.14874 0.86873 0.1723 0.0
C925 C 0.1623 0.88011 0.16362 0.0
C926 C 0.162 0.88029 0.14641 0.0
C927 C 0.1481 0.86919 0.13721 0.0
C928 C 0.13417 0.85785 0.14571 0.0
C929 C 0.13455 0.85751 0.16328 0.0
C930 C 0.03693 0.78397 0.21882 0.0
C931 C 0.05437 0.78735 0.22081 0.0
O932 O 0.20093 0.90766 0.0792 0.0
O933 O 0.20467 0.91409 0.22679 0.0
O934 O 0.06442 0.80399 0.22369 0.0
O935 O 0.06316 0.81334 0.0784 0.0
H936 H 0.19871 0.92721 0.07154 0.0
H937 H 0.17775 0.90191 0.05628 0.0
H938 H 0.19352 0.89916 0.04729 0.0
H939 H 0.19136 0.91669 0.0421 0.0
H940 H 0.17662 0.9138 0.08591 0.0
H941 H 0.19693 0.8827 0.0955 0.0
H942 H 0.13905 0.89011 0.09805 0.0
H943 H 0.15422 0.91138 0.10013 0.0
H944 H 0.14765 0.89861 0.11809 0.0
H945 H 0.18306 0.85842 0.11047 0.0
H946 H 0.16149 0.85005 0.11243 0.0
H947 H 0.17509 0.86267 0.12874 0.0
H948 H 0.07541 0.81791 0.0567 0.0
H949 H 0.05113 0.81025 0.0389 0.0
H950 H 0.05403 0.82558 0.05419 0.0
H951 H 0.03855 0.80459 0.0569 0.0
H952 H 0.08747 0.80697 0.08022 0.0
H953 H 0.0683 0.83644 0.09917 0.0
H954 H 0.11929 0.81922 0.11141 0.0
H955 H 0.12597 0.82908 0.09195 0.0
H956 H 0.11077 0.80779 0.09228 0.0
H957 H 0.08446 0.86029 0.11551 0.0
H958 H 0.10577 0.8673 0.11864 0.0
H959 H 0.09134 0.85306 0.13262 0.0
H960 H 0.0574 0.78347 0.20895 0.0
H961 H 0.08571 0.79567 0.2123 0.0
H962 H 0.07461 0.83438 0.21827 0.0
H963 H 0.11355 0.81201 0.18206 0.0
H964 H 0.10974 0.7997 0.20018 0.0
H965 H 0.12631 0.82052 0.20016 0.0
H966 H 0.0901 0.86017 0.20633 0.0
H967 H 0.10219 0.86109 0.18895 0.0
H968 H 0.11127 0.86662 0.2093 0.0
H969 H 0.19595 0.92531 0.24212 0.0
H970 H 0.21522 0.95358 0.2322 0.0
H971 H 0.20262 0.94024 0.21565 0.0
H972 H 0.22333 0.94494 0.21763 0.0
H973 H 0.20038 0.88716 0.2138 0.0
H974 H 0.17795 0.91673 0.2207 0.0
H975 H 0.17615 0.86238 0.18242 0.0
H976 H 0.1647 0.85119 0.19977 0.0
H977 H 0.18656 0.86108 0.20073 0.0
H978 H 0.15329 0.91057 0.20793 0.0
H979 H 0.13948 0.88908 0.21044 0.0
H980 H 0.14668 0.89667 0.19028 0.0
H981 H 0.13295 0.85917 0.09762 0.0
H982 H 0.09518 0.82686 0.13892 0.0
H983 H 0.09577 0.82634 0.16853 0.0
H984 H 0.13539 0.85705 0.21146 0.0
H985 H 0.17332 0.88901 0.17003 0.0
H986 H 0.17278 0.88931 0.1404 0.0
H987 H 0.02857 0.77077 0.2161 0.0
H988 H 0.03601 0.79109 0.20838 0.0
H989 H 0.03308 0.78759 0.23027 0.0
C990 C 0.28487 0.09835 0.96408 0.0
C991 C 0.28482 0.08739 0.94982 0.0
C992 C 0.2898 0.10652 0.92711 0.0
C993 C 0.27395 0.10388 0.92507 0.0
C994 C 0.27075 0.1142 0.91514 0.0
C995 C 0.28368 0.12755 0.90732 0.0
C996 C 0.29965 0.13023 0.90939 0.0
C997 C 0.30242 0.11947 0.91902 0.0
C998 C 0.25354 0.11083 0.913 0.0
C999 C 0.31383 0.14454 0.9016 0.0
C1000 C 0.25406 0.20784 0.96065 0.0
C1001 C 0.26868 0.21009 0.95095 0.0
C1002 C 0.2672 0.19574 0.92532 0.0
C1003 C 0.28284 0.1978 0.92493 0.0
C1004 C 0.28601 0.18721 0.91534 0.0
C1005 C 0.27314 0.17404 0.90637 0.0
C1006 C 0.2573 0.17191 0.90693 0.0
C1007 C 0.25466 0.1831 0.91606 0.0
C1008 C 0.3031 0.1901 0.91483 0.0
C1009 C 0.24308 0.15771 0.89812 0.0
C1010 C 0.26686 0.19486 0.79955 0.0
C1011 C 0.28253 0.19976 0.80573 0.0
C1012 C 0.2859 0.18867 0.81404 0.0
C1013 C 0.27322 0.17249 0.81651 0.0
C1014 C 0.25753 0.16746 0.80984 0.0
C1015 C 0.25465 0.17867 0.80118 0.0
C1016 C 0.30292 0.19428 0.82036 0.0
C1017 C 0.24372 0.15031 0.81204 0.0
C1018 C 0.26506 0.05962 0.79699 0.0
C1019 C 0.27472 0.07361 0.78512 0.0
C1020 C 0.28415 0.09928 0.80117 0.0
C1021 C 0.29795 0.11332 0.80716 0.0
C1022 C 0.2968 0.126 0.81517 0.0
C1023 C 0.28137 0.12439 0.81757 0.0
C1024 C 0.26732 0.11025 0.8115 0.0
C1025 C 0.26885 0.09791 0.80323 0.0
C1026 C 0.31206 0.14099 0.8213 0.0
C1027 C 0.25065 0.10808 0.81394 0.0
C1028 C 0.28059 0.13889 0.89718 0.0
C1029 C 0.2784 0.15077 0.90543 0.0
C1030 C 0.27614 0.1623 0.89671 0.0
C1031 C 0.27636 0.16222 0.87921 0.0
C1032 C 0.27469 0.17396 0.87003 0.0
C1033 C 0.27447 0.17351 0.85282 0.0
C1034 C 0.27631 0.16153 0.84409 0.0
C1035 C 0.27614 0.16099 0.82657 0.0
C1036 C 0.27802 0.14892 0.81832 0.0
C1037 C 0.27986 0.13715 0.82708 0.0
C1038 C 0.27991 0.13741 0.84458 0.0
C1039 C 0.28142 0.12557 0.85377 0.0
C1040 C 0.28158 0.12598 0.87097 0.0
C1041 C 0.28019 0.13823 0.87968 0.0
C1042 C 0.27828 0.15006 0.87068 0.0
C1043 C 0.27823 0.14971 0.8531 0.0
C1044 C 0.25532 0.22532 0.79697 0.0
C1045 C 0.26936 0.22177 0.79594 0.0
O1046 O 0.29354 0.09702 0.93677 0.0
O1047 O 0.28621 0.08739 0.7938 0.0
O1048 O 0.2631 0.20535 0.79185 0.0
O1049 O 0.26388 0.20579 0.93453 0.0
H1050 H 0.27215 0.07882 0.94562 0.0
H1051 H 0.27923 0.10566 0.95996 0.0
H1052 H 0.29748 0.10688 0.96847 0.0
H1053 H 0.27782 0.09087 0.9746 0.0
H1054 H 0.26402 0.09378 0.93109 0.0
H1055 H 0.31459 0.12137 0.92063 0.0
H1056 H 0.25232 0.12072 0.91924 0.0
H1057 H 0.24466 0.09895 0.9183 0.0
H1058 H 0.25048 0.11076 0.89966 0.0
H1059 H 0.32563 0.14611 0.90617 0.0
H1060 H 0.31354 0.15602 0.9042 0.0
H1061 H 0.31304 0.14264 0.88798 0.0
H1062 H 0.27263 0.2017 0.95636 0.0
H1063 H 0.25735 0.21069 0.97401 0.0
H1064 H 0.24414 0.19495 0.95938 0.0
H1065 H 0.24956 0.21596 0.95587 0.0
H1066 H 0.29257 0.2078 0.93194 0.0
H1067 H 0.24263 0.1817 0.91647 0.0
H1068 H 0.30644 0.18941 0.90187 0.0
H1069 H 0.30391 0.18041 0.92183 0.0
H1070 H 0.31204 0.20217 0.92036 0.0
H1071 H 0.23132 0.156 0.90246 0.0
H1072 H 0.2434 0.14619 0.9 0.0
H1073 H 0.24367 0.15997 0.88464 0.0
H1074 H 0.27542 0.22457 0.80842 0.0
H1075 H 0.29214 0.21219 0.80397 0.0
H1076 H 0.24267 0.17498 0.7961 0.0
H1077 H 0.30336 0.19536 0.83407 0.0
H1078 H 0.31179 0.20634 0.81538 0.0
H1079 H 0.30664 0.18516 0.81698 0.0
H1080 H 0.23188 0.14895 0.80792 0.0
H1081 H 0.24295 0.14682 0.82522 0.0
H1082 H 0.24595 0.14164 0.80468 0.0
H1083 H 0.26611 0.07644 0.77835 0.0
H1084 H 0.25643 0.04838 0.78989 0.0
H1085 H 0.25797 0.0629 0.80543 0.0
H1086 H 0.27323 0.05694 0.80471 0.0
H1087 H 0.3097 0.11431 0.8055 0.0
H1088 H 0.258 0.08717 0.79869 0.0
H1089 H 0.31243 0.14137 0.83504 0.0
H1090 H 0.31213 0.15222 0.81706 0.0
H1091 H 0.32316 0.14112 0.81696 0.0
H1092 H 0.24087 0.09579 0.80976 0.0
H1093 H 0.2494 0.11746 0.80683 0.0
H1094 H 0.24899 0.10992 0.82719 0.0
H1095 H 0.27843 0.15102 0.91886 0.0
H1096 H 0.27343 0.18359 0.87605 0.0
H1097 H 0.2729 0.18273 0.84647 0.0
H1098 H 0.27784 0.14853 0.8049 0.0
H1099 H 0.28251 0.11583 0.84777 0.0
H1100 H 0.28277 0.11655 0.87736 0.0
H1101 H 0.24877 0.22282 0.78482 0.0
H1102 H 0.25985 0.23829 0.8007 0.0
H1103 H 0.24667 0.21741 0.80636 0.0
C1104 C 0.8121 0.09589 0.97165 0.0
C1105 C 0.79959 0.0937 0.95816 0.0
C1106 C 0.81188 0.09823 0.93126 0.0
C1107 C 0.80886 0.11043 0.92517 0.0
C1108 C 0.81908 0.12159 0.91357 0.0
C1109 C 0.83248 0.12042 0.90789 0.0
C1110 C 0.83491 0.10747 0.91321 0.0
C1111 C 0.82443 0.09641 0.92475 0.0
C1112 C 0.8159 0.135 0.90783 0.0
C1113 C 0.84897 0.10576 0.90723 0.0
C1114 C 0.93675 0.23099 0.95634 0.0
C1115 C 0.92659 0.21448 0.94858 0.0
C1116 C 0.90302 0.2003 0.92973 0.0
C1117 C 0.90559 0.18713 0.92598 0.0
C1118 C 0.89487 0.17434 0.91527 0.0
C1119 C 0.88125 0.17466 0.9083 0.0
C1120 C 0.87872 0.18797 0.91195 0.0
C1121 C 0.88971 0.20066 0.92256 0.0
C1122 C 0.89793 0.16035 0.91157 0.0
C1123 C 0.86424 0.18862 0.90489 0.0
C1124 C 0.89985 0.19694 0.79544 0.0
C1125 C 0.90219 0.18376 0.79935 0.0
C1126 C 0.89225 0.17204 0.81069 0.0
C1127 C 0.8796 0.1735 0.81809 0.0
C1128 C 0.87772 0.18724 0.81471 0.0
C1129 C 0.88807 0.19895 0.80355 0.0
C1130 C 0.89488 0.15779 0.81427 0.0
C1131 C 0.86434 0.18915 0.8223 0.0
C1132 C 0.77553 0.05592 0.79729 0.0
C1133 C 0.78066 0.07187 0.7882 0.0
C1134 C 0.8079 0.09295 0.79746 0.0
C1135 C 0.82262 0.09385 0.80181 0.0
C1136 C 0.83412 0.10663 0.812 0.0
C1137 C 0.8309 0.11899 0.81768 0.0
C1138 C 0.81614 0.11833 0.81306 0.0
C1139 C 0.80478 0.10533 0.80295 0.0
C1140 C 0.84977 0.107 0.81657 0.0
C1141 C 0.81251 0.13153 0.81861 0.0
C1142 C 0.84487 0.13372 0.89788 0.0
C1143 C 0.85712 0.14727 0.90647 0.0
C1144 C 0.86907 0.16057 0.89813 0.0
C1145 C 0.86896 0.1604 0.88064 0.0
C1146 C 0.88093 0.17349 0.87183 0.0
C1147 C 0.88054 0.17332 0.8546 0.0
C1148 C 0.86814 0.16009 0.84554 0.0
C1149 C 0.86748 0.1599 0.82805 0.0
C1150 C 0.85512 0.14641 0.81945 0.0
C1151 C 0.84331 0.13299 0.8278 0.0
C1152 C 0.84364 0.13301 0.84529 0.0
C1153 C 0.83186 0.11977 0.85411 0.0
C1154 C 0.83223 0.11995 0.87134 0.0
C1155 C 0.84443 0.13334 0.88039 0.0
C1156 C 0.85652 0.14677 0.87174 0.0
C1157 C 0.8561 0.14662 0.85418 0.0
C1158 C 0.91707 0.21457 0.75506 0.0
C1159 C 0.90744 0.20165 0.7671 0.0
O1160 O 0.80304 0.08828 0.94357 0.0
O1161 O 0.79742 0.08042 0.78734 0.0
O1162 O 0.90824 0.20726 0.7832 0.0
O1163 O 0.91297 0.21281 0.94019 0.0
H1164 H 0.80073 0.10597 0.95667 0.0
H1165 H 0.82427 0.1058 0.9682 0.0
H1166 H 0.81279 0.08453 0.97319 0.0
H1167 H 0.809 0.09937 0.98365 0.0
H1168 H 0.79865 0.11136 0.92964 0.0
H1169 H 0.82645 0.08673 0.92931 0.0
H1170 H 0.82576 0.147 0.91258 0.0
H1171 H 0.80416 0.13334 0.91219 0.0
H1172 H 0.81589 0.1354 0.89411 0.0
H1173 H 0.84867 0.09451 0.91179 0.0
H1174 H 0.86052 0.11654 0.91152 0.0
H1175 H 0.84887 0.10549 0.89349 0.0
H1176 H 0.9239 0.20398 0.95674 0.0
H1177 H 0.95839 0.24067 0.94339 0.0
H1178 H 0.93622 0.2288 0.97004 0.0
H1179 H 0.92901 0.23701 0.95669 0.0
H1180 H 0.91586 0.18668 0.93142 0.0
H1181 H 0.88785 0.21088 0.9255 0.0
H1182 H 0.88821 0.14898 0.91693 0.0
H1183 H 0.9098 0.1626 0.91673 0.0
H1184 H 0.89759 0.15828 0.89799 0.0
H1185 H 0.86383 0.19967 0.90919 0.0
H1186 H 0.85291 0.17758 0.90849 0.0
H1187 H 0.86454 0.1886 0.89117 0.0
H1188 H 0.90877 0.19052 0.76624 0.0
H1189 H 0.91161 0.18249 0.7933 0.0
H1190 H 0.88648 0.20927 0.80048 0.0
H1191 H 0.89445 0.15564 0.82778 0.0
H1192 H 0.90665 0.15977 0.80966 0.0
H1193 H 0.88503 0.14658 0.80816 0.0
H1194 H 0.86432 0.20038 0.81817 0.0
H1195 H 0.8657 0.18968 0.83599 0.0
H1196 H 0.85242 0.17836 0.81896 0.0
H1197 H 0.77617 0.07894 0.79531 0.0
H1198 H 0.76214 0.04888 0.79829 0.0
H1199 H 0.78099 0.05867 0.80999 0.0
H1200 H 0.77964 0.04826 0.79066 0.0
H1201 H 0.82502 0.08439 0.79728 0.0
H1202 H 0.79376 0.10518 0.799 0.0
H1203 H 0.85159 0.10791 0.83023 0.0
H1204 H 0.86007 0.118 0.8113 0.0
H1205 H 0.85004 0.09597 0.81195 0.0
H1206 H 0.80042 0.12921 0.81408 0.0
H1207 H 0.8219 0.14354 0.81403 0.0
H1208 H 0.81295 0.1324 0.83233 0.0
H1209 H 0.85726 0.14755 0.9199 0.0
H1210 H 0.89071 0.18403 0.87818 0.0
H1211 H 0.89005 0.18373 0.84846 0.0
H1212 H 0.85475 0.14631 0.80602 0.0
H1213 H 0.82219 0.10914 0.84777 0.0
H1214 H 0.82282 0.10947 0.8775 0.0
H1215 H 0.92653 0.2116 0.75073 0.0
H1216 H 0.92585 0.2257 0.76261 0.0
H1217 H 0.89938 0.21442 0.73905 0.0
C1218 C 0.79944 0.7411 0.9515 0.0
C1219 C 0.78809 0.72545 0.9415 0.0
C1220 C 0.80586 0.71605 0.9294 0.0
C1221 C 0.81436 0.72934 0.91894 0.0
C1222 C 0.82664 0.73013 0.9089 0.0
C1223 C 0.82997 0.71699 0.90873 0.0
C1224 C 0.82091 0.70327 0.91871 0.0
C1225 C 0.80916 0.70313 0.92909 0.0
C1226 C 0.83633 0.74523 0.89884 0.0
C1227 C 0.82384 0.68889 0.91876 0.0
C1228 C 0.91601 0.73534 0.97713 0.0
C1229 C 0.91452 0.7239 0.96276 0.0
C1230 C 0.90874 0.73017 0.93527 0.0
C1231 C 0.89747 0.71437 0.92953 0.0
C1232 C 0.8858 0.71199 0.91729 0.0
C1233 C 0.88546 0.7257 0.91067 0.0
C1234 C 0.89749 0.74168 0.91567 0.0
C1235 C 0.90913 0.74371 0.92782 0.0
C1236 C 0.87344 0.69479 0.9119 0.0
C1237 C 0.89758 0.75656 0.90872 0.0
C1238 C 0.91495 0.73355 0.80448 0.0
C1239 C 0.90552 0.71747 0.80995 0.0
C1240 C 0.89084 0.71267 0.81789 0.0
C1241 C 0.88566 0.72425 0.82061 0.0
C1242 C 0.89495 0.74033 0.81467 0.0
C1243 C 0.90936 0.74467 0.80646 0.0
C1244 C 0.88094 0.69528 0.82352 0.0
C1245 C 0.88976 0.753 0.81711 0.0
C1246 C 0.77645 0.72085 0.79814 0.0
C1247 C 0.78425 0.71547 0.78477 0.0
C1248 C 0.80125 0.70669 0.79999 0.0
C1249 C 0.80316 0.69327 0.80392 0.0
C1250 C 0.81661 0.69523 0.81332 0.0
C1251 C 0.82841 0.71103 0.819 0.0
C1252 C 0.82659 0.72468 0.81512 0.0
C1253 C 0.81307 0.72239 0.80567 0.0
C1254 C 0.81816 0.68041 0.81734 0.0
C1255 C 0.8389 0.74171 0.82108 0.0
C1256 C 0.84372 0.71816 0.89918 0.0
C1257 C 0.85782 0.72149 0.90805 0.0
C1258 C 0.87148 0.72322 0.90006 0.0
C1259 C 0.87138 0.72216 0.88261 0.0
C1260 C 0.88517 0.72463 0.87412 0.0
C1261 C 0.88504 0.72395 0.85691 0.0
C1262 C 0.87099 0.72036 0.84754 0.0
C1263 C 0.87079 0.71982 0.83002 0.0
C1264 C 0.8566 0.71623 0.82113 0.0
C1265 C 0.84258 0.71335 0.82923 0.0
C1266 C 0.84256 0.71388 0.84672 0.0
C1267 C 0.82866 0.71106 0.85527 0.0
C1268 C 0.82893 0.71222 0.87245 0.0
C1269 C 0.84312 0.71631 0.88175 0.0
C1270 C 0.85711 0.71862 0.87343 0.0
C1271 C 0.85685 0.71749 0.85589 0.0
C1272 C 0.95728 0.74771 0.80152 0.0
C1273 C 0.94014 0.73307 0.80003 0.0
O1274 O 0.79475 0.71528 0.94027 0.0
O1275 O 0.78786 0.70388 0.79089 0.0
O1276 O 0.92939 0.73879 0.79716 0.0
O1277 O 0.91901 0.73265 0.94825 0.0
H1278 H 0.78614 0.72899 0.92892 0.0
H1279 H 0.81077 0.74868 0.94481 0.0
H1280 H 0.80284 0.73818 0.9637 0.0
H1281 H 0.79347 0.74857 0.95349 0.0
H1282 H 0.81183 0.73935 0.91879 0.0
H1283 H 0.80249 0.69288 0.93712 0.0
H1284 H 0.84949 0.74958 0.9003 0.0
H1285 H 0.83411 0.75537 0.90247 0.0
H1286 H 0.83294 0.74226 0.88555 0.0
H1287 H 0.81371 0.67796 0.92434 0.0
H1288 H 0.83508 0.69221 0.92609 0.0
H1289 H 0.82552 0.68565 0.90598 0.0
H1290 H 0.90148 0.71432 0.96215 0.0
H1291 H 0.91334 0.72877 0.98902 0.0
H1292 H 0.90714 0.73968 0.97517 0.0
H1293 H 0.9283 0.74624 0.97799 0.0
H1294 H 0.8976 0.7039 0.93484 0.0
H1295 H 0.91808 0.75586 0.93216 0.0
H1296 H 0.87278 0.69368 0.89818 0.0
H1297 H 0.8613 0.69203 0.91612 0.0
H1298 H 0.87628 0.68554 0.91701 0.0
H1299 H 0.90829 0.76813 0.91314 0.0
H1300 H 0.88643 0.7567 0.91239 0.0
H1301 H 0.8975 0.75601 0.89499 0.0
H1302 H 0.93765 0.72669 0.81207 0.0
H1303 H 0.90954 0.70864 0.80792 0.0
H1304 H 0.91661 0.75696 0.80194 0.0
H1305 H 0.88107 0.69511 0.83724 0.0
H1306 H 0.88568 0.68732 0.81888 0.0
H1307 H 0.86814 0.69008 0.8192 0.0
H1308 H 0.89922 0.76538 0.81343 0.0
H1309 H 0.88687 0.75357 0.83027 0.0
H1310 H 0.87862 0.74947 0.80953 0.0
H1311 H 0.79554 0.72649 0.781 0.0
H1312 H 0.77257 0.72929 0.79287 0.0
H1313 H 0.78524 0.72741 0.80846 0.0
H1314 H 0.7658 0.71016 0.80338 0.0
H1315 H 0.79402 0.6812 0.79956 0.0
H1316 H 0.81186 0.73298 0.80295 0.0
H1317 H 0.81868 0.6793 0.83097 0.0
H1318 H 0.82964 0.68191 0.81241 0.0
H1319 H 0.8079 0.66892 0.81208 0.0
H1320 H 0.836 0.75113 0.81663 0.0
H1321 H 0.85109 0.74479 0.81678 0.0
H1322 H 0.83947 0.74221 0.83482 0.0
H1323 H 0.85815 0.7227 0.92144 0.0
H1324 H 0.89628 0.72738 0.88071 0.0
H1325 H 0.89611 0.72624 0.85105 0.0
H1326 H 0.85662 0.71613 0.80771 0.0
H1327 H 0.81743 0.70803 0.84875 0.0
H1328 H 0.8179 0.70998 0.87837 0.0
H1329 H 0.96619 0.74355 0.80419 0.0
H1330 H 0.958 0.75596 0.81183 0.0
H1331 H 0.96057 0.75473 0.78989 0.0
C1332 C 0.89545 0.61655 0.43067 0.0
C1333 C 0.8938 0.62686 0.41698 0.0
C1334 C 0.87682 0.63655 0.43043 0.0
C1335 C 0.87727 0.65006 0.43831 0.0
C1336 C 0.86365 0.64877 0.44614 0.0
C1337 C 0.84916 0.63353 0.44605 0.0
C1338 C 0.84842 0.61988 0.43771 0.0
C1339 C 0.86225 0.62151 0.42994 0.0
C1340 C 0.86483 0.66364 0.45478 0.0
C1341 C 0.83309 0.6035 0.43731 0.0
C1342 C 0.74441 0.64276 0.40084 0.0
C1343 C 0.75393 0.63548 0.40786 0.0
C1344 C 0.77615 0.64243 0.42786 0.0
C1345 C 0.77457 0.62675 0.4281 0.0
C1346 C 0.78578 0.62395 0.43699 0.0
C1347 C 0.7989 0.6371 0.44566 0.0
C1348 C 0.8006 0.65291 0.44529 0.0
C1349 C 0.78907 0.65531 0.43654 0.0
C1350 C 0.78356 0.60691 0.43723 0.0
C1351 C 0.81456 0.66726 0.45419 0.0
C1352 C 0.771 0.62995 0.55232 0.0
C1353 C 0.76624 0.61514 0.54371 0.0
C1354 C 0.77758 0.61272 0.53498 0.0
C1355 C 0.79385 0.62551 0.53449 0.0
C1356 C 0.79869 0.64031 0.54338 0.0
C1357 C 0.78722 0.6422 0.55238 0.0
C1358 C 0.77213 0.59655 0.52616 0.0
C1359 C 0.81593 0.65424 0.54322 0.0
C1360 C 0.89722 0.60222 0.55178 0.0
C1361 C 0.89016 0.61331 0.55592 0.0
C1362 C 0.86281 0.60818 0.54864 0.0
C1363 C 0.84754 0.59566 0.54344 0.0
C1364 C 0.83629 0.59915 0.53571 0.0
C1365 C 0.84039 0.61564 0.5334 0.0
C1366 C 0.85554 0.62841 0.53939 0.0
C1367 C 0.86663 0.62455 0.54695 0.0
C1368 C 0.82018 0.58525 0.52963 0.0
C1369 C 0.86009 0.64611 0.53751 0.0
C1370 C 0.83505 0.63181 0.45532 0.0
C1371 C 0.82359 0.63451 0.44697 0.0
C1372 C 0.81068 0.63423 0.45531 0.0
C1373 C 0.80925 0.63144 0.47253 0.0
C1374 C 0.79681 0.63174 0.48144 0.0
C1375 C 0.79578 0.62942 0.49844 0.0
C1376 C 0.80681 0.62616 0.50713 0.0
C1377 C 0.80582 0.62368 0.52441 0.0
C1378 C 0.81686 0.62023 0.53258 0.0
C1379 C 0.82913 0.61946 0.52402 0.0
C1380 C 0.83053 0.62224 0.50681 0.0
C1381 C 0.84293 0.62188 0.49788 0.0
C1382 C 0.84444 0.62501 0.48104 0.0
C1383 C 0.83346 0.62836 0.47239 0.0
C1384 C 0.82063 0.62839 0.48106 0.0
C1385 C 0.81928 0.62553 0.49834 0.0
C1386 C 0.74014 0.63071 0.54127 0.0
C1387 C 0.74386 0.62584 0.5582 0.0
O1388 O 0.89074 0.63866 0.42371 0.0
O1389 O 0.87341 0.6039 0.55523 0.0
O1390 O 0.76049 0.633 0.56072 0.0
O1391 O 0.76553 0.64564 0.41952 0.0
H1392 H 0.88372 0.61878 0.40826 0.0
H1393 H 0.884 0.60987 0.43744 0.0
H1394 H 0.90527 0.62446 0.4397 0.0
H1395 H 0.89828 0.60737 0.42525 0.0
H1396 H 0.88851 0.66163 0.43852 0.0
H1397 H 0.86158 0.61096 0.4237 0.0
H1398 H 0.85508 0.66591 0.45005 0.0
H1399 H 0.87672 0.67479 0.45303 0.0
H1400 H 0.86306 0.66139 0.46824 0.0
H1401 H 0.83435 0.59409 0.43009 0.0
H1402 H 0.82298 0.60477 0.4318 0.0
H1403 H 0.82976 0.59917 0.45014 0.0
H1404 H 0.75875 0.63024 0.39856 0.0
H1405 H 0.74761 0.64455 0.3874 0.0
H1406 H 0.75127 0.6562 0.40421 0.0
H1407 H 0.72089 0.62718 0.40863 0.0
H1408 H 0.76453 0.61665 0.42153 0.0
H1409 H 0.79017 0.66734 0.43629 0.0
H1410 H 0.79412 0.60693 0.43152 0.0
H1411 H 0.77236 0.59786 0.43044 0.0
H1412 H 0.78306 0.60296 0.45021 0.0
H1413 H 0.81487 0.679 0.45159 0.0
H1414 H 0.82621 0.66824 0.45046 0.0
H1415 H 0.81357 0.66531 0.46773 0.0
H1416 H 0.73821 0.61231 0.55868 0.0
H1417 H 0.75377 0.60542 0.54382 0.0
H1418 H 0.79078 0.65351 0.5592 0.0
H1419 H 0.77213 0.59822 0.5126 0.0
H1420 H 0.75975 0.58712 0.52964 0.0
H1421 H 0.78067 0.59198 0.52902 0.0
H1422 H 0.81736 0.66546 0.54948 0.0
H1423 H 0.81998 0.65718 0.53028 0.0
H1424 H 0.82401 0.65052 0.54961 0.0
H1425 H 0.89442 0.62289 0.54633 0.0
H1426 H 0.91066 0.60941 0.55163 0.0
H1427 H 0.89274 0.59645 0.53934 0.0
H1428 H 0.89354 0.59239 0.56101 0.0
H1429 H 0.84463 0.58307 0.54506 0.0
H1430 H 0.87821 0.63432 0.55152 0.0
H1431 H 0.81885 0.58607 0.51605 0.0
H1432 H 0.8102 0.58621 0.53551 0.0
H1433 H 0.81885 0.57309 0.53238 0.0
H1434 H 0.87178 0.65457 0.54392 0.0
H1435 H 0.85046 0.64823 0.54254 0.0
H1436 H 0.8611 0.64909 0.52417 0.0
H1437 H 0.82484 0.63706 0.43385 0.0
H1438 H 0.78785 0.634 0.47542 0.0
H1439 H 0.78612 0.6301 0.50466 0.0
H1440 H 0.816 0.61829 0.54582 0.0
H1441 H 0.85172 0.61932 0.50383 0.0
H1442 H 0.85432 0.62471 0.47486 0.0
H1443 H 0.72686 0.62498 0.53897 0.0
H1444 H 0.7451 0.62652 0.5312 0.0
H1445 H 0.74563 0.64422 0.54069 0.0
C1446 C 0.40802 0.28174 0.39399 0.0
C1447 C 0.39242 0.26978 0.40248 0.0
C1448 C 0.39058 0.25456 0.42726 0.0
C1449 C 0.37445 0.24194 0.42567 0.0
C1450 C 0.3691 0.22736 0.43437 0.0
C1451 C 0.38024 0.22525 0.44451 0.0
C1452 C 0.39658 0.23798 0.44596 0.0
C1453 C 0.40139 0.25265 0.43766 0.0
C1454 C 0.35156 0.21422 0.43269 0.0
C1455 C 0.40906 0.23608 0.45606 0.0
C1456 C 0.37683 0.13401 0.38924 0.0
C1457 C 0.37192 0.12407 0.40512 0.0
C1458 C 0.36321 0.14014 0.42216 0.0
C1459 C 0.37877 0.15289 0.42675 0.0
C1460 C 0.38075 0.16643 0.43616 0.0
C1461 C 0.36694 0.16736 0.44088 0.0
C1462 C 0.35131 0.15473 0.43598 0.0
C1463 C 0.34967 0.1412 0.42686 0.0
C1464 C 0.3976 0.17963 0.44128 0.0
C1465 C 0.33632 0.15546 0.44051 0.0
C1466 C 0.35826 0.13401 0.54583 0.0
C1467 C 0.37355 0.14577 0.54022 0.0
C1468 C 0.37568 0.16 0.53256 0.0
C1469 C 0.36221 0.16238 0.53005 0.0
C1470 C 0.34682 0.15058 0.53557 0.0
C1471 C 0.34508 0.13657 0.54345 0.0
C1472 C 0.39234 0.17243 0.52699 0.0
C1473 C 0.3322 0.1527 0.53297 0.0
C1474 C 0.39269 0.28719 0.55584 0.0
C1475 C 0.37945 0.27119 0.56284 0.0
C1476 C 0.38107 0.24699 0.55419 0.0
C1477 C 0.39309 0.24318 0.55024 0.0
C1478 C 0.38963 0.22969 0.53997 0.0
C1479 C 0.37362 0.21955 0.53382 0.0
C1480 C 0.36125 0.22302 0.5382 0.0
C1481 C 0.3651 0.23672 0.54838 0.0
C1482 C 0.4031 0.22627 0.53569 0.0
C1483 C 0.34399 0.2122 0.53217 0.0
C1484 C 0.37497 0.20963 0.45326 0.0
C1485 C 0.37277 0.19603 0.44394 0.0
C1486 C 0.36884 0.18124 0.45147 0.0
C1487 C 0.3672 0.17994 0.46882 0.0
C1488 C 0.36369 0.16538 0.47684 0.0
C1489 C 0.36242 0.16429 0.49394 0.0
C1490 C 0.36479 0.17778 0.50372 0.0
C1491 C 0.36423 0.177 0.52117 0.0
C1492 C 0.36668 0.19063 0.53055 0.0
C1493 C 0.36985 0.2052 0.52298 0.0
C1494 C 0.37047 0.20622 0.50553 0.0
C1495 C 0.37363 0.22067 0.49749 0.0
C1496 C 0.37474 0.2217 0.48035 0.0
C1497 C 0.37299 0.20842 0.4706 0.0
C1498 C 0.36931 0.19359 0.47841 0.0
C1499 C 0.36806 0.19249 0.49589 0.0
C1500 C 0.37007 0.10695 0.54336 0.0
C1501 C 0.36707 0.11563 0.55793 0.0
O1502 O 0.39605 0.2687 0.41894 0.0
O1503 O 0.38524 0.26027 0.56412 0.0
O1504 O 0.35563 0.12006 0.55345 0.0
O1505 O 0.36062 0.12664 0.41331 0.0
H1506 H 0.38776 0.25767 0.39608 0.0
H1507 H 0.41698 0.27743 0.39506 0.0
H1508 H 0.41336 0.29413 0.39986 0.0
H1509 H 0.40558 0.28256 0.38064 0.0
H1510 H 0.36603 0.24359 0.41781 0.0
H1511 H 0.41381 0.26253 0.43879 0.0
H1512 H 0.35063 0.2037 0.42544 0.0
H1513 H 0.34402 0.21865 0.42632 0.0
H1514 H 0.34654 0.20973 0.44507 0.0
H1515 H 0.42161 0.24557 0.45319 0.0
H1516 H 0.40782 0.22383 0.45381 0.0
H1517 H 0.40722 0.23721 0.46941 0.0
H1518 H 0.38279 0.12781 0.41327 0.0
H1519 H 0.38606 0.13228 0.38266 0.0
H1520 H 0.38216 0.14726 0.3922 0.0
H1521 H 0.36609 0.13018 0.38087 0.0
H1522 H 0.38942 0.15237 0.42321 0.0
H1523 H 0.33773 0.13136 0.42323 0.0
H1524 H 0.40012 0.19138 0.43569 0.0
H1525 H 0.40705 0.1767 0.43739 0.0
H1526 H 0.39849 0.18145 0.45493 0.0
H1527 H 0.32522 0.14559 0.43427 0.0
H1528 H 0.33765 0.16748 0.43715 0.0
H1529 H 0.33477 0.15425 0.4541 0.0
H1530 H 0.37885 0.12665 0.56124 0.0
H1531 H 0.38391 0.14399 0.54159 0.0
H1532 H 0.33333 0.12746 0.54773 0.0
H1533 H 0.39246 0.17254 0.51327 0.0
H1534 H 0.40187 0.16973 0.53155 0.0
H1535 H 0.39544 0.18487 0.53143 0.0
H1536 H 0.32094 0.14213 0.53745 0.0
H1537 H 0.33053 0.15426 0.5196 0.0
H1538 H 0.33416 0.16395 0.53961 0.0
H1539 H 0.36884 0.26647 0.55411 0.0
H1540 H 0.38832 0.29613 0.55452 0.0
H1541 H 0.39603 0.28482 0.54343 0.0
H1542 H 0.40368 0.2926 0.56407 0.0
H1543 H 0.40531 0.25102 0.55505 0.0
H1544 H 0.35556 0.23915 0.55204 0.0
H1545 H 0.40383 0.22551 0.52204 0.0
H1546 H 0.40046 0.21428 0.54071 0.0
H1547 H 0.41506 0.23583 0.54076 0.0
H1548 H 0.33567 0.21631 0.537 0.0
H1549 H 0.33969 0.19943 0.53604 0.0
H1550 H 0.3434 0.21212 0.51844 0.0
H1551 H 0.37437 0.19703 0.43067 0.0
H1552 H 0.36198 0.15466 0.47001 0.0
H1553 H 0.3597 0.15277 0.4994 0.0
H1554 H 0.36654 0.19004 0.54395 0.0
H1555 H 0.37535 0.23137 0.50437 0.0
H1556 H 0.37716 0.23312 0.47485 0.0
H1557 H 0.37783 0.10178 0.54743 0.0
H1558 H 0.3764 0.1158 0.53345 0.0
H1559 H 0.3585 0.09703 0.53796 0.0
C1560 C 0.86626 0.2472 0.37681 0.0
C1561 C 0.87658 0.25312 0.39286 0.0
C1562 C 0.86105 0.22937 0.4106 0.0
C1563 C 0.84838 0.23252 0.41411 0.0
C1564 C 0.83501 0.22139 0.42313 0.0
C1565 C 0.8342 0.20673 0.42855 0.0
C1566 C 0.84683 0.20344 0.42482 0.0
C1567 C 0.86017 0.21491 0.41607 0.0
C1568 C 0.82182 0.22534 0.42703 0.0
C1569 C 0.84626 0.18781 0.43012 0.0
C1570 C 0.72091 0.13005 0.37601 0.0
C1571 C 0.7329 0.12702 0.38612 0.0
C1572 C 0.74834 0.14238 0.41074 0.0
C1573 C 0.7612 0.13907 0.40999 0.0
C1574 C 0.77563 0.14863 0.4192 0.0
C1575 C 0.77729 0.16192 0.42908 0.0
C1576 C 0.76432 0.16529 0.42973 0.0
C1577 C 0.74987 0.1552 0.42084 0.0
C1578 C 0.78907 0.14448 0.41842 0.0
C1579 C 0.76573 0.17964 0.43966 0.0
C1580 C 0.7566 0.13476 0.53589 0.0
C1581 C 0.76719 0.13003 0.52908 0.0
C1582 C 0.78075 0.14123 0.52033 0.0
C1583 C 0.78364 0.15739 0.51828 0.0
C1584 C 0.77316 0.16224 0.5255 0.0
C1585 C 0.7599 0.15089 0.53443 0.0
C1586 C 0.79196 0.13581 0.5132 0.0
C1587 C 0.77587 0.17937 0.52369 0.0
C1588 C 0.88824 0.26824 0.53972 0.0
C1589 C 0.88377 0.25404 0.55157 0.0
C1590 C 0.86721 0.22878 0.53509 0.0
C1591 C 0.86664 0.21462 0.52873 0.0
C1592 C 0.85276 0.20249 0.5203 0.0
C1593 C 0.83919 0.20473 0.51797 0.0
C1594 C 0.83963 0.219 0.5244 0.0
C1595 C 0.85358 0.23083 0.53296 0.0
C1596 C 0.85267 0.18739 0.51367 0.0
C1597 C 0.82541 0.22184 0.52203 0.0
C1598 C 0.82035 0.19499 0.43845 0.0
C1599 C 0.8059 0.1841 0.4301 0.0
C1600 C 0.79259 0.1724 0.43865 0.0
C1601 C 0.79381 0.17126 0.45601 0.0
C1602 C 0.78091 0.15927 0.46495 0.0
C1603 C 0.78205 0.15856 0.48208 0.0
C1604 C 0.79622 0.16968 0.49093 0.0
C1605 C 0.79743 0.16919 0.50837 0.0
C1606 C 0.81166 0.18054 0.51677 0.0
C1607 C 0.82477 0.19252 0.50824 0.0
C1608 C 0.82379 0.19318 0.49081 0.0
C1609 C 0.83671 0.20515 0.48187 0.0
C1610 C 0.83562 0.20576 0.46474 0.0
C1611 C 0.82154 0.19448 0.45588 0.0
C1612 C 0.80828 0.18246 0.46466 0.0
C1613 C 0.80946 0.18172 0.48214 0.0
C1614 C 0.71625 0.10543 0.53631 0.0
C1615 C 0.73308 0.10784 0.54052 0.0
O1616 O 0.87431 0.23978 0.40202 0.0
O1617 O 0.88116 0.24011 0.54292 0.0
O1618 O 0.74335 0.12427 0.54433 0.0
O1619 O 0.73428 0.1334 0.40197 0.0
H1620 H 0.87309 0.2609 0.40021 0.0
H1621 H 0.86784 0.25776 0.3694 0.0
H1622 H 0.86978 0.23956 0.36926 0.0
H1623 H 0.85323 0.23977 0.37961 0.0
H1624 H 0.84885 0.24366 0.41001 0.0
H1625 H 0.86997 0.21257 0.4133 0.0
H1626 H 0.8103 0.21618 0.42083 0.0
H1627 H 0.82474 0.23772 0.42291 0.0
H1628 H 0.81982 0.22461 0.44056 0.0
H1629 H 0.85608 0.18626 0.42465 0.0
H1630 H 0.8344 0.1771 0.42646 0.0
H1631 H 0.84752 0.18789 0.4438 0.0
H1632 H 0.74477 0.1336 0.3799 0.0
H1633 H 0.71984 0.12545 0.36308 0.0
H1634 H 0.72522 0.14339 0.3757 0.0
H1635 H 0.70875 0.12383 0.3816 0.0
H1636 H 0.75989 0.1289 0.40242 0.0
H1637 H 0.73981 0.15758 0.42135 0.0
H1638 H 0.79338 0.14383 0.43111 0.0
H1639 H 0.79947 0.15428 0.4119 0.0
H1640 H 0.78518 0.13266 0.41179 0.0
H1641 H 0.75572 0.18217 0.43665 0.0
H1642 H 0.77745 0.19082 0.43738 0.0
H1643 H 0.76537 0.17703 0.45305 0.0
H1644 H 0.73716 0.10396 0.52938 0.0
H1645 H 0.76503 0.11771 0.53078 0.0
H1646 H 0.75178 0.15445 0.54001 0.0
H1647 H 0.79131 0.13596 0.49949 0.0
H1648 H 0.78882 0.12328 0.51703 0.0
H1649 H 0.80466 0.14445 0.51719 0.0
H1650 H 0.76575 0.18072 0.52866 0.0
H1651 H 0.77733 0.18278 0.51047 0.0
H1652 H 0.78721 0.1881 0.53047 0.0
H1653 H 0.87255 0.25167 0.55796 0.0
H1654 H 0.89137 0.27964 0.54682 0.0
H1655 H 0.87788 0.26553 0.53123 0.0
H1656 H 0.89865 0.27034 0.53205 0.0
H1657 H 0.87717 0.2131 0.53041 0.0
H1658 H 0.85372 0.24168 0.53771 0.0
H1659 H 0.85184 0.18714 0.49994 0.0
H1660 H 0.84187 0.17626 0.51805 0.0
H1661 H 0.86373 0.18694 0.5175 0.0
H1662 H 0.82795 0.23395 0.52702 0.0
H1663 H 0.81477 0.21217 0.52837 0.0
H1664 H 0.82211 0.22101 0.50867 0.0
H1665 H 0.80496 0.1848 0.41677 0.0
H1666 H 0.76973 0.15032 0.45881 0.0
H1667 H 0.77165 0.14916 0.48828 0.0
H1668 H 0.81244 0.18021 0.53016 0.0
H1669 H 0.84783 0.2142 0.488 0.0
H1670 H 0.84595 0.21527 0.45855 0.0
H1671 H 0.71136 0.10881 0.54712 0.0
H1672 H 0.70775 0.0925 0.53262 0.0
H1673 H 0.71701 0.1133 0.52581 0.0
C1674 C 0.95076 0.41236 0.27436 0.0
C1675 C 0.96561 0.41552 0.26439 0.0
C1676 C 0.97722 0.44396 0.2551 0.0
C1677 C 0.96449 0.44122 0.24403 0.0
C1678 C 0.96504 0.45403 0.23479 0.0
C1679 C 0.97882 0.46984 0.23626 0.0
C1680 C 0.99176 0.47259 0.24718 0.0
C1681 C 0.99071 0.45963 0.25656 0.0
C1682 C 0.95079 0.45067 0.22357 0.0
C1683 C 0.00668 0.48924 0.24899 0.0
C1684 C 0.94472 0.54411 0.28984 0.0
C1685 C 0.96048 0.54988 0.28063 0.0
C1686 C 0.96137 0.53711 0.2547 0.0
C1687 C 0.97733 0.53999 0.25531 0.0
C1688 C 0.98179 0.53032 0.24582 0.0
C1689 C 0.96994 0.51732 0.2358 0.0
C1690 C 0.9538 0.51441 0.23524 0.0
C1691 C 0.94984 0.52464 0.24441 0.0
C1692 C 0.99914 0.53396 0.24657 0.0
C1693 C 0.94065 0.50037 0.22517 0.0
C1694 C 0.96623 0.53989 0.13057 0.0
C1695 C 0.98226 0.54634 0.13644 0.0
C1696 C 0.98731 0.53628 0.14429 0.0
C1697 C 0.976 0.51955 0.1465 0.0
C1698 C 0.96002 0.51292 0.13992 0.0
C1699 C 0.95543 0.52318 0.1318 0.0
C1700 C 0.00461 0.54359 0.15056 0.0
C1701 C 0.94765 0.49511 0.14189 0.0
C1702 C 0.00904 0.42958 0.14175 0.0
C1703 C 0.99802 0.42823 0.127 0.0
C1704 C 0.99776 0.45397 0.13058 0.0
C1705 C 0.00953 0.47042 0.13259 0.0
C1706 C 0.00631 0.48141 0.14136 0.0
C1707 C 0.99072 0.47587 0.14778 0.0
C1708 C 0.97851 0.45936 0.14508 0.0
C1709 C 0.98223 0.44852 0.13668 0.0
C1710 C 0.01963 0.4989 0.14391 0.0
C1711 C 0.9615 0.45315 0.151 0.0
C1712 C 0.97939 0.48352 0.22668 0.0
C1713 C 0.97559 0.49433 0.23483 0.0
C1714 C 0.97433 0.50653 0.22627 0.0
C1715 C 0.97657 0.50779 0.20898 0.0
C1716 C 0.97478 0.51947 0.19984 0.0
C1717 C 0.97597 0.51992 0.18271 0.0
C1718 C 0.97961 0.5091 0.17409 0.0
C1719 C 0.98042 0.50917 0.15663 0.0
C1720 C 0.98427 0.49839 0.14849 0.0
C1721 C 0.98721 0.48733 0.1573 0.0
C1722 C 0.98623 0.48694 0.17477 0.0
C1723 C 0.989 0.47594 0.18406 0.0
C1724 C 0.98698 0.47493 0.20109 0.0
C1725 C 0.98237 0.48507 0.20954 0.0
C1726 C 0.98052 0.49696 0.20058 0.0
C1727 C 0.98226 0.49776 0.18315 0.0
C1728 C 0.94864 0.56423 0.13406 0.0
C1729 C 0.96438 0.56484 0.12909 0.0
O1730 O 0.97697 0.43205 0.26475 0.0
O1731 O 0.00169 0.44383 0.12229 0.0
O1732 O 0.96082 0.54939 0.12352 0.0
O1733 O 0.95678 0.54617 0.26392 0.0
H1734 H 0.96161 0.41125 0.25138 0.0
H1735 H 0.94453 0.41855 0.26873 0.0
H1736 H 0.95433 0.41705 0.2873 0.0
H1737 H 0.94197 0.39903 0.27454 0.0
H1738 H 0.95395 0.4292 0.24265 0.0
H1739 H 0.00048 0.46166 0.26511 0.0
H1740 H 0.94713 0.46009 0.22559 0.0
H1741 H 0.94016 0.43842 0.22558 0.0
H1742 H 0.95429 0.45126 0.21047 0.0
H1743 H 0.01647 0.4889 0.25641 0.0
H1744 H 0.00347 0.4978 0.25518 0.0
H1745 H 0.01135 0.49417 0.23662 0.0
H1746 H 0.9664 0.54308 0.28574 0.0
H1747 H 0.94724 0.54654 0.30336 0.0
H1748 H 0.93674 0.53073 0.28779 0.0
H1749 H 0.9382 0.55048 0.28532 0.0
H1750 H 0.98629 0.54989 0.26309 0.0
H1751 H 0.93757 0.52261 0.24402 0.0
H1752 H 0.00366 0.53454 0.23388 0.0
H1753 H 0.99982 0.52393 0.25302 0.0
H1754 H 0.00725 0.54566 0.25327 0.0
H1755 H 0.92838 0.49817 0.22822 0.0
H1756 H 0.94114 0.48896 0.22727 0.0
H1757 H 0.94251 0.50311 0.21182 0.0
H1758 H 0.97245 0.5686 0.14035 0.0
H1759 H 0.99081 0.55919 0.13487 0.0
H1760 H 0.94317 0.5183 0.12692 0.0
H1761 H 0.00494 0.54414 0.16429 0.0
H1762 H 0.01239 0.55615 0.14596 0.0
H1763 H 0.00974 0.53575 0.1467 0.0
H1764 H 0.93556 0.49203 0.13665 0.0
H1765 H 0.94642 0.49201 0.15521 0.0
H1766 H 0.9518 0.48735 0.13558 0.0
H1767 H 0.98519 0.42115 0.13075 0.0
H1768 H 0.00614 0.41727 0.14607 0.0
H1769 H 0.00726 0.43619 0.15225 0.0
H1770 H 0.02196 0.43638 0.13827 0.0
H1771 H 0.02141 0.47453 0.1276 0.0
H1772 H 0.97287 0.43594 0.13459 0.0
H1773 H 0.0209 0.50247 0.15722 0.0
H1774 H 0.01645 0.50713 0.137 0.0
H1775 H 0.03149 0.50086 0.13958 0.0
H1776 H 0.95285 0.44095 0.14551 0.0
H1777 H 0.95719 0.46187 0.1479 0.0
H1778 H 0.96142 0.45207 0.16466 0.0
H1779 H 0.97324 0.49301 0.24797 0.0
H1780 H 0.97208 0.52818 0.20578 0.0
H1781 H 0.974 0.52888 0.17633 0.0
H1782 H 0.98468 0.49839 0.13509 0.0
H1783 H 0.9925 0.46777 0.17823 0.0
H1784 H 0.98898 0.46602 0.20757 0.0
H1785 H 0.94004 0.56061 0.12328 0.0
H1786 H 0.95111 0.57637 0.13892 0.0
H1787 H 0.94285 0.55514 0.14394 0.0
C1788 C 0.43964 0.39344 0.25554 0.0
C1789 C 0.44184 0.40581 0.26926 0.0
C1790 C 0.4579 0.43225 0.25555 0.0
C1791 C 0.45712 0.44537 0.24852 0.0
C1792 C 0.47052 0.45796 0.24078 0.0
C1793 C 0.48509 0.45736 0.24 0.0
C1794 C 0.48609 0.44425 0.24728 0.0
C1795 C 0.47251 0.43185 0.25504 0.0
C1796 C 0.46908 0.47186 0.2333 0.0
C1797 C 0.50147 0.44329 0.24669 0.0
C1798 C 0.59498 0.56841 0.28753 0.0
C1799 C 0.58451 0.55172 0.28028 0.0
C1800 C 0.55918 0.53646 0.26409 0.0
C1801 C 0.56136 0.52304 0.26035 0.0
C1802 C 0.54993 0.50991 0.25043 0.0
C1803 C 0.53611 0.51022 0.24408 0.0
C1804 C 0.53385 0.52367 0.24789 0.0
C1805 C 0.54543 0.53661 0.25787 0.0
C1806 C 0.55266 0.49571 0.24664 0.0
C1807 C 0.51925 0.52439 0.24131 0.0
C1808 C 0.57036 0.53353 0.13828 0.0
C1809 C 0.57145 0.52011 0.14435 0.0
C1810 C 0.55854 0.50756 0.15273 0.0
C1811 C 0.54425 0.5084 0.15509 0.0
C1812 C 0.54312 0.52189 0.14909 0.0
C1813 C 0.55623 0.53432 0.14081 0.0
C1814 C 0.56018 0.49339 0.1591 0.0
C1815 C 0.52805 0.52317 0.15144 0.0
C1816 C 0.44168 0.38825 0.132 0.0
C1817 C 0.44603 0.40444 0.12377 0.0
C1818 C 0.47286 0.42695 0.13185 0.0
C1819 C 0.48772 0.4287 0.13711 0.0
C1820 C 0.49861 0.44215 0.147 0.0
C1821 C 0.49465 0.45435 0.15133 0.0
C1822 C 0.47988 0.45297 0.14547 0.0
C1823 C 0.4691 0.43924 0.13579 0.0
C1824 C 0.51431 0.44327 0.15288 0.0
C1825 C 0.47551 0.46602 0.14942 0.0
C1826 C 0.49918 0.47034 0.23136 0.0
C1827 C 0.51083 0.48367 0.24075 0.0
C1828 C 0.52411 0.49657 0.23331 0.0
C1829 C 0.5258 0.49634 0.21597 0.0
C1830 C 0.53883 0.50927 0.20805 0.0
C1831 C 0.54038 0.50893 0.19099 0.0
C1832 C 0.52898 0.49563 0.18119 0.0
C1833 C 0.53049 0.49514 0.16385 0.0
C1834 C 0.51901 0.48167 0.15449 0.0
C1835 C 0.506 0.46853 0.16198 0.0
C1836 C 0.50423 0.46882 0.1793 0.0
C1837 C 0.4913 0.45581 0.18726 0.0
C1838 C 0.4896 0.45627 0.20429 0.0
C1839 C 0.50085 0.4697 0.21405 0.0
C1840 C 0.51414 0.48283 0.20633 0.0
C1841 C 0.51576 0.48244 0.18892 0.0
C1842 C 0.60975 0.55348 0.13836 0.0
C1843 C 0.59665 0.54676 0.12456 0.0
O1844 O 0.44426 0.42032 0.26248 0.0
O1845 O 0.46273 0.41353 0.12253 0.0
O1846 O 0.58254 0.54598 0.13005 0.0
O1847 O 0.56999 0.54947 0.27354 0.0
H1848 H 0.45244 0.40826 0.27734 0.0
H1849 H 0.45065 0.39814 0.24803 0.0
H1850 H 0.42924 0.39102 0.24717 0.0
H1851 H 0.43742 0.38174 0.26102 0.0
H1852 H 0.44585 0.44563 0.24902 0.0
H1853 H 0.47344 0.42189 0.26054 0.0
H1854 H 0.47887 0.48373 0.2384 0.0
H1855 H 0.4572 0.47098 0.2357 0.0
H1856 H 0.4706 0.47183 0.21972 0.0
H1857 H 0.50023 0.43211 0.25259 0.0
H1858 H 0.51148 0.45419 0.2531 0.0
H1859 H 0.50494 0.4434 0.23363 0.0
H1860 H 0.58296 0.54148 0.2883 0.0
H1861 H 0.59583 0.56644 0.30114 0.0
H1862 H 0.58701 0.57406 0.28908 0.0
H1863 H 0.61522 0.57841 0.27244 0.0
H1864 H 0.57194 0.52273 0.26508 0.0
H1865 H 0.54385 0.54699 0.26082 0.0
H1866 H 0.54209 0.48413 0.25056 0.0
H1867 H 0.56376 0.49704 0.25292 0.0
H1868 H 0.55374 0.49469 0.23308 0.0
H1869 H 0.51936 0.5358 0.24522 0.0
H1870 H 0.50803 0.51375 0.24574 0.0
H1871 H 0.51882 0.5236 0.22758 0.0
H1872 H 0.59428 0.53432 0.12089 0.0
H1873 H 0.58232 0.51932 0.14275 0.0
H1874 H 0.55549 0.54471 0.13617 0.0
H1875 H 0.55834 0.49239 0.17266 0.0
H1876 H 0.5722 0.49467 0.15657 0.0
H1877 H 0.55065 0.48181 0.15322 0.0
H1878 H 0.529 0.53437 0.14589 0.0
H1879 H 0.52579 0.52329 0.16485 0.0
H1880 H 0.51742 0.51229 0.14573 0.0
H1881 H 0.4414 0.41087 0.13173 0.0
H1882 H 0.42836 0.38078 0.13337 0.0
H1883 H 0.44753 0.39067 0.14451 0.0
H1884 H 0.44593 0.38117 0.12454 0.0
H1885 H 0.49062 0.41927 0.13372 0.0
H1886 H 0.45791 0.43829 0.13109 0.0
H1887 H 0.51572 0.44511 0.16652 0.0
H1888 H 0.52462 0.45402 0.14728 0.0
H1889 H 0.51501 0.43216 0.14952 0.0
H1890 H 0.46412 0.46371 0.14299 0.0
H1891 H 0.48546 0.47817 0.14582 0.0
H1892 H 0.47402 0.46653 0.16296 0.0
H1893 H 0.50951 0.48403 0.25403 0.0
H1894 H 0.54798 0.51982 0.21495 0.0
H1895 H 0.55066 0.51924 0.18558 0.0
H1896 H 0.52033 0.48133 0.14121 0.0
H1897 H 0.4823 0.44512 0.1804 0.0
H1898 H 0.47937 0.44593 0.20971 0.0
H1899 H 0.62122 0.55464 0.13374 0.0
H1900 H 0.60591 0.54508 0.14896 0.0
H1901 H 0.61206 0.56564 0.14294 0.0
C1902 C 0.46181 0.04826 0.29056 0.0
C1903 C 0.4488 0.03408 0.27983 0.0
C1904 C 0.46365 0.02193 0.26637 0.0
C1905 C 0.47343 0.03536 0.25649 0.0
C1906 C 0.4849 0.03493 0.24605 0.0
C1907 C 0.48625 0.02062 0.24505 0.0
C1908 C 0.47604 0.0069 0.25453 0.0
C1909 C 0.46501 0.00783 0.26519 0.0
C1910 C 0.49575 0.04987 0.23629 0.0
C1911 C 0.47692 0.99132 0.25354 0.0
C1912 C 0.597 0.05936 0.28929 0.0
C1913 C 0.58733 0.04126 0.28408 0.0
C1914 C 0.57057 0.03595 0.2593 0.0
C1915 C 0.55691 0.02074 0.26198 0.0
C1916 C 0.54218 0.01615 0.25354 0.0
C1917 C 0.5411 0.02722 0.24249 0.0
C1918 C 0.55491 0.04271 0.24001 0.0
C1919 C 0.56959 0.04668 0.24817 0.0
C1920 C 0.52783 0.99948 0.25637 0.0
C1921 C 0.55421 0.05515 0.22884 0.0
C1922 C 0.55288 0.00371 0.13804 0.0
C1923 C 0.53887 0.98979 0.14344 0.0
C1924 C 0.52685 0.9913 0.15181 0.0
C1925 C 0.52871 0.00699 0.15474 0.0
C1926 C 0.54249 0.02098 0.14886 0.0
C1927 C 0.55443 0.01914 0.14066 0.0
C1928 C 0.51226 0.97612 0.15786 0.0
C1929 C 0.54472 0.03788 0.15155 0.0
C1930 C 0.41788 0.00925 0.1489 0.0
C1931 C 0.42897 0.01329 0.13406 0.0
C1932 C 0.44848 0.00396 0.1401 0.0
C1933 C 0.44847 0.98997 0.14577 0.0
C1934 C 0.4622 0.99098 0.15377 0.0
C1935 C 0.47632 0.00641 0.15598 0.0
C1936 C 0.47666 0.02054 0.1496 0.0
C1937 C 0.46279 0.01916 0.1416 0.0
C1938 C 0.46154 0.97564 0.16013 0.0
C1939 C 0.49168 0.03712 0.15137 0.0
C1940 C 0.49878 0.02017 0.23464 0.0
C1941 C 0.51334 0.02332 0.24243 0.0
C1942 C 0.52556 0.02272 0.2336 0.0
C1943 C 0.52317 0.01865 0.2165 0.0
C1944 C 0.53485 0.01714 0.20738 0.0
C1945 C 0.53267 0.01375 0.19045 0.0
C1946 C 0.51874 0.01178 0.18195 0.0
C1947 C 0.51662 0.00875 0.16466 0.0
C1948 C 0.50267 0.00697 0.15659 0.0
C1949 C 0.49059 0.0079 0.16537 0.0
C1950 C 0.49236 0.01062 0.18272 0.0
C1951 C 0.48028 0.01125 0.19201 0.0
C1952 C 0.48221 0.01408 0.20905 0.0
C1953 C 0.49645 0.01676 0.21741 0.0
C1954 C 0.50872 0.01604 0.20832 0.0
C1955 C 0.5066 0.01279 0.19099 0.0
C1956 C 0.57086 0.98299 0.1429 0.0
C1957 C 0.56623 0.98893 0.12714 0.0
O1958 O 0.45301 0.02206 0.27737 0.0
O1959 O 0.43461 0.00224 0.13297 0.0
O1960 O 0.56522 0.00289 0.13053 0.0
O1961 O 0.58494 0.04035 0.26705 0.0
H1962 H 0.44789 0.03919 0.26774 0.0
H1963 H 0.47289 0.05559 0.28342 0.0
H1964 H 0.46536 0.0436 0.30152 0.0
H1965 H 0.45732 0.05657 0.2947 0.0
H1966 H 0.47242 0.0463 0.25697 0.0
H1967 H 0.45736 0.99749 0.27274 0.0
H1968 H 0.50864 0.0535 0.23879 0.0
H1969 H 0.49398 0.06043 0.23931 0.0
H1970 H 0.49324 0.04699 0.22286 0.0
H1971 H 0.46702 0.98121 0.26034 0.0
H1972 H 0.4887 0.99356 0.25889 0.0
H1973 H 0.47624 0.98739 0.24042 0.0
H1974 H 0.57551 0.03577 0.29043 0.0
H1975 H 0.59839 0.06082 0.30297 0.0
H1976 H 0.59054 0.06582 0.28493 0.0
H1977 H 0.6092 0.06522 0.28381 0.0
H1978 H 0.5579 0.01239 0.27046 0.0
H1979 H 0.58031 0.05838 0.2462 0.0
H1980 H 0.51873 0.00088 0.26358 0.0
H1981 H 0.53128 0.99147 0.26331 0.0
H1982 H 0.52199 0.99337 0.24438 0.0
H1983 H 0.56493 0.06751 0.23074 0.0
H1984 H 0.54309 0.05593 0.231 0.0
H1985 H 0.55383 0.05134 0.21573 0.0
H1986 H 0.55426 0.97897 0.12249 0.0
H1987 H 0.53724 0.97769 0.14142 0.0
H1988 H 0.56516 0.02981 0.13639 0.0
H1989 H 0.51147 0.97704 0.17148 0.0
H1990 H 0.51269 0.96479 0.15484 0.0
H1991 H 0.50106 0.97509 0.15218 0.0
H1992 H 0.5554 0.04737 0.14505 0.0
H1993 H 0.54635 0.04098 0.16499 0.0
H1994 H 0.53373 0.0382 0.14713 0.0
H1995 H 0.43899 0.02595 0.13647 0.0
H1996 H 0.41202 0.01697 0.14899 0.0
H1997 H 0.42517 0.01176 0.16056 0.0
H1998 H 0.40842 0.99614 0.14871 0.0
H1999 H 0.4375 0.97824 0.14423 0.0
H2000 H 0.46335 0.02997 0.13639 0.0
H2001 H 0.46327 0.9766 0.1738 0.0
H2002 H 0.47157 0.97428 0.15491 0.0
H2003 H 0.44986 0.96449 0.15691 0.0
H2004 H 0.49008 0.04692 0.14561 0.0
H2005 H 0.50201 0.03677 0.14553 0.0
H2006 H 0.49492 0.04026 0.16469 0.0
H2007 H 0.51522 0.02639 0.25556 0.0
H2008 H 0.54585 0.01862 0.21323 0.0
H2009 H 0.54214 0.01283 0.18409 0.0
H2010 H 0.50119 0.00479 0.1433 0.0
H2011 H 0.46915 0.00951 0.18621 0.0
H2012 H 0.47248 0.01435 0.21556 0.0
H2013 H 0.57289 0.97259 0.13986 0.0
H2014 H 0.56103 0.97868 0.15196 0.0
H2015 H 0.582 0.99297 0.14896 0.0
C2016 C 0.56859 0.02078 0.73169 0.0
C2017 C 0.57608 0.01497 0.74516 0.0
C2018 C 0.55228 0.9987 0.76212 0.0
C2019 C 0.55166 0.01206 0.76934 0.0
C2020 C 0.53866 0.00965 0.77915 0.0
C2021 C 0.52603 0.99357 0.78192 0.0
C2022 C 0.52678 0.98008 0.77506 0.0
C2023 C 0.53995 0.98284 0.76529 0.0
C2024 C 0.53828 0.02434 0.78635 0.0
C2025 C 0.51355 0.96279 0.77789 0.0
C2026 C 0.41581 0.95553 0.73796 0.0
C2027 C 0.4174 0.96988 0.74865 0.0
C2028 C 0.44538 0.98395 0.76009 0.0
C2029 C 0.44395 0.97117 0.77009 0.0
C2030 C 0.45703 0.97303 0.78005 0.0
C2031 C 0.47163 0.98824 0.78063 0.0
C2032 C 0.47294 0.00129 0.77095 0.0
C2033 C 0.45986 0.99886 0.76062 0.0
C2034 C 0.45524 0.95857 0.78973 0.0
C2035 C 0.48815 0.01778 0.7714 0.0
C2036 C 0.44935 0.99469 0.88814 0.0
C2037 C 0.44544 0.97991 0.87993 0.0
C2038 C 0.45727 0.97816 0.87139 0.0
C2039 C 0.47318 0.99165 0.87056 0.0
C2040 C 0.47716 0.00647 0.87901 0.0
C2041 C 0.46524 0.00766 0.88794 0.0
C2042 C 0.45274 0.96188 0.86327 0.0
C2043 C 0.49396 0.02113 0.87851 0.0
C2044 C 0.57481 0.97438 0.88064 0.0
C2045 C 0.57168 0.98364 0.89445 0.0
C2046 C 0.54454 0.97958 0.88857 0.0
C2047 C 0.52942 0.96644 0.88398 0.0
C2048 C 0.51798 0.9689 0.87515 0.0
C2049 C 0.52169 0.985 0.8712 0.0
C2050 C 0.53674 0.99843 0.87642 0.0
C2051 C 0.54806 0.99558 0.88505 0.0
C2052 C 0.50201 0.9543 0.86985 0.0
C2053 C 0.54084 0.01576 0.87283 0.0
C2054 C 0.51178 0.99109 0.79141 0.0
C2055 C 0.49868 0.99049 0.78261 0.0
C2056 C 0.4857 0.99019 0.7908 0.0
C2057 C 0.48598 0.99101 0.80829 0.0
C2058 C 0.47399 0.99239 0.81696 0.0
C2059 C 0.47409 0.9926 0.83418 0.0
C2060 C 0.48593 0.991 0.84338 0.0
C2061 C 0.48568 0.99035 0.86088 0.0
C2062 C 0.49755 0.98852 0.86955 0.0
C2063 C 0.50993 0.98767 0.86128 0.0
C2064 C 0.51064 0.98875 0.84386 0.0
C2065 C 0.5232 0.98843 0.83519 0.0
C2066 C 0.52377 0.98948 0.81803 0.0
C2067 C 0.51151 0.99035 0.80886 0.0
C2068 C 0.49864 0.9905 0.81733 0.0
C2069 C 0.49842 0.99011 0.83488 0.0
C2070 C 0.41988 0.99788 0.87674 0.0
C2071 C 0.42192 0.9902 0.89265 0.0
O2072 O 0.5643 0.00053 0.7519 0.0
O2073 O 0.55516 0.97636 0.89691 0.0
O2074 O 0.4383 0.99691 0.89657 0.0
O2075 O 0.43336 0.98242 0.74955 0.0
H2076 H 0.58176 0.02455 0.75508 0.0
H2077 H 0.55943 0.02348 0.73696 0.0
H2078 H 0.56258 0.01123 0.7218 0.0
H2079 H 0.5781 0.03217 0.72611 0.0
H2080 H 0.56113 0.02444 0.76727 0.0
H2081 H 0.54053 0.97259 0.75979 0.0
H2082 H 0.52727 0.02448 0.7817 0.0
H2083 H 0.5491 0.03606 0.78317 0.0
H2084 H 0.53761 0.0235 0.80003 0.0
H2085 H 0.51624 0.95358 0.77229 0.0
H2086 H 0.50194 0.96098 0.77247 0.0
H2087 H 0.51187 0.96063 0.79137 0.0
H2088 H 0.41314 0.96535 0.76127 0.0
H2089 H 0.40286 0.94599 0.73645 0.0
H2090 H 0.42237 0.94981 0.74385 0.0
H2091 H 0.42092 0.95966 0.72555 0.0
H2092 H 0.43282 0.95958 0.76998 0.0
H2093 H 0.46086 0.00868 0.75292 0.0
H2094 H 0.45371 0.96047 0.80299 0.0
H2095 H 0.46622 0.9573 0.78873 0.0
H2096 H 0.44454 0.94693 0.7854 0.0
H2097 H 0.48615 0.02737 0.76569 0.0
H2098 H 0.49772 0.01695 0.76448 0.0
H2099 H 0.49269 0.02161 0.78434 0.0
H2100 H 0.41626 0.97675 0.89074 0.0
H2101 H 0.4333 0.96961 0.88038 0.0
H2102 H 0.46817 0.01895 0.89448 0.0
H2103 H 0.4516 0.96271 0.84968 0.0
H2104 H 0.44103 0.95191 0.8677 0.0
H2105 H 0.4623 0.95856 0.86571 0.0
H2106 H 0.49455 0.03229 0.88402 0.0
H2107 H 0.49805 0.02364 0.86555 0.0
H2108 H 0.50256 0.0185 0.88551 0.0
H2109 H 0.57667 0.99654 0.89066 0.0
H2110 H 0.58801 0.98005 0.8785 0.0
H2111 H 0.56874 0.97486 0.86895 0.0
H2112 H 0.57 0.96135 0.8839 0.0
H2113 H 0.52674 0.95417 0.88705 0.0
H2114 H 0.55944 0.00589 0.88927 0.0
H2115 H 0.50038 0.95414 0.8562 0.0
H2116 H 0.49192 0.95528 0.87546 0.0
H2117 H 0.50115 0.94255 0.87355 0.0
H2118 H 0.55264 0.02492 0.87858 0.0
H2119 H 0.5312 0.01807 0.87748 0.0
H2120 H 0.54137 0.01752 0.85925 0.0
H2121 H 0.49867 0.99037 0.76919 0.0
H2122 H 0.46443 0.99338 0.8105 0.0
H2123 H 0.46459 0.99377 0.84016 0.0
H2124 H 0.49714 0.98771 0.88293 0.0
H2125 H 0.53281 0.98748 0.84157 0.0
H2126 H 0.53376 0.98928 0.812 0.0
H2127 H 0.40691 0.99244 0.87303 0.0
H2128 H 0.42613 0.99562 0.86642 0.0
H2129 H 0.42516 0.0113 0.87856 0.0
C2130 C 0.04553 0.58956 0.7335 0.0
C2131 C 0.02933 0.58069 0.74217 0.0
C2132 C 0.02652 0.56577 0.76741 0.0
C2133 C 0.01026 0.55346 0.76597 0.0
C2134 C 0.00462 0.5389 0.77477 0.0
C2135 C 0.01559 0.53655 0.78492 0.0
C2136 C 0.03203 0.54903 0.78634 0.0
C2137 C 0.03716 0.56366 0.77787 0.0
C2138 C 0.98698 0.52603 0.77318 0.0
C2139 C 0.04429 0.54688 0.79657 0.0
C2140 C 0.01439 0.45205 0.7264 0.0
C2141 C 0.01267 0.44149 0.74141 0.0
C2142 C 0.00252 0.45379 0.76165 0.0
C2143 C 0.01755 0.46739 0.76622 0.0
C2144 C 0.01842 0.48004 0.77631 0.0
C2145 C 0.00396 0.4793 0.78166 0.0
C2146 C 0.98881 0.46571 0.77697 0.0
C2147 C 0.98832 0.453 0.76726 0.0
C2148 C 0.03482 0.49421 0.78125 0.0
C2149 C 0.97312 0.46464 0.78213 0.0
C2150 C 0.99346 0.44495 0.88447 0.0
C2151 C 0.00906 0.45847 0.88302 0.0
C2152 C 0.01127 0.47304 0.87609 0.0
C2153 C 0.99759 0.47422 0.87086 0.0
C2154 C 0.98184 0.461 0.8733 0.0
C2155 C 0.97999 0.44653 0.88016 0.0
C2156 C 0.02823 0.48707 0.87407 0.0
C2157 C 0.96701 0.46202 0.8682 0.0
C2158 C 0.02448 0.59634 0.88486 0.0
C2159 C 0.013 0.58434 0.89743 0.0
C2160 C 0.01419 0.5593 0.89246 0.0
C2161 C 0.02645 0.55548 0.8899 0.0
C2162 C 0.0235 0.54162 0.8805 0.0
C2163 C 0.00773 0.5311 0.87393 0.0
C2164 C 0.99507 0.53451 0.87711 0.0
C2165 C 0.99845 0.54864 0.88631 0.0
C2166 C 0.03728 0.53834 0.87744 0.0
C2167 C 0.97803 0.52328 0.87068 0.0
C2168 C 0.01009 0.52091 0.79369 0.0
C2169 C 0.00819 0.50737 0.78449 0.0
C2170 C 0.0048 0.49278 0.79215 0.0
C2171 C 0.00324 0.49159 0.80952 0.0
C2172 C 0.0005 0.47735 0.81773 0.0
C2173 C 0.99921 0.47637 0.83483 0.0
C2174 C 0.00073 0.48963 0.84445 0.0
C2175 C 0.99982 0.48887 0.86189 0.0
C2176 C 0.00175 0.5024 0.87111 0.0
C2177 C 0.00464 0.5168 0.86336 0.0
C2178 C 0.00542 0.51773 0.84592 0.0
C2179 C 0.00827 0.53202 0.83772 0.0
C2180 C 0.00944 0.53296 0.8206 0.0
C2181 C 0.00805 0.51975 0.81101 0.0
C2182 C 0.00479 0.5051 0.81896 0.0
C2183 C 0.00351 0.50411 0.83644 0.0
C2184 C 0.9923 0.4103 0.87296 0.0
C2185 C 0.0004 0.4232 0.88688 0.0
O2186 O 0.03228 0.57982 0.75888 0.0
O2187 O 0.01788 0.57307 0.90134 0.0
O2188 O 0.99093 0.43033 0.89011 0.0
O2189 O 0.00112 0.44125 0.75187 0.0
H2190 H 0.02249 0.56816 0.73647 0.0
H2191 H 0.05232 0.58285 0.73534 0.0
H2192 H 0.05299 0.6022 0.73864 0.0
H2193 H 0.04354 0.59014 0.71999 0.0
H2194 H 0.00198 0.55533 0.7581 0.0
H2195 H 0.04968 0.57333 0.77891 0.0
H2196 H 0.98581 0.51522 0.76627 0.0
H2197 H 0.97966 0.53055 0.76654 0.0
H2198 H 0.98191 0.52191 0.78562 0.0
H2199 H 0.05692 0.55641 0.79404 0.0
H2200 H 0.04304 0.53466 0.79408 0.0
H2201 H 0.04216 0.54767 0.8099 0.0
H2202 H 0.02452 0.44655 0.74814 0.0
H2203 H 0.02362 0.45235 0.71793 0.0
H2204 H 0.01835 0.46482 0.73044 0.0
H2205 H 0.00262 0.44711 0.71951 0.0
H2206 H 0.0287 0.46824 0.76213 0.0
H2207 H 0.97678 0.44249 0.76371 0.0
H2208 H 0.03557 0.49656 0.79482 0.0
H2209 H 0.03655 0.50543 0.77505 0.0
H2210 H 0.04487 0.49202 0.7778 0.0
H2211 H 0.96241 0.45433 0.77581 0.0
H2212 H 0.97318 0.47622 0.77935 0.0
H2213 H 0.97185 0.46289 0.79569 0.0
H2214 H 0.0124 0.43219 0.88209 0.0
H2215 H 0.01955 0.45776 0.88729 0.0
H2216 H 0.96799 0.43617 0.8817 0.0
H2217 H 0.03028 0.49035 0.86083 0.0
H2218 H 0.03761 0.48413 0.87854 0.0
H2219 H 0.02972 0.49796 0.88105 0.0
H2220 H 0.95563 0.45116 0.87202 0.0
H2221 H 0.96659 0.46298 0.85454 0.0
H2222 H 0.96766 0.47319 0.87372 0.0
H2223 H 0.00057 0.57812 0.89183 0.0
H2224 H 0.02078 0.60552 0.88168 0.0
H2225 H 0.0241 0.58963 0.87333 0.0
H2226 H 0.03713 0.6028 0.88991 0.0
H2227 H 0.03849 0.56366 0.89497 0.0
H2228 H 0.98872 0.55112 0.88892 0.0
H2229 H 0.03836 0.53686 0.86396 0.0
H2230 H 0.03472 0.52673 0.88337 0.0
H2231 H 0.04905 0.5483 0.88246 0.0
H2232 H 0.96932 0.52699 0.87523 0.0
H2233 H 0.974 0.51055 0.8745 0.0
H2234 H 0.97777 0.52332 0.85695 0.0
H2235 H 0.00987 0.50837 0.77122 0.0
H2236 H 0.99939 0.46681 0.81103 0.0
H2237 H 0.99712 0.46509 0.84043 0.0
H2238 H 0.0013 0.50182 0.8845 0.0
H2239 H 0.00969 0.54267 0.84446 0.0
H2240 H 0.01162 0.54425 0.81497 0.0
H2241 H 0.9987 0.40318 0.87139 0.0
H2242 H 0.99285 0.41647 0.86113 0.0
H2243 H 0.97934 0.40186 0.87544 0.0
C2244 C 0.53142 0.57406 0.72472 0.0
C2245 C 0.54263 0.58334 0.73959 0.0
C2246 C 0.52862 0.56295 0.76099 0.0
C2247 C 0.5162 0.56664 0.76385 0.0
C2248 C 0.50285 0.55634 0.77335 0.0
C2249 C 0.50176 0.54193 0.77991 0.0
C2250 C 0.51429 0.53824 0.77714 0.0
C2251 C 0.52769 0.54897 0.76794 0.0
C2252 C 0.48983 0.5608 0.77627 0.0
C2253 C 0.51341 0.52284 0.78365 0.0
C2254 C 0.39186 0.46892 0.72001 0.0
C2255 C 0.40359 0.46611 0.73085 0.0
C2256 C 0.41677 0.48014 0.75673 0.0
C2257 C 0.42917 0.47616 0.7578 0.0
C2258 C 0.44284 0.48528 0.76817 0.0
C2259 C 0.44428 0.4989 0.77729 0.0
C2260 C 0.43181 0.50301 0.77603 0.0
C2261 C 0.418 0.49326 0.7661 0.0
C2262 C 0.45573 0.48035 0.76937 0.0
C2263 C 0.43309 0.5178 0.78496 0.0
C2264 C 0.4133 0.47672 0.88207 0.0
C2265 C 0.42339 0.47063 0.87693 0.0
C2266 C 0.43823 0.48093 0.86955 0.0
C2267 C 0.44287 0.49755 0.86701 0.0
C2268 C 0.43292 0.50379 0.87267 0.0
C2269 C 0.41836 0.49331 0.88036 0.0
C2270 C 0.44885 0.47403 0.86428 0.0
C2271 C 0.4375 0.52145 0.87028 0.0
C2272 C 0.56001 0.59403 0.87945 0.0
C2273 C 0.55152 0.59007 0.89613 0.0
C2274 C 0.52804 0.56324 0.88854 0.0
C2275 C 0.52347 0.54669 0.88722 0.0
C2276 C 0.50979 0.53571 0.87773 0.0
C2277 C 0.50017 0.54139 0.86978 0.0
C2278 C 0.5043 0.55801 0.87169 0.0
C2279 C 0.51834 0.56883 0.88084 0.0
C2280 C 0.50578 0.51809 0.87601 0.0
C2281 C 0.49395 0.56439 0.86397 0.0
C2282 C 0.48724 0.53049 0.78919 0.0
C2283 C 0.47319 0.51996 0.78005 0.0
C2284 C 0.45894 0.50905 0.78786 0.0
C2285 C 0.45868 0.50846 0.80534 0.0
C2286 C 0.44465 0.49745 0.81362 0.0
C2287 C 0.4443 0.49742 0.83081 0.0
C2288 C 0.45807 0.50815 0.84042 0.0
C2289 C 0.45779 0.50829 0.85791 0.0
C2290 C 0.47167 0.51919 0.86707 0.0
C2291 C 0.48596 0.53002 0.85925 0.0
C2292 C 0.4865 0.52999 0.84177 0.0
C2293 C 0.50069 0.54063 0.83348 0.0
C2294 C 0.50096 0.54088 0.81628 0.0
C2295 C 0.48714 0.53027 0.80668 0.0
C2296 C 0.47278 0.51923 0.81477 0.0
C2297 C 0.47247 0.51908 0.83233 0.0
C2298 C 0.37109 0.44777 0.88315 0.0
C2299 C 0.38835 0.45062 0.88494 0.0
O2300 O 0.54158 0.57237 0.75154 0.0
O2301 O 0.54182 0.57325 0.89737 0.0
O2302 O 0.39867 0.46703 0.88877 0.0
O2303 O 0.40347 0.47154 0.7468 0.0
H2304 H 0.53909 0.59203 0.7449 0.0
H2305 H 0.51863 0.56714 0.72856 0.0
H2306 H 0.53481 0.56529 0.7193 0.0
H2307 H 0.53219 0.58272 0.71505 0.0
H2308 H 0.51678 0.5775 0.75876 0.0
H2309 H 0.53735 0.54625 0.76573 0.0
H2310 H 0.47853 0.55192 0.76952 0.0
H2311 H 0.49334 0.57329 0.772 0.0
H2312 H 0.48712 0.56009 0.78965 0.0
H2313 H 0.52344 0.52104 0.77921 0.0
H2314 H 0.50169 0.51203 0.7798 0.0
H2315 H 0.514 0.5234 0.79738 0.0
H2316 H 0.41588 0.47353 0.72564 0.0
H2317 H 0.39205 0.4652 0.70697 0.0
H2318 H 0.39548 0.48211 0.72033 0.0
H2319 H 0.37931 0.46179 0.72457 0.0
H2320 H 0.42805 0.4658 0.75071 0.0
H2321 H 0.4083 0.49616 0.76516 0.0
H2322 H 0.45902 0.47992 0.78254 0.0
H2323 H 0.46679 0.4896 0.76323 0.0
H2324 H 0.45176 0.46822 0.76338 0.0
H2325 H 0.42406 0.52108 0.78013 0.0
H2326 H 0.4454 0.52852 0.78381 0.0
H2327 H 0.43093 0.51519 0.79831 0.0
H2328 H 0.39143 0.44737 0.87275 0.0
H2329 H 0.41975 0.45788 0.87875 0.0
H2330 H 0.41057 0.49791 0.88461 0.0
H2331 H 0.44892 0.47345 0.85056 0.0
H2332 H 0.44459 0.46154 0.86902 0.0
H2333 H 0.46153 0.48214 0.86874 0.0
H2334 H 0.42794 0.52412 0.87445 0.0
H2335 H 0.43976 0.52455 0.85702 0.0
H2336 H 0.44888 0.52951 0.87737 0.0
H2337 H 0.54403 0.59611 0.89711 0.0
H2338 H 0.56759 0.60744 0.87799 0.0
H2339 H 0.55093 0.58928 0.86908 0.0
H2340 H 0.56781 0.58832 0.87847 0.0
H2341 H 0.53095 0.54247 0.89333 0.0
H2342 H 0.52154 0.58155 0.882 0.0
H2343 H 0.50425 0.51437 0.86273 0.0
H2344 H 0.49414 0.51011 0.88206 0.0
H2345 H 0.51529 0.51597 0.88173 0.0
H2346 H 0.49726 0.57678 0.86882 0.0
H2347 H 0.48095 0.55595 0.86628 0.0
H2348 H 0.4955 0.56508 0.85037 0.0
H2349 H 0.47328 0.52041 0.76664 0.0
H2350 H 0.43372 0.48882 0.80689 0.0
H2351 H 0.43306 0.48886 0.83645 0.0
H2352 H 0.47132 0.51934 0.88048 0.0
H2353 H 0.51174 0.54901 0.84019 0.0
H2354 H 0.51215 0.5495 0.8106 0.0
H2355 H 0.36722 0.45078 0.89496 0.0
H2356 H 0.36252 0.4348 0.87961 0.0
H2357 H 0.3705 0.45566 0.87333 0.0
C2358 C 0.58856 0.72706 0.61873 0.0
C2359 C 0.60315 0.73121 0.60788 0.0
C2360 C 0.6131 0.75924 0.59793 0.0
C2361 C 0.59951 0.75594 0.58792 0.0
C2362 C 0.59939 0.7682 0.57821 0.0
C2363 C 0.61335 0.78391 0.57803 0.0
C2364 C 0.62711 0.78718 0.58792 0.0
C2365 C 0.62668 0.77486 0.59792 0.0
C2366 C 0.58429 0.76435 0.56822 0.0
C2367 C 0.64227 0.80369 0.58799 0.0
C2368 C 0.58846 0.86957 0.62516 0.0
C2369 C 0.60408 0.87244 0.6171 0.0
C2370 C 0.6035 0.85725 0.5924 0.0
C2371 C 0.61862 0.85806 0.5934 0.0
C2372 C 0.62133 0.84662 0.58478 0.0
C2373 C 0.60849 0.83388 0.57534 0.0
C2374 C 0.59313 0.83296 0.57458 0.0
C2375 C 0.59099 0.84495 0.58279 0.0
C2376 C 0.63792 0.84817 0.58575 0.0
C2377 C 0.57894 0.8193 0.56518 0.0
C2378 C 0.60887 0.85562 0.46805 0.0
C2379 C 0.62437 0.86029 0.47459 0.0
C2380 C 0.62724 0.84914 0.48346 0.0
C2381 C 0.61428 0.83315 0.48602 0.0
C2382 C 0.59876 0.82835 0.479 0.0
C2383 C 0.59636 0.8396 0.46985 0.0
C2384 C 0.64405 0.85449 0.49028 0.0
C2385 C 0.58465 0.8114 0.48132 0.0
C2386 C 0.60471 0.7202 0.46592 0.0
C2387 C 0.61517 0.7347 0.45489 0.0
C2388 C 0.62437 0.75965 0.47212 0.0
C2389 C 0.63806 0.77327 0.47894 0.0
C2390 C 0.63685 0.78585 0.48715 0.0
C2391 C 0.62147 0.78455 0.48887 0.0
C2392 C 0.60752 0.77075 0.4821 0.0
C2393 C 0.60912 0.75852 0.47366 0.0
C2394 C 0.652 0.80046 0.49406 0.0
C2395 C 0.59088 0.76887 0.48379 0.0
C2396 C 0.61353 0.79695 0.5676 0.0
C2397 C 0.61133 0.80906 0.57533 0.0
C2398 C 0.61111 0.82157 0.56627 0.0
C2399 C 0.61299 0.82196 0.54892 0.0
C2400 C 0.61271 0.83425 0.53937 0.0
C2401 C 0.61382 0.83411 0.52225 0.0
C2402 C 0.61578 0.82198 0.51401 0.0
C2403 C 0.61668 0.82161 0.49657 0.0
C2404 C 0.61881 0.80947 0.48881 0.0
C2405 C 0.61988 0.79748 0.49798 0.0
C2406 C 0.61877 0.79752 0.51542 0.0
C2407 C 0.61953 0.7855 0.52501 0.0
C2408 C 0.61809 0.78544 0.54211 0.0
C2409 C 0.61561 0.79727 0.55028 0.0
C2410 C 0.61514 0.8097 0.5409 0.0
C2411 C 0.61668 0.8098 0.52344 0.0
C2412 C 0.59706 0.88518 0.46677 0.0
C2413 C 0.61147 0.88251 0.46387 0.0
O2414 O 0.61361 0.74796 0.60798 0.0
O2415 O 0.62647 0.74791 0.46439 0.0
O2416 O 0.6056 0.86617 0.45973 0.0
O2417 O 0.60077 0.86834 0.60041 0.0
H2418 H 0.59867 0.72671 0.59502 0.0
H2419 H 0.58137 0.73247 0.61369 0.0
H2420 H 0.59255 0.73189 0.63156 0.0
H2421 H 0.58053 0.71358 0.61908 0.0
H2422 H 0.58887 0.74394 0.58777 0.0
H2423 H 0.63709 0.77732 0.60569 0.0
H2424 H 0.58121 0.77423 0.56987 0.0
H2425 H 0.57373 0.75255 0.57173 0.0
H2426 H 0.58647 0.76357 0.55489 0.0
H2427 H 0.65264 0.80353 0.59441 0.0
H2428 H 0.63994 0.81277 0.59442 0.0
H2429 H 0.64571 0.80785 0.57513 0.0
H2430 H 0.60792 0.8643 0.62326 0.0
H2431 H 0.59042 0.87205 0.63872 0.0
H2432 H 0.57887 0.85663 0.62314 0.0
H2433 H 0.58419 0.87762 0.61969 0.0
H2434 H 0.62834 0.8678 0.60069 0.0
H2435 H 0.57937 0.84451 0.58211 0.0
H2436 H 0.6419 0.84707 0.5732 0.0
H2437 H 0.63738 0.8381 0.59324 0.0
H2438 H 0.64711 0.86 0.59153 0.0
H2439 H 0.56729 0.81863 0.56835 0.0
H2440 H 0.57811 0.80734 0.5678 0.0
H2441 H 0.58065 0.82135 0.5517 0.0
H2442 H 0.61875 0.88585 0.47567 0.0
H2443 H 0.63421 0.87256 0.47266 0.0
H2444 H 0.58452 0.83609 0.46447 0.0
H2445 H 0.64408 0.85524 0.50399 0.0
H2446 H 0.65315 0.86663 0.48567 0.0
H2447 H 0.64774 0.84535 0.4869 0.0
H2448 H 0.57303 0.81018 0.47661 0.0
H2449 H 0.58345 0.80825 0.49462 0.0
H2450 H 0.58687 0.8024 0.47458 0.0
H2451 H 0.60703 0.73812 0.44805 0.0
H2452 H 0.59628 0.70937 0.45817 0.0
H2453 H 0.59736 0.72325 0.4742 0.0
H2454 H 0.61234 0.71692 0.4738 0.0
H2455 H 0.64978 0.77407 0.47772 0.0
H2456 H 0.59835 0.7481 0.4685 0.0
H2457 H 0.65153 0.80073 0.50777 0.0
H2458 H 0.65273 0.81193 0.48954 0.0
H2459 H 0.66316 0.80024 0.49059 0.0
H2460 H 0.5811 0.75661 0.47953 0.0
H2461 H 0.59004 0.77826 0.47629 0.0
H2462 H 0.58882 0.77089 0.49687 0.0
H2463 H 0.60964 0.80869 0.58859 0.0
H2464 H 0.61138 0.844 0.545 0.0
H2465 H 0.61316 0.8437 0.51556 0.0
H2466 H 0.61936 0.80918 0.47542 0.0
H2467 H 0.62118 0.77594 0.51941 0.0
H2468 H 0.61881 0.7759 0.54883 0.0
H2469 H 0.60131 0.89808 0.47059 0.0
H2470 H 0.58958 0.87714 0.47679 0.0
H2471 H 0.58937 0.88221 0.45534 0.0
C2472 C 0.10393 0.72344 0.59427 0.0
C2473 C 0.10485 0.73448 0.60883 0.0
C2474 C 0.1212 0.76208 0.59738 0.0
C2475 C 0.12033 0.77542 0.59111 0.0
C2476 C 0.13387 0.7887 0.58433 0.0
C2477 C 0.14869 0.78858 0.58376 0.0
C2478 C 0.14982 0.77531 0.59045 0.0
C2479 C 0.13608 0.7622 0.59727 0.0
C2480 C 0.13227 0.80275 0.57754 0.0
C2481 C 0.16549 0.77488 0.5901 0.0
C2482 C 0.25863 0.90273 0.62928 0.0
C2483 C 0.24808 0.88555 0.62333 0.0
C2484 C 0.22194 0.8691 0.60875 0.0
C2485 C 0.22446 0.85593 0.6048 0.0
C2486 C 0.21297 0.84256 0.59518 0.0
C2487 C 0.19872 0.84237 0.58939 0.0
C2488 C 0.19602 0.85544 0.59362 0.0
C2489 C 0.20769 0.86864 0.60326 0.0
C2490 C 0.21616 0.82875 0.59095 0.0
C2491 C 0.18094 0.85559 0.58768 0.0
C2492 C 0.23041 0.87229 0.48375 0.0
C2493 C 0.23332 0.85998 0.48992 0.0
C2494 C 0.22117 0.84643 0.49799 0.0
C2495 C 0.20588 0.84523 0.50015 0.0
C2496 C 0.20298 0.85768 0.49421 0.0
C2497 C 0.2153 0.87105 0.48609 0.0
C2498 C 0.22467 0.83338 0.50423 0.0
C2499 C 0.18684 0.85683 0.49646 0.0
C2500 C 0.10812 0.72205 0.47199 0.0
C2501 C 0.11252 0.73892 0.46545 0.0
C2502 C 0.13869 0.76186 0.47485 0.0
C2503 C 0.15384 0.76446 0.48023 0.0
C2504 C 0.16406 0.77796 0.49042 0.0
C2505 C 0.15907 0.78933 0.495 0.0
C2506 C 0.14399 0.78711 0.48906 0.0
C2507 C 0.13392 0.77337 0.47903 0.0
C2508 C 0.18012 0.78001 0.49639 0.0
C2509 C 0.13854 0.79927 0.49335 0.0
C2510 C 0.16278 0.80208 0.5756 0.0
C2511 C 0.1741 0.81527 0.5854 0.0
C2512 C 0.18701 0.82884 0.5783 0.0
C2513 C 0.1886 0.82947 0.56091 0.0
C2514 C 0.20109 0.8432 0.55332 0.0
C2515 C 0.20247 0.84377 0.5362 0.0
C2516 C 0.19154 0.83054 0.52602 0.0
C2517 C 0.19293 0.83093 0.50862 0.0
C2518 C 0.18203 0.81745 0.49889 0.0
C2519 C 0.16967 0.80349 0.50604 0.0
C2520 C 0.16791 0.80297 0.5234 0.0
C2521 C 0.15548 0.7892 0.531 0.0
C2522 C 0.15376 0.78888 0.54808 0.0
C2523 C 0.16454 0.80222 0.55824 0.0
C2524 C 0.17737 0.81606 0.55087 0.0
C2525 C 0.17893 0.81653 0.53342 0.0
C2526 C 0.26961 0.89658 0.4839 0.0
C2527 C 0.25656 0.88812 0.47019 0.0
O2528 O 0.10735 0.74942 0.60319 0.0
O2529 O 0.12927 0.74839 0.46527 0.0
O2530 O 0.24171 0.88551 0.47557 0.0
O2531 O 0.23295 0.88248 0.61762 0.0
H2532 H 0.11497 0.73648 0.61744 0.0
H2533 H 0.11551 0.72897 0.58763 0.0
H2534 H 0.0941 0.72156 0.58532 0.0
H2535 H 0.10154 0.71135 0.59882 0.0
H2536 H 0.10885 0.77528 0.59135 0.0
H2537 H 0.13707 0.7521 0.60229 0.0
H2538 H 0.14189 0.8145 0.58305 0.0
H2539 H 0.12028 0.80157 0.58003 0.0
H2540 H 0.13392 0.80328 0.56395 0.0
H2541 H 0.1644 0.76363 0.59566 0.0
H2542 H 0.17514 0.78571 0.59696 0.0
H2543 H 0.16937 0.77556 0.57712 0.0
H2544 H 0.24747 0.87597 0.63179 0.0
H2545 H 0.27765 0.91216 0.61261 0.0
H2546 H 0.26058 0.90173 0.64289 0.0
H2547 H 0.25048 0.90814 0.63108 0.0
H2548 H 0.23539 0.85606 0.60907 0.0
H2549 H 0.20584 0.87882 0.60641 0.0
H2550 H 0.20587 0.81695 0.59485 0.0
H2551 H 0.22749 0.83038 0.59697 0.0
H2552 H 0.21711 0.82798 0.57734 0.0
H2553 H 0.1805 0.86653 0.59229 0.0
H2554 H 0.17004 0.84444 0.59187 0.0
H2555 H 0.18041 0.85538 0.57394 0.0
H2556 H 0.25595 0.87626 0.46717 0.0
H2557 H 0.245 0.8608 0.48862 0.0
H2558 H 0.21316 0.88061 0.48142 0.0
H2559 H 0.22344 0.83254 0.51787 0.0
H2560 H 0.23703 0.83585 0.50118 0.0
H2561 H 0.2157 0.8213 0.49876 0.0
H2562 H 0.18662 0.8677 0.49149 0.0
H2563 H 0.18402 0.85586 0.50981 0.0
H2564 H 0.17715 0.84568 0.49007 0.0
H2565 H 0.10725 0.7443 0.47398 0.0
H2566 H 0.09476 0.71423 0.4726 0.0
H2567 H 0.1134 0.72335 0.48466 0.0
H2568 H 0.11294 0.71592 0.46388 0.0
H2569 H 0.15751 0.75564 0.47668 0.0
H2570 H 0.12251 0.77182 0.47426 0.0
H2571 H 0.18101 0.781 0.51011 0.0
H2572 H 0.19011 0.79153 0.49155 0.0
H2573 H 0.18187 0.76967 0.49235 0.0
H2574 H 0.12686 0.79626 0.48707 0.0
H2575 H 0.1479 0.81174 0.48981 0.0
H2576 H 0.13709 0.79951 0.50693 0.0
H2577 H 0.17275 0.81504 0.59871 0.0
H2578 H 0.2099 0.85373 0.56051 0.0
H2579 H 0.21226 0.85469 0.53106 0.0
H2580 H 0.1833 0.81776 0.48556 0.0
H2581 H 0.14687 0.77855 0.52383 0.0
H2582 H 0.1439 0.778 0.55321 0.0
H2583 H 0.28176 0.90005 0.47911 0.0
H2584 H 0.26723 0.88815 0.49433 0.0
H2585 H 0.26967 0.90767 0.48885 0.0
C2586 C 0.13461 0.39384 0.63069 0.0
C2587 C 0.12273 0.38 0.61886 0.0
C2588 C 0.13959 0.37075 0.60449 0.0
C2589 C 0.14883 0.38512 0.59562 0.0
C2590 C 0.16092 0.38646 0.58495 0.0
C2591 C 0.16346 0.37295 0.58261 0.0
C2592 C 0.15388 0.35832 0.59116 0.0
C2593 C 0.14222 0.3575 0.60213 0.0
C2594 C 0.17112 0.40242 0.57637 0.0
C2595 C 0.15602 0.34355 0.58882 0.0
C2596 C 0.28405 0.40205 0.59176 0.0
C2597 C 0.27281 0.39051 0.60484 0.0
C2598 C 0.24549 0.37884 0.5918 0.0
C2599 C 0.23269 0.36447 0.58501 0.0
C2600 C 0.21883 0.36412 0.5783 0.0
C2601 C 0.21788 0.37867 0.57817 0.0
C2602 C 0.23061 0.39323 0.58537 0.0
C2603 C 0.24429 0.39317 0.59224 0.0
C2604 C 0.20534 0.34825 0.57106 0.0
C2605 C 0.22991 0.40892 0.58543 0.0
C2606 C 0.24084 0.39183 0.47038 0.0
C2607 C 0.23192 0.37604 0.47666 0.0
C2608 C 0.21795 0.37162 0.48581 0.0
C2609 C 0.21309 0.38339 0.48904 0.0
C2610 C 0.22188 0.39919 0.48231 0.0
C2611 C 0.23549 0.40309 0.47281 0.0
C2612 C 0.20849 0.35444 0.49212 0.0
C2613 C 0.21707 0.41207 0.48537 0.0
C2614 C 0.09886 0.37516 0.47759 0.0
C2615 C 0.10828 0.37253 0.46378 0.0
C2616 C 0.12712 0.36473 0.47665 0.0
C2617 C 0.13054 0.35196 0.47832 0.0
C2618 C 0.14481 0.35443 0.48638 0.0
C2619 C 0.15597 0.37014 0.49287 0.0
C2620 C 0.15265 0.38316 0.49121 0.0
C2621 C 0.13817 0.3803 0.48332 0.0
C2622 C 0.14794 0.34024 0.48806 0.0
C2623 C 0.16435 0.40012 0.49789 0.0
C2624 C 0.17652 0.37437 0.57169 0.0
C2625 C 0.19088 0.37658 0.57918 0.0
C2626 C 0.20389 0.37865 0.56969 0.0
C2627 C 0.20294 0.37932 0.55227 0.0
C2628 C 0.21626 0.38263 0.54246 0.0
C2629 C 0.21513 0.38294 0.52531 0.0
C2630 C 0.20051 0.37954 0.51727 0.0
C2631 C 0.19911 0.37941 0.49979 0.0
C2632 C 0.18438 0.37603 0.49225 0.0
C2633 C 0.17099 0.37291 0.50168 0.0
C2634 C 0.17216 0.37299 0.51915 0.0
C2635 C 0.15889 0.36983 0.52901 0.0
C2636 C 0.16027 0.37029 0.5462 0.0
C2637 C 0.17491 0.37374 0.55421 0.0
C2638 C 0.18829 0.3765 0.54449 0.0
C2639 C 0.18697 0.37631 0.52695 0.0
C2640 C 0.28247 0.40955 0.46895 0.0
C2641 C 0.26686 0.39328 0.46602 0.0
O2642 O 0.12829 0.36915 0.61559 0.0
O2643 O 0.11306 0.36142 0.46865 0.0
O2644 O 0.25449 0.39647 0.46172 0.0
O2645 O 0.25872 0.37821 0.59744 0.0
H2646 H 0.12182 0.38574 0.6072 0.0
H2647 H 0.14583 0.40228 0.62426 0.0
H2648 H 0.13819 0.38888 0.64138 0.0
H2649 H 0.12909 0.40112 0.63526 0.0
H2650 H 0.14693 0.39548 0.59709 0.0
H2651 H 0.13502 0.34643 0.60894 0.0
H2652 H 0.18418 0.40627 0.57785 0.0
H2653 H 0.16917 0.41239 0.58123 0.0
H2654 H 0.16803 0.40078 0.56293 0.0
H2655 H 0.1461 0.33244 0.59439 0.0
H2656 H 0.16768 0.34603 0.59472 0.0
H2657 H 0.15649 0.34106 0.57544 0.0
H2658 H 0.26981 0.39759 0.61384 0.0
H2659 H 0.29549 0.41165 0.59773 0.0
H2660 H 0.27823 0.40819 0.5852 0.0
H2661 H 0.28696 0.39517 0.58246 0.0
H2662 H 0.2337 0.35347 0.58485 0.0
H2663 H 0.25402 0.40437 0.59763 0.0
H2664 H 0.19349 0.34587 0.57582 0.0
H2665 H 0.20706 0.33767 0.57396 0.0
H2666 H 0.20485 0.34917 0.5574 0.0
H2667 H 0.24094 0.41932 0.5912 0.0
H2668 H 0.21918 0.4072 0.59232 0.0
H2669 H 0.22845 0.41207 0.57255 0.0
H2670 H 0.26421 0.38653 0.47786 0.0
H2671 H 0.23579 0.36715 0.47427 0.0
H2672 H 0.24236 0.41516 0.46765 0.0
H2673 H 0.21039 0.35461 0.50572 0.0
H2674 H 0.21229 0.34612 0.48638 0.0
H2675 H 0.19533 0.34942 0.48961 0.0
H2676 H 0.22606 0.42419 0.48063 0.0
H2677 H 0.21569 0.41335 0.49883 0.0
H2678 H 0.20518 0.40825 0.47916 0.0
H2679 H 0.11901 0.38465 0.46143 0.0
H2680 H 0.09343 0.38256 0.47309 0.0
H2681 H 0.10716 0.38184 0.48822 0.0
H2682 H 0.08917 0.36331 0.48216 0.0
H2683 H 0.12194 0.33998 0.47325 0.0
H2684 H 0.13564 0.39029 0.48259 0.0
H2685 H 0.1501 0.33866 0.50129 0.0
H2686 H 0.15903 0.34287 0.48134 0.0
H2687 H 0.13768 0.3286 0.48307 0.0
H2688 H 0.16083 0.40929 0.49409 0.0
H2689 H 0.17675 0.40406 0.49353 0.0
H2690 H 0.1648 0.39997 0.51161 0.0
H2691 H 0.19186 0.37645 0.59256 0.0
H2692 H 0.22778 0.38517 0.54795 0.0
H2693 H 0.22585 0.38574 0.51845 0.0
H2694 H 0.1834 0.37607 0.47886 0.0
H2695 H 0.14729 0.36705 0.52355 0.0
H2696 H 0.14968 0.36781 0.55315 0.0
H2697 H 0.29256 0.40742 0.4728 0.0
H2698 H 0.28074 0.4167 0.47895 0.0
H2699 H 0.28583 0.41688 0.45752 0.0
C2700 C 0.99979 0.3764 0.0477 0.0
C2701 C 0.01502 0.37751 0.04674 0.0
C2702 C 0.99621 0.38378 0.06092 0.0
C2703 C 0.008 0.39206 0.07369 0.0
C2704 C 0.02309 0.39245 0.07318 0.0
C2705 C 0.02652 0.3854 0.05956 0.0
C2706 C 0.98014 0.38344 0.0608 0.0
C2707 C 0.0358 0.40073 0.08678 0.0
C2708 C 0.00804 0.42675 0.09821 0.0
C2709 C 1.00021 0.41891 0.1127 0.0
C2710 C 0.01023 0.41802 0.08527 0.0
C2711 C 0.00498 0.40117 0.08703 0.0
C2712 C 0.99719 0.3932 0.10163 0.0
C2713 C 0.9947 0.40211 0.11416 0.0
C2714 C 0.01827 0.42688 0.06972 0.0
C2715 C 0.99179 0.37536 0.10415 0.0
H2716 H 0.99097 0.37048 0.03767 0.0
H2717 H 0.03828 0.3862 0.05885 0.0
H2718 H 0.97393 0.37867 0.07262 0.0
H2719 H 0.9822 0.39608 0.05963 0.0
H2720 H 0.97199 0.3758 0.05043 0.0
H2721 H 0.04618 0.39853 0.08536 0.0
H2722 H 0.04044 0.41412 0.0867 0.0
H2723 H 0.03043 0.39631 0.09903 0.0
H2724 H 0.01247 0.43971 0.09687 0.0
H2725 H 0.98865 0.39599 0.12531 0.0
H2726 H 0.01048 0.4204 0.05871 0.0
H2727 H 0.02991 0.42698 0.06826 0.0
H2728 H 0.02072 0.43973 0.06986 0.0
H2729 H 0.98308 0.36776 0.09414 0.0
H2730 H 0.98597 0.37099 0.11625 0.0
H2731 H 0.00236 0.37337 0.10349 0.0
C2732 C 0.64446 0.61005 0.0535 0.0
C2733 C 0.63426 0.61274 0.04287 0.0
C2734 C 0.63805 0.59805 0.06565 0.0
C2735 C 0.62105 0.58881 0.0674 0.0
C2736 C 0.61071 0.59109 0.05622 0.0
C2737 C 0.61746 0.60319 0.04421 0.0
C2738 C 0.64948 0.59573 0.07705 0.0
C2739 C 0.59253 0.58108 0.05729 0.0
C2740 C 0.6046 0.55135 0.09457 0.0
C2741 C 0.60236 0.55752 0.10953 0.0
C2742 C 0.61023 0.5612 0.08062 0.0
C2743 C 0.61416 0.5778 0.08174 0.0
C2744 C 0.61173 0.58407 0.09678 0.0
C2745 C 0.60571 0.57381 0.11043 0.0
C2746 C 0.61245 0.55381 0.06498 0.0
C2747 C 0.61573 0.60168 0.09853 0.0
H2748 H 0.65747 0.61778 0.05274 0.0
H2749 H 0.60961 0.60544 0.03604 0.0
H2750 H 0.64824 0.59906 0.08993 0.0
H2751 H 0.64633 0.58268 0.07689 0.0
H2752 H 0.66232 0.60328 0.0735 0.0
H2753 H 0.58868 0.56784 0.05718 0.0
H2754 H 0.58863 0.58393 0.06913 0.0
H2755 H 0.58619 0.58347 0.04692 0.0
H2756 H 0.602 0.53876 0.09375 0.0
H2757 H 0.60383 0.57859 0.12193 0.0
H2758 H 0.625 0.5559 0.06507 0.0
H2759 H 0.61047 0.55941 0.05383 0.0
H2760 H 0.60407 0.54039 0.06422 0.0
H2761 H 0.62875 0.60991 0.09616 0.0
H2762 H 0.61308 0.60463 0.11103 0.0
H2763 H 0.60867 0.60434 0.0892 0.0
C2764 C 0.37715 0.02051 0.05897 0.0
C2765 C 0.37646 0.01133 0.04496 0.0
C2766 C 0.38719 0.02214 0.07266 0.0
C2767 C 0.39654 0.01417 0.07236 0.0
C2768 C 0.39645 0.00555 0.05786 0.0
C2769 C 0.38618 0.004 0.04441 0.0
C2770 C 0.38725 0.03179 0.0877 0.0
C2771 C 0.40681 0.99754 0.05677 0.0
C2772 C 0.42866 0.02563 0.10657 0.0
C2773 C 0.42055 0.01307 0.11785 0.0
C2774 C 0.42124 0.02595 0.09153 0.0
C2775 C 0.40517 0.01355 0.08771 0.0
C2776 C 0.39709 0.00053 0.0988 0.0
C2777 C 0.40498 0.00028 0.11356 0.0
C2778 C 0.43059 0.03996 0.08017 0.0
C2779 C 0.37996 0.987 0.0952 0.0
H2780 H 0.36932 0.02585 0.05949 0.0
H2781 H 0.38551 0.9968 0.03356 0.0
H2782 H 0.3823 0.02351 0.09834 0.0
H2783 H 0.39985 0.04122 0.09112 0.0
H2784 H 0.37995 0.03793 0.08563 0.0
H2785 H 0.40648 0.99261 0.04414 0.0
H2786 H 0.41956 0.0065 0.06028 0.0
H2787 H 0.40256 0.98736 0.06561 0.0
H2788 H 0.44085 0.03534 0.10958 0.0
H2789 H 0.39882 0.99017 0.12184 0.0
H2790 H 0.42831 0.05007 0.08362 0.0
H2791 H 0.42688 0.03643 0.06703 0.0
H2792 H 0.44383 0.04465 0.08152 0.0
H2793 H 0.37534 0.9778 0.10512 0.0
H2794 H 0.37937 0.98067 0.08334 0.0
H2795 H 0.3718 0.99224 0.09383 0.0
C2796 C 0.37858 0.0185 0.9596 0.0
C2797 C 0.37266 0.00765 0.97276 0.0
C2798 C 0.38569 0.01524 0.94606 0.0
C2799 C 0.38743 0.00111 0.946 0.0
C2800 C 0.38135 0.99007 0.95923 0.0
C2801 C 0.3738 0.99335 0.97233 0.0
C2802 C 0.39156 0.02705 0.93195 0.0
C2803 C 0.3834 0.97514 0.95988 0.0
C2804 C 0.3962 0.98566 0.90603 0.0
C2805 C 0.41316 0.99308 0.90678 0.0
C2806 C 0.38767 0.98837 0.91854 0.0
C2807 C 0.39625 0.99828 0.93248 0.0
C2808 C 0.41333 0.00552 0.93356 0.0
C2809 C 0.4216 0.00306 0.92061 0.0
C2810 C 0.3695 0.98076 0.91674 0.0
C2811 C 0.42287 0.01582 0.94846 0.0
H2812 H 0.37765 0.02954 0.95992 0.0
H2813 H 0.36942 0.98508 0.98263 0.0
H2814 H 0.40495 0.03311 0.93146 0.0
H2815 H 0.38659 0.02036 0.91999 0.0
H2816 H 0.38802 0.03664 0.9332 0.0
H2817 H 0.37768 0.9676 0.97086 0.0
H2818 H 0.37804 0.96742 0.94857 0.0
H2819 H 0.39649 0.97898 0.96028 0.0
H2820 H 0.38959 0.97783 0.89549 0.0
H2821 H 0.43468 0.00892 0.92147 0.0
H2822 H 0.36604 0.99043 0.91743 0.0
H2823 H 0.36356 0.97235 0.92707 0.0
H2824 H 0.3647 0.97382 0.90487 0.0
H2825 H 0.42139 0.02678 0.94955 0.0
H2826 H 0.43601 0.01994 0.94777 0.0
H2827 H 0.4182 0.00876 0.95992 0.0
C2828 C 0.0064 0.38875 0.97594 0.0
C2829 C 0.01514 0.38042 0.97465 0.0
C2830 C 0.00564 0.39798 0.96275 0.0
C2831 C 0.01328 0.39829 0.94777 0.0
C2832 C 0.02278 0.39051 0.94676 0.0
C2833 C 0.0235 0.38156 0.96022 0.0
C2834 C 0.99605 0.40675 0.96458 0.0
C2835 C 0.03137 0.39083 0.93114 0.0
C2836 C 0.99269 0.40059 0.908 0.0
C2837 C 0.00333 0.41651 0.9028 0.0
C2838 C 0.99588 0.39457 0.92258 0.0
C2839 C 0.00967 0.40491 0.9326 0.0
C2840 C 0.01991 0.42128 0.92794 0.0
C2841 C 0.01668 0.42682 0.91305 0.0
C2842 C 0.9846 0.37703 0.92711 0.0
C2843 C 0.03455 0.43292 0.93828 0.0
H2844 H 0.99985 0.38771 0.98712 0.0
H2845 H 0.02996 0.37477 0.95916 0.0
H2846 H 0.00319 0.41952 0.96031 0.0
H2847 H 0.98485 0.40055 0.95673 0.0
H2848 H 0.99259 0.40701 0.97759 0.0
H2849 H 0.03919 0.38519 0.93278 0.0
H2850 H 0.02231 0.38411 0.92106 0.0
H2851 H 0.039 0.40362 0.92715 0.0
H2852 H 0.98197 0.39265 0.90062 0.0
H2853 H 0.0247 0.43928 0.90935 0.0
H2854 H 0.97931 0.37662 0.93934 0.0
H2855 H 0.99147 0.37033 0.92815 0.0
H2856 H 0.97455 0.37051 0.91786 0.0
H2857 H 0.03257 0.43047 0.95166 0.0
H2858 H 0.03784 0.44584 0.93616 0.0
H2859 H 0.04495 0.43141 0.93465 0.0
C2860 C 0.62798 0.62305 0.95865 0.0
C2861 C 0.62487 0.62702 0.97439 0.0
C2862 C 0.61637 0.61823 0.94573 0.0
C2863 C 0.60111 0.61681 0.94884 0.0
C2864 C 0.59799 0.62102 0.96469 0.0
C2865 C 0.61004 0.62633 0.97724 0.0
C2866 C 0.62033 0.61432 0.92887 0.0
C2867 C 0.58171 0.61923 0.96861 0.0
C2868 C 0.5737 0.61382 0.91256 0.0
C2869 C 0.56404 0.59682 0.91027 0.0
C2870 C 0.58588 0.62054 0.92498 0.0
C2871 C 0.58811 0.61001 0.93577 0.0
C2872 C 0.57813 0.59286 0.93387 0.0
C2873 C 0.56642 0.58646 0.92101 0.0
C2874 C 0.59657 0.63888 0.92635 0.0
C2875 C 0.57988 0.58123 0.9454 0.0
H2876 H 0.63951 0.6237 0.95645 0.0
H2877 H 0.60759 0.62924 0.98949 0.0
H2878 H 0.61263 0.60107 0.92599 0.0
H2879 H 0.61766 0.62104 0.91921 0.0
H2880 H 0.63323 0.61753 0.9281 0.0
H2881 H 0.58146 0.62361 0.98135 0.0
H2882 H 0.5785 0.62614 0.95971 0.0
H2883 H 0.57223 0.60617 0.96734 0.0
H2884 H 0.57187 0.62188 0.90439 0.0
H2885 H 0.55914 0.57331 0.91946 0.0
H2886 H 0.60941 0.64217 0.92483 0.0
H2887 H 0.59566 0.64335 0.93881 0.0
H2888 H 0.59332 0.64537 0.91692 0.0
H2889 H 0.59196 0.58228 0.94405 0.0
H2890 H 0.57046 0.56829 0.94295 0.0
H2891 H 0.57906 0.58448 0.95845 0.0
C2892 C 0.00189 0.62151 0.98261 0.0
C2893 C 0.00972 0.6386 0.98245 0.0
C2894 C 0.00381 0.61258 0.9697 0.0
C2895 C 0.01358 0.621 0.9562 0.0
C2896 C 0.02199 0.63833 0.95632 0.0
C2897 C 0.01977 0.64693 0.96937 0.0
C2898 C 0.99467 0.59413 0.97008 0.0
C2899 C 0.03267 0.64778 0.94228 0.0
C2900 C 0.02491 0.59763 0.92549 0.0
C2901 C 0.01305 0.59353 0.91294 0.0
C2902 C 0.02519 0.60645 0.9397 0.0
C2903 C 0.0136 0.61166 0.94123 0.0
C2904 C 0.0018 0.60784 0.92844 0.0
C2905 C 0.0017 0.59885 0.91445 0.0
C2906 C 0.03787 0.61019 0.95305 0.0
C2907 C 0.98926 0.61323 0.92954 0.0
H2908 H 0.9939 0.61511 0.99264 0.0
H2909 H 0.02537 0.66014 0.96901 0.0
H2910 H 0.98504 0.58927 0.96025 0.0
H2911 H 0.00289 0.58919 0.96754 0.0
H2912 H 0.98894 0.58954 0.98219 0.0
H2913 H 0.03945 0.66116 0.94497 0.0
H2914 H 0.04149 0.64357 0.93975 0.0
H2915 H 0.02515 0.64551 0.93086 0.0
H2916 H 0.03398 0.5939 0.9242 0.0
H2917 H 0.99273 0.59599 0.9046 0.0
H2918 H 0.03197 0.60519 0.96496 0.0
H2919 H 0.04545 0.62361 0.95473 0.0
H2920 H 0.04587 0.60504 0.95013 0.0
H2921 H 0.98193 0.60808 0.9407 0.0
H2922 H 0.98097 0.60932 0.9185 0.0
H2923 H 0.99532 0.62675 0.93081 0.0
C2924 C 0.36478 0.38672 0.95645 0.0
C2925 C 0.37675 0.3831 0.96192 0.0
C2926 C 0.36773 0.39779 0.94371 0.0
C2927 C 0.38312 0.40567 0.93641 0.0
C2928 C 0.39527 0.4021 0.94183 0.0
C2929 C 0.39189 0.39072 0.95442 0.0
C2930 C 0.35434 0.40106 0.93809 0.0
C2931 C 0.41189 0.41046 0.9345 0.0
C2932 C 0.38451 0.42344 0.89411 0.0
C2933 C 0.38912 0.43971 0.8982 0.0
C2934 C 0.38304 0.41234 0.90636 0.0
C2935 C 0.38637 0.41769 0.92312 0.0
C2936 C 0.39158 0.43425 0.92728 0.0
C2937 C 0.39267 0.44501 0.91481 0.0
C2938 C 0.37718 0.39473 0.90144 0.0
C2939 C 0.39542 0.44046 0.94499 0.0
H2940 H 0.35301 0.38079 0.96207 0.0
H2941 H 0.40123 0.38805 0.95861 0.0
H2942 H 0.35815 0.41416 0.94017 0.0
H2943 H 0.35187 0.39842 0.92461 0.0
H2944 H 0.34292 0.39355 0.94471 0.0
H2945 H 0.42002 0.40636 0.94012 0.0
H2946 H 0.41092 0.40798 0.92096 0.0
H2947 H 0.41755 0.4239 0.93634 0.0
H2948 H 0.3815 0.41926 0.88132 0.0
H2949 H 0.39596 0.45749 0.91812 0.0
H2950 H 0.36512 0.3868 0.90674 0.0
H2951 H 0.38553 0.39069 0.90651 0.0
H2952 H 0.37614 0.39278 0.8878 0.0
H2953 H 0.38416 0.4348 0.95218 0.0
H2954 H 0.40091 0.45397 0.94596 0.0
H2955 H 0.40387 0.43691 0.95084 0.0
C2956 C 0.62622 0.97741 0.96791 0.0
C2957 C 0.62674 0.98673 0.98174 0.0
C2958 C 0.61584 0.9751 0.95431 0.0
C2959 C 0.60605 0.98259 0.9545 0.0
C2960 C 0.60604 0.99139 0.9688 0.0
C2961 C 0.61658 0.99354 0.98219 0.0
C2962 C 0.61596 0.96534 0.93945 0.0
C2963 C 0.59541 0.99911 0.96969 0.0
C2964 C 0.59632 0.99575 0.91358 0.0
C2965 C 0.58032 0.98341 0.91029 0.0
C2966 C 0.60481 0.99553 0.92787 0.0
C2967 C 0.59711 0.98267 0.9392 0.0
C2968 C 0.58098 0.97014 0.93589 0.0
C2969 C 0.5729 0.97049 0.92134 0.0
C2970 C 0.62206 0.00905 0.93081 0.0
C2971 C 0.57227 0.95611 0.94743 0.0
H2972 H 0.63445 0.97254 0.96743 0.0
H2973 H 0.61716 0.0009 0.99287 0.0
H2974 H 0.60344 0.95574 0.93604 0.0
H2975 H 0.62085 0.97349 0.92871 0.0
H2976 H 0.62342 0.9594 0.94173 0.0
H2977 H 0.59577 0.00429 0.98219 0.0
H2978 H 0.59942 0.00907 0.9606 0.0
H2979 H 0.58268 0.98992 0.96637 0.0
H2980 H 0.60221 0.00555 0.90486 0.0
H2981 H 0.56071 0.96062 0.91864 0.0
H2982 H 0.63022 0.00379 0.93198 0.0
H2983 H 0.62306 0.01567 0.9426 0.0
H2984 H 0.62637 0.01801 0.92066 0.0
H2985 H 0.57592 0.94682 0.94479 0.0
H2986 H 0.55891 0.95017 0.94566 0.0
H2987 H 0.57544 0.9602 0.96053 0.0
C2988 C 0.62864 0.00546 0.05304 0.0
C2989 C 0.63157 0.99224 0.05331 0.0
C2990 C 0.61939 0.00739 0.06532 0.0
C2991 C 0.61331 0.99604 0.0783 0.0
C2992 C 0.61728 0.98338 0.0792 0.0
C2993 C 0.62614 0.98148 0.06654 0.0
C2994 C 0.61516 0.02084 0.06371 0.0
C2995 C 0.61141 0.97129 0.09306 0.0
C2996 C 0.59508 0.00333 0.11675 0.0
C2997 C 0.5785 0.99245 0.11377 0.0
C2998 C 0.60661 0.00508 0.1051 0.0
C2999 C 0.60139 0.99615 0.08993 0.0
C3000 C 0.58461 0.98613 0.08637 0.0
C3001 C 0.57339 0.98431 0.09837 0.0
C3002 C 0.62438 0.0158 0.10939 0.0
C3003 C 0.57851 0.97676 0.07013 0.0
H3004 H 0.63267 0.01365 0.04266 0.0
H3005 H 0.62847 0.97129 0.06674 0.0
H3006 H 0.60221 0.01541 0.05987 0.0
H3007 H 0.61679 0.02727 0.07576 0.0
H3008 H 0.62261 0.02994 0.05439 0.0
H3009 H 0.61718 0.96348 0.09307 0.0
H3010 H 0.61397 0.97779 0.10521 0.0
H3011 H 0.5981 0.96323 0.09177 0.0
H3012 H 0.59908 0.01001 0.12844 0.0
H3013 H 0.5606 0.97615 0.09584 0.0
H3014 H 0.63066 0.02424 0.09917 0.0
H3015 H 0.63008 0.00804 0.11105 0.0
H3016 H 0.62641 0.02313 0.12094 0.0
H3017 H 0.58418 0.98501 0.05961 0.0
H3018 H 0.56513 0.9709 0.0686 0.0
H3019 H 0.58194 0.96707 0.06945 0.0
C3020 C 0.98749 0.63244 0.06014 0.0
C3021 C 0.00246 0.63725 0.05289 0.0
C3022 C 0.98196 0.62115 0.07299 0.0
C3023 C 0.99152 0.61433 0.07857 0.0
C3024 C 0.00676 0.61934 0.07154 0.0
C3025 C 0.01211 0.63084 0.05889 0.0
C3026 C 0.96574 0.61631 0.08038 0.0
C3027 C 0.01721 0.6122 0.07705 0.0
C3028 C 0.98236 0.59389 0.12035 0.0
C3029 C 0.97242 0.57738 0.11579 0.0
C3030 C 0.98882 0.60605 0.10837 0.0
C3031 C 0.98531 0.60157 0.09141 0.0
C3032 C 0.97545 0.5849 0.0867 0.0
C3033 C 0.96894 0.57303 0.09895 0.0
C3034 C 0.99906 0.62372 0.11389 0.0
C3035 C 0.97155 0.57962 0.06872 0.0
H3036 H 0.97999 0.6374 0.0557 0.0
H3037 H 0.0237 0.63445 0.05339 0.0
H3038 H 0.95728 0.60312 0.07787 0.0
H3039 H 0.96709 0.61817 0.09401 0.0
H3040 H 0.96021 0.62342 0.0753 0.0
H3041 H 0.02894 0.6177 0.07064 0.0
H3042 H 0.0197 0.6141 0.09058 0.0
H3043 H 0.01069 0.5988 0.07455 0.0
H3044 H 0.98479 0.59731 0.13336 0.0
H3045 H 0.96096 0.56035 0.09533 0.0
H3046 H 0.99313 0.63079 0.10983 0.0
H3047 H 0.01104 0.62922 0.10802 0.0
H3048 H 0.00097 0.62512 0.12753 0.0
H3049 H 0.9645 0.58497 0.06314 0.0
H3050 H 0.96445 0.56611 0.0671 0.0
H3051 H 0.98289 0.58424 0.06175 0.0
C3052 C 0.39124 0.36333 0.04299 0.0
C3053 C 0.38991 0.37435 0.03245 0.0
C3054 C 0.4021 0.36891 0.05663 0.0
C3055 C 0.41156 0.38593 0.05999 0.0
C3056 C 0.41075 0.39712 0.04893 0.0
C3057 C 0.39975 0.39118 0.03539 0.0
C3058 C 0.40289 0.35658 0.06786 0.0
C3059 C 0.4211 0.41534 0.05176 0.0
C3060 C 0.42197 0.39844 0.1053 0.0
C3061 C 0.43784 0.40117 0.1068 0.0
C3062 C 0.41345 0.39381 0.09005 0.0
C3063 C 0.42101 0.39191 0.0759 0.0
C3064 C 0.43718 0.39502 0.07727 0.0
C3065 C 0.44529 0.39932 0.09274 0.0
C3066 C 0.39618 0.39047 0.08921 0.0
C3067 C 0.44584 0.39314 0.06271 0.0
H3068 H 0.38329 0.35031 0.04095 0.0
H3069 H 0.39857 0.39968 0.02727 0.0
H3070 H 0.41561 0.35927 0.06939 0.0
H3071 H 0.39858 0.35746 0.08029 0.0
H3072 H 0.39542 0.34384 0.063 0.0
H3073 H 0.42008 0.42237 0.04128 0.0
H3074 H 0.41739 0.41906 0.06321 0.0
H3075 H 0.43399 0.41865 0.05353 0.0
H3076 H 0.41607 0.39955 0.11621 0.0
H3077 H 0.45741 0.40099 0.09385 0.0
H3078 H 0.38795 0.37751 0.08548 0.0
H3079 H 0.39485 0.39819 0.07969 0.0
H3080 H 0.39221 0.39291 0.10124 0.0
H3081 H 0.44377 0.38046 0.06241 0.0
H3082 H 0.45912 0.40155 0.06394 0.0
H3083 H 0.44143 0.39548 0.05083 0.0
C3084 C 0.67218 0.72415 0.38939 0.0
C3085 C 0.66475 0.70828 0.38245 0.0
C3086 C 0.66441 0.72853 0.40136 0.0
C3087 C 0.64898 0.71667 0.40681 0.0
C3088 C 0.64162 0.7005 0.40023 0.0
C3089 C 0.64952 0.69654 0.38802 0.0
C3090 C 0.67253 0.74597 0.40788 0.0
C3091 C 0.62532 0.68743 0.40597 0.0
C3092 C 0.63501 0.725 0.44771 0.0
C3093 C 0.62401 0.73003 0.44241 0.0
C3094 C 0.64305 0.7204 0.43627 0.0
C3095 C 0.64039 0.72127 0.41912 0.0
C3096 C 0.62957 0.72667 0.41369 0.0
C3097 C 0.62143 0.73086 0.4254 0.0
C3098 C 0.65433 0.71451 0.44253 0.0
C3099 C 0.62666 0.72807 0.3955 0.0
H3100 H 0.68393 0.73332 0.38518 0.0
H3101 H 0.64374 0.68421 0.38283 0.0
H3102 H 0.66478 0.75146 0.40505 0.0
H3103 H 0.67408 0.74626 0.42153 0.0
H3104 H 0.68459 0.7537 0.40245 0.0
H3105 H 0.62162 0.67526 0.40024 0.0
H3106 H 0.62561 0.68642 0.41963 0.0
H3107 H 0.61595 0.69082 0.40285 0.0
H3108 H 0.63725 0.7246 0.46083 0.0
H3109 H 0.61308 0.73489 0.42123 0.0
H3110 H 0.66677 0.72268 0.43823 0.0
H3111 H 0.65042 0.70208 0.43742 0.0
H3112 H 0.65473 0.71412 0.45625 0.0
H3113 H 0.63829 0.73635 0.3896 0.0
H3114 H 0.61815 0.73282 0.39333 0.0
H3115 H 0.62161 0.71593 0.38924 0.0
C3116 C 0.27446 0.93942 0.38547 0.0
C3117 C 0.29102 0.94614 0.38255 0.0
C3118 C 0.26737 0.92926 0.39902 0.0
C3119 C 0.27711 0.92583 0.40992 0.0
C3120 C 0.2938 0.9324 0.40681 0.0
C3121 C 0.3006 0.94273 0.39335 0.0
C3122 C 0.24956 0.92257 0.40193 0.0
C3123 C 0.30457 0.92884 0.41795 0.0
C3124 C 0.26595 0.91478 0.45476 0.0
C3125 C 0.26078 0.89796 0.45447 0.0
C3126 C 0.27087 0.92393 0.44025 0.0
C3127 C 0.27014 0.916 0.42501 0.0
C3128 C 0.26366 0.89884 0.42448 0.0
C3129 C 0.2592 0.89007 0.43919 0.0
C3130 C 0.27731 0.94216 0.44132 0.0
C3131 C 0.26213 0.88971 0.40856 0.0
H3132 H 0.26713 0.94235 0.37729 0.0
H3133 H 0.31353 0.94852 0.39152 0.0
H3134 H 0.24335 0.90905 0.40278 0.0
H3135 H 0.24796 0.92742 0.41389 0.0
H3136 H 0.24353 0.92583 0.39194 0.0
H3137 H 0.31716 0.93442 0.41348 0.0
H3138 H 0.30493 0.93362 0.43064 0.0
H3139 H 0.29957 0.91543 0.41875 0.0
H3140 H 0.26654 0.92089 0.46638 0.0
H3141 H 0.25471 0.877 0.43876 0.0
H3142 H 0.27082 0.94576 0.4322 0.0
H3143 H 0.29031 0.94871 0.4382 0.0
H3144 H 0.27606 0.94629 0.45385 0.0
H3145 H 0.25812 0.89458 0.39817 0.0
H3146 H 0.25349 0.87641 0.40949 0.0
H3147 H 0.27415 0.89128 0.40573 0.0
C3148 C 0.05879 0.33542 0.37692 0.0
C3149 C 0.05172 0.34491 0.37253 0.0
C3150 C 0.06898 0.33942 0.39104 0.0
C3151 C 0.072 0.35314 0.40104 0.0
C3152 C 0.06515 0.36296 0.39638 0.0
C3153 C 0.05486 0.35854 0.38233 0.0
C3154 C 0.07607 0.32867 0.39556 0.0
C3155 C 0.06826 0.37784 0.40653 0.0
C3156 C 0.08211 0.35489 0.44696 0.0
C3157 C 0.09868 0.36657 0.44757 0.0
C3158 C 0.07336 0.35011 0.43183 0.0
C3159 C 0.08145 0.35673 0.41692 0.0
C3160 C 0.09838 0.36749 0.41739 0.0
C3161 C 0.10674 0.37233 0.43268 0.0
C3162 C 0.05536 0.33829 0.43184 0.0
C3163 C 0.10763 0.37448 0.40187 0.0
H3164 H 0.05609 0.32468 0.36945 0.0
H3165 H 0.04886 0.36548 0.3793 0.0
H3166 H 0.08938 0.33617 0.39748 0.0
H3167 H 0.07101 0.32253 0.40739 0.0
H3168 H 0.07346 0.31914 0.38591 0.0
H3169 H 0.06262 0.38458 0.40079 0.0
H3170 H 0.06337 0.3741 0.41908 0.0
H3171 H 0.08149 0.38628 0.40802 0.0
H3172 H 0.07585 0.34971 0.45828 0.0
H3173 H 0.11966 0.38087 0.433 0.0
H3174 H 0.05225 0.32779 0.4233 0.0
H3175 H 0.0487 0.34448 0.4273 0.0
H3176 H 0.05105 0.33354 0.44436 0.0
H3177 H 0.10351 0.36503 0.39186 0.0
H3178 H 0.12089 0.37976 0.40394 0.0
H3179 H 0.10534 0.38434 0.39769 0.0
C3180 C 0.03306 0.30854 0.29729 0.0
C3181 C 0.04484 0.32413 0.3031 0.0
C3182 C 0.03693 0.29963 0.28602 0.0
C3183 C 0.05302 0.3064 0.28056 0.0
C3184 C 0.06495 0.32216 0.28627 0.0
C3185 C 0.06069 0.33088 0.29739 0.0
C3186 C 0.02384 0.28295 0.28001 0.0
C3187 C 0.08226 0.32971 0.28083 0.0
C3188 C 0.06692 0.2775 0.26409 0.0
C3189 C 0.06639 0.27947 0.24696 0.0
C3190 C 0.06257 0.28617 0.27518 0.0
C3191 C 0.05741 0.29694 0.26896 0.0
C3192 C 0.05667 0.29883 0.25168 0.0
C3193 C 0.0613 0.29019 0.2409 0.0
C3194 C 0.06368 0.28397 0.29354 0.0
C3195 C 0.05109 0.31008 0.24458 0.0
H3196 H 0.02075 0.30325 0.30155 0.0
H3197 H 0.0699 0.34288 0.30183 0.0
H3198 H 0.02283 0.2826 0.2663 0.0
H3199 H 0.02705 0.27353 0.28364 0.0
H3200 H 0.01183 0.27962 0.2851 0.0
H3201 H 0.09008 0.34209 0.28641 0.0
H3202 H 0.08737 0.32177 0.28436 0.0
H3203 H 0.08272 0.33067 0.26717 0.0
H3204 H 0.07092 0.2693 0.26884 0.0
H3205 H 0.06105 0.29189 0.22768 0.0
H3206 H 0.05168 0.2796 0.29911 0.0
H3207 H 0.07218 0.2959 0.29961 0.0
H3208 H 0.0679 0.27512 0.29636 0.0
H3209 H 0.03885 0.30662 0.24904 0.0
H3210 H 0.05066 0.30973 0.23083 0.0
H3211 H 0.05937 0.32284 0.24889 0.0
C3212 C 0.6741 0.72728 0.31142 0.0
C3213 C 0.68305 0.71922 0.31363 0.0
C3214 C 0.67797 0.73892 0.29901 0.0
C3215 C 0.691 0.74239 0.28847 0.0
C3216 C 0.70029 0.73451 0.29095 0.0
C3217 C 0.69602 0.72281 0.30333 0.0
C3218 C 0.6678 0.74707 0.29682 0.0
C3219 C 0.71441 0.73802 0.28016 0.0
C3220 C 0.6913 0.75726 0.24484 0.0
C3221 C 0.70335 0.77377 0.24633 0.0
C3222 C 0.68691 0.74698 0.25854 0.0
C3223 C 0.69436 0.75348 0.27422 0.0
C3224 C 0.7056 0.77039 0.27599 0.0
C3225 C 0.71006 0.78027 0.26204 0.0
C3226 C 0.67464 0.72907 0.25615 0.0
C3227 C 0.71347 0.77798 0.29247 0.0
H3228 H 0.66387 0.72425 0.31923 0.0
H3229 H 0.70251 0.71609 0.30462 0.0
H3230 H 0.67564 0.76055 0.29667 0.0
H3231 H 0.66112 0.74322 0.28475 0.0
H3232 H 0.6589 0.74394 0.30679 0.0
H3233 H 0.72082 0.7314 0.28418 0.0
H3234 H 0.71008 0.73439 0.26715 0.0
H3235 H 0.72318 0.75133 0.28041 0.0
H3236 H 0.68558 0.75226 0.23287 0.0
H3237 H 0.71906 0.79311 0.26339 0.0
H3238 H 0.66468 0.72544 0.26497 0.0
H3239 H 0.68048 0.72158 0.25877 0.0
H3240 H 0.66936 0.7261 0.24337 0.0
H3241 H 0.70444 0.77347 0.30238 0.0
H3242 H 0.71953 0.79155 0.29241 0.0
H3243 H 0.72271 0.77442 0.29542 0.0
C3244 C 0.27211 0.93532 0.30609 0.0
C3245 C 0.28157 0.95162 0.31163 0.0
C3246 C 0.26003 0.93097 0.29372 0.0
C3247 C 0.25757 0.94326 0.28649 0.0
C3248 C 0.26733 0.95977 0.29174 0.0
C3249 C 0.27911 0.96373 0.30433 0.0
C3250 C 0.24968 0.91319 0.28862 0.0
C3251 C 0.26525 0.97326 0.28412 0.0
C3252 C 0.23568 0.93435 0.24467 0.0
C3253 C 0.22026 0.93141 0.24911 0.0
C3254 C 0.24795 0.93823 0.2567 0.0
C3255 C 0.24461 0.93884 0.27361 0.0
C3256 C 0.22897 0.93551 0.27821 0.0
C3257 C 0.21702 0.93196 0.26589 0.0
C3258 C 0.26453 0.94191 0.25131 0.0
C3259 C 0.22489 0.93579 0.29613 0.0
H3260 H 0.27388 0.92586 0.31168 0.0
H3261 H 0.28645 0.97638 0.30843 0.0
H3262 H 0.23677 0.9091 0.29096 0.0
H3263 H 0.25067 0.9116 0.27516 0.0
H3264 H 0.25318 0.90513 0.2954 0.0
H3265 H 0.27424 0.98555 0.28914 0.0
H3266 H 0.26649 0.97312 0.27051 0.0
H3267 H 0.25292 0.97122 0.28646 0.0
H3268 H 0.23817 0.93376 0.23173 0.0
H3269 H 0.20511 0.9296 0.2694 0.0
H3270 H 0.2679 0.93334 0.25715 0.0
H3271 H 0.2737 0.95446 0.25548 0.0
H3272 H 0.26515 0.94095 0.23766 0.0
H3273 H 0.22748 0.92729 0.30328 0.0
H3274 H 0.21198 0.93228 0.29767 0.0
H3275 H 0.23258 0.94822 0.30159 0.0
C3276 C 0.69743 0.97259 0.30663 0.0
C3277 C 0.68499 0.96104 0.31622 0.0
C3278 C 0.70338 0.96769 0.29327 0.0
C3279 C 0.69641 0.95084 0.28916 0.0
C3280 C 0.68428 0.9391 0.29925 0.0
C3281 C 0.67856 0.94436 0.31257 0.0
C3282 C 0.71666 0.98058 0.28313 0.0
C3283 C 0.67698 0.92103 0.29561 0.0
C3284 C 0.69704 0.94142 0.24351 0.0
C3285 C 0.71047 0.93904 0.24284 0.0
C3286 C 0.69205 0.94473 0.2586 0.0
C3287 C 0.70071 0.94569 0.27343 0.0
C3288 C 0.71395 0.94276 0.27288 0.0
C3289 C 0.71883 0.93973 0.25758 0.0
C3290 C 0.67788 0.94782 0.25859 0.0
C3291 C 0.72368 0.94365 0.28816 0.0
H3292 H 0.70206 0.98551 0.30917 0.0
H3293 H 0.66882 0.93545 0.31994 0.0
H3294 H 0.72683 0.978 0.28225 0.0
H3295 H 0.712 0.98029 0.27037 0.0
H3296 H 0.72139 0.99309 0.28851 0.0
H3297 H 0.66863 0.91346 0.30537 0.0
H3298 H 0.67017 0.91787 0.2836 0.0
H3299 H 0.68673 0.91783 0.29448 0.0
H3300 H 0.69073 0.94117 0.23211 0.0
H3301 H 0.72945 0.93827 0.25714 0.0
H3302 H 0.68205 0.9606 0.26276 0.0
H3303 H 0.6687 0.93962 0.26742 0.0
H3304 H 0.67197 0.94585 0.24615 0.0
H3305 H 0.72843 0.93499 0.28712 0.0
H3306 H 0.71653 0.94094 0.29953 0.0
H3307 H 0.73424 0.95616 0.28932 0.0
C3308 C 0.06265 0.73325 0.29362 0.0
C3309 C 0.04759 0.72454 0.30115 0.0
C3310 C 0.06502 0.7442 0.28086 0.0
C3311 C 0.05194 0.74627 0.27529 0.0
C3312 C 0.03671 0.73752 0.28282 0.0
C3313 C 0.03476 0.72687 0.29573 0.0
C3314 C 0.0815 0.75352 0.27331 0.0
C3315 C 0.0224 0.73922 0.27707 0.0
C3316 C 0.05873 0.78361 0.25125 0.0
C3317 C 0.05559 0.77746 0.2349 0.0
C3318 C 0.0582 0.77378 0.26447 0.0
C3319 C 0.054 0.75729 0.26132 0.0
C3320 C 0.05095 0.75107 0.24484 0.0
C3321 C 0.05182 0.76124 0.23185 0.0
C3322 C 0.06169 0.7809 0.28185 0.0
C3323 C 0.04619 0.73349 0.24098 0.0
H3324 H 0.07267 0.73162 0.29779 0.0
H3325 H 0.02305 0.72013 0.3014 0.0
H3326 H 0.08064 0.75021 0.25998 0.0
H3327 H 0.08592 0.76686 0.27419 0.0
H3328 H 0.09057 0.75099 0.27947 0.0
H3329 H 0.01138 0.73157 0.28424 0.0
H3330 H 0.02534 0.75217 0.27826 0.0
H3331 H 0.01962 0.73562 0.2638 0.0
H3332 H 0.06131 0.79602 0.25375 0.0
H3333 H 0.04909 0.75638 0.21927 0.0
H3334 H 0.07094 0.77871 0.28808 0.0
H3335 H 0.05054 0.77475 0.28917 0.0
H3336 H 0.06607 0.79426 0.28208 0.0
H3337 H 0.05541 0.73068 0.24619 0.0
H3338 H 0.04482 0.73073 0.22747 0.0
H3339 H 0.03455 0.72521 0.24686 0.0
C3340 C 0.26732 0.32304 0.31592 0.0
C3341 C 0.27736 0.31657 0.32012 0.0
C3342 C 0.25668 0.31693 0.30209 0.0
C3343 C 0.25648 0.30442 0.29202 0.0
C3344 C 0.26617 0.29744 0.29665 0.0
C3345 C 0.27662 0.30373 0.31056 0.0
C3346 C 0.24601 0.32417 0.29793 0.0
C3347 C 0.26605 0.28382 0.28651 0.0
C3348 C 0.22423 0.28059 0.25867 0.0
C3349 C 0.23206 0.28878 0.24434 0.0
C3350 C 0.2316 0.28608 0.27439 0.0
C3351 C 0.24744 0.2997 0.27581 0.0
C3352 C 0.25526 0.3082 0.26141 0.0
C3353 C 0.24744 0.30268 0.24589 0.0
C3354 C 0.22259 0.27659 0.28921 0.0
C3355 C 0.27221 0.32269 0.2623 0.0
H3356 H 0.26803 0.33308 0.32329 0.0
H3357 H 0.28473 0.29904 0.31357 0.0
H3358 H 0.24987 0.33089 0.28618 0.0
H3359 H 0.23327 0.31427 0.29606 0.0
H3360 H 0.2465 0.33273 0.30779 0.0
H3361 H 0.27374 0.27923 0.29222 0.0
H3362 H 0.25349 0.27346 0.28506 0.0
H3363 H 0.27049 0.28822 0.27394 0.0
H3364 H 0.21247 0.26965 0.25765 0.0
H3365 H 0.2536 0.3089 0.23482 0.0
H3366 H 0.22662 0.28412 0.30077 0.0
H3367 H 0.22468 0.26605 0.2906 0.0
H3368 H 0.20934 0.27162 0.28741 0.0
H3369 H 0.27631 0.32838 0.25007 0.0
H3370 H 0.28078 0.31874 0.26697 0.0
H3371 H 0.27282 0.3321 0.27112 0.0
C3372 C 0.29985 0.35851 0.39477 0.0
C3373 C 0.28877 0.34234 0.3899 0.0
C3374 C 0.29607 0.36664 0.4071 0.0
C3375 C 0.28075 0.3585 0.41454 0.0
C3376 C 0.26946 0.34224 0.40959 0.0
C3377 C 0.27366 0.33431 0.39745 0.0
C3378 C 0.30853 0.3839 0.41223 0.0
C3379 C 0.25292 0.33323 0.41706 0.0
C3380 C 0.27615 0.37366 0.45674 0.0
C3381 C 0.26925 0.38338 0.45257 0.0
C3382 C 0.27989 0.36545 0.4445 0.0
C3383 C 0.27659 0.36693 0.42766 0.0
C3384 C 0.26951 0.37663 0.42335 0.0
C3385 C 0.26612 0.38492 0.43583 0.0
C3386 C 0.28768 0.35545 0.44959 0.0
C3387 C 0.26567 0.37839 0.40553 0.0
H3388 H 0.31158 0.36479 0.38909 0.0
H3389 H 0.26496 0.32185 0.39372 0.0
H3390 H 0.3036 0.39226 0.41009 0.0
H3391 H 0.3114 0.38448 0.42567 0.0
H3392 H 0.31994 0.38845 0.40536 0.0
H3393 H 0.24539 0.32076 0.41157 0.0
H3394 H 0.25416 0.33215 0.4306 0.0
H3395 H 0.24644 0.34022 0.41523 0.0
H3396 H 0.2789 0.37275 0.46963 0.0
H3397 H 0.26116 0.39272 0.43248 0.0
H3398 H 0.29966 0.36034 0.4438 0.0
H3399 H 0.28011 0.34261 0.44513 0.0
H3400 H 0.28939 0.35549 0.46322 0.0
H3401 H 0.277 0.3843 0.39846 0.0
H3402 H 0.25954 0.3858 0.4043 0.0
H3403 H 0.25777 0.36615 0.39975 0.0
C3404 C 0.64641 0.94591 0.39097 0.0
C3405 C 0.66196 0.9498 0.38596 0.0
C3406 C 0.63884 0.9349 0.40375 0.0
C3407 C 0.64686 0.92732 0.41149 0.0
C3408 C 0.6625 0.93109 0.40642 0.0
C3409 C 0.66994 0.94243 0.39383 0.0
C3410 C 0.62229 0.93144 0.40904 0.0
C3411 C 0.67129 0.92302 0.41417 0.0
C3412 C 0.63276 0.91003 0.45409 0.0
C3413 C 0.62179 0.89355 0.45029 0.0
C3414 C 0.64125 0.9211 0.44163 0.0
C3415 C 0.63884 0.91551 0.42495 0.0
C3416 C 0.6281 0.8988 0.42105 0.0
C3417 C 0.61951 0.88807 0.43373 0.0
C3418 C 0.65235 0.93888 0.44625 0.0
C3419 C 0.62538 0.89234 0.40343 0.0
H3420 H 0.64022 0.95165 0.38505 0.0
H3421 H 0.68193 0.94532 0.38999 0.0
H3422 H 0.61342 0.91826 0.40717 0.0
H3423 H 0.62263 0.93433 0.42243 0.0
H3424 H 0.61788 0.93866 0.40204 0.0
H3425 H 0.68326 0.92704 0.4086 0.0
H3426 H 0.67317 0.92587 0.42764 0.0
H3427 H 0.66384 0.90953 0.41269 0.0
H3428 H 0.63433 0.91434 0.46683 0.0
H3429 H 0.61083 0.87544 0.43061 0.0
H3430 H 0.64774 0.94648 0.44042 0.0
H3431 H 0.66464 0.94305 0.44151 0.0
H3432 H 0.65334 0.94113 0.45985 0.0
H3433 H 0.61938 0.89783 0.39605 0.0
H3434 H 0.61771 0.87881 0.40264 0.0
H3435 H 0.63714 0.89588 0.39766 0.0
C3436 C 0.06911 0.7304 0.376 0.0
C3437 C 0.06076 0.71374 0.37166 0.0
C3438 C 0.0795 0.73609 0.39005 0.0
C3439 C 0.08116 0.72477 0.40018 0.0
C3440 C 0.07323 0.70801 0.39541 0.0
C3441 C 0.06298 0.70268 0.38131 0.0
C3442 C 0.08828 0.75412 0.39437 0.0
C3443 C 0.075 0.69559 0.40562 0.0
C3444 C 0.11376 0.73766 0.43408 0.0
C3445 C 0.10518 0.73717 0.44822 0.0
C3446 C 0.10639 0.73449 0.41826 0.0
C3447 C 0.08986 0.73009 0.41654 0.0
C3448 C 0.0812 0.72976 0.43076 0.0
C3449 C 0.08898 0.73336 0.44639 0.0
C3450 C 0.11627 0.73507 0.40365 0.0
C3451 C 0.06351 0.725 0.42954 0.0
H3452 H 0.06725 0.73891 0.36857 0.0
H3453 H 0.05616 0.68972 0.37819 0.0
H3454 H 0.08358 0.75627 0.40604 0.0
H3455 H 0.10139 0.75852 0.39646 0.0
H3456 H 0.08682 0.76148 0.3845 0.0
H3457 H 0.06865 0.68317 0.39978 0.0
H3458 H 0.088 0.69937 0.40736 0.0
H3459 H 0.07 0.69497 0.41806 0.0
H3460 H 0.12618 0.74023 0.43536 0.0
H3461 H 0.08224 0.7327 0.45732 0.0
H3462 H 0.11173 0.73765 0.39198 0.0
H3463 H 0.11575 0.72307 0.40236 0.0
H3464 H 0.12919 0.74452 0.40564 0.0
H3465 H 0.06174 0.73295 0.42067 0.0
H3466 H 0.05869 0.72593 0.44168 0.0
H3467 H 0.0563 0.71222 0.42476 0.0
C3468 C 0.33146 0.06374 0.71916 0.0
C3469 C 0.32499 0.04755 0.71332 0.0
C3470 C 0.32333 0.06794 0.73087 0.0
C3471 C 0.30855 0.0556 0.73716 0.0
C3472 C 0.30213 0.03919 0.7316 0.0
C3473 C 0.31035 0.03538 0.71963 0.0
C3474 C 0.33044 0.08562 0.73632 0.0
C3475 C 0.28654 0.02566 0.73825 0.0
C3476 C 0.29523 0.06486 0.77794 0.0
C3477 C 0.28331 0.06864 0.77267 0.0
C3478 C 0.30334 0.06032 0.76654 0.0
C3479 C 0.29973 0.05993 0.74943 0.0
C3480 C 0.28785 0.0639 0.744 0.0
C3481 C 0.27971 0.06811 0.7557 0.0
C3482 C 0.3158 0.05598 0.7728 0.0
C3483 C 0.28387 0.06388 0.72583 0.0
H3484 H 0.34274 0.07324 0.71434 0.0
H3485 H 0.30533 0.02282 0.71529 0.0
H3486 H 0.32169 0.08992 0.73349 0.0
H3487 H 0.3327 0.08686 0.7499 0.0
H3488 H 0.34199 0.09375 0.73016 0.0
H3489 H 0.28346 0.01345 0.73306 0.0
H3490 H 0.28752 0.02538 0.75193 0.0
H3491 H 0.27642 0.02799 0.73529 0.0
H3492 H 0.29821 0.06547 0.79102 0.0
H3493 H 0.27061 0.07113 0.75155 0.0
H3494 H 0.32785 0.06463 0.76793 0.0
H3495 H 0.31264 0.04355 0.76827 0.0
H3496 H 0.31676 0.0563 0.78653 0.0
H3497 H 0.29493 0.07253 0.71926 0.0
H3498 H 0.27441 0.06739 0.72365 0.0
H3499 H 0.27957 0.05155 0.72025 0.0
C3500 C 0.95819 0.26378 0.71113 0.0
C3501 C 0.95168 0.26812 0.69769 0.0
C3502 C 0.94811 0.25095 0.72148 0.0
C3503 C 0.93115 0.24266 0.71857 0.0
C3504 C 0.92456 0.24691 0.70491 0.0
C3505 C 0.93491 0.25963 0.69466 0.0
C3506 C 0.95554 0.24651 0.73574 0.0
C3507 C 0.90653 0.23838 0.70144 0.0
C3508 C 0.89819 0.19324 0.73833 0.0
C3509 C 0.89433 0.20088 0.75802 0.0
C3510 C 0.91277 0.20887 0.72545 0.0
C3511 C 0.92016 0.23026 0.7302 0.0
C3512 C 0.9125 0.23687 0.74721 0.0
C3513 C 0.89783 0.22211 0.76087 0.0
C3514 C 0.91881 0.20399 0.71088 0.0
C3515 C 0.91815 0.2546 0.74984 0.0
H3516 H 0.9711 0.27074 0.71383 0.0
H3517 H 0.92987 0.2632 0.68442 0.0
H3518 H 0.95123 0.24885 0.74758 0.0
H3519 H 0.9516 0.23326 0.73499 0.0
H3520 H 0.96899 0.25359 0.73587 0.0
H3521 H 0.90336 0.24278 0.69001 0.0
H3522 H 0.90168 0.22499 0.70013 0.0
H3523 H 0.90043 0.24047 0.71203 0.0
H3524 H 0.89479 0.18052 0.73643 0.0
H3525 H 0.89398 0.22589 0.77176 0.0
H3526 H 0.93169 0.2077 0.71336 0.0
H3527 H 0.91803 0.21052 0.69986 0.0
H3528 H 0.91173 0.19057 0.70866 0.0
H3529 H 0.93155 0.26137 0.75131 0.0
H3530 H 0.91258 0.25659 0.76094 0.0
H3531 H 0.91492 0.25934 0.73875 0.0
C3532 C 0.71893 0.69497 0.71252 0.0
C3533 C 0.71608 0.68188 0.70199 0.0
C3534 C 0.73114 0.70063 0.72492 0.0
C3535 C 0.74035 0.69263 0.72718 0.0
C3536 C 0.73765 0.67953 0.71637 0.0
C3537 C 0.72547 0.67425 0.70395 0.0
C3538 C 0.73377 0.71479 0.736 0.0
C3539 C 0.7472 0.67069 0.7183 0.0
C3540 C 0.77863 0.71525 0.75405 0.0
C3541 C 0.77314 0.70849 0.76959 0.0
C3542 C 0.76833 0.7097 0.74 0.0
C3543 C 0.752 0.69732 0.74151 0.0
C3544 C 0.74657 0.6899 0.75702 0.0
C3545 C 0.75727 0.69542 0.77082 0.0
C3546 C 0.77481 0.7176 0.72369 0.0
C3547 C 0.72932 0.67647 0.75915 0.0
H3548 H 0.71123 0.70043 0.71141 0.0
H3549 H 0.72302 0.66391 0.69597 0.0
H3550 H 0.73088 0.71063 0.74892 0.0
H3551 H 0.74668 0.72449 0.73596 0.0
H3552 H 0.72616 0.72018 0.7321 0.0
H3553 H 0.74459 0.6617 0.70806 0.0
H3554 H 0.76038 0.67956 0.71875 0.0
H3555 H 0.74422 0.66411 0.73017 0.0
H3556 H 0.79097 0.72512 0.75292 0.0
H3557 H 0.75309 0.68977 0.78268 0.0
H3558 H 0.78824 0.72488 0.72392 0.0
H3559 H 0.76996 0.72588 0.7209 0.0
H3560 H 0.77079 0.70826 0.71359 0.0
H3561 H 0.72092 0.68126 0.75666 0.0
H3562 H 0.72722 0.67144 0.77181 0.0
H3563 H 0.72623 0.66635 0.75009 0.0
C3564 C 0.70531 0.64668 0.63652 0.0
C3565 C 0.70357 0.66036 0.63333 0.0
C3566 C 0.71127 0.64033 0.62445 0.0
C3567 C 0.71504 0.64753 0.60868 0.0
C3568 C 0.71261 0.66093 0.6052 0.0
C3569 C 0.7072 0.66738 0.6177 0.0
C3570 C 0.71419 0.6264 0.62881 0.0
C3571 C 0.71601 0.66861 0.58837 0.0
C3572 C 0.74632 0.64438 0.58271 0.0
C3573 C 0.73657 0.63127 0.57181 0.0
C3574 C 0.73945 0.64947 0.59502 0.0
C3575 C 0.7224 0.6417 0.59612 0.0
C3576 C 0.71246 0.6286 0.5851 0.0
C3577 C 0.71968 0.62339 0.57326 0.0
C3578 C 0.75047 0.66323 0.60682 0.0
C3579 C 0.69422 0.62031 0.58561 0.0
H3580 H 0.70268 0.64139 0.64871 0.0
H3581 H 0.70576 0.67793 0.61525 0.0
H3582 H 0.70771 0.61607 0.61982 0.0
H3583 H 0.7273 0.63049 0.62806 0.0
H3584 H 0.71018 0.62186 0.64146 0.0
H3585 H 0.71203 0.67787 0.58721 0.0
H3586 H 0.72918 0.67465 0.5861 0.0
H3587 H 0.70976 0.65907 0.57856 0.0
H3588 H 0.75937 0.65073 0.58173 0.0
H3589 H 0.7121 0.6133 0.56487 0.0
H3590 H 0.74749 0.65931 0.6198 0.0
H3591 H 0.74861 0.67388 0.60509 0.0
H3592 H 0.76347 0.66726 0.60501 0.0
H3593 H 0.69005 0.61498 0.59794 0.0
H3594 H 0.68823 0.61043 0.57603 0.0
H3595 H 0.6902 0.62945 0.58367 0.0
C3596 C 0.33317 0.06212 0.64063 0.0
C3597 C 0.34295 0.05518 0.64412 0.0
C3598 C 0.33649 0.07274 0.62732 0.0
C3599 C 0.34986 0.07637 0.61724 0.0
C3600 C 0.35994 0.0696 0.62097 0.0
C3601 C 0.35617 0.05884 0.63419 0.0
C3602 C 0.32543 0.07967 0.62375 0.0
C3603 C 0.37444 0.07334 0.6107 0.0
C3604 C 0.35028 0.08845 0.57243 0.0
C3605 C 0.36156 0.10527 0.57327 0.0
C3606 C 0.34607 0.07896 0.58672 0.0
C3607 C 0.35288 0.08653 0.60228 0.0
C3608 C 0.36323 0.10367 0.60331 0.0
C3609 C 0.3675 0.11279 0.58883 0.0
C3610 C 0.33466 0.06076 0.58511 0.0
C3611 C 0.37042 0.11239 0.61958 0.0
H3612 H 0.32273 0.059 0.64816 0.0
H3613 H 0.36331 0.0529 0.63646 0.0
H3614 H 0.33256 0.09319 0.62309 0.0
H3615 H 0.31922 0.075 0.61154 0.0
H3616 H 0.3161 0.07638 0.6333 0.0
H3617 H 0.38143 0.06763 0.61565 0.0
H3618 H 0.37043 0.06883 0.59779 0.0
H3619 H 0.38261 0.08676 0.61028 0.0
H3620 H 0.34499 0.0826 0.5606 0.0
H3621 H 0.37576 0.12586 0.58966 0.0
H3622 H 0.32444 0.05701 0.59363 0.0
H3623 H 0.34114 0.0541 0.5887 0.0
H3624 H 0.32967 0.05689 0.57231 0.0
H3625 H 0.36132 0.10761 0.62941 0.0
H3626 H 0.37532 0.1258 0.61879 0.0
H3627 H 0.38048 0.11021 0.62318 0.0
C3628 C 0.94988 0.26563 0.62211 0.0
C3629 C 0.95693 0.28149 0.62902 0.0
C3630 C 0.93873 0.26084 0.60874 0.0
C3631 C 0.93486 0.27232 0.60185 0.0
C3632 C 0.94269 0.28862 0.6081 0.0
C3633 C 0.95351 0.29297 0.6217 0.0
C3634 C 0.93046 0.24328 0.60258 0.0
C3635 C 0.93918 0.30132 0.60082 0.0
C3636 C 0.91293 0.263 0.55998 0.0
C3637 C 0.89707 0.25839 0.56456 0.0
C3638 C 0.9254 0.26759 0.57196 0.0
C3639 C 0.9218 0.26705 0.58893 0.0
C3640 C 0.90571 0.26181 0.59365 0.0
C3641 C 0.89357 0.25765 0.58142 0.0
C3642 C 0.94245 0.2733 0.56646 0.0
C3643 C 0.90132 0.26073 0.61164 0.0
H3644 H 0.95252 0.2567 0.62757 0.0
H3645 H 0.95906 0.30532 0.6268 0.0
H3646 H 0.91737 0.23729 0.60529 0.0
H3647 H 0.93145 0.24272 0.58897 0.0
H3648 H 0.93564 0.23619 0.60846 0.0
H3649 H 0.94744 0.31378 0.60599 0.0
H3650 H 0.94035 0.30154 0.58718 0.0
H3651 H 0.92653 0.29813 0.60339 0.0
H3652 H 0.91564 0.26322 0.547 0.0
H3653 H 0.8813 0.25385 0.58505 0.0
H3654 H 0.94712 0.26562 0.57196 0.0
H3655 H 0.95055 0.28605 0.57094 0.0
H3656 H 0.9432 0.27287 0.55279 0.0
H3657 H 0.90521 0.25292 0.61829 0.0
H3658 H 0.88811 0.25563 0.61324 0.0
H3659 H 0.90779 0.27307 0.6176 0.0
C3660 C 0.36712 0.31162 0.64414 0.0
C3661 C 0.35413 0.3007 0.6536 0.0
C3662 C 0.3723 0.30601 0.63068 0.0
C3663 C 0.36402 0.28913 0.62639 0.0
C3664 C 0.3514 0.27798 0.63643 0.0
C3665 C 0.34644 0.28394 0.64981 0.0
C3666 C 0.38607 0.31825 0.62055 0.0
C3667 C 0.34271 0.25984 0.63262 0.0
C3668 C 0.36245 0.27864 0.58068 0.0
C3669 C 0.37465 0.27442 0.57964 0.0
C3670 C 0.35872 0.28315 0.59588 0.0
C3671 C 0.36738 0.28343 0.61045 0.0
C3672 C 0.37952 0.27888 0.60953 0.0
C3673 C 0.38319 0.2747 0.59411 0.0
C3674 C 0.34578 0.28805 0.59626 0.0
C3675 C 0.3892 0.27904 0.62456 0.0
H3676 H 0.37276 0.32463 0.64682 0.0
H3677 H 0.33628 0.27555 0.65708 0.0
H3678 H 0.3954 0.3145 0.61931 0.0
H3679 H 0.38152 0.31861 0.6079 0.0
H3680 H 0.39189 0.33078 0.62614 0.0
H3681 H 0.33425 0.25269 0.6425 0.0
H3682 H 0.3357 0.25729 0.62078 0.0
H3683 H 0.35162 0.25556 0.63108 0.0
H3684 H 0.35605 0.27875 0.56948 0.0
H3685 H 0.39294 0.27188 0.59336 0.0
H3686 H 0.35115 0.30094 0.60069 0.0
H3687 H 0.33629 0.28034 0.60506 0.0
H3688 H 0.33994 0.28685 0.5839 0.0
H3689 H 0.40004 0.29135 0.62595 0.0
H3690 H 0.39347 0.27002 0.62315 0.0
H3691 H 0.38214 0.27635 0.63601 0.0
C3692 C 0.72984 0.04963 0.61537 0.0
C3693 C 0.71502 0.04408 0.62325 0.0
C3694 C 0.73391 0.06006 0.6018 0.0
C3695 C 0.72281 0.06486 0.59583 0.0
C3696 C 0.70773 0.05909 0.60354 0.0
C3697 C 0.70407 0.04886 0.61719 0.0
C3698 C 0.75018 0.06614 0.59402 0.0
C3699 C 0.69547 0.06376 0.5974 0.0
C3700 C 0.7363 0.10346 0.57115 0.0
C3701 C 0.73212 0.09714 0.55489 0.0
C3702 C 0.73402 0.09316 0.58451 0.0
C3703 C 0.72693 0.07608 0.58162 0.0
C3704 C 0.72284 0.06966 0.56525 0.0
C3705 C 0.72561 0.08028 0.55209 0.0
C3706 C 0.73877 0.1005 0.60177 0.0
C3707 C 0.71496 0.05149 0.56169 0.0
H3708 H 0.73841 0.04607 0.61999 0.0
H3709 H 0.69255 0.04457 0.6231 0.0
H3710 H 0.74852 0.06262 0.58069 0.0
H3711 H 0.75718 0.07969 0.59484 0.0
H3712 H 0.75741 0.0612 0.60007 0.0
H3713 H 0.6841 0.05781 0.60443 0.0
H3714 H 0.70066 0.07721 0.59846 0.0
H3715 H 0.69246 0.06029 0.58412 0.0
H3716 H 0.74113 0.11642 0.57354 0.0
H3717 H 0.7222 0.07535 0.53957 0.0
H3718 H 0.74643 0.0962 0.60806 0.0
H3719 H 0.72776 0.09644 0.60918 0.0
H3720 H 0.7455 0.11409 0.60177 0.0
H3721 H 0.7224 0.04652 0.56713 0.0
H3722 H 0.71322 0.04854 0.54821 0.0
H3723 H 0.70296 0.04514 0.56754 0.0
C3724 C 0.92935 0.657 0.64491 0.0
C3725 C 0.93775 0.64917 0.65055 0.0
C3726 C 0.91945 0.65136 0.6305 0.0
C3727 C 0.91834 0.63789 0.62137 0.0
C3728 C 0.92638 0.62963 0.62743 0.0
C3729 C 0.93614 0.6355 0.64183 0.0
C3730 C 0.91051 0.66003 0.62478 0.0
C3731 C 0.9252 0.61497 0.61833 0.0
C3732 C 0.8872 0.61447 0.58708 0.0
C3733 C 0.89629 0.6212 0.57291 0.0
C3734 C 0.89379 0.62056 0.60295 0.0
C3735 C 0.91008 0.63326 0.60477 0.0
C3736 C 0.91912 0.64048 0.59048 0.0
C3737 C 0.91208 0.63443 0.57474 0.0
C3738 C 0.88343 0.61251 0.61759 0.0
C3739 C 0.93654 0.654 0.5918 0.0
H3740 H 0.93073 0.66767 0.65163 0.0
H3741 H 0.94302 0.62974 0.64595 0.0
H3742 H 0.91541 0.66608 0.61288 0.0
H3743 H 0.8975 0.65104 0.62256 0.0
H3744 H 0.91156 0.66942 0.63393 0.0
H3745 H 0.93168 0.60955 0.62504 0.0
H3746 H 0.91231 0.60544 0.61658 0.0
H3747 H 0.9304 0.61857 0.60587 0.0
H3748 H 0.87505 0.60411 0.58588 0.0
H3749 H 0.91917 0.63956 0.56382 0.0
H3750 H 0.88772 0.62036 0.62892 0.0
H3751 H 0.88356 0.60097 0.6199 0.0
H3752 H 0.87065 0.60922 0.61487 0.0
H3753 H 0.94153 0.65906 0.57955 0.0
H3754 H 0.94407 0.64923 0.5975 0.0
H3755 H 0.93765 0.66409 0.59993 0.0
C3756 C 0.96117 0.69094 0.72631 0.0
C3757 C 0.94857 0.67555 0.72102 0.0
C3758 C 0.95891 0.69989 0.73895 0.0
C3759 C 0.9436 0.69341 0.74635 0.0
C3760 C 0.93074 0.67804 0.74087 0.0
C3761 C 0.9334 0.66923 0.72836 0.0
C3762 C 0.97299 0.71617 0.74458 0.0
C3763 C 0.91419 0.67086 0.74829 0.0
C3764 C 0.9433 0.70953 0.78948 0.0
C3765 C 0.93921 0.72167 0.78615 0.0
C3766 C 0.94439 0.69997 0.77668 0.0
C3767 C 0.94126 0.70259 0.76012 0.0
C3768 C 0.93675 0.71456 0.75669 0.0
C3769 C 0.93597 0.72411 0.76973 0.0
C3770 C 0.94945 0.68748 0.78082 0.0
C3771 C 0.93319 0.71762 0.73921 0.0
H3772 H 0.97295 0.6959 0.72078 0.0
H3773 H 0.92356 0.65741 0.72427 0.0
H3774 H 0.96976 0.72595 0.74322 0.0
H3775 H 0.9758 0.71575 0.75789 0.0
H3776 H 0.98407 0.71955 0.73746 0.0
H3777 H 0.9053 0.65908 0.7422 0.0
H3778 H 0.91503 0.66877 0.76167 0.0
H3779 H 0.90955 0.67959 0.74722 0.0
H3780 H 0.9461 0.70785 0.80213 0.0
H3781 H 0.93313 0.7337 0.76704 0.0
H3782 H 0.96118 0.69088 0.77505 0.0
H3783 H 0.94041 0.67528 0.7757 0.0
H3784 H 0.95079 0.68648 0.79438 0.0
H3785 H 0.94439 0.72258 0.73194 0.0
H3786 H 0.92857 0.72641 0.73877 0.0
H3787 H 0.92412 0.70597 0.73307 0.0
C3788 C 0.33523 0.28125 0.73053 0.0
C3789 C 0.32861 0.28971 0.72217 0.0
C3790 C 0.32641 0.26968 0.74252 0.0
C3791 C 0.31075 0.26675 0.74648 0.0
C3792 C 0.3041 0.2754 0.73825 0.0
C3793 C 0.31305 0.28666 0.72611 0.0
C3794 C 0.33378 0.26049 0.75084 0.0
C3795 C 0.28755 0.27283 0.74232 0.0
C3796 C 0.27995 0.22758 0.76665 0.0
C3797 C 0.28127 0.23267 0.78326 0.0
C3798 C 0.28999 0.23835 0.75467 0.0
C3799 C 0.30127 0.25473 0.7593 0.0
C3800 C 0.30277 0.25988 0.77606 0.0
C3801 C 0.2928 0.24877 0.78783 0.0
C3802 C 0.28818 0.23235 0.73695 0.0
C3803 C 0.31444 0.27732 0.78146 0.0
H3804 H 0.34722 0.28347 0.72752 0.0
H3805 H 0.30788 0.29322 0.71981 0.0
H3806 H 0.33483 0.26287 0.7644 0.0
H3807 H 0.32577 0.24713 0.7488 0.0
H3808 H 0.34597 0.26398 0.74616 0.0
H3809 H 0.28426 0.28078 0.73503 0.0
H3810 H 0.27823 0.25988 0.73983 0.0
H3811 H 0.28715 0.27539 0.75568 0.0
H3812 H 0.27087 0.21525 0.76294 0.0
H3813 H 0.29364 0.2528 0.8006 0.0
H3814 H 0.30017 0.23537 0.73207 0.0
H3815 H 0.28326 0.2386 0.72913 0.0
H3816 H 0.27996 0.21893 0.73565 0.0
H3817 H 0.32687 0.28087 0.77754 0.0
H3818 H 0.31468 0.27916 0.79507 0.0
H3819 H 0.31093 0.28569 0.77539 0.0
C3820 C 0.72722 0.02898 0.7072 0.0
C3821 C 0.72686 0.03976 0.6956 0.0
C3822 C 0.73773 0.03481 0.7211 0.0
C3823 C 0.74783 0.05188 0.72365 0.0
C3824 C 0.74798 0.06278 0.71158 0.0
C3825 C 0.73732 0.05659 0.69777 0.0
C3826 C 0.7375 0.02274 0.73342 0.0
C3827 C 0.75901 0.081 0.71357 0.0
C3828 C 0.75745 0.06625 0.76857 0.0
C3829 C 0.77295 0.06817 0.77098 0.0
C3830 C 0.74936 0.06135 0.75311 0.0
C3831 C 0.75695 0.0583 0.73967 0.0
C3832 C 0.77276 0.06058 0.74194 0.0
C3833 C 0.78045 0.0652 0.75761 0.0
C3834 C 0.73246 0.05895 0.75131 0.0
C3835 C 0.78144 0.05745 0.72818 0.0
H3836 H 0.71878 0.01598 0.70575 0.0
H3837 H 0.7369 0.06492 0.68884 0.0
H3838 H 0.74995 0.02483 0.73561 0.0
H3839 H 0.73309 0.02459 0.74544 0.0
H3840 H 0.7296 0.00986 0.72916 0.0
H3841 H 0.75867 0.08771 0.70246 0.0
H3842 H 0.75537 0.08564 0.72443 0.0
H3843 H 0.77167 0.08375 0.71595 0.0
H3844 H 0.75151 0.06824 0.77894 0.0
H3845 H 0.79226 0.06624 0.75944 0.0
H3846 H 0.72378 0.04595 0.74811 0.0
H3847 H 0.73189 0.06643 0.74106 0.0
H3848 H 0.72847 0.06234 0.7628 0.0
H3849 H 0.77887 0.04462 0.72887 0.0
H3850 H 0.79476 0.06551 0.72959 0.0
H3851 H 0.7775 0.05935 0.71581 0.0
C3852 C 0.06524 0.34602 0.01786 0.0
C3853 C 0.04994 0.34191 0.02378 0.0
C3854 C 0.07356 0.33809 0.02361 0.0
C3855 C 0.0667 0.32628 0.03606 0.0
C3856 C 0.05137 0.32225 0.04226 0.0
C3857 C 0.04303 0.32992 0.03584 0.0
C3858 C 0.08955 0.34221 0.01613 0.0
C3859 C 0.04391 0.31011 0.05591 0.0
C3860 C 0.08081 0.28779 0.04205 0.0
C3861 C 0.09555 0.29849 0.05943 0.0
C3862 C 0.06986 0.29783 0.03507 0.0
C3863 C 0.07561 0.31826 0.04252 0.0
C3864 C 0.09311 0.32986 0.0561 0.0
C3865 C 0.10485 0.32089 0.06367 0.0
C3866 C 0.05618 0.2892 0.02283 0.0
C3867 C 0.09783 0.34686 0.06157 0.0
H3868 H 0.07057 0.35517 0.00843 0.0
H3869 H 0.03124 0.32681 0.04052 0.0
H3870 H 0.09953 0.34956 0.02517 0.0
H3871 H 0.08999 0.33087 0.01316 0.0
H3872 H 0.09177 0.34937 0.00467 0.0
H3873 H 0.03227 0.30895 0.05995 0.0
H3874 H 0.04167 0.29791 0.05164 0.0
H3875 H 0.05244 0.31394 0.06674 0.0
H3876 H 0.0767 0.27513 0.03878 0.0
H3877 H 0.11453 0.32719 0.0728 0.0
H3878 H 0.05441 0.29811 0.01546 0.0
H3879 H 0.04494 0.2814 0.02956 0.0
H3880 H 0.05856 0.28115 0.01459 0.0
H3881 H 0.10869 0.3556 0.0548 0.0
H3882 H 0.10115 0.34847 0.07495 0.0
H3883 H 0.08786 0.34956 0.05913 0.0
C3884 C 0.66912 0.70449 0.03774 0.0
C3885 C 0.67172 0.69184 0.04323 0.0
C3886 C 0.67622 0.71967 0.04618 0.0
C3887 C 0.68605 0.7222 0.06045 0.0
C3888 C 0.68855 0.70944 0.06619 0.0
C3889 C 0.68141 0.69441 0.05747 0.0
C3890 C 0.67336 0.73306 0.03973 0.0
C3891 C 0.6988 0.71167 0.08153 0.0
C3892 C 0.72497 0.77229 0.0754 0.0
C3893 C 0.71199 0.77675 0.08904 0.0
C3894 C 0.71448 0.75294 0.06437 0.0
C3895 C 0.6939 0.73815 0.06928 0.0
C3896 C 0.6834 0.74146 0.086 0.0
C3897 C 0.69284 0.76042 0.09776 0.0
C3898 C 0.72279 0.74922 0.05094 0.0
C3899 C 0.66683 0.72837 0.09018 0.0
H3900 H 0.66168 0.70261 0.02672 0.0
H3901 H 0.68344 0.68468 0.06182 0.0
H3902 H 0.6679 0.73705 0.04948 0.0
H3903 H 0.6851 0.74379 0.03656 0.0
H3904 H 0.66522 0.72909 0.02857 0.0
H3905 H 0.69924 0.70041 0.08462 0.0
H3906 H 0.71134 0.72174 0.07973 0.0
H3907 H 0.69392 0.71523 0.0922 0.0
H3908 H 0.7367 0.78181 0.07158 0.0
H3909 H 0.68629 0.76308 0.10697 0.0
H3910 H 0.71527 0.74599 0.03938 0.0
H3911 H 0.72395 0.73843 0.05433 0.0
H3912 H 0.73495 0.75986 0.04892 0.0
H3913 H 0.65866 0.72541 0.07915 0.0
H3914 H 0.66212 0.73236 0.10066 0.0
H3915 H 0.66722 0.71713 0.09342 0.0
C3916 C 0.28703 0.96183 0.02016 0.0
C3917 C 0.29933 0.97361 0.03054 0.0
C3918 C 0.27117 0.95238 0.02577 0.0
C3919 C 0.26762 0.9546 0.04222 0.0
C3920 C 0.28009 0.96624 0.05284 0.0
C3921 C 0.29575 0.9757 0.04683 0.0
C3922 C 0.25815 0.94025 0.01401 0.0
C3923 C 0.27684 0.96881 0.07053 0.0
C3924 C 0.22452 0.94271 0.05322 0.0
C3925 C 0.21919 0.92755 0.06067 0.0
C3926 C 0.24016 0.95153 0.04695 0.0
C3927 C 0.2508 0.94507 0.04826 0.0
C3928 C 0.24546 0.92967 0.05559 0.0
C3929 C 0.22964 0.92098 0.06148 0.0
C3930 C 0.24529 0.96776 0.03894 0.0
C3931 C 0.25651 0.92245 0.05732 0.0
H3932 H 0.28972 0.96023 0.00753 0.0
H3933 H 0.30524 0.98472 0.05495 0.0
H3934 H 0.25244 0.92782 0.01924 0.0
H3935 H 0.24848 0.94353 0.01233 0.0
H3936 H 0.26293 0.93982 0.00168 0.0
H3937 H 0.288 0.97787 0.07738 0.0
H3938 H 0.26789 0.97314 0.07079 0.0
H3939 H 0.27153 0.95705 0.07713 0.0
H3940 H 0.21635 0.94764 0.05223 0.0
H3941 H 0.2255 0.90907 0.06682 0.0
H3942 H 0.24928 0.96756 0.02617 0.0
H3943 H 0.25576 0.97765 0.04593 0.0
H3944 H 0.23538 0.9708 0.03841 0.0
H3945 H 0.26052 0.92089 0.04497 0.0
H3946 H 0.25055 0.9104 0.06342 0.0
H3947 H 0.26754 0.93092 0.0647 0.0
C3948 C 0.32039 0.02878 0.97951 0.0
C3949 C 0.33114 0.03666 0.99292 0.0
C3950 C 0.31216 0.03599 0.97173 0.0
C3951 C 0.31437 0.05114 0.97787 0.0
C3952 C 0.32481 0.05884 0.99177 0.0
C3953 C 0.33327 0.05164 0.99894 0.0
C3954 C 0.30152 0.02765 0.95664 0.0
C3955 C 0.32714 0.07475 0.99901 0.0
C3956 C 0.30762 0.08033 0.95116 0.0
C3957 C 0.29216 0.07713 0.95589 0.0
C3958 C 0.31461 0.07137 0.95761 0.0
C3959 C 0.30625 0.05931 0.96953 0.0
C3960 C 0.29062 0.05588 0.97425 0.0
C3961 C 0.28368 0.06466 0.96718 0.0
C3962 C 0.33113 0.07509 0.95194 0.0
C3963 C 0.28149 0.04343 0.98725 0.0
H3964 H 0.31884 0.01725 0.97477 0.0
H3965 H 0.34148 0.0577 0.00938 0.0
H3966 H 0.28907 0.02545 0.9586 0.0
H3967 H 0.30628 0.03574 0.94584 0.0
H3968 H 0.30086 0.01579 0.9536 0.0
H3969 H 0.33475 0.07852 0.01054 0.0
H3970 H 0.33299 0.08461 0.98989 0.0
H3971 H 0.31522 0.07361 0.00179 0.0
H3972 H 0.31441 0.08994 0.94252 0.0
H3973 H 0.27175 0.06212 0.97087 0.0
H3974 H 0.33099 0.06362 0.94823 0.0
H3975 H 0.34013 0.08078 0.96229 0.0
H3976 H 0.33526 0.08353 0.94135 0.0
H3977 H 0.28031 0.03144 0.9838 0.0
H3978 H 0.2692 0.04175 0.98907 0.0
H3979 H 0.28836 0.04741 0.99922 0.0
C3980 C 0.97214 0.2923 0.99024 0.0
C3981 C 0.98743 0.30399 0.98481 0.0
C3982 C 0.96358 0.27681 0.98239 0.0
C3983 C 0.9706 0.27295 0.96903 0.0
C3984 C 0.98619 0.28452 0.96384 0.0
C3985 C 0.99439 0.29994 0.97171 0.0
C3986 C 0.94693 0.26468 0.98815 0.0
C3987 C 0.99419 0.28067 0.94986 0.0
C3988 C 0.95482 0.22122 0.95489 0.0
C3989 C 0.94007 0.21961 0.9385 0.0
C3990 C 0.96421 0.24025 0.96654 0.0
C3991 C 0.9616 0.25716 0.96005 0.0
C3992 C 0.95063 0.25628 0.94121 0.0
C3993 C 0.94081 0.23782 0.9287 0.0
C3994 C 0.97438 0.2421 0.98154 0.0
C3995 C 0.94967 0.27094 0.93597 0.0
H3996 H 0.96671 0.29537 0.00035 0.0
H3997 H 0.00628 0.30885 0.96755 0.0
H3998 H 0.93793 0.26171 0.97788 0.0
H3999 H 0.94663 0.25313 0.99162 0.0
H4000 H 0.94326 0.2694 0.99893 0.0
H4001 H 0.0067 0.29073 0.94783 0.0
H4002 H 0.99464 0.26933 0.95252 0.0
H4003 H 0.98693 0.2784 0.93824 0.0
H4004 H 0.95514 0.21057 0.95938 0.0
H4005 H 0.9332 0.2367 0.91809 0.0
H4006 H 0.96945 0.24538 0.99235 0.0
H4007 H 0.98686 0.25229 0.97977 0.0
H4008 H 0.97462 0.23061 0.98387 0.0
H4009 H 0.94534 0.27541 0.94638 0.0
H4010 H 0.94142 0.26794 0.925 0.0
H4011 H 0.96194 0.28085 0.93294 0.0
C4012 C 0.70363 0.68358 0.98961 0.0
C4013 C 0.6964 0.66648 0.9882 0.0
C4014 C 0.71829 0.69382 0.98188 0.0
C4015 C 0.7258 0.68681 0.97241 0.0
C4016 C 0.71841 0.6696 0.97066 0.0
C4017 C 0.70386 0.65966 0.97863 0.0
C4018 C 0.72591 0.71213 0.98415 0.0
C4019 C 0.72598 0.66166 0.96055 0.0
C4020 C 0.7575 0.71253 0.94125 0.0
C4021 C 0.77191 0.71609 0.94978 0.0
C4022 C 0.74239 0.70317 0.94853 0.0
C4023 C 0.7417 0.6974 0.96478 0.0
C4024 C 0.7562 0.70115 0.97353 0.0
C4025 C 0.7711 0.71025 0.96585 0.0
C4026 C 0.72715 0.69915 0.9387 0.0
C4027 C 0.75598 0.69534 0.99093 0.0
H4028 H 0.69801 0.68899 0.99701 0.0
H4029 H 0.69834 0.64648 0.97736 0.0
H4030 H 0.73792 0.71708 0.99049 0.0
H4031 H 0.72795 0.71801 0.97193 0.0
H4032 H 0.71831 0.71566 0.99152 0.0
H4033 H 0.71832 0.64813 0.95981 0.0
H4034 H 0.72807 0.66644 0.9478 0.0
H4035 H 0.73795 0.66472 0.96608 0.0
H4036 H 0.75804 0.71684 0.92877 0.0
H4037 H 0.78215 0.71268 0.97238 0.0
H4038 H 0.71981 0.7033 0.94561 0.0
H4039 H 0.71965 0.6857 0.93689 0.0
H4040 H 0.72978 0.70491 0.92638 0.0
H4041 H 0.7491 0.69922 0.99901 0.0
H4042 H 0.76836 0.70014 0.99639 0.0
H4043 H 0.74973 0.68178 0.99094 0.0
C4044 C 0.97089 0.68217 0.9752 0.0
C4045 C 0.97027 0.67806 0.9919 0.0
C4046 C 0.96178 0.68914 0.96903 0.0
C4047 C 0.95221 0.69246 0.97995 0.0
C4048 C 0.95156 0.6883 0.99682 0.0
C4049 C 0.96043 0.68096 0.00254 0.0
C4050 C 0.96246 0.69301 0.95089 0.0
C4051 C 0.94176 0.69195 0.00893 0.0
C4052 C 0.94137 0.72529 0.96979 0.0
C4053 C 0.92477 0.71588 0.96584 0.0
C4054 C 0.95054 0.71783 0.97413 0.0
C4055 C 0.94307 0.70055 0.97391 0.0
C4056 C 0.9266 0.691 0.96887 0.0
C4057 C 0.91762 0.69878 0.96501 0.0
C4058 C 0.96804 0.72844 0.9796 0.0
C4059 C 0.91833 0.67256 0.96801 0.0
H4060 H 0.97845 0.67988 0.96694 0.0
H4061 H 0.96006 0.67794 0.0155 0.0
H4062 H 0.95003 0.6871 0.94533 0.0
H4063 H 0.96779 0.70639 0.94938 0.0
H4064 H 0.96977 0.68884 0.94389 0.0
H4065 H 0.94265 0.68808 0.02167 0.0
H4066 H 0.94601 0.70527 0.00925 0.0
H4067 H 0.92882 0.6856 0.00488 0.0
H4068 H 0.94709 0.73852 0.96997 0.0
H4069 H 0.90488 0.69145 0.96161 0.0
H4070 H 0.97596 0.72549 0.97209 0.0
H4071 H 0.96965 0.72592 0.99268 0.0
H4072 H 0.97218 0.74169 0.97855 0.0
H4073 H 0.92561 0.66854 0.96076 0.0
H4074 H 0.90597 0.66702 0.9623 0.0
H4075 H 0.91736 0.66773 0.98065 0.0
C4076 C 0.34302 0.30234 0.96617 0.0
C4077 C 0.33701 0.31055 0.97583 0.0
C4078 C 0.33271 0.28638 0.96 0.0
C4079 C 0.31608 0.27836 0.96384 0.0
C4080 C 0.30987 0.28676 0.97314 0.0
C4081 C 0.32036 0.30277 0.9789 0.0
C4082 C 0.3397 0.27791 0.94984 0.0
C4083 C 0.29225 0.27859 0.97769 0.0
C4084 C 0.28401 0.23969 0.94171 0.0
C4085 C 0.28233 0.22761 0.95285 0.0
C4086 C 0.29559 0.25621 0.94465 0.0
C4087 C 0.30534 0.26079 0.95931 0.0
C4088 C 0.30389 0.24861 0.97042 0.0
C4089 C 0.29246 0.23219 0.96701 0.0
C4090 C 0.29695 0.26881 0.93239 0.0
C4091 C 0.31387 0.25299 0.98633 0.0
H4092 H 0.35583 0.30827 0.96363 0.0
H4093 H 0.31557 0.30895 0.98639 0.0
H4094 H 0.33936 0.26771 0.95694 0.0
H4095 H 0.33232 0.27255 0.93833 0.0
H4096 H 0.35244 0.28636 0.94649 0.0
H4097 H 0.28918 0.28706 0.98435 0.0
H4098 H 0.28435 0.27377 0.96642 0.0
H4099 H 0.28938 0.26802 0.9857 0.0
H4100 H 0.27605 0.23629 0.93087 0.0
H4101 H 0.291 0.22291 0.97576 0.0
H4102 H 0.30982 0.27704 0.9294 0.0
H4103 H 0.29232 0.27651 0.9379 0.0
H4104 H 0.28997 0.26311 0.92072 0.0
H4105 H 0.32694 0.2604 0.98373 0.0
H4106 H 0.31187 0.242 0.99322 0.0
H4107 H 0.3107 0.26054 0.99442 0.0
C4108 C 0.70674 0.02767 0.97687 0.0
C4109 C 0.70384 0.02863 0.99367 0.0
C4110 C 0.722 0.03799 0.97032 0.0
C4111 C 0.73475 0.04927 0.98093 0.0
C4112 C 0.73192 0.05017 0.99795 0.0
C4113 C 0.71643 0.03996 0.00409 0.0
C4114 C 0.72445 0.03691 0.95205 0.0
C4115 C 0.74529 0.06182 0.00971 0.0
C4116 C 0.77822 0.06576 0.96778 0.0
C4117 C 0.78251 0.08174 0.96324 0.0
C4118 C 0.7627 0.05502 0.97352 0.0
C4119 C 0.75103 0.06023 0.97425 0.0
C4120 C 0.75505 0.07607 0.96894 0.0
C4121 C 0.77076 0.08666 0.9636 0.0
C4122 C 0.7589 0.03827 0.97918 0.0
C4123 C 0.74283 0.08192 0.96914 0.0
H4124 H 0.697 0.01897 0.96876 0.0
H4125 H 0.71426 0.04064 0.01712 0.0
H4126 H 0.72863 0.049 0.94638 0.0
H4127 H 0.73401 0.03358 0.95013 0.0
H4128 H 0.7132 0.02773 0.94542 0.0
H4129 H 0.7412 0.06074 0.02266 0.0
H4130 H 0.7556 0.0594 0.0094 0.0
H4131 H 0.74987 0.07461 0.00579 0.0
H4132 H 0.78712 0.06176 0.96715 0.0
H4133 H 0.77392 0.09889 0.95983 0.0
H4134 H 0.7483 0.02868 0.97208 0.0
H4135 H 0.75565 0.0369 0.99242 0.0
H4136 H 0.76927 0.03605 0.97769 0.0
H4137 H 0.73167 0.07316 0.96213 0.0
H4138 H 0.74759 0.09422 0.96371 0.0
H4139 H 0.73934 0.08248 0.98205 0.0
C4140 C 0.69343 0.97592 0.03231 0.0
C4141 C 0.67656 0.96684 0.03379 0.0
C4142 C 0.70347 0.97007 0.03853 0.0
C4143 C 0.6965 0.95492 0.04671 0.0
C4144 C 0.67954 0.94595 0.04871 0.0
C4145 C 0.66975 0.95193 0.04207 0.0
C4146 C 0.72149 0.97986 0.03589 0.0
C4147 C 0.6717 0.92991 0.05764 0.0
C4148 C 0.71988 0.93183 0.04705 0.0
C4149 C 0.72765 0.93615 0.06266 0.0
C4150 C 0.7096 0.93773 0.04178 0.0
C4151 C 0.7069 0.94812 0.05246 0.0
C4152 C 0.71449 0.95233 0.06837 0.0
C4153 C 0.72497 0.94648 0.0732 0.0
C4154 C 0.70195 0.93317 0.02462 0.0
C4155 C 0.71174 0.9632 0.08017 0.0
H4156 H 0.69877 0.9874 0.02583 0.0
H4157 H 0.65673 0.94492 0.04339 0.0
H4158 H 0.7282 0.98258 0.04793 0.0
H4159 H 0.72535 0.97259 0.02825 0.0
H4160 H 0.72503 0.99158 0.02964 0.0
H4161 H 0.6585 0.92499 0.05911 0.0
H4162 H 0.67352 0.92073 0.0507 0.0
H4163 H 0.67749 0.93149 0.07008 0.0
H4164 H 0.72217 0.92408 0.03879 0.0
H4165 H 0.73118 0.95013 0.08516 0.0
H4166 H 0.70593 0.94438 0.01729 0.0
H4167 H 0.68857 0.92712 0.02533 0.0
H4168 H 0.70516 0.92484 0.01792 0.0
H4169 H 0.71651 0.97555 0.07491 0.0
H4170 H 0.71772 0.96448 0.09246 0.0
H4171 H 0.69857 0.9582 0.08192 0.0
C4172 C 0.04492 0.71692 0.04394 0.0
C4173 C 0.03027 0.70898 0.03478 0.0
C4174 C 0.05096 0.73298 0.0501 0.0
C4175 C 0.04231 0.74136 0.04669 0.0
C4176 C 0.02741 0.73331 0.03767 0.0
C4177 C 0.02151 0.71719 0.03197 0.0
C4178 C 0.06672 0.74108 0.05997 0.0
C4179 C 0.01795 0.74191 0.03352 0.0
C4180 C 0.0494 0.77965 0.07009 0.0
C4181 C 0.05925 0.79195 0.05917 0.0
C4182 C 0.04451 0.76316 0.06663 0.0
C4183 C 0.04916 0.75885 0.05169 0.0
C4184 C 0.05929 0.77123 0.04078 0.0
C4185 C 0.06426 0.78762 0.0447 0.0
C4186 C 0.03391 0.75031 0.07869 0.0
C4187 C 0.06427 0.76713 0.02457 0.0
H4188 H 0.0517 0.71061 0.04624 0.0
H4189 H 0.01023 0.71121 0.0248 0.0
H4190 H 0.07605 0.75149 0.05302 0.0
H4191 H 0.06516 0.74611 0.07184 0.0
H4192 H 0.07128 0.73248 0.06268 0.0
H4193 H 0.00639 0.73379 0.0267 0.0
H4194 H 0.01517 0.74649 0.04499 0.0
H4195 H 0.02534 0.75267 0.02581 0.0
H4196 H 0.04528 0.78287 0.08118 0.0
H4197 H 0.07168 0.79709 0.03616 0.0
H4198 H 0.03874 0.74194 0.0813 0.0
H4199 H 0.02156 0.74281 0.07317 0.0
H4200 H 0.03295 0.75579 0.09056 0.0
H4201 H 0.07001 0.75948 0.02672 0.0
H4202 H 0.07287 0.77824 0.01789 0.0
H4203 H 0.05338 0.75991 0.01649 0.0
C4204 C 0.31051 0.33355 0.04345 0.0
C4205 C 0.3126 0.33967 0.0274 0.0
C4206 C 0.29581 0.32824 0.05152 0.0
C4207 C 0.28286 0.32883 0.04318 0.0
C4208 C 0.28481 0.33462 0.02682 0.0
C4209 C 0.2997 0.3401 0.01918 0.0
C4210 C 0.29423 0.32236 0.06905 0.0
C4211 C 0.27121 0.3352 0.01741 0.0
C4212 C 0.2394 0.30397 0.05695 0.0
C4213 C 0.23699 0.31613 0.06439 0.0
C4214 C 0.25446 0.30779 0.05046 0.0
C4215 C 0.26745 0.32408 0.05169 0.0
C4216 C 0.2653 0.3362 0.05993 0.0
C4217 C 0.25008 0.3321 0.06608 0.0
C4218 C 0.25624 0.29456 0.04164 0.0
C4219 C 0.27892 0.35366 0.0617 0.0
H4220 H 0.32048 0.33322 0.04984 0.0
H4221 H 0.3012 0.34466 0.0067 0.0
H4222 H 0.29199 0.33044 0.07738 0.0
H4223 H 0.2837 0.30985 0.06989 0.0
H4224 H 0.30526 0.32219 0.07362 0.0
H4225 H 0.27443 0.33926 0.00449 0.0
H4226 H 0.26021 0.32293 0.01711 0.0
H4227 H 0.26807 0.34373 0.02379 0.0
H4228 H 0.22935 0.29158 0.05578 0.0
H4229 H 0.24832 0.34151 0.07192 0.0
H4230 H 0.26701 0.29415 0.04657 0.0
H4231 H 0.25817 0.29735 0.02829 0.0
H4232 H 0.2454 0.28229 0.04286 0.0
H4233 H 0.28998 0.35402 0.06692 0.0
H4234 H 0.27574 0.36122 0.06978 0.0
H4235 H 0.28193 0.35929 0.04934 0.0
C4236 C 0.71705 0.67684 0.37158 0.0
C4237 C 0.70027 0.67058 0.36999 0.0
C4238 C 0.72346 0.66802 0.37951 0.0
C4239 C 0.71286 0.65272 0.38639 0.0
C4240 C 0.69591 0.64639 0.38505 0.0
C4241 C 0.68978 0.6553 0.37665 0.0
C4242 C 0.74158 0.675 0.38019 0.0
C4243 C 0.68428 0.63035 0.39271 0.0
C4244 C 0.72795 0.61516 0.39469 0.0
C4245 C 0.73899 0.62444 0.41463 0.0
C4246 C 0.71965 0.62651 0.38454 0.0
C4247 C 0.71949 0.6435 0.39511 0.0
C4248 C 0.7264 0.64903 0.41642 0.0
C4249 C 0.73493 0.63844 0.42758 0.0
C4250 C 0.71337 0.62205 0.36714 0.0
C4251 C 0.72488 0.66231 0.42497 0.0
H4252 H 0.72525 0.68857 0.36633 0.0
H4253 H 0.6768 0.65043 0.37555 0.0
H4254 H 0.74599 0.67706 0.39325 0.0
H4255 H 0.74467 0.66617 0.37442 0.0
H4256 H 0.74809 0.68678 0.37368 0.0
H4257 H 0.67153 0.62775 0.39174 0.0
H4258 H 0.68509 0.62024 0.38646 0.0
H4259 H 0.68761 0.63048 0.40597 0.0
H4260 H 0.7295 0.60603 0.38801 0.0
H4261 H 0.74017 0.64236 0.43991 0.0
H4262 H 0.71436 0.63284 0.36066 0.0
H4263 H 0.70044 0.61244 0.36723 0.0
H4264 H 0.72015 0.61702 0.36053 0.0
H4265 H 0.73473 0.67432 0.42098 0.0
H4266 H 0.72589 0.66149 0.43858 0.0
H4267 H 0.71314 0.66147 0.42143 0.0
C4268 C 0.33755 0.02726 0.38788 0.0
C4269 C 0.3328 0.02383 0.37115 0.0
C4270 C 0.34401 0.04323 0.39446 0.0
C4271 C 0.34614 0.05608 0.38393 0.0
C4272 C 0.34174 0.0527 0.36693 0.0
C4273 C 0.33494 0.03659 0.3608 0.0
C4274 C 0.34824 0.04631 0.41271 0.0
C4275 C 0.34418 0.06611 0.3552 0.0
C4276 C 0.34823 0.09508 0.40035 0.0
C4277 C 0.365 0.10602 0.40085 0.0
C4278 C 0.342 0.07862 0.39557 0.0
C4279 C 0.35271 0.07305 0.39062 0.0
C4280 C 0.36961 0.08398 0.39111 0.0
C4281 C 0.37555 0.10027 0.39636 0.0
C4282 C 0.3239 0.06726 0.39549 0.0
C4283 C 0.38141 0.07863 0.38553 0.0
H4284 H 0.33582 0.01739 0.39592 0.0
H4285 H 0.33142 0.034 0.34782 0.0
H4286 H 0.3612 0.0556 0.41459 0.0
H4287 H 0.34103 0.05129 0.41852 0.0
H4288 H 0.3459 0.03501 0.41921 0.0
H4289 H 0.34087 0.06156 0.34219 0.0
H4290 H 0.33672 0.07162 0.35895 0.0
H4291 H 0.35703 0.07599 0.35575 0.0
H4292 H 0.33991 0.09936 0.40356 0.0
H4293 H 0.38848 0.1087 0.39657 0.0
H4294 H 0.32101 0.05601 0.40237 0.0
H4295 H 0.31928 0.06344 0.38259 0.0
H4296 H 0.31736 0.07308 0.40112 0.0
H4297 H 0.37968 0.06781 0.39252 0.0
H4298 H 0.39421 0.08847 0.38721 0.0
H4299 H 0.37909 0.07493 0.37225 0.0
C4300 C 0.9617 0.29841 0.34922 0.0
C4301 C 0.97472 0.30944 0.35939 0.0
C4302 C 0.94593 0.29001 0.35521 0.0
C4303 C 0.9432 0.29235 0.37192 0.0
C4304 C 0.95633 0.30348 0.38227 0.0
C4305 C 0.97194 0.31208 0.3758 0.0
C4306 C 0.93221 0.27857 0.34365 0.0
C4307 C 0.95395 0.30601 0.40025 0.0
C4308 C 0.89995 0.27959 0.38325 0.0
C4309 C 0.89432 0.2636 0.38871 0.0
C4310 C 0.91591 0.28922 0.37801 0.0
C4311 C 0.92663 0.28282 0.37855 0.0
C4312 C 0.9212 0.26687 0.3845 0.0
C4313 C 0.90505 0.25735 0.38922 0.0
C4314 C 0.92112 0.30601 0.37136 0.0
C4315 C 0.93235 0.25971 0.38553 0.0
H4316 H 0.9638 0.29648 0.33647 0.0
H4317 H 0.98203 0.32055 0.3837 0.0
H4318 H 0.92679 0.26586 0.34811 0.0
H4319 H 0.92252 0.28192 0.34348 0.0
H4320 H 0.93624 0.2788 0.33079 0.0
H4321 H 0.96538 0.31518 0.40661 0.0
H4322 H 0.94488 0.31013 0.40133 0.0
H4323 H 0.94915 0.29425 0.40678 0.0
H4324 H 0.89166 0.2844 0.38267 0.0
H4325 H 0.90086 0.24494 0.39318 0.0
H4326 H 0.92428 0.30638 0.35816 0.0
H4327 H 0.93213 0.31535 0.37816 0.0
H4328 H 0.91151 0.30943 0.37233 0.0
H4329 H 0.93563 0.25788 0.3729 0.0
H4330 H 0.92672 0.24778 0.39185 0.0
H4331 H 0.94376 0.2683 0.3923 0.0
C4332 C 0.99337 0.35759 0.3101 0.0
C4333 C 0.0101 0.36368 0.30887 0.0
C4334 C 0.98573 0.36527 0.30212 0.0
C4335 C 0.99502 0.37924 0.29252 0.0
C4336 C 0.01175 0.38501 0.29064 0.0
C4337 C 0.01911 0.37723 0.29892 0.0
C4338 C 0.96788 0.35884 0.30453 0.0
C4339 C 0.02201 0.39974 0.28033 0.0
C4340 C 0.97308 0.39313 0.26263 0.0
C4341 C 0.97334 0.40612 0.27159 0.0
C4342 C 0.98015 0.3843 0.26924 0.0
C4343 C 0.98745 0.38841 0.28527 0.0
C4344 C 0.98767 0.40145 0.29441 0.0
C4345 C 0.98073 0.41022 0.28741 0.0
C4346 C 0.97988 0.37062 0.25905 0.0
C4347 C 0.99522 0.40612 0.3116 0.0
H4348 H 0.98631 0.34718 0.31782 0.0
H4349 H 0.03202 0.38195 0.29779 0.0
H4350 H 0.96613 0.36813 0.31135 0.0
H4351 H 0.96144 0.35661 0.29238 0.0
H4352 H 0.9622 0.3473 0.31154 0.0
H4353 H 0.03453 0.40188 0.27905 0.0
H4354 H 0.01642 0.39819 0.2678 0.0
H4355 H 0.02268 0.41081 0.28612 0.0
H4356 H 0.96738 0.38992 0.2504 0.0
H4357 H 0.98101 0.42028 0.29433 0.0
H4358 H 0.97345 0.35893 0.26572 0.0
H4359 H 0.99244 0.3731 0.25721 0.0
H4360 H 0.97384 0.36904 0.24674 0.0
H4361 H 0.9894 0.39542 0.31978 0.0
H4362 H 0.99405 0.41632 0.3172 0.0
H4363 H 0.00827 0.40986 0.31122 0.0
C4364 C 0.6523 0.63765 0.30218 0.0
C4365 C 0.64566 0.6408 0.31618 0.0
C4366 C 0.64388 0.62272 0.29337 0.0
C4367 C 0.6285 0.61067 0.29867 0.0
C4368 C 0.62175 0.61373 0.31277 0.0
C4369 C 0.63041 0.62877 0.32138 0.0
C4370 C 0.65144 0.61981 0.27837 0.0
C4371 C 0.60537 0.60114 0.31876 0.0
C4372 C 0.5962 0.57488 0.25982 0.0
C4373 C 0.59693 0.55706 0.26878 0.0
C4374 C 0.60675 0.59353 0.27199 0.0
C4375 C 0.61959 0.59498 0.28945 0.0
C4376 C 0.62334 0.57849 0.29476 0.0
C4377 C 0.61333 0.55932 0.28337 0.0
C4378 C 0.60482 0.60785 0.26765 0.0
C4379 C 0.63475 0.58072 0.30873 0.0
H4380 H 0.66408 0.64687 0.29808 0.0
H4381 H 0.62519 0.63109 0.33219 0.0
H4382 H 0.65278 0.60884 0.28019 0.0
H4383 H 0.64338 0.61734 0.26733 0.0
H4384 H 0.66352 0.63041 0.27585 0.0
H4385 H 0.60176 0.60542 0.32991 0.0
H4386 H 0.59607 0.59812 0.30879 0.0
H4387 H 0.60556 0.58973 0.32176 0.0
H4388 H 0.58753 0.5734 0.25014 0.0
H4389 H 0.61436 0.5489 0.28733 0.0
H4390 H 0.61679 0.6183 0.26459 0.0
H4391 H 0.60039 0.6116 0.27854 0.0
H4392 H 0.59622 0.60479 0.25698 0.0
H4393 H 0.64692 0.59106 0.30609 0.0
H4394 H 0.63544 0.5694 0.31055 0.0
H4395 H 0.63059 0.58397 0.32017 0.0
C4396 C 0.36194 0.00348 0.32063 0.0
C4397 C 0.35418 0.98664 0.32367 0.0
C4398 C 0.37699 0.01136 0.31294 0.0
C4399 C 0.38449 0.0022 0.30818 0.0
C4400 C 0.37659 0.98516 0.31086 0.0
C4401 C 0.36156 0.9776 0.31857 0.0
C4402 C 0.38507 0.02956 0.31029 0.0
C4403 C 0.38417 0.97496 0.30593 0.0
C4404 C 0.4183 0.02026 0.27716 0.0
C4405 C 0.43218 0.02626 0.2875 0.0
C4406 C 0.4027 0.0124 0.28369 0.0
C4407 C 0.40091 0.01054 0.301 0.0
C4408 C 0.41481 0.01635 0.31151 0.0
C4409 C 0.43024 0.02381 0.30462 0.0
C4410 C 0.38814 0.00595 0.27205 0.0
C4411 C 0.4134 0.01465 0.33006 0.0
H4412 H 0.35638 0.0106 0.32448 0.0
H4413 H 0.35574 0.9646 0.32085 0.0
H4414 H 0.39666 0.03584 0.31752 0.0
H4415 H 0.388 0.03224 0.29707 0.0
H4416 H 0.37736 0.03481 0.31407 0.0
H4417 H 0.37604 0.96171 0.30802 0.0
H4418 H 0.3873 0.97666 0.29267 0.0
H4419 H 0.39559 0.97902 0.31318 0.0
H4420 H 0.41967 0.02163 0.2639 0.0
H4421 H 0.44073 0.02775 0.31275 0.0
H4422 H 0.38069 0.01166 0.27513 0.0
H4423 H 0.38041 0.99256 0.27352 0.0
H4424 H 0.39161 0.00835 0.25889 0.0
H4425 H 0.40649 0.02044 0.33481 0.0
H4426 H 0.42542 0.02037 0.33656 0.0
H4427 H 0.40662 0.00153 0.33323 0.0
C4428 C 0.62446 0.98596 0.31802 0.0
C4429 C 0.64128 0.99549 0.32025 0.0
C4430 C 0.61539 0.99258 0.31098 0.0
C4431 C 0.6233 0.00929 0.30669 0.0
C4432 C 0.64033 0.01893 0.30886 0.0
C4433 C 0.64917 0.01181 0.31536 0.0
C4434 C 0.59734 0.98177 0.30836 0.0
C4435 C 0.64915 0.03691 0.30494 0.0
C4436 C 0.6028 0.02593 0.27815 0.0
C4437 C 0.59618 0.03226 0.28955 0.0
C4438 C 0.61131 0.01806 0.28354 0.0
C4439 C 0.61368 0.0169 0.30071 0.0
C4440 C 0.60703 0.02321 0.31225 0.0
C4441 C 0.59815 0.03055 0.30652 0.0
C4442 C 0.61781 0.01102 0.27088 0.0
C4443 C 0.60956 0.02252 0.33066 0.0
H4444 H 0.6184 0.9733 0.32174 0.0
H4445 H 0.66217 0.01921 0.31728 0.0
H4446 H 0.59082 0.98594 0.3166 0.0
H4447 H 0.59375 0.98265 0.29543 0.0
H4448 H 0.5933 0.96874 0.31093 0.0
H4449 H 0.66244 0.04263 0.30716 0.0
H4450 H 0.64682 0.03867 0.29184 0.0
H4451 H 0.64453 0.04344 0.31272 0.0
H4452 H 0.60136 0.02708 0.265 0.0
H4453 H 0.59295 0.03526 0.31537 0.0
H4454 H 0.61345 0.99793 0.27335 0.0
H4455 H 0.63123 0.01747 0.2718 0.0
H4456 H 0.61411 0.01207 0.25803 0.0
H4457 H 0.60432 0.00962 0.33447 0.0
H4458 H 0.60394 0.02838 0.33798 0.0
H4459 H 0.62271 0.02875 0.33381 0.0
C4460 C 0.02242 0.64571 0.30045 0.0
C4461 C 0.01469 0.65135 0.31119 0.0
C4462 C 0.01412 0.62983 0.29349 0.0
C4463 C 0.9978 0.61924 0.2976 0.0
C4464 C 0.98978 0.62504 0.30797 0.0
C4465 C 0.99827 0.64105 0.31452 0.0
C4466 C 0.02298 0.6242 0.28221 0.0
C4467 C 0.97245 0.61407 0.31284 0.0
C4468 C 0.97054 0.57968 0.27363 0.0
C4469 C 0.97153 0.56808 0.28366 0.0
C4470 C 0.97957 0.59648 0.2776 0.0
C4471 C 0.98946 0.60173 0.29218 0.0
C4472 C 0.99065 0.59008 0.30221 0.0
C4473 C 0.9817 0.57343 0.2978 0.0
C4474 C 0.97814 0.60855 0.26649 0.0
C4475 C 0.00088 0.59514 0.31797 0.0
H4476 H 0.03506 0.65362 0.29771 0.0
H4477 H 0.9922 0.64524 0.32287 0.0
H4478 H 0.02479 0.61473 0.28843 0.0
H4479 H 0.01569 0.61852 0.27071 0.0
H4480 H 0.03501 0.6344 0.27882 0.0
H4481 H 0.96769 0.62071 0.32026 0.0
H4482 H 0.96453 0.60866 0.30166 0.0
H4483 H 0.97163 0.60382 0.32023 0.0
H4484 H 0.96246 0.57561 0.26285 0.0
H4485 H 0.98226 0.56446 0.30573 0.0
H4486 H 0.99035 0.61856 0.26337 0.0
H4487 H 0.97191 0.6142 0.27306 0.0
H4488 H 0.97124 0.60269 0.25483 0.0
H4489 H 0.01354 0.60445 0.31535 0.0
H4490 H 0.00096 0.58464 0.32407 0.0
H4491 H 0.99617 0.60082 0.32678 0.0
C4492 C 0.36505 0.37519 0.32851 0.0
C4493 C 0.35384 0.35875 0.32483 0.0
C4494 C 0.37959 0.38343 0.31996 0.0
C4495 C 0.38303 0.37499 0.30749 0.0
C4496 C 0.37181 0.35836 0.30379 0.0
C4497 C 0.35734 0.35046 0.31248 0.0
C4498 C 0.39125 0.40118 0.3242 0.0
C4499 C 0.37507 0.34892 0.29063 0.0
C4500 C 0.41282 0.39881 0.27411 0.0
C4501 C 0.42686 0.39872 0.2797 0.0
C4502 C 0.39859 0.39144 0.28321 0.0
C4503 C 0.39829 0.38356 0.29815 0.0
C4504 C 0.41239 0.3834 0.30386 0.0
C4505 C 0.42649 0.39093 0.29453 0.0
C4506 C 0.38378 0.39183 0.27669 0.0
C4507 C 0.41251 0.37502 0.31966 0.0
H4508 H 0.36242 0.38168 0.33804 0.0
H4509 H 0.34877 0.33773 0.30959 0.0
H4510 H 0.40319 0.40271 0.32809 0.0
H4511 H 0.39319 0.40873 0.31309 0.0
H4512 H 0.38682 0.40597 0.33427 0.0
H4513 H 0.36519 0.336 0.2894 0.0
H4514 H 0.37649 0.35484 0.2785 0.0
H4515 H 0.38658 0.34903 0.2936 0.0
H4516 H 0.41295 0.40452 0.26249 0.0
H4517 H 0.43721 0.39057 0.29873 0.0
H4518 H 0.37941 0.39723 0.28618 0.0
H4519 H 0.37386 0.37918 0.27401 0.0
H4520 H 0.3862 0.399 0.26521 0.0
H4521 H 0.40886 0.38008 0.33015 0.0
H4522 H 0.42461 0.37644 0.32267 0.0
H4523 H 0.40357 0.36177 0.31856 0.0
C4524 C 0.34591 0.31686 0.37602 0.0
C4525 C 0.32932 0.30871 0.37937 0.0
C4526 C 0.35598 0.3108 0.38161 0.0
C4527 C 0.34937 0.29638 0.39101 0.0
C4528 C 0.33287 0.28867 0.39531 0.0
C4529 C 0.32301 0.29485 0.38933 0.0
C4530 C 0.37348 0.31931 0.37662 0.0
C4531 C 0.32546 0.27346 0.40557 0.0
C4532 C 0.36985 0.2707 0.38664 0.0
C4533 C 0.38005 0.27546 0.40075 0.0
C4534 C 0.35953 0.27712 0.38356 0.0
C4535 C 0.35935 0.28858 0.39493 0.0
C4536 C 0.36932 0.29315 0.40943 0.0
C4537 C 0.37972 0.28669 0.41208 0.0
C4538 C 0.34924 0.27206 0.36784 0.0
C4539 C 0.36933 0.3052 0.42191 0.0
H4540 H 0.35092 0.32754 0.3683 0.0
H4541 H 0.31024 0.28854 0.39211 0.0
H4542 H 0.38158 0.3218 0.3876 0.0
H4543 H 0.37548 0.31122 0.36805 0.0
H4544 H 0.37704 0.33104 0.37036 0.0
H4545 H 0.31307 0.27011 0.40952 0.0
H4546 H 0.32474 0.26307 0.39825 0.0
H4547 H 0.33315 0.27519 0.41673 0.0
H4548 H 0.37031 0.26225 0.37773 0.0
H4549 H 0.3878 0.29066 0.42285 0.0
H4550 H 0.35284 0.28289 0.35999 0.0
H4551 H 0.33631 0.26715 0.37078 0.0
H4552 H 0.35041 0.26263 0.36056 0.0
H4553 H 0.3744 0.31744 0.41632 0.0
H4554 H 0.37661 0.3063 0.43325 0.0
H4555 H 0.35676 0.30146 0.42548 0.0
C4556 C 0.70735 0.03135 0.38277 0.0
C4557 C 0.69333 0.02319 0.37266 0.0
C4558 C 0.71364 0.04787 0.38742 0.0
C4559 C 0.7059 0.05649 0.38155 0.0
C4560 C 0.6913 0.0481 0.37205 0.0
C4561 C 0.68512 0.03152 0.36785 0.0
C4562 C 0.72903 0.0563 0.39787 0.0
C4563 C 0.68276 0.05687 0.36538 0.0
C4564 C 0.71643 0.09867 0.39821 0.0
C4565 C 0.72719 0.10885 0.38631 0.0
C4566 C 0.70989 0.08162 0.39724 0.0
C4567 C 0.71387 0.07457 0.38383 0.0
C4568 C 0.72486 0.08481 0.37191 0.0
C4569 C 0.7314 0.1018 0.37333 0.0
C4570 C 0.69838 0.07111 0.41029 0.0
C4571 C 0.72927 0.0778 0.3573 0.0
H4572 H 0.71371 0.02498 0.38665 0.0
H4573 H 0.67433 0.02537 0.35996 0.0
H4574 H 0.73915 0.06493 0.39017 0.0
H4575 H 0.72778 0.06356 0.40806 0.0
H4576 H 0.73231 0.04747 0.40328 0.0
H4577 H 0.6709 0.04834 0.35929 0.0
H4578 H 0.68073 0.06368 0.37546 0.0
H4579 H 0.69048 0.06595 0.35618 0.0
H4580 H 0.71289 0.10402 0.4081 0.0
H4581 H 0.73948 0.10962 0.36398 0.0
H4582 H 0.70212 0.06245 0.41519 0.0
H4583 H 0.68604 0.06371 0.40472 0.0
H4584 H 0.6978 0.07853 0.42076 0.0
H4585 H 0.7342 0.06992 0.36162 0.0
H4586 H 0.73837 0.08746 0.34941 0.0
H4587 H 0.71826 0.06998 0.34958 0.0
C4588 C 0.97221 0.67661 0.36138 0.0
C4589 C 0.9842 0.6725 0.36525 0.0
C4590 C 0.95738 0.66929 0.36949 0.0
C4591 C 0.95444 0.6575 0.38169 0.0
C4592 C 0.96645 0.6532 0.38557 0.0
C4593 C 0.98121 0.6608 0.37734 0.0
C4594 C 0.94491 0.67426 0.3651 0.0
C4595 C 0.96372 0.64061 0.39843 0.0
C4596 C 0.92282 0.64949 0.41385 0.0
C4597 C 0.90938 0.63518 0.40749 0.0
C4598 C 0.9375 0.65696 0.40549 0.0
C4599 C 0.93887 0.6498 0.39056 0.0
C4600 C 0.92543 0.63525 0.38419 0.0
C4601 C 0.91086 0.62809 0.39276 0.0
C4602 C 0.95155 0.67246 0.41269 0.0
C4603 C 0.92649 0.62718 0.36839 0.0
H4604 H 0.97444 0.68566 0.35206 0.0
H4605 H 0.9904 0.65752 0.38035 0.0
H4606 H 0.93346 0.6634 0.36079 0.0
H4607 H 0.94213 0.67932 0.37624 0.0
H4608 H 0.94905 0.68357 0.35529 0.0
H4609 H 0.97417 0.63844 0.3998 0.0
H4610 H 0.96158 0.64465 0.4106 0.0
H4611 H 0.95275 0.62883 0.39505 0.0
H4612 H 0.92185 0.65481 0.42543 0.0
H4613 H 0.9006 0.61686 0.388 0.0
H4614 H 0.95563 0.68238 0.40355 0.0
H4615 H 0.96194 0.67049 0.41543 0.0
H4616 H 0.9484 0.67662 0.42424 0.0
H4617 H 0.92977 0.63583 0.35803 0.0
H4618 H 0.91492 0.61593 0.36506 0.0
H4619 H 0.93619 0.6239 0.36969 0.0
C4620 C 0.37756 0.02191 0.71501 0.0
C4621 C 0.36363 0.01266 0.70503 0.0
C4622 C 0.38542 0.01453 0.72308 0.0
C4623 C 0.3793 0.9975 0.721 0.0
C4624 C 0.36495 0.98798 0.71141 0.0
C4625 C 0.35723 0.99567 0.7036 0.0
C4626 C 0.40059 0.02506 0.73337 0.0
C4627 C 0.35814 0.96981 0.70883 0.0
C4628 C 0.41025 0.98333 0.72552 0.0
C4629 C 0.40711 0.97659 0.74134 0.0
C4630 C 0.401 0.98979 0.71863 0.0
C4631 C 0.38857 0.9899 0.72794 0.0
C4632 C 0.38542 0.98326 0.74397 0.0
C4633 C 0.39467 0.97659 0.75045 0.0
C4634 C 0.40466 0.99664 0.70143 0.0
C4635 C 0.37247 0.98346 0.75437 0.0
H4636 H 0.38254 0.03502 0.71632 0.0
H4637 H 0.3465 0.98842 0.69588 0.0
H4638 H 0.39962 0.01983 0.74582 0.0
H4639 H 0.41116 0.02533 0.72742 0.0
H4640 H 0.403 0.03784 0.73486 0.0
H4641 H 0.34631 0.96398 0.70196 0.0
H4642 H 0.36679 0.96757 0.70176 0.0
H4643 H 0.35653 0.96375 0.7209 0.0
H4644 H 0.42002 0.98362 0.71855 0.0
H4645 H 0.39231 0.97154 0.76274 0.0
H4646 H 0.40873 0.00991 0.70194 0.0
H4647 H 0.39353 0.99066 0.69345 0.0
H4648 H 0.41419 0.9949 0.69553 0.0
H4649 H 0.37529 0.99626 0.75665 0.0
H4650 H 0.37134 0.97756 0.76649 0.0
H4651 H 0.36059 0.97705 0.74767 0.0
C4652 C 0.98805 0.36 0.68921 0.0
C4653 C 0.9884 0.34747 0.69817 0.0
C4654 C 0.99172 0.37491 0.69691 0.0
C4655 C 0.99563 0.37728 0.71406 0.0
C4656 C 0.99581 0.36461 0.72324 0.0
C4657 C 0.99229 0.34987 0.71515 0.0
C4658 C 0.99161 0.3882 0.68663 0.0
C4659 C 0.99972 0.36663 0.74158 0.0
C4660 C 0.02012 0.42126 0.72966 0.0
C4661 C 0.00804 0.42431 0.73558 0.0
C4662 C 0.01628 0.40594 0.72291 0.0
C4663 C 0.99995 0.39323 0.7222 0.0
C4664 C 0.98769 0.39608 0.72844 0.0
C4665 C 0.99184 0.41166 0.73481 0.0
C4666 C 0.02966 0.40351 0.71607 0.0
C4667 C 0.97016 0.38277 0.72806 0.0
H4668 H 0.9851 0.35826 0.67607 0.0
H4669 H 0.99249 0.34019 0.72216 0.0
H4670 H 0.98285 0.39161 0.69162 0.0
H4671 H 0.00374 0.39932 0.6873 0.0
H4672 H 0.98833 0.3844 0.67343 0.0
H4673 H 0.99885 0.35543 0.74703 0.0
H4674 H 0.01216 0.37695 0.74393 0.0
H4675 H 0.9913 0.36966 0.74807 0.0
H4676 H 0.0326 0.43108 0.72998 0.0
H4677 H 0.98236 0.41395 0.73905 0.0
H4678 H 0.0275 0.40069 0.7026 0.0
H4679 H 0.02972 0.39294 0.72198 0.0
H4680 H 0.0418 0.41448 0.71802 0.0
H4681 H 0.96568 0.37949 0.71505 0.0
H4682 H 0.96229 0.38655 0.73458 0.0
H4683 H 0.96894 0.37158 0.73386 0.0
C4684 C 0.62464 0.62505 0.68959 0.0
C4685 C 0.63764 0.63817 0.69805 0.0
C4686 C 0.60947 0.61624 0.69685 0.0
C4687 C 0.60735 0.62044 0.71312 0.0
C4688 C 0.62053 0.63347 0.72187 0.0
C4689 C 0.63549 0.64232 0.71414 0.0
C4690 C 0.59562 0.60266 0.68698 0.0
C4691 C 0.61882 0.63808 0.73935 0.0
C4692 C 0.56452 0.60804 0.72567 0.0
C4693 C 0.55991 0.59334 0.73385 0.0
C4694 C 0.57996 0.61706 0.71901 0.0
C4695 C 0.59121 0.61139 0.72079 0.0
C4696 C 0.58678 0.59673 0.7293 0.0
C4697 C 0.5711 0.58773 0.73548 0.0
C4698 C 0.58407 0.63242 0.70968 0.0
C4699 C 0.59854 0.59043 0.73167 0.0
H4700 H 0.62622 0.62188 0.67709 0.0
H4701 H 0.64554 0.65241 0.72075 0.0
H4702 H 0.59091 0.59096 0.6936 0.0
H4703 H 0.58552 0.60535 0.68564 0.0
H4704 H 0.59926 0.60099 0.67444 0.0
H4705 H 0.63042 0.64803 0.7447 0.0
H4706 H 0.60966 0.64214 0.73961 0.0
H4707 H 0.61445 0.62726 0.74736 0.0
H4708 H 0.55583 0.61228 0.72417 0.0
H4709 H 0.56762 0.57625 0.74149 0.0
H4710 H 0.58687 0.63102 0.6967 0.0
H4711 H 0.59503 0.64298 0.71529 0.0
H4712 H 0.57403 0.63527 0.70958 0.0
H4713 H 0.60142 0.58711 0.7195 0.0
H4714 H 0.59365 0.57952 0.73963 0.0
H4715 H 0.61008 0.60014 0.73736 0.0
C4716 C 0.64433 0.68208 0.64881 0.0
C4717 C 0.66103 0.69055 0.64597 0.0
C4718 C 0.63406 0.68743 0.64204 0.0
C4719 C 0.6406 0.70145 0.63204 0.0
C4720 C 0.6573 0.7096 0.62854 0.0
C4721 C 0.66731 0.70412 0.63561 0.0
C4722 C 0.61633 0.6785 0.64616 0.0
C4723 C 0.66472 0.72447 0.61775 0.0
C4724 C 0.61302 0.71069 0.60496 0.0
C4725 C 0.61237 0.72297 0.61434 0.0
C4726 C 0.62197 0.70337 0.61065 0.0
C4727 C 0.6303 0.70834 0.62616 0.0
C4728 C 0.62941 0.72049 0.63582 0.0
C4729 C 0.62056 0.72773 0.62975 0.0
C4730 C 0.62279 0.69057 0.59993 0.0
C4731 C 0.63803 0.72606 0.65248 0.0
H4732 H 0.63938 0.67163 0.65685 0.0
H4733 H 0.68016 0.71065 0.6332 0.0
H4734 H 0.6135 0.68662 0.65375 0.0
H4735 H 0.60871 0.67524 0.63468 0.0
H4736 H 0.61291 0.66716 0.65312 0.0
H4737 H 0.67761 0.72861 0.61518 0.0
H4738 H 0.65786 0.72179 0.60581 0.0
H4739 H 0.66401 0.73467 0.62394 0.0
H4740 H 0.60671 0.70696 0.59305 0.0
H4741 H 0.62013 0.73726 0.637 0.0
H4742 H 0.61878 0.67916 0.60691 0.0
H4743 H 0.6355 0.69495 0.59641 0.0
H4744 H 0.61516 0.68765 0.58846 0.0
H4745 H 0.63437 0.7154 0.66058 0.0
H4746 H 0.63543 0.73502 0.65881 0.0
H4747 H 0.65131 0.73182 0.65093 0.0
C4748 C 0.29387 0.96519 0.65847 0.0
C4749 C 0.3085 0.9773 0.65209 0.0
C4750 C 0.28539 0.94955 0.65103 0.0
C4751 C 0.29167 0.94595 0.63687 0.0
C4752 C 0.30645 0.95806 0.63041 0.0
C4753 C 0.31472 0.97361 0.6381 0.0
C4754 C 0.2697 0.93691 0.65829 0.0
C4755 C 0.31346 0.9546 0.61529 0.0
C4756 C 0.27725 0.89413 0.6244 0.0
C4757 C 0.25962 0.8904 0.6109 0.0
C4758 C 0.28754 0.91402 0.63443 0.0
C4759 C 0.28272 0.9297 0.62868 0.0
C4760 C 0.26848 0.92668 0.61206 0.0
C4761 C 0.25756 0.90724 0.60127 0.0
C4762 C 0.29997 0.91749 0.6477 0.0
C4763 C 0.26566 0.94036 0.60726 0.0
H4764 H 0.28899 0.96791 0.6693 0.0
H4765 H 0.32603 0.9829 0.6331 0.0
H4766 H 0.25972 0.93299 0.64892 0.0
H4767 H 0.27061 0.92597 0.66169 0.0
H4768 H 0.26653 0.94159 0.66947 0.0
H4769 H 0.32516 0.96528 0.61187 0.0
H4770 H 0.31539 0.94405 0.61756 0.0
H4771 H 0.30476 0.95118 0.60466 0.0
H4772 H 0.27894 0.88421 0.62874 0.0
H4773 H 0.2481 0.90485 0.59218 0.0
H4774 H 0.29642 0.92128 0.65921 0.0
H4775 H 0.31175 0.92785 0.64401 0.0
H4776 H 0.30121 0.90653 0.64994 0.0
H4777 H 0.26162 0.94447 0.61819 0.0
H4778 H 0.25643 0.93642 0.59708 0.0
H4779 H 0.27723 0.95086 0.60332 0.0
C4780 C 0.03513 0.3147 0.65104 0.0
C4781 C 0.02567 0.32178 0.65546 0.0
C4782 C 0.0508 0.32423 0.64505 0.0
C4783 C 0.05724 0.3413 0.64346 0.0
C4784 C 0.04781 0.34855 0.64788 0.0
C4785 C 0.03214 0.33872 0.65381 0.0
C4786 C 0.06046 0.31602 0.64045 0.0
C4787 C 0.05432 0.36673 0.64641 0.0
C4788 C 0.1031 0.36714 0.64259 0.0
C4789 C 0.10576 0.37047 0.62566 0.0
C4790 C 0.08736 0.35806 0.64858 0.0
C4791 C 0.07394 0.35154 0.63733 0.0
C4792 C 0.07653 0.35438 0.62021 0.0
C4793 C 0.09238 0.36382 0.6146 0.0
C4794 C 0.0851 0.35537 0.66695 0.0
C4795 C 0.06256 0.34727 0.60778 0.0
H4796 H 0.03033 0.30166 0.65228 0.0
H4797 H 0.02498 0.34434 0.65718 0.0
H4798 H 0.06405 0.31843 0.62734 0.0
H4799 H 0.07176 0.32117 0.64814 0.0
H4800 H 0.05358 0.30257 0.64213 0.0
H4801 H 0.04545 0.37049 0.65031 0.0
H4802 H 0.06554 0.37352 0.65416 0.0
H4803 H 0.05758 0.37043 0.63343 0.0
H4804 H 0.11326 0.37161 0.65127 0.0
H4805 H 0.09435 0.36591 0.60147 0.0
H4806 H 0.07943 0.34212 0.6695 0.0
H4807 H 0.07679 0.3596 0.67148 0.0
H4808 H 0.09672 0.36192 0.67414 0.0
H4809 H 0.05593 0.33373 0.60846 0.0
H4810 H 0.0666 0.3507 0.5949 0.0
H4811 H 0.05386 0.35153 0.61073 0.0
C4812 C 0.32708 0.35567 0.64635 0.0
C4813 C 0.31761 0.34245 0.65648 0.0
C4814 C 0.3204 0.36418 0.63821 0.0
C4815 C 0.30382 0.3592 0.64012 0.0
C4816 C 0.29421 0.34587 0.65034 0.0
C4817 C 0.30125 0.33771 0.65848 0.0
C4818 C 0.33106 0.37845 0.62754 0.0
C4819 C 0.27644 0.34011 0.65252 0.0
C4820 C 0.28821 0.3884 0.62976 0.0
C4821 C 0.2812 0.38267 0.61397 0.0
C4822 C 0.29579 0.381 0.63838 0.0
C4823 C 0.29638 0.36759 0.63099 0.0
C4824 C 0.28964 0.36199 0.61491 0.0
C4825 C 0.28226 0.36968 0.60655 0.0
C4826 C 0.30304 0.38742 0.65544 0.0
C4827 C 0.29003 0.34773 0.60661 0.0
H4828 H 0.33977 0.35949 0.64487 0.0
H4829 H 0.29388 0.32749 0.6663 0.0
H4830 H 0.32641 0.37586 0.61455 0.0
H4831 H 0.33079 0.38957 0.63178 0.0
H4832 H 0.34383 0.3811 0.6278 0.0
H4833 H 0.2707 0.32967 0.66105 0.0
H4834 H 0.27487 0.35028 0.65745 0.0
H4835 H 0.26993 0.33629 0.64036 0.0
H4836 H 0.28764 0.39861 0.63541 0.0
H4837 H 0.27712 0.36542 0.59421 0.0
H4838 H 0.31602 0.39085 0.65582 0.0
H4839 H 0.29685 0.37771 0.66464 0.0
H4840 H 0.302 0.39826 0.65922 0.0
H4841 H 0.30272 0.35035 0.60564 0.0
H4842 H 0.28432 0.34496 0.59401 0.0
H4843 H 0.28358 0.33666 0.6142 0.0
C4844 C 0.65589 0.96692 0.64278 0.0
C4845 C 0.67272 0.97333 0.64212 0.0
C4846 C 0.64507 0.95084 0.63739 0.0
C4847 C 0.65117 0.94091 0.63104 0.0
C4848 C 0.66809 0.94749 0.6297 0.0
C4849 C 0.67866 0.96358 0.6353 0.0
C4850 C 0.6271 0.94425 0.63911 0.0
C4851 C 0.67506 0.93735 0.62284 0.0
C4852 C 0.6249 0.89501 0.63552 0.0
C4853 C 0.61727 0.8901 0.61986 0.0
C4854 C 0.63604 0.91146 0.63924 0.0
C4855 C 0.63989 0.92333 0.62691 0.0
C4856 C 0.63257 0.91844 0.61092 0.0
C4857 C 0.62116 0.90192 0.60765 0.0
C4858 C 0.64334 0.91619 0.65653 0.0
C4859 C 0.6366 0.93071 0.59738 0.0
H4860 H 0.65113 0.9743 0.648 0.0
H4861 H 0.69161 0.96838 0.63462 0.0
H4862 H 0.62065 0.93908 0.6271 0.0
H4863 H 0.62226 0.93418 0.6481 0.0
H4864 H 0.62426 0.9538 0.64341 0.0
H4865 H 0.68837 0.94467 0.62129 0.0
H4866 H 0.67254 0.92718 0.6313 0.0
H4867 H 0.66922 0.93179 0.61069 0.0
H4868 H 0.62178 0.88595 0.64502 0.0
H4869 H 0.6152 0.89833 0.59557 0.0
H4870 H 0.64002 0.92488 0.66223 0.0
H4871 H 0.65675 0.92251 0.65609 0.0
H4872 H 0.63921 0.90544 0.66464 0.0
H4873 H 0.63259 0.93958 0.60082 0.0
H4874 H 0.63073 0.92479 0.58532 0.0
H4875 H 0.6499 0.93778 0.59582 0.0
C4876 C 0.01741 0.67762 0.64741 0.0
C4877 C 0.01393 0.6861 0.65955 0.0
C4878 C 0.03228 0.68512 0.63936 0.0
C4879 C 0.04391 0.70152 0.6435 0.0
C4880 C 0.04052 0.7101 0.65584 0.0
C4881 C 0.02559 0.70228 0.66375 0.0
C4882 C 0.0355 0.67554 0.62633 0.0
C4883 C 0.05257 0.72763 0.66056 0.0
C4884 C 0.08792 0.71756 0.63248 0.0
C4885 C 0.08912 0.72622 0.61806 0.0
C4886 C 0.07328 0.70941 0.64089 0.0
C4887 C 0.05948 0.70987 0.63465 0.0
C4888 C 0.06055 0.71843 0.61998 0.0
C4889 C 0.07532 0.7264 0.61181 0.0
C4890 C 0.07257 0.70032 0.65642 0.0
C4891 C 0.04611 0.71919 0.61292 0.0
H4892 H 0.00848 0.6651 0.64414 0.0
H4893 H 0.023 0.70893 0.67312 0.0
H4894 H 0.03737 0.68162 0.61423 0.0
H4895 H 0.04677 0.67527 0.62957 0.0
H4896 H 0.0254 0.66275 0.62488 0.0
H4897 H 0.04819 0.73249 0.6706 0.0
H4898 H 0.06423 0.7286 0.66469 0.0
H4899 H 0.05507 0.73548 0.64961 0.0
H4900 H 0.09848 0.71713 0.63717 0.0
H4901 H 0.07609 0.73279 0.60047 0.0
H4902 H 0.06316 0.68726 0.6549 0.0
H4903 H 0.06907 0.70543 0.66699 0.0
H4904 H 0.08434 0.70102 0.65956 0.0
H4905 H 0.03603 0.70665 0.61012 0.0
H4906 H 0.04898 0.72639 0.60142 0.0
H4907 H 0.04173 0.72481 0.62216 0.0
C4908 C 0.99817 0.64025 0.71033 0.0
C4909 C 0.98191 0.63497 0.71373 0.0
C4910 C 0.006 0.63207 0.71674 0.0
C4911 C 0.99744 0.61846 0.72701 0.0
C4912 C 0.98139 0.61377 0.7314 0.0
C4913 C 0.97376 0.62199 0.72459 0.0
C4914 C 0.02309 0.63736 0.71164 0.0
C4915 C 0.97198 0.59954 0.74259 0.0
C4916 C 0.00983 0.58581 0.72527 0.0
C4917 C 0.01988 0.5896 0.73941 0.0
C4918 C 0.00224 0.59493 0.72129 0.0
C4919 C 0.00472 0.60818 0.73176 0.0
C4920 C 0.01459 0.61189 0.74625 0.0
C4921 C 0.02223 0.60269 0.74981 0.0
C4922 C 0.99194 0.59068 0.70561 0.0
C4923 C 0.01737 0.62581 0.75779 0.0
H4924 H 0.00455 0.65021 0.70189 0.0
H4925 H 0.96124 0.61793 0.72741 0.0
H4926 H 0.03091 0.63895 0.72264 0.0
H4927 H 0.02306 0.62772 0.70359 0.0
H4928 H 0.02853 0.64899 0.70477 0.0
H4929 H 0.96047 0.59878 0.74649 0.0
H4930 H 0.96905 0.58795 0.73602 0.0
H4931 H 0.97936 0.60053 0.7538 0.0
H4932 H 0.00825 0.57591 0.71707 0.0
H4933 H 0.03026 0.60589 0.76058 0.0
H4934 H 0.9972 0.6012 0.69716 0.0
H4935 H 0.97957 0.5882 0.70851 0.0
H4936 H 0.99098 0.57981 0.699 0.0
H4937 H 0.02416 0.6376 0.75138 0.0
H4938 H 0.0243 0.62628 0.7692 0.0
H4939 H 0.00561 0.62462 0.76136 0.0
C4940 C 0.38025 0.37101 0.72153 0.0
C4941 C 0.36617 0.36353 0.71144 0.0
C4942 C 0.38672 0.38729 0.72721 0.0
C4943 C 0.37911 0.39636 0.72239 0.0
C4944 C 0.36456 0.38867 0.71276 0.0
C4945 C 0.3582 0.37234 0.70755 0.0
C4946 C 0.40205 0.39497 0.73779 0.0
C4947 C 0.35616 0.39796 0.70714 0.0
C4948 C 0.38825 0.43711 0.74175 0.0
C4949 C 0.39881 0.44816 0.73025 0.0
C4950 C 0.38249 0.42023 0.73993 0.0
C4951 C 0.38699 0.41424 0.72603 0.0
C4952 C 0.39792 0.42538 0.71461 0.0
C4953 C 0.40374 0.44218 0.71692 0.0
C4954 C 0.37107 0.40876 0.75251 0.0
C4955 C 0.40282 0.41951 0.69946 0.0
H4956 H 0.38644 0.36428 0.72469 0.0
H4957 H 0.34734 0.36675 0.69972 0.0
H4958 H 0.41222 0.40418 0.73054 0.0
H4959 H 0.40071 0.40146 0.74867 0.0
H4960 H 0.40529 0.38577 0.7422 0.0
H4961 H 0.34451 0.38997 0.70042 0.0
H4962 H 0.35375 0.40376 0.7179 0.0
H4963 H 0.36416 0.4079 0.69882 0.0
H4964 H 0.3842 0.4416 0.75196 0.0
H4965 H 0.41172 0.45068 0.70791 0.0
H4966 H 0.37482 0.39978 0.75631 0.0
H4967 H 0.35869 0.40175 0.74691 0.0
H4968 H 0.37055 0.41541 0.7637 0.0
H4969 H 0.40767 0.41137 0.70306 0.0
H4970 H 0.41211 0.42978 0.6923 0.0
H4971 H 0.39203 0.41226 0.69126 0.0
C4972 C 0.64883 0.00453 0.707 0.0
C4973 C 0.65174 0.01145 0.69127 0.0
C4974 C 0.63606 0.0034 0.71648 0.0
C4975 C 0.62602 0.00934 0.71005 0.0
C4976 C 0.62858 0.01582 0.69395 0.0
C4977 C 0.64139 0.01678 0.68476 0.0
C4978 C 0.63365 0.99635 0.73356 0.0
C4979 C 0.61813 0.02227 0.68663 0.0
C4980 C 0.58532 0.9983 0.72825 0.0
C4981 C 0.58922 0.01243 0.7377 0.0
C4982 C 0.5973 0.9968 0.71972 0.0
C4983 C 0.61349 0.00983 0.72046 0.0
C4984 C 0.61755 0.02396 0.73026 0.0
C4985 C 0.60536 0.0251 0.73869 0.0
C4986 C 0.59251 0.98155 0.7094 0.0
C4987 C 0.63466 0.03817 0.73131 0.0
H4988 H 0.65676 0.00035 0.7121 0.0
H4989 H 0.64352 0.02208 0.67258 0.0
H4990 H 0.63625 0.00607 0.74297 0.0
H4991 H 0.62087 0.98667 0.73496 0.0
H4992 H 0.64164 0.99109 0.73624 0.0
H4993 H 0.62112 0.02606 0.6736 0.0
H4994 H 0.60515 0.01282 0.68705 0.0
H4995 H 0.61975 0.03299 0.69406 0.0
H4996 H 0.57281 0.98861 0.72719 0.0
H4997 H 0.60837 0.03616 0.74574 0.0
H4998 H 0.6006 0.97649 0.71238 0.0
H4999 H 0.59389 0.98462 0.6961 0.0
H5000 H 0.57978 0.97194 0.71135 0.0
H5001 H 0.64321 0.03387 0.73499 0.0
H5002 H 0.636 0.04779 0.74031 0.0
H5003 H 0.63823 0.04373 0.71897 0.0
loop_
_geom_bond_atom_site_label_1
_geom_bond_atom_site_label_2
_geom_bond_distance
_geom_bond_site_symmetry_2
_ccdc_geom_bond_type
Mn0 O5 2.095 1_655 S
Mn0 O15 2.162 . S
Mn0 O16 2.297 1_554 S
Mn0 O24 2.385 1_554 S
Mn0 O25 2.209 1_654 S
Mn0 O26 2.094 . S
Mn1 O6 2.121 . S
Mn1 N8 2.257 1_554 S
Mn1 N17 2.282 . S
Mn1 O25 2.215 1_554 S
Mn1 O27 2.117 . S
C2 O24 1.234 1_455 S
C2 O25 1.283 . S
C3 O15 1.281 1_556 S
C3 O16 1.236 . S
C4 O26 1.250 . S
C4 O27 1.236 1_655 S
O5 Mn0 2.095 1_455 S
O5 C14 1.250 . S
O6 Mn1 2.121 . S
O6 C14 1.258 . S
C7 N8 1.326 . S
C7 C11 1.460 . S
C7 H13 0.917 1_556 S
N8 Mn1 2.257 1_556 S
N8 C7 1.326 . S
N8 C12 1.362 . S
C9 C10 1.258 . S
C9 C12 1.431 . S
C9 C29 1.449 . S
C10 C9 1.258 . S
C10 C11 1.477 . S
C10 H30 0.931 . S
C11 C7 1.460 . S
C11 C10 1.477 . S
C11 H31 0.930 . S
C12 N8 1.362 . S
C12 C9 1.431 . S
C12 C22 1.476 . S
H13 C7 0.917 1_554 S
C14 O5 1.250 . S
C14 O6 1.258 . S
O15 Mn0 2.162 . S
O15 C3 1.281 1_554 S
O16 Mn0 2.297 1_556 S
O16 C3 1.236 . S
N17 Mn1 2.282 . S
N17 C18 1.328 . S
N17 C22 1.318 1_554 S
C18 N17 1.328 . S
C18 C19 1.439 1_554 S
C18 H23 0.929 . S
C19 C18 1.439 1_556 S
C19 C20 1.315 . S
C19 H32 0.922 1_556 S
C20 C19 1.315 . S
C20 C21 1.373 . S
C20 H33 0.929 . S
C21 C20 1.373 . S
C21 C22 1.396 . S
C21 C28 1.403 . S
C22 C12 1.476 . S
C22 N17 1.318 1_556 S
C22 C21 1.396 . S
H23 C18 0.929 . S
O24 Mn0 2.385 1_556 S
O24 C2 1.234 1_655 S
O25 Mn0 2.209 1_456 S
O25 Mn1 2.215 1_556 S
O25 C2 1.283 . S
O26 Mn0 2.094 . S
O26 C4 1.250 . S
O27 Mn1 2.117 . S
O27 C4 1.236 1_455 S
C28 C21 1.403 . S
C28 C29 1.399 . S
C28 H34 0.929 . S
C29 C9 1.449 . S
C29 C28 1.399 . S
C29 H35 0.930 . S
H30 C10 0.931 . S
H31 C11 0.930 . S
H32 C19 0.922 1_554 S
H33 C20 0.929 . S
H34 C28 0.929 . S
H35 C29 0.930 . S
Mn36 O41 2.095 1_554 S
Mn36 O51 2.162 . S
Mn36 O52 2.297 . S
Mn36 O60 2.385 . S
Mn36 O61 2.209 . S
Mn36 O62 2.094 1_554 S
Mn37 O42 2.121 1_554 S
Mn37 N44 2.257 . S
Mn37 N53 2.282 . S
Mn37 O61 2.215 . S
Mn37 O63 2.117 1_554 S
C38 O60 1.234 . S
C38 O61 1.283 . S
C39 O51 1.281 . S
C39 O52 1.236 . S
C40 O62 1.240 . S
C40 O63 1.264 . S
O41 Mn36 2.095 1_556 S
O41 C50 1.250 . S
O42 Mn37 2.121 1_556 S
O42 C50 1.258 . S
C43 N44 1.326 . S
C43 C47 1.460 . S
C43 H49 0.929 . S
N44 Mn37 2.257 . S
N44 C43 1.326 . S
N44 C48 1.362 . S
C45 C46 1.258 . S
C45 C48 1.431 . S
C45 C65 1.449 . S
C46 C45 1.258 . S
C46 C47 1.477 . S
C46 H66 0.931 . S
C47 C43 1.460 . S
C47 C46 1.477 . S
C47 H67 0.930 . S
C48 N44 1.362 . S
C48 C45 1.431 . S
C48 C58 1.476 . S
H49 C43 0.929 . S
C50 O41 1.250 . S
C50 O42 1.258 . S
O51 Mn36 2.162 . S
O51 C39 1.281 . S
O52 Mn36 2.297 . S
O52 C39 1.236 . S
N53 Mn37 2.282 . S
N53 C54 1.328 . S
N53 C58 1.318 . S
C54 N53 1.328 . S
C54 C55 1.457 . S
C54 H59 0.929 . S
C55 C54 1.457 . S
C55 C56 1.291 . S
C55 H68 0.931 . S
C56 C55 1.291 . S
C56 C57 1.373 . S
C56 H69 0.929 . S
C57 C56 1.373 . S
C57 C58 1.396 . S
C57 C64 1.403 . S
C58 C48 1.476 . S
C58 N53 1.318 . S
C58 C57 1.396 . S
H59 C54 0.929 . S
O60 Mn36 2.385 . S
O60 C38 1.234 . S
O61 Mn36 2.209 . S
O61 Mn37 2.215 . S
O61 C38 1.283 . S
O62 Mn36 2.094 1_556 S
O62 C40 1.240 . S
O63 Mn37 2.117 1_556 S
O63 C40 1.264 . S
C64 C57 1.403 . S
C64 C65 1.399 . S
C64 H70 0.929 . S
C65 C45 1.449 . S
C65 C64 1.399 . S
C65 H71 0.930 . S
H66 C46 0.931 . S
H67 C47 0.930 . S
H68 C55 0.931 . S
H69 C56 0.929 . S
H70 C64 0.929 . S
H71 C65 0.930 . S
Mn72 O77 2.095 1_564 S
Mn72 O87 2.162 . S
Mn72 O88 2.297 . S
Mn72 O96 2.385 . S
Mn72 O97 2.209 1_565 S
Mn72 O98 2.094 1_554 S
Mn73 O78 2.111 1_554 S
Mn73 N80 2.296 . S
Mn73 N89 2.306 . S
Mn73 O97 2.262 . S
Mn73 O99 2.081 1_554 S
C74 O96 1.234 1_545 S
C74 O97 1.283 . S
C75 O87 1.281 . S
C75 O88 1.236 . S
C76 O98 1.240 . S
C76 O99 1.264 1_565 S
O77 Mn72 2.095 1_546 S
O77 C86 1.250 . S
O78 Mn73 2.111 1_556 S
O78 C86 1.258 . S
C79 N80 1.326 . S
C79 C83 1.460 . S
C79 H85 0.929 . S
N80 Mn73 2.296 . S
N80 C79 1.326 . S
N80 C84 1.362 . S
C81 C82 1.258 . S
C81 C84 1.431 . S
C81 C101 1.449 . S
C82 C81 1.258 . S
C82 C83 1.477 . S
C82 H102 0.931 . S
C83 C79 1.460 . S
C83 C82 1.477 . S
C83 H103 0.930 . S
C84 N80 1.362 . S
C84 C81 1.431 . S
C84 C94 1.476 . S
H85 C79 0.929 . S
C86 O77 1.250 . S
C86 O78 1.258 . S
O87 Mn72 2.162 . S
O87 C75 1.281 . S
O88 Mn72 2.297 . S
O88 C75 1.236 . S
N89 Mn73 2.306 . S
N89 C90 1.328 . S
N89 C94 1.318 . S
C90 N89 1.328 . S
C90 C91 1.457 . S
C90 H95 0.929 . S
C91 C90 1.457 . S
C91 C92 1.291 . S
C91 H104 0.931 . S
C92 C91 1.291 . S
C92 C93 1.373 . S
C92 H105 0.929 . S
C93 C92 1.373 . S
C93 C94 1.396 . S
C93 C100 1.403 . S
C94 C84 1.476 . S
C94 N89 1.318 . S
C94 C93 1.396 . S
H95 C90 0.929 . S
O96 Mn72 2.385 . S
O96 C74 1.234 1_565 S
O97 Mn72 2.209 1_545 S
O97 Mn73 2.262 . S
O97 C74 1.283 . S
O98 Mn72 2.094 1_556 S
O98 C76 1.240 . S
O99 Mn73 2.081 1_556 S
O99 C76 1.264 1_545 S
C100 C93 1.403 . S
C100 C101 1.399 . S
C100 H106 0.929 . S
C101 C81 1.449 . S
C101 C100 1.399 . S
C101 H107 0.930 . S
H102 C82 0.931 . S
H103 C83 0.930 . S
H104 C91 0.931 . S
H105 C92 0.929 . S
H106 C100 0.929 . S
H107 C101 0.930 . S
Mn108 O113 2.095 1_655 S
Mn108 O123 2.162 . S
Mn108 O124 2.297 1_554 S
Mn108 O132 2.385 1_554 S
Mn108 O133 2.209 1_654 S
Mn108 O134 2.094 . S
Mn109 O114 2.121 . S
Mn109 N116 2.257 . S
Mn109 N125 2.282 . S
Mn109 O133 2.215 1_554 S
Mn109 O135 2.117 . S
C110 O132 1.234 1_455 S
C110 O133 1.283 . S
C111 O123 1.281 1_556 S
C111 O124 1.236 . S
C112 O134 1.240 . S
C112 O135 1.264 1_655 S
O113 Mn108 2.095 1_455 S
O113 C122 1.250 . S
O114 Mn109 2.121 . S
O114 C122 1.258 . S
C115 N116 1.330 . S
C115 C119 1.447 1_554 S
C115 H121 0.939 . S
N116 Mn109 2.257 . S
N116 C115 1.330 . S
N116 C120 1.362 1_554 S
C117 C118 1.258 . S
C117 C120 1.431 . S
C117 C137 1.449 . S
C118 C117 1.258 . S
C118 C119 1.477 . S
C118 H138 0.931 . S
C119 C115 1.447 1_556 S
C119 C118 1.477 . S
C119 H139 0.930 . S
C120 N116 1.362 1_556 S
C120 C117 1.431 . S
C120 C130 1.476 . S
H121 C115 0.939 . S
C122 O113 1.250 . S
C122 O114 1.258 . S
O123 Mn108 2.162 . S
O123 C111 1.281 1_554 S
O124 Mn108 2.297 1_556 S
O124 C111 1.236 . S
N125 Mn109 2.282 . S
N125 C126 1.328 . S
N125 C130 1.318 1_554 S
C126 N125 1.328 . S
C126 C127 1.457 . S
C126 H131 0.929 . S
C127 C126 1.457 . S
C127 C128 1.291 1_554 S
C127 H140 0.931 . S
C128 C127 1.291 1_556 S
C128 C129 1.373 . S
C128 H141 0.929 . S
C129 C128 1.373 . S
C129 C130 1.396 . S
C129 C136 1.403 . S
C130 C120 1.476 . S
C130 N125 1.318 1_556 S
C130 C129 1.396 . S
H131 C126 0.929 . S
O132 Mn108 2.385 1_556 S
O132 C110 1.234 1_655 S
O133 Mn108 2.209 1_456 S
O133 Mn109 2.215 1_556 S
O133 C110 1.283 . S
O134 Mn108 2.094 . S
O134 C112 1.240 . S
O135 Mn109 2.117 . S
O135 C112 1.264 1_455 S
C136 C129 1.403 . S
C136 C137 1.399 . S
C136 H142 0.929 . S
C137 C117 1.449 . S
C137 C136 1.399 . S
C137 H143 0.930 . S
H138 C118 0.931 . S
H139 C119 0.930 . S
H140 C127 0.931 . S
H141 C128 0.929 . S
H142 C136 0.929 . S
H143 C137 0.930 . S
Mn144 O149 2.095 1_554 S
Mn144 O159 2.162 . S
Mn144 O160 2.297 . S
Mn144 O168 2.385 . S
Mn144 O169 2.209 . S
Mn144 O170 2.094 1_554 S
Mn145 O150 2.121 . S
Mn145 N152 2.257 1_556 S
Mn145 N161 2.282 1_556 S
Mn145 O169 2.215 1_556 S
Mn145 O171 2.117 . S
C146 O168 1.234 . S
C146 O169 1.283 . S
C147 O159 1.281 . S
C147 O160 1.236 . S
C148 O170 1.240 . S
C148 O171 1.264 . S
O149 Mn144 2.095 1_556 S
O149 C158 1.250 . S
O150 Mn145 2.121 . S
O150 C158 1.258 . S
C151 N152 1.326 . S
C151 C155 1.460 . S
C151 H157 0.929 . S
N152 Mn145 2.257 1_554 S
N152 C151 1.326 . S
N152 C156 1.362 . S
C153 C154 1.258 . S
C153 C156 1.431 . S
C153 C173 1.449 . S
C154 C153 1.258 . S
C154 C155 1.477 . S
C154 H174 0.931 . S
C155 C151 1.460 . S
C155 C154 1.477 . S
C155 H175 0.930 . S
C156 N152 1.362 . S
C156 C153 1.431 . S
C156 C166 1.476 . S
H157 C151 0.929 . S
C158 O149 1.250 . S
C158 O150 1.258 . S
O159 Mn144 2.162 . S
O159 C147 1.281 . S
O160 Mn144 2.297 . S
O160 C147 1.236 . S
N161 Mn145 2.282 1_554 S
N161 C162 1.328 . S
N161 C166 1.318 . S
C162 N161 1.328 . S
C162 C163 1.457 . S
C162 H167 0.929 1_554 S
C163 C162 1.457 . S
C163 C164 1.291 . S
C163 H176 0.931 . S
C164 C163 1.291 . S
C164 C165 1.373 . S
C164 H177 0.929 . S
C165 C164 1.373 . S
C165 C166 1.396 . S
C165 C172 1.403 . S
C166 C156 1.476 . S
C166 N161 1.318 . S
C166 C165 1.396 . S
H167 C162 0.929 1_556 S
O168 Mn144 2.385 . S
O168 C146 1.234 . S
O169 Mn144 2.209 . S
O169 Mn145 2.215 1_554 S
O169 C146 1.283 . S
O170 Mn144 2.094 1_556 S
O170 C148 1.240 . S
O171 Mn145 2.117 . S
O171 C148 1.264 . S
C172 C165 1.403 . S
C172 C173 1.399 . S
C172 H178 0.929 . S
C173 C153 1.449 . S
C173 C172 1.399 . S
C173 H179 0.930 . S
H174 C154 0.931 . S
H175 C155 0.930 . S
H176 C163 0.931 . S
H177 C164 0.929 . S
H178 C172 0.929 . S
H179 C173 0.930 . S
Mn180 O185 2.095 1_545 S
Mn180 O195 2.162 . S
Mn180 O196 2.297 1_554 S
Mn180 O204 2.385 1_554 S
Mn180 O205 2.212 1_544 S
Mn180 O206 2.094 . S
Mn181 O186 2.121 . S
Mn181 N188 2.257 . S
Mn181 N197 2.282 . S
Mn181 O205 2.220 1_554 S
Mn181 O207 2.117 . S
C182 O204 1.234 1_565 S
C182 O205 1.279 . S
C183 O195 1.281 1_556 S
C183 O196 1.236 . S
C184 O206 1.240 . S
C184 O207 1.264 1_545 S
O185 Mn180 2.095 1_565 S
O185 C194 1.250 . S
O186 Mn181 2.121 . S
O186 C194 1.258 . S
C187 N188 1.335 . S
C187 C191 1.431 1_554 S
C187 H193 0.952 . S
N188 Mn181 2.257 . S
N188 C187 1.335 . S
N188 C192 1.362 1_554 S
C189 C190 1.258 . S
C189 C192 1.431 . S
C189 C209 1.449 . S
C190 C189 1.258 . S
C190 C191 1.477 . S
C190 H210 0.931 . S
C191 C187 1.431 1_556 S
C191 C190 1.477 . S
C191 H211 0.930 . S
C192 N188 1.362 1_556 S
C192 C189 1.431 . S
C192 C202 1.476 . S
H193 C187 0.952 . S
C194 O185 1.250 . S
C194 O186 1.258 . S
O195 Mn180 2.162 . S
O195 C183 1.281 1_554 S
O196 Mn180 2.297 1_556 S
O196 C183 1.236 . S
N197 Mn181 2.282 . S
N197 C198 1.328 . S
N197 C202 1.318 1_554 S
C198 N197 1.328 . S
C198 C199 1.457 . S
C198 H203 0.929 . S
C199 C198 1.457 . S
C199 C200 1.291 1_554 S
C199 H212 0.931 . S
C200 C199 1.291 1_556 S
C200 C201 1.373 . S
C200 H213 0.929 . S
C201 C200 1.373 . S
C201 C202 1.396 . S
C201 C208 1.403 . S
C202 C192 1.476 . S
C202 N197 1.318 1_556 S
C202 C201 1.396 . S
H203 C198 0.929 . S
O204 Mn180 2.385 1_556 S
O204 C182 1.234 1_545 S
O205 Mn180 2.212 1_566 S
O205 Mn181 2.220 1_556 S
O205 C182 1.279 . S
O206 Mn180 2.094 . S
O206 C184 1.240 . S
O207 Mn181 2.117 . S
O207 C184 1.264 1_565 S
C208 C201 1.403 . S
C208 C209 1.399 . S
C208 H214 0.929 . S
C209 C189 1.449 . S
C209 C208 1.399 . S
C209 H215 0.930 . S
H210 C190 0.931 . S
H211 C191 0.930 . S
H212 C199 0.931 . S
H213 C200 0.929 . S
H214 C208 0.929 . S
H215 C209 0.930 . S
Mn216 O221 2.095 . S
Mn216 O231 2.162 . S
Mn216 O232 2.297 . S
Mn216 O240 2.385 . S
Mn216 O241 2.209 . S
Mn216 O242 2.094 . S
Mn217 O222 2.121 . S
Mn217 N224 2.257 . S
Mn217 N233 2.282 . S
Mn217 O241 2.215 . S
Mn217 O243 2.117 . S
C218 O240 1.234 . S
C218 O241 1.283 . S
C219 O231 1.281 . S
C219 O232 1.236 . S
C220 O242 1.240 . S
C220 O243 1.264 . S
O221 Mn216 2.095 . S
O221 C230 1.250 . S
O222 Mn217 2.121 . S
O222 C230 1.258 . S
C223 N224 1.326 . S
C223 C227 1.460 . S
C223 H229 0.929 . S
N224 Mn217 2.257 . S
N224 C223 1.326 . S
N224 C228 1.362 . S
C225 C226 1.258 . S
C225 C228 1.431 . S
C225 C245 1.449 . S
C226 C225 1.258 . S
C226 C227 1.477 . S
C226 H246 0.931 . S
C227 C223 1.460 . S
C227 C226 1.477 . S
C227 H247 0.930 . S
C228 N224 1.362 . S
C228 C225 1.431 . S
C228 C238 1.476 . S
H229 C223 0.929 . S
C230 O221 1.250 . S
C230 O222 1.258 . S
O231 Mn216 2.162 . S
O231 C219 1.281 . S
O232 Mn216 2.297 . S
O232 C219 1.236 . S
N233 Mn217 2.282 . S
N233 C234 1.328 . S
N233 C238 1.318 . S
C234 N233 1.328 . S
C234 C235 1.457 . S
C234 H239 0.929 . S
C235 C234 1.457 . S
C235 C236 1.291 . S
C235 H248 0.931 . S
C236 C235 1.291 . S
C236 C237 1.373 . S
C236 H249 0.929 . S
C237 C236 1.373 . S
C237 C238 1.396 . S
C237 C244 1.403 . S
C238 C228 1.476 . S
C238 N233 1.318 . S
C238 C237 1.396 . S
H239 C234 0.929 . S
O240 Mn216 2.385 . S
O240 C218 1.234 . S
O241 Mn216 2.209 . S
O241 Mn217 2.215 . S
O241 C218 1.283 . S
O242 Mn216 2.094 . S
O242 C220 1.240 . S
O243 Mn217 2.117 . S
O243 C220 1.264 . S
C244 C237 1.403 . S
C244 C245 1.399 . S
C244 H250 0.929 . S
C245 C225 1.449 . S
C245 C244 1.399 . S
C245 H251 0.930 . S
H246 C226 0.931 . S
H247 C227 0.930 . S
H248 C235 0.931 . S
H249 C236 0.929 . S
H250 C244 0.929 . S
H251 C245 0.930 . S
Mn252 O257 2.095 . S
Mn252 O267 2.162 1_565 S
Mn252 O268 2.297 1_565 S
Mn252 O276 2.385 . S
Mn252 O277 2.209 . S
Mn252 O278 2.094 . S
Mn253 O258 2.121 . S
Mn253 N260 2.257 . S
Mn253 N269 2.282 . S
Mn253 O277 2.215 . S
Mn253 O279 2.117 . S
C254 O276 1.234 . S
C254 O277 1.283 . S
C255 O267 1.281 . S
C255 O268 1.236 . S
C256 O278 1.240 . S
C256 O279 1.264 . S
O257 Mn252 2.095 . S
O257 C266 1.250 . S
O258 Mn253 2.121 . S
O258 C266 1.258 . S
C259 N260 1.326 . S
C259 C263 1.460 . S
C259 H265 0.929 . S
N260 Mn253 2.257 . S
N260 C259 1.326 . S
N260 C264 1.362 . S
C261 C262 1.258 . S
C261 C264 1.431 . S
C261 C281 1.449 . S
C262 C261 1.258 . S
C262 C263 1.477 . S
C262 H282 0.931 . S
C263 C259 1.460 . S
C263 C262 1.477 . S
C263 H283 0.930 . S
C264 N260 1.362 . S
C264 C261 1.431 . S
C264 C274 1.476 . S
H265 C259 0.929 . S
C266 O257 1.250 . S
C266 O258 1.258 . S
O267 Mn252 2.162 1_545 S
O267 C255 1.281 . S
O268 Mn252 2.297 1_545 S
O268 C255 1.236 . S
N269 Mn253 2.282 . S
N269 C270 1.328 . S
N269 C274 1.318 . S
C270 N269 1.328 . S
C270 C271 1.457 . S
C270 H275 0.929 . S
C271 C270 1.457 . S
C271 C272 1.291 . S
C271 H284 0.931 . S
C272 C271 1.291 . S
C272 C273 1.373 . S
C272 H285 0.929 . S
C273 C272 1.373 . S
C273 C274 1.396 . S
C273 C280 1.403 . S
C274 C264 1.476 . S
C274 N269 1.318 . S
C274 C273 1.396 . S
H275 C270 0.929 . S
O276 Mn252 2.385 . S
O276 C254 1.234 . S
O277 Mn252 2.209 . S
O277 Mn253 2.215 . S
O277 C254 1.283 . S
O278 Mn252 2.094 . S
O278 C256 1.240 . S
O279 Mn253 2.117 . S
O279 C256 1.264 . S
C280 C273 1.403 . S
C280 C281 1.399 . S
C280 H286 0.929 . S
C281 C261 1.449 . S
C281 C280 1.399 . S
C281 H287 0.930 . S
H282 C262 0.931 . S
H283 C263 0.930 . S
H284 C271 0.931 . S
H285 C272 0.929 . S
H286 C280 0.929 . S
H287 C281 0.930 . S
Mn288 O293 2.095 . S
Mn288 O303 2.162 1_455 S
Mn288 O304 2.297 1_455 S
Mn288 O312 2.385 . S
Mn288 O313 2.209 . S
Mn288 O314 2.094 . S
Mn289 O294 2.121 . S
Mn289 N296 2.257 . S
Mn289 N305 2.282 . S
Mn289 O313 2.215 . S
Mn289 O315 2.117 . S
C290 O312 1.234 . S
C290 O313 1.283 . S
C291 O303 1.281 . S
C291 O304 1.236 . S
C292 O314 1.240 . S
C292 O315 1.264 . S
O293 Mn288 2.095 . S
O293 C302 1.250 . S
O294 Mn289 2.121 . S
O294 C302 1.258 . S
C295 N296 1.326 . S
C295 C299 1.460 . S
C295 H301 0.929 . S
N296 Mn289 2.257 . S
N296 C295 1.326 . S
N296 C300 1.362 . S
C297 C298 1.258 . S
C297 C300 1.431 . S
C297 C317 1.449 . S
C298 C297 1.258 . S
C298 C299 1.477 . S
C298 H318 0.931 . S
C299 C295 1.460 . S
C299 C298 1.477 . S
C299 H319 0.930 . S
C300 N296 1.362 . S
C300 C297 1.431 . S
C300 C310 1.476 . S
H301 C295 0.929 . S
C302 O293 1.250 . S
C302 O294 1.258 . S
O303 Mn288 2.162 1_655 S
O303 C291 1.281 . S
O304 Mn288 2.297 1_655 S
O304 C291 1.236 . S
N305 Mn289 2.282 . S
N305 C306 1.328 . S
N305 C310 1.318 . S
C306 N305 1.328 . S
C306 C307 1.457 . S
C306 H311 0.929 . S
C307 C306 1.457 . S
C307 C308 1.291 . S
C307 H320 0.931 . S
C308 C307 1.291 . S
C308 C309 1.373 . S
C308 H321 0.929 . S
C309 C308 1.373 . S
C309 C310 1.396 . S
C309 C316 1.403 . S
C310 C300 1.476 . S
C310 N305 1.318 . S
C310 C309 1.396 . S
H311 C306 0.929 . S
O312 Mn288 2.385 . S
O312 C290 1.234 . S
O313 Mn288 2.209 . S
O313 Mn289 2.215 . S
O313 C290 1.283 . S
O314 Mn288 2.094 . S
O314 C292 1.240 . S
O315 Mn289 2.117 . S
O315 C292 1.264 . S
C316 C309 1.403 . S
C316 C317 1.399 . S
C316 H322 0.929 . S
C317 C297 1.449 . S
C317 C316 1.399 . S
C317 H323 0.930 . S
H318 C298 0.931 . S
H319 C299 0.930 . S
H320 C307 0.931 . S
H321 C308 0.929 . S
H322 C316 0.929 . S
H323 C317 0.930 . S
Mn324 O329 2.095 . S
Mn324 O339 2.162 . S
Mn324 O340 2.297 . S
Mn324 O348 2.385 . S
Mn324 O349 2.209 . S
Mn324 O350 2.094 . S
Mn325 O330 2.121 1_565 S
Mn325 N332 2.257 . S
Mn325 N341 2.282 . S
Mn325 O349 2.215 . S
Mn325 O351 2.117 . S
C326 O348 1.234 . S
C326 O349 1.283 . S
C327 O339 1.281 . S
C327 O340 1.236 . S
C328 O350 1.240 . S
C328 O351 1.264 . S
O329 Mn324 2.095 . S
O329 C338 1.250 1_565 S
O330 Mn325 2.121 1_545 S
O330 C338 1.258 . S
C331 N332 1.326 1_545 S
C331 C335 1.460 . S
C331 H337 0.929 . S
N332 Mn325 2.257 . S
N332 C331 1.326 1_565 S
N332 C336 1.362 . S
C333 C334 1.226 1_565 S
C333 C336 1.431 . S
C333 C353 1.449 . S
C334 C333 1.226 1_545 S
C334 C335 1.517 . S
C334 H354 0.923 . S
C335 C331 1.460 . S
C335 C334 1.517 . S
C335 H355 0.930 . S
C336 N332 1.362 . S
C336 C333 1.431 . S
C336 C346 1.476 . S
H337 C331 0.929 . S
C338 O329 1.250 1_545 S
C338 O330 1.258 . S
O339 Mn324 2.162 . S
O339 C327 1.281 . S
O340 Mn324 2.297 . S
O340 C327 1.236 . S
N341 Mn325 2.282 . S
N341 C342 1.328 . S
N341 C346 1.318 . S
C342 N341 1.328 . S
C342 C343 1.457 . S
C342 H347 0.929 . S
C343 C342 1.457 . S
C343 C344 1.291 . S
C343 H356 0.931 . S
C344 C343 1.291 . S
C344 C345 1.373 . S
C344 H357 0.929 . S
C345 C344 1.373 . S
C345 C346 1.396 . S
C345 C352 1.403 . S
C346 C336 1.476 . S
C346 N341 1.318 . S
C346 C345 1.396 . S
H347 C342 0.929 . S
O348 Mn324 2.385 . S
O348 C326 1.234 . S
O349 Mn324 2.209 . S
O349 Mn325 2.215 . S
O349 C326 1.283 . S
O350 Mn324 2.094 . S
O350 C328 1.240 . S
O351 Mn325 2.117 . S
O351 C328 1.264 . S
C352 C345 1.403 . S
C352 C353 1.399 . S
C352 H358 0.929 . S
C353 C333 1.449 . S
C353 C352 1.399 . S
C353 H359 0.930 . S
H354 C334 0.923 . S
H355 C335 0.930 . S
H356 C343 0.931 . S
H357 C344 0.929 . S
H358 C352 0.929 . S
H359 C353 0.930 . S
Mn360 O365 2.095 . S
Mn360 O375 2.162 1_455 S
Mn360 O376 2.280 1_455 S
Mn360 O384 2.385 . S
Mn360 O385 2.209 . S
Mn360 O386 2.094 . S
Mn361 O366 2.121 . S
Mn361 N368 2.257 . S
Mn361 N377 2.282 . S
Mn361 O385 2.215 . S
Mn361 O387 2.117 . S
C362 O384 1.234 . S
C362 O385 1.283 . S
C363 O375 1.281 . S
C363 O376 1.291 . S
C364 O386 1.240 . S
C364 O387 1.264 . S
O365 Mn360 2.095 . S
O365 C374 1.250 . S
O366 Mn361 2.121 . S
O366 C374 1.258 . S
C367 N368 1.326 . S
C367 C371 1.460 . S
C367 H373 0.929 . S
N368 Mn361 2.257 . S
N368 C367 1.326 . S
N368 C372 1.362 . S
C369 C370 1.258 . S
C369 C372 1.431 . S
C369 C389 1.449 . S
C370 C369 1.258 . S
C370 C371 1.477 . S
C370 H390 0.931 . S
C371 C367 1.460 . S
C371 C370 1.477 . S
C371 H391 0.930 . S
C372 N368 1.362 . S
C372 C369 1.431 . S
C372 C382 1.476 . S
H373 C367 0.929 . S
C374 O365 1.250 . S
C374 O366 1.258 . S
O375 Mn360 2.162 1_655 S
O375 C363 1.281 . S
O376 Mn360 2.280 1_655 S
O376 C363 1.291 . S
N377 Mn361 2.282 . S
N377 C378 1.328 . S
N377 C382 1.318 . S
C378 N377 1.328 . S
C378 C379 1.457 . S
C378 H383 0.929 . S
C379 C378 1.457 . S
C379 C380 1.291 . S
C379 H392 0.931 . S
C380 C379 1.291 . S
C380 C381 1.373 . S
C380 H393 0.929 . S
C381 C380 1.373 . S
C381 C382 1.396 . S
C381 C388 1.403 . S
C382 C372 1.476 . S
C382 N377 1.318 . S
C382 C381 1.396 . S
H383 C378 0.929 . S
O384 Mn360 2.385 . S
O384 C362 1.234 . S
O385 Mn360 2.209 . S
O385 Mn361 2.215 . S
O385 C362 1.283 . S
O386 Mn360 2.094 . S
O386 C364 1.240 . S
O387 Mn361 2.117 . S
O387 C364 1.264 . S
C388 C381 1.403 . S
C388 C389 1.399 . S
C388 H394 0.929 . S
C389 C369 1.449 . S
C389 C388 1.399 . S
C389 H395 0.930 . S
H390 C370 0.931 . S
H391 C371 0.930 . S
H392 C379 0.931 . S
H393 C380 0.929 . S
H394 C388 0.929 . S
H395 C389 0.930 . S
Mn396 O401 2.095 . S
Mn396 O411 2.162 . S
Mn396 O412 2.297 . S
Mn396 O420 2.385 . S
Mn396 O421 2.209 . S
Mn396 O422 2.094 . S
Mn397 O402 2.121 . S
Mn397 N404 2.257 . S
Mn397 N413 2.282 . S
Mn397 O421 2.215 . S
Mn397 O423 2.117 . S
C398 O420 1.234 . S
C398 O421 1.283 . S
C399 O411 1.281 . S
C399 O412 1.236 . S
C400 O422 1.240 . S
C400 O423 1.264 . S
O401 Mn396 2.095 . S
O401 C410 1.250 . S
O402 Mn397 2.121 . S
O402 C410 1.258 . S
C403 N404 1.326 . S
C403 C407 1.460 . S
C403 H409 0.929 . S
N404 Mn397 2.257 . S
N404 C403 1.326 . S
N404 C408 1.362 . S
C405 C406 1.258 . S
C405 C408 1.431 . S
C405 C425 1.449 . S
C406 C405 1.258 . S
C406 C407 1.477 . S
C406 H426 0.931 . S
C407 C403 1.460 . S
C407 C406 1.477 . S
C407 H427 0.930 . S
C408 N404 1.362 . S
C408 C405 1.431 . S
C408 C418 1.476 . S
H409 C403 0.929 . S
C410 O401 1.250 . S
C410 O402 1.258 . S
O411 Mn396 2.162 . S
O411 C399 1.281 . S
O412 Mn396 2.297 . S
O412 C399 1.236 . S
N413 Mn397 2.282 . S
N413 C414 1.328 . S
N413 C418 1.318 . S
C414 N413 1.328 . S
C414 C415 1.457 . S
C414 H419 0.929 . S
C415 C414 1.457 . S
C415 C416 1.291 . S
C415 H428 0.931 . S
C416 C415 1.291 . S
C416 C417 1.373 . S
C416 H429 0.929 . S
C417 C416 1.373 . S
C417 C418 1.396 . S
C417 C424 1.403 . S
C418 C408 1.476 . S
C418 N413 1.318 . S
C418 C417 1.396 . S
H419 C414 0.929 . S
O420 Mn396 2.385 . S
O420 C398 1.234 . S
O421 Mn396 2.209 . S
O421 Mn397 2.215 . S
O421 C398 1.283 . S
O422 Mn396 2.094 . S
O422 C400 1.240 . S
O423 Mn397 2.117 . S
O423 C400 1.264 . S
C424 C417 1.403 . S
C424 C425 1.399 . S
C424 H430 0.929 . S
C425 C405 1.449 . S
C425 C424 1.399 . S
C425 H431 0.930 . S
H426 C406 0.931 . S
H427 C407 0.930 . S
H428 C415 0.931 . S
H429 C416 0.929 . S
H430 C424 0.929 . S
H431 C425 0.930 . S
Mn432 O437 2.095 . S
Mn432 O447 2.162 1_545 S
Mn432 O448 2.241 1_545 S
Mn432 O456 2.385 . S
Mn432 O457 2.209 . S
Mn432 O458 2.094 . S
Mn433 O438 2.121 . S
Mn433 N440 2.257 . S
Mn433 N449 2.282 . S
Mn433 O457 2.215 . S
Mn433 O459 2.117 . S
C434 O456 1.234 . S
C434 O457 1.283 . S
C435 O447 1.281 . S
C435 O448 1.255 . S
C436 O458 1.240 . S
C436 O459 1.264 . S
O437 Mn432 2.095 . S
O437 C446 1.250 . S
O438 Mn433 2.121 . S
O438 C446 1.258 . S
C439 N440 1.326 . S
C439 C443 1.460 . S
C439 H445 0.929 . S
N440 Mn433 2.257 . S
N440 C439 1.326 . S
N440 C444 1.362 . S
C441 C442 1.258 . S
C441 C444 1.431 . S
C441 C461 1.449 . S
C442 C441 1.258 . S
C442 C443 1.477 . S
C442 H462 0.931 . S
C443 C439 1.460 . S
C443 C442 1.477 . S
C443 H463 0.930 . S
C444 N440 1.362 . S
C444 C441 1.431 . S
C444 C454 1.476 . S
H445 C439 0.929 . S
C446 O437 1.250 . S
C446 O438 1.258 . S
O447 Mn432 2.162 1_565 S
O447 C435 1.281 . S
O448 Mn432 2.241 1_565 S
O448 C435 1.255 . S
N449 Mn433 2.282 . S
N449 C450 1.328 . S
N449 C454 1.318 . S
C450 N449 1.328 . S
C450 C451 1.457 . S
C450 H455 0.929 . S
C451 C450 1.457 . S
C451 C452 1.291 . S
C451 H464 0.931 . S
C452 C451 1.291 . S
C452 C453 1.373 . S
C452 H465 0.929 . S
C453 C452 1.373 . S
C453 C454 1.396 . S
C453 C460 1.403 . S
C454 C444 1.476 . S
C454 N449 1.318 . S
C454 C453 1.396 . S
H455 C450 0.929 . S
O456 Mn432 2.385 . S
O456 C434 1.234 . S
O457 Mn432 2.209 . S
O457 Mn433 2.215 . S
O457 C434 1.283 . S
O458 Mn432 2.094 . S
O458 C436 1.240 . S
O459 Mn433 2.117 . S
O459 C436 1.264 . S
C460 C453 1.403 . S
C460 C461 1.399 . S
C460 H466 0.929 . S
C461 C441 1.449 . S
C461 C460 1.399 . S
C461 H467 0.930 . S
H462 C442 0.931 . S
H463 C443 0.930 . S
H464 C451 0.931 . S
H465 C452 0.929 . S
H466 C460 0.929 . S
H467 C461 0.930 . S
Mn468 O473 2.095 . S
Mn468 O483 2.162 . S
Mn468 O484 2.297 . S
Mn468 O492 2.385 . S
Mn468 O493 2.209 . S
Mn468 O494 2.094 . S
Mn469 O474 2.121 1_655 S
Mn469 N476 2.257 . S
Mn469 N485 2.282 . S
Mn469 O493 2.215 . S
Mn469 O495 2.117 . S
C470 O492 1.234 . S
C470 O493 1.283 . S
C471 O483 1.281 . S
C471 O484 1.236 . S
C472 O494 1.240 . S
C472 O495 1.264 . S
O473 Mn468 2.095 . S
O473 C482 1.250 1_655 S
O474 Mn469 2.121 1_455 S
O474 C482 1.258 . S
C475 N476 1.326 1_455 S
C475 C479 1.460 . S
C475 H481 0.929 . S
N476 Mn469 2.257 . S
N476 C475 1.326 1_655 S
N476 C480 1.362 . S
C477 C478 1.225 1_655 S
C477 C480 1.431 . S
C477 C497 1.449 . S
C478 C477 1.225 1_455 S
C478 C479 1.487 . S
C478 H498 0.954 . S
C479 C475 1.460 . S
C479 C478 1.487 . S
C479 H499 0.930 . S
C480 N476 1.362 . S
C480 C477 1.431 . S
C480 C490 1.476 . S
H481 C475 0.929 . S
C482 O473 1.250 1_455 S
C482 O474 1.258 . S
O483 Mn468 2.162 . S
O483 C471 1.281 . S
O484 Mn468 2.297 . S
O484 C471 1.236 . S
N485 Mn469 2.282 . S
N485 C486 1.328 . S
N485 C490 1.318 . S
C486 N485 1.328 . S
C486 C487 1.457 . S
C486 H491 0.929 . S
C487 C486 1.457 . S
C487 C488 1.291 . S
C487 H500 0.931 . S
C488 C487 1.291 . S
C488 C489 1.373 . S
C488 H501 0.929 . S
C489 C488 1.373 . S
C489 C490 1.396 . S
C489 C496 1.403 . S
C490 C480 1.476 . S
C490 N485 1.318 . S
C490 C489 1.396 . S
H491 C486 0.929 . S
O492 Mn468 2.385 . S
O492 C470 1.234 . S
O493 Mn468 2.209 . S
O493 Mn469 2.215 . S
O493 C470 1.283 . S
O494 Mn468 2.094 . S
O494 C472 1.240 . S
O495 Mn469 2.117 . S
O495 C472 1.264 . S
C496 C489 1.403 . S
C496 C497 1.399 . S
C496 H502 0.929 . S
C497 C477 1.449 . S
C497 C496 1.399 . S
C497 H503 0.930 . S
H498 C478 0.954 . S
H499 C479 0.930 . S
H500 C487 0.931 . S
H501 C488 0.929 . S
H502 C496 0.929 . S
H503 C497 0.930 . S
Mn504 O509 2.095 . S
Mn504 O519 2.162 . S
Mn504 O520 2.297 . S
Mn504 O528 2.385 . S
Mn504 O529 2.209 . S
Mn504 O530 2.094 . S
Mn505 O510 2.121 . S
Mn505 N512 2.257 . S
Mn505 N521 2.282 . S
Mn505 O529 2.215 . S
Mn505 O531 2.117 . S
C506 O528 1.234 . S
C506 O529 1.283 . S
C507 O519 1.281 . S
C507 O520 1.236 . S
C508 O530 1.240 . S
C508 O531 1.264 . S
O509 Mn504 2.095 . S
O509 C518 1.250 . S
O510 Mn505 2.121 . S
O510 C518 1.258 . S
C511 N512 1.326 . S
C511 C515 1.460 . S
C511 H517 0.929 . S
N512 Mn505 2.257 . S
N512 C511 1.326 . S
N512 C516 1.362 . S
C513 C514 1.258 . S
C513 C516 1.431 . S
C513 C533 1.449 . S
C514 C513 1.258 . S
C514 C515 1.477 . S
C514 H534 0.931 . S
C515 C511 1.460 . S
C515 C514 1.477 . S
C515 H535 0.930 . S
C516 N512 1.362 . S
C516 C513 1.431 . S
C516 C526 1.476 . S
H517 C511 0.929 . S
C518 O509 1.250 . S
C518 O510 1.258 . S
O519 Mn504 2.162 . S
O519 C507 1.281 . S
O520 Mn504 2.297 . S
O520 C507 1.236 . S
N521 Mn505 2.282 . S
N521 C522 1.328 . S
N521 C526 1.318 . S
C522 N521 1.328 . S
C522 C523 1.457 . S
C522 H527 0.929 . S
C523 C522 1.457 . S
C523 C524 1.291 . S
C523 H536 0.931 . S
C524 C523 1.291 . S
C524 C525 1.373 . S
C524 H537 0.929 . S
C525 C524 1.373 . S
C525 C526 1.396 . S
C525 C532 1.403 . S
C526 C516 1.476 . S
C526 N521 1.318 . S
C526 C525 1.396 . S
H527 C522 0.929 . S
O528 Mn504 2.385 . S
O528 C506 1.234 . S
O529 Mn504 2.209 . S
O529 Mn505 2.215 . S
O529 C506 1.283 . S
O530 Mn504 2.094 . S
O530 C508 1.240 . S
O531 Mn505 2.117 . S
O531 C508 1.264 . S
C532 C525 1.403 . S
C532 C533 1.399 . S
C532 H538 0.929 . S
C533 C513 1.449 . S
C533 C532 1.399 . S
C533 H539 0.930 . S
H534 C514 0.931 . S
H535 C515 0.930 . S
H536 C523 0.931 . S
H537 C524 0.929 . S
H538 C532 0.929 . S
H539 C533 0.930 . S
Mn540 O545 2.095 . S
Mn540 O555 2.162 . S
Mn540 O556 2.297 . S
Mn540 O564 2.385 . S
Mn540 O565 2.209 . S
Mn540 O566 2.094 . S
Mn541 O546 2.121 . S
Mn541 N548 2.257 . S
Mn541 N557 2.282 . S
Mn541 O565 2.215 . S
Mn541 O567 2.117 . S
C542 O564 1.234 . S
C542 O565 1.283 . S
C543 O555 1.281 . S
C543 O556 1.236 . S
C544 O566 1.240 . S
C544 O567 1.264 . S
O545 Mn540 2.095 . S
O545 C554 1.250 . S
O546 Mn541 2.121 . S
O546 C554 1.258 . S
C547 N548 1.326 . S
C547 C551 1.460 . S
C547 H553 0.929 . S
N548 Mn541 2.257 . S
N548 C547 1.326 . S
N548 C552 1.362 . S
C549 C550 1.258 . S
C549 C552 1.431 . S
C549 C569 1.449 . S
C550 C549 1.258 . S
C550 C551 1.477 . S
C550 H570 0.931 . S
C551 C547 1.460 . S
C551 C550 1.477 . S
C551 H571 0.930 . S
C552 N548 1.362 . S
C552 C549 1.431 . S
C552 C562 1.476 . S
H553 C547 0.929 . S
C554 O545 1.250 . S
C554 O546 1.258 . S
O555 Mn540 2.162 . S
O555 C543 1.281 . S
O556 Mn540 2.297 . S
O556 C543 1.236 . S
N557 Mn541 2.282 . S
N557 C558 1.328 . S
N557 C562 1.318 . S
C558 N557 1.328 . S
C558 C559 1.457 . S
C558 H563 0.929 . S
C559 C558 1.457 . S
C559 C560 1.291 . S
C559 H572 0.931 . S
C560 C559 1.291 . S
C560 C561 1.373 . S
C560 H573 0.929 . S
C561 C560 1.373 . S
C561 C562 1.396 . S
C561 C568 1.403 . S
C562 C552 1.476 . S
C562 N557 1.318 . S
C562 C561 1.396 . S
H563 C558 0.929 . S
O564 Mn540 2.385 . S
O564 C542 1.234 . S
O565 Mn540 2.209 . S
O565 Mn541 2.215 . S
O565 C542 1.283 . S
O566 Mn540 2.094 . S
O566 C544 1.240 . S
O567 Mn541 2.117 . S
O567 C544 1.264 . S
C568 C561 1.403 . S
C568 C569 1.399 . S
C568 H574 0.929 . S
C569 C549 1.449 . S
C569 C568 1.399 . S
C569 H575 0.930 . S
H570 C550 0.931 . S
H571 C551 0.930 . S
H572 C559 0.931 . S
H573 C560 0.929 . S
H574 C568 0.929 . S
H575 C569 0.930 . S
Mn576 O581 2.095 . S
Mn576 O591 2.162 . S
Mn576 O592 2.297 . S
Mn576 O600 2.385 . S
Mn576 O601 2.209 . S
Mn576 O602 2.094 . S
Mn577 O582 2.121 1_545 S
Mn577 N584 2.257 . S
Mn577 N593 2.282 . S
Mn577 O601 2.215 . S
Mn577 O603 2.117 . S
C578 O600 1.234 . S
C578 O601 1.283 . S
C579 O591 1.281 . S
C579 O592 1.236 . S
C580 O602 1.240 . S
C580 O603 1.264 . S
O581 Mn576 2.095 . S
O581 C590 1.250 1_545 S
O582 Mn577 2.121 1_565 S
O582 C590 1.258 . S
C583 N584 1.326 1_565 S
C583 C587 1.460 . S
C583 H589 0.929 . S
N584 Mn577 2.257 . S
N584 C583 1.326 1_545 S
N584 C588 1.362 . S
C585 C586 1.258 1_545 S
C585 C588 1.431 . S
C585 C605 1.449 . S
C586 C585 1.258 1_565 S
C586 C587 1.477 . S
C586 H606 0.931 . S
C587 C583 1.460 . S
C587 C586 1.477 . S
C587 H607 0.930 . S
C588 N584 1.362 . S
C588 C585 1.431 . S
C588 C598 1.476 . S
H589 C583 0.929 . S
C590 O581 1.250 1_565 S
C590 O582 1.258 . S
O591 Mn576 2.162 . S
O591 C579 1.281 . S
O592 Mn576 2.297 . S
O592 C579 1.236 . S
N593 Mn577 2.282 . S
N593 C594 1.328 . S
N593 C598 1.318 . S
C594 N593 1.328 . S
C594 C595 1.457 . S
C594 H599 0.929 . S
C595 C594 1.457 . S
C595 C596 1.291 . S
C595 H608 0.931 . S
C596 C595 1.291 . S
C596 C597 1.373 . S
C596 H609 0.929 . S
C597 C596 1.373 . S
C597 C598 1.396 . S
C597 C604 1.403 . S
C598 C588 1.476 . S
C598 N593 1.318 . S
C598 C597 1.396 . S
H599 C594 0.929 . S
O600 Mn576 2.385 . S
O600 C578 1.234 . S
O601 Mn576 2.209 . S
O601 Mn577 2.215 . S
O601 C578 1.283 . S
O602 Mn576 2.094 . S
O602 C580 1.240 . S
O603 Mn577 2.117 . S
O603 C580 1.264 . S
C604 C597 1.403 . S
C604 C605 1.399 . S
C604 H610 0.929 . S
C605 C585 1.449 . S
C605 C604 1.399 . S
C605 H611 0.930 . S
H606 C586 0.931 . S
H607 C587 0.930 . S
H608 C595 0.931 . S
H609 C596 0.929 . S
H610 C604 0.929 . S
H611 C605 0.930 . S
Mn612 O617 2.095 . S
Mn612 O627 2.162 1_655 S
Mn612 O628 2.297 1_655 S
Mn612 O636 2.385 . S
Mn612 O637 2.209 . S
Mn612 O638 2.094 . S
Mn613 O618 2.121 . S
Mn613 N620 2.257 . S
Mn613 N629 2.282 . S
Mn613 O637 2.215 . S
Mn613 O639 2.117 . S
C614 O636 1.234 . S
C614 O637 1.283 . S
C615 O627 1.281 . S
C615 O628 1.236 . S
C616 O638 1.240 . S
C616 O639 1.264 . S
O617 Mn612 2.095 . S
O617 C626 1.250 . S
O618 Mn613 2.121 . S
O618 C626 1.258 . S
C619 N620 1.326 . S
C619 C623 1.460 . S
C619 H625 0.929 . S
N620 Mn613 2.257 . S
N620 C619 1.326 . S
N620 C624 1.362 . S
C621 C622 1.258 . S
C621 C624 1.431 . S
C621 C641 1.449 . S
C622 C621 1.258 . S
C622 C623 1.477 . S
C622 H642 0.931 . S
C623 C619 1.460 . S
C623 C622 1.477 . S
C623 H643 0.930 . S
C624 N620 1.362 . S
C624 C621 1.431 . S
C624 C634 1.476 . S
H625 C619 0.929 . S
C626 O617 1.250 . S
C626 O618 1.258 . S
O627 Mn612 2.162 1_455 S
O627 C615 1.281 . S
O628 Mn612 2.297 1_455 S
O628 C615 1.236 . S
N629 Mn613 2.282 . S
N629 C630 1.328 . S
N629 C634 1.318 . S
C630 N629 1.328 . S
C630 C631 1.457 . S
C630 H635 0.929 . S
C631 C630 1.457 . S
C631 C632 1.291 . S
C631 H644 0.931 . S
C632 C631 1.291 . S
C632 C633 1.373 . S
C632 H645 0.929 . S
C633 C632 1.373 . S
C633 C634 1.396 . S
C633 C640 1.403 . S
C634 C624 1.476 . S
C634 N629 1.318 . S
C634 C633 1.396 . S
H635 C630 0.929 . S
O636 Mn612 2.385 . S
O636 C614 1.234 . S
O637 Mn612 2.209 . S
O637 Mn613 2.215 . S
O637 C614 1.283 . S
O638 Mn612 2.094 . S
O638 C616 1.240 . S
O639 Mn613 2.117 . S
O639 C616 1.264 . S
C640 C633 1.403 . S
C640 C641 1.399 . S
C640 H646 0.929 . S
C641 C621 1.449 . S
C641 C640 1.399 . S
C641 H647 0.930 . S
H642 C622 0.931 . S
H643 C623 0.930 . S
H644 C631 0.931 . S
H645 C632 0.929 . S
H646 C640 0.929 . S
H647 C641 0.930 . S
C648 C649 1.560 . S
C648 H709 0.959 . S
C648 H710 0.959 . S
C648 H711 0.960 . S
C649 C648 1.560 . S
C649 O704 1.426 . S
C649 H708 0.980 . S
C650 C651 1.407 . S
C650 C655 1.418 . S
C650 O704 1.334 . S
C651 C650 1.407 . S
C651 C652 1.360 . S
C651 H712 0.929 . S
C652 C651 1.360 . S
C652 C653 1.401 . S
C652 C656 1.527 . S
C653 C652 1.401 . S
C653 C654 1.405 . S
C653 C686 1.587 . S
C654 C653 1.405 . S
C654 C655 1.332 . S
C654 C657 1.496 . S
C655 C650 1.418 . S
C655 C654 1.332 . S
C655 H713 0.929 . S
C656 C652 1.527 . S
C656 H714 0.959 . S
C656 H715 0.961 . S
C656 H716 0.961 . S
C657 C654 1.496 . S
C657 H717 0.960 . S
C657 H718 0.960 . S
C657 H719 0.961 . S
C658 C659 1.517 . S
C658 H721 0.961 . S
C658 H722 0.960 . S
C658 H723 0.959 . S
C659 C658 1.517 . S
C659 O707 1.468 . S
C659 H720 0.980 . S
C660 C661 1.349 . S
C660 C665 1.367 . S
C660 O707 1.408 . S
C661 C660 1.349 . S
C661 C662 1.407 . S
C661 H724 0.930 . S
C662 C661 1.407 . S
C662 C663 1.449 . S
C662 C666 1.535 . S
C663 C662 1.449 . S
C663 C664 1.384 . S
C663 C688 1.553 . S
C664 C663 1.384 . S
C664 C665 1.364 . S
C664 C667 1.450 . S
C665 C660 1.367 . S
C665 C664 1.364 . S
C665 H725 0.931 . S
C666 C662 1.535 . S
C666 H726 0.959 . S
C666 H727 0.961 . S
C666 H728 0.959 . S
C667 C664 1.450 . S
C667 H729 0.960 . S
C667 H730 0.960 . S
C667 H731 0.960 . S
C668 C669 1.309 . S
C668 C673 1.304 . S
C668 O706 1.435 . S
C669 C668 1.309 . S
C669 C670 1.476 . S
C669 H733 0.930 . S
C670 C669 1.476 . S
C670 C671 1.400 . S
C670 C674 1.567 . S
C671 C670 1.400 . S
C671 C672 1.373 . S
C671 C693 1.432 . S
C672 C671 1.373 . S
C672 C673 1.339 . S
C672 C675 1.530 . S
C673 C668 1.304 . S
C673 C672 1.339 . S
C673 H734 0.930 . S
C674 C670 1.567 . S
C674 H735 0.961 . S
C674 H736 0.960 . S
C674 H737 0.958 . S
C675 C672 1.530 . S
C675 H738 0.961 . S
C675 H739 0.960 . S
C675 H740 0.960 . S
C676 C677 1.530 . S
C676 H742 0.961 . S
C676 H743 0.961 . S
C676 H744 0.959 . S
C677 C676 1.530 . S
C677 O705 1.412 . S
C677 H741 0.980 . S
C678 C679 1.288 . S
C678 C683 1.377 . S
C678 O705 1.393 . S
C679 C678 1.288 . S
C679 C680 1.369 . S
C679 H745 0.932 . S
C680 C679 1.369 . S
C680 C681 1.398 . S
C680 C684 1.527 . S
C681 C680 1.398 . S
C681 C682 1.380 . S
C681 C695 1.497 . S
C682 C681 1.380 . S
C682 C683 1.383 . S
C682 C685 1.603 . S
C683 C678 1.377 . S
C683 C682 1.383 . S
C683 H746 0.929 . S
C684 C680 1.527 . S
C684 H747 0.961 . S
C684 H748 0.959 . S
C684 H749 0.959 . S
C685 C682 1.603 . S
C685 H750 0.960 . S
C685 H751 0.962 . S
C685 H752 0.961 . S
C686 C653 1.587 . S
C686 C687 1.360 . S
C686 C699 1.412 . S
C687 C686 1.360 . S
C687 C688 1.365 . S
C687 H753 0.929 . S
C688 C663 1.553 . S
C688 C687 1.365 . S
C688 C689 1.404 . S
C689 C688 1.404 . S
C689 C690 1.395 . S
C689 C700 1.451 . S
C690 C689 1.395 . S
C690 C691 1.322 . S
C690 H754 0.930 . S
C691 C690 1.322 . S
C691 C692 1.459 . S
C691 H755 0.929 . S
C692 C691 1.459 . S
C692 C693 1.445 . S
C692 C701 1.395 . S
C693 C671 1.432 . S
C693 C692 1.445 . S
C693 C694 1.370 . S
C694 C693 1.370 . S
C694 C695 1.438 . S
C694 H756 0.930 . S
C695 C681 1.497 . S
C695 C694 1.438 . S
C695 C696 1.360 . S
C696 C695 1.360 . S
C696 C697 1.401 . S
C696 C701 1.446 . S
C697 C696 1.401 . S
C697 C698 1.347 . S
C697 H757 0.929 . S
C698 C697 1.347 . S
C698 C699 1.455 . S
C698 H758 0.930 . S
C699 C686 1.412 . S
C699 C698 1.455 . S
C699 C700 1.331 . S
C700 C689 1.451 . S
C700 C699 1.331 . S
C700 C701 1.497 . S
C701 C692 1.395 . S
C701 C696 1.446 . S
C701 C700 1.497 . S
C702 C703 1.582 . S
C702 H759 0.962 . S
C702 H760 0.959 . S
C702 H761 0.958 . S
C703 C702 1.582 . S
C703 O706 1.458 . S
C703 H732 0.980 . S
O704 C649 1.426 . S
O704 C650 1.334 . S
O705 C677 1.412 . S
O705 C678 1.393 . S
O706 C668 1.435 . S
O706 C703 1.458 . S
O707 C659 1.468 . S
O707 C660 1.408 . S
H708 C649 0.980 . S
H709 C648 0.959 . S
H710 C648 0.959 . S
H711 C648 0.960 . S
H712 C651 0.929 . S
H713 C655 0.929 . S
H714 C656 0.959 . S
H715 C656 0.961 . S
H716 C656 0.961 . S
H717 C657 0.960 . S
H718 C657 0.960 . S
H719 C657 0.961 . S
H720 C659 0.980 . S
H721 C658 0.961 . S
H722 C658 0.960 . S
H723 C658 0.959 . S
H724 C661 0.930 . S
H725 C665 0.931 . S
H726 C666 0.959 . S
H727 C666 0.961 . S
H728 C666 0.959 . S
H729 C667 0.960 . S
H730 C667 0.960 . S
H731 C667 0.960 . S
H732 C703 0.980 . S
H733 C669 0.930 . S
H734 C673 0.930 . S
H735 C674 0.961 . S
H736 C674 0.960 . S
H737 C674 0.958 . S
H738 C675 0.961 . S
H739 C675 0.960 . S
H740 C675 0.960 . S
H741 C677 0.980 . S
H742 C676 0.961 . S
H743 C676 0.961 . S
H744 C676 0.959 . S
H745 C679 0.932 . S
H746 C683 0.929 . S
H747 C684 0.961 . S
H748 C684 0.959 . S
H749 C684 0.959 . S
H750 C685 0.960 . S
H751 C685 0.962 . S
H752 C685 0.961 . S
H753 C687 0.929 . S
H754 C690 0.930 . S
H755 C691 0.929 . S
H756 C694 0.930 . S
H757 C697 0.929 . S
H758 C698 0.930 . S
H759 C702 0.962 . S
H760 C702 0.959 . S
H761 C702 0.958 . S
C762 C763 1.560 . S
C762 H823 0.959 . S
C762 H824 0.959 . S
C762 H825 0.960 . S
C763 C762 1.560 . S
C763 O818 1.426 . S
C763 H822 0.980 . S
C764 C765 1.407 . S
C764 C769 1.418 . S
C764 O818 1.334 . S
C765 C764 1.407 . S
C765 C766 1.360 . S
C765 H826 0.929 . S
C766 C765 1.360 . S
C766 C767 1.401 . S
C766 C770 1.527 . S
C767 C766 1.401 . S
C767 C768 1.405 . S
C767 C800 1.587 . S
C768 C767 1.405 . S
C768 C769 1.332 . S
C768 C771 1.496 . S
C769 C764 1.418 . S
C769 C768 1.332 . S
C769 H827 0.929 . S
C770 C766 1.527 . S
C770 H828 0.959 . S
C770 H829 0.961 . S
C770 H830 0.961 . S
C771 C768 1.496 . S
C771 H831 0.960 . S
C771 H832 0.960 . S
C771 H833 0.961 . S
C772 C773 1.517 . S
C772 H835 0.961 . S
C772 H836 0.960 . S
C772 H837 0.959 . S
C773 C772 1.517 . S
C773 O821 1.468 . S
C773 H834 0.980 . S
C774 C775 1.349 . S
C774 C779 1.367 . S
C774 O821 1.408 . S
C775 C774 1.349 . S
C775 C776 1.407 . S
C775 H838 0.930 . S
C776 C775 1.407 . S
C776 C777 1.449 . S
C776 C780 1.535 . S
C777 C776 1.449 . S
C777 C778 1.384 . S
C777 C802 1.553 . S
C778 C777 1.384 . S
C778 C779 1.364 . S
C778 C781 1.450 . S
C779 C774 1.367 . S
C779 C778 1.364 . S
C779 H839 0.931 . S
C780 C776 1.535 . S
C780 H840 0.959 . S
C780 H841 0.961 . S
C780 H842 0.959 . S
C781 C778 1.450 . S
C781 H843 0.960 . S
C781 H844 0.960 . S
C781 H845 0.960 . S
C782 C783 1.309 . S
C782 C787 1.304 . S
C782 O820 1.435 . S
C783 C782 1.309 . S
C783 C784 1.476 . S
C783 H847 0.930 . S
C784 C783 1.476 . S
C784 C785 1.400 . S
C784 C788 1.567 . S
C785 C784 1.400 . S
C785 C786 1.373 . S
C785 C807 1.432 . S
C786 C785 1.373 . S
C786 C787 1.339 . S
C786 C789 1.530 . S
C787 C782 1.304 . S
C787 C786 1.339 . S
C787 H848 0.930 . S
C788 C784 1.567 . S
C788 H849 0.961 . S
C788 H850 0.960 . S
C788 H851 0.958 . S
C789 C786 1.530 . S
C789 H852 0.961 . S
C789 H853 0.960 . S
C789 H854 0.960 . S
C790 C791 1.530 . S
C790 H856 0.961 . S
C790 H857 0.961 . S
C790 H858 0.959 . S
C791 C790 1.530 . S
C791 O819 1.412 . S
C791 H855 0.980 . S
C792 C793 1.288 . S
C792 C797 1.377 . S
C792 O819 1.393 . S
C793 C792 1.288 . S
C793 C794 1.369 . S
C793 H859 0.932 . S
C794 C793 1.369 . S
C794 C795 1.398 . S
C794 C798 1.527 . S
C795 C794 1.398 . S
C795 C796 1.380 . S
C795 C809 1.497 . S
C796 C795 1.380 . S
C796 C797 1.383 . S
C796 C799 1.603 . S
C797 C792 1.377 . S
C797 C796 1.383 . S
C797 H860 0.929 . S
C798 C794 1.527 . S
C798 H861 0.961 . S
C798 H862 0.959 . S
C798 H863 0.959 . S
C799 C796 1.603 . S
C799 H864 0.960 . S
C799 H865 0.962 . S
C799 H866 0.961 . S
C800 C767 1.587 . S
C800 C801 1.360 . S
C800 C813 1.412 . S
C801 C800 1.360 . S
C801 C802 1.365 . S
C801 H867 0.929 . S
C802 C777 1.553 . S
C802 C801 1.365 . S
C802 C803 1.404 . S
C803 C802 1.404 . S
C803 C804 1.395 . S
C803 C814 1.451 . S
C804 C803 1.395 . S
C804 C805 1.322 . S
C804 H868 0.930 . S
C805 C804 1.322 . S
C805 C806 1.459 . S
C805 H869 0.929 . S
C806 C805 1.459 . S
C806 C807 1.445 . S
C806 C815 1.395 . S
C807 C785 1.432 . S
C807 C806 1.445 . S
C807 C808 1.370 . S
C808 C807 1.370 . S
C808 C809 1.438 . S
C808 H870 0.930 . S
C809 C795 1.497 . S
C809 C808 1.438 . S
C809 C810 1.360 . S
C810 C809 1.360 . S
C810 C811 1.401 . S
C810 C815 1.446 . S
C811 C810 1.401 . S
C811 C812 1.347 . S
C811 H871 0.929 . S
C812 C811 1.347 . S
C812 C813 1.455 . S
C812 H872 0.930 . S
C813 C800 1.412 . S
C813 C812 1.455 . S
C813 C814 1.331 . S
C814 C803 1.451 . S
C814 C813 1.331 . S
C814 C815 1.497 . S
C815 C806 1.395 . S
C815 C810 1.446 . S
C815 C814 1.497 . S
C816 C817 1.582 . S
C816 H873 0.962 . S
C816 H874 0.959 . S
C816 H875 0.958 . S
C817 C816 1.582 . S
C817 O820 1.458 . S
C817 H846 0.980 . S
O818 C763 1.426 . S
O818 C764 1.334 . S
O819 C791 1.412 . S
O819 C792 1.393 . S
O820 C782 1.435 . S
O820 C817 1.458 . S
O821 C773 1.468 . S
O821 C774 1.408 . S
H822 C763 0.980 . S
H823 C762 0.959 . S
H824 C762 0.959 . S
H825 C762 0.960 . S
H826 C765 0.929 . S
H827 C769 0.929 . S
H828 C770 0.959 . S
H829 C770 0.961 . S
H830 C770 0.961 . S
H831 C771 0.960 . S
H832 C771 0.960 . S
H833 C771 0.961 . S
H834 C773 0.980 . S
H835 C772 0.961 . S
H836 C772 0.960 . S
H837 C772 0.959 . S
H838 C775 0.930 . S
H839 C779 0.931 . S
H840 C780 0.959 . S
H841 C780 0.961 . S
H842 C780 0.959 . S
H843 C781 0.960 . S
H844 C781 0.960 . S
H845 C781 0.960 . S
H846 C817 0.980 . S
H847 C783 0.930 . S
H848 C787 0.930 . S
H849 C788 0.961 . S
H850 C788 0.960 . S
H851 C788 0.958 . S
H852 C789 0.961 . S
H853 C789 0.960 . S
H854 C789 0.960 . S
H855 C791 0.980 . S
H856 C790 0.961 . S
H857 C790 0.961 . S
H858 C790 0.959 . S
H859 C793 0.932 . S
H860 C797 0.929 . S
H861 C798 0.961 . S
H862 C798 0.959 . S
H863 C798 0.959 . S
H864 C799 0.960 . S
H865 C799 0.962 . S
H866 C799 0.961 . S
H867 C801 0.929 . S
H868 C804 0.930 . S
H869 C805 0.929 . S
H870 C808 0.930 . S
H871 C811 0.929 . S
H872 C812 0.930 . S
H873 C816 0.962 . S
H874 C816 0.959 . S
H875 C816 0.958 . S
C876 C877 1.560 . S
C876 H937 0.959 . S
C876 H938 0.959 . S
C876 H939 0.960 . S
C877 C876 1.560 . S
C877 O932 1.426 . S
C877 H936 0.980 . S
C878 C879 1.407 . S
C878 C883 1.418 . S
C878 O932 1.334 . S
C879 C878 1.407 . S
C879 C880 1.360 . S
C879 H940 0.929 . S
C880 C879 1.360 . S
C880 C881 1.401 . S
C880 C884 1.527 . S
C881 C880 1.401 . S
C881 C882 1.405 . S
C881 C914 1.587 . S
C882 C881 1.405 . S
C882 C883 1.332 . S
C882 C885 1.496 . S
C883 C878 1.418 . S
C883 C882 1.332 . S
C883 H941 0.929 . S
C884 C880 1.527 . S
C884 H942 0.959 . S
C884 H943 0.961 . S
C884 H944 0.961 . S
C885 C882 1.496 . S
C885 H945 0.960 . S
C885 H946 0.960 . S
C885 H947 0.961 . S
C886 C887 1.517 . S
C886 H949 0.961 . S
C886 H950 0.960 . S
C886 H951 0.959 . S
C887 C886 1.517 . S
C887 O935 1.468 . S
C887 H948 0.980 . S
C888 C889 1.349 . S
C888 C893 1.367 . S
C888 O935 1.408 . S
C889 C888 1.349 . S
C889 C890 1.407 . S
C889 H952 0.930 . S
C890 C889 1.407 . S
C890 C891 1.449 . S
C890 C894 1.535 . S
C891 C890 1.449 . S
C891 C892 1.384 . S
C891 C916 1.553 . S
C892 C891 1.384 . S
C892 C893 1.364 . S
C892 C895 1.450 . S
C893 C888 1.367 . S
C893 C892 1.364 . S
C893 H953 0.931 . S
C894 C890 1.535 . S
C894 H954 0.959 . S
C894 H955 0.961 . S
C894 H956 0.959 . S
C895 C892 1.450 . S
C895 H957 0.960 . S
C895 H958 0.960 . S
C895 H959 0.960 . S
C896 C897 1.309 . S
C896 C901 1.304 . S
C896 O934 1.435 . S
C897 C896 1.309 . S
C897 C898 1.476 . S
C897 H961 0.930 . S
C898 C897 1.476 . S
C898 C899 1.400 . S
C898 C902 1.567 . S
C899 C898 1.400 . S
C899 C900 1.373 . S
C899 C921 1.432 . S
C900 C899 1.373 . S
C900 C901 1.339 . S
C900 C903 1.530 . S
C901 C896 1.304 . S
C901 C900 1.339 . S
C901 H962 0.930 . S
C902 C898 1.567 . S
C902 H963 0.961 . S
C902 H964 0.960 . S
C902 H965 0.958 . S
C903 C900 1.530 . S
C903 H966 0.961 . S
C903 H967 0.960 . S
C903 H968 0.960 . S
C904 C905 1.530 . S
C904 H970 0.961 . S
C904 H971 0.961 . S
C904 H972 0.959 . S
C905 C904 1.530 . S
C905 O933 1.412 . S
C905 H969 0.980 . S
C906 C907 1.288 . S
C906 C911 1.377 . S
C906 O933 1.393 . S
C907 C906 1.288 . S
C907 C908 1.369 . S
C907 H973 0.932 . S
C908 C907 1.369 . S
C908 C909 1.398 . S
C908 C912 1.527 . S
C909 C908 1.398 . S
C909 C910 1.380 . S
C909 C923 1.497 . S
C910 C909 1.380 . S
C910 C911 1.383 . S
C910 C913 1.603 . S
C911 C906 1.377 . S
C911 C910 1.383 . S
C911 H974 0.929 . S
C912 C908 1.527 . S
C912 H975 0.961 . S
C912 H976 0.959 . S
C912 H977 0.959 . S
C913 C910 1.603 . S
C913 H978 0.960 . S
C913 H979 0.962 . S
C913 H980 0.961 . S
C914 C881 1.587 . S
C914 C915 1.360 . S
C914 C927 1.412 . S
C915 C914 1.360 . S
C915 C916 1.365 . S
C915 H981 0.929 . S
C916 C891 1.553 . S
C916 C915 1.365 . S
C916 C917 1.404 . S
C917 C916 1.404 . S
C917 C918 1.395 . S
C917 C928 1.451 . S
C918 C917 1.395 . S
C918 C919 1.322 . S
C918 H982 0.930 . S
C919 C918 1.322 . S
C919 C920 1.459 . S
C919 H983 0.929 . S
C920 C919 1.459 . S
C920 C921 1.445 . S
C920 C929 1.395 . S
C921 C899 1.432 . S
C921 C920 1.445 . S
C921 C922 1.370 . S
C922 C921 1.370 . S
C922 C923 1.438 . S
C922 H984 0.930 . S
C923 C909 1.497 . S
C923 C922 1.438 . S
C923 C924 1.360 . S
C924 C923 1.360 . S
C924 C925 1.401 . S
C924 C929 1.446 . S
C925 C924 1.401 . S
C925 C926 1.347 . S
C925 H985 0.929 . S
C926 C925 1.347 . S
C926 C927 1.455 . S
C926 H986 0.930 . S
C927 C914 1.412 . S
C927 C926 1.455 . S
C927 C928 1.331 . S
C928 C917 1.451 . S
C928 C927 1.331 . S
C928 C929 1.497 . S
C929 C920 1.395 . S
C929 C924 1.446 . S
C929 C928 1.497 . S
C930 C931 1.582 . S
C930 H987 0.962 . S
C930 H988 0.959 . S
C930 H989 0.958 . S
C931 C930 1.582 . S
C931 O934 1.458 . S
C931 H960 0.980 . S
O932 C877 1.426 . S
O932 C878 1.334 . S
O933 C905 1.412 . S
O933 C906 1.393 . S
O934 C896 1.435 . S
O934 C931 1.458 . S
O935 C887 1.468 . S
O935 C888 1.408 . S
H936 C877 0.980 . S
H937 C876 0.959 . S
H938 C876 0.959 . S
H939 C876 0.960 . S
H940 C879 0.929 . S
H941 C883 0.929 . S
H942 C884 0.959 . S
H943 C884 0.961 . S
H944 C884 0.961 . S
H945 C885 0.960 . S
H946 C885 0.960 . S
H947 C885 0.961 . S
H948 C887 0.980 . S
H949 C886 0.961 . S
H950 C886 0.960 . S
H951 C886 0.959 . S
H952 C889 0.930 . S
H953 C893 0.931 . S
H954 C894 0.959 . S
H955 C894 0.961 . S
H956 C894 0.959 . S
H957 C895 0.960 . S
H958 C895 0.960 . S
H959 C895 0.960 . S
H960 C931 0.980 . S
H961 C897 0.930 . S
H962 C901 0.930 . S
H963 C902 0.961 . S
H964 C902 0.960 . S
H965 C902 0.958 . S
H966 C903 0.961 . S
H967 C903 0.960 . S
H968 C903 0.960 . S
H969 C905 0.980 . S
H970 C904 0.961 . S
H971 C904 0.961 . S
H972 C904 0.959 . S
H973 C907 0.932 . S
H974 C911 0.929 . S
H975 C912 0.961 . S
H976 C912 0.959 . S
H977 C912 0.959 . S
H978 C913 0.960 . S
H979 C913 0.962 . S
H980 C913 0.961 . S
H981 C915 0.929 . S
H982 C918 0.930 . S
H983 C919 0.929 . S
H984 C922 0.930 . S
H985 C925 0.929 . S
H986 C926 0.930 . S
H987 C930 0.962 . S
H988 C930 0.959 . S
H989 C930 0.958 . S
C990 C991 1.560 . S
C990 H1051 0.959 . S
C990 H1052 0.959 . S
C990 H1053 0.960 . S
C991 C990 1.560 . S
C991 O1046 1.426 . S
C991 H1050 0.980 . S
C992 C993 1.407 . S
C992 C997 1.418 . S
C992 O1046 1.334 . S
C993 C992 1.407 . S
C993 C994 1.360 . S
C993 H1054 0.929 . S
C994 C993 1.360 . S
C994 C995 1.401 . S
C994 C998 1.527 . S
C995 C994 1.401 . S
C995 C996 1.405 . S
C995 C1028 1.587 . S
C996 C995 1.405 . S
C996 C997 1.332 . S
C996 C999 1.496 . S
C997 C992 1.418 . S
C997 C996 1.332 . S
C997 H1055 0.929 . S
C998 C994 1.527 . S
C998 H1056 0.959 . S
C998 H1057 0.961 . S
C998 H1058 0.961 . S
C999 C996 1.496 . S
C999 H1059 0.960 . S
C999 H1060 0.960 . S
C999 H1061 0.961 . S
C1000 C1001 1.517 . S
C1000 H1063 0.961 . S
C1000 H1064 0.960 . S
C1000 H1065 0.959 . S
C1001 C1000 1.517 . S
C1001 O1049 1.468 . S
C1001 H1062 0.980 . S
C1002 C1003 1.349 . S
C1002 C1007 1.367 . S
C1002 O1049 1.408 . S
C1003 C1002 1.349 . S
C1003 C1004 1.407 . S
C1003 H1066 0.930 . S
C1004 C1003 1.407 . S
C1004 C1005 1.449 . S
C1004 C1008 1.535 . S
C1005 C1004 1.449 . S
C1005 C1006 1.384 . S
C1005 C1030 1.553 . S
C1006 C1005 1.384 . S
C1006 C1007 1.364 . S
C1006 C1009 1.450 . S
C1007 C1002 1.367 . S
C1007 C1006 1.364 . S
C1007 H1067 0.931 . S
C1008 C1004 1.535 . S
C1008 H1068 0.959 . S
C1008 H1069 0.961 . S
C1008 H1070 0.959 . S
C1009 C1006 1.450 . S
C1009 H1071 0.960 . S
C1009 H1072 0.960 . S
C1009 H1073 0.960 . S
C1010 C1011 1.309 . S
C1010 C1015 1.304 . S
C1010 O1048 1.435 . S
C1011 C1010 1.309 . S
C1011 C1012 1.476 . S
C1011 H1075 0.930 . S
C1012 C1011 1.476 . S
C1012 C1013 1.400 . S
C1012 C1016 1.567 . S
C1013 C1012 1.400 . S
C1013 C1014 1.373 . S
C1013 C1035 1.432 . S
C1014 C1013 1.373 . S
C1014 C1015 1.339 . S
C1014 C1017 1.530 . S
C1015 C1010 1.304 . S
C1015 C1014 1.339 . S
C1015 H1076 0.930 . S
C1016 C1012 1.567 . S
C1016 H1077 0.961 . S
C1016 H1078 0.960 . S
C1016 H1079 0.958 . S
C1017 C1014 1.530 . S
C1017 H1080 0.961 . S
C1017 H1081 0.960 . S
C1017 H1082 0.960 . S
C1018 C1019 1.530 . S
C1018 H1084 0.961 . S
C1018 H1085 0.961 . S
C1018 H1086 0.959 . S
C1019 C1018 1.530 . S
C1019 O1047 1.412 . S
C1019 H1083 0.980 . S
C1020 C1021 1.288 . S
C1020 C1025 1.377 . S
C1020 O1047 1.393 . S
C1021 C1020 1.288 . S
C1021 C1022 1.369 . S
C1021 H1087 0.932 . S
C1022 C1021 1.369 . S
C1022 C1023 1.398 . S
C1022 C1026 1.527 . S
C1023 C1022 1.398 . S
C1023 C1024 1.380 . S
C1023 C1037 1.497 . S
C1024 C1023 1.380 . S
C1024 C1025 1.383 . S
C1024 C1027 1.603 . S
C1025 C1020 1.377 . S
C1025 C1024 1.383 . S
C1025 H1088 0.929 . S
C1026 C1022 1.527 . S
C1026 H1089 0.961 . S
C1026 H1090 0.959 . S
C1026 H1091 0.959 . S
C1027 C1024 1.603 . S
C1027 H1092 0.960 . S
C1027 H1093 0.962 . S
C1027 H1094 0.961 . S
C1028 C995 1.587 . S
C1028 C1029 1.360 . S
C1028 C1041 1.412 . S
C1029 C1028 1.360 . S
C1029 C1030 1.365 . S
C1029 H1095 0.929 . S
C1030 C1005 1.553 . S
C1030 C1029 1.365 . S
C1030 C1031 1.404 . S
C1031 C1030 1.404 . S
C1031 C1032 1.395 . S
C1031 C1042 1.451 . S
C1032 C1031 1.395 . S
C1032 C1033 1.322 . S
C1032 H1096 0.930 . S
C1033 C1032 1.322 . S
C1033 C1034 1.459 . S
C1033 H1097 0.929 . S
C1034 C1033 1.459 . S
C1034 C1035 1.445 . S
C1034 C1043 1.395 . S
C1035 C1013 1.432 . S
C1035 C1034 1.445 . S
C1035 C1036 1.370 . S
C1036 C1035 1.370 . S
C1036 C1037 1.438 . S
C1036 H1098 0.930 . S
C1037 C1023 1.497 . S
C1037 C1036 1.438 . S
C1037 C1038 1.360 . S
C1038 C1037 1.360 . S
C1038 C1039 1.401 . S
C1038 C1043 1.446 . S
C1039 C1038 1.401 . S
C1039 C1040 1.347 . S
C1039 H1099 0.929 . S
C1040 C1039 1.347 . S
C1040 C1041 1.455 . S
C1040 H1100 0.930 . S
C1041 C1028 1.412 . S
C1041 C1040 1.455 . S
C1041 C1042 1.331 . S
C1042 C1031 1.451 . S
C1042 C1041 1.331 . S
C1042 C1043 1.497 . S
C1043 C1034 1.395 . S
C1043 C1038 1.446 . S
C1043 C1042 1.497 . S
C1044 C1045 1.582 . S
C1044 H1101 0.962 . S
C1044 H1102 0.959 . S
C1044 H1103 0.958 . S
C1045 C1044 1.582 . S
C1045 O1048 1.458 . S
C1045 H1074 0.980 . S
O1046 C991 1.426 . S
O1046 C992 1.334 . S
O1047 C1019 1.412 . S
O1047 C1020 1.393 . S
O1048 C1010 1.435 . S
O1048 C1045 1.458 . S
O1049 C1001 1.468 . S
O1049 C1002 1.408 . S
H1050 C991 0.980 . S
H1051 C990 0.959 . S
H1052 C990 0.959 . S
H1053 C990 0.960 . S
H1054 C993 0.929 . S
H1055 C997 0.929 . S
H1056 C998 0.959 . S
H1057 C998 0.961 . S
H1058 C998 0.961 . S
H1059 C999 0.960 . S
H1060 C999 0.960 . S
H1061 C999 0.961 . S
H1062 C1001 0.980 . S
H1063 C1000 0.961 . S
H1064 C1000 0.960 . S
H1065 C1000 0.959 . S
H1066 C1003 0.930 . S
H1067 C1007 0.931 . S
H1068 C1008 0.959 . S
H1069 C1008 0.961 . S
H1070 C1008 0.959 . S
H1071 C1009 0.960 . S
H1072 C1009 0.960 . S
H1073 C1009 0.960 . S
H1074 C1045 0.980 . S
H1075 C1011 0.930 . S
H1076 C1015 0.930 . S
H1077 C1016 0.961 . S
H1078 C1016 0.960 . S
H1079 C1016 0.958 . S
H1080 C1017 0.961 . S
H1081 C1017 0.960 . S
H1082 C1017 0.960 . S
H1083 C1019 0.980 . S
H1084 C1018 0.961 . S
H1085 C1018 0.961 . S
H1086 C1018 0.959 . S
H1087 C1021 0.932 . S
H1088 C1025 0.929 . S
H1089 C1026 0.961 . S
H1090 C1026 0.959 . S
H1091 C1026 0.959 . S
H1092 C1027 0.960 . S
H1093 C1027 0.962 . S
H1094 C1027 0.961 . S
H1095 C1029 0.929 . S
H1096 C1032 0.930 . S
H1097 C1033 0.929 . S
H1098 C1036 0.930 . S
H1099 C1039 0.929 . S
H1100 C1040 0.930 . S
H1101 C1044 0.962 . S
H1102 C1044 0.959 . S
H1103 C1044 0.958 . S
C1104 C1105 1.560 . S
C1104 H1165 0.959 . S
C1104 H1166 0.959 . S
C1104 H1167 0.960 . S
C1105 C1104 1.560 . S
C1105 O1160 1.426 . S
C1105 H1164 0.980 . S
C1106 C1107 1.407 . S
C1106 C1111 1.418 . S
C1106 O1160 1.334 . S
C1107 C1106 1.407 . S
C1107 C1108 1.360 . S
C1107 H1168 0.929 . S
C1108 C1107 1.360 . S
C1108 C1109 1.401 . S
C1108 C1112 1.527 . S
C1109 C1108 1.401 . S
C1109 C1110 1.405 . S
C1109 C1142 1.587 . S
C1110 C1109 1.405 . S
C1110 C1111 1.332 . S
C1110 C1113 1.496 . S
C1111 C1106 1.418 . S
C1111 C1110 1.332 . S
C1111 H1169 0.929 . S
C1112 C1108 1.527 . S
C1112 H1170 0.959 . S
C1112 H1171 0.961 . S
C1112 H1172 0.961 . S
C1113 C1110 1.496 . S
C1113 H1173 0.960 . S
C1113 H1174 0.960 . S
C1113 H1175 0.961 . S
C1114 C1115 1.517 . S
C1114 H1177 0.961 . S
C1114 H1178 0.960 . S
C1114 H1179 0.959 . S
C1115 C1114 1.517 . S
C1115 O1163 1.468 . S
C1115 H1176 0.980 . S
C1116 C1117 1.349 . S
C1116 C1121 1.367 . S
C1116 O1163 1.408 . S
C1117 C1116 1.349 . S
C1117 C1118 1.407 . S
C1117 H1180 0.930 . S
C1118 C1117 1.407 . S
C1118 C1119 1.449 . S
C1118 C1122 1.535 . S
C1119 C1118 1.449 . S
C1119 C1120 1.384 . S
C1119 C1144 1.553 . S
C1120 C1119 1.384 . S
C1120 C1121 1.364 . S
C1120 C1123 1.450 . S
C1121 C1116 1.367 . S
C1121 C1120 1.364 . S
C1121 H1181 0.931 . S
C1122 C1118 1.535 . S
C1122 H1182 0.959 . S
C1122 H1183 0.961 . S
C1122 H1184 0.959 . S
C1123 C1120 1.450 . S
C1123 H1185 0.960 . S
C1123 H1186 0.960 . S
C1123 H1187 0.960 . S
C1124 C1125 1.309 . S
C1124 C1129 1.304 . S
C1124 O1162 1.435 . S
C1125 C1124 1.309 . S
C1125 C1126 1.476 . S
C1125 H1189 0.930 . S
C1126 C1125 1.476 . S
C1126 C1127 1.400 . S
C1126 C1130 1.567 . S
C1127 C1126 1.400 . S
C1127 C1128 1.373 . S
C1127 C1149 1.432 . S
C1128 C1127 1.373 . S
C1128 C1129 1.339 . S
C1128 C1131 1.530 . S
C1129 C1124 1.304 . S
C1129 C1128 1.339 . S
C1129 H1190 0.930 . S
C1130 C1126 1.567 . S
C1130 H1191 0.961 . S
C1130 H1192 0.960 . S
C1130 H1193 0.958 . S
C1131 C1128 1.530 . S
C1131 H1194 0.961 . S
C1131 H1195 0.960 . S
C1131 H1196 0.960 . S
C1132 C1133 1.530 . S
C1132 H1198 0.961 . S
C1132 H1199 0.961 . S
C1132 H1200 0.959 . S
C1133 C1132 1.530 . S
C1133 O1161 1.412 . S
C1133 H1197 0.980 . S
C1134 C1135 1.288 . S
C1134 C1139 1.377 . S
C1134 O1161 1.393 . S
C1135 C1134 1.288 . S
C1135 C1136 1.369 . S
C1135 H1201 0.932 . S
C1136 C1135 1.369 . S
C1136 C1137 1.398 . S
C1136 C1140 1.527 . S
C1137 C1136 1.398 . S
C1137 C1138 1.380 . S
C1137 C1151 1.497 . S
C1138 C1137 1.380 . S
C1138 C1139 1.383 . S
C1138 C1141 1.603 . S
C1139 C1134 1.377 . S
C1139 C1138 1.383 . S
C1139 H1202 0.929 . S
C1140 C1136 1.527 . S
C1140 H1203 0.961 . S
C1140 H1204 0.959 . S
C1140 H1205 0.959 . S
C1141 C1138 1.603 . S
C1141 H1206 0.960 . S
C1141 H1207 0.962 . S
C1141 H1208 0.961 . S
C1142 C1109 1.587 . S
C1142 C1143 1.360 . S
C1142 C1155 1.412 . S
C1143 C1142 1.360 . S
C1143 C1144 1.365 . S
C1143 H1209 0.929 . S
C1144 C1119 1.553 . S
C1144 C1143 1.365 . S
C1144 C1145 1.404 . S
C1145 C1144 1.404 . S
C1145 C1146 1.395 . S
C1145 C1156 1.451 . S
C1146 C1145 1.395 . S
C1146 C1147 1.322 . S
C1146 H1210 0.930 . S
C1147 C1146 1.322 . S
C1147 C1148 1.459 . S
C1147 H1211 0.929 . S
C1148 C1147 1.459 . S
C1148 C1149 1.445 . S
C1148 C1157 1.395 . S
C1149 C1127 1.432 . S
C1149 C1148 1.445 . S
C1149 C1150 1.370 . S
C1150 C1149 1.370 . S
C1150 C1151 1.438 . S
C1150 H1212 0.930 . S
C1151 C1137 1.497 . S
C1151 C1150 1.438 . S
C1151 C1152 1.360 . S
C1152 C1151 1.360 . S
C1152 C1153 1.401 . S
C1152 C1157 1.446 . S
C1153 C1152 1.401 . S
C1153 C1154 1.347 . S
C1153 H1213 0.929 . S
C1154 C1153 1.347 . S
C1154 C1155 1.455 . S
C1154 H1214 0.930 . S
C1155 C1142 1.412 . S
C1155 C1154 1.455 . S
C1155 C1156 1.331 . S
C1156 C1145 1.451 . S
C1156 C1155 1.331 . S
C1156 C1157 1.497 . S
C1157 C1148 1.395 . S
C1157 C1152 1.446 . S
C1157 C1156 1.497 . S
C1158 C1159 1.582 . S
C1158 H1215 0.962 . S
C1158 H1216 0.959 . S
C1158 H1217 0.958 . S
C1159 C1158 1.582 . S
C1159 O1162 1.458 . S
C1159 H1188 0.980 . S
O1160 C1105 1.426 . S
O1160 C1106 1.334 . S
O1161 C1133 1.412 . S
O1161 C1134 1.393 . S
O1162 C1124 1.435 . S
O1162 C1159 1.458 . S
O1163 C1115 1.468 . S
O1163 C1116 1.408 . S
H1164 C1105 0.980 . S
H1165 C1104 0.959 . S
H1166 C1104 0.959 . S
H1167 C1104 0.960 . S
H1168 C1107 0.929 . S
H1169 C1111 0.929 . S
H1170 C1112 0.959 . S
H1171 C1112 0.961 . S
H1172 C1112 0.961 . S
H1173 C1113 0.960 . S
H1174 C1113 0.960 . S
H1175 C1113 0.961 . S
H1176 C1115 0.980 . S
H1177 C1114 0.961 . S
H1178 C1114 0.960 . S
H1179 C1114 0.959 . S
H1180 C1117 0.930 . S
H1181 C1121 0.931 . S
H1182 C1122 0.959 . S
H1183 C1122 0.961 . S
H1184 C1122 0.959 . S
H1185 C1123 0.960 . S
H1186 C1123 0.960 . S
H1187 C1123 0.960 . S
H1188 C1159 0.980 . S
H1189 C1125 0.930 . S
H1190 C1129 0.930 . S
H1191 C1130 0.961 . S
H1192 C1130 0.960 . S
H1193 C1130 0.958 . S
H1194 C1131 0.961 . S
H1195 C1131 0.960 . S
H1196 C1131 0.960 . S
H1197 C1133 0.980 . S
H1198 C1132 0.961 . S
H1199 C1132 0.961 . S
H1200 C1132 0.959 . S
H1201 C1135 0.932 . S
H1202 C1139 0.929 . S
H1203 C1140 0.961 . S
H1204 C1140 0.959 . S
H1205 C1140 0.959 . S
H1206 C1141 0.960 . S
H1207 C1141 0.962 . S
H1208 C1141 0.961 . S
H1209 C1143 0.929 . S
H1210 C1146 0.930 . S
H1211 C1147 0.929 . S
H1212 C1150 0.930 . S
H1213 C1153 0.929 . S
H1214 C1154 0.930 . S
H1215 C1158 0.962 . S
H1216 C1158 0.959 . S
H1217 C1158 0.958 . S
C1218 C1219 1.560 . S
C1218 H1279 0.959 . S
C1218 H1280 0.959 . S
C1218 H1281 0.960 . S
C1219 C1218 1.560 . S
C1219 O1274 1.426 . S
C1219 H1278 0.980 . S
C1220 C1221 1.407 . S
C1220 C1225 1.418 . S
C1220 O1274 1.334 . S
C1221 C1220 1.407 . S
C1221 C1222 1.360 . S
C1221 H1282 0.929 . S
C1222 C1221 1.360 . S
C1222 C1223 1.401 . S
C1222 C1226 1.527 . S
C1223 C1222 1.401 . S
C1223 C1224 1.405 . S
C1223 C1256 1.587 . S
C1224 C1223 1.405 . S
C1224 C1225 1.332 . S
C1224 C1227 1.496 . S
C1225 C1220 1.418 . S
C1225 C1224 1.332 . S
C1225 H1283 0.929 . S
C1226 C1222 1.527 . S
C1226 H1284 0.959 . S
C1226 H1285 0.961 . S
C1226 H1286 0.961 . S
C1227 C1224 1.496 . S
C1227 H1287 0.960 . S
C1227 H1288 0.960 . S
C1227 H1289 0.961 . S
C1228 C1229 1.517 . S
C1228 H1291 0.961 . S
C1228 H1292 0.960 . S
C1228 H1293 0.959 . S
C1229 C1228 1.517 . S
C1229 O1277 1.468 . S
C1229 H1290 0.980 . S
C1230 C1231 1.349 . S
C1230 C1235 1.367 . S
C1230 O1277 1.408 . S
C1231 C1230 1.349 . S
C1231 C1232 1.407 . S
C1231 H1294 0.930 . S
C1232 C1231 1.407 . S
C1232 C1233 1.449 . S
C1232 C1236 1.535 . S
C1233 C1232 1.449 . S
C1233 C1234 1.384 . S
C1233 C1258 1.553 . S
C1234 C1233 1.384 . S
C1234 C1235 1.364 . S
C1234 C1237 1.450 . S
C1235 C1230 1.367 . S
C1235 C1234 1.364 . S
C1235 H1295 0.931 . S
C1236 C1232 1.535 . S
C1236 H1296 0.959 . S
C1236 H1297 0.961 . S
C1236 H1298 0.959 . S
C1237 C1234 1.450 . S
C1237 H1299 0.960 . S
C1237 H1300 0.960 . S
C1237 H1301 0.960 . S
C1238 C1239 1.309 . S
C1238 C1243 1.304 . S
C1238 O1276 1.435 . S
C1239 C1238 1.309 . S
C1239 C1240 1.476 . S
C1239 H1303 0.930 . S
C1240 C1239 1.476 . S
C1240 C1241 1.400 . S
C1240 C1244 1.567 . S
C1241 C1240 1.400 . S
C1241 C1242 1.373 . S
C1241 C1263 1.432 . S
C1242 C1241 1.373 . S
C1242 C1243 1.339 . S
C1242 C1245 1.530 . S
C1243 C1238 1.304 . S
C1243 C1242 1.339 . S
C1243 H1304 0.930 . S
C1244 C1240 1.567 . S
C1244 H1305 0.961 . S
C1244 H1306 0.960 . S
C1244 H1307 0.958 . S
C1245 C1242 1.530 . S
C1245 H1308 0.961 . S
C1245 H1309 0.960 . S
C1245 H1310 0.960 . S
C1246 C1247 1.530 . S
C1246 H1312 0.961 . S
C1246 H1313 0.961 . S
C1246 H1314 0.959 . S
C1247 C1246 1.530 . S
C1247 O1275 1.412 . S
C1247 H1311 0.980 . S
C1248 C1249 1.288 . S
C1248 C1253 1.377 . S
C1248 O1275 1.393 . S
C1249 C1248 1.288 . S
C1249 C1250 1.369 . S
C1249 H1315 0.932 . S
C1250 C1249 1.369 . S
C1250 C1251 1.398 . S
C1250 C1254 1.527 . S
C1251 C1250 1.398 . S
C1251 C1252 1.380 . S
C1251 C1265 1.497 . S
C1252 C1251 1.380 . S
C1252 C1253 1.383 . S
C1252 C1255 1.603 . S
C1253 C1248 1.377 . S
C1253 C1252 1.383 . S
C1253 H1316 0.929 . S
C1254 C1250 1.527 . S
C1254 H1317 0.961 . S
C1254 H1318 0.959 . S
C1254 H1319 0.959 . S
C1255 C1252 1.603 . S
C1255 H1320 0.960 . S
C1255 H1321 0.962 . S
C1255 H1322 0.961 . S
C1256 C1223 1.587 . S
C1256 C1257 1.360 . S
C1256 C1269 1.412 . S
C1257 C1256 1.360 . S
C1257 C1258 1.365 . S
C1257 H1323 0.929 . S
C1258 C1233 1.553 . S
C1258 C1257 1.365 . S
C1258 C1259 1.404 . S
C1259 C1258 1.404 . S
C1259 C1260 1.395 . S
C1259 C1270 1.451 . S
C1260 C1259 1.395 . S
C1260 C1261 1.322 . S
C1260 H1324 0.930 . S
C1261 C1260 1.322 . S
C1261 C1262 1.459 . S
C1261 H1325 0.929 . S
C1262 C1261 1.459 . S
C1262 C1263 1.445 . S
C1262 C1271 1.395 . S
C1263 C1241 1.432 . S
C1263 C1262 1.445 . S
C1263 C1264 1.370 . S
C1264 C1263 1.370 . S
C1264 C1265 1.438 . S
C1264 H1326 0.930 . S
C1265 C1251 1.497 . S
C1265 C1264 1.438 . S
C1265 C1266 1.360 . S
C1266 C1265 1.360 . S
C1266 C1267 1.401 . S
C1266 C1271 1.446 . S
C1267 C1266 1.401 . S
C1267 C1268 1.347 . S
C1267 H1327 0.929 . S
C1268 C1267 1.347 . S
C1268 C1269 1.455 . S
C1268 H1328 0.930 . S
C1269 C1256 1.412 . S
C1269 C1268 1.455 . S
C1269 C1270 1.331 . S
C1270 C1259 1.451 . S
C1270 C1269 1.331 . S
C1270 C1271 1.497 . S
C1271 C1262 1.395 . S
C1271 C1266 1.446 . S
C1271 C1270 1.497 . S
C1272 C1273 1.582 . S
C1272 H1329 0.962 . S
C1272 H1330 0.959 . S
C1272 H1331 0.958 . S
C1273 C1272 1.582 . S
C1273 O1276 1.458 . S
C1273 H1302 0.980 . S
O1274 C1219 1.426 . S
O1274 C1220 1.334 . S
O1275 C1247 1.412 . S
O1275 C1248 1.393 . S
O1276 C1238 1.435 . S
O1276 C1273 1.458 . S
O1277 C1229 1.468 . S
O1277 C1230 1.408 . S
H1278 C1219 0.980 . S
H1279 C1218 0.959 . S
H1280 C1218 0.959 . S
H1281 C1218 0.960 . S
H1282 C1221 0.929 . S
H1283 C1225 0.929 . S
H1284 C1226 0.959 . S
H1285 C1226 0.961 . S
H1286 C1226 0.961 . S
H1287 C1227 0.960 . S
H1288 C1227 0.960 . S
H1289 C1227 0.961 . S
H1290 C1229 0.980 . S
H1291 C1228 0.961 . S
H1292 C1228 0.960 . S
H1293 C1228 0.959 . S
H1294 C1231 0.930 . S
H1295 C1235 0.931 . S
H1296 C1236 0.959 . S
H1297 C1236 0.961 . S
H1298 C1236 0.959 . S
H1299 C1237 0.960 . S
H1300 C1237 0.960 . S
H1301 C1237 0.960 . S
H1302 C1273 0.980 . S
H1303 C1239 0.930 . S
H1304 C1243 0.930 . S
H1305 C1244 0.961 . S
H1306 C1244 0.960 . S
H1307 C1244 0.958 . S
H1308 C1245 0.961 . S
H1309 C1245 0.960 . S
H1310 C1245 0.960 . S
H1311 C1247 0.980 . S
H1312 C1246 0.961 . S
H1313 C1246 0.961 . S
H1314 C1246 0.959 . S
H1315 C1249 0.932 . S
H1316 C1253 0.929 . S
H1317 C1254 0.961 . S
H1318 C1254 0.959 . S
H1319 C1254 0.959 . S
H1320 C1255 0.960 . S
H1321 C1255 0.962 . S
H1322 C1255 0.961 . S
H1323 C1257 0.929 . S
H1324 C1260 0.930 . S
H1325 C1261 0.929 . S
H1326 C1264 0.930 . S
H1327 C1267 0.929 . S
H1328 C1268 0.930 . S
H1329 C1272 0.962 . S
H1330 C1272 0.959 . S
H1331 C1272 0.958 . S
C1332 C1333 1.560 . S
C1332 H1393 0.959 . S
C1332 H1394 0.959 . S
C1332 H1395 0.960 . S
C1333 C1332 1.560 . S
C1333 O1388 1.426 . S
C1333 H1392 0.980 . S
C1334 C1335 1.407 . S
C1334 C1339 1.418 . S
C1334 O1388 1.334 . S
C1335 C1334 1.407 . S
C1335 C1336 1.360 . S
C1335 H1396 0.929 . S
C1336 C1335 1.360 . S
C1336 C1337 1.401 . S
C1336 C1340 1.527 . S
C1337 C1336 1.401 . S
C1337 C1338 1.405 . S
C1337 C1370 1.587 . S
C1338 C1337 1.405 . S
C1338 C1339 1.332 . S
C1338 C1341 1.496 . S
C1339 C1334 1.418 . S
C1339 C1338 1.332 . S
C1339 H1397 0.929 . S
C1340 C1336 1.527 . S
C1340 H1398 0.959 . S
C1340 H1399 0.961 . S
C1340 H1400 0.961 . S
C1341 C1338 1.496 . S
C1341 H1401 0.960 . S
C1341 H1402 0.960 . S
C1341 H1403 0.961 . S
C1342 C1343 1.517 . S
C1342 H1405 0.961 . S
C1342 H1406 0.960 . S
C1342 H1407 0.959 . S
C1343 C1342 1.517 . S
C1343 O1391 1.468 . S
C1343 H1404 0.980 . S
C1344 C1345 1.349 . S
C1344 C1349 1.367 . S
C1344 O1391 1.408 . S
C1345 C1344 1.349 . S
C1345 C1346 1.407 . S
C1345 H1408 0.930 . S
C1346 C1345 1.407 . S
C1346 C1347 1.449 . S
C1346 C1350 1.535 . S
C1347 C1346 1.449 . S
C1347 C1348 1.384 . S
C1347 C1372 1.553 . S
C1348 C1347 1.384 . S
C1348 C1349 1.364 . S
C1348 C1351 1.450 . S
C1349 C1344 1.367 . S
C1349 C1348 1.364 . S
C1349 H1409 0.931 . S
C1350 C1346 1.535 . S
C1350 H1410 0.959 . S
C1350 H1411 0.961 . S
C1350 H1412 0.959 . S
C1351 C1348 1.450 . S
C1351 H1413 0.960 . S
C1351 H1414 0.960 . S
C1351 H1415 0.960 . S
C1352 C1353 1.309 . S
C1352 C1357 1.304 . S
C1352 O1390 1.435 . S
C1353 C1352 1.309 . S
C1353 C1354 1.476 . S
C1353 H1417 0.930 . S
C1354 C1353 1.476 . S
C1354 C1355 1.400 . S
C1354 C1358 1.567 . S
C1355 C1354 1.400 . S
C1355 C1356 1.373 . S
C1355 C1377 1.432 . S
C1356 C1355 1.373 . S
C1356 C1357 1.339 . S
C1356 C1359 1.530 . S
C1357 C1352 1.304 . S
C1357 C1356 1.339 . S
C1357 H1418 0.930 . S
C1358 C1354 1.567 . S
C1358 H1419 0.961 . S
C1358 H1420 0.960 . S
C1358 H1421 0.958 . S
C1359 C1356 1.530 . S
C1359 H1422 0.961 . S
C1359 H1423 0.960 . S
C1359 H1424 0.960 . S
C1360 C1361 1.530 . S
C1360 H1426 0.961 . S
C1360 H1427 0.961 . S
C1360 H1428 0.959 . S
C1361 C1360 1.530 . S
C1361 O1389 1.412 . S
C1361 H1425 0.980 . S
C1362 C1363 1.288 . S
C1362 C1367 1.377 . S
C1362 O1389 1.393 . S
C1363 C1362 1.288 . S
C1363 C1364 1.369 . S
C1363 H1429 0.932 . S
C1364 C1363 1.369 . S
C1364 C1365 1.398 . S
C1364 C1368 1.527 . S
C1365 C1364 1.398 . S
C1365 C1366 1.380 . S
C1365 C1379 1.497 . S
C1366 C1365 1.380 . S
C1366 C1367 1.383 . S
C1366 C1369 1.603 . S
C1367 C1362 1.377 . S
C1367 C1366 1.383 . S
C1367 H1430 0.929 . S
C1368 C1364 1.527 . S
C1368 H1431 0.961 . S
C1368 H1432 0.959 . S
C1368 H1433 0.959 . S
C1369 C1366 1.603 . S
C1369 H1434 0.960 . S
C1369 H1435 0.962 . S
C1369 H1436 0.961 . S
C1370 C1337 1.587 . S
C1370 C1371 1.360 . S
C1370 C1383 1.412 . S
C1371 C1370 1.360 . S
C1371 C1372 1.365 . S
C1371 H1437 0.929 . S
C1372 C1347 1.553 . S
C1372 C1371 1.365 . S
C1372 C1373 1.404 . S
C1373 C1372 1.404 . S
C1373 C1374 1.395 . S
C1373 C1384 1.451 . S
C1374 C1373 1.395 . S
C1374 C1375 1.322 . S
C1374 H1438 0.930 . S
C1375 C1374 1.322 . S
C1375 C1376 1.459 . S
C1375 H1439 0.929 . S
C1376 C1375 1.459 . S
C1376 C1377 1.445 . S
C1376 C1385 1.395 . S
C1377 C1355 1.432 . S
C1377 C1376 1.445 . S
C1377 C1378 1.370 . S
C1378 C1377 1.370 . S
C1378 C1379 1.438 . S
C1378 H1440 0.930 . S
C1379 C1365 1.497 . S
C1379 C1378 1.438 . S
C1379 C1380 1.360 . S
C1380 C1379 1.360 . S
C1380 C1381 1.401 . S
C1380 C1385 1.446 . S
C1381 C1380 1.401 . S
C1381 C1382 1.347 . S
C1381 H1441 0.929 . S
C1382 C1381 1.347 . S
C1382 C1383 1.455 . S
C1382 H1442 0.930 . S
C1383 C1370 1.412 . S
C1383 C1382 1.455 . S
C1383 C1384 1.331 . S
C1384 C1373 1.451 . S
C1384 C1383 1.331 . S
C1384 C1385 1.497 . S
C1385 C1376 1.395 . S
C1385 C1380 1.446 . S
C1385 C1384 1.497 . S
C1386 C1387 1.582 . S
C1386 H1443 0.962 . S
C1386 H1444 0.959 . S
C1386 H1445 0.958 . S
C1387 C1386 1.582 . S
C1387 O1390 1.458 . S
C1387 H1416 0.980 . S
O1388 C1333 1.426 . S
O1388 C1334 1.334 . S
O1389 C1361 1.412 . S
O1389 C1362 1.393 . S
O1390 C1352 1.435 . S
O1390 C1387 1.458 . S
O1391 C1343 1.468 . S
O1391 C1344 1.408 . S
H1392 C1333 0.980 . S
H1393 C1332 0.959 . S
H1394 C1332 0.959 . S
H1395 C1332 0.960 . S
H1396 C1335 0.929 . S
H1397 C1339 0.929 . S
H1398 C1340 0.959 . S
H1399 C1340 0.961 . S
H1400 C1340 0.961 . S
H1401 C1341 0.960 . S
H1402 C1341 0.960 . S
H1403 C1341 0.961 . S
H1404 C1343 0.980 . S
H1405 C1342 0.961 . S
H1406 C1342 0.960 . S
H1407 C1342 0.959 . S
H1408 C1345 0.930 . S
H1409 C1349 0.931 . S
H1410 C1350 0.959 . S
H1411 C1350 0.961 . S
H1412 C1350 0.959 . S
H1413 C1351 0.960 . S
H1414 C1351 0.960 . S
H1415 C1351 0.960 . S
H1416 C1387 0.980 . S
H1417 C1353 0.930 . S
H1418 C1357 0.930 . S
H1419 C1358 0.961 . S
H1420 C1358 0.960 . S
H1421 C1358 0.958 . S
H1422 C1359 0.961 . S
H1423 C1359 0.960 . S
H1424 C1359 0.960 . S
H1425 C1361 0.980 . S
H1426 C1360 0.961 . S
H1427 C1360 0.961 . S
H1428 C1360 0.959 . S
H1429 C1363 0.932 . S
H1430 C1367 0.929 . S
H1431 C1368 0.961 . S
H1432 C1368 0.959 . S
H1433 C1368 0.959 . S
H1434 C1369 0.960 . S
H1435 C1369 0.962 . S
H1436 C1369 0.961 . S
H1437 C1371 0.929 . S
H1438 C1374 0.930 . S
H1439 C1375 0.929 . S
H1440 C1378 0.930 . S
H1441 C1381 0.929 . S
H1442 C1382 0.930 . S
H1443 C1386 0.962 . S
H1444 C1386 0.959 . S
H1445 C1386 0.958 . S
C1446 C1447 1.560 . S
C1446 H1507 0.959 . S
C1446 H1508 0.959 . S
C1446 H1509 0.960 . S
C1447 C1446 1.560 . S
C1447 O1502 1.426 . S
C1447 H1506 0.980 . S
C1448 C1449 1.407 . S
C1448 C1453 1.418 . S
C1448 O1502 1.334 . S
C1449 C1448 1.407 . S
C1449 C1450 1.360 . S
C1449 H1510 0.929 . S
C1450 C1449 1.360 . S
C1450 C1451 1.401 . S
C1450 C1454 1.527 . S
C1451 C1450 1.401 . S
C1451 C1452 1.405 . S
C1451 C1484 1.587 . S
C1452 C1451 1.405 . S
C1452 C1453 1.332 . S
C1452 C1455 1.496 . S
C1453 C1448 1.418 . S
C1453 C1452 1.332 . S
C1453 H1511 0.929 . S
C1454 C1450 1.527 . S
C1454 H1512 0.959 . S
C1454 H1513 0.961 . S
C1454 H1514 0.961 . S
C1455 C1452 1.496 . S
C1455 H1515 0.960 . S
C1455 H1516 0.960 . S
C1455 H1517 0.961 . S
C1456 C1457 1.517 . S
C1456 H1519 0.961 . S
C1456 H1520 0.960 . S
C1456 H1521 0.959 . S
C1457 C1456 1.517 . S
C1457 O1505 1.468 . S
C1457 H1518 0.980 . S
C1458 C1459 1.349 . S
C1458 C1463 1.367 . S
C1458 O1505 1.408 . S
C1459 C1458 1.349 . S
C1459 C1460 1.407 . S
C1459 H1522 0.930 . S
C1460 C1459 1.407 . S
C1460 C1461 1.449 . S
C1460 C1464 1.535 . S
C1461 C1460 1.449 . S
C1461 C1462 1.384 . S
C1461 C1486 1.553 . S
C1462 C1461 1.384 . S
C1462 C1463 1.364 . S
C1462 C1465 1.450 . S
C1463 C1458 1.367 . S
C1463 C1462 1.364 . S
C1463 H1523 0.931 . S
C1464 C1460 1.535 . S
C1464 H1524 0.959 . S
C1464 H1525 0.961 . S
C1464 H1526 0.959 . S
C1465 C1462 1.450 . S
C1465 H1527 0.960 . S
C1465 H1528 0.960 . S
C1465 H1529 0.960 . S
C1466 C1467 1.309 . S
C1466 C1471 1.304 . S
C1466 O1504 1.435 . S
C1467 C1466 1.309 . S
C1467 C1468 1.476 . S
C1467 H1531 0.930 . S
C1468 C1467 1.476 . S
C1468 C1469 1.400 . S
C1468 C1472 1.567 . S
C1469 C1468 1.400 . S
C1469 C1470 1.373 . S
C1469 C1491 1.432 . S
C1470 C1469 1.373 . S
C1470 C1471 1.339 . S
C1470 C1473 1.530 . S
C1471 C1466 1.304 . S
C1471 C1470 1.339 . S
C1471 H1532 0.930 . S
C1472 C1468 1.567 . S
C1472 H1533 0.961 . S
C1472 H1534 0.960 . S
C1472 H1535 0.958 . S
C1473 C1470 1.530 . S
C1473 H1536 0.961 . S
C1473 H1537 0.960 . S
C1473 H1538 0.960 . S
C1474 C1475 1.530 . S
C1474 H1540 0.961 . S
C1474 H1541 0.961 . S
C1474 H1542 0.959 . S
C1475 C1474 1.530 . S
C1475 O1503 1.412 . S
C1475 H1539 0.980 . S
C1476 C1477 1.288 . S
C1476 C1481 1.377 . S
C1476 O1503 1.393 . S
C1477 C1476 1.288 . S
C1477 C1478 1.369 . S
C1477 H1543 0.932 . S
C1478 C1477 1.369 . S
C1478 C1479 1.398 . S
C1478 C1482 1.527 . S
C1479 C1478 1.398 . S
C1479 C1480 1.380 . S
C1479 C1493 1.497 . S
C1480 C1479 1.380 . S
C1480 C1481 1.383 . S
C1480 C1483 1.603 . S
C1481 C1476 1.377 . S
C1481 C1480 1.383 . S
C1481 H1544 0.929 . S
C1482 C1478 1.527 . S
C1482 H1545 0.961 . S
C1482 H1546 0.959 . S
C1482 H1547 0.959 . S
C1483 C1480 1.603 . S
C1483 H1548 0.960 . S
C1483 H1549 0.962 . S
C1483 H1550 0.961 . S
C1484 C1451 1.587 . S
C1484 C1485 1.360 . S
C1484 C1497 1.412 . S
C1485 C1484 1.360 . S
C1485 C1486 1.365 . S
C1485 H1551 0.929 . S
C1486 C1461 1.553 . S
C1486 C1485 1.365 . S
C1486 C1487 1.404 . S
C1487 C1486 1.404 . S
C1487 C1488 1.395 . S
C1487 C1498 1.451 . S
C1488 C1487 1.395 . S
C1488 C1489 1.322 . S
C1488 H1552 0.930 . S
C1489 C1488 1.322 . S
C1489 C1490 1.459 . S
C1489 H1553 0.929 . S
C1490 C1489 1.459 . S
C1490 C1491 1.445 . S
C1490 C1499 1.395 . S
C1491 C1469 1.432 . S
C1491 C1490 1.445 . S
C1491 C1492 1.370 . S
C1492 C1491 1.370 . S
C1492 C1493 1.438 . S
C1492 H1554 0.930 . S
C1493 C1479 1.497 . S
C1493 C1492 1.438 . S
C1493 C1494 1.360 . S
C1494 C1493 1.360 . S
C1494 C1495 1.401 . S
C1494 C1499 1.446 . S
C1495 C1494 1.401 . S
C1495 C1496 1.347 . S
C1495 H1555 0.929 . S
C1496 C1495 1.347 . S
C1496 C1497 1.455 . S
C1496 H1556 0.930 . S
C1497 C1484 1.412 . S
C1497 C1496 1.455 . S
C1497 C1498 1.331 . S
C1498 C1487 1.451 . S
C1498 C1497 1.331 . S
C1498 C1499 1.497 . S
C1499 C1490 1.395 . S
C1499 C1494 1.446 . S
C1499 C1498 1.497 . S
C1500 C1501 1.582 . S
C1500 H1557 0.962 . S
C1500 H1558 0.959 . S
C1500 H1559 0.958 . S
C1501 C1500 1.582 . S
C1501 O1504 1.458 . S
C1501 H1530 0.980 . S
O1502 C1447 1.426 . S
O1502 C1448 1.334 . S
O1503 C1475 1.412 . S
O1503 C1476 1.393 . S
O1504 C1466 1.435 . S
O1504 C1501 1.458 . S
O1505 C1457 1.468 . S
O1505 C1458 1.408 . S
H1506 C1447 0.980 . S
H1507 C1446 0.959 . S
H1508 C1446 0.959 . S
H1509 C1446 0.960 . S
H1510 C1449 0.929 . S
H1511 C1453 0.929 . S
H1512 C1454 0.959 . S
H1513 C1454 0.961 . S
H1514 C1454 0.961 . S
H1515 C1455 0.960 . S
H1516 C1455 0.960 . S
H1517 C1455 0.961 . S
H1518 C1457 0.980 . S
H1519 C1456 0.961 . S
H1520 C1456 0.960 . S
H1521 C1456 0.959 . S
H1522 C1459 0.930 . S
H1523 C1463 0.931 . S
H1524 C1464 0.959 . S
H1525 C1464 0.961 . S
H1526 C1464 0.959 . S
H1527 C1465 0.960 . S
H1528 C1465 0.960 . S
H1529 C1465 0.960 . S
H1530 C1501 0.980 . S
H1531 C1467 0.930 . S
H1532 C1471 0.930 . S
H1533 C1472 0.961 . S
H1534 C1472 0.960 . S
H1535 C1472 0.958 . S
H1536 C1473 0.961 . S
H1537 C1473 0.960 . S
H1538 C1473 0.960 . S
H1539 C1475 0.980 . S
H1540 C1474 0.961 . S
H1541 C1474 0.961 . S
H1542 C1474 0.959 . S
H1543 C1477 0.932 . S
H1544 C1481 0.929 . S
H1545 C1482 0.961 . S
H1546 C1482 0.959 . S
H1547 C1482 0.959 . S
H1548 C1483 0.960 . S
H1549 C1483 0.962 . S
H1550 C1483 0.961 . S
H1551 C1485 0.929 . S
H1552 C1488 0.930 . S
H1553 C1489 0.929 . S
H1554 C1492 0.930 . S
H1555 C1495 0.929 . S
H1556 C1496 0.930 . S
H1557 C1500 0.962 . S
H1558 C1500 0.959 . S
H1559 C1500 0.958 . S
C1560 C1561 1.560 . S
C1560 H1621 0.959 . S
C1560 H1622 0.959 . S
C1560 H1623 0.960 . S
C1561 C1560 1.560 . S
C1561 O1616 1.426 . S
C1561 H1620 0.980 . S
C1562 C1563 1.407 . S
C1562 C1567 1.418 . S
C1562 O1616 1.334 . S
C1563 C1562 1.407 . S
C1563 C1564 1.360 . S
C1563 H1624 0.929 . S
C1564 C1563 1.360 . S
C1564 C1565 1.401 . S
C1564 C1568 1.527 . S
C1565 C1564 1.401 . S
C1565 C1566 1.405 . S
C1565 C1598 1.587 . S
C1566 C1565 1.405 . S
C1566 C1567 1.332 . S
C1566 C1569 1.496 . S
C1567 C1562 1.418 . S
C1567 C1566 1.332 . S
C1567 H1625 0.929 . S
C1568 C1564 1.527 . S
C1568 H1626 0.959 . S
C1568 H1627 0.961 . S
C1568 H1628 0.961 . S
C1569 C1566 1.496 . S
C1569 H1629 0.960 . S
C1569 H1630 0.960 . S
C1569 H1631 0.961 . S
C1570 C1571 1.517 . S
C1570 H1633 0.961 . S
C1570 H1634 0.960 . S
C1570 H1635 0.959 . S
C1571 C1570 1.517 . S
C1571 O1619 1.468 . S
C1571 H1632 0.980 . S
C1572 C1573 1.349 . S
C1572 C1577 1.367 . S
C1572 O1619 1.408 . S
C1573 C1572 1.349 . S
C1573 C1574 1.407 . S
C1573 H1636 0.930 . S
C1574 C1573 1.407 . S
C1574 C1575 1.449 . S
C1574 C1578 1.535 . S
C1575 C1574 1.449 . S
C1575 C1576 1.384 . S
C1575 C1600 1.553 . S
C1576 C1575 1.384 . S
C1576 C1577 1.364 . S
C1576 C1579 1.450 . S
C1577 C1572 1.367 . S
C1577 C1576 1.364 . S
C1577 H1637 0.931 . S
C1578 C1574 1.535 . S
C1578 H1638 0.959 . S
C1578 H1639 0.961 . S
C1578 H1640 0.959 . S
C1579 C1576 1.450 . S
C1579 H1641 0.960 . S
C1579 H1642 0.960 . S
C1579 H1643 0.960 . S
C1580 C1581 1.309 . S
C1580 C1585 1.304 . S
C1580 O1618 1.435 . S
C1581 C1580 1.309 . S
C1581 C1582 1.476 . S
C1581 H1645 0.930 . S
C1582 C1581 1.476 . S
C1582 C1583 1.400 . S
C1582 C1586 1.567 . S
C1583 C1582 1.400 . S
C1583 C1584 1.373 . S
C1583 C1605 1.432 . S
C1584 C1583 1.373 . S
C1584 C1585 1.339 . S
C1584 C1587 1.530 . S
C1585 C1580 1.304 . S
C1585 C1584 1.339 . S
C1585 H1646 0.930 . S
C1586 C1582 1.567 . S
C1586 H1647 0.961 . S
C1586 H1648 0.960 . S
C1586 H1649 0.958 . S
C1587 C1584 1.530 . S
C1587 H1650 0.961 . S
C1587 H1651 0.960 . S
C1587 H1652 0.960 . S
C1588 C1589 1.530 . S
C1588 H1654 0.961 . S
C1588 H1655 0.961 . S
C1588 H1656 0.959 . S
C1589 C1588 1.530 . S
C1589 O1617 1.412 . S
C1589 H1653 0.980 . S
C1590 C1591 1.288 . S
C1590 C1595 1.377 . S
C1590 O1617 1.393 . S
C1591 C1590 1.288 . S
C1591 C1592 1.369 . S
C1591 H1657 0.932 . S
C1592 C1591 1.369 . S
C1592 C1593 1.398 . S
C1592 C1596 1.527 . S
C1593 C1592 1.398 . S
C1593 C1594 1.380 . S
C1593 C1607 1.497 . S
C1594 C1593 1.380 . S
C1594 C1595 1.383 . S
C1594 C1597 1.603 . S
C1595 C1590 1.377 . S
C1595 C1594 1.383 . S
C1595 H1658 0.929 . S
C1596 C1592 1.527 . S
C1596 H1659 0.961 . S
C1596 H1660 0.959 . S
C1596 H1661 0.959 . S
C1597 C1594 1.603 . S
C1597 H1662 0.960 . S
C1597 H1663 0.962 . S
C1597 H1664 0.961 . S
C1598 C1565 1.587 . S
C1598 C1599 1.360 . S
C1598 C1611 1.412 . S
C1599 C1598 1.360 . S
C1599 C1600 1.365 . S
C1599 H1665 0.929 . S
C1600 C1575 1.553 . S
C1600 C1599 1.365 . S
C1600 C1601 1.404 . S
C1601 C1600 1.404 . S
C1601 C1602 1.395 . S
C1601 C1612 1.451 . S
C1602 C1601 1.395 . S
C1602 C1603 1.322 . S
C1602 H1666 0.930 . S
C1603 C1602 1.322 . S
C1603 C1604 1.459 . S
C1603 H1667 0.929 . S
C1604 C1603 1.459 . S
C1604 C1605 1.445 . S
C1604 C1613 1.395 . S
C1605 C1583 1.432 . S
C1605 C1604 1.445 . S
C1605 C1606 1.370 . S
C1606 C1605 1.370 . S
C1606 C1607 1.438 . S
C1606 H1668 0.930 . S
C1607 C1593 1.497 . S
C1607 C1606 1.438 . S
C1607 C1608 1.360 . S
C1608 C1607 1.360 . S
C1608 C1609 1.401 . S
C1608 C1613 1.446 . S
C1609 C1608 1.401 . S
C1609 C1610 1.347 . S
C1609 H1669 0.929 . S
C1610 C1609 1.347 . S
C1610 C1611 1.455 . S
C1610 H1670 0.930 . S
C1611 C1598 1.412 . S
C1611 C1610 1.455 . S
C1611 C1612 1.331 . S
C1612 C1601 1.451 . S
C1612 C1611 1.331 . S
C1612 C1613 1.497 . S
C1613 C1604 1.395 . S
C1613 C1608 1.446 . S
C1613 C1612 1.497 . S
C1614 C1615 1.582 . S
C1614 H1671 0.962 . S
C1614 H1672 0.959 . S
C1614 H1673 0.958 . S
C1615 C1614 1.582 . S
C1615 O1618 1.458 . S
C1615 H1644 0.980 . S
O1616 C1561 1.426 . S
O1616 C1562 1.334 . S
O1617 C1589 1.412 . S
O1617 C1590 1.393 . S
O1618 C1580 1.435 . S
O1618 C1615 1.458 . S
O1619 C1571 1.468 . S
O1619 C1572 1.408 . S
H1620 C1561 0.980 . S
H1621 C1560 0.959 . S
H1622 C1560 0.959 . S
H1623 C1560 0.960 . S
H1624 C1563 0.929 . S
H1625 C1567 0.929 . S
H1626 C1568 0.959 . S
H1627 C1568 0.961 . S
H1628 C1568 0.961 . S
H1629 C1569 0.960 . S
H1630 C1569 0.960 . S
H1631 C1569 0.961 . S
H1632 C1571 0.980 . S
H1633 C1570 0.961 . S
H1634 C1570 0.960 . S
H1635 C1570 0.959 . S
H1636 C1573 0.930 . S
H1637 C1577 0.931 . S
H1638 C1578 0.959 . S
H1639 C1578 0.961 . S
H1640 C1578 0.959 . S
H1641 C1579 0.960 . S
H1642 C1579 0.960 . S
H1643 C1579 0.960 . S
H1644 C1615 0.980 . S
H1645 C1581 0.930 . S
H1646 C1585 0.930 . S
H1647 C1586 0.961 . S
H1648 C1586 0.960 . S
H1649 C1586 0.958 . S
H1650 C1587 0.961 . S
H1651 C1587 0.960 . S
H1652 C1587 0.960 . S
H1653 C1589 0.980 . S
H1654 C1588 0.961 . S
H1655 C1588 0.961 . S
H1656 C1588 0.959 . S
H1657 C1591 0.932 . S
H1658 C1595 0.929 . S
H1659 C1596 0.961 . S
H1660 C1596 0.959 . S
H1661 C1596 0.959 . S
H1662 C1597 0.960 . S
H1663 C1597 0.962 . S
H1664 C1597 0.961 . S
H1665 C1599 0.929 . S
H1666 C1602 0.930 . S
H1667 C1603 0.929 . S
H1668 C1606 0.930 . S
H1669 C1609 0.929 . S
H1670 C1610 0.930 . S
H1671 C1614 0.962 . S
H1672 C1614 0.959 . S
H1673 C1614 0.958 . S
C1674 C1675 1.560 . S
C1674 H1735 0.959 . S
C1674 H1736 0.959 . S
C1674 H1737 0.960 . S
C1675 C1674 1.560 . S
C1675 O1730 1.426 . S
C1675 H1734 0.980 . S
C1676 C1677 1.407 1_455 S
C1676 C1681 1.418 . S
C1676 O1730 1.334 . S
C1677 C1676 1.407 1_655 S
C1677 C1678 1.360 . S
C1677 H1738 0.929 . S
C1678 C1677 1.360 . S
C1678 C1679 1.401 1_655 S
C1678 C1682 1.527 . S
C1679 C1678 1.401 1_455 S
C1679 C1680 1.405 . S
C1679 C1712 1.587 1_455 S
C1680 C1679 1.405 . S
C1680 C1681 1.332 . S
C1680 C1683 1.496 . S
C1681 C1676 1.418 . S
C1681 C1680 1.332 . S
C1681 H1739 0.929 . S
C1682 C1678 1.527 . S
C1682 H1740 0.959 . S
C1682 H1741 0.961 . S
C1682 H1742 0.961 . S
C1683 C1680 1.496 . S
C1683 H1743 0.960 . S
C1683 H1744 0.960 . S
C1683 H1745 0.961 . S
C1684 C1685 1.517 . S
C1684 H1747 0.974 . S
C1684 H1748 0.960 . S
C1684 H1749 0.959 . S
C1685 C1684 1.517 . S
C1685 O1733 1.468 . S
C1685 H1746 0.980 1_655 S
C1686 C1687 1.349 . S
C1686 C1691 1.367 . S
C1686 O1733 1.408 . S
C1687 C1686 1.349 . S
C1687 C1688 1.369 1_655 S
C1687 H1750 0.930 1_655 S
C1688 C1687 1.369 1_455 S
C1688 C1689 1.415 1_455 S
C1688 C1692 1.603 . S
C1689 C1688 1.415 1_655 S
C1689 C1690 1.384 . S
C1689 C1714 1.553 . S
C1690 C1689 1.384 . S
C1690 C1691 1.364 . S
C1690 C1693 1.450 . S
C1691 C1686 1.367 . S
C1691 C1690 1.364 . S
C1691 H1751 0.931 . S
C1692 C1688 1.603 . S
C1692 H1752 0.959 . S
C1692 H1753 0.961 . S
C1692 H1754 0.959 . S
C1693 C1690 1.450 . S
C1693 H1755 0.960 . S
C1693 H1756 0.960 . S
C1693 H1757 0.960 . S
C1694 C1695 1.309 . S
C1694 C1699 1.304 . S
C1694 O1732 1.435 . S
C1695 C1694 1.309 . S
C1695 C1696 1.446 1_655 S
C1695 H1759 0.930 1_655 S
C1696 C1695 1.446 1_455 S
C1696 C1697 1.381 1_455 S
C1696 C1700 1.616 . S
C1697 C1696 1.381 1_655 S
C1697 C1698 1.373 . S
C1697 C1719 1.432 . S
C1698 C1697 1.373 . S
C1698 C1699 1.339 . S
C1698 C1701 1.530 . S
C1699 C1694 1.304 . S
C1699 C1698 1.339 . S
C1699 H1760 0.930 . S
C1700 C1696 1.616 . S
C1700 H1761 0.961 . S
C1700 H1762 0.960 . S
C1700 H1763 0.958 . S
C1701 C1698 1.530 . S
C1701 H1764 0.961 . S
C1701 H1765 0.960 . S
C1701 H1766 0.960 . S
C1702 C1703 1.512 1_455 S
C1702 H1768 0.961 . S
C1702 H1769 0.961 . S
C1702 H1770 0.959 . S
C1703 C1702 1.512 1_655 S
C1703 O1731 1.408 1_655 S
C1703 H1767 0.986 . S
C1704 C1705 1.288 . S
C1704 C1709 1.377 1_455 S
C1704 O1731 1.393 . S
C1705 C1704 1.288 . S
C1705 C1706 1.369 . S
C1705 H1771 0.932 . S
C1706 C1705 1.369 . S
C1706 C1707 1.398 1_455 S
C1706 C1710 1.527 . S
C1707 C1706 1.398 1_655 S
C1707 C1708 1.380 . S
C1707 C1721 1.497 . S
C1708 C1707 1.380 . S
C1708 C1709 1.383 . S
C1708 C1711 1.603 . S
C1709 C1704 1.377 1_655 S
C1709 C1708 1.383 . S
C1709 H1772 0.929 . S
C1710 C1706 1.527 . S
C1710 H1773 0.961 . S
C1710 H1774 0.959 . S
C1710 H1775 0.959 . S
C1711 C1708 1.603 . S
C1711 H1776 0.960 . S
C1711 H1777 0.962 . S
C1711 H1778 0.961 . S
C1712 C1679 1.587 1_655 S
C1712 C1713 1.360 . S
C1712 C1725 1.412 . S
C1713 C1712 1.360 . S
C1713 C1714 1.365 . S
C1713 H1779 0.929 . S
C1714 C1689 1.553 . S
C1714 C1713 1.365 . S
C1714 C1715 1.404 . S
C1715 C1714 1.404 . S
C1715 C1716 1.395 . S
C1715 C1726 1.451 . S
C1716 C1715 1.395 . S
C1716 C1717 1.322 . S
C1716 H1780 0.930 . S
C1717 C1716 1.322 . S
C1717 C1718 1.459 . S
C1717 H1781 0.929 . S
C1718 C1717 1.459 . S
C1718 C1719 1.445 . S
C1718 C1727 1.395 . S
C1719 C1697 1.432 . S
C1719 C1718 1.445 . S
C1719 C1720 1.370 . S
C1720 C1719 1.370 . S
C1720 C1721 1.438 . S
C1720 H1782 0.930 . S
C1721 C1707 1.497 . S
C1721 C1720 1.438 . S
C1721 C1722 1.360 . S
C1722 C1721 1.360 . S
C1722 C1723 1.401 . S
C1722 C1727 1.446 . S
C1723 C1722 1.401 . S
C1723 C1724 1.347 . S
C1723 H1783 0.929 . S
C1724 C1723 1.347 . S
C1724 C1725 1.455 . S
C1724 H1784 0.930 . S
C1725 C1712 1.412 . S
C1725 C1724 1.455 . S
C1725 C1726 1.331 . S
C1726 C1715 1.451 . S
C1726 C1725 1.331 . S
C1726 C1727 1.497 . S
C1727 C1718 1.395 . S
C1727 C1722 1.446 . S
C1727 C1726 1.497 . S
C1728 C1729 1.582 . S
C1728 H1785 0.962 . S
C1728 H1786 0.959 . S
C1728 H1787 0.958 . S
C1729 C1728 1.582 . S
C1729 O1732 1.458 . S
C1729 H1758 0.980 . S
O1730 C1675 1.426 . S
O1730 C1676 1.334 . S
O1731 C1703 1.408 1_455 S
O1731 C1704 1.393 . S
O1732 C1694 1.435 . S
O1732 C1729 1.458 . S
O1733 C1685 1.468 . S
O1733 C1686 1.408 . S
H1734 C1675 0.980 . S
H1735 C1674 0.959 . S
H1736 C1674 0.959 . S
H1737 C1674 0.960 . S
H1738 C1677 0.929 . S
H1739 C1681 0.929 . S
H1740 C1682 0.959 . S
H1741 C1682 0.961 . S
H1742 C1682 0.961 . S
H1743 C1683 0.960 . S
H1744 C1683 0.960 . S
H1745 C1683 0.961 . S
H1746 C1685 0.980 1_455 S
H1747 C1684 0.974 . S
H1748 C1684 0.960 . S
H1749 C1684 0.959 . S
H1750 C1687 0.930 1_455 S
H1751 C1691 0.931 . S
H1752 C1692 0.959 . S
H1753 C1692 0.961 . S
H1754 C1692 0.959 . S
H1755 C1693 0.960 . S
H1756 C1693 0.960 . S
H1757 C1693 0.960 . S
H1758 C1729 0.980 . S
H1759 C1695 0.930 1_455 S
H1760 C1699 0.930 . S
H1761 C1700 0.961 . S
H1762 C1700 0.960 . S
H1763 C1700 0.958 . S
H1764 C1701 0.961 . S
H1765 C1701 0.960 . S
H1766 C1701 0.960 . S
H1767 C1703 0.986 . S
H1768 C1702 0.961 . S
H1769 C1702 0.961 . S
H1770 C1702 0.959 . S
H1771 C1705 0.932 . S
H1772 C1709 0.929 . S
H1773 C1710 0.961 . S
H1774 C1710 0.959 . S
H1775 C1710 0.959 . S
H1776 C1711 0.960 . S
H1777 C1711 0.962 . S
H1778 C1711 0.961 . S
H1779 C1713 0.929 . S
H1780 C1716 0.930 . S
H1781 C1717 0.929 . S
H1782 C1720 0.930 . S
H1783 C1723 0.929 . S
H1784 C1724 0.930 . S
H1785 C1728 0.962 . S
H1786 C1728 0.959 . S
H1787 C1728 0.958 . S
C1788 C1789 1.560 . S
C1788 H1849 0.959 . S
C1788 H1850 0.959 . S
C1788 H1851 0.960 . S
C1789 C1788 1.560 . S
C1789 O1844 1.426 . S
C1789 H1848 0.980 . S
C1790 C1791 1.407 . S
C1790 C1795 1.418 . S
C1790 O1844 1.334 . S
C1791 C1790 1.407 . S
C1791 C1792 1.360 . S
C1791 H1852 0.929 . S
C1792 C1791 1.360 . S
C1792 C1793 1.401 . S
C1792 C1796 1.527 . S
C1793 C1792 1.401 . S
C1793 C1794 1.405 . S
C1793 C1826 1.587 . S
C1794 C1793 1.405 . S
C1794 C1795 1.332 . S
C1794 C1797 1.496 . S
C1795 C1790 1.418 . S
C1795 C1794 1.332 . S
C1795 H1853 0.929 . S
C1796 C1792 1.527 . S
C1796 H1854 0.959 . S
C1796 H1855 0.961 . S
C1796 H1856 0.961 . S
C1797 C1794 1.496 . S
C1797 H1857 0.960 . S
C1797 H1858 0.960 . S
C1797 H1859 0.961 . S
C1798 C1799 1.517 . S
C1798 H1861 0.961 . S
C1798 H1862 0.960 . S
C1798 H1863 0.959 . S
C1799 C1798 1.517 . S
C1799 O1847 1.468 . S
C1799 H1860 0.980 . S
C1800 C1801 1.349 . S
C1800 C1805 1.367 . S
C1800 O1847 1.408 . S
C1801 C1800 1.349 . S
C1801 C1802 1.407 . S
C1801 H1864 0.930 . S
C1802 C1801 1.407 . S
C1802 C1803 1.449 . S
C1802 C1806 1.535 . S
C1803 C1802 1.449 . S
C1803 C1804 1.384 . S
C1803 C1828 1.553 . S
C1804 C1803 1.384 . S
C1804 C1805 1.364 . S
C1804 C1807 1.450 . S
C1805 C1800 1.367 . S
C1805 C1804 1.364 . S
C1805 H1865 0.931 . S
C1806 C1802 1.535 . S
C1806 H1866 0.959 . S
C1806 H1867 0.961 . S
C1806 H1868 0.959 . S
C1807 C1804 1.450 . S
C1807 H1869 0.960 . S
C1807 H1870 0.960 . S
C1807 H1871 0.960 . S
C1808 C1809 1.309 . S
C1808 C1813 1.304 . S
C1808 O1846 1.435 . S
C1809 C1808 1.309 . S
C1809 C1810 1.476 . S
C1809 H1873 0.930 . S
C1810 C1809 1.476 . S
C1810 C1811 1.400 . S
C1810 C1814 1.567 . S
C1811 C1810 1.400 . S
C1811 C1812 1.373 . S
C1811 C1833 1.432 . S
C1812 C1811 1.373 . S
C1812 C1813 1.339 . S
C1812 C1815 1.530 . S
C1813 C1808 1.304 . S
C1813 C1812 1.339 . S
C1813 H1874 0.930 . S
C1814 C1810 1.567 . S
C1814 H1875 0.961 . S
C1814 H1876 0.960 . S
C1814 H1877 0.958 . S
C1815 C1812 1.530 . S
C1815 H1878 0.961 . S
C1815 H1879 0.960 . S
C1815 H1880 0.960 . S
C1816 C1817 1.530 . S
C1816 H1882 0.961 . S
C1816 H1883 0.961 . S
C1816 H1884 0.959 . S
C1817 C1816 1.530 . S
C1817 O1845 1.412 . S
C1817 H1881 0.980 . S
C1818 C1819 1.288 . S
C1818 C1823 1.377 . S
C1818 O1845 1.393 . S
C1819 C1818 1.288 . S
C1819 C1820 1.369 . S
C1819 H1885 0.932 . S
C1820 C1819 1.369 . S
C1820 C1821 1.398 . S
C1820 C1824 1.527 . S
C1821 C1820 1.398 . S
C1821 C1822 1.380 . S
C1821 C1835 1.497 . S
C1822 C1821 1.380 . S
C1822 C1823 1.383 . S
C1822 C1825 1.603 . S
C1823 C1818 1.377 . S
C1823 C1822 1.383 . S
C1823 H1886 0.929 . S
C1824 C1820 1.527 . S
C1824 H1887 0.961 . S
C1824 H1888 0.959 . S
C1824 H1889 0.959 . S
C1825 C1822 1.603 . S
C1825 H1890 0.960 . S
C1825 H1891 0.962 . S
C1825 H1892 0.961 . S
C1826 C1793 1.587 . S
C1826 C1827 1.360 . S
C1826 C1839 1.412 . S
C1827 C1826 1.360 . S
C1827 C1828 1.365 . S
C1827 H1893 0.929 . S
C1828 C1803 1.553 . S
C1828 C1827 1.365 . S
C1828 C1829 1.404 . S
C1829 C1828 1.404 . S
C1829 C1830 1.395 . S
C1829 C1840 1.451 . S
C1830 C1829 1.395 . S
C1830 C1831 1.322 . S
C1830 H1894 0.930 . S
C1831 C1830 1.322 . S
C1831 C1832 1.459 . S
C1831 H1895 0.929 . S
C1832 C1831 1.459 . S
C1832 C1833 1.445 . S
C1832 C1841 1.395 . S
C1833 C1811 1.432 . S
C1833 C1832 1.445 . S
C1833 C1834 1.370 . S
C1834 C1833 1.370 . S
C1834 C1835 1.438 . S
C1834 H1896 0.930 . S
C1835 C1821 1.497 . S
C1835 C1834 1.438 . S
C1835 C1836 1.360 . S
C1836 C1835 1.360 . S
C1836 C1837 1.401 . S
C1836 C1841 1.446 . S
C1837 C1836 1.401 . S
C1837 C1838 1.347 . S
C1837 H1897 0.929 . S
C1838 C1837 1.347 . S
C1838 C1839 1.455 . S
C1838 H1898 0.930 . S
C1839 C1826 1.412 . S
C1839 C1838 1.455 . S
C1839 C1840 1.331 . S
C1840 C1829 1.451 . S
C1840 C1839 1.331 . S
C1840 C1841 1.497 . S
C1841 C1832 1.395 . S
C1841 C1836 1.446 . S
C1841 C1840 1.497 . S
C1842 C1843 1.582 . S
C1842 H1899 0.962 . S
C1842 H1900 0.959 . S
C1842 H1901 0.958 . S
C1843 C1842 1.582 . S
C1843 O1846 1.458 . S
C1843 H1872 0.980 . S
O1844 C1789 1.426 . S
O1844 C1790 1.334 . S
O1845 C1817 1.412 . S
O1845 C1818 1.393 . S
O1846 C1808 1.435 . S
O1846 C1843 1.458 . S
O1847 C1799 1.468 . S
O1847 C1800 1.408 . S
H1848 C1789 0.980 . S
H1849 C1788 0.959 . S
H1850 C1788 0.959 . S
H1851 C1788 0.960 . S
H1852 C1791 0.929 . S
H1853 C1795 0.929 . S
H1854 C1796 0.959 . S
H1855 C1796 0.961 . S
H1856 C1796 0.961 . S
H1857 C1797 0.960 . S
H1858 C1797 0.960 . S
H1859 C1797 0.961 . S
H1860 C1799 0.980 . S
H1861 C1798 0.961 . S
H1862 C1798 0.960 . S
H1863 C1798 0.959 . S
H1864 C1801 0.930 . S
H1865 C1805 0.931 . S
H1866 C1806 0.959 . S
H1867 C1806 0.961 . S
H1868 C1806 0.959 . S
H1869 C1807 0.960 . S
H1870 C1807 0.960 . S
H1871 C1807 0.960 . S
H1872 C1843 0.980 . S
H1873 C1809 0.930 . S
H1874 C1813 0.930 . S
H1875 C1814 0.961 . S
H1876 C1814 0.960 . S
H1877 C1814 0.958 . S
H1878 C1815 0.961 . S
H1879 C1815 0.960 . S
H1880 C1815 0.960 . S
H1881 C1817 0.980 . S
H1882 C1816 0.961 . S
H1883 C1816 0.961 . S
H1884 C1816 0.959 . S
H1885 C1819 0.932 . S
H1886 C1823 0.929 . S
H1887 C1824 0.961 . S
H1888 C1824 0.959 . S
H1889 C1824 0.959 . S
H1890 C1825 0.960 . S
H1891 C1825 0.962 . S
H1892 C1825 0.961 . S
H1893 C1827 0.929 . S
H1894 C1830 0.930 . S
H1895 C1831 0.929 . S
H1896 C1834 0.930 . S
H1897 C1837 0.929 . S
H1898 C1838 0.930 . S
H1899 C1842 0.962 . S
H1900 C1842 0.959 . S
H1901 C1842 0.958 . S
C1902 C1903 1.560 . S
C1902 H1963 0.959 . S
C1902 H1964 0.959 . S
C1902 H1965 0.960 . S
C1903 C1902 1.560 . S
C1903 O1958 1.426 . S
C1903 H1962 0.980 . S
C1904 C1905 1.407 1_565 S
C1904 C1909 1.418 . S
C1904 O1958 1.334 . S
C1905 C1904 1.407 1_545 S
C1905 C1906 1.360 . S
C1905 H1966 0.929 . S
C1906 C1905 1.360 . S
C1906 C1907 1.401 1_545 S
C1906 C1910 1.527 . S
C1907 C1906 1.401 1_565 S
C1907 C1908 1.405 . S
C1907 C1940 1.587 1_565 S
C1908 C1907 1.405 . S
C1908 C1909 1.332 . S
C1908 C1911 1.496 . S
C1909 C1904 1.418 . S
C1909 C1908 1.332 . S
C1909 H1967 0.929 . S
C1910 C1906 1.527 . S
C1910 H1968 0.959 . S
C1910 H1969 0.961 . S
C1910 H1970 0.961 . S
C1911 C1908 1.496 . S
C1911 H1971 0.960 . S
C1911 H1972 0.960 . S
C1911 H1973 0.961 . S
C1912 C1913 1.517 . S
C1912 H1975 0.909 1_545 S
C1912 H1976 0.960 . S
C1912 H1977 0.959 . S
C1913 C1912 1.517 . S
C1913 O1961 1.468 . S
C1913 H1974 0.980 1_545 S
C1914 C1915 1.349 . S
C1914 C1919 1.367 . S
C1914 O1961 1.408 . S
C1915 C1914 1.349 . S
C1915 C1916 1.407 1_545 S
C1915 H1978 0.930 1_545 S
C1916 C1915 1.407 1_565 S
C1916 C1917 1.449 1_565 S
C1916 C1920 1.535 . S
C1917 C1916 1.449 1_545 S
C1917 C1918 1.384 . S
C1917 C1942 1.553 . S
C1918 C1917 1.384 . S
C1918 C1919 1.364 . S
C1918 C1921 1.450 . S
C1919 C1914 1.367 . S
C1919 C1918 1.364 . S
C1919 H1979 0.931 . S
C1920 C1916 1.535 . S
C1920 H1980 0.959 . S
C1920 H1981 0.961 . S
C1920 H1982 0.959 . S
C1921 C1918 1.450 . S
C1921 H1983 0.960 . S
C1921 H1984 0.960 . S
C1921 H1985 0.960 . S
C1922 C1923 1.309 . S
C1922 C1927 1.304 . S
C1922 O1960 1.435 . S
C1923 C1922 1.309 . S
C1923 C1924 1.486 1_545 S
C1923 H1987 0.930 1_545 S
C1924 C1923 1.486 1_565 S
C1924 C1925 1.365 1_565 S
C1924 C1928 1.591 . S
C1925 C1924 1.365 1_545 S
C1925 C1926 1.373 . S
C1925 C1947 1.432 . S
C1926 C1925 1.373 . S
C1926 C1927 1.339 . S
C1926 C1929 1.530 . S
C1927 C1922 1.304 . S
C1927 C1926 1.339 . S
C1927 H1988 0.930 . S
C1928 C1924 1.591 . S
C1928 H1989 0.961 . S
C1928 H1990 0.960 . S
C1928 H1991 0.958 . S
C1929 C1926 1.530 . S
C1929 H1992 0.961 . S
C1929 H1993 0.960 . S
C1929 H1994 0.960 . S
C1930 C1931 1.530 1_565 S
C1930 H1996 0.961 . S
C1930 H1997 0.961 . S
C1930 H1998 0.959 . S
C1931 C1930 1.530 1_545 S
C1931 O1959 1.412 1_545 S
C1931 H1995 0.980 . S
C1932 C1933 1.288 . S
C1932 C1937 1.377 1_565 S
C1932 O1959 1.393 . S
C1933 C1932 1.288 . S
C1933 C1934 1.369 . S
C1933 H1999 0.932 . S
C1934 C1933 1.369 . S
C1934 C1935 1.398 1_565 S
C1934 C1938 1.527 . S
C1935 C1934 1.398 1_545 S
C1935 C1936 1.380 . S
C1935 C1949 1.497 . S
C1936 C1935 1.380 . S
C1936 C1937 1.383 . S
C1936 C1939 1.603 . S
C1937 C1932 1.377 1_545 S
C1937 C1936 1.383 . S
C1937 H2000 0.929 . S
C1938 C1934 1.527 . S
C1938 H2001 0.961 . S
C1938 H2002 0.959 . S
C1938 H2003 0.959 . S
C1939 C1936 1.603 . S
C1939 H2004 0.960 . S
C1939 H2005 0.962 . S
C1939 H2006 0.961 . S
C1940 C1907 1.587 1_545 S
C1940 C1941 1.360 . S
C1940 C1953 1.412 . S
C1941 C1940 1.360 . S
C1941 C1942 1.365 . S
C1941 H2007 0.929 . S
C1942 C1917 1.553 . S
C1942 C1941 1.365 . S
C1942 C1943 1.404 . S
C1943 C1942 1.404 . S
C1943 C1944 1.395 . S
C1943 C1954 1.451 . S
C1944 C1943 1.395 . S
C1944 C1945 1.322 . S
C1944 H2008 0.930 . S
C1945 C1944 1.322 . S
C1945 C1946 1.459 . S
C1945 H2009 0.929 . S
C1946 C1945 1.459 . S
C1946 C1947 1.445 . S
C1946 C1955 1.395 . S
C1947 C1925 1.432 . S
C1947 C1946 1.445 . S
C1947 C1948 1.370 . S
C1948 C1947 1.370 . S
C1948 C1949 1.438 . S
C1948 H2010 0.930 . S
C1949 C1935 1.497 . S
C1949 C1948 1.438 . S
C1949 C1950 1.360 . S
C1950 C1949 1.360 . S
C1950 C1951 1.401 . S
C1950 C1955 1.446 . S
C1951 C1950 1.401 . S
C1951 C1952 1.347 . S
C1951 H2011 0.929 . S
C1952 C1951 1.347 . S
C1952 C1953 1.455 . S
C1952 H2012 0.930 . S
C1953 C1940 1.412 . S
C1953 C1952 1.455 . S
C1953 C1954 1.331 . S
C1954 C1943 1.451 . S
C1954 C1953 1.331 . S
C1954 C1955 1.497 . S
C1955 C1946 1.395 . S
C1955 C1950 1.446 . S
C1955 C1954 1.497 . S
C1956 C1957 1.582 . S
C1956 H2013 0.962 . S
C1956 H2014 0.959 . S
C1956 H2015 0.958 . S
C1957 C1956 1.582 . S
C1957 O1960 1.458 . S
C1957 H1986 0.980 . S
O1958 C1903 1.426 . S
O1958 C1904 1.334 . S
O1959 C1931 1.412 1_565 S
O1959 C1932 1.393 . S
O1960 C1922 1.435 . S
O1960 C1957 1.458 . S
O1961 C1913 1.468 . S
O1961 C1914 1.408 . S
H1962 C1903 0.980 . S
H1963 C1902 0.959 . S
H1964 C1902 0.959 . S
H1965 C1902 0.960 . S
H1966 C1905 0.929 . S
H1967 C1909 0.929 . S
H1968 C1910 0.959 . S
H1969 C1910 0.961 . S
H1970 C1910 0.961 . S
H1971 C1911 0.960 . S
H1972 C1911 0.960 . S
H1973 C1911 0.961 . S
H1974 C1913 0.980 1_565 S
H1975 C1912 0.909 1_565 S
H1976 C1912 0.960 . S
H1977 C1912 0.959 . S
H1978 C1915 0.930 1_565 S
H1979 C1919 0.931 . S
H1980 C1920 0.959 . S
H1981 C1920 0.961 . S
H1982 C1920 0.959 . S
H1983 C1921 0.960 . S
H1984 C1921 0.960 . S
H1985 C1921 0.960 . S
H1986 C1957 0.980 . S
H1987 C1923 0.930 1_565 S
H1988 C1927 0.930 . S
H1989 C1928 0.961 . S
H1990 C1928 0.960 . S
H1991 C1928 0.958 . S
H1992 C1929 0.961 . S
H1993 C1929 0.960 . S
H1994 C1929 0.960 . S
H1995 C1931 0.980 . S
H1996 C1930 0.961 . S
H1997 C1930 0.961 . S
H1998 C1930 0.959 . S
H1999 C1933 0.932 . S
H2000 C1937 0.929 . S
H2001 C1938 0.961 . S
H2002 C1938 0.959 . S
H2003 C1938 0.959 . S
H2004 C1939 0.960 . S
H2005 C1939 0.962 . S
H2006 C1939 0.961 . S
H2007 C1941 0.929 . S
H2008 C1944 0.930 . S
H2009 C1945 0.929 . S
H2010 C1948 0.930 . S
H2011 C1951 0.929 . S
H2012 C1952 0.930 . S
H2013 C1956 0.962 . S
H2014 C1956 0.959 . S
H2015 C1956 0.958 . S
C2016 C2017 1.560 . S
C2016 H2077 0.959 . S
C2016 H2078 0.959 . S
C2016 H2079 0.960 . S
C2017 C2016 1.560 . S
C2017 O2072 1.426 . S
C2017 H2076 0.980 1_565 S
C2018 C2019 1.407 1_565 S
C2018 C2023 1.418 . S
C2018 O2072 1.334 . S
C2019 C2018 1.407 1_545 S
C2019 C2020 1.360 . S
C2019 H2080 0.929 . S
C2020 C2019 1.360 . S
C2020 C2021 1.401 . S
C2020 C2024 1.527 . S
C2021 C2020 1.401 . S
C2021 C2022 1.405 1_545 S
C2021 C2054 1.587 . S
C2022 C2021 1.405 1_565 S
C2022 C2023 1.332 . S
C2022 C2025 1.496 . S
C2023 C2018 1.418 . S
C2023 C2022 1.332 . S
C2023 H2081 0.929 . S
C2024 C2020 1.527 . S
C2024 H2082 0.959 . S
C2024 H2083 0.961 . S
C2024 H2084 0.961 . S
C2025 C2022 1.496 . S
C2025 H2085 0.960 . S
C2025 H2086 0.960 . S
C2025 H2087 0.961 . S
C2026 C2027 1.517 . S
C2026 H2089 0.961 . S
C2026 H2090 0.960 . S
C2026 H2091 0.959 . S
C2027 C2026 1.517 . S
C2027 O2075 1.468 . S
C2027 H2088 0.980 . S
C2028 C2029 1.349 . S
C2028 C2033 1.367 . S
C2028 O2075 1.408 . S
C2029 C2028 1.349 . S
C2029 C2030 1.407 . S
C2029 H2092 0.919 1_545 S
C2030 C2029 1.407 . S
C2030 C2031 1.449 . S
C2030 C2034 1.535 1_545 S
C2031 C2030 1.449 . S
C2031 C2032 1.384 . S
C2031 C2056 1.553 . S
C2032 C2031 1.384 . S
C2032 C2033 1.364 . S
C2032 C2035 1.450 . S
C2033 C2028 1.367 . S
C2033 C2032 1.364 . S
C2033 H2093 0.931 . S
C2034 C2030 1.535 1_565 S
C2034 H2094 0.959 . S
C2034 H2095 0.961 . S
C2034 H2096 0.959 . S
C2035 C2032 1.450 . S
C2035 H2097 0.960 . S
C2035 H2098 0.960 . S
C2035 H2099 0.960 . S
C2036 C2037 1.309 1_545 S
C2036 C2041 1.304 . S
C2036 O2074 1.435 . S
C2037 C2036 1.309 1_565 S
C2037 C2038 1.476 . S
C2037 H2101 0.930 . S
C2038 C2037 1.476 . S
C2038 C2039 1.400 1_565 S
C2038 C2042 1.567 . S
C2039 C2038 1.400 1_545 S
C2039 C2040 1.373 . S
C2039 C2061 1.432 . S
C2040 C2039 1.373 . S
C2040 C2041 1.339 . S
C2040 C2043 1.530 . S
C2041 C2036 1.304 . S
C2041 C2040 1.339 . S
C2041 H2102 0.930 . S
C2042 C2038 1.567 . S
C2042 H2103 0.961 . S
C2042 H2104 0.960 . S
C2042 H2105 0.958 . S
C2043 C2040 1.530 . S
C2043 H2106 0.961 . S
C2043 H2107 0.960 . S
C2043 H2108 0.960 . S
C2044 C2045 1.530 . S
C2044 H2110 0.961 . S
C2044 H2111 0.961 . S
C2044 H2112 0.959 . S
C2045 C2044 1.530 . S
C2045 O2073 1.412 . S
C2045 H2109 0.981 . S
C2046 C2047 1.288 . S
C2046 C2051 1.377 1_565 S
C2046 O2073 1.393 . S
C2047 C2046 1.288 . S
C2047 C2048 1.369 . S
C2047 H2113 0.932 . S
C2048 C2047 1.369 . S
C2048 C2049 1.398 . S
C2048 C2052 1.527 . S
C2049 C2048 1.398 . S
C2049 C2050 1.380 1_565 S
C2049 C2063 1.497 1_565 S
C2050 C2049 1.380 1_545 S
C2050 C2051 1.383 . S
C2050 C2053 1.603 . S
C2051 C2046 1.377 1_545 S
C2051 C2050 1.383 . S
C2051 H2114 0.929 . S
C2052 C2048 1.527 . S
C2052 H2115 0.961 . S
C2052 H2116 0.959 . S
C2052 H2117 0.959 . S
C2053 C2050 1.603 . S
C2053 H2118 0.960 . S
C2053 H2119 0.962 . S
C2053 H2120 0.961 . S
C2054 C2021 1.587 . S
C2054 C2055 1.360 . S
C2054 C2067 1.412 . S
C2055 C2054 1.360 . S
C2055 C2056 1.365 . S
C2055 H2121 0.929 . S
C2056 C2031 1.553 . S
C2056 C2055 1.365 . S
C2056 C2057 1.404 . S
C2057 C2056 1.404 . S
C2057 C2058 1.395 . S
C2057 C2068 1.451 . S
C2058 C2057 1.395 . S
C2058 C2059 1.322 . S
C2058 H2122 0.930 . S
C2059 C2058 1.322 . S
C2059 C2060 1.459 . S
C2059 H2123 0.929 . S
C2060 C2059 1.459 . S
C2060 C2061 1.445 . S
C2060 C2069 1.395 . S
C2061 C2039 1.432 . S
C2061 C2060 1.445 . S
C2061 C2062 1.370 . S
C2062 C2061 1.370 . S
C2062 C2063 1.438 . S
C2062 H2124 0.930 . S
C2063 C2049 1.497 1_545 S
C2063 C2062 1.438 . S
C2063 C2064 1.360 . S
C2064 C2063 1.360 . S
C2064 C2065 1.401 . S
C2064 C2069 1.446 . S
C2065 C2064 1.401 . S
C2065 C2066 1.347 . S
C2065 H2125 0.978 . S
C2066 C2065 1.347 . S
C2066 C2067 1.455 . S
C2066 H2126 0.930 . S
C2067 C2054 1.412 . S
C2067 C2066 1.455 . S
C2067 C2068 1.331 . S
C2068 C2057 1.451 . S
C2068 C2067 1.331 . S
C2068 C2069 1.497 . S
C2069 C2060 1.395 . S
C2069 C2064 1.446 . S
C2069 C2068 1.497 . S
C2070 C2071 1.600 . S
C2070 H2127 0.962 . S
C2070 H2128 0.959 . S
C2070 H2129 0.958 . S
C2071 C2070 1.600 . S
C2071 O2074 1.466 . S
C2071 H2100 0.980 1_545 S
O2072 C2017 1.426 . S
O2072 C2018 1.334 . S
O2073 C2045 1.412 . S
O2073 C2046 1.393 . S
O2074 C2036 1.435 . S
O2074 C2071 1.466 . S
O2075 C2027 1.468 . S
O2075 C2028 1.408 . S
H2076 C2017 0.980 1_545 S
H2077 C2016 0.959 . S
H2078 C2016 0.959 . S
H2079 C2016 0.960 . S
H2080 C2019 0.929 . S
H2081 C2023 0.929 . S
H2082 C2024 0.959 . S
H2083 C2024 0.961 . S
H2084 C2024 0.961 . S
H2085 C2025 0.960 . S
H2086 C2025 0.960 . S
H2087 C2025 0.961 . S
H2088 C2027 0.980 . S
H2089 C2026 0.961 . S
H2090 C2026 0.960 . S
H2091 C2026 0.959 . S
H2092 C2029 0.919 1_565 S
H2093 C2033 0.931 . S
H2094 C2034 0.959 . S
H2095 C2034 0.961 . S
H2096 C2034 0.959 . S
H2097 C2035 0.960 . S
H2098 C2035 0.960 . S
H2099 C2035 0.960 . S
H2100 C2071 0.980 1_565 S
H2101 C2037 0.930 . S
H2102 C2041 0.930 . S
H2103 C2042 0.961 . S
H2104 C2042 0.960 . S
H2105 C2042 0.958 . S
H2106 C2043 0.961 . S
H2107 C2043 0.960 . S
H2108 C2043 0.960 . S
H2109 C2045 0.981 . S
H2110 C2044 0.961 . S
H2111 C2044 0.961 . S
H2112 C2044 0.959 . S
H2113 C2047 0.932 . S
H2114 C2051 0.929 . S
H2115 C2052 0.961 . S
H2116 C2052 0.959 . S
H2117 C2052 0.959 . S
H2118 C2053 0.960 . S
H2119 C2053 0.962 . S
H2120 C2053 0.961 . S
H2121 C2055 0.929 . S
H2122 C2058 0.930 . S
H2123 C2059 0.929 . S
H2124 C2062 0.930 . S
H2125 C2065 0.978 . S
H2126 C2066 0.930 . S
H2127 C2070 0.962 . S
H2128 C2070 0.959 . S
H2129 C2070 0.958 . S
C2130 C2131 1.560 . S
C2130 H2191 0.959 . S
C2130 H2192 0.959 . S
C2130 H2193 0.960 . S
C2131 C2130 1.560 . S
C2131 O2186 1.426 . S
C2131 H2190 0.980 1_455 S
C2132 C2133 1.407 1_455 S
C2132 C2137 1.418 . S
C2132 O2186 1.334 . S
C2133 C2132 1.407 1_655 S
C2133 C2134 1.360 . S
C2133 H2194 0.929 . S
C2134 C2133 1.360 . S
C2134 C2135 1.401 . S
C2134 C2138 1.527 . S
C2135 C2134 1.401 . S
C2135 C2136 1.405 1_655 S
C2135 C2168 1.587 . S
C2136 C2135 1.405 1_455 S
C2136 C2137 1.332 . S
C2136 C2139 1.496 . S
C2137 C2132 1.418 . S
C2137 C2136 1.332 . S
C2137 H2195 0.929 . S
C2138 C2134 1.527 . S
C2138 H2196 0.959 . S
C2138 H2197 0.961 . S
C2138 H2198 0.961 . S
C2139 C2136 1.496 . S
C2139 H2199 0.960 . S
C2139 H2200 0.960 . S
C2139 H2201 0.961 . S
C2140 C2141 1.517 . S
C2140 H2203 0.961 . S
C2140 H2204 0.960 . S
C2140 H2205 0.959 . S
C2141 C2140 1.517 . S
C2141 O2189 1.468 . S
C2141 H2202 0.980 . S
C2142 C2143 1.349 . S
C2142 C2147 1.367 . S
C2142 O2189 1.408 . S
C2143 C2142 1.349 . S
C2143 C2144 1.407 . S
C2143 H2206 0.967 . S
C2144 C2143 1.407 . S
C2144 C2145 1.449 . S
C2144 C2148 1.535 1_655 S
C2145 C2144 1.449 . S
C2145 C2146 1.384 . S
C2145 C2170 1.553 . S
C2146 C2145 1.384 . S
C2146 C2147 1.364 . S
C2146 C2149 1.450 . S
C2147 C2142 1.367 . S
C2147 C2146 1.364 . S
C2147 H2207 0.931 . S
C2148 C2144 1.535 1_455 S
C2148 H2208 0.959 . S
C2148 H2209 0.961 . S
C2148 H2210 0.959 . S
C2149 C2146 1.450 . S
C2149 H2211 0.960 . S
C2149 H2212 0.960 . S
C2149 H2213 0.960 . S
C2150 C2151 1.309 1_655 S
C2150 C2155 1.304 . S
C2150 O2188 1.435 . S
C2151 C2150 1.309 1_455 S
C2151 C2152 1.476 . S
C2151 H2215 0.930 . S
C2152 C2151 1.476 . S
C2152 C2153 1.400 1_455 S
C2152 C2156 1.567 . S
C2153 C2152 1.400 1_655 S
C2153 C2154 1.373 . S
C2153 C2175 1.432 . S
C2154 C2153 1.373 . S
C2154 C2155 1.339 . S
C2154 C2157 1.530 . S
C2155 C2150 1.304 . S
C2155 C2154 1.339 . S
C2155 H2216 0.930 . S
C2156 C2152 1.567 . S
C2156 H2217 0.961 . S
C2156 H2218 0.960 . S
C2156 H2219 0.958 . S
C2157 C2154 1.530 . S
C2157 H2220 0.961 . S
C2157 H2221 0.960 . S
C2157 H2222 0.960 . S
C2158 C2159 1.530 . S
C2158 H2224 0.961 . S
C2158 H2225 0.961 . S
C2158 H2226 0.959 . S
C2159 C2158 1.530 . S
C2159 O2187 1.412 . S
C2159 H2223 0.980 . S
C2160 C2161 1.288 . S
C2160 C2165 1.377 1_455 S
C2160 O2187 1.393 . S
C2161 C2160 1.288 . S
C2161 C2162 1.369 . S
C2161 H2227 0.932 . S
C2162 C2161 1.369 . S
C2162 C2163 1.398 . S
C2162 C2166 1.527 . S
C2163 C2162 1.398 . S
C2163 C2164 1.380 1_455 S
C2163 C2177 1.497 1_455 S
C2164 C2163 1.380 1_655 S
C2164 C2165 1.383 . S
C2164 C2167 1.603 . S
C2165 C2160 1.377 1_655 S
C2165 C2164 1.383 . S
C2165 H2228 0.929 . S
C2166 C2162 1.527 . S
C2166 H2229 0.961 . S
C2166 H2230 0.959 . S
C2166 H2231 0.959 . S
C2167 C2164 1.603 . S
C2167 H2232 0.960 . S
C2167 H2233 0.962 . S
C2167 H2234 0.961 . S
C2168 C2135 1.587 . S
C2168 C2169 1.360 . S
C2168 C2181 1.412 . S
C2169 C2168 1.360 . S
C2169 C2170 1.365 . S
C2169 H2235 0.929 . S
C2170 C2145 1.553 . S
C2170 C2169 1.365 . S
C2170 C2171 1.404 . S
C2171 C2170 1.404 . S
C2171 C2172 1.395 . S
C2171 C2182 1.451 . S
C2172 C2171 1.395 . S
C2172 C2173 1.322 . S
C2172 H2236 0.930 . S
C2173 C2172 1.322 . S
C2173 C2174 1.459 . S
C2173 H2237 0.929 . S
C2174 C2173 1.459 . S
C2174 C2175 1.445 . S
C2174 C2183 1.395 . S
C2175 C2153 1.432 . S
C2175 C2174 1.445 . S
C2175 C2176 1.370 . S
C2176 C2175 1.370 . S
C2176 C2177 1.438 . S
C2176 H2238 0.930 . S
C2177 C2163 1.497 1_655 S
C2177 C2176 1.438 . S
C2177 C2178 1.360 . S
C2178 C2177 1.360 . S
C2178 C2179 1.401 . S
C2178 C2183 1.446 . S
C2179 C2178 1.401 . S
C2179 C2180 1.347 . S
C2179 H2239 0.916 . S
C2180 C2179 1.347 . S
C2180 C2181 1.455 . S
C2180 H2240 0.930 . S
C2181 C2168 1.412 . S
C2181 C2180 1.455 . S
C2181 C2182 1.331 . S
C2182 C2171 1.451 . S
C2182 C2181 1.331 . S
C2182 C2183 1.497 . S
C2183 C2174 1.395 . S
C2183 C2178 1.446 . S
C2183 C2182 1.497 . S
C2184 C2185 1.581 1_655 S
C2184 H2241 0.979 . S
C2184 H2242 0.959 . S
C2184 H2243 0.958 . S
C2185 C2184 1.581 1_455 S
C2185 O2188 1.423 1_455 S
C2185 H2214 0.994 . S
O2186 C2131 1.426 . S
O2186 C2132 1.334 . S
O2187 C2159 1.412 . S
O2187 C2160 1.393 . S
O2188 C2150 1.435 . S
O2188 C2185 1.423 1_655 S
O2189 C2141 1.468 . S
O2189 C2142 1.408 . S
H2190 C2131 0.980 1_655 S
H2191 C2130 0.959 . S
H2192 C2130 0.959 . S
H2193 C2130 0.960 . S
H2194 C2133 0.929 . S
H2195 C2137 0.929 . S
H2196 C2138 0.959 . S
H2197 C2138 0.961 . S
H2198 C2138 0.961 . S
H2199 C2139 0.960 . S
H2200 C2139 0.960 . S
H2201 C2139 0.961 . S
H2202 C2141 0.980 . S
H2203 C2140 0.961 . S
H2204 C2140 0.960 . S
H2205 C2140 0.959 . S
H2206 C2143 0.967 . S
H2207 C2147 0.931 . S
H2208 C2148 0.959 . S
H2209 C2148 0.961 . S
H2210 C2148 0.959 . S
H2211 C2149 0.960 . S
H2212 C2149 0.960 . S
H2213 C2149 0.960 . S
H2214 C2185 0.994 . S
H2215 C2151 0.930 . S
H2216 C2155 0.930 . S
H2217 C2156 0.961 . S
H2218 C2156 0.960 . S
H2219 C2156 0.958 . S
H2220 C2157 0.961 . S
H2221 C2157 0.960 . S
H2222 C2157 0.960 . S
H2223 C2159 0.980 . S
H2224 C2158 0.961 . S
H2225 C2158 0.961 . S
H2226 C2158 0.959 . S
H2227 C2161 0.932 . S
H2228 C2165 0.929 . S
H2229 C2166 0.961 . S
H2230 C2166 0.959 . S
H2231 C2166 0.959 . S
H2232 C2167 0.960 . S
H2233 C2167 0.962 . S
H2234 C2167 0.961 . S
H2235 C2169 0.929 . S
H2236 C2172 0.930 . S
H2237 C2173 0.929 . S
H2238 C2176 0.930 . S
H2239 C2179 0.916 . S
H2240 C2180 0.930 . S
H2241 C2184 0.979 . S
H2242 C2184 0.959 . S
H2243 C2184 0.958 . S
C2244 C2245 1.560 . S
C2244 H2305 0.959 . S
C2244 H2306 0.959 . S
C2244 H2307 0.960 . S
C2245 C2244 1.560 . S
C2245 O2300 1.426 . S
C2245 H2304 0.980 . S
C2246 C2247 1.407 . S
C2246 C2251 1.418 . S
C2246 O2300 1.334 . S
C2247 C2246 1.407 . S
C2247 C2248 1.360 . S
C2247 H2308 0.929 . S
C2248 C2247 1.360 . S
C2248 C2249 1.401 . S
C2248 C2252 1.527 . S
C2249 C2248 1.401 . S
C2249 C2250 1.405 . S
C2249 C2282 1.587 . S
C2250 C2249 1.405 . S
C2250 C2251 1.332 . S
C2250 C2253 1.496 . S
C2251 C2246 1.418 . S
C2251 C2250 1.332 . S
C2251 H2309 0.929 . S
C2252 C2248 1.527 . S
C2252 H2310 0.959 . S
C2252 H2311 0.961 . S
C2252 H2312 0.961 . S
C2253 C2250 1.496 . S
C2253 H2313 0.960 . S
C2253 H2314 0.960 . S
C2253 H2315 0.961 . S
C2254 C2255 1.517 . S
C2254 H2317 0.961 . S
C2254 H2318 0.960 . S
C2254 H2319 0.959 . S
C2255 C2254 1.517 . S
C2255 O2303 1.468 . S
C2255 H2316 0.980 . S
C2256 C2257 1.349 . S
C2256 C2261 1.367 . S
C2256 O2303 1.408 . S
C2257 C2256 1.349 . S
C2257 C2258 1.407 . S
C2257 H2320 0.930 . S
C2258 C2257 1.407 . S
C2258 C2259 1.449 . S
C2258 C2262 1.535 . S
C2259 C2258 1.449 . S
C2259 C2260 1.384 . S
C2259 C2284 1.553 . S
C2260 C2259 1.384 . S
C2260 C2261 1.364 . S
C2260 C2263 1.450 . S
C2261 C2256 1.367 . S
C2261 C2260 1.364 . S
C2261 H2321 0.931 . S
C2262 C2258 1.535 . S
C2262 H2322 0.959 . S
C2262 H2323 0.961 . S
C2262 H2324 0.959 . S
C2263 C2260 1.450 . S
C2263 H2325 0.960 . S
C2263 H2326 0.960 . S
C2263 H2327 0.960 . S
C2264 C2265 1.309 . S
C2264 C2269 1.304 . S
C2264 O2302 1.435 . S
C2265 C2264 1.309 . S
C2265 C2266 1.476 . S
C2265 H2329 0.930 . S
C2266 C2265 1.476 . S
C2266 C2267 1.400 . S
C2266 C2270 1.567 . S
C2267 C2266 1.400 . S
C2267 C2268 1.373 . S
C2267 C2289 1.432 . S
C2268 C2267 1.373 . S
C2268 C2269 1.339 . S
C2268 C2271 1.530 . S
C2269 C2264 1.304 . S
C2269 C2268 1.339 . S
C2269 H2330 0.930 . S
C2270 C2266 1.567 . S
C2270 H2331 0.961 . S
C2270 H2332 0.960 . S
C2270 H2333 0.958 . S
C2271 C2268 1.530 . S
C2271 H2334 0.961 . S
C2271 H2335 0.960 . S
C2271 H2336 0.960 . S
C2272 C2273 1.530 . S
C2272 H2338 0.961 . S
C2272 H2339 0.961 . S
C2272 H2340 0.959 . S
C2273 C2272 1.530 . S
C2273 O2301 1.412 . S
C2273 H2337 0.980 . S
C2274 C2275 1.288 . S
C2274 C2279 1.377 . S
C2274 O2301 1.393 . S
C2275 C2274 1.288 . S
C2275 C2276 1.369 . S
C2275 H2341 0.932 . S
C2276 C2275 1.369 . S
C2276 C2277 1.398 . S
C2276 C2280 1.527 . S
C2277 C2276 1.398 . S
C2277 C2278 1.380 . S
C2277 C2291 1.497 . S
C2278 C2277 1.380 . S
C2278 C2279 1.383 . S
C2278 C2281 1.603 . S
C2279 C2274 1.377 . S
C2279 C2278 1.383 . S
C2279 H2342 0.929 . S
C2280 C2276 1.527 . S
C2280 H2343 0.961 . S
C2280 H2344 0.959 . S
C2280 H2345 0.959 . S
C2281 C2278 1.603 . S
C2281 H2346 0.960 . S
C2281 H2347 0.962 . S
C2281 H2348 0.961 . S
C2282 C2249 1.587 . S
C2282 C2283 1.360 . S
C2282 C2295 1.412 . S
C2283 C2282 1.360 . S
C2283 C2284 1.365 . S
C2283 H2349 0.929 . S
C2284 C2259 1.553 . S
C2284 C2283 1.365 . S
C2284 C2285 1.404 . S
C2285 C2284 1.404 . S
C2285 C2286 1.395 . S
C2285 C2296 1.451 . S
C2286 C2285 1.395 . S
C2286 C2287 1.322 . S
C2286 H2350 0.930 . S
C2287 C2286 1.322 . S
C2287 C2288 1.459 . S
C2287 H2351 0.929 . S
C2288 C2287 1.459 . S
C2288 C2289 1.445 . S
C2288 C2297 1.395 . S
C2289 C2267 1.432 . S
C2289 C2288 1.445 . S
C2289 C2290 1.370 . S
C2290 C2289 1.370 . S
C2290 C2291 1.438 . S
C2290 H2352 0.930 . S
C2291 C2277 1.497 . S
C2291 C2290 1.438 . S
C2291 C2292 1.360 . S
C2292 C2291 1.360 . S
C2292 C2293 1.401 . S
C2292 C2297 1.446 . S
C2293 C2292 1.401 . S
C2293 C2294 1.347 . S
C2293 H2353 0.929 . S
C2294 C2293 1.347 . S
C2294 C2295 1.455 . S
C2294 H2354 0.930 . S
C2295 C2282 1.412 . S
C2295 C2294 1.455 . S
C2295 C2296 1.331 . S
C2296 C2285 1.451 . S
C2296 C2295 1.331 . S
C2296 C2297 1.497 . S
C2297 C2288 1.395 . S
C2297 C2292 1.446 . S
C2297 C2296 1.497 . S
C2298 C2299 1.582 . S
C2298 H2355 0.962 . S
C2298 H2356 0.959 . S
C2298 H2357 0.958 . S
C2299 C2298 1.582 . S
C2299 O2302 1.458 . S
C2299 H2328 0.980 . S
O2300 C2245 1.426 . S
O2300 C2246 1.334 . S
O2301 C2273 1.412 . S
O2301 C2274 1.393 . S
O2302 C2264 1.435 . S
O2302 C2299 1.458 . S
O2303 C2255 1.468 . S
O2303 C2256 1.408 . S
H2304 C2245 0.980 . S
H2305 C2244 0.959 . S
H2306 C2244 0.959 . S
H2307 C2244 0.960 . S
H2308 C2247 0.929 . S
H2309 C2251 0.929 . S
H2310 C2252 0.959 . S
H2311 C2252 0.961 . S
H2312 C2252 0.961 . S
H2313 C2253 0.960 . S
H2314 C2253 0.960 . S
H2315 C2253 0.961 . S
H2316 C2255 0.980 . S
H2317 C2254 0.961 . S
H2318 C2254 0.960 . S
H2319 C2254 0.959 . S
H2320 C2257 0.930 . S
H2321 C2261 0.931 . S
H2322 C2262 0.959 . S
H2323 C2262 0.961 . S
H2324 C2262 0.959 . S
H2325 C2263 0.960 . S
H2326 C2263 0.960 . S
H2327 C2263 0.960 . S
H2328 C2299 0.980 . S
H2329 C2265 0.930 . S
H2330 C2269 0.930 . S
H2331 C2270 0.961 . S
H2332 C2270 0.960 . S
H2333 C2270 0.958 . S
H2334 C2271 0.961 . S
H2335 C2271 0.960 . S
H2336 C2271 0.960 . S
H2337 C2273 0.980 . S
H2338 C2272 0.961 . S
H2339 C2272 0.961 . S
H2340 C2272 0.959 . S
H2341 C2275 0.932 . S
H2342 C2279 0.929 . S
H2343 C2280 0.961 . S
H2344 C2280 0.959 . S
H2345 C2280 0.959 . S
H2346 C2281 0.960 . S
H2347 C2281 0.962 . S
H2348 C2281 0.961 . S
H2349 C2283 0.929 . S
H2350 C2286 0.930 . S
H2351 C2287 0.929 . S
H2352 C2290 0.930 . S
H2353 C2293 0.929 . S
H2354 C2294 0.930 . S
H2355 C2298 0.962 . S
H2356 C2298 0.959 . S
H2357 C2298 0.958 . S
C2358 C2359 1.560 . S
C2358 H2419 0.959 . S
C2358 H2420 0.959 . S
C2358 H2421 0.960 . S
C2359 C2358 1.560 . S
C2359 O2414 1.426 . S
C2359 H2418 0.980 . S
C2360 C2361 1.407 . S
C2360 C2365 1.418 . S
C2360 O2414 1.334 . S
C2361 C2360 1.407 . S
C2361 C2362 1.360 . S
C2361 H2422 0.929 . S
C2362 C2361 1.360 . S
C2362 C2363 1.401 . S
C2362 C2366 1.527 . S
C2363 C2362 1.401 . S
C2363 C2364 1.405 . S
C2363 C2396 1.587 . S
C2364 C2363 1.405 . S
C2364 C2365 1.332 . S
C2364 C2367 1.496 . S
C2365 C2360 1.418 . S
C2365 C2364 1.332 . S
C2365 H2423 0.929 . S
C2366 C2362 1.527 . S
C2366 H2424 0.959 . S
C2366 H2425 0.961 . S
C2366 H2426 0.961 . S
C2367 C2364 1.496 . S
C2367 H2427 0.960 . S
C2367 H2428 0.960 . S
C2367 H2429 0.961 . S
C2368 C2369 1.517 . S
C2368 H2431 0.961 . S
C2368 H2432 0.960 . S
C2368 H2433 0.959 . S
C2369 C2368 1.517 . S
C2369 O2417 1.468 . S
C2369 H2430 0.980 . S
C2370 C2371 1.349 . S
C2370 C2375 1.367 . S
C2370 O2417 1.408 . S
C2371 C2370 1.349 . S
C2371 C2372 1.407 . S
C2371 H2434 0.930 . S
C2372 C2371 1.407 . S
C2372 C2373 1.449 . S
C2372 C2376 1.535 . S
C2373 C2372 1.449 . S
C2373 C2374 1.384 . S
C2373 C2398 1.553 . S
C2374 C2373 1.384 . S
C2374 C2375 1.364 . S
C2374 C2377 1.450 . S
C2375 C2370 1.367 . S
C2375 C2374 1.364 . S
C2375 H2435 0.931 . S
C2376 C2372 1.535 . S
C2376 H2436 0.959 . S
C2376 H2437 0.961 . S
C2376 H2438 0.959 . S
C2377 C2374 1.450 . S
C2377 H2439 0.960 . S
C2377 H2440 0.960 . S
C2377 H2441 0.960 . S
C2378 C2379 1.309 . S
C2378 C2383 1.304 . S
C2378 O2416 1.435 . S
C2379 C2378 1.309 . S
C2379 C2380 1.476 . S
C2379 H2443 0.930 . S
C2380 C2379 1.476 . S
C2380 C2381 1.400 . S
C2380 C2384 1.567 . S
C2381 C2380 1.400 . S
C2381 C2382 1.373 . S
C2381 C2403 1.432 . S
C2382 C2381 1.373 . S
C2382 C2383 1.339 . S
C2382 C2385 1.530 . S
C2383 C2378 1.304 . S
C2383 C2382 1.339 . S
C2383 H2444 0.930 . S
C2384 C2380 1.567 . S
C2384 H2445 0.961 . S
C2384 H2446 0.960 . S
C2384 H2447 0.958 . S
C2385 C2382 1.530 . S
C2385 H2448 0.961 . S
C2385 H2449 0.960 . S
C2385 H2450 0.960 . S
C2386 C2387 1.530 . S
C2386 H2452 0.961 . S
C2386 H2453 0.961 . S
C2386 H2454 0.959 . S
C2387 C2386 1.530 . S
C2387 O2415 1.412 . S
C2387 H2451 0.980 . S
C2388 C2389 1.288 . S
C2388 C2393 1.377 . S
C2388 O2415 1.393 . S
C2389 C2388 1.288 . S
C2389 C2390 1.369 . S
C2389 H2455 0.932 . S
C2390 C2389 1.369 . S
C2390 C2391 1.398 . S
C2390 C2394 1.527 . S
C2391 C2390 1.398 . S
C2391 C2392 1.380 . S
C2391 C2405 1.497 . S
C2392 C2391 1.380 . S
C2392 C2393 1.383 . S
C2392 C2395 1.603 . S
C2393 C2388 1.377 . S
C2393 C2392 1.383 . S
C2393 H2456 0.929 . S
C2394 C2390 1.527 . S
C2394 H2457 0.961 . S
C2394 H2458 0.959 . S
C2394 H2459 0.959 . S
C2395 C2392 1.603 . S
C2395 H2460 0.960 . S
C2395 H2461 0.962 . S
C2395 H2462 0.961 . S
C2396 C2363 1.587 . S
C2396 C2397 1.360 . S
C2396 C2409 1.412 . S
C2397 C2396 1.360 . S
C2397 C2398 1.365 . S
C2397 H2463 0.929 . S
C2398 C2373 1.553 . S
C2398 C2397 1.365 . S
C2398 C2399 1.404 . S
C2399 C2398 1.404 . S
C2399 C2400 1.395 . S
C2399 C2410 1.451 . S
C2400 C2399 1.395 . S
C2400 C2401 1.322 . S
C2400 H2464 0.930 . S
C2401 C2400 1.322 . S
C2401 C2402 1.459 . S
C2401 H2465 0.929 . S
C2402 C2401 1.459 . S
C2402 C2403 1.445 . S
C2402 C2411 1.395 . S
C2403 C2381 1.432 . S
C2403 C2402 1.445 . S
C2403 C2404 1.370 . S
C2404 C2403 1.370 . S
C2404 C2405 1.438 . S
C2404 H2466 0.930 . S
C2405 C2391 1.497 . S
C2405 C2404 1.438 . S
C2405 C2406 1.360 . S
C2406 C2405 1.360 . S
C2406 C2407 1.401 . S
C2406 C2411 1.446 . S
C2407 C2406 1.401 . S
C2407 C2408 1.347 . S
C2407 H2467 0.929 . S
C2408 C2407 1.347 . S
C2408 C2409 1.455 . S
C2408 H2468 0.930 . S
C2409 C2396 1.412 . S
C2409 C2408 1.455 . S
C2409 C2410 1.331 . S
C2410 C2399 1.451 . S
C2410 C2409 1.331 . S
C2410 C2411 1.497 . S
C2411 C2402 1.395 . S
C2411 C2406 1.446 . S
C2411 C2410 1.497 . S
C2412 C2413 1.582 . S
C2412 H2469 0.962 . S
C2412 H2470 0.959 . S
C2412 H2471 0.958 . S
C2413 C2412 1.582 . S
C2413 O2416 1.458 . S
C2413 H2442 0.980 . S
O2414 C2359 1.426 . S
O2414 C2360 1.334 . S
O2415 C2387 1.412 . S
O2415 C2388 1.393 . S
O2416 C2378 1.435 . S
O2416 C2413 1.458 . S
O2417 C2369 1.468 . S
O2417 C2370 1.408 . S
H2418 C2359 0.980 . S
H2419 C2358 0.959 . S
H2420 C2358 0.959 . S
H2421 C2358 0.960 . S
H2422 C2361 0.929 . S
H2423 C2365 0.929 . S
H2424 C2366 0.959 . S
H2425 C2366 0.961 . S
H2426 C2366 0.961 . S
H2427 C2367 0.960 . S
H2428 C2367 0.960 . S
H2429 C2367 0.961 . S
H2430 C2369 0.980 . S
H2431 C2368 0.961 . S
H2432 C2368 0.960 . S
H2433 C2368 0.959 . S
H2434 C2371 0.930 . S
H2435 C2375 0.931 . S
H2436 C2376 0.959 . S
H2437 C2376 0.961 . S
H2438 C2376 0.959 . S
H2439 C2377 0.960 . S
H2440 C2377 0.960 . S
H2441 C2377 0.960 . S
H2442 C2413 0.980 . S
H2443 C2379 0.930 . S
H2444 C2383 0.930 . S
H2445 C2384 0.961 . S
H2446 C2384 0.960 . S
H2447 C2384 0.958 . S
H2448 C2385 0.961 . S
H2449 C2385 0.960 . S
H2450 C2385 0.960 . S
H2451 C2387 0.980 . S
H2452 C2386 0.961 . S
H2453 C2386 0.961 . S
H2454 C2386 0.959 . S
H2455 C2389 0.932 . S
H2456 C2393 0.929 . S
H2457 C2394 0.961 . S
H2458 C2394 0.959 . S
H2459 C2394 0.959 . S
H2460 C2395 0.960 . S
H2461 C2395 0.962 . S
H2462 C2395 0.961 . S
H2463 C2397 0.929 . S
H2464 C2400 0.930 . S
H2465 C2401 0.929 . S
H2466 C2404 0.930 . S
H2467 C2407 0.929 . S
H2468 C2408 0.930 . S
H2469 C2412 0.962 . S
H2470 C2412 0.959 . S
H2471 C2412 0.958 . S
C2472 C2473 1.560 . S
C2472 H2533 0.959 . S
C2472 H2534 0.959 . S
C2472 H2535 0.960 . S
C2473 C2472 1.560 . S
C2473 O2528 1.426 . S
C2473 H2532 0.980 . S
C2474 C2475 1.407 . S
C2474 C2479 1.418 . S
C2474 O2528 1.334 . S
C2475 C2474 1.407 . S
C2475 C2476 1.360 . S
C2475 H2536 0.929 . S
C2476 C2475 1.360 . S
C2476 C2477 1.401 . S
C2476 C2480 1.527 . S
C2477 C2476 1.401 . S
C2477 C2478 1.405 . S
C2477 C2510 1.587 . S
C2478 C2477 1.405 . S
C2478 C2479 1.332 . S
C2478 C2481 1.496 . S
C2479 C2474 1.418 . S
C2479 C2478 1.332 . S
C2479 H2537 0.929 . S
C2480 C2476 1.527 . S
C2480 H2538 0.959 . S
C2480 H2539 0.961 . S
C2480 H2540 0.961 . S
C2481 C2478 1.496 . S
C2481 H2541 0.960 . S
C2481 H2542 0.960 . S
C2481 H2543 0.961 . S
C2482 C2483 1.517 . S
C2482 H2545 0.961 . S
C2482 H2546 0.960 . S
C2482 H2547 0.959 . S
C2483 C2482 1.517 . S
C2483 O2531 1.468 . S
C2483 H2544 0.980 . S
C2484 C2485 1.349 . S
C2484 C2489 1.367 . S
C2484 O2531 1.408 . S
C2485 C2484 1.349 . S
C2485 C2486 1.407 . S
C2485 H2548 0.930 . S
C2486 C2485 1.407 . S
C2486 C2487 1.449 . S
C2486 C2490 1.535 . S
C2487 C2486 1.449 . S
C2487 C2488 1.384 . S
C2487 C2512 1.553 . S
C2488 C2487 1.384 . S
C2488 C2489 1.364 . S
C2488 C2491 1.450 . S
C2489 C2484 1.367 . S
C2489 C2488 1.364 . S
C2489 H2549 0.931 . S
C2490 C2486 1.535 . S
C2490 H2550 0.959 . S
C2490 H2551 0.961 . S
C2490 H2552 0.959 . S
C2491 C2488 1.450 . S
C2491 H2553 0.960 . S
C2491 H2554 0.960 . S
C2491 H2555 0.960 . S
C2492 C2493 1.309 . S
C2492 C2497 1.304 . S
C2492 O2530 1.435 . S
C2493 C2492 1.309 . S
C2493 C2494 1.476 . S
C2493 H2557 0.930 . S
C2494 C2493 1.476 . S
C2494 C2495 1.400 . S
C2494 C2498 1.567 . S
C2495 C2494 1.400 . S
C2495 C2496 1.373 . S
C2495 C2517 1.432 . S
C2496 C2495 1.373 . S
C2496 C2497 1.339 . S
C2496 C2499 1.530 . S
C2497 C2492 1.304 . S
C2497 C2496 1.339 . S
C2497 H2558 0.930 . S
C2498 C2494 1.567 . S
C2498 H2559 0.961 . S
C2498 H2560 0.960 . S
C2498 H2561 0.958 . S
C2499 C2496 1.530 . S
C2499 H2562 0.961 . S
C2499 H2563 0.960 . S
C2499 H2564 0.960 . S
C2500 C2501 1.530 . S
C2500 H2566 0.961 . S
C2500 H2567 0.961 . S
C2500 H2568 0.959 . S
C2501 C2500 1.530 . S
C2501 O2529 1.412 . S
C2501 H2565 0.980 . S
C2502 C2503 1.288 . S
C2502 C2507 1.377 . S
C2502 O2529 1.393 . S
C2503 C2502 1.288 . S
C2503 C2504 1.369 . S
C2503 H2569 0.932 . S
C2504 C2503 1.369 . S
C2504 C2505 1.398 . S
C2504 C2508 1.527 . S
C2505 C2504 1.398 . S
C2505 C2506 1.380 . S
C2505 C2519 1.497 . S
C2506 C2505 1.380 . S
C2506 C2507 1.383 . S
C2506 C2509 1.603 . S
C2507 C2502 1.377 . S
C2507 C2506 1.383 . S
C2507 H2570 0.929 . S
C2508 C2504 1.527 . S
C2508 H2571 0.961 . S
C2508 H2572 0.959 . S
C2508 H2573 0.959 . S
C2509 C2506 1.603 . S
C2509 H2574 0.960 . S
C2509 H2575 0.962 . S
C2509 H2576 0.961 . S
C2510 C2477 1.587 . S
C2510 C2511 1.360 . S
C2510 C2523 1.412 . S
C2511 C2510 1.360 . S
C2511 C2512 1.365 . S
C2511 H2577 0.929 . S
C2512 C2487 1.553 . S
C2512 C2511 1.365 . S
C2512 C2513 1.404 . S
C2513 C2512 1.404 . S
C2513 C2514 1.395 . S
C2513 C2524 1.451 . S
C2514 C2513 1.395 . S
C2514 C2515 1.322 . S
C2514 H2578 0.930 . S
C2515 C2514 1.322 . S
C2515 C2516 1.459 . S
C2515 H2579 0.929 . S
C2516 C2515 1.459 . S
C2516 C2517 1.445 . S
C2516 C2525 1.395 . S
C2517 C2495 1.432 . S
C2517 C2516 1.445 . S
C2517 C2518 1.370 . S
C2518 C2517 1.370 . S
C2518 C2519 1.438 . S
C2518 H2580 0.930 . S
C2519 C2505 1.497 . S
C2519 C2518 1.438 . S
C2519 C2520 1.360 . S
C2520 C2519 1.360 . S
C2520 C2521 1.401 . S
C2520 C2525 1.446 . S
C2521 C2520 1.401 . S
C2521 C2522 1.347 . S
C2521 H2581 0.929 . S
C2522 C2521 1.347 . S
C2522 C2523 1.455 . S
C2522 H2582 0.930 . S
C2523 C2510 1.412 . S
C2523 C2522 1.455 . S
C2523 C2524 1.331 . S
C2524 C2513 1.451 . S
C2524 C2523 1.331 . S
C2524 C2525 1.497 . S
C2525 C2516 1.395 . S
C2525 C2520 1.446 . S
C2525 C2524 1.497 . S
C2526 C2527 1.582 . S
C2526 H2583 0.962 . S
C2526 H2584 0.959 . S
C2526 H2585 0.958 . S
C2527 C2526 1.582 . S
C2527 O2530 1.458 . S
C2527 H2556 0.980 . S
O2528 C2473 1.426 . S
O2528 C2474 1.334 . S
O2529 C2501 1.412 . S
O2529 C2502 1.393 . S
O2530 C2492 1.435 . S
O2530 C2527 1.458 . S
O2531 C2483 1.468 . S
O2531 C2484 1.408 . S
H2532 C2473 0.980 . S
H2533 C2472 0.959 . S
H2534 C2472 0.959 . S
H2535 C2472 0.960 . S
H2536 C2475 0.929 . S
H2537 C2479 0.929 . S
H2538 C2480 0.959 . S
H2539 C2480 0.961 . S
H2540 C2480 0.961 . S
H2541 C2481 0.960 . S
H2542 C2481 0.960 . S
H2543 C2481 0.961 . S
H2544 C2483 0.980 . S
H2545 C2482 0.961 . S
H2546 C2482 0.960 . S
H2547 C2482 0.959 . S
H2548 C2485 0.930 . S
H2549 C2489 0.931 . S
H2550 C2490 0.959 . S
H2551 C2490 0.961 . S
H2552 C2490 0.959 . S
H2553 C2491 0.960 . S
H2554 C2491 0.960 . S
H2555 C2491 0.960 . S
H2556 C2527 0.980 . S
H2557 C2493 0.930 . S
H2558 C2497 0.930 . S
H2559 C2498 0.961 . S
H2560 C2498 0.960 . S
H2561 C2498 0.958 . S
H2562 C2499 0.961 . S
H2563 C2499 0.960 . S
H2564 C2499 0.960 . S
H2565 C2501 0.980 . S
H2566 C2500 0.961 . S
H2567 C2500 0.961 . S
H2568 C2500 0.959 . S
H2569 C2503 0.932 . S
H2570 C2507 0.929 . S
H2571 C2508 0.961 . S
H2572 C2508 0.959 . S
H2573 C2508 0.959 . S
H2574 C2509 0.960 . S
H2575 C2509 0.962 . S
H2576 C2509 0.961 . S
H2577 C2511 0.929 . S
H2578 C2514 0.930 . S
H2579 C2515 0.929 . S
H2580 C2518 0.930 . S
H2581 C2521 0.929 . S
H2582 C2522 0.930 . S
H2583 C2526 0.962 . S
H2584 C2526 0.959 . S
H2585 C2526 0.958 . S
C2586 C2587 1.560 . S
C2586 H2647 0.959 . S
C2586 H2648 0.959 . S
C2586 H2649 0.960 . S
C2587 C2586 1.560 . S
C2587 O2642 1.426 . S
C2587 H2646 0.980 . S
C2588 C2589 1.407 . S
C2588 C2593 1.418 . S
C2588 O2642 1.334 . S
C2589 C2588 1.407 . S
C2589 C2590 1.360 . S
C2589 H2650 0.929 . S
C2590 C2589 1.360 . S
C2590 C2591 1.401 . S
C2590 C2594 1.527 . S
C2591 C2590 1.401 . S
C2591 C2592 1.405 . S
C2591 C2624 1.587 . S
C2592 C2591 1.405 . S
C2592 C2593 1.332 . S
C2592 C2595 1.496 . S
C2593 C2588 1.418 . S
C2593 C2592 1.332 . S
C2593 H2651 0.929 . S
C2594 C2590 1.527 . S
C2594 H2652 0.959 . S
C2594 H2653 0.961 . S
C2594 H2654 0.961 . S
C2595 C2592 1.496 . S
C2595 H2655 0.960 . S
C2595 H2656 0.960 . S
C2595 H2657 0.961 . S
C2596 C2597 1.517 . S
C2596 H2659 0.961 . S
C2596 H2660 0.960 . S
C2596 H2661 0.959 . S
C2597 C2596 1.517 . S
C2597 O2645 1.468 . S
C2597 H2658 0.980 . S
C2598 C2599 1.349 . S
C2598 C2603 1.367 . S
C2598 O2645 1.408 . S
C2599 C2598 1.349 . S
C2599 C2600 1.407 . S
C2599 H2662 0.930 . S
C2600 C2599 1.407 . S
C2600 C2601 1.449 . S
C2600 C2604 1.535 . S
C2601 C2600 1.449 . S
C2601 C2602 1.384 . S
C2601 C2626 1.553 . S
C2602 C2601 1.384 . S
C2602 C2603 1.364 . S
C2602 C2605 1.450 . S
C2603 C2598 1.367 . S
C2603 C2602 1.364 . S
C2603 H2663 0.931 . S
C2604 C2600 1.535 . S
C2604 H2664 0.959 . S
C2604 H2665 0.961 . S
C2604 H2666 0.959 . S
C2605 C2602 1.450 . S
C2605 H2667 0.960 . S
C2605 H2668 0.960 . S
C2605 H2669 0.960 . S
C2606 C2607 1.309 . S
C2606 C2611 1.304 . S
C2606 O2644 1.435 . S
C2607 C2606 1.309 . S
C2607 C2608 1.476 . S
C2607 H2671 0.930 . S
C2608 C2607 1.476 . S
C2608 C2609 1.400 . S
C2608 C2612 1.567 . S
C2609 C2608 1.400 . S
C2609 C2610 1.373 . S
C2609 C2631 1.432 . S
C2610 C2609 1.373 . S
C2610 C2611 1.339 . S
C2610 C2613 1.530 . S
C2611 C2606 1.304 . S
C2611 C2610 1.339 . S
C2611 H2672 0.930 . S
C2612 C2608 1.567 . S
C2612 H2673 0.961 . S
C2612 H2674 0.960 . S
C2612 H2675 0.958 . S
C2613 C2610 1.530 . S
C2613 H2676 0.961 . S
C2613 H2677 0.960 . S
C2613 H2678 0.960 . S
C2614 C2615 1.530 . S
C2614 H2680 0.961 . S
C2614 H2681 0.961 . S
C2614 H2682 0.959 . S
C2615 C2614 1.530 . S
C2615 O2643 1.412 . S
C2615 H2679 0.980 . S
C2616 C2617 1.288 . S
C2616 C2621 1.377 . S
C2616 O2643 1.393 . S
C2617 C2616 1.288 . S
C2617 C2618 1.369 . S
C2617 H2683 0.932 . S
C2618 C2617 1.369 . S
C2618 C2619 1.398 . S
C2618 C2622 1.527 . S
C2619 C2618 1.398 . S
C2619 C2620 1.380 . S
C2619 C2633 1.497 . S
C2620 C2619 1.380 . S
C2620 C2621 1.383 . S
C2620 C2623 1.603 . S
C2621 C2616 1.377 . S
C2621 C2620 1.383 . S
C2621 H2684 0.929 . S
C2622 C2618 1.527 . S
C2622 H2685 0.961 . S
C2622 H2686 0.959 . S
C2622 H2687 0.959 . S
C2623 C2620 1.603 . S
C2623 H2688 0.960 . S
C2623 H2689 0.962 . S
C2623 H2690 0.961 . S
C2624 C2591 1.587 . S
C2624 C2625 1.360 . S
C2624 C2637 1.412 . S
C2625 C2624 1.360 . S
C2625 C2626 1.365 . S
C2625 H2691 0.929 . S
C2626 C2601 1.553 . S
C2626 C2625 1.365 . S
C2626 C2627 1.404 . S
C2627 C2626 1.404 . S
C2627 C2628 1.395 . S
C2627 C2638 1.451 . S
C2628 C2627 1.395 . S
C2628 C2629 1.322 . S
C2628 H2692 0.930 . S
C2629 C2628 1.322 . S
C2629 C2630 1.459 . S
C2629 H2693 0.929 . S
C2630 C2629 1.459 . S
C2630 C2631 1.445 . S
C2630 C2639 1.395 . S
C2631 C2609 1.432 . S
C2631 C2630 1.445 . S
C2631 C2632 1.370 . S
C2632 C2631 1.370 . S
C2632 C2633 1.438 . S
C2632 H2694 0.930 . S
C2633 C2619 1.497 . S
C2633 C2632 1.438 . S
C2633 C2634 1.360 . S
C2634 C2633 1.360 . S
C2634 C2635 1.401 . S
C2634 C2639 1.446 . S
C2635 C2634 1.401 . S
C2635 C2636 1.347 . S
C2635 H2695 0.929 . S
C2636 C2635 1.347 . S
C2636 C2637 1.455 . S
C2636 H2696 0.930 . S
C2637 C2624 1.412 . S
C2637 C2636 1.455 . S
C2637 C2638 1.331 . S
C2638 C2627 1.451 . S
C2638 C2637 1.331 . S
C2638 C2639 1.497 . S
C2639 C2630 1.395 . S
C2639 C2634 1.446 . S
C2639 C2638 1.497 . S
C2640 C2641 1.582 . S
C2640 H2697 0.962 . S
C2640 H2698 0.959 . S
C2640 H2699 0.958 . S
C2641 C2640 1.582 . S
C2641 O2644 1.458 . S
C2641 H2670 0.980 . S
O2642 C2587 1.426 . S
O2642 C2588 1.334 . S
O2643 C2615 1.412 . S
O2643 C2616 1.393 . S
O2644 C2606 1.435 . S
O2644 C2641 1.458 . S
O2645 C2597 1.468 . S
O2645 C2598 1.408 . S
H2646 C2587 0.980 . S
H2647 C2586 0.959 . S
H2648 C2586 0.959 . S
H2649 C2586 0.960 . S
H2650 C2589 0.929 . S
H2651 C2593 0.929 . S
H2652 C2594 0.959 . S
H2653 C2594 0.961 . S
H2654 C2594 0.961 . S
H2655 C2595 0.960 . S
H2656 C2595 0.960 . S
H2657 C2595 0.961 . S
H2658 C2597 0.980 . S
H2659 C2596 0.961 . S
H2660 C2596 0.960 . S
H2661 C2596 0.959 . S
H2662 C2599 0.930 . S
H2663 C2603 0.931 . S
H2664 C2604 0.959 . S
H2665 C2604 0.961 . S
H2666 C2604 0.959 . S
H2667 C2605 0.960 . S
H2668 C2605 0.960 . S
H2669 C2605 0.960 . S
H2670 C2641 0.980 . S
H2671 C2607 0.930 . S
H2672 C2611 0.930 . S
H2673 C2612 0.961 . S
H2674 C2612 0.960 . S
H2675 C2612 0.958 . S
H2676 C2613 0.961 . S
H2677 C2613 0.960 . S
H2678 C2613 0.960 . S
H2679 C2615 0.980 . S
H2680 C2614 0.961 . S
H2681 C2614 0.961 . S
H2682 C2614 0.959 . S
H2683 C2617 0.932 . S
H2684 C2621 0.929 . S
H2685 C2622 0.961 . S
H2686 C2622 0.959 . S
H2687 C2622 0.959 . S
H2688 C2623 0.960 . S
H2689 C2623 0.962 . S
H2690 C2623 0.961 . S
H2691 C2625 0.929 . S
H2692 C2628 0.930 . S
H2693 C2629 0.929 . S
H2694 C2632 0.930 . S
H2695 C2635 0.929 . S
H2696 C2636 0.930 . S
H2697 C2640 0.962 . S
H2698 C2640 0.959 . S
H2699 C2640 0.958 . S
C2700 C2701 1.391 . S
C2700 C2702 1.394 . S
C2700 H2716 0.931 . S
C2701 C2700 1.391 . S
C2701 C2705 1.376 1_655 S
C2702 C2700 1.394 . S
C2702 C2703 1.369 . S
C2702 C2706 1.531 . S
C2703 C2702 1.369 . S
C2703 C2704 1.410 1_655 S
C2703 C2711 1.503 . S
C2704 C2703 1.410 1_455 S
C2704 C2705 1.392 . S
C2704 C2707 1.511 . S
C2705 C2701 1.376 1_455 S
C2705 C2704 1.392 . S
C2705 H2717 0.929 . S
C2706 C2702 1.531 . S
C2706 H2718 0.960 . S
C2706 H2719 0.962 . S
C2706 H2720 0.960 . S
C2707 C2704 1.511 . S
C2707 H2721 0.961 . S
C2707 H2722 0.961 . S
C2707 H2723 0.961 . S
C2708 C2709 1.370 . S
C2708 C2710 1.363 . S
C2708 H2724 0.931 . S
C2709 C2708 1.370 . S
C2709 C2713 1.408 . S
C2710 C2708 1.363 . S
C2710 C2711 1.370 . S
C2710 C2714 1.524 . S
C2711 C2703 1.503 . S
C2711 C2710 1.370 . S
C2711 C2712 1.403 . S
C2712 C2711 1.403 . S
C2712 C2713 1.404 . S
C2712 C2715 1.539 1_655 S
C2713 C2709 1.408 . S
C2713 C2712 1.404 . S
C2713 H2725 0.930 . S
C2714 C2710 1.524 . S
C2714 H2726 0.956 . S
C2714 H2727 0.961 . S
C2714 H2728 0.961 . S
C2715 C2712 1.539 1_455 S
C2715 H2729 0.958 1_455 S
C2715 H2730 0.961 . S
C2715 H2731 0.960 . S
H2716 C2700 0.931 . S
H2717 C2705 0.929 . S
H2718 C2706 0.960 . S
H2719 C2706 0.962 . S
H2720 C2706 0.960 . S
H2721 C2707 0.961 . S
H2722 C2707 0.961 . S
H2723 C2707 0.961 . S
H2724 C2708 0.931 . S
H2725 C2713 0.930 . S
H2726 C2714 0.956 . S
H2727 C2714 0.961 . S
H2728 C2714 0.961 . S
H2729 C2715 0.958 1_655 S
H2730 C2715 0.961 . S
H2731 C2715 0.960 . S
C2732 C2733 1.391 . S
C2732 C2734 1.394 . S
C2732 H2748 0.931 . S
C2733 C2732 1.391 . S
C2733 C2737 1.376 . S
C2734 C2732 1.394 . S
C2734 C2735 1.369 . S
C2734 C2738 1.531 . S
C2735 C2734 1.369 . S
C2735 C2736 1.410 . S
C2735 C2743 1.503 . S
C2736 C2735 1.410 . S
C2736 C2737 1.392 . S
C2736 C2739 1.511 . S
C2737 C2733 1.376 . S
C2737 C2736 1.392 . S
C2737 H2749 0.929 . S
C2738 C2734 1.531 . S
C2738 H2750 0.960 . S
C2738 H2751 0.962 . S
C2738 H2752 0.960 . S
C2739 C2736 1.511 . S
C2739 H2753 0.961 . S
C2739 H2754 0.961 . S
C2739 H2755 0.961 . S
C2740 C2741 1.370 . S
C2740 C2742 1.363 . S
C2740 H2756 0.931 . S
C2741 C2740 1.370 . S
C2741 C2745 1.408 . S
C2742 C2740 1.363 . S
C2742 C2743 1.370 . S
C2742 C2746 1.524 . S
C2743 C2735 1.503 . S
C2743 C2742 1.370 . S
C2743 C2744 1.403 . S
C2744 C2743 1.403 . S
C2744 C2745 1.404 . S
C2744 C2747 1.539 . S
C2745 C2741 1.408 . S
C2745 C2744 1.404 . S
C2745 H2757 0.930 . S
C2746 C2742 1.524 . S
C2746 H2758 0.956 . S
C2746 H2759 0.961 . S
C2746 H2760 0.961 . S
C2747 C2744 1.539 . S
C2747 H2761 0.958 . S
C2747 H2762 0.961 . S
C2747 H2763 0.960 . S
H2748 C2732 0.931 . S
H2749 C2737 0.929 . S
H2750 C2738 0.960 . S
H2751 C2738 0.962 . S
H2752 C2738 0.960 . S
H2753 C2739 0.961 . S
H2754 C2739 0.961 . S
H2755 C2739 0.961 . S
H2756 C2740 0.931 . S
H2757 C2745 0.930 . S
H2758 C2746 0.956 . S
H2759 C2746 0.961 . S
H2760 C2746 0.961 . S
H2761 C2747 0.958 . S
H2762 C2747 0.961 . S
H2763 C2747 0.960 . S
C2764 C2765 1.391 . S
C2764 C2766 1.394 . S
C2764 H2780 0.931 . S
C2765 C2764 1.391 . S
C2765 C2769 1.376 . S
C2766 C2764 1.394 . S
C2766 C2767 1.369 . S
C2766 C2770 1.531 . S
C2767 C2766 1.369 . S
C2767 C2768 1.410 . S
C2767 C2775 1.503 . S
C2768 C2767 1.410 . S
C2768 C2769 1.392 . S
C2768 C2771 1.511 . S
C2769 C2765 1.376 . S
C2769 C2768 1.392 . S
C2769 H2781 0.929 . S
C2770 C2766 1.531 . S
C2770 H2782 0.937 1_545 S
C2770 H2783 0.986 . S
C2770 H2784 0.960 1_545 S
C2771 C2768 1.511 . S
C2771 H2785 0.961 . S
C2771 H2786 0.961 . S
C2771 H2787 0.961 1_545 S
C2772 C2773 1.370 . S
C2772 C2774 1.363 . S
C2772 H2788 0.931 . S
C2773 C2772 1.370 . S
C2773 C2777 1.408 1_545 S
C2774 C2772 1.363 . S
C2774 C2775 1.370 . S
C2774 C2778 1.524 . S
C2775 C2767 1.503 . S
C2775 C2774 1.370 . S
C2775 C2776 1.403 1_545 S
C2776 C2775 1.403 1_565 S
C2776 C2777 1.404 . S
C2776 C2779 1.539 . S
C2777 C2773 1.408 1_565 S
C2777 C2776 1.404 . S
C2777 H2789 0.930 . S
C2778 C2774 1.524 . S
C2778 H2790 0.956 . S
C2778 H2791 0.961 . S
C2778 H2792 0.961 . S
C2779 C2776 1.539 . S
C2779 H2793 0.958 . S
C2779 H2794 0.961 . S
C2779 H2795 0.960 . S
H2780 C2764 0.931 . S
H2781 C2769 0.929 . S
H2782 C2770 0.937 1_565 S
H2783 C2770 0.986 . S
H2784 C2770 0.960 1_565 S
H2785 C2771 0.961 . S
H2786 C2771 0.961 . S
H2787 C2771 0.961 1_565 S
H2788 C2772 0.931 . S
H2789 C2777 0.930 . S
H2790 C2778 0.956 . S
H2791 C2778 0.961 . S
H2792 C2778 0.961 . S
H2793 C2779 0.958 . S
H2794 C2779 0.961 . S
H2795 C2779 0.960 . S
C2796 C2797 1.391 . S
C2796 C2798 1.394 . S
C2796 H2812 0.931 . S
C2797 C2796 1.391 . S
C2797 C2801 1.376 . S
C2798 C2796 1.394 . S
C2798 C2799 1.369 . S
C2798 C2802 1.531 . S
C2799 C2798 1.369 . S
C2799 C2800 1.410 . S
C2799 C2807 1.503 . S
C2800 C2799 1.410 . S
C2800 C2801 1.392 . S
C2800 C2803 1.500 . S
C2801 C2797 1.376 . S
C2801 C2800 1.392 . S
C2801 H2813 0.929 . S
C2802 C2798 1.531 . S
C2802 H2814 0.956 1_565 S
C2802 H2815 0.962 . S
C2802 H2816 0.960 . S
C2803 C2800 1.500 . S
C2803 H2817 0.975 . S
C2803 H2818 0.984 . S
C2803 H2819 0.936 1_565 S
C2804 C2805 1.370 . S
C2804 C2806 1.363 . S
C2804 H2820 0.931 . S
C2805 C2804 1.370 . S
C2805 C2809 1.408 1_565 S
C2806 C2804 1.363 . S
C2806 C2807 1.370 . S
C2806 C2810 1.524 . S
C2807 C2799 1.503 . S
C2807 C2806 1.370 . S
C2807 C2808 1.403 1_565 S
C2808 C2807 1.403 1_545 S
C2808 C2809 1.404 . S
C2808 C2811 1.539 . S
C2809 C2805 1.408 1_545 S
C2809 C2808 1.404 . S
C2809 H2821 0.930 . S
C2810 C2806 1.524 . S
C2810 H2822 0.956 . S
C2810 H2823 0.961 . S
C2810 H2824 0.961 . S
C2811 C2808 1.539 . S
C2811 H2825 0.958 . S
C2811 H2826 0.961 . S
C2811 H2827 0.960 . S
H2812 C2796 0.931 . S
H2813 C2801 0.929 . S
H2814 C2802 0.956 1_545 S
H2815 C2802 0.962 . S
H2816 C2802 0.960 . S
H2817 C2803 0.975 . S
H2818 C2803 0.984 . S
H2819 C2803 0.936 1_545 S
H2820 C2804 0.931 . S
H2821 C2809 0.930 . S
H2822 C2810 0.956 . S
H2823 C2810 0.961 . S
H2824 C2810 0.961 . S
H2825 C2811 0.958 . S
H2826 C2811 0.961 . S
H2827 C2811 0.960 . S
C2828 C2829 1.391 . S
C2828 C2830 1.394 . S
C2828 H2844 0.931 . S
C2829 C2828 1.391 . S
C2829 C2833 1.376 . S
C2830 C2828 1.394 . S
C2830 C2831 1.369 . S
C2830 C2834 1.531 . S
C2831 C2830 1.369 . S
C2831 C2832 1.410 . S
C2831 C2839 1.503 . S
C2832 C2831 1.410 . S
C2832 C2833 1.392 . S
C2832 C2835 1.511 . S
C2833 C2829 1.376 . S
C2833 C2832 1.392 . S
C2833 H2845 0.929 . S
C2834 C2830 1.531 . S
C2834 H2846 0.960 . S
C2834 H2847 1.026 . S
C2834 H2848 0.960 . S
C2835 C2832 1.511 . S
C2835 H2849 0.961 . S
C2835 H2850 0.961 . S
C2835 H2851 0.961 . S
C2836 C2837 1.370 1_655 S
C2836 C2838 1.363 . S
C2836 H2852 0.931 . S
C2837 C2836 1.370 1_455 S
C2837 C2841 1.408 . S
C2838 C2836 1.363 . S
C2838 C2839 1.370 1_655 S
C2838 C2842 1.524 . S
C2839 C2831 1.503 . S
C2839 C2838 1.370 1_455 S
C2839 C2840 1.403 . S
C2840 C2839 1.403 . S
C2840 C2841 1.404 . S
C2840 C2843 1.539 . S
C2841 C2837 1.408 . S
C2841 C2840 1.404 . S
C2841 H2853 0.930 . S
C2842 C2838 1.524 . S
C2842 H2854 0.956 . S
C2842 H2855 0.961 . S
C2842 H2856 0.961 . S
C2843 C2840 1.539 . S
C2843 H2857 0.958 . S
C2843 H2858 0.961 . S
C2843 H2859 0.960 . S
H2844 C2828 0.931 . S
H2845 C2833 0.929 . S
H2846 C2834 0.960 . S
H2847 C2834 1.026 . S
H2848 C2834 0.960 . S
H2849 C2835 0.961 . S
H2850 C2835 0.961 . S
H2851 C2835 0.961 . S
H2852 C2836 0.931 . S
H2853 C2841 0.930 . S
H2854 C2842 0.956 . S
H2855 C2842 0.961 . S
H2856 C2842 0.961 . S
H2857 C2843 0.958 . S
H2858 C2843 0.961 . S
H2859 C2843 0.960 . S
C2860 C2861 1.391 . S
C2860 C2862 1.394 . S
C2860 H2876 0.931 . S
C2861 C2860 1.391 . S
C2861 C2865 1.376 . S
C2862 C2860 1.394 . S
C2862 C2863 1.369 . S
C2862 C2866 1.531 . S
C2863 C2862 1.369 . S
C2863 C2864 1.410 . S
C2863 C2871 1.503 . S
C2864 C2863 1.410 . S
C2864 C2865 1.392 . S
C2864 C2867 1.511 . S
C2865 C2861 1.376 . S
C2865 C2864 1.392 . S
C2865 H2877 0.929 . S
C2866 C2862 1.531 . S
C2866 H2878 0.960 . S
C2866 H2879 0.962 . S
C2866 H2880 0.960 . S
C2867 C2864 1.511 . S
C2867 H2881 0.961 . S
C2867 H2882 0.961 . S
C2867 H2883 0.961 . S
C2868 C2869 1.370 . S
C2868 C2870 1.363 . S
C2868 H2884 0.931 . S
C2869 C2868 1.370 . S
C2869 C2873 1.408 . S
C2870 C2868 1.363 . S
C2870 C2871 1.370 . S
C2870 C2874 1.524 . S
C2871 C2863 1.503 . S
C2871 C2870 1.370 . S
C2871 C2872 1.403 . S
C2872 C2871 1.403 . S
C2872 C2873 1.404 . S
C2872 C2875 1.539 . S
C2873 C2869 1.408 . S
C2873 C2872 1.404 . S
C2873 H2885 0.930 . S
C2874 C2870 1.524 . S
C2874 H2886 0.956 . S
C2874 H2887 0.961 . S
C2874 H2888 0.961 . S
C2875 C2872 1.539 . S
C2875 H2889 0.958 . S
C2875 H2890 0.961 . S
C2875 H2891 0.960 . S
H2876 C2860 0.931 . S
H2877 C2865 0.929 . S
H2878 C2866 0.960 . S
H2879 C2866 0.962 . S
H2880 C2866 0.960 . S
H2881 C2867 0.961 . S
H2882 C2867 0.961 . S
H2883 C2867 0.961 . S
H2884 C2868 0.931 . S
H2885 C2873 0.930 . S
H2886 C2874 0.956 . S
H2887 C2874 0.961 . S
H2888 C2874 0.961 . S
H2889 C2875 0.958 . S
H2890 C2875 0.961 . S
H2891 C2875 0.960 . S
C2892 C2893 1.391 1_655 S
C2892 C2894 1.394 . S
C2892 H2908 0.931 . S
C2893 C2892 1.391 1_455 S
C2893 C2897 1.376 . S
C2894 C2892 1.394 . S
C2894 C2895 1.369 1_655 S
C2894 C2898 1.531 . S
C2895 C2894 1.369 1_455 S
C2895 C2896 1.410 . S
C2895 C2903 1.503 . S
C2896 C2895 1.410 . S
C2896 C2897 1.392 . S
C2896 C2899 1.511 . S
C2897 C2893 1.376 . S
C2897 C2896 1.392 . S
C2897 H2909 0.929 . S
C2898 C2894 1.531 . S
C2898 H2910 0.960 . S
C2898 H2911 0.962 . S
C2898 H2912 0.960 . S
C2899 C2896 1.511 . S
C2899 H2913 0.961 . S
C2899 H2914 0.961 . S
C2899 H2915 0.961 . S
C2900 C2901 1.370 . S
C2900 C2902 1.363 . S
C2900 H2916 0.931 . S
C2901 C2900 1.370 . S
C2901 C2905 1.408 1_455 S
C2902 C2900 1.363 . S
C2902 C2903 1.370 . S
C2902 C2906 1.524 . S
C2903 C2895 1.503 . S
C2903 C2902 1.370 . S
C2903 C2904 1.403 1_455 S
C2904 C2903 1.403 1_655 S
C2904 C2905 1.404 . S
C2904 C2907 1.539 . S
C2905 C2901 1.408 1_655 S
C2905 C2904 1.404 . S
C2905 H2917 0.930 . S
C2906 C2902 1.524 . S
C2906 H2918 0.956 . S
C2906 H2919 0.961 . S
C2906 H2920 0.961 . S
C2907 C2904 1.539 . S
C2907 H2921 0.958 . S
C2907 H2922 0.961 . S
C2907 H2923 0.956 1_655 S
H2908 C2892 0.931 . S
H2909 C2897 0.929 . S
H2910 C2898 0.960 . S
H2911 C2898 0.962 . S
H2912 C2898 0.960 . S
H2913 C2899 0.961 . S
H2914 C2899 0.961 . S
H2915 C2899 0.961 . S
H2916 C2900 0.931 . S
H2917 C2905 0.930 . S
H2918 C2906 0.956 . S
H2919 C2906 0.961 . S
H2920 C2906 0.961 . S
H2921 C2907 0.958 . S
H2922 C2907 0.961 . S
H2923 C2907 0.956 1_455 S
C2924 C2925 1.391 . S
C2924 C2926 1.394 . S
C2924 H2940 0.931 . S
C2925 C2924 1.391 . S
C2925 C2929 1.376 . S
C2926 C2924 1.394 . S
C2926 C2927 1.369 . S
C2926 C2930 1.531 . S
C2927 C2926 1.369 . S
C2927 C2928 1.410 . S
C2927 C2935 1.503 . S
C2928 C2927 1.410 . S
C2928 C2929 1.392 . S
C2928 C2931 1.511 . S
C2929 C2925 1.376 . S
C2929 C2928 1.392 . S
C2929 H2941 0.929 . S
C2930 C2926 1.531 . S
C2930 H2942 0.960 . S
C2930 H2943 0.962 . S
C2930 H2944 0.960 . S
C2931 C2928 1.511 . S
C2931 H2945 0.961 . S
C2931 H2946 0.961 . S
C2931 H2947 0.961 . S
C2932 C2933 1.370 . S
C2932 C2934 1.363 . S
C2932 H2948 0.931 . S
C2933 C2932 1.370 . S
C2933 C2937 1.408 . S
C2934 C2932 1.363 . S
C2934 C2935 1.370 . S
C2934 C2938 1.524 . S
C2935 C2927 1.503 . S
C2935 C2934 1.370 . S
C2935 C2936 1.403 . S
C2936 C2935 1.403 . S
C2936 C2937 1.404 . S
C2936 C2939 1.539 . S
C2937 C2933 1.408 . S
C2937 C2936 1.404 . S
C2937 H2949 0.930 . S
C2938 C2934 1.524 . S
C2938 H2950 0.956 . S
C2938 H2951 0.961 . S
C2938 H2952 0.961 . S
C2939 C2936 1.539 . S
C2939 H2953 0.958 . S
C2939 H2954 0.961 . S
C2939 H2955 0.960 . S
H2940 C2924 0.931 . S
H2941 C2929 0.929 . S
H2942 C2930 0.960 . S
H2943 C2930 0.962 . S
H2944 C2930 0.960 . S
H2945 C2931 0.961 . S
H2946 C2931 0.961 . S
H2947 C2931 0.961 . S
H2948 C2932 0.931 . S
H2949 C2937 0.930 . S
H2950 C2938 0.956 . S
H2951 C2938 0.961 . S
H2952 C2938 0.961 . S
H2953 C2939 0.958 . S
H2954 C2939 0.961 . S
H2955 C2939 0.960 . S
C2956 C2957 1.391 . S
C2956 C2958 1.394 . S
C2956 H2972 0.931 . S
C2957 C2956 1.391 . S
C2957 C2961 1.376 . S
C2958 C2956 1.394 . S
C2958 C2959 1.369 . S
C2958 C2962 1.531 . S
C2959 C2958 1.369 . S
C2959 C2960 1.410 . S
C2959 C2967 1.503 . S
C2960 C2959 1.410 . S
C2960 C2961 1.392 . S
C2960 C2963 1.511 . S
C2961 C2957 1.376 . S
C2961 C2960 1.392 . S
C2961 H2973 0.929 . S
C2962 C2958 1.531 . S
C2962 H2974 0.960 . S
C2962 H2975 0.962 . S
C2962 H2976 0.960 . S
C2963 C2960 1.511 . S
C2963 H2977 0.961 1_565 S
C2963 H2978 0.961 1_565 S
C2963 H2979 0.961 . S
C2964 C2965 1.370 1_545 S
C2964 C2966 1.363 . S
C2964 H2980 0.931 . S
C2965 C2964 1.370 1_565 S
C2965 C2969 1.408 . S
C2966 C2964 1.363 . S
C2966 C2967 1.370 1_545 S
C2966 C2970 1.524 . S
C2967 C2959 1.503 . S
C2967 C2966 1.370 1_565 S
C2967 C2968 1.403 . S
C2968 C2967 1.403 . S
C2968 C2969 1.404 . S
C2968 C2971 1.539 . S
C2969 C2965 1.408 . S
C2969 C2968 1.404 . S
C2969 H2981 0.930 . S
C2970 C2966 1.524 . S
C2970 H2982 0.956 . S
C2970 H2983 0.961 . S
C2970 H2984 0.961 . S
C2971 C2968 1.539 . S
C2971 H2985 0.958 . S
C2971 H2986 0.961 . S
C2971 H2987 0.960 . S
H2972 C2956 0.931 . S
H2973 C2961 0.929 . S
H2974 C2962 0.960 . S
H2975 C2962 0.962 . S
H2976 C2962 0.960 . S
H2977 C2963 0.961 1_545 S
H2978 C2963 0.961 1_545 S
H2979 C2963 0.961 . S
H2980 C2964 0.931 . S
H2981 C2969 0.930 . S
H2982 C2970 0.956 . S
H2983 C2970 0.961 . S
H2984 C2970 0.961 . S
H2985 C2971 0.958 . S
H2986 C2971 0.961 . S
H2987 C2971 0.960 . S
C2988 C2989 1.391 . S
C2988 C2990 1.394 . S
C2988 H3004 0.931 . S
C2989 C2988 1.391 . S
C2989 C2993 1.374 1_545 S
C2990 C2988 1.394 . S
C2990 C2991 1.369 . S
C2990 C2994 1.531 . S
C2991 C2990 1.369 . S
C2991 C2992 1.410 1_545 S
C2991 C2999 1.503 . S
C2992 C2991 1.410 1_565 S
C2992 C2993 1.392 . S
C2992 C2995 1.511 . S
C2993 C2989 1.374 1_565 S
C2993 C2992 1.392 . S
C2993 H3005 0.931 . S
C2994 C2990 1.531 . S
C2994 H3006 0.960 . S
C2994 H3007 0.962 . S
C2994 H3008 0.960 . S
C2995 C2992 1.511 . S
C2995 H3009 0.961 . S
C2995 H3010 0.961 . S
C2995 H3011 0.961 . S
C2996 C2997 1.370 . S
C2996 C2998 1.363 . S
C2996 H3012 0.931 . S
C2997 C2996 1.370 . S
C2997 C3001 1.408 1_545 S
C2998 C2996 1.363 . S
C2998 C2999 1.370 . S
C2998 C3002 1.524 . S
C2999 C2991 1.503 . S
C2999 C2998 1.370 . S
C2999 C3000 1.403 1_545 S
C3000 C2999 1.403 1_565 S
C3000 C3001 1.404 . S
C3000 C3003 1.539 . S
C3001 C2997 1.408 1_565 S
C3001 C3000 1.404 . S
C3001 H3013 0.930 . S
C3002 C2998 1.524 . S
C3002 H3014 0.956 . S
C3002 H3015 0.961 . S
C3002 H3016 0.961 . S
C3003 C3000 1.539 . S
C3003 H3017 0.958 . S
C3003 H3018 0.961 . S
C3003 H3019 0.960 . S
H3004 C2988 0.931 . S
H3005 C2993 0.931 . S
H3006 C2994 0.960 . S
H3007 C2994 0.962 . S
H3008 C2994 0.960 . S
H3009 C2995 0.961 . S
H3010 C2995 0.961 . S
H3011 C2995 0.961 . S
H3012 C2996 0.931 . S
H3013 C3001 0.930 . S
H3014 C3002 0.956 . S
H3015 C3002 0.961 . S
H3016 C3002 0.961 . S
H3017 C3003 0.958 . S
H3018 C3003 0.961 . S
H3019 C3003 0.960 . S
C3020 C3021 1.391 . S
C3020 C3022 1.394 . S
C3020 H3036 0.931 . S
C3021 C3020 1.391 . S
C3021 C3025 1.376 1_655 S
C3022 C3020 1.394 . S
C3022 C3023 1.369 . S
C3022 C3026 1.531 . S
C3023 C3022 1.369 . S
C3023 C3024 1.410 1_655 S
C3023 C3031 1.503 . S
C3024 C3023 1.410 1_455 S
C3024 C3025 1.392 . S
C3024 C3027 1.511 . S
C3025 C3021 1.376 1_455 S
C3025 C3024 1.392 . S
C3025 H3037 0.929 . S
C3026 C3022 1.531 . S
C3026 H3038 0.960 . S
C3026 H3039 0.962 . S
C3026 H3040 0.960 . S
C3027 C3024 1.511 . S
C3027 H3041 0.961 . S
C3027 H3042 0.961 . S
C3027 H3043 0.961 . S
C3028 C3029 1.428 . S
C3028 C3030 1.363 . S
C3028 H3044 0.931 . S
C3029 C3028 1.428 . S
C3029 C3033 1.371 1_655 S
C3030 C3028 1.363 . S
C3030 C3031 1.370 . S
C3030 C3034 1.524 . S
C3031 C3023 1.503 . S
C3031 C3030 1.370 . S
C3031 C3032 1.403 1_655 S
C3032 C3031 1.403 1_455 S
C3032 C3033 1.404 . S
C3032 C3035 1.539 . S
C3033 C3029 1.371 1_455 S
C3033 C3032 1.404 . S
C3033 H3045 0.930 . S
C3034 C3030 1.524 . S
C3034 H3046 0.956 . S
C3034 H3047 0.961 . S
C3034 H3048 0.961 . S
C3035 C3032 1.539 . S
C3035 H3049 0.958 . S
C3035 H3050 0.961 . S
C3035 H3051 0.960 . S
H3036 C3020 0.931 . S
H3037 C3025 0.929 . S
H3038 C3026 0.960 . S
H3039 C3026 0.962 . S
H3040 C3026 0.960 . S
H3041 C3027 0.961 . S
H3042 C3027 0.961 . S
H3043 C3027 0.961 . S
H3044 C3028 0.931 . S
H3045 C3033 0.930 . S
H3046 C3034 0.956 . S
H3047 C3034 0.961 . S
H3048 C3034 0.961 . S
H3049 C3035 0.958 . S
H3050 C3035 0.961 . S
H3051 C3035 0.960 . S
C3052 C3053 1.391 . S
C3052 C3054 1.394 . S
C3052 H3068 0.931 . S
C3053 C3052 1.391 . S
C3053 C3057 1.376 . S
C3054 C3052 1.394 . S
C3054 C3055 1.369 . S
C3054 C3058 1.531 . S
C3055 C3054 1.369 . S
C3055 C3056 1.410 . S
C3055 C3063 1.503 . S
C3056 C3055 1.410 . S
C3056 C3057 1.392 . S
C3056 C3059 1.511 . S
C3057 C3053 1.376 . S
C3057 C3056 1.392 . S
C3057 H3069 0.929 . S
C3058 C3054 1.531 . S
C3058 H3070 0.960 . S
C3058 H3071 0.962 . S
C3058 H3072 0.960 . S
C3059 C3056 1.511 . S
C3059 H3073 0.961 . S
C3059 H3074 0.961 . S
C3059 H3075 0.961 . S
C3060 C3061 1.370 . S
C3060 C3062 1.363 . S
C3060 H3076 0.931 . S
C3061 C3060 1.370 . S
C3061 C3065 1.408 . S
C3062 C3060 1.363 . S
C3062 C3063 1.370 . S
C3062 C3066 1.524 . S
C3063 C3055 1.503 . S
C3063 C3062 1.370 . S
C3063 C3064 1.403 . S
C3064 C3063 1.403 . S
C3064 C3065 1.404 . S
C3064 C3067 1.539 . S
C3065 C3061 1.408 . S
C3065 C3064 1.404 . S
C3065 H3077 0.930 . S
C3066 C3062 1.524 . S
C3066 H3078 0.956 . S
C3066 H3079 0.961 . S
C3066 H3080 0.961 . S
C3067 C3064 1.539 . S
C3067 H3081 0.958 . S
C3067 H3082 0.961 . S
C3067 H3083 0.960 . S
H3068 C3052 0.931 . S
H3069 C3057 0.929 . S
H3070 C3058 0.960 . S
H3071 C3058 0.962 . S
H3072 C3058 0.960 . S
H3073 C3059 0.961 . S
H3074 C3059 0.961 . S
H3075 C3059 0.961 . S
H3076 C3060 0.931 . S
H3077 C3065 0.930 . S
H3078 C3066 0.956 . S
H3079 C3066 0.961 . S
H3080 C3066 0.961 . S
H3081 C3067 0.958 . S
H3082 C3067 0.961 . S
H3083 C3067 0.960 . S
C3084 C3085 1.391 . S
C3084 C3086 1.394 . S
C3084 H3100 0.931 . S
C3085 C3084 1.391 . S
C3085 C3089 1.376 . S
C3086 C3084 1.394 . S
C3086 C3087 1.369 . S
C3086 C3090 1.531 . S
C3087 C3086 1.369 . S
C3087 C3088 1.410 . S
C3087 C3095 1.503 . S
C3088 C3087 1.410 . S
C3088 C3089 1.392 . S
C3088 C3091 1.511 . S
C3089 C3085 1.376 . S
C3089 C3088 1.392 . S
C3089 H3101 0.929 . S
C3090 C3086 1.531 . S
C3090 H3102 0.960 . S
C3090 H3103 0.962 . S
C3090 H3104 0.960 . S
C3091 C3088 1.511 . S
C3091 H3105 0.961 . S
C3091 H3106 0.961 . S
C3091 H3107 0.961 . S
C3092 C3093 1.370 . S
C3092 C3094 1.363 . S
C3092 H3108 0.931 . S
C3093 C3092 1.370 . S
C3093 C3097 1.408 . S
C3094 C3092 1.363 . S
C3094 C3095 1.370 . S
C3094 C3098 1.524 . S
C3095 C3087 1.503 . S
C3095 C3094 1.370 . S
C3095 C3096 1.403 . S
C3096 C3095 1.403 . S
C3096 C3097 1.404 . S
C3096 C3099 1.539 . S
C3097 C3093 1.408 . S
C3097 C3096 1.404 . S
C3097 H3109 0.930 . S
C3098 C3094 1.524 . S
C3098 H3110 0.956 . S
C3098 H3111 0.961 . S
C3098 H3112 0.961 . S
C3099 C3096 1.539 . S
C3099 H3113 0.958 . S
C3099 H3114 0.961 . S
C3099 H3115 0.960 . S
H3100 C3084 0.931 . S
H3101 C3089 0.929 . S
H3102 C3090 0.960 . S
H3103 C3090 0.962 . S
H3104 C3090 0.960 . S
H3105 C3091 0.961 . S
H3106 C3091 0.961 . S
H3107 C3091 0.961 . S
H3108 C3092 0.931 . S
H3109 C3097 0.930 . S
H3110 C3098 0.956 . S
H3111 C3098 0.961 . S
H3112 C3098 0.961 . S
H3113 C3099 0.958 . S
H3114 C3099 0.961 . S
H3115 C3099 0.960 . S
C3116 C3117 1.391 . S
C3116 C3118 1.394 . S
C3116 H3132 0.931 . S
C3117 C3116 1.391 . S
C3117 C3121 1.376 . S
C3118 C3116 1.394 . S
C3118 C3119 1.369 . S
C3118 C3122 1.531 . S
C3119 C3118 1.369 . S
C3119 C3120 1.410 . S
C3119 C3127 1.503 . S
C3120 C3119 1.410 . S
C3120 C3121 1.392 . S
C3120 C3123 1.511 . S
C3121 C3117 1.376 . S
C3121 C3120 1.392 . S
C3121 H3133 0.929 . S
C3122 C3118 1.531 . S
C3122 H3134 0.960 . S
C3122 H3135 0.962 . S
C3122 H3136 0.960 . S
C3123 C3120 1.511 . S
C3123 H3137 0.961 . S
C3123 H3138 0.961 . S
C3123 H3139 0.961 . S
C3124 C3125 1.370 . S
C3124 C3126 1.363 . S
C3124 H3140 0.931 . S
C3125 C3124 1.370 . S
C3125 C3129 1.408 . S
C3126 C3124 1.363 . S
C3126 C3127 1.370 . S
C3126 C3130 1.524 . S
C3127 C3119 1.503 . S
C3127 C3126 1.370 . S
C3127 C3128 1.403 . S
C3128 C3127 1.403 . S
C3128 C3129 1.404 . S
C3128 C3131 1.539 . S
C3129 C3125 1.408 . S
C3129 C3128 1.404 . S
C3129 H3141 0.930 . S
C3130 C3126 1.524 . S
C3130 H3142 0.956 . S
C3130 H3143 0.961 . S
C3130 H3144 0.961 . S
C3131 C3128 1.539 . S
C3131 H3145 0.958 . S
C3131 H3146 0.961 . S
C3131 H3147 0.960 . S
H3132 C3116 0.931 . S
H3133 C3121 0.929 . S
H3134 C3122 0.960 . S
H3135 C3122 0.962 . S
H3136 C3122 0.960 . S
H3137 C3123 0.961 . S
H3138 C3123 0.961 . S
H3139 C3123 0.961 . S
H3140 C3124 0.931 . S
H3141 C3129 0.930 . S
H3142 C3130 0.956 . S
H3143 C3130 0.961 . S
H3144 C3130 0.961 . S
H3145 C3131 0.958 . S
H3146 C3131 0.961 . S
H3147 C3131 0.960 . S
C3148 C3149 1.391 . S
C3148 C3150 1.394 . S
C3148 H3164 0.931 . S
C3149 C3148 1.391 . S
C3149 C3153 1.376 . S
C3150 C3148 1.394 . S
C3150 C3151 1.369 . S
C3150 C3154 1.531 . S
C3151 C3150 1.369 . S
C3151 C3152 1.410 . S
C3151 C3159 1.503 . S
C3152 C3151 1.410 . S
C3152 C3153 1.392 . S
C3152 C3155 1.511 . S
C3153 C3149 1.376 . S
C3153 C3152 1.392 . S
C3153 H3165 0.929 . S
C3154 C3150 1.531 . S
C3154 H3166 0.960 . S
C3154 H3167 0.962 . S
C3154 H3168 0.960 . S
C3155 C3152 1.511 . S
C3155 H3169 0.961 . S
C3155 H3170 0.961 . S
C3155 H3171 0.961 . S
C3156 C3157 1.370 . S
C3156 C3158 1.363 . S
C3156 H3172 0.931 . S
C3157 C3156 1.370 . S
C3157 C3161 1.408 . S
C3158 C3156 1.363 . S
C3158 C3159 1.370 . S
C3158 C3162 1.524 . S
C3159 C3151 1.503 . S
C3159 C3158 1.370 . S
C3159 C3160 1.403 . S
C3160 C3159 1.403 . S
C3160 C3161 1.404 . S
C3160 C3163 1.539 . S
C3161 C3157 1.408 . S
C3161 C3160 1.404 . S
C3161 H3173 0.930 . S
C3162 C3158 1.524 . S
C3162 H3174 0.956 . S
C3162 H3175 0.961 . S
C3162 H3176 0.961 . S
C3163 C3160 1.539 . S
C3163 H3177 0.958 . S
C3163 H3178 0.961 . S
C3163 H3179 0.960 . S
H3164 C3148 0.931 . S
H3165 C3153 0.929 . S
H3166 C3154 0.960 . S
H3167 C3154 0.962 . S
H3168 C3154 0.960 . S
H3169 C3155 0.961 . S
H3170 C3155 0.961 . S
H3171 C3155 0.961 . S
H3172 C3156 0.931 . S
H3173 C3161 0.930 . S
H3174 C3162 0.956 . S
H3175 C3162 0.961 . S
H3176 C3162 0.961 . S
H3177 C3163 0.958 . S
H3178 C3163 0.961 . S
H3179 C3163 0.960 . S
C3180 C3181 1.391 . S
C3180 C3182 1.394 . S
C3180 H3196 0.931 . S
C3181 C3180 1.391 . S
C3181 C3185 1.376 . S
C3182 C3180 1.394 . S
C3182 C3183 1.369 . S
C3182 C3186 1.531 . S
C3183 C3182 1.369 . S
C3183 C3184 1.410 . S
C3183 C3191 1.503 . S
C3184 C3183 1.410 . S
C3184 C3185 1.392 . S
C3184 C3187 1.511 . S
C3185 C3181 1.376 . S
C3185 C3184 1.392 . S
C3185 H3197 0.929 . S
C3186 C3182 1.531 . S
C3186 H3198 0.960 . S
C3186 H3199 0.962 . S
C3186 H3200 0.960 . S
C3187 C3184 1.511 . S
C3187 H3201 0.961 . S
C3187 H3202 0.961 . S
C3187 H3203 0.961 . S
C3188 C3189 1.370 . S
C3188 C3190 1.363 . S
C3188 H3204 0.931 . S
C3189 C3188 1.370 . S
C3189 C3193 1.408 . S
C3190 C3188 1.363 . S
C3190 C3191 1.370 . S
C3190 C3194 1.524 . S
C3191 C3183 1.503 . S
C3191 C3190 1.370 . S
C3191 C3192 1.403 . S
C3192 C3191 1.403 . S
C3192 C3193 1.404 . S
C3192 C3195 1.539 . S
C3193 C3189 1.408 . S
C3193 C3192 1.404 . S
C3193 H3205 0.930 . S
C3194 C3190 1.524 . S
C3194 H3206 0.956 . S
C3194 H3207 0.961 . S
C3194 H3208 0.961 . S
C3195 C3192 1.539 . S
C3195 H3209 0.958 . S
C3195 H3210 0.961 . S
C3195 H3211 0.960 . S
H3196 C3180 0.931 . S
H3197 C3185 0.929 . S
H3198 C3186 0.960 . S
H3199 C3186 0.962 . S
H3200 C3186 0.960 . S
H3201 C3187 0.961 . S
H3202 C3187 0.961 . S
H3203 C3187 0.961 . S
H3204 C3188 0.931 . S
H3205 C3193 0.930 . S
H3206 C3194 0.956 . S
H3207 C3194 0.961 . S
H3208 C3194 0.961 . S
H3209 C3195 0.958 . S
H3210 C3195 0.961 . S
H3211 C3195 0.960 . S
C3212 C3213 1.391 . S
C3212 C3214 1.394 . S
C3212 H3228 0.931 . S
C3213 C3212 1.391 . S
C3213 C3217 1.376 . S
C3214 C3212 1.394 . S
C3214 C3215 1.369 . S
C3214 C3218 1.531 . S
C3215 C3214 1.369 . S
C3215 C3216 1.410 . S
C3215 C3223 1.503 . S
C3216 C3215 1.410 . S
C3216 C3217 1.392 . S
C3216 C3219 1.511 . S
C3217 C3213 1.376 . S
C3217 C3216 1.392 . S
C3217 H3229 0.929 . S
C3218 C3214 1.531 . S
C3218 H3230 0.960 . S
C3218 H3231 0.962 . S
C3218 H3232 0.960 . S
C3219 C3216 1.511 . S
C3219 H3233 0.961 . S
C3219 H3234 0.961 . S
C3219 H3235 0.961 . S
C3220 C3221 1.370 . S
C3220 C3222 1.363 . S
C3220 H3236 0.931 . S
C3221 C3220 1.370 . S
C3221 C3225 1.408 . S
C3222 C3220 1.363 . S
C3222 C3223 1.370 . S
C3222 C3226 1.524 . S
C3223 C3215 1.503 . S
C3223 C3222 1.370 . S
C3223 C3224 1.403 . S
C3224 C3223 1.403 . S
C3224 C3225 1.404 . S
C3224 C3227 1.539 . S
C3225 C3221 1.408 . S
C3225 C3224 1.404 . S
C3225 H3237 0.930 . S
C3226 C3222 1.524 . S
C3226 H3238 0.956 . S
C3226 H3239 0.961 . S
C3226 H3240 0.961 . S
C3227 C3224 1.539 . S
C3227 H3241 0.958 . S
C3227 H3242 0.961 . S
C3227 H3243 0.960 . S
H3228 C3212 0.931 . S
H3229 C3217 0.929 . S
H3230 C3218 0.960 . S
H3231 C3218 0.962 . S
H3232 C3218 0.960 . S
H3233 C3219 0.961 . S
H3234 C3219 0.961 . S
H3235 C3219 0.961 . S
H3236 C3220 0.931 . S
H3237 C3225 0.930 . S
H3238 C3226 0.956 . S
H3239 C3226 0.961 . S
H3240 C3226 0.961 . S
H3241 C3227 0.958 . S
H3242 C3227 0.961 . S
H3243 C3227 0.960 . S
C3244 C3245 1.391 . S
C3244 C3246 1.394 . S
C3244 H3260 0.931 . S
C3245 C3244 1.391 . S
C3245 C3249 1.376 . S
C3246 C3244 1.394 . S
C3246 C3247 1.369 . S
C3246 C3250 1.531 . S
C3247 C3246 1.369 . S
C3247 C3248 1.410 . S
C3247 C3255 1.503 . S
C3248 C3247 1.410 . S
C3248 C3249 1.392 . S
C3248 C3251 1.511 . S
C3249 C3245 1.376 . S
C3249 C3248 1.392 . S
C3249 H3261 0.929 . S
C3250 C3246 1.531 . S
C3250 H3262 0.960 . S
C3250 H3263 0.962 . S
C3250 H3264 0.960 . S
C3251 C3248 1.511 . S
C3251 H3265 0.961 . S
C3251 H3266 0.961 . S
C3251 H3267 0.961 . S
C3252 C3253 1.370 . S
C3252 C3254 1.363 . S
C3252 H3268 0.931 . S
C3253 C3252 1.370 . S
C3253 C3257 1.408 . S
C3254 C3252 1.363 . S
C3254 C3255 1.370 . S
C3254 C3258 1.524 . S
C3255 C3247 1.503 . S
C3255 C3254 1.370 . S
C3255 C3256 1.403 . S
C3256 C3255 1.403 . S
C3256 C3257 1.404 . S
C3256 C3259 1.539 . S
C3257 C3253 1.408 . S
C3257 C3256 1.404 . S
C3257 H3269 0.930 . S
C3258 C3254 1.524 . S
C3258 H3270 0.956 . S
C3258 H3271 0.961 . S
C3258 H3272 0.961 . S
C3259 C3256 1.539 . S
C3259 H3273 0.958 . S
C3259 H3274 0.961 . S
C3259 H3275 0.960 . S
H3260 C3244 0.931 . S
H3261 C3249 0.929 . S
H3262 C3250 0.960 . S
H3263 C3250 0.962 . S
H3264 C3250 0.960 . S
H3265 C3251 0.961 . S
H3266 C3251 0.961 . S
H3267 C3251 0.961 . S
H3268 C3252 0.931 . S
H3269 C3257 0.930 . S
H3270 C3258 0.956 . S
H3271 C3258 0.961 . S
H3272 C3258 0.961 . S
H3273 C3259 0.958 . S
H3274 C3259 0.961 . S
H3275 C3259 0.960 . S
C3276 C3277 1.391 . S
C3276 C3278 1.394 . S
C3276 H3292 0.931 . S
C3277 C3276 1.391 . S
C3277 C3281 1.376 . S
C3278 C3276 1.394 . S
C3278 C3279 1.369 . S
C3278 C3282 1.531 . S
C3279 C3278 1.369 . S
C3279 C3280 1.410 . S
C3279 C3287 1.503 . S
C3280 C3279 1.410 . S
C3280 C3281 1.392 . S
C3280 C3283 1.511 . S
C3281 C3277 1.376 . S
C3281 C3280 1.392 . S
C3281 H3293 0.929 . S
C3282 C3278 1.531 . S
C3282 H3294 0.960 . S
C3282 H3295 0.962 . S
C3282 H3296 0.960 . S
C3283 C3280 1.511 . S
C3283 H3297 0.961 . S
C3283 H3298 0.961 . S
C3283 H3299 0.961 . S
C3284 C3285 1.370 . S
C3284 C3286 1.363 . S
C3284 H3300 0.931 . S
C3285 C3284 1.370 . S
C3285 C3289 1.408 . S
C3286 C3284 1.363 . S
C3286 C3287 1.370 . S
C3286 C3290 1.524 . S
C3287 C3279 1.503 . S
C3287 C3286 1.370 . S
C3287 C3288 1.403 . S
C3288 C3287 1.403 . S
C3288 C3289 1.404 . S
C3288 C3291 1.539 . S
C3289 C3285 1.408 . S
C3289 C3288 1.404 . S
C3289 H3301 0.930 . S
C3290 C3286 1.524 . S
C3290 H3302 0.956 . S
C3290 H3303 0.961 . S
C3290 H3304 0.961 . S
C3291 C3288 1.539 . S
C3291 H3305 0.958 . S
C3291 H3306 0.961 . S
C3291 H3307 0.960 . S
H3292 C3276 0.931 . S
H3293 C3281 0.929 . S
H3294 C3282 0.960 . S
H3295 C3282 0.962 . S
H3296 C3282 0.960 . S
H3297 C3283 0.961 . S
H3298 C3283 0.961 . S
H3299 C3283 0.961 . S
H3300 C3284 0.931 . S
H3301 C3289 0.930 . S
H3302 C3290 0.956 . S
H3303 C3290 0.961 . S
H3304 C3290 0.961 . S
H3305 C3291 0.958 . S
H3306 C3291 0.961 . S
H3307 C3291 0.960 . S
C3308 C3309 1.391 . S
C3308 C3310 1.394 . S
C3308 H3324 0.931 . S
C3309 C3308 1.391 . S
C3309 C3313 1.376 . S
C3310 C3308 1.394 . S
C3310 C3311 1.369 . S
C3310 C3314 1.531 . S
C3311 C3310 1.369 . S
C3311 C3312 1.410 . S
C3311 C3319 1.503 . S
C3312 C3311 1.410 . S
C3312 C3313 1.392 . S
C3312 C3315 1.511 . S
C3313 C3309 1.376 . S
C3313 C3312 1.392 . S
C3313 H3325 0.929 . S
C3314 C3310 1.531 . S
C3314 H3326 0.960 . S
C3314 H3327 0.962 . S
C3314 H3328 0.960 . S
C3315 C3312 1.511 . S
C3315 H3329 0.961 . S
C3315 H3330 0.961 . S
C3315 H3331 0.961 . S
C3316 C3317 1.370 . S
C3316 C3318 1.363 . S
C3316 H3332 0.931 . S
C3317 C3316 1.370 . S
C3317 C3321 1.408 . S
C3318 C3316 1.363 . S
C3318 C3319 1.370 . S
C3318 C3322 1.524 . S
C3319 C3311 1.503 . S
C3319 C3318 1.370 . S
C3319 C3320 1.403 . S
C3320 C3319 1.403 . S
C3320 C3321 1.404 . S
C3320 C3323 1.539 . S
C3321 C3317 1.408 . S
C3321 C3320 1.404 . S
C3321 H3333 0.930 . S
C3322 C3318 1.524 . S
C3322 H3334 0.956 . S
C3322 H3335 0.961 . S
C3322 H3336 0.961 . S
C3323 C3320 1.539 . S
C3323 H3337 0.958 . S
C3323 H3338 0.961 . S
C3323 H3339 0.960 . S
H3324 C3308 0.931 . S
H3325 C3313 0.929 . S
H3326 C3314 0.960 . S
H3327 C3314 0.962 . S
H3328 C3314 0.960 . S
H3329 C3315 0.961 . S
H3330 C3315 0.961 . S
H3331 C3315 0.961 . S
H3332 C3316 0.931 . S
H3333 C3321 0.930 . S
H3334 C3322 0.956 . S
H3335 C3322 0.961 . S
H3336 C3322 0.961 . S
H3337 C3323 0.958 . S
H3338 C3323 0.961 . S
H3339 C3323 0.960 . S
C3340 C3341 1.391 . S
C3340 C3342 1.394 . S
C3340 H3356 0.931 . S
C3341 C3340 1.391 . S
C3341 C3345 1.376 . S
C3342 C3340 1.394 . S
C3342 C3343 1.369 . S
C3342 C3346 1.531 . S
C3343 C3342 1.369 . S
C3343 C3344 1.410 . S
C3343 C3351 1.503 . S
C3344 C3343 1.410 . S
C3344 C3345 1.392 . S
C3344 C3347 1.511 . S
C3345 C3341 1.376 . S
C3345 C3344 1.392 . S
C3345 H3357 0.929 . S
C3346 C3342 1.531 . S
C3346 H3358 0.960 . S
C3346 H3359 0.962 . S
C3346 H3360 0.960 . S
C3347 C3344 1.511 . S
C3347 H3361 0.961 . S
C3347 H3362 0.961 . S
C3347 H3363 0.961 . S
C3348 C3349 1.370 . S
C3348 C3350 1.363 . S
C3348 H3364 0.931 . S
C3349 C3348 1.370 . S
C3349 C3353 1.408 . S
C3350 C3348 1.363 . S
C3350 C3351 1.370 . S
C3350 C3354 1.524 . S
C3351 C3343 1.503 . S
C3351 C3350 1.370 . S
C3351 C3352 1.403 . S
C3352 C3351 1.403 . S
C3352 C3353 1.404 . S
C3352 C3355 1.539 . S
C3353 C3349 1.408 . S
C3353 C3352 1.404 . S
C3353 H3365 0.930 . S
C3354 C3350 1.524 . S
C3354 H3366 0.956 . S
C3354 H3367 0.961 . S
C3354 H3368 0.961 . S
C3355 C3352 1.539 . S
C3355 H3369 0.958 . S
C3355 H3370 0.961 . S
C3355 H3371 0.960 . S
H3356 C3340 0.931 . S
H3357 C3345 0.929 . S
H3358 C3346 0.960 . S
H3359 C3346 0.962 . S
H3360 C3346 0.960 . S
H3361 C3347 0.961 . S
H3362 C3347 0.961 . S
H3363 C3347 0.961 . S
H3364 C3348 0.931 . S
H3365 C3353 0.930 . S
H3366 C3354 0.956 . S
H3367 C3354 0.961 . S
H3368 C3354 0.961 . S
H3369 C3355 0.958 . S
H3370 C3355 0.961 . S
H3371 C3355 0.960 . S
C3372 C3373 1.391 . S
C3372 C3374 1.394 . S
C3372 H3388 0.931 . S
C3373 C3372 1.391 . S
C3373 C3377 1.376 . S
C3374 C3372 1.394 . S
C3374 C3375 1.369 . S
C3374 C3378 1.531 . S
C3375 C3374 1.369 . S
C3375 C3376 1.410 . S
C3375 C3383 1.503 . S
C3376 C3375 1.410 . S
C3376 C3377 1.392 . S
C3376 C3379 1.511 . S
C3377 C3373 1.376 . S
C3377 C3376 1.392 . S
C3377 H3389 0.929 . S
C3378 C3374 1.531 . S
C3378 H3390 0.960 . S
C3378 H3391 0.962 . S
C3378 H3392 0.960 . S
C3379 C3376 1.511 . S
C3379 H3393 0.961 . S
C3379 H3394 0.961 . S
C3379 H3395 0.961 . S
C3380 C3381 1.370 . S
C3380 C3382 1.363 . S
C3380 H3396 0.931 . S
C3381 C3380 1.370 . S
C3381 C3385 1.408 . S
C3382 C3380 1.363 . S
C3382 C3383 1.370 . S
C3382 C3386 1.524 . S
C3383 C3375 1.503 . S
C3383 C3382 1.370 . S
C3383 C3384 1.403 . S
C3384 C3383 1.403 . S
C3384 C3385 1.404 . S
C3384 C3387 1.539 . S
C3385 C3381 1.408 . S
C3385 C3384 1.404 . S
C3385 H3397 0.930 . S
C3386 C3382 1.524 . S
C3386 H3398 0.956 . S
C3386 H3399 0.961 . S
C3386 H3400 0.961 . S
C3387 C3384 1.539 . S
C3387 H3401 0.958 . S
C3387 H3402 0.961 . S
C3387 H3403 0.960 . S
H3388 C3372 0.931 . S
H3389 C3377 0.929 . S
H3390 C3378 0.960 . S
H3391 C3378 0.962 . S
H3392 C3378 0.960 . S
H3393 C3379 0.961 . S
H3394 C3379 0.961 . S
H3395 C3379 0.961 . S
H3396 C3380 0.931 . S
H3397 C3385 0.930 . S
H3398 C3386 0.956 . S
H3399 C3386 0.961 . S
H3400 C3386 0.961 . S
H3401 C3387 0.958 . S
H3402 C3387 0.961 . S
H3403 C3387 0.960 . S
C3404 C3405 1.391 . S
C3404 C3406 1.394 . S
C3404 H3420 0.931 . S
C3405 C3404 1.391 . S
C3405 C3409 1.376 . S
C3406 C3404 1.394 . S
C3406 C3407 1.369 . S
C3406 C3410 1.531 . S
C3407 C3406 1.369 . S
C3407 C3408 1.410 . S
C3407 C3415 1.503 . S
C3408 C3407 1.410 . S
C3408 C3409 1.392 . S
C3408 C3411 1.511 . S
C3409 C3405 1.376 . S
C3409 C3408 1.392 . S
C3409 H3421 0.929 . S
C3410 C3406 1.531 . S
C3410 H3422 0.960 . S
C3410 H3423 0.962 . S
C3410 H3424 0.960 . S
C3411 C3408 1.511 . S
C3411 H3425 0.961 . S
C3411 H3426 0.961 . S
C3411 H3427 0.961 . S
C3412 C3413 1.370 . S
C3412 C3414 1.363 . S
C3412 H3428 0.931 . S
C3413 C3412 1.370 . S
C3413 C3417 1.408 . S
C3414 C3412 1.363 . S
C3414 C3415 1.370 . S
C3414 C3418 1.524 . S
C3415 C3407 1.503 . S
C3415 C3414 1.370 . S
C3415 C3416 1.403 . S
C3416 C3415 1.403 . S
C3416 C3417 1.404 . S
C3416 C3419 1.539 . S
C3417 C3413 1.408 . S
C3417 C3416 1.404 . S
C3417 H3429 0.930 . S
C3418 C3414 1.524 . S
C3418 H3430 0.956 . S
C3418 H3431 0.961 . S
C3418 H3432 0.961 . S
C3419 C3416 1.539 . S
C3419 H3433 0.958 . S
C3419 H3434 0.961 . S
C3419 H3435 0.960 . S
H3420 C3404 0.931 . S
H3421 C3409 0.929 . S
H3422 C3410 0.960 . S
H3423 C3410 0.962 . S
H3424 C3410 0.960 . S
H3425 C3411 0.961 . S
H3426 C3411 0.961 . S
H3427 C3411 0.961 . S
H3428 C3412 0.931 . S
H3429 C3417 0.930 . S
H3430 C3418 0.956 . S
H3431 C3418 0.961 . S
H3432 C3418 0.961 . S
H3433 C3419 0.958 . S
H3434 C3419 0.961 . S
H3435 C3419 0.960 . S
C3436 C3437 1.391 . S
C3436 C3438 1.394 . S
C3436 H3452 0.931 . S
C3437 C3436 1.391 . S
C3437 C3441 1.376 . S
C3438 C3436 1.394 . S
C3438 C3439 1.369 . S
C3438 C3442 1.531 . S
C3439 C3438 1.369 . S
C3439 C3440 1.410 . S
C3439 C3447 1.503 . S
C3440 C3439 1.410 . S
C3440 C3441 1.392 . S
C3440 C3443 1.511 . S
C3441 C3437 1.376 . S
C3441 C3440 1.392 . S
C3441 H3453 0.929 . S
C3442 C3438 1.531 . S
C3442 H3454 0.960 . S
C3442 H3455 0.962 . S
C3442 H3456 0.960 . S
C3443 C3440 1.511 . S
C3443 H3457 0.961 . S
C3443 H3458 0.961 . S
C3443 H3459 0.961 . S
C3444 C3445 1.370 . S
C3444 C3446 1.363 . S
C3444 H3460 0.931 . S
C3445 C3444 1.370 . S
C3445 C3449 1.408 . S
C3446 C3444 1.363 . S
C3446 C3447 1.370 . S
C3446 C3450 1.524 . S
C3447 C3439 1.503 . S
C3447 C3446 1.370 . S
C3447 C3448 1.403 . S
C3448 C3447 1.403 . S
C3448 C3449 1.404 . S
C3448 C3451 1.539 . S
C3449 C3445 1.408 . S
C3449 C3448 1.404 . S
C3449 H3461 0.930 . S
C3450 C3446 1.524 . S
C3450 H3462 0.956 . S
C3450 H3463 0.961 . S
C3450 H3464 0.961 . S
C3451 C3448 1.539 . S
C3451 H3465 0.958 . S
C3451 H3466 0.961 . S
C3451 H3467 0.960 . S
H3452 C3436 0.931 . S
H3453 C3441 0.929 . S
H3454 C3442 0.960 . S
H3455 C3442 0.962 . S
H3456 C3442 0.960 . S
H3457 C3443 0.961 . S
H3458 C3443 0.961 . S
H3459 C3443 0.961 . S
H3460 C3444 0.931 . S
H3461 C3449 0.930 . S
H3462 C3450 0.956 . S
H3463 C3450 0.961 . S
H3464 C3450 0.961 . S
H3465 C3451 0.958 . S
H3466 C3451 0.961 . S
H3467 C3451 0.960 . S
C3468 C3469 1.391 . S
C3468 C3470 1.394 . S
C3468 H3484 0.931 . S
C3469 C3468 1.391 . S
C3469 C3473 1.376 . S
C3470 C3468 1.394 . S
C3470 C3471 1.369 . S
C3470 C3474 1.531 . S
C3471 C3470 1.369 . S
C3471 C3472 1.410 . S
C3471 C3479 1.503 . S
C3472 C3471 1.410 . S
C3472 C3473 1.392 . S
C3472 C3475 1.511 . S
C3473 C3469 1.376 . S
C3473 C3472 1.392 . S
C3473 H3485 0.929 . S
C3474 C3470 1.531 . S
C3474 H3486 0.960 . S
C3474 H3487 0.962 . S
C3474 H3488 0.960 . S
C3475 C3472 1.511 . S
C3475 H3489 0.961 . S
C3475 H3490 0.961 . S
C3475 H3491 0.961 . S
C3476 C3477 1.370 . S
C3476 C3478 1.363 . S
C3476 H3492 0.931 . S
C3477 C3476 1.370 . S
C3477 C3481 1.408 . S
C3478 C3476 1.363 . S
C3478 C3479 1.370 . S
C3478 C3482 1.524 . S
C3479 C3471 1.503 . S
C3479 C3478 1.370 . S
C3479 C3480 1.403 . S
C3480 C3479 1.403 . S
C3480 C3481 1.404 . S
C3480 C3483 1.539 . S
C3481 C3477 1.408 . S
C3481 C3480 1.404 . S
C3481 H3493 0.930 . S
C3482 C3478 1.524 . S
C3482 H3494 0.956 . S
C3482 H3495 0.961 . S
C3482 H3496 0.961 . S
C3483 C3480 1.539 . S
C3483 H3497 0.958 . S
C3483 H3498 0.961 . S
C3483 H3499 0.960 . S
H3484 C3468 0.931 . S
H3485 C3473 0.929 . S
H3486 C3474 0.960 . S
H3487 C3474 0.962 . S
H3488 C3474 0.960 . S
H3489 C3475 0.961 . S
H3490 C3475 0.961 . S
H3491 C3475 0.961 . S
H3492 C3476 0.931 . S
H3493 C3481 0.930 . S
H3494 C3482 0.956 . S
H3495 C3482 0.961 . S
H3496 C3482 0.961 . S
H3497 C3483 0.958 . S
H3498 C3483 0.961 . S
H3499 C3483 0.960 . S
C3500 C3501 1.391 . S
C3500 C3502 1.394 . S
C3500 H3516 0.931 . S
C3501 C3500 1.391 . S
C3501 C3505 1.376 . S
C3502 C3500 1.394 . S
C3502 C3503 1.369 . S
C3502 C3506 1.531 . S
C3503 C3502 1.369 . S
C3503 C3504 1.410 . S
C3503 C3511 1.503 . S
C3504 C3503 1.410 . S
C3504 C3505 1.392 . S
C3504 C3507 1.511 . S
C3505 C3501 1.376 . S
C3505 C3504 1.392 . S
C3505 H3517 0.929 . S
C3506 C3502 1.531 . S
C3506 H3518 0.960 . S
C3506 H3519 0.962 . S
C3506 H3520 0.960 . S
C3507 C3504 1.511 . S
C3507 H3521 0.961 . S
C3507 H3522 0.961 . S
C3507 H3523 0.961 . S
C3508 C3509 1.370 . S
C3508 C3510 1.363 . S
C3508 H3524 0.931 . S
C3509 C3508 1.370 . S
C3509 C3513 1.408 . S
C3510 C3508 1.363 . S
C3510 C3511 1.370 . S
C3510 C3514 1.524 . S
C3511 C3503 1.503 . S
C3511 C3510 1.370 . S
C3511 C3512 1.403 . S
C3512 C3511 1.403 . S
C3512 C3513 1.404 . S
C3512 C3515 1.539 . S
C3513 C3509 1.408 . S
C3513 C3512 1.404 . S
C3513 H3525 0.930 . S
C3514 C3510 1.524 . S
C3514 H3526 0.956 . S
C3514 H3527 0.961 . S
C3514 H3528 0.961 . S
C3515 C3512 1.539 . S
C3515 H3529 0.958 . S
C3515 H3530 0.961 . S
C3515 H3531 0.960 . S
H3516 C3500 0.931 . S
H3517 C3505 0.929 . S
H3518 C3506 0.960 . S
H3519 C3506 0.962 . S
H3520 C3506 0.960 . S
H3521 C3507 0.961 . S
H3522 C3507 0.961 . S
H3523 C3507 0.961 . S
H3524 C3508 0.931 . S
H3525 C3513 0.930 . S
H3526 C3514 0.956 . S
H3527 C3514 0.961 . S
H3528 C3514 0.961 . S
H3529 C3515 0.958 . S
H3530 C3515 0.961 . S
H3531 C3515 0.960 . S
C3532 C3533 1.391 . S
C3532 C3534 1.394 . S
C3532 H3548 0.931 . S
C3533 C3532 1.391 . S
C3533 C3537 1.376 . S
C3534 C3532 1.394 . S
C3534 C3535 1.369 . S
C3534 C3538 1.531 . S
C3535 C3534 1.369 . S
C3535 C3536 1.410 . S
C3535 C3543 1.503 . S
C3536 C3535 1.410 . S
C3536 C3537 1.392 . S
C3536 C3539 1.511 . S
C3537 C3533 1.376 . S
C3537 C3536 1.392 . S
C3537 H3549 0.929 . S
C3538 C3534 1.531 . S
C3538 H3550 0.960 . S
C3538 H3551 0.962 . S
C3538 H3552 0.960 . S
C3539 C3536 1.511 . S
C3539 H3553 0.961 . S
C3539 H3554 0.961 . S
C3539 H3555 0.961 . S
C3540 C3541 1.370 . S
C3540 C3542 1.363 . S
C3540 H3556 0.931 . S
C3541 C3540 1.370 . S
C3541 C3545 1.408 . S
C3542 C3540 1.363 . S
C3542 C3543 1.370 . S
C3542 C3546 1.524 . S
C3543 C3535 1.503 . S
C3543 C3542 1.370 . S
C3543 C3544 1.403 . S
C3544 C3543 1.403 . S
C3544 C3545 1.404 . S
C3544 C3547 1.539 . S
C3545 C3541 1.408 . S
C3545 C3544 1.404 . S
C3545 H3557 0.930 . S
C3546 C3542 1.524 . S
C3546 H3558 0.956 . S
C3546 H3559 0.961 . S
C3546 H3560 0.961 . S
C3547 C3544 1.539 . S
C3547 H3561 0.958 . S
C3547 H3562 0.961 . S
C3547 H3563 0.960 . S
H3548 C3532 0.931 . S
H3549 C3537 0.929 . S
H3550 C3538 0.960 . S
H3551 C3538 0.962 . S
H3552 C3538 0.960 . S
H3553 C3539 0.961 . S
H3554 C3539 0.961 . S
H3555 C3539 0.961 . S
H3556 C3540 0.931 . S
H3557 C3545 0.930 . S
H3558 C3546 0.956 . S
H3559 C3546 0.961 . S
H3560 C3546 0.961 . S
H3561 C3547 0.958 . S
H3562 C3547 0.961 . S
H3563 C3547 0.960 . S
C3564 C3565 1.391 . S
C3564 C3566 1.394 . S
C3564 H3580 0.931 . S
C3565 C3564 1.391 . S
C3565 C3569 1.376 . S
C3566 C3564 1.394 . S
C3566 C3567 1.369 . S
C3566 C3570 1.531 . S
C3567 C3566 1.369 . S
C3567 C3568 1.410 . S
C3567 C3575 1.503 . S
C3568 C3567 1.410 . S
C3568 C3569 1.392 . S
C3568 C3571 1.511 . S
C3569 C3565 1.376 . S
C3569 C3568 1.392 . S
C3569 H3581 0.929 . S
C3570 C3566 1.531 . S
C3570 H3582 0.960 . S
C3570 H3583 0.962 . S
C3570 H3584 0.960 . S
C3571 C3568 1.511 . S
C3571 H3585 0.961 . S
C3571 H3586 0.961 . S
C3571 H3587 0.961 . S
C3572 C3573 1.370 . S
C3572 C3574 1.363 . S
C3572 H3588 0.931 . S
C3573 C3572 1.370 . S
C3573 C3577 1.408 . S
C3574 C3572 1.363 . S
C3574 C3575 1.370 . S
C3574 C3578 1.524 . S
C3575 C3567 1.503 . S
C3575 C3574 1.370 . S
C3575 C3576 1.403 . S
C3576 C3575 1.403 . S
C3576 C3577 1.404 . S
C3576 C3579 1.539 . S
C3577 C3573 1.408 . S
C3577 C3576 1.404 . S
C3577 H3589 0.930 . S
C3578 C3574 1.524 . S
C3578 H3590 0.956 . S
C3578 H3591 0.961 . S
C3578 H3592 0.961 . S
C3579 C3576 1.539 . S
C3579 H3593 0.958 . S
C3579 H3594 0.961 . S
C3579 H3595 0.960 . S
H3580 C3564 0.931 . S
H3581 C3569 0.929 . S
H3582 C3570 0.960 . S
H3583 C3570 0.962 . S
H3584 C3570 0.960 . S
H3585 C3571 0.961 . S
H3586 C3571 0.961 . S
H3587 C3571 0.961 . S
H3588 C3572 0.931 . S
H3589 C3577 0.930 . S
H3590 C3578 0.956 . S
H3591 C3578 0.961 . S
H3592 C3578 0.961 . S
H3593 C3579 0.958 . S
H3594 C3579 0.961 . S
H3595 C3579 0.960 . S
C3596 C3597 1.391 . S
C3596 C3598 1.394 . S
C3596 H3612 0.931 . S
C3597 C3596 1.391 . S
C3597 C3601 1.376 . S
C3598 C3596 1.394 . S
C3598 C3599 1.369 . S
C3598 C3602 1.531 . S
C3599 C3598 1.369 . S
C3599 C3600 1.410 . S
C3599 C3607 1.503 . S
C3600 C3599 1.410 . S
C3600 C3601 1.392 . S
C3600 C3603 1.511 . S
C3601 C3597 1.376 . S
C3601 C3600 1.392 . S
C3601 H3613 0.929 . S
C3602 C3598 1.531 . S
C3602 H3614 0.960 . S
C3602 H3615 0.962 . S
C3602 H3616 0.960 . S
C3603 C3600 1.511 . S
C3603 H3617 0.961 . S
C3603 H3618 0.961 . S
C3603 H3619 0.961 . S
C3604 C3605 1.370 . S
C3604 C3606 1.363 . S
C3604 H3620 0.931 . S
C3605 C3604 1.370 . S
C3605 C3609 1.408 . S
C3606 C3604 1.363 . S
C3606 C3607 1.370 . S
C3606 C3610 1.524 . S
C3607 C3599 1.503 . S
C3607 C3606 1.370 . S
C3607 C3608 1.403 . S
C3608 C3607 1.403 . S
C3608 C3609 1.404 . S
C3608 C3611 1.539 . S
C3609 C3605 1.408 . S
C3609 C3608 1.404 . S
C3609 H3621 0.930 . S
C3610 C3606 1.524 . S
C3610 H3622 0.956 . S
C3610 H3623 0.961 . S
C3610 H3624 0.961 . S
C3611 C3608 1.539 . S
C3611 H3625 0.958 . S
C3611 H3626 0.961 . S
C3611 H3627 0.960 . S
H3612 C3596 0.931 . S
H3613 C3601 0.929 . S
H3614 C3602 0.960 . S
H3615 C3602 0.962 . S
H3616 C3602 0.960 . S
H3617 C3603 0.961 . S
H3618 C3603 0.961 . S
H3619 C3603 0.961 . S
H3620 C3604 0.931 . S
H3621 C3609 0.930 . S
H3622 C3610 0.956 . S
H3623 C3610 0.961 . S
H3624 C3610 0.961 . S
H3625 C3611 0.958 . S
H3626 C3611 0.961 . S
H3627 C3611 0.960 . S
C3628 C3629 1.391 . S
C3628 C3630 1.394 . S
C3628 H3644 0.931 . S
C3629 C3628 1.391 . S
C3629 C3633 1.376 . S
C3630 C3628 1.394 . S
C3630 C3631 1.369 . S
C3630 C3634 1.531 . S
C3631 C3630 1.369 . S
C3631 C3632 1.410 . S
C3631 C3639 1.503 . S
C3632 C3631 1.410 . S
C3632 C3633 1.392 . S
C3632 C3635 1.511 . S
C3633 C3629 1.376 . S
C3633 C3632 1.392 . S
C3633 H3645 0.929 . S
C3634 C3630 1.531 . S
C3634 H3646 0.960 . S
C3634 H3647 0.962 . S
C3634 H3648 0.960 . S
C3635 C3632 1.511 . S
C3635 H3649 0.961 . S
C3635 H3650 0.961 . S
C3635 H3651 0.961 . S
C3636 C3637 1.370 . S
C3636 C3638 1.363 . S
C3636 H3652 0.931 . S
C3637 C3636 1.370 . S
C3637 C3641 1.408 . S
C3638 C3636 1.363 . S
C3638 C3639 1.370 . S
C3638 C3642 1.524 . S
C3639 C3631 1.503 . S
C3639 C3638 1.370 . S
C3639 C3640 1.403 . S
C3640 C3639 1.403 . S
C3640 C3641 1.404 . S
C3640 C3643 1.539 . S
C3641 C3637 1.408 . S
C3641 C3640 1.404 . S
C3641 H3653 0.930 . S
C3642 C3638 1.524 . S
C3642 H3654 0.956 . S
C3642 H3655 0.961 . S
C3642 H3656 0.961 . S
C3643 C3640 1.539 . S
C3643 H3657 0.958 . S
C3643 H3658 0.961 . S
C3643 H3659 0.960 . S
H3644 C3628 0.931 . S
H3645 C3633 0.929 . S
H3646 C3634 0.960 . S
H3647 C3634 0.962 . S
H3648 C3634 0.960 . S
H3649 C3635 0.961 . S
H3650 C3635 0.961 . S
H3651 C3635 0.961 . S
H3652 C3636 0.931 . S
H3653 C3641 0.930 . S
H3654 C3642 0.956 . S
H3655 C3642 0.961 . S
H3656 C3642 0.961 . S
H3657 C3643 0.958 . S
H3658 C3643 0.961 . S
H3659 C3643 0.960 . S
C3660 C3661 1.391 . S
C3660 C3662 1.394 . S
C3660 H3676 0.931 . S
C3661 C3660 1.391 . S
C3661 C3665 1.376 . S
C3662 C3660 1.394 . S
C3662 C3663 1.369 . S
C3662 C3666 1.531 . S
C3663 C3662 1.369 . S
C3663 C3664 1.410 . S
C3663 C3671 1.503 . S
C3664 C3663 1.410 . S
C3664 C3665 1.392 . S
C3664 C3667 1.511 . S
C3665 C3661 1.376 . S
C3665 C3664 1.392 . S
C3665 H3677 0.929 . S
C3666 C3662 1.531 . S
C3666 H3678 0.960 . S
C3666 H3679 0.962 . S
C3666 H3680 0.960 . S
C3667 C3664 1.511 . S
C3667 H3681 0.961 . S
C3667 H3682 0.961 . S
C3667 H3683 0.961 . S
C3668 C3669 1.370 . S
C3668 C3670 1.363 . S
C3668 H3684 0.931 . S
C3669 C3668 1.370 . S
C3669 C3673 1.408 . S
C3670 C3668 1.363 . S
C3670 C3671 1.370 . S
C3670 C3674 1.524 . S
C3671 C3663 1.503 . S
C3671 C3670 1.370 . S
C3671 C3672 1.403 . S
C3672 C3671 1.403 . S
C3672 C3673 1.404 . S
C3672 C3675 1.539 . S
C3673 C3669 1.408 . S
C3673 C3672 1.404 . S
C3673 H3685 0.930 . S
C3674 C3670 1.524 . S
C3674 H3686 0.956 . S
C3674 H3687 0.961 . S
C3674 H3688 0.961 . S
C3675 C3672 1.539 . S
C3675 H3689 0.958 . S
C3675 H3690 0.961 . S
C3675 H3691 0.960 . S
H3676 C3660 0.931 . S
H3677 C3665 0.929 . S
H3678 C3666 0.960 . S
H3679 C3666 0.962 . S
H3680 C3666 0.960 . S
H3681 C3667 0.961 . S
H3682 C3667 0.961 . S
H3683 C3667 0.961 . S
H3684 C3668 0.931 . S
H3685 C3673 0.930 . S
H3686 C3674 0.956 . S
H3687 C3674 0.961 . S
H3688 C3674 0.961 . S
H3689 C3675 0.958 . S
H3690 C3675 0.961 . S
H3691 C3675 0.960 . S
C3692 C3693 1.391 . S
C3692 C3694 1.394 . S
C3692 H3708 0.931 . S
C3693 C3692 1.391 . S
C3693 C3697 1.376 . S
C3694 C3692 1.394 . S
C3694 C3695 1.369 . S
C3694 C3698 1.531 . S
C3695 C3694 1.369 . S
C3695 C3696 1.410 . S
C3695 C3703 1.503 . S
C3696 C3695 1.410 . S
C3696 C3697 1.392 . S
C3696 C3699 1.511 . S
C3697 C3693 1.376 . S
C3697 C3696 1.392 . S
C3697 H3709 0.929 . S
C3698 C3694 1.531 . S
C3698 H3710 0.960 . S
C3698 H3711 0.962 . S
C3698 H3712 0.960 . S
C3699 C3696 1.511 . S
C3699 H3713 0.961 . S
C3699 H3714 0.961 . S
C3699 H3715 0.961 . S
C3700 C3701 1.370 . S
C3700 C3702 1.363 . S
C3700 H3716 0.931 . S
C3701 C3700 1.370 . S
C3701 C3705 1.408 . S
C3702 C3700 1.363 . S
C3702 C3703 1.370 . S
C3702 C3706 1.524 . S
C3703 C3695 1.503 . S
C3703 C3702 1.370 . S
C3703 C3704 1.403 . S
C3704 C3703 1.403 . S
C3704 C3705 1.404 . S
C3704 C3707 1.539 . S
C3705 C3701 1.408 . S
C3705 C3704 1.404 . S
C3705 H3717 0.930 . S
C3706 C3702 1.524 . S
C3706 H3718 0.956 . S
C3706 H3719 0.961 . S
C3706 H3720 0.961 . S
C3707 C3704 1.539 . S
C3707 H3721 0.958 . S
C3707 H3722 0.961 . S
C3707 H3723 0.960 . S
H3708 C3692 0.931 . S
H3709 C3697 0.929 . S
H3710 C3698 0.960 . S
H3711 C3698 0.962 . S
H3712 C3698 0.960 . S
H3713 C3699 0.961 . S
H3714 C3699 0.961 . S
H3715 C3699 0.961 . S
H3716 C3700 0.931 . S
H3717 C3705 0.930 . S
H3718 C3706 0.956 . S
H3719 C3706 0.961 . S
H3720 C3706 0.961 . S
H3721 C3707 0.958 . S
H3722 C3707 0.961 . S
H3723 C3707 0.960 . S
C3724 C3725 1.391 . S
C3724 C3726 1.394 . S
C3724 H3740 0.931 . S
C3725 C3724 1.391 . S
C3725 C3729 1.376 . S
C3726 C3724 1.394 . S
C3726 C3727 1.369 . S
C3726 C3730 1.531 . S
C3727 C3726 1.369 . S
C3727 C3728 1.410 . S
C3727 C3735 1.503 . S
C3728 C3727 1.410 . S
C3728 C3729 1.392 . S
C3728 C3731 1.511 . S
C3729 C3725 1.376 . S
C3729 C3728 1.392 . S
C3729 H3741 0.929 . S
C3730 C3726 1.531 . S
C3730 H3742 0.960 . S
C3730 H3743 0.962 . S
C3730 H3744 0.960 . S
C3731 C3728 1.511 . S
C3731 H3745 0.961 . S
C3731 H3746 0.961 . S
C3731 H3747 0.961 . S
C3732 C3733 1.370 . S
C3732 C3734 1.363 . S
C3732 H3748 0.931 . S
C3733 C3732 1.370 . S
C3733 C3737 1.408 . S
C3734 C3732 1.363 . S
C3734 C3735 1.370 . S
C3734 C3738 1.524 . S
C3735 C3727 1.503 . S
C3735 C3734 1.370 . S
C3735 C3736 1.403 . S
C3736 C3735 1.403 . S
C3736 C3737 1.404 . S
C3736 C3739 1.539 . S
C3737 C3733 1.408 . S
C3737 C3736 1.404 . S
C3737 H3749 0.930 . S
C3738 C3734 1.524 . S
C3738 H3750 0.956 . S
C3738 H3751 0.961 . S
C3738 H3752 0.961 . S
C3739 C3736 1.539 . S
C3739 H3753 0.958 . S
C3739 H3754 0.961 . S
C3739 H3755 0.960 . S
H3740 C3724 0.931 . S
H3741 C3729 0.929 . S
H3742 C3730 0.960 . S
H3743 C3730 0.962 . S
H3744 C3730 0.960 . S
H3745 C3731 0.961 . S
H3746 C3731 0.961 . S
H3747 C3731 0.961 . S
H3748 C3732 0.931 . S
H3749 C3737 0.930 . S
H3750 C3738 0.956 . S
H3751 C3738 0.961 . S
H3752 C3738 0.961 . S
H3753 C3739 0.958 . S
H3754 C3739 0.961 . S
H3755 C3739 0.960 . S
C3756 C3757 1.391 . S
C3756 C3758 1.394 . S
C3756 H3772 0.931 . S
C3757 C3756 1.391 . S
C3757 C3761 1.376 . S
C3758 C3756 1.394 . S
C3758 C3759 1.369 . S
C3758 C3762 1.531 . S
C3759 C3758 1.369 . S
C3759 C3760 1.410 . S
C3759 C3767 1.503 . S
C3760 C3759 1.410 . S
C3760 C3761 1.392 . S
C3760 C3763 1.511 . S
C3761 C3757 1.376 . S
C3761 C3760 1.392 . S
C3761 H3773 0.929 . S
C3762 C3758 1.531 . S
C3762 H3774 0.960 . S
C3762 H3775 0.962 . S
C3762 H3776 0.960 . S
C3763 C3760 1.511 . S
C3763 H3777 0.961 . S
C3763 H3778 0.961 . S
C3763 H3779 0.961 . S
C3764 C3765 1.370 . S
C3764 C3766 1.363 . S
C3764 H3780 0.931 . S
C3765 C3764 1.370 . S
C3765 C3769 1.408 . S
C3766 C3764 1.363 . S
C3766 C3767 1.370 . S
C3766 C3770 1.524 . S
C3767 C3759 1.503 . S
C3767 C3766 1.370 . S
C3767 C3768 1.403 . S
C3768 C3767 1.403 . S
C3768 C3769 1.404 . S
C3768 C3771 1.539 . S
C3769 C3765 1.408 . S
C3769 C3768 1.404 . S
C3769 H3781 0.930 . S
C3770 C3766 1.524 . S
C3770 H3782 0.956 . S
C3770 H3783 0.961 . S
C3770 H3784 0.961 . S
C3771 C3768 1.539 . S
C3771 H3785 0.958 . S
C3771 H3786 0.961 . S
C3771 H3787 0.960 . S
H3772 C3756 0.931 . S
H3773 C3761 0.929 . S
H3774 C3762 0.960 . S
H3775 C3762 0.962 . S
H3776 C3762 0.960 . S
H3777 C3763 0.961 . S
H3778 C3763 0.961 . S
H3779 C3763 0.961 . S
H3780 C3764 0.931 . S
H3781 C3769 0.930 . S
H3782 C3770 0.956 . S
H3783 C3770 0.961 . S
H3784 C3770 0.961 . S
H3785 C3771 0.958 . S
H3786 C3771 0.961 . S
H3787 C3771 0.960 . S
C3788 C3789 1.391 . S
C3788 C3790 1.394 . S
C3788 H3804 0.931 . S
C3789 C3788 1.391 . S
C3789 C3793 1.376 . S
C3790 C3788 1.394 . S
C3790 C3791 1.369 . S
C3790 C3794 1.531 . S
C3791 C3790 1.369 . S
C3791 C3792 1.410 . S
C3791 C3799 1.503 . S
C3792 C3791 1.410 . S
C3792 C3793 1.392 . S
C3792 C3795 1.511 . S
C3793 C3789 1.376 . S
C3793 C3792 1.392 . S
C3793 H3805 0.929 . S
C3794 C3790 1.531 . S
C3794 H3806 0.960 . S
C3794 H3807 0.962 . S
C3794 H3808 0.960 . S
C3795 C3792 1.511 . S
C3795 H3809 0.961 . S
C3795 H3810 0.961 . S
C3795 H3811 0.961 . S
C3796 C3797 1.370 . S
C3796 C3798 1.363 . S
C3796 H3812 0.931 . S
C3797 C3796 1.370 . S
C3797 C3801 1.408 . S
C3798 C3796 1.363 . S
C3798 C3799 1.370 . S
C3798 C3802 1.524 . S
C3799 C3791 1.503 . S
C3799 C3798 1.370 . S
C3799 C3800 1.403 . S
C3800 C3799 1.403 . S
C3800 C3801 1.404 . S
C3800 C3803 1.539 . S
C3801 C3797 1.408 . S
C3801 C3800 1.404 . S
C3801 H3813 0.930 . S
C3802 C3798 1.524 . S
C3802 H3814 0.956 . S
C3802 H3815 0.961 . S
C3802 H3816 0.961 . S
C3803 C3800 1.539 . S
C3803 H3817 0.958 . S
C3803 H3818 0.961 . S
C3803 H3819 0.960 . S
H3804 C3788 0.931 . S
H3805 C3793 0.929 . S
H3806 C3794 0.960 . S
H3807 C3794 0.962 . S
H3808 C3794 0.960 . S
H3809 C3795 0.961 . S
H3810 C3795 0.961 . S
H3811 C3795 0.961 . S
H3812 C3796 0.931 . S
H3813 C3801 0.930 . S
H3814 C3802 0.956 . S
H3815 C3802 0.961 . S
H3816 C3802 0.961 . S
H3817 C3803 0.958 . S
H3818 C3803 0.961 . S
H3819 C3803 0.960 . S
C3820 C3821 1.391 . S
C3820 C3822 1.394 . S
C3820 H3836 0.931 . S
C3821 C3820 1.391 . S
C3821 C3825 1.376 . S
C3822 C3820 1.394 . S
C3822 C3823 1.369 . S
C3822 C3826 1.531 . S
C3823 C3822 1.369 . S
C3823 C3824 1.410 . S
C3823 C3831 1.503 . S
C3824 C3823 1.410 . S
C3824 C3825 1.392 . S
C3824 C3827 1.511 . S
C3825 C3821 1.376 . S
C3825 C3824 1.392 . S
C3825 H3837 0.929 . S
C3826 C3822 1.531 . S
C3826 H3838 0.960 . S
C3826 H3839 0.962 . S
C3826 H3840 0.960 . S
C3827 C3824 1.511 . S
C3827 H3841 0.961 . S
C3827 H3842 0.961 . S
C3827 H3843 0.961 . S
C3828 C3829 1.370 . S
C3828 C3830 1.363 . S
C3828 H3844 0.931 . S
C3829 C3828 1.370 . S
C3829 C3833 1.408 . S
C3830 C3828 1.363 . S
C3830 C3831 1.370 . S
C3830 C3834 1.524 . S
C3831 C3823 1.503 . S
C3831 C3830 1.370 . S
C3831 C3832 1.403 . S
C3832 C3831 1.403 . S
C3832 C3833 1.404 . S
C3832 C3835 1.539 . S
C3833 C3829 1.408 . S
C3833 C3832 1.404 . S
C3833 H3845 0.930 . S
C3834 C3830 1.524 . S
C3834 H3846 0.956 . S
C3834 H3847 0.961 . S
C3834 H3848 0.961 . S
C3835 C3832 1.539 . S
C3835 H3849 0.958 . S
C3835 H3850 0.961 . S
C3835 H3851 0.960 . S
H3836 C3820 0.931 . S
H3837 C3825 0.929 . S
H3838 C3826 0.960 . S
H3839 C3826 0.962 . S
H3840 C3826 0.960 . S
H3841 C3827 0.961 . S
H3842 C3827 0.961 . S
H3843 C3827 0.961 . S
H3844 C3828 0.931 . S
H3845 C3833 0.930 . S
H3846 C3834 0.956 . S
H3847 C3834 0.961 . S
H3848 C3834 0.961 . S
H3849 C3835 0.958 . S
H3850 C3835 0.961 . S
H3851 C3835 0.960 . S
C3852 C3853 1.391 . S
C3852 C3854 1.394 . S
C3852 H3868 0.931 . S
C3853 C3852 1.391 . S
C3853 C3857 1.376 . S
C3854 C3852 1.394 . S
C3854 C3855 1.369 . S
C3854 C3858 1.531 . S
C3855 C3854 1.369 . S
C3855 C3856 1.410 . S
C3855 C3863 1.503 . S
C3856 C3855 1.410 . S
C3856 C3857 1.392 . S
C3856 C3859 1.511 . S
C3857 C3853 1.376 . S
C3857 C3856 1.392 . S
C3857 H3869 0.929 . S
C3858 C3854 1.531 . S
C3858 H3870 0.960 . S
C3858 H3871 0.962 . S
C3858 H3872 0.960 . S
C3859 C3856 1.511 . S
C3859 H3873 0.961 . S
C3859 H3874 0.961 . S
C3859 H3875 0.961 . S
C3860 C3861 1.370 . S
C3860 C3862 1.363 . S
C3860 H3876 0.931 . S
C3861 C3860 1.370 . S
C3861 C3865 1.408 . S
C3862 C3860 1.363 . S
C3862 C3863 1.370 . S
C3862 C3866 1.524 . S
C3863 C3855 1.503 . S
C3863 C3862 1.370 . S
C3863 C3864 1.403 . S
C3864 C3863 1.403 . S
C3864 C3865 1.404 . S
C3864 C3867 1.539 . S
C3865 C3861 1.408 . S
C3865 C3864 1.404 . S
C3865 H3877 0.930 . S
C3866 C3862 1.524 . S
C3866 H3878 0.956 . S
C3866 H3879 0.961 . S
C3866 H3880 0.961 . S
C3867 C3864 1.539 . S
C3867 H3881 0.958 . S
C3867 H3882 0.961 . S
C3867 H3883 0.960 . S
H3868 C3852 0.931 . S
H3869 C3857 0.929 . S
H3870 C3858 0.960 . S
H3871 C3858 0.962 . S
H3872 C3858 0.960 . S
H3873 C3859 0.961 . S
H3874 C3859 0.961 . S
H3875 C3859 0.961 . S
H3876 C3860 0.931 . S
H3877 C3865 0.930 . S
H3878 C3866 0.956 . S
H3879 C3866 0.961 . S
H3880 C3866 0.961 . S
H3881 C3867 0.958 . S
H3882 C3867 0.961 . S
H3883 C3867 0.960 . S
C3884 C3885 1.391 . S
C3884 C3886 1.394 . S
C3884 H3900 0.931 . S
C3885 C3884 1.391 . S
C3885 C3889 1.376 . S
C3886 C3884 1.394 . S
C3886 C3887 1.369 . S
C3886 C3890 1.531 . S
C3887 C3886 1.369 . S
C3887 C3888 1.410 . S
C3887 C3895 1.503 . S
C3888 C3887 1.410 . S
C3888 C3889 1.392 . S
C3888 C3891 1.511 . S
C3889 C3885 1.376 . S
C3889 C3888 1.392 . S
C3889 H3901 0.929 . S
C3890 C3886 1.531 . S
C3890 H3902 0.960 . S
C3890 H3903 0.962 . S
C3890 H3904 0.960 . S
C3891 C3888 1.511 . S
C3891 H3905 0.961 . S
C3891 H3906 0.961 . S
C3891 H3907 0.961 . S
C3892 C3893 1.370 . S
C3892 C3894 1.363 . S
C3892 H3908 0.931 . S
C3893 C3892 1.370 . S
C3893 C3897 1.408 . S
C3894 C3892 1.363 . S
C3894 C3895 1.370 . S
C3894 C3898 1.524 . S
C3895 C3887 1.503 . S
C3895 C3894 1.370 . S
C3895 C3896 1.403 . S
C3896 C3895 1.403 . S
C3896 C3897 1.404 . S
C3896 C3899 1.539 . S
C3897 C3893 1.408 . S
C3897 C3896 1.404 . S
C3897 H3909 0.930 . S
C3898 C3894 1.524 . S
C3898 H3910 0.956 . S
C3898 H3911 0.961 . S
C3898 H3912 0.961 . S
C3899 C3896 1.539 . S
C3899 H3913 0.958 . S
C3899 H3914 0.961 . S
C3899 H3915 0.960 . S
H3900 C3884 0.931 . S
H3901 C3889 0.929 . S
H3902 C3890 0.960 . S
H3903 C3890 0.962 . S
H3904 C3890 0.960 . S
H3905 C3891 0.961 . S
H3906 C3891 0.961 . S
H3907 C3891 0.961 . S
H3908 C3892 0.931 . S
H3909 C3897 0.930 . S
H3910 C3898 0.956 . S
H3911 C3898 0.961 . S
H3912 C3898 0.961 . S
H3913 C3899 0.958 . S
H3914 C3899 0.961 . S
H3915 C3899 0.960 . S
C3916 C3917 1.391 . S
C3916 C3918 1.394 . S
C3916 H3932 0.931 . S
C3917 C3916 1.391 . S
C3917 C3921 1.376 . S
C3918 C3916 1.394 . S
C3918 C3919 1.369 . S
C3918 C3922 1.531 . S
C3919 C3918 1.369 . S
C3919 C3920 1.410 . S
C3919 C3927 1.503 . S
C3920 C3919 1.410 . S
C3920 C3921 1.392 . S
C3920 C3923 1.511 . S
C3921 C3917 1.376 . S
C3921 C3920 1.392 . S
C3921 H3933 0.929 . S
C3922 C3918 1.531 . S
C3922 H3934 0.960 . S
C3922 H3935 0.962 . S
C3922 H3936 0.960 . S
C3923 C3920 1.511 . S
C3923 H3937 0.961 . S
C3923 H3938 0.961 . S
C3923 H3939 0.961 . S
C3924 C3925 1.370 . S
C3924 C3926 1.363 . S
C3924 H3940 0.931 . S
C3925 C3924 1.370 . S
C3925 C3929 1.408 . S
C3926 C3924 1.363 . S
C3926 C3927 1.370 . S
C3926 C3930 1.524 . S
C3927 C3919 1.503 . S
C3927 C3926 1.370 . S
C3927 C3928 1.403 . S
C3928 C3927 1.403 . S
C3928 C3929 1.404 . S
C3928 C3931 1.539 . S
C3929 C3925 1.408 . S
C3929 C3928 1.404 . S
C3929 H3941 0.930 . S
C3930 C3926 1.524 . S
C3930 H3942 0.956 . S
C3930 H3943 0.961 . S
C3930 H3944 0.961 . S
C3931 C3928 1.539 . S
C3931 H3945 0.958 . S
C3931 H3946 0.961 . S
C3931 H3947 0.960 . S
H3932 C3916 0.931 . S
H3933 C3921 0.929 . S
H3934 C3922 0.960 . S
H3935 C3922 0.962 . S
H3936 C3922 0.960 . S
H3937 C3923 0.961 . S
H3938 C3923 0.961 . S
H3939 C3923 0.961 . S
H3940 C3924 0.931 . S
H3941 C3929 0.930 . S
H3942 C3930 0.956 . S
H3943 C3930 0.961 . S
H3944 C3930 0.961 . S
H3945 C3931 0.958 . S
H3946 C3931 0.961 . S
H3947 C3931 0.960 . S
C3948 C3949 1.391 . S
C3948 C3950 1.394 . S
C3948 H3964 0.931 . S
C3949 C3948 1.391 . S
C3949 C3953 1.376 . S
C3950 C3948 1.394 . S
C3950 C3951 1.369 . S
C3950 C3954 1.531 . S
C3951 C3950 1.369 . S
C3951 C3952 1.410 . S
C3951 C3959 1.503 . S
C3952 C3951 1.410 . S
C3952 C3953 1.392 . S
C3952 C3955 1.511 . S
C3953 C3949 1.376 . S
C3953 C3952 1.392 . S
C3953 H3965 0.929 1_556 S
C3954 C3950 1.531 . S
C3954 H3966 0.960 . S
C3954 H3967 0.962 . S
C3954 H3968 0.960 . S
C3955 C3952 1.511 . S
C3955 H3969 0.961 1_556 S
C3955 H3970 0.961 . S
C3955 H3971 0.961 1_556 S
C3956 C3957 1.370 . S
C3956 C3958 1.363 . S
C3956 H3972 0.931 . S
C3957 C3956 1.370 . S
C3957 C3961 1.408 . S
C3958 C3956 1.363 . S
C3958 C3959 1.370 . S
C3958 C3962 1.524 . S
C3959 C3951 1.503 . S
C3959 C3958 1.370 . S
C3959 C3960 1.403 . S
C3960 C3959 1.403 . S
C3960 C3961 1.404 . S
C3960 C3963 1.539 . S
C3961 C3957 1.408 . S
C3961 C3960 1.404 . S
C3961 H3973 0.930 . S
C3962 C3958 1.524 . S
C3962 H3974 0.956 . S
C3962 H3975 0.961 . S
C3962 H3976 0.961 . S
C3963 C3960 1.539 . S
C3963 H3977 0.958 . S
C3963 H3978 0.961 . S
C3963 H3979 0.960 . S
H3964 C3948 0.931 . S
H3965 C3953 0.929 1_554 S
H3966 C3954 0.960 . S
H3967 C3954 0.962 . S
H3968 C3954 0.960 . S
H3969 C3955 0.961 1_554 S
H3970 C3955 0.961 . S
H3971 C3955 0.961 1_554 S
H3972 C3956 0.931 . S
H3973 C3961 0.930 . S
H3974 C3962 0.956 . S
H3975 C3962 0.961 . S
H3976 C3962 0.961 . S
H3977 C3963 0.958 . S
H3978 C3963 0.961 . S
H3979 C3963 0.960 . S
C3980 C3981 1.391 . S
C3980 C3982 1.394 . S
C3980 H3996 0.931 . S
C3981 C3980 1.391 . S
C3981 C3985 1.376 . S
C3982 C3980 1.394 . S
C3982 C3983 1.369 . S
C3982 C3986 1.531 . S
C3983 C3982 1.369 . S
C3983 C3984 1.410 . S
C3983 C3991 1.503 . S
C3984 C3983 1.410 . S
C3984 C3985 1.392 . S
C3984 C3987 1.511 . S
C3985 C3981 1.376 . S
C3985 C3984 1.392 . S
C3985 H3997 0.929 . S
C3986 C3982 1.531 . S
C3986 H3998 0.960 . S
C3986 H3999 0.962 . S
C3986 H4000 0.960 . S
C3987 C3984 1.511 . S
C3987 H4001 0.961 . S
C3987 H4002 0.961 . S
C3987 H4003 0.961 . S
C3988 C3989 1.370 . S
C3988 C3990 1.363 . S
C3988 H4004 0.931 . S
C3989 C3988 1.370 . S
C3989 C3993 1.408 . S
C3990 C3988 1.363 . S
C3990 C3991 1.370 . S
C3990 C3994 1.524 . S
C3991 C3983 1.503 . S
C3991 C3990 1.370 . S
C3991 C3992 1.403 . S
C3992 C3991 1.403 . S
C3992 C3993 1.404 . S
C3992 C3995 1.539 . S
C3993 C3989 1.408 . S
C3993 C3992 1.404 . S
C3993 H4005 0.930 . S
C3994 C3990 1.524 . S
C3994 H4006 0.956 . S
C3994 H4007 0.961 . S
C3994 H4008 0.961 . S
C3995 C3992 1.539 . S
C3995 H4009 0.958 . S
C3995 H4010 0.961 . S
C3995 H4011 0.960 . S
H3996 C3980 0.931 . S
H3997 C3985 0.929 . S
H3998 C3986 0.960 . S
H3999 C3986 0.962 . S
H4000 C3986 0.960 . S
H4001 C3987 0.961 . S
H4002 C3987 0.961 . S
H4003 C3987 0.961 . S
H4004 C3988 0.931 . S
H4005 C3993 0.930 . S
H4006 C3994 0.956 . S
H4007 C3994 0.961 . S
H4008 C3994 0.961 . S
H4009 C3995 0.958 . S
H4010 C3995 0.961 . S
H4011 C3995 0.960 . S
C4012 C4013 1.391 . S
C4012 C4014 1.394 . S
C4012 H4028 0.931 . S
C4013 C4012 1.391 . S
C4013 C4017 1.376 . S
C4014 C4012 1.394 . S
C4014 C4015 1.369 . S
C4014 C4018 1.531 . S
C4015 C4014 1.369 . S
C4015 C4016 1.410 . S
C4015 C4023 1.503 . S
C4016 C4015 1.410 . S
C4016 C4017 1.392 . S
C4016 C4019 1.511 . S
C4017 C4013 1.376 . S
C4017 C4016 1.392 . S
C4017 H4029 0.929 . S
C4018 C4014 1.531 . S
C4018 H4030 0.960 . S
C4018 H4031 0.962 . S
C4018 H4032 0.960 . S
C4019 C4016 1.511 . S
C4019 H4033 0.961 . S
C4019 H4034 0.961 . S
C4019 H4035 0.961 . S
C4020 C4021 1.370 . S
C4020 C4022 1.363 . S
C4020 H4036 0.931 . S
C4021 C4020 1.370 . S
C4021 C4025 1.408 . S
C4022 C4020 1.363 . S
C4022 C4023 1.370 . S
C4022 C4026 1.524 . S
C4023 C4015 1.503 . S
C4023 C4022 1.370 . S
C4023 C4024 1.403 . S
C4024 C4023 1.403 . S
C4024 C4025 1.404 . S
C4024 C4027 1.539 . S
C4025 C4021 1.408 . S
C4025 C4024 1.404 . S
C4025 H4037 0.930 . S
C4026 C4022 1.524 . S
C4026 H4038 0.956 . S
C4026 H4039 0.961 . S
C4026 H4040 0.961 . S
C4027 C4024 1.539 . S
C4027 H4041 0.958 . S
C4027 H4042 0.961 . S
C4027 H4043 0.960 . S
H4028 C4012 0.931 . S
H4029 C4017 0.929 . S
H4030 C4018 0.960 . S
H4031 C4018 0.962 . S
H4032 C4018 0.960 . S
H4033 C4019 0.961 . S
H4034 C4019 0.961 . S
H4035 C4019 0.961 . S
H4036 C4020 0.931 . S
H4037 C4025 0.930 . S
H4038 C4026 0.956 . S
H4039 C4026 0.961 . S
H4040 C4026 0.961 . S
H4041 C4027 0.958 . S
H4042 C4027 0.961 . S
H4043 C4027 0.960 . S
C4044 C4045 1.391 . S
C4044 C4046 1.394 . S
C4044 H4060 0.931 . S
C4045 C4044 1.391 . S
C4045 C4049 1.376 . S
C4046 C4044 1.394 . S
C4046 C4047 1.369 . S
C4046 C4050 1.531 . S
C4047 C4046 1.369 . S
C4047 C4048 1.410 . S
C4047 C4055 1.503 . S
C4048 C4047 1.410 . S
C4048 C4049 1.392 . S
C4048 C4051 1.511 . S
C4049 C4045 1.376 . S
C4049 C4048 1.392 . S
C4049 H4061 0.929 . S
C4050 C4046 1.531 . S
C4050 H4062 0.960 . S
C4050 H4063 0.962 . S
C4050 H4064 0.960 . S
C4051 C4048 1.511 . S
C4051 H4065 0.961 . S
C4051 H4066 0.961 . S
C4051 H4067 0.961 . S
C4052 C4053 1.370 . S
C4052 C4054 1.363 . S
C4052 H4068 0.931 . S
C4053 C4052 1.370 . S
C4053 C4057 1.408 . S
C4054 C4052 1.363 . S
C4054 C4055 1.370 . S
C4054 C4058 1.524 . S
C4055 C4047 1.503 . S
C4055 C4054 1.370 . S
C4055 C4056 1.403 . S
C4056 C4055 1.403 . S
C4056 C4057 1.404 . S
C4056 C4059 1.539 . S
C4057 C4053 1.408 . S
C4057 C4056 1.404 . S
C4057 H4069 0.930 . S
C4058 C4054 1.524 . S
C4058 H4070 0.956 . S
C4058 H4071 0.961 . S
C4058 H4072 0.961 . S
C4059 C4056 1.539 . S
C4059 H4073 0.958 . S
C4059 H4074 0.961 . S
C4059 H4075 0.960 . S
H4060 C4044 0.931 . S
H4061 C4049 0.929 . S
H4062 C4050 0.960 . S
H4063 C4050 0.962 . S
H4064 C4050 0.960 . S
H4065 C4051 0.961 . S
H4066 C4051 0.961 . S
H4067 C4051 0.961 . S
H4068 C4052 0.931 . S
H4069 C4057 0.930 . S
H4070 C4058 0.956 . S
H4071 C4058 0.961 . S
H4072 C4058 0.961 . S
H4073 C4059 0.958 . S
H4074 C4059 0.961 . S
H4075 C4059 0.960 . S
C4076 C4077 1.391 . S
C4076 C4078 1.394 . S
C4076 H4092 0.931 . S
C4077 C4076 1.391 . S
C4077 C4081 1.376 . S
C4078 C4076 1.394 . S
C4078 C4079 1.369 . S
C4078 C4082 1.531 . S
C4079 C4078 1.369 . S
C4079 C4080 1.410 . S
C4079 C4087 1.503 . S
C4080 C4079 1.410 . S
C4080 C4081 1.392 . S
C4080 C4083 1.511 . S
C4081 C4077 1.376 . S
C4081 C4080 1.392 . S
C4081 H4093 0.929 . S
C4082 C4078 1.531 . S
C4082 H4094 0.960 . S
C4082 H4095 0.962 . S
C4082 H4096 0.960 . S
C4083 C4080 1.511 . S
C4083 H4097 0.961 . S
C4083 H4098 0.961 . S
C4083 H4099 0.961 . S
C4084 C4085 1.370 . S
C4084 C4086 1.363 . S
C4084 H4100 0.931 . S
C4085 C4084 1.370 . S
C4085 C4089 1.408 . S
C4086 C4084 1.363 . S
C4086 C4087 1.370 . S
C4086 C4090 1.524 . S
C4087 C4079 1.503 . S
C4087 C4086 1.370 . S
C4087 C4088 1.403 . S
C4088 C4087 1.403 . S
C4088 C4089 1.404 . S
C4088 C4091 1.539 . S
C4089 C4085 1.408 . S
C4089 C4088 1.404 . S
C4089 H4101 0.930 . S
C4090 C4086 1.524 . S
C4090 H4102 0.956 . S
C4090 H4103 0.961 . S
C4090 H4104 0.961 . S
C4091 C4088 1.539 . S
C4091 H4105 0.958 . S
C4091 H4106 0.961 . S
C4091 H4107 0.960 . S
H4092 C4076 0.931 . S
H4093 C4081 0.929 . S
H4094 C4082 0.960 . S
H4095 C4082 0.962 . S
H4096 C4082 0.960 . S
H4097 C4083 0.961 . S
H4098 C4083 0.961 . S
H4099 C4083 0.961 . S
H4100 C4084 0.931 . S
H4101 C4089 0.930 . S
H4102 C4090 0.956 . S
H4103 C4090 0.961 . S
H4104 C4090 0.961 . S
H4105 C4091 0.958 . S
H4106 C4091 0.961 . S
H4107 C4091 0.960 . S
C4108 C4109 1.391 . S
C4108 C4110 1.394 . S
C4108 H4124 0.931 . S
C4109 C4108 1.391 . S
C4109 C4113 1.376 . S
C4110 C4108 1.394 . S
C4110 C4111 1.369 . S
C4110 C4114 1.531 . S
C4111 C4110 1.369 . S
C4111 C4112 1.410 . S
C4111 C4119 1.503 . S
C4112 C4111 1.410 . S
C4112 C4113 1.392 . S
C4112 C4115 1.511 . S
C4113 C4109 1.376 . S
C4113 C4112 1.392 . S
C4113 H4125 0.929 1_556 S
C4114 C4110 1.531 . S
C4114 H4126 0.960 . S
C4114 H4127 0.962 . S
C4114 H4128 0.960 . S
C4115 C4112 1.511 . S
C4115 H4129 0.934 1_556 S
C4115 H4130 0.961 . S
C4115 H4131 0.968 . S
C4116 C4117 1.370 . S
C4116 C4118 1.363 . S
C4116 H4132 0.931 . S
C4117 C4116 1.370 . S
C4117 C4121 1.408 . S
C4118 C4116 1.363 . S
C4118 C4119 1.370 . S
C4118 C4122 1.524 . S
C4119 C4111 1.503 . S
C4119 C4118 1.370 . S
C4119 C4120 1.403 . S
C4120 C4119 1.403 . S
C4120 C4121 1.404 . S
C4120 C4123 1.539 . S
C4121 C4117 1.408 . S
C4121 C4120 1.404 . S
C4121 H4133 0.930 . S
C4122 C4118 1.524 . S
C4122 H4134 0.956 . S
C4122 H4135 0.961 . S
C4122 H4136 0.961 . S
C4123 C4120 1.539 . S
C4123 H4137 0.958 . S
C4123 H4138 0.961 . S
C4123 H4139 0.960 . S
H4124 C4108 0.931 . S
H4125 C4113 0.929 1_554 S
H4126 C4114 0.960 . S
H4127 C4114 0.962 . S
H4128 C4114 0.960 . S
H4129 C4115 0.934 1_554 S
H4130 C4115 0.961 . S
H4131 C4115 0.968 . S
H4132 C4116 0.931 . S
H4133 C4121 0.930 . S
H4134 C4122 0.956 . S
H4135 C4122 0.961 . S
H4136 C4122 0.961 . S
H4137 C4123 0.958 . S
H4138 C4123 0.961 . S
H4139 C4123 0.960 . S
C4140 C4141 1.391 . S
C4140 C4142 1.394 . S
C4140 H4156 0.931 . S
C4141 C4140 1.391 . S
C4141 C4145 1.376 . S
C4142 C4140 1.394 . S
C4142 C4143 1.369 . S
C4142 C4146 1.531 . S
C4143 C4142 1.369 . S
C4143 C4144 1.410 . S
C4143 C4151 1.503 . S
C4144 C4143 1.410 . S
C4144 C4145 1.392 . S
C4144 C4147 1.511 . S
C4145 C4141 1.376 . S
C4145 C4144 1.392 . S
C4145 H4157 0.929 . S
C4146 C4142 1.531 . S
C4146 H4158 0.960 . S
C4146 H4159 0.962 . S
C4146 H4160 0.960 . S
C4147 C4144 1.511 . S
C4147 H4161 0.961 . S
C4147 H4162 0.961 . S
C4147 H4163 0.961 . S
C4148 C4149 1.370 . S
C4148 C4150 1.363 . S
C4148 H4164 0.931 . S
C4149 C4148 1.370 . S
C4149 C4153 1.408 . S
C4150 C4148 1.363 . S
C4150 C4151 1.370 . S
C4150 C4154 1.524 . S
C4151 C4143 1.503 . S
C4151 C4150 1.370 . S
C4151 C4152 1.403 . S
C4152 C4151 1.403 . S
C4152 C4153 1.404 . S
C4152 C4155 1.539 . S
C4153 C4149 1.408 . S
C4153 C4152 1.404 . S
C4153 H4165 0.930 . S
C4154 C4150 1.524 . S
C4154 H4166 0.956 . S
C4154 H4167 0.961 . S
C4154 H4168 0.961 . S
C4155 C4152 1.539 . S
C4155 H4169 0.958 . S
C4155 H4170 0.961 . S
C4155 H4171 0.960 . S
H4156 C4140 0.931 . S
H4157 C4145 0.929 . S
H4158 C4146 0.960 . S
H4159 C4146 0.962 . S
H4160 C4146 0.960 . S
H4161 C4147 0.961 . S
H4162 C4147 0.961 . S
H4163 C4147 0.961 . S
H4164 C4148 0.931 . S
H4165 C4153 0.930 . S
H4166 C4154 0.956 . S
H4167 C4154 0.961 . S
H4168 C4154 0.961 . S
H4169 C4155 0.958 . S
H4170 C4155 0.961 . S
H4171 C4155 0.960 . S
C4172 C4173 1.391 . S
C4172 C4174 1.394 . S
C4172 H4188 0.931 . S
C4173 C4172 1.391 . S
C4173 C4177 1.376 . S
C4174 C4172 1.394 . S
C4174 C4175 1.369 . S
C4174 C4178 1.531 . S
C4175 C4174 1.369 . S
C4175 C4176 1.410 . S
C4175 C4183 1.503 . S
C4176 C4175 1.410 . S
C4176 C4177 1.392 . S
C4176 C4179 1.511 . S
C4177 C4173 1.376 . S
C4177 C4176 1.392 . S
C4177 H4189 0.929 . S
C4178 C4174 1.531 . S
C4178 H4190 0.960 . S
C4178 H4191 0.962 . S
C4178 H4192 0.960 . S
C4179 C4176 1.511 . S
C4179 H4193 0.961 . S
C4179 H4194 0.961 . S
C4179 H4195 0.961 . S
C4180 C4181 1.370 . S
C4180 C4182 1.363 . S
C4180 H4196 0.931 . S
C4181 C4180 1.370 . S
C4181 C4185 1.408 . S
C4182 C4180 1.363 . S
C4182 C4183 1.370 . S
C4182 C4186 1.524 . S
C4183 C4175 1.503 . S
C4183 C4182 1.370 . S
C4183 C4184 1.403 . S
C4184 C4183 1.403 . S
C4184 C4185 1.404 . S
C4184 C4187 1.539 . S
C4185 C4181 1.408 . S
C4185 C4184 1.404 . S
C4185 H4197 0.930 . S
C4186 C4182 1.524 . S
C4186 H4198 0.956 . S
C4186 H4199 0.961 . S
C4186 H4200 0.961 . S
C4187 C4184 1.539 . S
C4187 H4201 0.958 . S
C4187 H4202 0.961 . S
C4187 H4203 0.960 . S
H4188 C4172 0.931 . S
H4189 C4177 0.929 . S
H4190 C4178 0.960 . S
H4191 C4178 0.962 . S
H4192 C4178 0.960 . S
H4193 C4179 0.961 . S
H4194 C4179 0.961 . S
H4195 C4179 0.961 . S
H4196 C4180 0.931 . S
H4197 C4185 0.930 . S
H4198 C4186 0.956 . S
H4199 C4186 0.961 . S
H4200 C4186 0.961 . S
H4201 C4187 0.958 . S
H4202 C4187 0.961 . S
H4203 C4187 0.960 . S
C4204 C4205 1.391 . S
C4204 C4206 1.394 . S
C4204 H4220 0.931 . S
C4205 C4204 1.391 . S
C4205 C4209 1.376 . S
C4206 C4204 1.394 . S
C4206 C4207 1.369 . S
C4206 C4210 1.531 . S
C4207 C4206 1.369 . S
C4207 C4208 1.410 . S
C4207 C4215 1.503 . S
C4208 C4207 1.410 . S
C4208 C4209 1.392 . S
C4208 C4211 1.511 . S
C4209 C4205 1.376 . S
C4209 C4208 1.392 . S
C4209 H4221 0.929 . S
C4210 C4206 1.531 . S
C4210 H4222 0.960 . S
C4210 H4223 0.962 . S
C4210 H4224 0.960 . S
C4211 C4208 1.511 . S
C4211 H4225 0.961 . S
C4211 H4226 0.961 . S
C4211 H4227 0.961 . S
C4212 C4213 1.370 . S
C4212 C4214 1.363 . S
C4212 H4228 0.931 . S
C4213 C4212 1.370 . S
C4213 C4217 1.408 . S
C4214 C4212 1.363 . S
C4214 C4215 1.370 . S
C4214 C4218 1.524 . S
C4215 C4207 1.503 . S
C4215 C4214 1.370 . S
C4215 C4216 1.403 . S
C4216 C4215 1.403 . S
C4216 C4217 1.404 . S
C4216 C4219 1.539 . S
C4217 C4213 1.408 . S
C4217 C4216 1.404 . S
C4217 H4229 0.930 . S
C4218 C4214 1.524 . S
C4218 H4230 0.956 . S
C4218 H4231 0.961 . S
C4218 H4232 0.961 . S
C4219 C4216 1.539 . S
C4219 H4233 0.958 . S
C4219 H4234 0.961 . S
C4219 H4235 0.960 . S
H4220 C4204 0.931 . S
H4221 C4209 0.929 . S
H4222 C4210 0.960 . S
H4223 C4210 0.962 . S
H4224 C4210 0.960 . S
H4225 C4211 0.961 . S
H4226 C4211 0.961 . S
H4227 C4211 0.961 . S
H4228 C4212 0.931 . S
H4229 C4217 0.930 . S
H4230 C4218 0.956 . S
H4231 C4218 0.961 . S
H4232 C4218 0.961 . S
H4233 C4219 0.958 . S
H4234 C4219 0.961 . S
H4235 C4219 0.960 . S
C4236 C4237 1.391 . S
C4236 C4238 1.394 . S
C4236 H4252 0.931 . S
C4237 C4236 1.391 . S
C4237 C4241 1.376 . S
C4238 C4236 1.394 . S
C4238 C4239 1.369 . S
C4238 C4242 1.531 . S
C4239 C4238 1.369 . S
C4239 C4240 1.410 . S
C4239 C4247 1.503 . S
C4240 C4239 1.410 . S
C4240 C4241 1.392 . S
C4240 C4243 1.511 . S
C4241 C4237 1.376 . S
C4241 C4240 1.392 . S
C4241 H4253 0.929 . S
C4242 C4238 1.531 . S
C4242 H4254 0.960 . S
C4242 H4255 0.962 . S
C4242 H4256 0.960 . S
C4243 C4240 1.511 . S
C4243 H4257 0.961 . S
C4243 H4258 0.961 . S
C4243 H4259 0.961 . S
C4244 C4245 1.370 . S
C4244 C4246 1.363 . S
C4244 H4260 0.931 . S
C4245 C4244 1.370 . S
C4245 C4249 1.408 . S
C4246 C4244 1.363 . S
C4246 C4247 1.370 . S
C4246 C4250 1.524 . S
C4247 C4239 1.503 . S
C4247 C4246 1.370 . S
C4247 C4248 1.403 . S
C4248 C4247 1.403 . S
C4248 C4249 1.404 . S
C4248 C4251 1.539 . S
C4249 C4245 1.408 . S
C4249 C4248 1.404 . S
C4249 H4261 0.930 . S
C4250 C4246 1.524 . S
C4250 H4262 0.956 . S
C4250 H4263 0.961 . S
C4250 H4264 0.961 . S
C4251 C4248 1.539 . S
C4251 H4265 0.958 . S
C4251 H4266 0.961 . S
C4251 H4267 0.960 . S
H4252 C4236 0.931 . S
H4253 C4241 0.929 . S
H4254 C4242 0.960 . S
H4255 C4242 0.962 . S
H4256 C4242 0.960 . S
H4257 C4243 0.961 . S
H4258 C4243 0.961 . S
H4259 C4243 0.961 . S
H4260 C4244 0.931 . S
H4261 C4249 0.930 . S
H4262 C4250 0.956 . S
H4263 C4250 0.961 . S
H4264 C4250 0.961 . S
H4265 C4251 0.958 . S
H4266 C4251 0.961 . S
H4267 C4251 0.960 . S
C4268 C4269 1.391 . S
C4268 C4270 1.394 . S
C4268 H4284 0.931 . S
C4269 C4268 1.391 . S
C4269 C4273 1.376 . S
C4270 C4268 1.394 . S
C4270 C4271 1.369 . S
C4270 C4274 1.531 . S
C4271 C4270 1.369 . S
C4271 C4272 1.410 . S
C4271 C4279 1.503 . S
C4272 C4271 1.410 . S
C4272 C4273 1.392 . S
C4272 C4275 1.511 . S
C4273 C4269 1.376 . S
C4273 C4272 1.392 . S
C4273 H4285 0.929 . S
C4274 C4270 1.531 . S
C4274 H4286 0.960 . S
C4274 H4287 0.962 . S
C4274 H4288 0.960 . S
C4275 C4272 1.511 . S
C4275 H4289 0.961 . S
C4275 H4290 0.961 . S
C4275 H4291 0.961 . S
C4276 C4277 1.370 . S
C4276 C4278 1.363 . S
C4276 H4292 0.931 . S
C4277 C4276 1.370 . S
C4277 C4281 1.408 . S
C4278 C4276 1.363 . S
C4278 C4279 1.370 . S
C4278 C4282 1.524 . S
C4279 C4271 1.503 . S
C4279 C4278 1.370 . S
C4279 C4280 1.403 . S
C4280 C4279 1.403 . S
C4280 C4281 1.404 . S
C4280 C4283 1.539 . S
C4281 C4277 1.408 . S
C4281 C4280 1.404 . S
C4281 H4293 0.930 . S
C4282 C4278 1.524 . S
C4282 H4294 0.956 . S
C4282 H4295 0.961 . S
C4282 H4296 0.961 . S
C4283 C4280 1.539 . S
C4283 H4297 0.958 . S
C4283 H4298 0.961 . S
C4283 H4299 0.960 . S
H4284 C4268 0.931 . S
H4285 C4273 0.929 . S
H4286 C4274 0.960 . S
H4287 C4274 0.962 . S
H4288 C4274 0.960 . S
H4289 C4275 0.961 . S
H4290 C4275 0.961 . S
H4291 C4275 0.961 . S
H4292 C4276 0.931 . S
H4293 C4281 0.930 . S
H4294 C4282 0.956 . S
H4295 C4282 0.961 . S
H4296 C4282 0.961 . S
H4297 C4283 0.958 . S
H4298 C4283 0.961 . S
H4299 C4283 0.960 . S
C4300 C4301 1.391 . S
C4300 C4302 1.394 . S
C4300 H4316 0.931 . S
C4301 C4300 1.391 . S
C4301 C4305 1.376 . S
C4302 C4300 1.394 . S
C4302 C4303 1.369 . S
C4302 C4306 1.531 . S
C4303 C4302 1.369 . S
C4303 C4304 1.410 . S
C4303 C4311 1.503 . S
C4304 C4303 1.410 . S
C4304 C4305 1.392 . S
C4304 C4307 1.511 . S
C4305 C4301 1.376 . S
C4305 C4304 1.392 . S
C4305 H4317 0.929 . S
C4306 C4302 1.531 . S
C4306 H4318 0.960 . S
C4306 H4319 0.962 . S
C4306 H4320 0.960 . S
C4307 C4304 1.511 . S
C4307 H4321 0.961 . S
C4307 H4322 0.961 . S
C4307 H4323 0.961 . S
C4308 C4309 1.370 . S
C4308 C4310 1.363 . S
C4308 H4324 0.931 . S
C4309 C4308 1.370 . S
C4309 C4313 1.408 . S
C4310 C4308 1.363 . S
C4310 C4311 1.370 . S
C4310 C4314 1.524 . S
C4311 C4303 1.503 . S
C4311 C4310 1.370 . S
C4311 C4312 1.403 . S
C4312 C4311 1.403 . S
C4312 C4313 1.404 . S
C4312 C4315 1.539 . S
C4313 C4309 1.408 . S
C4313 C4312 1.404 . S
C4313 H4325 0.930 . S
C4314 C4310 1.524 . S
C4314 H4326 0.956 . S
C4314 H4327 0.961 . S
C4314 H4328 0.961 . S
C4315 C4312 1.539 . S
C4315 H4329 0.958 . S
C4315 H4330 0.961 . S
C4315 H4331 0.960 . S
H4316 C4300 0.931 . S
H4317 C4305 0.929 . S
H4318 C4306 0.960 . S
H4319 C4306 0.962 . S
H4320 C4306 0.960 . S
H4321 C4307 0.961 . S
H4322 C4307 0.961 . S
H4323 C4307 0.961 . S
H4324 C4308 0.931 . S
H4325 C4313 0.930 . S
H4326 C4314 0.956 . S
H4327 C4314 0.961 . S
H4328 C4314 0.961 . S
H4329 C4315 0.958 . S
H4330 C4315 0.961 . S
H4331 C4315 0.960 . S
C4332 C4333 1.391 1_655 S
C4332 C4334 1.394 . S
C4332 H4348 0.931 . S
C4333 C4332 1.391 1_455 S
C4333 C4337 1.376 . S
C4334 C4332 1.394 . S
C4334 C4335 1.369 1_655 S
C4334 C4338 1.531 . S
C4335 C4334 1.369 1_455 S
C4335 C4336 1.410 . S
C4335 C4343 1.503 . S
C4336 C4335 1.410 . S
C4336 C4337 1.392 . S
C4336 C4339 1.511 . S
C4337 C4333 1.376 . S
C4337 C4336 1.392 . S
C4337 H4349 0.929 . S
C4338 C4334 1.531 . S
C4338 H4350 0.960 . S
C4338 H4351 0.962 . S
C4338 H4352 0.960 . S
C4339 C4336 1.511 . S
C4339 H4353 0.961 . S
C4339 H4354 0.961 . S
C4339 H4355 0.961 . S
C4340 C4341 1.370 . S
C4340 C4342 1.363 . S
C4340 H4356 0.931 . S
C4341 C4340 1.370 . S
C4341 C4345 1.408 . S
C4342 C4340 1.363 . S
C4342 C4343 1.370 . S
C4342 C4346 1.524 . S
C4343 C4335 1.503 . S
C4343 C4342 1.370 . S
C4343 C4344 1.403 . S
C4344 C4343 1.403 . S
C4344 C4345 1.404 . S
C4344 C4347 1.539 . S
C4345 C4341 1.408 . S
C4345 C4344 1.404 . S
C4345 H4357 0.930 . S
C4346 C4342 1.524 . S
C4346 H4358 0.956 . S
C4346 H4359 0.961 . S
C4346 H4360 0.961 . S
C4347 C4344 1.539 . S
C4347 H4361 0.958 1_455 S
C4347 H4362 0.961 . S
C4347 H4363 0.960 . S
H4348 C4332 0.931 . S
H4349 C4337 0.929 . S
H4350 C4338 0.960 . S
H4351 C4338 0.962 . S
H4352 C4338 0.960 . S
H4353 C4339 0.961 . S
H4354 C4339 0.961 . S
H4355 C4339 0.961 . S
H4356 C4340 0.931 . S
H4357 C4345 0.930 . S
H4358 C4346 0.956 . S
H4359 C4346 0.961 . S
H4360 C4346 0.961 . S
H4361 C4347 0.958 1_655 S
H4362 C4347 0.961 . S
H4363 C4347 0.960 . S
C4364 C4365 1.391 . S
C4364 C4366 1.394 . S
C4364 H4380 0.931 . S
C4365 C4364 1.391 . S
C4365 C4369 1.376 . S
C4366 C4364 1.394 . S
C4366 C4367 1.369 . S
C4366 C4370 1.531 . S
C4367 C4366 1.369 . S
C4367 C4368 1.410 . S
C4367 C4375 1.503 . S
C4368 C4367 1.410 . S
C4368 C4369 1.392 . S
C4368 C4371 1.511 . S
C4369 C4365 1.376 . S
C4369 C4368 1.392 . S
C4369 H4381 0.929 . S
C4370 C4366 1.531 . S
C4370 H4382 0.960 . S
C4370 H4383 0.962 . S
C4370 H4384 0.960 . S
C4371 C4368 1.511 . S
C4371 H4385 0.961 . S
C4371 H4386 0.961 . S
C4371 H4387 0.961 . S
C4372 C4373 1.370 . S
C4372 C4374 1.363 . S
C4372 H4388 0.931 . S
C4373 C4372 1.370 . S
C4373 C4377 1.408 . S
C4374 C4372 1.363 . S
C4374 C4375 1.370 . S
C4374 C4378 1.524 . S
C4375 C4367 1.503 . S
C4375 C4374 1.370 . S
C4375 C4376 1.403 . S
C4376 C4375 1.403 . S
C4376 C4377 1.404 . S
C4376 C4379 1.539 . S
C4377 C4373 1.408 . S
C4377 C4376 1.404 . S
C4377 H4389 0.930 . S
C4378 C4374 1.524 . S
C4378 H4390 0.956 . S
C4378 H4391 0.961 . S
C4378 H4392 0.961 . S
C4379 C4376 1.539 . S
C4379 H4393 0.958 . S
C4379 H4394 0.961 . S
C4379 H4395 0.960 . S
H4380 C4364 0.931 . S
H4381 C4369 0.929 . S
H4382 C4370 0.960 . S
H4383 C4370 0.962 . S
H4384 C4370 0.960 . S
H4385 C4371 0.961 . S
H4386 C4371 0.961 . S
H4387 C4371 0.961 . S
H4388 C4372 0.931 . S
H4389 C4377 0.930 . S
H4390 C4378 0.956 . S
H4391 C4378 0.961 . S
H4392 C4378 0.961 . S
H4393 C4379 0.958 . S
H4394 C4379 0.961 . S
H4395 C4379 0.960 . S
C4396 C4397 1.391 1_545 S
C4396 C4398 1.394 . S
C4396 H4412 0.931 . S
C4397 C4396 1.391 1_565 S
C4397 C4401 1.376 . S
C4398 C4396 1.394 . S
C4398 C4399 1.369 1_545 S
C4398 C4402 1.531 . S
C4399 C4398 1.369 1_565 S
C4399 C4400 1.410 . S
C4399 C4407 1.503 . S
C4400 C4399 1.410 . S
C4400 C4401 1.392 . S
C4400 C4403 1.511 . S
C4401 C4397 1.376 . S
C4401 C4400 1.392 . S
C4401 H4413 0.929 . S
C4402 C4398 1.531 . S
C4402 H4414 0.960 . S
C4402 H4415 0.962 . S
C4402 H4416 0.960 . S
C4403 C4400 1.511 . S
C4403 H4417 0.961 . S
C4403 H4418 0.961 . S
C4403 H4419 0.961 . S
C4404 C4405 1.370 . S
C4404 C4406 1.363 . S
C4404 H4420 0.931 . S
C4405 C4404 1.370 . S
C4405 C4409 1.408 . S
C4406 C4404 1.363 . S
C4406 C4407 1.370 . S
C4406 C4410 1.524 . S
C4407 C4399 1.503 . S
C4407 C4406 1.370 . S
C4407 C4408 1.403 . S
C4408 C4407 1.403 . S
C4408 C4409 1.404 . S
C4408 C4411 1.539 . S
C4409 C4405 1.408 . S
C4409 C4408 1.404 . S
C4409 H4421 0.930 . S
C4410 C4406 1.524 . S
C4410 H4422 0.949 . S
C4410 H4423 0.961 . S
C4410 H4424 0.961 . S
C4411 C4408 1.539 . S
C4411 H4425 0.958 1_565 S
C4411 H4426 0.961 . S
C4411 H4427 0.960 . S
H4412 C4396 0.931 . S
H4413 C4401 0.929 . S
H4414 C4402 0.960 . S
H4415 C4402 0.962 . S
H4416 C4402 0.960 . S
H4417 C4403 0.961 . S
H4418 C4403 0.961 . S
H4419 C4403 0.961 . S
H4420 C4404 0.931 . S
H4421 C4409 0.930 . S
H4422 C4410 0.949 . S
H4423 C4410 0.961 . S
H4424 C4410 0.961 . S
H4425 C4411 0.958 1_545 S
H4426 C4411 0.961 . S
H4427 C4411 0.960 . S
C4428 C4429 1.391 . S
C4428 C4430 1.394 . S
C4428 H4444 0.931 . S
C4429 C4428 1.391 . S
C4429 C4433 1.376 1_565 S
C4430 C4428 1.394 . S
C4430 C4431 1.369 . S
C4430 C4434 1.531 . S
C4431 C4430 1.369 . S
C4431 C4432 1.410 1_565 S
C4431 C4439 1.503 . S
C4432 C4431 1.410 1_545 S
C4432 C4433 1.392 . S
C4432 C4435 1.511 . S
C4433 C4429 1.376 1_545 S
C4433 C4432 1.392 . S
C4433 H4445 0.929 . S
C4434 C4430 1.531 . S
C4434 H4446 0.960 . S
C4434 H4447 0.962 . S
C4434 H4448 0.960 . S
C4435 C4432 1.511 . S
C4435 H4449 0.961 . S
C4435 H4450 0.961 . S
C4435 H4451 0.961 . S
C4436 C4437 1.370 1_545 S
C4436 C4438 1.332 1_545 S
C4436 H4452 0.931 . S
C4437 C4436 1.370 1_565 S
C4437 C4441 1.408 . S
C4438 C4436 1.332 1_565 S
C4438 C4439 1.388 . S
C4438 C4442 1.542 1_565 S
C4439 C4431 1.503 . S
C4439 C4438 1.388 . S
C4439 C4440 1.403 . S
C4440 C4439 1.403 . S
C4440 C4441 1.404 . S
C4440 C4443 1.539 . S
C4441 C4437 1.408 . S
C4441 C4440 1.404 . S
C4441 H4453 0.930 . S
C4442 C4438 1.542 1_545 S
C4442 H4454 0.956 1_545 S
C4442 H4455 0.961 . S
C4442 H4456 0.961 . S
C4443 C4440 1.539 . S
C4443 H4457 0.958 . S
C4443 H4458 0.961 . S
C4443 H4459 0.960 . S
H4444 C4428 0.931 . S
H4445 C4433 0.929 . S
H4446 C4434 0.960 . S
H4447 C4434 0.962 . S
H4448 C4434 0.960 . S
H4449 C4435 0.961 . S
H4450 C4435 0.961 . S
H4451 C4435 0.961 . S
H4452 C4436 0.931 . S
H4453 C4441 0.930 . S
H4454 C4442 0.956 1_565 S
H4455 C4442 0.961 . S
H4456 C4442 0.961 . S
H4457 C4443 0.958 . S
H4458 C4443 0.961 . S
H4459 C4443 0.960 . S
C4460 C4461 1.391 . S
C4460 C4462 1.394 . S
C4460 H4476 0.931 . S
C4461 C4460 1.391 . S
C4461 C4465 1.376 . S
C4462 C4460 1.394 . S
C4462 C4463 1.369 . S
C4462 C4466 1.531 . S
C4463 C4462 1.369 . S
C4463 C4464 1.410 . S
C4463 C4471 1.503 . S
C4464 C4463 1.410 . S
C4464 C4465 1.392 . S
C4464 C4467 1.511 . S
C4465 C4461 1.376 . S
C4465 C4464 1.392 . S
C4465 H4477 0.929 . S
C4466 C4462 1.531 . S
C4466 H4478 0.960 . S
C4466 H4479 0.962 . S
C4466 H4480 0.960 . S
C4467 C4464 1.511 . S
C4467 H4481 0.961 . S
C4467 H4482 0.977 . S
C4467 H4483 0.961 . S
C4468 C4469 1.370 1_655 S
C4468 C4470 1.363 . S
C4468 H4484 0.931 . S
C4469 C4468 1.370 1_455 S
C4469 C4473 1.408 . S
C4470 C4468 1.363 . S
C4470 C4471 1.370 1_655 S
C4470 C4474 1.524 . S
C4471 C4463 1.503 . S
C4471 C4470 1.370 1_455 S
C4471 C4472 1.403 . S
C4472 C4471 1.403 . S
C4472 C4473 1.404 . S
C4472 C4475 1.539 . S
C4473 C4469 1.408 . S
C4473 C4472 1.404 . S
C4473 H4485 0.930 . S
C4474 C4470 1.524 . S
C4474 H4486 0.956 . S
C4474 H4487 0.961 . S
C4474 H4488 0.961 . S
C4475 C4472 1.539 . S
C4475 H4489 0.958 . S
C4475 H4490 0.961 . S
C4475 H4491 0.960 . S
H4476 C4460 0.931 . S
H4477 C4465 0.929 . S
H4478 C4466 0.960 . S
H4479 C4466 0.962 . S
H4480 C4466 0.960 . S
H4481 C4467 0.961 . S
H4482 C4467 0.977 . S
H4483 C4467 0.961 . S
H4484 C4468 0.931 . S
H4485 C4473 0.930 . S
H4486 C4474 0.956 . S
H4487 C4474 0.961 . S
H4488 C4474 0.961 . S
H4489 C4475 0.958 . S
H4490 C4475 0.961 . S
H4491 C4475 0.960 . S
C4492 C4493 1.391 . S
C4492 C4494 1.394 . S
C4492 H4508 0.931 . S
C4493 C4492 1.391 . S
C4493 C4497 1.376 . S
C4494 C4492 1.394 . S
C4494 C4495 1.369 . S
C4494 C4498 1.531 . S
C4495 C4494 1.369 . S
C4495 C4496 1.410 . S
C4495 C4503 1.503 . S
C4496 C4495 1.410 . S
C4496 C4497 1.392 . S
C4496 C4499 1.511 . S
C4497 C4493 1.376 . S
C4497 C4496 1.392 . S
C4497 H4509 0.929 . S
C4498 C4494 1.531 . S
C4498 H4510 0.960 . S
C4498 H4511 0.962 . S
C4498 H4512 0.960 . S
C4499 C4496 1.511 . S
C4499 H4513 0.961 . S
C4499 H4514 0.961 . S
C4499 H4515 0.961 . S
C4500 C4501 1.370 . S
C4500 C4502 1.363 . S
C4500 H4516 0.931 . S
C4501 C4500 1.370 . S
C4501 C4505 1.408 . S
C4502 C4500 1.363 . S
C4502 C4503 1.370 . S
C4502 C4506 1.524 . S
C4503 C4495 1.503 . S
C4503 C4502 1.370 . S
C4503 C4504 1.403 . S
C4504 C4503 1.403 . S
C4504 C4505 1.404 . S
C4504 C4507 1.539 . S
C4505 C4501 1.408 . S
C4505 C4504 1.404 . S
C4505 H4517 0.930 . S
C4506 C4502 1.524 . S
C4506 H4518 0.956 . S
C4506 H4519 0.961 . S
C4506 H4520 0.961 . S
C4507 C4504 1.539 . S
C4507 H4521 0.958 . S
C4507 H4522 0.961 . S
C4507 H4523 0.960 . S
H4508 C4492 0.931 . S
H4509 C4497 0.929 . S
H4510 C4498 0.960 . S
H4511 C4498 0.962 . S
H4512 C4498 0.960 . S
H4513 C4499 0.961 . S
H4514 C4499 0.961 . S
H4515 C4499 0.961 . S
H4516 C4500 0.931 . S
H4517 C4505 0.930 . S
H4518 C4506 0.956 . S
H4519 C4506 0.961 . S
H4520 C4506 0.961 . S
H4521 C4507 0.958 . S
H4522 C4507 0.961 . S
H4523 C4507 0.960 . S
C4524 C4525 1.391 . S
C4524 C4526 1.394 . S
C4524 H4540 0.931 . S
C4525 C4524 1.391 . S
C4525 C4529 1.376 . S
C4526 C4524 1.394 . S
C4526 C4527 1.369 . S
C4526 C4530 1.531 . S
C4527 C4526 1.369 . S
C4527 C4528 1.410 . S
C4527 C4535 1.503 . S
C4528 C4527 1.410 . S
C4528 C4529 1.392 . S
C4528 C4531 1.511 . S
C4529 C4525 1.376 . S
C4529 C4528 1.392 . S
C4529 H4541 0.929 . S
C4530 C4526 1.531 . S
C4530 H4542 0.960 . S
C4530 H4543 0.962 . S
C4530 H4544 0.960 . S
C4531 C4528 1.511 . S
C4531 H4545 0.961 . S
C4531 H4546 0.961 . S
C4531 H4547 0.961 . S
C4532 C4533 1.370 . S
C4532 C4534 1.363 . S
C4532 H4548 0.931 . S
C4533 C4532 1.370 . S
C4533 C4537 1.408 . S
C4534 C4532 1.363 . S
C4534 C4535 1.370 . S
C4534 C4538 1.524 . S
C4535 C4527 1.503 . S
C4535 C4534 1.370 . S
C4535 C4536 1.403 . S
C4536 C4535 1.403 . S
C4536 C4537 1.404 . S
C4536 C4539 1.539 . S
C4537 C4533 1.408 . S
C4537 C4536 1.404 . S
C4537 H4549 0.930 . S
C4538 C4534 1.524 . S
C4538 H4550 0.956 . S
C4538 H4551 0.961 . S
C4538 H4552 0.961 . S
C4539 C4536 1.539 . S
C4539 H4553 0.958 . S
C4539 H4554 0.961 . S
C4539 H4555 0.960 . S
H4540 C4524 0.931 . S
H4541 C4529 0.929 . S
H4542 C4530 0.960 . S
H4543 C4530 0.962 . S
H4544 C4530 0.960 . S
H4545 C4531 0.961 . S
H4546 C4531 0.961 . S
H4547 C4531 0.961 . S
H4548 C4532 0.931 . S
H4549 C4537 0.930 . S
H4550 C4538 0.956 . S
H4551 C4538 0.961 . S
H4552 C4538 0.961 . S
H4553 C4539 0.958 . S
H4554 C4539 0.961 . S
H4555 C4539 0.960 . S
C4556 C4557 1.391 . S
C4556 C4558 1.394 . S
C4556 H4572 0.931 . S
C4557 C4556 1.391 . S
C4557 C4561 1.376 . S
C4558 C4556 1.394 . S
C4558 C4559 1.369 . S
C4558 C4562 1.531 . S
C4559 C4558 1.369 . S
C4559 C4560 1.410 . S
C4559 C4567 1.503 . S
C4560 C4559 1.410 . S
C4560 C4561 1.392 . S
C4560 C4563 1.511 . S
C4561 C4557 1.376 . S
C4561 C4560 1.392 . S
C4561 H4573 0.929 . S
C4562 C4558 1.531 . S
C4562 H4574 0.960 . S
C4562 H4575 0.962 . S
C4562 H4576 0.960 . S
C4563 C4560 1.511 . S
C4563 H4577 0.961 . S
C4563 H4578 0.961 . S
C4563 H4579 0.961 . S
C4564 C4565 1.370 . S
C4564 C4566 1.363 . S
C4564 H4580 0.931 . S
C4565 C4564 1.370 . S
C4565 C4569 1.408 . S
C4566 C4564 1.363 . S
C4566 C4567 1.370 . S
C4566 C4570 1.524 . S
C4567 C4559 1.503 . S
C4567 C4566 1.370 . S
C4567 C4568 1.403 . S
C4568 C4567 1.403 . S
C4568 C4569 1.404 . S
C4568 C4571 1.539 . S
C4569 C4565 1.408 . S
C4569 C4568 1.404 . S
C4569 H4581 0.930 . S
C4570 C4566 1.524 . S
C4570 H4582 0.956 . S
C4570 H4583 0.961 . S
C4570 H4584 0.961 . S
C4571 C4568 1.539 . S
C4571 H4585 0.958 . S
C4571 H4586 0.961 . S
C4571 H4587 0.960 . S
H4572 C4556 0.931 . S
H4573 C4561 0.929 . S
H4574 C4562 0.960 . S
H4575 C4562 0.962 . S
H4576 C4562 0.960 . S
H4577 C4563 0.961 . S
H4578 C4563 0.961 . S
H4579 C4563 0.961 . S
H4580 C4564 0.931 . S
H4581 C4569 0.930 . S
H4582 C4570 0.956 . S
H4583 C4570 0.961 . S
H4584 C4570 0.961 . S
H4585 C4571 0.958 . S
H4586 C4571 0.961 . S
H4587 C4571 0.960 . S
C4588 C4589 1.391 . S
C4588 C4590 1.394 . S
C4588 H4604 0.931 . S
C4589 C4588 1.391 . S
C4589 C4593 1.376 . S
C4590 C4588 1.394 . S
C4590 C4591 1.369 . S
C4590 C4594 1.531 . S
C4591 C4590 1.369 . S
C4591 C4592 1.410 . S
C4591 C4599 1.503 . S
C4592 C4591 1.410 . S
C4592 C4593 1.392 . S
C4592 C4595 1.511 . S
C4593 C4589 1.376 . S
C4593 C4592 1.392 . S
C4593 H4605 0.929 . S
C4594 C4590 1.531 . S
C4594 H4606 0.960 . S
C4594 H4607 0.962 . S
C4594 H4608 0.960 . S
C4595 C4592 1.511 . S
C4595 H4609 0.961 . S
C4595 H4610 0.961 . S
C4595 H4611 0.961 . S
C4596 C4597 1.370 . S
C4596 C4598 1.363 . S
C4596 H4612 0.931 . S
C4597 C4596 1.370 . S
C4597 C4601 1.408 . S
C4598 C4596 1.363 . S
C4598 C4599 1.370 . S
C4598 C4602 1.524 . S
C4599 C4591 1.503 . S
C4599 C4598 1.370 . S
C4599 C4600 1.403 . S
C4600 C4599 1.403 . S
C4600 C4601 1.404 . S
C4600 C4603 1.539 . S
C4601 C4597 1.408 . S
C4601 C4600 1.404 . S
C4601 H4613 0.930 . S
C4602 C4598 1.524 . S
C4602 H4614 0.956 . S
C4602 H4615 0.961 . S
C4602 H4616 0.961 . S
C4603 C4600 1.539 . S
C4603 H4617 0.958 . S
C4603 H4618 0.961 . S
C4603 H4619 0.960 . S
H4604 C4588 0.931 . S
H4605 C4593 0.929 . S
H4606 C4594 0.960 . S
H4607 C4594 0.962 . S
H4608 C4594 0.960 . S
H4609 C4595 0.961 . S
H4610 C4595 0.961 . S
H4611 C4595 0.961 . S
H4612 C4596 0.931 . S
H4613 C4601 0.930 . S
H4614 C4602 0.956 . S
H4615 C4602 0.961 . S
H4616 C4602 0.961 . S
H4617 C4603 0.958 . S
H4618 C4603 0.961 . S
H4619 C4603 0.960 . S
C4620 C4621 1.391 . S
C4620 C4622 1.394 . S
C4620 H4636 0.931 . S
C4621 C4620 1.391 . S
C4621 C4625 1.375 . S
C4622 C4620 1.394 . S
C4622 C4623 1.369 . S
C4622 C4626 1.531 . S
C4623 C4622 1.369 . S
C4623 C4624 1.388 1_545 S
C4623 C4631 1.503 . S
C4624 C4623 1.388 1_565 S
C4624 C4625 1.366 1_565 S
C4624 C4627 1.561 . S
C4625 C4621 1.375 . S
C4625 C4624 1.366 1_545 S
C4625 H4637 0.929 1_545 S
C4626 C4622 1.531 . S
C4626 H4638 0.960 . S
C4626 H4639 0.962 . S
C4626 H4640 0.960 . S
C4627 C4624 1.561 . S
C4627 H4641 0.961 . S
C4627 H4642 0.961 . S
C4627 H4643 0.961 . S
C4628 C4629 1.370 . S
C4628 C4630 1.363 . S
C4628 H4644 0.931 1_545 S
C4629 C4628 1.370 . S
C4629 C4633 1.408 . S
C4630 C4628 1.363 . S
C4630 C4631 1.370 . S
C4630 C4634 1.524 1_545 S
C4631 C4623 1.503 . S
C4631 C4630 1.370 . S
C4631 C4632 1.403 . S
C4632 C4631 1.403 . S
C4632 C4633 1.404 . S
C4632 C4635 1.539 . S
C4633 C4629 1.408 . S
C4633 C4632 1.404 . S
C4633 H4645 0.930 . S
C4634 C4630 1.524 1_565 S
C4634 H4646 0.956 1_565 S
C4634 H4647 0.961 . S
C4634 H4648 0.961 . S
C4635 C4632 1.539 . S
C4635 H4649 0.958 . S
C4635 H4650 0.961 . S
C4635 H4651 0.960 . S
H4636 C4620 0.931 . S
H4637 C4625 0.929 1_565 S
H4638 C4626 0.960 . S
H4639 C4626 0.962 . S
H4640 C4626 0.960 . S
H4641 C4627 0.961 . S
H4642 C4627 0.961 . S
H4643 C4627 0.961 . S
H4644 C4628 0.931 1_565 S
H4645 C4633 0.930 . S
H4646 C4634 0.956 1_545 S
H4647 C4634 0.961 . S
H4648 C4634 0.961 . S
H4649 C4635 0.958 . S
H4650 C4635 0.961 . S
H4651 C4635 0.960 . S
C4652 C4653 1.391 . S
C4652 C4654 1.394 . S
C4652 H4668 0.931 . S
C4653 C4652 1.391 . S
C4653 C4657 1.376 1_655 S
C4654 C4652 1.394 . S
C4654 C4655 1.369 . S
C4654 C4658 1.531 . S
C4655 C4654 1.369 . S
C4655 C4656 1.410 1_655 S
C4655 C4663 1.503 . S
C4656 C4655 1.410 1_455 S
C4656 C4657 1.392 . S
C4656 C4659 1.511 . S
C4657 C4653 1.376 1_455 S
C4657 C4656 1.392 . S
C4657 H4669 0.929 . S
C4658 C4654 1.531 . S
C4658 H4670 0.960 . S
C4658 H4671 0.962 . S
C4658 H4672 0.960 . S
C4659 C4656 1.511 . S
C4659 H4673 0.961 . S
C4659 H4674 0.961 . S
C4659 H4675 0.961 . S
C4660 C4661 1.370 . S
C4660 C4662 1.363 . S
C4660 H4676 0.931 . S
C4661 C4660 1.370 . S
C4661 C4665 1.408 . S
C4662 C4660 1.363 . S
C4662 C4663 1.370 . S
C4662 C4666 1.524 . S
C4663 C4655 1.503 . S
C4663 C4662 1.370 . S
C4663 C4664 1.403 . S
C4664 C4663 1.403 . S
C4664 C4665 1.404 . S
C4664 C4667 1.539 . S
C4665 C4661 1.408 . S
C4665 C4664 1.404 . S
C4665 H4677 0.930 . S
C4666 C4662 1.524 . S
C4666 H4678 0.956 . S
C4666 H4679 0.961 1_655 S
C4666 H4680 0.961 . S
C4667 C4664 1.539 . S
C4667 H4681 0.958 . S
C4667 H4682 0.961 . S
C4667 H4683 0.960 . S
H4668 C4652 0.931 . S
H4669 C4657 0.929 . S
H4670 C4658 0.960 . S
H4671 C4658 0.962 . S
H4672 C4658 0.960 . S
H4673 C4659 0.961 . S
H4674 C4659 0.961 . S
H4675 C4659 0.961 . S
H4676 C4660 0.931 . S
H4677 C4665 0.930 . S
H4678 C4666 0.956 . S
H4679 C4666 0.961 1_455 S
H4680 C4666 0.961 . S
H4681 C4667 0.958 . S
H4682 C4667 0.961 . S
H4683 C4667 0.960 . S
C4684 C4685 1.391 . S
C4684 C4686 1.394 . S
C4684 H4700 0.931 . S
C4685 C4684 1.391 . S
C4685 C4689 1.376 . S
C4686 C4684 1.394 . S
C4686 C4687 1.369 . S
C4686 C4690 1.531 . S
C4687 C4686 1.369 . S
C4687 C4688 1.410 . S
C4687 C4695 1.503 . S
C4688 C4687 1.410 . S
C4688 C4689 1.392 . S
C4688 C4691 1.511 . S
C4689 C4685 1.376 . S
C4689 C4688 1.392 . S
C4689 H4701 0.929 . S
C4690 C4686 1.531 . S
C4690 H4702 0.960 . S
C4690 H4703 0.962 . S
C4690 H4704 0.960 . S
C4691 C4688 1.511 . S
C4691 H4705 0.961 . S
C4691 H4706 0.961 . S
C4691 H4707 0.961 . S
C4692 C4693 1.370 . S
C4692 C4694 1.363 . S
C4692 H4708 0.931 . S
C4693 C4692 1.370 . S
C4693 C4697 1.408 . S
C4694 C4692 1.363 . S
C4694 C4695 1.370 . S
C4694 C4698 1.524 . S
C4695 C4687 1.503 . S
C4695 C4694 1.370 . S
C4695 C4696 1.403 . S
C4696 C4695 1.403 . S
C4696 C4697 1.404 . S
C4696 C4699 1.539 . S
C4697 C4693 1.408 . S
C4697 C4696 1.404 . S
C4697 H4709 0.930 . S
C4698 C4694 1.524 . S
C4698 H4710 0.956 . S
C4698 H4711 0.961 . S
C4698 H4712 0.961 . S
C4699 C4696 1.539 . S
C4699 H4713 0.958 . S
C4699 H4714 0.961 . S
C4699 H4715 0.960 . S
H4700 C4684 0.931 . S
H4701 C4689 0.929 . S
H4702 C4690 0.960 . S
H4703 C4690 0.962 . S
H4704 C4690 0.960 . S
H4705 C4691 0.961 . S
H4706 C4691 0.961 . S
H4707 C4691 0.961 . S
H4708 C4692 0.931 . S
H4709 C4697 0.930 . S
H4710 C4698 0.956 . S
H4711 C4698 0.961 . S
H4712 C4698 0.961 . S
H4713 C4699 0.958 . S
H4714 C4699 0.961 . S
H4715 C4699 0.960 . S
C4716 C4717 1.391 . S
C4716 C4718 1.394 . S
C4716 H4732 0.931 . S
C4717 C4716 1.391 . S
C4717 C4721 1.376 . S
C4718 C4716 1.394 . S
C4718 C4719 1.369 . S
C4718 C4722 1.531 . S
C4719 C4718 1.369 . S
C4719 C4720 1.410 . S
C4719 C4727 1.503 . S
C4720 C4719 1.410 . S
C4720 C4721 1.392 . S
C4720 C4723 1.511 . S
C4721 C4717 1.376 . S
C4721 C4720 1.392 . S
C4721 H4733 0.929 . S
C4722 C4718 1.531 . S
C4722 H4734 0.960 . S
C4722 H4735 0.962 . S
C4722 H4736 0.960 . S
C4723 C4720 1.511 . S
C4723 H4737 0.961 . S
C4723 H4738 0.961 . S
C4723 H4739 0.961 . S
C4724 C4725 1.370 . S
C4724 C4726 1.363 . S
C4724 H4740 0.931 . S
C4725 C4724 1.370 . S
C4725 C4729 1.408 . S
C4726 C4724 1.363 . S
C4726 C4727 1.370 . S
C4726 C4730 1.524 . S
C4727 C4719 1.503 . S
C4727 C4726 1.370 . S
C4727 C4728 1.403 . S
C4728 C4727 1.403 . S
C4728 C4729 1.404 . S
C4728 C4731 1.539 . S
C4729 C4725 1.408 . S
C4729 C4728 1.404 . S
C4729 H4741 0.930 . S
C4730 C4726 1.524 . S
C4730 H4742 0.956 . S
C4730 H4743 0.961 . S
C4730 H4744 0.961 . S
C4731 C4728 1.539 . S
C4731 H4745 0.958 . S
C4731 H4746 0.961 . S
C4731 H4747 0.960 . S
H4732 C4716 0.931 . S
H4733 C4721 0.929 . S
H4734 C4722 0.960 . S
H4735 C4722 0.962 . S
H4736 C4722 0.960 . S
H4737 C4723 0.961 . S
H4738 C4723 0.961 . S
H4739 C4723 0.961 . S
H4740 C4724 0.931 . S
H4741 C4729 0.930 . S
H4742 C4730 0.956 . S
H4743 C4730 0.961 . S
H4744 C4730 0.961 . S
H4745 C4731 0.958 . S
H4746 C4731 0.961 . S
H4747 C4731 0.960 . S
C4748 C4749 1.391 . S
C4748 C4750 1.394 . S
C4748 H4764 0.931 . S
C4749 C4748 1.391 . S
C4749 C4753 1.376 . S
C4750 C4748 1.394 . S
C4750 C4751 1.369 . S
C4750 C4754 1.531 . S
C4751 C4750 1.369 . S
C4751 C4752 1.410 . S
C4751 C4759 1.503 . S
C4752 C4751 1.410 . S
C4752 C4753 1.392 . S
C4752 C4755 1.511 . S
C4753 C4749 1.376 . S
C4753 C4752 1.392 . S
C4753 H4765 0.929 . S
C4754 C4750 1.531 . S
C4754 H4766 0.960 . S
C4754 H4767 0.962 . S
C4754 H4768 0.960 . S
C4755 C4752 1.511 . S
C4755 H4769 0.961 . S
C4755 H4770 0.961 . S
C4755 H4771 0.961 . S
C4756 C4757 1.370 . S
C4756 C4758 1.363 . S
C4756 H4772 0.931 . S
C4757 C4756 1.370 . S
C4757 C4761 1.408 . S
C4758 C4756 1.363 . S
C4758 C4759 1.370 . S
C4758 C4762 1.524 . S
C4759 C4751 1.503 . S
C4759 C4758 1.370 . S
C4759 C4760 1.403 . S
C4760 C4759 1.403 . S
C4760 C4761 1.404 . S
C4760 C4763 1.539 . S
C4761 C4757 1.408 . S
C4761 C4760 1.404 . S
C4761 H4773 0.930 . S
C4762 C4758 1.524 . S
C4762 H4774 0.956 . S
C4762 H4775 0.961 . S
C4762 H4776 0.961 . S
C4763 C4760 1.539 . S
C4763 H4777 0.958 . S
C4763 H4778 0.961 . S
C4763 H4779 0.960 . S
H4764 C4748 0.931 . S
H4765 C4753 0.929 . S
H4766 C4754 0.960 . S
H4767 C4754 0.962 . S
H4768 C4754 0.960 . S
H4769 C4755 0.961 . S
H4770 C4755 0.961 . S
H4771 C4755 0.961 . S
H4772 C4756 0.931 . S
H4773 C4761 0.930 . S
H4774 C4762 0.956 . S
H4775 C4762 0.961 . S
H4776 C4762 0.961 . S
H4777 C4763 0.958 . S
H4778 C4763 0.961 . S
H4779 C4763 0.960 . S
C4780 C4781 1.391 . S
C4780 C4782 1.394 . S
C4780 H4796 0.931 . S
C4781 C4780 1.391 . S
C4781 C4785 1.376 . S
C4782 C4780 1.394 . S
C4782 C4783 1.369 . S
C4782 C4786 1.531 . S
C4783 C4782 1.369 . S
C4783 C4784 1.410 . S
C4783 C4791 1.503 . S
C4784 C4783 1.410 . S
C4784 C4785 1.392 . S
C4784 C4787 1.511 . S
C4785 C4781 1.376 . S
C4785 C4784 1.392 . S
C4785 H4797 0.929 . S
C4786 C4782 1.531 . S
C4786 H4798 0.960 . S
C4786 H4799 0.962 . S
C4786 H4800 0.960 . S
C4787 C4784 1.511 . S
C4787 H4801 0.961 . S
C4787 H4802 0.961 . S
C4787 H4803 0.961 . S
C4788 C4789 1.370 . S
C4788 C4790 1.363 . S
C4788 H4804 0.931 . S
C4789 C4788 1.370 . S
C4789 C4793 1.408 . S
C4790 C4788 1.363 . S
C4790 C4791 1.370 . S
C4790 C4794 1.524 . S
C4791 C4783 1.503 . S
C4791 C4790 1.370 . S
C4791 C4792 1.403 . S
C4792 C4791 1.403 . S
C4792 C4793 1.404 . S
C4792 C4795 1.539 . S
C4793 C4789 1.408 . S
C4793 C4792 1.404 . S
C4793 H4805 0.930 . S
C4794 C4790 1.524 . S
C4794 H4806 0.956 . S
C4794 H4807 0.961 . S
C4794 H4808 0.961 . S
C4795 C4792 1.539 . S
C4795 H4809 0.958 . S
C4795 H4810 0.961 . S
C4795 H4811 0.960 . S
H4796 C4780 0.931 . S
H4797 C4785 0.929 . S
H4798 C4786 0.960 . S
H4799 C4786 0.962 . S
H4800 C4786 0.960 . S
H4801 C4787 0.961 . S
H4802 C4787 0.961 . S
H4803 C4787 0.961 . S
H4804 C4788 0.931 . S
H4805 C4793 0.930 . S
H4806 C4794 0.956 . S
H4807 C4794 0.961 . S
H4808 C4794 0.961 . S
H4809 C4795 0.958 . S
H4810 C4795 0.961 . S
H4811 C4795 0.960 . S
C4812 C4813 1.391 . S
C4812 C4814 1.394 . S
C4812 H4828 0.931 . S
C4813 C4812 1.391 . S
C4813 C4817 1.376 . S
C4814 C4812 1.394 . S
C4814 C4815 1.369 . S
C4814 C4818 1.531 . S
C4815 C4814 1.369 . S
C4815 C4816 1.410 . S
C4815 C4823 1.503 . S
C4816 C4815 1.410 . S
C4816 C4817 1.392 . S
C4816 C4819 1.511 . S
C4817 C4813 1.376 . S
C4817 C4816 1.392 . S
C4817 H4829 0.929 . S
C4818 C4814 1.531 . S
C4818 H4830 0.960 . S
C4818 H4831 0.962 . S
C4818 H4832 0.960 . S
C4819 C4816 1.511 . S
C4819 H4833 0.961 . S
C4819 H4834 0.961 . S
C4819 H4835 0.961 . S
C4820 C4821 1.370 . S
C4820 C4822 1.363 . S
C4820 H4836 0.931 . S
C4821 C4820 1.370 . S
C4821 C4825 1.408 . S
C4822 C4820 1.363 . S
C4822 C4823 1.370 . S
C4822 C4826 1.524 . S
C4823 C4815 1.503 . S
C4823 C4822 1.370 . S
C4823 C4824 1.403 . S
C4824 C4823 1.403 . S
C4824 C4825 1.404 . S
C4824 C4827 1.539 . S
C4825 C4821 1.408 . S
C4825 C4824 1.404 . S
C4825 H4837 0.930 . S
C4826 C4822 1.524 . S
C4826 H4838 0.956 . S
C4826 H4839 0.961 . S
C4826 H4840 0.961 . S
C4827 C4824 1.539 . S
C4827 H4841 0.958 . S
C4827 H4842 0.961 . S
C4827 H4843 0.960 . S
H4828 C4812 0.931 . S
H4829 C4817 0.929 . S
H4830 C4818 0.960 . S
H4831 C4818 0.962 . S
H4832 C4818 0.960 . S
H4833 C4819 0.961 . S
H4834 C4819 0.961 . S
H4835 C4819 0.961 . S
H4836 C4820 0.931 . S
H4837 C4825 0.930 . S
H4838 C4826 0.956 . S
H4839 C4826 0.961 . S
H4840 C4826 0.961 . S
H4841 C4827 0.958 . S
H4842 C4827 0.961 . S
H4843 C4827 0.960 . S
C4844 C4845 1.391 . S
C4844 C4846 1.394 . S
C4844 H4860 0.931 . S
C4845 C4844 1.391 . S
C4845 C4849 1.376 . S
C4846 C4844 1.394 . S
C4846 C4847 1.369 . S
C4846 C4850 1.531 . S
C4847 C4846 1.369 . S
C4847 C4848 1.410 . S
C4847 C4855 1.503 . S
C4848 C4847 1.410 . S
C4848 C4849 1.392 . S
C4848 C4851 1.511 . S
C4849 C4845 1.376 . S
C4849 C4848 1.392 . S
C4849 H4861 0.929 . S
C4850 C4846 1.531 . S
C4850 H4862 0.960 . S
C4850 H4863 0.962 . S
C4850 H4864 0.960 . S
C4851 C4848 1.511 . S
C4851 H4865 0.961 . S
C4851 H4866 0.961 . S
C4851 H4867 0.961 . S
C4852 C4853 1.370 . S
C4852 C4854 1.363 . S
C4852 H4868 0.931 . S
C4853 C4852 1.370 . S
C4853 C4857 1.408 . S
C4854 C4852 1.363 . S
C4854 C4855 1.370 . S
C4854 C4858 1.524 . S
C4855 C4847 1.503 . S
C4855 C4854 1.370 . S
C4855 C4856 1.403 . S
C4856 C4855 1.403 . S
C4856 C4857 1.404 . S
C4856 C4859 1.539 . S
C4857 C4853 1.408 . S
C4857 C4856 1.404 . S
C4857 H4869 0.930 . S
C4858 C4854 1.524 . S
C4858 H4870 0.956 . S
C4858 H4871 0.961 . S
C4858 H4872 0.961 . S
C4859 C4856 1.539 . S
C4859 H4873 0.958 . S
C4859 H4874 0.961 . S
C4859 H4875 0.960 . S
H4860 C4844 0.931 . S
H4861 C4849 0.929 . S
H4862 C4850 0.960 . S
H4863 C4850 0.962 . S
H4864 C4850 0.960 . S
H4865 C4851 0.961 . S
H4866 C4851 0.961 . S
H4867 C4851 0.961 . S
H4868 C4852 0.931 . S
H4869 C4857 0.930 . S
H4870 C4858 0.956 . S
H4871 C4858 0.961 . S
H4872 C4858 0.961 . S
H4873 C4859 0.958 . S
H4874 C4859 0.961 . S
H4875 C4859 0.960 . S
C4876 C4877 1.391 . S
C4876 C4878 1.394 . S
C4876 H4892 0.931 . S
C4877 C4876 1.391 . S
C4877 C4881 1.376 . S
C4878 C4876 1.394 . S
C4878 C4879 1.369 . S
C4878 C4882 1.531 . S
C4879 C4878 1.369 . S
C4879 C4880 1.410 . S
C4879 C4887 1.503 . S
C4880 C4879 1.410 . S
C4880 C4881 1.392 . S
C4880 C4883 1.511 . S
C4881 C4877 1.376 . S
C4881 C4880 1.392 . S
C4881 H4893 0.929 . S
C4882 C4878 1.531 . S
C4882 H4894 0.960 . S
C4882 H4895 0.962 . S
C4882 H4896 0.960 . S
C4883 C4880 1.511 . S
C4883 H4897 0.961 . S
C4883 H4898 0.961 . S
C4883 H4899 0.961 . S
C4884 C4885 1.370 . S
C4884 C4886 1.363 . S
C4884 H4900 0.931 . S
C4885 C4884 1.370 . S
C4885 C4889 1.408 . S
C4886 C4884 1.363 . S
C4886 C4887 1.370 . S
C4886 C4890 1.524 . S
C4887 C4879 1.503 . S
C4887 C4886 1.370 . S
C4887 C4888 1.403 . S
C4888 C4887 1.403 . S
C4888 C4889 1.404 . S
C4888 C4891 1.539 . S
C4889 C4885 1.408 . S
C4889 C4888 1.404 . S
C4889 H4901 0.930 . S
C4890 C4886 1.524 . S
C4890 H4902 0.956 . S
C4890 H4903 0.961 . S
C4890 H4904 0.961 . S
C4891 C4888 1.539 . S
C4891 H4905 0.958 . S
C4891 H4906 0.961 . S
C4891 H4907 0.960 . S
H4892 C4876 0.931 . S
H4893 C4881 0.929 . S
H4894 C4882 0.960 . S
H4895 C4882 0.962 . S
H4896 C4882 0.960 . S
H4897 C4883 0.961 . S
H4898 C4883 0.961 . S
H4899 C4883 0.961 . S
H4900 C4884 0.931 . S
H4901 C4889 0.930 . S
H4902 C4890 0.956 . S
H4903 C4890 0.961 . S
H4904 C4890 0.961 . S
H4905 C4891 0.958 . S
H4906 C4891 0.961 . S
H4907 C4891 0.960 . S
C4908 C4909 1.391 . S
C4908 C4910 1.371 1_655 S
C4908 H4924 0.931 1_655 S
C4909 C4908 1.391 . S
C4909 C4913 1.376 . S
C4910 C4908 1.371 1_455 S
C4910 C4911 1.356 1_455 S
C4910 C4914 1.569 . S
C4911 C4910 1.356 1_655 S
C4911 C4912 1.410 . S
C4911 C4919 1.503 . S
C4912 C4911 1.410 . S
C4912 C4913 1.392 . S
C4912 C4915 1.511 . S
C4913 C4909 1.376 . S
C4913 C4912 1.392 . S
C4913 H4925 0.929 . S
C4914 C4910 1.569 . S
C4914 H4926 0.960 . S
C4914 H4927 0.962 . S
C4914 H4928 0.960 . S
C4915 C4912 1.511 . S
C4915 H4929 0.961 . S
C4915 H4930 0.961 . S
C4915 H4931 0.961 . S
C4916 C4917 1.370 . S
C4916 C4918 1.363 . S
C4916 H4932 0.931 . S
C4917 C4916 1.370 . S
C4917 C4921 1.408 1_655 S
C4918 C4916 1.363 . S
C4918 C4919 1.370 . S
C4918 C4922 1.524 . S
C4919 C4911 1.503 . S
C4919 C4918 1.370 . S
C4919 C4920 1.403 1_655 S
C4920 C4919 1.403 1_455 S
C4920 C4921 1.404 . S
C4920 C4923 1.539 . S
C4921 C4917 1.408 1_455 S
C4921 C4920 1.404 . S
C4921 H4933 0.930 . S
C4922 C4918 1.524 . S
C4922 H4934 0.956 . S
C4922 H4935 0.961 . S
C4922 H4936 0.961 . S
C4923 C4920 1.539 . S
C4923 H4937 0.958 . S
C4923 H4938 0.961 . S
C4923 H4939 0.960 . S
H4924 C4908 0.931 1_455 S
H4925 C4913 0.929 . S
H4926 C4914 0.960 . S
H4927 C4914 0.962 . S
H4928 C4914 0.960 . S
H4929 C4915 0.961 . S
H4930 C4915 0.961 . S
H4931 C4915 0.961 . S
H4932 C4916 0.931 . S
H4933 C4921 0.930 . S
H4934 C4922 0.956 . S
H4935 C4922 0.961 . S
H4936 C4922 0.961 . S
H4937 C4923 0.958 . S
H4938 C4923 0.961 . S
H4939 C4923 0.960 . S
C4940 C4941 1.391 . S
C4940 C4942 1.394 . S
C4940 H4956 0.931 . S
C4941 C4940 1.391 . S
C4941 C4945 1.376 . S
C4942 C4940 1.394 . S
C4942 C4943 1.369 . S
C4942 C4946 1.531 . S
C4943 C4942 1.369 . S
C4943 C4944 1.410 . S
C4943 C4951 1.503 . S
C4944 C4943 1.410 . S
C4944 C4945 1.392 . S
C4944 C4947 1.511 . S
C4945 C4941 1.376 . S
C4945 C4944 1.392 . S
C4945 H4957 0.929 . S
C4946 C4942 1.531 . S
C4946 H4958 0.960 . S
C4946 H4959 0.962 . S
C4946 H4960 0.960 . S
C4947 C4944 1.511 . S
C4947 H4961 0.961 . S
C4947 H4962 0.961 . S
C4947 H4963 0.961 . S
C4948 C4949 1.370 . S
C4948 C4950 1.363 . S
C4948 H4964 0.931 . S
C4949 C4948 1.370 . S
C4949 C4953 1.408 . S
C4950 C4948 1.363 . S
C4950 C4951 1.370 . S
C4950 C4954 1.524 . S
C4951 C4943 1.503 . S
C4951 C4950 1.370 . S
C4951 C4952 1.403 . S
C4952 C4951 1.403 . S
C4952 C4953 1.404 . S
C4952 C4955 1.539 . S
C4953 C4949 1.408 . S
C4953 C4952 1.404 . S
C4953 H4965 0.930 . S
C4954 C4950 1.524 . S
C4954 H4966 0.956 . S
C4954 H4967 0.961 . S
C4954 H4968 0.961 . S
C4955 C4952 1.539 . S
C4955 H4969 0.958 . S
C4955 H4970 0.961 . S
C4955 H4971 0.960 . S
H4956 C4940 0.931 . S
H4957 C4945 0.929 . S
H4958 C4946 0.960 . S
H4959 C4946 0.962 . S
H4960 C4946 0.960 . S
H4961 C4947 0.961 . S
H4962 C4947 0.961 . S
H4963 C4947 0.961 . S
H4964 C4948 0.931 . S
H4965 C4953 0.930 . S
H4966 C4954 0.956 . S
H4967 C4954 0.961 . S
H4968 C4954 0.961 . S
H4969 C4955 0.958 . S
H4970 C4955 0.961 . S
H4971 C4955 0.960 . S
C4972 C4973 1.391 . S
C4972 C4974 1.394 . S
C4972 H4988 0.931 . S
C4973 C4972 1.391 . S
C4973 C4977 1.376 . S
C4974 C4972 1.394 . S
C4974 C4975 1.369 . S
C4974 C4978 1.531 . S
C4975 C4974 1.369 . S
C4975 C4976 1.410 . S
C4975 C4983 1.503 . S
C4976 C4975 1.410 . S
C4976 C4977 1.392 . S
C4976 C4979 1.511 . S
C4977 C4973 1.376 . S
C4977 C4976 1.392 . S
C4977 H4989 0.929 . S
C4978 C4974 1.531 . S
C4978 H4990 0.960 . S
C4978 H4991 0.962 1_545 S
C4978 H4992 0.960 . S
C4979 C4976 1.511 . S
C4979 H4993 0.961 . S
C4979 H4994 0.961 . S
C4979 H4995 0.961 . S
C4980 C4981 1.370 1_565 S
C4980 C4982 1.363 . S
C4980 H4996 0.931 . S
C4981 C4980 1.370 1_545 S
C4981 C4985 1.408 . S
C4982 C4980 1.363 . S
C4982 C4983 1.370 1_565 S
C4982 C4986 1.524 . S
C4983 C4975 1.503 . S
C4983 C4982 1.370 1_545 S
C4983 C4984 1.403 . S
C4984 C4983 1.403 . S
C4984 C4985 1.404 . S
C4984 C4987 1.539 . S
C4985 C4981 1.408 . S
C4985 C4984 1.404 . S
C4985 H4997 0.930 . S
C4986 C4982 1.524 . S
C4986 H4998 0.956 . S
C4986 H4999 0.961 . S
C4986 H5000 0.961 . S
C4987 C4984 1.539 . S
C4987 H5001 0.958 . S
C4987 H5002 0.961 . S
C4987 H5003 0.960 . S
H4988 C4972 0.931 . S
H4989 C4977 0.929 . S
H4990 C4978 0.960 . S
H4991 C4978 0.962 1_565 S
H4992 C4978 0.960 . S
H4993 C4979 0.961 . S
H4994 C4979 0.961 . S
H4995 C4979 0.961 . S
H4996 C4980 0.931 . S
H4997 C4985 0.930 . S
H4998 C4986 0.956 . S
H4999 C4986 0.961 . S
H5000 C4986 0.961 . S
H5001 C4987 0.958 . S
H5002 C4987 0.961 . S
H5003 C4987 0.960 . S
C2701 C4 1.314 . S
C2709 C1703 1.043 . S
C2733 C38 1.870 . S
C2741 C1843 1.193 . S
C2773 C1931 1.088 . S
C2765 C74 1.280 . S
C2797 C76 1.335 . S
C2805 C2071 0.993 1_565 S
C2829 C2 1.455 . S
C2837 C2185 1.152 . S
C2861 C40 1.682 . S
C2869 C2273 1.244 . S
C2893 C110 1.323 . S
C2901 C2159 1.081 . S
C2933 C2299 1.398 . S
C2925 C148 1.597 . S
C2965 C2045 1.157 . S
C2957 C182 1.391 . S
C2989 C184 1.378 . S
C2997 C1957 1.096 . S
C3029 C1729 1.088 . S
C3021 C112 1.304 . S
C3053 C146 1.681 . S
C3061 C1817 1.544 . S
C3085 C220 1.800 . S
C3093 C2387 1.351 . S
C3117 C254 1.986 . S
C3125 C2527 1.311 . S
C3157 C2615 1.349 . S
C3149 C290 1.806 . S
C3181 C292 1.735 . S
C3189 C703 1.093 . S
C3213 C218 1.898 . S
C3221 C817 1.265 . S
C3245 C256 1.754 . S
C3253 C905 1.314 . S
C3277 C326 1.669 . S
C3285 C791 1.510 . S
C3309 C364 1.700 . S
C3317 C931 1.477 . S
C3349 C677 1.591 . S
C3341 C398 1.770 . S
C3381 C2641 1.571 . S
C3373 C400 1.819 . S
C3413 C2413 1.356 . S
C3405 C328 1.586 . S
C3445 C2501 1.641 . S
C3437 C362 1.790 . S
C3469 C436 1.654 . S
C3477 C1019 1.228 . S
C3501 C470 1.968 . S
C3509 C1159 1.241 . S
C3533 C506 1.822 . S
C3541 C1247 1.329 . S
C3565 C508 1.882 . S
C3573 C1387 1.251 . S
C3605 C1501 1.234 . S
C3597 C434 1.862 . S
C3637 C1589 1.331 . S
C3629 C472 1.774 . S
C3669 C1475 1.676 . S
C3661 C542 1.816 . S
C3701 C1615 1.476 . S
C3693 C580 1.711 . S
C3725 C614 1.720 . S
C3733 C1361 1.548 . S
C3765 C1273 1.429 . S
C3757 C616 1.661 . S
C3789 C544 1.636 . S
C3797 C1045 1.375 . S
C3829 C1133 1.588 . S
C3821 C578 1.756 . S
C3861 C659 1.067 . S
C3853 C14 1.863 . S
C3885 C39 1.667 . S
C3893 C773 0.952 . S
C3925 C877 1.255 . S
C3917 C75 1.711 . S
C3957 C991 1.164 . S
C3949 C86 1.563 . S
C3989 C1115 1.017 . S
C3981 C3 1.788 . S
C4021 C1219 1.210 . S
C4013 C50 1.699 . S
C4045 C111 1.931 . S
C4053 C1229 1.478 . S
C4077 C158 1.749 . S
C4085 C1001 1.340 . S
C4109 C183 1.977 . S
C4117 C1105 1.732 . S
C4141 C194 1.816 . S
C4149 C763 1.622 . S
C4181 C887 1.428 . S
C4173 C122 1.850 . S
C4205 C147 1.699 . S
C4213 C649 1.485 . S
C4245 C1343 1.021 . S
C4237 C230 1.775 . S
C4269 C255 1.824 . S
C4277 C1457 1.044 . S
C4301 C291 1.735 . S
C4309 C1561 1.275 . S
C4341 C1675 0.956 . S
C4333 C302 1.129 . S
C4365 C219 1.683 . S
C4373 C1799 0.963 . S
C4397 C266 1.320 . S
C4405 C1903 1.075 . S
C4429 C327 1.355 . S
C4437 C1913 0.871 1_565 S
C4461 C374 1.232 . S
C4469 C1685 0.912 1_455 S
C4501 C1789 1.621 . S
C4493 C399 1.853 . S
C4525 C410 1.752 . S
C4533 C1447 1.554 . S
C4557 C338 1.845 . S
C4565 C1571 1.463 . S
C4597 C1333 1.614 . S
C4589 C363 1.843 . S
C4629 C2027 0.943 . S
C4621 C446 1.352 . S
C4653 C471 1.318 . S
C4661 C2141 0.894 . S
C4685 C507 1.618 . S
C4693 C2245 1.217 . S
C4725 C2359 1.112 . S
C4717 C518 1.508 . S
C4757 C2483 1.090 . S
C4749 C435 1.821 . S
C4781 C482 1.799 . S
C4789 C2587 1.378 . S
C4813 C543 1.816 . S
C4821 C2597 1.428 . S
C4845 C590 1.865 . S
C4853 C2369 1.503 . S
C4885 C2473 1.767 . S
C4877 C615 1.965 . S
C4917 C2131 1.064 1_655 S
C4909 C626 1.244 . S
C4949 C2255 1.346 . S
C4941 C554 1.766 . S
C4973 C579 1.285 . S
C4981 C2017 1.073 1_545 S
