# Generated by pormake.
# Topology sqc, (4,8)-cn, num edge types: 1
# Building blocks:
#     Node 0, Type 0, BuildingBlock: NAWXER_clean_linker_0, # of connection points: 4
#     Node 1, Type 0, BuildingBlock: NAWXER_clean_linker_0, # of connection points: 4
#     Node 2, Type 0, BuildingBlock: NAWXER_clean_linker_0, # of connection points: 4
#     Node 3, Type 0, BuildingBlock: NAWXER_clean_linker_0, # of connection points: 4
#     Node 4, Type 0, BuildingBlock: NAWXER_clean_linker_0, # of connection points: 4
#     Node 5, Type 0, BuildingBlock: NAWXER_clean_linker_0, # of connection points: 4
#     Node 6, Type 0, BuildingBlock: NAWXER_clean_linker_0, # of connection points: 4
#     Node 7, Type 0, BuildingBlock: NAWXER_clean_linker_0, # of connection points: 4
#     Node 8, Type 1, BuildingBlock: TAGTUT_clean_sbu_3, # of connection points: 8
#     Node 9, Type 1, BuildingBlock: TAGTUT_clean_sbu_3, # of connection points: 8
#     Node 10, Type 1, BuildingBlock: TAGTUT_clean_sbu_3, # of connection points: 8
#     Node 11, Type 1, BuildingBlock: TAGTUT_clean_sbu_3, # of connection points: 8
#     Edge 12, Type (0, 1), BuildingBlock: AJUNOK_clean_linker_0, # of connection points: 2
#     Edge 13, Type (0, 1), BuildingBlock: AJUNOK_clean_linker_0, # of connection points: 2
#     Edge 14, Type (0, 1), BuildingBlock: AJUNOK_clean_linker_0, # of connection points: 2
#     Edge 15, Type (0, 1), BuildingBlock: AJUNOK_clean_linker_0, # of connection points: 2
#     Edge 16, Type (0, 1), BuildingBlock: AJUNOK_clean_linker_0, # of connection points: 2
#     Edge 17, Type (0, 1), BuildingBlock: AJUNOK_clean_linker_0, # of connection points: 2
#     Edge 18, Type (0, 1), BuildingBlock: AJUNOK_clean_linker_0, # of connection points: 2
#     Edge 19, Type (0, 1), BuildingBlock: AJUNOK_clean_linker_0, # of connection points: 2
#     Edge 20, Type (0, 1), BuildingBlock: AJUNOK_clean_linker_0, # of connection points: 2
#     Edge 21, Type (0, 1), BuildingBlock: AJUNOK_clean_linker_0, # of connection points: 2
#     Edge 22, Type (0, 1), BuildingBlock: AJUNOK_clean_linker_0, # of connection points: 2
#     Edge 23, Type (0, 1), BuildingBlock: AJUNOK_clean_linker_0, # of connection points: 2
#     Edge 24, Type (0, 1), BuildingBlock: AJUNOK_clean_linker_0, # of connection points: 2
#     Edge 25, Type (0, 1), BuildingBlock: AJUNOK_clean_linker_0, # of connection points: 2
#     Edge 26, Type (0, 1), BuildingBlock: AJUNOK_clean_linker_0, # of connection points: 2
#     Edge 27, Type (0, 1), BuildingBlock: AJUNOK_clean_linker_0, # of connection points: 2
#     Edge 28, Type (0, 1), BuildingBlock: AJUNOK_clean_linker_0, # of connection points: 2
#     Edge 29, Type (0, 1), BuildingBlock: AJUNOK_clean_linker_0, # of connection points: 2
#     Edge 30, Type (0, 1), BuildingBlock: AJUNOK_clean_linker_0, # of connection points: 2
#     Edge 31, Type (0, 1), BuildingBlock: AJUNOK_clean_linker_0, # of connection points: 2
#     Edge 32, Type (0, 1), BuildingBlock: AJUNOK_clean_linker_0, # of connection points: 2
#     Edge 33, Type (0, 1), BuildingBlock: AJUNOK_clean_linker_0, # of connection points: 2
#     Edge 34, Type (0, 1), BuildingBlock: AJUNOK_clean_linker_0, # of connection points: 2
#     Edge 35, Type (0, 1), BuildingBlock: AJUNOK_clean_linker_0, # of connection points: 2
#     Edge 36, Type (0, 1), BuildingBlock: AJUNOK_clean_linker_0, # of connection points: 2
#     Edge 37, Type (0, 1), BuildingBlock: AJUNOK_clean_linker_0, # of connection points: 2
#     Edge 38, Type (0, 1), BuildingBlock: AJUNOK_clean_linker_0, # of connection points: 2
#     Edge 39, Type (0, 1), BuildingBlock: AJUNOK_clean_linker_0, # of connection points: 2
#     Edge 40, Type (0, 1), BuildingBlock: AJUNOK_clean_linker_0, # of connection points: 2
#     Edge 41, Type (0, 1), BuildingBlock: AJUNOK_clean_linker_0, # of connection points: 2
#     Edge 42, Type (0, 1), BuildingBlock: AJUNOK_clean_linker_0, # of connection points: 2
#     Edge 43, Type (0, 1), BuildingBlock: AJUNOK_clean_linker_0, # of connection points: 2
# Relax obj value: 0.133
# Max RMSD: 0.254
# Mean RMSD: 0.158
data_MOF--net-sqc--node1-TAGTUT_clean_sbu_3--node2-NAWXER_clean_linker_0--edge1-AJUNOK_clean_linker_0
_symmetry_space_group_name_H-M    P1
_symmetry_Int_Tables_number       1
_symmetry_cell_setting            triclinic
loop_
_symmetry_equiv_pos_as_xyz
'x, y, z'
_cell_length_a     22.268989
_cell_length_b     22.247067
_cell_length_c     68.549335
_cell_angle_alpha  91.118956
_cell_angle_beta   90.033733
_cell_angle_gamma 90.014011
loop_
_atom_site_label
_atom_site_type_symbol
_atom_site_fract_x
_atom_site_fract_y
_atom_site_fract_z
_atom_type_partial_charge
C0 C 0.24889 0.93311 0.46431 0.0
C1 C 0.26095 0.8711 0.46343 0.0
C2 C 0.1975 0.95494 0.47365 0.0
C3 C 0.15721 0.91532 0.48248 0.0
C4 C 0.21991 0.83126 0.47189 0.0
C5 C 0.16839 0.85325 0.48133 0.0
C6 C 0.10319 0.93867 0.49267 0.0
C7 C 0.26161 0.00326 0.52944 0.0
C8 C 0.27122 0.06542 0.52734 0.0
C9 C 0.20868 0.9762 0.52262 0.0
C10 C 0.16392 0.01092 0.51391 0.0
C11 C 0.22679 0.09953 0.51802 0.0
C12 C 0.17341 0.07266 0.51159 0.0
C13 C 0.10658 0.9836 0.50746 0.0
C14 C 0.85572 0.97918 0.53999 0.0
C15 C 0.84574 0.04082 0.54333 0.0
C16 C 0.90586 0.95973 0.52935 0.0
C17 C 0.9469 0.00165 0.52198 0.0
C18 C 0.88647 0.08259 0.53577 0.0
C19 C 0.937 0.06317 0.52539 0.0
C20 C 0.00017 0.98148 0.51077 0.0
C21 C 0.84399 0.95792 0.47087 0.0
C22 C 0.83251 0.89936 0.4639 0.0
C23 C 0.89663 0.97085 0.48116 0.0
C24 C 0.93812 0.92513 0.48533 0.0
C25 C 0.87319 0.85325 0.46841 0.0
C26 C 0.92568 0.86609 0.47896 0.0
C27 C 0.99623 0.94019 0.4949 0.0
H28 H 0.27837 0.96476 0.45726 0.0
H29 H 0.18883 0.00284 0.47373 0.0
H30 H 0.22769 0.78319 0.47118 0.0
H31 H 0.13752 0.82186 0.48788 0.0
H32 H 0.2937 0.97583 0.53711 0.0
H33 H 0.2019 0.92851 0.52468 0.0
H34 H 0.23272 0.14736 0.51608 0.0
H35 H 0.13944 0.1001 0.50478 0.0
H36 H 0.825 0.94618 0.54573 0.0
H37 H 0.91301 0.91195 0.52706 0.0
H38 H 0.87998 0.13029 0.53831 0.0
H39 H 0.96806 0.0962 0.51984 0.0
H40 H 0.8134 0.99428 0.46768 0.0
H41 H 0.90577 0.01723 0.48519 0.0
H42 H 0.86584 0.80779 0.46297 0.0
H43 H 0.95717 0.83018 0.48179 0.0
N44 N 0.04805 0.91912 0.48672 0.0
N45 N 0.05504 0.0028 0.51615 0.0
C46 C 0.41486 0.51751 0.7154 0.0
C47 C 0.39311 0.50306 0.69662 0.0
C48 C 0.38773 0.56307 0.72661 0.0
C49 C 0.33886 0.59507 0.71912 0.0
C50 C 0.34317 0.53421 0.68944 0.0
C51 C 0.31664 0.58012 0.70052 0.0
C52 C 0.31633 0.64951 0.72923 0.0
C53 C 0.2452 0.49773 0.76439 0.0
C54 C 0.25913 0.49912 0.78437 0.0
C55 C 0.25933 0.54647 0.75272 0.0
C56 C 0.28911 0.59707 0.76067 0.0
C57 C 0.2906 0.54875 0.79221 0.0
C58 C 0.30521 0.59737 0.78048 0.0
C59 C 0.29822 0.65173 0.74897 0.0
C60 C 0.21204 0.90816 0.75805 0.0
C61 C 0.24 0.92522 0.77566 0.0
C62 C 0.22702 0.85376 0.74874 0.0
C63 C 0.27018 0.81558 0.7569 0.0
C64 C 0.28334 0.88716 0.78375 0.0
C65 C 0.29792 0.83252 0.77454 0.0
C66 C 0.28684 0.7583 0.74703 0.0
C67 C 0.37113 0.8982 0.70855 0.0
C68 C 0.34908 0.89785 0.68937 0.0
C69 C 0.35356 0.85371 0.7214 0.0
C70 C 0.31345 0.80855 0.71523 0.0
C71 C 0.30671 0.85455 0.6835 0.0
C72 C 0.28944 0.80977 0.69631 0.0
C73 C 0.30374 0.75533 0.72724 0.0
H74 H 0.45413 0.4952 0.72113 0.0
H75 H 0.40659 0.57513 0.74073 0.0
H76 H 0.32516 0.52365 0.67509 0.0
H77 H 0.27937 0.60483 0.69442 0.0
H78 H 0.22128 0.45986 0.75794 0.0
H79 H 0.24447 0.54548 0.73768 0.0
H80 H 0.30138 0.55127 0.80762 0.0
H81 H 0.32775 0.63595 0.78702 0.0
H82 H 0.17836 0.93672 0.75159 0.0
H83 H 0.20447 0.84122 0.73526 0.0
H84 H 0.3049 0.89907 0.79747 0.0
H85 H 0.33126 0.80371 0.78107 0.0
H86 H 0.40362 0.93162 0.71335 0.0
H87 H 0.37373 0.85281 0.73578 0.0
H88 H 0.28935 0.85359 0.66873 0.0
H89 H 0.25894 0.77485 0.69125 0.0
N90 N 0.3179 0.70121 0.71916 0.0
N91 N 0.28458 0.70634 0.7572 0.0
C92 C 0.44993 0.01222 0.95592 0.0
C93 C 0.4565 0.06409 0.94469 0.0
C94 C 0.49291 -0.00221 0.96993 0.0
C95 C 0.54196 0.03625 0.97348 0.0
C96 C 0.50421 0.10355 0.94885 0.0
C97 C 0.54599 0.09009 0.96319 0.0
C98 C 0.5947 0.01676 0.98483 0.0
C99 C 0.45612 0.01047 0.03292 0.0
C100 C 0.44872 0.95434 0.04165 0.0
C101 C 0.50047 0.01842 0.01877 0.0
C102 C 0.53761 0.97017 0.01303 0.0
C103 C 0.48375 0.90548 0.03512 0.0
C104 C 0.52811 0.91346 0.02107 0.0
C105 C 0.59239 0.98049 0.00146 0.0
C106 C 0.84049 0.97162 0.03145 0.0
C107 C 0.84131 0.91157 0.03745 0.0
C108 C 0.79618 0.99138 0.01873 0.0
C109 C 0.75267 0.95108 0.01156 0.0
C110 C 0.79994 0.87058 0.02936 0.0
C111 C 0.75551 0.89037 0.01666 0.0
C112 C 0.69939 0.97317 0.00124 0.0
C113 C 0.84946 0.01345 0.95825 0.0
C114 C 0.85241 0.07408 0.95292 0.0
C115 C 0.80202 0.99315 0.96974 0.0
C116 C 0.75751 0.0335 0.9762 0.0
C117 C 0.80941 0.11473 0.96015 0.0
C118 C 0.76223 0.09454 0.97161 0.0
C119 C 0.70179 0.01237 0.9854 0.0
H120 H 0.41246 0.98193 0.95357 0.0
H121 H 0.48916 0.95516 0.97716 0.0
H122 H 0.51076 0.14386 0.94051 0.0
H123 H 0.58339 0.12057 0.96555 0.0
H124 H 0.42948 0.04876 0.03767 0.0
H125 H 0.50786 0.06297 0.01314 0.0
H126 H 0.47777 0.86133 0.04123 0.0
H127 H 0.55637 0.87568 0.01693 0.0
H128 H 0.87293 0.00376 0.03714 0.0
H129 H 0.79419 0.03867 0.01532 0.0
H130 H 0.80023 0.82391 0.03351 0.0
H131 H 0.72206 0.85867 0.01134 0.0
H132 H 0.88223 0.98135 0.95277 0.0
H133 H 0.7986 0.94566 0.97274 0.0
H134 H 0.81148 0.16189 0.95652 0.0
H135 H 0.72832 0.12642 0.97645 0.0
N136 N 0.6494 0.03161 0.9777 0.0
N137 N 0.64484 0.95938 0.00878 0.0
C138 C 0.29227 0.10176 0.21574 0.0
C139 C 0.23252 0.08148 0.21708 0.0
C140 C 0.31059 0.15437 0.22548 0.0
C141 C 0.26938 0.18836 0.23647 0.0
C142 C 0.19231 0.11409 0.22912 0.0
C143 C 0.21017 0.16794 0.23829 0.0
C144 C 0.28782 0.24689 0.2449 0.0
C145 C 0.32162 0.11381 0.29346 0.0
C146 C 0.3785 0.11758 0.3024 0.0
C147 C 0.30401 0.1561 0.27972 0.0
C148 C 0.34393 0.20138 0.27398 0.0
C149 C 0.41824 0.16279 0.29656 0.0
C150 C 0.40146 0.20353 0.28242 0.0
C151 C 0.32526 0.25185 0.26149 0.0
C152 C 0.35949 0.51141 0.27844 0.0
C153 C 0.42101 0.50879 0.2831 0.0
C154 C 0.33174 0.46343 0.2685 0.0
C155 C 0.36535 0.41253 0.26307 0.0
C156 C 0.45482 0.45914 0.27659 0.0
C157 C 0.42718 0.41134 0.26679 0.0
C158 C 0.3361 0.35684 0.25614 0.0
C159 C 0.32455 0.48694 0.20755 0.0
C160 C 0.26565 0.50227 0.2023 0.0
C161 C 0.33523 0.4382 0.21963 0.0
C162 C 0.28718 0.40426 0.22691 0.0
C163 C 0.2176 0.4683 0.20958 0.0
C164 C 0.22832 0.41944 0.22165 0.0
C165 C 0.29844 0.35247 0.23969 0.0
H166 H 0.32444 0.07839 0.2065 0.0
H167 H 0.35643 0.16979 0.22383 0.0
H168 H 0.14667 0.09877 0.23119 0.0
H169 H 0.17791 0.19357 0.24686 0.0
H170 H 0.29036 0.07857 0.29716 0.0
H171 H 0.25852 0.15439 0.27429 0.0
H172 H 0.46216 0.16763 0.3032 0.0
H173 H 0.43329 0.2381 0.27848 0.0
H174 H 0.33225 0.54908 0.28335 0.0
H175 H 0.28373 0.46471 0.266 0.0
H176 H 0.50228 0.45606 0.27962 0.0
H177 H 0.45382 0.37233 0.26269 0.0
H178 H 0.36237 0.51236 0.20218 0.0
H179 H 0.3812 0.42658 0.22308 0.0
H180 H 0.17177 0.47868 0.20553 0.0
H181 H 0.19063 0.39366 0.22696 0.0
N182 N 0.27558 0.29743 0.23462 0.0
N183 N 0.34761 0.30673 0.26632 0.0
C184 C 0.92877 0.98883 0.22837 0.0
C185 C 0.91615 0.98475 0.20826 0.0
C186 C 0.91284 0.04039 0.23921 0.0
C187 C 0.8814 0.08736 0.23032 0.0
C188 C 0.88473 0.0319 0.19954 0.0
C189 C 0.86679 0.08181 0.21046 0.0
C190 C 0.86944 0.14585 0.24024 0.0
C191 C 0.77855 0.01379 0.27957 0.0
C192 C 0.80891 0.00774 0.29739 0.0
C193 C 0.79293 0.06077 0.26715 0.0
C194 C 0.83776 0.10247 0.2724 0.0
C195 C 0.85611 0.04764 0.30203 0.0
C196 C 0.86972 0.09522 0.28979 0.0
C197 C 0.85097 0.15376 0.25979 0.0
C198 C 0.77901 0.41711 0.26082 0.0
C199 C 0.79591 0.43356 0.27995 0.0
C200 C 0.79461 0.36081 0.25295 0.0
C201 C 0.82966 0.32043 0.26369 0.0
C202 C 0.83038 0.39286 0.29076 0.0
C203 C 0.847 0.33698 0.28273 0.0
C204 C 0.8465 0.26036 0.25546 0.0
C205 C 0.93239 0.3853 0.21099 0.0
C206 C 0.90678 0.37868 0.19232 0.0
C207 C 0.91672 0.34593 0.22578 0.0
C208 C 0.87518 0.29982 0.22198 0.0
C209 C 0.86376 0.33383 0.18881 0.0
C210 C 0.84845 0.29441 0.20349 0.0
C211 C 0.8654 0.25171 0.23597 0.0
H212 H 0.95148 0.95276 0.23573 0.0
H213 H 0.92693 0.04395 0.25429 0.0
H214 H 0.8751 0.03119 0.18405 0.0
H215 H 0.84296 0.11729 0.20309 0.0
H216 H 0.74164 0.98414 0.27572 0.0
H217 H 0.76783 0.06568 0.25373 0.0
H218 H 0.88089 0.04344 0.31554 0.0
H219 H 0.90498 0.12653 0.29393 0.0
H220 H 0.75323 0.44749 0.25195 0.0
H221 H 0.77826 0.34873 0.23854 0.0
H222 H 0.84341 0.40365 0.30565 0.0
H223 H 0.87335 0.30659 0.29144 0.0
H224 H 0.96502 0.42038 0.21404 0.0
H225 H 0.93853 0.35006 0.23987 0.0
H226 H 0.84342 0.32814 0.17453 0.0
H227 H 0.81671 0.25861 0.20028 0.0
N228 N 0.87595 0.19526 0.2293 0.0
N229 N 0.84048 0.21077 0.26675 0.0
C230 C 0.74201 0.00438 0.72605 0.0
C231 C 0.75581 0.00324 0.70605 0.0
C232 C 0.75554 0.95524 0.73762 0.0
C233 C 0.78515 0.90462 0.72963 0.0
C234 C 0.78648 0.95321 0.69813 0.0
C235 C 0.80087 0.90436 0.70979 0.0
C236 C 0.79541 0.85021 0.74141 0.0
C237 C 0.90571 0.9898 0.77475 0.0
C238 C 0.88699 0.00031 0.79409 0.0
C239 C 0.87975 0.94354 0.76353 0.0
C240 C 0.83427 0.90777 0.77146 0.0
C241 C 0.84011 0.96584 0.80172 0.0
C242 C 0.81429 0.9197 0.79055 0.0
C243 C 0.81316 0.8529 0.7612 0.0
C244 C 0.87413 0.60764 0.7833 0.0
C245 C 0.85105 0.60861 0.80236 0.0
C246 C 0.85531 0.65018 0.76991 0.0
C247 C 0.8131 0.6941 0.77544 0.0
C248 C 0.80653 0.65047 0.80755 0.0
C249 C 0.78813 0.69333 0.79423 0.0
C250 C 0.80299 0.74672 0.76319 0.0
C251 C 0.71415 0.593 0.73122 0.0
C252 C 0.74252 0.5774 0.71356 0.0
C253 C 0.72896 0.64665 0.74106 0.0
C254 C 0.77214 0.68564 0.73331 0.0
C255 C 0.78625 0.61601 0.70598 0.0
C256 C 0.80048 0.66998 0.71568 0.0
C257 C 0.78701 0.74324 0.74332 0.0
H258 H 0.71899 0.04256 0.73263 0.0
H259 H 0.74082 0.95624 0.75267 0.0
H260 H 0.79715 0.95072 0.68272 0.0
H261 H 0.82323 0.86579 0.7032 0.0
H262 H 0.94189 0.01587 0.76859 0.0
H263 H 0.89691 0.93416 0.74901 0.0
H264 H 0.82403 0.97403 0.81645 0.0
H265 H 0.77947 0.89239 0.79697 0.0
H266 H 0.90812 0.57518 0.77898 0.0
H267 H 0.87619 0.65082 0.75564 0.0
H268 H 0.7882 0.65186 0.82219 0.0
H269 H 0.75606 0.72739 0.79882 0.0
H270 H 0.68014 0.56398 0.73728 0.0
H271 H 0.7059 0.65823 0.75452 0.0
H272 H 0.80818 0.60518 0.69225 0.0
H273 H 0.83377 0.69946 0.70944 0.0
N274 N 0.78357 0.79517 0.73315 0.0
N275 N 0.81561 0.80122 0.77127 0.0
C276 C 0.75793 0.46571 0.96335 0.0
C277 C 0.77486 0.4056 0.96627 0.0
C278 C 0.70362 0.48774 0.97066 0.0
C279 C 0.66467 0.44999 0.98079 0.0
C280 C 0.73577 0.368 0.97661 0.0
C281 C 0.68091 0.38998 0.98371 0.0
C282 C 0.60798 0.47409 0.98883 0.0
C283 C 0.75546 0.53092 0.03048 0.0
C284 C 0.76947 0.59224 0.02866 0.0
C285 C 0.70314 0.50709 0.02213 0.0
C286 C 0.66369 0.54417 0.0119 0.0
C287 C 0.73086 0.62869 0.01773 0.0
C288 C 0.67801 0.605 0.00965 0.0
C289 C 0.60768 0.5195 0.00341 0.0
C290 C 0.3481 0.5207 0.02761 0.0
C291 C 0.34372 0.58074 0.03415 0.0
C292 C 0.39843 0.50113 0.0171 0.0
C293 C 0.4447 0.54157 0.0125 0.0
C294 C 0.38954 0.6213 0.02928 0.0
C295 C 0.43953 0.60188 0.01861 0.0
C296 C 0.5007 0.52039 0.00288 0.0
C297 C 0.35951 0.49245 0.95705 0.0
C298 C 0.34432 0.43203 0.95348 0.0
C299 C 0.40978 0.5073 0.96838 0.0
C300 C 0.44616 0.46195 0.97614 0.0
C301 C 0.3802 0.38667 0.96146 0.0
C302 C 0.43108 0.40153 0.97254 0.0
C303 C 0.50115 0.47794 0.98725 0.0
H304 H 0.78563 0.49534 0.95482 0.0
H305 H 0.69155 0.53415 0.96816 0.0
H306 H 0.74732 0.32144 0.97902 0.0
H307 H 0.65144 0.36037 0.99163 0.0
H308 H 0.78389 0.50176 0.03895 0.0
H309 H 0.69278 0.45999 0.02403 0.0
H310 H 0.74105 0.67573 0.01565 0.0
H311 H 0.64844 0.63407 0.00156 0.0
H312 H 0.31327 0.48856 0.03097 0.0
H313 H 0.40191 0.45391 0.01316 0.0
H314 H 0.38782 0.66772 0.03432 0.0
H315 H 0.47475 0.63384 0.01544 0.0
H316 H 0.33303 0.5281 0.9508 0.0
H317 H 0.42114 0.55426 0.97068 0.0
H318 H 0.37011 0.33972 0.95852 0.0
H319 H 0.45877 0.3659 0.97825 0.0
N320 N 0.55482 0.45537 0.98102 0.0
N321 N 0.55413 0.54054 0.0101 0.0
C322 C 0.95874 0.47681 0.53216 0.0
C323 C 0.96366 0.42382 0.5429 0.0
C324 C 0.00215 0.49124 0.51829 0.0
C325 C 0.05054 0.45209 0.51452 0.0
C326 C 0.0121 0.38492 0.53913 0.0
C327 C 0.05448 0.39851 0.52496 0.0
C328 C 0.10201 0.46978 0.50219 0.0
C329 C 0.95873 0.4825 0.45489 0.0
C330 C 0.94936 0.5412 0.44828 0.0
C331 C 0.00416 0.471 0.46838 0.0
C332 C 0.04103 0.51797 0.47525 0.0
C333 C 0.98431 0.58846 0.45605 0.0
C334 C 0.03011 0.57684 0.46928 0.0
C335 C 0.09755 0.50475 0.48533 0.0
C336 C 0.34494 0.50599 0.45171 0.0
C337 C 0.34399 0.56463 0.44442 0.0
C338 C 0.30074 0.48729 0.4647 0.0
C339 C 0.25579 0.52744 0.47099 0.0
C340 C 0.29953 0.60492 0.45095 0.0
C341 C 0.25584 0.58644 0.46408 0.0
C342 C 0.20438 0.50717 0.48272 0.0
C343 C 0.36139 0.4732 0.52341 0.0
C344 C 0.36455 0.4143 0.53044 0.0
C345 C 0.31222 0.49129 0.51231 0.0
C346 C 0.26591 0.45045 0.50788 0.0
C347 C 0.31901 0.37315 0.52548 0.0
C348 C 0.27028 0.39106 0.51428 0.0
C349 C 0.20895 0.4704 0.49917 0.0
H350 H 0.92196 0.50778 0.53476 0.0
H351 H -0.00103 0.53422 0.51126 0.0
H352 H 0.01856 0.34479 0.54756 0.0
H353 H 0.09174 0.36787 0.52266 0.0
H354 H 0.93312 0.44509 0.4489 0.0
H355 H 0.01298 0.42503 0.47245 0.0
H356 H 0.97749 0.63422 0.4514 0.0
H357 H 0.05861 0.6135 0.47429 0.0
H358 H 0.37947 0.47438 0.44723 0.0
H359 H 0.30075 0.44103 0.46932 0.0
H360 H 0.29762 0.65031 0.44553 0.0
H361 H 0.22119 0.61802 0.46855 0.0
H362 H 0.39593 0.5058 0.52709 0.0
H363 H 0.30912 0.53778 0.50802 0.0
H364 H 0.3194 0.32796 0.53108 0.0
H365 H 0.23466 0.35901 0.51124 0.0
N366 N 0.15765 0.4538 0.50827 0.0
N367 N 0.1488 0.52248 0.47645 0.0
C368 C 0.17925 0.65492 0.14281 0.0
C369 C 0.97347 0.55294 0.1354 0.0
C370 C 0.95387 0.66233 0.0837 0.0
Mg371 Mg 0.22647 0.78488 0.12832 0.0
Mg372 Mg 0.13867 0.89612 0.11399 0.0
O373 O 0.15434 0.8141 0.11418 0.0
Mg374 Mg 0.09655 0.75027 0.12087 0.0
O375 O 0.04467 0.68108 0.12708 0.0
Mg376 Mg 0.08 0.6199 0.10859 0.0
Mg377 Mg 0.96159 0.688 0.12729 0.0
C378 C 0.01903 0.84788 0.09465 0.0
O379 O 0.04887 0.80333 0.14591 0.0
O380 O 0.28085 0.8555 0.11101 0.0
O381 O 0.95463 0.76577 0.14611 0.0
O382 O 0.21097 0.8561 0.15404 0.0
O383 O 0.21752 0.92329 0.09856 0.0
O384 O 0.14501 0.92399 0.14349 0.0
O385 O 0.13908 0.69459 0.09605 0.0
O386 O 0.23501 0.71861 0.10255 0.0
C387 C 0.19547 0.6893 0.09266 0.0
C388 C 0.27019 0.9009 0.10022 0.0
O389 O 0.02941 0.79356 0.09969 0.0
O390 O 0.02126 0.55091 0.12491 0.0
O391 O 0.05238 0.89252 0.09971 0.0
O392 O 0.00299 0.63228 0.08506 0.0
O393 O 0.943 0.60109 0.13815 0.0
O394 O 0.93319 0.6925 0.09813 0.0
O395 O 0.16557 0.71108 0.14209 0.0
O396 O 0.15284 0.61499 0.13208 0.0
C397 C 0.17856 0.90342 0.15685 0.0
C398 C 0.99467 0.80268 0.15241 0.0
C399 C 0.68807 0.81679 0.40107 0.0
C400 C 0.77844 0.60985 0.38898 0.0
C401 C 0.70867 0.62226 0.3303 0.0
Mg402 Mg 0.56796 0.87825 0.38374 0.0
Mg403 Mg 0.45893 0.80118 0.36286 0.0
O404 O 0.54149 0.81713 0.36375 0.0
Mg405 Mg 0.60041 0.75278 0.36947 0.0
O406 O 0.66283 0.69312 0.37562 0.0
Mg407 Mg 0.73535 0.73279 0.3644 0.0
Mg408 Mg 0.65145 0.61124 0.37056 0.0
C409 C 0.50689 0.69358 0.33648 0.0
O410 O 0.53539 0.69858 0.38811 0.0
O411 O 0.50393 0.94325 0.36741 0.0
O412 O 0.56313 0.6018 0.38357 0.0
O413 O 0.49132 0.85465 0.40571 0.0
O414 O 0.43099 0.8875 0.35316 0.0
O415 O 0.4278 0.78927 0.39188 0.0
O416 O 0.67049 0.80377 0.35071 0.0
O417 O 0.64228 0.89468 0.36205 0.0
C418 C 0.67695 0.86145 0.35153 0.0
C419 C 0.45648 0.93799 0.35681 0.0
O420 O 0.56062 0.69818 0.34331 0.0
O421 O 0.78947 0.66102 0.38129 0.0
O422 O 0.46283 0.72584 0.34264 0.0
O423 O 0.73707 0.66856 0.33687 0.0
O424 O 0.72814 0.58269 0.38675 0.0
O425 O 0.66813 0.59638 0.34023 0.0
O426 O 0.63301 0.80753 0.3963 0.0
O427 O 0.73149 0.79274 0.39153 0.0
C428 C 0.44527 0.82021 0.40666 0.0
C429 C 0.52739 0.64207 0.39052 0.0
C430 C 0.65784 0.15009 0.64629 0.0
C431 C 0.44586 0.07027 0.6358 0.0
C432 C 0.4511 0.15855 0.58022 0.0
Mg433 Mg 0.72526 0.26777 0.63031 0.0
Mg434 Mg 0.65329 0.38654 0.61352 0.0
O435 O 0.66211 0.30291 0.61316 0.0
Mg436 Mg 0.59499 0.24788 0.61899 0.0
O437 O 0.53251 0.18735 0.62491 0.0
Mg438 Mg 0.56584 0.11639 0.61017 0.0
Mg439 Mg 0.45049 0.2021 0.62272 0.0
C440 C 0.53875 0.34849 0.58902 0.0
O441 O 0.54682 0.31331 0.64044 0.0
O442 O 0.79094 0.32751 0.61318 0.0
O443 O 0.44881 0.28655 0.63877 0.0
O444 O 0.71357 0.34382 0.6543 0.0
O445 O 0.73933 0.40521 0.60082 0.0
O446 O 0.65186 0.41484 0.64335 0.0
O447 O 0.63721 0.17995 0.59728 0.0
O448 O 0.73259 0.1949 0.60673 0.0
C449 C 0.69335 0.16729 0.59626 0.0
C450 C 0.78764 0.37465 0.6027 0.0
O451 O 0.54176 0.29385 0.59468 0.0
O452 O 0.49513 0.06049 0.62655 0.0
O453 O 0.57303 0.39054 0.59567 0.0
O454 O 0.49758 0.12697 0.58426 0.0
O455 O 0.42029 0.1218 0.63642 0.0
O456 O 0.42922 0.19621 0.59254 0.0
O457 O 0.65169 0.20669 0.64348 0.0
O458 O 0.62958 0.11053 0.63602 0.0
C459 C 0.68366 0.39264 0.65688 0.0
C460 C 0.49129 0.32089 0.64495 0.0
C461 C 0.19346 0.32988 0.89438 0.0
C462 C 0.28433 0.12162 0.88484 0.0
C463 C 0.17953 0.11204 0.83109 0.0
Mg464 Mg 0.06719 0.38482 0.88093 0.0
Mg465 Mg 0.95026 0.30335 0.86725 0.0
O466 O 0.03237 0.31691 0.86496 0.0
Mg467 Mg 0.09323 0.25419 0.87025 0.0
O468 O 0.1594 0.19742 0.8756 0.0
Mg469 Mg 0.22357 0.23346 0.85898 0.0
Mg470 Mg 0.14971 0.11409 0.87439 0.0
C471 C 0.98806 0.18688 0.84338 0.0
O472 O 0.037 0.20516 0.8933 0.0
O473 O 0.99695 0.44489 0.86553 0.0
O474 O 0.07062 0.10913 0.89253 0.0
O475 O 0.00044 0.37016 0.90697 0.0
O476 O 0.92069 0.38608 0.85519 0.0
O477 O 0.93125 0.30314 0.89754 0.0
O478 O 0.15137 0.29738 0.84651 0.0
O479 O 0.13044 0.39311 0.85502 0.0
C480 C 0.15803 0.35422 0.84429 0.0
C481 C 0.94707 0.43711 0.85638 0.0
O482 O 0.04376 0.19223 0.84805 0.0
O483 O 0.28828 0.1706 0.87531 0.0
O484 O 0.94656 0.22174 0.84989 0.0
O485 O 0.21056 0.15994 0.83421 0.0
O486 O 0.23547 0.0918 0.88633 0.0
O487 O 0.14688 0.08936 0.84431 0.0
O488 O 0.13713 0.3181 0.89297 0.0
O489 O 0.23234 0.30337 0.88348 0.0
C490 C 0.95457 0.33728 0.91062 0.0
C491 C 0.03452 0.15017 0.89871 0.0
C492 C 0.305 0.80454 0.43736 0.0
C493 C 0.31337 0.84859 0.45207 0.0
C494 C 0.35018 0.79187 0.42367 0.0
C495 C 0.40542 0.82301 0.42409 0.0
H496 H 0.26188 0.78256 0.43557 0.0
H497 H 0.34001 0.76005 0.41197 0.0
S498 S 0.45433 0.93175 0.46274 0.0
N499 N 0.38438 0.91519 0.46853 0.0
N500 N 0.46935 0.89204 0.44272 0.0
C501 C 0.41647 0.86254 0.44 0.0
C502 C 0.37037 0.8753 0.45396 0.0
C503 C 0.33581 0.97896 0.66509 0.0
C504 C 0.37385 0.93968 0.67506 0.0
C505 C 0.35926 0.02025 0.65194 0.0
C506 C 0.42126 0.02247 0.64804 0.0
H507 H 0.28791 0.97871 0.66785 0.0
H508 H 0.32876 0.051 0.64491 0.0
S509 S 0.53906 0.92681 0.66994 0.0
N510 N 0.47573 0.90386 0.67986 0.0
N511 N 0.52 0.98095 0.65501 0.0
C512 C 0.45944 0.98207 0.65755 0.0
C513 C 0.43566 0.9408 0.67112 0.0
C514 C 0.39526 0.13686 0.92579 0.0
C515 C 0.41463 0.07735 0.92849 0.0
C516 C 0.35601 0.15112 0.91069 0.0
C517 C 0.3336 0.10626 0.89799 0.0
H518 H 0.40932 0.17265 0.93572 0.0
H519 H 0.34075 0.1972 0.90958 0.0
S520 S 0.3735 0.94482 0.89745 0.0
N521 N 0.41225 0.97411 0.91586 0.0
N522 N 0.33488 0.00094 0.88823 0.0
C523 C 0.35298 0.04691 0.90018 0.0
C524 C 0.39432 0.03243 0.91526 0.0
C525 C 0.24981 0.97988 0.20114 0.0
C526 C 0.21196 0.02989 0.20448 0.0
C527 C 0.23676 0.93634 0.18663 0.0
C528 C 0.18522 0.94105 0.1749 0.0
H529 H 0.29122 0.97554 0.20929 0.0
H530 H 0.269 0.90072 0.18391 0.0
S531 S 0.06592 0.05737 0.17988 0.0
N532 N 0.11723 0.07765 0.19607 0.0
N533 N 0.09161 0.99502 0.16951 0.0
C534 C 0.14444 0.98804 0.1792 0.0
C535 C 0.15793 0.0325 0.19383 0.0
C536 C 0.31388 0.14905 0.54797 0.0
C537 C 0.32337 0.09571 0.53705 0.0
C538 C 0.35822 0.17252 0.5604 0.0
C539 C 0.41378 0.14315 0.56277 0.0
H540 H 0.27042 0.17089 0.54801 0.0
H541 H 0.34686 0.2118 0.56923 0.0
S542 S 0.46667 0.01097 0.53365 0.0
N543 N 0.3968 0.0212 0.52634 0.0
N544 N 0.47977 0.06411 0.55028 0.0
C545 C 0.42626 0.09343 0.55039 0.0
C546 C 0.38108 0.06985 0.53749 0.0
C547 C 0.26419 0.02277 0.79276 0.0
C548 C 0.2212 0.98027 0.78651 0.0
C549 C 0.24878 0.06975 0.80577 0.0
C550 C 0.19013 0.07492 0.81328 0.0
H551 H 0.31057 0.01812 0.7882 0.0
H552 H 0.2841 0.09924 0.81112 0.0
S553 S 0.06012 0.97852 0.79977 0.0
N554 N 0.11676 0.94937 0.78732 0.0
N555 N 0.0878 0.03694 0.812 0.0
C556 C 0.146 0.03498 0.8061 0.0
C557 C 0.16156 0.98777 0.79266 0.0
C558 C 0.34572 0.96569 0.05577 0.0
C559 C 0.40547 0.94667 0.05781 0.0
C560 C 0.30291 0.95378 0.07016 0.0
C561 C 0.31829 0.9223 0.08711 0.0
H562 H 0.33139 0.98776 0.04261 0.0
H563 H 0.25686 0.96692 0.06747 0.0
S564 S 0.47136 0.87191 0.10073 0.0
N565 N 0.47976 0.90172 0.07904 0.0
N566 N 0.39932 0.87863 0.10602 0.0
C567 C 0.37884 0.90638 0.08982 0.0
C568 C 0.42238 0.91866 0.07519 0.0
C569 C 0.45706 0.05253 0.31742 0.0
C570 C 0.39762 0.07436 0.31753 0.0
C571 C 0.47664 0.01129 0.33116 0.0
C572 C 0.43725 0.98922 0.34525 0.0
H573 H 0.48851 0.06603 0.30628 0.0
H574 H 0.52218 0.99428 0.33013 0.0
S575 S 0.27915 0.03434 0.35318 0.0
N576 N 0.30115 0.0741 0.33437 0.0
N577 N 0.33749 0.99292 0.35932 0.0
C578 C 0.37823 0.01083 0.34588 0.0
C579 C 0.3585 0.05424 0.33221 0.0
C580 C 0.75649 0.107 0.54932 0.0
C581 C 0.79586 0.06223 0.55592 0.0
C582 C 0.71691 0.13656 0.56222 0.0
C583 C 0.71625 0.12268 0.58211 0.0
H584 H 0.75869 0.12147 0.53434 0.0
H585 H 0.69061 0.1739 0.55696 0.0
S586 S 0.80667 0.00618 0.60637 0.0
N587 N 0.82818 0.00247 0.58332 0.0
N588 N 0.75463 0.05899 0.60758 0.0
C589 C 0.75243 0.0755 0.5886 0.0
C590 C 0.79208 0.04493 0.57548 0.0
C591 C 0.77051 0.90618 0.30766 0.0
C592 C 0.78498 0.96652 0.31231 0.0
C593 C 0.73948 0.87004 0.32099 0.0
C594 C 0.72111 0.89354 0.33924 0.0
H595 H 0.78149 0.8875 0.29339 0.0
H596 H 0.72676 0.82483 0.31652 0.0
S597 S 0.75001 0.04851 0.35852 0.0
N598 N 0.78021 0.04724 0.33659 0.0
N599 N 0.72293 0.98036 0.3615 0.0
C600 C 0.73803 0.95304 0.34428 0.0
C601 C 0.76957 0.98931 0.33085 0.0
C602 C 0.91843 0.84074 0.05037 0.0
C603 C 0.8831 0.89272 0.05292 0.0
C604 C 0.9606 0.82445 0.0645 0.0
C605 C 0.96872 0.85988 0.08149 0.0
H606 H 0.91466 0.81351 0.03715 0.0
H607 H 0.98864 0.7854 0.06176 0.0
S608 S 0.88111 0.99448 0.09645 0.0
N609 N 0.85393 0.97504 0.07481 0.0
N610 N 0.93448 0.94525 0.10106 0.0
C611 C 0.93179 0.91011 0.08463 0.0
C612 C 0.88858 0.92634 0.07041 0.0
C613 C 0.923 0.10548 0.79968 0.0
C614 C 0.91685 0.04654 0.80643 0.0
C615 C 0.94834 0.15067 0.81156 0.0
C616 C 0.9696 0.13779 0.83029 0.0
H617 H 0.90636 0.11711 0.78538 0.0
H618 H 0.95032 0.19617 0.80623 0.0
S619 S 0.9678 0.99049 0.85433 0.0
N620 N 0.93638 0.97742 0.83282 0.0
N621 N 0.9851 0.0627 0.85493 0.0
C622 C 0.96556 0.07901 0.83701 0.0
C623 C 0.93877 0.03321 0.82512 0.0
C624 C 0.74489 0.83768 0.45183 0.0
C625 C 0.78297 0.88771 0.4498 0.0
C626 C 0.70625 0.81928 0.43662 0.0
C627 C 0.70485 0.85016 0.41893 0.0
H628 H 0.74758 0.8106 0.46477 0.0
H629 H 0.68169 0.77753 0.43803 0.0
S630 S 0.79226 0.98579 0.40678 0.0
N631 N 0.81356 0.96989 0.42915 0.0
N632 N 0.74138 0.93475 0.40073 0.0
C633 C 0.73932 0.90247 0.41732 0.0
C634 C 0.77833 0.92143 0.43273 0.0
C635 C 0.89803 0.91221 0.18071 0.0
C636 C 0.93611 0.93314 0.19579 0.0
C637 C 0.91773 0.87019 0.16681 0.0
C638 C 0.9761 0.84665 0.16751 0.0
H639 H 0.85266 0.9292 0.1794 0.0
H640 H 0.88717 0.85679 0.1552 0.0
S641 S 0.08916 0.87556 0.20624 0.0
N642 N 0.03298 0.92109 0.21187 0.0
N643 N 0.0688 0.83954 0.18599 0.0
C644 C 0.01354 0.86371 0.18313 0.0
C645 C 0.99368 0.90723 0.1973 0.0
C646 C 0.95943 0.08247 0.94245 0.0
C647 C 0.89842 0.09449 0.93905 0.0
C648 C 0.0035 0.10114 0.92933 0.0
C649 C 0.98783 0.13273 0.91253 0.0
H650 H 0.97312 0.05876 0.95537 0.0
H651 H 0.05016 0.09114 0.93238 0.0
S652 S 0.83423 0.16836 0.89568 0.0
N653 N 0.82431 0.13532 0.91681 0.0
N654 N 0.90759 0.17079 0.89226 0.0
C655 C 0.92712 0.14409 0.90876 0.0
C656 C 0.88223 0.12484 0.92201 0.0
C657 C 0.77046 0.07493 0.6785 0.0
C658 C 0.73316 0.0509 0.69304 0.0
C659 C 0.74715 0.11281 0.66417 0.0
C660 C 0.68606 0.1282 0.66411 0.0
H661 H 0.81736 0.06225 0.6777 0.0
H662 H 0.77611 0.12695 0.65242 0.0
S663 S 0.56954 0.07842 0.69875 0.0
N664 N 0.63192 0.04633 0.70636 0.0
N665 N 0.58904 0.11834 0.67972 0.0
C666 C 0.64902 0.10699 0.679 0.0
C667 C 0.67235 0.0682 0.69344 0.0
C668 C 0.82494 0.32664 0.94564 0.0
C669 C 0.82927 0.38088 0.9564 0.0
C670 C 0.86961 0.30946 0.93235 0.0
C671 C 0.92005 0.34618 0.92902 0.0
H672 H 0.78469 0.29941 0.9463 0.0
H673 H 0.862 0.26931 0.92355 0.0
S674 S 0.96042 0.48385 0.95757 0.0
N675 N 0.89407 0.46427 0.96612 0.0
N676 N 0.97741 0.43301 0.94058 0.0
C677 C 0.92847 0.39667 0.94141 0.0
C678 C 0.88306 0.41391 0.95516 0.0
C679 C 0.88065 0.45045 0.16629 0.0
C680 C 0.92472 0.41837 0.1764 0.0
C681 C 0.8967 0.49149 0.15203 0.0
C682 C 0.95726 0.50097 0.1472 0.0
H683 H 0.83361 0.4455 0.16998 0.0
H684 H 0.86161 0.51747 0.1452 0.0
S685 S 0.08924 0.42419 0.16844 0.0
N686 N 0.03089 0.39558 0.17988 0.0
N687 N 0.06132 0.47277 0.15294 0.0
C688 C 0.00158 0.46684 0.15651 0.0
C689 C 0.98524 0.42561 0.17122 0.0
C690 C 0.92351 0.58917 0.41676 0.0
C691 C 0.90599 0.55331 0.43246 0.0
C692 C 0.88262 0.60503 0.40226 0.0
C693 C 0.82272 0.58522 0.4028 0.0
H694 H 0.9691 0.60587 0.41582 0.0
H695 H 0.89784 0.63407 0.39076 0.0
S696 S 0.7548 0.48884 0.44062 0.0
N697 N 0.82528 0.4975 0.44758 0.0
N698 N 0.74833 0.5261 0.42014 0.0
C699 C 0.80518 0.54731 0.41805 0.0
C700 C 0.84684 0.53164 0.43292 0.0
C701 C 0.76671 0.48049 0.6961 0.0
C702 C 0.72386 0.52337 0.70213 0.0
C703 C 0.75173 0.43428 0.68273 0.0
C704 C 0.69373 0.43032 0.67462 0.0
H705 H 0.81268 0.48414 0.70118 0.0
H706 H 0.78697 0.40425 0.67768 0.0
S707 S 0.56428 0.52868 0.68708 0.0
N708 N 0.62016 0.55625 0.7003 0.0
N709 N 0.59208 0.47024 0.67491 0.0
C710 C 0.6497 0.47092 0.68144 0.0
C711 C 0.66477 0.51728 0.69526 0.0
C712 C 0.87663 0.58795 0.04023 0.0
C713 C 0.8212 0.61842 0.03968 0.0
C714 C 0.92216 0.60571 0.05332 0.0
C715 C 0.9138 0.65448 0.06643 0.0
H716 H 0.88387 0.54839 0.03106 0.0
H717 H 0.96242 0.57854 0.05402 0.0
S718 S 0.77922 0.7534 0.06932 0.0
N719 N 0.76244 0.70259 0.05234 0.0
N720 N 0.84798 0.73714 0.07641 0.0
C721 C 0.86039 0.68832 0.06484 0.0
C722 C 0.81407 0.66998 0.05164 0.0
C723 C 0.81457 0.5255 0.30099 0.0
C724 C 0.77502 0.49107 0.28924 0.0
C725 C 0.79363 0.57348 0.31272 0.0
C726 C 0.73229 0.58841 0.31324 0.0
H727 H 0.86161 0.51346 0.30185 0.0
H728 H 0.82485 0.59558 0.32264 0.0
S729 S 0.61227 0.52055 0.28274 0.0
N730 N 0.6727 0.48108 0.27704 0.0
N731 N 0.63396 0.57138 0.29911 0.0
C732 C 0.69335 0.55813 0.30034 0.0
C733 C 0.71455 0.50948 0.28831 0.0
C734 C 0.9003 0.45611 0.57154 0.0
C735 C 0.9198 0.41022 0.55853 0.0
C736 C 0.85869 0.44432 0.58633 0.0
C737 C 0.83664 0.38598 0.58894 0.0
H738 H 0.91722 0.50151 0.57027 0.0
H739 H 0.84349 0.48099 0.59571 0.0
S740 S 0.86914 0.25114 0.55815 0.0
N741 N 0.90996 0.305 0.54857 0.0
N742 N 0.83445 0.28252 0.57701 0.0
C743 C 0.85586 0.33969 0.57621 0.0
C744 C 0.89685 0.35186 0.56087 0.0
C745 C 0.83759 0.52914 0.82716 0.0
C746 C 0.87573 0.56818 0.81716 0.0
C747 C 0.86079 0.48841 0.84054 0.0
C748 C 0.92271 0.48632 0.84463 0.0
H749 H 0.7898 0.52883 0.82418 0.0
H750 H 0.83018 0.45751 0.84745 0.0
S751 S 0.04061 0.58258 0.8231 0.0
N752 N 0.97755 0.60477 0.8128 0.0
N753 N 0.02136 0.52863 0.83807 0.0
C754 C 0.96094 0.52699 0.83526 0.0
C755 C 0.93738 0.56777 0.82145 0.0
C756 C 0.26607 0.65655 0.0442 0.0
C757 C 0.29431 0.60091 0.04728 0.0
C758 C 0.2283 0.68246 0.05837 0.0
C759 C 0.21713 0.65338 0.07598 0.0
H760 H 0.2758 0.68172 0.0312 0.0
H761 H 0.21109 0.72737 0.05611 0.0
S762 S 0.27448 0.50483 0.0905 0.0
N763 N 0.30448 0.51569 0.06882 0.0
N764 N 0.23259 0.5646 0.09524 0.0
C765 C 0.24132 0.5961 0.0787 0.0
C766 C 0.28001 0.56964 0.06435 0.0
C767 C 0.27207 0.42625 0.81166 0.0
C768 C 0.23503 0.45262 0.7975 0.0
C769 C 0.24782 0.38913 0.82604 0.0
C770 C 0.18596 0.3773 0.82659 0.0
H771 H 0.31966 0.43632 0.81208 0.0
H772 H 0.27692 0.3726 0.83742 0.0
S773 S 0.06981 0.43464 0.79306 0.0
N774 N 0.13332 0.46332 0.78501 0.0
N775 N 0.08841 0.39327 0.81185 0.0
C776 C 0.14897 0.40125 0.81213 0.0
C777 C 0.17335 0.43895 0.79758 0.0
C778 C 0.42383 0.43578 0.56064 0.0
C779 C 0.41165 0.39747 0.54455 0.0
C780 C 0.46505 0.41944 0.57499 0.0
C781 C 0.4949 0.36389 0.57388 0.0
H782 H 0.40039 0.4782 0.5624 0.0
H783 H 0.47285 0.4501 0.58721 0.0
S784 S 0.4837 0.25023 0.53377 0.0
N785 N 0.43619 0.30359 0.5276 0.0
N786 N 0.51289 0.27226 0.55488 0.0
C787 C 0.48397 0.32549 0.55776 0.0
C788 C 0.44252 0.34244 0.54301 0.0
C789 C 0.43745 0.61685 0.29244 0.0
C790 C 0.44871 0.55575 0.29584 0.0
C791 C 0.45891 0.66167 0.30527 0.0
C792 C 0.49318 0.64695 0.32171 0.0
H793 H 0.41089 0.63004 0.27999 0.0
H794 H 0.44761 0.70813 0.30253 0.0
S795 S 0.53392 0.49419 0.33756 0.0
N796 N 0.49512 0.48301 0.31727 0.0
N797 N 0.53696 0.56779 0.34093 0.0
C798 C 0.50606 0.58641 0.32506 0.0
C799 C 0.48343 0.54063 0.31222 0.0
C800 C 0.29971 0.43495 0.92019 0.0
C801 C 0.29563 0.41597 0.93959 0.0
C802 C 0.26168 0.41105 0.90572 0.0
C803 C 0.21738 0.36848 0.91023 0.0
H804 H 0.33535 0.46512 0.91591 0.0
H805 H 0.26951 0.42298 0.89068 0.0
S806 S 0.18326 0.31025 0.95924 0.0
N807 N 0.24042 0.35652 0.96291 0.0
N808 N 0.16785 0.31255 0.93568 0.0
C809 C 0.20949 0.35301 0.92981 0.0
C810 C 0.24905 0.37643 0.94451 0.0
C811 C 0.43553 0.46973 0.6644 0.0
C812 C 0.42328 0.45721 0.6841 0.0
C813 C 0.46092 0.42618 0.6519 0.0
C814 C 0.4748 0.36893 0.65873 0.0
H815 H 0.42497 0.51339 0.65857 0.0
H816 H 0.468 0.43668 0.6367 0.0
S817 S 0.45251 0.31309 0.70871 0.0
N818 N 0.42781 0.38309 0.7097 0.0
N819 N 0.47588 0.30147 0.68608 0.0
C820 C 0.4643 0.35606 0.67836 0.0
C821 C 0.43855 0.40025 0.69111 0.0
C822 C 0.41797 0.63992 0.43255 0.0
C823 C 0.38905 0.58411 0.42998 0.0
C824 C 0.46146 0.65904 0.41935 0.0
C825 C 0.47783 0.62292 0.40316 0.0
H826 H 0.40786 0.66854 0.44509 0.0
H827 H 0.48382 0.70155 0.42222 0.0
S828 S 0.41101 0.47615 0.38863 0.0
N829 N 0.37616 0.49531 0.40908 0.0
N830 N 0.4592 0.53085 0.38449 0.0
C831 C 0.4483 0.56778 0.40011 0.0
C832 C 0.40358 0.54847 0.41347 0.0
C833 C 0.21023 0.59501 0.19235 0.0
C834 C 0.25399 0.55087 0.18824 0.0
C835 C 0.19131 0.63501 0.17799 0.0
C836 C 0.21506 0.63158 0.15901 0.0
H837 H 0.18842 0.59667 0.20648 0.0
H838 H 0.15425 0.6651 0.18126 0.0
S839 S 0.33448 0.52847 0.14131 0.0
N840 N 0.324 0.5098 0.16425 0.0
N841 N 0.28773 0.58451 0.1373 0.0
C842 C 0.26159 0.59061 0.15513 0.0
C843 C 0.28129 0.55033 0.16974 0.0
loop_
_geom_bond_atom_site_label_1
_geom_bond_atom_site_label_2
_geom_bond_distance
_geom_bond_site_symmetry_2
_ccdc_geom_bond_type
C0 C1 1.384 . S
C0 C2 1.384 . S
C0 H28 0.931 1_565 S
C1 C0 1.384 . S
C1 C4 1.382 . S
C2 C0 1.384 . S
C2 C3 1.381 . S
C2 H29 0.930 1_565 S
C3 C2 1.381 . S
C3 C5 1.381 . S
C3 C6 1.487 . S
C4 C1 1.382 . S
C4 C5 1.387 . S
C4 H30 0.930 . S
C5 C3 1.381 . S
C5 C4 1.387 . S
C5 H31 0.931 . S
C6 C3 1.487 . S
C6 C13 1.399 1_565 S
C6 N44 1.343 . S
C7 C8 1.384 . S
C7 C9 1.384 . S
C7 H32 0.931 1_545 S
C8 C7 1.384 . S
C8 C11 1.382 . S
C9 C7 1.384 . S
C9 C10 1.381 . S
C9 H33 0.930 1_545 S
C10 C9 1.381 . S
C10 C12 1.381 . S
C10 C13 1.487 . S
C11 C8 1.382 . S
C11 C12 1.387 . S
C11 H34 0.930 . S
C12 C10 1.381 . S
C12 C11 1.387 . S
C12 H35 0.931 . S
C13 C6 1.399 1_545 S
C13 C10 1.487 . S
C13 N45 1.343 . S
C14 C15 1.384 . S
C14 C16 1.384 . S
C14 H36 0.931 1_545 S
C15 C14 1.384 . S
C15 C18 1.382 . S
C16 C14 1.384 . S
C16 C17 1.381 . S
C16 H37 0.930 1_545 S
C17 C16 1.381 . S
C17 C19 1.381 . S
C17 C20 1.487 . S
C18 C15 1.382 . S
C18 C19 1.387 . S
C18 H38 0.930 . S
C19 C17 1.381 . S
C19 C18 1.387 . S
C19 H39 0.931 . S
C20 C17 1.487 . S
C20 C27 1.399 1_545 S
C20 N45 1.343 1_655 S
C21 C22 1.384 . S
C21 C23 1.384 . S
C21 H40 0.931 1_565 S
C22 C21 1.384 . S
C22 C25 1.382 . S
C23 C21 1.384 . S
C23 C24 1.381 . S
C23 H41 0.930 1_565 S
C24 C23 1.381 . S
C24 C26 1.381 . S
C24 C27 1.487 . S
C25 C22 1.382 . S
C25 C26 1.387 . S
C25 H42 0.930 . S
C26 C24 1.381 . S
C26 C25 1.387 . S
C26 H43 0.931 . S
C27 C20 1.399 1_565 S
C27 C24 1.487 . S
C27 N44 1.343 1_655 S
H28 C0 0.931 1_545 S
H29 C2 0.930 1_545 S
H30 C4 0.930 . S
H31 C5 0.931 . S
H32 C7 0.931 1_565 S
H33 C9 0.930 1_565 S
H34 C11 0.930 . S
H35 C12 0.931 . S
H36 C14 0.931 1_565 S
H37 C16 0.930 1_565 S
H38 C18 0.930 . S
H39 C19 0.931 . S
H40 C21 0.931 1_545 S
H41 C23 0.930 1_545 S
H42 C25 0.930 . S
H43 C26 0.931 . S
N44 C6 1.343 . S
N44 C27 1.343 1_455 S
N45 C13 1.343 . S
N45 C20 1.343 1_455 S
C46 C47 1.384 . S
C46 C48 1.384 . S
C46 H74 0.931 . S
C47 C46 1.384 . S
C47 C50 1.382 . S
C48 C46 1.384 . S
C48 C49 1.381 . S
C48 H75 0.930 . S
C49 C48 1.381 . S
C49 C51 1.381 . S
C49 C52 1.487 . S
C50 C47 1.382 . S
C50 C51 1.387 . S
C50 H76 0.930 . S
C51 C49 1.381 . S
C51 C50 1.387 . S
C51 H77 0.931 . S
C52 C49 1.487 . S
C52 C59 1.399 . S
C52 N90 1.343 . S
C53 C54 1.384 . S
C53 C55 1.384 . S
C53 H78 0.931 . S
C54 C53 1.384 . S
C54 C57 1.382 . S
C55 C53 1.384 . S
C55 C56 1.381 . S
C55 H79 0.930 . S
C56 C55 1.381 . S
C56 C58 1.381 . S
C56 C59 1.487 . S
C57 C54 1.382 . S
C57 C58 1.387 . S
C57 H80 0.930 . S
C58 C56 1.381 . S
C58 C57 1.387 . S
C58 H81 0.931 . S
C59 C52 1.399 . S
C59 C56 1.487 . S
C59 N91 1.343 . S
C60 C61 1.384 . S
C60 C62 1.384 . S
C60 H82 0.931 . S
C61 C60 1.384 . S
C61 C64 1.382 . S
C62 C60 1.384 . S
C62 C63 1.381 . S
C62 H83 0.930 . S
C63 C62 1.381 . S
C63 C65 1.381 . S
C63 C66 1.487 . S
C64 C61 1.382 . S
C64 C65 1.387 . S
C64 H84 0.930 . S
C65 C63 1.381 . S
C65 C64 1.387 . S
C65 H85 0.931 . S
C66 C63 1.487 . S
C66 C73 1.399 . S
C66 N91 1.343 . S
C67 C68 1.384 . S
C67 C69 1.384 . S
C67 H86 0.931 . S
C68 C67 1.384 . S
C68 C71 1.382 . S
C69 C67 1.384 . S
C69 C70 1.381 . S
C69 H87 0.930 . S
C70 C69 1.381 . S
C70 C72 1.381 . S
C70 C73 1.487 . S
C71 C68 1.382 . S
C71 C72 1.387 . S
C71 H88 0.930 . S
C72 C70 1.381 . S
C72 C71 1.387 . S
C72 H89 0.931 . S
C73 C66 1.399 . S
C73 C70 1.487 . S
C73 N90 1.343 . S
H74 C46 0.931 . S
H75 C48 0.930 . S
H76 C50 0.930 . S
H77 C51 0.931 . S
H78 C53 0.931 . S
H79 C55 0.930 . S
H80 C57 0.930 . S
H81 C58 0.931 . S
H82 C60 0.931 . S
H83 C62 0.930 . S
H84 C64 0.930 . S
H85 C65 0.931 . S
H86 C67 0.931 . S
H87 C69 0.930 . S
H88 C71 0.930 . S
H89 C72 0.931 . S
N90 C52 1.343 . S
N90 C73 1.343 . S
N91 C59 1.343 . S
N91 C66 1.343 . S
C92 C93 1.384 . S
C92 C94 1.384 . S
C92 H120 0.931 1_545 S
C93 C92 1.384 . S
C93 C96 1.382 . S
C94 C92 1.384 . S
C94 C95 1.381 . S
C94 H121 0.930 1_545 S
C95 C94 1.381 . S
C95 C97 1.381 . S
C95 C98 1.487 . S
C96 C93 1.382 . S
C96 C97 1.387 . S
C96 H122 0.930 . S
C97 C95 1.381 . S
C97 C96 1.387 . S
C97 H123 0.931 . S
C98 C95 1.487 . S
C98 C105 1.399 1_546 S
C98 N136 1.343 . S
C99 C100 1.384 . S
C99 C101 1.384 . S
C99 H124 0.931 1_565 S
C100 C99 1.384 . S
C100 C103 1.382 . S
C101 C99 1.384 . S
C101 C102 1.381 . S
C101 H125 0.930 1_565 S
C102 C101 1.381 . S
C102 C104 1.381 . S
C102 C105 1.487 . S
C103 C100 1.382 . S
C103 C104 1.387 . S
C103 H126 0.930 . S
C104 C102 1.381 . S
C104 C103 1.387 . S
C104 H127 0.931 . S
C105 C98 1.399 1_564 S
C105 C102 1.487 . S
C105 N137 1.343 . S
C106 C107 1.384 . S
C106 C108 1.384 . S
C106 H128 0.931 1_565 S
C107 C106 1.384 . S
C107 C110 1.382 . S
C108 C106 1.384 . S
C108 C109 1.381 . S
C108 H129 0.930 1_565 S
C109 C108 1.381 . S
C109 C111 1.381 . S
C109 C112 1.487 . S
C110 C107 1.382 . S
C110 C111 1.387 . S
C110 H130 0.930 . S
C111 C109 1.381 . S
C111 C110 1.387 . S
C111 H131 0.931 . S
C112 C109 1.487 . S
C112 C119 1.399 1_564 S
C112 N137 1.343 . S
C113 C114 1.384 . S
C113 C115 1.384 . S
C113 H132 0.931 1_545 S
C114 C113 1.384 . S
C114 C117 1.382 . S
C115 C113 1.384 . S
C115 C116 1.381 . S
C115 H133 0.930 1_545 S
C116 C115 1.381 . S
C116 C118 1.381 . S
C116 C119 1.487 . S
C117 C114 1.382 . S
C117 C118 1.387 . S
C117 H134 0.930 . S
C118 C116 1.381 . S
C118 C117 1.387 . S
C118 H135 0.931 . S
C119 C112 1.399 1_546 S
C119 C116 1.487 . S
C119 N136 1.343 . S
H120 C92 0.931 1_565 S
H121 C94 0.930 1_565 S
H122 C96 0.930 . S
H123 C97 0.931 . S
H124 C99 0.931 1_545 S
H125 C101 0.930 1_545 S
H126 C103 0.930 . S
H127 C104 0.931 . S
H128 C106 0.931 1_545 S
H129 C108 0.930 1_545 S
H130 C110 0.930 . S
H131 C111 0.931 . S
H132 C113 0.931 1_565 S
H133 C115 0.930 1_565 S
H134 C117 0.930 . S
H135 C118 0.931 . S
N136 C98 1.343 . S
N136 C119 1.343 . S
N137 C105 1.343 . S
N137 C112 1.343 . S
C138 C139 1.384 . S
C138 C140 1.384 . S
C138 H166 0.931 . S
C139 C138 1.384 . S
C139 C142 1.382 . S
C140 C138 1.384 . S
C140 C141 1.381 . S
C140 H167 0.930 . S
C141 C140 1.381 . S
C141 C143 1.381 . S
C141 C144 1.487 . S
C142 C139 1.382 . S
C142 C143 1.387 . S
C142 H168 0.930 . S
C143 C141 1.381 . S
C143 C142 1.387 . S
C143 H169 0.931 . S
C144 C141 1.487 . S
C144 C151 1.399 . S
C144 N182 1.343 . S
C145 C146 1.384 . S
C145 C147 1.384 . S
C145 H170 0.931 . S
C146 C145 1.384 . S
C146 C149 1.382 . S
C147 C145 1.384 . S
C147 C148 1.381 . S
C147 H171 0.930 . S
C148 C147 1.381 . S
C148 C150 1.381 . S
C148 C151 1.487 . S
C149 C146 1.382 . S
C149 C150 1.387 . S
C149 H172 0.930 . S
C150 C148 1.381 . S
C150 C149 1.387 . S
C150 H173 0.931 . S
C151 C144 1.399 . S
C151 C148 1.487 . S
C151 N183 1.343 . S
C152 C153 1.384 . S
C152 C154 1.384 . S
C152 H174 0.931 . S
C153 C152 1.384 . S
C153 C156 1.382 . S
C154 C152 1.384 . S
C154 C155 1.381 . S
C154 H175 0.930 . S
C155 C154 1.381 . S
C155 C157 1.381 . S
C155 C158 1.487 . S
C156 C153 1.382 . S
C156 C157 1.387 . S
C156 H176 0.930 . S
C157 C155 1.381 . S
C157 C156 1.387 . S
C157 H177 0.931 . S
C158 C155 1.487 . S
C158 C165 1.399 . S
C158 N183 1.343 . S
C159 C160 1.384 . S
C159 C161 1.384 . S
C159 H178 0.931 . S
C160 C159 1.384 . S
C160 C163 1.382 . S
C161 C159 1.384 . S
C161 C162 1.381 . S
C161 H179 0.930 . S
C162 C161 1.381 . S
C162 C164 1.381 . S
C162 C165 1.487 . S
C163 C160 1.382 . S
C163 C164 1.387 . S
C163 H180 0.930 . S
C164 C162 1.381 . S
C164 C163 1.387 . S
C164 H181 0.931 . S
C165 C158 1.399 . S
C165 C162 1.487 . S
C165 N182 1.343 . S
H166 C138 0.931 . S
H167 C140 0.930 . S
H168 C142 0.930 . S
H169 C143 0.931 . S
H170 C145 0.931 . S
H171 C147 0.930 . S
H172 C149 0.930 . S
H173 C150 0.931 . S
H174 C152 0.931 . S
H175 C154 0.930 . S
H176 C156 0.930 . S
H177 C157 0.931 . S
H178 C159 0.931 . S
H179 C161 0.930 . S
H180 C163 0.930 . S
H181 C164 0.931 . S
N182 C144 1.343 . S
N182 C165 1.343 . S
N183 C151 1.343 . S
N183 C158 1.343 . S
C184 C185 1.384 . S
C184 C186 1.384 1_565 S
C184 H212 0.931 . S
C185 C184 1.384 . S
C185 C188 1.382 1_565 S
C186 C184 1.384 1_545 S
C186 C187 1.381 . S
C186 H213 0.930 . S
C187 C186 1.381 . S
C187 C189 1.381 . S
C187 C190 1.487 . S
C188 C185 1.382 1_545 S
C188 C189 1.387 . S
C188 H214 0.930 . S
C189 C187 1.381 . S
C189 C188 1.387 . S
C189 H215 0.931 . S
C190 C187 1.487 . S
C190 C197 1.399 . S
C190 N228 1.343 . S
C191 C192 1.384 . S
C191 C193 1.384 1_565 S
C191 H216 0.931 . S
C192 C191 1.384 . S
C192 C195 1.382 1_565 S
C193 C191 1.384 1_545 S
C193 C194 1.381 . S
C193 H217 0.930 . S
C194 C193 1.381 . S
C194 C196 1.381 . S
C194 C197 1.487 . S
C195 C192 1.382 1_545 S
C195 C196 1.387 . S
C195 H218 0.930 . S
C196 C194 1.381 . S
C196 C195 1.387 . S
C196 H219 0.931 . S
C197 C190 1.399 . S
C197 C194 1.487 . S
C197 N229 1.343 . S
C198 C199 1.384 . S
C198 C200 1.384 . S
C198 H220 0.931 . S
C199 C198 1.384 . S
C199 C202 1.382 . S
C200 C198 1.384 . S
C200 C201 1.381 . S
C200 H221 0.930 . S
C201 C200 1.381 . S
C201 C203 1.381 . S
C201 C204 1.487 . S
C202 C199 1.382 . S
C202 C203 1.387 . S
C202 H222 0.930 . S
C203 C201 1.381 . S
C203 C202 1.387 . S
C203 H223 0.931 . S
C204 C201 1.487 . S
C204 C211 1.399 . S
C204 N229 1.343 . S
C205 C206 1.384 . S
C205 C207 1.384 . S
C205 H224 0.931 . S
C206 C205 1.384 . S
C206 C209 1.382 . S
C207 C205 1.384 . S
C207 C208 1.381 . S
C207 H225 0.930 . S
C208 C207 1.381 . S
C208 C210 1.381 . S
C208 C211 1.487 . S
C209 C206 1.382 . S
C209 C210 1.387 . S
C209 H226 0.930 . S
C210 C208 1.381 . S
C210 C209 1.387 . S
C210 H227 0.931 . S
C211 C204 1.399 . S
C211 C208 1.487 . S
C211 N228 1.343 . S
H212 C184 0.931 . S
H213 C186 0.930 . S
H214 C188 0.930 . S
H215 C189 0.931 . S
H216 C191 0.931 . S
H217 C193 0.930 . S
H218 C195 0.930 . S
H219 C196 0.931 . S
H220 C198 0.931 . S
H221 C200 0.930 . S
H222 C202 0.930 . S
H223 C203 0.931 . S
H224 C205 0.931 . S
H225 C207 0.930 . S
H226 C209 0.930 . S
H227 C210 0.931 . S
N228 C190 1.343 . S
N228 C211 1.343 . S
N229 C197 1.343 . S
N229 C204 1.343 . S
C230 C231 1.384 . S
C230 C232 1.384 1_545 S
C230 H258 0.931 . S
C231 C230 1.384 . S
C231 C234 1.382 1_545 S
C232 C230 1.384 1_565 S
C232 C233 1.381 . S
C232 H259 0.930 . S
C233 C232 1.381 . S
C233 C235 1.381 . S
C233 C236 1.487 . S
C234 C231 1.382 1_565 S
C234 C235 1.387 . S
C234 H260 0.930 . S
C235 C233 1.381 . S
C235 C234 1.387 . S
C235 H261 0.931 . S
C236 C233 1.487 . S
C236 C243 1.399 . S
C236 N274 1.343 . S
C237 C238 1.384 . S
C237 C239 1.384 1_545 S
C237 H262 0.931 . S
C238 C237 1.384 . S
C238 C241 1.382 1_545 S
C239 C237 1.384 1_565 S
C239 C240 1.381 . S
C239 H263 0.930 . S
C240 C239 1.381 . S
C240 C242 1.381 . S
C240 C243 1.487 . S
C241 C238 1.382 1_565 S
C241 C242 1.387 . S
C241 H264 0.930 . S
C242 C240 1.381 . S
C242 C241 1.387 . S
C242 H265 0.931 . S
C243 C236 1.399 . S
C243 C240 1.487 . S
C243 N275 1.343 . S
C244 C245 1.384 . S
C244 C246 1.384 . S
C244 H266 0.931 . S
C245 C244 1.384 . S
C245 C248 1.382 . S
C246 C244 1.384 . S
C246 C247 1.381 . S
C246 H267 0.930 . S
C247 C246 1.381 . S
C247 C249 1.381 . S
C247 C250 1.487 . S
C248 C245 1.382 . S
C248 C249 1.387 . S
C248 H268 0.930 . S
C249 C247 1.381 . S
C249 C248 1.387 . S
C249 H269 0.931 . S
C250 C247 1.487 . S
C250 C257 1.399 . S
C250 N275 1.343 . S
C251 C252 1.384 . S
C251 C253 1.384 . S
C251 H270 0.931 . S
C252 C251 1.384 . S
C252 C255 1.382 . S
C253 C251 1.384 . S
C253 C254 1.381 . S
C253 H271 0.930 . S
C254 C253 1.381 . S
C254 C256 1.381 . S
C254 C257 1.487 . S
C255 C252 1.382 . S
C255 C256 1.387 . S
C255 H272 0.930 . S
C256 C254 1.381 . S
C256 C255 1.387 . S
C256 H273 0.931 . S
C257 C250 1.399 . S
C257 C254 1.487 . S
C257 N274 1.343 . S
H258 C230 0.931 . S
H259 C232 0.930 . S
H260 C234 0.930 . S
H261 C235 0.931 . S
H262 C237 0.931 . S
H263 C239 0.930 . S
H264 C241 0.930 . S
H265 C242 0.931 . S
H266 C244 0.931 . S
H267 C246 0.930 . S
H268 C248 0.930 . S
H269 C249 0.931 . S
H270 C251 0.931 . S
H271 C253 0.930 . S
H272 C255 0.930 . S
H273 C256 0.931 . S
N274 C236 1.343 . S
N274 C257 1.343 . S
N275 C243 1.343 . S
N275 C250 1.343 . S
C276 C277 1.384 . S
C276 C278 1.384 . S
C276 H304 0.931 . S
C277 C276 1.384 . S
C277 C280 1.382 . S
C278 C276 1.384 . S
C278 C279 1.381 . S
C278 H305 0.930 . S
C279 C278 1.381 . S
C279 C281 1.381 . S
C279 C282 1.487 . S
C280 C277 1.382 . S
C280 C281 1.387 . S
C280 H306 0.930 . S
C281 C279 1.381 . S
C281 C280 1.387 . S
C281 H307 0.931 . S
C282 C279 1.487 . S
C282 C289 1.399 1_556 S
C282 N320 1.343 . S
C283 C284 1.384 . S
C283 C285 1.384 . S
C283 H308 0.931 . S
C284 C283 1.384 . S
C284 C287 1.382 . S
C285 C283 1.384 . S
C285 C286 1.381 . S
C285 H309 0.930 . S
C286 C285 1.381 . S
C286 C288 1.381 . S
C286 C289 1.487 . S
C287 C284 1.382 . S
C287 C288 1.387 . S
C287 H310 0.930 . S
C288 C286 1.381 . S
C288 C287 1.387 . S
C288 H311 0.931 . S
C289 C282 1.399 1_554 S
C289 C286 1.487 . S
C289 N321 1.343 . S
C290 C291 1.384 . S
C290 C292 1.384 . S
C290 H312 0.931 . S
C291 C290 1.384 . S
C291 C294 1.382 . S
C292 C290 1.384 . S
C292 C293 1.381 . S
C292 H313 0.930 . S
C293 C292 1.381 . S
C293 C295 1.381 . S
C293 C296 1.487 . S
C294 C291 1.382 . S
C294 C295 1.387 . S
C294 H314 0.930 . S
C295 C293 1.381 . S
C295 C294 1.387 . S
C295 H315 0.931 . S
C296 C293 1.487 . S
C296 C303 1.399 1_554 S
C296 N321 1.343 . S
C297 C298 1.384 . S
C297 C299 1.384 . S
C297 H316 0.931 . S
C298 C297 1.384 . S
C298 C301 1.382 . S
C299 C297 1.384 . S
C299 C300 1.381 . S
C299 H317 0.930 . S
C300 C299 1.381 . S
C300 C302 1.381 . S
C300 C303 1.487 . S
C301 C298 1.382 . S
C301 C302 1.387 . S
C301 H318 0.930 . S
C302 C300 1.381 . S
C302 C301 1.387 . S
C302 H319 0.931 . S
C303 C296 1.399 1_556 S
C303 C300 1.487 . S
C303 N320 1.343 . S
H304 C276 0.931 . S
H305 C278 0.930 . S
H306 C280 0.930 . S
H307 C281 0.931 . S
H308 C283 0.931 . S
H309 C285 0.930 . S
H310 C287 0.930 . S
H311 C288 0.931 . S
H312 C290 0.931 . S
H313 C292 0.930 . S
H314 C294 0.930 . S
H315 C295 0.931 . S
H316 C297 0.931 . S
H317 C299 0.930 . S
H318 C301 0.930 . S
H319 C302 0.931 . S
N320 C282 1.343 . S
N320 C303 1.343 . S
N321 C289 1.343 . S
N321 C296 1.343 . S
C322 C323 1.384 . S
C322 C324 1.384 1_655 S
C322 H350 0.931 . S
C323 C322 1.384 . S
C323 C326 1.382 1_655 S
C324 C322 1.384 1_455 S
C324 C325 1.381 . S
C324 H351 0.930 . S
C325 C324 1.381 . S
C325 C327 1.381 . S
C325 C328 1.487 . S
C326 C323 1.382 1_455 S
C326 C327 1.387 . S
C326 H352 0.930 . S
C327 C325 1.381 . S
C327 C326 1.387 . S
C327 H353 0.931 . S
C328 C325 1.487 . S
C328 C335 1.399 . S
C328 N366 1.343 . S
C329 C330 1.384 . S
C329 C331 1.384 1_655 S
C329 H354 0.931 . S
C330 C329 1.384 . S
C330 C333 1.382 1_655 S
C331 C329 1.384 1_455 S
C331 C332 1.381 . S
C331 H355 0.930 . S
C332 C331 1.381 . S
C332 C334 1.381 . S
C332 C335 1.487 . S
C333 C330 1.382 1_455 S
C333 C334 1.387 . S
C333 H356 0.930 . S
C334 C332 1.381 . S
C334 C333 1.387 . S
C334 H357 0.931 . S
C335 C328 1.399 . S
C335 C332 1.487 . S
C335 N367 1.343 . S
C336 C337 1.384 . S
C336 C338 1.384 . S
C336 H358 0.931 . S
C337 C336 1.384 . S
C337 C340 1.382 . S
C338 C336 1.384 . S
C338 C339 1.381 . S
C338 H359 0.930 . S
C339 C338 1.381 . S
C339 C341 1.381 . S
C339 C342 1.487 . S
C340 C337 1.382 . S
C340 C341 1.387 . S
C340 H360 0.930 . S
C341 C339 1.381 . S
C341 C340 1.387 . S
C341 H361 0.931 . S
C342 C339 1.487 . S
C342 C349 1.399 . S
C342 N367 1.343 . S
C343 C344 1.384 . S
C343 C345 1.384 . S
C343 H362 0.931 . S
C344 C343 1.384 . S
C344 C347 1.382 . S
C345 C343 1.384 . S
C345 C346 1.381 . S
C345 H363 0.930 . S
C346 C345 1.381 . S
C346 C348 1.381 . S
C346 C349 1.487 . S
C347 C344 1.382 . S
C347 C348 1.387 . S
C347 H364 0.930 . S
C348 C346 1.381 . S
C348 C347 1.387 . S
C348 H365 0.931 . S
C349 C342 1.399 . S
C349 C346 1.487 . S
C349 N366 1.343 . S
H350 C322 0.931 . S
H351 C324 0.930 . S
H352 C326 0.930 . S
H353 C327 0.931 . S
H354 C329 0.931 . S
H355 C331 0.930 . S
H356 C333 0.930 . S
H357 C334 0.931 . S
H358 C336 0.931 . S
H359 C338 0.930 . S
H360 C340 0.930 . S
H361 C341 0.931 . S
H362 C343 0.931 . S
H363 C345 0.930 . S
H364 C347 0.930 . S
H365 C348 0.931 . S
N366 C328 1.343 . S
N366 C349 1.343 . S
N367 C335 1.343 . S
N367 C342 1.343 . S
C368 O395 1.312 . S
C368 O396 1.208 . S
C369 O390 1.331 1_655 S
C369 O393 1.244 . S
C370 O392 1.264 1_655 S
C370 O394 1.273 . S
Mg371 O373 1.936 . S
Mg371 O380 2.081 . S
Mg371 O382 2.023 . S
Mg371 O386 2.031 . S
Mg371 O395 2.291 . S
Mg372 O373 1.963 . S
Mg372 O383 1.942 . S
Mg372 O384 1.955 . S
Mg372 O391 1.986 . S
O373 Mg371 1.936 . S
O373 Mg372 1.963 . S
O373 Mg374 1.915 . S
Mg374 O373 1.915 . S
Mg374 O375 1.915 . S
Mg374 O379 2.013 . S
Mg374 O385 2.114 . S
Mg374 O389 2.013 . S
Mg374 O395 2.114 . S
O375 Mg374 1.915 . S
O375 Mg376 1.936 . S
O375 Mg377 1.963 1_455 S
Mg376 O375 1.936 . S
Mg376 O385 2.291 . S
Mg376 O390 2.081 . S
Mg376 O392 2.023 . S
Mg376 O396 2.031 . S
Mg377 O375 1.963 1_655 S
Mg377 O381 1.986 . S
Mg377 O393 1.942 . S
Mg377 O394 1.955 . S
C378 O389 1.191 . S
C378 O391 1.307 . S
O379 Mg374 2.013 . S
O379 C398 1.191 . S
O380 Mg371 2.081 . S
O380 C388 1.331 . S
O381 Mg377 1.986 . S
O381 C398 1.307 1_655 S
O382 Mg371 2.023 . S
O382 C397 1.264 . S
O383 Mg372 1.942 . S
O383 C388 1.244 . S
O384 Mg372 1.955 . S
O384 C397 1.273 . S
O385 Mg374 2.114 . S
O385 Mg376 2.291 . S
O385 C387 1.312 . S
O386 Mg371 2.031 . S
O386 C387 1.208 . S
C387 O385 1.312 . S
C387 O386 1.208 . S
C388 O380 1.331 . S
C388 O383 1.244 . S
O389 Mg374 2.013 . S
O389 C378 1.191 . S
O390 C369 1.331 1_455 S
O390 Mg376 2.081 . S
O391 Mg372 1.986 . S
O391 C378 1.307 . S
O392 C370 1.264 1_455 S
O392 Mg376 2.023 . S
O393 C369 1.244 . S
O393 Mg377 1.942 . S
O394 C370 1.273 . S
O394 Mg377 1.955 . S
O395 C368 1.312 . S
O395 Mg371 2.291 . S
O395 Mg374 2.114 . S
O396 C368 1.208 . S
O396 Mg376 2.031 . S
C397 O382 1.264 . S
C397 O384 1.273 . S
C398 O379 1.191 . S
C398 O381 1.307 1_455 S
C399 O426 1.312 . S
C399 O427 1.208 . S
C400 O421 1.331 . S
C400 O424 1.244 . S
C401 O423 1.264 . S
C401 O425 1.273 . S
Mg402 O404 1.936 . S
Mg402 O411 2.081 . S
Mg402 O413 2.023 . S
Mg402 O417 2.031 . S
Mg402 O426 2.291 . S
Mg403 O404 1.963 . S
Mg403 O414 1.942 . S
Mg403 O415 1.955 . S
Mg403 O422 1.986 . S
O404 Mg402 1.936 . S
O404 Mg403 1.963 . S
O404 Mg405 1.915 . S
Mg405 O404 1.915 . S
Mg405 O406 1.915 . S
Mg405 O410 2.013 . S
Mg405 O416 2.114 . S
Mg405 O420 2.013 . S
Mg405 O426 2.114 . S
O406 Mg405 1.915 . S
O406 Mg407 1.936 . S
O406 Mg408 1.963 . S
Mg407 O406 1.936 . S
Mg407 O416 2.291 . S
Mg407 O421 2.081 . S
Mg407 O423 2.023 . S
Mg407 O427 2.031 . S
Mg408 O406 1.963 . S
Mg408 O412 1.986 . S
Mg408 O424 1.942 . S
Mg408 O425 1.955 . S
C409 O420 1.191 . S
C409 O422 1.307 . S
O410 Mg405 2.013 . S
O410 C429 1.191 . S
O411 Mg402 2.081 . S
O411 C419 1.331 . S
O412 Mg408 1.986 . S
O412 C429 1.307 . S
O413 Mg402 2.023 . S
O413 C428 1.264 . S
O414 Mg403 1.942 . S
O414 C419 1.244 . S
O415 Mg403 1.955 . S
O415 C428 1.273 . S
O416 Mg405 2.114 . S
O416 Mg407 2.291 . S
O416 C418 1.312 . S
O417 Mg402 2.031 . S
O417 C418 1.208 . S
C418 O416 1.312 . S
C418 O417 1.208 . S
C419 O411 1.331 . S
C419 O414 1.244 . S
O420 Mg405 2.013 . S
O420 C409 1.191 . S
O421 C400 1.331 . S
O421 Mg407 2.081 . S
O422 Mg403 1.986 . S
O422 C409 1.307 . S
O423 C401 1.264 . S
O423 Mg407 2.023 . S
O424 C400 1.244 . S
O424 Mg408 1.942 . S
O425 C401 1.273 . S
O425 Mg408 1.955 . S
O426 C399 1.312 . S
O426 Mg402 2.291 . S
O426 Mg405 2.114 . S
O427 C399 1.208 . S
O427 Mg407 2.031 . S
C428 O413 1.264 . S
C428 O415 1.273 . S
C429 O410 1.191 . S
C429 O412 1.307 . S
C430 O457 1.312 . S
C430 O458 1.208 . S
C431 O452 1.331 . S
C431 O455 1.244 . S
C432 O454 1.264 . S
C432 O456 1.273 . S
Mg433 O435 1.936 . S
Mg433 O442 2.081 . S
Mg433 O444 2.023 . S
Mg433 O448 2.031 . S
Mg433 O457 2.291 . S
Mg434 O435 1.963 . S
Mg434 O445 1.942 . S
Mg434 O446 1.955 . S
Mg434 O453 1.986 . S
O435 Mg433 1.936 . S
O435 Mg434 1.963 . S
O435 Mg436 1.915 . S
Mg436 O435 1.915 . S
Mg436 O437 1.915 . S
Mg436 O441 2.013 . S
Mg436 O447 2.114 . S
Mg436 O451 2.013 . S
Mg436 O457 2.114 . S
O437 Mg436 1.915 . S
O437 Mg438 1.936 . S
O437 Mg439 1.963 . S
Mg438 O437 1.936 . S
Mg438 O447 2.291 . S
Mg438 O452 2.081 . S
Mg438 O454 2.023 . S
Mg438 O458 2.031 . S
Mg439 O437 1.963 . S
Mg439 O443 1.986 . S
Mg439 O455 1.942 . S
Mg439 O456 1.955 . S
C440 O451 1.191 . S
C440 O453 1.307 . S
O441 Mg436 2.013 . S
O441 C460 1.191 . S
O442 Mg433 2.081 . S
O442 C450 1.331 . S
O443 Mg439 1.986 . S
O443 C460 1.307 . S
O444 Mg433 2.023 . S
O444 C459 1.264 . S
O445 Mg434 1.942 . S
O445 C450 1.244 . S
O446 Mg434 1.955 . S
O446 C459 1.273 . S
O447 Mg436 2.114 . S
O447 Mg438 2.291 . S
O447 C449 1.312 . S
O448 Mg433 2.031 . S
O448 C449 1.208 . S
C449 O447 1.312 . S
C449 O448 1.208 . S
C450 O442 1.331 . S
C450 O445 1.244 . S
O451 Mg436 2.013 . S
O451 C440 1.191 . S
O452 C431 1.331 . S
O452 Mg438 2.081 . S
O453 Mg434 1.986 . S
O453 C440 1.307 . S
O454 C432 1.264 . S
O454 Mg438 2.023 . S
O455 C431 1.244 . S
O455 Mg439 1.942 . S
O456 C432 1.273 . S
O456 Mg439 1.955 . S
O457 C430 1.312 . S
O457 Mg433 2.291 . S
O457 Mg436 2.114 . S
O458 C430 1.208 . S
O458 Mg438 2.031 . S
C459 O444 1.264 . S
C459 O446 1.273 . S
C460 O441 1.191 . S
C460 O443 1.307 . S
C461 O488 1.312 . S
C461 O489 1.208 . S
C462 O483 1.331 . S
C462 O486 1.244 . S
C463 O485 1.264 . S
C463 O487 1.273 . S
Mg464 O466 1.936 . S
Mg464 O473 2.081 . S
Mg464 O475 2.023 . S
Mg464 O479 2.031 . S
Mg464 O488 2.291 . S
Mg465 O466 1.963 1_655 S
Mg465 O476 1.942 . S
Mg465 O477 1.955 . S
Mg465 O484 1.986 . S
O466 Mg464 1.936 . S
O466 Mg465 1.963 1_455 S
O466 Mg467 1.915 . S
Mg467 O466 1.915 . S
Mg467 O468 1.915 . S
Mg467 O472 2.013 . S
Mg467 O478 2.114 . S
Mg467 O482 2.013 . S
Mg467 O488 2.114 . S
O468 Mg467 1.915 . S
O468 Mg469 1.936 . S
O468 Mg470 1.963 . S
Mg469 O468 1.936 . S
Mg469 O478 2.291 . S
Mg469 O483 2.081 . S
Mg469 O485 2.023 . S
Mg469 O489 2.031 . S
Mg470 O468 1.963 . S
Mg470 O474 1.986 . S
Mg470 O486 1.942 . S
Mg470 O487 1.955 . S
C471 O482 1.191 . S
C471 O484 1.307 1_455 S
O472 Mg467 2.013 . S
O472 C491 1.191 . S
O473 Mg464 2.081 . S
O473 C481 1.331 1_455 S
O474 Mg470 1.986 . S
O474 C491 1.307 . S
O475 Mg464 2.023 . S
O475 C490 1.264 1_455 S
O476 Mg465 1.942 . S
O476 C481 1.244 . S
O477 Mg465 1.955 . S
O477 C490 1.273 . S
O478 Mg467 2.114 . S
O478 Mg469 2.291 . S
O478 C480 1.312 . S
O479 Mg464 2.031 . S
O479 C480 1.208 . S
C480 O478 1.312 . S
C480 O479 1.208 . S
C481 O473 1.331 1_655 S
C481 O476 1.244 . S
O482 Mg467 2.013 . S
O482 C471 1.191 . S
O483 C462 1.331 . S
O483 Mg469 2.081 . S
O484 Mg465 1.986 . S
O484 C471 1.307 1_655 S
O485 C463 1.264 . S
O485 Mg469 2.023 . S
O486 C462 1.244 . S
O486 Mg470 1.942 . S
O487 C463 1.273 . S
O487 Mg470 1.955 . S
O488 C461 1.312 . S
O488 Mg464 2.291 . S
O488 Mg467 2.114 . S
O489 C461 1.208 . S
O489 Mg469 2.031 . S
C490 O475 1.264 1_655 S
C490 O477 1.273 . S
C491 O472 1.191 . S
C491 O474 1.307 . S
C492 C493 1.369 . S
C492 C494 1.419 . S
C492 H496 0.930 . S
C493 C492 1.369 . S
C493 C502 1.429 . S
C494 C492 1.419 . S
C494 C495 1.363 . S
C494 H497 0.929 . S
C495 C494 1.363 . S
C495 C501 1.428 . S
H496 C492 0.930 . S
H497 C494 0.929 . S
S498 N499 1.613 . S
S498 N500 1.610 . S
N499 S498 1.613 . S
N499 C502 1.350 . S
N500 S498 1.610 . S
N500 C501 1.351 . S
C501 C495 1.428 . S
C501 N500 1.351 . S
C501 C502 1.434 . S
C502 C493 1.429 . S
C502 N499 1.350 . S
C502 C501 1.434 . S
C503 C504 1.369 . S
C503 C505 1.419 1_565 S
C503 H507 0.930 . S
C504 C503 1.369 . S
C504 C513 1.429 . S
C505 C503 1.419 1_545 S
C505 C506 1.363 . S
C505 H508 0.929 . S
C506 C505 1.363 . S
C506 C512 1.428 . S
H507 C503 0.930 . S
H508 C505 0.929 . S
S509 N510 1.613 . S
S509 N511 1.599 1_565 S
N510 S509 1.613 . S
N510 C513 1.350 . S
N511 S509 1.599 1_545 S
N511 C512 1.351 . S
C512 C506 1.428 . S
C512 N511 1.351 . S
C512 C513 1.434 1_545 S
C513 C504 1.429 . S
C513 N510 1.350 . S
C513 C512 1.434 1_565 S
C514 C515 1.369 . S
C514 C516 1.419 . S
C514 H518 0.930 . S
C515 C514 1.369 . S
C515 C524 1.429 . S
C516 C514 1.419 . S
C516 C517 1.363 . S
C516 H519 0.929 . S
C517 C516 1.363 . S
C517 C523 1.428 . S
H518 C514 0.930 . S
H519 C516 0.929 . S
S520 N521 1.613 . S
S520 N522 1.610 1_565 S
N521 S520 1.613 . S
N521 C524 1.350 1_565 S
N522 S520 1.610 1_545 S
N522 C523 1.351 . S
C523 C517 1.428 . S
C523 N522 1.351 . S
C523 C524 1.434 . S
C524 C515 1.429 . S
C524 N521 1.350 1_545 S
C524 C523 1.434 . S
C525 C526 1.369 1_565 S
C525 C527 1.419 . S
C525 H529 0.930 . S
C526 C525 1.369 1_545 S
C526 C535 1.429 . S
C527 C525 1.419 . S
C527 C528 1.363 . S
C527 H530 0.929 . S
C528 C527 1.363 . S
C528 C534 1.428 . S
H529 C525 0.930 . S
H530 C527 0.929 . S
S531 N532 1.613 . S
S531 N533 1.595 1_545 S
N532 S531 1.613 . S
N532 C535 1.350 . S
N533 S531 1.595 1_565 S
N533 C534 1.353 . S
C534 C528 1.428 . S
C534 N533 1.353 . S
C534 C535 1.434 1_565 S
C535 C526 1.429 . S
C535 N532 1.350 . S
C535 C534 1.434 1_545 S
C536 C537 1.369 . S
C536 C538 1.419 . S
C536 H540 0.930 . S
C537 C536 1.369 . S
C537 C546 1.429 . S
C538 C536 1.419 . S
C538 C539 1.363 . S
C538 H541 0.929 . S
C539 C538 1.363 . S
C539 C545 1.428 . S
H540 C536 0.930 . S
H541 C538 0.929 . S
S542 N543 1.613 . S
S542 N544 1.610 . S
N543 S542 1.613 . S
N543 C546 1.350 . S
N544 S542 1.610 . S
N544 C545 1.351 . S
C545 C539 1.428 . S
C545 N544 1.351 . S
C545 C546 1.434 . S
C546 C537 1.429 . S
C546 N543 1.350 . S
C546 C545 1.434 . S
C547 C548 1.369 1_545 S
C547 C549 1.419 . S
C547 H551 0.930 . S
C548 C547 1.369 1_565 S
C548 C557 1.429 . S
C549 C547 1.419 . S
C549 C550 1.363 . S
C549 H552 0.929 . S
C550 C549 1.363 . S
C550 C556 1.428 . S
H551 C547 0.930 . S
H552 C549 0.929 . S
S553 N554 1.613 . S
S553 N555 1.610 1_565 S
N554 S553 1.613 . S
N554 C557 1.350 . S
N555 S553 1.610 1_545 S
N555 C556 1.351 . S
C556 C550 1.428 . S
C556 N555 1.351 . S
C556 C557 1.434 1_545 S
C557 C548 1.429 . S
C557 N554 1.350 . S
C557 C556 1.434 1_565 S
C558 C559 1.369 . S
C558 C560 1.419 . S
C558 H562 0.930 . S
C559 C558 1.369 . S
C559 C568 1.429 . S
C560 C558 1.419 . S
C560 C561 1.363 . S
C560 H563 0.929 . S
C561 C560 1.363 . S
C561 C567 1.428 . S
H562 C558 0.930 . S
H563 C560 0.929 . S
S564 N565 1.613 . S
S564 N566 1.610 . S
N565 S564 1.613 . S
N565 C568 1.350 . S
N566 S564 1.610 . S
N566 C567 1.351 . S
C567 C561 1.428 . S
C567 N566 1.351 . S
C567 C568 1.434 . S
C568 C559 1.429 . S
C568 N565 1.350 . S
C568 C567 1.434 . S
C569 C570 1.369 . S
C569 C571 1.419 1_545 S
C569 H573 0.930 . S
C570 C569 1.369 . S
C570 C579 1.429 . S
C571 C569 1.419 1_565 S
C571 C572 1.363 . S
C571 H574 0.929 . S
C572 C571 1.363 . S
C572 C578 1.428 . S
H573 C569 0.930 . S
H574 C571 0.929 . S
S575 N576 1.613 1_565 S
S575 N577 1.610 . S
N576 S575 1.613 1_545 S
N576 C579 1.350 . S
N577 S575 1.610 . S
N577 C578 1.351 . S
C578 C572 1.428 . S
C578 N577 1.351 . S
C578 C579 1.434 1_565 S
C579 C570 1.429 . S
C579 N576 1.350 . S
C579 C578 1.434 1_545 S
C580 C581 1.369 . S
C580 C582 1.419 . S
C580 H584 0.930 . S
C581 C580 1.369 . S
C581 C590 1.429 . S
C582 C580 1.419 . S
C582 C583 1.363 . S
C582 H585 0.929 . S
C583 C582 1.363 . S
C583 C589 1.428 . S
H584 C580 0.930 . S
H585 C582 0.929 . S
S586 N587 1.613 . S
S586 N588 1.610 . S
N587 S586 1.613 . S
N587 C590 1.350 . S
N588 S586 1.610 . S
N588 C589 1.351 . S
C589 C583 1.428 . S
C589 N588 1.351 . S
C589 C590 1.434 . S
C590 C581 1.429 . S
C590 N587 1.350 . S
C590 C589 1.434 . S
C591 C592 1.369 . S
C591 C593 1.419 . S
C591 H595 0.930 . S
C592 C591 1.369 . S
C592 C601 1.429 . S
C593 C591 1.419 . S
C593 C594 1.363 . S
C593 H596 0.929 . S
C594 C593 1.363 . S
C594 C600 1.428 . S
H595 C591 0.930 . S
H596 C593 0.929 . S
S597 N598 1.613 . S
S597 N599 1.610 1_545 S
N598 S597 1.613 . S
N598 C601 1.350 1_545 S
N599 S597 1.610 1_565 S
N599 C600 1.351 . S
C600 C594 1.428 . S
C600 N599 1.351 . S
C600 C601 1.434 . S
C601 C592 1.429 . S
C601 N598 1.350 1_565 S
C601 C600 1.434 . S
C602 C603 1.369 . S
C602 C604 1.419 1_655 S
C602 H606 0.930 . S
C603 C602 1.369 . S
C603 C612 1.429 . S
C604 C602 1.419 1_455 S
C604 C605 1.363 1_455 S
C604 H607 0.929 . S
C605 C604 1.363 1_655 S
C605 C611 1.428 . S
H606 C602 0.930 . S
H607 C604 0.929 . S
S608 N609 1.613 . S
S608 N610 1.610 . S
N609 S608 1.613 . S
N609 C612 1.350 . S
N610 S608 1.610 . S
N610 C611 1.351 . S
C611 C605 1.428 . S
C611 N610 1.351 . S
C611 C612 1.434 . S
C612 C603 1.429 . S
C612 N609 1.350 . S
C612 C611 1.434 . S
C613 C614 1.369 . S
C613 C615 1.419 . S
C613 H617 0.930 . S
C614 C613 1.369 . S
C614 C623 1.443 . S
C615 C613 1.419 . S
C615 C616 1.363 . S
C615 H618 0.929 . S
C616 C615 1.363 . S
C616 C622 1.428 1_655 S
H617 C613 0.930 . S
H618 C615 0.929 . S
S619 N620 1.613 . S
S619 N621 1.610 . S
N620 S619 1.613 . S
N620 C623 1.341 1_455 S
N621 S619 1.610 . S
N621 C622 1.351 . S
C622 C616 1.428 1_455 S
C622 N621 1.351 . S
C622 C623 1.428 1_455 S
C623 C614 1.443 . S
C623 N620 1.341 1_655 S
C623 C622 1.428 1_655 S
C624 C625 1.369 . S
C624 C626 1.419 . S
C624 H628 0.930 . S
C625 C624 1.369 . S
C625 C634 1.429 . S
C626 C624 1.419 . S
C626 C627 1.363 . S
C626 H629 0.929 . S
C627 C626 1.363 . S
C627 C633 1.428 . S
H628 C624 0.930 . S
H629 C626 0.929 . S
S630 N631 1.613 . S
S630 N632 1.610 . S
N631 S630 1.613 . S
N631 C634 1.350 . S
N632 S630 1.610 . S
N632 C633 1.351 . S
C633 C627 1.428 . S
C633 N632 1.351 . S
C633 C634 1.434 . S
C634 C625 1.429 . S
C634 N631 1.350 . S
C634 C633 1.434 . S
C635 C636 1.369 . S
C635 C637 1.419 . S
C635 H639 0.930 . S
C636 C635 1.369 . S
C636 C645 1.429 1_655 S
C637 C635 1.419 . S
C637 C638 1.363 . S
C637 H640 0.929 . S
C638 C637 1.363 . S
C638 C644 1.428 1_655 S
H639 C635 0.930 . S
H640 C637 0.929 . S
S641 N642 1.613 . S
S641 N643 1.610 . S
N642 S641 1.613 . S
N642 C645 1.350 . S
N643 S641 1.610 . S
N643 C644 1.351 . S
C644 C638 1.428 1_455 S
C644 N643 1.351 . S
C644 C645 1.434 . S
C645 C636 1.429 1_455 S
C645 N642 1.350 . S
C645 C644 1.434 . S
C646 C647 1.369 . S
C646 C648 1.419 1_655 S
C646 H650 0.930 . S
C647 C646 1.369 . S
C647 C656 1.429 . S
C648 C646 1.419 1_455 S
C648 C649 1.363 1_455 S
C648 H651 0.929 . S
C649 C648 1.363 1_655 S
C649 C655 1.428 . S
H650 C646 0.930 . S
H651 C648 0.929 . S
S652 N653 1.613 . S
S652 N654 1.610 . S
N653 S652 1.613 . S
N653 C656 1.350 . S
N654 S652 1.610 . S
N654 C655 1.351 . S
C655 C649 1.428 . S
C655 N654 1.351 . S
C655 C656 1.434 . S
C656 C647 1.429 . S
C656 N653 1.350 . S
C656 C655 1.434 . S
C657 C658 1.369 . S
C657 C659 1.419 . S
C657 H661 0.930 . S
C658 C657 1.369 . S
C658 C667 1.429 . S
C659 C657 1.419 . S
C659 C660 1.363 . S
C659 H662 0.929 . S
C660 C659 1.363 . S
C660 C666 1.428 . S
H661 C657 0.930 . S
H662 C659 0.929 . S
S663 N664 1.613 . S
S663 N665 1.610 . S
N664 S663 1.613 . S
N664 C667 1.350 . S
N665 S663 1.610 . S
N665 C666 1.351 . S
C666 C660 1.428 . S
C666 N665 1.351 . S
C666 C667 1.434 . S
C667 C658 1.429 . S
C667 N664 1.350 . S
C667 C666 1.434 . S
C668 C669 1.369 . S
C668 C670 1.419 . S
C668 H672 0.930 . S
C669 C668 1.369 . S
C669 C678 1.429 . S
C670 C668 1.419 . S
C670 C671 1.363 . S
C670 H673 0.929 . S
C671 C670 1.363 . S
C671 C677 1.428 . S
H672 C668 0.930 . S
H673 C670 0.929 . S
S674 N675 1.613 . S
S674 N676 1.610 . S
N675 S674 1.613 . S
N675 C678 1.350 . S
N676 S674 1.610 . S
N676 C677 1.351 . S
C677 C671 1.428 . S
C677 N676 1.351 . S
C677 C678 1.434 . S
C678 C669 1.429 . S
C678 N675 1.350 . S
C678 C677 1.434 . S
C679 C680 1.369 . S
C679 C681 1.419 . S
C679 H683 0.930 . S
C680 C679 1.369 . S
C680 C689 1.429 . S
C681 C679 1.419 . S
C681 C682 1.363 . S
C681 H684 0.929 . S
C682 C681 1.363 . S
C682 C688 1.428 . S
H683 C679 0.930 . S
H684 C681 0.929 . S
S685 N686 1.613 1_455 S
S685 N687 1.610 . S
N686 S685 1.613 1_655 S
N686 C689 1.350 . S
N687 S685 1.610 . S
N687 C688 1.351 1_455 S
C688 C682 1.428 . S
C688 N687 1.351 1_655 S
C688 C689 1.434 . S
C689 C680 1.429 . S
C689 N686 1.350 . S
C689 C688 1.434 . S
C690 C691 1.369 . S
C690 C692 1.419 . S
C690 H694 0.930 . S
C691 C690 1.369 . S
C691 C700 1.429 . S
C692 C690 1.419 . S
C692 C693 1.363 . S
C692 H695 0.929 . S
C693 C692 1.363 . S
C693 C699 1.428 . S
H694 C690 0.930 . S
H695 C692 0.929 . S
S696 N697 1.613 . S
S696 N698 1.610 . S
N697 S696 1.613 . S
N697 C700 1.350 . S
N698 S696 1.610 . S
N698 C699 1.351 . S
C699 C693 1.428 . S
C699 N698 1.351 . S
C699 C700 1.434 . S
C700 C691 1.429 . S
C700 N697 1.350 . S
C700 C699 1.434 . S
C701 C702 1.369 . S
C701 C703 1.419 . S
C701 H705 0.930 . S
C702 C701 1.369 . S
C702 C711 1.429 . S
C703 C701 1.419 . S
C703 C704 1.363 . S
C703 H706 0.929 . S
C704 C703 1.363 . S
C704 C710 1.428 . S
H705 C701 0.930 . S
H706 C703 0.929 . S
S707 N708 1.613 . S
S707 N709 1.610 . S
N708 S707 1.613 . S
N708 C711 1.350 . S
N709 S707 1.610 . S
N709 C710 1.351 . S
C710 C704 1.428 . S
C710 N709 1.351 . S
C710 C711 1.434 . S
C711 C702 1.429 . S
C711 N708 1.350 . S
C711 C710 1.434 . S
C712 C713 1.369 . S
C712 C714 1.419 . S
C712 H716 0.930 . S
C713 C712 1.369 . S
C713 C722 1.429 . S
C714 C712 1.419 . S
C714 C715 1.363 . S
C714 H717 0.929 . S
C715 C714 1.363 . S
C715 C721 1.428 . S
H716 C712 0.930 . S
H717 C714 0.929 . S
S718 N719 1.613 . S
S718 N720 1.610 . S
N719 S718 1.613 . S
N719 C722 1.350 . S
N720 S718 1.610 . S
N720 C721 1.351 . S
C721 C715 1.428 . S
C721 N720 1.351 . S
C721 C722 1.434 . S
C722 C713 1.429 . S
C722 N719 1.350 . S
C722 C721 1.434 . S
C723 C724 1.369 . S
C723 C725 1.419 . S
C723 H727 0.930 . S
C724 C723 1.369 . S
C724 C733 1.429 . S
C725 C723 1.419 . S
C725 C726 1.363 . S
C725 H728 0.929 . S
C726 C725 1.363 . S
C726 C732 1.428 . S
H727 C723 0.930 . S
H728 C725 0.929 . S
S729 N730 1.613 . S
S729 N731 1.610 . S
N730 S729 1.613 . S
N730 C733 1.350 . S
N731 S729 1.610 . S
N731 C732 1.351 . S
C732 C726 1.428 . S
C732 N731 1.351 . S
C732 C733 1.434 . S
C733 C724 1.429 . S
C733 N730 1.350 . S
C733 C732 1.434 . S
C734 C735 1.369 . S
C734 C736 1.419 . S
C734 H738 0.930 . S
C735 C734 1.369 . S
C735 C744 1.429 . S
C736 C734 1.419 . S
C736 C737 1.363 . S
C736 H739 0.929 . S
C737 C736 1.363 . S
C737 C743 1.428 . S
H738 C734 0.930 . S
H739 C736 0.929 . S
S740 N741 1.613 . S
S740 N742 1.610 . S
N741 S740 1.613 . S
N741 C744 1.350 . S
N742 S740 1.610 . S
N742 C743 1.351 . S
C743 C737 1.428 . S
C743 N742 1.351 . S
C743 C744 1.434 . S
C744 C735 1.429 . S
C744 N741 1.350 . S
C744 C743 1.434 . S
C745 C746 1.369 . S
C745 C747 1.419 . S
C745 H749 0.930 . S
C746 C745 1.369 . S
C746 C755 1.429 . S
C747 C745 1.419 . S
C747 C748 1.363 . S
C747 H750 0.929 . S
C748 C747 1.363 . S
C748 C754 1.428 . S
H749 C745 0.930 . S
H750 C747 0.929 . S
S751 N752 1.613 . S
S751 N753 1.610 . S
N752 S751 1.613 . S
N752 C755 1.350 1_455 S
N753 S751 1.610 . S
N753 C754 1.351 1_455 S
C754 C748 1.428 . S
C754 N753 1.351 1_655 S
C754 C755 1.434 . S
C755 C746 1.429 . S
C755 N752 1.350 1_655 S
C755 C754 1.434 . S
C756 C757 1.369 . S
C756 C758 1.419 . S
C756 H760 0.930 . S
C757 C756 1.369 . S
C757 C766 1.429 . S
C758 C756 1.419 . S
C758 C759 1.363 . S
C758 H761 0.929 . S
C759 C758 1.363 . S
C759 C765 1.428 . S
H760 C756 0.930 . S
H761 C758 0.929 . S
S762 N763 1.613 . S
S762 N764 1.610 . S
N763 S762 1.613 . S
N763 C766 1.350 . S
N764 S762 1.610 . S
N764 C765 1.351 . S
C765 C759 1.428 . S
C765 N764 1.351 . S
C765 C766 1.434 . S
C766 C757 1.429 . S
C766 N763 1.350 . S
C766 C765 1.434 . S
C767 C768 1.369 . S
C767 C769 1.419 . S
C767 H771 0.930 . S
C768 C767 1.369 . S
C768 C777 1.429 . S
C769 C767 1.419 . S
C769 C770 1.363 . S
C769 H772 0.929 . S
C770 C769 1.363 . S
C770 C776 1.428 . S
H771 C767 0.930 . S
H772 C769 0.929 . S
S773 N774 1.613 . S
S773 N775 1.610 . S
N774 S773 1.613 . S
N774 C777 1.350 . S
N775 S773 1.610 . S
N775 C776 1.351 . S
C776 C770 1.428 . S
C776 N775 1.351 . S
C776 C777 1.434 . S
C777 C768 1.429 . S
C777 N774 1.350 . S
C777 C776 1.434 . S
C778 C779 1.369 . S
C778 C780 1.419 . S
C778 H782 0.930 . S
C779 C778 1.369 . S
C779 C788 1.429 . S
C780 C778 1.419 . S
C780 C781 1.363 . S
C780 H783 0.929 . S
C781 C780 1.363 . S
C781 C787 1.428 . S
H782 C778 0.930 . S
H783 C780 0.929 . S
S784 N785 1.613 . S
S784 N786 1.610 . S
N785 S784 1.613 . S
N785 C788 1.350 . S
N786 S784 1.610 . S
N786 C787 1.351 . S
C787 C781 1.428 . S
C787 N786 1.351 . S
C787 C788 1.434 . S
C788 C779 1.429 . S
C788 N785 1.350 . S
C788 C787 1.434 . S
C789 C790 1.369 . S
C789 C791 1.419 . S
C789 H793 0.930 . S
C790 C789 1.369 . S
C790 C799 1.429 . S
C791 C789 1.419 . S
C791 C792 1.363 . S
C791 H794 0.929 . S
C792 C791 1.363 . S
C792 C798 1.428 . S
H793 C789 0.930 . S
H794 C791 0.929 . S
S795 N796 1.613 . S
S795 N797 1.610 . S
N796 S795 1.613 . S
N796 C799 1.350 . S
N797 S795 1.610 . S
N797 C798 1.351 . S
C798 C792 1.428 . S
C798 N797 1.351 . S
C798 C799 1.434 . S
C799 C790 1.429 . S
C799 N796 1.350 . S
C799 C798 1.434 . S
C800 C801 1.369 . S
C800 C802 1.419 . S
C800 H804 0.930 . S
C801 C800 1.369 . S
C801 C810 1.429 . S
C802 C800 1.419 . S
C802 C803 1.363 . S
C802 H805 0.929 . S
C803 C802 1.363 . S
C803 C809 1.428 . S
H804 C800 0.930 . S
H805 C802 0.929 . S
S806 N807 1.613 . S
S806 N808 1.610 . S
N807 S806 1.613 . S
N807 C810 1.350 . S
N808 S806 1.610 . S
N808 C809 1.351 . S
C809 C803 1.428 . S
C809 N808 1.351 . S
C809 C810 1.434 . S
C810 C801 1.429 . S
C810 N807 1.350 . S
C810 C809 1.434 . S
C811 C812 1.369 . S
C811 C813 1.419 . S
C811 H815 0.930 . S
C812 C811 1.369 . S
C812 C821 1.429 . S
C813 C811 1.419 . S
C813 C814 1.363 . S
C813 H816 0.929 . S
C814 C813 1.363 . S
C814 C820 1.428 . S
H815 C811 0.930 . S
H816 C813 0.929 . S
S817 N818 1.613 . S
S817 N819 1.610 . S
N818 S817 1.613 . S
N818 C821 1.350 . S
N819 S817 1.610 . S
N819 C820 1.351 . S
C820 C814 1.428 . S
C820 N819 1.351 . S
C820 C821 1.434 . S
C821 C812 1.429 . S
C821 N818 1.350 . S
C821 C820 1.434 . S
C822 C823 1.369 . S
C822 C824 1.419 . S
C822 H826 0.930 . S
C823 C822 1.369 . S
C823 C832 1.429 . S
C824 C822 1.419 . S
C824 C825 1.363 . S
C824 H827 0.929 . S
C825 C824 1.363 . S
C825 C831 1.428 . S
H826 C822 0.930 . S
H827 C824 0.929 . S
S828 N829 1.613 . S
S828 N830 1.610 . S
N829 S828 1.613 . S
N829 C832 1.350 . S
N830 S828 1.610 . S
N830 C831 1.351 . S
C831 C825 1.428 . S
C831 N830 1.351 . S
C831 C832 1.434 . S
C832 C823 1.429 . S
C832 N829 1.350 . S
C832 C831 1.434 . S
C833 C834 1.369 . S
C833 C835 1.419 . S
C833 H837 0.930 . S
C834 C833 1.369 . S
C834 C843 1.429 . S
C835 C833 1.419 . S
C835 C836 1.363 . S
C835 H838 0.929 . S
C836 C835 1.363 . S
C836 C842 1.428 . S
H837 C833 0.930 . S
H838 C835 0.929 . S
S839 N840 1.613 . S
S839 N841 1.610 . S
N840 S839 1.613 . S
N840 C843 1.350 . S
N841 S839 1.610 . S
N841 C842 1.351 . S
C842 C836 1.428 . S
C842 N841 1.351 . S
C842 C843 1.434 . S
C843 C834 1.429 . S
C843 N840 1.350 . S
C843 C842 1.434 . S
C495 C428 1.759 . S
C493 C1 1.821 . S
C504 C68 1.735 . S
C506 C431 1.702 . S
C515 C93 1.720 . S
C517 C462 1.681 . S
C528 C397 1.729 . S
C526 C139 1.800 . S
C539 C432 1.760 . S
C537 C8 1.819 . S
C550 C463 1.729 . S
C548 C61 1.791 . S
C561 C388 1.677 . S
C559 C100 1.721 . S
C572 C419 1.704 . S
C570 C146 1.741 . S
C581 C15 1.394 . S
C583 C449 1.319 . S
C592 C192 1.377 . S
C594 C418 1.307 . S
C603 C107 1.316 . S
C605 C378 1.306 1_655 S
C616 C471 1.324 1_655 S
C614 C238 1.327 . S
C627 C399 1.321 . S
C625 C22 1.395 . S
C636 C185 1.328 . S
C638 C398 1.325 1_655 S
C647 C114 1.314 . S
C649 C491 1.313 1_655 S
C660 C430 1.310 . S
C658 C231 1.379 . S
C669 C277 1.819 . S
C671 C490 1.762 . S
C680 C206 1.733 . S
C682 C369 1.705 . S
C691 C330 1.720 . S
C693 C400 1.682 . S
C702 C252 1.791 . S
C704 C459 1.729 . S
C715 C370 1.754 . S
C713 C284 1.819 . S
C724 C199 1.791 . S
C726 C401 1.734 . S
C735 C323 1.723 . S
C737 C450 1.679 . S
C748 C481 1.705 . S
C746 C245 1.734 . S
C757 C291 1.395 . S
C759 C387 1.319 . S
C768 C54 1.379 . S
C770 C480 1.310 . S
C779 C344 1.315 . S
C781 C440 1.312 . S
C792 C409 1.323 . S
C790 C153 1.328 . S
C803 C461 1.327 . S
C801 C298 1.398 . S
C814 C460 1.324 . S
C812 C47 1.331 . S
C825 C429 1.308 . S
C823 C337 1.315 . S
C836 C368 1.309 . S
C834 C160 1.380 . S
