# Generated by pormake.
# Topology bpr, (3,3)-cn, num edge types: 1
# Building blocks:
#     Node 0, Type 0, BuildingBlock: WUSLED_clean_sbu_0, # of connection points: 3
#     Node 1, Type 0, BuildingBlock: WUSLED_clean_sbu_0, # of connection points: 3
#     Node 2, Type 0, BuildingBlock: WUSLED_clean_sbu_0, # of connection points: 3
#     Node 3, Type 0, BuildingBlock: WUSLED_clean_sbu_0, # of connection points: 3
#     Node 4, Type 0, BuildingBlock: WUSLED_clean_sbu_0, # of connection points: 3
#     Node 5, Type 0, BuildingBlock: WUSLED_clean_sbu_0, # of connection points: 3
#     Node 6, Type 0, BuildingBlock: WUSLED_clean_sbu_0, # of connection points: 3
#     Node 7, Type 0, BuildingBlock: WUSLED_clean_sbu_0, # of connection points: 3
#     Node 8, Type 0, BuildingBlock: WUSLED_clean_sbu_0, # of connection points: 3
#     Node 9, Type 0, BuildingBlock: WUSLED_clean_sbu_0, # of connection points: 3
#     Node 10, Type 0, BuildingBlock: WUSLED_clean_sbu_0, # of connection points: 3
#     Node 11, Type 0, BuildingBlock: WUSLED_clean_sbu_0, # of connection points: 3
#     Node 12, Type 0, BuildingBlock: WUSLED_clean_sbu_0, # of connection points: 3
#     Node 13, Type 0, BuildingBlock: WUSLED_clean_sbu_0, # of connection points: 3
#     Node 14, Type 0, BuildingBlock: WUSLED_clean_sbu_0, # of connection points: 3
#     Node 15, Type 0, BuildingBlock: WUSLED_clean_sbu_0, # of connection points: 3
#     Node 16, Type 0, BuildingBlock: WUSLED_clean_sbu_0, # of connection points: 3
#     Node 17, Type 0, BuildingBlock: WUSLED_clean_sbu_0, # of connection points: 3
#     Node 18, Type 0, BuildingBlock: WUSLED_clean_sbu_0, # of connection points: 3
#     Node 19, Type 0, BuildingBlock: WUSLED_clean_sbu_0, # of connection points: 3
#     Node 20, Type 0, BuildingBlock: WUSLED_clean_sbu_0, # of connection points: 3
#     Node 21, Type 0, BuildingBlock: WUSLED_clean_sbu_0, # of connection points: 3
#     Node 22, Type 0, BuildingBlock: WUSLED_clean_sbu_0, # of connection points: 3
#     Node 23, Type 0, BuildingBlock: WUSLED_clean_sbu_0, # of connection points: 3
#     Node 24, Type 0, BuildingBlock: WUSLED_clean_sbu_0, # of connection points: 3
#     Node 25, Type 0, BuildingBlock: WUSLED_clean_sbu_0, # of connection points: 3
#     Node 26, Type 0, BuildingBlock: WUSLED_clean_sbu_0, # of connection points: 3
#     Node 27, Type 0, BuildingBlock: WUSLED_clean_sbu_0, # of connection points: 3
#     Node 28, Type 0, BuildingBlock: WUSLED_clean_sbu_0, # of connection points: 3
#     Node 29, Type 0, BuildingBlock: WUSLED_clean_sbu_0, # of connection points: 3
#     Node 30, Type 0, BuildingBlock: WUSLED_clean_sbu_0, # of connection points: 3
#     Node 31, Type 0, BuildingBlock: WUSLED_clean_sbu_0, # of connection points: 3
#     Node 32, Type 0, BuildingBlock: WUSLED_clean_sbu_0, # of connection points: 3
#     Node 33, Type 0, BuildingBlock: WUSLED_clean_sbu_0, # of connection points: 3
#     Node 34, Type 0, BuildingBlock: WUSLED_clean_sbu_0, # of connection points: 3
#     Node 35, Type 0, BuildingBlock: WUSLED_clean_sbu_0, # of connection points: 3
#     Node 36, Type 0, BuildingBlock: WUSLED_clean_sbu_0, # of connection points: 3
#     Node 37, Type 0, BuildingBlock: WUSLED_clean_sbu_0, # of connection points: 3
#     Node 38, Type 0, BuildingBlock: WUSLED_clean_sbu_0, # of connection points: 3
#     Node 39, Type 0, BuildingBlock: WUSLED_clean_sbu_0, # of connection points: 3
#     Node 40, Type 0, BuildingBlock: WUSLED_clean_sbu_0, # of connection points: 3
#     Node 41, Type 0, BuildingBlock: WUSLED_clean_sbu_0, # of connection points: 3
#     Node 42, Type 0, BuildingBlock: WUSLED_clean_sbu_0, # of connection points: 3
#     Node 43, Type 0, BuildingBlock: WUSLED_clean_sbu_0, # of connection points: 3
#     Node 44, Type 0, BuildingBlock: WUSLED_clean_sbu_0, # of connection points: 3
#     Node 45, Type 0, BuildingBlock: WUSLED_clean_sbu_0, # of connection points: 3
#     Node 46, Type 0, BuildingBlock: WUSLED_clean_sbu_0, # of connection points: 3
#     Node 47, Type 0, BuildingBlock: WUSLED_clean_sbu_0, # of connection points: 3
#     Node 48, Type 1, BuildingBlock: BETDIP_clean_linker_0, # of connection points: 3
#     Node 49, Type 1, BuildingBlock: BETDIP_clean_linker_0, # of connection points: 3
#     Node 50, Type 1, BuildingBlock: BETDIP_clean_linker_0, # of connection points: 3
#     Node 51, Type 1, BuildingBlock: BETDIP_clean_linker_0, # of connection points: 3
#     Node 52, Type 1, BuildingBlock: BETDIP_clean_linker_0, # of connection points: 3
#     Node 53, Type 1, BuildingBlock: BETDIP_clean_linker_0, # of connection points: 3
#     Node 54, Type 1, BuildingBlock: BETDIP_clean_linker_0, # of connection points: 3
#     Node 55, Type 1, BuildingBlock: BETDIP_clean_linker_0, # of connection points: 3
#     Node 56, Type 1, BuildingBlock: BETDIP_clean_linker_0, # of connection points: 3
#     Node 57, Type 1, BuildingBlock: BETDIP_clean_linker_0, # of connection points: 3
#     Node 58, Type 1, BuildingBlock: BETDIP_clean_linker_0, # of connection points: 3
#     Node 59, Type 1, BuildingBlock: BETDIP_clean_linker_0, # of connection points: 3
#     Node 60, Type 1, BuildingBlock: BETDIP_clean_linker_0, # of connection points: 3
#     Node 61, Type 1, BuildingBlock: BETDIP_clean_linker_0, # of connection points: 3
#     Node 62, Type 1, BuildingBlock: BETDIP_clean_linker_0, # of connection points: 3
#     Node 63, Type 1, BuildingBlock: BETDIP_clean_linker_0, # of connection points: 3
#     Node 64, Type 1, BuildingBlock: BETDIP_clean_linker_0, # of connection points: 3
#     Node 65, Type 1, BuildingBlock: BETDIP_clean_linker_0, # of connection points: 3
#     Node 66, Type 1, BuildingBlock: BETDIP_clean_linker_0, # of connection points: 3
#     Node 67, Type 1, BuildingBlock: BETDIP_clean_linker_0, # of connection points: 3
#     Node 68, Type 1, BuildingBlock: BETDIP_clean_linker_0, # of connection points: 3
#     Node 69, Type 1, BuildingBlock: BETDIP_clean_linker_0, # of connection points: 3
#     Node 70, Type 1, BuildingBlock: BETDIP_clean_linker_0, # of connection points: 3
#     Node 71, Type 1, BuildingBlock: BETDIP_clean_linker_0, # of connection points: 3
#     Node 72, Type 1, BuildingBlock: BETDIP_clean_linker_0, # of connection points: 3
#     Node 73, Type 1, BuildingBlock: BETDIP_clean_linker_0, # of connection points: 3
#     Node 74, Type 1, BuildingBlock: BETDIP_clean_linker_0, # of connection points: 3
#     Node 75, Type 1, BuildingBlock: BETDIP_clean_linker_0, # of connection points: 3
#     Node 76, Type 1, BuildingBlock: BETDIP_clean_linker_0, # of connection points: 3
#     Node 77, Type 1, BuildingBlock: BETDIP_clean_linker_0, # of connection points: 3
#     Node 78, Type 1, BuildingBlock: BETDIP_clean_linker_0, # of connection points: 3
#     Node 79, Type 1, BuildingBlock: BETDIP_clean_linker_0, # of connection points: 3
#     Node 80, Type 1, BuildingBlock: BETDIP_clean_linker_0, # of connection points: 3
#     Node 81, Type 1, BuildingBlock: BETDIP_clean_linker_0, # of connection points: 3
#     Node 82, Type 1, BuildingBlock: BETDIP_clean_linker_0, # of connection points: 3
#     Node 83, Type 1, BuildingBlock: BETDIP_clean_linker_0, # of connection points: 3
#     Node 84, Type 1, BuildingBlock: BETDIP_clean_linker_0, # of connection points: 3
#     Node 85, Type 1, BuildingBlock: BETDIP_clean_linker_0, # of connection points: 3
#     Node 86, Type 1, BuildingBlock: BETDIP_clean_linker_0, # of connection points: 3
#     Node 87, Type 1, BuildingBlock: BETDIP_clean_linker_0, # of connection points: 3
#     Node 88, Type 1, BuildingBlock: BETDIP_clean_linker_0, # of connection points: 3
#     Node 89, Type 1, BuildingBlock: BETDIP_clean_linker_0, # of connection points: 3
#     Node 90, Type 1, BuildingBlock: BETDIP_clean_linker_0, # of connection points: 3
#     Node 91, Type 1, BuildingBlock: BETDIP_clean_linker_0, # of connection points: 3
#     Node 92, Type 1, BuildingBlock: BETDIP_clean_linker_0, # of connection points: 3
#     Node 93, Type 1, BuildingBlock: BETDIP_clean_linker_0, # of connection points: 3
#     Node 94, Type 1, BuildingBlock: BETDIP_clean_linker_0, # of connection points: 3
#     Node 95, Type 1, BuildingBlock: BETDIP_clean_linker_0, # of connection points: 3
#     Edge 96, Type (0, 1), BuildingBlock: OJICUG_clean_linker_0, # of connection points: 2
#     Edge 97, Type (0, 1), BuildingBlock: OJICUG_clean_linker_0, # of connection points: 2
#     Edge 98, Type (0, 1), BuildingBlock: OJICUG_clean_linker_0, # of connection points: 2
#     Edge 99, Type (0, 1), BuildingBlock: OJICUG_clean_linker_0, # of connection points: 2
#     Edge 100, Type (0, 1), BuildingBlock: OJICUG_clean_linker_0, # of connection points: 2
#     Edge 101, Type (0, 1), BuildingBlock: OJICUG_clean_linker_0, # of connection points: 2
#     Edge 102, Type (0, 1), BuildingBlock: OJICUG_clean_linker_0, # of connection points: 2
#     Edge 103, Type (0, 1), BuildingBlock: OJICUG_clean_linker_0, # of connection points: 2
#     Edge 104, Type (0, 1), BuildingBlock: OJICUG_clean_linker_0, # of connection points: 2
#     Edge 105, Type (0, 1), BuildingBlock: OJICUG_clean_linker_0, # of connection points: 2
#     Edge 106, Type (0, 1), BuildingBlock: OJICUG_clean_linker_0, # of connection points: 2
#     Edge 107, Type (0, 1), BuildingBlock: OJICUG_clean_linker_0, # of connection points: 2
#     Edge 108, Type (0, 1), BuildingBlock: OJICUG_clean_linker_0, # of connection points: 2
#     Edge 109, Type (0, 1), BuildingBlock: OJICUG_clean_linker_0, # of connection points: 2
#     Edge 110, Type (0, 1), BuildingBlock: OJICUG_clean_linker_0, # of connection points: 2
#     Edge 111, Type (0, 1), BuildingBlock: OJICUG_clean_linker_0, # of connection points: 2
#     Edge 112, Type (0, 1), BuildingBlock: OJICUG_clean_linker_0, # of connection points: 2
#     Edge 113, Type (0, 1), BuildingBlock: OJICUG_clean_linker_0, # of connection points: 2
#     Edge 114, Type (0, 1), BuildingBlock: OJICUG_clean_linker_0, # of connection points: 2
#     Edge 115, Type (0, 1), BuildingBlock: OJICUG_clean_linker_0, # of connection points: 2
#     Edge 116, Type (0, 1), BuildingBlock: OJICUG_clean_linker_0, # of connection points: 2
#     Edge 117, Type (0, 1), BuildingBlock: OJICUG_clean_linker_0, # of connection points: 2
#     Edge 118, Type (0, 1), BuildingBlock: OJICUG_clean_linker_0, # of connection points: 2
#     Edge 119, Type (0, 1), BuildingBlock: OJICUG_clean_linker_0, # of connection points: 2
#     Edge 120, Type (0, 1), BuildingBlock: OJICUG_clean_linker_0, # of connection points: 2
#     Edge 121, Type (0, 1), BuildingBlock: OJICUG_clean_linker_0, # of connection points: 2
#     Edge 122, Type (0, 1), BuildingBlock: OJICUG_clean_linker_0, # of connection points: 2
#     Edge 123, Type (0, 1), BuildingBlock: OJICUG_clean_linker_0, # of connection points: 2
#     Edge 124, Type (0, 1), BuildingBlock: OJICUG_clean_linker_0, # of connection points: 2
#     Edge 125, Type (0, 1), BuildingBlock: OJICUG_clean_linker_0, # of connection points: 2
#     Edge 126, Type (0, 1), BuildingBlock: OJICUG_clean_linker_0, # of connection points: 2
#     Edge 127, Type (0, 1), BuildingBlock: OJICUG_clean_linker_0, # of connection points: 2
#     Edge 128, Type (0, 1), BuildingBlock: OJICUG_clean_linker_0, # of connection points: 2
#     Edge 129, Type (0, 1), BuildingBlock: OJICUG_clean_linker_0, # of connection points: 2
#     Edge 130, Type (0, 1), BuildingBlock: OJICUG_clean_linker_0, # of connection points: 2
#     Edge 131, Type (0, 1), BuildingBlock: OJICUG_clean_linker_0, # of connection points: 2
#     Edge 132, Type (0, 1), BuildingBlock: OJICUG_clean_linker_0, # of connection points: 2
#     Edge 133, Type (0, 1), BuildingBlock: OJICUG_clean_linker_0, # of connection points: 2
#     Edge 134, Type (0, 1), BuildingBlock: OJICUG_clean_linker_0, # of connection points: 2
#     Edge 135, Type (0, 1), BuildingBlock: OJICUG_clean_linker_0, # of connection points: 2
#     Edge 136, Type (0, 1), BuildingBlock: OJICUG_clean_linker_0, # of connection points: 2
#     Edge 137, Type (0, 1), BuildingBlock: OJICUG_clean_linker_0, # of connection points: 2
#     Edge 138, Type (0, 1), BuildingBlock: OJICUG_clean_linker_0, # of connection points: 2
#     Edge 139, Type (0, 1), BuildingBlock: OJICUG_clean_linker_0, # of connection points: 2
#     Edge 140, Type (0, 1), BuildingBlock: OJICUG_clean_linker_0, # of connection points: 2
#     Edge 141, Type (0, 1), BuildingBlock: OJICUG_clean_linker_0, # of connection points: 2
#     Edge 142, Type (0, 1), BuildingBlock: OJICUG_clean_linker_0, # of connection points: 2
#     Edge 143, Type (0, 1), BuildingBlock: OJICUG_clean_linker_0, # of connection points: 2
#     Edge 144, Type (0, 1), BuildingBlock: OJICUG_clean_linker_0, # of connection points: 2
#     Edge 145, Type (0, 1), BuildingBlock: OJICUG_clean_linker_0, # of connection points: 2
#     Edge 146, Type (0, 1), BuildingBlock: OJICUG_clean_linker_0, # of connection points: 2
#     Edge 147, Type (0, 1), BuildingBlock: OJICUG_clean_linker_0, # of connection points: 2
#     Edge 148, Type (0, 1), BuildingBlock: OJICUG_clean_linker_0, # of connection points: 2
#     Edge 149, Type (0, 1), BuildingBlock: OJICUG_clean_linker_0, # of connection points: 2
#     Edge 150, Type (0, 1), BuildingBlock: OJICUG_clean_linker_0, # of connection points: 2
#     Edge 151, Type (0, 1), BuildingBlock: OJICUG_clean_linker_0, # of connection points: 2
#     Edge 152, Type (0, 1), BuildingBlock: OJICUG_clean_linker_0, # of connection points: 2
#     Edge 153, Type (0, 1), BuildingBlock: OJICUG_clean_linker_0, # of connection points: 2
#     Edge 154, Type (0, 1), BuildingBlock: OJICUG_clean_linker_0, # of connection points: 2
#     Edge 155, Type (0, 1), BuildingBlock: OJICUG_clean_linker_0, # of connection points: 2
#     Edge 156, Type (0, 1), BuildingBlock: OJICUG_clean_linker_0, # of connection points: 2
#     Edge 157, Type (0, 1), BuildingBlock: OJICUG_clean_linker_0, # of connection points: 2
#     Edge 158, Type (0, 1), BuildingBlock: OJICUG_clean_linker_0, # of connection points: 2
#     Edge 159, Type (0, 1), BuildingBlock: OJICUG_clean_linker_0, # of connection points: 2
#     Edge 160, Type (0, 1), BuildingBlock: OJICUG_clean_linker_0, # of connection points: 2
#     Edge 161, Type (0, 1), BuildingBlock: OJICUG_clean_linker_0, # of connection points: 2
#     Edge 162, Type (0, 1), BuildingBlock: OJICUG_clean_linker_0, # of connection points: 2
#     Edge 163, Type (0, 1), BuildingBlock: OJICUG_clean_linker_0, # of connection points: 2
#     Edge 164, Type (0, 1), BuildingBlock: OJICUG_clean_linker_0, # of connection points: 2
#     Edge 165, Type (0, 1), BuildingBlock: OJICUG_clean_linker_0, # of connection points: 2
#     Edge 166, Type (0, 1), BuildingBlock: OJICUG_clean_linker_0, # of connection points: 2
#     Edge 167, Type (0, 1), BuildingBlock: OJICUG_clean_linker_0, # of connection points: 2
#     Edge 168, Type (0, 1), BuildingBlock: OJICUG_clean_linker_0, # of connection points: 2
#     Edge 169, Type (0, 1), BuildingBlock: OJICUG_clean_linker_0, # of connection points: 2
#     Edge 170, Type (0, 1), BuildingBlock: OJICUG_clean_linker_0, # of connection points: 2
#     Edge 171, Type (0, 1), BuildingBlock: OJICUG_clean_linker_0, # of connection points: 2
#     Edge 172, Type (0, 1), BuildingBlock: OJICUG_clean_linker_0, # of connection points: 2
#     Edge 173, Type (0, 1), BuildingBlock: OJICUG_clean_linker_0, # of connection points: 2
#     Edge 174, Type (0, 1), BuildingBlock: OJICUG_clean_linker_0, # of connection points: 2
#     Edge 175, Type (0, 1), BuildingBlock: OJICUG_clean_linker_0, # of connection points: 2
#     Edge 176, Type (0, 1), BuildingBlock: OJICUG_clean_linker_0, # of connection points: 2
#     Edge 177, Type (0, 1), BuildingBlock: OJICUG_clean_linker_0, # of connection points: 2
#     Edge 178, Type (0, 1), BuildingBlock: OJICUG_clean_linker_0, # of connection points: 2
#     Edge 179, Type (0, 1), BuildingBlock: OJICUG_clean_linker_0, # of connection points: 2
#     Edge 180, Type (0, 1), BuildingBlock: OJICUG_clean_linker_0, # of connection points: 2
#     Edge 181, Type (0, 1), BuildingBlock: OJICUG_clean_linker_0, # of connection points: 2
#     Edge 182, Type (0, 1), BuildingBlock: OJICUG_clean_linker_0, # of connection points: 2
#     Edge 183, Type (0, 1), BuildingBlock: OJICUG_clean_linker_0, # of connection points: 2
#     Edge 184, Type (0, 1), BuildingBlock: OJICUG_clean_linker_0, # of connection points: 2
#     Edge 185, Type (0, 1), BuildingBlock: OJICUG_clean_linker_0, # of connection points: 2
#     Edge 186, Type (0, 1), BuildingBlock: OJICUG_clean_linker_0, # of connection points: 2
#     Edge 187, Type (0, 1), BuildingBlock: OJICUG_clean_linker_0, # of connection points: 2
#     Edge 188, Type (0, 1), BuildingBlock: OJICUG_clean_linker_0, # of connection points: 2
#     Edge 189, Type (0, 1), BuildingBlock: OJICUG_clean_linker_0, # of connection points: 2
#     Edge 190, Type (0, 1), BuildingBlock: OJICUG_clean_linker_0, # of connection points: 2
#     Edge 191, Type (0, 1), BuildingBlock: OJICUG_clean_linker_0, # of connection points: 2
#     Edge 192, Type (0, 1), BuildingBlock: OJICUG_clean_linker_0, # of connection points: 2
#     Edge 193, Type (0, 1), BuildingBlock: OJICUG_clean_linker_0, # of connection points: 2
#     Edge 194, Type (0, 1), BuildingBlock: OJICUG_clean_linker_0, # of connection points: 2
#     Edge 195, Type (0, 1), BuildingBlock: OJICUG_clean_linker_0, # of connection points: 2
#     Edge 196, Type (0, 1), BuildingBlock: OJICUG_clean_linker_0, # of connection points: 2
#     Edge 197, Type (0, 1), BuildingBlock: OJICUG_clean_linker_0, # of connection points: 2
#     Edge 198, Type (0, 1), BuildingBlock: OJICUG_clean_linker_0, # of connection points: 2
#     Edge 199, Type (0, 1), BuildingBlock: OJICUG_clean_linker_0, # of connection points: 2
#     Edge 200, Type (0, 1), BuildingBlock: OJICUG_clean_linker_0, # of connection points: 2
#     Edge 201, Type (0, 1), BuildingBlock: OJICUG_clean_linker_0, # of connection points: 2
#     Edge 202, Type (0, 1), BuildingBlock: OJICUG_clean_linker_0, # of connection points: 2
#     Edge 203, Type (0, 1), BuildingBlock: OJICUG_clean_linker_0, # of connection points: 2
#     Edge 204, Type (0, 1), BuildingBlock: OJICUG_clean_linker_0, # of connection points: 2
#     Edge 205, Type (0, 1), BuildingBlock: OJICUG_clean_linker_0, # of connection points: 2
#     Edge 206, Type (0, 1), BuildingBlock: OJICUG_clean_linker_0, # of connection points: 2
#     Edge 207, Type (0, 1), BuildingBlock: OJICUG_clean_linker_0, # of connection points: 2
#     Edge 208, Type (0, 1), BuildingBlock: OJICUG_clean_linker_0, # of connection points: 2
#     Edge 209, Type (0, 1), BuildingBlock: OJICUG_clean_linker_0, # of connection points: 2
#     Edge 210, Type (0, 1), BuildingBlock: OJICUG_clean_linker_0, # of connection points: 2
#     Edge 211, Type (0, 1), BuildingBlock: OJICUG_clean_linker_0, # of connection points: 2
#     Edge 212, Type (0, 1), BuildingBlock: OJICUG_clean_linker_0, # of connection points: 2
#     Edge 213, Type (0, 1), BuildingBlock: OJICUG_clean_linker_0, # of connection points: 2
#     Edge 214, Type (0, 1), BuildingBlock: OJICUG_clean_linker_0, # of connection points: 2
#     Edge 215, Type (0, 1), BuildingBlock: OJICUG_clean_linker_0, # of connection points: 2
#     Edge 216, Type (0, 1), BuildingBlock: OJICUG_clean_linker_0, # of connection points: 2
#     Edge 217, Type (0, 1), BuildingBlock: OJICUG_clean_linker_0, # of connection points: 2
#     Edge 218, Type (0, 1), BuildingBlock: OJICUG_clean_linker_0, # of connection points: 2
#     Edge 219, Type (0, 1), BuildingBlock: OJICUG_clean_linker_0, # of connection points: 2
#     Edge 220, Type (0, 1), BuildingBlock: OJICUG_clean_linker_0, # of connection points: 2
#     Edge 221, Type (0, 1), BuildingBlock: OJICUG_clean_linker_0, # of connection points: 2
#     Edge 222, Type (0, 1), BuildingBlock: OJICUG_clean_linker_0, # of connection points: 2
#     Edge 223, Type (0, 1), BuildingBlock: OJICUG_clean_linker_0, # of connection points: 2
#     Edge 224, Type (0, 1), BuildingBlock: OJICUG_clean_linker_0, # of connection points: 2
#     Edge 225, Type (0, 1), BuildingBlock: OJICUG_clean_linker_0, # of connection points: 2
#     Edge 226, Type (0, 1), BuildingBlock: OJICUG_clean_linker_0, # of connection points: 2
#     Edge 227, Type (0, 1), BuildingBlock: OJICUG_clean_linker_0, # of connection points: 2
#     Edge 228, Type (0, 1), BuildingBlock: OJICUG_clean_linker_0, # of connection points: 2
#     Edge 229, Type (0, 1), BuildingBlock: OJICUG_clean_linker_0, # of connection points: 2
#     Edge 230, Type (0, 1), BuildingBlock: OJICUG_clean_linker_0, # of connection points: 2
#     Edge 231, Type (0, 1), BuildingBlock: OJICUG_clean_linker_0, # of connection points: 2
#     Edge 232, Type (0, 1), BuildingBlock: OJICUG_clean_linker_0, # of connection points: 2
#     Edge 233, Type (0, 1), BuildingBlock: OJICUG_clean_linker_0, # of connection points: 2
#     Edge 234, Type (0, 1), BuildingBlock: OJICUG_clean_linker_0, # of connection points: 2
#     Edge 235, Type (0, 1), BuildingBlock: OJICUG_clean_linker_0, # of connection points: 2
#     Edge 236, Type (0, 1), BuildingBlock: OJICUG_clean_linker_0, # of connection points: 2
#     Edge 237, Type (0, 1), BuildingBlock: OJICUG_clean_linker_0, # of connection points: 2
#     Edge 238, Type (0, 1), BuildingBlock: OJICUG_clean_linker_0, # of connection points: 2
#     Edge 239, Type (0, 1), BuildingBlock: OJICUG_clean_linker_0, # of connection points: 2
# Relax obj value: 0.044
# Max RMSD: 0.114
# Mean RMSD: 0.056
data_MOF--net-bpr--node1-WUSLED_clean_sbu_0--node2-BETDIP_clean_linker_0--edge1-OJICUG_clean_linker_0
_symmetry_space_group_name_H-M    P1
_symmetry_Int_Tables_number       1
_symmetry_cell_setting            triclinic
loop_
_symmetry_equiv_pos_as_xyz
'x, y, z'
_cell_length_a     81.496985
_cell_length_b     84.214243
_cell_length_c     86.602561
_cell_angle_alpha  95.819582
_cell_angle_beta   93.373928
_cell_angle_gamma 97.903014
loop_
_atom_site_label
_atom_site_type_symbol
_atom_site_fract_x
_atom_site_fract_y
_atom_site_fract_z
_atom_type_partial_charge
C0 C 0.95883 0.38286 0.25811 0.0
C1 C 0.96327 0.38671 0.2741 0.0
C2 C 0.93531 0.3928 0.27866 0.0
C3 C 0.95173 0.39175 0.28421 0.0
C4 C 0.93092 0.38876 0.26261 0.0
C5 C 0.94256 0.38389 0.25248 0.0
U6 U 0.99843 0.36503 0.25056 0.0
O7 O 0.00545 0.34879 0.23113 0.0
O8 O 0.01975 0.37294 0.2374 0.0
C9 C 0.01801 0.35933 0.22816 0.0
C10 C 0.97108 0.37803 0.24722 0.0
C11 C 0.0218 0.36024 0.21177 0.0
C12 C 0.02341 0.37411 0.18846 0.0
C13 C 0.01745 0.37251 0.2032 0.0
C14 C 0.03778 0.35102 0.19058 0.0
C15 C 0.034 0.3636 0.18208 0.0
C16 C 0.03171 0.34937 0.20519 0.0
C17 C 0.01956 0.35184 0.28773 0.0
C18 C 0.04679 0.34342 0.29114 0.0
C19 C 0.03027 0.3471 0.31327 0.0
C20 C 0.01763 0.3512 0.3036 0.0
C21 C 0.04512 0.34354 0.30724 0.0
C22 C 0.03407 0.34765 0.28141 0.0
C23 C 0.00662 0.35804 0.27859 0.0
O24 O 0.98599 0.38651 0.24948 0.0
O25 O 0.97143 0.36244 0.24442 0.0
O26 O 0.99737 0.34775 0.26809 0.0
O27 O 0.01085 0.37228 0.27389 0.0
H28 H 0.97575 0.386 0.27877 0.0
H29 H 0.95583 0.39504 0.29637 0.0
H30 H 0.91842 0.38913 0.25785 0.0
H31 H 0.93884 0.3809 0.2402 0.0
H32 H 0.01994 0.38377 0.18218 0.0
H33 H 0.00984 0.38107 0.20804 0.0
H34 H 0.04604 0.34283 0.18629 0.0
H35 H 0.03536 0.33991 0.21168 0.0
H36 H 0.05818 0.34082 0.28624 0.0
H37 H 0.02861 0.34714 0.3256 0.0
H38 H 0.0065 0.35439 0.30864 0.0
H39 H 0.03574 0.34812 0.26914 0.0
C40 C 0.94276 0.8057 0.56012 0.0
C41 C 0.94111 0.80935 0.57609 0.0
C42 C 0.93552 0.78055 0.57929 0.0
C43 C 0.93767 0.79693 0.58559 0.0
C44 C 0.93735 0.77712 0.56325 0.0
C45 C 0.941 0.78953 0.55385 0.0
U46 U 0.94562 0.84986 0.5525 0.0
O47 O 0.9623 0.86488 0.53871 0.0
O48 O 0.93525 0.86082 0.53284 0.0
C49 C 0.94986 0.86788 0.5296 0.0
C50 C 0.94561 0.8185 0.5497 0.0
C51 C 0.95257 0.87028 0.51322 0.0
C52 C 0.944 0.86535 0.48549 0.0
C53 C 0.94344 0.86056 0.50056 0.0
C54 C 0.96321 0.88919 0.49551 0.0
C55 C 0.95348 0.88001 0.48291 0.0
C56 C 0.96277 0.88436 0.51044 0.0
C57 C 0.93838 0.88039 0.58691 0.0
C58 C 0.92442 0.90417 0.58797 0.0
C59 C 0.94165 0.89933 0.61029 0.0
C60 C 0.94539 0.88532 0.60208 0.0
C61 C 0.93074 0.90863 0.60348 0.0
C62 C 0.9283 0.89019 0.57969 0.0
C63 C 0.94031 0.86422 0.57967 0.0
O64 O 0.93252 0.82525 0.54601 0.0
O65 O 0.9592 0.829 0.55301 0.0
O66 O 0.95523 0.86215 0.57564 0.0
O67 O 0.92834 0.85713 0.56942 0.0
H68 H 0.94239 0.82179 0.58119 0.0
H69 H 0.93678 0.80025 0.59788 0.0
H70 H 0.93553 0.76483 0.55774 0.0
H71 H 0.94215 0.78647 0.54154 0.0
H72 H 0.93631 0.85805 0.47603 0.0
H73 H 0.93535 0.84971 0.50242 0.0
H74 H 0.97079 0.90044 0.49391 0.0
H75 H 0.96979 0.89213 0.52003 0.0
H76 H 0.91608 0.91121 0.58243 0.0
H77 H 0.94655 0.90236 0.6223 0.0
H78 H 0.95316 0.87791 0.60785 0.0
H79 H 0.92285 0.88671 0.56791 0.0
C80 C 0.47262 0.62857 0.71541 0.0
C81 C 0.45727 0.63389 0.71783 0.0
C82 C 0.45139 0.63335 0.68977 0.0
C83 C 0.44674 0.63627 0.70511 0.0
C84 C 0.46706 0.62861 0.68755 0.0
C85 C 0.47752 0.62621 0.70023 0.0
U86 U 0.48309 0.62787 0.75887 0.0
O87 O 0.49072 0.60856 0.77172 0.0
O88 O 0.50705 0.63179 0.77291 0.0
C89 C 0.50508 0.61705 0.77699 0.0
C90 C 0.48328 0.6246 0.72841 0.0
C91 C 0.51989 0.60862 0.77754 0.0
C92 C 0.53219 0.58374 0.77619 0.0
C93 C 0.5189 0.59204 0.77265 0.0
C94 C 0.5479 0.60856 0.78893 0.0
C95 C 0.54672 0.59184 0.78469 0.0
C96 C 0.53466 0.61681 0.78541 0.0
C97 C 0.45327 0.64659 0.78637 0.0
C98 C 0.44716 0.64104 0.81258 0.0
C99 C 0.43499 0.66199 0.80073 0.0
C100 C 0.44333 0.65889 0.78741 0.0
C101 C 0.43638 0.65277 0.81326 0.0
C102 C 0.45555 0.63795 0.79918 0.0
C103 C 0.4596 0.64215 0.77125 0.0
O104 O 0.4918 0.63691 0.73732 0.0
O105 O 0.47639 0.61326 0.73633 0.0
O106 O 0.45781 0.62665 0.76649 0.0
O107 O 0.47398 0.65003 0.76842 0.0
H108 H 0.45326 0.63579 0.7295 0.0
H109 H 0.43471 0.63976 0.70729 0.0
H110 H 0.47119 0.6265 0.67595 0.0
H111 H 0.48934 0.62217 0.69814 0.0
H112 H 0.53092 0.5709 0.77264 0.0
H113 H 0.50765 0.58532 0.76666 0.0
H114 H 0.5587 0.61518 0.79576 0.0
H115 H 0.53567 0.62951 0.78958 0.0
H116 H 0.44841 0.63368 0.82201 0.0
H117 H 0.427 0.67127 0.80101 0.0
H118 H 0.4415 0.6657 0.77764 0.0
H119 H 0.46324 0.62841 0.79859 0.0
C120 C 0.61235 0.21999 0.06629 0.0
C121 C 0.61196 0.21865 0.08231 0.0
C122 C 0.61416 0.24796 0.08782 0.0
C123 C 0.61286 0.23249 0.09296 0.0
C124 C 0.61491 0.24916 0.07177 0.0
C125 C 0.61404 0.23533 0.06116 0.0
U126 U 0.61357 0.17506 0.05574 0.0
O127 O 0.59713 0.15686 0.03976 0.0
O128 O 0.62374 0.16197 0.03603 0.0
C129 C 0.60926 0.15349 0.0312 0.0
C130 C 0.61069 0.20561 0.05475 0.0
C131 C 0.60546 0.14985 0.01428 0.0
C132 C 0.59401 0.15533 0.98908 0.0
C133 C 0.59783 0.15999 0.0051 0.0
C134 C 0.60553 0.13059 0.9915 0.0
C135 C 0.59766 0.14045 0.98216 0.0
C136 C 0.60933 0.13523 0.00734 0.0
C137 C 0.62489 0.15046 0.08879 0.0
C138 C 0.61891 0.12152 0.08971 0.0
C139 C 0.63891 0.13795 0.10871 0.0
C140 C 0.63637 0.15163 0.10164 0.0
C141 C 0.63003 0.12277 0.10299 0.0
C142 C 0.61639 0.13529 0.08261 0.0
C143 C 0.62164 0.16541 0.08261 0.0
O144 O 0.6245 0.1997 0.0521 0.0
O145 O 0.59801 0.19442 0.05596 0.0
O146 O 0.60622 0.16601 0.07759 0.0
O147 O 0.63268 0.17151 0.07357 0.0
H148 H 0.61081 0.2069 0.08655 0.0
H149 H 0.61255 0.23105 0.10523 0.0
H150 H 0.6157 0.26077 0.0673 0.0
H151 H 0.6144 0.23661 0.04885 0.0
H152 H 0.58795 0.16319 0.98219 0.0
H153 H 0.59473 0.17134 0.01029 0.0
H154 H 0.60891 0.11926 0.98656 0.0
H155 H 0.61526 0.12728 0.01423 0.0
H156 H 0.61196 0.10998 0.085 0.0
H157 H 0.64728 0.13944 0.1191 0.0
H158 H 0.64303 0.16325 0.10654 0.0
H159 H 0.60755 0.13414 0.07257 0.0
C160 C 0.9737 0.62276 0.23353 0.0
C161 C 0.97518 0.62014 0.21744 0.0
C162 C 0.94495 0.61536 0.21266 0.0
C163 C 0.96096 0.61641 0.20712 0.0
C164 C 0.94363 0.6182 0.22882 0.0
C165 C 0.95786 0.62183 0.23912 0.0
U166 U 0.02052 0.6336 0.24202 0.0
O167 O 0.0356 0.649 0.26136 0.0
O168 O 0.03795 0.62324 0.257 0.0
C169 C 0.04255 0.6369 0.26593 0.0
C170 C 0.98853 0.62606 0.24462 0.0
C171 C 0.04471 0.63597 0.28283 0.0
C172 C 0.03971 0.62201 0.30576 0.0
C173 C 0.03529 0.62414 0.29028 0.0
C174 C 0.06239 0.644 0.30667 0.0
C175 C 0.05366 0.6316 0.31395 0.0
C176 C 0.05796 0.64613 0.29129 0.0
C177 C 0.04515 0.64004 0.20545 0.0
C178 C 0.07444 0.64965 0.2036 0.0
C179 C 0.05708 0.63769 0.18052 0.0
C180 C 0.04346 0.6354 0.18941 0.0
C181 C 0.07271 0.64472 0.1875 0.0
C182 C 0.06071 0.64721 0.2126 0.0
C183 C 0.03028 0.63702 0.21407 0.0
O184 O 0.9988 0.61533 0.24339 0.0
O185 O 0.99615 0.641 0.24646 0.0
O186 O 0.02668 0.64906 0.22355 0.0
O187 O 0.02787 0.62304 0.21968 0.0
H188 H 0.98733 0.62079 0.21287 0.0
H189 H 0.96256 0.61408 0.19481 0.0
H190 H 0.93159 0.6178 0.23355 0.0
H191 H 0.95649 0.62386 0.2515 0.0
H192 H 0.03278 0.6123 0.31103 0.0
H193 H 0.02499 0.61614 0.28396 0.0
H194 H 0.07303 0.65176 0.31272 0.0
H195 H 0.0654 0.65532 0.28577 0.0
H196 H 0.0864 0.65512 0.20922 0.0
H197 H 0.05533 0.63407 0.1681 0.0
H198 H 0.03153 0.62993 0.18371 0.0
H199 H 0.06222 0.65085 0.22502 0.0
C200 C 0.62479 0.75185 0.45087 0.0
C201 C 0.63487 0.75412 0.43842 0.0
C202 C 0.63141 0.72496 0.43085 0.0
C203 C 0.63818 0.74082 0.42855 0.0
C204 C 0.62122 0.72286 0.44329 0.0
C205 C 0.61799 0.73613 0.45316 0.0
U206 U 0.62128 0.79666 0.46046 0.0
O207 O 0.60289 0.8088 0.47321 0.0
O208 O 0.62932 0.81349 0.48147 0.0
C209 C 0.61419 0.81649 0.48384 0.0
C210 C 0.62129 0.76558 0.46167 0.0
C211 C 0.60961 0.81886 0.50016 0.0
C212 C 0.61594 0.81871 0.52802 0.0
C213 C 0.61852 0.81351 0.51254 0.0
C214 C 0.59504 0.83412 0.51903 0.0
C215 C 0.60449 0.82948 0.5315 0.0
C216 C 0.59758 0.82886 0.5036 0.0
C217 C 0.63156 0.82283 0.42665 0.0
C218 C 0.62451 0.84901 0.42148 0.0
C219 C 0.6438 0.83632 0.40579 0.0
C220 C 0.64222 0.82332 0.41458 0.0
C221 C 0.63473 0.84915 0.40893 0.0
C222 C 0.62288 0.83587 0.43029 0.0
C223 C 0.62915 0.80801 0.43434 0.0
O224 O 0.63407 0.77657 0.46667 0.0
O225 O 0.60787 0.77182 0.45793 0.0
O226 O 0.61386 0.80241 0.43709 0.0
O227 O 0.64021 0.80679 0.44565 0.0
H228 H 0.64024 0.76615 0.43637 0.0
H229 H 0.64619 0.74299 0.41921 0.0
H230 H 0.61545 0.71095 0.44528 0.0
H231 H 0.61009 0.7341 0.46261 0.0
H232 H 0.62326 0.81462 0.53727 0.0
H233 H 0.62792 0.80582 0.51028 0.0
H234 H 0.58629 0.84254 0.52111 0.0
H235 H 0.59069 0.83334 0.49429 0.0
H236 H 0.61732 0.85873 0.42407 0.0
H237 H 0.65193 0.83621 0.39633 0.0
H238 H 0.64903 0.81338 0.41164 0.0
H239 H 0.61457 0.83569 0.43961 0.0
C240 C 0.53576 0.42423 0.71632 0.0
C241 C 0.53258 0.43096 0.70244 0.0
C242 C 0.56224 0.43511 0.69845 0.0
C243 C 0.54568 0.43643 0.69366 0.0
C244 C 0.56529 0.4284 0.7124 0.0
C245 C 0.5522 0.42307 0.72123 0.0
U246 U 0.49124 0.40437 0.72046 0.0
O247 O 0.48159 0.38696 0.73623 0.0
O248 O 0.47296 0.41066 0.73696 0.0
C249 C 0.47213 0.39677 0.74278 0.0
C250 C 0.5222 0.41834 0.72585 0.0
C251 C 0.47021 0.39689 0.75963 0.0
C252 C 0.47862 0.39093 0.78568 0.0
C253 C 0.4822 0.39256 0.77017 0.0
C254 C 0.45133 0.39826 0.78023 0.0
C255 C 0.46295 0.3934 0.79075 0.0
C256 C 0.45492 0.39996 0.7649 0.0
C257 C 0.46277 0.39174 0.68265 0.0
C258 C 0.43424 0.37822 0.68083 0.0
C259 C 0.44587 0.38888 0.65824 0.0
C260 C 0.46093 0.39418 0.66693 0.0
C261 C 0.43228 0.381 0.6651 0.0
C262 C 0.44937 0.38362 0.68958 0.0
C263 C 0.47864 0.39829 0.69149 0.0
O264 O 0.50943 0.42633 0.72611 0.0
O265 O 0.51786 0.40261 0.72457 0.0
O266 O 0.48631 0.38806 0.69864 0.0
O267 O 0.47892 0.41222 0.69988 0.0
H268 H 0.51997 0.43196 0.69837 0.0
H269 H 0.5428 0.4417 0.68311 0.0
H270 H 0.57776 0.42683 0.71634 0.0
H271 H 0.55492 0.41786 0.73186 0.0
H272 H 0.48784 0.38722 0.79353 0.0
H273 H 0.4941 0.39006 0.76635 0.0
H274 H 0.4393 0.40063 0.7838 0.0
H275 H 0.44547 0.40325 0.75698 0.0
H276 H 0.42393 0.37231 0.68646 0.0
H277 H 0.44482 0.39104 0.64612 0.0
H278 H 0.47115 0.40039 0.6614 0.0
H279 H 0.45055 0.38169 0.70176 0.0
C280 C 0.86314 0.19641 0.01981 0.0
C281 C 0.85814 0.17969 0.01901 0.0
C282 C 0.87201 0.1791 0.04474 0.0
C283 C 0.86239 0.17116 0.03138 0.0
C284 C 0.87696 0.19587 0.04541 0.0
C285 C 0.87253 0.20441 0.03311 0.0
U286 U 0.85387 0.19771 0.97652 0.0
O287 O 0.83612 0.20963 0.96305 0.0
O288 O 0.86308 0.21525 0.96078 0.0
C289 C 0.84805 0.21763 0.95613 0.0
C290 C 0.85917 0.20555 0.0067 0.0
C291 C 0.84581 0.23339 0.95093 0.0
C292 C 0.85388 0.26239 0.95115 0.0
C293 C 0.85421 0.24815 0.95833 0.0
C294 C 0.83651 0.24721 0.92947 0.0
C295 C 0.84543 0.26189 0.93642 0.0
C296 C 0.83662 0.23317 0.9367 0.0
C297 C 0.85391 0.15723 0.95115 0.0
C298 C 0.84623 0.1513 0.9234 0.0
C299 C 0.85877 0.13199 0.93743 0.0
C300 C 0.85968 0.14236 0.95113 0.0
C301 C 0.85194 0.13625 0.9234 0.0
C302 C 0.84723 0.16176 0.93721 0.0
C303 C 0.85521 0.16764 0.96594 0.0
O304 O 0.87088 0.20769 0.99698 0.0
O305 O 0.84422 0.20154 0.99962 0.0
O306 O 0.84151 0.17279 0.97028 0.0
O307 O 0.86835 0.17875 0.96835 0.0
H308 H 0.85097 0.1732 0.00881 0.0
H309 H 0.85802 0.15835 0.03044 0.0
H310 H 0.8846 0.20244 0.05528 0.0
H311 H 0.87664 0.21727 0.0339 0.0
H312 H 0.86097 0.27356 0.95666 0.0
H313 H 0.86151 0.24856 0.96926 0.0
H314 H 0.82994 0.2465 0.91812 0.0
H315 H 0.8302 0.22189 0.93072 0.0
H316 H 0.84076 0.15488 0.91283 0.0
H317 H 0.86359 0.12067 0.93783 0.0
H318 H 0.86497 0.13874 0.96178 0.0
H319 H 0.84274 0.17328 0.93703 0.0
C320 C 0.23395 0.99741 0.35551 0.0
C321 C 0.23802 0.01415 0.35548 0.0
C322 C 0.20889 0.01659 0.3494 0.0
C323 C 0.22565 0.02363 0.35243 0.0
C324 C 0.20497 0.99974 0.34908 0.0
C325 C 0.21739 0.99025 0.35211 0.0
U326 U 0.27929 0.99443 0.36388 0.0
O327 O 0.29264 0.98332 0.3819 0.0
O328 O 0.29486 0.97592 0.35707 0.0
C329 C 0.29908 0.97392 0.37157 0.0
C330 C 0.24687 0.98748 0.3594 0.0
C331 C 0.30076 0.95743 0.37522 0.0
C332 C 0.29681 0.92833 0.36845 0.0
C333 C 0.2927 0.94356 0.36598 0.0
C334 C 0.31664 0.94062 0.38965 0.0
C335 C 0.3091 0.92671 0.38012 0.0
C336 C 0.31248 0.95576 0.38723 0.0
C337 C 0.30803 0.03487 0.36175 0.0
C338 C 0.33604 0.04413 0.37329 0.0
C339 C 0.32284 0.06031 0.35603 0.0
C340 C 0.30878 0.04866 0.35395 0.0
C341 C 0.33655 0.05836 0.36593 0.0
C342 C 0.32184 0.03246 0.37124 0.0
C343 C 0.29216 0.0241 0.36064 0.0
O344 O 0.25694 0.98476 0.34843 0.0
O345 O 0.25469 0.9915 0.37326 0.0
O346 O 0.28686 0.01959 0.37379 0.0
O347 O 0.28969 0.0125 0.34905 0.0
H348 H 0.25077 0.01991 0.35797 0.0
H349 H 0.22924 0.0365 0.35248 0.0
H350 H 0.19223 0.9939 0.34694 0.0
H351 H 0.21402 0.97735 0.35205 0.0
H352 H 0.29061 0.91785 0.361 0.0
H353 H 0.28364 0.94453 0.35659 0.0
H354 H 0.32636 0.93996 0.39854 0.0
H355 H 0.31902 0.96632 0.39435 0.0
H356 H 0.34646 0.04216 0.38085 0.0
H357 H 0.3226 0.0712 0.3504 0.0
H358 H 0.29818 0.05073 0.34665 0.0
H359 H 0.32148 0.02181 0.37734 0.0
C360 C 0.17798 0.95906 0.64845 0.0
C361 C 0.16179 0.9553 0.64128 0.0
C362 C 0.15973 0.92806 0.64908 0.0
C363 C 0.15275 0.9399 0.64155 0.0
C364 C 0.17593 0.93198 0.65624 0.0
C365 C 0.18493 0.94729 0.65591 0.0
U366 U 0.18318 0.00436 0.64345 0.0
O367 O 0.19948 0.02476 0.65701 0.0
O368 O 0.20224 0.01908 0.63203 0.0
C369 C 0.2078 0.02831 0.64495 0.0
C370 C 0.18804 0.97499 0.64823 0.0
C371 C 0.22595 0.03305 0.64767 0.0
C372 C 0.25433 0.02967 0.6423 0.0
C373 C 0.23736 0.02351 0.64149 0.0
C374 C 0.2487 0.05464 0.65599 0.0
C375 C 0.26016 0.04548 0.64926 0.0
C376 C 0.23183 0.04848 0.65521 0.0
C377 C 0.14455 0.02389 0.63331 0.0
C378 C 0.14281 0.05259 0.63546 0.0
C379 C 0.12054 0.03348 0.62159 0.0
C380 C 0.12915 0.02082 0.62472 0.0
C381 C 0.1272 0.04951 0.62699 0.0
C382 C 0.15146 0.03987 0.63857 0.0
C383 C 0.15288 0.01015 0.63685 0.0
O384 O 0.18895 0.9805 0.63459 0.0
O385 O 0.18608 0.98609 0.65951 0.0
O386 O 0.15948 0.01072 0.65115 0.0
O387 O 0.16237 0.00499 0.62624 0.0
H388 H 0.15615 0.96426 0.63551 0.0
H389 H 0.14022 0.93735 0.63613 0.0
H390 H 0.18175 0.92313 0.662 0.0
H391 H 0.19741 0.94995 0.66147 0.0
H392 H 0.26282 0.0222 0.63716 0.0
H393 H 0.23313 0.01155 0.63561 0.0
H394 H 0.2526 0.06693 0.6612 0.0
H395 H 0.22322 0.0561 0.65992 0.0
H396 H 0.14834 0.06482 0.63966 0.0
H397 H 0.10845 0.03066 0.61527 0.0
H398 H 0.12366 0.00855 0.62059 0.0
H399 H 0.16341 0.04249 0.64515 0.0
C400 C 0.2117 0.03089 0.88022 0.0
C401 C 0.1956 0.03069 0.8853 0.0
C402 C 0.19542 0.05841 0.87925 0.0
C403 C 0.18754 0.0444 0.88487 0.0
C404 C 0.21169 0.05855 0.87459 0.0
C405 C 0.21969 0.04495 0.87505 0.0
U406 U 0.21419 0.9861 0.88447 0.0
O407 O 0.22513 0.96843 0.86928 0.0
O408 O 0.23493 0.97462 0.8937 0.0
C409 C 0.23594 0.96599 0.88035 0.0
C410 C 0.22039 0.01659 0.87963 0.0
C411 C 0.25254 0.96285 0.87595 0.0
C412 C 0.27758 0.9679 0.862 0.0
C413 C 0.26257 0.97257 0.86686 0.0
C414 C 0.27258 0.94399 0.87537 0.0
C415 C 0.28251 0.95333 0.86595 0.0
C416 C 0.25785 0.94872 0.88032 0.0
C417 C 0.17509 0.9605 0.89768 0.0
C418 C 0.16617 0.93152 0.89384 0.0
C419 C 0.15141 0.94865 0.91049 0.0
C420 C 0.16239 0.96211 0.90768 0.0
C421 C 0.15293 0.93319 0.90339 0.0
C422 C 0.17715 0.94507 0.89098 0.0
C423 C 0.18496 0.97529 0.89362 0.0
O424 O 0.22406 0.01135 0.89303 0.0
O425 O 0.21479 0.00492 0.86857 0.0
O426 O 0.18804 0.97566 0.87892 0.0
O427 O 0.19767 0.98172 0.90334 0.0
H428 H 0.1892 0.0199 0.88931 0.0
H429 H 0.17497 0.04386 0.88845 0.0
H430 H 0.21823 0.06918 0.87041 0.0
H431 H 0.23211 0.04536 0.87114 0.0
H432 H 0.28503 0.97533 0.85476 0.0
H433 H 0.25867 0.98353 0.86331 0.0
H434 H 0.27615 0.93286 0.87883 0.0
H435 H 0.25032 0.94105 0.88732 0.0
H436 H 0.16788 0.91978 0.88835 0.0
H437 H 0.14127 0.95052 0.91769 0.0
H438 H 0.16057 0.97393 0.91291 0.0
H439 H 0.18694 0.94355 0.88326 0.0
C440 C 0.26243 0.00947 0.12549 0.0
C441 C 0.26295 0.99286 0.12536 0.0
C442 C 0.23473 0.98868 0.13389 0.0
C443 C 0.24929 0.9826 0.12954 0.0
C444 C 0.23439 0.00539 0.1341 0.0
C445 C 0.24811 0.01564 0.12997 0.0
U446 U 0.30739 0.01626 0.11577 0.0
O447 O 0.32038 0.02963 0.09827 0.0
O448 O 0.32792 0.03581 0.12321 0.0
C449 C 0.33043 0.03901 0.10891 0.0
C450 C 0.27681 0.02042 0.12118 0.0
C451 C 0.33516 0.0561 0.10639 0.0
C452 C 0.3371 0.08484 0.11471 0.0
C453 C 0.32993 0.06886 0.11567 0.0
C454 C 0.35432 0.07555 0.09485 0.0
C455 C 0.34978 0.08838 0.10461 0.0
C456 C 0.34706 0.05965 0.09572 0.0
C457 C 0.32816 0.97736 0.11739 0.0
C458 C 0.35659 0.97319 0.11343 0.0
C459 C 0.33706 0.95183 0.12168 0.0
C460 C 0.32471 0.96167 0.12145 0.0
C461 C 0.35316 0.95751 0.11787 0.0
C462 C 0.34412 0.98314 0.11327 0.0
C463 C 0.31473 0.98723 0.11815 0.0
O464 O 0.28931 0.02396 0.13184 0.0
O465 O 0.2816 0.01707 0.10712 0.0
O466 O 0.3091 0.99177 0.10501 0.0
O467 O 0.31599 0.99846 0.13 0.0
H468 H 0.27395 0.98783 0.12207 0.0
H469 H 0.25025 0.9699 0.12951 0.0
H470 H 0.22342 0.01056 0.13718 0.0
H471 H 0.24748 0.02843 0.1302 0.0
H472 H 0.333 0.09437 0.12221 0.0
H473 H 0.32078 0.06644 0.12402 0.0
H474 H 0.36415 0.07761 0.08709 0.0
H475 H 0.3514 0.04998 0.08856 0.0
H476 H 0.36891 0.9778 0.11038 0.0
H477 H 0.33394 0.93969 0.12478 0.0
H478 H 0.31242 0.95704 0.12458 0.0
H479 H 0.34694 0.99529 0.11011 0.0
C480 C 0.42899 0.28096 0.03954 0.0
C481 C 0.4278 0.28423 0.05563 0.0
C482 C 0.42465 0.25536 0.05854 0.0
C483 C 0.42564 0.27157 0.06502 0.0
C484 C 0.42585 0.25225 0.04238 0.0
C485 C 0.42796 0.2649 0.03302 0.0
U486 U 0.43149 0.3255 0.0334 0.0
O487 O 0.44702 0.34058 0.01886 0.0
O488 O 0.41967 0.33747 0.01508 0.0
C489 C 0.43402 0.34449 0.01118 0.0
C490 C 0.43098 0.29406 0.02934 0.0
C491 C 0.4354 0.3489 0.9952 0.0
C492 C 0.44498 0.34611 0.96902 0.0
C493 C 0.44317 0.34033 0.98365 0.0
C494 C 0.4312 0.36882 0.97751 0.0
C495 C 0.43921 0.36061 0.9659 0.0
C496 C 0.42936 0.36306 0.99192 0.0
C497 C 0.42651 0.35428 0.0704 0.0
C498 C 0.41267 0.37805 0.07454 0.0
C499 C 0.42894 0.36972 0.0958 0.0
C500 C 0.43305 0.35702 0.0859 0.0
C501 C 0.41813 0.37994 0.0904 0.0
C502 C 0.41679 0.36523 0.06457 0.0
C503 C 0.4281 0.33875 0.06156 0.0
O504 O 0.41777 0.3011 0.02694 0.0
O505 O 0.44478 0.30436 0.03199 0.0
O506 O 0.44266 0.33702 0.05637 0.0
O507 O 0.41551 0.3323 0.05171 0.0
H508 H 0.42846 0.29655 0.06091 0.0
H509 H 0.42454 0.27451 0.07735 0.0
H510 H 0.42543 0.24003 0.03695 0.0
H511 H 0.42884 0.26212 0.02063 0.0
H512 H 0.45124 0.33951 0.96035 0.0
H513 H 0.44801 0.32939 0.98598 0.0
H514 H 0.42628 0.3798 0.9755 0.0
H515 H 0.42338 0.36989 1.00067 0.0
H516 H 0.40435 0.38579 0.0701 0.0
H517 H 0.43355 0.37108 0.10793 0.0
H518 H 0.4406 0.34874 0.0906 0.0
H519 H 0.41167 0.36338 0.05259 0.0
C520 C 0.04578 0.91536 0.23206 0.0
C521 C 0.04375 0.91594 0.21592 0.0
C522 C 0.07367 0.92371 0.21503 0.0
C523 C 0.05758 0.92009 0.20748 0.0
C524 C 0.07553 0.92321 0.23122 0.0
C525 C 0.06173 0.91907 0.23962 0.0
U526 U 0.99996 0.89895 0.23554 0.0
O527 O 0.98866 0.88254 0.25152 0.0
O528 O 0.98245 0.90716 0.2519 0.0
C529 C 0.98042 0.89346 0.25808 0.0
C530 C 0.03154 0.91082 0.24123 0.0
C531 C 0.97982 0.89445 0.27512 0.0
C532 C 0.98871 0.90693 0.30141 0.0
C533 C 0.9909 0.90545 0.28539 0.0
C534 C 0.96472 0.88615 0.297 0.0
C535 C 0.97543 0.89742 0.30738 0.0
C536 C 0.96693 0.88469 0.28109 0.0
C537 C 0.97168 0.88641 0.19752 0.0
C538 C 0.94291 0.87348 0.19527 0.0
C539 C 0.9554 0.88342 0.17275 0.0
C540 C 0.97033 0.88858 0.18171 0.0
C541 C 0.94146 0.87595 0.17943 0.0
C542 C 0.95792 0.87874 0.20429 0.0
C543 C 0.98758 0.89249 0.20651 0.0
O544 O 0.01962 0.91983 0.24066 0.0
O545 O 0.02596 0.89531 0.24022 0.0
O546 O 0.99445 0.88208 0.21414 0.0
O547 O 0.98853 0.90676 0.21447 0.0
H548 H 0.03153 0.91305 0.20985 0.0
H549 H 0.05569 0.92008 0.195 0.0
H550 H 0.08766 0.92607 0.23745 0.0
H551 H 0.06352 0.91871 0.25207 0.0
H552 H 0.99727 0.91564 0.30908 0.0
H553 H 1.00097 0.91311 0.281 0.0
H554 H 0.95417 0.87887 0.30106 0.0
H555 H 0.95819 0.87621 0.27334 0.0
H556 H 0.93233 0.8679 0.20077 0.0
H557 H 0.95477 0.88532 0.16055 0.0
H558 H 0.98084 0.89442 0.17628 0.0
H559 H 0.95873 0.87699 0.21652 0.0
C560 C 0.091 0.72181 0.57663 0.0
C561 C 0.09371 0.72093 0.59268 0.0
C562 C 0.09454 0.75018 0.598 0.0
C563 C 0.09545 0.73496 0.60325 0.0
C564 C 0.09181 0.75087 0.58188 0.0
C565 C 0.09009 0.73687 0.57136 0.0
U566 U 0.09109 0.67651 0.56632 0.0
O567 O 0.07548 0.6586 0.54922 0.0
O568 O 0.10252 0.66332 0.54755 0.0
C569 C 0.08829 0.655 0.54173 0.0
C570 C 0.08936 0.70732 0.56515 0.0
C571 C 0.08602 0.65101 0.52468 0.0
C572 C 0.08657 0.65793 0.49803 0.0
C573 C 0.08703 0.66269 0.51414 0.0
C574 C 0.08371 0.62994 0.503 0.0
C575 C 0.08534 0.64149 0.49236 0.0
C576 C 0.08401 0.63465 0.51893 0.0
C577 C 0.09976 0.65296 0.60167 0.0
C578 C 0.09319 0.62486 0.60638 0.0
C579 C 0.11297 0.64334 0.62395 0.0
C580 C 0.11093 0.6557 0.61487 0.0
C581 C 0.1038 0.62793 0.62008 0.0
C582 C 0.09113 0.63736 0.5972 0.0
C583 C 0.09682 0.66705 0.59378 0.0
O584 O 0.10304 0.70093 0.5632 0.0
O585 O 0.07625 0.69646 0.5658 0.0
O586 O 0.08177 0.66722 0.58748 0.0
O587 O 0.10868 0.67284 0.58541 0.0
H588 H 0.09454 0.70942 0.59701 0.0
H589 H 0.09774 0.7339 0.61553 0.0
H590 H 0.09073 0.76223 0.57736 0.0
H591 H 0.088 0.73782 0.55904 0.0
H592 H 0.08793 0.66709 0.49009 0.0
H593 H 0.08863 0.6754 0.51837 0.0
H594 H 0.0826 0.61719 0.499 0.0
H595 H 0.08322 0.62545 0.52685 0.0
H596 H 0.08596 0.61306 0.6032 0.0
H597 H 0.12139 0.64598 0.63434 0.0
H598 H 0.11772 0.66762 0.61847 0.0
H599 H 0.08248 0.63499 0.58697 0.0
C600 C 0.98325 0.63791 0.79563 0.0
C601 C 0.9682 0.64429 0.7948 0.0
C602 C 0.96247 0.63642 0.82052 0.0
C603 C 0.95789 0.64361 0.80723 0.0
C604 C 0.97792 0.63078 0.82147 0.0
C605 C 0.98816 0.6315 0.80915 0.0
U606 U 0.99499 0.64492 0.754 0.0
O607 O 0.01983 0.64931 0.74509 0.0
O608 O 1.00246 0.62756 0.73606 0.0
C609 C 0.01748 0.63558 0.73601 0.0
C610 C 0.99355 0.63652 0.78231 0.0
C611 C 0.03145 0.62609 0.73544 0.0
C612 C 0.0421 0.60039 0.73447 0.0
C613 C 0.02953 0.60971 0.73793 0.0
C614 C 0.05896 0.62387 0.72682 0.0
C615 C 0.0568 0.60729 0.72852 0.0
C616 C 0.04643 0.63313 0.73024 0.0
C617 C 0.96927 0.66836 0.72832 0.0
C618 C 0.97006 0.66755 0.70027 0.0
C619 C 0.95215 0.68402 0.71389 0.0
C620 C 0.95781 0.67928 0.728 0.0
C621 C 0.9579 0.67793 0.69979 0.0
C622 C 0.97567 0.66277 0.71443 0.0
C623 C 0.97334 0.66209 0.74307 0.0
O624 O 0.98644 0.62734 0.76989 0.0
O625 O 1.00249 0.64984 0.77909 0.0
O626 O 0.98751 0.66859 0.75064 0.0
O627 O 0.97046 0.64632 0.74278 0.0
H628 H 0.96422 0.64929 0.78439 0.0
H629 H 0.94603 0.64799 0.80614 0.0
H630 H 0.98192 0.6254 0.83162 0.0
H631 H 0.99973 0.62655 0.81 0.0
H632 H 0.04011 0.58768 0.73601 0.0
H633 H 0.0181 0.60394 0.74194 0.0
H634 H 0.06995 0.62954 0.72199 0.0
H635 H 0.04812 0.64568 0.72806 0.0
H636 H 0.97495 0.66282 0.68967 0.0
H637 H 0.94265 0.69184 0.71399 0.0
H638 H 0.95274 0.68369 0.73864 0.0
H639 H 0.98462 0.65436 0.71448 0.0
C640 C 0.09928 0.23218 0.44623 0.0
C641 C 0.10538 0.22949 0.43146 0.0
C642 C 0.10315 0.25726 0.42666 0.0
C643 C 0.10737 0.24196 0.42177 0.0
C644 C 0.09735 0.25986 0.44157 0.0
C645 C 0.09545 0.24749 0.45121 0.0
U646 U 0.09842 0.18824 0.45426 0.0
O647 O 0.10638 0.17753 0.47511 0.0
O648 O 0.08031 0.17194 0.46547 0.0
C649 C 0.09156 0.1694 0.47611 0.0
C650 C 0.09648 0.21926 0.45657 0.0
C651 C 0.08636 0.1654 0.49152 0.0
C652 C 0.09107 0.1671 0.51977 0.0
C653 C 0.09417 0.17345 0.50563 0.0
C654 C 0.07203 0.14498 0.50588 0.0
C655 C 0.08034 0.15251 0.51997 0.0
C656 C 0.075 0.15136 0.49188 0.0
C657 C 0.11067 0.15961 0.42024 0.0
C658 C 0.10199 0.13118 0.41135 0.0
C659 C 0.12539 0.14614 0.40056 0.0
C660 C 0.12359 0.15987 0.41029 0.0
C661 C 0.11428 0.13185 0.40062 0.0
C662 C 0.10015 0.14506 0.42112 0.0
C663 C 0.10762 0.17512 0.42805 0.0
O664 O 0.08366 0.20807 0.45235 0.0
O665 O 0.10975 0.21338 0.46145 0.0
O666 O 0.11824 0.1817 0.4397 0.0
O667 O 0.09211 0.1767 0.43039 0.0
H668 H 0.10839 0.21772 0.42736 0.0
H669 H 0.11173 0.23951 0.41031 0.0
H670 H 0.09418 0.27152 0.44579 0.0
H671 H 0.09079 0.24984 0.46255 0.0
H672 H 0.09773 0.17314 0.53041 0.0
H673 H 0.10314 0.18421 0.50568 0.0
H674 H 0.06354 0.13385 0.50561 0.0
H675 H 0.06898 0.14481 0.48116 0.0
H676 H 0.09324 0.12029 0.41149 0.0
H677 H 0.135 0.14688 0.39243 0.0
H678 H 0.13181 0.17097 0.40947 0.0
H679 H 0.0901 0.1446 0.42879 0.0
C680 C 0.46177 0.40268 0.23891 0.0
C681 C 0.45972 0.39545 0.22344 0.0
C682 C 0.43945 0.41304 0.21706 0.0
C683 C 0.44864 0.40053 0.21266 0.0
C684 C 0.44197 0.42063 0.23241 0.0
C685 C 0.45299 0.41544 0.24325 0.0
U686 U 0.49897 0.38189 0.24774 0.0
O687 O 0.51943 0.38677 0.26609 0.0
O688 O 0.50325 0.3633 0.26317 0.0
C689 C 0.5161 0.37243 0.27091 0.0
C690 C 0.47295 0.3969 0.25051 0.0
C691 C 0.51888 0.37111 0.2877 0.0
C692 C 0.52071 0.38207 0.31496 0.0
C693 C 0.51557 0.38288 0.29931 0.0
C694 C 0.53213 0.3576 0.30752 0.0
C695 C 0.52946 0.36962 0.31925 0.0
C696 C 0.52683 0.35832 0.29201 0.0
C697 C 0.52074 0.36889 0.21082 0.0
C698 C 0.5483 0.36123 0.20909 0.0
C699 C 0.53034 0.36086 0.18567 0.0
C700 C 0.51796 0.3658 0.19463 0.0
C701 C 0.54576 0.35889 0.19276 0.0
C702 C 0.53584 0.36628 0.2181 0.0
C703 C 0.50809 0.37603 0.21943 0.0
O704 O 0.47214 0.38113 0.24993 0.0
O705 O 0.48828 0.40446 0.25221 0.0
O706 O 0.51331 0.3895 0.22844 0.0
O707 O 0.49724 0.36604 0.22566 0.0
H708 H 0.46656 0.38575 0.21972 0.0
H709 H 0.44727 0.39465 0.20084 0.0
H710 H 0.4351 0.43029 0.23615 0.0
H711 H 0.45451 0.42127 0.25508 0.0
H712 H 0.5181 0.39141 0.32362 0.0
H713 H 0.50946 0.39288 0.29626 0.0
H714 H 0.53905 0.34799 0.31012 0.0
H715 H 0.52964 0.34919 0.28321 0.0
H716 H 0.56013 0.35989 0.21481 0.0
H717 H 0.52801 0.35896 0.17313 0.0
H718 H 0.50635 0.36774 0.18886 0.0
H719 H 0.53817 0.36863 0.23063 0.0
C720 C 0.35921 0.76743 0.95998 0.0
C721 C 0.35445 0.76826 0.94427 0.0
C722 C 0.36114 0.74121 0.93742 0.0
C723 C 0.35534 0.75525 0.93311 0.0
C724 C 0.36537 0.74028 0.95327 0.0
C725 C 0.36443 0.75329 0.96444 0.0
U726 U 0.3579 0.81182 0.96774 0.0
O727 O 0.34751 0.82686 0.986 0.0
O728 O 0.37419 0.83116 0.98239 0.0
C729 C 0.36208 0.83533 0.99058 0.0
C730 C 0.36004 0.7817 0.97147 0.0
C731 C 0.3661 0.8395 0.00741 0.0
C732 C 0.37799 0.83442 0.0326 0.0
C733 C 0.37256 0.82898 0.017 0.0
C734 C 0.37009 0.86059 0.02907 0.0
C735 C 0.37721 0.85045 0.03863 0.0
C736 C 0.36461 0.85517 0.01367 0.0
C737 C 0.35092 0.83161 0.92987 0.0
C738 C 0.35442 0.86019 0.92687 0.0
C739 C 0.34624 0.84038 0.90444 0.0
C740 C 0.34655 0.82803 0.91392 0.0
C741 C 0.3503 0.85657 0.91077 0.0
C742 C 0.3547 0.84774 0.93641 0.0
C743 C 0.35241 0.81815 0.93902 0.0
O744 O 0.37309 0.79261 0.97088 0.0
O745 O 0.34615 0.78791 0.97269 0.0
O746 O 0.34041 0.81447 0.9481 0.0
O747 O 0.3673 0.8177 0.94549 0.0
H748 H 0.35043 0.77912 0.94059 0.0
H749 H 0.35172 0.75629 0.92105 0.0
H750 H 0.37004 0.72975 0.957 0.0
H751 H 0.36825 0.7525 0.97649 0.0
H752 H 0.38338 0.82634 0.03974 0.0
H753 H 0.37382 0.81682 0.01233 0.0
H754 H 0.36903 0.8729 0.03346 0.0
H755 H 0.35963 0.86344 0.00646 0.0
H756 H 0.35747 0.87259 0.93204 0.0
H757 H 0.34328 0.83722 0.89205 0.0
H758 H 0.34373 0.81562 0.90872 0.0
H759 H 0.35812 0.85066 0.94876 0.0
C760 C 0.01367 0.39887 0.783 0.0
C761 C 0.01524 0.39165 0.79683 0.0
C762 C 0.04484 0.4021 0.79993 0.0
C763 C 0.03072 0.39322 0.8052 0.0
C764 C 0.04306 0.40967 0.78633 0.0
C765 C 0.02761 0.40803 0.77793 0.0
U766 U 0.96636 0.38704 0.77733 0.0
O767 O 0.94748 0.39883 0.76547 0.0
O768 O 0.95091 0.37408 0.75702 0.0
C769 C 0.94307 0.38641 0.75488 0.0
C770 C 0.99775 0.39675 0.77352 0.0
C771 C 0.94018 0.39009 0.73875 0.0
C772 C 0.94842 0.39257 0.71241 0.0
C773 C 0.9521 0.38922 0.7277 0.0
C774 C 0.92108 0.39774 0.7192 0.0
C775 C 0.9329 0.39699 0.70811 0.0
C776 C 0.92467 0.39427 0.73433 0.0
C777 C 0.94261 0.37313 0.81202 0.0
C778 C 0.91506 0.37708 0.81953 0.0
C779 C 0.92935 0.35724 0.83099 0.0
C780 C 0.94279 0.36109 0.82207 0.0
C781 C 0.91551 0.36546 0.83008 0.0
C782 C 0.92845 0.38085 0.81054 0.0
C783 C 0.95781 0.37835 0.80435 0.0
O784 O 0.99055 0.38177 0.76986 0.0
O785 O 0.98732 0.40666 0.77778 0.0
O786 O 0.95998 0.39341 0.80119 0.0
O787 O 0.96189 0.36818 0.79317 0.0
H788 H 1.00458 0.38465 0.80102 0.0
H789 H 0.03166 0.38741 0.81576 0.0
H790 H 0.05371 0.41647 0.78193 0.0
H791 H 0.0266 0.4137 0.7673 0.0
H792 H 0.95778 0.39207 0.70406 0.0
H793 H 0.96418 0.38602 0.73089 0.0
H794 H 0.90902 0.40107 0.71616 0.0
H795 H 0.91529 0.3949 0.74264 0.0
H796 H 0.90443 0.38344 0.81842 0.0
H797 H 0.9301 0.34831 0.83908 0.0
H798 H 0.9536 0.35503 0.8234 0.0
H799 H 0.92793 0.39012 0.80278 0.0
C800 C 0.33938 0.2398 0.53235 0.0
C801 C 0.33871 0.23938 0.5485 0.0
C802 C 0.3387 0.2685 0.55212 0.0
C803 C 0.33832 0.25364 0.55832 0.0
C804 C 0.33851 0.26862 0.53587 0.0
C805 C 0.33885 0.25442 0.52612 0.0
U806 U 0.34151 0.19471 0.52454 0.0
O807 O 0.33385 0.17728 0.50372 0.0
O808 O 0.36002 0.18209 0.51292 0.0
C809 C 0.34908 0.17421 0.50209 0.0
C810 C 0.34193 0.22552 0.52194 0.0
C811 C 0.35448 0.17212 0.48617 0.0
C812 C 0.37062 0.18113 0.46504 0.0
C813 C 0.36392 0.18452 0.47941 0.0
C814 C 0.35807 0.1532 0.46402 0.0
C815 C 0.36813 0.16529 0.45746 0.0
C816 C 0.35133 0.1566 0.47819 0.0
C817 C 0.33232 0.16965 0.55892 0.0
C818 C 0.34134 0.14432 0.56431 0.0
C819 C 0.32177 0.15607 0.5804 0.0
C820 C 0.32209 0.16879 0.57129 0.0
C821 C 0.3316 0.14381 0.57722 0.0
C822 C 0.34172 0.15719 0.55522 0.0
C823 C 0.33387 0.18438 0.55111 0.0
O824 O 0.35527 0.21914 0.52562 0.0
O825 O 0.32875 0.21471 0.51783 0.0
O826 O 0.32271 0.18488 0.53966 0.0
O827 O 0.349 0.19045 0.54832 0.0
H828 H 0.33909 0.22817 0.55355 0.0
H829 H 0.33856 0.25316 0.57079 0.0
H830 H 0.33857 0.27982 0.53072 0.0
H831 H 0.33926 0.25496 0.5137 0.0
H832 H 0.37828 0.19067 0.4602 0.0
H833 H 0.36651 0.19661 0.48542 0.0
H834 H 0.35567 0.14096 0.45832 0.0
H835 H 0.3441 0.14688 0.4832 0.0
H836 H 0.34886 0.13496 0.56141 0.0
H837 H 0.31435 0.15629 0.59037 0.0
H838 H 0.31481 0.17835 0.57432 0.0
H839 H 0.34965 0.15764 0.54562 0.0
C840 C 0.46049 0.6128 0.26593 0.0
C841 C 0.46351 0.6135 0.28212 0.0
C842 C 0.43377 0.60668 0.28502 0.0
C843 C 0.45031 0.61042 0.29156 0.0
C844 C 0.43091 0.60595 0.26875 0.0
C845 C 0.44414 0.60895 0.25933 0.0
U846 U 0.50657 0.62428 0.26069 0.0
O847 O 0.52269 0.61455 0.24379 0.0
O848 O 0.51943 0.64015 0.245 0.0
C849 C 0.52623 0.62836 0.23799 0.0
C850 C 0.47424 0.61603 0.25582 0.0
C851 C 0.52713 0.62774 0.22096 0.0
C852 C 0.52194 0.61337 0.19492 0.0
C853 C 0.51838 0.61507 0.2106 0.0
C854 C 0.54244 0.63735 0.19965 0.0
C855 C 0.53441 0.62422 0.18935 0.0
C856 C 0.5388 0.63908 0.21524 0.0
C857 C 0.53501 0.63214 0.2993 0.0
C858 C 0.56503 0.63954 0.30305 0.0
C859 C 0.54874 0.63556 0.32523 0.0
C860 C 0.53432 0.63199 0.31536 0.0
C861 C 0.56429 0.63954 0.31928 0.0
C862 C 0.55045 0.63587 0.29309 0.0
C863 C 0.51928 0.62818 0.28962 0.0
O864 O 0.48159 0.63106 0.25706 0.0
O865 O 0.48479 0.60553 0.25529 0.0
O866 O 0.51691 0.61421 0.28096 0.0
O867 O 0.5141 0.6399 0.28261 0.0
H868 H 0.47608 0.6164 0.28746 0.0
H869 H 0.45312 0.61082 0.30398 0.0
H870 H 0.41841 0.60337 0.26326 0.0
H871 H 0.44157 0.60837 0.24685 0.0
H872 H 0.51527 0.60328 0.18728 0.0
H873 H 0.50928 0.60615 0.21472 0.0
H874 H 0.55226 0.64583 0.19595 0.0
H875 H 0.54579 0.64887 0.22306 0.0
H876 H 0.57679 0.64261 0.2981 0.0
H877 H 0.54768 0.63503 0.33758 0.0
H878 H 0.52252 0.62903 0.32032 0.0
H879 H 0.55119 0.63599 0.28066 0.0
C880 C 0.07878 0.79134 0.0155 0.0
C881 C 0.07769 0.80793 0.01802 0.0
C882 C 0.0766 0.80967 0.99004 0.0
C883 C 0.07651 0.81701 0.00536 0.0
C884 C 0.077 0.79296 0.98763 0.0
C885 C 0.07807 0.7839 1.00022 0.0
U886 U 0.09035 0.79001 0.05833 0.0
O887 O 0.10883 0.77775 0.07006 0.0
O888 O 0.08255 0.7729 0.07518 0.0
C889 C 0.09778 0.76988 0.07805 0.0
C890 C 0.08213 0.78194 0.02855 0.0
C891 C 0.10024 0.75352 0.08154 0.0
C892 C 0.113 0.72905 0.07711 0.0
C893 C 0.10841 0.7432 0.07185 0.0
C894 C 0.10084 0.73521 0.10145 0.0
C895 C 0.10969 0.72516 0.09218 0.0
C896 C 0.09621 0.74918 0.09619 0.0
C897 C 0.09631 0.83218 0.08244 0.0
C898 C 0.11281 0.84176 0.10671 0.0
C899 C 0.09598 0.85934 0.09457 0.0
C900 C 0.09041 0.84703 0.08268 0.0
C901 C 0.10757 0.85699 0.10648 0.0
C902 C 0.10725 0.82941 0.0947 0.0
C903 C 0.09204 0.82065 0.06846 0.0
O904 O 0.09757 0.78455 0.03454 0.0
O905 O 0.07121 0.78134 0.03915 0.0
O906 O 0.07841 0.81028 0.06829 0.0
O907 O 0.10443 0.81436 0.06244 0.0
H908 H 0.07833 0.81393 0.02976 0.0
H909 H 0.07635 0.82988 0.00759 0.0
H910 H 0.07697 0.78694 0.97596 0.0
H911 H 0.07892 0.77115 0.99803 0.0
H912 H 0.11978 0.72157 0.06967 0.0
H913 H 0.11176 0.74635 0.06052 0.0
H914 H 0.09775 0.73244 0.11297 0.0
H915 H 0.09003 0.757 0.10391 0.0
H916 H 0.12172 0.83965 0.11578 0.0
H917 H 0.09149 0.87083 0.09427 0.0
H918 H 0.08192 0.84933 0.07333 0.0
H919 H 0.11192 0.81797 0.09469 0.0
C920 C 0.77208 0.01264 0.63093 0.0
C921 C 0.77324 1.00265 0.64292 0.0
C922 C 0.80219 1.00047 0.6381 0.0
C923 C 0.78812 0.99669 0.64649 0.0
C924 C 0.80066 0.00994 0.62569 0.0
C925 C 0.78589 0.01602 0.62227 0.0
U926 U 0.72503 0.01204 0.62141 0.0
O927 O 0.70822 0.02835 0.6308 0.0
O928 O 0.71175 0.02591 0.60565 0.0
C929 C 0.70407 0.03251 0.61703 0.0
C930 C 0.75717 0.02054 0.62783 0.0
C931 C 0.69915 0.04865 0.61596 0.0
C932 C 0.69942 0.07695 0.62564 0.0
C933 C 0.70659 0.06262 0.62548 0.0
C934 C 0.67776 0.0635 0.60655 0.0
C935 C 0.68462 0.07732 0.6165 0.0
C936 C 0.68497 0.0494 0.60625 0.0
C937 C 0.69681 0.9704 0.6161 0.0
C938 C 0.6699 0.95921 0.62422 0.0
C939 C 0.68103 0.9462 0.60174 0.0
C940 C 0.69507 0.95799 0.60374 0.0
C941 C 0.66845 0.94649 0.61215 0.0
C942 C 0.68392 0.97108 0.62616 0.0
C943 C 0.71283 0.98127 0.61915 0.0
O944 O 0.7502 0.01795 0.61353 0.0
O945 O 0.74631 0.02043 0.63848 0.0
O946 O 0.71516 0.99069 0.6324 0.0
O947 O 0.71861 0.9884 0.60737 0.0
H948 H 0.76279 0.99973 0.6498 0.0
H949 H 0.7887 0.98955 0.65617 0.0
H950 H 0.81091 0.01278 0.61857 0.0
H951 H 0.78535 0.02362 0.61293 0.0
H952 H 0.7049 0.08741 0.63349 0.0
H953 H 0.71748 0.0623 0.63317 0.0
H954 H 0.6664 0.06343 0.59935 0.0
H955 H 0.67894 0.03875 0.59891 0.0
H956 H 0.6603 0.95985 0.6323 0.0
H957 H 0.68036 0.93648 0.59242 0.0
H958 H 0.70488 0.95709 0.59591 0.0
H959 H 0.68483 0.9805 0.63579 0.0
C960 C 0.76924 0.99339 0.35335 0.0
C961 C 0.76763 0.9765 0.3502 0.0
C962 C 0.73782 0.97442 0.35312 0.0
C963 C 0.75196 0.96707 0.34998 0.0
C964 C 0.73954 0.99131 0.35588 0.0
C965 C 0.75507 1.00067 0.35596 0.0
U966 U 0.81727 1.00215 0.35902 0.0
O967 O 0.83459 0.01935 0.34804 0.0
O968 O 0.83278 0.0223 0.37336 0.0
C969 C 0.83925 0.02834 0.36129 0.0
C970 C 0.78542 1.00387 0.35456 0.0
C971 C 0.84056 0.04599 0.36109 0.0
C972 C 0.83414 0.07234 0.37116 0.0
C973 C 0.83102 0.05546 0.37021 0.0
C974 C 0.85594 0.07043 0.35352 0.0
C975 C 0.84678 0.08001 0.36294 0.0
C976 C 0.85285 0.05363 0.35261 0.0
C977 C 0.84256 0.96731 0.3643 0.0
C978 C 0.87184 0.96971 0.37286 0.0
C979 C 0.85621 0.94348 0.36376 0.0
C980 C 0.84203 0.95063 0.36108 0.0
C981 C 0.87129 0.9529 0.36966 0.0
C982 C 0.85756 0.97689 0.37015 0.0
C983 C 0.82712 0.97413 0.36172 0.0
O984 O 0.79349 0.00614 0.36837 0.0
O985 O 0.79509 1.00184 0.3431 0.0
O986 O 0.8249 0.97976 0.34826 0.0
O987 O 0.82278 0.98333 0.37352 0.0
H988 H 0.77847 0.97064 0.3482 0.0
H989 H 0.75098 0.95406 0.34795 0.0
H990 H 0.72886 0.9973 0.35823 0.0
H991 H 0.75606 0.01366 0.35836 0.0
H992 H 0.82678 0.07939 0.3784 0.0
H993 H 0.82143 0.04986 0.37688 0.0
H994 H 0.86595 0.0759 0.34724 0.0
H995 H 0.86048 0.04659 0.34564 0.0
H996 H 0.88333 0.97728 0.37726 0.0
H997 H 0.85528 0.9305 0.36138 0.0
H998 H 0.83054 0.94308 0.35661 0.0
H999 H 0.85818 0.98984 0.37266 0.0
C1000 C 0.79979 0.95203 0.15708 0.0
C1001 C 0.81238 0.95221 0.14664 0.0
C1002 C 0.81553 0.9245 0.15057 0.0
C1003 C 0.82012 0.93852 0.14336 0.0
C1004 C 0.80311 0.9245 0.16118 0.0
C1005 C 0.79532 0.93813 0.16437 0.0
U1006 U 0.79807 0.99735 0.16034 0.0
O1007 O 0.77873 0.01084 0.15208 0.0
O1008 O 0.78635 0.013 0.1771 0.0
C1009 C 0.77653 0.01728 0.16614 0.0
C1010 C 0.79093 0.96601 0.16028 0.0
C1011 C 0.75934 0.01877 0.16965 0.0
C1012 C 0.72964 0.00958 0.16605 0.0
C1013 C 0.74602 0.00654 0.16476 0.0
C1014 C 0.73982 0.03681 0.17766 0.0
C1015 C 0.72633 0.02494 0.17207 0.0
C1016 C 0.75611 0.03371 0.17649 0.0
C1017 C 0.83643 0.02576 0.15182 0.0
C1018 C 0.83634 0.05291 0.14467 0.0
C1019 C 0.86242 0.0433 0.15071 0.0
C1020 C 0.85379 0.02852 0.15355 0.0
C1021 C 0.85383 0.05558 0.14594 0.0
C1022 C 0.8277 0.03813 0.14764 0.0
C1023 C 0.8278 0.00966 0.15371 0.0
O1024 O 0.79635 0.97576 0.17293 0.0
O1025 O 0.78749 0.97364 0.14825 0.0
O1026 O 0.81573 1.00381 0.14307 0.0
O1027 O 0.82409 0.00719 0.16792 0.0
H1028 H 0.81615 0.96289 0.14098 0.0
H1029 H 0.82984 0.93897 0.13533 0.0
H1030 H 0.79923 0.91387 0.16686 0.0
H1031 H 0.78566 0.93777 0.17246 0.0
H1032 H 0.71958 1.00003 0.16192 0.0
H1033 H 0.74826 0.9949 0.15946 0.0
H1034 H 0.73788 0.04882 0.18216 0.0
H1035 H 0.76626 0.04332 0.18024 0.0
H1036 H 0.82932 0.06205 0.14096 0.0
H1037 H 0.87586 0.04506 0.15221 0.0
H1038 H 0.8607 0.01914 0.15688 0.0
H1039 H 0.81425 0.03622 0.14634 0.0
C1040 C 0.69566 0.95058 0.89015 0.0
C1041 C 0.67965 0.94916 0.89555 0.0
C1042 C 0.67786 0.91979 0.89268 0.0
C1043 C 0.67084 0.93387 0.89687 0.0
C1044 C 0.6941 0.92142 0.88778 0.0
C1045 C 0.70287 0.93664 0.88653 0.0
U1046 U 0.69913 0.99614 0.88673 0.0
O1047 O 0.72036 0.01546 0.89263 0.0
O1048 O 0.70975 0.0098 0.86843 0.0
C1049 C 0.72118 0.01871 0.87814 0.0
C1050 C 0.70478 0.96622 0.88723 0.0
C1051 C 0.73779 0.02231 0.87241 0.0
C1052 C 0.76574 0.01657 0.86814 0.0
C1053 C 0.74995 0.01209 0.87343 0.0
C1054 C 0.7571 0.0413 0.8607 0.0
C1055 C 0.76949 0.03128 0.86172 0.0
C1056 C 0.74147 0.03684 0.86595 0.0
C1057 C 0.66141 0.01791 0.89448 0.0
C1058 C 0.66095 0.04675 0.89486 0.0
C1059 C 0.63524 0.02853 0.89521 0.0
C1060 C 0.64411 0.01549 0.89485 0.0
C1061 C 0.64352 0.04431 0.89518 0.0
C1062 C 0.66984 0.03362 0.89446 0.0
C1063 C 0.67015 1.00376 0.89392 0.0
O1064 O 0.69953 0.972 0.8746 0.0
O1065 O 0.70839 0.97726 0.89927 0.0
O1066 O 0.68278 0.00441 0.90425 0.0
O1067 O 0.67303 0.99767 0.87993 0.0
H1068 H 0.67384 0.95982 0.89835 0.0
H1069 H 0.6583 0.93304 0.90054 0.0
H1070 H 0.69997 0.91088 0.88467 0.0
H1071 H 0.7152 0.9375 0.88236 0.0
H1072 H 0.77499 0.00857 0.86911 0.0
H1073 H 0.74731 1.00079 0.87839 0.0
H1074 H 0.7596 0.05289 0.85626 0.0
H1075 H 0.73227 0.04492 0.86517 0.0
H1076 H 0.66767 0.05875 0.8947 0.0
H1077 H 0.62189 0.02625 0.89573 0.0
H1078 H 0.63744 1.00344 0.89488 0.0
H1079 H 0.68322 0.0357 0.89408 0.0
C1080 C 0.59943 0.724 0.951 0.0
C1081 C 0.60465 0.72287 0.93577 0.0
C1082 C 0.60386 0.75165 0.93482 0.0
C1083 C 0.60694 0.73664 0.92777 0.0
C1084 C 0.59884 0.75266 0.95011 0.0
C1085 C 0.59668 0.739 0.95809 0.0
U1086 U 0.59361 0.67832 0.95329 0.0
O1087 O 0.60289 0.66407 0.97093 0.0
O1088 O 0.57598 0.66299 0.96587 0.0
C1089 C 0.5879 0.6581 0.97424 0.0
C1090 C 0.5965 0.70979 0.95973 0.0
C1091 C 0.58526 0.65624 0.99073 0.0
C1092 C 0.59251 0.6635 0.01844 0.0
C1093 C 0.5936 0.66704 1.00302 0.0
C1094 C 0.57431 0.63865 0.00951 0.0
C1095 C 0.58314 0.64907 0.02185 0.0
C1096 C 0.57538 0.64221 0.99415 0.0
C1097 C 0.59652 0.65146 0.91474 0.0
C1098 C 0.60011 0.62315 0.91109 0.0
C1099 C 0.59676 0.63791 0.88876 0.0
C1100 C 0.59522 0.65167 0.8986 0.0
C1101 C 0.59955 0.62364 0.8949 0.0
C1102 C 0.5987 0.63707 0.92102 0.0
C1103 C 0.59664 0.66678 0.92449 0.0
O1104 O 0.58214 0.70053 0.95633 0.0
O1105 O 0.609 0.7016 0.96134 0.0
O1106 O 0.60931 0.67106 0.93486 0.0
O1107 O 0.58238 0.66966 0.92965 0.0
H1108 H 0.60678 0.71136 0.93005 0.0
H1109 H 0.61066 0.73546 0.91595 0.0
H1110 H 0.59653 0.76406 0.95591 0.0
H1111 H 0.59271 0.74013 0.96982 0.0
H1112 H 0.59928 0.67191 0.02768 0.0
H1113 H 0.60131 0.67795 1.00068 0.0
H1114 H 0.56717 0.62735 0.01162 0.0
H1115 H 0.56897 0.63364 0.98482 0.0
H1116 H 0.60223 0.61223 0.91605 0.0
H1117 H 0.59602 0.6385 0.87629 0.0
H1118 H 0.59347 0.66265 0.89358 0.0
H1119 H 0.5997 0.63672 0.93351 0.0
C1120 C 0.95924 0.10459 0.76746 0.0
C1121 C 0.9637 0.10589 0.78348 0.0
C1122 C 0.93463 0.09866 0.7888 0.0
C1123 C 0.95155 0.10291 0.79403 0.0
C1124 C 0.93032 0.09712 0.77267 0.0
C1125 C 0.94251 0.10005 0.76214 0.0
U1126 U 1.00441 0.11549 0.75888 0.0
O1127 O 0.01883 0.10631 0.74016 0.0
O1128 O 0.01642 0.13214 0.74338 0.0
C1129 C 0.02253 0.12056 0.73525 0.0
C1130 C 0.97189 0.10805 0.75625 0.0
C1131 C 0.02332 0.12127 0.71832 0.0
C1132 C 0.01851 0.10871 0.69155 0.0
C1133 C 0.01484 0.10915 0.70721 0.0
C1134 C 0.03867 0.13276 0.69784 0.0
C1135 C 0.03088 0.12022 0.68673 0.0
C1136 C 0.03488 0.13328 0.71339 0.0
C1137 C 0.03586 0.12061 0.79524 0.0
C1138 C 0.0652 0.13174 0.7981 0.0
C1139 C 0.05256 0.11806 0.8187 0.0
C1140 C 0.03737 0.11524 0.80995 0.0
C1141 C 0.06668 0.1263 0.81291 0.0
C1142 C 0.04986 0.12884 0.78926 0.0
C1143 C 0.01934 0.11758 0.78686 0.0
O1144 O 0.97956 0.12298 0.75765 0.0
O1145 O 0.98205 0.0973 0.75414 0.0
O1146 O 0.01585 0.10399 0.77765 0.0
O1147 O 0.01392 0.12987 0.78102 0.0
H1148 H 0.97658 0.10927 0.78784 0.0
H1149 H 0.95547 0.1039 0.8063 0.0
H1150 H 0.91747 0.09405 0.76817 0.0
H1151 H 0.93883 0.09895 0.7498 0.0
H1152 H 0.01198 0.09904 0.68333 0.0
H1153 H 0.00587 0.09971 0.7107 0.0
H1154 H 0.04842 0.14172 0.69477 0.0
H1155 H 0.04171 0.14264 0.72178 0.0
H1156 H 0.07587 0.13811 0.79335 0.0
H1157 H 0.05316 0.11404 0.83018 0.0
H1158 H 0.02667 0.10897 0.81477 0.0
H1159 H 0.04891 0.13306 0.77788 0.0
C1160 C 0.86128 0.28319 0.4575 0.0
C1161 C 0.85832 0.28241 0.44125 0.0
C1162 C 0.86525 0.25504 0.43824 0.0
C1163 C 0.8602 0.26837 0.43168 0.0
C1164 C 0.86759 0.25576 0.45454 0.0
C1165 C 0.8656 0.26968 0.46404 0.0
U1166 U 0.85764 0.32792 0.46309 0.0
O1167 O 0.84626 0.34275 0.48084 0.0
O1168 O 0.87299 0.348 0.47771 0.0
C1169 C 0.86045 0.35192 0.48542 0.0
C1170 C 0.86114 0.29826 0.46775 0.0
C1171 C 0.86386 0.35733 0.50217 0.0
C1172 C 0.87699 0.35569 0.52787 0.0
C1173 C 0.87238 0.34885 0.51245 0.0
C1174 C 0.86425 0.37917 0.52281 0.0
C1175 C 0.87332 0.37113 0.53307 0.0
C1176 C 0.8596 0.37234 0.50757 0.0
C1177 C 0.84965 0.34716 0.42514 0.0
C1178 C 0.85829 0.37422 0.41844 0.0
C1179 C 0.83868 0.35532 0.40107 0.0
C1180 C 0.83923 0.34378 0.41144 0.0
C1181 C 0.8486 0.37045 0.40422 0.0
C1182 C 0.85883 0.36261 0.42886 0.0
C1183 C 0.85189 0.3338 0.43429 0.0
O1184 O 0.87374 0.30957 0.46678 0.0
O1185 O 0.84682 0.30377 0.46828 0.0
O1186 O 0.83995 0.32943 0.44321 0.0
O1187 O 0.86687 0.33387 0.44082 0.0
H1188 H 0.85505 0.29277 0.43596 0.0
H1189 H 0.85844 0.2682 0.41917 0.0
H1190 H 0.87133 0.24564 0.45993 0.0
H1191 H 0.86791 0.27006 0.47653 0.0
H1192 H 0.88394 0.3492 0.53552 0.0
H1193 H 0.87583 0.33724 0.50847 0.0
H1194 H 0.86092 0.39091 0.5265 0.0
H1195 H 0.85304 0.37907 0.49982 0.0
H1196 H 0.86605 0.38581 0.42112 0.0
H1197 H 0.83085 0.35222 0.39034 0.0
H1198 H 0.83201 0.33195 0.40844 0.0
H1199 H 0.86691 0.36547 0.43945 0.0
C1200 C 0.46969 0.89141 0.77443 0.0
C1201 C 0.47227 0.89078 0.79051 0.0
C1202 C 0.44464 0.89813 0.79469 0.0
C1203 C 0.45997 0.89419 0.80052 0.0
C1204 C 0.44222 0.89878 0.77852 0.0
C1205 C 0.4546 0.89549 0.76855 0.0
U1206 U 0.51131 0.87718 0.76703 0.0
O1207 O 0.51931 0.86132 0.74782 0.0
O1208 O 0.53174 0.88632 0.75326 0.0
C1209 C 0.53099 0.87254 0.74441 0.0
C1210 C 0.48257 0.88786 0.76369 0.0
C1211 C 0.53469 0.87303 0.72789 0.0
C1212 C 0.53539 0.8857 0.7038 0.0
C1213 C 0.52977 0.88466 0.71877 0.0
C1214 C 0.55069 0.86342 0.70683 0.0
C1215 C 0.54621 0.87527 0.69769 0.0
C1216 C 0.54496 0.86232 0.72166 0.0
C1217 C 0.53308 0.86551 0.8051 0.0
C1218 C 0.56029 0.85751 0.81012 0.0
C1219 C 0.54206 0.86034 0.83106 0.0
C1220 C 0.53006 0.86452 0.82073 0.0
C1221 C 0.55739 0.85702 0.82596 0.0
C1222 C 0.54819 0.86183 0.79972 0.0
C1223 C 0.52022 0.87099 0.79518 0.0
O1224 O 0.49687 0.8974 0.76619 0.0
O1225 O 0.4843 0.87257 0.76084 0.0
O1226 O 0.51151 0.8602 0.78476 0.0
O1227 O 0.5239 0.88519 0.79022 0.0
H1228 H 0.48385 0.8877 0.79534 0.0
H1229 H 0.46263 0.89388 0.81287 0.0
H1230 H 0.43063 0.90153 0.77346 0.0
H1231 H 0.45233 0.89604 0.75618 0.0
H1232 H 0.53137 0.89482 0.69709 0.0
H1233 H 0.52189 0.89312 0.72331 0.0
H1234 H 0.55917 0.85534 0.70282 0.0
H1235 H 0.54909 0.85336 0.72855 0.0
H1236 H 0.57206 0.85508 0.80593 0.0
H1237 H 0.5394 0.85987 0.84313 0.0
H1238 H 0.51844 0.86728 0.82505 0.0
H1239 H 0.55071 0.86255 0.78765 0.0
C1240 C 0.98617 0.13858 0.22322 0.0
C1241 C 0.97039 0.14326 0.22467 0.0
C1242 C 0.96609 0.14208 0.19643 0.0
C1243 C 0.96042 0.14502 0.21137 0.0
C1244 C 0.98221 0.1381 0.19518 0.0
C1245 C 0.99211 0.13634 0.20845 0.0
U1246 U 0.99496 0.13881 0.26712 0.0
O1247 O 1.00171 0.11951 0.28044 0.0
O1248 O 0.01862 0.14238 0.28161 0.0
C1249 C 0.0163 0.12761 0.28558 0.0
C1250 C 0.99616 0.13489 0.23678 0.0
C1251 C 0.03077 0.1187 0.28532 0.0
C1252 C 0.04252 0.09362 0.28129 0.0
C1253 C 0.02937 0.10245 0.27901 0.0
C1254 C 0.05891 0.11729 0.29555 0.0
C1255 C 0.05734 0.10086 0.28984 0.0
C1256 C 0.04578 0.12607 0.29333 0.0
C1257 C 0.96425 0.15856 0.29307 0.0
C1258 C 0.96218 0.1584 0.32091 0.0
C1259 C 0.942 0.16995 0.30551 0.0
C1260 C 0.95025 0.16643 0.29224 0.0
C1261 C 0.94765 0.16576 0.32001 0.0
C1262 C 0.97039 0.15475 0.3075 0.0
C1263 C 0.97131 0.15369 0.27843 0.0
O1264 O 1.00449 0.14733 0.24565 0.0
O1265 O 0.98875 0.12386 0.24473 0.0
O1266 O 0.96941 0.13812 0.27403 0.0
O1267 O 0.98602 0.16124 0.2761 0.0
H1268 H 0.96558 0.14505 0.23603 0.0
H1269 H 0.94802 0.14794 0.21276 0.0
H1270 H 0.98706 0.13599 0.18389 0.0
H1271 H 1.00427 0.13278 0.20712 0.0
H1272 H 0.04096 0.08101 0.27669 0.0
H1273 H 0.01794 0.09638 0.2728 0.0
H1274 H 0.06998 0.1232 0.30246 0.0
H1275 H 0.04712 0.13849 0.29851 0.0
H1276 H 0.96701 0.15518 0.3319 0.0
H1277 H 0.93071 0.17528 0.3042 0.0
H1278 H 0.94533 0.16938 0.28115 0.0
H1279 H 0.98123 0.14866 0.30833 0.0
C1280 C 0.46677 0.13023 0.72461 0.0
C1281 C 0.46851 0.13048 0.7086 0.0
C1282 C 0.43841 0.12379 0.70318 0.0
C1283 C 0.45447 0.12726 0.69799 0.0
C1284 C 0.43682 0.12373 0.71928 0.0
C1285 C 0.45086 0.1269 0.72985 0.0
U1286 U 0.51345 0.14193 0.73516 0.0
O1287 O 0.52727 0.15603 0.75596 0.0
O1288 O 0.53056 0.13071 0.74974 0.0
C1289 C 0.53475 0.14386 0.75948 0.0
C1290 C 0.48136 0.13295 0.73599 0.0
C1291 C 0.53806 0.14194 0.77606 0.0
C1292 C 0.53456 0.12693 0.79857 0.0
C1293 C 0.52895 0.12999 0.78363 0.0
C1294 C 0.55794 0.14809 0.7986 0.0
C1295 C 0.54943 0.13564 0.80592 0.0
C1296 C 0.55227 0.15123 0.78387 0.0
C1297 C 0.5413 0.15368 0.70232 0.0
C1298 C 0.56873 0.14813 0.69584 0.0
C1299 C 0.5569 0.16973 0.68485 0.0
C1300 C 0.54276 0.16639 0.69298 0.0
C1301 C 0.56982 0.16034 0.68585 0.0
C1302 C 0.55462 0.14486 0.70406 0.0
C1303 C 0.52519 0.1489 0.70872 0.0
O1304 O 0.49208 0.12273 0.73398 0.0
O1305 O 0.4885 0.14799 0.73933 0.0
O1306 O 0.52001 0.15967 0.71864 0.0
O1307 O 0.52238 0.13414 0.71262 0.0
H1308 H 0.48072 0.13299 0.70431 0.0
H1309 H 0.45627 0.12722 0.6857 0.0
H1310 H 0.42471 0.12141 0.72378 0.0
H1311 H 0.44927 0.12669 0.74216 0.0
H1312 H 0.52785 0.1172 0.80396 0.0
H1313 H 0.51798 0.12261 0.77776 0.0
H1314 H 0.56938 0.155 0.80403 0.0
H1315 H 0.55952 0.16044 0.77823 0.0
H1316 H 0.57862 0.14085 0.69698 0.0
H1317 H 0.55731 0.17912 0.67714 0.0
H1318 H 0.53263 0.17332 0.69145 0.0
H1319 H 0.5539 0.13507 0.71131 0.0
C1320 C 0.11813 0.24584 0.9402 0.0
C1321 C 0.11161 0.24255 0.92462 0.0
C1322 C 0.12401 0.2177 0.92175 0.0
C1323 C 0.11445 0.22859 0.91553 0.0
C1324 C 0.13097 0.22132 0.93716 0.0
C1325 C 0.128 0.23521 0.94629 0.0
U1326 U 0.11267 0.29036 0.94743 0.0
O1327 O 0.09366 0.30216 0.9595 0.0
O1328 O 0.12008 0.30857 0.96752 0.0
C1329 C 0.1047 0.31081 0.9698 0.0
C1330 C 0.11436 0.2599 0.95043 0.0
C1331 C 0.10019 0.31318 0.98609 0.0
C1332 C 0.10644 0.3128 0.01388 0.0
C1333 C 0.10907 0.30771 0.9984 0.0
C1334 C 0.08552 0.32825 0.00495 0.0
C1335 C 0.09498 0.32354 0.01736 0.0
C1336 C 0.0881 0.32311 0.98953 0.0
C1337 C 0.12045 0.31475 0.9122 0.0
C1338 C 0.12042 0.34346 0.91104 0.0
C1339 C 0.1236 0.32594 0.88773 0.0
C1340 C 0.12261 0.31278 0.89628 0.0
C1341 C 0.12231 0.3414 0.89493 0.0
C1342 C 0.11945 0.33016 0.91965 0.0
C1343 C 0.11941 0.30035 0.92048 0.0
O1344 O 0.12686 0.27147 0.9546 0.0
O1345 O 0.10042 0.26534 0.94678 0.0
O1346 O 0.10446 0.29406 0.92357 0.0
O1347 O 0.13077 0.30051 0.93192 0.0
H1348 H 0.10412 0.25062 0.91952 0.0
H1349 H 0.10912 0.22628 0.90362 0.0
H1350 H 0.13829 0.21315 0.94233 0.0
H1351 H 0.13319 0.23751 0.95825 0.0
H1352 H 0.11375 0.30867 0.02311 0.0
H1353 H 0.11846 0.30003 0.99609 0.0
H1354 H 0.07674 0.33663 0.00708 0.0
H1355 H 0.08121 0.3276 0.98022 0.0
H1356 H 0.1193 0.35522 0.91686 0.0
H1357 H 0.12538 0.32399 0.87542 0.0
H1358 H 0.12351 0.30097 0.8904 0.0
H1359 H 0.11781 0.33186 0.93201 0.0
C1360 C 0.35153 0.69095 0.51281 0.0
C1361 C 0.35466 0.67495 0.51012 0.0
C1362 C 0.3587 0.67354 0.53815 0.0
C1363 C 0.35824 0.66635 0.52265 0.0
C1364 C 0.35538 0.68953 0.54071 0.0
C1365 C 0.35186 0.69812 0.52817 0.0
U1366 U 0.34298 0.69393 0.46939 0.0
O1367 O 0.32678 0.7081 0.45674 0.0
O1368 O 0.35376 0.71158 0.45444 0.0
C1369 C 0.33931 0.71574 0.45027 0.0
C1370 C 0.34839 0.70044 0.49976 0.0
C1371 C 0.33894 0.73273 0.44761 0.0
C1372 C 0.34986 0.7613 0.4524 0.0
C1373 C 0.34855 0.74567 0.45697 0.0
C1374 C 0.33161 0.75126 0.4294 0.0
C1375 C 0.34175 0.76423 0.43832 0.0
C1376 C 0.33021 0.73574 0.43403 0.0
C1377 C 0.34025 0.65462 0.44175 0.0
C1378 C 0.33396 0.65184 0.41372 0.0
C1379 C 0.34396 0.63004 0.42603 0.0
C1380 C 0.34467 0.63909 0.44052 0.0
C1381 C 0.33875 0.63635 0.41246 0.0
C1382 C 0.33481 0.66098 0.42829 0.0
C1383 C 0.34199 0.66394 0.45719 0.0
O1384 O 0.3602 0.70197 0.49009 0.0
O1385 O 0.33341 0.69732 0.49263 0.0
O1386 O 0.32881 0.66994 0.4618 0.0
O1387 O 0.35584 0.67403 0.46038 0.0
H1388 H 0.35451 0.66917 0.49834 0.0
H1389 H 0.36092 0.65415 0.52015 0.0
H1390 H 0.35532 0.6954 0.55241 0.0
H1391 H 0.34944 0.71044 0.53049 0.0
H1392 H 0.35755 0.77102 0.45973 0.0
H1393 H 0.35544 0.74363 0.46749 0.0
H1394 H 0.32536 0.75289 0.41841 0.0
H1395 H 0.32287 0.72588 0.42655 0.0
H1396 H 0.32996 0.65699 0.40342 0.0
H1397 H 0.34749 0.61806 0.42544 0.0
H1398 H 0.34886 0.634 0.4508 0.0
H1399 H 0.33141 0.67302 0.42903 0.0
C1400 C 0.7224 0.48654 0.8504 0.0
C1401 C 0.72623 0.50336 0.85103 0.0
C1402 C 0.69713 0.50555 0.84447 0.0
C1403 C 0.71377 0.51275 0.84805 0.0
C1404 C 0.69345 0.48862 0.84339 0.0
C1405 C 0.70599 0.47921 0.84635 0.0
U1406 U 0.76757 0.48489 0.86084 0.0
O1407 O 0.78046 0.47357 0.87898 0.0
O1408 O 0.78441 0.46745 0.85425 0.0
C1409 C 0.78812 0.46517 0.86878 0.0
C1410 C 0.73545 0.47678 0.8544 0.0
C1411 C 0.79113 0.44895 0.87212 0.0
C1412 C 0.78795 0.4198 0.86596 0.0
C1413 C 0.7829 0.43471 0.86361 0.0
C1414 C 0.80918 0.43322 0.8855 0.0
C1415 C 0.80136 0.41891 0.87677 0.0
C1416 C 0.80407 0.44801 0.88322 0.0
C1417 C 0.79514 0.52649 0.86221 0.0
C1418 C 0.82257 0.53547 0.8752 0.0
C1419 C 0.80977 0.55287 0.85898 0.0
C1420 C 0.79595 0.54104 0.85562 0.0
C1421 C 0.82317 0.55037 0.86899 0.0
C1422 C 0.80863 0.52361 0.87185 0.0
C1423 C 0.77954 0.51526 0.85964 0.0
O1424 O 0.74637 0.47516 0.84397 0.0
O1425 O 0.74234 0.48021 0.86868 0.0
O1426 O 0.77345 0.50974 0.87208 0.0
O1427 O 0.77827 0.50427 0.84756 0.0
H1428 H 0.73885 0.50926 0.85403 0.0
H1429 H 0.71719 0.5257 0.84866 0.0
H1430 H 0.68081 0.48266 0.84076 0.0
H1431 H 0.70281 0.46624 0.84576 0.0
H1432 H 0.78155 0.409 0.85912 0.0
H1433 H 0.77291 0.43516 0.85491 0.0
H1434 H 0.81975 0.43316 0.89365 0.0
H1435 H 0.81074 0.45888 0.88975 0.0
H1436 H 0.83276 0.53308 0.88281 0.0
H1437 H 0.80962 0.56425 0.8542 0.0
H1438 H 0.78559 0.54348 0.84822 0.0
H1439 H 0.80822 0.51239 0.87702 0.0
C1440 C 0.68175 0.45884 0.151 0.0
C1441 C 0.66671 0.45464 0.14176 0.0
C1442 C 0.66474 0.427 0.14844 0.0
C1443 C 0.6583 0.43882 0.14044 0.0
C1444 C 0.67972 0.43138 0.15775 0.0
C1445 C 0.68812 0.44712 0.159 0.0
U1446 U 0.68579 0.50472 0.14932 0.0
O1447 O 0.70134 0.52445 0.16449 0.0
O1448 O 0.7049 0.5209 0.13948 0.0
C1449 C 0.71012 0.52903 0.15305 0.0
C1450 C 0.69132 0.47516 0.15225 0.0
C1451 C 0.72826 0.53292 0.15642 0.0
C1452 C 0.75644 0.52798 0.15207 0.0
C1453 C 0.73928 0.52272 0.15061 0.0
C1454 C 0.75177 0.55329 0.16582 0.0
C1455 C 0.76285 0.5435 0.15938 0.0
C1456 C 0.73468 0.54804 0.16434 0.0
C1457 C 0.64679 0.52366 0.13896 0.0
C1458 C 0.64566 0.55238 0.13936 0.0
C1459 C 0.62193 0.53297 0.12871 0.0
C1460 C 0.63059 0.52039 0.132 0.0
C1461 C 0.62936 0.5491 0.13232 0.0
C1462 C 0.65436 0.53973 0.14262 0.0
C1463 C 0.65544 0.51003 0.14213 0.0
O1464 O 0.69273 0.48181 0.13921 0.0
O1465 O 0.68845 0.48524 0.16405 0.0
O1466 O 0.66151 0.51004 0.15654 0.0
O1467 O 0.66556 0.50585 0.13169 0.0
H1468 H 0.66152 0.46355 0.13554 0.0
H1469 H 0.64666 0.43588 0.13337 0.0
H1470 H 0.68508 0.42257 0.16396 0.0
H1471 H 0.69971 0.45013 0.16616 0.0
H1472 H 0.76465 0.52007 0.14715 0.0
H1473 H 0.73461 0.51096 0.14449 0.0
H1474 H 0.75619 0.56538 0.17131 0.0
H1475 H 0.72638 0.55611 0.16883 0.0
H1476 H 0.65173 0.56469 0.1422 0.0
H1477 H 0.6093 0.53004 0.12355 0.0
H1478 H 0.62458 0.50805 0.12914 0.0
H1479 H 0.66694 0.54245 0.14795 0.0
C1480 C 0.70766 0.5353 0.36832 0.0
C1481 C 0.6929 0.53547 0.37595 0.0
C1482 C 0.69167 0.56319 0.37035 0.0
C1483 C 0.685 0.54935 0.37701 0.0
C1484 C 0.70659 0.56293 0.36298 0.0
C1485 C 0.71444 0.54917 0.36198 0.0
U1486 U 0.70999 0.48999 0.36964 0.0
O1487 O 0.71991 0.47279 0.353 0.0
O1488 O 0.73093 0.47786 0.3771 0.0
C1489 C 0.73119 0.46975 0.36334 0.0
C1490 C 0.71622 0.52092 0.3665 0.0
C1491 C 0.74746 0.46686 0.35788 0.0
C1492 C 0.77649 0.47519 0.35345 0.0
C1493 C 0.76106 0.47909 0.35791 0.0
C1494 C 0.7647 0.44699 0.34874 0.0
C1495 C 0.77848 0.45904 0.34884 0.0
C1496 C 0.74943 0.45087 0.35317 0.0
C1497 C 0.67134 0.46352 0.38236 0.0
C1498 C 0.66307 0.43449 0.37742 0.0
C1499 C 0.64782 0.45058 0.39462 0.0
C1500 C 0.65851 0.46442 0.39232 0.0
C1501 C 0.64979 0.43545 0.38705 0.0
C1502 C 0.67376 0.44843 0.37508 0.0
C1503 C 0.68107 0.47869 0.37907 0.0
O1504 O 0.72031 0.5148 0.37931 0.0
O1505 O 0.71024 0.50989 0.35497 0.0
O1506 O 0.68366 0.48009 0.3644 0.0
O1507 O 0.69409 0.48442 0.38868 0.0
H1508 H 0.68741 0.52485 0.3809 0.0
H1509 H 0.67346 0.5491 0.38265 0.0
H1510 H 0.71221 0.57341 0.35791 0.0
H1511 H 0.72583 0.54931 0.3561 0.0
H1512 H 0.78685 0.48478 0.35363 0.0
H1513 H 0.75982 0.49153 0.36155 0.0
H1514 H 0.76579 0.43441 0.34568 0.0
H1515 H 0.73914 0.44124 0.35322 0.0
H1516 H 0.66507 0.42301 0.37156 0.0
H1517 H 0.63761 0.45189 0.40187 0.0
H1518 H 0.65641 0.47597 0.39796 0.0
H1519 H 0.68365 0.44747 0.36736 0.0
C1520 C 0.75522 0.53465 0.62605 0.0
C1521 C 0.75598 0.51801 0.62456 0.0
C1522 C 0.72764 0.51245 0.63264 0.0
C1523 C 0.74234 0.50706 0.6277 0.0
C1524 C 0.72694 0.52917 0.6339 0.0
C1525 C 0.74056 0.54011 0.63062 0.0
U1526 U 0.80073 0.54267 0.6188 0.0
O1527 O 0.81512 0.55796 0.60351 0.0
O1528 O 0.8211 0.56139 0.62886 0.0
C1529 C 0.82473 0.56603 0.61526 0.0
C1530 C 0.76982 0.54632 0.62335 0.0
C1531 C 0.83074 0.58333 0.61453 0.0
C1532 C 0.83427 0.61153 0.6254 0.0
C1533 C 0.826 0.59566 0.62472 0.0
C1534 C 0.85174 0.603 0.60544 0.0
C1535 C 0.84761 0.61535 0.61607 0.0
C1536 C 0.84337 0.58725 0.60466 0.0
C1537 C 0.82027 0.50266 0.61728 0.0
C1538 C 0.84764 0.49683 0.61097 0.0
C1539 C 0.82817 0.47657 0.62092 0.0
C1540 C 0.81654 0.48717 0.62175 0.0
C1541 C 0.84389 0.48128 0.61566 0.0
C1542 C 0.83586 0.50753 0.61183 0.0
C1543 C 0.8073 0.51304 0.61849 0.0
O1544 O 0.78176 0.54881 0.63458 0.0
O1545 O 0.77542 0.54454 0.60943 0.0
O1546 O 0.80267 0.51921 0.60587 0.0
O1547 O 0.80812 0.52302 0.63127 0.0
H1548 H 0.76717 0.51349 0.62104 0.0
H1549 H 0.74337 0.49432 0.62619 0.0
H1550 H 0.71602 0.53391 0.6378 0.0
H1551 H 0.73974 0.5529 0.63189 0.0
H1552 H 0.83044 0.62071 0.63353 0.0
H1553 H 0.81632 0.59295 0.63251 0.0
H1554 H 0.86204 0.60522 0.59823 0.0
H1555 H 0.84739 0.5779 0.59684 0.0
H1556 H 0.85968 0.50075 0.60687 0.0
H1557 H 0.82473 0.46457 0.62424 0.0
H1558 H 0.80451 0.48321 0.62587 0.0
H1559 H 0.8389 0.5195 0.6083 0.0
C1560 C 0.49158 0.14187 0.28471 0.0
C1561 C 0.47542 0.1457 0.28249 0.0
C1562 C 0.47129 0.14327 0.30987 0.0
C1563 C 0.46533 0.1465 0.29509 0.0
C1564 C 0.48777 0.14032 0.31206 0.0
C1565 C 0.49779 0.13965 0.29961 0.0
U1566 U 0.50423 0.13871 0.24176 0.0
O1567 O 0.5143 0.11773 0.23054 0.0
O1568 O 0.52978 0.14199 0.23424 0.0
C1569 C 0.52866 0.12658 0.22929 0.0
C1570 C 0.50179 0.13821 0.27177 0.0
C1571 C 0.54242 0.11976 0.22226 0.0
C1572 C 0.56405 0.10266 0.2233 0.0
C1573 C 0.55061 0.10882 0.22981 0.0
C1574 C 0.56091 0.11812 0.20144 0.0
C1575 C 0.56939 0.10727 0.20904 0.0
C1576 C 0.54763 0.12441 0.20807 0.0
C1577 C 0.47685 0.15403 0.20929 0.0
C1578 C 0.47436 0.14771 0.18117 0.0
C1579 C 0.45909 0.16773 0.19332 0.0
C1580 C 0.46604 0.16543 0.20788 0.0
C1581 C 0.46292 0.15874 0.17976 0.0
C1582 C 0.48123 0.14532 0.19584 0.0
C1583 C 0.48204 0.15078 0.22507 0.0
O1584 O 0.49532 0.12624 0.26133 0.0
O1585 O 0.51 0.1504 0.26582 0.0
O1586 O 0.49567 0.1595 0.23183 0.0
O1587 O 0.4804 0.13559 0.2278 0.0
H1588 H 0.47042 0.14739 0.271 0.0
H1589 H 0.45263 0.14872 0.2931 0.0
H1590 H 0.49271 0.13789 0.32333 0.0
H1591 H 0.51021 0.13664 0.3015 0.0
H1592 H 0.57041 0.09452 0.22955 0.0
H1593 H 0.54678 0.10522 0.24087 0.0
H1594 H 0.56445 0.12169 0.19029 0.0
H1595 H 0.54135 0.13281 0.20208 0.0
H1596 H 0.47779 0.14074 0.17097 0.0
H1597 H 0.45014 0.17608 0.19284 0.0
H1598 H 0.46245 0.17219 0.21816 0.0
H1599 H 0.48961 0.13647 0.19671 0.0
C1600 C 0.96569 0.92204 0.75254 0.0
C1601 C 0.97112 0.92338 0.73758 0.0
C1602 C 0.94616 0.93469 0.73003 0.0
C1603 C 0.96144 0.92967 0.72643 0.0
C1604 C 0.9408 0.93318 0.74502 0.0
C1605 C 0.95048 0.92692 0.75614 0.0
U1606 U 0.9999 0.89808 0.76555 0.0
O1607 O 0.01838 0.90351 0.78571 0.0
O1608 O 0.99936 0.88157 0.78392 0.0
C1609 C 0.01205 0.89066 0.79196 0.0
C1610 C 0.97558 0.91555 0.76457 0.0
C1611 C 0.0192 0.8865 0.80678 0.0
C1612 C 0.01607 0.87965 0.83319 0.0
C1613 C 0.00907 0.88297 0.8189 0.0
C1614 C 0.04333 0.88296 0.8232 0.0
C1615 C 0.03329 0.87954 0.83548 0.0
C1616 C 0.03636 0.88651 0.80904 0.0
C1617 C 0.02308 0.88045 0.73019 0.0
C1618 C 0.0502 0.87203 0.72707 0.0
C1619 C 0.0306 0.8707 0.70465 0.0
C1620 C 0.01907 0.87641 0.71421 0.0
C1621 C 0.04639 0.86881 0.71089 0.0
C1622 C 0.03861 0.87796 0.73671 0.0
C1623 C 0.01133 0.88886 0.73893 0.0
O1624 O 0.97315 0.89979 0.76442 0.0
O1625 O 0.99133 0.92181 0.76682 0.0
O1626 O 0.01727 0.90245 0.74749 0.0
O1627 O 0.99926 0.88013 0.74502 0.0
H1628 H 0.98278 0.91955 0.73453 0.0
H1629 H 0.96583 0.93036 0.71492 0.0
H1630 H 0.92922 0.93704 0.74826 0.0
H1631 H 0.9461 0.92593 0.76762 0.0
H1632 H 0.00799 0.87703 0.84239 0.0
H1633 H 0.99578 0.88303 0.81741 0.0
H1634 H 0.05666 0.88322 0.82462 0.0
H1635 H 0.04439 0.88925 0.79983 0.0
H1636 H 0.06236 0.87074 0.73211 0.0
H1637 H 0.02734 0.86823 0.69224 0.0
H1638 H 0.00719 0.87833 0.70898 0.0
H1639 H 0.04195 0.88113 0.74903 0.0
C1640 C 0.52349 0.8957 0.29432 0.0
C1641 C 0.52592 0.88819 0.30786 0.0
C1642 C 0.55484 0.901 0.31123 0.0
C1643 C 0.54147 0.89078 0.31621 0.0
C1644 C 0.55215 0.90893 0.29799 0.0
C1645 C 0.53663 0.90626 0.28961 0.0
U1646 U 0.47609 0.88294 0.28768 0.0
O1647 O 0.45781 0.89246 0.27281 0.0
O1648 O 0.46167 0.86716 0.26824 0.0
C1649 C 0.45419 0.87888 0.26356 0.0
C1650 C 0.50773 0.8922 0.2845 0.0
C1651 C 0.45283 0.87999 0.24659 0.0
C1652 C 0.45485 0.89559 0.22443 0.0
C1653 C 0.45821 0.89437 0.24027 0.0
C1654 C 0.44133 0.8679 0.2208 0.0
C1655 C 0.44617 0.88242 0.21447 0.0
C1656 C 0.44455 0.86675 0.23666 0.0
C1657 C 0.45045 0.87325 0.32256 0.0
C1658 C 0.42277 0.87814 0.32887 0.0
C1659 C 0.43592 0.8583 0.34152 0.0
C1660 C 0.44985 0.86155 0.33303 0.0
C1661 C 0.42242 0.86683 0.33977 0.0
C1662 C 0.43662 0.88128 0.32028 0.0
C1663 C 0.46608 0.8778 0.31524 0.0
O1664 O 0.50073 0.87703 0.2824 0.0
O1665 O 0.49704 0.90237 0.28693 0.0
O1666 O 0.46817 0.89212 0.31024 0.0
O1667 O 0.47107 0.86655 0.30573 0.0
H1668 H 0.5159 0.8801 0.3118 0.0
H1669 H 0.54309 0.88469 0.32651 0.0
H1670 H 0.56219 0.91677 0.29379 0.0
H1671 H 0.53499 0.91218 0.27921 0.0
H1672 H 0.45859 0.90708 0.22015 0.0
H1673 H 0.46458 0.90483 0.24763 0.0
H1674 H 0.43494 0.85738 0.21355 0.0
H1675 H 0.44021 0.85555 0.24126 0.0
H1676 H 0.41241 0.88474 0.32715 0.0
H1677 H 0.436 0.84959 0.3499 0.0
H1678 H 0.46039 0.85526 0.33501 0.0
H1679 H 0.43667 0.89029 0.31219 0.0
C1680 C 0.84177 0.73446 0.04452 0.0
C1681 C 0.84141 0.73403 0.06069 0.0
C1682 C 0.84411 0.76342 0.06464 0.0
C1683 C 0.8425 0.74842 0.07069 0.0
C1684 C 0.84369 0.76363 0.0484 0.0
C1685 C 0.84252 0.74931 0.03846 0.0
U1686 U 0.84096 0.68894 0.0367 0.0
O1687 O 0.83098 0.67139 0.01652 0.0
O1688 O 0.85766 0.67498 0.02389 0.0
C1689 C 0.8457 0.66749 0.01381 0.0
C1690 C 0.84271 0.71984 0.03387 0.0
C1691 C 0.84969 0.66481 0.99744 0.0
C1692 C 0.86604 0.67151 0.97569 0.0
C1693 C 0.86073 0.67583 0.9905 0.0
C1694 C 0.84885 0.64551 0.97451 0.0
C1695 C 0.86051 0.65609 0.96776 0.0
C1696 C 0.84353 0.64982 0.98915 0.0
C1697 C 0.83346 0.66555 0.07262 0.0
C1698 C 0.84079 0.63944 0.07764 0.0
C1699 C 0.82652 0.65463 0.09657 0.0
C1700 C 0.82611 0.66671 0.08679 0.0
C1701 C 0.83428 0.64114 0.0923 0.0
C1702 C 0.84046 0.65167 0.06783 0.0
C1703 C 0.83502 0.67976 0.06409 0.0
O1704 O 0.8558 0.71273 0.03656 0.0
O1705 O 0.82889 0.70964 0.03075 0.0
O1706 O 0.82317 0.68038 0.0533 0.0
O1707 O 0.84998 0.68485 0.0601 0.0
H1708 H 0.84085 0.72265 0.0656 0.0
H1709 H 0.84289 0.74787 0.08314 0.0
H1710 H 0.84471 0.77497 0.04338 0.0
H1711 H 0.84275 0.74987 0.02603 0.0
H1712 H 0.875 0.67993 0.97077 0.0
H1713 H 0.86567 0.68748 0.99671 0.0
H1714 H 0.84406 0.63367 0.96859 0.0
H1715 H 0.83503 0.64114 0.99429 0.0
H1716 H 0.84683 0.62911 0.07413 0.0
H1717 H 0.82122 0.65608 0.10772 0.0
H1718 H 0.82064 0.67733 0.09062 0.0
H1719 H 0.84619 0.6506 0.05687 0.0
C1720 C 0.58428 0.30145 0.50798 0.0
C1721 C 0.58902 0.31824 0.50958 0.0
C1722 C 0.58128 0.31907 0.48204 0.0
C1723 C 0.58756 0.32695 0.49676 0.0
C1724 C 0.57572 0.30237 0.48068 0.0
C1725 C 0.57726 0.29364 0.49354 0.0
U1726 U 0.59671 0.301 0.55059 0.0
O1727 O 0.58852 0.28504 0.56829 0.0
O1728 O 0.61469 0.28839 0.56261 0.0
C1729 C 0.60354 0.28145 0.5711 0.0
C1730 C 0.58756 0.29204 0.52106 0.0
C1731 C 0.60532 0.26517 0.57536 0.0
C1732 C 0.61686 0.2399 0.57201 0.0
C1733 C 0.61292 0.25399 0.5661 0.0
C1734 C 0.60519 0.24786 0.59618 0.0
C1735 C 0.61345 0.23692 0.58732 0.0
C1736 C 0.60121 0.26177 0.59027 0.0
C1737 C 0.60397 0.34454 0.57273 0.0
C1738 C 0.61988 0.35568 0.59697 0.0
C1739 C 0.60323 0.37223 0.58318 0.0
C1740 C 0.59804 0.35927 0.57185 0.0
C1741 C 0.61444 0.37069 0.5957 0.0
C1742 C 0.61474 0.34267 0.58548 0.0
C1743 C 0.59956 0.33206 0.55946 0.0
O1744 O 0.60311 0.29419 0.52676 0.0
O1745 O 0.57696 0.29217 0.53193 0.0
O1746 O 0.58566 0.32217 0.55976 0.0
O1747 O 0.61171 0.32499 0.5539 0.0
H1748 H 0.59433 0.32456 0.52066 0.0
H1749 H 0.59172 0.33983 0.49828 0.0
H1750 H 0.57093 0.29592 0.46952 0.0
H1751 H 0.57347 0.2807 0.49208 0.0
H1752 H 0.62319 0.23172 0.56487 0.0
H1753 H 0.61633 0.2564 0.55458 0.0
H1754 H 0.60202 0.24583 0.60786 0.0
H1755 H 0.59546 0.27026 0.59767 0.0
H1756 H 0.62849 0.35418 0.60654 0.0
H1757 H 0.59853 0.38352 0.58208 0.0
H1758 H 0.58967 0.3609 0.56212 0.0
H1759 H 0.61944 0.33134 0.58635 0.0
C1760 C 0.26853 0.49786 0.12134 0.0
C1761 C 0.26768 0.48323 0.128 0.0
C1762 C 0.29767 0.4836 0.1268 0.0
C1763 C 0.28212 0.47619 0.13074 0.0
C1764 C 0.29833 0.49819 0.12005 0.0
C1765 C 0.28396 0.50518 0.11734 0.0
U1766 U 0.22149 0.49801 0.11289 0.0
O1767 O 0.20493 0.51385 0.12347 0.0
O1768 O 0.20804 0.5129 0.09836 0.0
C1769 C 0.2008 0.51916 0.11022 0.0
C1770 C 0.25376 0.50609 0.11888 0.0
C1771 C 0.19804 0.5362 0.11065 0.0
C1772 C 0.20253 0.56406 0.12256 0.0
C1773 C 0.20736 0.54863 0.12087 0.0
C1774 C 0.17933 0.55493 0.10355 0.0
C1775 C 0.18814 0.56732 0.11423 0.0
C1776 C 0.18426 0.53962 0.10177 0.0
C1777 C 0.19353 0.4562 0.10734 0.0
C1778 C 0.16412 0.44976 0.09894 0.0
C1779 C 0.17871 0.42955 0.10939 0.0
C1780 C 0.19333 0.44052 0.11141 0.0
C1781 C 0.1639 0.43403 0.10323 0.0
C1782 C 0.17884 0.46082 0.10105 0.0
C1783 C 0.20935 0.4672 0.10991 0.0
O1784 O 0.24651 0.50403 0.10471 0.0
O1785 O 0.24314 0.50551 0.12973 0.0
O1786 O 0.21187 0.47619 0.12337 0.0
O1787 O 0.21431 0.4749 0.09817 0.0
H1788 H 0.25589 0.47728 0.13113 0.0
H1789 H 0.28106 0.46486 0.13576 0.0
H1790 H 0.31004 0.50441 0.11705 0.0
H1791 H 0.28495 0.51648 0.11226 0.0
H1792 H 0.20989 0.57333 0.13065 0.0
H1793 H 0.21805 0.5463 0.12787 0.0
H1794 H 0.1681 0.55676 0.09706 0.0
H1795 H 0.17679 0.53017 0.09392 0.0
H1796 H 0.15287 0.45355 0.0942 0.0
H1797 H 0.17905 0.41747 0.11253 0.0
H1798 H 0.20456 0.43672 0.11619 0.0
H1799 H 0.17876 0.47292 0.09785 0.0
C1800 C 0.31429 0.53748 0.85689 0.0
C1801 C 0.33073 0.54045 0.85271 0.0
C1802 C 0.33257 0.56878 0.863 0.0
C1803 C 0.33975 0.55597 0.85564 0.0
C1804 C 0.31618 0.56557 0.86738 0.0
C1805 C 0.30715 0.55012 0.86429 0.0
U1806 U 0.31056 0.49153 0.85231 0.0
O1807 O 0.29257 0.47333 0.86103 0.0
O1808 O 0.29459 0.47329 0.83585 0.0
C1809 C 0.28655 0.46697 0.847 0.0
C1810 C 0.30434 0.52135 0.85376 0.0
C1811 C 0.26829 0.46376 0.84457 0.0
C1812 C 0.24096 0.47071 0.8496 0.0
C1813 C 0.25825 0.47496 0.85031 0.0
C1814 C 0.24352 0.44435 0.83673 0.0
C1815 C 0.23342 0.4552 0.84314 0.0
C1816 C 0.26078 0.44861 0.83747 0.0
C1817 C 0.35183 0.47415 0.85845 0.0
C1818 C 0.35528 0.44598 0.85846 0.0
C1819 C 0.37913 0.46686 0.86401 0.0
C1820 C 0.3689 0.47858 0.8621 0.0
C1821 C 0.37244 0.45044 0.86232 0.0
C1822 C 0.345 0.45779 0.85659 0.0
C1823 C 0.34159 0.48702 0.85718 0.0
O1824 O 0.3066 0.51284 0.84066 0.0
O1825 O 0.30344 0.51285 0.86568 0.0
O1826 O 0.33169 0.48911 0.86841 0.0
O1827 O 0.33468 0.48809 0.84329 0.0
H1828 H 0.33656 0.53082 0.84707 0.0
H1829 H 0.35223 0.55795 0.85187 0.0
H1830 H 0.31031 0.57496 0.87336 0.0
H1831 H 0.29453 0.54802 0.86772 0.0
H1832 H 0.23352 0.47943 0.85445 0.0
H1833 H 0.2638 0.48678 0.85576 0.0
H1834 H 0.23819 0.43228 0.83182 0.0
H1835 H 0.26833 0.43979 0.833 0.0
H1836 H 0.34979 0.4334 0.85713 0.0
H1837 H 0.39233 0.47066 0.86667 0.0
H1838 H 0.37435 0.49118 0.86354 0.0
H1839 H 0.33178 0.45419 0.85383 0.0
C1840 C 0.28152 0.44993 0.64963 0.0
C1841 C 0.29873 0.45188 0.6535 0.0
C1842 C 0.29982 0.42438 0.64213 0.0
C1843 C 0.30776 0.43919 0.64987 0.0
C1844 C 0.28268 0.4226 0.63799 0.0
C1845 C 0.27362 0.43525 0.64175 0.0
U1846 U 0.2778 0.49462 0.6552 0.0
O1847 O 0.25798 0.50806 0.64791 0.0
O1848 O 0.26597 0.50925 0.67278 0.0
C1849 C 0.25586 0.51381 0.66224 0.0
C1850 C 0.27167 0.46307 0.65356 0.0
C1851 C 0.23872 0.51523 0.66619 0.0
C1852 C 0.20886 0.50943 0.66005 0.0
C1853 C 0.22485 0.50555 0.65811 0.0
C1854 C 0.22035 0.53221 0.67867 0.0
C1855 C 0.20645 0.52315 0.66996 0.0
C1856 C 0.23627 0.52826 0.67681 0.0
C1857 C 0.31637 0.52361 0.64727 0.0
C1858 C 0.31795 0.55271 0.64829 0.0
C1859 C 0.34073 0.5395 0.63908 0.0
C1860 C 0.33216 0.52461 0.64161 0.0
C1861 C 0.33366 0.55367 0.64223 0.0
C1862 C 0.30928 0.53772 0.65071 0.0
C1863 C 0.30738 0.50758 0.64874 0.0
O1864 O 0.27647 0.47237 0.66663 0.0
O1865 O 0.26787 0.47118 0.64198 0.0
O1866 O 0.29516 0.5024 0.63809 0.0
O1867 O 0.30374 0.50458 0.66283 0.0
H1868 H 0.30518 0.46318 0.65937 0.0
H1869 H 0.32101 0.44101 0.65301 0.0
H1870 H 0.2762 0.41131 0.63211 0.0
H1871 H 0.26039 0.43353 0.63857 0.0
H1872 H 0.19843 0.50194 0.6534 0.0
H1873 H 0.2264 0.49541 0.64984 0.0
H1874 H 0.21911 0.54294 0.68627 0.0
H1875 H 0.24682 0.53597 0.68306 0.0
H1876 H 0.31225 0.56349 0.65078 0.0
H1877 H 0.35293 0.53993 0.63466 0.0
H1878 H 0.33778 0.51382 0.63893 0.0
H1879 H 0.29703 0.53711 0.65504 0.0
C1880 C 0.23653 0.50273 0.33866 0.0
C1881 C 0.23553 0.51849 0.33505 0.0
C1882 C 0.26576 0.52394 0.33489 0.0
C1883 C 0.25003 0.52899 0.33311 0.0
C1884 C 0.26656 0.50802 0.33817 0.0
C1885 C 0.25211 0.49757 0.34004 0.0
U1886 U 0.19156 0.49476 0.34963 0.0
O1887 O 0.1714 0.47482 0.34178 0.0
O1888 O 0.18043 0.47936 0.36648 0.0
C1889 C 0.17014 0.47031 0.35582 0.0
C1890 C 0.2217 0.49168 0.3418 0.0
C1891 C 0.16719 0.45286 0.35727 0.0
C1892 C 0.17293 0.42528 0.35192 0.0
C1893 C 0.17686 0.44184 0.35047 0.0
C1894 C 0.14987 0.43077 0.36703 0.0
C1895 C 0.15936 0.41956 0.36025 0.0
C1896 C 0.15377 0.44718 0.36556 0.0
C1897 C 0.16969 0.53277 0.35683 0.0
C1898 C 0.14144 0.53414 0.36388 0.0
C1899 C 0.16076 0.5587 0.36359 0.0
C1900 C 0.17301 0.54961 0.35894 0.0
C1901 C 0.14489 0.5511 0.36622 0.0
C1902 C 0.15382 0.52499 0.35927 0.0
C1903 C 0.18328 0.5239 0.35236 0.0
O1904 O 0.21765 0.49297 0.35629 0.0
O1905 O 0.20881 0.49011 0.3316 0.0
O1906 O 0.18075 0.51418 0.33932 0.0
O1907 O 0.19099 0.5179 0.36366 0.0
H1908 H 0.22361 0.52277 0.33405 0.0
H1909 H 0.24897 0.54121 0.33077 0.0
H1910 H 0.27841 0.50367 0.33945 0.0
H1911 H 0.25314 0.48547 0.34283 0.0
H1912 H 0.1805 0.41696 0.34656 0.0
H1913 H 0.18729 0.44599 0.344 0.0
H1914 H 0.13911 0.42685 0.37317 0.0
H1915 H 0.14607 0.45548 0.37078 0.0
H1916 H 0.12931 0.52798 0.36586 0.0
H1917 H 0.1637 0.57173 0.36499 0.0
H1918 H 0.18517 0.55579 0.35705 0.0
H1919 H 0.15108 0.51195 0.35772 0.0
H1920 H 0.07281 0.34603 0.08759 0.0
H1921 H 0.09725 0.38833 0.11652 0.0
H1922 H 0.11434 0.37583 0.07167 0.0
H1923 H 0.07126 0.38836 0.12453 0.0
C1924 C 0.06784 0.37574 0.12616 0.0
C1925 C 0.08224 0.35659 0.08937 0.0
C1926 C 0.09353 0.35961 0.07791 0.0
C1927 C 0.08323 0.36706 0.10326 0.0
C1928 C 0.09588 0.38048 0.10569 0.0
C1929 C 0.10702 0.38377 0.09428 0.0
C1930 C 0.10565 0.37337 0.08043 0.0
N1931 N 0.07186 0.36363 0.11485 0.0
H1932 H 0.96464 0.8948 0.38306 0.0
H1933 H 0.92491 0.91672 0.40327 0.0
H1934 H 0.93547 0.92238 0.35603 0.0
H1935 H 0.94348 0.91914 0.42495 0.0
C1936 C 0.94667 0.90699 0.42418 0.0
C1937 C 0.95472 0.90208 0.38212 0.0
C1938 C 0.95126 0.90846 0.36808 0.0
C1939 C 0.94572 0.90553 0.39513 0.0
C1940 C 0.93257 0.91471 0.39366 0.0
C1941 C 0.92866 0.92058 0.3795 0.0
C1942 C 0.93831 0.91769 0.36695 0.0
N1943 N 0.94973 0.89934 0.4094 0.0
H1944 H 0.40747 0.64889 0.62598 0.0
H1945 H 0.36148 0.61768 0.6109 0.0
H1946 H 0.38958 0.61008 0.65214 0.0
H1947 H 0.36842 0.62397 0.58759 0.0
C1948 C 0.37303 0.63679 0.58948 0.0
C1949 C 0.3981 0.63889 0.62765 0.0
C1950 C 0.40003 0.63003 0.64042 0.0
C1951 C 0.38435 0.63439 0.61664 0.0
C1952 C 0.37239 0.62119 0.61889 0.0
C1953 C 0.3742 0.61255 0.63174 0.0
C1954 C 0.38798 0.61704 0.64241 0.0
N1955 N 0.38278 0.64323 0.60352 0.0
H1956 H 0.57656 0.13073 0.906 0.0
H1957 H 0.59681 0.0957 0.87568 0.0
H1958 H 0.6086 0.09983 0.92493 0.0
H1959 H 0.59535 0.11465 0.85937 0.0
C1960 C 0.5831 0.11799 0.86097 0.0
C1961 C 0.58422 0.12124 0.90433 0.0
C1962 C 0.59235 0.11604 0.91727 0.0
C1963 C 0.58589 0.11412 0.88921 0.0
C1964 C 0.59569 0.1016 0.88718 0.0
C1965 C 0.60412 0.09656 0.9 0.0
C1966 C 0.60232 0.10382 0.91495 0.0
N1967 N 0.57752 0.11956 0.87624 0.0
H1968 H 0.07001 0.62816 0.38861 0.0
H1969 H 0.10094 0.59559 0.4067 0.0
H1970 H 0.0918 0.59515 0.35753 0.0
H1971 H 0.1055 0.61364 0.42672 0.0
C1972 C 0.09427 0.61901 0.42824 0.0
C1973 C 0.07748 0.61853 0.38677 0.0
C1974 C 0.07987 0.6122 0.37152 0.0
C1975 C 0.0854 0.61303 0.39967 0.0
C1976 C 0.0952 0.60056 0.39707 0.0
C1977 C 0.09753 0.59409 0.38191 0.0
C1978 C 0.08978 0.59992 0.36926 0.0
N1979 N 0.08346 0.62029 0.415 0.0
H1980 H 0.58264 0.85304 0.60231 0.0
H1981 H 0.6055 0.89768 0.6284 0.0
H1982 H 0.62353 0.882 0.58469 0.0
H1983 H 0.57997 0.89704 0.63711 0.0
C1984 C 0.57731 0.8846 0.6396 0.0
C1985 C 0.5918 0.86379 0.60347 0.0
C1986 C 0.60297 0.86626 0.59179 0.0
C1987 C 0.59257 0.8751 0.61677 0.0
C1988 C 0.60465 0.88899 0.6182 0.0
C1989 C 0.6158 0.89171 0.60663 0.0
C1990 C 0.61485 0.8802 0.59357 0.0
N1991 N 0.58156 0.8721 0.62879 0.0
H1992 H 0.4544 0.37821 0.86514 0.0
H1993 H 0.41884 0.40186 0.89048 0.0
H1994 H 0.4234 0.40742 0.84216 0.0
H1995 H 0.44185 0.40323 0.90969 0.0
C1996 C 0.44211 0.39029 0.90835 0.0
C1997 C 0.4448 0.38592 0.86552 0.0
C1998 C 0.43974 0.39248 0.852 0.0
C1999 C 0.4374 0.38934 0.87955 0.0
C2000 C 0.4249 0.39938 0.87987 0.0
C2001 C 0.41967 0.40572 0.86635 0.0
C2002 C 0.42717 0.40224 0.85255 0.0
N2003 N 0.44218 0.38225 0.89308 0.0
H2004 H 0.9216 0.15559 0.13273 0.0
H2005 H 0.87888 0.12118 0.11458 0.0
H2006 H 0.90856 0.11222 0.15439 0.0
H2007 H 0.89036 0.12928 0.0914 0.0
C2008 C 0.89105 0.14221 0.09446 0.0
C2009 C 0.91344 0.1444 0.13331 0.0
C2010 C 0.91668 0.13444 0.1449 0.0
C2011 C 0.90011 0.13947 0.12196 0.0
C2012 C 0.8895 0.12494 0.12289 0.0
C2013 C 0.89257 0.11522 0.13462 0.0
C2014 C 0.90621 0.11989 0.1454 0.0
N2015 N 0.89759 0.1491 0.10965 0.0
H2016 H 0.12005 0.05695 0.31052 0.0
H2017 H 0.13587 0.07229 0.35893 0.0
H2018 H 0.09432 0.08995 0.33756 0.0
H2019 H 0.1606 0.06964 0.34942 0.0
C2020 C 0.1579 0.0578 0.34278 0.0
C2021 C 0.1184 0.0636 0.32156 0.0
C2022 C 0.10568 0.07331 0.32272 0.0
C2023 C 0.12943 0.06308 0.33463 0.0
C2024 C 0.12748 0.07235 0.34878 0.0
C2025 C 0.1151 0.08233 0.34973 0.0
C2026 C 0.10396 0.08225 0.33685 0.0
N2027 N 0.14272 0.05373 0.33327 0.0
H2028 H 0.1273 0.85121 0.63641 0.0
H2029 H 0.08622 0.83066 0.66084 0.0
H2030 H 0.10763 0.88011 0.67267 0.0
H2031 H 0.09402 0.80729 0.65247 0.0
C2032 C 0.09925 0.80859 0.64135 0.0
C2033 C 0.11859 0.85234 0.64531 0.0
C2034 C 0.11897 0.86719 0.65447 0.0
C2035 C 0.10722 0.83881 0.64779 0.0
C2036 C 0.0957 0.84054 0.65922 0.0
C2037 C 0.09574 0.85549 0.66806 0.0
C2038 C 0.10758 0.86858 0.6658 0.0
N2039 N 0.10727 0.82396 0.6382 0.0
H2040 H 0.35422 0.93426 0.83617 0.0
H2041 H 0.37572 0.89754 0.85861 0.0
H2042 H 0.33089 0.91253 0.87381 0.0
H2043 H 0.39883 0.90861 0.85034 0.0
C2044 C 0.39541 0.91135 0.83871 0.0
C2045 C 0.3542 0.92606 0.84502 0.0
C2046 C 0.34102 0.92458 0.85494 0.0
C2047 C 0.36717 0.91656 0.84636 0.0
C2048 C 0.36659 0.90564 0.85772 0.0
C2049 C 0.35363 0.90433 0.8676 0.0
C2050 C 0.34098 0.91375 0.86617 0.0
N2051 N 0.3801 0.91742 0.83579 0.0
H2052 H 0.3861 0.16124 0.09102 0.0
H2053 H 0.43145 0.18399 0.11715 0.0
H2054 H 0.40645 0.13928 0.12911 0.0
H2055 H 0.42348 0.20634 0.11002 0.0
C2056 C 0.41787 0.20327 0.09823 0.0
C2057 C 0.39563 0.16134 0.1003 0.0
C2058 C 0.39472 0.14863 0.10979 0.0
C2059 C 0.40852 0.17453 0.10317 0.0
C2060 C 0.42099 0.17444 0.11521 0.0
C2061 C 0.42037 0.1617 0.12453 0.0
C2062 C 0.40714 0.14901 0.12178 0.0
N2063 N 0.40878 0.18757 0.09375 0.0
H2064 H 0.14414 0.95032 0.18092 0.0
H2065 H 0.1533 0.92071 0.13949 0.0
H2066 H 0.11167 0.9062 0.16528 0.0
H2067 H 0.1791 0.93145 0.14529 0.0
C2068 C 0.17876 0.94394 0.14962 0.0
C2069 C 0.14095 0.93958 0.17271 0.0
C2070 C 0.12677 0.92848 0.17448 0.0
C2071 C 0.15105 0.9367 0.16035 0.0
C2072 C 0.14632 0.92287 0.14952 0.0
C2073 C 0.13232 0.91172 0.15141 0.0
C2074 C 0.12273 0.91458 0.16396 0.0
N2075 N 0.16558 0.94791 0.15878 0.0
H2076 H 0.32653 0.85683 0.40104 0.0
H2077 H 0.37073 0.83799 0.38744 0.0
H2078 H 0.35721 0.88025 0.36898 0.0
H2079 H 0.3693 0.82988 0.4121 0.0
C2080 C 0.35628 0.8247 0.41154 0.0
C2081 C 0.33744 0.85752 0.39444 0.0
C2082 C 0.34078 0.87001 0.38496 0.0
C2083 C 0.34815 0.84585 0.39538 0.0
C2084 C 0.36241 0.8469 0.38682 0.0
C2085 C 0.36594 0.85943 0.3774 0.0
C2086 C 0.35486 0.87071 0.37642 0.0
N2087 N 0.34414 0.833 0.40466 0.0
H2088 H 0.33868 0.07961 0.6628 0.0
H2089 H 0.35996 0.1148 0.63409 0.0
H2090 H 0.31261 0.08692 0.62004 0.0
H2091 H 0.38243 0.1162 0.64778 0.0
C2092 C 0.38087 0.11058 0.65839 0.0
C2093 C 0.33812 0.08564 0.65234 0.0
C2094 C 0.324 0.08191 0.64171 0.0
C2095 C 0.3516 0.09705 0.64949 0.0
C2096 C 0.35043 0.10519 0.6361 0.0
C2097 C 0.33643 0.10161 0.62541 0.0
C2098 C 0.32346 0.08975 0.62821 0.0
N2099 N 0.36586 0.1003 0.66041 0.0
H2100 H 0.14985 0.14988 0.89798 0.0
H2101 H 0.13321 0.11951 0.85547 0.0
H2102 H 0.11343 0.16363 0.86564 0.0
H2103 H 0.1617 0.11687 0.85768 0.0
C2104 C 0.16176 0.11341 0.86945 0.0
C2105 C 0.14232 0.14772 0.88705 0.0
C2106 C 0.13148 0.15868 0.88313 0.0
C2107 C 0.14336 0.13379 0.8769 0.0
C2108 C 0.13303 0.13054 0.86302 0.0
C2109 C 0.12208 0.14118 0.859 0.0
C2110 C 0.12177 0.15537 0.86888 0.0
N2111 N 0.15435 0.12282 0.88098 0.0
H2112 H 0.82577 0.35172 0.89844 0.0
H2113 H 0.87009 0.33563 0.88157 0.0
H2114 H 0.85057 0.37484 0.8625 0.0
H2115 H 0.85754 0.3118 0.88698 0.0
C2116 C 0.85203 0.31442 0.89789 0.0
C2117 C 0.83577 0.35268 0.89073 0.0
C2118 C 0.8369 0.36461 0.88043 0.0
C2119 C 0.84723 0.34162 0.89072 0.0
C2120 C 0.86052 0.3433 0.88096 0.0
C2121 C 0.86194 0.35539 0.87085 0.0
C2122 C 0.84982 0.36567 0.87045 0.0
N2123 N 0.84525 0.32908 0.90069 0.0
H2124 H 0.84277 0.57257 0.17404 0.0
H2125 H 0.86599 0.60892 0.14753 0.0
H2126 H 0.81677 0.58528 0.13336 0.0
H2127 H 0.8891 0.602 0.15677 0.0
C2128 C 0.88701 0.59947 0.1686 0.0
C2129 C 0.84249 0.5795 0.16417 0.0
C2130 C 0.8282 0.57738 0.15377 0.0
C2131 C 0.85654 0.59041 0.16172 0.0
C2132 C 0.85575 0.59979 0.1492 0.0
C2133 C 0.84153 0.59785 0.13888 0.0
C2134 C 0.82796 0.58645 0.14107 0.0
N2135 N 0.87104 0.59216 0.17219 0.0
H2136 H 0.65466 0.657 0.39968 0.0
H2137 H 0.62885 0.62885 0.35902 0.0
H2138 H 0.61642 0.67568 0.37363 0.0
H2139 H 0.65606 0.62323 0.35633 0.0
C2140 C 0.65821 0.61967 0.36792 0.0
C2141 C 0.64542 0.65571 0.38995 0.0
C2142 C 0.63577 0.66815 0.38792 0.0
C2143 C 0.64352 0.6418 0.37912 0.0
C2144 C 0.63115 0.63998 0.36673 0.0
C2145 C 0.62115 0.65204 0.36475 0.0
C2146 C 0.62392 0.66621 0.37518 0.0
N2147 N 0.6538 0.62957 0.38094 0.0
H2148 H 0.84917 0.43733 0.32022 0.0
H2149 H 0.87176 0.40316 0.34518 0.0
H2150 H 0.83115 0.4242 0.36362 0.0
H2151 H 0.89453 0.41439 0.33526 0.0
C2152 C 0.89002 0.41445 0.32321 0.0
C2153 C 0.85007 0.43068 0.33023 0.0
C2154 C 0.83892 0.43219 0.34201 0.0
C2155 C 0.86254 0.4207 0.33157 0.0
C2156 C 0.86295 0.4116 0.34433 0.0
C2157 C 0.85179 0.41291 0.35593 0.0
C2158 C 0.84007 0.42345 0.35485 0.0
N2159 N 0.87423 0.41945 0.31995 0.0
H2160 H 0.60847 0.54864 0.80702 0.0
H2161 H 0.62571 0.5622 0.85538 0.0
H2162 H 0.58545 0.58288 0.83559 0.0
H2163 H 0.65002 0.55942 0.84497 0.0
C2164 C 0.64687 0.54763 0.8383 0.0
C2165 C 0.60743 0.55523 0.81824 0.0
C2166 C 0.59535 0.56563 0.81998 0.0
C2167 C 0.61866 0.55395 0.83096 0.0
C2168 C 0.61735 0.56296 0.84539 0.0
C2169 C 0.6054 0.57329 0.84699 0.0
C2170 C 0.59438 0.57445 0.83438 0.0
N2171 N 0.63149 0.54408 0.82905 0.0
H2172 H 0.90023 0.6472 0.90328 0.0
H2173 H 0.88622 0.60614 0.86888 0.0
H2174 H 0.85949 0.61084 0.90993 0.0
H2175 H 0.9156 0.60942 0.87046 0.0
C2176 C 0.91715 0.62189 0.86789 0.0
C2177 C 0.89214 0.63607 0.89917 0.0
C2178 C 0.87965 0.62987 0.9084 0.0
C2179 C 0.89483 0.62734 0.88504 0.0
C2180 C 0.88438 0.61279 0.87986 0.0
C2181 C 0.87169 0.60667 0.88881 0.0
C2182 C 0.86945 0.61532 0.90303 0.0
N2183 N 0.9083 0.63295 0.87629 0.0
H2184 H 0.05372 0.12898 0.61515 0.0
H2185 H 0.09212 0.10424 0.59593 0.0
H2186 H 0.07579 0.09499 0.64067 0.0
H2187 H 0.07645 0.10618 0.57352 0.0
C2188 C 0.07493 0.11885 0.57521 0.0
C2189 C 0.06249 0.12049 0.6161 0.0
C2190 C 0.06337 0.11215 0.62938 0.0
C2191 C 0.07249 0.11739 0.60371 0.0
C2192 C 0.08388 0.10633 0.60504 0.0
C2193 C 0.08518 0.09835 0.61841 0.0
C2194 C 0.07486 0.10128 0.6304 0.0
N2195 N 0.07108 0.12555 0.59012 0.0
H2196 H 0.55493 0.35346 0.39004 0.0
H2197 H 0.60203 0.37697 0.4124 0.0
H2198 H 0.58531 0.38943 0.36818 0.0
H2199 H 0.60128 0.35614 0.42476 0.0
C2200 C 0.58843 0.35186 0.4265 0.0
C2201 C 0.56621 0.36194 0.39005 0.0
C2202 C 0.56853 0.3715 0.37765 0.0
C2203 C 0.57834 0.36351 0.40264 0.0
C2204 C 0.59278 0.37496 0.40269 0.0
C2205 C 0.59548 0.38409 0.39017 0.0
C2206 C 0.58332 0.38223 0.37778 0.0
N2207 N 0.57562 0.35383 0.41519 0.0
H2208 H 0.40921 0.8652 0.11217 0.0
H2209 H 0.40442 0.90968 0.13958 0.0
H2210 H 0.38515 0.90122 0.09175 0.0
H2211 H 0.43372 0.90346 0.14684 0.0
C2212 C 0.42784 0.89233 0.15077 0.0
C2213 C 0.40507 0.87692 0.11314 0.0
C2214 C 0.39738 0.88234 0.10008 0.0
C2215 C 0.40806 0.88697 0.1273 0.0
C2216 C 0.40256 0.90213 0.12854 0.0
C2217 C 0.39418 0.90733 0.11579 0.0
C2218 C 0.3919 0.89746 0.10159 0.0
N2219 N 0.41618 0.88164 0.14039 0.0
H2220 H 0.90378 0.39025 0.606 0.0
H2221 H 0.89368 0.43241 0.63424 0.0
H2222 H 0.87555 0.4239 0.58631 0.0
H2223 H 0.91658 0.42961 0.64757 0.0
C2224 C 0.91564 0.41668 0.64797 0.0
C2225 C 0.89834 0.40131 0.60719 0.0
C2226 C 0.88979 0.40616 0.59425 0.0
C2227 C 0.90026 0.41094 0.62162 0.0
C2228 C 0.89291 0.42516 0.62312 0.0
C2229 C 0.88414 0.43001 0.61042 0.0
C2230 C 0.88276 0.4205 0.59605 0.0
N2231 N 0.90908 0.40591 0.63458 0.0
H2232 H 0.41047 0.15828 0.39335 0.0
H2233 H 0.3983 0.11492 0.36149 0.0
H2234 H 0.37197 0.12092 0.40267 0.0
H2235 H 0.42815 0.11987 0.3637 0.0
C2236 C 0.42862 0.13178 0.35976 0.0
C2237 C 0.40296 0.14666 0.38997 0.0
C2238 C 0.39095 0.14053 0.39969 0.0
C2239 C 0.40591 0.13728 0.3763 0.0
C2240 C 0.39622 0.12209 0.3721 0.0
C2241 C 0.38403 0.11603 0.38158 0.0
C2242 C 0.38151 0.12536 0.39532 0.0
N2243 N 0.41896 0.14281 0.36706 0.0
H2244 H 0.55546 0.6272 0.11686 0.0
H2245 H 0.59398 0.6021 0.09854 0.0
H2246 H 0.57911 0.59581 0.14445 0.0
H2247 H 0.59951 0.62735 0.08847 0.0
C2248 C 0.58704 0.62755 0.08336 0.0
C2249 C 0.56449 0.61904 0.11826 0.0
C2250 C 0.56592 0.61177 0.13214 0.0
C2251 C 0.57476 0.61585 0.10616 0.0
C2252 C 0.58629 0.60501 0.10791 0.0
C2253 C 0.58791 0.59783 0.12174 0.0
C2254 C 0.57779 0.60135 0.13376 0.0
N2255 N 0.57326 0.62345 0.09228 0.0
H2256 H 0.05354 0.8569 0.90548 0.0
H2257 H 0.10148 0.87616 0.92873 0.0
H2258 H 0.08734 0.89023 0.88406 0.0
H2259 H 0.09803 0.84877 0.9341 0.0
C2260 C 0.08589 0.84842 0.93875 0.0
C2261 C 0.06537 0.86463 0.90583 0.0
C2262 C 0.06927 0.87343 0.89325 0.0
C2263 C 0.0771 0.86524 0.91855 0.0
C2264 C 0.09249 0.87534 0.91886 0.0
C2265 C 0.09634 0.88434 0.9064 0.0
C2266 C 0.08464 0.88321 0.89368 0.0
N2267 N 0.07341 0.85543 0.93075 0.0
H2268 H 0.88729 0.96411 0.68896 0.0
H2269 H 0.88511 0.95785 0.63882 0.0
H2270 H 0.92504 0.94253 0.66543 0.0
H2271 H 0.87616 0.98468 0.64544 0.0
C2272 C 0.86608 0.97945 0.65187 0.0
C2273 C 0.89256 0.96021 0.67827 0.0
C2274 C 0.90758 0.9537 0.67884 0.0
C2275 C 0.88462 0.96218 0.66383 0.0
C2276 C 0.89143 0.95685 0.64997 0.0
C2277 C 0.90606 0.94978 0.65045 0.0
C2278 C 0.91405 0.94846 0.66492 0.0
N2279 N 0.86966 0.96917 0.66331 0.0
H2280 H 0.85714 0.15861 0.38553 0.0
H2281 H 0.90032 0.19004 0.3747 0.0
H2282 H 0.89206 0.14036 0.35551 0.0
H2283 H 0.89746 0.19993 0.4008 0.0
C2284 C 0.88434 0.20114 0.39981 0.0
C2285 C 0.8685 0.16047 0.37962 0.0
C2286 C 0.87343 0.14761 0.3702 0.0
C2287 C 0.87824 0.17578 0.38151 0.0
C2288 C 0.89292 0.17822 0.37366 0.0
C2289 C 0.89802 0.16541 0.36436 0.0
C2290 C 0.8882 0.15025 0.36276 0.0
N2291 N 0.87299 0.18855 0.39121 0.0
H2292 H 0.63319 0.06873 0.19231 0.0
H2293 H 0.65222 0.06795 0.14683 0.0
H2294 H 0.61142 0.09339 0.15696 0.0
H2295 H 0.65462 0.04127 0.15329 0.0
C2296 C 0.66169 0.04546 0.16433 0.0
C2297 C 0.63257 0.07195 0.18051 0.0
C2298 C 0.62094 0.08175 0.17583 0.0
C2299 C 0.64364 0.06653 0.16996 0.0
C2300 C 0.64323 0.07132 0.15482 0.0
C2301 C 0.63153 0.08088 0.15009 0.0
C2302 C 0.62032 0.08576 0.16055 0.0
N2303 N 0.65564 0.05698 0.17488 0.0
H2304 H 0.64411 0.84474 0.90289 0.0
H2305 H 0.59883 0.82299 0.87601 0.0
H2306 H 0.6213 0.87068 0.86924 0.0
H2307 H 0.59475 0.81308 0.90008 0.0
C2308 C 0.60654 0.80867 0.90207 0.0
C2309 C 0.63424 0.84531 0.8941 0.0
C2310 C 0.6342 0.85921 0.88637 0.0
C2311 C 0.6214 0.83218 0.89061 0.0
C2312 C 0.6087 0.83302 0.87903 0.0
C2313 C 0.60859 0.84695 0.87142 0.0
C2314 C 0.62136 0.85991 0.87514 0.0
N2315 N 0.62143 0.81836 0.89887 0.0
H2316 H 0.84269 0.05847 0.83166 0.0
H2317 H 0.86869 0.10199 0.8579 0.0
H2318 H 0.82503 0.07721 0.8746 0.0
H2319 H 0.88988 0.096 0.84612 0.0
C2320 C 0.8856 0.09017 0.83457 0.0
C2321 C 0.84402 0.06746 0.8417 0.0
C2322 C 0.83246 0.06631 0.85315 0.0
C2323 C 0.85754 0.08008 0.84343 0.0
C2324 C 0.85883 0.09187 0.85646 0.0
C2325 C 0.84736 0.09072 0.86791 0.0
C2326 C 0.83425 0.07795 0.86606 0.0
N2327 N 0.86956 0.08069 0.83201 0.0
H2328 H 0.64549 0.17142 0.60453 0.0
H2329 H 0.63031 0.14719 0.64393 0.0
H2330 H 0.60939 0.18926 0.63341 0.0
H2331 H 0.63201 0.12546 0.62602 0.0
C2332 C 0.64451 0.12917 0.62271 0.0
C2333 C 0.63807 0.17048 0.61446 0.0
C2334 C 0.62773 0.18219 0.61832 0.0
C2335 C 0.63875 0.15751 0.62345 0.0
C2336 C 0.62925 0.15664 0.6365 0.0
C2337 C 0.6185 0.16792 0.64017 0.0
C2338 C 0.6179 0.18064 0.63099 0.0
N2339 N 0.64888 0.14538 0.61934 0.0
H2340 H 0.63318 0.92546 0.33354 0.0
H2341 H 0.66036 0.9089 0.37148 0.0
H2342 H 0.60949 0.88895 0.35974 0.0
H2343 H 0.67112 0.9373 0.37381 0.0
C2344 C 0.67445 0.93722 0.36183 0.0
C2345 C 0.63351 0.9179 0.34293 0.0
C2346 C 0.6193 0.90708 0.3454 0.0
C2347 C 0.64827 0.91894 0.35253 0.0
C2348 C 0.64889 0.9088 0.36445 0.0
C2349 C 0.63497 0.89782 0.36675 0.0
C2350 C 0.62025 0.89725 0.35748 0.0
N2351 N 0.66256 0.92972 0.34967 0.0
H2352 H 0.83376 0.85455 0.12223 0.0
H2353 H 0.88053 0.83783 0.13229 0.0
H2354 H 0.87108 0.88333 0.15442 0.0
H2355 H 0.87439 0.82918 0.10485 0.0
C2356 C 0.86195 0.82291 0.10571 0.0
C2357 C 0.84595 0.85628 0.12839 0.0
C2358 C 0.85119 0.87029 0.13872 0.0
C2359 C 0.85649 0.84453 0.12588 0.0
C2360 C 0.87233 0.84684 0.13398 0.0
C2361 C 0.87767 0.8609 0.14421 0.0
C2362 C 0.867 0.87247 0.14653 0.0
N2363 N 0.85098 0.83052 0.11521 0.0
H2364 H 0.14431 0.66017 0.10476 0.0
H2365 H 0.13231 0.63317 0.14329 0.0
H2366 H 0.11112 0.67632 0.13792 0.0
H2367 H 0.1606 0.63072 0.14151 0.0
C2368 C 0.15953 0.62616 0.12924 0.0
C2369 C 0.13781 0.65864 0.11518 0.0
C2370 C 0.12773 0.67008 0.12058 0.0
C2371 C 0.14 0.64554 0.12364 0.0
C2372 C 0.13128 0.64354 0.13704 0.0
C2373 C 0.1209 0.65461 0.14227 0.0
C2374 C 0.11941 0.66792 0.13411 0.0
N2375 N 0.15072 0.63432 0.11853 0.0
H2376 H 0.12364 0.42156 0.82285 0.0
H2377 H 0.14919 0.40175 0.8596 0.0
H2378 H 0.09689 0.38717 0.84923 0.0
H2379 H 0.16148 0.43058 0.86294 0.0
C2380 C 0.16497 0.43012 0.85099 0.0
C2381 C 0.12329 0.41384 0.83213 0.0
C2382 C 0.10836 0.40416 0.83467 0.0
C2383 C 0.1379 0.41351 0.84152 0.0
C2384 C 0.13774 0.40285 0.85305 0.0
C2385 C 0.12306 0.39289 0.85544 0.0
C2386 C 0.10839 0.39422 0.84673 0.0
N2387 N 0.15287 0.42333 0.83874 0.0
H2388 H 0.32219 0.35678 0.61288 0.0
H2389 H 0.3707 0.3427 0.61935 0.0
H2390 H 0.36098 0.38763 0.64213 0.0
H2391 H 0.36329 0.33598 0.59154 0.0
C2392 C 0.35161 0.3285 0.59295 0.0
C2393 C 0.3348 0.35934 0.61811 0.0
C2394 C 0.34004 0.37362 0.62819 0.0
C2395 C 0.34591 0.34835 0.61452 0.0
C2396 C 0.36217 0.3513 0.62168 0.0
C2397 C 0.36753 0.36541 0.63173 0.0
C2398 C 0.35655 0.37657 0.63466 0.0
N2399 N 0.34067 0.33448 0.60359 0.0
H2400 H 0.11718 0.56299 0.70361 0.0
H2401 H 0.12986 0.57372 0.65774 0.0
H2402 H 0.08796 0.59131 0.67772 0.0
H2403 H 0.13732 0.54813 0.65706 0.0
C2404 C 0.14411 0.54911 0.66838 0.0
C2405 C 0.11455 0.5683 0.69301 0.0
C2406 C 0.10131 0.57726 0.69192 0.0
C2407 C 0.12437 0.56616 0.68034 0.0
C2408 C 0.12152 0.57407 0.66701 0.0
C2409 C 0.10863 0.5835 0.66617 0.0
C2410 C 0.09814 0.58427 0.67835 0.0
N2411 N 0.13761 0.55684 0.68157 0.0
H2412 H 0.38137 0.44489 0.17575 0.0
H2413 H 0.37616 0.43218 0.12587 0.0
H2414 H 0.41318 0.41424 0.15362 0.0
H2415 H 0.36691 0.45649 0.12647 0.0
C2416 C 0.35881 0.45599 0.13599 0.0
C2417 C 0.38549 0.43897 0.16528 0.0
C2418 C 0.39828 0.42936 0.16639 0.0
C2419 C 0.37765 0.44052 0.15061 0.0
C2420 C 0.38264 0.43207 0.13712 0.0
C2421 C 0.3953 0.42245 0.13827 0.0
C2422 C 0.40329 0.42161 0.1528 0.0
N2423 N 0.36411 0.44961 0.14979 0.0
H2424 H 0.63844 0.3493 0.13002 0.0
H2425 H 0.59399 0.32529 0.14725 0.0
H2426 H 0.61059 0.37524 0.16205 0.0
H2427 H 0.60485 0.30324 0.14111 0.0
C2428 C 0.61168 0.30508 0.1309 0.0
C2429 C 0.62803 0.34951 0.13723 0.0
C2430 C 0.62593 0.3639 0.14618 0.0
C2431 C 0.61691 0.33526 0.13785 0.0
C2432 C 0.60325 0.33577 0.14712 0.0
C2433 C 0.60094 0.35021 0.15572 0.0
C2434 C 0.61239 0.36409 0.15534 0.0
N2435 N 0.61946 0.32083 0.1287 0.0
H2436 H 0.88944 0.68703 0.60732 0.0
H2437 H 0.93163 0.70946 0.63803 0.0
H2438 H 0.90464 0.66426 0.647 0.0
H2439 H 0.91686 0.73265 0.63042 0.0
C2440 C 0.91802 0.72907 0.61816 0.0
C2441 C 0.89771 0.68692 0.61756 0.0
C2442 C 0.89512 0.6742 0.62695 0.0
C2443 C 0.91061 0.6999 0.62171 0.0
C2444 C 0.92137 0.69979 0.63503 0.0
C2445 C 0.91947 0.68672 0.64396 0.0
C2446 C 0.90621 0.67422 0.63995 0.0
N2447 N 0.91296 0.71266 0.61207 0.0
H2448 H 0.63065 0.46744 0.66708 0.0
H2449 H 0.65262 0.43903 0.63177 0.0
H2450 H 0.60724 0.41943 0.6498 0.0
H2451 H 0.67663 0.45296 0.64825 0.0
C2452 C 0.67333 0.46488 0.64706 0.0
C2453 C 0.6305 0.45631 0.65956 0.0
C2454 C 0.61729 0.44359 0.65957 0.0
C2455 C 0.64352 0.45467 0.64974 0.0
C2456 C 0.643 0.44027 0.63974 0.0
C2457 C 0.62997 0.42752 0.63982 0.0
C2458 C 0.61736 0.42926 0.64984 0.0
N2459 N 0.65679 0.46763 0.64965 0.0
H2460 H 0.35579 0.64396 0.88935 0.0
H2461 H 0.39446 0.67613 0.8718 0.0
H2462 H 0.3851 0.6263 0.85342 0.0
H2463 H 0.37912 0.69479 0.88022 0.0
C2464 C 0.37401 0.69096 0.89076 0.0
C2465 C 0.3657 0.64605 0.88166 0.0
C2466 C 0.36959 0.63321 0.87153 0.0
C2467 C 0.37447 0.66164 0.88186 0.0
C2468 C 0.38735 0.6643 0.87182 0.0
C2469 C 0.39111 0.65153 0.86161 0.0
C2470 C 0.38232 0.63606 0.86158 0.0
N2471 N 0.37009 0.67425 0.89234 0.0
H2472 H 0.13948 0.3439 0.37951 0.0
H2473 H 0.09344 0.31692 0.35804 0.0
H2474 H 0.11271 0.36189 0.34228 0.0
H2475 H 0.09158 0.31228 0.38399 0.0
C2476 C 0.10357 0.30835 0.38621 0.0
C2477 C 0.12912 0.34243 0.37081 0.0
C2478 C 0.12782 0.35432 0.36062 0.0
C2479 C 0.11675 0.32882 0.37002 0.0
C2480 C 0.10312 0.32722 0.35884 0.0
C2481 C 0.10167 0.3392 0.34895 0.0
C2482 C 0.1141 0.35251 0.34977 0.0
N2483 N 0.11791 0.31714 0.38077 0.0
H2484 H 0.33689 0.56482 0.31764 0.0
H2485 H 0.3604 0.60731 0.34707 0.0
H2486 H 0.31437 0.58203 0.35863 0.0
H2487 H 0.38304 0.60123 0.3377 0.0
C2488 C 0.37999 0.59609 0.32571 0.0
C2489 C 0.33701 0.57358 0.32773 0.0
C2490 C 0.32393 0.57213 0.33766 0.0
C2491 C 0.35059 0.586 0.33116 0.0
C2492 C 0.35055 0.59724 0.3444 0.0
C2493 C 0.33754 0.59587 0.35429 0.0
C2494 C 0.32429 0.58332 0.35083 0.0
N2495 N 0.36404 0.58694 0.32125 0.0
C2496 C 0.1381 0.41991 0.08751 0.0
C2497 C 0.14845 0.42215 0.10136 0.0
H2498 H 0.11682 0.40601 0.07444 0.0
C2499 C 0.14443 0.41232 0.11319 0.0
H2500 H 0.14092 0.42723 0.07816 0.0
C2501 C 0.13068 0.40021 0.11107 0.0
C2502 C 0.12068 0.39759 0.09703 0.0
H2503 H 0.15205 0.41386 0.12406 0.0
H2504 H 0.12821 0.39255 0.12023 0.0
C2505 C 0.1244 0.40769 0.08534 0.0
C2506 C 0.88958 0.93261 0.36129 0.0
C2507 C 0.88628 0.94503 0.37225 0.0
H2508 H 0.90529 0.91502 0.35519 0.0
C2509 C 0.89707 0.94943 0.38575 0.0
H2510 H 0.88164 0.92904 0.35069 0.0
C2511 C 0.91079 0.94141 0.38829 0.0
C2512 C 0.91401 0.92898 0.37729 0.0
H2513 H 0.89476 0.95886 0.39447 0.0
H2514 H 0.91898 0.94504 0.39873 0.0
C2515 C 0.90323 0.92466 0.3638 0.0
C2516 C 0.35013 0.57062 0.62486 0.0
C2517 C 0.34276 0.5693 0.63904 0.0
H2518 H 0.36568 0.5856 0.61135 0.0
C2519 C 0.34481 0.58273 0.65035 0.0
H2520 H 0.34864 0.56046 0.61591 0.0
C2521 C 0.35463 0.59703 0.64776 0.0
C2522 C 0.36229 0.59819 0.63373 0.0
H2523 H 0.33934 0.58198 0.6614 0.0
H2524 H 0.35653 0.6071 0.65683 0.0
C2525 C 0.35973 0.58499 0.62219 0.0
C2526 C 0.63971 0.07249 0.90525 0.0
C2527 C 0.63391 0.0581 0.89568 0.0
H2528 H 0.63494 0.09599 0.91395 0.0
C2529 C 0.61855 0.05674 0.88697 0.0
H2530 H 0.65142 0.07388 0.9122 0.0
C2531 C 0.60904 0.06935 0.88808 0.0
C2532 C 0.61467 0.08358 0.89795 0.0
H2533 H 0.61382 0.04588 0.87933 0.0
H2534 H 0.59709 0.06779 0.88153 0.0
C2535 C 0.6302 0.08509 0.90638 0.0
C2536 C 0.13643 0.5743 0.38278 0.0
C2537 C 0.13212 0.56106 0.37131 0.0
H2538 H 0.12882 0.59505 0.39514 0.0
C2539 C 0.11591 0.55807 0.36416 0.0
H2540 H 0.14879 0.57681 0.38859 0.0
C2541 C 0.10446 0.56851 0.36795 0.0
C2542 C 0.10896 0.58202 0.37908 0.0
H2543 H 0.11229 0.54803 0.35523 0.0
H2544 H 0.09217 0.5662 0.36199 0.0
C2545 C 0.12496 0.58464 0.38664 0.0
C2546 C 0.64623 0.9269 0.59628 0.0
C2547 C 0.65431 0.93311 0.61084 0.0
H2548 H 0.62742 0.90952 0.58358 0.0
C2549 C 0.64924 0.92602 0.62411 0.0
H2550 H 0.64973 0.93222 0.58586 0.0
C2551 C 0.63666 0.91275 0.62281 0.0
C2552 C 0.62869 0.90635 0.6082 0.0
H2553 H 0.65538 0.93039 0.63548 0.0
H2554 H 0.63358 0.90725 0.63323 0.0
C2555 C 0.6335 0.9138 0.59498 0.0
C2556 C 0.38216 0.42429 0.85353 0.0
C2557 C 0.38354 0.43814 0.86427 0.0
H2558 H 0.39252 0.40307 0.8459 0.0
C2559 C 0.39618 0.44061 0.87642 0.0
H2560 H 0.37265 0.42213 0.84398 0.0
C2561 C 0.40753 0.4297 0.87752 0.0
C2562 C 0.40652 0.4162 0.86641 0.0
H2563 H 0.39743 0.45111 0.88497 0.0
H2564 H 0.41747 0.43213 0.88669 0.0
C2565 C 0.39358 0.41345 0.85456 0.0
C2566 C 0.87806 0.07089 0.13462 0.0
C2567 C 0.86317 0.07094 0.14208 0.0
H2568 H 0.89901 0.08503 0.12637 0.0
C2569 C 0.85749 0.08578 0.146 0.0
H2570 H 0.88266 0.05969 0.13114 0.0
C2571 C 0.86669 0.10021 0.14286 0.0
C2572 C 0.88173 0.10004 0.13585 0.0
H2573 H 0.84622 0.08631 0.15194 0.0
H2574 H 0.86239 0.11155 0.14641 0.0
C2575 C 0.88732 0.08532 0.13167 0.0
C2576 C 0.1152 0.10275 0.39098 0.0
C2577 C 0.11428 0.11871 0.388 0.0
H2578 H 0.11647 0.07849 0.38104 0.0
C2579 C 0.11357 0.12245 0.3726 0.0
H2580 H 0.11578 0.09965 0.40282 0.0
C2581 C 0.11396 0.11058 0.36036 0.0
C2582 C 0.11496 0.0946 0.36318 0.0
H2583 H 0.11268 0.13464 0.37 0.0
H2584 H 0.1136 0.11396 0.34861 0.0
C2585 C 0.11571 0.09074 0.3786 0.0
C2586 C 0.06204 0.87439 0.68781 0.0
C2587 C 0.05914 0.86504 0.70016 0.0
H2588 H 0.07577 0.87853 0.66798 0.0
C2589 C 0.06816 0.85216 0.70183 0.0
H2590 H 0.05533 0.88445 0.68633 0.0
C2591 C 0.0798 0.84863 0.69114 0.0
C2592 C 0.08275 0.85816 0.67889 0.0
H2593 H 0.06606 0.84476 0.71125 0.0
H2594 H 0.08672 0.83872 0.69261 0.0
C2595 C 0.07374 0.87103 0.67734 0.0
C2596 C 0.33808 0.86876 0.88846 0.0
C2597 C 0.35075 0.86945 0.90035 0.0
H2598 H 0.32918 0.8794 0.86874 0.0
C2599 C 0.36427 0.88194 0.90159 0.0
H2600 H 0.32747 0.85933 0.8873 0.0
C2601 C 0.3653 0.89329 0.89087 0.0
C2602 C 0.3527 0.89243 0.87894 0.0
H2603 H 0.37426 0.88265 0.91056 0.0
H2604 H 0.37588 0.90275 0.89188 0.0
C2605 C 0.33902 0.88021 0.87789 0.0
C2606 C 0.44926 0.17484 0.16097 0.0
C2607 C 0.45398 0.16006 0.16451 0.0
H2608 H 0.43487 0.18697 0.14568 0.0
C2609 C 0.44887 0.14624 0.15392 0.0
H2610 H 0.45321 0.18582 0.16868 0.0
C2611 C 0.43871 0.14701 0.14055 0.0
C2612 C 0.43316 0.16156 0.1375 0.0
H2613 H 0.45208 0.13461 0.15625 0.0
H2614 H 0.43479 0.13604 0.1328 0.0
C2615 C 0.43891 0.17557 0.14765 0.0
C2616 C 0.11611 0.86891 0.134 0.0
C2617 C 0.11468 0.87072 0.11806 0.0
H2618 H 0.12293 0.88055 0.1571 0.0
C2619 C 0.11988 0.8859 0.11314 0.0
H2620 H 0.11216 0.85736 0.1381 0.0
C2621 C 0.12606 0.89909 0.12395 0.0
C2622 C 0.12709 0.89741 0.13991 0.0
H2623 H 0.11912 0.88758 0.1009 0.0
H2624 H 0.12959 0.91072 0.11984 0.0
C2625 C 0.12218 0.88217 0.14484 0.0
C2626 C 0.40277 0.87823 0.35735 0.0
C2627 C 0.40839 0.86466 0.34985 0.0
H2628 H 0.38563 0.88723 0.37244 0.0
C2629 C 0.40061 0.84921 0.35214 0.0
H2630 H 0.40879 0.89028 0.3561 0.0
C2631 C 0.38701 0.8474 0.3613 0.0
C2632 C 0.3811 0.86103 0.36852 0.0
H2633 H 0.40475 0.83854 0.3465 0.0
H2634 H 0.38087 0.83535 0.36235 0.0
C2635 C 0.38943 0.87644 0.36668 0.0
C2636 C 0.34767 0.1262 0.59215 0.0
C2637 C 0.33245 0.13132 0.58807 0.0
H2638 H 0.3608 0.11246 0.60681 0.0
C2639 C 0.31831 0.12551 0.59549 0.0
H2640 H 0.35885 0.13053 0.58679 0.0
C2641 C 0.31955 0.11561 0.60734 0.0
C2642 C 0.3349 0.11098 0.61186 0.0
H2643 H 0.30631 0.12894 0.59245 0.0
H2644 H 0.30854 0.1121 0.61331 0.0
C2645 C 0.34885 0.11605 0.60384 0.0
C2646 C 0.09208 0.14492 0.82473 0.0
C2647 C 0.08257 0.12953 0.82277 0.0
H2648 H 0.11231 0.16065 0.83759 0.0
C2649 C 0.08746 0.11755 0.83149 0.0
H2650 H 0.08862 0.15441 0.8182 0.0
C2651 C 0.10085 0.12115 0.84267 0.0
C2652 C 0.10974 0.13681 0.84536 0.0
H2653 H 0.08053 0.10549 0.83007 0.0
H2654 H 0.10365 0.11185 0.84977 0.0
C2655 C 0.10554 0.14853 0.83594 0.0
C2656 C 0.89547 0.34695 0.84354 0.0
C2657 C 0.90202 0.36264 0.8407 0.0
H2658 H 0.87747 0.33227 0.85505 0.0
C2659 C 0.8958 0.37581 0.84832 0.0
H2660 H 0.90004 0.33656 0.83782 0.0
C2661 C 0.88315 0.3734 0.85834 0.0
C2662 C 0.87617 0.35772 0.86086 0.0
H2663 H 0.90088 0.38806 0.8467 0.0
H2664 H 0.8789 0.38391 0.86418 0.0
C2665 C 0.88261 0.3445 0.85347 0.0
C2666 C 0.83236 0.61302 0.09996 0.0
C2667 C 0.8367 0.62973 0.1038 0.0
H2668 H 0.83045 0.58969 0.10821 0.0
C2669 C 0.84315 0.63576 0.11897 0.0
H2670 H 0.82733 0.60813 0.08833 0.0
C2671 C 0.84498 0.62534 0.13022 0.0
C2672 C 0.84035 0.60865 0.12655 0.0
H2673 H 0.84674 0.6486 0.12216 0.0
H2674 H 0.84965 0.63039 0.14191 0.0
C2675 C 0.83406 0.60254 0.11131 0.0
C2676 C 0.59448 0.63817 0.32677 0.0
C2677 C 0.57943 0.64367 0.33022 0.0
H2678 H 0.61957 0.63667 0.3348 0.0
C2679 C 0.57858 0.65253 0.34473 0.0
H2680 H 0.59556 0.63123 0.31574 0.0
C2681 C 0.59208 0.65524 0.35575 0.0
C2682 C 0.60707 0.64952 0.35252 0.0
H2683 H 0.56732 0.65724 0.34771 0.0
H2684 H 0.59053 0.66151 0.367 0.0
C2685 C 0.60817 0.64109 0.33779 0.0
C2686 C 0.85137 0.37559 0.37664 0.0
C2687 C 0.84972 0.38162 0.39211 0.0
H2688 H 0.85318 0.38075 0.35312 0.0
C2689 C 0.84923 0.39817 0.39577 0.0
H2690 H 0.85205 0.36293 0.37352 0.0
C2691 C 0.85006 0.40845 0.38405 0.0
C2692 C 0.85155 0.40234 0.36856 0.0
H2693 H 0.84794 0.40309 0.40761 0.0
H2694 H 0.84955 0.42116 0.38709 0.0
C2695 C 0.85226 0.38583 0.36499 0.0
C2696 C 0.61441 0.61206 0.87317 0.0
C2697 C 0.60258 0.60973 0.88419 0.0
H2698 H 0.62471 0.60198 0.85287 0.0
C2699 C 0.59291 0.59454 0.88397 0.0
H2700 H 0.62205 0.62366 0.87318 0.0
C2701 C 0.59439 0.58216 0.87227 0.0
C2702 C 0.60579 0.58482 0.86095 0.0
H2703 H 0.58365 0.59253 0.8923 0.0
H2704 H 0.58623 0.57079 0.87167 0.0
C2705 C 0.61603 0.59969 0.86167 0.0
C2706 C 0.84378 0.56677 0.88915 0.0
C2707 C 0.83706 0.56371 0.87363 0.0
H2708 H 0.86023 0.58248 0.90601 0.0
C2709 C 0.84282 0.57427 0.86289 0.0
H2710 H 0.83956 0.55899 0.89777 0.0
C2711 C 0.85441 0.58796 0.8677 0.0
C2712 C 0.86059 0.59136 0.88335 0.0
H2713 H 0.83812 0.57215 0.85079 0.0
H2714 H 0.85805 0.59617 0.85926 0.0
C2715 C 0.85546 0.58039 0.89393 0.0
C2716 C 0.11671 0.07517 0.63625 0.0
C2717 C 0.11753 0.0628 0.62427 0.0
H2718 H 0.10604 0.09623 0.64366 0.0
C2719 C 0.10841 0.06282 0.60996 0.0
H2720 H 0.12343 0.07543 0.64746 0.0
C2721 C 0.09831 0.07468 0.60784 0.0
C2722 C 0.09711 0.08672 0.62 0.0
H2723 H 0.10893 0.05355 0.60045 0.0
H2724 H 0.09104 0.07411 0.59686 0.0
C2725 C 0.10661 0.08699 0.63413 0.0
C2726 C 0.63178 0.40992 0.37536 0.0
C2727 C 0.63731 0.42107 0.38845 0.0
H2728 H 0.61456 0.38931 0.36578 0.0
C2729 C 0.6299 0.41902 0.40254 0.0
H2730 H 0.63706 0.41115 0.36429 0.0
C2731 C 0.61673 0.40665 0.4033 0.0
C2732 C 0.61072 0.396 0.39001 0.0
H2733 H 0.63402 0.4272 0.41292 0.0
H2734 H 0.61083 0.40586 0.41413 0.0
C2735 C 0.61871 0.39751 0.37616 0.0
C2736 C 0.37589 0.94437 0.10593 0.0
C2737 C 0.36602 0.94675 0.11847 0.0
H2738 H 0.39294 0.93013 0.09538 0.0
C2739 C 0.36725 0.93751 0.13101 0.0
H2740 H 0.37516 0.95133 0.09612 0.0
C2741 C 0.37722 0.92533 0.13054 0.0
C2742 C 0.38624 0.92216 0.11753 0.0
H2743 H 0.35993 0.93927 0.14092 0.0
H2744 H 0.37706 0.91779 0.13996 0.0
C2745 C 0.38593 0.93217 0.10547 0.0
C2746 C 0.86506 0.4672 0.60191 0.0
C2747 C 0.856 0.46965 0.61503 0.0
H2748 H 0.88133 0.45286 0.59024 0.0
C2749 C 0.85745 0.45991 0.62714 0.0
H2750 H 0.86414 0.4745 0.59238 0.0
C2751 C 0.86694 0.44737 0.6258 0.0
C2752 C 0.87543 0.44439 0.6124 0.0
H2753 H 0.85083 0.46167 0.63752 0.0
H2754 H 0.86705 0.43962 0.63504 0.0
C2755 C 0.87471 0.45469 0.60061 0.0
C2756 C 0.35772 0.07591 0.38473 0.0
C2757 C 0.35057 0.07177 0.36944 0.0
H2758 H 0.3742 0.09289 0.40047 0.0
C2759 C 0.35584 0.08149 0.35786 0.0
H2760 H 0.3539 0.06879 0.39398 0.0
C2761 C 0.36718 0.09556 0.36167 0.0
C2762 C 0.37362 0.10014 0.37712 0.0
H2763 H 0.35082 0.0785 0.34589 0.0
H2764 H 0.37032 0.10318 0.35261 0.0
C2765 C 0.36917 0.08989 0.38851 0.0
C2766 C 0.62006 0.57573 0.14013 0.0
C2767 C 0.61987 0.56234 0.12901 0.0
H2768 H 0.61017 0.59757 0.14643 0.0
C2769 C 0.60992 0.5613 0.115 0.0
H2770 H 0.62748 0.57681 0.15108 0.0
C2771 C 0.60001 0.57317 0.11236 0.0
C2772 C 0.59978 0.58625 0.12371 0.0
H2773 H 0.60965 0.5512 0.10615 0.0
H2774 H 0.59208 0.57183 0.10168 0.0
C2775 C 0.61007 0.58754 0.13752 0.0
C2776 C 0.13215 0.91784 0.91896 0.0
C2777 C 0.13996 0.91925 0.90497 0.0
H2778 H 0.11225 0.90569 0.93043 0.0
C2779 C 0.1343 0.90794 0.89203 0.0
H2780 H 0.13633 0.92616 0.92924 0.0
C2781 C 0.12072 0.89607 0.89283 0.0
C2782 C 0.11232 0.89527 0.90651 0.0
H2783 H 0.13984 0.90868 0.88102 0.0
H2784 H 0.11644 0.88782 0.88251 0.0
C2785 C 0.11846 0.90598 0.91972 0.0
C2786 C 0.93563 0.93262 0.6236 0.0
C2787 C 0.9246 0.92173 0.61321 0.0
H2788 H 0.93837 0.95068 0.64314 0.0
C2789 C 0.90744 0.92209 0.61359 0.0
H2790 H 0.94893 0.93272 0.62341 0.0
C2791 C 0.90136 0.9322 0.62502 0.0
C2792 C 0.91236 0.94219 0.63619 0.0
H2793 H 0.89865 0.91372 0.6058 0.0
H2794 H 0.88805 0.93128 0.62578 0.0
C2795 C 0.92957 0.94286 0.63488 0.0
C2796 C 0.92797 0.18043 0.33555 0.0
C2797 C 0.93737 0.1676 0.33357 0.0
H2798 H 0.90808 0.18981 0.34687 0.0
C2799 C 0.93538 0.15549 0.34362 0.0
H2800 H 0.92944 0.19017 0.32827 0.0
C2801 C 0.92346 0.15555 0.35453 0.0
C2802 C 0.91307 0.16758 0.35552 0.0
H2803 H 0.94225 0.14536 0.34245 0.0
H2804 H 0.92176 0.14567 0.36164 0.0
C2805 C 0.91588 0.18038 0.34637 0.0
C2806 C 0.61662 0.09891 0.11492 0.0
C2807 C 0.63116 0.10885 0.112 0.0
H2808 H 0.60549 0.08169 0.12914 0.0
C2809 C 0.64637 0.10686 0.11959 0.0
H2810 H 0.6047 0.10016 0.10934 0.0
C2811 C 0.64677 0.0964 0.13106 0.0
C2812 C 0.63197 0.08771 0.13505 0.0
H2813 H 0.65783 0.11414 0.11735 0.0
H2814 H 0.65842 0.09615 0.13767 0.0
C2815 C 0.61705 0.08838 0.12632 0.0
C2816 C 0.5794 0.84096 0.83488 0.0
C2817 C 0.57045 0.854 0.8375 0.0
H2818 H 0.59836 0.82821 0.84388 0.0
C2819 C 0.57381 0.86422 0.85153 0.0
H2820 H 0.57697 0.83286 0.8242 0.0
C2821 C 0.58593 0.8616 0.86262 0.0
C2822 C 0.59488 0.84862 0.86003 0.0
H2823 H 0.56722 0.87444 0.85382 0.0
H2824 H 0.58843 0.86982 0.87323 0.0
C2825 C 0.59145 0.8382 0.84615 0.0
C2826 C 0.84647 0.10816 0.90981 0.0
C2827 C 0.85067 0.12479 0.90901 0.0
H2828 H 0.84274 0.08447 0.8977 0.0
C2829 C 0.85398 0.13022 0.89451 0.0
H2830 H 0.8436 0.10355 0.92071 0.0
C2831 C 0.85314 0.1192 0.88114 0.0
C2832 C 0.84897 0.10257 0.88202 0.0
H2833 H 0.85741 0.14294 0.89352 0.0
H2834 H 0.85551 0.12372 0.87009 0.0
C2835 C 0.84578 0.09721 0.89655 0.0
C2836 C 0.59117 0.17778 0.67291 0.0
C2837 C 0.58359 0.16235 0.67545 0.0
H2838 H 0.60858 0.19168 0.66028 0.0
C2839 C 0.58838 0.14877 0.66709 0.0
H2840 H 0.58783 0.18846 0.67931 0.0
C2841 C 0.6 0.15058 0.65596 0.0
C2842 C 0.60729 0.16603 0.65305 0.0
H2843 H 0.58257 0.13673 0.66862 0.0
H2844 H 0.60273 0.13984 0.64921 0.0
C2845 C 0.60298 0.1796 0.66192 0.0
C2846 C 0.63718 0.87836 0.40418 0.0
C2847 C 0.63522 0.86194 0.39837 0.0
H2848 H 0.63904 0.90282 0.39853 0.0
C2849 C 0.63367 0.85762 0.3822 0.0
H2850 H 0.63844 0.88199 0.4166 0.0
C2851 C 0.63395 0.8694 0.37202 0.0
C2852 C 0.63593 0.88575 0.37779 0.0
H2853 H 0.63193 0.84506 0.37739 0.0
H2854 H 0.63246 0.86575 0.35959 0.0
C2855 C 0.63767 0.89023 0.39392 0.0
C2856 C 0.91989 0.88242 0.16021 0.0
C2857 C 0.92535 0.87155 0.16998 0.0
H2858 H 0.90062 0.88745 0.14435 0.0
C2859 C 0.91527 0.8567 0.17067 0.0
H2860 H 0.92727 0.89402 0.15952 0.0
C2861 C 0.89998 0.85289 0.16184 0.0
C2862 C 0.89446 0.86397 0.15238 0.0
H2863 H 0.9192 0.84804 0.178 0.0
H2864 H 0.89228 0.84152 0.16274 0.0
C2865 C 0.90461 0.8787 0.15157 0.0
C2866 C 0.08965 0.63398 0.1669 0.0
C2867 C 0.08691 0.64682 0.17766 0.0
H2868 H 0.10254 0.62641 0.14732 0.0
C2869 C 0.09669 0.66193 0.17778 0.0
H2870 H 0.08233 0.62219 0.16665 0.0
C2871 C 0.10832 0.66436 0.16668 0.0
C2872 C 0.11045 0.65167 0.15542 0.0
H2873 H 0.09476 0.67203 0.18592 0.0
H2874 H 0.11532 0.67626 0.16661 0.0
C2875 C 0.10131 0.63637 0.15592 0.0
C2876 C 0.11352 0.35244 0.87066 0.0
C2877 C 0.12233 0.35499 0.88532 0.0
H2878 H 0.1073 0.36213 0.84969 0.0
C2879 C 0.13138 0.37029 0.89033 0.0
H2880 H 0.10624 0.34088 0.86653 0.0
C2881 C 0.13175 0.38272 0.88068 0.0
C2882 C 0.12299 0.38003 0.86596 0.0
H2883 H 0.13838 0.37255 0.90154 0.0
H2884 H 0.13877 0.39441 0.88477 0.0
C2885 C 0.11396 0.36473 0.86107 0.0
C2886 C 0.40989 0.3875 0.64675 0.0
C2887 C 0.41597 0.3765 0.65601 0.0
H2888 H 0.38985 0.39252 0.63176 0.0
C2889 C 0.40629 0.36144 0.65663 0.0
H2890 H 0.41697 0.39926 0.64614 0.0
C2891 C 0.39077 0.35755 0.64827 0.0
C2892 C 0.38459 0.36874 0.63934 0.0
H2893 H 0.41072 0.35268 0.66358 0.0
H2894 H 0.38338 0.346 0.64913 0.0
C2895 C 0.39434 0.38369 0.63857 0.0
C2896 C 0.10284 0.62078 0.64706 0.0
C2897 C 0.10434 0.61589 0.63132 0.0
H2898 H 0.10363 0.61467 0.67026 0.0
C2899 C 0.10699 0.59998 0.6268 0.0
H2900 H 0.1006 0.63291 0.65086 0.0
C2901 C 0.1085 0.58927 0.63804 0.0
C2902 C 0.10717 0.59434 0.65385 0.0
H2903 H 0.10824 0.59599 0.6147 0.0
H2904 H 0.11061 0.57707 0.6344 0.0
C2905 C 0.10439 0.61023 0.65817 0.0
C2906 C 0.40504 0.38509 0.11523 0.0
C2907 C 0.41114 0.39102 0.10179 0.0
H2908 H 0.39489 0.39037 0.13699 0.0
C2909 C 0.41052 0.40727 0.09961 0.0
H2910 H 0.40494 0.37253 0.11704 0.0
C2911 C 0.40466 0.41758 0.11115 0.0
C2912 C 0.39931 0.41167 0.12489 0.0
H2913 H 0.41508 0.41209 0.08929 0.0
H2914 H 0.40491 0.43022 0.10963 0.0
C2915 C 0.39918 0.39526 0.1266 0.0
C2916 C 0.56274 0.36512 0.17059 0.0
C2917 C 0.5595 0.35584 0.18295 0.0
H2918 H 0.57839 0.37045 0.15226 0.0
C2919 C 0.5696 0.34408 0.18593 0.0
H2920 H 0.55528 0.3744 0.16814 0.0
C2921 C 0.58279 0.34172 0.17669 0.0
C2922 C 0.58617 0.35131 0.16459 0.0
H2923 H 0.5673 0.33675 0.19537 0.0
H2924 H 0.59063 0.33279 0.17927 0.0
C2925 C 0.57597 0.36292 0.16155 0.0
C2926 C 0.94631 0.6686 0.67247 0.0
C2927 C 0.95005 0.68114 0.68468 0.0
H2928 H 0.93412 0.66074 0.64994 0.0
C2929 C 0.94498 0.6962 0.68272 0.0
H2930 H 0.94979 0.65679 0.67358 0.0
C2931 C 0.93571 0.69838 0.66914 0.0
C2932 C 0.93131 0.68553 0.65733 0.0
H2933 H 0.94783 0.70618 0.69183 0.0
H2934 H 0.93137 0.70987 0.66819 0.0
C2935 C 0.93714 0.6708 0.65896 0.0
C2936 C 0.62047 0.38364 0.62322 0.0
C2937 C 0.62042 0.3849 0.60718 0.0
H2938 H 0.62374 0.39625 0.64621 0.0
C2939 C 0.62523 0.40009 0.60208 0.0
H2940 H 0.61676 0.37212 0.62747 0.0
C2941 C 0.62931 0.41384 0.61277 0.0
C2942 C 0.62854 0.4127 0.62876 0.0
H2943 H 0.62549 0.40137 0.58978 0.0
H2944 H 0.63227 0.42547 0.60849 0.0
C2945 C 0.62441 0.39744 0.63391 0.0
C2946 C 0.43113 0.65358 0.8417 0.0
C2947 C 0.42534 0.6543 0.82619 0.0
H2948 H 0.42465 0.65243 0.86532 0.0
C2949 C 0.40847 0.65549 0.82284 0.0
H2950 H 0.44406 0.65274 0.84462 0.0
C2951 C 0.39754 0.65542 0.83461 0.0
C2952 C 0.40326 0.65424 0.84995 0.0
H2953 H 0.40353 0.65575 0.81099 0.0
H2954 H 0.38447 0.65567 0.83166 0.0
C2955 C 0.42013 0.65356 0.85352 0.0
C2956 C 0.0685 0.32878 0.31554 0.0
C2957 C 0.05925 0.3416 0.3181 0.0
H2958 H 0.08916 0.31767 0.32371 0.0
C2959 C 0.06364 0.35299 0.3312 0.0
H2960 H 0.0653 0.31983 0.30553 0.0
C2961 C 0.07712 0.35177 0.34141 0.0
C2962 C 0.08646 0.3391 0.33882 0.0
H2963 H 0.05687 0.3631 0.33336 0.0
H2964 H 0.08046 0.36093 0.35123 0.0
C2965 C 0.08197 0.32745 0.32595 0.0
C2966 C 0.32478 0.62477 0.38634 0.0
C2967 C 0.33868 0.62677 0.39712 0.0
H2968 H 0.3135 0.61325 0.36427 0.0
C2969 C 0.35243 0.61909 0.3934 0.0
H2970 H 0.314 0.63049 0.38895 0.0
C2971 C 0.3522 0.60941 0.37929 0.0
C2972 C 0.33814 0.60705 0.36871 0.0
H2973 H 0.36335 0.62052 0.40144 0.0
H2974 H 0.36285 0.60341 0.37683 0.0
C2975 C 0.32446 0.61487 0.3723 0.0
C2976 C 0.10859 0.3356 0.04351 0.0
C2977 C 0.09401 0.33101 0.03365 0.0
H2978 H 0.11975 0.34785 0.06521 0.0
C2979 C 0.07888 0.33475 0.03914 0.0
H2980 H 0.12052 0.33319 0.03971 0.0
C2981 C 0.07849 0.34337 0.05384 0.0
C2982 C 0.09323 0.34853 0.06331 0.0
H2983 H 0.06736 0.33126 0.03195 0.0
H2984 H 0.06678 0.34658 0.0575 0.0
C2985 C 0.10819 0.34419 0.05812 0.0
C2986 C 0.96561 0.88691 0.33205 0.0
C2987 C 0.97184 0.89998 0.32407 0.0
H2988 H 0.95444 0.87936 0.35247 0.0
C2989 C 0.97315 0.9157 0.33172 0.0
H2990 H 0.96459 0.87463 0.32658 0.0
C2991 C 0.96747 0.91833 0.34654 0.0
C2992 C 0.96046 0.90532 0.35412 0.0
H2993 H 0.97768 0.92607 0.32593 0.0
H2994 H 0.96783 0.93061 0.35183 0.0
C2995 C 0.96 0.88956 0.34695 0.0
C2996 C 0.35661 0.64777 0.55083 0.0
C2997 C 0.36247 0.66435 0.55154 0.0
H2998 H 0.35541 0.62629 0.56224 0.0
C2999 C 0.3719 0.67198 0.56513 0.0
H3000 H 0.34905 0.64149 0.54077 0.0
C3001 C 0.37542 0.66321 0.57759 0.0
C3002 C 0.36961 0.64662 0.57668 0.0
H3003 H 0.37679 0.68469 0.56608 0.0
H3004 H 0.38273 0.6694 0.58784 0.0
C3005 C 0.36015 0.63905 0.56321 0.0
C3006 C 0.54912 0.1298 0.834 0.0
C3007 C 0.55734 0.13073 0.82021 0.0
H3008 H 0.55089 0.12528 0.85804 0.0
C3009 C 0.57369 0.12726 0.82004 0.0
H3010 H 0.53652 0.13246 0.8344 0.0
C3011 C 0.58176 0.12306 0.83333 0.0
C3012 C 0.5738 0.12241 0.84721 0.0
H3013 H 0.58025 0.12773 0.80953 0.0
H3014 H 0.59437 0.12042 0.83276 0.0
C3015 C 0.55736 0.12578 0.84749 0.0
C3016 C 0.09861 0.62546 0.47207 0.0
C3017 C 0.08726 0.63616 0.47571 0.0
H3018 H 0.10958 0.61186 0.4543 0.0
C3019 C 0.07788 0.64129 0.46347 0.0
H3020 H 0.10614 0.6214 0.48121 0.0
C3021 C 0.07972 0.63559 0.44789 0.0
C3022 C 0.09122 0.62495 0.4444 0.0
H3023 H 0.069 0.64949 0.46595 0.0
H3024 H 0.07236 0.63965 0.43865 0.0
C3025 C 0.10062 0.62002 0.45665 0.0
C3026 C 0.55746 0.8927 0.67754 0.0
C3027 C 0.55352 0.87725 0.68233 0.0
H3028 H 0.56794 0.90692 0.66044 0.0
C3029 C 0.55731 0.86391 0.67261 0.0
H3030 H 0.55516 0.90334 0.68472 0.0
C3031 C 0.56493 0.86604 0.65865 0.0
C3032 C 0.56887 0.88155 0.65404 0.0
H3033 H 0.55435 0.85177 0.67573 0.0
H3034 H 0.56778 0.85558 0.65154 0.0
C3035 C 0.56497 0.89479 0.66362 0.0
C3036 C 0.44556 0.38442 0.95092 0.0
C3037 C 0.44161 0.36761 0.95086 0.0
H3038 H 0.44868 0.40451 0.9376 0.0
C3039 C 0.43905 0.35797 0.9364 0.0
H3040 H 0.44804 0.39223 0.96178 0.0
C3041 C 0.4397 0.36511 0.92239 0.0
C3042 C 0.44289 0.38199 0.92265 0.0
H3043 H 0.43593 0.345 0.93591 0.0
H3044 H 0.43716 0.35748 0.91143 0.0
C3045 C 0.44605 0.39148 0.93704 0.0
C3046 C 0.9436 0.15297 0.18101 0.0
C3047 C 0.95478 0.14171 0.18219 0.0
H3048 H 0.92288 0.15973 0.1679 0.0
C3049 C 0.9544 0.12927 0.16998 0.0
H3050 H 0.94366 0.16277 0.19015 0.0
C3051 C 0.94267 0.12765 0.15733 0.0
C3052 C 0.93109 0.13847 0.15649 0.0
H3053 H 0.9626 0.12023 0.17056 0.0
H3054 H 0.94213 0.11747 0.14849 0.0
C3055 C 0.93188 0.15139 0.16822 0.0
C3056 C 0.08737 0.09777 0.29479 0.0
C3057 C 0.0705 0.09117 0.29424 0.0
H3058 H 0.11215 0.09658 0.30388 0.0
C3059 C 0.06624 0.07621 0.29998 0.0
H3060 H 0.09108 0.1092 0.29036 0.0
C3061 C 0.07838 0.0689 0.30755 0.0
C3062 C 0.09499 0.0763 0.30931 0.0
H3063 H 0.05336 0.07087 0.29989 0.0
H3064 H 0.07456 0.05833 0.31334 0.0
C3065 C 0.0995 0.0904 0.30225 0.0
C3066 C 0.08941 0.76494 0.62376 0.0
C3067 C 0.09619 0.76521 0.6092 0.0
H3068 H 0.0851 0.7784 0.64515 0.0
C3069 C 0.10426 0.78006 0.60534 0.0
H3070 H 0.08289 0.75388 0.62712 0.0
C3071 C 0.10538 0.7942 0.61568 0.0
C3072 C 0.09849 0.79383 0.63016 0.0
H3073 H 0.10986 0.78077 0.59436 0.0
H3074 H 0.11163 0.80538 0.61232 0.0
C3075 C 0.09057 0.77904 0.63408 0.0
C3076 C 0.42962 0.89321 0.81884 0.0
C3077 C 0.43127 0.90125 0.80541 0.0
H3078 H 0.41715 0.89025 0.83964 0.0
C3079 C 0.42009 0.91225 0.80252 0.0
H3080 H 0.43747 0.88429 0.82136 0.0
C3081 C 0.40793 0.91529 0.81292 0.0
C3082 C 0.4069 0.90761 0.82656 0.0
H3083 H 0.42095 0.91885 0.79244 0.0
H3084 H 0.39975 0.924 0.81056 0.0
C3085 C 0.41778 0.89649 0.82929 0.0
C3086 C 0.43046 0.24378 0.08372 0.0
C3087 C 0.42266 0.24181 0.06858 0.0
H3088 H 0.43497 0.23317 0.10472 0.0
C3089 C 0.41315 0.22676 0.06314 0.0
H3090 H 0.43816 0.25498 0.08827 0.0
C3091 C 0.4115 0.2141 0.0726 0.0
C3092 C 0.41929 0.21624 0.08772 0.0
H3093 H 0.40677 0.2248 0.05164 0.0
H3094 H 0.40409 0.20273 0.06809 0.0
C3095 C 0.42876 0.2312 0.09313 0.0
C3096 C 0.10316 0.92077 0.20949 0.0
C3097 C 0.08852 0.92726 0.20598 0.0
H3098 H 0.12707 0.91647 0.20229 0.0
C3099 C 0.0879 0.93634 0.19323 0.0
H3100 H 0.10402 0.91351 0.21906 0.0
C3101 C 0.10121 0.93811 0.18374 0.0
C3102 C 0.11542 0.93094 0.18687 0.0
H3103 H 0.07693 0.94167 0.19029 0.0
H3104 H 0.10001 0.94425 0.17341 0.0
C3105 C 0.11644 0.92254 0.19998 0.0
C3106 C 0.36081 0.7894 0.43433 0.0
C3107 C 0.34484 0.78035 0.43231 0.0
H3108 H 0.37674 0.81037 0.42933 0.0
C3109 C 0.33228 0.7864 0.4237 0.0
H3110 H 0.3709 0.78508 0.44059 0.0
C3111 C 0.33573 0.80096 0.41713 0.0
C3112 C 0.35181 0.80974 0.41899 0.0
H3113 H 0.3198 0.77986 0.42198 0.0
H3114 H 0.32589 0.80517 0.41039 0.0
C3115 C 0.36422 0.80386 0.42775 0.0
C3116 C 0.4226 0.12862 0.67862 0.0
C3117 C 0.42339 0.12035 0.6919 0.0
H3118 H 0.40857 0.13192 0.65781 0.0
C3119 C 0.40972 0.10884 0.69425 0.0
H3120 H 0.43265 0.13779 0.67651 0.0
C3121 C 0.39572 0.10565 0.68357 0.0
C3122 C 0.39516 0.11385 0.67026 0.0
H3123 H 0.40993 0.10206 0.70422 0.0
H3124 H 0.38549 0.09665 0.68564 0.0
C3125 C 0.40871 0.12536 0.66794 0.0
C3126 C 0.14159 0.19675 0.91208 0.0
C3127 C 0.12609 0.20235 0.91236 0.0
H3128 H 0.1556 0.17881 0.90249 0.0
C3129 C 0.11237 0.19308 0.90366 0.0
H3130 H 0.15241 0.20363 0.91868 0.0
C3131 C 0.1141 0.17875 0.89469 0.0
C3132 C 0.12969 0.17337 0.89384 0.0
H3133 H 0.10018 0.19681 0.90391 0.0
H3134 H 0.10308 0.17187 0.88843 0.0
C3135 C 0.14339 0.18247 0.90286 0.0
C3136 C 0.36286 0.11472 0.11959 0.0
C3137 C 0.35932 0.10502 0.10525 0.0
H3138 H 0.37633 0.13622 0.13209 0.0
C3139 C 0.36613 0.11087 0.09194 0.0
H3140 H 0.35815 0.11067 0.13017 0.0
C3141 C 0.37687 0.12557 0.09313 0.0
C3142 C 0.38103 0.13474 0.10765 0.0
H3143 H 0.3635 0.10392 0.08064 0.0
H3144 H 0.38254 0.12936 0.08285 0.0
C3145 C 0.37347 0.12936 0.12074 0.0
C3146 C 0.81474 0.39994 0.89266 0.0
C3147 C 0.80813 0.40349 0.8782 0.0
H3148 H 0.82888 0.38467 0.90474 0.0
C3149 C 0.8094 0.39286 0.86485 0.0
H3150 H 0.81383 0.40774 0.90322 0.0
C3151 C 0.81783 0.37959 0.8658 0.0
C3152 C 0.82518 0.37659 0.88011 0.0
H3153 H 0.80467 0.39525 0.85349 0.0
H3154 H 0.81925 0.37203 0.85521 0.0
C3155 C 0.82317 0.38662 0.89361 0.0
C3156 C 0.78927 0.56036 0.17166 0.0
C3157 C 0.78071 0.55015 0.15898 0.0
H3158 H 0.81123 0.57684 0.18001 0.0
C3159 C 0.78885 0.54759 0.14527 0.0
H3160 H 0.78341 0.5625 0.18243 0.0
C3161 C 0.80475 0.55572 0.14395 0.0
C3162 C 0.81292 0.56652 0.15633 0.0
H3163 H 0.7826 0.53999 0.13521 0.0
H3164 H 0.8104 0.55409 0.13299 0.0
C3165 C 0.80526 0.56843 0.17036 0.0
C3166 C 0.67578 0.58408 0.38349 0.0
C3167 C 0.68289 0.57764 0.37022 0.0
H3168 H 0.66256 0.60266 0.39341 0.0
C3169 C 0.68176 0.58524 0.35655 0.0
H3170 H 0.67648 0.57854 0.39421 0.0
C3171 C 0.67383 0.59886 0.3561 0.0
C3172 C 0.66689 0.60542 0.36931 0.0
H3173 H 0.68684 0.58051 0.34605 0.0
H3174 H 0.67312 0.6043 0.34531 0.0
C3175 C 0.66793 0.59794 0.38307 0.0
C3176 C 0.21612 0.96189 0.13015 0.0
C3177 C 0.21994 0.97759 0.13791 0.0
H3178 H 0.20024 0.93922 0.1279 0.0
C3179 C 0.20954 0.98245 0.14945 0.0
H3180 H 0.22344 0.95776 0.12093 0.0
C3181 C 0.19588 0.97179 0.15322 0.0
C3182 C 0.19247 0.95602 0.14564 0.0
H3183 H 0.21213 0.99436 0.15582 0.0
H3184 H 0.18825 0.97577 0.16226 0.0
C3185 C 0.20268 0.95126 0.13404 0.0
C3186 C 0.14012 0.90346 0.63703 0.0
C3187 C 0.15005 0.91184 0.64997 0.0
H3188 H 0.12273 0.88244 0.62822 0.0
C3189 C 0.15051 0.90473 0.66397 0.0
H3190 H 0.13959 0.90854 0.62604 0.0
C3191 C 0.14096 0.88988 0.66515 0.0
C3192 C 0.13084 0.88166 0.65233 0.0
H3193 H 0.15786 0.9109 0.67421 0.0
H3194 H 0.14115 0.88495 0.67624 0.0
C3195 C 0.13066 0.88845 0.63819 0.0
C3196 C 0.79594 0.4419 0.33308 0.0
C3197 C 0.79494 0.45438 0.34499 0.0
H3198 H 0.81096 0.42534 0.32256 0.0
C3199 C 0.8095 0.46114 0.3542 0.0
H3200 H 0.78502 0.4365 0.32567 0.0
C3201 C 0.82436 0.4548 0.35228 0.0
C3202 C 0.82504 0.44176 0.34096 0.0
H3203 H 0.80918 0.47061 0.36357 0.0
H3204 H 0.83508 0.45943 0.36026 0.0
C3205 C 0.81084 0.43565 0.3311 0.0
C3206 C 0.67005 0.51136 0.8316 0.0
C3207 C 0.68373 0.51584 0.8427 0.0
H3208 H 0.64748 0.51782 0.82135 0.0
C3209 C 0.68459 0.53043 0.85236 0.0
H3210 H 0.669 0.50023 0.82392 0.0
C3211 C 0.67249 0.54044 0.85075 0.0
C3212 C 0.65903 0.53617 0.83957 0.0
H3213 H 0.69459 0.53412 0.86134 0.0
H3214 H 0.67367 0.55164 0.85837 0.0
C3215 C 0.65776 0.52143 0.83006 0.0
C3216 C 0.86909 0.6601 0.94062 0.0
C3217 C 0.86735 0.65043 0.95295 0.0
H3218 H 0.87449 0.66115 0.91666 0.0
C3219 C 0.87157 0.63477 0.95089 0.0
H3220 H 0.86594 0.67222 0.94188 0.0
C3221 C 0.87643 0.62854 0.93664 0.0
C3222 C 0.87727 0.63781 0.92404 0.0
H3223 H 0.87079 0.62714 0.96025 0.0
H3224 H 0.87907 0.61623 0.9353 0.0
C3225 C 0.87402 0.65381 0.92624 0.0
C3226 C 0.03781 0.10287 0.6633 0.0
C3227 C 0.03688 0.11834 0.67073 0.0
H3228 H 0.04634 0.08886 0.64425 0.0
C3229 C 0.0431 0.13185 0.66329 0.0
H3230 H 0.03342 0.09214 0.66862 0.0
C3231 C 0.05089 0.12992 0.64933 0.0
C3232 C 0.05259 0.11445 0.64249 0.0
H3233 H 0.04236 0.14396 0.66846 0.0
H3234 H 0.0563 0.14054 0.64434 0.0
C3235 C 0.04543 0.10097 0.64936 0.0
C3236 C 0.5966 0.33859 0.46614 0.0
C3237 C 0.58214 0.32799 0.468 0.0
H3238 H 0.60969 0.35424 0.45163 0.0
C3239 C 0.56914 0.32564 0.45613 0.0
H3240 H 0.60696 0.34051 0.47487 0.0
C3241 C 0.57069 0.3337 0.4427 0.0
C3242 C 0.5854 0.34399 0.44085 0.0
H3243 H 0.55782 0.31756 0.45722 0.0
H3244 H 0.56063 0.33158 0.43366 0.0
C3245 C 0.59821 0.34639 0.45275 0.0
C3246 C 0.45236 0.89416 0.18942 0.0
C3247 C 0.44181 0.88402 0.19772 0.0
H3248 H 0.45605 0.90474 0.16818 0.0
C3249 C 0.42681 0.87586 0.18998 0.0
H3250 H 0.46418 0.90035 0.19473 0.0
C3251 C 0.42244 0.87802 0.17451 0.0
C3252 C 0.43281 0.8886 0.16656 0.0
H3253 H 0.41817 0.86816 0.19597 0.0
H3254 H 0.41068 0.87187 0.169 0.0
C3255 C 0.44781 0.89656 0.17412 0.0
C3256 C 0.88594 0.39581 0.55056 0.0
C3257 C 0.87929 0.37936 0.54884 0.0
H3258 H 0.89479 0.41697 0.56617 0.0
C3259 C 0.87772 0.37131 0.56227 0.0
H3260 H 0.88769 0.4023 0.54047 0.0
C3261 C 0.88187 0.37978 0.57712 0.0
C3262 C 0.88769 0.39643 0.57876 0.0
H3263 H 0.87261 0.35865 0.56132 0.0
H3264 H 0.87981 0.3735 0.5873 0.0
C3265 C 0.89008 0.40421 0.5653 0.0
C3266 C 0.4596 0.12674 0.32986 0.0
C3267 C 0.46008 0.14092 0.32257 0.0
H3268 H 0.44926 0.11295 0.34721 0.0
C3269 C 0.45 0.15244 0.32758 0.0
H3270 H 0.46704 0.11755 0.3261 0.0
C3271 C 0.4398 0.14983 0.33989 0.0
C3272 C 0.43946 0.13557 0.34713 0.0
H3273 H 0.45018 0.16347 0.32212 0.0
H3274 H 0.43215 0.15884 0.34363 0.0
C3275 C 0.4494 0.1241 0.34193 0.0
C3276 C 0.56928 0.6364 0.04398 0.0
C3277 C 0.58354 0.64432 0.03801 0.0
H3278 H 0.55903 0.62499 0.06311 0.0
C3279 C 0.59858 0.64696 0.04734 0.0
H3280 H 0.55747 0.6342 0.03713 0.0
C3281 C 0.59944 0.64163 0.06208 0.0
C3282 C 0.58529 0.63367 0.06798 0.0
H3283 H 0.60987 0.65272 0.04307 0.0
H3284 H 0.61129 0.64362 0.06884 0.0
C3285 C 0.57012 0.63121 0.05888 0.0
C3286 C 0.05382 0.86666 0.85099 0.0
C3287 C 0.04094 0.87619 0.85065 0.0
H3288 H 0.07265 0.85811 0.86495 0.0
C3289 C 0.03614 0.88317 0.86485 0.0
H3290 H 0.05767 0.86092 0.84031 0.0
C3291 C 0.04458 0.88131 0.87899 0.0
C3292 C 0.0579 0.87238 0.87914 0.0
H3293 H 0.0264 0.89073 0.86499 0.0
H3294 H 0.04132 0.88754 0.88969 0.0
C3295 C 0.06225 0.86485 0.86508 0.0
C3296 C 0.94339 0.95126 0.70772 0.0
C3297 C 0.93581 0.94129 0.71812 0.0
H3298 H 0.94026 0.96337 0.68742 0.0
C3299 C 0.91837 0.93725 0.71665 0.0
H3300 H 0.95671 0.95497 0.70871 0.0
C3301 C 0.90888 0.9423 0.70452 0.0
C3302 C 0.91667 0.95145 0.69364 0.0
H3303 H 0.9121 0.92952 0.7244 0.0
H3304 H 0.89562 0.93826 0.70312 0.0
C3305 C 0.93395 0.95626 0.69564 0.0
C3306 C 0.88475 0.2354 0.4315 0.0
C3307 C 0.86956 0.24096 0.42829 0.0
H3308 H 0.90122 0.21862 0.42488 0.0
C3309 C 0.85893 0.23314 0.41556 0.0
H3310 H 0.89329 0.24129 0.44109 0.0
C3311 C 0.8634 0.21988 0.40637 0.0
C3312 C 0.87873 0.21454 0.40958 0.0
H3313 H 0.84715 0.23718 0.41282 0.0
H3314 H 0.85506 0.21404 0.39662 0.0
C3315 C 0.88933 0.22247 0.42218 0.0
C3316 C 0.59501 0.11102 0.19448 0.0
C3317 C 0.58378 0.10092 0.20212 0.0
H3318 H 0.61588 0.11293 0.18066 0.0
C3319 C 0.58618 0.08471 0.20266 0.0
H3320 H 0.59384 0.12364 0.19419 0.0
C3321 C 0.599 0.07857 0.19495 0.0
C3322 C 0.60956 0.08853 0.18658 0.0
H3323 H 0.57773 0.07659 0.20843 0.0
H3324 H 0.60009 0.06588 0.19483 0.0
C3325 C 0.60774 0.10491 0.18685 0.0
C3326 C 0.59202 0.77561 0.92656 0.0
C3327 C 0.60495 0.76616 0.92618 0.0
H3328 H 0.5825 0.79626 0.91915 0.0
C3329 C 0.61874 0.77085 0.91775 0.0
H3330 H 0.58116 0.77225 0.9328 0.0
C3331 C 0.61963 0.78487 0.91009 0.0
C3332 C 0.60656 0.79418 0.91048 0.0
H3333 H 0.62891 0.76382 0.91728 0.0
H3334 H 0.63036 0.78827 0.9037 0.0
C3335 C 0.59276 0.78933 0.91871 0.0
C3336 C 0.90728 0.08471 0.79689 0.0
C3337 C 0.92158 0.09638 0.80018 0.0
H3338 H 0.88451 0.07351 0.80506 0.0
C3339 C 0.92336 0.10608 0.81456 0.0
H3340 H 0.90551 0.07691 0.78602 0.0
C3341 C 0.91151 0.10395 0.82544 0.0
C3342 C 0.89739 0.09223 0.82226 0.0
H3343 H 0.93387 0.11548 0.81743 0.0
H3344 H 0.9134 0.11157 0.83644 0.0
C3345 C 0.89525 0.08269 0.80781 0.0
C3346 C 0.61722 0.20744 0.58616 0.0
C3347 C 0.61893 0.22293 0.59446 0.0
H3348 H 0.61885 0.18226 0.58722 0.0
C3349 C 0.62538 0.22497 0.61008 0.0
H3350 H 0.61224 0.20545 0.57415 0.0
C3351 C 0.62911 0.2118 0.61747 0.0
C3352 C 0.62668 0.19623 0.60943 0.0
H3353 H 0.62726 0.23675 0.61675 0.0
H3354 H 0.63343 0.21369 0.62968 0.0
C3355 C 0.62107 0.19419 0.5936 0.0
C3356 C 0.58173 0.91786 0.32253 0.0
C3357 C 0.57169 0.90273 0.31938 0.0
H3358 H 0.60456 0.93119 0.33335 0.0
C3359 C 0.57792 0.88906 0.32393 0.0
H3360 H 0.57727 0.92863 0.31914 0.0
C3361 C 0.59359 0.89047 0.33176 0.0
C3362 C 0.60342 0.90564 0.33553 0.0
H3363 H 0.57072 0.87718 0.32132 0.0
H3364 H 0.59796 0.87958 0.33493 0.0
C3365 C 0.59741 0.91931 0.33058 0.0
C3366 C 0.83888 0.78194 0.08823 0.0
C3367 C 0.84784 0.77884 0.0751 0.0
H3368 H 0.83601 0.79856 0.10817 0.0
C3369 C 0.86096 0.79053 0.07208 0.0
H3370 H 0.8287 0.77316 0.09084 0.0
C3371 C 0.86525 0.80479 0.08203 0.0
C3372 C 0.85637 0.80794 0.09511 0.0
H3373 H 0.86824 0.78845 0.0622 0.0
H3374 H 0.87562 0.8134 0.0795 0.0
C3375 C 0.84299 0.79648 0.09808 0.0
C3376 C 0.66842 0.89188 0.87939 0.0
C3377 C 0.66796 0.90346 0.89221 0.0
H3378 H 0.65815 0.86868 0.86768 0.0
C3379 C 0.65742 0.89952 0.904 0.0
H3380 H 0.67616 0.89457 0.86997 0.0
C3381 C 0.64722 0.88452 0.90272 0.0
C3382 C 0.64734 0.8733 0.88959 0.0
H3383 H 0.65685 0.90813 0.91406 0.0
H3384 H 0.63869 0.882 0.91158 0.0
C3385 C 0.65816 0.87703 0.87806 0.0
C3386 C 0.1832 0.59099 0.13272 0.0
C3387 C 0.18164 0.58306 0.11749 0.0
H3388 H 0.17751 0.61066 0.14812 0.0
C3389 C 0.173 0.58988 0.10578 0.0
H3390 H 0.18937 0.58607 0.14217 0.0
C3391 C 0.16594 0.60403 0.10931 0.0
C3392 C 0.16742 0.61167 0.12462 0.0
H3393 H 0.17165 0.58428 0.09387 0.0
H3394 H 0.1592 0.60883 0.10013 0.0
C3395 C 0.17624 0.60506 0.13619 0.0
C3396 C 0.20559 0.43995 0.8321 0.0
C3397 C 0.21537 0.44983 0.84432 0.0
H3398 H 0.18183 0.42607 0.82445 0.0
C3399 C 0.20806 0.45369 0.85826 0.0
H3400 H 0.21082 0.4368 0.82119 0.0
C3401 C 0.1916 0.44747 0.86013 0.0
C3402 C 0.18195 0.43741 0.84808 0.0
H3403 H 0.21525 0.46102 0.86799 0.0
H3404 H 0.18647 0.45035 0.87116 0.0
C3405 C 0.18898 0.43388 0.83392 0.0
C3406 C 0.32078 0.40705 0.65004 0.0
C3407 C 0.30938 0.41079 0.63866 0.0
H3408 H 0.33867 0.39203 0.65598 0.0
C3409 C 0.30732 0.40154 0.62403 0.0
H3410 H 0.32239 0.41371 0.66153 0.0
C3411 C 0.31694 0.38922 0.62067 0.0
C3412 C 0.32869 0.38575 0.63195 0.0
H3413 H 0.29864 0.40417 0.61501 0.0
H3414 H 0.31552 0.38279 0.60908 0.0
C3415 C 0.33017 0.39462 0.64679 0.0
C3416 C 0.7886 0.04588 0.84425 0.0
C3417 C 0.78646 0.03696 0.8571 0.0
H3418 H 0.80522 0.06199 0.83265 0.0
C3419 C 0.80058 0.03527 0.86659 0.0
H3420 H 0.77804 0.04722 0.83655 0.0
C3421 C 0.81615 0.04351 0.86414 0.0
C3422 C 0.81795 0.05351 0.85212 0.0
H3423 H 0.79943 0.02864 0.87664 0.0
H3424 H 0.82656 0.04311 0.8724 0.0
C3425 C 0.8042 0.05412 0.84181 0.0
C3426 C 0.85539 0.10584 0.3516 0.0
C3427 C 0.85106 0.0979 0.3646 0.0
H3428 H 0.86532 0.12786 0.34314 0.0
C3429 C 0.85216 0.10701 0.37928 0.0
H3430 H 0.85436 0.09927 0.34008 0.0
C3431 C 0.85846 0.1235 0.38104 0.0
C3432 C 0.86377 0.13114 0.36815 0.0
H3433 H 0.849 0.10124 0.38955 0.0
H3434 H 0.86007 0.13002 0.3926 0.0
C3435 C 0.86161 0.12224 0.35335 0.0
C3436 C 0.18458 0.53658 0.68381 0.0
C3437 C 0.18989 0.52885 0.67015 0.0
H3438 H 0.16595 0.54909 0.69409 0.0
C3439 C 0.17967 0.52752 0.65628 0.0
H3440 H 0.19202 0.53772 0.69474 0.0
C3441 C 0.16475 0.53391 0.65598 0.0
C3442 C 0.15963 0.54185 0.66948 0.0
H3443 H 0.18342 0.52201 0.64546 0.0
H3444 H 0.15732 0.53288 0.64503 0.0
C3445 C 0.16959 0.54303 0.68347 0.0
C3446 C 0.32519 0.47687 0.1184 0.0
C3447 C 0.31316 0.47619 0.12942 0.0
H3448 H 0.3488 0.47108 0.11199 0.0
C3449 C 0.31628 0.46861 0.14289 0.0
H3450 H 0.32319 0.48231 0.10777 0.0
C3451 C 0.3311 0.46208 0.14529 0.0
C3452 C 0.34306 0.46293 0.13422 0.0
H3453 H 0.30738 0.46796 0.1517 0.0
H3454 H 0.33316 0.45636 0.15574 0.0
C3455 C 0.33987 0.47034 0.12077 0.0
C3456 C 0.61794 0.84134 0.55787 0.0
C3457 C 0.60346 0.83698 0.54783 0.0
H3458 H 0.62902 0.85359 0.57964 0.0
C3459 C 0.58835 0.84098 0.55319 0.0
H3460 H 0.62986 0.83874 0.55421 0.0
C3461 C 0.58792 0.84968 0.56787 0.0
C3462 C 0.60259 0.85465 0.5775 0.0
H3463 H 0.57688 0.83769 0.5459 0.0
H3464 H 0.57626 0.85316 0.57137 0.0
C3465 C 0.61751 0.85001 0.57246 0.0
C3466 C 0.46911 0.39673 0.81997 0.0
C3467 C 0.45828 0.39073 0.80677 0.0
H3468 H 0.47171 0.40178 0.84494 0.0
C3469 C 0.44223 0.38313 0.80895 0.0
H3470 H 0.48152 0.4027 0.81867 0.0
C3471 C 0.43671 0.38261 0.82384 0.0
C3472 C 0.44714 0.38949 0.83696 0.0
H3473 H 0.43368 0.37809 0.79906 0.0
H3474 H 0.42396 0.37753 0.82509 0.0
C3475 C 0.46355 0.39614 0.83498 0.0
C3476 C 0.87907 0.17691 0.07334 0.0
C3477 C 0.87712 0.16987 0.05771 0.0
H3478 H 0.88517 0.17385 0.09725 0.0
C3479 C 0.8802 0.15386 0.05454 0.0
H3480 H 0.87659 0.18909 0.07637 0.0
C3481 C 0.88474 0.14509 0.06656 0.0
C3482 C 0.88667 0.15212 0.08206 0.0
H3483 H 0.8793 0.14806 0.04272 0.0
H3484 H 0.88686 0.13274 0.06369 0.0
C3485 C 0.88392 0.16817 0.08537 0.0
C3486 C 0.0773 0.62754 0.33213 0.0
C3487 C 0.06018 0.62779 0.32934 0.0
H3488 H 0.09685 0.62268 0.34771 0.0
C3489 C 0.04956 0.6238 0.34106 0.0
H3490 H 0.08581 0.6303 0.3233 0.0
C3491 C 0.05597 0.61942 0.35516 0.0
C3492 C 0.07304 0.61874 0.35765 0.0
H3493 H 0.03633 0.62396 0.33926 0.0
H3494 H 0.04756 0.61601 0.36388 0.0
C3495 C 0.08363 0.62308 0.34608 0.0
C3496 C 0.59681 0.14554 0.95387 0.0
C3497 C 0.59362 0.13497 0.96529 0.0
H3498 H 0.59876 0.1478 0.92949 0.0
C3499 C 0.58786 0.11859 0.96045 0.0
H3500 H 0.60131 0.1582 0.95721 0.0
C3501 C 0.58653 0.1127 0.94473 0.0
C3502 C 0.59074 0.12304 0.93341 0.0
H3503 H 0.5849 0.11017 0.96889 0.0
H3504 H 0.58279 0.09989 0.94145 0.0
C3505 C 0.59535 0.13961 0.93803 0.0
C3506 C 0.04541 0.35337 0.15682 0.0
C3507 C 0.04194 0.36634 0.1672 0.0
H3508 H 0.05631 0.346 0.13571 0.0
C3509 C 0.04688 0.38213 0.16363 0.0
H3510 H 0.04169 0.34102 0.15905 0.0
C3511 C 0.05506 0.38491 0.15022 0.0
C3512 C 0.05865 0.37204 0.13999 0.0
H3513 H 0.04484 0.39247 0.1714 0.0
H3514 H 0.05882 0.39726 0.14795 0.0
C3515 C 0.05371 0.35619 0.14337 0.0
C3516 C 0.95003 0.90282 0.46717 0.0
C3517 C 0.95217 0.88658 0.46761 0.0
H3518 H 0.94657 0.92174 0.45314 0.0
C3519 C 0.9527 0.8769 0.45344 0.0
H3520 H 0.94929 0.91055 0.47782 0.0
C3521 C 0.95122 0.88342 0.43918 0.0
C3522 C 0.94896 0.89965 0.43889 0.0
H3523 H 0.95437 0.86436 0.45341 0.0
H3524 H 0.95164 0.87573 0.42845 0.0
C3525 C 0.94838 0.90922 0.45302 0.0
C3526 C 0.42878 0.64583 0.67613 0.0
C3527 C 0.43952 0.63406 0.67611 0.0
H3528 H 0.40796 0.65403 0.66448 0.0
C3529 C 0.4382 0.62221 0.66323 0.0
H3530 H 0.42953 0.6552 0.68578 0.0
C3531 C 0.42606 0.62173 0.65105 0.0
C3532 C 0.415 0.6331 0.65138 0.0
H3533 H 0.44598 0.61276 0.66289 0.0
H3534 H 0.42477 0.61195 0.64171 0.0
C3535 C 0.41661 0.64534 0.66386 0.0
C3536 C 0.5558 0.56812 0.79667 0.0
C3537 C 0.55999 0.58285 0.79045 0.0
H3538 H 0.5641 0.55078 0.81076 0.0
C3539 C 0.57678 0.58983 0.79152 0.0
H3540 H 0.54299 0.5625 0.79625 0.0
C3541 C 0.58884 0.583 0.79971 0.0
C3542 C 0.58439 0.569 0.8069 0.0
H3543 H 0.5805 0.60106 0.78673 0.0
H3544 H 0.60141 0.58936 0.80148 0.0
C3545 C 0.56789 0.56132 0.8049 0.0
C3546 C 0.62352 0.27756 0.09694 0.0
C3547 C 0.61407 0.26269 0.09902 0.0
H3548 H 0.63025 0.30267 0.10526 0.0
C3549 C 0.60408 0.26209 0.11172 0.0
H3550 H 0.63154 0.27848 0.08744 0.0
C3551 C 0.60353 0.27589 0.12199 0.0
C3552 C 0.61283 0.2907 0.11982 0.0
H3553 H 0.59636 0.25103 0.11359 0.0
H3554 H 0.59563 0.27501 0.13159 0.0
C3555 C 0.62287 0.29143 0.1072 0.0
C3556 C 0.91029 0.40678 0.28501 0.0
C3557 C 0.92291 0.39792 0.28964 0.0
H3558 H 0.88975 0.41889 0.29183 0.0
C3559 C 0.92376 0.39408 0.30508 0.0
H3560 H 0.90924 0.41015 0.27329 0.0
C3561 C 0.91289 0.3994 0.31566 0.0
C3562 C 0.90055 0.40844 0.31113 0.0
H3563 H 0.93284 0.38688 0.30909 0.0
H3564 H 0.91415 0.3964 0.32751 0.0
C3565 C 0.89913 0.41189 0.29563 0.0
C3566 C 0.93565 0.75171 0.58563 0.0
C3567 C 0.93105 0.76716 0.58924 0.0
H3568 H 0.93484 0.72746 0.59166 0.0
C3569 C 0.92186 0.7696 0.60236 0.0
H3570 H 0.94306 0.74926 0.57593 0.0
C3571 C 0.91773 0.7572 0.61166 0.0
C3572 C 0.92215 0.74185 0.60786 0.0
H3573 H 0.91762 0.78105 0.60545 0.0
H3574 H 0.91082 0.75955 0.62176 0.0
C3575 C 0.93103 0.73915 0.59469 0.0
C3576 C 0.57358 0.43689 0.67219 0.0
C3577 C 0.57614 0.43972 0.68849 0.0
H3578 H 0.58449 0.43647 0.65034 0.0
C3579 C 0.59228 0.44599 0.69508 0.0
H3580 H 0.56148 0.43191 0.6666 0.0
C3581 C 0.60563 0.44841 0.68564 0.0
C3582 C 0.60309 0.44464 0.66945 0.0
H3583 H 0.5947 0.44864 0.70757 0.0
H3584 H 0.61803 0.45238 0.69106 0.0
C3585 C 0.58683 0.4394 0.66282 0.0
C3586 C 0.8424 0.29073 0.93247 0.0
C3587 C 0.84742 0.2759 0.92725 0.0
H3588 H 0.83961 0.31471 0.92718 0.0
C3589 C 0.85405 0.27411 0.9127 0.0
H3590 H 0.83718 0.29234 0.94364 0.0
C3591 C 0.85557 0.28678 0.90346 0.0
C3592 C 0.85033 0.30152 0.90841 0.0
H3593 H 0.8581 0.26285 0.90845 0.0
H3594 H 0.86077 0.28497 0.89229 0.0
C3595 C 0.84373 0.30346 0.92304 0.0
C3596 C 0.91527 0.60198 0.20564 0.0
C3597 C 0.92976 0.61142 0.20163 0.0
H3598 H 0.89028 0.59081 0.19846 0.0
C3599 C 0.92966 0.61704 0.18688 0.0
H3600 H 0.91489 0.59725 0.21679 0.0
C3601 C 0.9157 0.61309 0.17635 0.0
C3602 C 0.90135 0.60361 0.18032 0.0
H3603 H 0.94035 0.62463 0.18344 0.0
H3604 H 0.91611 0.61754 0.16505 0.0
C3605 C 0.90117 0.59819 0.19511 0.0
C3606 C 0.63521 0.71175 0.40403 0.0
C3607 C 0.63442 0.7107 0.42009 0.0
H3608 H 0.63674 0.69936 0.38144 0.0
C3609 C 0.63582 0.6957 0.42562 0.0
H3610 H 0.63407 0.72296 0.39923 0.0
C3611 C 0.63718 0.68204 0.41531 0.0
C3612 C 0.63717 0.68301 0.39921 0.0
H3613 H 0.6356 0.69443 0.43792 0.0
H3614 H 0.63751 0.67057 0.41989 0.0
C3615 C 0.63661 0.69814 0.39377 0.0
C3616 C 0.86127 0.64024 0.63319 0.0
C3617 C 0.85808 0.63165 0.61827 0.0
H3618 H 0.87488 0.66053 0.64745 0.0
C3619 C 0.86604 0.63825 0.60582 0.0
H3620 H 0.85566 0.63562 0.64316 0.0
C3621 C 0.87746 0.65252 0.60839 0.0
C3622 C 0.88118 0.66056 0.62347 0.0
H3623 H 0.86372 0.63222 0.59409 0.0
H3624 H 0.88391 0.65683 0.59871 0.0
C3625 C 0.87253 0.6545 0.63571 0.0
C3626 C 0.31992 0.9065 0.3963 0.0
C3627 C 0.31505 0.91091 0.38162 0.0
H3628 H 0.33168 0.88989 0.40888 0.0
C3629 C 0.31716 0.90067 0.36824 0.0
H3630 H 0.31835 0.91401 0.40687 0.0
C3631 C 0.32463 0.88684 0.36945 0.0
C3632 C 0.33013 0.88286 0.38405 0.0
H3633 H 0.31381 0.90373 0.35674 0.0
H3634 H 0.3267 0.87955 0.35889 0.0
C3635 C 0.32736 0.89259 0.3975 0.0
C3636 C 0.28604 0.06398 0.66061 0.0
C3637 C 0.27772 0.05299 0.64836 0.0
H3638 H 0.30734 0.08164 0.66818 0.0
C3639 C 0.28578 0.05034 0.6346 0.0
H3640 H 0.28031 0.0662 0.67144 0.0
C3641 C 0.3013 0.05906 0.63284 0.0
C3642 C 0.30919 0.07062 0.64478 0.0
H3643 H 0.27974 0.04215 0.62484 0.0
H3644 H 0.30687 0.0572 0.62186 0.0
C3645 C 0.30162 0.07269 0.65885 0.0
C3646 C 0.18798 0.08006 0.86351 0.0
C3647 C 0.1866 0.07255 0.87725 0.0
H3648 H 0.18121 0.09871 0.8505 0.0
C3649 C 0.17692 0.07873 0.88876 0.0
H3650 H 0.19508 0.07551 0.85429 0.0
C3651 C 0.16897 0.09224 0.88658 0.0
C3652 C 0.17044 0.09962 0.87276 0.0
H3653 H 0.17566 0.07324 0.89949 0.0
H3654 H 0.16157 0.09675 0.89557 0.0
C3655 C 0.17997 0.09334 0.8613 0.0
C3656 C 0.71642 0.48667 0.64336 0.0
C3657 C 0.71339 0.50071 0.63679 0.0
H3658 H 0.70617 0.46455 0.65157 0.0
C3659 C 0.6967 0.50326 0.63426 0.0
H3660 H 0.72896 0.48436 0.64597 0.0
C3661 C 0.68353 0.49198 0.63799 0.0
C3662 C 0.68676 0.4778 0.64412 0.0
H3663 H 0.69374 0.51378 0.62907 0.0
H3664 H 0.67086 0.49412 0.63565 0.0
C3665 C 0.70331 0.47534 0.64678 0.0
C3666 C 0.64839 0.40212 0.13321 0.0
C3667 C 0.65571 0.41029 0.14748 0.0
H3668 H 0.6335 0.38072 0.12155 0.0
C3669 C 0.65414 0.40245 0.16101 0.0
H3670 H 0.6495 0.40779 0.12256 0.0
C3671 C 0.64508 0.38705 0.16038 0.0
C3672 C 0.63753 0.37904 0.1462 0.0
H3673 H 0.65945 0.40843 0.17221 0.0
H3674 H 0.64359 0.38152 0.17108 0.0
C3675 C 0.63945 0.38658 0.13256 0.0
C3676 C 0.31335 0.95672 0.86231 0.0
C3677 C 0.29758 0.94726 0.86008 0.0
H3678 H 0.33982 0.9569 0.86218 0.0
C3679 C 0.29639 0.93111 0.85361 0.0
H3680 H 0.31463 0.96917 0.86738 0.0
C3681 C 0.31064 0.92425 0.85046 0.0
C3682 C 0.32648 0.93333 0.8537 0.0
H3683 H 0.28442 0.92354 0.85165 0.0
H3684 H 0.30935 0.91149 0.84646 0.0
C3685 C 0.32773 0.94976 0.85922 0.0
C3686 C 0.18161 0.02191 0.33668 0.0
C3687 C 0.19558 0.02692 0.34733 0.0
H3688 H 0.15859 0.02765 0.32675 0.0
C3689 C 0.19671 0.04195 0.35632 0.0
H3690 H 0.18037 0.01046 0.32947 0.0
C3691 C 0.18441 0.05176 0.35462 0.0
C3692 C 0.17054 0.04683 0.344 0.0
H3693 H 0.207 0.0461 0.36491 0.0
H3694 H 0.1857 0.06325 0.36177 0.0
C3695 C 0.16917 0.03177 0.33504 0.0
C3696 C 0.37571 0.16946 0.43012 0.0
C3697 C 0.37648 0.16084 0.44318 0.0
H3698 H 0.37993 0.16976 0.40582 0.0
C3699 C 0.3843 0.14694 0.44223 0.0
H3700 H 0.36972 0.18019 0.43054 0.0
C3701 C 0.39015 0.14112 0.42829 0.0
C3702 C 0.38838 0.14907 0.41494 0.0
H3703 H 0.38535 0.14021 0.45218 0.0
H3704 H 0.39533 0.12991 0.4277 0.0
C3705 C 0.3816 0.16357 0.41604 0.0
C3706 C 0.54606 0.63381 0.16489 0.0
C3707 C 0.54022 0.62106 0.17343 0.0
H3708 H 0.5587 0.6409 0.14506 0.0
C3709 C 0.54134 0.60518 0.16723 0.0
H3710 H 0.54519 0.64618 0.16916 0.0
C3711 C 0.54879 0.6022 0.15334 0.0
C3712 C 0.55548 0.61498 0.1453 0.0
H3713 H 0.53721 0.59503 0.17347 0.0
H3714 H 0.54986 0.58984 0.14916 0.0
C3715 C 0.55362 0.6308 0.15097 0.0
C3716 C 0.09044 0.81721 0.96635 0.0
C3717 C 0.07809 0.81947 0.97667 0.0
H3718 H 0.10249 0.8247 0.94648 0.0
C3719 C 0.06777 0.83124 0.97424 0.0
H3720 H 0.09873 0.80841 0.96801 0.0
C3721 C 0.06976 0.84045 0.96161 0.0
C3722 C 0.08239 0.83828 0.95152 0.0
H3723 H 0.05816 0.83325 0.98203 0.0
H3724 H 0.06177 0.84951 0.95999 0.0
C3725 C 0.09264 0.82658 0.95405 0.0
C3726 C 0.92427 0.41699 0.6912 0.0
C3727 C 0.92911 0.4018 0.69246 0.0
H3728 H 0.91641 0.43349 0.67607 0.0
C3729 C 0.92952 0.39124 0.67887 0.0
H3730 H 0.92385 0.42533 0.70151 0.0
C3731 C 0.92485 0.39577 0.66425 0.0
C3732 C 0.92014 0.41108 0.66308 0.0
H3733 H 0.93312 0.37941 0.67959 0.0
H3734 H 0.92513 0.38746 0.65391 0.0
C3735 C 0.92002 0.42164 0.67667 0.0
C3736 C 0.39436 0.87233 0.05657 0.0
C3737 C 0.38439 0.85716 0.0545 0.0
H3738 H 0.40654 0.89193 0.07263 0.0
C3739 C 0.38052 0.8493 0.06769 0.0
H3740 H 0.39782 0.87855 0.04663 0.0
C3741 C 0.38564 0.85701 0.0827 0.0
C3742 C 0.3947 0.87262 0.08466 0.0
H3743 H 0.37284 0.83762 0.06642 0.0
H3744 H 0.38173 0.85117 0.09273 0.0
C3745 C 0.39943 0.87995 0.07144 0.0
C3746 C 0.94161 0.64515 0.83903 0.0
C3747 C 0.95076 0.63332 0.83277 0.0
H3748 H 0.92382 0.65102 0.85535 0.0
C3749 C 0.94864 0.61807 0.83822 0.0
H3750 H 0.94301 0.65702 0.83505 0.0
C3751 C 0.9378 0.6147 0.84966 0.0
C3752 C 0.92877 0.62645 0.85605 0.0
H3753 H 0.95523 0.60859 0.83345 0.0
H3754 H 0.93642 0.60276 0.85349 0.0
C3755 C 0.93073 0.64176 0.85068 0.0
C3756 C 0.07683 0.15279 0.54892 0.0
C3757 C 0.07875 0.1443 0.53441 0.0
H3758 H 0.07384 0.15146 0.57333 0.0
C3759 C 0.07935 0.12764 0.53367 0.0
H3760 H 0.07629 0.16562 0.54987 0.0
C3761 C 0.07801 0.11964 0.54698 0.0
C3762 C 0.07596 0.128 0.56143 0.0
H3763 H 0.08112 0.12076 0.52279 0.0
H3764 H 0.07865 0.10681 0.54595 0.0
C3765 C 0.07534 0.14468 0.56232 0.0
C3766 C 0.54343 0.38461 0.34428 0.0
C3767 C 0.53711 0.36985 0.33547 0.0
H3768 H 0.55766 0.39662 0.36468 0.0
C3769 C 0.53948 0.35545 0.34182 0.0
H3770 H 0.54213 0.39598 0.33988 0.0
C3771 C 0.54884 0.35585 0.35604 0.0
C3772 C 0.55594 0.37066 0.36427 0.0
H3773 H 0.53451 0.34381 0.33561 0.0
H3774 H 0.5512 0.3446 0.36016 0.0
C3775 C 0.55256 0.38499 0.3585 0.0
C3776 C 0.42608 0.43402 0.20377 0.0
C3777 C 0.42708 0.41773 0.20563 0.0
H3778 H 0.41591 0.45063 0.18981 0.0
C3779 C 0.41661 0.40568 0.19589 0.0
H3780 H 0.43399 0.44359 0.2111 0.0
C3781 C 0.40621 0.40971 0.184 0.0
C3782 C 0.40603 0.4259 0.18141 0.0
H3783 H 0.41678 0.39305 0.1972 0.0
H3784 H 0.39888 0.40008 0.17624 0.0
C3785 C 0.41567 0.43808 0.19168 0.0
C3786 C 0.36034 0.71174 0.9279 0.0
C3787 C 0.36376 0.72808 0.92535 0.0
H3788 H 0.36081 0.68709 0.91901 0.0
C3789 C 0.37033 0.73189 0.9113 0.0
H3790 H 0.35514 0.70836 0.93853 0.0
C3791 C 0.3735 0.71973 0.90015 0.0
C3792 C 0.3702 0.70348 0.90274 0.0
H3793 H 0.37342 0.74432 0.90903 0.0
H3794 H 0.37869 0.72308 0.8895 0.0
C3795 C 0.36351 0.69954 0.91669 0.0
C3796 C 0.08615 0.60297 0.72402 0.0
C3797 C 0.06905 0.59711 0.72242 0.0
H3798 H 0.11011 0.60069 0.71576 0.0
C3799 C 0.06354 0.58245 0.71308 0.0
H3800 H 0.09082 0.61414 0.73121 0.0
C3801 C 0.07465 0.57467 0.70443 0.0
C3802 C 0.09146 0.58129 0.7051 0.0
H3803 H 0.05044 0.5777 0.71141 0.0
H3804 H 0.06986 0.56428 0.69618 0.0
C3805 C 0.09726 0.59513 0.71541 0.0
C3806 C 0.09045 0.27917 0.41502 0.0
C3807 C 0.10379 0.27029 0.41612 0.0
H3808 H 0.08009 0.29794 0.40472 0.0
C3809 C 0.11747 0.27413 0.40725 0.0
H3810 H 0.07962 0.27643 0.42148 0.0
C3811 C 0.11781 0.28673 0.39769 0.0
C3812 C 0.10434 0.29547 0.39665 0.0
H3813 H 0.12796 0.26753 0.40786 0.0
H3814 H 0.12844 0.28945 0.39097 0.0
C3815 C 0.09069 0.29148 0.40536 0.0
C3816 C 0.42027 0.61267 0.30995 0.0
C3817 C 0.41963 0.6039 0.29516 0.0
H3818 H 0.40829 0.61693 0.33099 0.0
C3819 C 0.40537 0.5926 0.29023 0.0
H3820 H 0.43075 0.62176 0.31407 0.0
C3821 C 0.39222 0.59008 0.29991 0.0
C3822 C 0.39318 0.59871 0.31477 0.0
H3823 H 0.40445 0.58546 0.27901 0.0
H3824 H 0.38151 0.58123 0.29588 0.0
C3825 C 0.40729 0.61002 0.31963 0.0
C3826 C 0.12245 0.71285 0.11427 0.0
C3827 C 0.11594 0.71119 0.09869 0.0
H3828 H 0.13156 0.70125 0.1332 0.0
C3829 C 0.11501 0.69609 0.0898 0.0
H3830 H 0.12376 0.72437 0.12138 0.0
C3831 C 0.11973 0.68279 0.09661 0.0
C3832 C 0.12543 0.68438 0.1124 0.0
H3833 H 0.11002 0.6944 0.07779 0.0
H3834 H 0.11816 0.67112 0.08975 0.0
C3835 C 0.12708 0.69964 0.12103 0.0
C3836 C 0.06642 0.38869 0.81311 0.0
C3837 C 0.06146 0.40279 0.80823 0.0
H3838 H 0.08523 0.37791 0.82448 0.0
C3839 C 0.07251 0.41733 0.81121 0.0
H3840 H 0.05839 0.37723 0.81064 0.0
C3841 C 0.08795 0.41783 0.81946 0.0
C3842 C 0.09268 0.40375 0.82474 0.0
H3843 H 0.06904 0.4284 0.80753 0.0
H3844 H 0.09593 0.4293 0.82208 0.0
C3845 C 0.08185 0.38912 0.8211 0.0
C3846 C 0.35301 0.29671 0.55933 0.0
C3847 C 0.341 0.28403 0.56246 0.0
H3848 H 0.36566 0.32049 0.56659 0.0
C3849 C 0.33189 0.28623 0.57566 0.0
H3850 H 0.36042 0.29535 0.54943 0.0
C3851 C 0.33481 0.30086 0.58548 0.0
C3852 C 0.34711 0.31333 0.58238 0.0
H3853 H 0.32254 0.27668 0.57836 0.0
H3854 H 0.32778 0.30224 0.59563 0.0
C3855 C 0.35608 0.3111 0.56921 0.0
C3856 C 0.14826 0.39657 0.37505 0.0
C3857 C 0.15433 0.40198 0.36129 0.0
H3858 H 0.13541 0.377 0.38572 0.0
C3859 C 0.15395 0.39069 0.34811 0.0
H3860 H 0.14855 0.40489 0.38548 0.0
C3861 C 0.14657 0.3747 0.34834 0.0
C3862 C 0.13954 0.3696 0.36178 0.0
H3863 H 0.15837 0.39442 0.3373 0.0
H3864 H 0.14545 0.36652 0.33772 0.0
C3865 C 0.14096 0.38053 0.37529 0.0
C3866 C 0.68216 0.10712 0.61686 0.0
C3867 C 0.67509 0.09118 0.61841 0.0
H3868 H 0.67804 0.13188 0.6167 0.0
C3869 C 0.65829 0.08818 0.6215 0.0
H3870 H 0.69509 0.10974 0.61445 0.0
C3871 C 0.64871 0.10067 0.62286 0.0
C3872 C 0.65554 0.11653 0.62103 0.0
H3873 H 0.65253 0.07609 0.62294 0.0
H3874 H 0.63581 0.09785 0.6253 0.0
C3875 C 0.67241 0.11973 0.61805 0.0
C3876 C 0.71315 0.96793 0.36828 0.0
C3877 C 0.7215 0.9647 0.35484 0.0
H3878 H 0.69187 0.96163 0.38092 0.0
C3879 C 0.71409 0.95239 0.34332 0.0
H3880 H 0.71861 0.97725 0.37739 0.0
C3881 C 0.6985 0.94362 0.34521 0.0
C3882 C 0.69035 0.94681 0.35882 0.0
H3883 H 0.72027 0.94969 0.33283 0.0
H3884 H 0.69302 0.93417 0.33624 0.0
C3885 C 0.69786 0.95899 0.37031 0.0
C3886 C 0.82694 0.90452 0.13198 0.0
C3887 C 0.82382 0.90999 0.14729 0.0
H3888 H 0.83779 0.88733 0.11723 0.0
C3889 C 0.82887 0.90161 0.15955 0.0
H3890 H 0.82308 0.91066 0.12229 0.0
C3891 C 0.83724 0.88835 0.15664 0.0
C3892 C 0.84055 0.88304 0.1414 0.0
H3893 H 0.82679 0.90559 0.17147 0.0
H3894 H 0.84141 0.88238 0.16635 0.0
C3895 C 0.83515 0.89108 0.12905 0.0
C3896 C 0.28288 0.54658 0.32332 0.0
C3897 C 0.28133 0.53543 0.33441 0.0
H3898 H 0.29794 0.56681 0.3154 0.0
C3899 C 0.29464 0.5357 0.34561 0.0
H3900 H 0.27292 0.54663 0.31449 0.0
C3901 C 0.30884 0.54714 0.34605 0.0
C3902 C 0.31019 0.55849 0.33524 0.0
H3903 H 0.29381 0.52749 0.35446 0.0
H3904 H 0.31858 0.5475 0.35521 0.0
C3905 C 0.29724 0.55799 0.3237 0.0
C3906 C 0.35932 0.58786 0.86953 0.0
C3907 C 0.34202 0.58541 0.86596 0.0
H3908 H 0.38157 0.60496 0.87413 0.0
C3909 C 0.33382 0.59903 0.86505 0.0
H3910 H 0.36606 0.57778 0.87067 0.0
C3911 C 0.3427 0.6146 0.86749 0.0
C3912 C 0.35998 0.6169 0.87063 0.0
H3913 H 0.32059 0.5977 0.86203 0.0
H3914 H 0.33615 0.62483 0.86636 0.0
C3915 C 0.36821 0.60343 0.87169 0.0
C3916 C 0.70393 0.0402 0.18256 0.0
C3917 C 0.70911 0.02913 0.17118 0.0
H3918 H 0.68488 0.05416 0.18944 0.0
C3919 C 0.6981 0.023 0.15816 0.0
H3920 H 0.71197 0.04505 0.19284 0.0
C3921 C 0.68259 0.02809 0.15635 0.0
C3922 C 0.67767 0.03948 0.16742 0.0
H3923 H 0.70167 0.01473 0.14899 0.0
H3924 H 0.67458 0.02341 0.146 0.0
C3925 C 0.68837 0.04537 0.18068 0.0
C3926 C 0.83356 0.0047 0.64014 0.0
C3927 C 0.81852 0.99506 0.6424 0.0
H3928 H 0.86012 0.00715 0.64123 0.0
C3929 C 0.81937 0.98034 0.64869 0.0
H3930 H 0.83364 0.01633 0.63584 0.0
C3931 C 0.83479 0.97536 0.65235 0.0
C3932 C 0.84964 0.98487 0.64952 0.0
H3933 H 0.80817 0.97243 0.65047 0.0
H3934 H 0.83506 0.96387 0.65689 0.0
C3935 C 0.84883 0.99955 0.64343 0.0
loop_
_geom_bond_atom_site_label_1
_geom_bond_atom_site_label_2
_geom_bond_distance
_geom_bond_site_symmetry_2
_ccdc_geom_bond_type
C0 C1 1.264 . S
C0 C5 1.479 . S
C0 C10 1.465 . S
C1 C0 1.264 . S
C1 C3 1.339 . S
C1 H28 0.931 . S
C2 C3 1.395 . S
C2 C4 1.320 . S
C3 C1 1.339 . S
C3 C2 1.395 . S
C3 H29 0.929 . S
C4 C2 1.320 . S
C4 C5 1.405 . S
C4 H30 0.930 . S
C5 C0 1.479 . S
C5 C4 1.405 . S
C5 H31 0.931 . S
U6 O7 2.454 . S
U6 O8 2.458 1_655 S
U6 C9 2.984 1_655 S
U6 C10 2.847 . S
U6 C23 2.882 1_655 S
U6 O24 2.441 . S
U6 O25 2.420 . S
U6 O26 2.455 1_655 S
U6 O27 2.440 1_655 S
O7 U6 2.454 . S
O7 C9 1.353 1_655 S
O8 U6 2.458 1_455 S
O8 C9 1.286 . S
C9 U6 2.984 1_455 S
C9 O7 1.353 1_455 S
C9 O8 1.286 . S
C9 C11 1.363 . S
C10 C0 1.465 . S
C10 U6 2.847 . S
C10 O24 1.249 . S
C10 O25 1.202 . S
C11 C9 1.363 . S
C11 C13 1.432 . S
C11 C16 1.342 . S
C12 C13 1.325 . S
C12 C15 1.461 . S
C12 H32 0.932 1_455 S
C13 C11 1.432 . S
C13 C12 1.325 . S
C13 H33 0.893 1_455 S
C14 C15 1.474 . S
C14 C16 1.285 . S
C14 H34 0.929 . S
C15 C12 1.461 . S
C15 C14 1.474 . S
C16 C11 1.342 . S
C16 C14 1.285 . S
C16 H35 0.930 . S
C17 C20 1.424 . S
C17 C22 1.245 . S
C17 C23 1.428 . S
C18 C21 1.260 . S
C18 C22 1.477 . S
C18 H36 0.932 . S
C19 C20 1.384 . S
C19 C21 1.479 . S
C19 H37 0.929 . S
C20 C17 1.424 . S
C20 C19 1.384 . S
C20 H38 0.928 . S
C21 C18 1.260 . S
C21 C19 1.479 . S
C22 C17 1.245 . S
C22 C18 1.477 . S
C22 H39 0.932 . S
C23 U6 2.882 1_455 S
C23 C17 1.428 . S
C23 O26 1.301 . S
C23 O27 1.326 . S
O24 U6 2.441 . S
O24 C10 1.249 . S
O25 U6 2.420 . S
O25 C10 1.202 . S
O26 U6 2.455 1_455 S
O26 C23 1.301 . S
O27 U6 2.440 1_455 S
O27 C23 1.326 . S
H28 C1 0.931 . S
H29 C3 0.929 . S
H30 C4 0.930 . S
H31 C5 0.931 . S
H32 C12 0.932 1_655 S
H33 C13 0.893 1_655 S
H34 C14 0.929 . S
H35 C16 0.930 . S
H36 C18 0.932 . S
H37 C19 0.929 . S
H38 C20 0.928 . S
H39 C22 0.932 . S
C40 C41 1.264 . S
C40 C45 1.479 . S
C40 C50 1.465 . S
C41 C40 1.264 . S
C41 C43 1.339 . S
C41 H68 0.931 . S
C42 C43 1.395 . S
C42 C44 1.320 . S
C43 C41 1.339 . S
C43 C42 1.395 . S
C43 H69 0.929 . S
C44 C42 1.320 . S
C44 C45 1.405 . S
C44 H70 0.930 . S
C45 C40 1.479 . S
C45 C44 1.405 . S
C45 H71 0.931 . S
U46 O47 2.454 . S
U46 O48 2.458 . S
U46 C49 2.984 . S
U46 C50 2.847 . S
U46 C63 2.882 . S
U46 O64 2.441 . S
U46 O65 2.420 . S
U46 O66 2.455 . S
U46 O67 2.449 . S
O47 U46 2.454 . S
O47 C49 1.353 . S
O48 U46 2.458 . S
O48 C49 1.286 . S
C49 U46 2.984 . S
C49 O47 1.353 . S
C49 O48 1.286 . S
C49 C51 1.363 . S
C50 C40 1.465 . S
C50 U46 2.847 . S
C50 O64 1.249 . S
C50 O65 1.202 . S
C51 C49 1.363 . S
C51 C53 1.408 . S
C51 C56 1.342 . S
C52 C53 1.310 . S
C52 C55 1.461 . S
C52 H72 0.932 . S
C53 C51 1.408 . S
C53 C52 1.310 . S
C53 H73 0.930 . S
C54 C55 1.474 . S
C54 C56 1.285 . S
C54 H74 0.929 . S
C55 C52 1.461 . S
C55 C54 1.474 . S
C56 C51 1.342 . S
C56 C54 1.285 . S
C56 H75 0.930 . S
C57 C60 1.424 . S
C57 C62 1.245 . S
C57 C63 1.428 . S
C58 C61 1.260 . S
C58 C62 1.477 . S
C58 H76 0.932 . S
C59 C60 1.384 . S
C59 C61 1.479 . S
C59 H77 0.929 . S
C60 C57 1.424 . S
C60 C59 1.384 . S
C60 H78 0.928 . S
C61 C58 1.260 . S
C61 C59 1.479 . S
C62 C57 1.245 . S
C62 C58 1.477 . S
C62 H79 0.932 . S
C63 U46 2.882 . S
C63 C57 1.428 . S
C63 O66 1.301 . S
C63 O67 1.282 . S
O64 U46 2.441 . S
O64 C50 1.249 . S
O65 U46 2.420 . S
O65 C50 1.202 . S
O66 U46 2.455 . S
O66 C63 1.301 . S
O67 U46 2.449 . S
O67 C63 1.282 . S
H68 C41 0.931 . S
H69 C43 0.929 . S
H70 C44 0.930 . S
H71 C45 0.931 . S
H72 C52 0.932 . S
H73 C53 0.930 . S
H74 C54 0.929 . S
H75 C56 0.930 . S
H76 C58 0.932 . S
H77 C59 0.929 . S
H78 C60 0.928 . S
H79 C62 0.932 . S
C80 C81 1.264 . S
C80 C85 1.479 . S
C80 C90 1.465 . S
C81 C80 1.264 . S
C81 C83 1.339 . S
C81 H108 0.931 . S
C82 C83 1.395 . S
C82 C84 1.320 . S
C83 C81 1.339 . S
C83 C82 1.395 . S
C83 H109 0.929 . S
C84 C82 1.320 . S
C84 C85 1.405 . S
C84 H110 0.930 . S
C85 C80 1.479 . S
C85 C84 1.405 . S
C85 H111 0.931 . S
U86 O87 2.454 . S
U86 O88 2.458 . S
U86 C89 2.984 . S
U86 C90 2.847 . S
U86 C103 2.882 . S
U86 O104 2.441 . S
U86 O105 2.420 . S
U86 O106 2.455 . S
U86 O107 2.449 . S
O87 U86 2.454 . S
O87 C89 1.353 . S
O88 U86 2.458 . S
O88 C89 1.286 . S
C89 U86 2.984 . S
C89 O87 1.353 . S
C89 O88 1.286 . S
C89 C91 1.363 . S
C90 C80 1.465 . S
C90 U86 2.847 . S
C90 O104 1.249 . S
C90 O105 1.202 . S
C91 C89 1.363 . S
C91 C93 1.408 . S
C91 C96 1.342 . S
C92 C93 1.310 . S
C92 C95 1.461 . S
C92 H112 0.932 . S
C93 C91 1.408 . S
C93 C92 1.310 . S
C93 H113 0.930 . S
C94 C95 1.474 . S
C94 C96 1.285 . S
C94 H114 0.929 . S
C95 C92 1.461 . S
C95 C94 1.474 . S
C96 C91 1.342 . S
C96 C94 1.285 . S
C96 H115 0.930 . S
C97 C100 1.424 . S
C97 C102 1.245 . S
C97 C103 1.428 . S
C98 C101 1.260 . S
C98 C102 1.477 . S
C98 H116 0.932 . S
C99 C100 1.384 . S
C99 C101 1.479 . S
C99 H117 0.929 . S
C100 C97 1.424 . S
C100 C99 1.384 . S
C100 H118 0.928 . S
C101 C98 1.260 . S
C101 C99 1.479 . S
C102 C97 1.245 . S
C102 C98 1.477 . S
C102 H119 0.932 . S
C103 U86 2.882 . S
C103 C97 1.428 . S
C103 O106 1.301 . S
C103 O107 1.282 . S
O104 U86 2.441 . S
O104 C90 1.249 . S
O105 U86 2.420 . S
O105 C90 1.202 . S
O106 U86 2.455 . S
O106 C103 1.301 . S
O107 U86 2.449 . S
O107 C103 1.282 . S
H108 C81 0.931 . S
H109 C83 0.929 . S
H110 C84 0.930 . S
H111 C85 0.931 . S
H112 C92 0.932 . S
H113 C93 0.930 . S
H114 C94 0.929 . S
H115 C96 0.930 . S
H116 C98 0.932 . S
H117 C99 0.929 . S
H118 C100 0.928 . S
H119 C102 0.932 . S
C120 C121 1.264 . S
C120 C125 1.479 . S
C120 C130 1.465 . S
C121 C120 1.264 . S
C121 C123 1.339 . S
C121 H148 0.931 . S
C122 C123 1.395 . S
C122 C124 1.320 . S
C123 C121 1.339 . S
C123 C122 1.395 . S
C123 H149 0.929 . S
C124 C122 1.320 . S
C124 C125 1.405 . S
C124 H150 0.930 . S
C125 C120 1.479 . S
C125 C124 1.405 . S
C125 H151 0.931 . S
U126 O127 2.454 . S
U126 O128 2.458 . S
U126 C129 2.984 . S
U126 C130 2.847 . S
U126 C143 2.882 . S
U126 O144 2.441 . S
U126 O145 2.420 . S
U126 O146 2.455 . S
U126 O147 2.449 . S
O127 U126 2.454 . S
O127 C129 1.353 . S
O128 U126 2.458 . S
O128 C129 1.286 . S
C129 U126 2.984 . S
C129 O127 1.353 . S
C129 O128 1.286 . S
C129 C131 1.363 . S
C130 C120 1.465 . S
C130 U126 2.847 . S
C130 O144 1.249 . S
C130 O145 1.202 . S
C131 C129 1.363 . S
C131 C133 1.408 1_554 S
C131 C136 1.331 1_554 S
C132 C133 1.310 . S
C132 C135 1.461 . S
C132 H152 0.932 . S
C133 C131 1.408 1_556 S
C133 C132 1.310 . S
C133 H153 0.930 . S
C134 C135 1.474 . S
C134 C136 1.342 . S
C134 H154 0.929 . S
C135 C132 1.461 . S
C135 C134 1.474 . S
C136 C131 1.331 1_556 S
C136 C134 1.342 . S
C136 H155 0.887 1_556 S
C137 C140 1.424 . S
C137 C142 1.245 . S
C137 C143 1.428 . S
C138 C141 1.260 . S
C138 C142 1.477 . S
C138 H156 0.932 . S
C139 C140 1.384 . S
C139 C141 1.479 . S
C139 H157 0.929 . S
C140 C137 1.424 . S
C140 C139 1.384 . S
C140 H158 0.928 . S
C141 C138 1.260 . S
C141 C139 1.479 . S
C142 C137 1.245 . S
C142 C138 1.477 . S
C142 H159 0.932 . S
C143 U126 2.882 . S
C143 C137 1.428 . S
C143 O146 1.301 . S
C143 O147 1.282 . S
O144 U126 2.441 . S
O144 C130 1.249 . S
O145 U126 2.420 . S
O145 C130 1.202 . S
O146 U126 2.455 . S
O146 C143 1.301 . S
O147 U126 2.449 . S
O147 C143 1.282 . S
H148 C121 0.931 . S
H149 C123 0.929 . S
H150 C124 0.930 . S
H151 C125 0.931 . S
H152 C132 0.932 . S
H153 C133 0.930 . S
H154 C134 0.929 . S
H155 C136 0.887 1_554 S
H156 C138 0.932 . S
H157 C139 0.929 . S
H158 C140 0.928 . S
H159 C142 0.932 . S
C160 C161 1.264 . S
C160 C165 1.479 . S
C160 C170 1.465 . S
C161 C160 1.264 . S
C161 C163 1.339 . S
C161 H188 0.931 . S
C162 C163 1.395 . S
C162 C164 1.320 . S
C163 C161 1.339 . S
C163 C162 1.395 . S
C163 H189 0.929 . S
C164 C162 1.320 . S
C164 C165 1.405 . S
C164 H190 0.930 . S
C165 C160 1.479 . S
C165 C164 1.405 . S
C165 H191 0.931 . S
U166 O167 2.454 . S
U166 O168 2.458 . S
U166 C169 2.984 . S
U166 C170 2.847 1_455 S
U166 C183 2.882 . S
U166 O184 2.441 1_455 S
U166 O185 2.420 1_455 S
U166 O186 2.455 . S
U166 O187 2.449 . S
O167 U166 2.454 . S
O167 C169 1.353 . S
O168 U166 2.458 . S
O168 C169 1.286 . S
C169 U166 2.984 . S
C169 O167 1.353 . S
C169 O168 1.286 . S
C169 C171 1.363 . S
C170 C160 1.465 . S
C170 U166 2.847 1_655 S
C170 O184 1.249 . S
C170 O185 1.202 . S
C171 C169 1.363 . S
C171 C173 1.408 . S
C171 C176 1.342 . S
C172 C173 1.310 . S
C172 C175 1.461 . S
C172 H192 0.932 . S
C173 C171 1.408 . S
C173 C172 1.310 . S
C173 H193 0.930 . S
C174 C175 1.474 . S
C174 C176 1.285 . S
C174 H194 0.929 . S
C175 C172 1.461 . S
C175 C174 1.474 . S
C176 C171 1.342 . S
C176 C174 1.285 . S
C176 H195 0.930 . S
C177 C180 1.424 . S
C177 C182 1.245 . S
C177 C183 1.428 . S
C178 C181 1.260 . S
C178 C182 1.477 . S
C178 H196 0.932 . S
C179 C180 1.384 . S
C179 C181 1.479 . S
C179 H197 0.929 . S
C180 C177 1.424 . S
C180 C179 1.384 . S
C180 H198 0.928 . S
C181 C178 1.260 . S
C181 C179 1.479 . S
C182 C177 1.245 . S
C182 C178 1.477 . S
C182 H199 0.932 . S
C183 U166 2.882 . S
C183 C177 1.428 . S
C183 O186 1.301 . S
C183 O187 1.282 . S
O184 U166 2.441 1_655 S
O184 C170 1.249 . S
O185 U166 2.420 1_655 S
O185 C170 1.202 . S
O186 U166 2.455 . S
O186 C183 1.301 . S
O187 U166 2.449 . S
O187 C183 1.282 . S
H188 C161 0.931 . S
H189 C163 0.929 . S
H190 C164 0.930 . S
H191 C165 0.931 . S
H192 C172 0.932 . S
H193 C173 0.930 . S
H194 C174 0.929 . S
H195 C176 0.930 . S
H196 C178 0.932 . S
H197 C179 0.929 . S
H198 C180 0.928 . S
H199 C182 0.932 . S
C200 C201 1.264 . S
C200 C205 1.479 . S
C200 C210 1.465 . S
C201 C200 1.264 . S
C201 C203 1.339 . S
C201 H228 0.931 . S
C202 C203 1.395 . S
C202 C204 1.320 . S
C203 C201 1.339 . S
C203 C202 1.395 . S
C203 H229 0.929 . S
C204 C202 1.320 . S
C204 C205 1.405 . S
C204 H230 0.930 . S
C205 C200 1.479 . S
C205 C204 1.405 . S
C205 H231 0.931 . S
U206 O207 2.454 . S
U206 O208 2.458 . S
U206 C209 2.984 . S
U206 C210 2.847 . S
U206 C223 2.882 . S
U206 O224 2.441 . S
U206 O225 2.420 . S
U206 O226 2.455 . S
U206 O227 2.449 . S
O207 U206 2.454 . S
O207 C209 1.353 . S
O208 U206 2.458 . S
O208 C209 1.286 . S
C209 U206 2.984 . S
C209 O207 1.353 . S
C209 O208 1.286 . S
C209 C211 1.363 . S
C210 C200 1.465 . S
C210 U206 2.847 . S
C210 O224 1.249 . S
C210 O225 1.202 . S
C211 C209 1.363 . S
C211 C213 1.408 . S
C211 C216 1.342 . S
C212 C213 1.310 . S
C212 C215 1.461 . S
C212 H232 0.932 . S
C213 C211 1.408 . S
C213 C212 1.310 . S
C213 H233 0.930 . S
C214 C215 1.474 . S
C214 C216 1.285 . S
C214 H234 0.929 . S
C215 C212 1.461 . S
C215 C214 1.474 . S
C216 C211 1.342 . S
C216 C214 1.285 . S
C216 H235 0.930 . S
C217 C220 1.424 . S
C217 C222 1.245 . S
C217 C223 1.428 . S
C218 C221 1.260 . S
C218 C222 1.477 . S
C218 H236 0.932 . S
C219 C220 1.384 . S
C219 C221 1.479 . S
C219 H237 0.929 . S
C220 C217 1.424 . S
C220 C219 1.384 . S
C220 H238 0.928 . S
C221 C218 1.260 . S
C221 C219 1.479 . S
C222 C217 1.245 . S
C222 C218 1.477 . S
C222 H239 0.932 . S
C223 U206 2.882 . S
C223 C217 1.428 . S
C223 O226 1.301 . S
C223 O227 1.282 . S
O224 U206 2.441 . S
O224 C210 1.249 . S
O225 U206 2.420 . S
O225 C210 1.202 . S
O226 U206 2.455 . S
O226 C223 1.301 . S
O227 U206 2.449 . S
O227 C223 1.282 . S
H228 C201 0.931 . S
H229 C203 0.929 . S
H230 C204 0.930 . S
H231 C205 0.931 . S
H232 C212 0.932 . S
H233 C213 0.930 . S
H234 C214 0.929 . S
H235 C216 0.930 . S
H236 C218 0.932 . S
H237 C219 0.929 . S
H238 C220 0.928 . S
H239 C222 0.932 . S
C240 C241 1.264 . S
C240 C245 1.479 . S
C240 C250 1.465 . S
C241 C240 1.264 . S
C241 C243 1.339 . S
C241 H268 0.931 . S
C242 C243 1.395 . S
C242 C244 1.320 . S
C243 C241 1.339 . S
C243 C242 1.395 . S
C243 H269 0.929 . S
C244 C242 1.320 . S
C244 C245 1.405 . S
C244 H270 0.930 . S
C245 C240 1.479 . S
C245 C244 1.405 . S
C245 H271 0.931 . S
U246 O247 2.454 . S
U246 O248 2.458 . S
U246 C249 2.984 . S
U246 C250 2.847 . S
U246 C263 2.882 . S
U246 O264 2.441 . S
U246 O265 2.420 . S
U246 O266 2.455 . S
U246 O267 2.449 . S
O247 U246 2.454 . S
O247 C249 1.353 . S
O248 U246 2.458 . S
O248 C249 1.286 . S
C249 U246 2.984 . S
C249 O247 1.353 . S
C249 O248 1.286 . S
C249 C251 1.363 . S
C250 C240 1.465 . S
C250 U246 2.847 . S
C250 O264 1.249 . S
C250 O265 1.202 . S
C251 C249 1.363 . S
C251 C253 1.408 . S
C251 C256 1.342 . S
C252 C253 1.310 . S
C252 C255 1.461 . S
C252 H272 0.932 . S
C253 C251 1.408 . S
C253 C252 1.310 . S
C253 H273 0.930 . S
C254 C255 1.474 . S
C254 C256 1.285 . S
C254 H274 0.929 . S
C255 C252 1.461 . S
C255 C254 1.474 . S
C256 C251 1.342 . S
C256 C254 1.285 . S
C256 H275 0.930 . S
C257 C260 1.424 . S
C257 C262 1.245 . S
C257 C263 1.428 . S
C258 C261 1.260 . S
C258 C262 1.477 . S
C258 H276 0.932 . S
C259 C260 1.384 . S
C259 C261 1.479 . S
C259 H277 0.929 . S
C260 C257 1.424 . S
C260 C259 1.384 . S
C260 H278 0.928 . S
C261 C258 1.260 . S
C261 C259 1.479 . S
C262 C257 1.245 . S
C262 C258 1.477 . S
C262 H279 0.932 . S
C263 U246 2.882 . S
C263 C257 1.428 . S
C263 O266 1.301 . S
C263 O267 1.282 . S
O264 U246 2.441 . S
O264 C250 1.249 . S
O265 U246 2.420 . S
O265 C250 1.202 . S
O266 U246 2.455 . S
O266 C263 1.301 . S
O267 U246 2.449 . S
O267 C263 1.282 . S
H268 C241 0.931 . S
H269 C243 0.929 . S
H270 C244 0.930 . S
H271 C245 0.931 . S
H272 C252 0.932 . S
H273 C253 0.930 . S
H274 C254 0.929 . S
H275 C256 0.930 . S
H276 C258 0.932 . S
H277 C259 0.929 . S
H278 C260 0.928 . S
H279 C262 0.932 . S
C280 C281 1.264 . S
C280 C285 1.479 . S
C280 C290 1.465 1_554 S
C281 C280 1.264 . S
C281 C283 1.339 . S
C281 H308 0.931 . S
C282 C283 1.395 . S
C282 C284 1.320 . S
C283 C281 1.339 . S
C283 C282 1.395 . S
C283 H309 0.929 . S
C284 C282 1.320 . S
C284 C285 1.405 . S
C284 H310 0.930 . S
C285 C280 1.479 . S
C285 C284 1.405 . S
C285 H311 0.931 . S
U286 O287 2.454 . S
U286 O288 2.458 . S
U286 C289 2.984 . S
U286 C290 2.847 . S
U286 C303 2.882 . S
U286 O304 2.441 . S
U286 O305 2.420 . S
U286 O306 2.455 . S
U286 O307 2.449 . S
O287 U286 2.454 . S
O287 C289 1.353 . S
O288 U286 2.458 . S
O288 C289 1.286 . S
C289 U286 2.984 . S
C289 O287 1.353 . S
C289 O288 1.286 . S
C289 C291 1.363 . S
C290 C280 1.465 1_556 S
C290 U286 2.847 . S
C290 O304 1.249 . S
C290 O305 1.202 . S
C291 C289 1.363 . S
C291 C293 1.408 . S
C291 C296 1.342 . S
C292 C293 1.310 . S
C292 C295 1.461 . S
C292 H312 0.932 . S
C293 C291 1.408 . S
C293 C292 1.310 . S
C293 H313 0.930 . S
C294 C295 1.474 . S
C294 C296 1.285 . S
C294 H314 0.929 . S
C295 C292 1.461 . S
C295 C294 1.474 . S
C296 C291 1.342 . S
C296 C294 1.285 . S
C296 H315 0.930 . S
C297 C300 1.424 . S
C297 C302 1.245 . S
C297 C303 1.428 . S
C298 C301 1.260 . S
C298 C302 1.477 . S
C298 H316 0.932 . S
C299 C300 1.384 . S
C299 C301 1.479 . S
C299 H317 0.929 . S
C300 C297 1.424 . S
C300 C299 1.384 . S
C300 H318 0.928 . S
C301 C298 1.260 . S
C301 C299 1.479 . S
C302 C297 1.245 . S
C302 C298 1.477 . S
C302 H319 0.932 . S
C303 U286 2.882 . S
C303 C297 1.428 . S
C303 O306 1.301 . S
C303 O307 1.282 . S
O304 U286 2.441 . S
O304 C290 1.249 . S
O305 U286 2.420 . S
O305 C290 1.202 . S
O306 U286 2.455 . S
O306 C303 1.301 . S
O307 U286 2.449 . S
O307 C303 1.282 . S
H308 C281 0.931 . S
H309 C283 0.929 . S
H310 C284 0.930 . S
H311 C285 0.931 . S
H312 C292 0.932 . S
H313 C293 0.930 . S
H314 C294 0.929 . S
H315 C296 0.930 . S
H316 C298 0.932 . S
H317 C299 0.929 . S
H318 C300 0.928 . S
H319 C302 0.932 . S
C320 C321 1.264 . S
C320 C325 1.479 1_545 S
C320 C330 1.465 . S
C321 C320 1.264 . S
C321 C323 1.339 . S
C321 H348 0.931 . S
C322 C323 1.395 . S
C322 C324 1.320 1_545 S
C323 C321 1.339 . S
C323 C322 1.395 . S
C323 H349 0.929 . S
C324 C322 1.320 1_565 S
C324 C325 1.405 . S
C324 H350 0.930 . S
C325 C320 1.479 1_565 S
C325 C324 1.405 . S
C325 H351 0.931 . S
U326 O327 2.459 1_545 S
U326 O328 2.462 1_545 S
U326 C329 2.990 1_545 S
U326 C330 2.846 . S
U326 C343 2.879 . S
U326 O344 2.442 1_545 S
U326 O345 2.417 . S
U326 O346 2.453 . S
U326 O347 2.444 . S
O327 U326 2.459 1_565 S
O327 C329 1.353 . S
O328 U326 2.462 1_565 S
O328 C329 1.286 . S
C329 U326 2.990 1_565 S
C329 O327 1.353 . S
C329 O328 1.286 . S
C329 C331 1.363 . S
C330 C320 1.465 . S
C330 U326 2.846 . S
C330 O344 1.249 1_545 S
C330 O345 1.202 . S
C331 C329 1.363 . S
C331 C333 1.408 . S
C331 C336 1.342 . S
C332 C333 1.310 . S
C332 C335 1.461 . S
C332 H352 0.932 . S
C333 C331 1.408 . S
C333 C332 1.310 . S
C333 H353 0.930 . S
C334 C335 1.474 . S
C334 C336 1.285 . S
C334 H354 0.929 . S
C335 C332 1.461 . S
C335 C334 1.474 . S
C336 C331 1.342 . S
C336 C334 1.285 . S
C336 H355 0.930 . S
C337 C340 1.424 . S
C337 C342 1.245 . S
C337 C343 1.428 . S
C338 C341 1.260 . S
C338 C342 1.477 . S
C338 H356 0.932 . S
C339 C340 1.384 . S
C339 C341 1.479 . S
C339 H357 0.929 . S
C340 C337 1.424 . S
C340 C339 1.384 . S
C340 H358 0.928 . S
C341 C338 1.260 . S
C341 C339 1.479 . S
C342 C337 1.245 . S
C342 C338 1.477 . S
C342 H359 0.932 . S
C343 U326 2.879 . S
C343 C337 1.428 . S
C343 O346 1.301 . S
C343 O347 1.282 . S
O344 U326 2.442 1_565 S
O344 C330 1.249 1_565 S
O345 U326 2.417 . S
O345 C330 1.202 . S
O346 U326 2.453 . S
O346 C343 1.301 . S
O347 U326 2.444 . S
O347 C343 1.282 . S
H348 C321 0.931 . S
H349 C323 0.929 . S
H350 C324 0.930 . S
H351 C325 0.931 . S
H352 C332 0.932 . S
H353 C333 0.930 . S
H354 C334 0.929 . S
H355 C336 0.930 . S
H356 C338 0.932 . S
H357 C339 0.929 . S
H358 C340 0.928 . S
H359 C342 0.932 . S
C360 C361 1.264 . S
C360 C365 1.479 . S
C360 C370 1.465 . S
C361 C360 1.264 . S
C361 C363 1.339 . S
C361 H388 0.931 . S
C362 C363 1.395 . S
C362 C364 1.320 . S
C363 C361 1.339 . S
C363 C362 1.395 . S
C363 H389 0.929 . S
C364 C362 1.320 . S
C364 C365 1.405 . S
C364 H390 0.930 . S
C365 C360 1.479 . S
C365 C364 1.405 . S
C365 H391 0.931 . S
U366 O367 2.454 . S
U366 O368 2.458 . S
U366 C369 2.984 . S
U366 C370 2.847 1_545 S
U366 C383 2.882 . S
U366 O384 2.441 1_545 S
U366 O385 2.420 1_545 S
U366 O386 2.455 . S
U366 O387 2.449 . S
O367 U366 2.454 . S
O367 C369 1.353 . S
O368 U366 2.458 . S
O368 C369 1.286 . S
C369 U366 2.984 . S
C369 O367 1.353 . S
C369 O368 1.286 . S
C369 C371 1.363 . S
C370 C360 1.465 . S
C370 U366 2.847 1_565 S
C370 O384 1.249 . S
C370 O385 1.202 . S
C371 C369 1.363 . S
C371 C373 1.408 . S
C371 C376 1.342 . S
C372 C373 1.310 . S
C372 C375 1.461 . S
C372 H392 0.932 . S
C373 C371 1.408 . S
C373 C372 1.310 . S
C373 H393 0.930 . S
C374 C375 1.474 . S
C374 C376 1.285 . S
C374 H394 0.929 . S
C375 C372 1.461 . S
C375 C374 1.474 . S
C376 C371 1.342 . S
C376 C374 1.285 . S
C376 H395 0.930 . S
C377 C380 1.424 . S
C377 C382 1.245 . S
C377 C383 1.428 . S
C378 C381 1.260 . S
C378 C382 1.477 . S
C378 H396 0.932 . S
C379 C380 1.384 . S
C379 C381 1.479 . S
C379 H397 0.929 . S
C380 C377 1.424 . S
C380 C379 1.384 . S
C380 H398 0.928 . S
C381 C378 1.260 . S
C381 C379 1.479 . S
C382 C377 1.245 . S
C382 C378 1.477 . S
C382 H399 0.932 . S
C383 U366 2.882 . S
C383 C377 1.428 . S
C383 O386 1.301 . S
C383 O387 1.282 . S
O384 U366 2.441 1_565 S
O384 C370 1.249 . S
O385 U366 2.420 1_565 S
O385 C370 1.202 . S
O386 U366 2.455 . S
O386 C383 1.301 . S
O387 U366 2.449 . S
O387 C383 1.282 . S
H388 C361 0.931 . S
H389 C363 0.929 . S
H390 C364 0.930 . S
H391 C365 0.931 . S
H392 C372 0.932 . S
H393 C373 0.930 . S
H394 C374 0.929 . S
H395 C376 0.930 . S
H396 C378 0.932 . S
H397 C379 0.929 . S
H398 C380 0.928 . S
H399 C382 0.932 . S
C400 C401 1.264 . S
C400 C405 1.479 . S
C400 C410 1.465 . S
C401 C400 1.264 . S
C401 C403 1.339 . S
C401 H428 0.931 . S
C402 C403 1.395 . S
C402 C404 1.320 . S
C403 C401 1.339 . S
C403 C402 1.395 . S
C403 H429 0.929 . S
C404 C402 1.320 . S
C404 C405 1.405 . S
C404 H430 0.930 . S
C405 C400 1.479 . S
C405 C404 1.405 . S
C405 H431 0.931 . S
U406 O407 2.454 . S
U406 O408 2.458 . S
U406 C409 2.984 . S
U406 C410 2.847 1_565 S
U406 C423 2.882 . S
U406 O424 2.441 1_565 S
U406 O425 2.420 . S
U406 O426 2.455 . S
U406 O427 2.449 . S
O407 U406 2.454 . S
O407 C409 1.353 . S
O408 U406 2.458 . S
O408 C409 1.286 . S
C409 U406 2.984 . S
C409 O407 1.353 . S
C409 O408 1.286 . S
C409 C411 1.363 . S
C410 C400 1.465 . S
C410 U406 2.847 1_545 S
C410 O424 1.249 . S
C410 O425 1.202 1_545 S
C411 C409 1.363 . S
C411 C413 1.408 . S
C411 C416 1.342 . S
C412 C413 1.310 . S
C412 C415 1.461 . S
C412 H432 0.932 . S
C413 C411 1.408 . S
C413 C412 1.310 . S
C413 H433 0.930 . S
C414 C415 1.474 . S
C414 C416 1.285 . S
C414 H434 0.929 . S
C415 C412 1.461 . S
C415 C414 1.474 . S
C416 C411 1.342 . S
C416 C414 1.285 . S
C416 H435 0.930 . S
C417 C420 1.424 . S
C417 C422 1.245 . S
C417 C423 1.428 . S
C418 C421 1.260 . S
C418 C422 1.477 . S
C418 H436 0.932 . S
C419 C420 1.384 . S
C419 C421 1.479 . S
C419 H437 0.929 . S
C420 C417 1.424 . S
C420 C419 1.384 . S
C420 H438 0.928 . S
C421 C418 1.260 . S
C421 C419 1.479 . S
C422 C417 1.245 . S
C422 C418 1.477 . S
C422 H439 0.932 . S
C423 U406 2.882 . S
C423 C417 1.428 . S
C423 O426 1.301 . S
C423 O427 1.282 . S
O424 U406 2.441 1_545 S
O424 C410 1.249 . S
O425 U406 2.420 . S
O425 C410 1.202 1_565 S
O426 U406 2.455 . S
O426 C423 1.301 . S
O427 U406 2.449 . S
O427 C423 1.282 . S
H428 C401 0.931 . S
H429 C403 0.929 . S
H430 C404 0.930 . S
H431 C405 0.931 . S
H432 C412 0.932 . S
H433 C413 0.930 . S
H434 C414 0.929 . S
H435 C416 0.930 . S
H436 C418 0.932 . S
H437 C419 0.929 . S
H438 C420 0.928 . S
H439 C422 0.932 . S
C440 C441 1.264 . S
C440 C445 1.479 . S
C440 C450 1.465 . S
C441 C440 1.264 . S
C441 C443 1.339 . S
C441 H468 0.931 . S
C442 C443 1.395 . S
C442 C444 1.320 . S
C443 C441 1.339 . S
C443 C442 1.395 . S
C443 H469 0.929 . S
C444 C442 1.320 . S
C444 C445 1.405 . S
C444 H470 0.930 . S
C445 C440 1.479 . S
C445 C444 1.405 . S
C445 H471 0.931 1_565 S
U446 O447 2.448 1_565 S
U446 O448 2.454 1_565 S
U446 C449 2.979 1_565 S
U446 C450 2.848 . S
U446 C463 2.887 . S
U446 O464 2.439 1_565 S
U446 O465 2.424 . S
U446 O466 2.457 . S
U446 O467 2.455 . S
O447 U446 2.448 1_545 S
O447 C449 1.353 . S
O448 U446 2.454 1_545 S
O448 C449 1.286 . S
C449 U446 2.979 1_545 S
C449 O447 1.353 . S
C449 O448 1.286 . S
C449 C451 1.363 . S
C450 C440 1.465 . S
C450 U446 2.848 . S
C450 O464 1.249 1_565 S
C450 O465 1.202 . S
C451 C449 1.363 . S
C451 C453 1.408 . S
C451 C456 1.342 . S
C452 C453 1.310 . S
C452 C455 1.461 . S
C452 H472 0.932 . S
C453 C451 1.408 . S
C453 C452 1.310 . S
C453 H473 0.930 . S
C454 C455 1.474 . S
C454 C456 1.285 . S
C454 H474 0.929 . S
C455 C452 1.461 . S
C455 C454 1.474 . S
C456 C451 1.342 . S
C456 C454 1.285 . S
C456 H475 0.930 . S
C457 C460 1.424 . S
C457 C462 1.245 . S
C457 C463 1.428 . S
C458 C461 1.260 . S
C458 C462 1.477 . S
C458 H476 0.932 . S
C459 C460 1.384 . S
C459 C461 1.479 . S
C459 H477 0.929 . S
C460 C457 1.424 . S
C460 C459 1.384 . S
C460 H478 0.928 . S
C461 C458 1.260 . S
C461 C459 1.479 . S
C462 C457 1.245 . S
C462 C458 1.477 . S
C462 H479 0.932 . S
C463 U446 2.887 . S
C463 C457 1.428 . S
C463 O466 1.301 . S
C463 O467 1.282 . S
O464 U446 2.439 1_545 S
O464 C450 1.249 1_545 S
O465 U446 2.424 . S
O465 C450 1.202 . S
O466 U446 2.457 . S
O466 C463 1.301 . S
O467 U446 2.455 . S
O467 C463 1.282 . S
H468 C441 0.931 . S
H469 C443 0.929 . S
H470 C444 0.930 . S
H471 C445 0.931 1_545 S
H472 C452 0.932 . S
H473 C453 0.930 . S
H474 C454 0.929 . S
H475 C456 0.930 . S
H476 C458 0.932 . S
H477 C459 0.929 . S
H478 C460 0.928 . S
H479 C462 0.932 . S
C480 C481 1.264 . S
C480 C485 1.479 . S
C480 C490 1.465 . S
C481 C480 1.264 . S
C481 C483 1.339 . S
C481 H508 0.931 . S
C482 C483 1.395 . S
C482 C484 1.320 . S
C483 C481 1.339 . S
C483 C482 1.395 . S
C483 H509 0.929 . S
C484 C482 1.320 . S
C484 C485 1.405 . S
C484 H510 0.930 . S
C485 C480 1.479 . S
C485 C484 1.405 . S
C485 H511 0.931 . S
U486 O487 2.454 . S
U486 O488 2.458 . S
U486 C489 2.984 . S
U486 C490 2.847 . S
U486 C503 2.882 . S
U486 O504 2.441 . S
U486 O505 2.420 . S
U486 O506 2.455 . S
U486 O507 2.449 . S
O487 U486 2.454 . S
O487 C489 1.353 . S
O488 U486 2.458 . S
O488 C489 1.286 . S
C489 U486 2.984 . S
C489 O487 1.353 . S
C489 O488 1.286 . S
C489 C491 1.363 1_554 S
C490 C480 1.465 . S
C490 U486 2.847 . S
C490 O504 1.249 . S
C490 O505 1.202 . S
C491 C489 1.363 1_556 S
C491 C493 1.408 . S
C491 C496 1.342 . S
C492 C493 1.310 . S
C492 C495 1.461 . S
C492 H512 0.932 . S
C493 C491 1.408 . S
C493 C492 1.310 . S
C493 H513 0.930 . S
C494 C495 1.474 . S
C494 C496 1.285 . S
C494 H514 0.929 . S
C495 C492 1.461 . S
C495 C494 1.474 . S
C496 C491 1.342 . S
C496 C494 1.285 . S
C496 H515 0.930 . S
C497 C500 1.424 . S
C497 C502 1.245 . S
C497 C503 1.428 . S
C498 C501 1.260 . S
C498 C502 1.477 . S
C498 H516 0.932 . S
C499 C500 1.384 . S
C499 C501 1.479 . S
C499 H517 0.929 . S
C500 C497 1.424 . S
C500 C499 1.384 . S
C500 H518 0.928 . S
C501 C498 1.260 . S
C501 C499 1.479 . S
C502 C497 1.245 . S
C502 C498 1.477 . S
C502 H519 0.932 . S
C503 U486 2.882 . S
C503 C497 1.428 . S
C503 O506 1.301 . S
C503 O507 1.282 . S
O504 U486 2.441 . S
O504 C490 1.249 . S
O505 U486 2.420 . S
O505 C490 1.202 . S
O506 U486 2.455 . S
O506 C503 1.301 . S
O507 U486 2.449 . S
O507 C503 1.282 . S
H508 C481 0.931 . S
H509 C483 0.929 . S
H510 C484 0.930 . S
H511 C485 0.931 . S
H512 C492 0.932 . S
H513 C493 0.930 . S
H514 C494 0.929 . S
H515 C496 0.930 . S
H516 C498 0.932 . S
H517 C499 0.929 . S
H518 C500 0.928 . S
H519 C502 0.932 . S
C520 C521 1.264 . S
C520 C525 1.479 . S
C520 C530 1.465 . S
C521 C520 1.264 . S
C521 C523 1.339 . S
C521 H548 0.931 . S
C522 C523 1.395 . S
C522 C524 1.320 . S
C523 C521 1.339 . S
C523 C522 1.395 . S
C523 H549 0.929 . S
C524 C522 1.320 . S
C524 C525 1.405 . S
C524 H550 0.930 . S
C525 C520 1.479 . S
C525 C524 1.405 . S
C525 H551 0.931 . S
U526 O527 2.450 1_655 S
U526 O528 2.458 . S
U526 C529 2.984 . S
U526 C530 2.847 1_655 S
U526 C543 2.882 . S
U526 O544 2.441 1_655 S
U526 O545 2.420 1_655 S
U526 O546 2.455 . S
U526 O547 2.449 . S
O527 U526 2.450 1_455 S
O527 C529 1.323 1_455 S
O528 U526 2.458 . S
O528 C529 1.286 . S
C529 U526 2.984 . S
C529 O527 1.323 1_655 S
C529 O528 1.286 . S
C529 C531 1.363 . S
C530 C520 1.465 . S
C530 U526 2.847 1_455 S
C530 O544 1.249 . S
C530 O545 1.202 . S
C531 C529 1.363 . S
C531 C533 1.408 . S
C531 C536 1.342 . S
C532 C533 1.310 . S
C532 C535 1.461 . S
C532 H552 0.936 . S
C533 C531 1.408 . S
C533 C532 1.310 . S
C533 H553 0.930 1_655 S
C534 C535 1.474 . S
C534 C536 1.285 . S
C534 H554 0.929 . S
C535 C532 1.461 . S
C535 C534 1.474 . S
C536 C531 1.342 . S
C536 C534 1.285 . S
C536 H555 0.930 . S
C537 C540 1.424 . S
C537 C542 1.245 . S
C537 C543 1.428 . S
C538 C541 1.260 . S
C538 C542 1.477 . S
C538 H556 0.932 . S
C539 C540 1.384 . S
C539 C541 1.479 . S
C539 H557 0.929 . S
C540 C537 1.424 . S
C540 C539 1.384 . S
C540 H558 0.928 . S
C541 C538 1.260 . S
C541 C539 1.479 . S
C542 C537 1.245 . S
C542 C538 1.477 . S
C542 H559 0.932 . S
C543 U526 2.882 . S
C543 C537 1.428 . S
C543 O546 1.301 . S
C543 O547 1.282 . S
O544 U526 2.441 1_455 S
O544 C530 1.249 . S
O545 U526 2.420 1_455 S
O545 C530 1.202 . S
O546 U526 2.455 . S
O546 C543 1.301 . S
O547 U526 2.449 . S
O547 C543 1.282 . S
H548 C521 0.931 . S
H549 C523 0.929 . S
H550 C524 0.930 . S
H551 C525 0.931 . S
H552 C532 0.936 . S
H553 C533 0.930 1_455 S
H554 C534 0.929 . S
H555 C536 0.930 . S
H556 C538 0.932 . S
H557 C539 0.929 . S
H558 C540 0.928 . S
H559 C542 0.932 . S
C560 C561 1.264 . S
C560 C565 1.479 . S
C560 C570 1.465 . S
C561 C560 1.264 . S
C561 C563 1.339 . S
C561 H588 0.931 . S
C562 C563 1.395 . S
C562 C564 1.320 . S
C563 C561 1.339 . S
C563 C562 1.395 . S
C563 H589 0.929 . S
C564 C562 1.320 . S
C564 C565 1.405 . S
C564 H590 0.930 . S
C565 C560 1.479 . S
C565 C564 1.405 . S
C565 H591 0.931 . S
U566 O567 2.454 . S
U566 O568 2.458 . S
U566 C569 2.984 . S
U566 C570 2.847 . S
U566 C583 2.882 . S
U566 O584 2.441 . S
U566 O585 2.420 . S
U566 O586 2.455 . S
U566 O587 2.449 . S
O567 U566 2.454 . S
O567 C569 1.353 . S
O568 U566 2.458 . S
O568 C569 1.286 . S
C569 U566 2.984 . S
C569 O567 1.353 . S
C569 O568 1.286 . S
C569 C571 1.363 . S
C570 C560 1.465 . S
C570 U566 2.847 . S
C570 O584 1.249 . S
C570 O585 1.202 . S
C571 C569 1.363 . S
C571 C573 1.408 . S
C571 C576 1.342 . S
C572 C573 1.310 . S
C572 C575 1.461 . S
C572 H592 0.932 . S
C573 C571 1.408 . S
C573 C572 1.310 . S
C573 H593 0.930 . S
C574 C575 1.474 . S
C574 C576 1.285 . S
C574 H594 0.929 . S
C575 C572 1.461 . S
C575 C574 1.474 . S
C576 C571 1.342 . S
C576 C574 1.285 . S
C576 H595 0.930 . S
C577 C580 1.424 . S
C577 C582 1.245 . S
C577 C583 1.428 . S
C578 C581 1.260 . S
C578 C582 1.477 . S
C578 H596 0.932 . S
C579 C580 1.384 . S
C579 C581 1.479 . S
C579 H597 0.929 . S
C580 C577 1.424 . S
C580 C579 1.384 . S
C580 H598 0.928 . S
C581 C578 1.260 . S
C581 C579 1.479 . S
C582 C577 1.245 . S
C582 C578 1.477 . S
C582 H599 0.932 . S
C583 U566 2.882 . S
C583 C577 1.428 . S
C583 O586 1.301 . S
C583 O587 1.282 . S
O584 U566 2.441 . S
O584 C570 1.249 . S
O585 U566 2.420 . S
O585 C570 1.202 . S
O586 U566 2.455 . S
O586 C583 1.301 . S
O587 U566 2.449 . S
O587 C583 1.282 . S
H588 C561 0.931 . S
H589 C563 0.929 . S
H590 C564 0.930 . S
H591 C565 0.931 . S
H592 C572 0.932 . S
H593 C573 0.930 . S
H594 C574 0.929 . S
H595 C576 0.930 . S
H596 C578 0.932 . S
H597 C579 0.929 . S
H598 C580 0.928 . S
H599 C582 0.932 . S
C600 C601 1.264 . S
C600 C605 1.479 . S
C600 C610 1.465 . S
C601 C600 1.264 . S
C601 C603 1.339 . S
C601 H628 0.931 . S
C602 C603 1.395 . S
C602 C604 1.320 . S
C603 C601 1.339 . S
C603 C602 1.395 . S
C603 H629 0.929 . S
C604 C602 1.320 . S
C604 C605 1.405 . S
C604 H630 0.930 . S
C605 C600 1.479 . S
C605 C604 1.405 . S
C605 H631 0.931 1_655 S
U606 O607 2.454 . S
U606 O608 2.458 . S
U606 C609 2.984 . S
U606 C610 2.847 1_455 S
U606 C623 2.882 1_455 S
U606 O624 2.441 . S
U606 O625 2.420 1_455 S
U606 O626 2.455 . S
U606 O627 2.449 1_455 S
O607 U606 2.454 . S
O607 C609 1.353 . S
O608 U606 2.458 . S
O608 C609 1.286 . S
C609 U606 2.984 . S
C609 O607 1.353 . S
C609 O608 1.286 . S
C609 C611 1.363 . S
C610 C600 1.465 . S
C610 U606 2.847 1_655 S
C610 O624 1.249 1_655 S
C610 O625 1.202 . S
C611 C609 1.363 . S
C611 C613 1.408 . S
C611 C616 1.342 . S
C612 C613 1.310 . S
C612 C615 1.461 . S
C612 H632 0.932 . S
C613 C611 1.408 . S
C613 C612 1.310 . S
C613 H633 0.930 . S
C614 C615 1.474 . S
C614 C616 1.285 . S
C614 H634 0.929 . S
C615 C612 1.461 . S
C615 C614 1.474 . S
C616 C611 1.342 . S
C616 C614 1.285 . S
C616 H635 0.930 . S
C617 C620 1.424 . S
C617 C622 1.245 . S
C617 C623 1.428 . S
C618 C621 1.260 . S
C618 C622 1.477 . S
C618 H636 0.932 . S
C619 C620 1.384 . S
C619 C621 1.479 . S
C619 H637 0.929 . S
C620 C617 1.424 . S
C620 C619 1.384 . S
C620 H638 0.928 . S
C621 C618 1.260 . S
C621 C619 1.479 . S
C622 C617 1.245 . S
C622 C618 1.477 . S
C622 H639 0.932 . S
C623 U606 2.882 1_655 S
C623 C617 1.428 . S
C623 O626 1.301 1_655 S
C623 O627 1.282 . S
O624 U606 2.441 . S
O624 C610 1.249 1_455 S
O625 U606 2.420 1_655 S
O625 C610 1.202 . S
O626 U606 2.455 . S
O626 C623 1.301 1_455 S
O627 U606 2.449 1_655 S
O627 C623 1.282 . S
H628 C601 0.931 . S
H629 C603 0.929 . S
H630 C604 0.930 . S
H631 C605 0.931 1_455 S
H632 C612 0.932 . S
H633 C613 0.930 . S
H634 C614 0.929 . S
H635 C616 0.930 . S
H636 C618 0.932 . S
H637 C619 0.929 . S
H638 C620 0.928 . S
H639 C622 0.932 . S
C640 C641 1.264 . S
C640 C645 1.479 . S
C640 C650 1.465 . S
C641 C640 1.264 . S
C641 C643 1.339 . S
C641 H668 0.931 . S
C642 C643 1.395 . S
C642 C644 1.320 . S
C643 C641 1.339 . S
C643 C642 1.395 . S
C643 H669 0.929 . S
C644 C642 1.320 . S
C644 C645 1.405 . S
C644 H670 0.930 . S
C645 C640 1.479 . S
C645 C644 1.405 . S
C645 H671 0.931 . S
U646 O647 2.454 . S
U646 O648 2.458 . S
U646 C649 2.984 . S
U646 C650 2.847 . S
U646 C663 2.882 . S
U646 O664 2.441 . S
U646 O665 2.420 . S
U646 O666 2.455 . S
U646 O667 2.449 . S
O647 U646 2.454 . S
O647 C649 1.353 . S
O648 U646 2.458 . S
O648 C649 1.286 . S
C649 U646 2.984 . S
C649 O647 1.353 . S
C649 O648 1.286 . S
C649 C651 1.363 . S
C650 C640 1.465 . S
C650 U646 2.847 . S
C650 O664 1.249 . S
C650 O665 1.202 . S
C651 C649 1.363 . S
C651 C653 1.408 . S
C651 C656 1.342 . S
C652 C653 1.310 . S
C652 C655 1.461 . S
C652 H672 0.932 . S
C653 C651 1.408 . S
C653 C652 1.310 . S
C653 H673 0.930 . S
C654 C655 1.474 . S
C654 C656 1.285 . S
C654 H674 0.929 . S
C655 C652 1.461 . S
C655 C654 1.474 . S
C656 C651 1.342 . S
C656 C654 1.285 . S
C656 H675 0.930 . S
C657 C660 1.424 . S
C657 C662 1.245 . S
C657 C663 1.428 . S
C658 C661 1.260 . S
C658 C662 1.477 . S
C658 H676 0.932 . S
C659 C660 1.384 . S
C659 C661 1.479 . S
C659 H677 0.929 . S
C660 C657 1.424 . S
C660 C659 1.384 . S
C660 H678 0.928 . S
C661 C658 1.260 . S
C661 C659 1.479 . S
C662 C657 1.245 . S
C662 C658 1.477 . S
C662 H679 0.932 . S
C663 U646 2.882 . S
C663 C657 1.428 . S
C663 O666 1.301 . S
C663 O667 1.282 . S
O664 U646 2.441 . S
O664 C650 1.249 . S
O665 U646 2.420 . S
O665 C650 1.202 . S
O666 U646 2.455 . S
O666 C663 1.301 . S
O667 U646 2.449 . S
O667 C663 1.282 . S
H668 C641 0.931 . S
H669 C643 0.929 . S
H670 C644 0.930 . S
H671 C645 0.931 . S
H672 C652 0.932 . S
H673 C653 0.930 . S
H674 C654 0.929 . S
H675 C656 0.930 . S
H676 C658 0.932 . S
H677 C659 0.929 . S
H678 C660 0.928 . S
H679 C662 0.932 . S
C680 C681 1.264 . S
C680 C685 1.479 . S
C680 C690 1.465 . S
C681 C680 1.264 . S
C681 C683 1.339 . S
C681 H708 0.931 . S
C682 C683 1.395 . S
C682 C684 1.320 . S
C683 C681 1.339 . S
C683 C682 1.395 . S
C683 H709 0.929 . S
C684 C682 1.320 . S
C684 C685 1.405 . S
C684 H710 0.930 . S
C685 C680 1.479 . S
C685 C684 1.405 . S
C685 H711 0.931 . S
U686 O687 2.454 . S
U686 O688 2.458 . S
U686 C689 2.984 . S
U686 C690 2.847 . S
U686 C703 2.882 . S
U686 O704 2.441 . S
U686 O705 2.420 . S
U686 O706 2.455 . S
U686 O707 2.449 . S
O687 U686 2.454 . S
O687 C689 1.353 . S
O688 U686 2.458 . S
O688 C689 1.286 . S
C689 U686 2.984 . S
C689 O687 1.353 . S
C689 O688 1.286 . S
C689 C691 1.363 . S
C690 C680 1.465 . S
C690 U686 2.847 . S
C690 O704 1.249 . S
C690 O705 1.202 . S
C691 C689 1.363 . S
C691 C693 1.408 . S
C691 C696 1.342 . S
C692 C693 1.310 . S
C692 C695 1.461 . S
C692 H712 0.932 . S
C693 C691 1.408 . S
C693 C692 1.310 . S
C693 H713 0.930 . S
C694 C695 1.474 . S
C694 C696 1.285 . S
C694 H714 0.929 . S
C695 C692 1.461 . S
C695 C694 1.474 . S
C696 C691 1.342 . S
C696 C694 1.285 . S
C696 H715 0.930 . S
C697 C700 1.424 . S
C697 C702 1.245 . S
C697 C703 1.428 . S
C698 C701 1.260 . S
C698 C702 1.477 . S
C698 H716 0.932 . S
C699 C700 1.384 . S
C699 C701 1.479 . S
C699 H717 0.929 . S
C700 C697 1.424 . S
C700 C699 1.384 . S
C700 H718 0.928 . S
C701 C698 1.260 . S
C701 C699 1.479 . S
C702 C697 1.245 . S
C702 C698 1.477 . S
C702 H719 0.932 . S
C703 U686 2.882 . S
C703 C697 1.428 . S
C703 O706 1.301 . S
C703 O707 1.282 . S
O704 U686 2.441 . S
O704 C690 1.249 . S
O705 U686 2.420 . S
O705 C690 1.202 . S
O706 U686 2.455 . S
O706 C703 1.301 . S
O707 U686 2.449 . S
O707 C703 1.282 . S
H708 C681 0.931 . S
H709 C683 0.929 . S
H710 C684 0.930 . S
H711 C685 0.931 . S
H712 C692 0.932 . S
H713 C693 0.930 . S
H714 C694 0.929 . S
H715 C696 0.930 . S
H716 C698 0.932 . S
H717 C699 0.929 . S
H718 C700 0.928 . S
H719 C702 0.932 . S
C720 C721 1.264 . S
C720 C725 1.479 . S
C720 C730 1.465 . S
C721 C720 1.264 . S
C721 C723 1.339 . S
C721 H748 0.931 . S
C722 C723 1.395 . S
C722 C724 1.320 . S
C723 C721 1.339 . S
C723 C722 1.395 . S
C723 H749 0.929 . S
C724 C722 1.320 . S
C724 C725 1.405 . S
C724 H750 0.930 . S
C725 C720 1.479 . S
C725 C724 1.405 . S
C725 H751 0.931 . S
U726 O727 2.454 . S
U726 O728 2.458 . S
U726 C729 3.053 . S
U726 C730 2.847 . S
U726 C743 2.882 . S
U726 O744 2.441 . S
U726 O745 2.420 . S
U726 O746 2.455 . S
U726 O747 2.449 . S
O727 U726 2.454 . S
O727 C729 1.376 . S
O728 U726 2.458 . S
O728 C729 1.349 . S
C729 U726 3.053 . S
C729 O727 1.376 . S
C729 O728 1.349 . S
C729 C731 1.294 1_556 S
C730 C720 1.465 . S
C730 U726 2.847 . S
C730 O744 1.249 . S
C730 O745 1.202 . S
C731 C729 1.294 1_554 S
C731 C733 1.408 . S
C731 C736 1.342 . S
C732 C733 1.310 . S
C732 C735 1.461 . S
C732 H752 0.932 . S
C733 C731 1.408 . S
C733 C732 1.310 . S
C733 H753 0.930 . S
C734 C735 1.474 . S
C734 C736 1.285 . S
C734 H754 0.929 . S
C735 C732 1.461 . S
C735 C734 1.474 . S
C736 C731 1.342 . S
C736 C734 1.285 . S
C736 H755 0.930 . S
C737 C740 1.424 . S
C737 C742 1.245 . S
C737 C743 1.428 . S
C738 C741 1.260 . S
C738 C742 1.477 . S
C738 H756 0.932 . S
C739 C740 1.384 . S
C739 C741 1.479 . S
C739 H757 0.929 . S
C740 C737 1.424 . S
C740 C739 1.384 . S
C740 H758 0.928 . S
C741 C738 1.260 . S
C741 C739 1.479 . S
C742 C737 1.245 . S
C742 C738 1.477 . S
C742 H759 0.932 . S
C743 U726 2.882 . S
C743 C737 1.428 . S
C743 O746 1.301 . S
C743 O747 1.282 . S
O744 U726 2.441 . S
O744 C730 1.249 . S
O745 U726 2.420 . S
O745 C730 1.202 . S
O746 U726 2.455 . S
O746 C743 1.301 . S
O747 U726 2.449 . S
O747 C743 1.282 . S
H748 C721 0.931 . S
H749 C723 0.929 . S
H750 C724 0.930 . S
H751 C725 0.931 . S
H752 C732 0.932 . S
H753 C733 0.930 . S
H754 C734 0.929 . S
H755 C736 0.930 . S
H756 C738 0.932 . S
H757 C739 0.929 . S
H758 C740 0.928 . S
H759 C742 0.932 . S
C760 C761 1.264 . S
C760 C765 1.479 . S
C760 C770 1.468 . S
C761 C760 1.264 . S
C761 C763 1.339 . S
C761 H788 0.931 . S
C762 C763 1.395 . S
C762 C764 1.320 . S
C763 C761 1.339 . S
C763 C762 1.395 . S
C763 H789 0.929 . S
C764 C762 1.320 . S
C764 C765 1.405 . S
C764 H790 0.930 . S
C765 C760 1.479 . S
C765 C764 1.405 . S
C765 H791 0.931 . S
U766 O767 2.454 . S
U766 O768 2.458 . S
U766 C769 2.984 . S
U766 C770 2.844 1_655 S
U766 C783 2.882 . S
U766 O784 2.441 . S
U766 O785 2.420 . S
U766 O786 2.455 . S
U766 O787 2.449 . S
O767 U766 2.454 . S
O767 C769 1.353 . S
O768 U766 2.458 . S
O768 C769 1.286 . S
C769 U766 2.984 . S
C769 O767 1.353 . S
C769 O768 1.286 . S
C769 C771 1.363 . S
C770 C760 1.468 . S
C770 U766 2.844 1_455 S
C770 O784 1.248 1_455 S
C770 O785 1.199 1_455 S
C771 C769 1.363 . S
C771 C773 1.408 . S
C771 C776 1.342 . S
C772 C773 1.310 . S
C772 C775 1.461 . S
C772 H792 0.932 . S
C773 C771 1.408 . S
C773 C772 1.310 . S
C773 H793 0.930 . S
C774 C775 1.474 . S
C774 C776 1.285 . S
C774 H794 0.929 . S
C775 C772 1.461 . S
C775 C774 1.474 . S
C776 C771 1.342 . S
C776 C774 1.285 . S
C776 H795 0.930 . S
C777 C780 1.424 . S
C777 C782 1.245 . S
C777 C783 1.428 . S
C778 C781 1.260 . S
C778 C782 1.477 . S
C778 H796 0.932 . S
C779 C780 1.384 . S
C779 C781 1.479 . S
C779 H797 0.929 . S
C780 C777 1.424 . S
C780 C779 1.384 . S
C780 H798 0.928 . S
C781 C778 1.260 . S
C781 C779 1.479 . S
C782 C777 1.245 . S
C782 C778 1.477 . S
C782 H799 0.932 . S
C783 U766 2.882 . S
C783 C777 1.428 . S
C783 O786 1.301 . S
C783 O787 1.282 . S
O784 U766 2.441 . S
O784 C770 1.248 1_655 S
O785 U766 2.420 . S
O785 C770 1.199 1_655 S
O786 U766 2.455 . S
O786 C783 1.301 . S
O787 U766 2.449 . S
O787 C783 1.282 . S
H788 C761 0.931 . S
H789 C763 0.929 . S
H790 C764 0.930 . S
H791 C765 0.931 . S
H792 C772 0.932 . S
H793 C773 0.930 . S
H794 C774 0.929 . S
H795 C776 0.930 . S
H796 C778 0.932 . S
H797 C779 0.929 . S
H798 C780 0.928 . S
H799 C782 0.932 . S
C800 C801 1.264 . S
C800 C805 1.479 . S
C800 C810 1.465 . S
C801 C800 1.264 . S
C801 C803 1.339 . S
C801 H828 0.931 . S
C802 C803 1.395 . S
C802 C804 1.320 . S
C803 C801 1.339 . S
C803 C802 1.395 . S
C803 H829 0.929 . S
C804 C802 1.320 . S
C804 C805 1.405 . S
C804 H830 0.930 . S
C805 C800 1.479 . S
C805 C804 1.405 . S
C805 H831 0.931 . S
U806 O807 2.454 . S
U806 O808 2.458 . S
U806 C809 2.984 . S
U806 C810 2.847 . S
U806 C823 2.882 . S
U806 O824 2.441 . S
U806 O825 2.420 . S
U806 O826 2.455 . S
U806 O827 2.449 . S
O807 U806 2.454 . S
O807 C809 1.353 . S
O808 U806 2.458 . S
O808 C809 1.286 . S
C809 U806 2.984 . S
C809 O807 1.353 . S
C809 O808 1.286 . S
C809 C811 1.363 . S
C810 C800 1.465 . S
C810 U806 2.847 . S
C810 O824 1.249 . S
C810 O825 1.202 . S
C811 C809 1.363 . S
C811 C813 1.408 . S
C811 C816 1.342 . S
C812 C813 1.310 . S
C812 C815 1.461 . S
C812 H832 0.932 . S
C813 C811 1.408 . S
C813 C812 1.310 . S
C813 H833 0.930 . S
C814 C815 1.474 . S
C814 C816 1.285 . S
C814 H834 0.929 . S
C815 C812 1.461 . S
C815 C814 1.474 . S
C816 C811 1.342 . S
C816 C814 1.285 . S
C816 H835 0.930 . S
C817 C820 1.424 . S
C817 C822 1.245 . S
C817 C823 1.428 . S
C818 C821 1.260 . S
C818 C822 1.477 . S
C818 H836 0.932 . S
C819 C820 1.384 . S
C819 C821 1.479 . S
C819 H837 0.929 . S
C820 C817 1.424 . S
C820 C819 1.384 . S
C820 H838 0.928 . S
C821 C818 1.260 . S
C821 C819 1.479 . S
C822 C817 1.245 . S
C822 C818 1.477 . S
C822 H839 0.932 . S
C823 U806 2.882 . S
C823 C817 1.428 . S
C823 O826 1.301 . S
C823 O827 1.282 . S
O824 U806 2.441 . S
O824 C810 1.249 . S
O825 U806 2.420 . S
O825 C810 1.202 . S
O826 U806 2.455 . S
O826 C823 1.301 . S
O827 U806 2.449 . S
O827 C823 1.282 . S
H828 C801 0.931 . S
H829 C803 0.929 . S
H830 C804 0.930 . S
H831 C805 0.931 . S
H832 C812 0.932 . S
H833 C813 0.930 . S
H834 C814 0.929 . S
H835 C816 0.930 . S
H836 C818 0.932 . S
H837 C819 0.929 . S
H838 C820 0.928 . S
H839 C822 0.932 . S
C840 C841 1.264 . S
C840 C845 1.479 . S
C840 C850 1.465 . S
C841 C840 1.264 . S
C841 C843 1.339 . S
C841 H868 0.931 . S
C842 C843 1.395 . S
C842 C844 1.320 . S
C843 C841 1.339 . S
C843 C842 1.395 . S
C843 H869 0.929 . S
C844 C842 1.320 . S
C844 C845 1.405 . S
C844 H870 0.930 . S
C845 C840 1.479 . S
C845 C844 1.405 . S
C845 H871 0.931 . S
U846 O847 2.454 . S
U846 O848 2.458 . S
U846 C849 2.984 . S
U846 C850 2.847 . S
U846 C863 2.882 . S
U846 O864 2.441 . S
U846 O865 2.420 . S
U846 O866 2.455 . S
U846 O867 2.449 . S
O847 U846 2.454 . S
O847 C849 1.353 . S
O848 U846 2.458 . S
O848 C849 1.286 . S
C849 U846 2.984 . S
C849 O847 1.353 . S
C849 O848 1.286 . S
C849 C851 1.363 . S
C850 C840 1.465 . S
C850 U846 2.847 . S
C850 O864 1.249 . S
C850 O865 1.202 . S
C851 C849 1.363 . S
C851 C853 1.408 . S
C851 C856 1.342 . S
C852 C853 1.310 . S
C852 C855 1.461 . S
C852 H872 0.932 . S
C853 C851 1.408 . S
C853 C852 1.310 . S
C853 H873 0.930 . S
C854 C855 1.474 . S
C854 C856 1.285 . S
C854 H874 0.929 . S
C855 C852 1.461 . S
C855 C854 1.474 . S
C856 C851 1.342 . S
C856 C854 1.285 . S
C856 H875 0.930 . S
C857 C860 1.424 . S
C857 C862 1.245 . S
C857 C863 1.428 . S
C858 C861 1.260 . S
C858 C862 1.477 . S
C858 H876 0.932 . S
C859 C860 1.384 . S
C859 C861 1.479 . S
C859 H877 0.929 . S
C860 C857 1.424 . S
C860 C859 1.384 . S
C860 H878 0.928 . S
C861 C858 1.260 . S
C861 C859 1.479 . S
C862 C857 1.245 . S
C862 C858 1.477 . S
C862 H879 0.932 . S
C863 U846 2.882 . S
C863 C857 1.428 . S
C863 O866 1.301 . S
C863 O867 1.282 . S
O864 U846 2.441 . S
O864 C850 1.249 . S
O865 U846 2.420 . S
O865 C850 1.202 . S
O866 U846 2.455 . S
O866 C863 1.301 . S
O867 U846 2.449 . S
O867 C863 1.282 . S
H868 C841 0.931 . S
H869 C843 0.929 . S
H870 C844 0.930 . S
H871 C845 0.931 . S
H872 C852 0.932 . S
H873 C853 0.930 . S
H874 C854 0.929 . S
H875 C856 0.930 . S
H876 C858 0.932 . S
H877 C859 0.929 . S
H878 C860 0.928 . S
H879 C862 0.932 . S
C880 C881 1.264 . S
C880 C885 1.479 . S
C880 C890 1.465 . S
C881 C880 1.264 . S
C881 C883 1.339 . S
C881 H908 0.931 . S
C882 C883 1.395 1_556 S
C882 C884 1.320 . S
C883 C881 1.339 . S
C883 C882 1.395 1_554 S
C883 H909 0.929 . S
C884 C882 1.320 . S
C884 C885 1.405 1_556 S
C884 H910 0.930 . S
C885 C880 1.479 . S
C885 C884 1.405 1_554 S
C885 H911 0.931 . S
U886 O887 2.454 . S
U886 O888 2.458 . S
U886 C889 2.984 . S
U886 C890 2.847 . S
U886 C903 2.882 . S
U886 O904 2.441 . S
U886 O905 2.420 . S
U886 O906 2.455 . S
U886 O907 2.449 . S
O887 U886 2.454 . S
O887 C889 1.353 . S
O888 U886 2.458 . S
O888 C889 1.286 . S
C889 U886 2.984 . S
C889 O887 1.353 . S
C889 O888 1.286 . S
C889 C891 1.363 . S
C890 C880 1.465 . S
C890 U886 2.847 . S
C890 O904 1.249 . S
C890 O905 1.202 . S
C891 C889 1.363 . S
C891 C893 1.408 . S
C891 C896 1.342 . S
C892 C893 1.310 . S
C892 C895 1.461 . S
C892 H912 0.932 . S
C893 C891 1.408 . S
C893 C892 1.310 . S
C893 H913 0.930 . S
C894 C895 1.474 . S
C894 C896 1.285 . S
C894 H914 0.929 . S
C895 C892 1.461 . S
C895 C894 1.474 . S
C896 C891 1.342 . S
C896 C894 1.285 . S
C896 H915 0.930 . S
C897 C900 1.424 . S
C897 C902 1.245 . S
C897 C903 1.428 . S
C898 C901 1.260 . S
C898 C902 1.477 . S
C898 H916 0.932 . S
C899 C900 1.384 . S
C899 C901 1.479 . S
C899 H917 0.929 . S
C900 C897 1.424 . S
C900 C899 1.384 . S
C900 H918 0.928 . S
C901 C898 1.260 . S
C901 C899 1.479 . S
C902 C897 1.245 . S
C902 C898 1.477 . S
C902 H919 0.932 . S
C903 U886 2.882 . S
C903 C897 1.428 . S
C903 O906 1.301 . S
C903 O907 1.282 . S
O904 U886 2.441 . S
O904 C890 1.249 . S
O905 U886 2.420 . S
O905 C890 1.202 . S
O906 U886 2.455 . S
O906 C903 1.301 . S
O907 U886 2.449 . S
O907 C903 1.282 . S
H908 C881 0.931 . S
H909 C883 0.929 . S
H910 C884 0.930 . S
H911 C885 0.931 . S
H912 C892 0.932 . S
H913 C893 0.930 . S
H914 C894 0.929 . S
H915 C896 0.930 . S
H916 C898 0.932 . S
H917 C899 0.929 . S
H918 C900 0.928 . S
H919 C902 0.932 . S
C920 C921 1.264 . S
C920 C925 1.479 1_565 S
C920 C930 1.467 . S
C921 C920 1.264 . S
C921 C923 1.339 . S
C921 H948 0.931 . S
C922 C923 1.395 . S
C922 C924 1.320 1_565 S
C923 C921 1.339 . S
C923 C922 1.395 . S
C923 H949 0.929 . S
C924 C922 1.320 1_545 S
C924 C925 1.405 . S
C924 H950 0.930 . S
C925 C920 1.479 1_545 S
C925 C924 1.405 . S
C925 H951 0.931 . S
U926 O927 2.454 . S
U926 O928 2.458 . S
U926 C929 2.984 . S
U926 C930 2.845 1_545 S
U926 C943 2.882 1_545 S
U926 O944 2.441 . S
U926 O945 2.420 1_545 S
U926 O946 2.455 1_545 S
U926 O947 2.449 1_545 S
O927 U926 2.454 . S
O927 C929 1.353 . S
O928 U926 2.458 . S
O928 C929 1.286 . S
C929 U926 2.984 . S
C929 O927 1.353 . S
C929 O928 1.286 . S
C929 C931 1.363 . S
C930 C920 1.467 . S
C930 U926 2.845 1_565 S
C930 O944 1.242 1_565 S
C930 O945 1.207 . S
C931 C929 1.363 . S
C931 C933 1.408 . S
C931 C936 1.342 . S
C932 C933 1.310 . S
C932 C935 1.461 . S
C932 H952 0.932 . S
C933 C931 1.408 . S
C933 C932 1.310 . S
C933 H953 0.930 . S
C934 C935 1.474 . S
C934 C936 1.285 . S
C934 H954 0.929 . S
C935 C932 1.461 . S
C935 C934 1.474 . S
C936 C931 1.342 . S
C936 C934 1.285 . S
C936 H955 0.930 . S
C937 C940 1.424 . S
C937 C942 1.245 . S
C937 C943 1.428 . S
C938 C941 1.260 . S
C938 C942 1.477 . S
C938 H956 0.932 . S
C939 C940 1.384 . S
C939 C941 1.479 . S
C939 H957 0.929 . S
C940 C937 1.424 . S
C940 C939 1.384 . S
C940 H958 0.928 . S
C941 C938 1.260 . S
C941 C939 1.479 . S
C942 C937 1.245 . S
C942 C938 1.477 . S
C942 H959 0.932 . S
C943 U926 2.882 1_565 S
C943 C937 1.428 . S
C943 O946 1.301 . S
C943 O947 1.282 . S
O944 U926 2.441 . S
O944 C930 1.242 1_545 S
O945 U926 2.420 1_565 S
O945 C930 1.207 . S
O946 U926 2.455 1_565 S
O946 C943 1.301 . S
O947 U926 2.449 1_565 S
O947 C943 1.282 . S
H948 C921 0.931 . S
H949 C923 0.929 . S
H950 C924 0.930 . S
H951 C925 0.931 . S
H952 C932 0.932 . S
H953 C933 0.930 . S
H954 C934 0.929 . S
H955 C936 0.930 . S
H956 C938 0.932 . S
H957 C939 0.929 . S
H958 C940 0.928 . S
H959 C942 0.932 . S
C960 C961 1.264 . S
C960 C965 1.479 . S
C960 C970 1.465 . S
C961 C960 1.264 . S
C961 C963 1.339 . S
C961 H988 0.931 . S
C962 C963 1.395 . S
C962 C964 1.320 . S
C963 C961 1.339 . S
C963 C962 1.395 . S
C963 H989 0.929 . S
C964 C962 1.320 . S
C964 C965 1.405 . S
C964 H990 0.930 . S
C965 C960 1.479 . S
C965 C964 1.405 . S
C965 H991 0.931 1_565 S
U966 O967 2.512 . S
U966 O968 2.501 . S
U966 C969 3.041 . S
U966 C970 2.834 1_545 S
U966 C983 2.840 1_545 S
U966 O984 2.454 . S
U966 O985 2.385 1_545 S
U966 O986 2.436 1_545 S
U966 O987 2.393 1_545 S
O967 U966 2.512 . S
O967 C969 1.353 . S
O968 U966 2.501 . S
O968 C969 1.286 . S
C969 U966 3.041 . S
C969 O967 1.353 . S
C969 O968 1.286 . S
C969 C971 1.363 . S
C970 C960 1.465 . S
C970 U966 2.834 1_565 S
C970 O984 1.249 1_565 S
C970 O985 1.202 . S
C971 C969 1.363 . S
C971 C973 1.408 . S
C971 C976 1.342 . S
C972 C973 1.310 . S
C972 C975 1.461 . S
C972 H992 0.932 . S
C973 C971 1.408 . S
C973 C972 1.310 . S
C973 H993 0.930 . S
C974 C975 1.474 . S
C974 C976 1.285 . S
C974 H994 0.929 . S
C975 C972 1.461 . S
C975 C974 1.474 . S
C976 C971 1.342 . S
C976 C974 1.285 . S
C976 H995 0.930 . S
C977 C980 1.424 . S
C977 C982 1.245 . S
C977 C983 1.428 . S
C978 C981 1.260 . S
C978 C982 1.477 . S
C978 H996 0.932 . S
C979 C980 1.384 . S
C979 C981 1.479 . S
C979 H997 0.929 . S
C980 C977 1.424 . S
C980 C979 1.384 . S
C980 H998 0.928 . S
C981 C978 1.260 . S
C981 C979 1.479 . S
C982 C977 1.245 . S
C982 C978 1.477 . S
C982 H999 0.932 . S
C983 U966 2.840 1_565 S
C983 C977 1.428 . S
C983 O986 1.301 . S
C983 O987 1.282 . S
O984 U966 2.454 . S
O984 C970 1.249 1_545 S
O985 U966 2.385 1_565 S
O985 C970 1.202 . S
O986 U966 2.436 1_565 S
O986 C983 1.301 . S
O987 U966 2.393 1_565 S
O987 C983 1.282 . S
H988 C961 0.931 . S
H989 C963 0.929 . S
H990 C964 0.930 . S
H991 C965 0.931 1_545 S
H992 C972 0.932 . S
H993 C973 0.930 . S
H994 C974 0.929 . S
H995 C976 0.930 . S
H996 C978 0.932 . S
H997 C979 0.929 . S
H998 C980 0.928 . S
H999 C982 0.932 . S
C1000 C1001 1.264 . S
C1000 C1005 1.479 . S
C1000 C1010 1.465 . S
C1001 C1000 1.264 . S
C1001 C1003 1.339 . S
C1001 H1028 0.931 . S
C1002 C1003 1.395 . S
C1002 C1004 1.320 . S
C1003 C1001 1.339 . S
C1003 C1002 1.395 . S
C1003 H1029 0.929 . S
C1004 C1002 1.320 . S
C1004 C1005 1.405 . S
C1004 H1030 0.930 . S
C1005 C1000 1.479 . S
C1005 C1004 1.405 . S
C1005 H1031 0.931 . S
U1006 O1007 2.454 . S
U1006 O1008 2.458 1_565 S
U1006 C1009 2.984 1_565 S
U1006 C1010 2.847 . S
U1006 C1023 2.882 1_565 S
U1006 O1024 2.441 . S
U1006 O1025 2.420 . S
U1006 O1026 2.455 1_565 S
U1006 O1027 2.449 1_565 S
O1007 U1006 2.454 . S
O1007 C1009 1.353 1_565 S
O1008 U1006 2.458 1_545 S
O1008 C1009 1.286 . S
C1009 U1006 2.984 1_545 S
C1009 O1007 1.353 1_545 S
C1009 O1008 1.286 . S
C1009 C1011 1.363 . S
C1010 C1000 1.465 . S
C1010 U1006 2.847 . S
C1010 O1024 1.249 . S
C1010 O1025 1.202 . S
C1011 C1009 1.363 . S
C1011 C1013 1.408 1_545 S
C1011 C1016 1.342 . S
C1012 C1013 1.310 . S
C1012 C1015 1.461 1_565 S
C1012 H1032 0.932 . S
C1013 C1011 1.408 1_565 S
C1013 C1012 1.310 . S
C1013 H1033 0.930 . S
C1014 C1015 1.474 . S
C1014 C1016 1.285 . S
C1014 H1034 0.929 . S
C1015 C1012 1.461 1_545 S
C1015 C1014 1.474 . S
C1016 C1011 1.342 . S
C1016 C1014 1.285 . S
C1016 H1035 0.930 . S
C1017 C1020 1.424 . S
C1017 C1022 1.245 . S
C1017 C1023 1.428 . S
C1018 C1021 1.260 . S
C1018 C1022 1.477 . S
C1018 H1036 0.932 . S
C1019 C1020 1.384 . S
C1019 C1021 1.479 . S
C1019 H1037 0.929 . S
C1020 C1017 1.424 . S
C1020 C1019 1.384 . S
C1020 H1038 0.928 . S
C1021 C1018 1.260 . S
C1021 C1019 1.479 . S
C1022 C1017 1.245 . S
C1022 C1018 1.477 . S
C1022 H1039 0.932 . S
C1023 U1006 2.882 1_545 S
C1023 C1017 1.428 . S
C1023 O1026 1.301 . S
C1023 O1027 1.282 . S
O1024 U1006 2.441 . S
O1024 C1010 1.249 . S
O1025 U1006 2.420 . S
O1025 C1010 1.202 . S
O1026 U1006 2.455 1_545 S
O1026 C1023 1.301 . S
O1027 U1006 2.449 1_545 S
O1027 C1023 1.282 . S
H1028 C1001 0.931 . S
H1029 C1003 0.929 . S
H1030 C1004 0.930 . S
H1031 C1005 0.931 . S
H1032 C1012 0.932 . S
H1033 C1013 0.930 . S
H1034 C1014 0.929 . S
H1035 C1016 0.930 . S
H1036 C1018 0.932 . S
H1037 C1019 0.929 . S
H1038 C1020 0.928 . S
H1039 C1022 0.932 . S
C1040 C1041 1.264 . S
C1040 C1045 1.479 . S
C1040 C1050 1.465 . S
C1041 C1040 1.264 . S
C1041 C1043 1.339 . S
C1041 H1068 0.931 . S
C1042 C1043 1.395 . S
C1042 C1044 1.320 . S
C1043 C1041 1.339 . S
C1043 C1042 1.395 . S
C1043 H1069 0.929 . S
C1044 C1042 1.320 . S
C1044 C1045 1.405 . S
C1044 H1070 0.930 . S
C1045 C1040 1.479 . S
C1045 C1044 1.405 . S
C1045 H1071 0.931 . S
U1046 O1047 2.449 1_545 S
U1046 O1048 2.474 . S
U1046 C1049 2.991 . S
U1046 C1050 2.822 1_545 S
U1046 C1063 2.901 . S
U1046 O1064 2.415 1_545 S
U1046 O1065 2.401 1_545 S
U1046 O1066 2.480 . S
U1046 O1067 2.458 . S
O1047 U1046 2.449 1_565 S
O1047 C1049 1.353 1_565 S
O1048 U1046 2.474 . S
O1048 C1049 1.286 . S
C1049 U1046 2.991 . S
C1049 O1047 1.353 1_545 S
C1049 O1048 1.286 . S
C1049 C1051 1.363 . S
C1050 C1040 1.465 . S
C1050 U1046 2.822 1_565 S
C1050 O1064 1.249 . S
C1050 O1065 1.202 . S
C1051 C1049 1.363 . S
C1051 C1053 1.408 . S
C1051 C1056 1.342 . S
C1052 C1053 1.310 . S
C1052 C1055 1.461 . S
C1052 H1072 0.932 . S
C1053 C1051 1.408 . S
C1053 C1052 1.310 . S
C1053 H1073 0.930 1_545 S
C1054 C1055 1.474 . S
C1054 C1056 1.285 . S
C1054 H1074 0.929 . S
C1055 C1052 1.461 . S
C1055 C1054 1.474 . S
C1056 C1051 1.342 . S
C1056 C1054 1.285 . S
C1056 H1075 0.930 . S
C1057 C1060 1.424 . S
C1057 C1062 1.245 . S
C1057 C1063 1.428 . S
C1058 C1061 1.260 . S
C1058 C1062 1.477 . S
C1058 H1076 0.932 . S
C1059 C1060 1.384 . S
C1059 C1061 1.479 . S
C1059 H1077 0.929 . S
C1060 C1057 1.424 . S
C1060 C1059 1.384 . S
C1060 H1078 0.928 . S
C1061 C1058 1.260 . S
C1061 C1059 1.479 . S
C1062 C1057 1.245 . S
C1062 C1058 1.477 . S
C1062 H1079 0.932 . S
C1063 U1046 2.901 . S
C1063 C1057 1.428 . S
C1063 O1066 1.301 . S
C1063 O1067 1.282 . S
O1064 U1046 2.415 1_565 S
O1064 C1050 1.249 . S
O1065 U1046 2.401 1_565 S
O1065 C1050 1.202 . S
O1066 U1046 2.480 . S
O1066 C1063 1.301 . S
O1067 U1046 2.458 . S
O1067 C1063 1.282 . S
H1068 C1041 0.931 . S
H1069 C1043 0.929 . S
H1070 C1044 0.930 . S
H1071 C1045 0.931 . S
H1072 C1052 0.932 . S
H1073 C1053 0.930 1_565 S
H1074 C1054 0.929 . S
H1075 C1056 0.930 . S
H1076 C1058 0.932 . S
H1077 C1059 0.929 . S
H1078 C1060 0.928 . S
H1079 C1062 0.932 . S
C1080 C1081 1.264 . S
C1080 C1085 1.479 . S
C1080 C1090 1.465 . S
C1081 C1080 1.264 . S
C1081 C1083 1.339 . S
C1081 H1108 0.931 . S
C1082 C1083 1.395 . S
C1082 C1084 1.320 . S
C1083 C1081 1.339 . S
C1083 C1082 1.395 . S
C1083 H1109 0.929 . S
C1084 C1082 1.320 . S
C1084 C1085 1.405 . S
C1084 H1110 0.930 . S
C1085 C1080 1.479 . S
C1085 C1084 1.405 . S
C1085 H1111 0.931 . S
U1086 O1087 2.454 . S
U1086 O1088 2.458 . S
U1086 C1089 2.984 . S
U1086 C1090 2.847 . S
U1086 C1103 2.882 . S
U1086 O1104 2.441 . S
U1086 O1105 2.420 . S
U1086 O1106 2.455 . S
U1086 O1107 2.449 . S
O1087 U1086 2.454 . S
O1087 C1089 1.353 . S
O1088 U1086 2.458 . S
O1088 C1089 1.286 . S
C1089 U1086 2.984 . S
C1089 O1087 1.353 . S
C1089 O1088 1.286 . S
C1089 C1091 1.363 . S
C1090 C1080 1.465 . S
C1090 U1086 2.847 . S
C1090 O1104 1.249 . S
C1090 O1105 1.202 . S
C1091 C1089 1.363 . S
C1091 C1093 1.429 . S
C1091 C1096 1.342 . S
C1092 C1093 1.280 1_554 S
C1092 C1095 1.461 . S
C1092 H1112 0.932 . S
C1093 C1091 1.429 . S
C1093 C1092 1.280 1_556 S
C1093 H1113 0.939 . S
C1094 C1095 1.474 . S
C1094 C1096 1.285 1_554 S
C1094 H1114 0.929 . S
C1095 C1092 1.461 . S
C1095 C1094 1.474 . S
C1096 C1091 1.342 . S
C1096 C1094 1.285 1_556 S
C1096 H1115 0.930 . S
C1097 C1100 1.424 . S
C1097 C1102 1.245 . S
C1097 C1103 1.428 . S
C1098 C1101 1.260 . S
C1098 C1102 1.477 . S
C1098 H1116 0.932 . S
C1099 C1100 1.384 . S
C1099 C1101 1.479 . S
C1099 H1117 0.929 . S
C1100 C1097 1.424 . S
C1100 C1099 1.384 . S
C1100 H1118 0.928 . S
C1101 C1098 1.260 . S
C1101 C1099 1.479 . S
C1102 C1097 1.245 . S
C1102 C1098 1.477 . S
C1102 H1119 0.932 . S
C1103 U1086 2.882 . S
C1103 C1097 1.428 . S
C1103 O1106 1.301 . S
C1103 O1107 1.282 . S
O1104 U1086 2.441 . S
O1104 C1090 1.249 . S
O1105 U1086 2.420 . S
O1105 C1090 1.202 . S
O1106 U1086 2.455 . S
O1106 C1103 1.301 . S
O1107 U1086 2.449 . S
O1107 C1103 1.282 . S
H1108 C1081 0.931 . S
H1109 C1083 0.929 . S
H1110 C1084 0.930 . S
H1111 C1085 0.931 . S
H1112 C1092 0.932 . S
H1113 C1093 0.939 . S
H1114 C1094 0.929 . S
H1115 C1096 0.930 . S
H1116 C1098 0.932 . S
H1117 C1099 0.929 . S
H1118 C1100 0.928 . S
H1119 C1102 0.932 . S
C1120 C1121 1.264 . S
C1120 C1125 1.479 . S
C1120 C1130 1.465 . S
C1121 C1120 1.264 . S
C1121 C1123 1.339 . S
C1121 H1148 0.931 . S
C1122 C1123 1.395 . S
C1122 C1124 1.320 . S
C1123 C1121 1.339 . S
C1123 C1122 1.395 . S
C1123 H1149 0.929 . S
C1124 C1122 1.320 . S
C1124 C1125 1.405 . S
C1124 H1150 0.930 . S
C1125 C1120 1.479 . S
C1125 C1124 1.405 . S
C1125 H1151 0.931 . S
U1126 O1127 2.443 1_455 S
U1126 O1128 2.458 . S
U1126 C1129 2.984 . S
U1126 C1130 2.847 1_455 S
U1126 C1143 2.882 . S
U1126 O1144 2.441 1_455 S
U1126 O1145 2.420 1_455 S
U1126 O1146 2.455 . S
U1126 O1147 2.449 . S
O1127 U1126 2.443 1_655 S
O1127 C1129 1.317 1_655 S
O1128 U1126 2.458 . S
O1128 C1129 1.286 . S
C1129 U1126 2.984 . S
C1129 O1127 1.317 1_455 S
C1129 O1128 1.286 . S
C1129 C1131 1.363 . S
C1130 C1120 1.465 . S
C1130 U1126 2.847 1_655 S
C1130 O1144 1.249 . S
C1130 O1145 1.202 . S
C1131 C1129 1.363 . S
C1131 C1133 1.408 . S
C1131 C1136 1.342 . S
C1132 C1133 1.310 . S
C1132 C1135 1.461 . S
C1132 H1152 0.932 1_455 S
C1133 C1131 1.408 . S
C1133 C1132 1.310 . S
C1133 H1153 0.930 1_455 S
C1134 C1135 1.474 . S
C1134 C1136 1.285 . S
C1134 H1154 0.929 . S
C1135 C1132 1.461 . S
C1135 C1134 1.474 . S
C1136 C1131 1.342 . S
C1136 C1134 1.285 . S
C1136 H1155 0.930 . S
C1137 C1140 1.424 . S
C1137 C1142 1.245 . S
C1137 C1143 1.428 . S
C1138 C1141 1.260 . S
C1138 C1142 1.477 . S
C1138 H1156 0.932 . S
C1139 C1140 1.384 . S
C1139 C1141 1.479 . S
C1139 H1157 0.929 . S
C1140 C1137 1.424 . S
C1140 C1139 1.384 . S
C1140 H1158 0.928 . S
C1141 C1138 1.260 . S
C1141 C1139 1.479 . S
C1142 C1137 1.245 . S
C1142 C1138 1.477 . S
C1142 H1159 0.932 . S
C1143 U1126 2.882 . S
C1143 C1137 1.428 . S
C1143 O1146 1.301 . S
C1143 O1147 1.282 . S
O1144 U1126 2.441 1_655 S
O1144 C1130 1.249 . S
O1145 U1126 2.420 1_655 S
O1145 C1130 1.202 . S
O1146 U1126 2.455 . S
O1146 C1143 1.301 . S
O1147 U1126 2.449 . S
O1147 C1143 1.282 . S
H1148 C1121 0.931 . S
H1149 C1123 0.929 . S
H1150 C1124 0.930 . S
H1151 C1125 0.931 . S
H1152 C1132 0.932 1_655 S
H1153 C1133 0.930 1_655 S
H1154 C1134 0.929 . S
H1155 C1136 0.930 . S
H1156 C1138 0.932 . S
H1157 C1139 0.929 . S
H1158 C1140 0.928 . S
H1159 C1142 0.932 . S
C1160 C1161 1.264 . S
C1160 C1165 1.479 . S
C1160 C1170 1.465 . S
C1161 C1160 1.264 . S
C1161 C1163 1.339 . S
C1161 H1188 0.931 . S
C1162 C1163 1.395 . S
C1162 C1164 1.320 . S
C1163 C1161 1.339 . S
C1163 C1162 1.395 . S
C1163 H1189 0.929 . S
C1164 C1162 1.320 . S
C1164 C1165 1.405 . S
C1164 H1190 0.930 . S
C1165 C1160 1.479 . S
C1165 C1164 1.405 . S
C1165 H1191 0.931 . S
U1166 O1167 2.454 . S
U1166 O1168 2.458 . S
U1166 C1169 2.984 . S
U1166 C1170 2.847 . S
U1166 C1183 2.882 . S
U1166 O1184 2.441 . S
U1166 O1185 2.420 . S
U1166 O1186 2.455 . S
U1166 O1187 2.449 . S
O1167 U1166 2.454 . S
O1167 C1169 1.353 . S
O1168 U1166 2.458 . S
O1168 C1169 1.286 . S
C1169 U1166 2.984 . S
C1169 O1167 1.353 . S
C1169 O1168 1.286 . S
C1169 C1171 1.363 . S
C1170 C1160 1.465 . S
C1170 U1166 2.847 . S
C1170 O1184 1.249 . S
C1170 O1185 1.202 . S
C1171 C1169 1.363 . S
C1171 C1173 1.408 . S
C1171 C1176 1.342 . S
C1172 C1173 1.310 . S
C1172 C1175 1.461 . S
C1172 H1192 0.932 . S
C1173 C1171 1.408 . S
C1173 C1172 1.310 . S
C1173 H1193 0.930 . S
C1174 C1175 1.474 . S
C1174 C1176 1.285 . S
C1174 H1194 0.929 . S
C1175 C1172 1.461 . S
C1175 C1174 1.474 . S
C1176 C1171 1.342 . S
C1176 C1174 1.285 . S
C1176 H1195 0.930 . S
C1177 C1180 1.424 . S
C1177 C1182 1.245 . S
C1177 C1183 1.428 . S
C1178 C1181 1.260 . S
C1178 C1182 1.477 . S
C1178 H1196 0.932 . S
C1179 C1180 1.384 . S
C1179 C1181 1.479 . S
C1179 H1197 0.929 . S
C1180 C1177 1.424 . S
C1180 C1179 1.384 . S
C1180 H1198 0.928 . S
C1181 C1178 1.260 . S
C1181 C1179 1.479 . S
C1182 C1177 1.245 . S
C1182 C1178 1.477 . S
C1182 H1199 0.932 . S
C1183 U1166 2.882 . S
C1183 C1177 1.428 . S
C1183 O1186 1.301 . S
C1183 O1187 1.282 . S
O1184 U1166 2.441 . S
O1184 C1170 1.249 . S
O1185 U1166 2.420 . S
O1185 C1170 1.202 . S
O1186 U1166 2.455 . S
O1186 C1183 1.301 . S
O1187 U1166 2.449 . S
O1187 C1183 1.282 . S
H1188 C1161 0.931 . S
H1189 C1163 0.929 . S
H1190 C1164 0.930 . S
H1191 C1165 0.931 . S
H1192 C1172 0.932 . S
H1193 C1173 0.930 . S
H1194 C1174 0.929 . S
H1195 C1176 0.930 . S
H1196 C1178 0.932 . S
H1197 C1179 0.929 . S
H1198 C1180 0.928 . S
H1199 C1182 0.932 . S
C1200 C1201 1.264 . S
C1200 C1205 1.479 . S
C1200 C1210 1.465 . S
C1201 C1200 1.264 . S
C1201 C1203 1.339 . S
C1201 H1228 0.931 . S
C1202 C1203 1.395 . S
C1202 C1204 1.320 . S
C1203 C1201 1.339 . S
C1203 C1202 1.395 . S
C1203 H1229 0.929 . S
C1204 C1202 1.320 . S
C1204 C1205 1.405 . S
C1204 H1230 0.930 . S
C1205 C1200 1.479 . S
C1205 C1204 1.405 . S
C1205 H1231 0.931 . S
U1206 O1207 2.454 . S
U1206 O1208 2.458 . S
U1206 C1209 2.984 . S
U1206 C1210 2.847 . S
U1206 C1223 2.882 . S
U1206 O1224 2.441 . S
U1206 O1225 2.420 . S
U1206 O1226 2.455 . S
U1206 O1227 2.449 . S
O1207 U1206 2.454 . S
O1207 C1209 1.353 . S
O1208 U1206 2.458 . S
O1208 C1209 1.286 . S
C1209 U1206 2.984 . S
C1209 O1207 1.353 . S
C1209 O1208 1.286 . S
C1209 C1211 1.363 . S
C1210 C1200 1.465 . S
C1210 U1206 2.847 . S
C1210 O1224 1.249 . S
C1210 O1225 1.202 . S
C1211 C1209 1.363 . S
C1211 C1213 1.408 . S
C1211 C1216 1.342 . S
C1212 C1213 1.310 . S
C1212 C1215 1.461 . S
C1212 H1232 0.932 . S
C1213 C1211 1.408 . S
C1213 C1212 1.310 . S
C1213 H1233 0.930 . S
C1214 C1215 1.474 . S
C1214 C1216 1.285 . S
C1214 H1234 0.929 . S
C1215 C1212 1.461 . S
C1215 C1214 1.474 . S
C1216 C1211 1.342 . S
C1216 C1214 1.285 . S
C1216 H1235 0.930 . S
C1217 C1220 1.424 . S
C1217 C1222 1.245 . S
C1217 C1223 1.428 . S
C1218 C1221 1.260 . S
C1218 C1222 1.477 . S
C1218 H1236 0.932 . S
C1219 C1220 1.384 . S
C1219 C1221 1.479 . S
C1219 H1237 0.929 . S
C1220 C1217 1.424 . S
C1220 C1219 1.384 . S
C1220 H1238 0.928 . S
C1221 C1218 1.260 . S
C1221 C1219 1.479 . S
C1222 C1217 1.245 . S
C1222 C1218 1.477 . S
C1222 H1239 0.932 . S
C1223 U1206 2.882 . S
C1223 C1217 1.428 . S
C1223 O1226 1.301 . S
C1223 O1227 1.282 . S
O1224 U1206 2.441 . S
O1224 C1210 1.249 . S
O1225 U1206 2.420 . S
O1225 C1210 1.202 . S
O1226 U1206 2.455 . S
O1226 C1223 1.301 . S
O1227 U1206 2.449 . S
O1227 C1223 1.282 . S
H1228 C1201 0.931 . S
H1229 C1203 0.929 . S
H1230 C1204 0.930 . S
H1231 C1205 0.931 . S
H1232 C1212 0.932 . S
H1233 C1213 0.930 . S
H1234 C1214 0.929 . S
H1235 C1216 0.930 . S
H1236 C1218 0.932 . S
H1237 C1219 0.929 . S
H1238 C1220 0.928 . S
H1239 C1222 0.932 . S
C1240 C1241 1.264 . S
C1240 C1245 1.479 . S
C1240 C1250 1.465 . S
C1241 C1240 1.264 . S
C1241 C1243 1.339 . S
C1241 H1268 0.931 . S
C1242 C1243 1.395 . S
C1242 C1244 1.320 . S
C1243 C1241 1.339 . S
C1243 C1242 1.395 . S
C1243 H1269 0.929 . S
C1244 C1242 1.320 . S
C1244 C1245 1.405 . S
C1244 H1270 0.930 . S
C1245 C1240 1.479 . S
C1245 C1244 1.405 . S
C1245 H1271 0.931 . S
U1246 O1247 2.454 1_655 S
U1246 O1248 2.458 1_655 S
U1246 C1249 2.984 1_655 S
U1246 C1250 2.847 . S
U1246 C1263 2.882 . S
U1246 O1264 2.441 . S
U1246 O1265 2.420 . S
U1246 O1266 2.455 . S
U1246 O1267 2.449 . S
O1247 U1246 2.454 1_455 S
O1247 C1249 1.353 . S
O1248 U1246 2.458 1_455 S
O1248 C1249 1.286 . S
C1249 U1246 2.984 1_455 S
C1249 O1247 1.353 . S
C1249 O1248 1.286 . S
C1249 C1251 1.363 . S
C1250 C1240 1.465 . S
C1250 U1246 2.847 . S
C1250 O1264 1.249 . S
C1250 O1265 1.202 . S
C1251 C1249 1.363 . S
C1251 C1253 1.408 . S
C1251 C1256 1.342 . S
C1252 C1253 1.310 . S
C1252 C1255 1.461 . S
C1252 H1272 0.932 . S
C1253 C1251 1.408 . S
C1253 C1252 1.310 . S
C1253 H1273 0.930 . S
C1254 C1255 1.474 . S
C1254 C1256 1.285 . S
C1254 H1274 0.929 . S
C1255 C1252 1.461 . S
C1255 C1254 1.474 . S
C1256 C1251 1.342 . S
C1256 C1254 1.285 . S
C1256 H1275 0.930 . S
C1257 C1260 1.424 . S
C1257 C1262 1.245 . S
C1257 C1263 1.428 . S
C1258 C1261 1.260 . S
C1258 C1262 1.477 . S
C1258 H1276 0.932 . S
C1259 C1260 1.384 . S
C1259 C1261 1.479 . S
C1259 H1277 0.929 . S
C1260 C1257 1.424 . S
C1260 C1259 1.384 . S
C1260 H1278 0.928 . S
C1261 C1258 1.260 . S
C1261 C1259 1.479 . S
C1262 C1257 1.245 . S
C1262 C1258 1.477 . S
C1262 H1279 0.932 . S
C1263 U1246 2.882 . S
C1263 C1257 1.428 . S
C1263 O1266 1.301 . S
C1263 O1267 1.282 . S
O1264 U1246 2.441 . S
O1264 C1250 1.249 . S
O1265 U1246 2.420 . S
O1265 C1250 1.202 . S
O1266 U1246 2.455 . S
O1266 C1263 1.301 . S
O1267 U1246 2.449 . S
O1267 C1263 1.282 . S
H1268 C1241 0.931 . S
H1269 C1243 0.929 . S
H1270 C1244 0.930 . S
H1271 C1245 0.931 . S
H1272 C1252 0.932 . S
H1273 C1253 0.930 . S
H1274 C1254 0.929 . S
H1275 C1256 0.930 . S
H1276 C1258 0.932 . S
H1277 C1259 0.929 . S
H1278 C1260 0.928 . S
H1279 C1262 0.932 . S
C1280 C1281 1.264 . S
C1280 C1285 1.479 . S
C1280 C1290 1.465 . S
C1281 C1280 1.264 . S
C1281 C1283 1.339 . S
C1281 H1308 0.931 . S
C1282 C1283 1.395 . S
C1282 C1284 1.320 . S
C1283 C1281 1.339 . S
C1283 C1282 1.395 . S
C1283 H1309 0.929 . S
C1284 C1282 1.320 . S
C1284 C1285 1.405 . S
C1284 H1310 0.930 . S
C1285 C1280 1.479 . S
C1285 C1284 1.405 . S
C1285 H1311 0.931 . S
U1286 O1287 2.454 . S
U1286 O1288 2.458 . S
U1286 C1289 2.984 . S
U1286 C1290 2.847 . S
U1286 C1303 2.882 . S
U1286 O1304 2.441 . S
U1286 O1305 2.420 . S
U1286 O1306 2.455 . S
U1286 O1307 2.449 . S
O1287 U1286 2.454 . S
O1287 C1289 1.353 . S
O1288 U1286 2.458 . S
O1288 C1289 1.286 . S
C1289 U1286 2.984 . S
C1289 O1287 1.353 . S
C1289 O1288 1.286 . S
C1289 C1291 1.363 . S
C1290 C1280 1.465 . S
C1290 U1286 2.847 . S
C1290 O1304 1.249 . S
C1290 O1305 1.202 . S
C1291 C1289 1.363 . S
C1291 C1293 1.408 . S
C1291 C1296 1.342 . S
C1292 C1293 1.310 . S
C1292 C1295 1.461 . S
C1292 H1312 0.932 . S
C1293 C1291 1.408 . S
C1293 C1292 1.310 . S
C1293 H1313 0.930 . S
C1294 C1295 1.474 . S
C1294 C1296 1.285 . S
C1294 H1314 0.929 . S
C1295 C1292 1.461 . S
C1295 C1294 1.474 . S
C1296 C1291 1.342 . S
C1296 C1294 1.285 . S
C1296 H1315 0.930 . S
C1297 C1300 1.424 . S
C1297 C1302 1.245 . S
C1297 C1303 1.428 . S
C1298 C1301 1.260 . S
C1298 C1302 1.477 . S
C1298 H1316 0.932 . S
C1299 C1300 1.384 . S
C1299 C1301 1.479 . S
C1299 H1317 0.929 . S
C1300 C1297 1.424 . S
C1300 C1299 1.384 . S
C1300 H1318 0.928 . S
C1301 C1298 1.260 . S
C1301 C1299 1.479 . S
C1302 C1297 1.245 . S
C1302 C1298 1.477 . S
C1302 H1319 0.932 . S
C1303 U1286 2.882 . S
C1303 C1297 1.428 . S
C1303 O1306 1.301 . S
C1303 O1307 1.282 . S
O1304 U1286 2.441 . S
O1304 C1290 1.249 . S
O1305 U1286 2.420 . S
O1305 C1290 1.202 . S
O1306 U1286 2.455 . S
O1306 C1303 1.301 . S
O1307 U1286 2.449 . S
O1307 C1303 1.282 . S
H1308 C1281 0.931 . S
H1309 C1283 0.929 . S
H1310 C1284 0.930 . S
H1311 C1285 0.931 . S
H1312 C1292 0.932 . S
H1313 C1293 0.930 . S
H1314 C1294 0.929 . S
H1315 C1296 0.930 . S
H1316 C1298 0.932 . S
H1317 C1299 0.929 . S
H1318 C1300 0.928 . S
H1319 C1302 0.932 . S
C1320 C1321 1.264 . S
C1320 C1325 1.479 . S
C1320 C1330 1.465 . S
C1321 C1320 1.264 . S
C1321 C1323 1.339 . S
C1321 H1348 0.931 . S
C1322 C1323 1.395 . S
C1322 C1324 1.320 . S
C1323 C1321 1.339 . S
C1323 C1322 1.395 . S
C1323 H1349 0.929 . S
C1324 C1322 1.320 . S
C1324 C1325 1.405 . S
C1324 H1350 0.930 . S
C1325 C1320 1.479 . S
C1325 C1324 1.405 . S
C1325 H1351 0.931 . S
U1326 O1327 2.454 . S
U1326 O1328 2.458 . S
U1326 C1329 2.984 . S
U1326 C1330 2.847 . S
U1326 C1343 2.882 . S
U1326 O1344 2.441 . S
U1326 O1345 2.420 . S
U1326 O1346 2.455 . S
U1326 O1347 2.449 . S
O1327 U1326 2.454 . S
O1327 C1329 1.353 . S
O1328 U1326 2.458 . S
O1328 C1329 1.286 . S
C1329 U1326 2.984 . S
C1329 O1327 1.353 . S
C1329 O1328 1.286 . S
C1329 C1331 1.363 . S
C1330 C1320 1.465 . S
C1330 U1326 2.847 . S
C1330 O1344 1.249 . S
C1330 O1345 1.202 . S
C1331 C1329 1.363 . S
C1331 C1333 1.408 . S
C1331 C1336 1.342 . S
C1332 C1333 1.310 1_554 S
C1332 C1335 1.461 . S
C1332 H1352 0.932 . S
C1333 C1331 1.408 . S
C1333 C1332 1.310 1_556 S
C1333 H1353 0.930 . S
C1334 C1335 1.474 . S
C1334 C1336 1.285 1_554 S
C1334 H1354 0.929 . S
C1335 C1332 1.461 . S
C1335 C1334 1.474 . S
C1336 C1331 1.342 . S
C1336 C1334 1.285 1_556 S
C1336 H1355 0.930 . S
C1337 C1340 1.424 . S
C1337 C1342 1.245 . S
C1337 C1343 1.428 . S
C1338 C1341 1.260 . S
C1338 C1342 1.477 . S
C1338 H1356 0.932 . S
C1339 C1340 1.384 . S
C1339 C1341 1.479 . S
C1339 H1357 0.929 . S
C1340 C1337 1.424 . S
C1340 C1339 1.384 . S
C1340 H1358 0.928 . S
C1341 C1338 1.260 . S
C1341 C1339 1.479 . S
C1342 C1337 1.245 . S
C1342 C1338 1.477 . S
C1342 H1359 0.932 . S
C1343 U1326 2.882 . S
C1343 C1337 1.428 . S
C1343 O1346 1.301 . S
C1343 O1347 1.282 . S
O1344 U1326 2.441 . S
O1344 C1330 1.249 . S
O1345 U1326 2.420 . S
O1345 C1330 1.202 . S
O1346 U1326 2.455 . S
O1346 C1343 1.301 . S
O1347 U1326 2.449 . S
O1347 C1343 1.282 . S
H1348 C1321 0.931 . S
H1349 C1323 0.929 . S
H1350 C1324 0.930 . S
H1351 C1325 0.931 . S
H1352 C1332 0.932 . S
H1353 C1333 0.930 . S
H1354 C1334 0.929 . S
H1355 C1336 0.930 . S
H1356 C1338 0.932 . S
H1357 C1339 0.929 . S
H1358 C1340 0.928 . S
H1359 C1342 0.932 . S
C1360 C1361 1.264 . S
C1360 C1365 1.479 . S
C1360 C1370 1.465 . S
C1361 C1360 1.264 . S
C1361 C1363 1.339 . S
C1361 H1388 0.931 . S
C1362 C1363 1.395 . S
C1362 C1364 1.320 . S
C1363 C1361 1.339 . S
C1363 C1362 1.395 . S
C1363 H1389 0.929 . S
C1364 C1362 1.320 . S
C1364 C1365 1.405 . S
C1364 H1390 0.930 . S
C1365 C1360 1.479 . S
C1365 C1364 1.405 . S
C1365 H1391 0.931 . S
U1366 O1367 2.454 . S
U1366 O1368 2.458 . S
U1366 C1369 2.984 . S
U1366 C1370 2.847 . S
U1366 C1383 2.882 . S
U1366 O1384 2.441 . S
U1366 O1385 2.420 . S
U1366 O1386 2.455 . S
U1366 O1387 2.449 . S
O1367 U1366 2.454 . S
O1367 C1369 1.353 . S
O1368 U1366 2.458 . S
O1368 C1369 1.286 . S
C1369 U1366 2.984 . S
C1369 O1367 1.353 . S
C1369 O1368 1.286 . S
C1369 C1371 1.363 . S
C1370 C1360 1.465 . S
C1370 U1366 2.847 . S
C1370 O1384 1.249 . S
C1370 O1385 1.202 . S
C1371 C1369 1.363 . S
C1371 C1373 1.408 . S
C1371 C1376 1.342 . S
C1372 C1373 1.310 . S
C1372 C1375 1.461 . S
C1372 H1392 0.932 . S
C1373 C1371 1.408 . S
C1373 C1372 1.310 . S
C1373 H1393 0.930 . S
C1374 C1375 1.474 . S
C1374 C1376 1.285 . S
C1374 H1394 0.929 . S
C1375 C1372 1.461 . S
C1375 C1374 1.474 . S
C1376 C1371 1.342 . S
C1376 C1374 1.285 . S
C1376 H1395 0.930 . S
C1377 C1380 1.424 . S
C1377 C1382 1.245 . S
C1377 C1383 1.428 . S
C1378 C1381 1.260 . S
C1378 C1382 1.477 . S
C1378 H1396 0.932 . S
C1379 C1380 1.384 . S
C1379 C1381 1.479 . S
C1379 H1397 0.929 . S
C1380 C1377 1.424 . S
C1380 C1379 1.384 . S
C1380 H1398 0.928 . S
C1381 C1378 1.260 . S
C1381 C1379 1.479 . S
C1382 C1377 1.245 . S
C1382 C1378 1.477 . S
C1382 H1399 0.932 . S
C1383 U1366 2.882 . S
C1383 C1377 1.428 . S
C1383 O1386 1.301 . S
C1383 O1387 1.282 . S
O1384 U1366 2.441 . S
O1384 C1370 1.249 . S
O1385 U1366 2.420 . S
O1385 C1370 1.202 . S
O1386 U1366 2.455 . S
O1386 C1383 1.301 . S
O1387 U1366 2.449 . S
O1387 C1383 1.282 . S
H1388 C1361 0.931 . S
H1389 C1363 0.929 . S
H1390 C1364 0.930 . S
H1391 C1365 0.931 . S
H1392 C1372 0.932 . S
H1393 C1373 0.930 . S
H1394 C1374 0.929 . S
H1395 C1376 0.930 . S
H1396 C1378 0.932 . S
H1397 C1379 0.929 . S
H1398 C1380 0.928 . S
H1399 C1382 0.932 . S
C1400 C1401 1.264 . S
C1400 C1405 1.479 . S
C1400 C1410 1.465 . S
C1401 C1400 1.264 . S
C1401 C1403 1.339 . S
C1401 H1428 0.931 . S
C1402 C1403 1.395 . S
C1402 C1404 1.320 . S
C1403 C1401 1.339 . S
C1403 C1402 1.395 . S
C1403 H1429 0.929 . S
C1404 C1402 1.320 . S
C1404 C1405 1.405 . S
C1404 H1430 0.930 . S
C1405 C1400 1.479 . S
C1405 C1404 1.405 . S
C1405 H1431 0.931 . S
U1406 O1407 2.454 . S
U1406 O1408 2.458 . S
U1406 C1409 2.984 . S
U1406 C1410 2.847 . S
U1406 C1423 2.882 . S
U1406 O1424 2.441 . S
U1406 O1425 2.420 . S
U1406 O1426 2.455 . S
U1406 O1427 2.449 . S
O1407 U1406 2.454 . S
O1407 C1409 1.353 . S
O1408 U1406 2.458 . S
O1408 C1409 1.286 . S
C1409 U1406 2.984 . S
C1409 O1407 1.353 . S
C1409 O1408 1.286 . S
C1409 C1411 1.363 . S
C1410 C1400 1.465 . S
C1410 U1406 2.847 . S
C1410 O1424 1.249 . S
C1410 O1425 1.202 . S
C1411 C1409 1.363 . S
C1411 C1413 1.408 . S
C1411 C1416 1.342 . S
C1412 C1413 1.310 . S
C1412 C1415 1.461 . S
C1412 H1432 0.932 . S
C1413 C1411 1.408 . S
C1413 C1412 1.310 . S
C1413 H1433 0.930 . S
C1414 C1415 1.474 . S
C1414 C1416 1.285 . S
C1414 H1434 0.929 . S
C1415 C1412 1.461 . S
C1415 C1414 1.474 . S
C1416 C1411 1.342 . S
C1416 C1414 1.285 . S
C1416 H1435 0.930 . S
C1417 C1420 1.424 . S
C1417 C1422 1.245 . S
C1417 C1423 1.428 . S
C1418 C1421 1.260 . S
C1418 C1422 1.477 . S
C1418 H1436 0.932 . S
C1419 C1420 1.384 . S
C1419 C1421 1.479 . S
C1419 H1437 0.929 . S
C1420 C1417 1.424 . S
C1420 C1419 1.384 . S
C1420 H1438 0.928 . S
C1421 C1418 1.260 . S
C1421 C1419 1.479 . S
C1422 C1417 1.245 . S
C1422 C1418 1.477 . S
C1422 H1439 0.932 . S
C1423 U1406 2.882 . S
C1423 C1417 1.428 . S
C1423 O1426 1.301 . S
C1423 O1427 1.282 . S
O1424 U1406 2.441 . S
O1424 C1410 1.249 . S
O1425 U1406 2.420 . S
O1425 C1410 1.202 . S
O1426 U1406 2.455 . S
O1426 C1423 1.301 . S
O1427 U1406 2.449 . S
O1427 C1423 1.282 . S
H1428 C1401 0.931 . S
H1429 C1403 0.929 . S
H1430 C1404 0.930 . S
H1431 C1405 0.931 . S
H1432 C1412 0.932 . S
H1433 C1413 0.930 . S
H1434 C1414 0.929 . S
H1435 C1416 0.930 . S
H1436 C1418 0.932 . S
H1437 C1419 0.929 . S
H1438 C1420 0.928 . S
H1439 C1422 0.932 . S
C1440 C1441 1.264 . S
C1440 C1445 1.479 . S
C1440 C1450 1.465 . S
C1441 C1440 1.264 . S
C1441 C1443 1.339 . S
C1441 H1468 0.931 . S
C1442 C1443 1.395 . S
C1442 C1444 1.320 . S
C1443 C1441 1.339 . S
C1443 C1442 1.395 . S
C1443 H1469 0.929 . S
C1444 C1442 1.320 . S
C1444 C1445 1.405 . S
C1444 H1470 0.930 . S
C1445 C1440 1.479 . S
C1445 C1444 1.405 . S
C1445 H1471 0.931 . S
U1446 O1447 2.454 . S
U1446 O1448 2.458 . S
U1446 C1449 2.984 . S
U1446 C1450 2.847 . S
U1446 C1463 2.882 . S
U1446 O1464 2.441 . S
U1446 O1465 2.420 . S
U1446 O1466 2.455 . S
U1446 O1467 2.449 . S
O1447 U1446 2.454 . S
O1447 C1449 1.353 . S
O1448 U1446 2.458 . S
O1448 C1449 1.286 . S
C1449 U1446 2.984 . S
C1449 O1447 1.353 . S
C1449 O1448 1.286 . S
C1449 C1451 1.363 . S
C1450 C1440 1.465 . S
C1450 U1446 2.847 . S
C1450 O1464 1.249 . S
C1450 O1465 1.202 . S
C1451 C1449 1.363 . S
C1451 C1453 1.408 . S
C1451 C1456 1.342 . S
C1452 C1453 1.310 . S
C1452 C1455 1.461 . S
C1452 H1472 0.932 . S
C1453 C1451 1.408 . S
C1453 C1452 1.310 . S
C1453 H1473 0.930 . S
C1454 C1455 1.474 . S
C1454 C1456 1.285 . S
C1454 H1474 0.929 . S
C1455 C1452 1.461 . S
C1455 C1454 1.474 . S
C1456 C1451 1.342 . S
C1456 C1454 1.285 . S
C1456 H1475 0.930 . S
C1457 C1460 1.424 . S
C1457 C1462 1.245 . S
C1457 C1463 1.428 . S
C1458 C1461 1.260 . S
C1458 C1462 1.477 . S
C1458 H1476 0.932 . S
C1459 C1460 1.384 . S
C1459 C1461 1.479 . S
C1459 H1477 0.929 . S
C1460 C1457 1.424 . S
C1460 C1459 1.384 . S
C1460 H1478 0.928 . S
C1461 C1458 1.260 . S
C1461 C1459 1.479 . S
C1462 C1457 1.245 . S
C1462 C1458 1.477 . S
C1462 H1479 0.932 . S
C1463 U1446 2.882 . S
C1463 C1457 1.428 . S
C1463 O1466 1.301 . S
C1463 O1467 1.282 . S
O1464 U1446 2.441 . S
O1464 C1450 1.249 . S
O1465 U1446 2.420 . S
O1465 C1450 1.202 . S
O1466 U1446 2.455 . S
O1466 C1463 1.301 . S
O1467 U1446 2.449 . S
O1467 C1463 1.282 . S
H1468 C1441 0.931 . S
H1469 C1443 0.929 . S
H1470 C1444 0.930 . S
H1471 C1445 0.931 . S
H1472 C1452 0.932 . S
H1473 C1453 0.930 . S
H1474 C1454 0.929 . S
H1475 C1456 0.930 . S
H1476 C1458 0.932 . S
H1477 C1459 0.929 . S
H1478 C1460 0.928 . S
H1479 C1462 0.932 . S
C1480 C1481 1.264 . S
C1480 C1485 1.479 . S
C1480 C1490 1.465 . S
C1481 C1480 1.264 . S
C1481 C1483 1.339 . S
C1481 H1508 0.931 . S
C1482 C1483 1.395 . S
C1482 C1484 1.320 . S
C1483 C1481 1.339 . S
C1483 C1482 1.395 . S
C1483 H1509 0.929 . S
C1484 C1482 1.320 . S
C1484 C1485 1.405 . S
C1484 H1510 0.930 . S
C1485 C1480 1.479 . S
C1485 C1484 1.405 . S
C1485 H1511 0.931 . S
U1486 O1487 2.454 . S
U1486 O1488 2.458 . S
U1486 C1489 2.984 . S
U1486 C1490 2.847 . S
U1486 C1503 2.882 . S
U1486 O1504 2.441 . S
U1486 O1505 2.420 . S
U1486 O1506 2.455 . S
U1486 O1507 2.449 . S
O1487 U1486 2.454 . S
O1487 C1489 1.353 . S
O1488 U1486 2.458 . S
O1488 C1489 1.286 . S
C1489 U1486 2.984 . S
C1489 O1487 1.353 . S
C1489 O1488 1.286 . S
C1489 C1491 1.363 . S
C1490 C1480 1.465 . S
C1490 U1486 2.847 . S
C1490 O1504 1.249 . S
C1490 O1505 1.202 . S
C1491 C1489 1.363 . S
C1491 C1493 1.408 . S
C1491 C1496 1.342 . S
C1492 C1493 1.310 . S
C1492 C1495 1.461 . S
C1492 H1512 0.932 . S
C1493 C1491 1.408 . S
C1493 C1492 1.310 . S
C1493 H1513 0.930 . S
C1494 C1495 1.474 . S
C1494 C1496 1.285 . S
C1494 H1514 0.929 . S
C1495 C1492 1.461 . S
C1495 C1494 1.474 . S
C1496 C1491 1.342 . S
C1496 C1494 1.285 . S
C1496 H1515 0.930 . S
C1497 C1500 1.424 . S
C1497 C1502 1.245 . S
C1497 C1503 1.428 . S
C1498 C1501 1.260 . S
C1498 C1502 1.477 . S
C1498 H1516 0.932 . S
C1499 C1500 1.384 . S
C1499 C1501 1.479 . S
C1499 H1517 0.929 . S
C1500 C1497 1.424 . S
C1500 C1499 1.384 . S
C1500 H1518 0.928 . S
C1501 C1498 1.260 . S
C1501 C1499 1.479 . S
C1502 C1497 1.245 . S
C1502 C1498 1.477 . S
C1502 H1519 0.932 . S
C1503 U1486 2.882 . S
C1503 C1497 1.428 . S
C1503 O1506 1.301 . S
C1503 O1507 1.282 . S
O1504 U1486 2.441 . S
O1504 C1490 1.249 . S
O1505 U1486 2.420 . S
O1505 C1490 1.202 . S
O1506 U1486 2.455 . S
O1506 C1503 1.301 . S
O1507 U1486 2.449 . S
O1507 C1503 1.282 . S
H1508 C1481 0.931 . S
H1509 C1483 0.929 . S
H1510 C1484 0.930 . S
H1511 C1485 0.931 . S
H1512 C1492 0.932 . S
H1513 C1493 0.930 . S
H1514 C1494 0.929 . S
H1515 C1496 0.930 . S
H1516 C1498 0.932 . S
H1517 C1499 0.929 . S
H1518 C1500 0.928 . S
H1519 C1502 0.932 . S
C1520 C1521 1.264 . S
C1520 C1525 1.479 . S
C1520 C1530 1.465 . S
C1521 C1520 1.264 . S
C1521 C1523 1.339 . S
C1521 H1548 0.931 . S
C1522 C1523 1.395 . S
C1522 C1524 1.320 . S
C1523 C1521 1.339 . S
C1523 C1522 1.395 . S
C1523 H1549 0.929 . S
C1524 C1522 1.320 . S
C1524 C1525 1.405 . S
C1524 H1550 0.930 . S
C1525 C1520 1.479 . S
C1525 C1524 1.405 . S
C1525 H1551 0.931 . S
U1526 O1527 2.454 . S
U1526 O1528 2.458 . S
U1526 C1529 2.984 . S
U1526 C1530 2.847 . S
U1526 C1543 2.882 . S
U1526 O1544 2.441 . S
U1526 O1545 2.420 . S
U1526 O1546 2.455 . S
U1526 O1547 2.449 . S
O1527 U1526 2.454 . S
O1527 C1529 1.353 . S
O1528 U1526 2.458 . S
O1528 C1529 1.286 . S
C1529 U1526 2.984 . S
C1529 O1527 1.353 . S
C1529 O1528 1.286 . S
C1529 C1531 1.363 . S
C1530 C1520 1.465 . S
C1530 U1526 2.847 . S
C1530 O1544 1.249 . S
C1530 O1545 1.202 . S
C1531 C1529 1.363 . S
C1531 C1533 1.408 . S
C1531 C1536 1.342 . S
C1532 C1533 1.310 . S
C1532 C1535 1.461 . S
C1532 H1552 0.932 . S
C1533 C1531 1.408 . S
C1533 C1532 1.310 . S
C1533 H1553 0.930 . S
C1534 C1535 1.474 . S
C1534 C1536 1.285 . S
C1534 H1554 0.929 . S
C1535 C1532 1.461 . S
C1535 C1534 1.474 . S
C1536 C1531 1.342 . S
C1536 C1534 1.285 . S
C1536 H1555 0.930 . S
C1537 C1540 1.424 . S
C1537 C1542 1.245 . S
C1537 C1543 1.428 . S
C1538 C1541 1.260 . S
C1538 C1542 1.477 . S
C1538 H1556 0.932 . S
C1539 C1540 1.384 . S
C1539 C1541 1.479 . S
C1539 H1557 0.929 . S
C1540 C1537 1.424 . S
C1540 C1539 1.384 . S
C1540 H1558 0.928 . S
C1541 C1538 1.260 . S
C1541 C1539 1.479 . S
C1542 C1537 1.245 . S
C1542 C1538 1.477 . S
C1542 H1559 0.932 . S
C1543 U1526 2.882 . S
C1543 C1537 1.428 . S
C1543 O1546 1.301 . S
C1543 O1547 1.282 . S
O1544 U1526 2.441 . S
O1544 C1530 1.249 . S
O1545 U1526 2.420 . S
O1545 C1530 1.202 . S
O1546 U1526 2.455 . S
O1546 C1543 1.301 . S
O1547 U1526 2.449 . S
O1547 C1543 1.282 . S
H1548 C1521 0.931 . S
H1549 C1523 0.929 . S
H1550 C1524 0.930 . S
H1551 C1525 0.931 . S
H1552 C1532 0.932 . S
H1553 C1533 0.930 . S
H1554 C1534 0.929 . S
H1555 C1536 0.930 . S
H1556 C1538 0.932 . S
H1557 C1539 0.929 . S
H1558 C1540 0.928 . S
H1559 C1542 0.932 . S
C1560 C1561 1.264 . S
C1560 C1565 1.479 . S
C1560 C1570 1.465 . S
C1561 C1560 1.264 . S
C1561 C1563 1.339 . S
C1561 H1588 0.931 . S
C1562 C1563 1.395 . S
C1562 C1564 1.320 . S
C1563 C1561 1.339 . S
C1563 C1562 1.395 . S
C1563 H1589 0.929 . S
C1564 C1562 1.320 . S
C1564 C1565 1.405 . S
C1564 H1590 0.930 . S
C1565 C1560 1.479 . S
C1565 C1564 1.405 . S
C1565 H1591 0.931 . S
U1566 O1567 2.454 . S
U1566 O1568 2.458 . S
U1566 C1569 2.984 . S
U1566 C1570 2.847 . S
U1566 C1583 2.882 . S
U1566 O1584 2.441 . S
U1566 O1585 2.420 . S
U1566 O1586 2.455 . S
U1566 O1587 2.449 . S
O1567 U1566 2.454 . S
O1567 C1569 1.353 . S
O1568 U1566 2.458 . S
O1568 C1569 1.286 . S
C1569 U1566 2.984 . S
C1569 O1567 1.353 . S
C1569 O1568 1.286 . S
C1569 C1571 1.363 . S
C1570 C1560 1.465 . S
C1570 U1566 2.847 . S
C1570 O1584 1.249 . S
C1570 O1585 1.202 . S
C1571 C1569 1.363 . S
C1571 C1573 1.408 . S
C1571 C1576 1.342 . S
C1572 C1573 1.310 . S
C1572 C1575 1.461 . S
C1572 H1592 0.932 . S
C1573 C1571 1.408 . S
C1573 C1572 1.310 . S
C1573 H1593 0.930 . S
C1574 C1575 1.474 . S
C1574 C1576 1.285 . S
C1574 H1594 0.929 . S
C1575 C1572 1.461 . S
C1575 C1574 1.474 . S
C1576 C1571 1.342 . S
C1576 C1574 1.285 . S
C1576 H1595 0.930 . S
C1577 C1580 1.424 . S
C1577 C1582 1.245 . S
C1577 C1583 1.428 . S
C1578 C1581 1.260 . S
C1578 C1582 1.477 . S
C1578 H1596 0.932 . S
C1579 C1580 1.384 . S
C1579 C1581 1.479 . S
C1579 H1597 0.929 . S
C1580 C1577 1.424 . S
C1580 C1579 1.384 . S
C1580 H1598 0.928 . S
C1581 C1578 1.260 . S
C1581 C1579 1.479 . S
C1582 C1577 1.245 . S
C1582 C1578 1.477 . S
C1582 H1599 0.932 . S
C1583 U1566 2.882 . S
C1583 C1577 1.428 . S
C1583 O1586 1.301 . S
C1583 O1587 1.282 . S
O1584 U1566 2.441 . S
O1584 C1570 1.249 . S
O1585 U1566 2.420 . S
O1585 C1570 1.202 . S
O1586 U1566 2.455 . S
O1586 C1583 1.301 . S
O1587 U1566 2.449 . S
O1587 C1583 1.282 . S
H1588 C1561 0.931 . S
H1589 C1563 0.929 . S
H1590 C1564 0.930 . S
H1591 C1565 0.931 . S
H1592 C1572 0.932 . S
H1593 C1573 0.930 . S
H1594 C1574 0.929 . S
H1595 C1576 0.930 . S
H1596 C1578 0.932 . S
H1597 C1579 0.929 . S
H1598 C1580 0.928 . S
H1599 C1582 0.932 . S
C1600 C1601 1.264 . S
C1600 C1605 1.479 . S
C1600 C1610 1.465 . S
C1601 C1600 1.264 . S
C1601 C1603 1.339 . S
C1601 H1628 0.931 . S
C1602 C1603 1.395 . S
C1602 C1604 1.320 . S
C1603 C1601 1.339 . S
C1603 C1602 1.395 . S
C1603 H1629 0.929 . S
C1604 C1602 1.320 . S
C1604 C1605 1.405 . S
C1604 H1630 0.930 . S
C1605 C1600 1.479 . S
C1605 C1604 1.405 . S
C1605 H1631 0.931 . S
U1606 O1607 2.454 1_455 S
U1606 O1608 2.458 . S
U1606 C1609 2.984 . S
U1606 C1610 2.847 1_455 S
U1606 C1623 2.882 . S
U1606 O1624 2.441 1_455 S
U1606 O1625 2.420 1_455 S
U1606 O1626 2.455 . S
U1606 O1627 2.449 . S
O1607 U1606 2.454 1_655 S
O1607 C1609 1.353 1_655 S
O1608 U1606 2.458 . S
O1608 C1609 1.286 . S
C1609 U1606 2.984 . S
C1609 O1607 1.353 1_455 S
C1609 O1608 1.286 . S
C1609 C1611 1.363 . S
C1610 C1600 1.465 . S
C1610 U1606 2.847 1_655 S
C1610 O1624 1.249 . S
C1610 O1625 1.202 . S
C1611 C1609 1.363 . S
C1611 C1613 1.440 . S
C1611 C1616 1.342 . S
C1612 C1613 1.316 . S
C1612 C1615 1.461 . S
C1612 H1632 0.932 1_455 S
C1613 C1611 1.440 . S
C1613 C1612 1.316 . S
C1613 H1633 0.894 1_455 S
C1614 C1615 1.474 . S
C1614 C1616 1.285 . S
C1614 H1634 0.929 . S
C1615 C1612 1.461 . S
C1615 C1614 1.474 . S
C1616 C1611 1.342 . S
C1616 C1614 1.285 . S
C1616 H1635 0.930 . S
C1617 C1620 1.424 . S
C1617 C1622 1.245 . S
C1617 C1623 1.428 . S
C1618 C1621 1.260 . S
C1618 C1622 1.477 . S
C1618 H1636 0.932 . S
C1619 C1620 1.384 . S
C1619 C1621 1.479 . S
C1619 H1637 0.929 . S
C1620 C1617 1.424 . S
C1620 C1619 1.384 . S
C1620 H1638 0.928 . S
C1621 C1618 1.260 . S
C1621 C1619 1.479 . S
C1622 C1617 1.245 . S
C1622 C1618 1.477 . S
C1622 H1639 0.932 . S
C1623 U1606 2.882 . S
C1623 C1617 1.428 . S
C1623 O1626 1.301 . S
C1623 O1627 1.282 . S
O1624 U1606 2.441 1_655 S
O1624 C1610 1.249 . S
O1625 U1606 2.420 1_655 S
O1625 C1610 1.202 . S
O1626 U1606 2.455 . S
O1626 C1623 1.301 . S
O1627 U1606 2.449 . S
O1627 C1623 1.282 . S
H1628 C1601 0.931 . S
H1629 C1603 0.929 . S
H1630 C1604 0.930 . S
H1631 C1605 0.931 . S
H1632 C1612 0.932 1_655 S
H1633 C1613 0.894 1_655 S
H1634 C1614 0.929 . S
H1635 C1616 0.930 . S
H1636 C1618 0.932 . S
H1637 C1619 0.929 . S
H1638 C1620 0.928 . S
H1639 C1622 0.932 . S
C1640 C1641 1.264 . S
C1640 C1645 1.479 . S
C1640 C1650 1.465 . S
C1641 C1640 1.264 . S
C1641 C1643 1.339 . S
C1641 H1668 0.931 . S
C1642 C1643 1.395 . S
C1642 C1644 1.320 . S
C1643 C1641 1.339 . S
C1643 C1642 1.395 . S
C1643 H1669 0.929 . S
C1644 C1642 1.320 . S
C1644 C1645 1.405 . S
C1644 H1670 0.930 . S
C1645 C1640 1.479 . S
C1645 C1644 1.405 . S
C1645 H1671 0.931 . S
U1646 O1647 2.454 . S
U1646 O1648 2.458 . S
U1646 C1649 2.984 . S
U1646 C1650 2.847 . S
U1646 C1663 2.882 . S
U1646 O1664 2.441 . S
U1646 O1665 2.420 . S
U1646 O1666 2.455 . S
U1646 O1667 2.449 . S
O1647 U1646 2.454 . S
O1647 C1649 1.353 . S
O1648 U1646 2.458 . S
O1648 C1649 1.286 . S
C1649 U1646 2.984 . S
C1649 O1647 1.353 . S
C1649 O1648 1.286 . S
C1649 C1651 1.363 . S
C1650 C1640 1.465 . S
C1650 U1646 2.847 . S
C1650 O1664 1.249 . S
C1650 O1665 1.202 . S
C1651 C1649 1.363 . S
C1651 C1653 1.408 . S
C1651 C1656 1.342 . S
C1652 C1653 1.310 . S
C1652 C1655 1.461 . S
C1652 H1672 0.932 . S
C1653 C1651 1.408 . S
C1653 C1652 1.310 . S
C1653 H1673 0.930 . S
C1654 C1655 1.474 . S
C1654 C1656 1.285 . S
C1654 H1674 0.929 . S
C1655 C1652 1.461 . S
C1655 C1654 1.474 . S
C1656 C1651 1.342 . S
C1656 C1654 1.285 . S
C1656 H1675 0.930 . S
C1657 C1660 1.424 . S
C1657 C1662 1.245 . S
C1657 C1663 1.428 . S
C1658 C1661 1.260 . S
C1658 C1662 1.477 . S
C1658 H1676 0.932 . S
C1659 C1660 1.384 . S
C1659 C1661 1.479 . S
C1659 H1677 0.929 . S
C1660 C1657 1.424 . S
C1660 C1659 1.384 . S
C1660 H1678 0.928 . S
C1661 C1658 1.260 . S
C1661 C1659 1.479 . S
C1662 C1657 1.245 . S
C1662 C1658 1.477 . S
C1662 H1679 0.932 . S
C1663 U1646 2.882 . S
C1663 C1657 1.428 . S
C1663 O1666 1.301 . S
C1663 O1667 1.282 . S
O1664 U1646 2.441 . S
O1664 C1650 1.249 . S
O1665 U1646 2.420 . S
O1665 C1650 1.202 . S
O1666 U1646 2.455 . S
O1666 C1663 1.301 . S
O1667 U1646 2.449 . S
O1667 C1663 1.282 . S
H1668 C1641 0.931 . S
H1669 C1643 0.929 . S
H1670 C1644 0.930 . S
H1671 C1645 0.931 . S
H1672 C1652 0.932 . S
H1673 C1653 0.930 . S
H1674 C1654 0.929 . S
H1675 C1656 0.930 . S
H1676 C1658 0.932 . S
H1677 C1659 0.929 . S
H1678 C1660 0.928 . S
H1679 C1662 0.932 . S
C1680 C1681 1.264 . S
C1680 C1685 1.479 . S
C1680 C1690 1.465 . S
C1681 C1680 1.264 . S
C1681 C1683 1.339 . S
C1681 H1708 0.931 . S
C1682 C1683 1.395 . S
C1682 C1684 1.320 . S
C1683 C1681 1.339 . S
C1683 C1682 1.395 . S
C1683 H1709 0.929 . S
C1684 C1682 1.320 . S
C1684 C1685 1.405 . S
C1684 H1710 0.930 . S
C1685 C1680 1.479 . S
C1685 C1684 1.405 . S
C1685 H1711 0.931 . S
U1686 O1687 2.486 . S
U1686 O1688 2.458 . S
U1686 C1689 2.984 1_554 S
U1686 C1690 2.847 . S
U1686 C1703 2.882 . S
U1686 O1704 2.441 . S
U1686 O1705 2.420 . S
U1686 O1706 2.455 . S
U1686 O1707 2.449 . S
O1687 U1686 2.486 . S
O1687 C1689 1.345 1_554 S
O1688 U1686 2.458 . S
O1688 C1689 1.286 1_554 S
C1689 U1686 2.984 1_556 S
C1689 O1687 1.345 1_556 S
C1689 O1688 1.286 1_556 S
C1689 C1691 1.363 . S
C1690 C1680 1.465 . S
C1690 U1686 2.847 . S
C1690 O1704 1.249 . S
C1690 O1705 1.202 . S
C1691 C1689 1.363 . S
C1691 C1693 1.408 . S
C1691 C1696 1.342 . S
C1692 C1693 1.310 . S
C1692 C1695 1.461 . S
C1692 H1712 0.932 . S
C1693 C1691 1.408 . S
C1693 C1692 1.310 . S
C1693 H1713 0.930 . S
C1694 C1695 1.474 . S
C1694 C1696 1.285 . S
C1694 H1714 0.929 . S
C1695 C1692 1.461 . S
C1695 C1694 1.474 . S
C1696 C1691 1.342 . S
C1696 C1694 1.285 . S
C1696 H1715 0.930 . S
C1697 C1700 1.424 . S
C1697 C1702 1.245 . S
C1697 C1703 1.428 . S
C1698 C1701 1.260 . S
C1698 C1702 1.477 . S
C1698 H1716 0.932 . S
C1699 C1700 1.384 . S
C1699 C1701 1.479 . S
C1699 H1717 0.929 . S
C1700 C1697 1.424 . S
C1700 C1699 1.384 . S
C1700 H1718 0.928 . S
C1701 C1698 1.260 . S
C1701 C1699 1.479 . S
C1702 C1697 1.245 . S
C1702 C1698 1.477 . S
C1702 H1719 0.932 . S
C1703 U1686 2.882 . S
C1703 C1697 1.428 . S
C1703 O1706 1.301 . S
C1703 O1707 1.282 . S
O1704 U1686 2.441 . S
O1704 C1690 1.249 . S
O1705 U1686 2.420 . S
O1705 C1690 1.202 . S
O1706 U1686 2.455 . S
O1706 C1703 1.301 . S
O1707 U1686 2.449 . S
O1707 C1703 1.282 . S
H1708 C1681 0.931 . S
H1709 C1683 0.929 . S
H1710 C1684 0.930 . S
H1711 C1685 0.931 . S
H1712 C1692 0.932 . S
H1713 C1693 0.930 . S
H1714 C1694 0.929 . S
H1715 C1696 0.930 . S
H1716 C1698 0.932 . S
H1717 C1699 0.929 . S
H1718 C1700 0.928 . S
H1719 C1702 0.932 . S
C1720 C1721 1.264 . S
C1720 C1725 1.479 . S
C1720 C1730 1.465 . S
C1721 C1720 1.264 . S
C1721 C1723 1.339 . S
C1721 H1748 0.931 . S
C1722 C1723 1.395 . S
C1722 C1724 1.320 . S
C1723 C1721 1.339 . S
C1723 C1722 1.395 . S
C1723 H1749 0.929 . S
C1724 C1722 1.320 . S
C1724 C1725 1.405 . S
C1724 H1750 0.930 . S
C1725 C1720 1.479 . S
C1725 C1724 1.405 . S
C1725 H1751 0.931 . S
U1726 O1727 2.454 . S
U1726 O1728 2.458 . S
U1726 C1729 2.984 . S
U1726 C1730 2.847 . S
U1726 C1743 2.882 . S
U1726 O1744 2.441 . S
U1726 O1745 2.420 . S
U1726 O1746 2.455 . S
U1726 O1747 2.449 . S
O1727 U1726 2.454 . S
O1727 C1729 1.353 . S
O1728 U1726 2.458 . S
O1728 C1729 1.286 . S
C1729 U1726 2.984 . S
C1729 O1727 1.353 . S
C1729 O1728 1.286 . S
C1729 C1731 1.363 . S
C1730 C1720 1.465 . S
C1730 U1726 2.847 . S
C1730 O1744 1.249 . S
C1730 O1745 1.202 . S
C1731 C1729 1.363 . S
C1731 C1733 1.408 . S
C1731 C1736 1.342 . S
C1732 C1733 1.310 . S
C1732 C1735 1.461 . S
C1732 H1752 0.932 . S
C1733 C1731 1.408 . S
C1733 C1732 1.310 . S
C1733 H1753 0.930 . S
C1734 C1735 1.474 . S
C1734 C1736 1.285 . S
C1734 H1754 0.929 . S
C1735 C1732 1.461 . S
C1735 C1734 1.474 . S
C1736 C1731 1.342 . S
C1736 C1734 1.285 . S
C1736 H1755 0.930 . S
C1737 C1740 1.424 . S
C1737 C1742 1.245 . S
C1737 C1743 1.428 . S
C1738 C1741 1.260 . S
C1738 C1742 1.477 . S
C1738 H1756 0.932 . S
C1739 C1740 1.384 . S
C1739 C1741 1.479 . S
C1739 H1757 0.929 . S
C1740 C1737 1.424 . S
C1740 C1739 1.384 . S
C1740 H1758 0.928 . S
C1741 C1738 1.260 . S
C1741 C1739 1.479 . S
C1742 C1737 1.245 . S
C1742 C1738 1.477 . S
C1742 H1759 0.932 . S
C1743 U1726 2.882 . S
C1743 C1737 1.428 . S
C1743 O1746 1.301 . S
C1743 O1747 1.282 . S
O1744 U1726 2.441 . S
O1744 C1730 1.249 . S
O1745 U1726 2.420 . S
O1745 C1730 1.202 . S
O1746 U1726 2.455 . S
O1746 C1743 1.301 . S
O1747 U1726 2.449 . S
O1747 C1743 1.282 . S
H1748 C1721 0.931 . S
H1749 C1723 0.929 . S
H1750 C1724 0.930 . S
H1751 C1725 0.931 . S
H1752 C1732 0.932 . S
H1753 C1733 0.930 . S
H1754 C1734 0.929 . S
H1755 C1736 0.930 . S
H1756 C1738 0.932 . S
H1757 C1739 0.929 . S
H1758 C1740 0.928 . S
H1759 C1742 0.932 . S
C1760 C1761 1.264 . S
C1760 C1765 1.479 . S
C1760 C1770 1.465 . S
C1761 C1760 1.264 . S
C1761 C1763 1.339 . S
C1761 H1788 0.931 . S
C1762 C1763 1.395 . S
C1762 C1764 1.320 . S
C1763 C1761 1.339 . S
C1763 C1762 1.395 . S
C1763 H1789 0.929 . S
C1764 C1762 1.320 . S
C1764 C1765 1.405 . S
C1764 H1790 0.930 . S
C1765 C1760 1.479 . S
C1765 C1764 1.405 . S
C1765 H1791 0.931 . S
U1766 O1767 2.454 . S
U1766 O1768 2.458 . S
U1766 C1769 2.984 . S
U1766 C1770 2.847 . S
U1766 C1783 2.882 . S
U1766 O1784 2.441 . S
U1766 O1785 2.420 . S
U1766 O1786 2.455 . S
U1766 O1787 2.449 . S
O1767 U1766 2.454 . S
O1767 C1769 1.353 . S
O1768 U1766 2.458 . S
O1768 C1769 1.286 . S
C1769 U1766 2.984 . S
C1769 O1767 1.353 . S
C1769 O1768 1.286 . S
C1769 C1771 1.363 . S
C1770 C1760 1.465 . S
C1770 U1766 2.847 . S
C1770 O1784 1.249 . S
C1770 O1785 1.202 . S
C1771 C1769 1.363 . S
C1771 C1773 1.408 . S
C1771 C1776 1.342 . S
C1772 C1773 1.310 . S
C1772 C1775 1.461 . S
C1772 H1792 0.932 . S
C1773 C1771 1.408 . S
C1773 C1772 1.310 . S
C1773 H1793 0.930 . S
C1774 C1775 1.474 . S
C1774 C1776 1.285 . S
C1774 H1794 0.929 . S
C1775 C1772 1.461 . S
C1775 C1774 1.474 . S
C1776 C1771 1.342 . S
C1776 C1774 1.285 . S
C1776 H1795 0.930 . S
C1777 C1780 1.424 . S
C1777 C1782 1.245 . S
C1777 C1783 1.428 . S
C1778 C1781 1.260 . S
C1778 C1782 1.477 . S
C1778 H1796 0.932 . S
C1779 C1780 1.384 . S
C1779 C1781 1.479 . S
C1779 H1797 0.929 . S
C1780 C1777 1.424 . S
C1780 C1779 1.384 . S
C1780 H1798 0.928 . S
C1781 C1778 1.260 . S
C1781 C1779 1.479 . S
C1782 C1777 1.245 . S
C1782 C1778 1.477 . S
C1782 H1799 0.932 . S
C1783 U1766 2.882 . S
C1783 C1777 1.428 . S
C1783 O1786 1.301 . S
C1783 O1787 1.282 . S
O1784 U1766 2.441 . S
O1784 C1770 1.249 . S
O1785 U1766 2.420 . S
O1785 C1770 1.202 . S
O1786 U1766 2.455 . S
O1786 C1783 1.301 . S
O1787 U1766 2.449 . S
O1787 C1783 1.282 . S
H1788 C1761 0.931 . S
H1789 C1763 0.929 . S
H1790 C1764 0.930 . S
H1791 C1765 0.931 . S
H1792 C1772 0.932 . S
H1793 C1773 0.930 . S
H1794 C1774 0.929 . S
H1795 C1776 0.930 . S
H1796 C1778 0.932 . S
H1797 C1779 0.929 . S
H1798 C1780 0.928 . S
H1799 C1782 0.932 . S
C1800 C1801 1.264 . S
C1800 C1805 1.479 . S
C1800 C1810 1.465 . S
C1801 C1800 1.264 . S
C1801 C1803 1.339 . S
C1801 H1828 0.931 . S
C1802 C1803 1.395 . S
C1802 C1804 1.320 . S
C1803 C1801 1.339 . S
C1803 C1802 1.395 . S
C1803 H1829 0.929 . S
C1804 C1802 1.320 . S
C1804 C1805 1.405 . S
C1804 H1830 0.930 . S
C1805 C1800 1.479 . S
C1805 C1804 1.405 . S
C1805 H1831 0.931 . S
U1806 O1807 2.454 . S
U1806 O1808 2.458 . S
U1806 C1809 2.984 . S
U1806 C1810 2.847 . S
U1806 C1823 2.882 . S
U1806 O1824 2.441 . S
U1806 O1825 2.420 . S
U1806 O1826 2.455 . S
U1806 O1827 2.449 . S
O1807 U1806 2.454 . S
O1807 C1809 1.353 . S
O1808 U1806 2.458 . S
O1808 C1809 1.286 . S
C1809 U1806 2.984 . S
C1809 O1807 1.353 . S
C1809 O1808 1.286 . S
C1809 C1811 1.363 . S
C1810 C1800 1.465 . S
C1810 U1806 2.847 . S
C1810 O1824 1.249 . S
C1810 O1825 1.202 . S
C1811 C1809 1.363 . S
C1811 C1813 1.408 . S
C1811 C1816 1.342 . S
C1812 C1813 1.310 . S
C1812 C1815 1.461 . S
C1812 H1832 0.932 . S
C1813 C1811 1.408 . S
C1813 C1812 1.310 . S
C1813 H1833 0.930 . S
C1814 C1815 1.474 . S
C1814 C1816 1.285 . S
C1814 H1834 0.929 . S
C1815 C1812 1.461 . S
C1815 C1814 1.474 . S
C1816 C1811 1.342 . S
C1816 C1814 1.285 . S
C1816 H1835 0.930 . S
C1817 C1820 1.424 . S
C1817 C1822 1.245 . S
C1817 C1823 1.428 . S
C1818 C1821 1.260 . S
C1818 C1822 1.477 . S
C1818 H1836 0.932 . S
C1819 C1820 1.384 . S
C1819 C1821 1.479 . S
C1819 H1837 0.929 . S
C1820 C1817 1.424 . S
C1820 C1819 1.384 . S
C1820 H1838 0.928 . S
C1821 C1818 1.260 . S
C1821 C1819 1.479 . S
C1822 C1817 1.245 . S
C1822 C1818 1.477 . S
C1822 H1839 0.932 . S
C1823 U1806 2.882 . S
C1823 C1817 1.428 . S
C1823 O1826 1.301 . S
C1823 O1827 1.282 . S
O1824 U1806 2.441 . S
O1824 C1810 1.249 . S
O1825 U1806 2.420 . S
O1825 C1810 1.202 . S
O1826 U1806 2.455 . S
O1826 C1823 1.301 . S
O1827 U1806 2.449 . S
O1827 C1823 1.282 . S
H1828 C1801 0.931 . S
H1829 C1803 0.929 . S
H1830 C1804 0.930 . S
H1831 C1805 0.931 . S
H1832 C1812 0.932 . S
H1833 C1813 0.930 . S
H1834 C1814 0.929 . S
H1835 C1816 0.930 . S
H1836 C1818 0.932 . S
H1837 C1819 0.929 . S
H1838 C1820 0.928 . S
H1839 C1822 0.932 . S
C1840 C1841 1.264 . S
C1840 C1845 1.479 . S
C1840 C1850 1.465 . S
C1841 C1840 1.264 . S
C1841 C1843 1.339 . S
C1841 H1868 0.931 . S
C1842 C1843 1.395 . S
C1842 C1844 1.320 . S
C1843 C1841 1.339 . S
C1843 C1842 1.395 . S
C1843 H1869 0.929 . S
C1844 C1842 1.320 . S
C1844 C1845 1.405 . S
C1844 H1870 0.930 . S
C1845 C1840 1.479 . S
C1845 C1844 1.405 . S
C1845 H1871 0.931 . S
U1846 O1847 2.454 . S
U1846 O1848 2.458 . S
U1846 C1849 2.984 . S
U1846 C1850 2.847 . S
U1846 C1863 2.882 . S
U1846 O1864 2.441 . S
U1846 O1865 2.420 . S
U1846 O1866 2.455 . S
U1846 O1867 2.449 . S
O1847 U1846 2.454 . S
O1847 C1849 1.353 . S
O1848 U1846 2.458 . S
O1848 C1849 1.286 . S
C1849 U1846 2.984 . S
C1849 O1847 1.353 . S
C1849 O1848 1.286 . S
C1849 C1851 1.363 . S
C1850 C1840 1.465 . S
C1850 U1846 2.847 . S
C1850 O1864 1.249 . S
C1850 O1865 1.202 . S
C1851 C1849 1.363 . S
C1851 C1853 1.408 . S
C1851 C1856 1.342 . S
C1852 C1853 1.310 . S
C1852 C1855 1.461 . S
C1852 H1872 0.932 . S
C1853 C1851 1.408 . S
C1853 C1852 1.310 . S
C1853 H1873 0.930 . S
C1854 C1855 1.474 . S
C1854 C1856 1.285 . S
C1854 H1874 0.929 . S
C1855 C1852 1.461 . S
C1855 C1854 1.474 . S
C1856 C1851 1.342 . S
C1856 C1854 1.285 . S
C1856 H1875 0.930 . S
C1857 C1860 1.424 . S
C1857 C1862 1.245 . S
C1857 C1863 1.428 . S
C1858 C1861 1.260 . S
C1858 C1862 1.477 . S
C1858 H1876 0.932 . S
C1859 C1860 1.384 . S
C1859 C1861 1.479 . S
C1859 H1877 0.929 . S
C1860 C1857 1.424 . S
C1860 C1859 1.384 . S
C1860 H1878 0.928 . S
C1861 C1858 1.260 . S
C1861 C1859 1.479 . S
C1862 C1857 1.245 . S
C1862 C1858 1.477 . S
C1862 H1879 0.932 . S
C1863 U1846 2.882 . S
C1863 C1857 1.428 . S
C1863 O1866 1.301 . S
C1863 O1867 1.282 . S
O1864 U1846 2.441 . S
O1864 C1850 1.249 . S
O1865 U1846 2.420 . S
O1865 C1850 1.202 . S
O1866 U1846 2.455 . S
O1866 C1863 1.301 . S
O1867 U1846 2.449 . S
O1867 C1863 1.282 . S
H1868 C1841 0.931 . S
H1869 C1843 0.929 . S
H1870 C1844 0.930 . S
H1871 C1845 0.931 . S
H1872 C1852 0.932 . S
H1873 C1853 0.930 . S
H1874 C1854 0.929 . S
H1875 C1856 0.930 . S
H1876 C1858 0.932 . S
H1877 C1859 0.929 . S
H1878 C1860 0.928 . S
H1879 C1862 0.932 . S
C1880 C1881 1.264 . S
C1880 C1885 1.479 . S
C1880 C1890 1.465 . S
C1881 C1880 1.264 . S
C1881 C1883 1.339 . S
C1881 H1908 0.931 . S
C1882 C1883 1.395 . S
C1882 C1884 1.320 . S
C1883 C1881 1.339 . S
C1883 C1882 1.395 . S
C1883 H1909 0.929 . S
C1884 C1882 1.320 . S
C1884 C1885 1.405 . S
C1884 H1910 0.930 . S
C1885 C1880 1.479 . S
C1885 C1884 1.405 . S
C1885 H1911 0.931 . S
U1886 O1887 2.454 . S
U1886 O1888 2.458 . S
U1886 C1889 2.984 . S
U1886 C1890 2.847 . S
U1886 C1903 2.882 . S
U1886 O1904 2.441 . S
U1886 O1905 2.420 . S
U1886 O1906 2.455 . S
U1886 O1907 2.449 . S
O1887 U1886 2.454 . S
O1887 C1889 1.353 . S
O1888 U1886 2.458 . S
O1888 C1889 1.286 . S
C1889 U1886 2.984 . S
C1889 O1887 1.353 . S
C1889 O1888 1.286 . S
C1889 C1891 1.363 . S
C1890 C1880 1.465 . S
C1890 U1886 2.847 . S
C1890 O1904 1.249 . S
C1890 O1905 1.202 . S
C1891 C1889 1.363 . S
C1891 C1893 1.408 . S
C1891 C1896 1.342 . S
C1892 C1893 1.310 . S
C1892 C1895 1.461 . S
C1892 H1912 0.932 . S
C1893 C1891 1.408 . S
C1893 C1892 1.310 . S
C1893 H1913 0.930 . S
C1894 C1895 1.474 . S
C1894 C1896 1.285 . S
C1894 H1914 0.929 . S
C1895 C1892 1.461 . S
C1895 C1894 1.474 . S
C1896 C1891 1.342 . S
C1896 C1894 1.285 . S
C1896 H1915 0.930 . S
C1897 C1900 1.424 . S
C1897 C1902 1.245 . S
C1897 C1903 1.428 . S
C1898 C1901 1.260 . S
C1898 C1902 1.477 . S
C1898 H1916 0.932 . S
C1899 C1900 1.384 . S
C1899 C1901 1.479 . S
C1899 H1917 0.929 . S
C1900 C1897 1.424 . S
C1900 C1899 1.384 . S
C1900 H1918 0.928 . S
C1901 C1898 1.260 . S
C1901 C1899 1.479 . S
C1902 C1897 1.245 . S
C1902 C1898 1.477 . S
C1902 H1919 0.932 . S
C1903 U1886 2.882 . S
C1903 C1897 1.428 . S
C1903 O1906 1.301 . S
C1903 O1907 1.282 . S
O1904 U1886 2.441 . S
O1904 C1890 1.249 . S
O1905 U1886 2.420 . S
O1905 C1890 1.202 . S
O1906 U1886 2.455 . S
O1906 C1903 1.301 . S
O1907 U1886 2.449 . S
O1907 C1903 1.282 . S
H1908 C1881 0.931 . S
H1909 C1883 0.929 . S
H1910 C1884 0.930 . S
H1911 C1885 0.931 . S
H1912 C1892 0.932 . S
H1913 C1893 0.930 . S
H1914 C1894 0.929 . S
H1915 C1896 0.930 . S
H1916 C1898 0.932 . S
H1917 C1899 0.929 . S
H1918 C1900 0.928 . S
H1919 C1902 0.932 . S
H1920 C1925 0.930 . S
H1921 C1928 0.930 . S
H1922 C1930 0.930 . S
H1923 C1924 1.016 . S
C1924 H1923 1.016 . S
C1924 N1931 1.286 . S
C1925 H1920 0.930 . S
C1925 C1926 1.397 . S
C1925 C1927 1.361 . S
C1926 C1925 1.397 . S
C1926 C1930 1.390 . S
C1927 C1925 1.361 . S
C1927 C1928 1.393 . S
C1927 N1931 1.413 . S
C1928 H1921 0.930 . S
C1928 C1927 1.393 . S
C1928 C1929 1.399 . S
C1929 C1928 1.399 . S
C1929 C1930 1.381 . S
C1930 H1922 0.930 . S
C1930 C1926 1.390 . S
C1930 C1929 1.381 . S
N1931 C1924 1.286 . S
N1931 C1927 1.413 . S
H1932 C1937 0.930 . S
H1933 C1940 0.930 . S
H1934 C1942 0.930 . S
H1935 C1936 1.016 . S
C1936 H1935 1.016 . S
C1936 N1943 1.286 . S
C1937 H1932 0.930 . S
C1937 C1938 1.397 . S
C1937 C1939 1.361 . S
C1938 C1937 1.397 . S
C1938 C1942 1.390 . S
C1939 C1937 1.361 . S
C1939 C1940 1.393 . S
C1939 N1943 1.413 . S
C1940 H1933 0.930 . S
C1940 C1939 1.393 . S
C1940 C1941 1.399 . S
C1941 C1940 1.399 . S
C1941 C1942 1.381 . S
C1942 H1934 0.930 . S
C1942 C1938 1.390 . S
C1942 C1941 1.381 . S
N1943 C1936 1.286 . S
N1943 C1939 1.413 . S
H1944 C1949 0.930 . S
H1945 C1952 0.930 . S
H1946 C1954 0.930 . S
H1947 C1948 1.016 . S
C1948 H1947 1.016 . S
C1948 N1955 1.286 . S
C1949 H1944 0.930 . S
C1949 C1950 1.397 . S
C1949 C1951 1.361 . S
C1950 C1949 1.397 . S
C1950 C1954 1.390 . S
C1951 C1949 1.361 . S
C1951 C1952 1.393 . S
C1951 N1955 1.413 . S
C1952 H1945 0.930 . S
C1952 C1951 1.393 . S
C1952 C1953 1.399 . S
C1953 C1952 1.399 . S
C1953 C1954 1.381 . S
C1954 H1946 0.930 . S
C1954 C1950 1.390 . S
C1954 C1953 1.381 . S
N1955 C1948 1.286 . S
N1955 C1951 1.413 . S
H1956 C1961 0.930 . S
H1957 C1964 0.930 . S
H1958 C1966 0.930 . S
H1959 C1960 1.016 . S
C1960 H1959 1.016 . S
C1960 N1967 1.286 . S
C1961 H1956 0.930 . S
C1961 C1962 1.397 . S
C1961 C1963 1.361 . S
C1962 C1961 1.397 . S
C1962 C1966 1.390 . S
C1963 C1961 1.361 . S
C1963 C1964 1.393 . S
C1963 N1967 1.413 . S
C1964 H1957 0.930 . S
C1964 C1963 1.393 . S
C1964 C1965 1.399 . S
C1965 C1964 1.399 . S
C1965 C1966 1.381 . S
C1966 H1958 0.930 . S
C1966 C1962 1.390 . S
C1966 C1965 1.381 . S
N1967 C1960 1.286 . S
N1967 C1963 1.413 . S
H1968 C1973 0.930 . S
H1969 C1976 0.930 . S
H1970 C1978 0.930 . S
H1971 C1972 1.016 . S
C1972 H1971 1.016 . S
C1972 N1979 1.286 . S
C1973 H1968 0.930 . S
C1973 C1974 1.397 . S
C1973 C1975 1.361 . S
C1974 C1973 1.397 . S
C1974 C1978 1.390 . S
C1975 C1973 1.361 . S
C1975 C1976 1.393 . S
C1975 N1979 1.413 . S
C1976 H1969 0.930 . S
C1976 C1975 1.393 . S
C1976 C1977 1.399 . S
C1977 C1976 1.399 . S
C1977 C1978 1.381 . S
C1978 H1970 0.930 . S
C1978 C1974 1.390 . S
C1978 C1977 1.381 . S
N1979 C1972 1.286 . S
N1979 C1975 1.413 . S
H1980 C1985 0.930 . S
H1981 C1988 0.930 . S
H1982 C1990 0.930 . S
H1983 C1984 1.016 . S
C1984 H1983 1.016 . S
C1984 N1991 1.286 . S
C1985 H1980 0.930 . S
C1985 C1986 1.397 . S
C1985 C1987 1.361 . S
C1986 C1985 1.397 . S
C1986 C1990 1.390 . S
C1987 C1985 1.361 . S
C1987 C1988 1.393 . S
C1987 N1991 1.413 . S
C1988 H1981 0.930 . S
C1988 C1987 1.393 . S
C1988 C1989 1.399 . S
C1989 C1988 1.399 . S
C1989 C1990 1.381 . S
C1990 H1982 0.930 . S
C1990 C1986 1.390 . S
C1990 C1989 1.381 . S
N1991 C1984 1.286 . S
N1991 C1987 1.413 . S
H1992 C1997 0.930 . S
H1993 C2000 0.930 . S
H1994 C2002 0.930 . S
H1995 C1996 1.016 . S
C1996 H1995 1.016 . S
C1996 N2003 1.286 . S
C1997 H1992 0.930 . S
C1997 C1998 1.397 . S
C1997 C1999 1.361 . S
C1998 C1997 1.397 . S
C1998 C2002 1.390 . S
C1999 C1997 1.361 . S
C1999 C2000 1.393 . S
C1999 N2003 1.413 . S
C2000 H1993 0.930 . S
C2000 C1999 1.393 . S
C2000 C2001 1.399 . S
C2001 C2000 1.399 . S
C2001 C2002 1.381 . S
C2002 H1994 0.930 . S
C2002 C1998 1.390 . S
C2002 C2001 1.381 . S
N2003 C1996 1.286 . S
N2003 C1999 1.413 . S
H2004 C2009 0.930 . S
H2005 C2012 0.930 . S
H2006 C2014 0.930 . S
H2007 C2008 1.016 . S
C2008 H2007 1.016 . S
C2008 N2015 1.286 . S
C2009 H2004 0.930 . S
C2009 C2010 1.397 . S
C2009 C2011 1.361 . S
C2010 C2009 1.397 . S
C2010 C2014 1.390 . S
C2011 C2009 1.361 . S
C2011 C2012 1.393 . S
C2011 N2015 1.413 . S
C2012 H2005 0.930 . S
C2012 C2011 1.393 . S
C2012 C2013 1.399 . S
C2013 C2012 1.399 . S
C2013 C2014 1.381 . S
C2014 H2006 0.930 . S
C2014 C2010 1.390 . S
C2014 C2013 1.381 . S
N2015 C2008 1.286 . S
N2015 C2011 1.413 . S
H2016 C2021 0.930 . S
H2017 C2024 0.930 . S
H2018 C2026 0.930 . S
H2019 C2020 1.016 . S
C2020 H2019 1.016 . S
C2020 N2027 1.286 . S
C2021 H2016 0.930 . S
C2021 C2022 1.397 . S
C2021 C2023 1.361 . S
C2022 C2021 1.397 . S
C2022 C2026 1.390 . S
C2023 C2021 1.361 . S
C2023 C2024 1.393 . S
C2023 N2027 1.413 . S
C2024 H2017 0.930 . S
C2024 C2023 1.393 . S
C2024 C2025 1.399 . S
C2025 C2024 1.399 . S
C2025 C2026 1.381 . S
C2026 H2018 0.930 . S
C2026 C2022 1.390 . S
C2026 C2025 1.381 . S
N2027 C2020 1.286 . S
N2027 C2023 1.413 . S
H2028 C2033 0.930 . S
H2029 C2036 0.930 . S
H2030 C2038 0.930 . S
H2031 C2032 1.016 . S
C2032 H2031 1.016 . S
C2032 N2039 1.286 . S
C2033 H2028 0.930 . S
C2033 C2034 1.397 . S
C2033 C2035 1.361 . S
C2034 C2033 1.397 . S
C2034 C2038 1.390 . S
C2035 C2033 1.361 . S
C2035 C2036 1.393 . S
C2035 N2039 1.413 . S
C2036 H2029 0.930 . S
C2036 C2035 1.393 . S
C2036 C2037 1.399 . S
C2037 C2036 1.399 . S
C2037 C2038 1.381 . S
C2038 H2030 0.930 . S
C2038 C2034 1.390 . S
C2038 C2037 1.381 . S
N2039 C2032 1.286 . S
N2039 C2035 1.413 . S
H2040 C2045 0.930 . S
H2041 C2048 0.930 . S
H2042 C2050 0.930 . S
H2043 C2044 1.016 . S
C2044 H2043 1.016 . S
C2044 N2051 1.286 . S
C2045 H2040 0.930 . S
C2045 C2046 1.397 . S
C2045 C2047 1.361 . S
C2046 C2045 1.397 . S
C2046 C2050 1.390 . S
C2047 C2045 1.361 . S
C2047 C2048 1.393 . S
C2047 N2051 1.413 . S
C2048 H2041 0.930 . S
C2048 C2047 1.393 . S
C2048 C2049 1.399 . S
C2049 C2048 1.399 . S
C2049 C2050 1.381 . S
C2050 H2042 0.930 . S
C2050 C2046 1.390 . S
C2050 C2049 1.381 . S
N2051 C2044 1.286 . S
N2051 C2047 1.413 . S
H2052 C2057 0.930 . S
H2053 C2060 0.930 . S
H2054 C2062 0.930 . S
H2055 C2056 1.016 . S
C2056 H2055 1.016 . S
C2056 N2063 1.286 . S
C2057 H2052 0.930 . S
C2057 C2058 1.397 . S
C2057 C2059 1.361 . S
C2058 C2057 1.397 . S
C2058 C2062 1.390 . S
C2059 C2057 1.361 . S
C2059 C2060 1.393 . S
C2059 N2063 1.413 . S
C2060 H2053 0.930 . S
C2060 C2059 1.393 . S
C2060 C2061 1.399 . S
C2061 C2060 1.399 . S
C2061 C2062 1.381 . S
C2062 H2054 0.930 . S
C2062 C2058 1.390 . S
C2062 C2061 1.381 . S
N2063 C2056 1.286 . S
N2063 C2059 1.413 . S
H2064 C2069 0.930 . S
H2065 C2072 0.930 . S
H2066 C2074 0.930 . S
H2067 C2068 1.016 . S
C2068 H2067 1.016 . S
C2068 N2075 1.286 . S
C2069 H2064 0.930 . S
C2069 C2070 1.397 . S
C2069 C2071 1.361 . S
C2070 C2069 1.397 . S
C2070 C2074 1.390 . S
C2071 C2069 1.361 . S
C2071 C2072 1.393 . S
C2071 N2075 1.413 . S
C2072 H2065 0.930 . S
C2072 C2071 1.393 . S
C2072 C2073 1.399 . S
C2073 C2072 1.399 . S
C2073 C2074 1.381 . S
C2074 H2066 0.930 . S
C2074 C2070 1.390 . S
C2074 C2073 1.381 . S
N2075 C2068 1.286 . S
N2075 C2071 1.413 . S
H2076 C2081 0.930 . S
H2077 C2084 0.930 . S
H2078 C2086 0.930 . S
H2079 C2080 1.016 . S
C2080 H2079 1.016 . S
C2080 N2087 1.286 . S
C2081 H2076 0.930 . S
C2081 C2082 1.397 . S
C2081 C2083 1.361 . S
C2082 C2081 1.397 . S
C2082 C2086 1.390 . S
C2083 C2081 1.361 . S
C2083 C2084 1.393 . S
C2083 N2087 1.413 . S
C2084 H2077 0.930 . S
C2084 C2083 1.393 . S
C2084 C2085 1.399 . S
C2085 C2084 1.399 . S
C2085 C2086 1.381 . S
C2086 H2078 0.930 . S
C2086 C2082 1.390 . S
C2086 C2085 1.381 . S
N2087 C2080 1.286 . S
N2087 C2083 1.413 . S
H2088 C2093 0.930 . S
H2089 C2096 0.930 . S
H2090 C2098 0.930 . S
H2091 C2092 1.016 . S
C2092 H2091 1.016 . S
C2092 N2099 1.286 . S
C2093 H2088 0.930 . S
C2093 C2094 1.397 . S
C2093 C2095 1.361 . S
C2094 C2093 1.397 . S
C2094 C2098 1.390 . S
C2095 C2093 1.361 . S
C2095 C2096 1.393 . S
C2095 N2099 1.413 . S
C2096 H2089 0.930 . S
C2096 C2095 1.393 . S
C2096 C2097 1.399 . S
C2097 C2096 1.399 . S
C2097 C2098 1.381 . S
C2098 H2090 0.930 . S
C2098 C2094 1.390 . S
C2098 C2097 1.381 . S
N2099 C2092 1.286 . S
N2099 C2095 1.413 . S
H2100 C2105 0.930 . S
H2101 C2108 0.930 . S
H2102 C2110 0.930 . S
H2103 C2104 1.016 . S
C2104 H2103 1.016 . S
C2104 N2111 1.286 . S
C2105 H2100 0.930 . S
C2105 C2106 1.397 . S
C2105 C2107 1.361 . S
C2106 C2105 1.397 . S
C2106 C2110 1.390 . S
C2107 C2105 1.361 . S
C2107 C2108 1.393 . S
C2107 N2111 1.413 . S
C2108 H2101 0.930 . S
C2108 C2107 1.393 . S
C2108 C2109 1.399 . S
C2109 C2108 1.399 . S
C2109 C2110 1.381 . S
C2110 H2102 0.930 . S
C2110 C2106 1.390 . S
C2110 C2109 1.381 . S
N2111 C2104 1.286 . S
N2111 C2107 1.413 . S
H2112 C2117 0.930 . S
H2113 C2120 0.930 . S
H2114 C2122 0.930 . S
H2115 C2116 1.016 . S
C2116 H2115 1.016 . S
C2116 N2123 1.286 . S
C2117 H2112 0.930 . S
C2117 C2118 1.397 . S
C2117 C2119 1.361 . S
C2118 C2117 1.397 . S
C2118 C2122 1.390 . S
C2119 C2117 1.361 . S
C2119 C2120 1.393 . S
C2119 N2123 1.413 . S
C2120 H2113 0.930 . S
C2120 C2119 1.393 . S
C2120 C2121 1.399 . S
C2121 C2120 1.399 . S
C2121 C2122 1.381 . S
C2122 H2114 0.930 . S
C2122 C2118 1.390 . S
C2122 C2121 1.381 . S
N2123 C2116 1.286 . S
N2123 C2119 1.413 . S
H2124 C2129 0.930 . S
H2125 C2132 0.930 . S
H2126 C2134 0.930 . S
H2127 C2128 1.016 . S
C2128 H2127 1.016 . S
C2128 N2135 1.286 . S
C2129 H2124 0.930 . S
C2129 C2130 1.397 . S
C2129 C2131 1.361 . S
C2130 C2129 1.397 . S
C2130 C2134 1.390 . S
C2131 C2129 1.361 . S
C2131 C2132 1.393 . S
C2131 N2135 1.413 . S
C2132 H2125 0.930 . S
C2132 C2131 1.393 . S
C2132 C2133 1.399 . S
C2133 C2132 1.399 . S
C2133 C2134 1.381 . S
C2134 H2126 0.930 . S
C2134 C2130 1.390 . S
C2134 C2133 1.381 . S
N2135 C2128 1.286 . S
N2135 C2131 1.413 . S
H2136 C2141 0.930 . S
H2137 C2144 0.930 . S
H2138 C2146 0.930 . S
H2139 C2140 1.016 . S
C2140 H2139 1.016 . S
C2140 N2147 1.286 . S
C2141 H2136 0.930 . S
C2141 C2142 1.397 . S
C2141 C2143 1.361 . S
C2142 C2141 1.397 . S
C2142 C2146 1.390 . S
C2143 C2141 1.361 . S
C2143 C2144 1.393 . S
C2143 N2147 1.413 . S
C2144 H2137 0.930 . S
C2144 C2143 1.393 . S
C2144 C2145 1.399 . S
C2145 C2144 1.399 . S
C2145 C2146 1.381 . S
C2146 H2138 0.930 . S
C2146 C2142 1.390 . S
C2146 C2145 1.381 . S
N2147 C2140 1.286 . S
N2147 C2143 1.413 . S
H2148 C2153 0.930 . S
H2149 C2156 0.930 . S
H2150 C2158 0.930 . S
H2151 C2152 1.016 . S
C2152 H2151 1.016 . S
C2152 N2159 1.286 . S
C2153 H2148 0.930 . S
C2153 C2154 1.397 . S
C2153 C2155 1.361 . S
C2154 C2153 1.397 . S
C2154 C2158 1.390 . S
C2155 C2153 1.361 . S
C2155 C2156 1.393 . S
C2155 N2159 1.413 . S
C2156 H2149 0.930 . S
C2156 C2155 1.393 . S
C2156 C2157 1.399 . S
C2157 C2156 1.399 . S
C2157 C2158 1.381 . S
C2158 H2150 0.930 . S
C2158 C2154 1.390 . S
C2158 C2157 1.381 . S
N2159 C2152 1.286 . S
N2159 C2155 1.413 . S
H2160 C2165 0.930 . S
H2161 C2168 0.930 . S
H2162 C2170 0.930 . S
H2163 C2164 1.016 . S
C2164 H2163 1.016 . S
C2164 N2171 1.286 . S
C2165 H2160 0.930 . S
C2165 C2166 1.397 . S
C2165 C2167 1.361 . S
C2166 C2165 1.397 . S
C2166 C2170 1.390 . S
C2167 C2165 1.361 . S
C2167 C2168 1.393 . S
C2167 N2171 1.413 . S
C2168 H2161 0.930 . S
C2168 C2167 1.393 . S
C2168 C2169 1.399 . S
C2169 C2168 1.399 . S
C2169 C2170 1.381 . S
C2170 H2162 0.930 . S
C2170 C2166 1.390 . S
C2170 C2169 1.381 . S
N2171 C2164 1.286 . S
N2171 C2167 1.413 . S
H2172 C2177 0.930 . S
H2173 C2180 0.930 . S
H2174 C2182 0.930 . S
H2175 C2176 1.016 . S
C2176 H2175 1.016 . S
C2176 N2183 1.286 . S
C2177 H2172 0.930 . S
C2177 C2178 1.397 . S
C2177 C2179 1.361 . S
C2178 C2177 1.397 . S
C2178 C2182 1.390 . S
C2179 C2177 1.361 . S
C2179 C2180 1.393 . S
C2179 N2183 1.413 . S
C2180 H2173 0.930 . S
C2180 C2179 1.393 . S
C2180 C2181 1.399 . S
C2181 C2180 1.399 . S
C2181 C2182 1.381 . S
C2182 H2174 0.930 . S
C2182 C2178 1.390 . S
C2182 C2181 1.381 . S
N2183 C2176 1.286 . S
N2183 C2179 1.413 . S
H2184 C2189 0.930 . S
H2185 C2192 0.930 . S
H2186 C2194 0.930 . S
H2187 C2188 1.016 . S
C2188 H2187 1.016 . S
C2188 N2195 1.286 . S
C2189 H2184 0.930 . S
C2189 C2190 1.397 . S
C2189 C2191 1.361 . S
C2190 C2189 1.397 . S
C2190 C2194 1.390 . S
C2191 C2189 1.361 . S
C2191 C2192 1.393 . S
C2191 N2195 1.413 . S
C2192 H2185 0.930 . S
C2192 C2191 1.393 . S
C2192 C2193 1.399 . S
C2193 C2192 1.399 . S
C2193 C2194 1.381 . S
C2194 H2186 0.930 . S
C2194 C2190 1.390 . S
C2194 C2193 1.381 . S
N2195 C2188 1.286 . S
N2195 C2191 1.413 . S
H2196 C2201 0.930 . S
H2197 C2204 0.930 . S
H2198 C2206 0.930 . S
H2199 C2200 1.016 . S
C2200 H2199 1.016 . S
C2200 N2207 1.286 . S
C2201 H2196 0.930 . S
C2201 C2202 1.397 . S
C2201 C2203 1.361 . S
C2202 C2201 1.397 . S
C2202 C2206 1.390 . S
C2203 C2201 1.361 . S
C2203 C2204 1.393 . S
C2203 N2207 1.413 . S
C2204 H2197 0.930 . S
C2204 C2203 1.393 . S
C2204 C2205 1.399 . S
C2205 C2204 1.399 . S
C2205 C2206 1.381 . S
C2206 H2198 0.930 . S
C2206 C2202 1.390 . S
C2206 C2205 1.381 . S
N2207 C2200 1.286 . S
N2207 C2203 1.413 . S
H2208 C2213 0.930 . S
H2209 C2216 0.930 . S
H2210 C2218 0.930 . S
H2211 C2212 1.016 . S
C2212 H2211 1.016 . S
C2212 N2219 1.286 . S
C2213 H2208 0.930 . S
C2213 C2214 1.397 . S
C2213 C2215 1.361 . S
C2214 C2213 1.397 . S
C2214 C2218 1.390 . S
C2215 C2213 1.361 . S
C2215 C2216 1.393 . S
C2215 N2219 1.413 . S
C2216 H2209 0.930 . S
C2216 C2215 1.393 . S
C2216 C2217 1.399 . S
C2217 C2216 1.399 . S
C2217 C2218 1.381 . S
C2218 H2210 0.930 . S
C2218 C2214 1.390 . S
C2218 C2217 1.381 . S
N2219 C2212 1.286 . S
N2219 C2215 1.413 . S
H2220 C2225 0.930 . S
H2221 C2228 0.930 . S
H2222 C2230 0.930 . S
H2223 C2224 1.016 . S
C2224 H2223 1.016 . S
C2224 N2231 1.286 . S
C2225 H2220 0.930 . S
C2225 C2226 1.397 . S
C2225 C2227 1.361 . S
C2226 C2225 1.397 . S
C2226 C2230 1.390 . S
C2227 C2225 1.361 . S
C2227 C2228 1.393 . S
C2227 N2231 1.413 . S
C2228 H2221 0.930 . S
C2228 C2227 1.393 . S
C2228 C2229 1.399 . S
C2229 C2228 1.399 . S
C2229 C2230 1.381 . S
C2230 H2222 0.930 . S
C2230 C2226 1.390 . S
C2230 C2229 1.381 . S
N2231 C2224 1.286 . S
N2231 C2227 1.413 . S
H2232 C2237 0.930 . S
H2233 C2240 0.930 . S
H2234 C2242 0.930 . S
H2235 C2236 1.016 . S
C2236 H2235 1.016 . S
C2236 N2243 1.286 . S
C2237 H2232 0.930 . S
C2237 C2238 1.397 . S
C2237 C2239 1.361 . S
C2238 C2237 1.397 . S
C2238 C2242 1.390 . S
C2239 C2237 1.361 . S
C2239 C2240 1.393 . S
C2239 N2243 1.413 . S
C2240 H2233 0.930 . S
C2240 C2239 1.393 . S
C2240 C2241 1.399 . S
C2241 C2240 1.399 . S
C2241 C2242 1.381 . S
C2242 H2234 0.930 . S
C2242 C2238 1.390 . S
C2242 C2241 1.381 . S
N2243 C2236 1.286 . S
N2243 C2239 1.413 . S
H2244 C2249 0.930 . S
H2245 C2252 0.930 . S
H2246 C2254 0.930 . S
H2247 C2248 1.016 . S
C2248 H2247 1.016 . S
C2248 N2255 1.286 . S
C2249 H2244 0.930 . S
C2249 C2250 1.397 . S
C2249 C2251 1.361 . S
C2250 C2249 1.397 . S
C2250 C2254 1.390 . S
C2251 C2249 1.361 . S
C2251 C2252 1.393 . S
C2251 N2255 1.413 . S
C2252 H2245 0.930 . S
C2252 C2251 1.393 . S
C2252 C2253 1.399 . S
C2253 C2252 1.399 . S
C2253 C2254 1.381 . S
C2254 H2246 0.930 . S
C2254 C2250 1.390 . S
C2254 C2253 1.381 . S
N2255 C2248 1.286 . S
N2255 C2251 1.413 . S
H2256 C2261 0.930 . S
H2257 C2264 0.930 . S
H2258 C2266 0.930 . S
H2259 C2260 1.016 . S
C2260 H2259 1.016 . S
C2260 N2267 1.286 . S
C2261 H2256 0.930 . S
C2261 C2262 1.397 . S
C2261 C2263 1.361 . S
C2262 C2261 1.397 . S
C2262 C2266 1.390 . S
C2263 C2261 1.361 . S
C2263 C2264 1.393 . S
C2263 N2267 1.413 . S
C2264 H2257 0.930 . S
C2264 C2263 1.393 . S
C2264 C2265 1.399 . S
C2265 C2264 1.399 . S
C2265 C2266 1.381 . S
C2266 H2258 0.930 . S
C2266 C2262 1.390 . S
C2266 C2265 1.381 . S
N2267 C2260 1.286 . S
N2267 C2263 1.413 . S
H2268 C2273 0.930 . S
H2269 C2276 0.930 . S
H2270 C2278 0.930 . S
H2271 C2272 1.016 . S
C2272 H2271 1.016 . S
C2272 N2279 1.286 . S
C2273 H2268 0.930 . S
C2273 C2274 1.397 . S
C2273 C2275 1.361 . S
C2274 C2273 1.397 . S
C2274 C2278 1.390 . S
C2275 C2273 1.361 . S
C2275 C2276 1.393 . S
C2275 N2279 1.413 . S
C2276 H2269 0.930 . S
C2276 C2275 1.393 . S
C2276 C2277 1.399 . S
C2277 C2276 1.399 . S
C2277 C2278 1.381 . S
C2278 H2270 0.930 . S
C2278 C2274 1.390 . S
C2278 C2277 1.381 . S
N2279 C2272 1.286 . S
N2279 C2275 1.413 . S
H2280 C2285 0.930 . S
H2281 C2288 0.930 . S
H2282 C2290 0.930 . S
H2283 C2284 1.016 . S
C2284 H2283 1.016 . S
C2284 N2291 1.286 . S
C2285 H2280 0.930 . S
C2285 C2286 1.397 . S
C2285 C2287 1.361 . S
C2286 C2285 1.397 . S
C2286 C2290 1.390 . S
C2287 C2285 1.361 . S
C2287 C2288 1.393 . S
C2287 N2291 1.413 . S
C2288 H2281 0.930 . S
C2288 C2287 1.393 . S
C2288 C2289 1.399 . S
C2289 C2288 1.399 . S
C2289 C2290 1.381 . S
C2290 H2282 0.930 . S
C2290 C2286 1.390 . S
C2290 C2289 1.381 . S
N2291 C2284 1.286 . S
N2291 C2287 1.413 . S
H2292 C2297 0.930 . S
H2293 C2300 0.930 . S
H2294 C2302 0.930 . S
H2295 C2296 1.016 . S
C2296 H2295 1.016 . S
C2296 N2303 1.286 . S
C2297 H2292 0.930 . S
C2297 C2298 1.397 . S
C2297 C2299 1.361 . S
C2298 C2297 1.397 . S
C2298 C2302 1.390 . S
C2299 C2297 1.361 . S
C2299 C2300 1.393 . S
C2299 N2303 1.413 . S
C2300 H2293 0.930 . S
C2300 C2299 1.393 . S
C2300 C2301 1.399 . S
C2301 C2300 1.399 . S
C2301 C2302 1.381 . S
C2302 H2294 0.930 . S
C2302 C2298 1.390 . S
C2302 C2301 1.381 . S
N2303 C2296 1.286 . S
N2303 C2299 1.413 . S
H2304 C2309 0.930 . S
H2305 C2312 0.930 . S
H2306 C2314 0.930 . S
H2307 C2308 1.016 . S
C2308 H2307 1.016 . S
C2308 N2315 1.286 . S
C2309 H2304 0.930 . S
C2309 C2310 1.397 . S
C2309 C2311 1.361 . S
C2310 C2309 1.397 . S
C2310 C2314 1.390 . S
C2311 C2309 1.361 . S
C2311 C2312 1.393 . S
C2311 N2315 1.413 . S
C2312 H2305 0.930 . S
C2312 C2311 1.393 . S
C2312 C2313 1.399 . S
C2313 C2312 1.399 . S
C2313 C2314 1.381 . S
C2314 H2306 0.930 . S
C2314 C2310 1.390 . S
C2314 C2313 1.381 . S
N2315 C2308 1.286 . S
N2315 C2311 1.413 . S
H2316 C2321 0.930 . S
H2317 C2324 0.930 . S
H2318 C2326 0.930 . S
H2319 C2320 1.016 . S
C2320 H2319 1.016 . S
C2320 N2327 1.286 . S
C2321 H2316 0.930 . S
C2321 C2322 1.397 . S
C2321 C2323 1.361 . S
C2322 C2321 1.397 . S
C2322 C2326 1.390 . S
C2323 C2321 1.361 . S
C2323 C2324 1.393 . S
C2323 N2327 1.413 . S
C2324 H2317 0.930 . S
C2324 C2323 1.393 . S
C2324 C2325 1.399 . S
C2325 C2324 1.399 . S
C2325 C2326 1.381 . S
C2326 H2318 0.930 . S
C2326 C2322 1.390 . S
C2326 C2325 1.381 . S
N2327 C2320 1.286 . S
N2327 C2323 1.413 . S
H2328 C2333 0.930 . S
H2329 C2336 0.930 . S
H2330 C2338 0.930 . S
H2331 C2332 1.016 . S
C2332 H2331 1.016 . S
C2332 N2339 1.286 . S
C2333 H2328 0.930 . S
C2333 C2334 1.397 . S
C2333 C2335 1.361 . S
C2334 C2333 1.397 . S
C2334 C2338 1.390 . S
C2335 C2333 1.361 . S
C2335 C2336 1.393 . S
C2335 N2339 1.413 . S
C2336 H2329 0.930 . S
C2336 C2335 1.393 . S
C2336 C2337 1.399 . S
C2337 C2336 1.399 . S
C2337 C2338 1.381 . S
C2338 H2330 0.930 . S
C2338 C2334 1.390 . S
C2338 C2337 1.381 . S
N2339 C2332 1.286 . S
N2339 C2335 1.413 . S
H2340 C2345 0.930 . S
H2341 C2348 0.930 . S
H2342 C2350 0.930 . S
H2343 C2344 1.016 . S
C2344 H2343 1.016 . S
C2344 N2351 1.286 . S
C2345 H2340 0.930 . S
C2345 C2346 1.397 . S
C2345 C2347 1.361 . S
C2346 C2345 1.397 . S
C2346 C2350 1.390 . S
C2347 C2345 1.361 . S
C2347 C2348 1.393 . S
C2347 N2351 1.413 . S
C2348 H2341 0.930 . S
C2348 C2347 1.393 . S
C2348 C2349 1.399 . S
C2349 C2348 1.399 . S
C2349 C2350 1.381 . S
C2350 H2342 0.930 . S
C2350 C2346 1.390 . S
C2350 C2349 1.381 . S
N2351 C2344 1.286 . S
N2351 C2347 1.413 . S
H2352 C2357 0.930 . S
H2353 C2360 0.930 . S
H2354 C2362 0.930 . S
H2355 C2356 1.016 . S
C2356 H2355 1.016 . S
C2356 N2363 1.286 . S
C2357 H2352 0.930 . S
C2357 C2358 1.397 . S
C2357 C2359 1.361 . S
C2358 C2357 1.397 . S
C2358 C2362 1.390 . S
C2359 C2357 1.361 . S
C2359 C2360 1.393 . S
C2359 N2363 1.413 . S
C2360 H2353 0.930 . S
C2360 C2359 1.393 . S
C2360 C2361 1.399 . S
C2361 C2360 1.399 . S
C2361 C2362 1.381 . S
C2362 H2354 0.930 . S
C2362 C2358 1.390 . S
C2362 C2361 1.381 . S
N2363 C2356 1.286 . S
N2363 C2359 1.413 . S
H2364 C2369 0.930 . S
H2365 C2372 0.930 . S
H2366 C2374 0.930 . S
H2367 C2368 1.016 . S
C2368 H2367 1.016 . S
C2368 N2375 1.286 . S
C2369 H2364 0.930 . S
C2369 C2370 1.397 . S
C2369 C2371 1.361 . S
C2370 C2369 1.397 . S
C2370 C2374 1.390 . S
C2371 C2369 1.361 . S
C2371 C2372 1.393 . S
C2371 N2375 1.413 . S
C2372 H2365 0.930 . S
C2372 C2371 1.393 . S
C2372 C2373 1.399 . S
C2373 C2372 1.399 . S
C2373 C2374 1.381 . S
C2374 H2366 0.930 . S
C2374 C2370 1.390 . S
C2374 C2373 1.381 . S
N2375 C2368 1.286 . S
N2375 C2371 1.413 . S
H2376 C2381 0.930 . S
H2377 C2384 0.930 . S
H2378 C2386 0.930 . S
H2379 C2380 1.016 . S
C2380 H2379 1.016 . S
C2380 N2387 1.286 . S
C2381 H2376 0.930 . S
C2381 C2382 1.397 . S
C2381 C2383 1.361 . S
C2382 C2381 1.397 . S
C2382 C2386 1.390 . S
C2383 C2381 1.361 . S
C2383 C2384 1.393 . S
C2383 N2387 1.413 . S
C2384 H2377 0.930 . S
C2384 C2383 1.393 . S
C2384 C2385 1.399 . S
C2385 C2384 1.399 . S
C2385 C2386 1.381 . S
C2386 H2378 0.930 . S
C2386 C2382 1.390 . S
C2386 C2385 1.381 . S
N2387 C2380 1.286 . S
N2387 C2383 1.413 . S
H2388 C2393 0.930 . S
H2389 C2396 0.930 . S
H2390 C2398 0.930 . S
H2391 C2392 1.016 . S
C2392 H2391 1.016 . S
C2392 N2399 1.286 . S
C2393 H2388 0.930 . S
C2393 C2394 1.397 . S
C2393 C2395 1.361 . S
C2394 C2393 1.397 . S
C2394 C2398 1.390 . S
C2395 C2393 1.361 . S
C2395 C2396 1.393 . S
C2395 N2399 1.413 . S
C2396 H2389 0.930 . S
C2396 C2395 1.393 . S
C2396 C2397 1.399 . S
C2397 C2396 1.399 . S
C2397 C2398 1.381 . S
C2398 H2390 0.930 . S
C2398 C2394 1.390 . S
C2398 C2397 1.381 . S
N2399 C2392 1.286 . S
N2399 C2395 1.413 . S
H2400 C2405 0.930 . S
H2401 C2408 0.930 . S
H2402 C2410 0.930 . S
H2403 C2404 1.016 . S
C2404 H2403 1.016 . S
C2404 N2411 1.286 . S
C2405 H2400 0.930 . S
C2405 C2406 1.397 . S
C2405 C2407 1.361 . S
C2406 C2405 1.397 . S
C2406 C2410 1.390 . S
C2407 C2405 1.361 . S
C2407 C2408 1.393 . S
C2407 N2411 1.413 . S
C2408 H2401 0.930 . S
C2408 C2407 1.393 . S
C2408 C2409 1.399 . S
C2409 C2408 1.399 . S
C2409 C2410 1.381 . S
C2410 H2402 0.930 . S
C2410 C2406 1.390 . S
C2410 C2409 1.381 . S
N2411 C2404 1.286 . S
N2411 C2407 1.413 . S
H2412 C2417 0.930 . S
H2413 C2420 0.930 . S
H2414 C2422 0.930 . S
H2415 C2416 1.016 . S
C2416 H2415 1.016 . S
C2416 N2423 1.286 . S
C2417 H2412 0.930 . S
C2417 C2418 1.397 . S
C2417 C2419 1.361 . S
C2418 C2417 1.397 . S
C2418 C2422 1.390 . S
C2419 C2417 1.361 . S
C2419 C2420 1.393 . S
C2419 N2423 1.413 . S
C2420 H2413 0.930 . S
C2420 C2419 1.393 . S
C2420 C2421 1.399 . S
C2421 C2420 1.399 . S
C2421 C2422 1.381 . S
C2422 H2414 0.930 . S
C2422 C2418 1.390 . S
C2422 C2421 1.381 . S
N2423 C2416 1.286 . S
N2423 C2419 1.413 . S
H2424 C2429 0.930 . S
H2425 C2432 0.930 . S
H2426 C2434 0.930 . S
H2427 C2428 1.016 . S
C2428 H2427 1.016 . S
C2428 N2435 1.286 . S
C2429 H2424 0.930 . S
C2429 C2430 1.397 . S
C2429 C2431 1.361 . S
C2430 C2429 1.397 . S
C2430 C2434 1.390 . S
C2431 C2429 1.361 . S
C2431 C2432 1.393 . S
C2431 N2435 1.413 . S
C2432 H2425 0.930 . S
C2432 C2431 1.393 . S
C2432 C2433 1.399 . S
C2433 C2432 1.399 . S
C2433 C2434 1.381 . S
C2434 H2426 0.930 . S
C2434 C2430 1.390 . S
C2434 C2433 1.381 . S
N2435 C2428 1.286 . S
N2435 C2431 1.413 . S
H2436 C2441 0.930 . S
H2437 C2444 0.930 . S
H2438 C2446 0.930 . S
H2439 C2440 1.016 . S
C2440 H2439 1.016 . S
C2440 N2447 1.286 . S
C2441 H2436 0.930 . S
C2441 C2442 1.397 . S
C2441 C2443 1.361 . S
C2442 C2441 1.397 . S
C2442 C2446 1.390 . S
C2443 C2441 1.361 . S
C2443 C2444 1.393 . S
C2443 N2447 1.413 . S
C2444 H2437 0.930 . S
C2444 C2443 1.393 . S
C2444 C2445 1.399 . S
C2445 C2444 1.399 . S
C2445 C2446 1.381 . S
C2446 H2438 0.930 . S
C2446 C2442 1.390 . S
C2446 C2445 1.381 . S
N2447 C2440 1.286 . S
N2447 C2443 1.413 . S
H2448 C2453 0.930 . S
H2449 C2456 0.930 . S
H2450 C2458 0.930 . S
H2451 C2452 1.016 . S
C2452 H2451 1.016 . S
C2452 N2459 1.286 . S
C2453 H2448 0.930 . S
C2453 C2454 1.397 . S
C2453 C2455 1.361 . S
C2454 C2453 1.397 . S
C2454 C2458 1.390 . S
C2455 C2453 1.361 . S
C2455 C2456 1.393 . S
C2455 N2459 1.413 . S
C2456 H2449 0.930 . S
C2456 C2455 1.393 . S
C2456 C2457 1.399 . S
C2457 C2456 1.399 . S
C2457 C2458 1.381 . S
C2458 H2450 0.930 . S
C2458 C2454 1.390 . S
C2458 C2457 1.381 . S
N2459 C2452 1.286 . S
N2459 C2455 1.413 . S
H2460 C2465 0.930 . S
H2461 C2468 0.930 . S
H2462 C2470 0.930 . S
H2463 C2464 1.016 . S
C2464 H2463 1.016 . S
C2464 N2471 1.286 . S
C2465 H2460 0.930 . S
C2465 C2466 1.397 . S
C2465 C2467 1.361 . S
C2466 C2465 1.397 . S
C2466 C2470 1.390 . S
C2467 C2465 1.361 . S
C2467 C2468 1.393 . S
C2467 N2471 1.413 . S
C2468 H2461 0.930 . S
C2468 C2467 1.393 . S
C2468 C2469 1.399 . S
C2469 C2468 1.399 . S
C2469 C2470 1.381 . S
C2470 H2462 0.930 . S
C2470 C2466 1.390 . S
C2470 C2469 1.381 . S
N2471 C2464 1.286 . S
N2471 C2467 1.413 . S
H2472 C2477 0.930 . S
H2473 C2480 0.930 . S
H2474 C2482 0.930 . S
H2475 C2476 1.016 . S
C2476 H2475 1.016 . S
C2476 N2483 1.286 . S
C2477 H2472 0.930 . S
C2477 C2478 1.397 . S
C2477 C2479 1.361 . S
C2478 C2477 1.397 . S
C2478 C2482 1.390 . S
C2479 C2477 1.361 . S
C2479 C2480 1.393 . S
C2479 N2483 1.413 . S
C2480 H2473 0.930 . S
C2480 C2479 1.393 . S
C2480 C2481 1.399 . S
C2481 C2480 1.399 . S
C2481 C2482 1.381 . S
C2482 H2474 0.930 . S
C2482 C2478 1.390 . S
C2482 C2481 1.381 . S
N2483 C2476 1.286 . S
N2483 C2479 1.413 . S
H2484 C2489 0.930 . S
H2485 C2492 0.930 . S
H2486 C2494 0.930 . S
H2487 C2488 1.016 . S
C2488 H2487 1.016 . S
C2488 N2495 1.286 . S
C2489 H2484 0.930 . S
C2489 C2490 1.397 . S
C2489 C2491 1.361 . S
C2490 C2489 1.397 . S
C2490 C2494 1.390 . S
C2491 C2489 1.361 . S
C2491 C2492 1.393 . S
C2491 N2495 1.413 . S
C2492 H2485 0.930 . S
C2492 C2491 1.393 . S
C2492 C2493 1.399 . S
C2493 C2492 1.399 . S
C2493 C2494 1.381 . S
C2494 H2486 0.930 . S
C2494 C2490 1.390 . S
C2494 C2493 1.381 . S
N2495 C2488 1.286 . S
N2495 C2491 1.413 . S
C2496 C2497 1.387 . S
C2496 H2500 0.950 . S
C2496 C2505 1.390 . S
C2497 C2496 1.387 . S
C2497 C2499 1.387 . S
H2498 C2505 0.950 . S
C2499 C2497 1.387 . S
C2499 C2501 1.390 . S
C2499 H2503 0.950 . S
H2500 C2496 0.950 . S
C2501 C2499 1.390 . S
C2501 C2502 1.387 . S
C2501 H2504 0.950 . S
C2502 C2501 1.387 . S
C2502 C2505 1.387 . S
H2503 C2499 0.950 . S
H2504 C2501 0.950 . S
C2505 C2496 1.390 . S
C2505 H2498 0.950 . S
C2505 C2502 1.387 . S
C2506 C2507 1.387 . S
C2506 H2510 0.950 . S
C2506 C2515 1.390 . S
C2507 C2506 1.387 . S
C2507 C2509 1.387 . S
H2508 C2515 0.950 . S
C2509 C2507 1.387 . S
C2509 C2511 1.390 . S
C2509 H2513 0.950 . S
H2510 C2506 0.950 . S
C2511 C2509 1.390 . S
C2511 C2512 1.387 . S
C2511 H2514 0.950 . S
C2512 C2511 1.387 . S
C2512 C2515 1.387 . S
H2513 C2509 0.950 . S
H2514 C2511 0.950 . S
C2515 C2506 1.390 . S
C2515 H2508 0.950 . S
C2515 C2512 1.387 . S
C2516 C2517 1.387 . S
C2516 H2520 0.950 . S
C2516 C2525 1.390 . S
C2517 C2516 1.387 . S
C2517 C2519 1.387 . S
H2518 C2525 0.950 . S
C2519 C2517 1.387 . S
C2519 C2521 1.390 . S
C2519 H2523 0.950 . S
H2520 C2516 0.950 . S
C2521 C2519 1.390 . S
C2521 C2522 1.387 . S
C2521 H2524 0.950 . S
C2522 C2521 1.387 . S
C2522 C2525 1.387 . S
H2523 C2519 0.950 . S
H2524 C2521 0.950 . S
C2525 C2516 1.390 . S
C2525 H2518 0.950 . S
C2525 C2522 1.387 . S
C2526 C2527 1.387 . S
C2526 H2530 0.950 . S
C2526 C2535 1.390 . S
C2527 C2526 1.387 . S
C2527 C2529 1.387 . S
H2528 C2535 0.950 . S
C2529 C2527 1.387 . S
C2529 C2531 1.390 . S
C2529 H2533 0.950 . S
H2530 C2526 0.950 . S
C2531 C2529 1.390 . S
C2531 C2532 1.387 . S
C2531 H2534 0.950 . S
C2532 C2531 1.387 . S
C2532 C2535 1.387 . S
H2533 C2529 0.950 . S
H2534 C2531 0.950 . S
C2535 C2526 1.390 . S
C2535 H2528 0.950 . S
C2535 C2532 1.387 . S
C2536 C2537 1.387 . S
C2536 H2540 0.950 . S
C2536 C2545 1.390 . S
C2537 C2536 1.387 . S
C2537 C2539 1.387 . S
H2538 C2545 0.950 . S
C2539 C2537 1.387 . S
C2539 C2541 1.390 . S
C2539 H2543 0.950 . S
H2540 C2536 0.950 . S
C2541 C2539 1.390 . S
C2541 C2542 1.387 . S
C2541 H2544 0.950 . S
C2542 C2541 1.387 . S
C2542 C2545 1.387 . S
H2543 C2539 0.950 . S
H2544 C2541 0.950 . S
C2545 C2536 1.390 . S
C2545 H2538 0.950 . S
C2545 C2542 1.387 . S
C2546 C2547 1.387 . S
C2546 H2550 0.950 . S
C2546 C2555 1.390 . S
C2547 C2546 1.387 . S
C2547 C2549 1.387 . S
H2548 C2555 0.950 . S
C2549 C2547 1.387 . S
C2549 C2551 1.390 . S
C2549 H2553 0.950 . S
H2550 C2546 0.950 . S
C2551 C2549 1.390 . S
C2551 C2552 1.387 . S
C2551 H2554 0.950 . S
C2552 C2551 1.387 . S
C2552 C2555 1.387 . S
H2553 C2549 0.950 . S
H2554 C2551 0.950 . S
C2555 C2546 1.390 . S
C2555 H2548 0.950 . S
C2555 C2552 1.387 . S
C2556 C2557 1.387 . S
C2556 H2560 0.950 . S
C2556 C2565 1.390 . S
C2557 C2556 1.387 . S
C2557 C2559 1.387 . S
H2558 C2565 0.950 . S
C2559 C2557 1.387 . S
C2559 C2561 1.390 . S
C2559 H2563 0.950 . S
H2560 C2556 0.950 . S
C2561 C2559 1.390 . S
C2561 C2562 1.387 . S
C2561 H2564 0.950 . S
C2562 C2561 1.387 . S
C2562 C2565 1.387 . S
H2563 C2559 0.950 . S
H2564 C2561 0.950 . S
C2565 C2556 1.390 . S
C2565 H2558 0.950 . S
C2565 C2562 1.387 . S
C2566 C2567 1.387 . S
C2566 H2570 0.950 . S
C2566 C2575 1.390 . S
C2567 C2566 1.387 . S
C2567 C2569 1.387 . S
H2568 C2575 0.950 . S
C2569 C2567 1.387 . S
C2569 C2571 1.390 . S
C2569 H2573 0.950 . S
H2570 C2566 0.950 . S
C2571 C2569 1.390 . S
C2571 C2572 1.387 . S
C2571 H2574 0.950 . S
C2572 C2571 1.387 . S
C2572 C2575 1.387 . S
H2573 C2569 0.950 . S
H2574 C2571 0.950 . S
C2575 C2566 1.390 . S
C2575 H2568 0.950 . S
C2575 C2572 1.387 . S
C2576 C2577 1.387 . S
C2576 H2580 0.950 . S
C2576 C2585 1.390 . S
C2577 C2576 1.387 . S
C2577 C2579 1.387 . S
H2578 C2585 0.950 . S
C2579 C2577 1.387 . S
C2579 C2581 1.390 . S
C2579 H2583 0.950 . S
H2580 C2576 0.950 . S
C2581 C2579 1.390 . S
C2581 C2582 1.387 . S
C2581 H2584 0.950 . S
C2582 C2581 1.387 . S
C2582 C2585 1.387 . S
H2583 C2579 0.950 . S
H2584 C2581 0.950 . S
C2585 C2576 1.390 . S
C2585 H2578 0.950 . S
C2585 C2582 1.387 . S
C2586 C2587 1.387 . S
C2586 H2590 0.950 . S
C2586 C2595 1.390 . S
C2587 C2586 1.387 . S
C2587 C2589 1.387 . S
H2588 C2595 0.950 . S
C2589 C2587 1.387 . S
C2589 C2591 1.390 . S
C2589 H2593 0.950 . S
H2590 C2586 0.950 . S
C2591 C2589 1.390 . S
C2591 C2592 1.387 . S
C2591 H2594 0.950 . S
C2592 C2591 1.387 . S
C2592 C2595 1.387 . S
H2593 C2589 0.950 . S
H2594 C2591 0.950 . S
C2595 C2586 1.390 . S
C2595 H2588 0.950 . S
C2595 C2592 1.387 . S
C2596 C2597 1.387 . S
C2596 H2600 0.950 . S
C2596 C2605 1.390 . S
C2597 C2596 1.387 . S
C2597 C2599 1.387 . S
H2598 C2605 0.950 . S
C2599 C2597 1.387 . S
C2599 C2601 1.390 . S
C2599 H2603 0.950 . S
H2600 C2596 0.950 . S
C2601 C2599 1.390 . S
C2601 C2602 1.387 . S
C2601 H2604 0.950 . S
C2602 C2601 1.387 . S
C2602 C2605 1.387 . S
H2603 C2599 0.950 . S
H2604 C2601 0.950 . S
C2605 C2596 1.390 . S
C2605 H2598 0.950 . S
C2605 C2602 1.387 . S
C2606 C2607 1.387 . S
C2606 H2610 0.950 . S
C2606 C2615 1.390 . S
C2607 C2606 1.387 . S
C2607 C2609 1.387 . S
H2608 C2615 0.950 . S
C2609 C2607 1.387 . S
C2609 C2611 1.390 . S
C2609 H2613 0.950 . S
H2610 C2606 0.950 . S
C2611 C2609 1.390 . S
C2611 C2612 1.387 . S
C2611 H2614 0.950 . S
C2612 C2611 1.387 . S
C2612 C2615 1.387 . S
H2613 C2609 0.950 . S
H2614 C2611 0.950 . S
C2615 C2606 1.390 . S
C2615 H2608 0.950 . S
C2615 C2612 1.387 . S
C2616 C2617 1.387 . S
C2616 H2620 0.950 . S
C2616 C2625 1.390 . S
C2617 C2616 1.387 . S
C2617 C2619 1.387 . S
H2618 C2625 0.950 . S
C2619 C2617 1.387 . S
C2619 C2621 1.390 . S
C2619 H2623 0.950 . S
H2620 C2616 0.950 . S
C2621 C2619 1.390 . S
C2621 C2622 1.387 . S
C2621 H2624 0.950 . S
C2622 C2621 1.387 . S
C2622 C2625 1.387 . S
H2623 C2619 0.950 . S
H2624 C2621 0.950 . S
C2625 C2616 1.390 . S
C2625 H2618 0.950 . S
C2625 C2622 1.387 . S
C2626 C2627 1.387 . S
C2626 H2630 0.950 . S
C2626 C2635 1.390 . S
C2627 C2626 1.387 . S
C2627 C2629 1.387 . S
H2628 C2635 0.950 . S
C2629 C2627 1.387 . S
C2629 C2631 1.390 . S
C2629 H2633 0.950 . S
H2630 C2626 0.950 . S
C2631 C2629 1.390 . S
C2631 C2632 1.387 . S
C2631 H2634 0.950 . S
C2632 C2631 1.387 . S
C2632 C2635 1.387 . S
H2633 C2629 0.950 . S
H2634 C2631 0.950 . S
C2635 C2626 1.390 . S
C2635 H2628 0.950 . S
C2635 C2632 1.387 . S
C2636 C2637 1.387 . S
C2636 H2640 0.950 . S
C2636 C2645 1.390 . S
C2637 C2636 1.387 . S
C2637 C2639 1.387 . S
H2638 C2645 0.950 . S
C2639 C2637 1.387 . S
C2639 C2641 1.390 . S
C2639 H2643 0.950 . S
H2640 C2636 0.950 . S
C2641 C2639 1.390 . S
C2641 C2642 1.387 . S
C2641 H2644 0.950 . S
C2642 C2641 1.387 . S
C2642 C2645 1.387 . S
H2643 C2639 0.950 . S
H2644 C2641 0.950 . S
C2645 C2636 1.390 . S
C2645 H2638 0.950 . S
C2645 C2642 1.387 . S
C2646 C2647 1.387 . S
C2646 H2650 0.950 . S
C2646 C2655 1.390 . S
C2647 C2646 1.387 . S
C2647 C2649 1.387 . S
H2648 C2655 0.950 . S
C2649 C2647 1.387 . S
C2649 C2651 1.390 . S
C2649 H2653 0.950 . S
H2650 C2646 0.950 . S
C2651 C2649 1.390 . S
C2651 C2652 1.387 . S
C2651 H2654 0.950 . S
C2652 C2651 1.387 . S
C2652 C2655 1.387 . S
H2653 C2649 0.950 . S
H2654 C2651 0.950 . S
C2655 C2646 1.390 . S
C2655 H2648 0.950 . S
C2655 C2652 1.387 . S
C2656 C2657 1.387 . S
C2656 H2660 0.950 . S
C2656 C2665 1.390 . S
C2657 C2656 1.387 . S
C2657 C2659 1.387 . S
H2658 C2665 0.950 . S
C2659 C2657 1.387 . S
C2659 C2661 1.390 . S
C2659 H2663 0.950 . S
H2660 C2656 0.950 . S
C2661 C2659 1.390 . S
C2661 C2662 1.387 . S
C2661 H2664 0.950 . S
C2662 C2661 1.387 . S
C2662 C2665 1.387 . S
H2663 C2659 0.950 . S
H2664 C2661 0.950 . S
C2665 C2656 1.390 . S
C2665 H2658 0.950 . S
C2665 C2662 1.387 . S
C2666 C2667 1.387 . S
C2666 H2670 0.950 . S
C2666 C2675 1.390 . S
C2667 C2666 1.387 . S
C2667 C2669 1.387 . S
H2668 C2675 0.950 . S
C2669 C2667 1.387 . S
C2669 C2671 1.390 . S
C2669 H2673 0.950 . S
H2670 C2666 0.950 . S
C2671 C2669 1.390 . S
C2671 C2672 1.387 . S
C2671 H2674 0.950 . S
C2672 C2671 1.387 . S
C2672 C2675 1.387 . S
H2673 C2669 0.950 . S
H2674 C2671 0.950 . S
C2675 C2666 1.390 . S
C2675 H2668 0.950 . S
C2675 C2672 1.387 . S
C2676 C2677 1.387 . S
C2676 H2680 0.950 . S
C2676 C2685 1.390 . S
C2677 C2676 1.387 . S
C2677 C2679 1.387 . S
H2678 C2685 0.950 . S
C2679 C2677 1.387 . S
C2679 C2681 1.390 . S
C2679 H2683 0.950 . S
H2680 C2676 0.950 . S
C2681 C2679 1.390 . S
C2681 C2682 1.387 . S
C2681 H2684 0.950 . S
C2682 C2681 1.387 . S
C2682 C2685 1.387 . S
H2683 C2679 0.950 . S
H2684 C2681 0.950 . S
C2685 C2676 1.390 . S
C2685 H2678 0.950 . S
C2685 C2682 1.387 . S
C2686 C2687 1.387 . S
C2686 H2690 0.950 . S
C2686 C2695 1.390 . S
C2687 C2686 1.387 . S
C2687 C2689 1.387 . S
H2688 C2695 0.950 . S
C2689 C2687 1.387 . S
C2689 C2691 1.390 . S
C2689 H2693 0.950 . S
H2690 C2686 0.950 . S
C2691 C2689 1.390 . S
C2691 C2692 1.387 . S
C2691 H2694 0.950 . S
C2692 C2691 1.387 . S
C2692 C2695 1.387 . S
H2693 C2689 0.950 . S
H2694 C2691 0.950 . S
C2695 C2686 1.390 . S
C2695 H2688 0.950 . S
C2695 C2692 1.387 . S
C2696 C2697 1.387 . S
C2696 H2700 0.950 . S
C2696 C2705 1.390 . S
C2697 C2696 1.387 . S
C2697 C2699 1.387 . S
H2698 C2705 0.950 . S
C2699 C2697 1.387 . S
C2699 C2701 1.390 . S
C2699 H2703 0.950 . S
H2700 C2696 0.950 . S
C2701 C2699 1.390 . S
C2701 C2702 1.387 . S
C2701 H2704 0.950 . S
C2702 C2701 1.387 . S
C2702 C2705 1.387 . S
H2703 C2699 0.950 . S
H2704 C2701 0.950 . S
C2705 C2696 1.390 . S
C2705 H2698 0.950 . S
C2705 C2702 1.387 . S
C2706 C2707 1.387 . S
C2706 H2710 0.950 . S
C2706 C2715 1.390 . S
C2707 C2706 1.387 . S
C2707 C2709 1.387 . S
H2708 C2715 0.950 . S
C2709 C2707 1.387 . S
C2709 C2711 1.390 . S
C2709 H2713 0.950 . S
H2710 C2706 0.950 . S
C2711 C2709 1.390 . S
C2711 C2712 1.387 . S
C2711 H2714 0.950 . S
C2712 C2711 1.387 . S
C2712 C2715 1.387 . S
H2713 C2709 0.950 . S
H2714 C2711 0.950 . S
C2715 C2706 1.390 . S
C2715 H2708 0.950 . S
C2715 C2712 1.387 . S
C2716 C2717 1.387 . S
C2716 H2720 0.950 . S
C2716 C2725 1.390 . S
C2717 C2716 1.387 . S
C2717 C2719 1.387 . S
H2718 C2725 0.950 . S
C2719 C2717 1.387 . S
C2719 C2721 1.390 . S
C2719 H2723 0.950 . S
H2720 C2716 0.950 . S
C2721 C2719 1.390 . S
C2721 C2722 1.387 . S
C2721 H2724 0.950 . S
C2722 C2721 1.387 . S
C2722 C2725 1.387 . S
H2723 C2719 0.950 . S
H2724 C2721 0.950 . S
C2725 C2716 1.390 . S
C2725 H2718 0.950 . S
C2725 C2722 1.387 . S
C2726 C2727 1.387 . S
C2726 H2730 0.950 . S
C2726 C2735 1.390 . S
C2727 C2726 1.387 . S
C2727 C2729 1.387 . S
H2728 C2735 0.950 . S
C2729 C2727 1.387 . S
C2729 C2731 1.390 . S
C2729 H2733 0.950 . S
H2730 C2726 0.950 . S
C2731 C2729 1.390 . S
C2731 C2732 1.387 . S
C2731 H2734 0.950 . S
C2732 C2731 1.387 . S
C2732 C2735 1.387 . S
H2733 C2729 0.950 . S
H2734 C2731 0.950 . S
C2735 C2726 1.390 . S
C2735 H2728 0.950 . S
C2735 C2732 1.387 . S
C2736 C2737 1.387 . S
C2736 H2740 0.950 . S
C2736 C2745 1.390 . S
C2737 C2736 1.387 . S
C2737 C2739 1.387 . S
H2738 C2745 0.950 . S
C2739 C2737 1.387 . S
C2739 C2741 1.390 . S
C2739 H2743 0.950 . S
H2740 C2736 0.950 . S
C2741 C2739 1.390 . S
C2741 C2742 1.387 . S
C2741 H2744 0.950 . S
C2742 C2741 1.387 . S
C2742 C2745 1.387 . S
H2743 C2739 0.950 . S
H2744 C2741 0.950 . S
C2745 C2736 1.390 . S
C2745 H2738 0.950 . S
C2745 C2742 1.387 . S
C2746 C2747 1.387 . S
C2746 H2750 0.950 . S
C2746 C2755 1.390 . S
C2747 C2746 1.387 . S
C2747 C2749 1.387 . S
H2748 C2755 0.950 . S
C2749 C2747 1.387 . S
C2749 C2751 1.390 . S
C2749 H2753 0.950 . S
H2750 C2746 0.950 . S
C2751 C2749 1.390 . S
C2751 C2752 1.387 . S
C2751 H2754 0.950 . S
C2752 C2751 1.387 . S
C2752 C2755 1.387 . S
H2753 C2749 0.950 . S
H2754 C2751 0.950 . S
C2755 C2746 1.390 . S
C2755 H2748 0.950 . S
C2755 C2752 1.387 . S
C2756 C2757 1.387 . S
C2756 H2760 0.950 . S
C2756 C2765 1.390 . S
C2757 C2756 1.387 . S
C2757 C2759 1.387 . S
H2758 C2765 0.950 . S
C2759 C2757 1.387 . S
C2759 C2761 1.390 . S
C2759 H2763 0.950 . S
H2760 C2756 0.950 . S
C2761 C2759 1.390 . S
C2761 C2762 1.387 . S
C2761 H2764 0.950 . S
C2762 C2761 1.387 . S
C2762 C2765 1.387 . S
H2763 C2759 0.950 . S
H2764 C2761 0.950 . S
C2765 C2756 1.390 . S
C2765 H2758 0.950 . S
C2765 C2762 1.387 . S
C2766 C2767 1.387 . S
C2766 H2770 0.950 . S
C2766 C2775 1.390 . S
C2767 C2766 1.387 . S
C2767 C2769 1.387 . S
H2768 C2775 0.950 . S
C2769 C2767 1.387 . S
C2769 C2771 1.390 . S
C2769 H2773 0.950 . S
H2770 C2766 0.950 . S
C2771 C2769 1.390 . S
C2771 C2772 1.387 . S
C2771 H2774 0.950 . S
C2772 C2771 1.387 . S
C2772 C2775 1.387 . S
H2773 C2769 0.950 . S
H2774 C2771 0.950 . S
C2775 C2766 1.390 . S
C2775 H2768 0.950 . S
C2775 C2772 1.387 . S
C2776 C2777 1.387 . S
C2776 H2780 0.950 . S
C2776 C2785 1.390 . S
C2777 C2776 1.387 . S
C2777 C2779 1.387 . S
H2778 C2785 0.950 . S
C2779 C2777 1.387 . S
C2779 C2781 1.390 . S
C2779 H2783 0.950 . S
H2780 C2776 0.950 . S
C2781 C2779 1.390 . S
C2781 C2782 1.387 . S
C2781 H2784 0.950 . S
C2782 C2781 1.387 . S
C2782 C2785 1.387 . S
H2783 C2779 0.950 . S
H2784 C2781 0.950 . S
C2785 C2776 1.390 . S
C2785 H2778 0.950 . S
C2785 C2782 1.387 . S
C2786 C2787 1.387 . S
C2786 H2790 0.950 . S
C2786 C2795 1.390 . S
C2787 C2786 1.387 . S
C2787 C2789 1.387 . S
H2788 C2795 0.950 . S
C2789 C2787 1.387 . S
C2789 C2791 1.390 . S
C2789 H2793 0.950 . S
H2790 C2786 0.950 . S
C2791 C2789 1.390 . S
C2791 C2792 1.387 . S
C2791 H2794 0.950 . S
C2792 C2791 1.387 . S
C2792 C2795 1.387 . S
H2793 C2789 0.950 . S
H2794 C2791 0.950 . S
C2795 C2786 1.390 . S
C2795 H2788 0.950 . S
C2795 C2792 1.387 . S
C2796 C2797 1.387 . S
C2796 H2800 0.950 . S
C2796 C2805 1.390 . S
C2797 C2796 1.387 . S
C2797 C2799 1.387 . S
H2798 C2805 0.950 . S
C2799 C2797 1.387 . S
C2799 C2801 1.390 . S
C2799 H2803 0.950 . S
H2800 C2796 0.950 . S
C2801 C2799 1.390 . S
C2801 C2802 1.387 . S
C2801 H2804 0.950 . S
C2802 C2801 1.387 . S
C2802 C2805 1.387 . S
H2803 C2799 0.950 . S
H2804 C2801 0.950 . S
C2805 C2796 1.390 . S
C2805 H2798 0.950 . S
C2805 C2802 1.387 . S
C2806 C2807 1.387 . S
C2806 H2810 0.950 . S
C2806 C2815 1.390 . S
C2807 C2806 1.387 . S
C2807 C2809 1.387 . S
H2808 C2815 0.950 . S
C2809 C2807 1.387 . S
C2809 C2811 1.390 . S
C2809 H2813 0.950 . S
H2810 C2806 0.950 . S
C2811 C2809 1.390 . S
C2811 C2812 1.387 . S
C2811 H2814 0.950 . S
C2812 C2811 1.387 . S
C2812 C2815 1.387 . S
H2813 C2809 0.950 . S
H2814 C2811 0.950 . S
C2815 C2806 1.390 . S
C2815 H2808 0.950 . S
C2815 C2812 1.387 . S
C2816 C2817 1.387 . S
C2816 H2820 0.950 . S
C2816 C2825 1.390 . S
C2817 C2816 1.387 . S
C2817 C2819 1.387 . S
H2818 C2825 0.950 . S
C2819 C2817 1.387 . S
C2819 C2821 1.390 . S
C2819 H2823 0.950 . S
H2820 C2816 0.950 . S
C2821 C2819 1.390 . S
C2821 C2822 1.387 . S
C2821 H2824 0.950 . S
C2822 C2821 1.387 . S
C2822 C2825 1.387 . S
H2823 C2819 0.950 . S
H2824 C2821 0.950 . S
C2825 C2816 1.390 . S
C2825 H2818 0.950 . S
C2825 C2822 1.387 . S
C2826 C2827 1.387 . S
C2826 H2830 0.950 . S
C2826 C2835 1.390 . S
C2827 C2826 1.387 . S
C2827 C2829 1.387 . S
H2828 C2835 0.950 . S
C2829 C2827 1.387 . S
C2829 C2831 1.390 . S
C2829 H2833 0.950 . S
H2830 C2826 0.950 . S
C2831 C2829 1.390 . S
C2831 C2832 1.387 . S
C2831 H2834 0.950 . S
C2832 C2831 1.387 . S
C2832 C2835 1.387 . S
H2833 C2829 0.950 . S
H2834 C2831 0.950 . S
C2835 C2826 1.390 . S
C2835 H2828 0.950 . S
C2835 C2832 1.387 . S
C2836 C2837 1.387 . S
C2836 H2840 0.950 . S
C2836 C2845 1.390 . S
C2837 C2836 1.387 . S
C2837 C2839 1.387 . S
H2838 C2845 0.950 . S
C2839 C2837 1.387 . S
C2839 C2841 1.390 . S
C2839 H2843 0.950 . S
H2840 C2836 0.950 . S
C2841 C2839 1.390 . S
C2841 C2842 1.387 . S
C2841 H2844 0.950 . S
C2842 C2841 1.387 . S
C2842 C2845 1.387 . S
H2843 C2839 0.950 . S
H2844 C2841 0.950 . S
C2845 C2836 1.390 . S
C2845 H2838 0.950 . S
C2845 C2842 1.387 . S
C2846 C2847 1.387 . S
C2846 H2850 0.950 . S
C2846 C2855 1.390 . S
C2847 C2846 1.387 . S
C2847 C2849 1.387 . S
H2848 C2855 0.950 . S
C2849 C2847 1.387 . S
C2849 C2851 1.390 . S
C2849 H2853 0.950 . S
H2850 C2846 0.950 . S
C2851 C2849 1.390 . S
C2851 C2852 1.387 . S
C2851 H2854 0.950 . S
C2852 C2851 1.387 . S
C2852 C2855 1.387 . S
H2853 C2849 0.950 . S
H2854 C2851 0.950 . S
C2855 C2846 1.390 . S
C2855 H2848 0.950 . S
C2855 C2852 1.387 . S
C2856 C2857 1.387 . S
C2856 H2860 0.950 . S
C2856 C2865 1.390 . S
C2857 C2856 1.387 . S
C2857 C2859 1.387 . S
H2858 C2865 0.950 . S
C2859 C2857 1.387 . S
C2859 C2861 1.390 . S
C2859 H2863 0.950 . S
H2860 C2856 0.950 . S
C2861 C2859 1.390 . S
C2861 C2862 1.387 . S
C2861 H2864 0.950 . S
C2862 C2861 1.387 . S
C2862 C2865 1.387 . S
H2863 C2859 0.950 . S
H2864 C2861 0.950 . S
C2865 C2856 1.390 . S
C2865 H2858 0.950 . S
C2865 C2862 1.387 . S
C2866 C2867 1.387 . S
C2866 H2870 0.950 . S
C2866 C2875 1.390 . S
C2867 C2866 1.387 . S
C2867 C2869 1.387 . S
H2868 C2875 0.950 . S
C2869 C2867 1.387 . S
C2869 C2871 1.390 . S
C2869 H2873 0.950 . S
H2870 C2866 0.950 . S
C2871 C2869 1.390 . S
C2871 C2872 1.387 . S
C2871 H2874 0.950 . S
C2872 C2871 1.387 . S
C2872 C2875 1.387 . S
H2873 C2869 0.950 . S
H2874 C2871 0.950 . S
C2875 C2866 1.390 . S
C2875 H2868 0.950 . S
C2875 C2872 1.387 . S
C2876 C2877 1.387 . S
C2876 H2880 0.950 . S
C2876 C2885 1.390 . S
C2877 C2876 1.387 . S
C2877 C2879 1.387 . S
H2878 C2885 0.950 . S
C2879 C2877 1.387 . S
C2879 C2881 1.390 . S
C2879 H2883 0.950 . S
H2880 C2876 0.950 . S
C2881 C2879 1.390 . S
C2881 C2882 1.387 . S
C2881 H2884 0.950 . S
C2882 C2881 1.387 . S
C2882 C2885 1.387 . S
H2883 C2879 0.950 . S
H2884 C2881 0.950 . S
C2885 C2876 1.390 . S
C2885 H2878 0.950 . S
C2885 C2882 1.387 . S
C2886 C2887 1.387 . S
C2886 H2890 0.950 . S
C2886 C2895 1.390 . S
C2887 C2886 1.387 . S
C2887 C2889 1.387 . S
H2888 C2895 0.950 . S
C2889 C2887 1.387 . S
C2889 C2891 1.390 . S
C2889 H2893 0.950 . S
H2890 C2886 0.950 . S
C2891 C2889 1.390 . S
C2891 C2892 1.387 . S
C2891 H2894 0.950 . S
C2892 C2891 1.387 . S
C2892 C2895 1.387 . S
H2893 C2889 0.950 . S
H2894 C2891 0.950 . S
C2895 C2886 1.390 . S
C2895 H2888 0.950 . S
C2895 C2892 1.387 . S
C2896 C2897 1.387 . S
C2896 H2900 0.950 . S
C2896 C2905 1.390 . S
C2897 C2896 1.387 . S
C2897 C2899 1.387 . S
H2898 C2905 0.950 . S
C2899 C2897 1.387 . S
C2899 C2901 1.390 . S
C2899 H2903 0.950 . S
H2900 C2896 0.950 . S
C2901 C2899 1.390 . S
C2901 C2902 1.387 . S
C2901 H2904 0.950 . S
C2902 C2901 1.387 . S
C2902 C2905 1.387 . S
H2903 C2899 0.950 . S
H2904 C2901 0.950 . S
C2905 C2896 1.390 . S
C2905 H2898 0.950 . S
C2905 C2902 1.387 . S
C2906 C2907 1.387 . S
C2906 H2910 0.950 . S
C2906 C2915 1.390 . S
C2907 C2906 1.387 . S
C2907 C2909 1.387 . S
H2908 C2915 0.950 . S
C2909 C2907 1.387 . S
C2909 C2911 1.390 . S
C2909 H2913 0.950 . S
H2910 C2906 0.950 . S
C2911 C2909 1.390 . S
C2911 C2912 1.387 . S
C2911 H2914 0.950 . S
C2912 C2911 1.387 . S
C2912 C2915 1.387 . S
H2913 C2909 0.950 . S
H2914 C2911 0.950 . S
C2915 C2906 1.390 . S
C2915 H2908 0.950 . S
C2915 C2912 1.387 . S
C2916 C2917 1.387 . S
C2916 H2920 0.950 . S
C2916 C2925 1.390 . S
C2917 C2916 1.387 . S
C2917 C2919 1.387 . S
H2918 C2925 0.950 . S
C2919 C2917 1.387 . S
C2919 C2921 1.390 . S
C2919 H2923 0.950 . S
H2920 C2916 0.950 . S
C2921 C2919 1.390 . S
C2921 C2922 1.387 . S
C2921 H2924 0.950 . S
C2922 C2921 1.387 . S
C2922 C2925 1.387 . S
H2923 C2919 0.950 . S
H2924 C2921 0.950 . S
C2925 C2916 1.390 . S
C2925 H2918 0.950 . S
C2925 C2922 1.387 . S
C2926 C2927 1.387 . S
C2926 H2930 0.950 . S
C2926 C2935 1.390 . S
C2927 C2926 1.387 . S
C2927 C2929 1.387 . S
H2928 C2935 0.950 . S
C2929 C2927 1.387 . S
C2929 C2931 1.390 . S
C2929 H2933 0.950 . S
H2930 C2926 0.950 . S
C2931 C2929 1.390 . S
C2931 C2932 1.387 . S
C2931 H2934 0.950 . S
C2932 C2931 1.387 . S
C2932 C2935 1.387 . S
H2933 C2929 0.950 . S
H2934 C2931 0.950 . S
C2935 C2926 1.390 . S
C2935 H2928 0.950 . S
C2935 C2932 1.387 . S
C2936 C2937 1.387 . S
C2936 H2940 0.950 . S
C2936 C2945 1.390 . S
C2937 C2936 1.387 . S
C2937 C2939 1.387 . S
H2938 C2945 0.950 . S
C2939 C2937 1.387 . S
C2939 C2941 1.390 . S
C2939 H2943 0.950 . S
H2940 C2936 0.950 . S
C2941 C2939 1.390 . S
C2941 C2942 1.387 . S
C2941 H2944 0.950 . S
C2942 C2941 1.387 . S
C2942 C2945 1.387 . S
H2943 C2939 0.950 . S
H2944 C2941 0.950 . S
C2945 C2936 1.390 . S
C2945 H2938 0.950 . S
C2945 C2942 1.387 . S
C2946 C2947 1.387 . S
C2946 H2950 0.950 . S
C2946 C2955 1.390 . S
C2947 C2946 1.387 . S
C2947 C2949 1.387 . S
H2948 C2955 0.950 . S
C2949 C2947 1.387 . S
C2949 C2951 1.390 . S
C2949 H2953 0.950 . S
H2950 C2946 0.950 . S
C2951 C2949 1.390 . S
C2951 C2952 1.387 . S
C2951 H2954 0.950 . S
C2952 C2951 1.387 . S
C2952 C2955 1.387 . S
H2953 C2949 0.950 . S
H2954 C2951 0.950 . S
C2955 C2946 1.390 . S
C2955 H2948 0.950 . S
C2955 C2952 1.387 . S
C2956 C2957 1.387 . S
C2956 H2960 0.950 . S
C2956 C2965 1.390 . S
C2957 C2956 1.387 . S
C2957 C2959 1.387 . S
H2958 C2965 0.950 . S
C2959 C2957 1.387 . S
C2959 C2961 1.390 . S
C2959 H2963 0.950 . S
H2960 C2956 0.950 . S
C2961 C2959 1.390 . S
C2961 C2962 1.387 . S
C2961 H2964 0.950 . S
C2962 C2961 1.387 . S
C2962 C2965 1.387 . S
H2963 C2959 0.950 . S
H2964 C2961 0.950 . S
C2965 C2956 1.390 . S
C2965 H2958 0.950 . S
C2965 C2962 1.387 . S
C2966 C2967 1.387 . S
C2966 H2970 0.950 . S
C2966 C2975 1.390 . S
C2967 C2966 1.387 . S
C2967 C2969 1.387 . S
H2968 C2975 0.950 . S
C2969 C2967 1.387 . S
C2969 C2971 1.390 . S
C2969 H2973 0.950 . S
H2970 C2966 0.950 . S
C2971 C2969 1.390 . S
C2971 C2972 1.387 . S
C2971 H2974 0.950 . S
C2972 C2971 1.387 . S
C2972 C2975 1.387 . S
H2973 C2969 0.950 . S
H2974 C2971 0.950 . S
C2975 C2966 1.390 . S
C2975 H2968 0.950 . S
C2975 C2972 1.387 . S
C2976 C2977 1.387 . S
C2976 H2980 0.950 . S
C2976 C2985 1.390 . S
C2977 C2976 1.387 . S
C2977 C2979 1.387 . S
H2978 C2985 0.950 . S
C2979 C2977 1.387 . S
C2979 C2981 1.390 . S
C2979 H2983 0.950 . S
H2980 C2976 0.950 . S
C2981 C2979 1.390 . S
C2981 C2982 1.387 . S
C2981 H2984 0.950 . S
C2982 C2981 1.387 . S
C2982 C2985 1.387 . S
H2983 C2979 0.950 . S
H2984 C2981 0.950 . S
C2985 C2976 1.390 . S
C2985 H2978 0.950 . S
C2985 C2982 1.387 . S
C2986 C2987 1.387 . S
C2986 H2990 0.950 . S
C2986 C2995 1.390 . S
C2987 C2986 1.387 . S
C2987 C2989 1.387 . S
H2988 C2995 0.950 . S
C2989 C2987 1.387 . S
C2989 C2991 1.390 . S
C2989 H2993 0.950 . S
H2990 C2986 0.950 . S
C2991 C2989 1.390 . S
C2991 C2992 1.387 . S
C2991 H2994 0.950 . S
C2992 C2991 1.387 . S
C2992 C2995 1.387 . S
H2993 C2989 0.950 . S
H2994 C2991 0.950 . S
C2995 C2986 1.390 . S
C2995 H2988 0.950 . S
C2995 C2992 1.387 . S
C2996 C2997 1.387 . S
C2996 H3000 0.950 . S
C2996 C3005 1.390 . S
C2997 C2996 1.387 . S
C2997 C2999 1.387 . S
H2998 C3005 0.950 . S
C2999 C2997 1.387 . S
C2999 C3001 1.390 . S
C2999 H3003 0.950 . S
H3000 C2996 0.950 . S
C3001 C2999 1.390 . S
C3001 C3002 1.387 . S
C3001 H3004 0.950 . S
C3002 C3001 1.387 . S
C3002 C3005 1.387 . S
H3003 C2999 0.950 . S
H3004 C3001 0.950 . S
C3005 C2996 1.390 . S
C3005 H2998 0.950 . S
C3005 C3002 1.387 . S
C3006 C3007 1.387 . S
C3006 H3010 0.950 . S
C3006 C3015 1.390 . S
C3007 C3006 1.387 . S
C3007 C3009 1.387 . S
H3008 C3015 0.950 . S
C3009 C3007 1.387 . S
C3009 C3011 1.390 . S
C3009 H3013 0.950 . S
H3010 C3006 0.950 . S
C3011 C3009 1.390 . S
C3011 C3012 1.387 . S
C3011 H3014 0.950 . S
C3012 C3011 1.387 . S
C3012 C3015 1.387 . S
H3013 C3009 0.950 . S
H3014 C3011 0.950 . S
C3015 C3006 1.390 . S
C3015 H3008 0.950 . S
C3015 C3012 1.387 . S
C3016 C3017 1.387 . S
C3016 H3020 0.950 . S
C3016 C3025 1.390 . S
C3017 C3016 1.387 . S
C3017 C3019 1.387 . S
H3018 C3025 0.950 . S
C3019 C3017 1.387 . S
C3019 C3021 1.390 . S
C3019 H3023 0.950 . S
H3020 C3016 0.950 . S
C3021 C3019 1.390 . S
C3021 C3022 1.387 . S
C3021 H3024 0.950 . S
C3022 C3021 1.387 . S
C3022 C3025 1.387 . S
H3023 C3019 0.950 . S
H3024 C3021 0.950 . S
C3025 C3016 1.390 . S
C3025 H3018 0.950 . S
C3025 C3022 1.387 . S
C3026 C3027 1.387 . S
C3026 H3030 0.950 . S
C3026 C3035 1.390 . S
C3027 C3026 1.387 . S
C3027 C3029 1.387 . S
H3028 C3035 0.950 . S
C3029 C3027 1.387 . S
C3029 C3031 1.390 . S
C3029 H3033 0.950 . S
H3030 C3026 0.950 . S
C3031 C3029 1.390 . S
C3031 C3032 1.387 . S
C3031 H3034 0.950 . S
C3032 C3031 1.387 . S
C3032 C3035 1.387 . S
H3033 C3029 0.950 . S
H3034 C3031 0.950 . S
C3035 C3026 1.390 . S
C3035 H3028 0.950 . S
C3035 C3032 1.387 . S
C3036 C3037 1.387 . S
C3036 H3040 0.950 . S
C3036 C3045 1.390 . S
C3037 C3036 1.387 . S
C3037 C3039 1.387 . S
H3038 C3045 0.950 . S
C3039 C3037 1.387 . S
C3039 C3041 1.390 . S
C3039 H3043 0.950 . S
H3040 C3036 0.950 . S
C3041 C3039 1.390 . S
C3041 C3042 1.387 . S
C3041 H3044 0.950 . S
C3042 C3041 1.387 . S
C3042 C3045 1.387 . S
H3043 C3039 0.950 . S
H3044 C3041 0.950 . S
C3045 C3036 1.390 . S
C3045 H3038 0.950 . S
C3045 C3042 1.387 . S
C3046 C3047 1.387 . S
C3046 H3050 0.950 . S
C3046 C3055 1.390 . S
C3047 C3046 1.387 . S
C3047 C3049 1.387 . S
H3048 C3055 0.950 . S
C3049 C3047 1.387 . S
C3049 C3051 1.390 . S
C3049 H3053 0.950 . S
H3050 C3046 0.950 . S
C3051 C3049 1.390 . S
C3051 C3052 1.387 . S
C3051 H3054 0.950 . S
C3052 C3051 1.387 . S
C3052 C3055 1.387 . S
H3053 C3049 0.950 . S
H3054 C3051 0.950 . S
C3055 C3046 1.390 . S
C3055 H3048 0.950 . S
C3055 C3052 1.387 . S
C3056 C3057 1.387 . S
C3056 H3060 0.950 . S
C3056 C3065 1.390 . S
C3057 C3056 1.387 . S
C3057 C3059 1.387 . S
H3058 C3065 0.950 . S
C3059 C3057 1.387 . S
C3059 C3061 1.390 . S
C3059 H3063 0.950 . S
H3060 C3056 0.950 . S
C3061 C3059 1.390 . S
C3061 C3062 1.387 . S
C3061 H3064 0.950 . S
C3062 C3061 1.387 . S
C3062 C3065 1.387 . S
H3063 C3059 0.950 . S
H3064 C3061 0.950 . S
C3065 C3056 1.390 . S
C3065 H3058 0.950 . S
C3065 C3062 1.387 . S
C3066 C3067 1.387 . S
C3066 H3070 0.950 . S
C3066 C3075 1.390 . S
C3067 C3066 1.387 . S
C3067 C3069 1.387 . S
H3068 C3075 0.950 . S
C3069 C3067 1.387 . S
C3069 C3071 1.390 . S
C3069 H3073 0.950 . S
H3070 C3066 0.950 . S
C3071 C3069 1.390 . S
C3071 C3072 1.387 . S
C3071 H3074 0.950 . S
C3072 C3071 1.387 . S
C3072 C3075 1.387 . S
H3073 C3069 0.950 . S
H3074 C3071 0.950 . S
C3075 C3066 1.390 . S
C3075 H3068 0.950 . S
C3075 C3072 1.387 . S
C3076 C3077 1.387 . S
C3076 H3080 0.950 . S
C3076 C3085 1.390 . S
C3077 C3076 1.387 . S
C3077 C3079 1.387 . S
H3078 C3085 0.950 . S
C3079 C3077 1.387 . S
C3079 C3081 1.390 . S
C3079 H3083 0.950 . S
H3080 C3076 0.950 . S
C3081 C3079 1.390 . S
C3081 C3082 1.387 . S
C3081 H3084 0.950 . S
C3082 C3081 1.387 . S
C3082 C3085 1.387 . S
H3083 C3079 0.950 . S
H3084 C3081 0.950 . S
C3085 C3076 1.390 . S
C3085 H3078 0.950 . S
C3085 C3082 1.387 . S
C3086 C3087 1.387 . S
C3086 H3090 0.950 . S
C3086 C3095 1.390 . S
C3087 C3086 1.387 . S
C3087 C3089 1.387 . S
H3088 C3095 0.950 . S
C3089 C3087 1.387 . S
C3089 C3091 1.390 . S
C3089 H3093 0.950 . S
H3090 C3086 0.950 . S
C3091 C3089 1.390 . S
C3091 C3092 1.387 . S
C3091 H3094 0.950 . S
C3092 C3091 1.387 . S
C3092 C3095 1.387 . S
H3093 C3089 0.950 . S
H3094 C3091 0.950 . S
C3095 C3086 1.390 . S
C3095 H3088 0.950 . S
C3095 C3092 1.387 . S
C3096 C3097 1.387 . S
C3096 H3100 0.950 . S
C3096 C3105 1.390 . S
C3097 C3096 1.387 . S
C3097 C3099 1.387 . S
H3098 C3105 0.950 . S
C3099 C3097 1.387 . S
C3099 C3101 1.390 . S
C3099 H3103 0.950 . S
H3100 C3096 0.950 . S
C3101 C3099 1.390 . S
C3101 C3102 1.387 . S
C3101 H3104 0.950 . S
C3102 C3101 1.387 . S
C3102 C3105 1.387 . S
H3103 C3099 0.950 . S
H3104 C3101 0.950 . S
C3105 C3096 1.390 . S
C3105 H3098 0.950 . S
C3105 C3102 1.387 . S
C3106 C3107 1.387 . S
C3106 H3110 0.950 . S
C3106 C3115 1.390 . S
C3107 C3106 1.387 . S
C3107 C3109 1.387 . S
H3108 C3115 0.950 . S
C3109 C3107 1.387 . S
C3109 C3111 1.390 . S
C3109 H3113 0.950 . S
H3110 C3106 0.950 . S
C3111 C3109 1.390 . S
C3111 C3112 1.387 . S
C3111 H3114 0.950 . S
C3112 C3111 1.387 . S
C3112 C3115 1.387 . S
H3113 C3109 0.950 . S
H3114 C3111 0.950 . S
C3115 C3106 1.390 . S
C3115 H3108 0.950 . S
C3115 C3112 1.387 . S
C3116 C3117 1.387 . S
C3116 H3120 0.950 . S
C3116 C3125 1.390 . S
C3117 C3116 1.387 . S
C3117 C3119 1.387 . S
H3118 C3125 0.950 . S
C3119 C3117 1.387 . S
C3119 C3121 1.390 . S
C3119 H3123 0.950 . S
H3120 C3116 0.950 . S
C3121 C3119 1.390 . S
C3121 C3122 1.387 . S
C3121 H3124 0.950 . S
C3122 C3121 1.387 . S
C3122 C3125 1.387 . S
H3123 C3119 0.950 . S
H3124 C3121 0.950 . S
C3125 C3116 1.390 . S
C3125 H3118 0.950 . S
C3125 C3122 1.387 . S
C3126 C3127 1.387 . S
C3126 H3130 0.950 . S
C3126 C3135 1.390 . S
C3127 C3126 1.387 . S
C3127 C3129 1.387 . S
H3128 C3135 0.950 . S
C3129 C3127 1.387 . S
C3129 C3131 1.390 . S
C3129 H3133 0.950 . S
H3130 C3126 0.950 . S
C3131 C3129 1.390 . S
C3131 C3132 1.387 . S
C3131 H3134 0.950 . S
C3132 C3131 1.387 . S
C3132 C3135 1.387 . S
H3133 C3129 0.950 . S
H3134 C3131 0.950 . S
C3135 C3126 1.390 . S
C3135 H3128 0.950 . S
C3135 C3132 1.387 . S
C3136 C3137 1.387 . S
C3136 H3140 0.950 . S
C3136 C3145 1.390 . S
C3137 C3136 1.387 . S
C3137 C3139 1.387 . S
H3138 C3145 0.950 . S
C3139 C3137 1.387 . S
C3139 C3141 1.390 . S
C3139 H3143 0.950 . S
H3140 C3136 0.950 . S
C3141 C3139 1.390 . S
C3141 C3142 1.387 . S
C3141 H3144 0.950 . S
C3142 C3141 1.387 . S
C3142 C3145 1.387 . S
H3143 C3139 0.950 . S
H3144 C3141 0.950 . S
C3145 C3136 1.390 . S
C3145 H3138 0.950 . S
C3145 C3142 1.387 . S
C3146 C3147 1.387 . S
C3146 H3150 0.950 . S
C3146 C3155 1.390 . S
C3147 C3146 1.387 . S
C3147 C3149 1.387 . S
H3148 C3155 0.950 . S
C3149 C3147 1.387 . S
C3149 C3151 1.390 . S
C3149 H3153 0.950 . S
H3150 C3146 0.950 . S
C3151 C3149 1.390 . S
C3151 C3152 1.387 . S
C3151 H3154 0.950 . S
C3152 C3151 1.387 . S
C3152 C3155 1.387 . S
H3153 C3149 0.950 . S
H3154 C3151 0.950 . S
C3155 C3146 1.390 . S
C3155 H3148 0.950 . S
C3155 C3152 1.387 . S
C3156 C3157 1.387 . S
C3156 H3160 0.950 . S
C3156 C3165 1.390 . S
C3157 C3156 1.387 . S
C3157 C3159 1.387 . S
H3158 C3165 0.950 . S
C3159 C3157 1.387 . S
C3159 C3161 1.390 . S
C3159 H3163 0.950 . S
H3160 C3156 0.950 . S
C3161 C3159 1.390 . S
C3161 C3162 1.387 . S
C3161 H3164 0.950 . S
C3162 C3161 1.387 . S
C3162 C3165 1.387 . S
H3163 C3159 0.950 . S
H3164 C3161 0.950 . S
C3165 C3156 1.390 . S
C3165 H3158 0.950 . S
C3165 C3162 1.387 . S
C3166 C3167 1.387 . S
C3166 H3170 0.950 . S
C3166 C3175 1.390 . S
C3167 C3166 1.387 . S
C3167 C3169 1.387 . S
H3168 C3175 0.950 . S
C3169 C3167 1.387 . S
C3169 C3171 1.390 . S
C3169 H3173 0.950 . S
H3170 C3166 0.950 . S
C3171 C3169 1.390 . S
C3171 C3172 1.387 . S
C3171 H3174 0.950 . S
C3172 C3171 1.387 . S
C3172 C3175 1.387 . S
H3173 C3169 0.950 . S
H3174 C3171 0.950 . S
C3175 C3166 1.390 . S
C3175 H3168 0.950 . S
C3175 C3172 1.387 . S
C3176 C3177 1.387 . S
C3176 H3180 0.950 . S
C3176 C3185 1.390 . S
C3177 C3176 1.387 . S
C3177 C3179 1.387 . S
H3178 C3185 0.950 . S
C3179 C3177 1.387 . S
C3179 C3181 1.390 . S
C3179 H3183 0.950 . S
H3180 C3176 0.950 . S
C3181 C3179 1.390 . S
C3181 C3182 1.387 . S
C3181 H3184 0.950 . S
C3182 C3181 1.387 . S
C3182 C3185 1.387 . S
H3183 C3179 0.950 . S
H3184 C3181 0.950 . S
C3185 C3176 1.390 . S
C3185 H3178 0.950 . S
C3185 C3182 1.387 . S
C3186 C3187 1.387 . S
C3186 H3190 0.950 . S
C3186 C3195 1.390 . S
C3187 C3186 1.387 . S
C3187 C3189 1.387 . S
H3188 C3195 0.950 . S
C3189 C3187 1.387 . S
C3189 C3191 1.390 . S
C3189 H3193 0.950 . S
H3190 C3186 0.950 . S
C3191 C3189 1.390 . S
C3191 C3192 1.387 . S
C3191 H3194 0.950 . S
C3192 C3191 1.387 . S
C3192 C3195 1.387 . S
H3193 C3189 0.950 . S
H3194 C3191 0.950 . S
C3195 C3186 1.390 . S
C3195 H3188 0.950 . S
C3195 C3192 1.387 . S
C3196 C3197 1.387 . S
C3196 H3200 0.950 . S
C3196 C3205 1.390 . S
C3197 C3196 1.387 . S
C3197 C3199 1.387 . S
H3198 C3205 0.950 . S
C3199 C3197 1.387 . S
C3199 C3201 1.390 . S
C3199 H3203 0.950 . S
H3200 C3196 0.950 . S
C3201 C3199 1.390 . S
C3201 C3202 1.387 . S
C3201 H3204 0.950 . S
C3202 C3201 1.387 . S
C3202 C3205 1.387 . S
H3203 C3199 0.950 . S
H3204 C3201 0.950 . S
C3205 C3196 1.390 . S
C3205 H3198 0.950 . S
C3205 C3202 1.387 . S
C3206 C3207 1.387 . S
C3206 H3210 0.950 . S
C3206 C3215 1.390 . S
C3207 C3206 1.387 . S
C3207 C3209 1.387 . S
H3208 C3215 0.950 . S
C3209 C3207 1.387 . S
C3209 C3211 1.390 . S
C3209 H3213 0.950 . S
H3210 C3206 0.950 . S
C3211 C3209 1.390 . S
C3211 C3212 1.387 . S
C3211 H3214 0.950 . S
C3212 C3211 1.387 . S
C3212 C3215 1.387 . S
H3213 C3209 0.950 . S
H3214 C3211 0.950 . S
C3215 C3206 1.390 . S
C3215 H3208 0.950 . S
C3215 C3212 1.387 . S
C3216 C3217 1.387 . S
C3216 H3220 0.950 . S
C3216 C3225 1.390 . S
C3217 C3216 1.387 . S
C3217 C3219 1.387 . S
H3218 C3225 0.950 . S
C3219 C3217 1.387 . S
C3219 C3221 1.390 . S
C3219 H3223 0.950 . S
H3220 C3216 0.950 . S
C3221 C3219 1.390 . S
C3221 C3222 1.387 . S
C3221 H3224 0.950 . S
C3222 C3221 1.387 . S
C3222 C3225 1.387 . S
H3223 C3219 0.950 . S
H3224 C3221 0.950 . S
C3225 C3216 1.390 . S
C3225 H3218 0.950 . S
C3225 C3222 1.387 . S
C3226 C3227 1.387 . S
C3226 H3230 0.950 . S
C3226 C3235 1.390 . S
C3227 C3226 1.387 . S
C3227 C3229 1.387 . S
H3228 C3235 0.950 . S
C3229 C3227 1.387 . S
C3229 C3231 1.390 . S
C3229 H3233 0.950 . S
H3230 C3226 0.950 . S
C3231 C3229 1.390 . S
C3231 C3232 1.387 . S
C3231 H3234 0.950 . S
C3232 C3231 1.387 . S
C3232 C3235 1.387 . S
H3233 C3229 0.950 . S
H3234 C3231 0.950 . S
C3235 C3226 1.390 . S
C3235 H3228 0.950 . S
C3235 C3232 1.387 . S
C3236 C3237 1.387 . S
C3236 H3240 0.950 . S
C3236 C3245 1.390 . S
C3237 C3236 1.387 . S
C3237 C3239 1.387 . S
H3238 C3245 0.950 . S
C3239 C3237 1.387 . S
C3239 C3241 1.390 . S
C3239 H3243 0.950 . S
H3240 C3236 0.950 . S
C3241 C3239 1.390 . S
C3241 C3242 1.387 . S
C3241 H3244 0.950 . S
C3242 C3241 1.387 . S
C3242 C3245 1.387 . S
H3243 C3239 0.950 . S
H3244 C3241 0.950 . S
C3245 C3236 1.390 . S
C3245 H3238 0.950 . S
C3245 C3242 1.387 . S
C3246 C3247 1.387 . S
C3246 H3250 0.950 . S
C3246 C3255 1.390 . S
C3247 C3246 1.387 . S
C3247 C3249 1.387 . S
H3248 C3255 0.950 . S
C3249 C3247 1.387 . S
C3249 C3251 1.390 . S
C3249 H3253 0.950 . S
H3250 C3246 0.950 . S
C3251 C3249 1.390 . S
C3251 C3252 1.387 . S
C3251 H3254 0.950 . S
C3252 C3251 1.387 . S
C3252 C3255 1.387 . S
H3253 C3249 0.950 . S
H3254 C3251 0.950 . S
C3255 C3246 1.390 . S
C3255 H3248 0.950 . S
C3255 C3252 1.387 . S
C3256 C3257 1.387 . S
C3256 H3260 0.950 . S
C3256 C3265 1.390 . S
C3257 C3256 1.387 . S
C3257 C3259 1.387 . S
H3258 C3265 0.950 . S
C3259 C3257 1.387 . S
C3259 C3261 1.390 . S
C3259 H3263 0.950 . S
H3260 C3256 0.950 . S
C3261 C3259 1.390 . S
C3261 C3262 1.387 . S
C3261 H3264 0.950 . S
C3262 C3261 1.387 . S
C3262 C3265 1.387 . S
H3263 C3259 0.950 . S
H3264 C3261 0.950 . S
C3265 C3256 1.390 . S
C3265 H3258 0.950 . S
C3265 C3262 1.387 . S
C3266 C3267 1.387 . S
C3266 H3270 0.950 . S
C3266 C3275 1.390 . S
C3267 C3266 1.387 . S
C3267 C3269 1.387 . S
H3268 C3275 0.950 . S
C3269 C3267 1.387 . S
C3269 C3271 1.390 . S
C3269 H3273 0.950 . S
H3270 C3266 0.950 . S
C3271 C3269 1.390 . S
C3271 C3272 1.387 . S
C3271 H3274 0.950 . S
C3272 C3271 1.387 . S
C3272 C3275 1.387 . S
H3273 C3269 0.950 . S
H3274 C3271 0.950 . S
C3275 C3266 1.390 . S
C3275 H3268 0.950 . S
C3275 C3272 1.387 . S
C3276 C3277 1.387 . S
C3276 H3280 0.950 . S
C3276 C3285 1.390 . S
C3277 C3276 1.387 . S
C3277 C3279 1.387 . S
H3278 C3285 0.950 . S
C3279 C3277 1.387 . S
C3279 C3281 1.390 . S
C3279 H3283 0.950 . S
H3280 C3276 0.950 . S
C3281 C3279 1.390 . S
C3281 C3282 1.387 . S
C3281 H3284 0.950 . S
C3282 C3281 1.387 . S
C3282 C3285 1.387 . S
H3283 C3279 0.950 . S
H3284 C3281 0.950 . S
C3285 C3276 1.390 . S
C3285 H3278 0.950 . S
C3285 C3282 1.387 . S
C3286 C3287 1.387 . S
C3286 H3290 0.950 . S
C3286 C3295 1.390 . S
C3287 C3286 1.387 . S
C3287 C3289 1.387 . S
H3288 C3295 0.950 . S
C3289 C3287 1.387 . S
C3289 C3291 1.390 . S
C3289 H3293 0.950 . S
H3290 C3286 0.950 . S
C3291 C3289 1.390 . S
C3291 C3292 1.387 . S
C3291 H3294 0.950 . S
C3292 C3291 1.387 . S
C3292 C3295 1.387 . S
H3293 C3289 0.950 . S
H3294 C3291 0.950 . S
C3295 C3286 1.390 . S
C3295 H3288 0.950 . S
C3295 C3292 1.387 . S
C3296 C3297 1.387 . S
C3296 H3300 0.950 . S
C3296 C3305 1.390 . S
C3297 C3296 1.387 . S
C3297 C3299 1.387 . S
H3298 C3305 0.950 . S
C3299 C3297 1.387 . S
C3299 C3301 1.390 . S
C3299 H3303 0.950 . S
H3300 C3296 0.950 . S
C3301 C3299 1.390 . S
C3301 C3302 1.387 . S
C3301 H3304 0.950 . S
C3302 C3301 1.387 . S
C3302 C3305 1.387 . S
H3303 C3299 0.950 . S
H3304 C3301 0.950 . S
C3305 C3296 1.390 . S
C3305 H3298 0.950 . S
C3305 C3302 1.387 . S
C3306 C3307 1.387 . S
C3306 H3310 0.950 . S
C3306 C3315 1.390 . S
C3307 C3306 1.387 . S
C3307 C3309 1.387 . S
H3308 C3315 0.950 . S
C3309 C3307 1.387 . S
C3309 C3311 1.390 . S
C3309 H3313 0.950 . S
H3310 C3306 0.950 . S
C3311 C3309 1.390 . S
C3311 C3312 1.387 . S
C3311 H3314 0.950 . S
C3312 C3311 1.387 . S
C3312 C3315 1.387 . S
H3313 C3309 0.950 . S
H3314 C3311 0.950 . S
C3315 C3306 1.390 . S
C3315 H3308 0.950 . S
C3315 C3312 1.387 . S
C3316 C3317 1.387 . S
C3316 H3320 0.950 . S
C3316 C3325 1.390 . S
C3317 C3316 1.387 . S
C3317 C3319 1.387 . S
H3318 C3325 0.950 . S
C3319 C3317 1.387 . S
C3319 C3321 1.390 . S
C3319 H3323 0.950 . S
H3320 C3316 0.950 . S
C3321 C3319 1.390 . S
C3321 C3322 1.387 . S
C3321 H3324 0.950 . S
C3322 C3321 1.387 . S
C3322 C3325 1.387 . S
H3323 C3319 0.950 . S
H3324 C3321 0.950 . S
C3325 C3316 1.390 . S
C3325 H3318 0.950 . S
C3325 C3322 1.387 . S
C3326 C3327 1.387 . S
C3326 H3330 0.950 . S
C3326 C3335 1.390 . S
C3327 C3326 1.387 . S
C3327 C3329 1.387 . S
H3328 C3335 0.950 . S
C3329 C3327 1.387 . S
C3329 C3331 1.390 . S
C3329 H3333 0.950 . S
H3330 C3326 0.950 . S
C3331 C3329 1.390 . S
C3331 C3332 1.387 . S
C3331 H3334 0.950 . S
C3332 C3331 1.387 . S
C3332 C3335 1.387 . S
H3333 C3329 0.950 . S
H3334 C3331 0.950 . S
C3335 C3326 1.390 . S
C3335 H3328 0.950 . S
C3335 C3332 1.387 . S
C3336 C3337 1.387 . S
C3336 H3340 0.950 . S
C3336 C3345 1.390 . S
C3337 C3336 1.387 . S
C3337 C3339 1.387 . S
H3338 C3345 0.950 . S
C3339 C3337 1.387 . S
C3339 C3341 1.390 . S
C3339 H3343 0.950 . S
H3340 C3336 0.950 . S
C3341 C3339 1.390 . S
C3341 C3342 1.387 . S
C3341 H3344 0.950 . S
C3342 C3341 1.387 . S
C3342 C3345 1.387 . S
H3343 C3339 0.950 . S
H3344 C3341 0.950 . S
C3345 C3336 1.390 . S
C3345 H3338 0.950 . S
C3345 C3342 1.387 . S
C3346 C3347 1.387 . S
C3346 H3350 0.950 . S
C3346 C3355 1.390 . S
C3347 C3346 1.387 . S
C3347 C3349 1.387 . S
H3348 C3355 0.950 . S
C3349 C3347 1.387 . S
C3349 C3351 1.390 . S
C3349 H3353 0.950 . S
H3350 C3346 0.950 . S
C3351 C3349 1.390 . S
C3351 C3352 1.387 . S
C3351 H3354 0.950 . S
C3352 C3351 1.387 . S
C3352 C3355 1.387 . S
H3353 C3349 0.950 . S
H3354 C3351 0.950 . S
C3355 C3346 1.390 . S
C3355 H3348 0.950 . S
C3355 C3352 1.387 . S
C3356 C3357 1.387 . S
C3356 H3360 0.950 . S
C3356 C3365 1.390 . S
C3357 C3356 1.387 . S
C3357 C3359 1.387 . S
H3358 C3365 0.950 . S
C3359 C3357 1.387 . S
C3359 C3361 1.390 . S
C3359 H3363 0.950 . S
H3360 C3356 0.950 . S
C3361 C3359 1.390 . S
C3361 C3362 1.387 . S
C3361 H3364 0.950 . S
C3362 C3361 1.387 . S
C3362 C3365 1.387 . S
H3363 C3359 0.950 . S
H3364 C3361 0.950 . S
C3365 C3356 1.390 . S
C3365 H3358 0.950 . S
C3365 C3362 1.387 . S
C3366 C3367 1.387 . S
C3366 H3370 0.950 . S
C3366 C3375 1.390 . S
C3367 C3366 1.387 . S
C3367 C3369 1.387 . S
H3368 C3375 0.950 . S
C3369 C3367 1.387 . S
C3369 C3371 1.390 . S
C3369 H3373 0.950 . S
H3370 C3366 0.950 . S
C3371 C3369 1.390 . S
C3371 C3372 1.387 . S
C3371 H3374 0.950 . S
C3372 C3371 1.387 . S
C3372 C3375 1.387 . S
H3373 C3369 0.950 . S
H3374 C3371 0.950 . S
C3375 C3366 1.390 . S
C3375 H3368 0.950 . S
C3375 C3372 1.387 . S
C3376 C3377 1.387 . S
C3376 H3380 0.950 . S
C3376 C3385 1.390 . S
C3377 C3376 1.387 . S
C3377 C3379 1.387 . S
H3378 C3385 0.950 . S
C3379 C3377 1.387 . S
C3379 C3381 1.390 . S
C3379 H3383 0.950 . S
H3380 C3376 0.950 . S
C3381 C3379 1.390 . S
C3381 C3382 1.387 . S
C3381 H3384 0.950 . S
C3382 C3381 1.387 . S
C3382 C3385 1.387 . S
H3383 C3379 0.950 . S
H3384 C3381 0.950 . S
C3385 C3376 1.390 . S
C3385 H3378 0.950 . S
C3385 C3382 1.387 . S
C3386 C3387 1.387 . S
C3386 H3390 0.950 . S
C3386 C3395 1.390 . S
C3387 C3386 1.387 . S
C3387 C3389 1.387 . S
H3388 C3395 0.950 . S
C3389 C3387 1.387 . S
C3389 C3391 1.390 . S
C3389 H3393 0.950 . S
H3390 C3386 0.950 . S
C3391 C3389 1.390 . S
C3391 C3392 1.387 . S
C3391 H3394 0.950 . S
C3392 C3391 1.387 . S
C3392 C3395 1.387 . S
H3393 C3389 0.950 . S
H3394 C3391 0.950 . S
C3395 C3386 1.390 . S
C3395 H3388 0.950 . S
C3395 C3392 1.387 . S
C3396 C3397 1.387 . S
C3396 H3400 0.950 . S
C3396 C3405 1.390 . S
C3397 C3396 1.387 . S
C3397 C3399 1.387 . S
H3398 C3405 0.950 . S
C3399 C3397 1.387 . S
C3399 C3401 1.390 . S
C3399 H3403 0.950 . S
H3400 C3396 0.950 . S
C3401 C3399 1.390 . S
C3401 C3402 1.387 . S
C3401 H3404 0.950 . S
C3402 C3401 1.387 . S
C3402 C3405 1.387 . S
H3403 C3399 0.950 . S
H3404 C3401 0.950 . S
C3405 C3396 1.390 . S
C3405 H3398 0.950 . S
C3405 C3402 1.387 . S
C3406 C3407 1.387 . S
C3406 H3410 0.950 . S
C3406 C3415 1.390 . S
C3407 C3406 1.387 . S
C3407 C3409 1.387 . S
H3408 C3415 0.950 . S
C3409 C3407 1.387 . S
C3409 C3411 1.390 . S
C3409 H3413 0.950 . S
H3410 C3406 0.950 . S
C3411 C3409 1.390 . S
C3411 C3412 1.387 . S
C3411 H3414 0.950 . S
C3412 C3411 1.387 . S
C3412 C3415 1.387 . S
H3413 C3409 0.950 . S
H3414 C3411 0.950 . S
C3415 C3406 1.390 . S
C3415 H3408 0.950 . S
C3415 C3412 1.387 . S
C3416 C3417 1.387 . S
C3416 H3420 0.950 . S
C3416 C3425 1.390 . S
C3417 C3416 1.387 . S
C3417 C3419 1.387 . S
H3418 C3425 0.950 . S
C3419 C3417 1.387 . S
C3419 C3421 1.390 . S
C3419 H3423 0.950 . S
H3420 C3416 0.950 . S
C3421 C3419 1.390 . S
C3421 C3422 1.387 . S
C3421 H3424 0.950 . S
C3422 C3421 1.387 . S
C3422 C3425 1.387 . S
H3423 C3419 0.950 . S
H3424 C3421 0.950 . S
C3425 C3416 1.390 . S
C3425 H3418 0.950 . S
C3425 C3422 1.387 . S
C3426 C3427 1.387 . S
C3426 H3430 0.950 . S
C3426 C3435 1.390 . S
C3427 C3426 1.387 . S
C3427 C3429 1.387 . S
H3428 C3435 0.950 . S
C3429 C3427 1.387 . S
C3429 C3431 1.390 . S
C3429 H3433 0.950 . S
H3430 C3426 0.950 . S
C3431 C3429 1.390 . S
C3431 C3432 1.387 . S
C3431 H3434 0.950 . S
C3432 C3431 1.387 . S
C3432 C3435 1.387 . S
H3433 C3429 0.950 . S
H3434 C3431 0.950 . S
C3435 C3426 1.390 . S
C3435 H3428 0.950 . S
C3435 C3432 1.387 . S
C3436 C3437 1.387 . S
C3436 H3440 0.950 . S
C3436 C3445 1.390 . S
C3437 C3436 1.387 . S
C3437 C3439 1.387 . S
H3438 C3445 0.950 . S
C3439 C3437 1.387 . S
C3439 C3441 1.390 . S
C3439 H3443 0.950 . S
H3440 C3436 0.950 . S
C3441 C3439 1.390 . S
C3441 C3442 1.387 . S
C3441 H3444 0.950 . S
C3442 C3441 1.387 . S
C3442 C3445 1.387 . S
H3443 C3439 0.950 . S
H3444 C3441 0.950 . S
C3445 C3436 1.390 . S
C3445 H3438 0.950 . S
C3445 C3442 1.387 . S
C3446 C3447 1.387 . S
C3446 H3450 0.950 . S
C3446 C3455 1.390 . S
C3447 C3446 1.387 . S
C3447 C3449 1.387 . S
H3448 C3455 0.950 . S
C3449 C3447 1.387 . S
C3449 C3451 1.390 . S
C3449 H3453 0.950 . S
H3450 C3446 0.950 . S
C3451 C3449 1.390 . S
C3451 C3452 1.387 . S
C3451 H3454 0.950 . S
C3452 C3451 1.387 . S
C3452 C3455 1.387 . S
H3453 C3449 0.950 . S
H3454 C3451 0.950 . S
C3455 C3446 1.390 . S
C3455 H3448 0.950 . S
C3455 C3452 1.387 . S
C3456 C3457 1.387 . S
C3456 H3460 0.950 . S
C3456 C3465 1.390 . S
C3457 C3456 1.387 . S
C3457 C3459 1.387 . S
H3458 C3465 0.950 . S
C3459 C3457 1.387 . S
C3459 C3461 1.390 . S
C3459 H3463 0.950 . S
H3460 C3456 0.950 . S
C3461 C3459 1.390 . S
C3461 C3462 1.387 . S
C3461 H3464 0.950 . S
C3462 C3461 1.387 . S
C3462 C3465 1.387 . S
H3463 C3459 0.950 . S
H3464 C3461 0.950 . S
C3465 C3456 1.390 . S
C3465 H3458 0.950 . S
C3465 C3462 1.387 . S
C3466 C3467 1.387 . S
C3466 H3470 0.950 . S
C3466 C3475 1.390 . S
C3467 C3466 1.387 . S
C3467 C3469 1.387 . S
H3468 C3475 0.950 . S
C3469 C3467 1.387 . S
C3469 C3471 1.390 . S
C3469 H3473 0.950 . S
H3470 C3466 0.950 . S
C3471 C3469 1.390 . S
C3471 C3472 1.387 . S
C3471 H3474 0.950 . S
C3472 C3471 1.387 . S
C3472 C3475 1.387 . S
H3473 C3469 0.950 . S
H3474 C3471 0.950 . S
C3475 C3466 1.390 . S
C3475 H3468 0.950 . S
C3475 C3472 1.387 . S
C3476 C3477 1.387 . S
C3476 H3480 0.950 . S
C3476 C3485 1.390 . S
C3477 C3476 1.387 . S
C3477 C3479 1.387 . S
H3478 C3485 0.950 . S
C3479 C3477 1.387 . S
C3479 C3481 1.390 . S
C3479 H3483 0.950 . S
H3480 C3476 0.950 . S
C3481 C3479 1.390 . S
C3481 C3482 1.387 . S
C3481 H3484 0.950 . S
C3482 C3481 1.387 . S
C3482 C3485 1.387 . S
H3483 C3479 0.950 . S
H3484 C3481 0.950 . S
C3485 C3476 1.390 . S
C3485 H3478 0.950 . S
C3485 C3482 1.387 . S
C3486 C3487 1.387 . S
C3486 H3490 0.950 . S
C3486 C3495 1.390 . S
C3487 C3486 1.387 . S
C3487 C3489 1.387 . S
H3488 C3495 0.950 . S
C3489 C3487 1.387 . S
C3489 C3491 1.390 . S
C3489 H3493 0.950 . S
H3490 C3486 0.950 . S
C3491 C3489 1.390 . S
C3491 C3492 1.387 . S
C3491 H3494 0.950 . S
C3492 C3491 1.387 . S
C3492 C3495 1.387 . S
H3493 C3489 0.950 . S
H3494 C3491 0.950 . S
C3495 C3486 1.390 . S
C3495 H3488 0.950 . S
C3495 C3492 1.387 . S
C3496 C3497 1.387 . S
C3496 H3500 0.950 . S
C3496 C3505 1.390 . S
C3497 C3496 1.387 . S
C3497 C3499 1.387 . S
H3498 C3505 0.950 . S
C3499 C3497 1.387 . S
C3499 C3501 1.390 . S
C3499 H3503 0.950 . S
H3500 C3496 0.950 . S
C3501 C3499 1.390 . S
C3501 C3502 1.387 . S
C3501 H3504 0.950 . S
C3502 C3501 1.387 . S
C3502 C3505 1.387 . S
H3503 C3499 0.950 . S
H3504 C3501 0.950 . S
C3505 C3496 1.390 . S
C3505 H3498 0.950 . S
C3505 C3502 1.387 . S
C3506 C3507 1.387 . S
C3506 H3510 0.950 . S
C3506 C3515 1.390 . S
C3507 C3506 1.387 . S
C3507 C3509 1.387 . S
H3508 C3515 0.950 . S
C3509 C3507 1.387 . S
C3509 C3511 1.390 . S
C3509 H3513 0.950 . S
H3510 C3506 0.950 . S
C3511 C3509 1.390 . S
C3511 C3512 1.387 . S
C3511 H3514 0.950 . S
C3512 C3511 1.387 . S
C3512 C3515 1.387 . S
H3513 C3509 0.950 . S
H3514 C3511 0.950 . S
C3515 C3506 1.390 . S
C3515 H3508 0.950 . S
C3515 C3512 1.387 . S
C3516 C3517 1.387 . S
C3516 H3520 0.950 . S
C3516 C3525 1.390 . S
C3517 C3516 1.387 . S
C3517 C3519 1.387 . S
H3518 C3525 0.950 . S
C3519 C3517 1.387 . S
C3519 C3521 1.390 . S
C3519 H3523 0.950 . S
H3520 C3516 0.950 . S
C3521 C3519 1.390 . S
C3521 C3522 1.387 . S
C3521 H3524 0.950 . S
C3522 C3521 1.387 . S
C3522 C3525 1.387 . S
H3523 C3519 0.950 . S
H3524 C3521 0.950 . S
C3525 C3516 1.390 . S
C3525 H3518 0.950 . S
C3525 C3522 1.387 . S
C3526 C3527 1.387 . S
C3526 H3530 0.950 . S
C3526 C3535 1.390 . S
C3527 C3526 1.387 . S
C3527 C3529 1.387 . S
H3528 C3535 0.950 . S
C3529 C3527 1.387 . S
C3529 C3531 1.390 . S
C3529 H3533 0.950 . S
H3530 C3526 0.950 . S
C3531 C3529 1.390 . S
C3531 C3532 1.387 . S
C3531 H3534 0.950 . S
C3532 C3531 1.387 . S
C3532 C3535 1.387 . S
H3533 C3529 0.950 . S
H3534 C3531 0.950 . S
C3535 C3526 1.390 . S
C3535 H3528 0.950 . S
C3535 C3532 1.387 . S
C3536 C3537 1.387 . S
C3536 H3540 0.950 . S
C3536 C3545 1.390 . S
C3537 C3536 1.387 . S
C3537 C3539 1.387 . S
H3538 C3545 0.950 . S
C3539 C3537 1.387 . S
C3539 C3541 1.390 . S
C3539 H3543 0.950 . S
H3540 C3536 0.950 . S
C3541 C3539 1.390 . S
C3541 C3542 1.387 . S
C3541 H3544 0.950 . S
C3542 C3541 1.387 . S
C3542 C3545 1.387 . S
H3543 C3539 0.950 . S
H3544 C3541 0.950 . S
C3545 C3536 1.390 . S
C3545 H3538 0.950 . S
C3545 C3542 1.387 . S
C3546 C3547 1.387 . S
C3546 H3550 0.950 . S
C3546 C3555 1.390 . S
C3547 C3546 1.387 . S
C3547 C3549 1.387 . S
H3548 C3555 0.950 . S
C3549 C3547 1.387 . S
C3549 C3551 1.390 . S
C3549 H3553 0.950 . S
H3550 C3546 0.950 . S
C3551 C3549 1.390 . S
C3551 C3552 1.387 . S
C3551 H3554 0.950 . S
C3552 C3551 1.387 . S
C3552 C3555 1.387 . S
H3553 C3549 0.950 . S
H3554 C3551 0.950 . S
C3555 C3546 1.390 . S
C3555 H3548 0.950 . S
C3555 C3552 1.387 . S
C3556 C3557 1.387 . S
C3556 H3560 0.950 . S
C3556 C3565 1.390 . S
C3557 C3556 1.387 . S
C3557 C3559 1.387 . S
H3558 C3565 0.950 . S
C3559 C3557 1.387 . S
C3559 C3561 1.390 . S
C3559 H3563 0.950 . S
H3560 C3556 0.950 . S
C3561 C3559 1.390 . S
C3561 C3562 1.387 . S
C3561 H3564 0.950 . S
C3562 C3561 1.387 . S
C3562 C3565 1.387 . S
H3563 C3559 0.950 . S
H3564 C3561 0.950 . S
C3565 C3556 1.390 . S
C3565 H3558 0.950 . S
C3565 C3562 1.387 . S
C3566 C3567 1.387 . S
C3566 H3570 0.950 . S
C3566 C3575 1.390 . S
C3567 C3566 1.387 . S
C3567 C3569 1.387 . S
H3568 C3575 0.950 . S
C3569 C3567 1.387 . S
C3569 C3571 1.390 . S
C3569 H3573 0.950 . S
H3570 C3566 0.950 . S
C3571 C3569 1.390 . S
C3571 C3572 1.387 . S
C3571 H3574 0.950 . S
C3572 C3571 1.387 . S
C3572 C3575 1.387 . S
H3573 C3569 0.950 . S
H3574 C3571 0.950 . S
C3575 C3566 1.390 . S
C3575 H3568 0.950 . S
C3575 C3572 1.387 . S
C3576 C3577 1.387 . S
C3576 H3580 0.950 . S
C3576 C3585 1.390 . S
C3577 C3576 1.387 . S
C3577 C3579 1.387 . S
H3578 C3585 0.950 . S
C3579 C3577 1.387 . S
C3579 C3581 1.390 . S
C3579 H3583 0.950 . S
H3580 C3576 0.950 . S
C3581 C3579 1.390 . S
C3581 C3582 1.387 . S
C3581 H3584 0.950 . S
C3582 C3581 1.387 . S
C3582 C3585 1.387 . S
H3583 C3579 0.950 . S
H3584 C3581 0.950 . S
C3585 C3576 1.390 . S
C3585 H3578 0.950 . S
C3585 C3582 1.387 . S
C3586 C3587 1.387 . S
C3586 H3590 0.950 . S
C3586 C3595 1.390 . S
C3587 C3586 1.387 . S
C3587 C3589 1.387 . S
H3588 C3595 0.950 . S
C3589 C3587 1.387 . S
C3589 C3591 1.390 . S
C3589 H3593 0.950 . S
H3590 C3586 0.950 . S
C3591 C3589 1.390 . S
C3591 C3592 1.387 . S
C3591 H3594 0.950 . S
C3592 C3591 1.387 . S
C3592 C3595 1.387 . S
H3593 C3589 0.950 . S
H3594 C3591 0.950 . S
C3595 C3586 1.390 . S
C3595 H3588 0.950 . S
C3595 C3592 1.387 . S
C3596 C3597 1.387 . S
C3596 H3600 0.950 . S
C3596 C3605 1.390 . S
C3597 C3596 1.387 . S
C3597 C3599 1.387 . S
H3598 C3605 0.950 . S
C3599 C3597 1.387 . S
C3599 C3601 1.390 . S
C3599 H3603 0.950 . S
H3600 C3596 0.950 . S
C3601 C3599 1.390 . S
C3601 C3602 1.387 . S
C3601 H3604 0.950 . S
C3602 C3601 1.387 . S
C3602 C3605 1.387 . S
H3603 C3599 0.950 . S
H3604 C3601 0.950 . S
C3605 C3596 1.390 . S
C3605 H3598 0.950 . S
C3605 C3602 1.387 . S
C3606 C3607 1.387 . S
C3606 H3610 0.950 . S
C3606 C3615 1.390 . S
C3607 C3606 1.387 . S
C3607 C3609 1.387 . S
H3608 C3615 0.950 . S
C3609 C3607 1.387 . S
C3609 C3611 1.390 . S
C3609 H3613 0.950 . S
H3610 C3606 0.950 . S
C3611 C3609 1.390 . S
C3611 C3612 1.387 . S
C3611 H3614 0.950 . S
C3612 C3611 1.387 . S
C3612 C3615 1.387 . S
H3613 C3609 0.950 . S
H3614 C3611 0.950 . S
C3615 C3606 1.390 . S
C3615 H3608 0.950 . S
C3615 C3612 1.387 . S
C3616 C3617 1.387 . S
C3616 H3620 0.950 . S
C3616 C3625 1.390 . S
C3617 C3616 1.387 . S
C3617 C3619 1.387 . S
H3618 C3625 0.950 . S
C3619 C3617 1.387 . S
C3619 C3621 1.390 . S
C3619 H3623 0.950 . S
H3620 C3616 0.950 . S
C3621 C3619 1.390 . S
C3621 C3622 1.387 . S
C3621 H3624 0.950 . S
C3622 C3621 1.387 . S
C3622 C3625 1.387 . S
H3623 C3619 0.950 . S
H3624 C3621 0.950 . S
C3625 C3616 1.390 . S
C3625 H3618 0.950 . S
C3625 C3622 1.387 . S
C3626 C3627 1.387 . S
C3626 H3630 0.950 . S
C3626 C3635 1.390 . S
C3627 C3626 1.387 . S
C3627 C3629 1.387 . S
H3628 C3635 0.950 . S
C3629 C3627 1.387 . S
C3629 C3631 1.390 . S
C3629 H3633 0.950 . S
H3630 C3626 0.950 . S
C3631 C3629 1.390 . S
C3631 C3632 1.387 . S
C3631 H3634 0.950 . S
C3632 C3631 1.387 . S
C3632 C3635 1.387 . S
H3633 C3629 0.950 . S
H3634 C3631 0.950 . S
C3635 C3626 1.390 . S
C3635 H3628 0.950 . S
C3635 C3632 1.387 . S
C3636 C3637 1.387 . S
C3636 H3640 0.950 . S
C3636 C3645 1.390 . S
C3637 C3636 1.387 . S
C3637 C3639 1.387 . S
H3638 C3645 0.950 . S
C3639 C3637 1.387 . S
C3639 C3641 1.390 . S
C3639 H3643 0.950 . S
H3640 C3636 0.950 . S
C3641 C3639 1.390 . S
C3641 C3642 1.387 . S
C3641 H3644 0.950 . S
C3642 C3641 1.387 . S
C3642 C3645 1.387 . S
H3643 C3639 0.950 . S
H3644 C3641 0.950 . S
C3645 C3636 1.390 . S
C3645 H3638 0.950 . S
C3645 C3642 1.387 . S
C3646 C3647 1.387 . S
C3646 H3650 0.950 . S
C3646 C3655 1.390 . S
C3647 C3646 1.387 . S
C3647 C3649 1.387 . S
H3648 C3655 0.950 . S
C3649 C3647 1.387 . S
C3649 C3651 1.390 . S
C3649 H3653 0.950 . S
H3650 C3646 0.950 . S
C3651 C3649 1.390 . S
C3651 C3652 1.387 . S
C3651 H3654 0.950 . S
C3652 C3651 1.387 . S
C3652 C3655 1.387 . S
H3653 C3649 0.950 . S
H3654 C3651 0.950 . S
C3655 C3646 1.390 . S
C3655 H3648 0.950 . S
C3655 C3652 1.387 . S
C3656 C3657 1.387 . S
C3656 H3660 0.950 . S
C3656 C3665 1.390 . S
C3657 C3656 1.387 . S
C3657 C3659 1.387 . S
H3658 C3665 0.950 . S
C3659 C3657 1.387 . S
C3659 C3661 1.390 . S
C3659 H3663 0.950 . S
H3660 C3656 0.950 . S
C3661 C3659 1.390 . S
C3661 C3662 1.387 . S
C3661 H3664 0.950 . S
C3662 C3661 1.387 . S
C3662 C3665 1.387 . S
H3663 C3659 0.950 . S
H3664 C3661 0.950 . S
C3665 C3656 1.390 . S
C3665 H3658 0.950 . S
C3665 C3662 1.387 . S
C3666 C3667 1.387 . S
C3666 H3670 0.950 . S
C3666 C3675 1.390 . S
C3667 C3666 1.387 . S
C3667 C3669 1.387 . S
H3668 C3675 0.950 . S
C3669 C3667 1.387 . S
C3669 C3671 1.390 . S
C3669 H3673 0.950 . S
H3670 C3666 0.950 . S
C3671 C3669 1.390 . S
C3671 C3672 1.387 . S
C3671 H3674 0.950 . S
C3672 C3671 1.387 . S
C3672 C3675 1.387 . S
H3673 C3669 0.950 . S
H3674 C3671 0.950 . S
C3675 C3666 1.390 . S
C3675 H3668 0.950 . S
C3675 C3672 1.387 . S
C3676 C3677 1.387 . S
C3676 H3680 0.950 . S
C3676 C3685 1.390 . S
C3677 C3676 1.387 . S
C3677 C3679 1.387 . S
H3678 C3685 0.950 . S
C3679 C3677 1.387 . S
C3679 C3681 1.390 . S
C3679 H3683 0.950 . S
H3680 C3676 0.950 . S
C3681 C3679 1.390 . S
C3681 C3682 1.387 . S
C3681 H3684 0.950 . S
C3682 C3681 1.387 . S
C3682 C3685 1.387 . S
H3683 C3679 0.950 . S
H3684 C3681 0.950 . S
C3685 C3676 1.390 . S
C3685 H3678 0.950 . S
C3685 C3682 1.387 . S
C3686 C3687 1.387 . S
C3686 H3690 0.950 1_545 S
C3686 C3695 1.390 . S
C3687 C3686 1.387 . S
C3687 C3689 1.387 . S
H3688 C3695 0.950 . S
C3689 C3687 1.387 . S
C3689 C3691 1.390 . S
C3689 H3693 0.950 . S
H3690 C3686 0.950 1_565 S
C3691 C3689 1.390 . S
C3691 C3692 1.387 . S
C3691 H3694 0.950 . S
C3692 C3691 1.387 . S
C3692 C3695 1.387 . S
H3693 C3689 0.950 . S
H3694 C3691 0.950 . S
C3695 C3686 1.390 . S
C3695 H3688 0.950 . S
C3695 C3692 1.387 . S
C3696 C3697 1.387 . S
C3696 H3700 0.950 . S
C3696 C3705 1.390 . S
C3697 C3696 1.387 . S
C3697 C3699 1.387 . S
H3698 C3705 0.950 . S
C3699 C3697 1.387 . S
C3699 C3701 1.390 . S
C3699 H3703 0.950 . S
H3700 C3696 0.950 . S
C3701 C3699 1.390 . S
C3701 C3702 1.387 . S
C3701 H3704 0.950 . S
C3702 C3701 1.387 . S
C3702 C3705 1.387 . S
H3703 C3699 0.950 . S
H3704 C3701 0.950 . S
C3705 C3696 1.390 . S
C3705 H3698 0.950 . S
C3705 C3702 1.387 . S
C3706 C3707 1.387 . S
C3706 H3710 0.950 . S
C3706 C3715 1.390 . S
C3707 C3706 1.387 . S
C3707 C3709 1.387 . S
H3708 C3715 0.950 . S
C3709 C3707 1.387 . S
C3709 C3711 1.390 . S
C3709 H3713 0.950 . S
H3710 C3706 0.950 . S
C3711 C3709 1.390 . S
C3711 C3712 1.387 . S
C3711 H3714 0.950 . S
C3712 C3711 1.387 . S
C3712 C3715 1.387 . S
H3713 C3709 0.950 . S
H3714 C3711 0.950 . S
C3715 C3706 1.390 . S
C3715 H3708 0.950 . S
C3715 C3712 1.387 . S
C3716 C3717 1.387 . S
C3716 H3720 0.950 . S
C3716 C3725 1.390 . S
C3717 C3716 1.387 . S
C3717 C3719 1.387 . S
H3718 C3725 0.950 . S
C3719 C3717 1.387 . S
C3719 C3721 1.390 . S
C3719 H3723 0.950 . S
H3720 C3716 0.950 . S
C3721 C3719 1.390 . S
C3721 C3722 1.387 . S
C3721 H3724 0.950 . S
C3722 C3721 1.387 . S
C3722 C3725 1.387 . S
H3723 C3719 0.950 . S
H3724 C3721 0.950 . S
C3725 C3716 1.390 . S
C3725 H3718 0.950 . S
C3725 C3722 1.387 . S
C3726 C3727 1.387 . S
C3726 H3730 0.950 . S
C3726 C3735 1.390 . S
C3727 C3726 1.387 . S
C3727 C3729 1.387 . S
H3728 C3735 0.950 . S
C3729 C3727 1.387 . S
C3729 C3731 1.390 . S
C3729 H3733 0.950 . S
H3730 C3726 0.950 . S
C3731 C3729 1.390 . S
C3731 C3732 1.387 . S
C3731 H3734 0.950 . S
C3732 C3731 1.387 . S
C3732 C3735 1.387 . S
H3733 C3729 0.950 . S
H3734 C3731 0.950 . S
C3735 C3726 1.390 . S
C3735 H3728 0.950 . S
C3735 C3732 1.387 . S
C3736 C3737 1.387 . S
C3736 H3740 0.950 . S
C3736 C3745 1.390 . S
C3737 C3736 1.387 . S
C3737 C3739 1.387 . S
H3738 C3745 0.950 . S
C3739 C3737 1.387 . S
C3739 C3741 1.390 . S
C3739 H3743 0.950 . S
H3740 C3736 0.950 . S
C3741 C3739 1.390 . S
C3741 C3742 1.387 . S
C3741 H3744 0.950 . S
C3742 C3741 1.387 . S
C3742 C3745 1.387 . S
H3743 C3739 0.950 . S
H3744 C3741 0.950 . S
C3745 C3736 1.390 . S
C3745 H3738 0.950 . S
C3745 C3742 1.387 . S
C3746 C3747 1.387 . S
C3746 H3750 0.950 . S
C3746 C3755 1.390 . S
C3747 C3746 1.387 . S
C3747 C3749 1.387 . S
H3748 C3755 0.950 . S
C3749 C3747 1.387 . S
C3749 C3751 1.390 . S
C3749 H3753 0.950 . S
H3750 C3746 0.950 . S
C3751 C3749 1.390 . S
C3751 C3752 1.387 . S
C3751 H3754 0.950 . S
C3752 C3751 1.387 . S
C3752 C3755 1.387 . S
H3753 C3749 0.950 . S
H3754 C3751 0.950 . S
C3755 C3746 1.390 . S
C3755 H3748 0.950 . S
C3755 C3752 1.387 . S
C3756 C3757 1.387 . S
C3756 H3760 0.950 . S
C3756 C3765 1.390 . S
C3757 C3756 1.387 . S
C3757 C3759 1.387 . S
H3758 C3765 0.950 . S
C3759 C3757 1.387 . S
C3759 C3761 1.390 . S
C3759 H3763 0.950 . S
H3760 C3756 0.950 . S
C3761 C3759 1.390 . S
C3761 C3762 1.387 . S
C3761 H3764 0.950 . S
C3762 C3761 1.387 . S
C3762 C3765 1.387 . S
H3763 C3759 0.950 . S
H3764 C3761 0.950 . S
C3765 C3756 1.390 . S
C3765 H3758 0.950 . S
C3765 C3762 1.387 . S
C3766 C3767 1.387 . S
C3766 H3770 0.950 . S
C3766 C3775 1.390 . S
C3767 C3766 1.387 . S
C3767 C3769 1.387 . S
H3768 C3775 0.950 . S
C3769 C3767 1.387 . S
C3769 C3771 1.390 . S
C3769 H3773 0.950 . S
H3770 C3766 0.950 . S
C3771 C3769 1.390 . S
C3771 C3772 1.387 . S
C3771 H3774 0.950 . S
C3772 C3771 1.387 . S
C3772 C3775 1.387 . S
H3773 C3769 0.950 . S
H3774 C3771 0.950 . S
C3775 C3766 1.390 . S
C3775 H3768 0.950 . S
C3775 C3772 1.387 . S
C3776 C3777 1.387 . S
C3776 H3780 0.950 . S
C3776 C3785 1.390 . S
C3777 C3776 1.387 . S
C3777 C3779 1.387 . S
H3778 C3785 0.950 . S
C3779 C3777 1.387 . S
C3779 C3781 1.390 . S
C3779 H3783 0.950 . S
H3780 C3776 0.950 . S
C3781 C3779 1.390 . S
C3781 C3782 1.387 . S
C3781 H3784 0.950 . S
C3782 C3781 1.387 . S
C3782 C3785 1.387 . S
H3783 C3779 0.950 . S
H3784 C3781 0.950 . S
C3785 C3776 1.390 . S
C3785 H3778 0.950 . S
C3785 C3782 1.387 . S
C3786 C3787 1.387 . S
C3786 H3790 0.950 . S
C3786 C3795 1.390 . S
C3787 C3786 1.387 . S
C3787 C3789 1.387 . S
H3788 C3795 0.950 . S
C3789 C3787 1.387 . S
C3789 C3791 1.390 . S
C3789 H3793 0.950 . S
H3790 C3786 0.950 . S
C3791 C3789 1.390 . S
C3791 C3792 1.387 . S
C3791 H3794 0.950 . S
C3792 C3791 1.387 . S
C3792 C3795 1.387 . S
H3793 C3789 0.950 . S
H3794 C3791 0.950 . S
C3795 C3786 1.390 . S
C3795 H3788 0.950 . S
C3795 C3792 1.387 . S
C3796 C3797 1.387 . S
C3796 H3800 0.950 . S
C3796 C3805 1.390 . S
C3797 C3796 1.387 . S
C3797 C3799 1.387 . S
H3798 C3805 0.950 . S
C3799 C3797 1.387 . S
C3799 C3801 1.390 . S
C3799 H3803 0.950 . S
H3800 C3796 0.950 . S
C3801 C3799 1.390 . S
C3801 C3802 1.387 . S
C3801 H3804 0.950 . S
C3802 C3801 1.387 . S
C3802 C3805 1.387 . S
H3803 C3799 0.950 . S
H3804 C3801 0.950 . S
C3805 C3796 1.390 . S
C3805 H3798 0.950 . S
C3805 C3802 1.387 . S
C3806 C3807 1.387 . S
C3806 H3810 0.950 . S
C3806 C3815 1.390 . S
C3807 C3806 1.387 . S
C3807 C3809 1.387 . S
H3808 C3815 0.950 . S
C3809 C3807 1.387 . S
C3809 C3811 1.390 . S
C3809 H3813 0.950 . S
H3810 C3806 0.950 . S
C3811 C3809 1.390 . S
C3811 C3812 1.387 . S
C3811 H3814 0.950 . S
C3812 C3811 1.387 . S
C3812 C3815 1.387 . S
H3813 C3809 0.950 . S
H3814 C3811 0.950 . S
C3815 C3806 1.390 . S
C3815 H3808 0.950 . S
C3815 C3812 1.387 . S
C3816 C3817 1.387 . S
C3816 H3820 0.950 . S
C3816 C3825 1.390 . S
C3817 C3816 1.387 . S
C3817 C3819 1.387 . S
H3818 C3825 0.950 . S
C3819 C3817 1.387 . S
C3819 C3821 1.390 . S
C3819 H3823 0.950 . S
H3820 C3816 0.950 . S
C3821 C3819 1.390 . S
C3821 C3822 1.387 . S
C3821 H3824 0.950 . S
C3822 C3821 1.387 . S
C3822 C3825 1.387 . S
H3823 C3819 0.950 . S
H3824 C3821 0.950 . S
C3825 C3816 1.390 . S
C3825 H3818 0.950 . S
C3825 C3822 1.387 . S
C3826 C3827 1.387 . S
C3826 H3830 0.950 . S
C3826 C3835 1.390 . S
C3827 C3826 1.387 . S
C3827 C3829 1.387 . S
H3828 C3835 0.950 . S
C3829 C3827 1.387 . S
C3829 C3831 1.390 . S
C3829 H3833 0.950 . S
H3830 C3826 0.950 . S
C3831 C3829 1.390 . S
C3831 C3832 1.387 . S
C3831 H3834 0.950 . S
C3832 C3831 1.387 . S
C3832 C3835 1.387 . S
H3833 C3829 0.950 . S
H3834 C3831 0.950 . S
C3835 C3826 1.390 . S
C3835 H3828 0.950 . S
C3835 C3832 1.387 . S
C3836 C3837 1.387 . S
C3836 H3840 0.950 . S
C3836 C3845 1.390 . S
C3837 C3836 1.387 . S
C3837 C3839 1.387 . S
H3838 C3845 0.950 . S
C3839 C3837 1.387 . S
C3839 C3841 1.390 . S
C3839 H3843 0.950 . S
H3840 C3836 0.950 . S
C3841 C3839 1.390 . S
C3841 C3842 1.387 . S
C3841 H3844 0.950 . S
C3842 C3841 1.387 . S
C3842 C3845 1.387 . S
H3843 C3839 0.950 . S
H3844 C3841 0.950 . S
C3845 C3836 1.390 . S
C3845 H3838 0.950 . S
C3845 C3842 1.387 . S
C3846 C3847 1.387 . S
C3846 H3850 0.950 . S
C3846 C3855 1.390 . S
C3847 C3846 1.387 . S
C3847 C3849 1.387 . S
H3848 C3855 0.950 . S
C3849 C3847 1.387 . S
C3849 C3851 1.390 . S
C3849 H3853 0.950 . S
H3850 C3846 0.950 . S
C3851 C3849 1.390 . S
C3851 C3852 1.387 . S
C3851 H3854 0.950 . S
C3852 C3851 1.387 . S
C3852 C3855 1.387 . S
H3853 C3849 0.950 . S
H3854 C3851 0.950 . S
C3855 C3846 1.390 . S
C3855 H3848 0.950 . S
C3855 C3852 1.387 . S
C3856 C3857 1.387 . S
C3856 H3860 0.950 . S
C3856 C3865 1.390 . S
C3857 C3856 1.387 . S
C3857 C3859 1.387 . S
H3858 C3865 0.950 . S
C3859 C3857 1.387 . S
C3859 C3861 1.390 . S
C3859 H3863 0.950 . S
H3860 C3856 0.950 . S
C3861 C3859 1.390 . S
C3861 C3862 1.387 . S
C3861 H3864 0.950 . S
C3862 C3861 1.387 . S
C3862 C3865 1.387 . S
H3863 C3859 0.950 . S
H3864 C3861 0.950 . S
C3865 C3856 1.390 . S
C3865 H3858 0.950 . S
C3865 C3862 1.387 . S
C3866 C3867 1.387 . S
C3866 H3870 0.950 . S
C3866 C3875 1.390 . S
C3867 C3866 1.387 . S
C3867 C3869 1.387 . S
H3868 C3875 0.950 . S
C3869 C3867 1.387 . S
C3869 C3871 1.390 . S
C3869 H3873 0.950 . S
H3870 C3866 0.950 . S
C3871 C3869 1.390 . S
C3871 C3872 1.387 . S
C3871 H3874 0.950 . S
C3872 C3871 1.387 . S
C3872 C3875 1.387 . S
H3873 C3869 0.950 . S
H3874 C3871 0.950 . S
C3875 C3866 1.390 . S
C3875 H3868 0.950 . S
C3875 C3872 1.387 . S
C3876 C3877 1.387 . S
C3876 H3880 0.950 . S
C3876 C3885 1.390 . S
C3877 C3876 1.387 . S
C3877 C3879 1.387 . S
H3878 C3885 0.950 . S
C3879 C3877 1.387 . S
C3879 C3881 1.390 . S
C3879 H3883 0.950 . S
H3880 C3876 0.950 . S
C3881 C3879 1.390 . S
C3881 C3882 1.387 . S
C3881 H3884 0.950 . S
C3882 C3881 1.387 . S
C3882 C3885 1.387 . S
H3883 C3879 0.950 . S
H3884 C3881 0.950 . S
C3885 C3876 1.390 . S
C3885 H3878 0.950 . S
C3885 C3882 1.387 . S
C3886 C3887 1.387 . S
C3886 H3890 0.950 . S
C3886 C3895 1.390 . S
C3887 C3886 1.387 . S
C3887 C3889 1.387 . S
H3888 C3895 0.950 . S
C3889 C3887 1.387 . S
C3889 C3891 1.390 . S
C3889 H3893 0.950 . S
H3890 C3886 0.950 . S
C3891 C3889 1.390 . S
C3891 C3892 1.387 . S
C3891 H3894 0.950 . S
C3892 C3891 1.387 . S
C3892 C3895 1.387 . S
H3893 C3889 0.950 . S
H3894 C3891 0.950 . S
C3895 C3886 1.390 . S
C3895 H3888 0.950 . S
C3895 C3892 1.387 . S
C3896 C3897 1.387 . S
C3896 H3900 0.950 . S
C3896 C3905 1.390 . S
C3897 C3896 1.387 . S
C3897 C3899 1.387 . S
H3898 C3905 0.950 . S
C3899 C3897 1.387 . S
C3899 C3901 1.390 . S
C3899 H3903 0.950 . S
H3900 C3896 0.950 . S
C3901 C3899 1.390 . S
C3901 C3902 1.387 . S
C3901 H3904 0.950 . S
C3902 C3901 1.387 . S
C3902 C3905 1.387 . S
H3903 C3899 0.950 . S
H3904 C3901 0.950 . S
C3905 C3896 1.390 . S
C3905 H3898 0.950 . S
C3905 C3902 1.387 . S
C3906 C3907 1.387 . S
C3906 H3910 0.950 . S
C3906 C3915 1.390 . S
C3907 C3906 1.387 . S
C3907 C3909 1.387 . S
H3908 C3915 0.950 . S
C3909 C3907 1.387 . S
C3909 C3911 1.390 . S
C3909 H3913 0.950 . S
H3910 C3906 0.950 . S
C3911 C3909 1.390 . S
C3911 C3912 1.387 . S
C3911 H3914 0.950 . S
C3912 C3911 1.387 . S
C3912 C3915 1.387 . S
H3913 C3909 0.950 . S
H3914 C3911 0.950 . S
C3915 C3906 1.390 . S
C3915 H3908 0.950 . S
C3915 C3912 1.387 . S
C3916 C3917 1.387 . S
C3916 H3920 0.950 . S
C3916 C3925 1.390 . S
C3917 C3916 1.387 . S
C3917 C3919 1.387 . S
H3918 C3925 0.950 . S
C3919 C3917 1.387 . S
C3919 C3921 1.390 . S
C3919 H3923 0.950 . S
H3920 C3916 0.950 . S
C3921 C3919 1.390 . S
C3921 C3922 1.387 . S
C3921 H3924 0.950 . S
C3922 C3921 1.387 . S
C3922 C3925 1.387 . S
H3923 C3919 0.950 . S
H3924 C3921 0.950 . S
C3925 C3916 1.390 . S
C3925 H3918 0.950 . S
C3925 C3922 1.387 . S
C3926 C3927 1.387 1_545 S
C3926 H3930 0.950 . S
C3926 C3935 1.390 . S
C3927 C3926 1.387 1_565 S
C3927 C3929 1.387 . S
H3928 C3935 0.950 . S
C3929 C3927 1.387 . S
C3929 C3931 1.390 . S
C3929 H3933 0.950 . S
H3930 C3926 0.950 . S
C3931 C3929 1.390 . S
C3931 C3932 1.387 . S
C3931 H3934 0.950 . S
C3932 C3931 1.387 . S
C3932 C3935 1.387 1_565 S
H3933 C3929 0.950 . S
H3934 C3931 0.950 . S
C3935 C3926 1.390 . S
C3935 H3928 0.950 . S
C3935 C3932 1.387 1_545 S
C2497 C1781 1.732 . S
C2502 C1929 1.811 . S
C2507 C981 1.733 . S
C2512 C1941 1.671 . S
C2522 C1953 1.713 . S
C2517 C1861 1.639 . S
C2527 C1061 1.719 . S
C2532 C1965 1.655 . S
C2537 C1901 1.667 . S
C2542 C1977 1.625 . S
C2547 C941 1.718 . S
C2552 C1989 1.792 . S
C2557 C1821 1.620 . S
C2562 C2001 1.672 . S
C2567 C1021 1.686 . S
C2572 C2013 1.761 . S
C2577 C661 1.315 . S
C2582 C2025 1.295 . S
C2587 C1621 1.502 . S
C2592 C2037 1.541 . S
C2597 C741 1.874 . S
C2602 C2049 1.844 . S
C2607 C1581 1.801 . S
C2612 C2061 1.820 . S
C2617 C901 1.791 . S
C2622 C2073 1.741 . S
C2632 C2085 1.756 . S
C2627 C1661 1.698 . S
C2642 C2097 1.955 . S
C2637 C821 1.997 . S
C2647 C1141 1.571 . S
C2652 C2109 1.594 . S
C2662 C2121 1.733 . S
C2657 C781 1.677 . S
C2672 C2133 1.920 . S
C2667 C1701 1.966 . S
C2677 C861 1.610 . S
C2682 C2145 1.678 . S
C2687 C1181 1.850 . S
C2692 C2157 1.798 . S
C2702 C2169 1.428 . S
C2697 C1101 1.435 . S
C2707 C1421 1.396 . S
C2712 C2181 1.426 . S
C2722 C2193 1.608 . S
C2717 C381 1.640 . S
C2732 C2205 1.625 . S
C2727 C1501 1.602 . S
C2742 C2217 1.412 . S
C2737 C461 1.472 . S
C2752 C2229 1.580 . S
C2747 C1541 1.634 . S
C2757 C341 1.233 . S
C2762 C2241 1.243 . S
C2772 C2253 1.690 . S
C2767 C1461 1.733 . S
C2777 C421 1.650 . S
C2782 C2265 1.721 . S
C2792 C2277 1.661 . S
C2787 C61 1.690 . S
C2802 C2289 1.892 . S
C2797 C1261 1.759 . S
C2807 C141 1.545 . S
C2812 C2301 1.551 . S
C2822 C2313 1.510 . S
C2817 C1221 1.513 . S
C2832 C2325 1.540 . S
C2827 C301 1.590 . S
C2837 C1301 1.889 . S
C2842 C2337 1.853 . S
C2852 C2349 1.467 . S
C2847 C221 1.513 . S
C2862 C2361 1.557 . S
C2857 C541 1.570 . S
C2867 C181 1.707 . S
C2872 C2373 1.670 . S
C2882 C2385 1.464 . S
C2877 C1341 1.513 . S
C2887 C261 1.605 . S
C2892 C2397 1.596 . S
C2902 C2409 1.508 . S
C2897 C581 1.574 . S
C2907 C501 1.630 . S
C2912 C2421 1.595 . S
C2917 C701 1.482 . S
C2922 C2433 1.543 . S
C2932 C2445 1.887 . S
C2927 C621 1.853 . S
C2937 C1741 1.801 . S
C2942 C2457 1.747 . S
C2947 C101 1.670 . S
C2952 C2469 1.799 . S
C2962 C2481 1.572 . S
C2957 C21 1.562 . S
C2972 C2493 1.790 . S
C2967 C1381 1.834 . S
C2977 C1335 1.557 . S
C2982 C1926 1.602 . S
C2987 C535 1.446 . S
C2992 C1938 1.444 . S
C2997 C1362 1.993 . S
C3002 C1948 1.897 . S
C3012 C1960 1.748 . S
C3007 C1295 1.698 . S
C3017 C575 1.383 . S
C3022 C1972 1.386 . S
C3027 C1215 1.449 . S
C3032 C1984 1.438 . S
C3042 C1996 1.603 . S
C3037 C495 1.578 . S
C3047 C1242 1.555 . S
C3052 C2010 1.662 . S
C3057 C1255 1.864 . S
C3062 C2022 1.828 . S
C3072 C2032 1.546 . S
C3067 C562 1.610 . S
C3077 C1202 1.517 . S
C3082 C2044 1.462 . S
C3092 C2056 1.699 . S
C3087 C482 1.780 . S
C3097 C522 1.336 . S
C3102 C2070 1.290 . S
C3107 C1375 1.744 . S
C3112 C2080 1.814 . S
C3122 C2092 1.882 . S
C3117 C1282 1.966 . S
C3132 C2106 1.726 . S
C3127 C1322 1.784 . S
C3137 C455 1.737 . S
C3142 C2058 1.782 . S
C3147 C1415 1.505 . S
C3152 C2118 1.539 . S
C3157 C1455 1.632 . S
C3162 C2130 1.635 . S
C3172 C2140 1.443 . S
C3167 C1482 1.486 . S
C3182 C2068 1.709 . S
C3177 C442 1.836 . S
C3187 C362 1.594 . S
C3192 C2034 1.557 . S
C3197 C1495 1.421 . S
C3202 C2154 1.364 . S
C3212 C2164 1.525 . S
C3207 C1402 1.575 . S
C3222 C2178 2.012 . S
C3217 C1695 2.022 . S
C3227 C1135 1.493 . S
C3232 C2190 1.530 . S
C3242 C2200 1.774 . S
C3237 C1722 1.752 . S
C3252 C2212 1.495 . S
C3247 C1655 1.523 . S
C3257 C1175 1.984 . S
C3262 C2226 1.956 . S
C3267 C1562 1.567 . S
C3272 C2236 1.550 . S
C3277 C1095 1.437 . S
C3282 C2248 1.436 . S
C3292 C2262 1.727 . S
C3287 C1615 1.689 . S
C3302 C2274 1.746 . S
C3297 C1602 1.738 . S
C3307 C1162 1.887 . S
C3312 C2284 1.925 . S
C3322 C2298 1.755 . S
C3317 C1575 1.818 . S
C3327 C1082 1.546 . S
C3332 C2308 1.529 . S
C3342 C2320 1.627 . S
C3337 C1122 1.661 . S
C3347 C1735 1.958 . S
C3352 C2334 1.914 . S
C3362 C2346 1.411 . S
C3357 C1642 1.411 . S
C3367 C1682 1.920 . S
C3372 C2356 1.958 . S
C3377 C1042 1.640 . S
C3382 C2310 1.651 . S
C3387 C1775 1.681 . S
C3392 C2368 1.732 . S
C3397 C1815 1.505 . S
C3402 C2380 1.545 . S
C3412 C2394 1.774 . S
C3407 C1842 1.726 . S
C3417 C1055 1.635 . S
C3422 C2322 1.539 . S
C3427 C975 1.671 . S
C3432 C2286 1.641 . S
C3442 C2404 1.850 . S
C3437 C1855 1.800 . S
C3447 C1762 1.858 . S
C3452 C2416 1.848 . S
C3462 C1986 1.608 . S
C3457 C215 1.569 . S
C3472 C1998 1.415 . S
C3467 C255 1.425 . S
C3482 C2008 1.803 . S
C3477 C282 1.900 . S
C3492 C1974 1.587 . S
C3487 C175 1.551 . S
C3502 C1962 1.447 . S
C3497 C135 1.459 . S
C3507 C15 1.464 . S
C3512 C1924 1.495 . S
C3517 C55 1.674 . S
C3522 C1936 1.721 . S
C3527 C82 1.590 . S
C3532 C1950 1.701 . S
C3537 C95 1.839 . S
C3542 C2166 1.835 . S
C3547 C122 1.437 . S
C3552 C2428 1.439 . S
C3557 C2 1.769 . S
C3562 C2152 1.675 . S
C3567 C42 1.906 . S
C3572 C2440 1.832 . S
C3577 C242 1.355 . S
C3582 C2454 1.315 . S
C3592 C2116 1.654 . S
C3587 C295 1.586 . S
C3597 C162 1.787 . S
C3602 C2128 1.706 . S
C3607 C202 1.748 . S
C3612 C2142 1.706 . S
C3622 C2442 1.687 . S
C3617 C1535 1.636 . S
C3627 C335 1.627 . S
C3632 C2082 1.642 . S
C3637 C375 1.645 . S
C3642 C2094 1.635 . S
C3647 C402 1.503 . S
C3652 C2104 1.512 . S
C3662 C2452 1.767 . S
C3657 C1522 1.844 . S
C3672 C2430 1.614 . S
C3667 C1442 1.659 . S
C3682 C2046 1.467 . S
C3677 C415 1.500 . S
C3687 C322 1.576 . S
C3692 C2020 1.499 . S
C3697 C815 2.074 . S
C3702 C2238 2.023 . S
C3707 C855 1.613 . S
C3712 C2250 1.686 . S
C3717 C882 1.862 . S
C3722 C2260 1.904 . S
C3727 C775 1.559 . S
C3732 C2224 1.545 . S
C3742 C2214 1.909 . S
C3737 C735 1.960 . S
C3752 C2176 1.581 . S
C3747 C602 1.570 . S
C3762 C2188 1.448 . S
C3757 C655 1.458 . S
C3767 C695 1.688 . S
C3772 C2202 1.736 . S
C3782 C2418 1.716 . S
C3777 C682 1.699 . S
C3787 C722 1.797 . S
C3792 C2464 1.840 . S
C3797 C615 1.879 . S
C3802 C2406 1.819 . S
C3812 C2476 1.482 . S
C3807 C642 1.503 . S
C3817 C842 1.754 . S
C3822 C2488 1.758 . S
C3832 C2370 2.045 . S
C3827 C895 2.076 . S
C3837 C762 1.373 . S
C3842 C2382 1.379 . S
C3847 C802 1.904 . S
C3852 C2392 1.947 . S
C3857 C1895 1.651 . S
C3862 C2478 1.594 . S
C3872 C2332 1.824 . S
C3867 C935 1.785 . S
C3877 C962 1.587 . S
C3882 C2344 1.585 . S
C3887 C1002 1.739 . S
C3892 C2358 1.801 . S
C3897 C1882 1.574 . S
C3902 C2490 1.572 . S
C3907 C1802 1.527 . S
C3912 C2466 1.557 . S
C3922 C2296 1.798 . S
C3917 C1015 1.742 . S
C3932 C2272 1.918 . S
C3927 C922 1.935 . S
