# Generated by pormake.
# Topology cml, (3,6)-cn, num edge types: 1
# Building blocks:
#     Node 0, Type 0, BuildingBlock: KAKCAD_clean_linker_0, # of connection points: 3
#     Node 1, Type 0, BuildingBlock: KAKCAD_clean_linker_0, # of connection points: 3
#     Node 2, Type 0, BuildingBlock: KAKCAD_clean_linker_0, # of connection points: 3
#     Node 3, Type 0, BuildingBlock: KAKCAD_clean_linker_0, # of connection points: 3
#     Node 4, Type 0, BuildingBlock: KAKCAD_clean_linker_0, # of connection points: 3
#     Node 5, Type 0, BuildingBlock: KAKCAD_clean_linker_0, # of connection points: 3
#     Node 6, Type 0, BuildingBlock: KAKCAD_clean_linker_0, # of connection points: 3
#     Node 7, Type 0, BuildingBlock: KAKCAD_clean_linker_0, # of connection points: 3
#     Node 8, Type 1, BuildingBlock: OJICUG_clean_sbu_0, # of connection points: 6
#     Node 9, Type 1, BuildingBlock: OJICUG_clean_sbu_0, # of connection points: 6
#     Node 10, Type 1, BuildingBlock: OJICUG_clean_sbu_0, # of connection points: 6
#     Node 11, Type 1, BuildingBlock: OJICUG_clean_sbu_0, # of connection points: 6
#     Edge 12, Type (0, 1), BuildingBlock: MIFKUJ_clean_linker_0, # of connection points: 2
#     Edge 13, Type (0, 1), BuildingBlock: MIFKUJ_clean_linker_0, # of connection points: 2
#     Edge 14, Type (0, 1), BuildingBlock: MIFKUJ_clean_linker_0, # of connection points: 2
#     Edge 15, Type (0, 1), BuildingBlock: MIFKUJ_clean_linker_0, # of connection points: 2
#     Edge 16, Type (0, 1), BuildingBlock: MIFKUJ_clean_linker_0, # of connection points: 2
#     Edge 17, Type (0, 1), BuildingBlock: MIFKUJ_clean_linker_0, # of connection points: 2
#     Edge 18, Type (0, 1), BuildingBlock: MIFKUJ_clean_linker_0, # of connection points: 2
#     Edge 19, Type (0, 1), BuildingBlock: MIFKUJ_clean_linker_0, # of connection points: 2
#     Edge 20, Type (0, 1), BuildingBlock: MIFKUJ_clean_linker_0, # of connection points: 2
#     Edge 21, Type (0, 1), BuildingBlock: MIFKUJ_clean_linker_0, # of connection points: 2
#     Edge 22, Type (0, 1), BuildingBlock: MIFKUJ_clean_linker_0, # of connection points: 2
#     Edge 23, Type (0, 1), BuildingBlock: MIFKUJ_clean_linker_0, # of connection points: 2
#     Edge 24, Type (0, 1), BuildingBlock: MIFKUJ_clean_linker_0, # of connection points: 2
#     Edge 25, Type (0, 1), BuildingBlock: MIFKUJ_clean_linker_0, # of connection points: 2
#     Edge 26, Type (0, 1), BuildingBlock: MIFKUJ_clean_linker_0, # of connection points: 2
#     Edge 27, Type (0, 1), BuildingBlock: MIFKUJ_clean_linker_0, # of connection points: 2
#     Edge 28, Type (0, 1), BuildingBlock: MIFKUJ_clean_linker_0, # of connection points: 2
#     Edge 29, Type (0, 1), BuildingBlock: MIFKUJ_clean_linker_0, # of connection points: 2
#     Edge 30, Type (0, 1), BuildingBlock: MIFKUJ_clean_linker_0, # of connection points: 2
#     Edge 31, Type (0, 1), BuildingBlock: MIFKUJ_clean_linker_0, # of connection points: 2
#     Edge 32, Type (0, 1), BuildingBlock: MIFKUJ_clean_linker_0, # of connection points: 2
#     Edge 33, Type (0, 1), BuildingBlock: MIFKUJ_clean_linker_0, # of connection points: 2
#     Edge 34, Type (0, 1), BuildingBlock: MIFKUJ_clean_linker_0, # of connection points: 2
#     Edge 35, Type (0, 1), BuildingBlock: MIFKUJ_clean_linker_0, # of connection points: 2
# Relax obj value: 0.072
# Max RMSD: 0.084
# Mean RMSD: 0.080
data_MOF--net-cml--node1-OJICUG_clean_sbu_0--node2-KAKCAD_clean_linker_0--edge1-MIFKUJ_clean_linker_0
_symmetry_space_group_name_H-M    P1
_symmetry_Int_Tables_number       1
_symmetry_cell_setting            triclinic
loop_
_symmetry_equiv_pos_as_xyz
'x, y, z'
_cell_length_a     58.814306
_cell_length_b     59.295047
_cell_length_c     56.047219
_cell_angle_alpha  89.968941
_cell_angle_beta   90.017278
_cell_angle_gamma 90.034631
loop_
_atom_site_label
_atom_site_type_symbol
_atom_site_fract_x
_atom_site_fract_y
_atom_site_fract_z
_atom_type_partial_charge
C0 C 0.28637 0.47478 0.95932 0.0
C1 C 0.30962 0.47297 0.95395 0.0
C2 C 0.27551 0.45797 0.97264 0.0
C3 C 0.28786 0.43935 0.98116 0.0
C4 C 0.31118 0.43778 0.97607 0.0
C5 C 0.32192 0.45435 0.9625 0.0
C6 C 0.2765 0.42108 0.99463 0.0
C7 C 0.25681 0.41087 0.98553 0.0
C8 C 0.24752 0.39182 0.99674 0.0
C9 C 0.25746 0.38356 0.01777 0.0
C10 C 0.27692 0.39387 0.02728 0.0
C11 C 0.2864 0.41256 0.01556 0.0
C12 C 0.28804 0.38444 0.04876 0.0
C13 C 0.27533 0.37962 0.06937 0.0
C14 C 0.31153 0.38026 0.04873 0.0
C15 C 0.32218 0.37158 0.06899 0.0
C16 C 0.30959 0.36714 0.08975 0.0
C17 C 0.22898 0.37917 0.98508 0.0
C18 C 0.20886 0.39005 0.97806 0.0
C19 C 0.23193 0.35621 0.97986 0.0
C20 C 0.21521 0.34438 0.96744 0.0
C21 C 0.1951 0.35521 0.9604 0.0
C22 C 0.19189 0.37806 0.96602 0.0
C23 C 0.28607 0.37122 0.08979 0.0
H24 H 0.27654 0.48899 0.95287 0.0
H25 H 0.25751 0.45954 0.97638 0.0
H26 H 0.32103 0.42347 0.98221 0.0
H27 H 0.33992 0.45269 0.95879 0.0
H28 H 0.24957 0.41683 0.96888 0.0
H29 H 0.30158 0.42046 0.0227 0.0
H30 H 0.25046 0.36868 0.02629 0.0
H31 H 0.2572 0.38277 0.06982 0.0
H32 H 0.32166 0.38364 0.03298 0.0
H33 H 0.34039 0.36883 0.06859 0.0
H34 H 0.20631 0.40778 0.98188 0.0
H35 H 0.24743 0.34756 0.98489 0.0
H36 H 0.276 0.3679 0.10559 0.0
H37 H 0.17648 0.38671 0.96069 0.0
H38 H 0.21793 0.32671 0.96341 0.0
C39 C 0.71642 0.51923 0.46664 0.0
C40 C 0.69324 0.52194 0.46134 0.0
C41 C 0.72808 0.53583 0.47953 0.0
C42 C 0.71655 0.55507 0.48773 0.0
C43 C 0.69334 0.55762 0.48257 0.0
C44 C 0.68183 0.54129 0.46938 0.0
C45 C 0.72856 0.57274 0.50143 0.0
C46 C 0.74825 0.58287 0.49221 0.0
C47 C 0.75833 0.60128 0.50397 0.0
C48 C 0.74898 0.60887 0.52562 0.0
C49 C 0.72929 0.59887 0.53501 0.0
C50 C 0.71923 0.58078 0.52281 0.0
C51 C 0.7183 0.60828 0.55662 0.0
C52 C 0.73116 0.61371 0.57696 0.0
C53 C 0.69474 0.61214 0.55683 0.0
C54 C 0.68421 0.62111 0.57699 0.0
C55 C 0.69698 0.62636 0.59743 0.0
C56 C 0.77714 0.61394 0.49245 0.0
C57 C 0.7949 0.60264 0.48069 0.0
C58 C 0.77671 0.63764 0.49208 0.0
C59 C 0.79348 0.64975 0.48006 0.0
C60 C 0.81112 0.6385 0.46807 0.0
C61 C 0.81173 0.6148 0.46861 0.0
C62 C 0.72057 0.62254 0.59726 0.0
H63 H 0.72554 0.50444 0.46058 0.0
H64 H 0.74599 0.53354 0.48334 0.0
H65 H 0.68415 0.57241 0.48853 0.0
H66 H 0.6639 0.54364 0.4657 0.0
H67 H 0.75483 0.5773 0.47514 0.0
H68 H 0.70397 0.57298 0.52989 0.0
H69 H 0.75655 0.62314 0.53474 0.0
H70 H 0.74935 0.61084 0.57728 0.0
H71 H 0.68444 0.60838 0.5413 0.0
H72 H 0.66597 0.62358 0.5767 0.0
H73 H 0.79576 0.58439 0.4808 0.0
H74 H 0.76298 0.64686 0.50047 0.0
H75 H 0.73082 0.6265 0.61276 0.0
H76 H 0.82524 0.60567 0.45974 0.0
H77 H 0.79223 0.66797 0.47958 0.0
C78 C 0.70685 0.4691 0.95217 0.0
C79 C 0.69651 0.48671 0.96498 0.0
C80 C 0.71857 0.452 0.96406 0.0
C81 C 0.72055 0.45222 0.98907 0.0
C82 C 0.71085 0.47022 0.00183 0.0
C83 C 0.69888 0.48719 0.98995 0.0
C84 C 0.73189 0.43326 0.00177 0.0
C85 C 0.75091 0.42257 0.99175 0.0
C86 C 0.76052 0.40343 0.0025 0.0
C87 C 0.75158 0.39557 0.02423 0.0
C88 C 0.73273 0.40621 0.03477 0.0
C89 C 0.72293 0.42492 0.02327 0.0
C90 C 0.72235 0.3972 0.05704 0.0
C91 C 0.72012 0.37383 0.06069 0.0
C92 C 0.71355 0.41199 0.07433 0.0
C93 C 0.70206 0.40367 0.09427 0.0
C94 C 0.69927 0.38032 0.09762 0.0
C95 C 0.77887 0.39087 0.99012 0.0
C96 C 0.77742 0.38704 0.96542 0.0
C97 C 0.79749 0.38208 0.00279 0.0
C98 C 0.81422 0.36959 0.99098 0.0
C99 C 0.81263 0.36564 0.96629 0.0
C100 C 0.79411 0.3746 0.95365 0.0
C101 C 0.70881 0.3655 0.08078 0.0
H102 H 0.70571 0.46836 0.9329 0.0
H103 H 0.72554 0.4383 0.95362 0.0
H104 H 0.71232 0.47111 0.02107 0.0
H105 H 0.69095 0.50033 0.00045 0.0
H106 H 0.75822 0.42906 0.97539 0.0
H107 H 0.70764 0.43241 0.03055 0.0
H108 H 0.75897 0.38084 0.03262 0.0
H109 H 0.72649 0.36193 0.04767 0.0
H110 H 0.71525 0.43007 0.07229 0.0
H111 H 0.69475 0.41565 0.10665 0.0
H112 H 0.76306 0.39319 0.95522 0.0
H113 H 0.79917 0.38493 0.02179 0.0
H114 H 0.70731 0.34741 0.08295 0.0
H115 H 0.79214 0.37149 0.93472 0.0
H116 H 0.82843 0.36308 0.00116 0.0
C117 C 0.27987 0.62326 0.597 0.0
C118 C 0.30325 0.62 0.6009 0.0
C119 C 0.26972 0.61576 0.57581 0.0
C120 C 0.28284 0.60501 0.55817 0.0
C121 C 0.30634 0.60251 0.56189 0.0
C122 C 0.31638 0.60982 0.583 0.0
C123 C 0.27237 0.59617 0.53593 0.0
C124 C 0.25628 0.60883 0.52317 0.0
C125 C 0.24783 0.60111 0.50112 0.0
C126 C 0.25588 0.58052 0.49189 0.0
C127 C 0.27222 0.56784 0.50427 0.0
C128 C 0.27973 0.57547 0.5266 0.0
C129 C 0.28299 0.54774 0.49311 0.0
C130 C 0.27037 0.53257 0.47903 0.0
C131 C 0.3065 0.54421 0.49573 0.0
C132 C 0.31713 0.52603 0.48468 0.0
C133 C 0.30461 0.51104 0.47045 0.0
C134 C 0.23144 0.61501 0.48718 0.0
C135 C 0.21429 0.62737 0.49875 0.0
C136 C 0.23291 0.61614 0.46215 0.0
C137 C 0.21745 0.62899 0.44903 0.0
C138 C 0.20034 0.64142 0.46059 0.0
C139 C 0.19905 0.64052 0.48565 0.0
C140 C 0.28113 0.51444 0.46767 0.0
H141 H 0.26939 0.63109 0.61055 0.0
H142 H 0.25157 0.61791 0.57346 0.0
H143 H 0.31706 0.59492 0.54839 0.0
H144 H 0.33454 0.60761 0.58527 0.0
H145 H 0.25113 0.62516 0.52992 0.0
H146 H 0.29175 0.56538 0.53666 0.0
H147 H 0.24987 0.57463 0.47473 0.0
H148 H 0.25221 0.53467 0.47679 0.0
H149 H 0.31693 0.55585 0.50583 0.0
H150 H 0.33534 0.5241 0.48671 0.0
H151 H 0.2125 0.62676 0.51797 0.0
H152 H 0.24614 0.60725 0.45259 0.0
H153 H 0.2711 0.50305 0.45682 0.0
H154 H 0.18637 0.65014 0.49525 0.0
H155 H 0.21884 0.62897 0.42977 0.0
C156 C 0.78157 0.97758 0.96766 0.0
C157 C 0.80521 0.98037 0.96944 0.0
C158 C 0.77069 0.9601 0.97995 0.0
C159 C 0.7833 0.94491 0.99399 0.0
C160 C 0.80702 0.94769 0.9955 0.0
C161 C 0.8178 0.9653 0.9835 0.0
C162 C 0.77196 0.92598 0.00675 0.0
C163 C 0.75409 0.91399 0.99595 0.0
C164 C 0.74401 0.8954 0.00743 0.0
C165 C 0.752 0.88891 0.03007 0.0
C166 C 0.77021 0.90032 0.04077 0.0
C167 C 0.77979 0.91904 0.02926 0.0
C168 C 0.78066 0.89153 0.06291 0.0
C169 C 0.76742 0.88659 0.08311 0.0
C170 C 0.80419 0.88762 0.06362 0.0
C171 C 0.81434 0.87892 0.08411 0.0
C172 C 0.80121 0.87418 0.10442 0.0
C173 C 0.72634 0.88183 0.99498 0.0
C174 C 0.70983 0.89229 0.98059 0.0
C175 C 0.72644 0.85818 0.99666 0.0
C176 C 0.71058 0.8453 0.98413 0.0
C177 C 0.69439 0.85571 0.9693 0.0
C178 C 0.69411 0.87938 0.96781 0.0
C179 C 0.77767 0.87819 0.10384 0.0
H180 H 0.77148 0.98909 0.957 0.0
H181 H 0.75238 0.95863 0.9786 0.0
H182 H 0.81739 0.93602 0.00562 0.0
H183 H 0.83612 0.96685 0.98483 0.0
H184 H 0.74876 0.91848 0.97806 0.0
H185 H 0.79354 0.92808 0.03789 0.0
H186 H 0.74462 0.87448 0.03908 0.0
H187 H 0.74923 0.88949 0.08293 0.0
H188 H 0.81472 0.89108 0.04819 0.0
H189 H 0.83256 0.87625 0.08422 0.0
H190 H 0.7091 0.91049 0.97909 0.0
H191 H 0.73909 0.84948 0.00726 0.0
H192 H 0.76724 0.87468 0.11932 0.0
H193 H 0.68202 0.88798 0.95643 0.0
H194 H 0.71106 0.82714 0.98608 0.0
C195 C 0.21533 0.02519 0.46373 0.0
C196 C 0.19145 0.02448 0.46488 0.0
C197 C 0.22751 0.04141 0.47664 0.0
C198 C 0.21603 0.05714 0.49103 0.0
C199 C 0.19217 0.05638 0.4921 0.0
C200 C 0.18006 0.04022 0.47928 0.0
C201 C 0.22864 0.07455 0.50475 0.0
C202 C 0.24662 0.08655 0.49431 0.0
C203 C 0.25757 0.10416 0.50668 0.0
C204 C 0.24982 0.10993 0.52971 0.0
C205 C 0.23144 0.09842 0.54018 0.0
C206 C 0.22161 0.08024 0.52786 0.0
C207 C 0.22124 0.10613 0.5631 0.0
C208 C 0.23471 0.11439 0.58199 0.0
C209 C 0.19748 0.10543 0.56606 0.0
C210 C 0.18752 0.11197 0.58747 0.0
C211 C 0.20095 0.11985 0.60633 0.0
C212 C 0.27609 0.11728 0.49484 0.0
C213 C 0.29102 0.10675 0.4787 0.0
C214 C 0.27846 0.14059 0.49879 0.0
C215 C 0.29501 0.15304 0.48669 0.0
C216 C 0.30931 0.14269 0.4698 0.0
C217 C 0.30718 0.1193 0.46615 0.0
C218 C 0.2246 0.12136 0.60341 0.0
H219 H 0.22459 0.01338 0.45267 0.0
H220 H 0.24589 0.04151 0.47554 0.0
H221 H 0.18276 0.06846 0.5027 0.0
H222 H 0.16171 0.03996 0.48087 0.0
H223 H 0.25135 0.08279 0.47607 0.0
H224 H 0.20809 0.07062 0.53616 0.0
H225 H 0.25768 0.12373 0.53927 0.0
H226 H 0.25304 0.11511 0.58039 0.0
H227 H 0.18643 0.09994 0.55173 0.0
H228 H 0.16919 0.11104 0.58927 0.0
H229 H 0.29012 0.08877 0.47549 0.0
H230 H 0.26718 0.14949 0.51078 0.0
H231 H 0.23521 0.12746 0.61784 0.0
H232 H 0.3176 0.11063 0.45316 0.0
H233 H 0.29639 0.17087 0.49053 0.0
C234 C 0.20273 0.96506 0.95429 0.0
C235 C 0.19403 0.98358 0.967 0.0
C236 C 0.21479 0.9481 0.96603 0.0
C237 C 0.21871 0.94934 0.99074 0.0
C238 C 0.21053 0.96815 0.00336 0.0
C239 C 0.19827 0.98503 0.99165 0.0
C240 C 0.23062 0.93071 0.00337 0.0
C241 C 0.24877 0.91935 0.99245 0.0
C242 C 0.25913 0.90089 0.00363 0.0
C243 C 0.2517 0.89403 0.02628 0.0
C244 C 0.23334 0.90494 0.03742 0.0
C245 C 0.22298 0.92332 0.02582 0.0
C246 C 0.22365 0.89613 0.06011 0.0
C247 C 0.22159 0.87277 0.06393 0.0
C248 C 0.21498 0.91097 0.07741 0.0
C249 C 0.20363 0.90269 0.09748 0.0
C250 C 0.20085 0.87934 0.10088 0.0
C251 C 0.27625 0.88749 0.99063 0.0
C252 C 0.27087 0.87863 0.9681 0.0
C253 C 0.29758 0.88288 0.00077 0.0
C254 C 0.31334 0.86961 0.98845 0.0
C255 C 0.30772 0.86039 0.96614 0.0
C256 C 0.2864 0.86501 0.95605 0.0
C257 C 0.21043 0.86448 0.08412 0.0
H258 H 0.20011 0.96356 0.93523 0.0
H259 H 0.22056 0.93375 0.95575 0.0
H260 H 0.21348 0.96979 0.02236 0.0
H261 H 0.19164 0.99893 0.00206 0.0
H262 H 0.25483 0.92471 0.97509 0.0
H263 H 0.20816 0.93117 0.03372 0.0
H264 H 0.25974 0.87968 0.03478 0.0
H265 H 0.22784 0.86081 0.0509 0.0
H266 H 0.21656 0.92905 0.07523 0.0
H267 H 0.19631 0.91468 0.10984 0.0
H268 H 0.25443 0.88183 0.96006 0.0
H269 H 0.30202 0.88958 0.01813 0.0
H270 H 0.20897 0.8464 0.08635 0.0
H271 H 0.28179 0.85809 0.93883 0.0
H272 H 0.3297 0.86613 0.99654 0.0
C273 C 0.77973 0.12099 0.59459 0.0
C274 C 0.80318 0.11775 0.59807 0.0
C275 C 0.76922 0.11341 0.57364 0.0
C276 C 0.78201 0.10259 0.5558 0.0
C277 C 0.80556 0.10002 0.55911 0.0
C278 C 0.81598 0.10742 0.58 0.0
C279 C 0.77119 0.09391 0.53366 0.0
C280 C 0.75485 0.10665 0.52137 0.0
C281 C 0.74621 0.09922 0.49931 0.0
C282 C 0.75434 0.07893 0.4895 0.0
C283 C 0.7707 0.06596 0.50156 0.0
C284 C 0.77839 0.0733 0.52398 0.0
C285 C 0.781 0.04567 0.49022 0.0
C286 C 0.76817 0.03125 0.47544 0.0
C287 C 0.80425 0.041 0.49359 0.0
C288 C 0.81431 0.02238 0.48279 0.0
C289 C 0.80155 0.0082 0.46794 0.0
C290 C 0.72941 0.11314 0.48607 0.0
C291 C 0.71159 0.12397 0.4982 0.0
C292 C 0.73118 0.11586 0.46121 0.0
C293 C 0.71549 0.12906 0.44878 0.0
C294 C 0.69774 0.13999 0.46093 0.0
C295 C 0.69597 0.13728 0.48579 0.0
C296 C 0.77844 0.01279 0.46418 0.0
H297 H 0.76948 0.12887 0.6083 0.0
H298 H 0.75104 0.1156 0.57162 0.0
H299 H 0.81605 0.09237 0.54546 0.0
H300 H 0.83416 0.10517 0.58196 0.0
H301 H 0.74959 0.12283 0.52845 0.0
H302 H 0.79036 0.06305 0.53389 0.0
H303 H 0.74822 0.07348 0.47222 0.0
H304 H 0.7502 0.03413 0.47261 0.0
H305 H 0.81494 0.05201 0.50417 0.0
H306 H 0.8323 0.01937 0.48555 0.0
H307 H 0.70964 0.12207 0.51731 0.0
H308 H 0.74489 0.10803 0.45133 0.0
H309 H 0.76833 0.00202 0.45272 0.0
H310 H 0.68269 0.1457 0.49576 0.0
H311 H 0.71723 0.13059 0.42962 0.0
Sc312 Sc 0.00188 0.80082 0.31006 0.0
Sc313 Sc 0.0021 0.86008 0.31607 0.0
Sc314 Sc 0.00265 0.82592 0.36725 0.0
O315 O 0.00225 0.8289 0.33112 0.0
C316 C 0.96835 0.7868 0.35262 0.0
C317 C 0.96687 0.83312 0.28331 0.0
C318 C 0.96884 0.86751 0.36011 0.0
C319 C 0.03547 0.83334 0.28132 0.0
C320 C 0.03587 0.78599 0.3513 0.0
C321 C 0.03726 0.86655 0.35905 0.0
O322 O 0.97657 0.78412 0.3318 0.0
O323 O 0.97546 0.85116 0.29161 0.0
O324 O 0.97737 0.85165 0.37244 0.0
O325 O 0.02717 0.81401 0.28588 0.0
O326 O 0.02754 0.79946 0.3666 0.0
O327 O 0.02858 0.87236 0.33919 0.0
O328 O 0.02915 0.78507 0.32976 0.0
O329 O 0.02836 0.85133 0.2911 0.0
O330 O 0.02995 0.84992 0.37118 0.0
O331 O 0.9745 0.8136 0.28823 0.0
O332 O 0.97558 0.8017 0.36704 0.0
O333 O 0.97579 0.87238 0.33929 0.0
Sc334 Sc 0.99747 0.19655 0.80918 0.0
Sc335 Sc 0.99704 0.13724 0.81423 0.0
Sc336 Sc 0.99593 0.17071 0.86576 0.0
O337 O 0.99682 0.1682 0.82969 0.0
C338 C 0.02945 0.21116 0.85179 0.0
C339 C 0.03202 0.16398 0.78148 0.0
C340 C 0.03075 0.13057 0.8586 0.0
C341 C 0.96362 0.16502 0.78001 0.0
C342 C 0.96231 0.20982 0.85072 0.0
C343 C 0.96254 0.12895 0.85669 0.0
O344 O 0.0245 0.2116 0.82972 0.0
O345 O 0.0247 0.14601 0.79115 0.0
O346 O 0.02395 0.14785 0.86993 0.0
O347 O 0.97031 0.18445 0.78662 0.0
O348 O 0.96816 0.19397 0.86468 0.0
O349 O 0.96916 0.12522 0.83551 0.0
O350 O 0.97197 0.21339 0.83072 0.0
O351 O 0.97239 0.14685 0.78777 0.0
O352 O 0.9715 0.1439 0.86993 0.0
O353 O 0.02336 0.18328 0.78554 0.0
O354 O 0.01983 0.19807 0.86661 0.0
O355 O 0.02182 0.12408 0.83908 0.0
Sc356 Sc 0.50219 0.30072 0.30823 0.0
Sc357 Sc 0.4997 0.36018 0.31214 0.0
Sc358 Sc 0.50058 0.32765 0.36438 0.0
O359 O 0.50084 0.32948 0.32822 0.0
C360 C 0.46809 0.28693 0.35027 0.0
C361 C 0.46685 0.33068 0.27905 0.0
C362 C 0.46536 0.36775 0.35511 0.0
C363 C 0.53515 0.33385 0.27935 0.0
C364 C 0.53578 0.28856 0.35077 0.0
C365 C 0.53357 0.36935 0.35576 0.0
O366 O 0.47724 0.28361 0.33 0.0
O367 O 0.47449 0.34928 0.28695 0.0
O368 O 0.47461 0.35288 0.36822 0.0
O369 O 0.52742 0.31434 0.28424 0.0
O370 O 0.52643 0.30217 0.36524 0.0
O371 O 0.52466 0.37457 0.33583 0.0
O372 O 0.52952 0.28658 0.32915 0.0
O373 O 0.5272 0.35182 0.28844 0.0
O374 O 0.52717 0.35239 0.36793 0.0
O375 O 0.47491 0.31162 0.28513 0.0
O376 O 0.47405 0.30274 0.36425 0.0
O377 O 0.47204 0.37193 0.33402 0.0
Sc378 Sc 0.5003 0.70031 0.80833 0.0
Sc379 Sc 0.50098 0.64084 0.81108 0.0
Sc380 Sc 0.49605 0.67233 0.86369 0.0
O381 O 0.49912 0.67119 0.8277 0.0
C382 C 0.53134 0.71237 0.85276 0.0
C383 C 0.53657 0.6693 0.78119 0.0
C384 C 0.53148 0.63232 0.85735 0.0
C385 C 0.46814 0.6694 0.77677 0.0
C386 C 0.46369 0.71247 0.84852 0.0
C387 C 0.46343 0.63101 0.85047 0.0
O388 O 0.52654 0.71433 0.83071 0.0
O389 O 0.52986 0.65095 0.79046 0.0
O390 O 0.52321 0.64864 0.86916 0.0
O391 O 0.47384 0.68871 0.78468 0.0
O392 O 0.4687 0.69609 0.8621 0.0
O393 O 0.4724 0.62738 0.83022 0.0
O394 O 0.47435 0.71682 0.82933 0.0
O395 O 0.47746 0.65118 0.78373 0.0
O396 O 0.47059 0.64614 0.86467 0.0
O397 O 0.52671 0.68809 0.78472 0.0
O398 O 0.52107 0.69873 0.86661 0.0
O399 O 0.52459 0.62706 0.83659 0.0
H400 H 0.20058 0.33161 0.91926 0.0
H401 H 0.17206 0.30862 0.89847 0.0
H402 H 0.12212 0.32665 0.95146 0.0
H403 H 0.15048 0.3501 0.97202 0.0
H404 H 0.13 0.27727 0.94093 0.0
H405 H 0.11421 0.34939 0.90342 0.0
H406 H 0.12489 0.38372 0.88123 0.0
H407 H 0.14823 0.34322 0.82267 0.0
H408 H 0.138 0.30862 0.84468 0.0
H409 H 0.03052 0.23008 0.89573 0.0
H410 H 0.05889 0.25579 0.91191 0.0
H411 H 0.09591 0.2533 0.84545 0.0
H412 H 0.06673 0.22826 0.8287 0.0
H413 H 0.09669 0.29424 0.86155 0.0
H414 H 0.113 0.22277 0.89581 0.0
H415 H 0.10506 0.18694 0.91656 0.0
H416 H 0.08516 0.22333 0.97938 0.0
H417 H 0.09265 0.25941 0.95889 0.0
C418 C 0.18344 0.33078 0.92629 0.0
C419 C 0.1776 0.34252 0.94717 0.0
C420 C 0.16723 0.31775 0.91442 0.0
C421 C 0.1451 0.31604 0.9235 0.0
C422 C 0.13917 0.32788 0.94424 0.0
C423 C 0.15526 0.34127 0.95586 0.0
C424 C 0.12844 0.30101 0.91195 0.0
C425 C 0.12243 0.28105 0.92373 0.0
C426 C 0.11951 0.30562 0.88907 0.0
C427 C 0.12558 0.32642 0.87581 0.0
C428 C 0.12183 0.3478 0.88591 0.0
C429 C 0.12775 0.36731 0.87334 0.0
C430 C 0.13729 0.36565 0.85058 0.0
C431 C 0.14087 0.34448 0.84032 0.0
C432 C 0.135 0.32492 0.85282 0.0
C433 C 0.04473 0.23498 0.88456 0.0
C434 C 0.04662 0.22699 0.86107 0.0
C435 C 0.06098 0.24962 0.89385 0.0
C436 C 0.07987 0.25602 0.88012 0.0
C437 C 0.08155 0.24847 0.85642 0.0
C438 C 0.06495 0.23416 0.84689 0.0
C439 C 0.09777 0.27051 0.89072 0.0
C440 C 0.1042 0.29032 0.87874 0.0
C441 C 0.10755 0.26549 0.91322 0.0
C442 C 0.10322 0.24381 0.92573 0.0
C443 C 0.1068 0.22314 0.914 0.0
C444 C 0.10239 0.20279 0.92573 0.0
C445 C 0.09457 0.20286 0.94926 0.0
C446 C 0.0912 0.2233 0.96115 0.0
C447 C 0.09555 0.24371 0.94949 0.0
H448 H 0.09116 0.18709 0.9583 0.0
H449 H 0.14186 0.38077 0.84088 0.0
H450 H 0.83233 0.67739 0.48169 0.0
H451 H 0.85783 0.70093 0.458 0.0
H452 H 0.85456 0.65295 0.40029 0.0
H453 H 0.82869 0.62935 0.42382 0.0
H454 H 0.89835 0.66923 0.40837 0.0
H455 H 0.82379 0.69889 0.39595 0.0
H456 H 0.78603 0.71293 0.40789 0.0
H457 H 0.81725 0.76751 0.44612 0.0
H458 H 0.85524 0.75359 0.43472 0.0
H459 H 0.95167 0.7489 0.33044 0.0
H460 H 0.9235 0.72229 0.34603 0.0
H461 H 0.91605 0.76304 0.40928 0.0
H462 H 0.94382 0.78977 0.39385 0.0
H463 H 0.87542 0.74848 0.39308 0.0
H464 H 0.94955 0.71662 0.40942 0.0
H465 H 0.9876 0.70253 0.39852 0.0
H466 H 0.9573 0.65224 0.35348 0.0
H467 H 0.91905 0.66626 0.36386 0.0
C468 C 0.83698 0.67185 0.46394 0.0
C469 C 0.82829 0.65163 0.45453 0.0
C470 C 0.85158 0.68529 0.45046 0.0
C471 C 0.85774 0.67884 0.42727 0.0
C472 C 0.84991 0.65823 0.41813 0.0
C473 C 0.83523 0.64474 0.43163 0.0
C474 C 0.87192 0.69403 0.41251 0.0
C475 C 0.89319 0.68643 0.40461 0.0
C476 C 0.86522 0.71653 0.40788 0.0
C477 C 0.84238 0.72509 0.41461 0.0
C478 C 0.82262 0.71379 0.40704 0.0
C479 C 0.80117 0.72174 0.4137 0.0
C480 C 0.79924 0.74108 0.42779 0.0
C481 C 0.81877 0.75253 0.43521 0.0
C482 C 0.84027 0.74463 0.42864 0.0
C483 C 0.94389 0.75231 0.34757 0.0
C484 C 0.95017 0.7714 0.36097 0.0
C485 C 0.92787 0.73703 0.35648 0.0
C486 C 0.91791 0.74058 0.37892 0.0
C487 C 0.92356 0.75998 0.39193 0.0
C488 C 0.93955 0.7752 0.38309 0.0
C489 C 0.9021 0.72387 0.38944 0.0
C490 C 0.88046 0.73118 0.39652 0.0
C491 C 0.9085 0.70115 0.39335 0.0
C492 C 0.93147 0.69266 0.38718 0.0
C493 C 0.95101 0.70268 0.39703 0.0
C494 C 0.97261 0.69468 0.39098 0.0
C495 C 0.97487 0.67654 0.37526 0.0
C496 C 0.95552 0.66632 0.36561 0.0
C497 C 0.93388 0.67428 0.37158 0.0
H498 H 0.9916 0.67037 0.37059 0.0
H499 H 0.78262 0.74721 0.43292 0.0
H500 H 0.83194 0.37309 0.92255 0.0
H501 H 0.85785 0.3483 0.90073 0.0
H502 H 0.85776 0.30163 0.9598 0.0
H503 H 0.83176 0.32623 0.98166 0.0
H504 H 0.90009 0.30758 0.94192 0.0
H505 H 0.82511 0.2921 0.91111 0.0
H506 H 0.78831 0.30189 0.89275 0.0
H507 H 0.82277 0.32673 0.83051 0.0
H508 H 0.85982 0.31737 0.84866 0.0
H509 H 0.93711 0.20684 0.8915 0.0
H510 H 0.91196 0.23523 0.90832 0.0
H511 H 0.9223 0.2775 0.84665 0.0
H512 H 0.94768 0.24905 0.82944 0.0
H513 H 0.87666 0.27655 0.8634 0.0
H514 H 0.95168 0.28942 0.89337 0.0
H515 H 0.98822 0.27857 0.91162 0.0
H516 H 0.95355 0.25822 0.97552 0.0
H517 H 0.91673 0.26859 0.95749 0.0
C518 C 0.83742 0.35753 0.93088 0.0
C519 C 0.8297 0.35154 0.95378 0.0
C520 C 0.85223 0.34341 0.9184 0.0
C521 C 0.85947 0.323 0.92854 0.0
C522 C 0.85237 0.31732 0.95167 0.0
C523 C 0.83759 0.33143 0.96417 0.0
C524 C 0.87405 0.30726 0.9149 0.0
C525 C 0.89489 0.30067 0.92485 0.0
C526 C 0.8675 0.29872 0.89232 0.0
C527 C 0.84524 0.30428 0.88135 0.0
C528 C 0.82485 0.29983 0.89359 0.0
C529 C 0.80394 0.30527 0.88321 0.0
C530 C 0.8032 0.31499 0.86051 0.0
C531 C 0.82337 0.31924 0.84811 0.0
C532 C 0.84433 0.31386 0.85843 0.0
C533 C 0.93393 0.22203 0.88129 0.0
C534 C 0.94471 0.22577 0.85922 0.0
C535 C 0.91955 0.23826 0.891 0.0
C536 C 0.91565 0.25858 0.87891 0.0
C537 C 0.92526 0.26193 0.85628 0.0
C538 C 0.93976 0.24566 0.84651 0.0
C539 C 0.90245 0.27663 0.89066 0.0
C540 C 0.88194 0.28367 0.88036 0.0
C541 C 0.90927 0.28559 0.91294 0.0
C542 C 0.93142 0.27962 0.92399 0.0
C543 C 0.95183 0.28248 0.91125 0.0
C544 C 0.97259 0.27643 0.92156 0.0
C545 C 0.9732 0.26767 0.9447 0.0
C546 C 0.95305 0.26499 0.95759 0.0
C547 C 0.93222 0.27097 0.94734 0.0
H548 H 0.9893 0.26299 0.95265 0.0
H549 H 0.787 0.31918 0.8525 0.0
H550 H 0.15507 0.64862 0.46974 0.0
H551 H 0.12854 0.6719 0.44737 0.0
H552 H 0.18112 0.68746 0.39623 0.0
H553 H 0.20831 0.66567 0.41961 0.0
H554 H 0.15922 0.72349 0.4047 0.0
H555 H 0.13613 0.64932 0.38419 0.0
H556 H 0.12479 0.60972 0.39045 0.0
H557 H 0.06577 0.63136 0.42924 0.0
H558 H 0.07691 0.6711 0.42352 0.0
H559 H 0.07104 0.76792 0.32556 0.0
H560 H 0.10041 0.74176 0.34013 0.0
H561 H 0.069 0.7415 0.40962 0.0
H562 H 0.04016 0.76799 0.39553 0.0
H563 H 0.08148 0.69624 0.38578 0.0
H564 H 0.10969 0.77092 0.40911 0.0
H565 H 0.12134 0.80993 0.39991 0.0
H566 H 0.1716 0.78524 0.3509 0.0
H567 H 0.15997 0.74606 0.35957 0.0
C568 C 0.16116 0.65722 0.45394 0.0
C569 C 0.18392 0.65518 0.44655 0.0
C570 C 0.14581 0.67024 0.44088 0.0
C571 C 0.15266 0.68106 0.41978 0.0
C572 C 0.17536 0.67913 0.41235 0.0
C573 C 0.19084 0.66643 0.42563 0.0
C574 C 0.1363 0.69504 0.40602 0.0
C575 C 0.1424 0.71729 0.40018 0.0
C576 C 0.11427 0.6871 0.40007 0.0
C577 C 0.10746 0.66321 0.40357 0.0
C578 C 0.12082 0.64564 0.3942 0.0
C579 C 0.11441 0.62316 0.39764 0.0
C580 C 0.0946 0.61802 0.41027 0.0
C581 C 0.08112 0.63536 0.41947 0.0
C582 C 0.08746 0.65787 0.41611 0.0
C583 C 0.07045 0.76224 0.34392 0.0
C584 C 0.05346 0.77006 0.35948 0.0
C585 C 0.08717 0.74736 0.35218 0.0
C586 C 0.08672 0.73979 0.37589 0.0
C587 C 0.06952 0.74719 0.39126 0.0
C588 C 0.05318 0.76241 0.38322 0.0
C589 C 0.1044 0.72449 0.38511 0.0
C590 C 0.09849 0.70209 0.39004 0.0
C591 C 0.12669 0.73211 0.38979 0.0
C592 C 0.13376 0.75561 0.38473 0.0
C593 C 0.12305 0.77383 0.39618 0.0
C594 C 0.12969 0.79596 0.39111 0.0
C595 C 0.14715 0.80007 0.37477 0.0
C596 C 0.15805 0.78204 0.36352 0.0
C597 C 0.15145 0.75987 0.36851 0.0
H598 H 0.15227 0.81721 0.37087 0.0
H599 H 0.08967 0.60061 0.41291 0.0
H600 H 0.64946 0.86459 0.95977 0.0
H601 H 0.62266 0.84123 0.93752 0.0
H602 H 0.67511 0.79153 0.92613 0.0
H603 H 0.70236 0.81543 0.94692 0.0
H604 H 0.65131 0.795 0.8877 0.0
H605 H 0.63405 0.78583 0.97063 0.0
H606 H 0.62441 0.79811 0.01143 0.0
H607 H 0.56241 0.82764 0.98573 0.0
H608 H 0.57183 0.81578 0.94471 0.0
H609 H 0.55165 0.708 0.89631 0.0
H610 H 0.58047 0.73226 0.91405 0.0
H611 H 0.58067 0.77378 0.8508 0.0
H612 H 0.55208 0.74924 0.83261 0.0
H613 H 0.57839 0.77424 0.92638 0.0
H614 H 0.63358 0.79747 0.84385 0.0
H615 H 0.647 0.78038 0.80626 0.0
H616 H 0.63782 0.71421 0.8359 0.0
H617 H 0.62463 0.73089 0.87374 0.0
C618 C 0.65542 0.84888 0.95218 0.0
C619 C 0.67806 0.84182 0.95537 0.0
C620 C 0.64 0.83541 0.93969 0.0
C621 C 0.64676 0.81443 0.93051 0.0
C622 C 0.66946 0.8076 0.93313 0.0
C623 C 0.68496 0.82117 0.94534 0.0
C624 C 0.63013 0.79926 0.91875 0.0
C625 C 0.63531 0.79053 0.89611 0.0
C626 C 0.60949 0.793 0.92993 0.0
C627 C 0.60376 0.80013 0.95457 0.0
C628 C 0.61844 0.79509 0.97366 0.0
C629 C 0.613 0.80195 0.99682 0.0
C630 C 0.59284 0.8137 0.00116 0.0
C631 C 0.57804 0.81857 0.98234 0.0
C632 C 0.58341 0.81177 0.95913 0.0
C633 C 0.55785 0.72223 0.88607 0.0
C634 C 0.54948 0.72671 0.86304 0.0
C635 C 0.57433 0.73611 0.89628 0.0
C636 C 0.58277 0.75481 0.88376 0.0
C637 C 0.57462 0.75926 0.86068 0.0
C638 C 0.55822 0.74526 0.85034 0.0
C639 C 0.59953 0.76997 0.8953 0.0
C640 C 0.59431 0.7788 0.91788 0.0
C641 C 0.62046 0.77566 0.8844 0.0
C642 C 0.62788 0.76545 0.86153 0.0
C643 C 0.63441 0.77928 0.84233 0.0
C644 C 0.642 0.76966 0.82099 0.0
C645 C 0.64324 0.74623 0.8187 0.0
C646 C 0.63679 0.73236 0.83769 0.0
C647 C 0.62921 0.74189 0.85906 0.0
H648 H 0.64935 0.73883 0.80228 0.0
H649 H 0.58866 0.81899 0.01911 0.0
H650 H 0.30497 0.18656 0.45446 0.0
H651 H 0.33193 0.20884 0.43179 0.0
H652 H 0.37721 0.15172 0.42773 0.0
H653 H 0.35139 0.12995 0.45268 0.0
H654 H 0.40152 0.18561 0.43393 0.0
H655 H 0.34234 0.17089 0.37888 0.0
H656 H 0.30323 0.16842 0.36325 0.0
H657 H 0.29594 0.24022 0.36954 0.0
H658 H 0.33491 0.2431 0.38554 0.0
H659 H 0.46366 0.24223 0.33959 0.0
H660 H 0.43608 0.21552 0.35646 0.0
H661 H 0.40472 0.26953 0.39598 0.0
H662 H 0.43257 0.2962 0.37979 0.0
H663 H 0.37467 0.23408 0.36743 0.0
H664 H 0.43507 0.24449 0.42797 0.0
H665 H 0.47565 0.24435 0.43916 0.0
H666 H 0.48158 0.17565 0.41576 0.0
H667 H 0.44104 0.17551 0.4042 0.0
C668 C 0.32083 0.17874 0.44927 0.0
C669 C 0.32584 0.1563 0.45558 0.0
C670 C 0.33609 0.19145 0.43576 0.0
C671 C 0.35641 0.18185 0.4274 0.0
C672 C 0.36158 0.15952 0.43374 0.0
C673 C 0.34658 0.14695 0.44782 0.0
C674 C 0.37247 0.19538 0.41269 0.0
C675 C 0.39557 0.19585 0.41915 0.0
C676 C 0.36498 0.20879 0.39323 0.0
C677 C 0.34151 0.20718 0.38359 0.0
C678 C 0.33235 0.18614 0.3771 0.0
C679 C 0.31021 0.18467 0.36815 0.0
C680 C 0.29709 0.20414 0.36545 0.0
C681 C 0.30611 0.22514 0.37166 0.0
C682 C 0.32824 0.22671 0.38064 0.0
C683 C 0.4507 0.24843 0.35164 0.0
C684 C 0.45027 0.27124 0.35849 0.0
C685 C 0.43504 0.23319 0.36124 0.0
C686 C 0.41848 0.24067 0.37738 0.0
C687 C 0.4174 0.26355 0.38347 0.0
C688 C 0.43335 0.27869 0.37432 0.0
C689 C 0.40314 0.22447 0.38919 0.0
C690 C 0.38035 0.22354 0.38209 0.0
C691 C 0.41099 0.21014 0.40752 0.0
C692 C 0.43513 0.21006 0.41505 0.0
C693 C 0.44507 0.22941 0.42509 0.0
C694 C 0.46804 0.22937 0.43153 0.0
C695 C 0.48119 0.21001 0.42814 0.0
C696 C 0.47137 0.19063 0.41839 0.0
C697 C 0.4484 0.19059 0.41192 0.0
H698 H 0.49898 0.21002 0.4331 0.0
H699 H 0.27995 0.20297 0.35852 0.0
H700 H 0.35107 0.8699 0.95228 0.0
H701 H 0.37712 0.84516 0.93004 0.0
H702 H 0.32644 0.79258 0.93009 0.0
H703 H 0.30018 0.81741 0.95169 0.0
H704 H 0.37516 0.78156 0.94598 0.0
H705 H 0.32956 0.815 0.88263 0.0
H706 H 0.31341 0.8473 0.86068 0.0
H707 H 0.38063 0.87217 0.84637 0.0
H708 H 0.39716 0.84018 0.86857 0.0
H709 H 0.42454 0.70141 0.87137 0.0
H710 H 0.39677 0.72717 0.88889 0.0
H711 H 0.43531 0.78402 0.86266 0.0
H712 H 0.46235 0.75817 0.84384 0.0
H713 H 0.39324 0.79426 0.86051 0.0
H714 H 0.44006 0.76338 0.9219 0.0
H715 H 0.45885 0.73355 0.94538 0.0
H716 H 0.39375 0.70708 0.96591 0.0
H717 H 0.37456 0.73659 0.94228 0.0
C718 C 0.34561 0.85304 0.94753 0.0
C719 C 0.32373 0.84545 0.95355 0.0
C720 C 0.36038 0.83902 0.93483 0.0
C721 C 0.35355 0.81718 0.92844 0.0
C722 C 0.33189 0.80943 0.93487 0.0
C723 C 0.31696 0.82358 0.9471 0.0
C724 C 0.36905 0.80225 0.91513 0.0
C725 C 0.37896 0.78409 0.92722 0.0
C726 C 0.37451 0.80622 0.89096 0.0
C727 C 0.36458 0.82535 0.8775 0.0
C728 C 0.34089 0.82748 0.87502 0.0
C729 C 0.33167 0.8457 0.86248 0.0
C730 C 0.34598 0.86182 0.8522 0.0
C731 C 0.36956 0.8597 0.85437 0.0
C732 C 0.37886 0.84152 0.86692 0.0
C733 C 0.42683 0.71941 0.86905 0.0
C734 C 0.44561 0.72788 0.85646 0.0
C735 C 0.41109 0.73413 0.87922 0.0
C736 C 0.41433 0.75757 0.87777 0.0
C737 C 0.43251 0.76602 0.86417 0.0
C738 C 0.44794 0.75127 0.85342 0.0
C739 C 0.39933 0.77316 0.89123 0.0
C740 C 0.38954 0.79157 0.87926 0.0
C741 C 0.39441 0.76975 0.91575 0.0
C742 C 0.40588 0.75208 0.93014 0.0
C743 C 0.42975 0.75112 0.93131 0.0
C744 C 0.44047 0.73427 0.94466 0.0
C745 C 0.4275 0.7184 0.95708 0.0
C746 C 0.40377 0.71937 0.95625 0.0
C747 C 0.39296 0.73617 0.9429 0.0
H748 H 0.43583 0.70536 0.9674 0.0
H749 H 0.33881 0.87591 0.8425 0.0
H750 H 0.70655 0.16915 0.42412 0.0
H751 H 0.67968 0.19344 0.40312 0.0
H752 H 0.62521 0.16872 0.44758 0.0
H753 H 0.65177 0.14353 0.46789 0.0
H754 H 0.61084 0.17267 0.40334 0.0
H755 H 0.65094 0.21951 0.45869 0.0
H756 H 0.68446 0.23646 0.47813 0.0
H757 H 0.70479 0.26608 0.41153 0.0
H758 H 0.67153 0.24904 0.39162 0.0
H759 H 0.55598 0.2905 0.39457 0.0
H760 H 0.58421 0.26494 0.41114 0.0
H761 H 0.58595 0.22803 0.34487 0.0
H762 H 0.5573 0.25345 0.32808 0.0
H763 H 0.62668 0.25481 0.3996 0.0
H764 H 0.59259 0.17169 0.35876 0.0
H765 H 0.55631 0.15575 0.3444 0.0
H766 H 0.51934 0.20031 0.3906 0.0
H767 H 0.55537 0.21625 0.40553 0.0
C768 C 0.68879 0.16858 0.42919 0.0
C769 C 0.68134 0.15445 0.44779 0.0
C770 C 0.67349 0.18266 0.41732 0.0
C771 C 0.6505 0.18312 0.424 0.0
C772 C 0.6429 0.16869 0.44218 0.0
C773 C 0.65815 0.15449 0.45395 0.0
C774 C 0.63448 0.19907 0.41251 0.0
C775 C 0.61436 0.19061 0.40242 0.0
C776 C 0.63885 0.22255 0.41172 0.0
C777 C 0.65889 0.23279 0.42362 0.0
C778 C 0.66266 0.22948 0.44815 0.0
C779 C 0.6816 0.23913 0.45926 0.0
C780 C 0.69678 0.25228 0.44606 0.0
C781 C 0.69303 0.25586 0.42172 0.0
C782 C 0.67414 0.24622 0.41052 0.0
C783 C 0.56237 0.27703 0.3834 0.0
C784 C 0.5542 0.27394 0.36002 0.0
C785 C 0.57861 0.26248 0.39291 0.0
C786 C 0.587 0.24448 0.37933 0.0
C787 C 0.57945 0.24168 0.35574 0.0
C788 C 0.56316 0.25627 0.34616 0.0
C789 C 0.60317 0.22838 0.39026 0.0
C790 C 0.62331 0.23683 0.40026 0.0
C791 C 0.59846 0.20501 0.39165 0.0
C792 C 0.57669 0.19534 0.38302 0.0
C793 C 0.57672 0.17803 0.36591 0.0
C794 C 0.5562 0.16899 0.35768 0.0
C795 C 0.53554 0.17706 0.36653 0.0
C796 C 0.53535 0.19412 0.38371 0.0
C797 C 0.55582 0.20318 0.39204 0.0
H798 H 0.51967 0.17006 0.36012 0.0
H799 H 0.71143 0.25975 0.45469 0.0
H800 H 0.30897 0.51859 0.96038 0.0
H801 H 0.33163 0.54684 0.93911 0.0
H802 H 0.35889 0.49469 0.89365 0.0
H803 H 0.33677 0.46642 0.91533 0.0
H804 H 0.39174 0.51875 0.90999 0.0
H805 H 0.3206 0.53576 0.87319 0.0
H806 H 0.27983 0.54523 0.87125 0.0
H807 H 0.29246 0.6071 0.90877 0.0
H808 H 0.33328 0.59786 0.91124 0.0
H809 H 0.44919 0.59143 0.83036 0.0
H810 H 0.41937 0.56618 0.84477 0.0
H811 H 0.40414 0.61249 0.90183 0.0
H812 H 0.43409 0.63789 0.88771 0.0
H813 H 0.36458 0.59194 0.87786 0.0
H814 H 0.43588 0.57253 0.91603 0.0
H815 H 0.47662 0.56273 0.91615 0.0
H816 H 0.46277 0.50424 0.87339 0.0
H817 H 0.42195 0.51391 0.87271 0.0
C818 C 0.31954 0.51329 0.94559 0.0
C819 C 0.32129 0.49037 0.93955 0.0
C820 C 0.33241 0.52942 0.93338 0.0
C821 C 0.34689 0.52292 0.91466 0.0
C822 C 0.34794 0.5001 0.90809 0.0
C823 C 0.33533 0.48397 0.92047 0.0
C824 C 0.36231 0.53951 0.90319 0.0
C825 C 0.38565 0.53455 0.9026 0.0
C826 C 0.35453 0.56039 0.894 0.0
C827 C 0.32998 0.566 0.8926 0.0
C828 C 0.31466 0.55129 0.88121 0.0
C829 C 0.29154 0.55664 0.87998 0.0
C830 C 0.28355 0.57673 0.88994 0.0
C831 C 0.29867 0.59153 0.90109 0.0
C832 C 0.3218 0.58626 0.90239 0.0
C833 C 0.43938 0.59641 0.84584 0.0
C834 C 0.44422 0.61656 0.85808 0.0
C835 C 0.42233 0.58196 0.854 0.0
C836 C 0.40973 0.58748 0.87439 0.0
C837 C 0.41373 0.60802 0.88602 0.0
C838 C 0.43095 0.62239 0.87803 0.0
C839 C 0.39369 0.57095 0.88468 0.0
C840 C 0.37041 0.57599 0.88512 0.0
C841 C 0.40142 0.55001 0.89353 0.0
C842 C 0.42591 0.54408 0.8941 0.0
C843 C 0.44155 0.55769 0.90648 0.0
C844 C 0.46465 0.55215 0.90668 0.0
C845 C 0.47229 0.53292 0.89473 0.0
C846 C 0.45683 0.51916 0.88261 0.0
C847 C 0.43371 0.52465 0.88232 0.0
H848 H 0.49018 0.52865 0.89491 0.0
H849 H 0.26564 0.58084 0.88896 0.0
H850 H 0.66697 0.52829 0.42204 0.0
H851 H 0.64262 0.50062 0.4022 0.0
H852 H 0.666 0.44911 0.4508 0.0
H853 H 0.69098 0.47673 0.47024 0.0
H854 H 0.66017 0.43176 0.40743 0.0
H855 H 0.61584 0.47702 0.46047 0.0
H856 H 0.60122 0.51231 0.47792 0.0
H857 H 0.572 0.53067 0.41043 0.0
H858 H 0.58676 0.49563 0.39247 0.0
H859 H 0.56232 0.36044 0.3931 0.0
H860 H 0.59205 0.38493 0.40928 0.0
H861 H 0.57626 0.43534 0.35634 0.0
H862 H 0.54656 0.41106 0.33999 0.0
H863 H 0.57848 0.45222 0.40258 0.0
H864 H 0.62305 0.40527 0.35026 0.0
H865 H 0.63712 0.36906 0.33452 0.0
H866 H 0.66482 0.35251 0.40322 0.0
H867 H 0.65062 0.38852 0.41947 0.0
C868 C 0.66707 0.51099 0.42828 0.0
C869 C 0.6806 0.50462 0.44778 0.0
C870 C 0.65314 0.49522 0.41701 0.0
C871 C 0.65208 0.47293 0.4254 0.0
C872 C 0.66647 0.46625 0.44411 0.0
C873 C 0.6807 0.48199 0.4552 0.0
C874 C 0.63502 0.45704 0.4155 0.0
C875 C 0.64228 0.43611 0.40662 0.0
C876 C 0.61167 0.46279 0.41428 0.0
C877 C 0.60259 0.48379 0.42508 0.0
C878 C 0.60643 0.48865 0.44931 0.0
C879 C 0.5981 0.5086 0.45929 0.0
C880 C 0.58573 0.52375 0.44528 0.0
C881 C 0.58161 0.51894 0.42126 0.0
C882 C 0.58994 0.49903 0.41117 0.0
C883 C 0.5652 0.37671 0.38484 0.0
C884 C 0.552 0.38381 0.36527 0.0
C885 C 0.58228 0.39061 0.39403 0.0
C886 C 0.58639 0.41186 0.3839 0.0
C887 C 0.57333 0.41897 0.36436 0.0
C888 C 0.5564 0.40503 0.35503 0.0
C889 C 0.60368 0.42713 0.39423 0.0
C890 C 0.5964 0.44791 0.40334 0.0
C891 C 0.62688 0.42107 0.39593 0.0
C892 C 0.63557 0.3995 0.38614 0.0
C893 C 0.63198 0.39383 0.36206 0.0
C894 C 0.64001 0.37336 0.35304 0.0
C895 C 0.6518 0.35847 0.36788 0.0
C896 C 0.65565 0.36405 0.39176 0.0
C897 C 0.64764 0.3845 0.40088 0.0
H898 H 0.65801 0.34262 0.36086 0.0
H899 H 0.5793 0.53919 0.45304 0.0
H900 H 0.69291 0.53201 0.97469 0.0
H901 H 0.66745 0.55934 0.95581 0.0
H902 H 0.64331 0.50787 0.90776 0.0
H903 H 0.66795 0.48026 0.92698 0.0
H904 H 0.65239 0.5503 0.88549 0.0
H905 H 0.61249 0.51898 0.95367 0.0
H906 H 0.60824 0.5096 0.99631 0.0
H907 H 0.61411 0.57969 0.01457 0.0
H908 H 0.61873 0.58944 0.97202 0.0
H909 H 0.54778 0.59139 0.84281 0.0
H910 H 0.57845 0.56945 0.86066 0.0
H911 H 0.5885 0.62129 0.91364 0.0
H912 H 0.55738 0.6431 0.89629 0.0
H913 H 0.58936 0.58174 0.934 0.0
H914 H 0.62569 0.61423 0.86636 0.0
H915 H 0.63034 0.62454 0.82402 0.0
H916 H 0.63267 0.55449 0.80483 0.0
H917 H 0.62766 0.54374 0.84702 0.0
C918 C 0.68213 0.52645 0.96018 0.0
C919 C 0.68244 0.50386 0.95246 0.0
C920 C 0.66773 0.54214 0.94932 0.0
C921 C 0.65351 0.53554 0.93048 0.0
C922 C 0.6543 0.51328 0.92218 0.0
C923 C 0.66849 0.49754 0.93316 0.0
C924 C 0.63682 0.55145 0.92021 0.0
C925 C 0.6385 0.55711 0.89598 0.0
C926 C 0.61916 0.56075 0.93417 0.0
C927 C 0.61622 0.55491 0.95971 0.0
C928 C 0.61307 0.53237 0.9668 0.0
C929 C 0.61056 0.52699 0.99094 0.0
C930 C 0.61097 0.54403 0.00815 0.0
C931 C 0.61383 0.5665 0.00123 0.0
C932 C 0.61639 0.57197 0.97711 0.0
C933 C 0.55654 0.59818 0.85822 0.0
C934 C 0.55013 0.61901 0.86811 0.0
C935 C 0.57417 0.58566 0.86833 0.0
C936 C 0.58604 0.5939 0.88825 0.0
C937 C 0.57962 0.61464 0.89823 0.0
C938 C 0.56182 0.62707 0.88829 0.0
C939 C 0.60466 0.58051 0.89907 0.0
C940 C 0.60336 0.57525 0.92345 0.0
C941 C 0.62282 0.57179 0.88526 0.0
C942 C 0.62611 0.57818 0.85986 0.0
C943 C 0.62704 0.60101 0.8531 0.0
C944 C 0.62976 0.60694 0.82912 0.0
C945 C 0.63175 0.59018 0.81174 0.0
C946 C 0.63111 0.56746 0.81831 0.0
C947 C 0.62835 0.56143 0.84226 0.0
H948 H 0.63384 0.59481 0.79318 0.0
H949 H 0.60902 0.53983 0.02683 0.0
H950 H 0.3013 0.49922 0.42344 0.0
H951 H 0.32551 0.47254 0.40176 0.0
H952 H 0.35917 0.45484 0.4676 0.0
H953 H 0.33523 0.48159 0.48919 0.0
H954 H 0.3891 0.46627 0.43451 0.0
H955 H 0.3236 0.41791 0.43851 0.0
H956 H 0.28338 0.40745 0.43281 0.0
H957 H 0.29025 0.41675 0.35717 0.0
H958 H 0.33046 0.42757 0.36245 0.0
H959 H 0.4532 0.37152 0.40189 0.0
H960 H 0.42286 0.39452 0.41881 0.0
H961 H 0.40379 0.41678 0.34836 0.0
H962 H 0.43437 0.39388 0.3311 0.0
H963 H 0.36601 0.40412 0.3804 0.0
H964 H 0.43193 0.45173 0.37688 0.0
H965 H 0.4723 0.46134 0.38302 0.0
H966 H 0.46429 0.45287 0.45864 0.0
H967 H 0.42393 0.44285 0.45291 0.0
C968 C 0.31352 0.48923 0.43331 0.0
C969 C 0.31656 0.49255 0.45793 0.0
C970 C 0.32734 0.47402 0.42093 0.0
C971 C 0.34418 0.46175 0.43307 0.0
C972 C 0.3464 0.46427 0.45786 0.0
C973 C 0.33273 0.47952 0.47016 0.0
C974 C 0.3608 0.44771 0.41988 0.0
C975 C 0.38399 0.45251 0.42292 0.0
C976 C 0.35414 0.43026 0.40412 0.0
C977 C 0.32997 0.4238 0.40091 0.0
C978 C 0.31648 0.41793 0.42068 0.0
C979 C 0.2937 0.41189 0.41752 0.0
C980 C 0.28425 0.41151 0.39465 0.0
C981 C 0.29758 0.4171 0.37488 0.0
C982 C 0.32038 0.42316 0.37795 0.0
C983 C 0.4425 0.38116 0.38991 0.0
C984 C 0.44632 0.38099 0.36514 0.0
C985 C 0.42518 0.39429 0.39964 0.0
C986 C 0.41123 0.40736 0.38481 0.0
C987 C 0.41443 0.40675 0.36004 0.0
C988 C 0.43198 0.39379 0.35026 0.0
C989 C 0.39411 0.42246 0.39555 0.0
C990 C 0.37095 0.41796 0.39195 0.0
C991 C 0.40072 0.44019 0.4109 0.0
C992 C 0.42496 0.44632 0.41444 0.0
C993 C 0.43883 0.45171 0.3948 0.0
C994 C 0.4617 0.45727 0.39821 0.0
C995 C 0.47087 0.45766 0.4212 0.0
C996 C 0.45717 0.45254 0.44084 0.0
C997 C 0.43429 0.44693 0.43752 0.0
H998 H 0.48858 0.46197 0.42381 0.0
H999 H 0.26661 0.40682 0.39224 0.0
H1000 H 0.83634 0.00997 0.98704 0.0
H1001 H 0.85834 0.03802 0.96484 0.0
H1002 H 0.82298 0.01981 0.9002 0.0
H1003 H 0.80085 0.99164 0.92241 0.0
H1004 H 0.87047 0.01975 0.89593 0.0
H1005 H 0.81197 0.06914 0.92336 0.0
H1006 H 0.78636 0.08651 0.95291 0.0
H1007 H 0.84387 0.11212 0.99157 0.0
H1008 H 0.86986 0.09462 0.96245 0.0
H1009 H 0.93125 0.10397 0.83199 0.0
H1010 H 0.90024 0.08127 0.84835 0.0
H1011 H 0.92047 0.09992 0.9197 0.0
H1012 H 0.95096 0.12323 0.90347 0.0
H1013 H 0.87631 0.10089 0.91662 0.0
H1014 H 0.93455 0.04784 0.89364 0.0
H1015 H 0.96126 0.02944 0.86588 0.0
H1016 H 0.90558 0.00968 0.82093 0.0
H1017 H 0.87855 0.02822 0.84829 0.0
C1018 C 0.83314 0.0121 0.96814 0.0
C1019 C 0.81698 0.99864 0.95639 0.0
C1020 C 0.84558 0.0282 0.95552 0.0
C1021 C 0.84216 0.03104 0.93093 0.0
C1022 C 0.82576 0.0179 0.9192 0.0
C1023 C 0.8131 0.00194 0.93189 0.0
C1024 C 0.85689 0.04667 0.91737 0.0
C1025 C 0.87144 0.03761 0.90005 0.0
C1026 C 0.85846 0.0698 0.92326 0.0
C1027 C 0.84288 0.08042 0.94079 0.0
C1028 C 0.81918 0.07832 0.93827 0.0
C1029 C 0.80458 0.08822 0.95492 0.0
C1030 C 0.81348 0.10038 0.97413 0.0
C1031 C 0.837 0.10269 0.97669 0.0
C1032 C 0.85167 0.09281 0.96009 0.0
C1033 C 0.92909 0.10323 0.85117 0.0
C1034 C 0.94366 0.11529 0.86645 0.0
C1035 C 0.91138 0.09022 0.86049 0.0
C1036 C 0.90821 0.08863 0.88527 0.0
C1037 C 0.92255 0.10091 0.90052 0.0
C1038 C 0.94003 0.11417 0.89121 0.0
C1039 C 0.8903 0.07389 0.8955 0.0
C1040 C 0.87515 0.08311 0.91222 0.0
C1041 C 0.88835 0.05082 0.88928 0.0
C1042 C 0.90457 0.03964 0.87285 0.0
C1043 C 0.92803 0.03972 0.87774 0.0
C1044 C 0.94322 0.02924 0.8621 0.0
C1045 C 0.93513 0.01846 0.84161 0.0
C1046 C 0.91182 0.01808 0.83677 0.0
C1047 C 0.89656 0.02855 0.85234 0.0
H1048 H 0.94692 0.01035 0.82953 0.0
H1049 H 0.80216 0.10803 0.987 0.0
H1050 H 0.2012 0.97958 0.45869 0.0
H1051 H 0.1777 0.9511 0.43878 0.0
H1052 H 0.12825 0.00214 0.42113 0.0
H1053 H 0.15175 0.03069 0.44049 0.0
H1054 H 0.10888 0.96542 0.44217 0.0
H1055 H 0.16159 0.98135 0.3787 0.0
H1056 H 0.19947 0.98509 0.36029 0.0
H1057 H 0.21288 0.91508 0.37392 0.0
H1058 H 0.17517 0.911 0.39273 0.0
H1059 H 0.06151 0.89953 0.33622 0.0
H1060 H 0.09068 0.92409 0.35314 0.0
H1061 H 0.08542 0.88918 0.42043 0.0
H1062 H 0.05612 0.86452 0.40375 0.0
H1063 H 0.13287 0.91701 0.37451 0.0
H1064 H 0.08674 0.93009 0.46393 0.0
H1065 H 0.04792 0.92809 0.48053 0.0
H1066 H 0.01997 0.9437 0.41169 0.0
H1067 H 0.05861 0.94611 0.39478 0.0
C1068 C 0.18552 0.9848 0.4502 0.0
C1069 C 0.17824 0.00737 0.45135 0.0
C1070 C 0.17209 0.9685 0.43891 0.0
C1071 C 0.15122 0.97453 0.42858 0.0
C1072 C 0.14421 0.99712 0.42919 0.0
C1073 C 0.15763 0.01339 0.44035 0.0
C1074 C 0.1361 0.95728 0.41794 0.0
C1075 C 0.11418 0.95478 0.42745 0.0
C1076 C 0.14299 0.94351 0.39865 0.0
C1077 C 0.16566 0.94593 0.38736 0.0
C1078 C 0.1727 0.9668 0.37797 0.0
C1079 C 0.19412 0.96897 0.36742 0.0
C1080 C 0.20861 0.95035 0.366 0.0
C1081 C 0.20166 0.9295 0.37507 0.0
C1082 C 0.18026 0.92724 0.38566 0.0
C1083 C 0.06663 0.89693 0.35458 0.0
C1084 C 0.05624 0.88021 0.36872 0.0
C1085 C 0.08344 0.91089 0.36415 0.0
C1086 C 0.09003 0.90855 0.38805 0.0
C1087 C 0.08039 0.89134 0.40197 0.0
C1088 C 0.06366 0.87727 0.39239 0.0
C1089 C 0.10575 0.92516 0.39883 0.0
C1090 C 0.12773 0.92751 0.3894 0.0
C1091 C 0.09886 0.93905 0.41802 0.0
C1092 C 0.07555 0.93801 0.42806 0.0
C1093 C 0.0723 0.93317 0.45237 0.0
C1094 C 0.05034 0.93196 0.46182 0.0
C1095 C 0.03149 0.93569 0.44715 0.0
C1096 C 0.03458 0.94073 0.42301 0.0
C1097 C 0.0565 0.94199 0.41348 0.0
H1098 H 0.0145 0.93472 0.4545 0.0
H1099 H 0.22518 0.95207 0.35782 0.0
H1100 H 0.16219 0.97673 0.93215 0.0
H1101 H 0.13823 0.00473 0.91264 0.0
H1102 H 0.16878 0.05728 0.95506 0.0
H1103 H 0.19345 0.02942 0.97428 0.0
H1104 H 0.12133 0.05842 0.9548 0.0
H1105 H 0.18211 0.05485 0.89839 0.0
H1106 H 0.20964 0.03624 0.87172 0.0
H1107 H 0.15485 0.00828 0.83061 0.0
H1108 H 0.12696 0.02644 0.85725 0.0
H1109 H 0.06131 0.1438 0.89263 0.0
H1110 H 0.09216 0.12164 0.90993 0.0
H1111 H 0.07386 0.06523 0.86523 0.0
H1112 H 0.04343 0.08751 0.84729 0.0
H1113 H 0.1183 0.06912 0.86704 0.0
H1114 H 0.05782 0.0687 0.9252 0.0
H1115 H 0.02958 0.08598 0.95209 0.0
H1116 H 0.08298 0.11997 0.99002 0.0
H1117 H 0.11153 0.10309 0.96317 0.0
C1118 C 0.16421 0.99428 0.93705 0.0
C1119 C 0.17987 0.00081 0.95473 0.0
C1120 C 0.1504 0.01025 0.92592 0.0
C1121 C 0.15189 0.03306 0.93228 0.0
C1122 C 0.16742 0.03972 0.94992 0.0
C1123 C 0.1814 0.02376 0.96095 0.0
C1124 C 0.1365 0.04971 0.92109 0.0
C1125 C 0.12093 0.06112 0.93565 0.0
C1126 C 0.13571 0.05276 0.89608 0.0
C1127 C 0.15244 0.04188 0.87994 0.0
C1128 C 0.17592 0.04459 0.88378 0.0
C1129 C 0.19159 0.03414 0.86864 0.0
C1130 C 0.184 0.02105 0.84951 0.0
C1131 C 0.16071 0.01841 0.84545 0.0
C1132 C 0.14496 0.0288 0.86054 0.0
C1133 C 0.06386 0.12668 0.88645 0.0
C1134 C 0.04978 0.11734 0.86871 0.0
C1135 C 0.08148 0.11402 0.8964 0.0
C1136 C 0.08509 0.09164 0.88917 0.0
C1137 C 0.07138 0.08246 0.87111 0.0
C1138 C 0.05394 0.0952 0.86092 0.0
C1139 C 0.10281 0.07757 0.9007 0.0
C1140 C 0.11883 0.06663 0.88621 0.0
C1141 C 0.1039 0.07478 0.92578 0.0
C1142 C 0.08677 0.08482 0.94203 0.0
C1143 C 0.06352 0.07998 0.93918 0.0
C1144 C 0.04747 0.08968 0.95443 0.0
C1145 C 0.05448 0.10411 0.97271 0.0
C1146 C 0.07757 0.10882 0.97583 0.0
C1147 C 0.0937 0.09917 0.96062 0.0
H1148 H 0.04202 0.11161 0.98449 0.0
H1149 H 0.19616 0.01298 0.83782 0.0
H1150 H 0.82498 0.97402 0.4886 0.0
H1151 H 0.84988 0.94686 0.46872 0.0
H1152 H 0.82996 0.97363 0.4002 0.0
H1153 H 0.80438 0.00036 0.42015 0.0
H1154 H 0.83762 0.9288 0.39727 0.0
H1155 H 0.87694 0.99324 0.42768 0.0
H1156 H 0.88817 0.02112 0.45811 0.0
H1157 H 0.9178 0.96851 0.50061 0.0
H1158 H 0.90639 0.94024 0.47061 0.0
H1159 H 0.94051 0.89709 0.33712 0.0
H1160 H 0.90901 0.91857 0.35428 0.0
H1161 H 0.92248 0.88911 0.42322 0.0
H1162 H 0.95398 0.8676 0.40633 0.0
H1163 H 0.91768 0.93558 0.42444 0.0
H1164 H 0.87823 0.87117 0.39179 0.0
H1165 H 0.86764 0.84475 0.35969 0.0
H1166 H 0.83951 0.8994 0.31899 0.0
H1167 H 0.85024 0.92621 0.35073 0.0
C1168 C 0.82555 0.97368 0.46928 0.0
C1169 C 0.81302 0.98929 0.45583 0.0
C1170 C 0.8398 0.95827 0.45795 0.0
C1171 C 0.84219 0.95864 0.43302 0.0
C1172 C 0.82844 0.97315 0.41946 0.0
C1173 C 0.81386 0.98838 0.43082 0.0
C1174 C 0.86057 0.94549 0.42149 0.0
C1175 C 0.85515 0.93043 0.40303 0.0
C1176 C 0.88346 0.94761 0.42905 0.0
C1177 C 0.89062 0.9646 0.447 0.0
C1178 C 0.88572 0.9876 0.44359 0.0
C1179 C 0.89212 0.00347 0.46076 0.0
C1180 C 0.90365 0.99659 0.48131 0.0
C1181 C 0.90885 0.97381 0.4847 0.0
C1182 C 0.90242 0.95786 0.46761 0.0
C1183 C 0.9368 0.89518 0.35595 0.0
C1184 C 0.94981 0.88065 0.37037 0.0
C1185 C 0.9187 0.90736 0.36566 0.0
C1186 C 0.91335 0.90525 0.38995 0.0
C1187 C 0.92634 0.89089 0.40441 0.0
C1188 C 0.94431 0.87859 0.3947 0.0
C1189 C 0.89469 0.91859 0.40057 0.0
C1190 C 0.90013 0.93387 0.41875 0.0
C1191 C 0.87196 0.91687 0.39249 0.0
C1192 C 0.86524 0.90073 0.37354 0.0
C1193 C 0.86994 0.87758 0.37592 0.0
C1194 C 0.86389 0.86253 0.3578 0.0
C1195 C 0.85297 0.8704 0.33728 0.0
C1196 C 0.848 0.89333 0.33488 0.0
C1197 C 0.85404 0.90846 0.35294 0.0
H1198 H 0.84831 0.85873 0.32326 0.0
H1199 H 0.90859 0.0089 0.49458 0.0
H1200 H 0.30578 0.3842 0.13469 0.0
H1201 H 0.32892 0.37455 0.1696 0.0
H1202 H 0.3632 0.32311 0.12887 0.0
H1203 H 0.34016 0.33274 0.09383 0.0
H1204 H 0.35236 0.31126 0.17876 0.0
H1205 H 0.38816 0.36959 0.13076 0.0
H1206 H 0.38863 0.40612 0.1097 0.0
H1207 H 0.3738 0.44047 0.17531 0.0
H1208 H 0.37288 0.40407 0.19668 0.0
H1209 H 0.45569 0.30003 0.24442 0.0
H1210 H 0.42549 0.30336 0.21455 0.0
H1211 H 0.40407 0.3662 0.24627 0.0
H1212 H 0.43473 0.36341 0.27538 0.0
H1213 H 0.4066 0.37169 0.20149 0.0
H1214 H 0.37273 0.31521 0.25082 0.0
H1215 H 0.37044 0.27938 0.27303 0.0
H1216 H 0.37924 0.24232 0.2079 0.0
H1217 H 0.38191 0.27795 0.18531 0.0
C1218 C 0.3179 0.3705 0.13336 0.0
C1219 C 0.32135 0.35931 0.11157 0.0
C1220 C 0.3311 0.36505 0.15325 0.0
C1221 C 0.34779 0.34821 0.15168 0.0
C1222 C 0.35035 0.33611 0.13037 0.0
C1223 C 0.33734 0.34174 0.11039 0.0
C1224 C 0.36414 0.3449 0.17138 0.0
C1225 C 0.36438 0.32433 0.18372 0.0
C1226 C 0.37938 0.36221 0.17804 0.0
C1227 C 0.38021 0.38411 0.16525 0.0
C1228 C 0.38481 0.38492 0.14065 0.0
C1229 C 0.38519 0.4056 0.12867 0.0
C1230 C 0.38119 0.4256 0.14115 0.0
C1231 C 0.37686 0.42496 0.16565 0.0
C1232 C 0.37642 0.40432 0.17771 0.0
C1233 C 0.44439 0.31443 0.2451 0.0
C1234 C 0.44766 0.33154 0.26208 0.0
C1235 C 0.42704 0.31627 0.22812 0.0
C1236 C 0.41234 0.33496 0.22825 0.0
C1237 C 0.41524 0.35169 0.2457 0.0
C1238 C 0.43278 0.35008 0.26233 0.0
C1239 C 0.3949 0.33798 0.20933 0.0
C1240 C 0.39452 0.35855 0.1969 0.0
C1241 C 0.37936 0.32074 0.2029 0.0
C1242 C 0.37774 0.29927 0.21641 0.0
C1243 C 0.37436 0.29943 0.24125 0.0
C1244 C 0.37296 0.27915 0.25391 0.0
C1245 C 0.37475 0.25859 0.24189 0.0
C1246 C 0.37789 0.25826 0.21718 0.0
C1247 C 0.37932 0.27849 0.20444 0.0
H1248 H 0.37366 0.24291 0.25172 0.0
H1249 H 0.38149 0.4416 0.13184 0.0
H1250 H 0.70301 0.61289 0.64365 0.0
H1251 H 0.68045 0.62395 0.67845 0.0
H1252 H 0.6419 0.66998 0.63467 0.0
H1253 H 0.66462 0.65927 0.59991 0.0
H1254 H 0.6509 0.68705 0.68045 0.0
H1255 H 0.62187 0.61895 0.64336 0.0
H1256 H 0.62505 0.57999 0.62833 0.0
H1257 H 0.64433 0.55707 0.69816 0.0
H1258 H 0.64158 0.59598 0.71352 0.0
H1259 H 0.54571 0.69569 0.74235 0.0
H1260 H 0.57722 0.69151 0.7142 0.0
H1261 H 0.60457 0.63733 0.75699 0.0
H1262 H 0.57251 0.64072 0.78438 0.0
H1263 H 0.60434 0.62482 0.71386 0.0
H1264 H 0.62884 0.69221 0.75263 0.0
H1265 H 0.62518 0.731 0.76787 0.0
H1266 H 0.61561 0.75566 0.69656 0.0
H1267 H 0.61849 0.71692 0.6809 0.0
C1268 C 0.69008 0.62574 0.64157 0.0
C1269 C 0.68538 0.63504 0.61903 0.0
C1270 C 0.67716 0.63197 0.66142 0.0
C1271 C 0.65936 0.64758 0.65902 0.0
C1272 C 0.65554 0.65787 0.63686 0.0
C1273 C 0.66837 0.65159 0.617 0.0
C1274 C 0.64332 0.65158 0.67891 0.0
C1275 C 0.64061 0.67354 0.68778 0.0
C1276 C 0.6303 0.6338 0.6887 0.0
C1277 C 0.63177 0.61039 0.67951 0.0
C1278 C 0.62696 0.60563 0.65546 0.0
C1279 C 0.62866 0.58356 0.64689 0.0
C1280 C 0.63496 0.56608 0.66226 0.0
C1281 C 0.6395 0.57063 0.68626 0.0
C1282 C 0.63787 0.59268 0.69491 0.0
C1283 C 0.55861 0.68308 0.74583 0.0
C1284 C 0.55662 0.66844 0.76542 0.0
C1285 C 0.5767 0.68078 0.72983 0.0
C1286 C 0.59347 0.66424 0.73356 0.0
C1287 C 0.59184 0.65015 0.75363 0.0
C1288 C 0.57352 0.6521 0.76929 0.0
C1289 C 0.61174 0.66042 0.7157 0.0
C1290 C 0.61481 0.63842 0.707 0.0
C1291 C 0.62515 0.67819 0.70626 0.0
C1292 C 0.62371 0.70158 0.7156 0.0
C1293 C 0.62579 0.70586 0.7402 0.0
C1294 C 0.62388 0.72786 0.74892 0.0
C1295 C 0.62022 0.74579 0.73321 0.0
C1296 C 0.61845 0.74176 0.70872 0.0
C1297 C 0.62019 0.71977 0.69991 0.0
H1298 H 0.61876 0.76281 0.74001 0.0
H1299 H 0.63626 0.549 0.6556 0.0
H1300 H 0.69712 0.39663 0.14344 0.0
H1301 H 0.67137 0.38492 0.17515 0.0
H1302 H 0.64511 0.33195 0.13012 0.0
H1303 H 0.66973 0.34451 0.09774 0.0
H1304 H 0.6116 0.35267 0.14929 0.0
H1305 H 0.68001 0.3214 0.18008 0.0
H1306 H 0.7202 0.32046 0.19256 0.0
H1307 H 0.70686 0.37086 0.24571 0.0
H1308 H 0.66664 0.37235 0.23333 0.0
H1309 H 0.54754 0.30376 0.24472 0.0
H1310 H 0.57774 0.30811 0.21497 0.0
H1311 H 0.59592 0.37239 0.24543 0.0
H1312 H 0.56557 0.3684 0.27501 0.0
H1313 H 0.63397 0.34227 0.23395 0.0
H1314 H 0.56566 0.37463 0.19944 0.0
H1315 H 0.52545 0.37368 0.18699 0.0
H1316 H 0.53945 0.31782 0.14053 0.0
H1317 H 0.57971 0.31824 0.153 0.0
C1318 C 0.68584 0.38252 0.14021 0.0
C1319 C 0.68546 0.37163 0.11791 0.0
C1320 C 0.67133 0.37561 0.15854 0.0
C1321 C 0.65643 0.35736 0.15517 0.0
C1322 C 0.65648 0.34604 0.13319 0.0
C1323 C 0.67078 0.35311 0.11474 0.0
C1324 C 0.63974 0.35114 0.17397 0.0
C1325 C 0.61664 0.34995 0.16769 0.0
C1326 C 0.64614 0.34793 0.19811 0.0
C1327 C 0.67033 0.34712 0.20563 0.0
C1328 C 0.68568 0.33242 0.1943 0.0
C1329 C 0.70846 0.33176 0.20138 0.0
C1330 C 0.71609 0.34563 0.21988 0.0
C1331 C 0.70093 0.36014 0.23137 0.0
C1332 C 0.67813 0.36088 0.22435 0.0
C1333 C 0.55807 0.31875 0.2452 0.0
C1334 C 0.55408 0.33582 0.2621 0.0
C1335 C 0.57528 0.32119 0.2282 0.0
C1336 C 0.58896 0.34058 0.22805 0.0
C1337 C 0.58552 0.3573 0.24534 0.0
C1338 C 0.5681 0.35505 0.26209 0.0
C1339 C 0.60613 0.34401 0.20913 0.0
C1340 C 0.62918 0.34472 0.21544 0.0
C1341 C 0.59977 0.34647 0.18496 0.0
C1342 C 0.57562 0.3463 0.17737 0.0
C1343 C 0.56012 0.36201 0.18674 0.0
C1344 C 0.53733 0.3616 0.17965 0.0
C1345 C 0.52989 0.34565 0.16304 0.0
C1346 C 0.54523 0.33013 0.15343 0.0
C1347 C 0.56804 0.33046 0.1605 0.0
H1348 H 0.51224 0.34536 0.15756 0.0
H1349 H 0.73374 0.34509 0.22534 0.0
H1350 H 0.29914 0.66023 0.62466 0.0
H1351 H 0.32126 0.6728 0.65941 0.0
H1352 H 0.35455 0.60802 0.66222 0.0
H1353 H 0.33232 0.59534 0.62803 0.0
H1354 H 0.34531 0.62367 0.7066 0.0
H1355 H 0.37828 0.65241 0.63257 0.0
H1356 H 0.37724 0.67446 0.59525 0.0
H1357 H 0.36211 0.73452 0.63497 0.0
H1358 H 0.36279 0.71272 0.67252 0.0
H1359 H 0.45463 0.63225 0.75177 0.0
H1360 H 0.42153 0.62835 0.72609 0.0
H1361 H 0.4046 0.69828 0.73753 0.0
H1362 H 0.43809 0.70252 0.76318 0.0
H1363 H 0.39946 0.68623 0.69116 0.0
H1364 H 0.37474 0.65811 0.76614 0.0
H1365 H 0.37745 0.63575 0.80314 0.0
H1366 H 0.37729 0.57455 0.76225 0.0
H1367 H 0.37497 0.59653 0.72497 0.0
C1368 C 0.31086 0.64858 0.63305 0.0
C1369 C 0.31428 0.62694 0.6235 0.0
C1370 C 0.32354 0.65579 0.65278 0.0
C1371 C 0.33975 0.64142 0.66318 0.0
C1372 C 0.34218 0.6194 0.65445 0.0
C1373 C 0.32962 0.61224 0.63479 0.0
C1374 C 0.3556 0.64952 0.68186 0.0
C1375 C 0.35712 0.63737 0.70329 0.0
C1376 C 0.37057 0.66783 0.6778 0.0
C1377 C 0.3703 0.68091 0.65528 0.0
C1378 C 0.37457 0.67029 0.63331 0.0
C1379 C 0.37407 0.68274 0.61213 0.0
C1380 C 0.36953 0.70586 0.61273 0.0
C1381 C 0.36556 0.7166 0.63453 0.0
C1382 C 0.36601 0.70421 0.65576 0.0
C1383 C 0.44398 0.64689 0.74883 0.0
C1384 C 0.44897 0.66768 0.75971 0.0
C1385 C 0.42496 0.64457 0.73423 0.0
C1386 C 0.41032 0.66289 0.73036 0.0
C1387 C 0.41559 0.68389 0.74048 0.0
C1388 C 0.43475 0.68628 0.75508 0.0
C1389 C 0.38971 0.65983 0.71552 0.0
C1390 C 0.38728 0.67292 0.69483 0.0
C1391 C 0.37389 0.64238 0.72029 0.0
C1392 C 0.37478 0.62901 0.74272 0.0
C1393 C 0.37539 0.63989 0.76502 0.0
C1394 C 0.37686 0.62728 0.78605 0.0
C1395 C 0.37757 0.60375 0.78505 0.0
C1396 C 0.37673 0.59278 0.763 0.0
C1397 C 0.3753 0.60531 0.74191 0.0
H1398 H 0.37875 0.59402 0.80135 0.0
H1399 H 0.36916 0.71548 0.59631 0.0
H1400 H 0.79754 0.89093 0.14954 0.0
H1401 H 0.82103 0.881 0.18417 0.0
H1402 H 0.85404 0.82907 0.14295 0.0
H1403 H 0.83069 0.839 0.1083 0.0
H1404 H 0.84522 0.81734 0.19259 0.0
H1405 H 0.87838 0.87677 0.14359 0.0
H1406 H 0.87741 0.91366 0.12326 0.0
H1407 H 0.86514 0.94667 0.19021 0.0
H1408 H 0.86568 0.9099 0.21088 0.0
H1409 H 0.95279 0.80413 0.24829 0.0
H1410 H 0.92035 0.8088 0.22141 0.0
H1411 H 0.90254 0.87083 0.25711 0.0
H1412 H 0.93547 0.86676 0.2832 0.0
H1413 H 0.90058 0.87761 0.21262 0.0
H1414 H 0.87102 0.81992 0.26309 0.0
H1415 H 0.87059 0.78361 0.28456 0.0
H1416 H 0.87399 0.74799 0.21798 0.0
H1417 H 0.87477 0.78409 0.19611 0.0
C1418 C 0.80941 0.87704 0.1481 0.0
C1419 C 0.81251 0.86585 0.12627 0.0
C1420 C 0.82281 0.87142 0.16782 0.0
C1421 C 0.83933 0.85442 0.16598 0.0
C1422 C 0.84134 0.8422 0.14469 0.0
C1423 C 0.82815 0.84798 0.12491 0.0
C1424 C 0.85633 0.85118 0.1851 0.0
C1425 C 0.85743 0.83041 0.197 0.0
C1426 C 0.87184 0.86848 0.1911 0.0
C1427 C 0.87181 0.89059 0.17872 0.0
C1428 C 0.8753 0.89188 0.15394 0.0
C1429 C 0.87485 0.91277 0.14236 0.0
C1430 C 0.87116 0.93249 0.15543 0.0
C1431 C 0.86796 0.93137 0.18011 0.0
C1432 C 0.86834 0.91052 0.19176 0.0
C1433 C 0.94186 0.81868 0.25045 0.0
C1434 C 0.94675 0.83516 0.26769 0.0
C1435 C 0.92321 0.82126 0.2352 0.0
C1436 C 0.90877 0.84005 0.23739 0.0
C1437 C 0.91343 0.85624 0.25499 0.0
C1438 C 0.93228 0.85391 0.26988 0.0
C1439 C 0.88968 0.84363 0.22043 0.0
C1440 C 0.88825 0.86452 0.20869 0.0
C1441 C 0.87371 0.8265 0.2149 0.0
C1442 C 0.87314 0.80473 0.22797 0.0
C1443 C 0.87184 0.80435 0.25303 0.0
C1444 C 0.87151 0.7838 0.26527 0.0
C1445 C 0.87231 0.76351 0.25264 0.0
C1446 C 0.87339 0.76372 0.22774 0.0
C1447 C 0.87375 0.78422 0.21541 0.0
H1448 H 0.87206 0.74762 0.26215 0.0
H1449 H 0.87082 0.94865 0.14644 0.0
H1450 H 0.17705 0.09243 0.63546 0.0
H1451 H 0.15188 0.10366 0.66805 0.0
H1452 H 0.17321 0.17285 0.65962 0.0
H1453 H 0.19901 0.16142 0.62721 0.0
H1454 H 0.16413 0.16146 0.70752 0.0
H1455 H 0.12744 0.15706 0.63168 0.0
H1456 H 0.11749 0.13948 0.59322 0.0
H1457 H 0.08502 0.08471 0.63003 0.0
H1458 H 0.09516 0.10175 0.66875 0.0
H1459 H 0.05845 0.19799 0.76272 0.0
H1460 H 0.09033 0.19413 0.73477 0.0
H1461 H 0.08119 0.12197 0.73445 0.0
H1462 H 0.04957 0.12555 0.76219 0.0
H1463 H 0.08427 0.14049 0.68918 0.0
H1464 H 0.12365 0.14435 0.76513 0.0
H1465 H 0.13398 0.1623 0.8033 0.0
H1466 H 0.16067 0.21958 0.76565 0.0
H1467 H 0.15019 0.20208 0.72724 0.0
C1468 C 0.1768 0.10992 0.64105 0.0
C1469 C 0.18975 0.12612 0.62889 0.0
C1470 C 0.16241 0.11634 0.65956 0.0
C1471 C 0.16033 0.13916 0.66586 0.0
C1472 C 0.17453 0.15518 0.65494 0.0
C1473 C 0.18921 0.14867 0.63651 0.0
C1474 C 0.14159 0.14623 0.68185 0.0
C1475 C 0.14662 0.15723 0.70339 0.0
C1476 C 0.11875 0.14072 0.67639 0.0
C1477 C 0.1122 0.13062 0.65313 0.0
C1478 C 0.11829 0.1412 0.63158 0.0
C1479 C 0.11262 0.13133 0.60973 0.0
C1480 C 0.10066 0.11097 0.60918 0.0
C1481 C 0.0943 0.10047 0.63049 0.0
C1482 C 0.09999 0.11024 0.6524 0.0
C1483 C 0.06324 0.18131 0.75669 0.0
C1484 C 0.05139 0.16209 0.76468 0.0
C1485 C 0.08151 0.17914 0.74084 0.0
C1486 C 0.08811 0.15776 0.73264 0.0
C1487 C 0.07633 0.13862 0.74057 0.0
C1488 C 0.05827 0.14073 0.75649 0.0
C1489 C 0.10684 0.15502 0.71523 0.0
C1490 C 0.10175 0.14496 0.69326 0.0
C1491 C 0.12948 0.16159 0.72026 0.0
C1492 C 0.13588 0.17204 0.74333 0.0
C1493 C 0.13153 0.16086 0.765 0.0
C1494 C 0.13745 0.17093 0.78668 0.0
C1495 C 0.1479 0.1921 0.78691 0.0
C1496 C 0.15252 0.2032 0.76545 0.0
C1497 C 0.14661 0.19321 0.74372 0.0
H1498 H 0.15247 0.19987 0.80371 0.0
H1499 H 0.09629 0.10335 0.59225 0.0
H1500 H 0.19834 0.89548 0.14675 0.0
H1501 H 0.17227 0.88363 0.17817 0.0
H1502 H 0.14617 0.83109 0.13248 0.0
H1503 H 0.17114 0.84373 0.10046 0.0
H1504 H 0.11259 0.85214 0.15147 0.0
H1505 H 0.18046 0.8198 0.18237 0.0
H1506 H 0.22054 0.81834 0.19515 0.0
H1507 H 0.20728 0.86821 0.24888 0.0
H1508 H 0.16717 0.87022 0.23621 0.0
H1509 H 0.04682 0.80355 0.24597 0.0
H1510 H 0.07712 0.80757 0.21624 0.0
H1511 H 0.09707 0.87083 0.24787 0.0
H1512 H 0.06671 0.86716 0.27741 0.0
H1513 H 0.13421 0.84043 0.23615 0.0
H1514 H 0.06661 0.8741 0.20155 0.0
H1515 H 0.0265 0.87391 0.18873 0.0
H1516 H 0.04002 0.81845 0.1416 0.0
H1517 H 0.08018 0.8181 0.15443 0.0
C1518 C 0.18704 0.88142 0.14334 0.0
C1519 C 0.18683 0.87064 0.12098 0.0
C1520 C 0.17234 0.87445 0.16148 0.0
C1521 C 0.15739 0.85629 0.15782 0.0
C1522 C 0.15758 0.8451 0.13576 0.0
C1523 C 0.17209 0.85222 0.11753 0.0
C1524 C 0.1405 0.85 0.17637 0.0
C1525 C 0.11744 0.84913 0.16988 0.0
C1526 C 0.1467 0.84641 0.2005 0.0
C1527 C 0.17083 0.84529 0.20819 0.0
C1528 C 0.18612 0.83059 0.19679 0.0
C1529 C 0.20884 0.82964 0.20404 0.0
C1530 C 0.21647 0.84321 0.22278 0.0
C1531 C 0.20136 0.85773 0.23435 0.0
C1532 C 0.17862 0.85876 0.22716 0.0
C1533 C 0.05774 0.81824 0.24668 0.0
C1534 C 0.05427 0.83512 0.26391 0.0
C1535 C 0.07501 0.8205 0.2297 0.0
C1536 C 0.08923 0.83951 0.2299 0.0
C1537 C 0.08626 0.85603 0.24749 0.0
C1538 C 0.06881 0.85397 0.26423 0.0
C1539 C 0.10657 0.84277 0.21113 0.0
C1540 C 0.12958 0.84314 0.21763 0.0
C1541 C 0.10041 0.84562 0.18696 0.0
C1542 C 0.07631 0.84589 0.17917 0.0
C1543 C 0.06098 0.86172 0.18863 0.0
C1544 C 0.03825 0.86175 0.18132 0.0
C1545 C 0.0307 0.84613 0.16442 0.0
C1546 C 0.04589 0.8305 0.15473 0.0
C1547 C 0.06863 0.83039 0.16201 0.0
H1548 H 0.0131 0.84618 0.15878 0.0
H1549 H 0.23406 0.84245 0.22837 0.0
H1550 H 0.83285 0.09325 0.62465 0.0
H1551 H 0.85442 0.10552 0.65945 0.0
H1552 H 0.82082 0.17015 0.65721 0.0
H1553 H 0.79931 0.15799 0.62185 0.0
H1554 H 0.86709 0.17413 0.66106 0.0
H1555 H 0.80864 0.1345 0.70194 0.0
H1556 H 0.78242 0.10302 0.71031 0.0
H1557 H 0.83911 0.05929 0.72399 0.0
H1558 H 0.8657 0.0904 0.71536 0.0
H1559 H 0.93389 0.19818 0.76577 0.0
H1560 H 0.90149 0.19425 0.73861 0.0
H1561 H 0.91795 0.12401 0.72835 0.0
H1562 H 0.94984 0.12761 0.75571 0.0
H1563 H 0.87383 0.12879 0.73513 0.0
H1564 H 0.93148 0.16591 0.68674 0.0
H1565 H 0.95831 0.19657 0.67705 0.0
H1566 H 0.90339 0.24427 0.67682 0.0
H1567 H 0.87628 0.21389 0.68679 0.0
C1568 C 0.82996 0.11005 0.63163 0.0
C1569 C 0.81452 0.12473 0.62049 0.0
C1570 C 0.84214 0.11696 0.65165 0.0
C1571 C 0.83906 0.13867 0.66105 0.0
C1572 C 0.82334 0.15329 0.65027 0.0
C1573 C 0.811 0.1463 0.63021 0.0
C1574 C 0.8535 0.14624 0.68118 0.0
C1575 C 0.86819 0.16457 0.67754 0.0
C1576 C 0.85512 0.13358 0.70251 0.0
C1577 C 0.83918 0.11481 0.7079 0.0
C1578 C 0.81553 0.11814 0.70659 0.0
C1579 C 0.8006 0.10036 0.7114 0.0
C1580 C 0.8091 0.07917 0.71765 0.0
C1581 C 0.83255 0.07572 0.71915 0.0
C1582 C 0.84756 0.09344 0.71435 0.0
C1583 C 0.93065 0.18192 0.75764 0.0
C1584 C 0.94449 0.16321 0.76291 0.0
C1585 C 0.91213 0.17971 0.74212 0.0
C1586 C 0.90735 0.15885 0.73136 0.0
C1587 C 0.92121 0.14024 0.73655 0.0
C1588 C 0.93953 0.14236 0.75216 0.0
C1589 C 0.88805 0.15606 0.71456 0.0
C1590 C 0.87239 0.13866 0.7189 0.0
C1591 C 0.88564 0.1695 0.69383 0.0
C1592 C 0.90192 0.18771 0.6878 0.0
C1593 C 0.92517 0.18297 0.6848 0.0
C1594 C 0.94041 0.20029 0.67923 0.0
C1595 C 0.93257 0.22237 0.6764 0.0
C1596 C 0.90945 0.22717 0.67907 0.0
C1597 C 0.89414 0.20991 0.68467 0.0
H1598 H 0.9444 0.23575 0.67208 0.0
H1599 H 0.79751 0.06542 0.72136 0.0
loop_
_geom_bond_atom_site_label_1
_geom_bond_atom_site_label_2
_geom_bond_distance
_geom_bond_site_symmetry_2
_ccdc_geom_bond_type
C0 C1 1.386 . S
C0 C2 1.397 . S
C0 H24 0.931 . S
C1 C0 1.386 . S
C1 C5 1.397 . S
C2 C0 1.397 . S
C2 C3 1.384 . S
C2 H25 0.930 . S
C3 C2 1.384 . S
C3 C4 1.377 . S
C3 C6 1.481 . S
C4 C3 1.377 . S
C4 C5 1.389 . S
C4 H26 0.929 . S
C5 C1 1.397 . S
C5 C4 1.389 . S
C5 H27 0.931 . S
C6 C3 1.481 . S
C6 C7 1.387 . S
C6 C11 1.390 1_556 S
C7 C6 1.387 . S
C7 C8 1.401 1_556 S
C7 H28 0.930 . S
C8 C7 1.401 1_554 S
C8 C9 1.376 . S
C8 C17 1.511 1_554 S
C9 C8 1.376 . S
C9 C10 1.392 . S
C9 H30 0.931 . S
C10 C9 1.392 . S
C10 C11 1.361 . S
C10 C12 1.500 . S
C11 C6 1.390 1_554 S
C11 C10 1.361 . S
C11 H29 0.931 . S
C12 C10 1.500 . S
C12 C13 1.371 . S
C12 C14 1.365 . S
C13 C12 1.371 . S
C13 C23 1.386 . S
C13 H31 0.931 . S
C14 C12 1.365 . S
C14 C15 1.409 . S
C14 H32 0.929 . S
C15 C14 1.409 . S
C15 C16 1.380 . S
C15 H33 0.930 . S
C16 C15 1.380 . S
C16 C23 1.357 . S
C17 C8 1.511 1_556 S
C17 C18 1.341 . S
C17 C19 1.371 1_556 S
C18 C17 1.341 . S
C18 C22 1.394 . S
C18 H34 0.930 . S
C19 C17 1.371 1_554 S
C19 C20 1.392 1_554 S
C19 H35 0.932 . S
C20 C19 1.392 1_556 S
C20 C21 1.331 . S
C20 H38 0.932 . S
C21 C20 1.331 . S
C21 C22 1.336 . S
C22 C18 1.394 . S
C22 C21 1.336 . S
C22 H37 0.929 . S
C23 C13 1.386 . S
C23 C16 1.357 . S
C23 H36 0.928 . S
H24 C0 0.931 . S
H25 C2 0.930 . S
H26 C4 0.929 . S
H27 C5 0.931 . S
H28 C7 0.930 . S
H29 C11 0.931 . S
H30 C9 0.931 . S
H31 C13 0.931 . S
H32 C14 0.929 . S
H33 C15 0.930 . S
H34 C18 0.930 . S
H35 C19 0.932 . S
H36 C23 0.928 . S
H37 C22 0.929 . S
H38 C20 0.932 . S
C39 C40 1.386 . S
C39 C41 1.397 . S
C39 H63 0.931 . S
C40 C39 1.386 . S
C40 C44 1.397 . S
C41 C39 1.397 . S
C41 C42 1.384 . S
C41 H64 0.930 . S
C42 C41 1.384 . S
C42 C43 1.377 . S
C42 C45 1.481 . S
C43 C42 1.377 . S
C43 C44 1.389 . S
C43 H65 0.929 . S
C44 C40 1.397 . S
C44 C43 1.389 . S
C44 H66 0.931 . S
C45 C42 1.481 . S
C45 C46 1.387 . S
C45 C50 1.390 . S
C46 C45 1.387 . S
C46 C47 1.401 . S
C46 H67 0.930 . S
C47 C46 1.401 . S
C47 C48 1.376 . S
C47 C56 1.511 . S
C48 C47 1.376 . S
C48 C49 1.392 . S
C48 H69 0.931 . S
C49 C48 1.392 . S
C49 C50 1.361 . S
C49 C51 1.500 . S
C50 C45 1.390 . S
C50 C49 1.361 . S
C50 H68 0.931 . S
C51 C49 1.500 . S
C51 C52 1.371 . S
C51 C53 1.365 . S
C52 C51 1.371 . S
C52 C62 1.386 . S
C52 H70 0.931 . S
C53 C51 1.365 . S
C53 C54 1.409 . S
C53 H71 0.929 . S
C54 C53 1.409 . S
C54 C55 1.380 . S
C54 H72 0.930 . S
C55 C54 1.380 . S
C55 C62 1.357 . S
C56 C47 1.511 . S
C56 C57 1.341 . S
C56 C58 1.371 . S
C57 C56 1.341 . S
C57 C61 1.394 . S
C57 H73 0.930 . S
C58 C56 1.371 . S
C58 C59 1.392 . S
C58 H74 0.931 . S
C59 C58 1.392 . S
C59 C60 1.331 . S
C59 H77 0.932 . S
C60 C59 1.331 . S
C60 C61 1.336 . S
C61 C57 1.394 . S
C61 C60 1.336 . S
C61 H76 0.929 . S
C62 C52 1.386 . S
C62 C55 1.357 . S
C62 H75 0.928 . S
H63 C39 0.931 . S
H64 C41 0.930 . S
H65 C43 0.929 . S
H66 C44 0.931 . S
H67 C46 0.930 . S
H68 C50 0.931 . S
H69 C48 0.931 . S
H70 C52 0.931 . S
H71 C53 0.929 . S
H72 C54 0.930 . S
H73 C57 0.930 . S
H74 C58 0.931 . S
H75 C62 0.928 . S
H76 C61 0.929 . S
H77 C59 0.932 . S
C78 C79 1.386 . S
C78 C80 1.397 . S
C78 H102 0.931 . S
C79 C78 1.386 . S
C79 C83 1.397 . S
C80 C78 1.397 . S
C80 C81 1.384 . S
C80 H103 0.930 . S
C81 C80 1.384 . S
C81 C82 1.377 . S
C81 C84 1.481 . S
C82 C81 1.377 . S
C82 C83 1.389 . S
C82 H104 0.929 1_556 S
C83 C79 1.397 . S
C83 C82 1.389 . S
C83 H105 0.931 . S
C84 C81 1.481 . S
C84 C85 1.387 . S
C84 C89 1.390 1_556 S
C85 C84 1.387 . S
C85 C86 1.401 1_556 S
C85 H106 0.930 . S
C86 C85 1.401 1_554 S
C86 C87 1.376 . S
C86 C95 1.511 1_554 S
C87 C86 1.376 . S
C87 C88 1.392 . S
C87 H108 0.931 . S
C88 C87 1.392 . S
C88 C89 1.361 . S
C88 C90 1.500 . S
C89 C84 1.390 1_554 S
C89 C88 1.361 . S
C89 H107 0.931 . S
C90 C88 1.500 . S
C90 C91 1.371 . S
C90 C92 1.365 . S
C91 C90 1.371 . S
C91 C101 1.386 . S
C91 H109 0.931 . S
C92 C90 1.365 . S
C92 C93 1.409 . S
C92 H110 0.929 . S
C93 C92 1.409 . S
C93 C94 1.380 . S
C93 H111 0.930 . S
C94 C93 1.380 . S
C94 C101 1.357 . S
C95 C86 1.511 1_556 S
C95 C96 1.341 . S
C95 C97 1.371 1_556 S
C96 C95 1.341 . S
C96 C100 1.394 . S
C96 H112 0.930 . S
C97 C95 1.371 1_554 S
C97 C98 1.392 1_554 S
C97 H113 0.931 . S
C98 C97 1.392 1_556 S
C98 C99 1.331 . S
C98 H116 0.932 1_556 S
C99 C98 1.331 . S
C99 C100 1.336 . S
C100 C96 1.394 . S
C100 C99 1.336 . S
C100 H115 0.929 . S
C101 C91 1.386 . S
C101 C94 1.357 . S
C101 H114 0.928 . S
H102 C78 0.931 . S
H103 C80 0.930 . S
H104 C82 0.929 1_554 S
H105 C83 0.931 . S
H106 C85 0.930 . S
H107 C89 0.931 . S
H108 C87 0.931 . S
H109 C91 0.931 . S
H110 C92 0.929 . S
H111 C93 0.930 . S
H112 C96 0.930 . S
H113 C97 0.931 . S
H114 C101 0.928 . S
H115 C100 0.929 . S
H116 C98 0.932 1_554 S
C117 C118 1.386 . S
C117 C119 1.397 . S
C117 H141 0.931 . S
C118 C117 1.386 . S
C118 C122 1.397 . S
C119 C117 1.397 . S
C119 C120 1.384 . S
C119 H142 0.930 . S
C120 C119 1.384 . S
C120 C121 1.377 . S
C120 C123 1.481 . S
C121 C120 1.377 . S
C121 C122 1.389 . S
C121 H143 0.929 . S
C122 C118 1.397 . S
C122 C121 1.389 . S
C122 H144 0.931 . S
C123 C120 1.481 . S
C123 C124 1.387 . S
C123 C128 1.390 . S
C124 C123 1.387 . S
C124 C125 1.401 . S
C124 H145 0.930 . S
C125 C124 1.401 . S
C125 C126 1.376 . S
C125 C134 1.511 . S
C126 C125 1.376 . S
C126 C127 1.392 . S
C126 H147 0.931 . S
C127 C126 1.392 . S
C127 C128 1.361 . S
C127 C129 1.500 . S
C128 C123 1.390 . S
C128 C127 1.361 . S
C128 H146 0.931 . S
C129 C127 1.500 . S
C129 C130 1.371 . S
C129 C131 1.365 . S
C130 C129 1.371 . S
C130 C140 1.386 . S
C130 H148 0.931 . S
C131 C129 1.365 . S
C131 C132 1.409 . S
C131 H149 0.929 . S
C132 C131 1.409 . S
C132 C133 1.380 . S
C132 H150 0.930 . S
C133 C132 1.380 . S
C133 C140 1.357 . S
C134 C125 1.511 . S
C134 C135 1.341 . S
C134 C136 1.371 . S
C135 C134 1.341 . S
C135 C139 1.394 . S
C135 H151 0.930 . S
C136 C134 1.371 . S
C136 C137 1.392 . S
C136 H152 0.931 . S
C137 C136 1.392 . S
C137 C138 1.331 . S
C137 H155 0.932 . S
C138 C137 1.331 . S
C138 C139 1.336 . S
C139 C135 1.394 . S
C139 C138 1.336 . S
C139 H154 0.929 . S
C140 C130 1.386 . S
C140 C133 1.357 . S
C140 H153 0.928 . S
H141 C117 0.931 . S
H142 C119 0.930 . S
H143 C121 0.929 . S
H144 C122 0.931 . S
H145 C124 0.930 . S
H146 C128 0.931 . S
H147 C126 0.931 . S
H148 C130 0.931 . S
H149 C131 0.929 . S
H150 C132 0.930 . S
H151 C135 0.930 . S
H152 C136 0.931 . S
H153 C140 0.928 . S
H154 C139 0.929 . S
H155 C137 0.932 . S
C156 C157 1.386 . S
C156 C158 1.397 . S
C156 H180 0.931 . S
C157 C156 1.386 . S
C157 C161 1.397 . S
C158 C156 1.397 . S
C158 C159 1.384 . S
C158 H181 0.930 . S
C159 C158 1.384 . S
C159 C160 1.377 . S
C159 C162 1.481 . S
C160 C159 1.377 . S
C160 C161 1.389 . S
C160 H182 0.929 . S
C161 C157 1.397 . S
C161 C160 1.389 . S
C161 H183 0.931 . S
C162 C159 1.481 . S
C162 C163 1.387 . S
C162 C167 1.390 1_556 S
C163 C162 1.387 . S
C163 C164 1.401 1_556 S
C163 H184 0.930 . S
C164 C163 1.401 1_554 S
C164 C165 1.376 . S
C164 C173 1.511 1_554 S
C165 C164 1.376 . S
C165 C166 1.392 . S
C165 H186 0.931 . S
C166 C165 1.392 . S
C166 C167 1.361 . S
C166 C168 1.500 . S
C167 C162 1.390 1_554 S
C167 C166 1.361 . S
C167 H185 0.931 . S
C168 C166 1.500 . S
C168 C169 1.371 . S
C168 C170 1.365 . S
C169 C168 1.371 . S
C169 C179 1.386 . S
C169 H187 0.931 . S
C170 C168 1.365 . S
C170 C171 1.409 . S
C170 H188 0.929 . S
C171 C170 1.409 . S
C171 C172 1.380 . S
C171 H189 0.930 . S
C172 C171 1.380 . S
C172 C179 1.357 . S
C173 C164 1.511 1_556 S
C173 C174 1.341 . S
C173 C175 1.371 1_556 S
C174 C173 1.341 . S
C174 C178 1.394 . S
C174 H190 0.930 . S
C175 C173 1.371 1_554 S
C175 C176 1.392 1_554 S
C175 H191 0.932 . S
C176 C175 1.392 1_556 S
C176 C177 1.331 . S
C176 H194 0.932 . S
C177 C176 1.331 . S
C177 C178 1.336 . S
C178 C174 1.394 . S
C178 C177 1.336 . S
C178 H193 0.929 . S
C179 C169 1.386 . S
C179 C172 1.357 . S
C179 H192 0.928 . S
H180 C156 0.931 . S
H181 C158 0.930 . S
H182 C160 0.929 . S
H183 C161 0.931 . S
H184 C163 0.930 . S
H185 C167 0.931 . S
H186 C165 0.931 . S
H187 C169 0.931 . S
H188 C170 0.929 . S
H189 C171 0.930 . S
H190 C174 0.930 . S
H191 C175 0.932 . S
H192 C179 0.928 . S
H193 C178 0.929 . S
H194 C176 0.932 . S
C195 C196 1.386 . S
C195 C197 1.397 . S
C195 H219 0.931 . S
C196 C195 1.386 . S
C196 C200 1.397 . S
C197 C195 1.397 . S
C197 C198 1.384 . S
C197 H220 0.930 . S
C198 C197 1.384 . S
C198 C199 1.377 . S
C198 C201 1.481 . S
C199 C198 1.377 . S
C199 C200 1.389 . S
C199 H221 0.929 . S
C200 C196 1.397 . S
C200 C199 1.389 . S
C200 H222 0.931 . S
C201 C198 1.481 . S
C201 C202 1.387 . S
C201 C206 1.390 . S
C202 C201 1.387 . S
C202 C203 1.401 . S
C202 H223 0.930 . S
C203 C202 1.401 . S
C203 C204 1.376 . S
C203 C212 1.511 . S
C204 C203 1.376 . S
C204 C205 1.392 . S
C204 H225 0.931 . S
C205 C204 1.392 . S
C205 C206 1.361 . S
C205 C207 1.500 . S
C206 C201 1.390 . S
C206 C205 1.361 . S
C206 H224 0.931 . S
C207 C205 1.500 . S
C207 C208 1.371 . S
C207 C209 1.365 . S
C208 C207 1.371 . S
C208 C218 1.386 . S
C208 H226 0.931 . S
C209 C207 1.365 . S
C209 C210 1.409 . S
C209 H227 0.929 . S
C210 C209 1.409 . S
C210 C211 1.380 . S
C210 H228 0.930 . S
C211 C210 1.380 . S
C211 C218 1.357 . S
C212 C203 1.511 . S
C212 C213 1.341 . S
C212 C214 1.371 . S
C213 C212 1.341 . S
C213 C217 1.394 . S
C213 H229 0.930 . S
C214 C212 1.371 . S
C214 C215 1.392 . S
C214 H230 0.931 . S
C215 C214 1.392 . S
C215 C216 1.331 . S
C215 H233 0.932 . S
C216 C215 1.331 . S
C216 C217 1.336 . S
C217 C213 1.394 . S
C217 C216 1.336 . S
C217 H232 0.929 . S
C218 C208 1.386 . S
C218 C211 1.357 . S
C218 H231 0.928 . S
H219 C195 0.931 . S
H220 C197 0.930 . S
H221 C199 0.929 . S
H222 C200 0.931 . S
H223 C202 0.930 . S
H224 C206 0.931 . S
H225 C204 0.931 . S
H226 C208 0.931 . S
H227 C209 0.929 . S
H228 C210 0.930 . S
H229 C213 0.930 . S
H230 C214 0.931 . S
H231 C218 0.928 . S
H232 C217 0.929 . S
H233 C215 0.932 . S
C234 C235 1.386 . S
C234 C236 1.397 . S
C234 H258 0.931 . S
C235 C234 1.386 . S
C235 C239 1.397 . S
C236 C234 1.397 . S
C236 C237 1.384 . S
C236 H259 0.930 . S
C237 C236 1.384 . S
C237 C238 1.377 . S
C237 C240 1.481 . S
C238 C237 1.377 . S
C238 C239 1.389 . S
C238 H260 0.929 1_556 S
C239 C235 1.397 . S
C239 C238 1.389 . S
C239 H261 0.931 . S
C240 C237 1.481 . S
C240 C241 1.387 . S
C240 C245 1.390 1_556 S
C241 C240 1.387 . S
C241 C242 1.401 1_556 S
C241 H262 0.930 . S
C242 C241 1.401 1_554 S
C242 C243 1.376 . S
C242 C251 1.511 1_554 S
C243 C242 1.376 . S
C243 C244 1.392 . S
C243 H264 0.931 . S
C244 C243 1.392 . S
C244 C245 1.361 . S
C244 C246 1.500 . S
C245 C240 1.390 1_554 S
C245 C244 1.361 . S
C245 H263 0.931 . S
C246 C244 1.500 . S
C246 C247 1.371 . S
C246 C248 1.365 . S
C247 C246 1.371 . S
C247 C257 1.386 . S
C247 H265 0.931 . S
C248 C246 1.365 . S
C248 C249 1.409 . S
C248 H266 0.929 . S
C249 C248 1.409 . S
C249 C250 1.380 . S
C249 H267 0.930 . S
C250 C249 1.380 . S
C250 C257 1.357 . S
C251 C242 1.511 1_556 S
C251 C252 1.341 . S
C251 C253 1.371 1_556 S
C252 C251 1.341 . S
C252 C256 1.394 . S
C252 H268 0.930 . S
C253 C251 1.371 1_554 S
C253 C254 1.392 1_554 S
C253 H269 0.931 . S
C254 C253 1.392 1_556 S
C254 C255 1.331 . S
C254 H272 0.932 1_556 S
C255 C254 1.331 . S
C255 C256 1.336 . S
C256 C252 1.394 . S
C256 C255 1.336 . S
C256 H271 0.929 . S
C257 C247 1.386 . S
C257 C250 1.357 . S
C257 H270 0.928 . S
H258 C234 0.931 . S
H259 C236 0.930 . S
H260 C238 0.929 1_554 S
H261 C239 0.931 . S
H262 C241 0.930 . S
H263 C245 0.931 . S
H264 C243 0.931 . S
H265 C247 0.931 . S
H266 C248 0.929 . S
H267 C249 0.930 . S
H268 C252 0.930 . S
H269 C253 0.931 . S
H270 C257 0.928 . S
H271 C256 0.929 . S
H272 C254 0.932 1_554 S
C273 C274 1.386 . S
C273 C275 1.397 . S
C273 H297 0.931 . S
C274 C273 1.386 . S
C274 C278 1.397 . S
C275 C273 1.397 . S
C275 C276 1.384 . S
C275 H298 0.930 . S
C276 C275 1.384 . S
C276 C277 1.377 . S
C276 C279 1.481 . S
C277 C276 1.377 . S
C277 C278 1.389 . S
C277 H299 0.929 . S
C278 C274 1.397 . S
C278 C277 1.389 . S
C278 H300 0.931 . S
C279 C276 1.481 . S
C279 C280 1.387 . S
C279 C284 1.390 . S
C280 C279 1.387 . S
C280 C281 1.401 . S
C280 H301 0.930 . S
C281 C280 1.401 . S
C281 C282 1.376 . S
C281 C290 1.511 . S
C282 C281 1.376 . S
C282 C283 1.392 . S
C282 H303 0.931 . S
C283 C282 1.392 . S
C283 C284 1.361 . S
C283 C285 1.500 . S
C284 C279 1.390 . S
C284 C283 1.361 . S
C284 H302 0.931 . S
C285 C283 1.500 . S
C285 C286 1.371 . S
C285 C287 1.365 . S
C286 C285 1.371 . S
C286 C296 1.386 . S
C286 H304 0.931 . S
C287 C285 1.365 . S
C287 C288 1.409 . S
C287 H305 0.929 . S
C288 C287 1.409 . S
C288 C289 1.380 . S
C288 H306 0.930 . S
C289 C288 1.380 . S
C289 C296 1.357 . S
C290 C281 1.511 . S
C290 C291 1.341 . S
C290 C292 1.371 . S
C291 C290 1.341 . S
C291 C295 1.394 . S
C291 H307 0.930 . S
C292 C290 1.371 . S
C292 C293 1.392 . S
C292 H308 0.931 . S
C293 C292 1.392 . S
C293 C294 1.331 . S
C293 H311 0.932 . S
C294 C293 1.331 . S
C294 C295 1.336 . S
C295 C291 1.394 . S
C295 C294 1.336 . S
C295 H310 0.929 . S
C296 C286 1.386 . S
C296 C289 1.357 . S
C296 H309 0.928 . S
H297 C273 0.931 . S
H298 C275 0.930 . S
H299 C277 0.929 . S
H300 C278 0.931 . S
H301 C280 0.930 . S
H302 C284 0.931 . S
H303 C282 0.931 . S
H304 C286 0.931 . S
H305 C287 0.929 . S
H306 C288 0.930 . S
H307 C291 0.930 . S
H308 C292 0.931 . S
H309 C296 0.928 . S
H310 C295 0.929 . S
H311 C293 0.932 . S
Sc312 O315 2.025 . S
Sc312 O322 2.105 1_455 S
Sc312 O325 2.105 . S
Sc312 O328 2.105 . S
Sc312 O331 2.105 1_455 S
Sc313 O315 2.025 . S
Sc313 O323 2.105 1_455 S
Sc313 O327 2.105 . S
Sc313 O329 2.105 . S
Sc313 O333 2.105 1_455 S
Sc314 O315 2.025 . S
Sc314 O324 2.105 1_455 S
Sc314 O326 2.105 . S
Sc314 O330 2.105 . S
Sc314 O332 2.105 1_455 S
O315 Sc312 2.025 . S
O315 Sc313 2.025 . S
O315 Sc314 2.025 . S
C316 O322 1.268 . S
C316 O332 1.268 . S
C317 O323 1.268 . S
C317 O331 1.268 . S
C318 O324 1.268 . S
C318 O333 1.268 . S
C319 O325 1.268 . S
C319 O329 1.268 . S
C320 O326 1.268 . S
C320 O328 1.268 . S
C321 O327 1.268 . S
C321 O330 1.268 . S
O322 Sc312 2.105 1_655 S
O322 C316 1.268 . S
O323 Sc313 2.105 1_655 S
O323 C317 1.268 . S
O324 Sc314 2.105 1_655 S
O324 C318 1.268 . S
O325 Sc312 2.105 . S
O325 C319 1.268 . S
O326 Sc314 2.105 . S
O326 C320 1.268 . S
O327 Sc313 2.105 . S
O327 C321 1.268 . S
O328 Sc312 2.105 . S
O328 C320 1.268 . S
O329 Sc313 2.105 . S
O329 C319 1.268 . S
O330 Sc314 2.105 . S
O330 C321 1.268 . S
O331 Sc312 2.105 1_655 S
O331 C317 1.268 . S
O332 Sc314 2.105 1_655 S
O332 C316 1.268 . S
O333 Sc313 2.105 1_655 S
O333 C318 1.268 . S
Sc334 O337 2.025 . S
Sc334 O344 2.105 . S
Sc334 O347 2.105 1_455 S
Sc334 O350 2.105 1_455 S
Sc334 O353 2.105 . S
Sc335 O337 2.025 . S
Sc335 O345 2.105 . S
Sc335 O349 2.105 1_455 S
Sc335 O351 2.105 1_455 S
Sc335 O355 2.105 . S
Sc336 O337 2.025 . S
Sc336 O346 2.105 . S
Sc336 O348 2.105 1_455 S
Sc336 O352 2.105 1_455 S
Sc336 O354 2.105 . S
O337 Sc334 2.025 . S
O337 Sc335 2.025 . S
O337 Sc336 2.025 . S
C338 O344 1.268 . S
C338 O354 1.268 . S
C339 O345 1.268 . S
C339 O353 1.268 . S
C340 O346 1.268 . S
C340 O355 1.268 . S
C341 O347 1.268 . S
C341 O351 1.268 . S
C342 O348 1.268 . S
C342 O350 1.268 . S
C343 O349 1.268 . S
C343 O352 1.268 . S
O344 Sc334 2.105 . S
O344 C338 1.268 . S
O345 Sc335 2.105 . S
O345 C339 1.268 . S
O346 Sc336 2.105 . S
O346 C340 1.268 . S
O347 Sc334 2.105 1_655 S
O347 C341 1.268 . S
O348 Sc336 2.105 1_655 S
O348 C342 1.268 . S
O349 Sc335 2.105 1_655 S
O349 C343 1.268 . S
O350 Sc334 2.105 1_655 S
O350 C342 1.268 . S
O351 Sc335 2.105 1_655 S
O351 C341 1.268 . S
O352 Sc336 2.105 1_655 S
O352 C343 1.268 . S
O353 Sc334 2.105 . S
O353 C339 1.268 . S
O354 Sc336 2.105 . S
O354 C338 1.268 . S
O355 Sc335 2.105 . S
O355 C340 1.268 . S
Sc356 O359 2.025 . S
Sc356 O366 2.105 . S
Sc356 O369 2.105 . S
Sc356 O372 2.105 . S
Sc356 O375 2.105 . S
Sc357 O359 2.025 . S
Sc357 O367 2.105 . S
Sc357 O371 2.105 . S
Sc357 O373 2.105 . S
Sc357 O377 2.105 . S
Sc358 O359 2.025 . S
Sc358 O368 2.105 . S
Sc358 O370 2.105 . S
Sc358 O374 2.105 . S
Sc358 O376 2.105 . S
O359 Sc356 2.025 . S
O359 Sc357 2.025 . S
O359 Sc358 2.025 . S
C360 O366 1.268 . S
C360 O376 1.268 . S
C361 O367 1.268 . S
C361 O375 1.268 . S
C362 O368 1.268 . S
C362 O377 1.268 . S
C363 O369 1.268 . S
C363 O373 1.268 . S
C364 O370 1.268 . S
C364 O372 1.268 . S
C365 O371 1.268 . S
C365 O374 1.268 . S
O366 Sc356 2.105 . S
O366 C360 1.268 . S
O367 Sc357 2.105 . S
O367 C361 1.268 . S
O368 Sc358 2.105 . S
O368 C362 1.268 . S
O369 Sc356 2.105 . S
O369 C363 1.268 . S
O370 Sc358 2.105 . S
O370 C364 1.268 . S
O371 Sc357 2.105 . S
O371 C365 1.268 . S
O372 Sc356 2.105 . S
O372 C364 1.268 . S
O373 Sc357 2.105 . S
O373 C363 1.268 . S
O374 Sc358 2.105 . S
O374 C365 1.268 . S
O375 Sc356 2.105 . S
O375 C361 1.268 . S
O376 Sc358 2.105 . S
O376 C360 1.268 . S
O377 Sc357 2.105 . S
O377 C362 1.268 . S
Sc378 O381 2.025 . S
Sc378 O388 2.105 . S
Sc378 O391 2.105 . S
Sc378 O394 2.105 . S
Sc378 O397 2.105 . S
Sc379 O381 2.025 . S
Sc379 O389 2.105 . S
Sc379 O393 2.105 . S
Sc379 O395 2.105 . S
Sc379 O399 2.105 . S
Sc380 O381 2.025 . S
Sc380 O390 2.105 . S
Sc380 O392 2.105 . S
Sc380 O396 2.105 . S
Sc380 O398 2.105 . S
O381 Sc378 2.025 . S
O381 Sc379 2.025 . S
O381 Sc380 2.025 . S
C382 O388 1.268 . S
C382 O398 1.268 . S
C383 O389 1.268 . S
C383 O397 1.268 . S
C384 O390 1.268 . S
C384 O399 1.268 . S
C385 O391 1.268 . S
C385 O395 1.268 . S
C386 O392 1.268 . S
C386 O394 1.268 . S
C387 O393 1.268 . S
C387 O396 1.268 . S
O388 Sc378 2.105 . S
O388 C382 1.268 . S
O389 Sc379 2.105 . S
O389 C383 1.268 . S
O390 Sc380 2.105 . S
O390 C384 1.268 . S
O391 Sc378 2.105 . S
O391 C385 1.268 . S
O392 Sc380 2.105 . S
O392 C386 1.268 . S
O393 Sc379 2.105 . S
O393 C387 1.268 . S
O394 Sc378 2.105 . S
O394 C386 1.268 . S
O395 Sc379 2.105 . S
O395 C385 1.268 . S
O396 Sc380 2.105 . S
O396 C387 1.268 . S
O397 Sc378 2.105 . S
O397 C383 1.268 . S
O398 Sc380 2.105 . S
O398 C382 1.268 . S
O399 Sc379 2.105 . S
O399 C384 1.268 . S
H400 C418 0.951 . S
H401 C420 0.951 . S
H402 C422 0.950 . S
H403 C423 0.950 . S
H404 C425 0.950 . S
H405 C428 0.950 . S
H406 C429 0.950 . S
H407 C431 0.950 . S
H408 C432 0.950 . S
H409 C433 0.951 . S
H410 C435 0.951 . S
H411 C437 0.950 . S
H412 C438 0.950 . S
H413 C440 0.950 . S
H414 C443 0.950 . S
H415 C444 0.950 . S
H416 C446 0.950 . S
H417 C447 0.950 . S
C418 H400 0.951 . S
C418 C419 1.366 . S
C418 C420 1.388 . S
C419 C418 1.366 . S
C419 C423 1.385 . S
C420 H401 0.951 . S
C420 C418 1.388 . S
C420 C421 1.366 . S
C421 C420 1.366 . S
C421 C422 1.414 . S
C421 C424 1.499 . S
C422 H402 0.950 . S
C422 C421 1.414 . S
C422 C423 1.374 . S
C423 H403 0.950 . S
C423 C419 1.385 . S
C423 C422 1.374 . S
C424 C421 1.499 . S
C424 C425 1.373 . S
C424 C426 1.389 . S
C425 H404 0.950 . S
C425 C424 1.373 . S
C425 C441 1.377 . S
C426 C424 1.389 . S
C426 C427 1.524 . S
C426 C440 1.377 . S
C427 C426 1.524 . S
C427 C428 1.397 . S
C427 C432 1.363 . S
C428 H405 0.950 . S
C428 C427 1.397 . S
C428 C429 1.334 . S
C429 H406 0.950 . S
C429 C428 1.334 . S
C429 C430 1.287 . S
C430 C429 1.287 . S
C430 C431 1.524 . S
C430 H449 0.913 . S
C431 H407 0.950 . S
C431 C430 1.524 . S
C431 C432 1.415 . S
C432 H408 0.950 . S
C432 C427 1.363 . S
C432 C431 1.415 . S
C433 H409 0.951 . S
C433 C434 1.366 . S
C433 C435 1.388 . S
C434 C433 1.366 . S
C434 C438 1.385 . S
C435 H410 0.951 . S
C435 C433 1.388 . S
C435 C436 1.366 . S
C436 C435 1.366 . S
C436 C437 1.414 . S
C436 C439 1.499 . S
C437 H411 0.950 . S
C437 C436 1.414 . S
C437 C438 1.374 . S
C438 H412 0.950 . S
C438 C434 1.385 . S
C438 C437 1.374 . S
C439 C436 1.499 . S
C439 C440 1.373 . S
C439 C441 1.389 . S
C440 H413 0.950 . S
C440 C426 1.377 . S
C440 C439 1.373 . S
C441 C425 1.377 . S
C441 C439 1.389 . S
C441 C442 1.524 . S
C442 C441 1.524 . S
C442 C443 1.397 . S
C442 C447 1.363 . S
C443 H414 0.950 . S
C443 C442 1.397 . S
C443 C444 1.334 . S
C444 H415 0.950 . S
C444 C443 1.334 . S
C444 C445 1.287 . S
C445 C444 1.287 . S
C445 C446 1.524 . S
C445 H448 0.999 . S
C446 H416 0.950 . S
C446 C445 1.524 . S
C446 C447 1.415 . S
C447 H417 0.950 . S
C447 C442 1.363 . S
C447 C446 1.415 . S
H448 C445 0.999 . S
H449 C430 0.913 . S
H450 C468 0.951 . S
H451 C470 0.951 . S
H452 C472 0.950 . S
H453 C473 0.950 . S
H454 C475 0.950 . S
H455 C478 0.950 . S
H456 C479 0.950 . S
H457 C481 0.950 . S
H458 C482 0.950 . S
H459 C483 0.951 . S
H460 C485 0.951 . S
H461 C487 0.950 . S
H462 C488 0.950 . S
H463 C490 0.950 . S
H464 C493 0.950 . S
H465 C494 0.950 . S
H466 C496 0.950 . S
H467 C497 0.950 . S
C468 H450 0.951 . S
C468 C469 1.366 . S
C468 C470 1.388 . S
C469 C468 1.366 . S
C469 C473 1.385 . S
C470 H451 0.951 . S
C470 C468 1.388 . S
C470 C471 1.366 . S
C471 C470 1.366 . S
C471 C472 1.414 . S
C471 C474 1.499 . S
C472 H452 0.950 . S
C472 C471 1.414 . S
C472 C473 1.374 . S
C473 H453 0.950 . S
C473 C469 1.385 . S
C473 C472 1.374 . S
C474 C471 1.499 . S
C474 C475 1.373 . S
C474 C476 1.389 . S
C475 H454 0.950 . S
C475 C474 1.373 . S
C475 C491 1.377 . S
C476 C474 1.389 . S
C476 C477 1.524 . S
C476 C490 1.377 . S
C477 C476 1.524 . S
C477 C478 1.397 . S
C477 C482 1.363 . S
C478 H455 0.950 . S
C478 C477 1.397 . S
C478 C479 1.334 . S
C479 H456 0.950 . S
C479 C478 1.334 . S
C479 C480 1.287 . S
C480 C479 1.287 . S
C480 C481 1.524 . S
C480 H499 0.913 . S
C481 H457 0.950 . S
C481 C480 1.524 . S
C481 C482 1.415 . S
C482 H458 0.950 . S
C482 C477 1.363 . S
C482 C481 1.415 . S
C483 H459 0.951 . S
C483 C484 1.366 . S
C483 C485 1.388 . S
C484 C483 1.366 . S
C484 C488 1.385 . S
C485 H460 0.951 . S
C485 C483 1.388 . S
C485 C486 1.366 . S
C486 C485 1.366 . S
C486 C487 1.414 . S
C486 C489 1.499 . S
C487 H461 0.950 . S
C487 C486 1.414 . S
C487 C488 1.374 . S
C488 H462 0.950 . S
C488 C484 1.385 . S
C488 C487 1.374 . S
C489 C486 1.499 . S
C489 C490 1.373 . S
C489 C491 1.389 . S
C490 H463 0.950 . S
C490 C476 1.377 . S
C490 C489 1.373 . S
C491 C475 1.377 . S
C491 C489 1.389 . S
C491 C492 1.524 . S
C492 C491 1.524 . S
C492 C493 1.397 . S
C492 C497 1.363 . S
C493 H464 0.950 . S
C493 C492 1.397 . S
C493 C494 1.334 . S
C494 H465 0.950 . S
C494 C493 1.334 . S
C494 C495 1.287 . S
C495 C494 1.287 . S
C495 C496 1.524 . S
C495 H498 0.999 . S
C496 H466 0.950 . S
C496 C495 1.524 . S
C496 C497 1.415 . S
C497 H467 0.950 . S
C497 C492 1.363 . S
C497 C496 1.415 . S
H498 C495 0.999 . S
H499 C480 0.913 . S
H500 C518 0.951 . S
H501 C520 0.951 . S
H502 C522 0.950 . S
H503 C523 0.950 . S
H504 C525 0.950 . S
H505 C528 0.950 . S
H506 C529 0.950 . S
H507 C531 0.950 . S
H508 C532 0.950 . S
H509 C533 0.951 . S
H510 C535 0.951 . S
H511 C537 0.950 . S
H512 C538 0.950 . S
H513 C540 0.950 . S
H514 C543 0.950 . S
H515 C544 0.950 . S
H516 C546 0.950 . S
H517 C547 0.950 . S
C518 H500 0.951 . S
C518 C519 1.366 . S
C518 C520 1.388 . S
C519 C518 1.366 . S
C519 C523 1.385 . S
C520 H501 0.951 . S
C520 C518 1.388 . S
C520 C521 1.366 . S
C521 C520 1.366 . S
C521 C522 1.414 . S
C521 C524 1.499 . S
C522 H502 0.950 . S
C522 C521 1.414 . S
C522 C523 1.374 . S
C523 H503 0.950 . S
C523 C519 1.385 . S
C523 C522 1.374 . S
C524 C521 1.499 . S
C524 C525 1.373 . S
C524 C526 1.389 . S
C525 H504 0.950 . S
C525 C524 1.373 . S
C525 C541 1.377 . S
C526 C524 1.389 . S
C526 C527 1.524 . S
C526 C540 1.377 . S
C527 C526 1.524 . S
C527 C528 1.397 . S
C527 C532 1.363 . S
C528 H505 0.950 . S
C528 C527 1.397 . S
C528 C529 1.334 . S
C529 H506 0.950 . S
C529 C528 1.334 . S
C529 C530 1.287 . S
C530 C529 1.287 . S
C530 C531 1.524 . S
C530 H549 0.913 . S
C531 H507 0.950 . S
C531 C530 1.524 . S
C531 C532 1.415 . S
C532 H508 0.950 . S
C532 C527 1.363 . S
C532 C531 1.415 . S
C533 H509 0.951 . S
C533 C534 1.366 . S
C533 C535 1.388 . S
C534 C533 1.366 . S
C534 C538 1.385 . S
C535 H510 0.951 . S
C535 C533 1.388 . S
C535 C536 1.366 . S
C536 C535 1.366 . S
C536 C537 1.414 . S
C536 C539 1.499 . S
C537 H511 0.950 . S
C537 C536 1.414 . S
C537 C538 1.374 . S
C538 H512 0.950 . S
C538 C534 1.385 . S
C538 C537 1.374 . S
C539 C536 1.499 . S
C539 C540 1.373 . S
C539 C541 1.389 . S
C540 H513 0.950 . S
C540 C526 1.377 . S
C540 C539 1.373 . S
C541 C525 1.377 . S
C541 C539 1.389 . S
C541 C542 1.524 . S
C542 C541 1.524 . S
C542 C543 1.397 . S
C542 C547 1.363 . S
C543 H514 0.950 . S
C543 C542 1.397 . S
C543 C544 1.334 . S
C544 H515 0.950 . S
C544 C543 1.334 . S
C544 C545 1.287 . S
C545 C544 1.287 . S
C545 C546 1.524 . S
C545 H548 0.999 . S
C546 H516 0.950 . S
C546 C545 1.524 . S
C546 C547 1.415 . S
C547 H517 0.950 . S
C547 C542 1.363 . S
C547 C546 1.415 . S
H548 C545 0.999 . S
H549 C530 0.913 . S
H550 C568 0.951 . S
H551 C570 0.951 . S
H552 C572 0.950 . S
H553 C573 0.950 . S
H554 C575 0.950 . S
H555 C578 0.950 . S
H556 C579 0.950 . S
H557 C581 0.950 . S
H558 C582 0.950 . S
H559 C583 0.951 . S
H560 C585 0.951 . S
H561 C587 0.950 . S
H562 C588 0.950 . S
H563 C590 0.950 . S
H564 C593 0.950 . S
H565 C594 0.950 . S
H566 C596 0.950 . S
H567 C597 0.950 . S
C568 H550 0.951 . S
C568 C569 1.366 . S
C568 C570 1.388 . S
C569 C568 1.366 . S
C569 C573 1.385 . S
C570 H551 0.951 . S
C570 C568 1.388 . S
C570 C571 1.366 . S
C571 C570 1.366 . S
C571 C572 1.414 . S
C571 C574 1.499 . S
C572 H552 0.950 . S
C572 C571 1.414 . S
C572 C573 1.374 . S
C573 H553 0.950 . S
C573 C569 1.385 . S
C573 C572 1.374 . S
C574 C571 1.499 . S
C574 C575 1.373 . S
C574 C576 1.389 . S
C575 H554 0.950 . S
C575 C574 1.373 . S
C575 C591 1.377 . S
C576 C574 1.389 . S
C576 C577 1.524 . S
C576 C590 1.377 . S
C577 C576 1.524 . S
C577 C578 1.397 . S
C577 C582 1.363 . S
C578 H555 0.950 . S
C578 C577 1.397 . S
C578 C579 1.334 . S
C579 H556 0.950 . S
C579 C578 1.334 . S
C579 C580 1.287 . S
C580 C579 1.287 . S
C580 C581 1.524 . S
C580 H599 0.913 . S
C581 H557 0.950 . S
C581 C580 1.524 . S
C581 C582 1.415 . S
C582 H558 0.950 . S
C582 C577 1.363 . S
C582 C581 1.415 . S
C583 H559 0.951 . S
C583 C584 1.366 . S
C583 C585 1.388 . S
C584 C583 1.366 . S
C584 C588 1.385 . S
C585 H560 0.951 . S
C585 C583 1.388 . S
C585 C586 1.366 . S
C586 C585 1.366 . S
C586 C587 1.414 . S
C586 C589 1.499 . S
C587 H561 0.950 . S
C587 C586 1.414 . S
C587 C588 1.374 . S
C588 H562 0.950 . S
C588 C584 1.385 . S
C588 C587 1.374 . S
C589 C586 1.499 . S
C589 C590 1.373 . S
C589 C591 1.389 . S
C590 H563 0.950 . S
C590 C576 1.377 . S
C590 C589 1.373 . S
C591 C575 1.377 . S
C591 C589 1.389 . S
C591 C592 1.524 . S
C592 C591 1.524 . S
C592 C593 1.397 . S
C592 C597 1.363 . S
C593 H564 0.950 . S
C593 C592 1.397 . S
C593 C594 1.334 . S
C594 H565 0.950 . S
C594 C593 1.334 . S
C594 C595 1.287 . S
C595 C594 1.287 . S
C595 C596 1.524 . S
C595 H598 0.999 . S
C596 H566 0.950 . S
C596 C595 1.524 . S
C596 C597 1.415 . S
C597 H567 0.950 . S
C597 C592 1.363 . S
C597 C596 1.415 . S
H598 C595 0.999 . S
H599 C580 0.913 . S
H600 C618 0.951 . S
H601 C620 0.951 . S
H602 C622 0.950 . S
H603 C623 0.950 . S
H604 C625 0.950 . S
H605 C628 0.950 . S
H606 C629 0.950 1_554 S
H607 C631 0.950 . S
H608 C632 0.950 . S
H609 C633 0.951 . S
H610 C635 0.951 . S
H611 C637 0.950 . S
H612 C638 0.950 . S
H613 C640 0.950 . S
H614 C643 0.950 . S
H615 C644 0.950 . S
H616 C646 0.950 . S
H617 C647 0.950 . S
C618 H600 0.951 . S
C618 C619 1.366 . S
C618 C620 1.388 . S
C619 C618 1.366 . S
C619 C623 1.385 . S
C620 H601 0.951 . S
C620 C618 1.388 . S
C620 C621 1.366 . S
C621 C620 1.366 . S
C621 C622 1.414 . S
C621 C624 1.499 . S
C622 H602 0.950 . S
C622 C621 1.414 . S
C622 C623 1.374 . S
C623 H603 0.950 . S
C623 C619 1.385 . S
C623 C622 1.374 . S
C624 C621 1.499 . S
C624 C625 1.373 . S
C624 C626 1.389 . S
C625 H604 0.950 . S
C625 C624 1.373 . S
C625 C641 1.377 . S
C626 C624 1.389 . S
C626 C627 1.524 . S
C626 C640 1.377 . S
C627 C626 1.524 . S
C627 C628 1.397 . S
C627 C632 1.363 . S
C628 H605 0.950 . S
C628 C627 1.397 . S
C628 C629 1.334 . S
C629 H606 0.950 1_556 S
C629 C628 1.334 . S
C629 C630 1.291 . S
C630 C629 1.291 . S
C630 C631 1.550 . S
C630 H649 0.880 1_556 S
C631 H607 0.950 . S
C631 C630 1.550 . S
C631 C632 1.415 . S
C632 H608 0.950 . S
C632 C627 1.363 . S
C632 C631 1.415 . S
C633 H609 0.951 . S
C633 C634 1.366 . S
C633 C635 1.388 . S
C634 C633 1.366 . S
C634 C638 1.385 . S
C635 H610 0.951 . S
C635 C633 1.388 . S
C635 C636 1.366 . S
C636 C635 1.366 . S
C636 C637 1.414 . S
C636 C639 1.499 . S
C637 H611 0.950 . S
C637 C636 1.414 . S
C637 C638 1.374 . S
C638 H612 0.950 . S
C638 C634 1.385 . S
C638 C637 1.374 . S
C639 C636 1.499 . S
C639 C640 1.373 . S
C639 C641 1.389 . S
C640 H613 0.950 . S
C640 C626 1.377 . S
C640 C639 1.373 . S
C641 C625 1.377 . S
C641 C639 1.389 . S
C641 C642 1.524 . S
C642 C641 1.524 . S
C642 C643 1.397 . S
C642 C647 1.363 . S
C643 H614 0.950 . S
C643 C642 1.397 . S
C643 C644 1.334 . S
C644 H615 0.950 . S
C644 C643 1.334 . S
C644 C645 1.287 . S
C645 C644 1.287 . S
C645 C646 1.524 . S
C645 H648 0.999 . S
C646 H616 0.950 . S
C646 C645 1.524 . S
C646 C647 1.415 . S
C647 H617 0.950 . S
C647 C642 1.363 . S
C647 C646 1.415 . S
H648 C645 0.999 . S
H649 C630 0.880 1_554 S
H650 C668 0.951 . S
H651 C670 0.951 . S
H652 C672 0.950 . S
H653 C673 0.950 . S
H654 C675 0.950 . S
H655 C678 0.950 . S
H656 C679 0.950 . S
H657 C681 0.950 . S
H658 C682 0.950 . S
H659 C683 0.951 . S
H660 C685 0.951 . S
H661 C687 0.950 . S
H662 C688 0.950 . S
H663 C690 0.950 . S
H664 C693 0.950 . S
H665 C694 0.950 . S
H666 C696 0.950 . S
H667 C697 0.950 . S
C668 H650 0.951 . S
C668 C669 1.366 . S
C668 C670 1.388 . S
C669 C668 1.366 . S
C669 C673 1.385 . S
C670 H651 0.951 . S
C670 C668 1.388 . S
C670 C671 1.366 . S
C671 C670 1.366 . S
C671 C672 1.414 . S
C671 C674 1.499 . S
C672 H652 0.950 . S
C672 C671 1.414 . S
C672 C673 1.374 . S
C673 H653 0.950 . S
C673 C669 1.385 . S
C673 C672 1.374 . S
C674 C671 1.499 . S
C674 C675 1.373 . S
C674 C676 1.389 . S
C675 H654 0.950 . S
C675 C674 1.373 . S
C675 C691 1.377 . S
C676 C674 1.389 . S
C676 C677 1.524 . S
C676 C690 1.377 . S
C677 C676 1.524 . S
C677 C678 1.397 . S
C677 C682 1.363 . S
C678 H655 0.950 . S
C678 C677 1.397 . S
C678 C679 1.334 . S
C679 H656 0.950 . S
C679 C678 1.334 . S
C679 C680 1.287 . S
C680 C679 1.287 . S
C680 C681 1.524 . S
C680 H699 0.913 . S
C681 H657 0.950 . S
C681 C680 1.524 . S
C681 C682 1.415 . S
C682 H658 0.950 . S
C682 C677 1.363 . S
C682 C681 1.415 . S
C683 H659 0.951 . S
C683 C684 1.366 . S
C683 C685 1.388 . S
C684 C683 1.366 . S
C684 C688 1.385 . S
C685 H660 0.951 . S
C685 C683 1.388 . S
C685 C686 1.366 . S
C686 C685 1.366 . S
C686 C687 1.414 . S
C686 C689 1.499 . S
C687 H661 0.950 . S
C687 C686 1.414 . S
C687 C688 1.374 . S
C688 H662 0.950 . S
C688 C684 1.385 . S
C688 C687 1.374 . S
C689 C686 1.499 . S
C689 C690 1.373 . S
C689 C691 1.389 . S
C690 H663 0.950 . S
C690 C676 1.377 . S
C690 C689 1.373 . S
C691 C675 1.377 . S
C691 C689 1.389 . S
C691 C692 1.524 . S
C692 C691 1.524 . S
C692 C693 1.397 . S
C692 C697 1.363 . S
C693 H664 0.950 . S
C693 C692 1.397 . S
C693 C694 1.334 . S
C694 H665 0.950 . S
C694 C693 1.334 . S
C694 C695 1.287 . S
C695 C694 1.287 . S
C695 C696 1.524 . S
C695 H698 0.999 . S
C696 H666 0.950 . S
C696 C695 1.524 . S
C696 C697 1.415 . S
C697 H667 0.950 . S
C697 C692 1.363 . S
C697 C696 1.415 . S
H698 C695 0.999 . S
H699 C680 0.913 . S
H700 C718 0.951 . S
H701 C720 0.951 . S
H702 C722 0.950 . S
H703 C723 0.950 . S
H704 C725 0.950 . S
H705 C728 0.950 . S
H706 C729 0.950 . S
H707 C731 0.950 . S
H708 C732 0.950 . S
H709 C733 0.951 . S
H710 C735 0.951 . S
H711 C737 0.950 . S
H712 C738 0.950 . S
H713 C740 0.950 . S
H714 C743 0.950 . S
H715 C744 0.950 . S
H716 C746 0.950 . S
H717 C747 0.950 . S
C718 H700 0.951 . S
C718 C719 1.366 . S
C718 C720 1.388 . S
C719 C718 1.366 . S
C719 C723 1.385 . S
C720 H701 0.951 . S
C720 C718 1.388 . S
C720 C721 1.366 . S
C721 C720 1.366 . S
C721 C722 1.414 . S
C721 C724 1.499 . S
C722 H702 0.950 . S
C722 C721 1.414 . S
C722 C723 1.374 . S
C723 H703 0.950 . S
C723 C719 1.385 . S
C723 C722 1.374 . S
C724 C721 1.499 . S
C724 C725 1.373 . S
C724 C726 1.389 . S
C725 H704 0.950 . S
C725 C724 1.373 . S
C725 C741 1.377 . S
C726 C724 1.389 . S
C726 C727 1.524 . S
C726 C740 1.377 . S
C727 C726 1.524 . S
C727 C728 1.397 . S
C727 C732 1.363 . S
C728 H705 0.950 . S
C728 C727 1.397 . S
C728 C729 1.334 . S
C729 H706 0.950 . S
C729 C728 1.334 . S
C729 C730 1.287 . S
C730 C729 1.287 . S
C730 C731 1.524 . S
C730 H749 0.913 . S
C731 H707 0.950 . S
C731 C730 1.524 . S
C731 C732 1.415 . S
C732 H708 0.950 . S
C732 C727 1.363 . S
C732 C731 1.415 . S
C733 H709 0.951 . S
C733 C734 1.366 . S
C733 C735 1.388 . S
C734 C733 1.366 . S
C734 C738 1.385 . S
C735 H710 0.951 . S
C735 C733 1.388 . S
C735 C736 1.366 . S
C736 C735 1.366 . S
C736 C737 1.414 . S
C736 C739 1.499 . S
C737 H711 0.950 . S
C737 C736 1.414 . S
C737 C738 1.374 . S
C738 H712 0.950 . S
C738 C734 1.385 . S
C738 C737 1.374 . S
C739 C736 1.499 . S
C739 C740 1.373 . S
C739 C741 1.389 . S
C740 H713 0.950 . S
C740 C726 1.377 . S
C740 C739 1.373 . S
C741 C725 1.377 . S
C741 C739 1.389 . S
C741 C742 1.524 . S
C742 C741 1.524 . S
C742 C743 1.397 . S
C742 C747 1.363 . S
C743 H714 0.950 . S
C743 C742 1.397 . S
C743 C744 1.334 . S
C744 H715 0.950 . S
C744 C743 1.334 . S
C744 C745 1.287 . S
C745 C744 1.287 . S
C745 C746 1.524 . S
C745 H748 0.999 . S
C746 H716 0.950 . S
C746 C745 1.524 . S
C746 C747 1.415 . S
C747 H717 0.950 . S
C747 C742 1.363 . S
C747 C746 1.415 . S
H748 C745 0.999 . S
H749 C730 0.913 . S
H750 C768 0.951 . S
H751 C770 0.951 . S
H752 C772 0.950 . S
H753 C773 0.950 . S
H754 C775 0.950 . S
H755 C778 0.950 . S
H756 C779 0.950 . S
H757 C781 0.950 . S
H758 C782 0.950 . S
H759 C783 0.951 . S
H760 C785 0.951 . S
H761 C787 0.950 . S
H762 C788 0.950 . S
H763 C790 0.950 . S
H764 C793 0.950 . S
H765 C794 0.950 . S
H766 C796 0.950 . S
H767 C797 0.950 . S
C768 H750 0.951 . S
C768 C769 1.366 . S
C768 C770 1.388 . S
C769 C768 1.366 . S
C769 C773 1.385 . S
C770 H751 0.951 . S
C770 C768 1.388 . S
C770 C771 1.366 . S
C771 C770 1.366 . S
C771 C772 1.414 . S
C771 C774 1.499 . S
C772 H752 0.950 . S
C772 C771 1.414 . S
C772 C773 1.374 . S
C773 H753 0.950 . S
C773 C769 1.385 . S
C773 C772 1.374 . S
C774 C771 1.499 . S
C774 C775 1.373 . S
C774 C776 1.389 . S
C775 H754 0.950 . S
C775 C774 1.373 . S
C775 C791 1.377 . S
C776 C774 1.389 . S
C776 C777 1.524 . S
C776 C790 1.377 . S
C777 C776 1.524 . S
C777 C778 1.397 . S
C777 C782 1.363 . S
C778 H755 0.950 . S
C778 C777 1.397 . S
C778 C779 1.334 . S
C779 H756 0.950 . S
C779 C778 1.334 . S
C779 C780 1.287 . S
C780 C779 1.287 . S
C780 C781 1.524 . S
C780 H799 0.913 . S
C781 H757 0.950 . S
C781 C780 1.524 . S
C781 C782 1.415 . S
C782 H758 0.950 . S
C782 C777 1.363 . S
C782 C781 1.415 . S
C783 H759 0.951 . S
C783 C784 1.366 . S
C783 C785 1.388 . S
C784 C783 1.366 . S
C784 C788 1.385 . S
C785 H760 0.951 . S
C785 C783 1.388 . S
C785 C786 1.366 . S
C786 C785 1.366 . S
C786 C787 1.414 . S
C786 C789 1.499 . S
C787 H761 0.950 . S
C787 C786 1.414 . S
C787 C788 1.374 . S
C788 H762 0.950 . S
C788 C784 1.385 . S
C788 C787 1.374 . S
C789 C786 1.499 . S
C789 C790 1.373 . S
C789 C791 1.389 . S
C790 H763 0.950 . S
C790 C776 1.377 . S
C790 C789 1.373 . S
C791 C775 1.377 . S
C791 C789 1.389 . S
C791 C792 1.524 . S
C792 C791 1.524 . S
C792 C793 1.397 . S
C792 C797 1.363 . S
C793 H764 0.950 . S
C793 C792 1.397 . S
C793 C794 1.334 . S
C794 H765 0.950 . S
C794 C793 1.334 . S
C794 C795 1.287 . S
C795 C794 1.287 . S
C795 C796 1.524 . S
C795 H798 0.999 . S
C796 H766 0.950 . S
C796 C795 1.524 . S
C796 C797 1.415 . S
C797 H767 0.950 . S
C797 C792 1.363 . S
C797 C796 1.415 . S
H798 C795 0.999 . S
H799 C780 0.913 . S
H800 C818 0.951 . S
H801 C820 0.951 . S
H802 C822 0.950 . S
H803 C823 0.950 . S
H804 C825 0.950 . S
H805 C828 0.950 . S
H806 C829 0.950 . S
H807 C831 0.950 . S
H808 C832 0.950 . S
H809 C833 0.951 . S
H810 C835 0.951 . S
H811 C837 0.950 . S
H812 C838 0.950 . S
H813 C840 0.950 . S
H814 C843 0.950 . S
H815 C844 0.950 . S
H816 C846 0.950 . S
H817 C847 0.950 . S
C818 H800 0.951 . S
C818 C819 1.366 . S
C818 C820 1.388 . S
C819 C818 1.366 . S
C819 C823 1.385 . S
C820 H801 0.951 . S
C820 C818 1.388 . S
C820 C821 1.366 . S
C821 C820 1.366 . S
C821 C822 1.414 . S
C821 C824 1.499 . S
C822 H802 0.950 . S
C822 C821 1.414 . S
C822 C823 1.374 . S
C823 H803 0.950 . S
C823 C819 1.385 . S
C823 C822 1.374 . S
C824 C821 1.499 . S
C824 C825 1.373 . S
C824 C826 1.389 . S
C825 H804 0.950 . S
C825 C824 1.373 . S
C825 C841 1.377 . S
C826 C824 1.389 . S
C826 C827 1.524 . S
C826 C840 1.377 . S
C827 C826 1.524 . S
C827 C828 1.397 . S
C827 C832 1.363 . S
C828 H805 0.950 . S
C828 C827 1.397 . S
C828 C829 1.334 . S
C829 H806 0.950 . S
C829 C828 1.334 . S
C829 C830 1.287 . S
C830 C829 1.287 . S
C830 C831 1.524 . S
C830 H849 0.913 . S
C831 H807 0.950 . S
C831 C830 1.524 . S
C831 C832 1.415 . S
C832 H808 0.950 . S
C832 C827 1.363 . S
C832 C831 1.415 . S
C833 H809 0.951 . S
C833 C834 1.366 . S
C833 C835 1.388 . S
C834 C833 1.366 . S
C834 C838 1.385 . S
C835 H810 0.951 . S
C835 C833 1.388 . S
C835 C836 1.366 . S
C836 C835 1.366 . S
C836 C837 1.414 . S
C836 C839 1.499 . S
C837 H811 0.950 . S
C837 C836 1.414 . S
C837 C838 1.374 . S
C838 H812 0.950 . S
C838 C834 1.385 . S
C838 C837 1.374 . S
C839 C836 1.499 . S
C839 C840 1.373 . S
C839 C841 1.389 . S
C840 H813 0.950 . S
C840 C826 1.377 . S
C840 C839 1.373 . S
C841 C825 1.377 . S
C841 C839 1.389 . S
C841 C842 1.524 . S
C842 C841 1.524 . S
C842 C843 1.397 . S
C842 C847 1.363 . S
C843 H814 0.950 . S
C843 C842 1.397 . S
C843 C844 1.334 . S
C844 H815 0.950 . S
C844 C843 1.334 . S
C844 C845 1.287 . S
C845 C844 1.287 . S
C845 C846 1.524 . S
C845 H848 0.999 . S
C846 H816 0.950 . S
C846 C845 1.524 . S
C846 C847 1.415 . S
C847 H817 0.950 . S
C847 C842 1.363 . S
C847 C846 1.415 . S
H848 C845 0.999 . S
H849 C830 0.913 . S
H850 C868 0.951 . S
H851 C870 0.951 . S
H852 C872 0.950 . S
H853 C873 0.950 . S
H854 C875 0.950 . S
H855 C878 0.950 . S
H856 C879 0.950 . S
H857 C881 0.950 . S
H858 C882 0.950 . S
H859 C883 0.951 . S
H860 C885 0.951 . S
H861 C887 0.950 . S
H862 C888 0.950 . S
H863 C890 0.950 . S
H864 C893 0.950 . S
H865 C894 0.950 . S
H866 C896 0.950 . S
H867 C897 0.950 . S
C868 H850 0.951 . S
C868 C869 1.366 . S
C868 C870 1.388 . S
C869 C868 1.366 . S
C869 C873 1.385 . S
C870 H851 0.951 . S
C870 C868 1.388 . S
C870 C871 1.366 . S
C871 C870 1.366 . S
C871 C872 1.414 . S
C871 C874 1.499 . S
C872 H852 0.950 . S
C872 C871 1.414 . S
C872 C873 1.374 . S
C873 H853 0.950 . S
C873 C869 1.385 . S
C873 C872 1.374 . S
C874 C871 1.499 . S
C874 C875 1.373 . S
C874 C876 1.389 . S
C875 H854 0.950 . S
C875 C874 1.373 . S
C875 C891 1.377 . S
C876 C874 1.389 . S
C876 C877 1.524 . S
C876 C890 1.377 . S
C877 C876 1.524 . S
C877 C878 1.397 . S
C877 C882 1.363 . S
C878 H855 0.950 . S
C878 C877 1.397 . S
C878 C879 1.334 . S
C879 H856 0.950 . S
C879 C878 1.334 . S
C879 C880 1.287 . S
C880 C879 1.287 . S
C880 C881 1.524 . S
C880 H899 0.913 . S
C881 H857 0.950 . S
C881 C880 1.524 . S
C881 C882 1.415 . S
C882 H858 0.950 . S
C882 C877 1.363 . S
C882 C881 1.415 . S
C883 H859 0.951 . S
C883 C884 1.366 . S
C883 C885 1.388 . S
C884 C883 1.366 . S
C884 C888 1.385 . S
C885 H860 0.951 . S
C885 C883 1.388 . S
C885 C886 1.366 . S
C886 C885 1.366 . S
C886 C887 1.414 . S
C886 C889 1.499 . S
C887 H861 0.950 . S
C887 C886 1.414 . S
C887 C888 1.374 . S
C888 H862 0.950 . S
C888 C884 1.385 . S
C888 C887 1.374 . S
C889 C886 1.499 . S
C889 C890 1.373 . S
C889 C891 1.389 . S
C890 H863 0.950 . S
C890 C876 1.377 . S
C890 C889 1.373 . S
C891 C875 1.377 . S
C891 C889 1.389 . S
C891 C892 1.524 . S
C892 C891 1.524 . S
C892 C893 1.397 . S
C892 C897 1.363 . S
C893 H864 0.950 . S
C893 C892 1.397 . S
C893 C894 1.334 . S
C894 H865 0.950 . S
C894 C893 1.334 . S
C894 C895 1.287 . S
C895 C894 1.287 . S
C895 C896 1.524 . S
C895 H898 0.999 . S
C896 H866 0.950 . S
C896 C895 1.524 . S
C896 C897 1.415 . S
C897 H867 0.950 . S
C897 C892 1.363 . S
C897 C896 1.415 . S
H898 C895 0.999 . S
H899 C880 0.913 . S
H900 C918 0.951 . S
H901 C920 0.951 . S
H902 C922 0.950 . S
H903 C923 0.950 . S
H904 C925 0.950 . S
H905 C928 0.950 . S
H906 C929 0.950 . S
H907 C931 0.950 1_554 S
H908 C932 0.950 . S
H909 C933 0.951 . S
H910 C935 0.951 . S
H911 C937 0.950 . S
H912 C938 0.950 . S
H913 C940 0.950 . S
H914 C943 0.950 . S
H915 C944 0.950 . S
H916 C946 0.950 . S
H917 C947 0.950 . S
C918 H900 0.951 . S
C918 C919 1.366 . S
C918 C920 1.388 . S
C919 C918 1.366 . S
C919 C923 1.385 . S
C920 H901 0.951 . S
C920 C918 1.388 . S
C920 C921 1.366 . S
C921 C920 1.366 . S
C921 C922 1.414 . S
C921 C924 1.499 . S
C922 H902 0.950 . S
C922 C921 1.414 . S
C922 C923 1.374 . S
C923 H903 0.950 . S
C923 C919 1.385 . S
C923 C922 1.374 . S
C924 C921 1.499 . S
C924 C925 1.373 . S
C924 C926 1.389 . S
C925 H904 0.950 . S
C925 C924 1.373 . S
C925 C941 1.377 . S
C926 C924 1.389 . S
C926 C927 1.524 . S
C926 C940 1.377 . S
C927 C926 1.524 . S
C927 C928 1.397 . S
C927 C932 1.363 . S
C928 H905 0.950 . S
C928 C927 1.397 . S
C928 C929 1.334 . S
C929 H906 0.950 . S
C929 C928 1.334 . S
C929 C930 1.287 . S
C930 C929 1.287 . S
C930 C931 1.524 . S
C930 H949 0.885 1_556 S
C931 H907 0.950 1_556 S
C931 C930 1.524 . S
C931 C932 1.415 . S
C932 H908 0.950 . S
C932 C927 1.363 . S
C932 C931 1.415 . S
C933 H909 0.951 . S
C933 C934 1.366 . S
C933 C935 1.388 . S
C934 C933 1.366 . S
C934 C938 1.385 . S
C935 H910 0.951 . S
C935 C933 1.388 . S
C935 C936 1.366 . S
C936 C935 1.366 . S
C936 C937 1.414 . S
C936 C939 1.499 . S
C937 H911 0.950 . S
C937 C936 1.414 . S
C937 C938 1.374 . S
C938 H912 0.950 . S
C938 C934 1.385 . S
C938 C937 1.374 . S
C939 C936 1.499 . S
C939 C940 1.373 . S
C939 C941 1.389 . S
C940 H913 0.950 . S
C940 C926 1.377 . S
C940 C939 1.373 . S
C941 C925 1.377 . S
C941 C939 1.389 . S
C941 C942 1.524 . S
C942 C941 1.524 . S
C942 C943 1.397 . S
C942 C947 1.363 . S
C943 H914 0.950 . S
C943 C942 1.397 . S
C943 C944 1.334 . S
C944 H915 0.950 . S
C944 C943 1.334 . S
C944 C945 1.287 . S
C945 C944 1.287 . S
C945 C946 1.524 . S
C945 H948 0.999 . S
C946 H916 0.950 . S
C946 C945 1.524 . S
C946 C947 1.415 . S
C947 H917 0.950 . S
C947 C942 1.363 . S
C947 C946 1.415 . S
H948 C945 0.999 . S
H949 C930 0.885 1_554 S
H950 C968 0.951 . S
H951 C970 0.951 . S
H952 C972 0.950 . S
H953 C973 0.950 . S
H954 C975 0.950 . S
H955 C978 0.950 . S
H956 C979 0.950 . S
H957 C981 0.950 . S
H958 C982 0.950 . S
H959 C983 0.951 . S
H960 C985 0.951 . S
H961 C987 0.950 . S
H962 C988 0.950 . S
H963 C990 0.950 . S
H964 C993 0.950 . S
H965 C994 0.950 . S
H966 C996 0.950 . S
H967 C997 0.950 . S
C968 H950 0.951 . S
C968 C969 1.366 . S
C968 C970 1.388 . S
C969 C968 1.366 . S
C969 C973 1.385 . S
C970 H951 0.951 . S
C970 C968 1.388 . S
C970 C971 1.366 . S
C971 C970 1.366 . S
C971 C972 1.414 . S
C971 C974 1.499 . S
C972 H952 0.950 . S
C972 C971 1.414 . S
C972 C973 1.374 . S
C973 H953 0.950 . S
C973 C969 1.385 . S
C973 C972 1.374 . S
C974 C971 1.499 . S
C974 C975 1.373 . S
C974 C976 1.389 . S
C975 H954 0.950 . S
C975 C974 1.373 . S
C975 C991 1.377 . S
C976 C974 1.389 . S
C976 C977 1.524 . S
C976 C990 1.377 . S
C977 C976 1.524 . S
C977 C978 1.397 . S
C977 C982 1.363 . S
C978 H955 0.950 . S
C978 C977 1.397 . S
C978 C979 1.334 . S
C979 H956 0.950 . S
C979 C978 1.334 . S
C979 C980 1.287 . S
C980 C979 1.287 . S
C980 C981 1.524 . S
C980 H999 0.913 . S
C981 H957 0.950 . S
C981 C980 1.524 . S
C981 C982 1.415 . S
C982 H958 0.950 . S
C982 C977 1.363 . S
C982 C981 1.415 . S
C983 H959 0.951 . S
C983 C984 1.366 . S
C983 C985 1.388 . S
C984 C983 1.366 . S
C984 C988 1.385 . S
C985 H960 0.951 . S
C985 C983 1.388 . S
C985 C986 1.366 . S
C986 C985 1.366 . S
C986 C987 1.414 . S
C986 C989 1.499 . S
C987 H961 0.950 . S
C987 C986 1.414 . S
C987 C988 1.374 . S
C988 H962 0.950 . S
C988 C984 1.385 . S
C988 C987 1.374 . S
C989 C986 1.499 . S
C989 C990 1.373 . S
C989 C991 1.389 . S
C990 H963 0.950 . S
C990 C976 1.377 . S
C990 C989 1.373 . S
C991 C975 1.377 . S
C991 C989 1.389 . S
C991 C992 1.524 . S
C992 C991 1.524 . S
C992 C993 1.397 . S
C992 C997 1.363 . S
C993 H964 0.950 . S
C993 C992 1.397 . S
C993 C994 1.334 . S
C994 H965 0.950 . S
C994 C993 1.334 . S
C994 C995 1.287 . S
C995 C994 1.287 . S
C995 C996 1.524 . S
C995 H998 0.999 . S
C996 H966 0.950 . S
C996 C995 1.524 . S
C996 C997 1.415 . S
C997 H967 0.950 . S
C997 C992 1.363 . S
C997 C996 1.415 . S
H998 C995 0.999 . S
H999 C980 0.913 . S
H1000 C1018 0.951 1_565 S
H1001 C1020 0.951 . S
H1002 C1022 0.950 . S
H1003 C1023 0.950 . S
H1004 C1025 0.950 . S
H1005 C1028 0.950 . S
H1006 C1029 0.950 . S
H1007 C1031 0.950 1_554 S
H1008 C1032 0.950 . S
H1009 C1033 0.951 . S
H1010 C1035 0.951 . S
H1011 C1037 0.950 . S
H1012 C1038 0.950 . S
H1013 C1040 0.950 . S
H1014 C1043 0.950 . S
H1015 C1044 0.950 . S
H1016 C1046 0.950 . S
H1017 C1047 0.950 . S
C1018 H1000 0.951 1_545 S
C1018 C1019 1.366 1_545 S
C1018 C1020 1.388 . S
C1019 C1018 1.366 1_565 S
C1019 C1023 1.385 1_565 S
C1020 H1001 0.951 . S
C1020 C1018 1.388 . S
C1020 C1021 1.366 . S
C1021 C1020 1.366 . S
C1021 C1022 1.414 . S
C1021 C1024 1.499 . S
C1022 H1002 0.950 . S
C1022 C1021 1.414 . S
C1022 C1023 1.374 . S
C1023 H1003 0.950 . S
C1023 C1019 1.385 1_545 S
C1023 C1022 1.374 . S
C1024 C1021 1.499 . S
C1024 C1025 1.373 . S
C1024 C1026 1.389 . S
C1025 H1004 0.950 . S
C1025 C1024 1.373 . S
C1025 C1041 1.377 . S
C1026 C1024 1.389 . S
C1026 C1027 1.524 . S
C1026 C1040 1.377 . S
C1027 C1026 1.524 . S
C1027 C1028 1.397 . S
C1027 C1032 1.363 . S
C1028 H1005 0.950 . S
C1028 C1027 1.397 . S
C1028 C1029 1.334 . S
C1029 H1006 0.950 . S
C1029 C1028 1.334 . S
C1029 C1030 1.287 . S
C1030 C1029 1.287 . S
C1030 C1031 1.524 . S
C1030 H1049 0.913 1_556 S
C1031 H1007 0.950 1_556 S
C1031 C1030 1.524 . S
C1031 C1032 1.415 . S
C1032 H1008 0.950 . S
C1032 C1027 1.363 . S
C1032 C1031 1.415 . S
C1033 H1009 0.951 . S
C1033 C1034 1.366 . S
C1033 C1035 1.388 . S
C1034 C1033 1.366 . S
C1034 C1038 1.385 . S
C1035 H1010 0.951 . S
C1035 C1033 1.388 . S
C1035 C1036 1.366 . S
C1036 C1035 1.366 . S
C1036 C1037 1.414 . S
C1036 C1039 1.499 . S
C1037 H1011 0.950 . S
C1037 C1036 1.414 . S
C1037 C1038 1.374 . S
C1038 H1012 0.950 . S
C1038 C1034 1.385 . S
C1038 C1037 1.374 . S
C1039 C1036 1.499 . S
C1039 C1040 1.373 . S
C1039 C1041 1.389 . S
C1040 H1013 0.950 . S
C1040 C1026 1.377 . S
C1040 C1039 1.373 . S
C1041 C1025 1.377 . S
C1041 C1039 1.389 . S
C1041 C1042 1.524 . S
C1042 C1041 1.524 . S
C1042 C1043 1.397 . S
C1042 C1047 1.363 . S
C1043 H1014 0.950 . S
C1043 C1042 1.397 . S
C1043 C1044 1.334 . S
C1044 H1015 0.950 . S
C1044 C1043 1.334 . S
C1044 C1045 1.287 . S
C1045 C1044 1.287 . S
C1045 C1046 1.524 . S
C1045 H1048 0.999 . S
C1046 H1016 0.950 . S
C1046 C1045 1.524 . S
C1046 C1047 1.415 . S
C1047 H1017 0.950 . S
C1047 C1042 1.363 . S
C1047 C1046 1.415 . S
H1048 C1045 0.999 . S
H1049 C1030 0.913 1_554 S
H1050 C1068 0.951 . S
H1051 C1070 0.951 . S
H1052 C1072 0.950 . S
H1053 C1073 0.950 . S
H1054 C1075 0.950 . S
H1055 C1078 0.950 . S
H1056 C1079 0.950 1_545 S
H1057 C1081 0.950 . S
H1058 C1082 0.950 . S
H1059 C1083 0.951 . S
H1060 C1085 0.951 . S
H1061 C1087 0.950 . S
H1062 C1088 0.950 . S
H1063 C1090 0.950 . S
H1064 C1093 0.950 . S
H1065 C1094 0.950 . S
H1066 C1096 0.950 . S
H1067 C1097 0.950 . S
C1068 H1050 0.951 . S
C1068 C1069 1.366 1_565 S
C1068 C1070 1.388 . S
C1069 C1068 1.366 1_545 S
C1069 C1073 1.385 . S
C1070 H1051 0.951 . S
C1070 C1068 1.388 . S
C1070 C1071 1.366 . S
C1071 C1070 1.366 . S
C1071 C1072 1.414 . S
C1071 C1074 1.499 . S
C1072 H1052 0.950 . S
C1072 C1071 1.414 . S
C1072 C1073 1.374 1_565 S
C1073 H1053 0.950 . S
C1073 C1069 1.385 . S
C1073 C1072 1.374 1_545 S
C1074 C1071 1.499 . S
C1074 C1075 1.373 . S
C1074 C1076 1.389 . S
C1075 H1054 0.950 . S
C1075 C1074 1.373 . S
C1075 C1091 1.377 . S
C1076 C1074 1.389 . S
C1076 C1077 1.524 . S
C1076 C1090 1.377 . S
C1077 C1076 1.524 . S
C1077 C1078 1.397 . S
C1077 C1082 1.363 . S
C1078 H1055 0.950 . S
C1078 C1077 1.397 . S
C1078 C1079 1.334 . S
C1079 H1056 0.950 1_565 S
C1079 C1078 1.334 . S
C1079 C1080 1.287 . S
C1080 C1079 1.287 . S
C1080 C1081 1.524 . S
C1080 H1099 0.913 . S
C1081 H1057 0.950 . S
C1081 C1080 1.524 . S
C1081 C1082 1.415 . S
C1082 H1058 0.950 . S
C1082 C1077 1.363 . S
C1082 C1081 1.415 . S
C1083 H1059 0.951 . S
C1083 C1084 1.366 . S
C1083 C1085 1.388 . S
C1084 C1083 1.366 . S
C1084 C1088 1.385 . S
C1085 H1060 0.951 . S
C1085 C1083 1.388 . S
C1085 C1086 1.366 . S
C1086 C1085 1.366 . S
C1086 C1087 1.414 . S
C1086 C1089 1.499 . S
C1087 H1061 0.950 . S
C1087 C1086 1.414 . S
C1087 C1088 1.374 . S
C1088 H1062 0.950 . S
C1088 C1084 1.385 . S
C1088 C1087 1.374 . S
C1089 C1086 1.499 . S
C1089 C1090 1.373 . S
C1089 C1091 1.389 . S
C1090 H1063 0.950 . S
C1090 C1076 1.377 . S
C1090 C1089 1.373 . S
C1091 C1075 1.377 . S
C1091 C1089 1.389 . S
C1091 C1092 1.524 . S
C1092 C1091 1.524 . S
C1092 C1093 1.397 . S
C1092 C1097 1.363 . S
C1093 H1064 0.950 . S
C1093 C1092 1.397 . S
C1093 C1094 1.334 . S
C1094 H1065 0.950 . S
C1094 C1093 1.334 . S
C1094 C1095 1.287 . S
C1095 C1094 1.287 . S
C1095 C1096 1.524 . S
C1095 H1098 0.999 . S
C1096 H1066 0.950 . S
C1096 C1095 1.524 . S
C1096 C1097 1.415 . S
C1097 H1067 0.950 . S
C1097 C1092 1.363 . S
C1097 C1096 1.415 . S
H1098 C1095 0.999 . S
H1099 C1080 0.913 . S
H1100 C1118 0.951 . S
H1101 C1120 0.951 . S
H1102 C1122 0.950 . S
H1103 C1123 0.950 . S
H1104 C1125 0.950 . S
H1105 C1128 0.950 . S
H1106 C1129 0.950 . S
H1107 C1131 0.950 . S
H1108 C1132 0.950 . S
H1109 C1133 0.951 . S
H1110 C1135 0.951 . S
H1111 C1137 0.950 . S
H1112 C1138 0.950 . S
H1113 C1140 0.950 . S
H1114 C1143 0.950 . S
H1115 C1144 0.950 . S
H1116 C1146 0.950 . S
H1117 C1147 0.950 . S
C1118 H1100 0.951 . S
C1118 C1119 1.366 . S
C1118 C1120 1.388 1_565 S
C1119 C1118 1.366 . S
C1119 C1123 1.385 1_565 S
C1120 H1101 0.951 . S
C1120 C1118 1.388 1_545 S
C1120 C1121 1.366 . S
C1121 C1120 1.366 . S
C1121 C1122 1.414 . S
C1121 C1124 1.499 . S
C1122 H1102 0.950 . S
C1122 C1121 1.414 . S
C1122 C1123 1.374 . S
C1123 H1103 0.950 . S
C1123 C1119 1.385 1_545 S
C1123 C1122 1.374 . S
C1124 C1121 1.499 . S
C1124 C1125 1.373 . S
C1124 C1126 1.389 . S
C1125 H1104 0.950 . S
C1125 C1124 1.373 . S
C1125 C1141 1.377 . S
C1126 C1124 1.389 . S
C1126 C1127 1.524 . S
C1126 C1140 1.377 . S
C1127 C1126 1.524 . S
C1127 C1128 1.397 . S
C1127 C1132 1.363 . S
C1128 H1105 0.950 . S
C1128 C1127 1.397 . S
C1128 C1129 1.334 . S
C1129 H1106 0.950 . S
C1129 C1128 1.334 . S
C1129 C1130 1.287 . S
C1130 C1129 1.287 . S
C1130 C1131 1.524 . S
C1130 H1149 0.913 . S
C1131 H1107 0.950 . S
C1131 C1130 1.524 . S
C1131 C1132 1.415 . S
C1132 H1108 0.950 . S
C1132 C1127 1.363 . S
C1132 C1131 1.415 . S
C1133 H1109 0.951 . S
C1133 C1134 1.366 . S
C1133 C1135 1.388 . S
C1134 C1133 1.366 . S
C1134 C1138 1.385 . S
C1135 H1110 0.951 . S
C1135 C1133 1.388 . S
C1135 C1136 1.366 . S
C1136 C1135 1.366 . S
C1136 C1137 1.414 . S
C1136 C1139 1.499 . S
C1137 H1111 0.950 . S
C1137 C1136 1.414 . S
C1137 C1138 1.374 . S
C1138 H1112 0.950 . S
C1138 C1134 1.385 . S
C1138 C1137 1.374 . S
C1139 C1136 1.499 . S
C1139 C1140 1.373 . S
C1139 C1141 1.389 . S
C1140 H1113 0.950 . S
C1140 C1126 1.377 . S
C1140 C1139 1.373 . S
C1141 C1125 1.377 . S
C1141 C1139 1.389 . S
C1141 C1142 1.524 . S
C1142 C1141 1.524 . S
C1142 C1143 1.397 . S
C1142 C1147 1.363 . S
C1143 H1114 0.950 . S
C1143 C1142 1.397 . S
C1143 C1144 1.334 . S
C1144 H1115 0.950 . S
C1144 C1143 1.334 . S
C1144 C1145 1.287 . S
C1145 C1144 1.287 . S
C1145 C1146 1.524 . S
C1145 H1148 0.999 . S
C1146 H1116 0.950 . S
C1146 C1145 1.524 . S
C1146 C1147 1.415 . S
C1147 H1117 0.950 . S
C1147 C1142 1.363 . S
C1147 C1146 1.415 . S
H1148 C1145 0.999 . S
H1149 C1130 0.913 . S
H1150 C1168 0.951 . S
H1151 C1170 0.951 . S
H1152 C1172 0.950 . S
H1153 C1173 0.950 . S
H1154 C1175 0.950 . S
H1155 C1178 0.950 . S
H1156 C1179 0.950 . S
H1157 C1181 0.950 . S
H1158 C1182 0.950 . S
H1159 C1183 0.951 . S
H1160 C1185 0.951 . S
H1161 C1187 0.950 . S
H1162 C1188 0.950 . S
H1163 C1190 0.950 . S
H1164 C1193 0.950 . S
H1165 C1194 0.950 . S
H1166 C1196 0.950 . S
H1167 C1197 0.950 . S
C1168 H1150 0.951 . S
C1168 C1169 1.366 1_565 S
C1168 C1170 1.388 . S
C1169 C1168 1.366 1_545 S
C1169 C1173 1.385 . S
C1170 H1151 0.951 . S
C1170 C1168 1.388 . S
C1170 C1171 1.366 . S
C1171 C1170 1.366 . S
C1171 C1172 1.414 . S
C1171 C1174 1.499 . S
C1172 H1152 0.950 . S
C1172 C1171 1.414 . S
C1172 C1173 1.374 1_565 S
C1173 H1153 0.950 . S
C1173 C1169 1.385 . S
C1173 C1172 1.374 1_545 S
C1174 C1171 1.499 . S
C1174 C1175 1.373 . S
C1174 C1176 1.389 . S
C1175 H1154 0.950 . S
C1175 C1174 1.373 . S
C1175 C1191 1.377 . S
C1176 C1174 1.389 . S
C1176 C1177 1.524 . S
C1176 C1190 1.377 . S
C1177 C1176 1.524 . S
C1177 C1178 1.397 . S
C1177 C1182 1.363 . S
C1178 H1155 0.950 . S
C1178 C1177 1.397 . S
C1178 C1179 1.334 1_565 S
C1179 H1156 0.950 . S
C1179 C1178 1.334 1_545 S
C1179 C1180 1.287 1_545 S
C1180 C1179 1.287 1_565 S
C1180 C1181 1.524 . S
C1180 H1199 0.913 1_565 S
C1181 H1157 0.950 . S
C1181 C1180 1.524 . S
C1181 C1182 1.415 . S
C1182 H1158 0.950 . S
C1182 C1177 1.363 . S
C1182 C1181 1.415 . S
C1183 H1159 0.951 . S
C1183 C1184 1.366 . S
C1183 C1185 1.388 . S
C1184 C1183 1.366 . S
C1184 C1188 1.385 . S
C1185 H1160 0.951 . S
C1185 C1183 1.388 . S
C1185 C1186 1.366 . S
C1186 C1185 1.366 . S
C1186 C1187 1.414 . S
C1186 C1189 1.499 . S
C1187 H1161 0.950 . S
C1187 C1186 1.414 . S
C1187 C1188 1.374 . S
C1188 H1162 0.950 . S
C1188 C1184 1.385 . S
C1188 C1187 1.374 . S
C1189 C1186 1.499 . S
C1189 C1190 1.373 . S
C1189 C1191 1.389 . S
C1190 H1163 0.950 . S
C1190 C1176 1.377 . S
C1190 C1189 1.373 . S
C1191 C1175 1.377 . S
C1191 C1189 1.389 . S
C1191 C1192 1.524 . S
C1192 C1191 1.524 . S
C1192 C1193 1.397 . S
C1192 C1197 1.363 . S
C1193 H1164 0.950 . S
C1193 C1192 1.397 . S
C1193 C1194 1.334 . S
C1194 H1165 0.950 . S
C1194 C1193 1.334 . S
C1194 C1195 1.287 . S
C1195 C1194 1.287 . S
C1195 C1196 1.524 . S
C1195 H1198 0.999 . S
C1196 H1166 0.950 . S
C1196 C1195 1.524 . S
C1196 C1197 1.415 . S
C1197 H1167 0.950 . S
C1197 C1192 1.363 . S
C1197 C1196 1.415 . S
H1198 C1195 0.999 . S
H1199 C1180 0.913 1_545 S
H1200 C1218 0.951 . S
H1201 C1220 0.951 . S
H1202 C1222 0.950 . S
H1203 C1223 0.950 . S
H1204 C1225 0.950 . S
H1205 C1228 0.950 . S
H1206 C1229 0.950 . S
H1207 C1231 0.950 . S
H1208 C1232 0.950 . S
H1209 C1233 0.951 . S
H1210 C1235 0.951 . S
H1211 C1237 0.950 . S
H1212 C1238 0.950 . S
H1213 C1240 0.950 . S
H1214 C1243 0.950 . S
H1215 C1244 0.950 . S
H1216 C1246 0.950 . S
H1217 C1247 0.950 . S
C1218 H1200 0.951 . S
C1218 C1219 1.366 . S
C1218 C1220 1.388 . S
C1219 C1218 1.366 . S
C1219 C1223 1.385 . S
C1220 H1201 0.951 . S
C1220 C1218 1.388 . S
C1220 C1221 1.366 . S
C1221 C1220 1.366 . S
C1221 C1222 1.414 . S
C1221 C1224 1.499 . S
C1222 H1202 0.950 . S
C1222 C1221 1.414 . S
C1222 C1223 1.374 . S
C1223 H1203 0.950 . S
C1223 C1219 1.385 . S
C1223 C1222 1.374 . S
C1224 C1221 1.499 . S
C1224 C1225 1.373 . S
C1224 C1226 1.389 . S
C1225 H1204 0.950 . S
C1225 C1224 1.373 . S
C1225 C1241 1.377 . S
C1226 C1224 1.389 . S
C1226 C1227 1.524 . S
C1226 C1240 1.377 . S
C1227 C1226 1.524 . S
C1227 C1228 1.397 . S
C1227 C1232 1.363 . S
C1228 H1205 0.950 . S
C1228 C1227 1.397 . S
C1228 C1229 1.334 . S
C1229 H1206 0.950 . S
C1229 C1228 1.334 . S
C1229 C1230 1.287 . S
C1230 C1229 1.287 . S
C1230 C1231 1.524 . S
C1230 H1249 0.913 . S
C1231 H1207 0.950 . S
C1231 C1230 1.524 . S
C1231 C1232 1.415 . S
C1232 H1208 0.950 . S
C1232 C1227 1.363 . S
C1232 C1231 1.415 . S
C1233 H1209 0.951 . S
C1233 C1234 1.366 . S
C1233 C1235 1.388 . S
C1234 C1233 1.366 . S
C1234 C1238 1.385 . S
C1235 H1210 0.951 . S
C1235 C1233 1.388 . S
C1235 C1236 1.366 . S
C1236 C1235 1.366 . S
C1236 C1237 1.414 . S
C1236 C1239 1.499 . S
C1237 H1211 0.950 . S
C1237 C1236 1.414 . S
C1237 C1238 1.374 . S
C1238 H1212 0.950 . S
C1238 C1234 1.385 . S
C1238 C1237 1.374 . S
C1239 C1236 1.499 . S
C1239 C1240 1.373 . S
C1239 C1241 1.389 . S
C1240 H1213 0.950 . S
C1240 C1226 1.377 . S
C1240 C1239 1.373 . S
C1241 C1225 1.377 . S
C1241 C1239 1.389 . S
C1241 C1242 1.524 . S
C1242 C1241 1.524 . S
C1242 C1243 1.397 . S
C1242 C1247 1.363 . S
C1243 H1214 0.950 . S
C1243 C1242 1.397 . S
C1243 C1244 1.334 . S
C1244 H1215 0.950 . S
C1244 C1243 1.334 . S
C1244 C1245 1.287 . S
C1245 C1244 1.287 . S
C1245 C1246 1.524 . S
C1245 H1248 0.999 . S
C1246 H1216 0.950 . S
C1246 C1245 1.524 . S
C1246 C1247 1.415 . S
C1247 H1217 0.950 . S
C1247 C1242 1.363 . S
C1247 C1246 1.415 . S
H1248 C1245 0.999 . S
H1249 C1230 0.913 . S
H1250 C1268 0.951 . S
H1251 C1270 0.951 . S
H1252 C1272 0.950 . S
H1253 C1273 0.950 . S
H1254 C1275 0.950 . S
H1255 C1278 0.950 . S
H1256 C1279 0.950 . S
H1257 C1281 0.950 . S
H1258 C1282 0.950 . S
H1259 C1283 0.951 . S
H1260 C1285 0.951 . S
H1261 C1287 0.950 . S
H1262 C1288 0.950 . S
H1263 C1290 0.950 . S
H1264 C1293 0.950 . S
H1265 C1294 0.950 . S
H1266 C1296 0.950 . S
H1267 C1297 0.950 . S
C1268 H1250 0.951 . S
C1268 C1269 1.366 . S
C1268 C1270 1.388 . S
C1269 C1268 1.366 . S
C1269 C1273 1.385 . S
C1270 H1251 0.951 . S
C1270 C1268 1.388 . S
C1270 C1271 1.366 . S
C1271 C1270 1.366 . S
C1271 C1272 1.414 . S
C1271 C1274 1.499 . S
C1272 H1252 0.950 . S
C1272 C1271 1.414 . S
C1272 C1273 1.374 . S
C1273 H1253 0.950 . S
C1273 C1269 1.385 . S
C1273 C1272 1.374 . S
C1274 C1271 1.499 . S
C1274 C1275 1.373 . S
C1274 C1276 1.389 . S
C1275 H1254 0.950 . S
C1275 C1274 1.373 . S
C1275 C1291 1.377 . S
C1276 C1274 1.389 . S
C1276 C1277 1.524 . S
C1276 C1290 1.377 . S
C1277 C1276 1.524 . S
C1277 C1278 1.397 . S
C1277 C1282 1.363 . S
C1278 H1255 0.950 . S
C1278 C1277 1.397 . S
C1278 C1279 1.334 . S
C1279 H1256 0.950 . S
C1279 C1278 1.334 . S
C1279 C1280 1.287 . S
C1280 C1279 1.287 . S
C1280 C1281 1.524 . S
C1280 H1299 0.913 . S
C1281 H1257 0.950 . S
C1281 C1280 1.524 . S
C1281 C1282 1.415 . S
C1282 H1258 0.950 . S
C1282 C1277 1.363 . S
C1282 C1281 1.415 . S
C1283 H1259 0.951 . S
C1283 C1284 1.366 . S
C1283 C1285 1.388 . S
C1284 C1283 1.366 . S
C1284 C1288 1.385 . S
C1285 H1260 0.951 . S
C1285 C1283 1.388 . S
C1285 C1286 1.366 . S
C1286 C1285 1.366 . S
C1286 C1287 1.414 . S
C1286 C1289 1.499 . S
C1287 H1261 0.950 . S
C1287 C1286 1.414 . S
C1287 C1288 1.374 . S
C1288 H1262 0.950 . S
C1288 C1284 1.385 . S
C1288 C1287 1.374 . S
C1289 C1286 1.499 . S
C1289 C1290 1.373 . S
C1289 C1291 1.389 . S
C1290 H1263 0.950 . S
C1290 C1276 1.377 . S
C1290 C1289 1.373 . S
C1291 C1275 1.377 . S
C1291 C1289 1.389 . S
C1291 C1292 1.524 . S
C1292 C1291 1.524 . S
C1292 C1293 1.397 . S
C1292 C1297 1.363 . S
C1293 H1264 0.950 . S
C1293 C1292 1.397 . S
C1293 C1294 1.334 . S
C1294 H1265 0.950 . S
C1294 C1293 1.334 . S
C1294 C1295 1.287 . S
C1295 C1294 1.287 . S
C1295 C1296 1.524 . S
C1295 H1298 0.999 . S
C1296 H1266 0.950 . S
C1296 C1295 1.524 . S
C1296 C1297 1.415 . S
C1297 H1267 0.950 . S
C1297 C1292 1.363 . S
C1297 C1296 1.415 . S
H1298 C1295 0.999 . S
H1299 C1280 0.913 . S
H1300 C1318 0.951 . S
H1301 C1320 0.951 . S
H1302 C1322 0.950 . S
H1303 C1323 0.950 . S
H1304 C1325 0.950 . S
H1305 C1328 0.950 . S
H1306 C1329 0.950 . S
H1307 C1331 0.950 . S
H1308 C1332 0.950 . S
H1309 C1333 0.951 . S
H1310 C1335 0.951 . S
H1311 C1337 0.950 . S
H1312 C1338 0.950 . S
H1313 C1340 0.950 . S
H1314 C1343 0.950 . S
H1315 C1344 0.950 . S
H1316 C1346 0.950 . S
H1317 C1347 0.950 . S
C1318 H1300 0.951 . S
C1318 C1319 1.366 . S
C1318 C1320 1.388 . S
C1319 C1318 1.366 . S
C1319 C1323 1.385 . S
C1320 H1301 0.951 . S
C1320 C1318 1.388 . S
C1320 C1321 1.366 . S
C1321 C1320 1.366 . S
C1321 C1322 1.414 . S
C1321 C1324 1.499 . S
C1322 H1302 0.950 . S
C1322 C1321 1.414 . S
C1322 C1323 1.374 . S
C1323 H1303 0.950 . S
C1323 C1319 1.385 . S
C1323 C1322 1.374 . S
C1324 C1321 1.499 . S
C1324 C1325 1.373 . S
C1324 C1326 1.389 . S
C1325 H1304 0.950 . S
C1325 C1324 1.373 . S
C1325 C1341 1.377 . S
C1326 C1324 1.389 . S
C1326 C1327 1.524 . S
C1326 C1340 1.377 . S
C1327 C1326 1.524 . S
C1327 C1328 1.397 . S
C1327 C1332 1.363 . S
C1328 H1305 0.950 . S
C1328 C1327 1.397 . S
C1328 C1329 1.334 . S
C1329 H1306 0.950 . S
C1329 C1328 1.334 . S
C1329 C1330 1.287 . S
C1330 C1329 1.287 . S
C1330 C1331 1.524 . S
C1330 H1349 0.913 . S
C1331 H1307 0.950 . S
C1331 C1330 1.524 . S
C1331 C1332 1.415 . S
C1332 H1308 0.950 . S
C1332 C1327 1.363 . S
C1332 C1331 1.415 . S
C1333 H1309 0.951 . S
C1333 C1334 1.366 . S
C1333 C1335 1.388 . S
C1334 C1333 1.366 . S
C1334 C1338 1.385 . S
C1335 H1310 0.951 . S
C1335 C1333 1.388 . S
C1335 C1336 1.366 . S
C1336 C1335 1.366 . S
C1336 C1337 1.414 . S
C1336 C1339 1.499 . S
C1337 H1311 0.950 . S
C1337 C1336 1.414 . S
C1337 C1338 1.374 . S
C1338 H1312 0.950 . S
C1338 C1334 1.385 . S
C1338 C1337 1.374 . S
C1339 C1336 1.499 . S
C1339 C1340 1.373 . S
C1339 C1341 1.389 . S
C1340 H1313 0.950 . S
C1340 C1326 1.377 . S
C1340 C1339 1.373 . S
C1341 C1325 1.377 . S
C1341 C1339 1.389 . S
C1341 C1342 1.524 . S
C1342 C1341 1.524 . S
C1342 C1343 1.397 . S
C1342 C1347 1.363 . S
C1343 H1314 0.950 . S
C1343 C1342 1.397 . S
C1343 C1344 1.334 . S
C1344 H1315 0.950 . S
C1344 C1343 1.334 . S
C1344 C1345 1.287 . S
C1345 C1344 1.287 . S
C1345 C1346 1.524 . S
C1345 H1348 0.999 . S
C1346 H1316 0.950 . S
C1346 C1345 1.524 . S
C1346 C1347 1.415 . S
C1347 H1317 0.950 . S
C1347 C1342 1.363 . S
C1347 C1346 1.415 . S
H1348 C1345 0.999 . S
H1349 C1330 0.913 . S
H1350 C1368 0.951 . S
H1351 C1370 0.951 . S
H1352 C1372 0.950 . S
H1353 C1373 0.950 . S
H1354 C1375 0.950 . S
H1355 C1378 0.950 . S
H1356 C1379 0.950 . S
H1357 C1381 0.950 . S
H1358 C1382 0.950 . S
H1359 C1383 0.951 . S
H1360 C1385 0.951 . S
H1361 C1387 0.950 . S
H1362 C1388 0.950 . S
H1363 C1390 0.950 . S
H1364 C1393 0.950 . S
H1365 C1394 0.950 . S
H1366 C1396 0.950 . S
H1367 C1397 0.950 . S
C1368 H1350 0.951 . S
C1368 C1369 1.366 . S
C1368 C1370 1.388 . S
C1369 C1368 1.366 . S
C1369 C1373 1.385 . S
C1370 H1351 0.951 . S
C1370 C1368 1.388 . S
C1370 C1371 1.366 . S
C1371 C1370 1.366 . S
C1371 C1372 1.414 . S
C1371 C1374 1.499 . S
C1372 H1352 0.950 . S
C1372 C1371 1.414 . S
C1372 C1373 1.374 . S
C1373 H1353 0.950 . S
C1373 C1369 1.385 . S
C1373 C1372 1.374 . S
C1374 C1371 1.499 . S
C1374 C1375 1.373 . S
C1374 C1376 1.389 . S
C1375 H1354 0.950 . S
C1375 C1374 1.373 . S
C1375 C1391 1.377 . S
C1376 C1374 1.389 . S
C1376 C1377 1.524 . S
C1376 C1390 1.377 . S
C1377 C1376 1.524 . S
C1377 C1378 1.397 . S
C1377 C1382 1.363 . S
C1378 H1355 0.950 . S
C1378 C1377 1.397 . S
C1378 C1379 1.334 . S
C1379 H1356 0.950 . S
C1379 C1378 1.334 . S
C1379 C1380 1.287 . S
C1380 C1379 1.287 . S
C1380 C1381 1.524 . S
C1380 H1399 0.913 . S
C1381 H1357 0.950 . S
C1381 C1380 1.524 . S
C1381 C1382 1.415 . S
C1382 H1358 0.950 . S
C1382 C1377 1.363 . S
C1382 C1381 1.415 . S
C1383 H1359 0.951 . S
C1383 C1384 1.366 . S
C1383 C1385 1.388 . S
C1384 C1383 1.366 . S
C1384 C1388 1.385 . S
C1385 H1360 0.951 . S
C1385 C1383 1.388 . S
C1385 C1386 1.366 . S
C1386 C1385 1.366 . S
C1386 C1387 1.414 . S
C1386 C1389 1.499 . S
C1387 H1361 0.950 . S
C1387 C1386 1.414 . S
C1387 C1388 1.374 . S
C1388 H1362 0.950 . S
C1388 C1384 1.385 . S
C1388 C1387 1.374 . S
C1389 C1386 1.499 . S
C1389 C1390 1.373 . S
C1389 C1391 1.389 . S
C1390 H1363 0.950 . S
C1390 C1376 1.377 . S
C1390 C1389 1.373 . S
C1391 C1375 1.377 . S
C1391 C1389 1.389 . S
C1391 C1392 1.524 . S
C1392 C1391 1.524 . S
C1392 C1393 1.397 . S
C1392 C1397 1.363 . S
C1393 H1364 0.950 . S
C1393 C1392 1.397 . S
C1393 C1394 1.334 . S
C1394 H1365 0.950 . S
C1394 C1393 1.334 . S
C1394 C1395 1.287 . S
C1395 C1394 1.287 . S
C1395 C1396 1.524 . S
C1395 H1398 0.999 . S
C1396 H1366 0.950 . S
C1396 C1395 1.524 . S
C1396 C1397 1.415 . S
C1397 H1367 0.950 . S
C1397 C1392 1.363 . S
C1397 C1396 1.415 . S
H1398 C1395 0.999 . S
H1399 C1380 0.913 . S
H1400 C1418 0.951 . S
H1401 C1420 0.951 . S
H1402 C1422 0.950 . S
H1403 C1423 0.950 . S
H1404 C1425 0.950 . S
H1405 C1428 0.950 . S
H1406 C1429 0.950 . S
H1407 C1431 0.950 . S
H1408 C1432 0.950 . S
H1409 C1433 0.951 . S
H1410 C1435 0.951 . S
H1411 C1437 0.950 . S
H1412 C1438 0.950 . S
H1413 C1440 0.950 . S
H1414 C1443 0.950 . S
H1415 C1444 0.950 . S
H1416 C1446 0.950 . S
H1417 C1447 0.950 . S
C1418 H1400 0.951 . S
C1418 C1419 1.366 . S
C1418 C1420 1.388 . S
C1419 C1418 1.366 . S
C1419 C1423 1.385 . S
C1420 H1401 0.951 . S
C1420 C1418 1.388 . S
C1420 C1421 1.366 . S
C1421 C1420 1.366 . S
C1421 C1422 1.414 . S
C1421 C1424 1.499 . S
C1422 H1402 0.950 . S
C1422 C1421 1.414 . S
C1422 C1423 1.374 . S
C1423 H1403 0.950 . S
C1423 C1419 1.385 . S
C1423 C1422 1.374 . S
C1424 C1421 1.499 . S
C1424 C1425 1.373 . S
C1424 C1426 1.389 . S
C1425 H1404 0.950 . S
C1425 C1424 1.373 . S
C1425 C1441 1.377 . S
C1426 C1424 1.389 . S
C1426 C1427 1.524 . S
C1426 C1440 1.377 . S
C1427 C1426 1.524 . S
C1427 C1428 1.397 . S
C1427 C1432 1.363 . S
C1428 H1405 0.950 . S
C1428 C1427 1.397 . S
C1428 C1429 1.334 . S
C1429 H1406 0.950 . S
C1429 C1428 1.334 . S
C1429 C1430 1.287 . S
C1430 C1429 1.287 . S
C1430 C1431 1.524 . S
C1430 H1449 0.913 . S
C1431 H1407 0.950 . S
C1431 C1430 1.524 . S
C1431 C1432 1.415 . S
C1432 H1408 0.950 . S
C1432 C1427 1.363 . S
C1432 C1431 1.415 . S
C1433 H1409 0.951 . S
C1433 C1434 1.366 . S
C1433 C1435 1.388 . S
C1434 C1433 1.366 . S
C1434 C1438 1.385 . S
C1435 H1410 0.951 . S
C1435 C1433 1.388 . S
C1435 C1436 1.366 . S
C1436 C1435 1.366 . S
C1436 C1437 1.414 . S
C1436 C1439 1.499 . S
C1437 H1411 0.950 . S
C1437 C1436 1.414 . S
C1437 C1438 1.374 . S
C1438 H1412 0.950 . S
C1438 C1434 1.385 . S
C1438 C1437 1.374 . S
C1439 C1436 1.499 . S
C1439 C1440 1.373 . S
C1439 C1441 1.389 . S
C1440 H1413 0.950 . S
C1440 C1426 1.377 . S
C1440 C1439 1.373 . S
C1441 C1425 1.377 . S
C1441 C1439 1.389 . S
C1441 C1442 1.524 . S
C1442 C1441 1.524 . S
C1442 C1443 1.397 . S
C1442 C1447 1.363 . S
C1443 H1414 0.950 . S
C1443 C1442 1.397 . S
C1443 C1444 1.334 . S
C1444 H1415 0.950 . S
C1444 C1443 1.334 . S
C1444 C1445 1.287 . S
C1445 C1444 1.287 . S
C1445 C1446 1.524 . S
C1445 H1448 0.999 . S
C1446 H1416 0.950 . S
C1446 C1445 1.524 . S
C1446 C1447 1.415 . S
C1447 H1417 0.950 . S
C1447 C1442 1.363 . S
C1447 C1446 1.415 . S
H1448 C1445 0.999 . S
H1449 C1430 0.913 . S
H1450 C1468 0.951 . S
H1451 C1470 0.951 . S
H1452 C1472 0.950 . S
H1453 C1473 0.950 . S
H1454 C1475 0.950 . S
H1455 C1478 0.950 . S
H1456 C1479 0.950 . S
H1457 C1481 0.950 . S
H1458 C1482 0.950 . S
H1459 C1483 0.951 . S
H1460 C1485 0.951 . S
H1461 C1487 0.950 . S
H1462 C1488 0.950 . S
H1463 C1490 0.950 . S
H1464 C1493 0.950 . S
H1465 C1494 0.950 . S
H1466 C1496 0.950 . S
H1467 C1497 0.950 . S
C1468 H1450 0.951 . S
C1468 C1469 1.366 . S
C1468 C1470 1.388 . S
C1469 C1468 1.366 . S
C1469 C1473 1.385 . S
C1470 H1451 0.951 . S
C1470 C1468 1.388 . S
C1470 C1471 1.366 . S
C1471 C1470 1.366 . S
C1471 C1472 1.414 . S
C1471 C1474 1.499 . S
C1472 H1452 0.950 . S
C1472 C1471 1.414 . S
C1472 C1473 1.374 . S
C1473 H1453 0.950 . S
C1473 C1469 1.385 . S
C1473 C1472 1.374 . S
C1474 C1471 1.499 . S
C1474 C1475 1.373 . S
C1474 C1476 1.389 . S
C1475 H1454 0.950 . S
C1475 C1474 1.373 . S
C1475 C1491 1.377 . S
C1476 C1474 1.389 . S
C1476 C1477 1.524 . S
C1476 C1490 1.377 . S
C1477 C1476 1.524 . S
C1477 C1478 1.397 . S
C1477 C1482 1.363 . S
C1478 H1455 0.950 . S
C1478 C1477 1.397 . S
C1478 C1479 1.334 . S
C1479 H1456 0.950 . S
C1479 C1478 1.334 . S
C1479 C1480 1.287 . S
C1480 C1479 1.287 . S
C1480 C1481 1.524 . S
C1480 H1499 0.913 . S
C1481 H1457 0.950 . S
C1481 C1480 1.524 . S
C1481 C1482 1.415 . S
C1482 H1458 0.950 . S
C1482 C1477 1.363 . S
C1482 C1481 1.415 . S
C1483 H1459 0.951 . S
C1483 C1484 1.366 . S
C1483 C1485 1.388 . S
C1484 C1483 1.366 . S
C1484 C1488 1.385 . S
C1485 H1460 0.951 . S
C1485 C1483 1.388 . S
C1485 C1486 1.366 . S
C1486 C1485 1.366 . S
C1486 C1487 1.414 . S
C1486 C1489 1.499 . S
C1487 H1461 0.950 . S
C1487 C1486 1.414 . S
C1487 C1488 1.374 . S
C1488 H1462 0.950 . S
C1488 C1484 1.385 . S
C1488 C1487 1.374 . S
C1489 C1486 1.499 . S
C1489 C1490 1.373 . S
C1489 C1491 1.389 . S
C1490 H1463 0.950 . S
C1490 C1476 1.377 . S
C1490 C1489 1.373 . S
C1491 C1475 1.377 . S
C1491 C1489 1.389 . S
C1491 C1492 1.524 . S
C1492 C1491 1.524 . S
C1492 C1493 1.397 . S
C1492 C1497 1.363 . S
C1493 H1464 0.950 . S
C1493 C1492 1.397 . S
C1493 C1494 1.334 . S
C1494 H1465 0.950 . S
C1494 C1493 1.334 . S
C1494 C1495 1.287 . S
C1495 C1494 1.287 . S
C1495 C1496 1.524 . S
C1495 H1498 0.999 . S
C1496 H1466 0.950 . S
C1496 C1495 1.524 . S
C1496 C1497 1.415 . S
C1497 H1467 0.950 . S
C1497 C1492 1.363 . S
C1497 C1496 1.415 . S
H1498 C1495 0.999 . S
H1499 C1480 0.913 . S
H1500 C1518 0.951 . S
H1501 C1520 0.951 . S
H1502 C1522 0.950 . S
H1503 C1523 0.950 . S
H1504 C1525 0.950 . S
H1505 C1528 0.950 . S
H1506 C1529 0.950 . S
H1507 C1531 0.950 . S
H1508 C1532 0.950 . S
H1509 C1533 0.951 . S
H1510 C1535 0.951 . S
H1511 C1537 0.950 . S
H1512 C1538 0.950 . S
H1513 C1540 0.950 . S
H1514 C1543 0.950 . S
H1515 C1544 0.950 . S
H1516 C1546 0.950 . S
H1517 C1547 0.950 . S
C1518 H1500 0.951 . S
C1518 C1519 1.366 . S
C1518 C1520 1.388 . S
C1519 C1518 1.366 . S
C1519 C1523 1.385 . S
C1520 H1501 0.951 . S
C1520 C1518 1.388 . S
C1520 C1521 1.366 . S
C1521 C1520 1.366 . S
C1521 C1522 1.414 . S
C1521 C1524 1.499 . S
C1522 H1502 0.950 . S
C1522 C1521 1.414 . S
C1522 C1523 1.374 . S
C1523 H1503 0.950 . S
C1523 C1519 1.385 . S
C1523 C1522 1.374 . S
C1524 C1521 1.499 . S
C1524 C1525 1.373 . S
C1524 C1526 1.389 . S
C1525 H1504 0.950 . S
C1525 C1524 1.373 . S
C1525 C1541 1.377 . S
C1526 C1524 1.389 . S
C1526 C1527 1.524 . S
C1526 C1540 1.377 . S
C1527 C1526 1.524 . S
C1527 C1528 1.397 . S
C1527 C1532 1.363 . S
C1528 H1505 0.950 . S
C1528 C1527 1.397 . S
C1528 C1529 1.334 . S
C1529 H1506 0.950 . S
C1529 C1528 1.334 . S
C1529 C1530 1.287 . S
C1530 C1529 1.287 . S
C1530 C1531 1.524 . S
C1530 H1549 0.913 . S
C1531 H1507 0.950 . S
C1531 C1530 1.524 . S
C1531 C1532 1.415 . S
C1532 H1508 0.950 . S
C1532 C1527 1.363 . S
C1532 C1531 1.415 . S
C1533 H1509 0.951 . S
C1533 C1534 1.366 . S
C1533 C1535 1.388 . S
C1534 C1533 1.366 . S
C1534 C1538 1.385 . S
C1535 H1510 0.951 . S
C1535 C1533 1.388 . S
C1535 C1536 1.366 . S
C1536 C1535 1.366 . S
C1536 C1537 1.414 . S
C1536 C1539 1.499 . S
C1537 H1511 0.950 . S
C1537 C1536 1.414 . S
C1537 C1538 1.374 . S
C1538 H1512 0.950 . S
C1538 C1534 1.385 . S
C1538 C1537 1.374 . S
C1539 C1536 1.499 . S
C1539 C1540 1.373 . S
C1539 C1541 1.389 . S
C1540 H1513 0.950 . S
C1540 C1526 1.377 . S
C1540 C1539 1.373 . S
C1541 C1525 1.377 . S
C1541 C1539 1.389 . S
C1541 C1542 1.524 . S
C1542 C1541 1.524 . S
C1542 C1543 1.397 . S
C1542 C1547 1.363 . S
C1543 H1514 0.950 . S
C1543 C1542 1.397 . S
C1543 C1544 1.334 . S
C1544 H1515 0.950 . S
C1544 C1543 1.334 . S
C1544 C1545 1.287 . S
C1545 C1544 1.287 . S
C1545 C1546 1.524 . S
C1545 H1548 0.999 . S
C1546 H1516 0.950 . S
C1546 C1545 1.524 . S
C1546 C1547 1.415 . S
C1547 H1517 0.950 . S
C1547 C1542 1.363 . S
C1547 C1546 1.415 . S
H1548 C1545 0.999 . S
H1549 C1530 0.913 . S
H1550 C1568 0.951 . S
H1551 C1570 0.951 . S
H1552 C1572 0.950 . S
H1553 C1573 0.950 . S
H1554 C1575 0.950 . S
H1555 C1578 0.950 . S
H1556 C1579 0.950 . S
H1557 C1581 0.950 . S
H1558 C1582 0.950 . S
H1559 C1583 0.951 . S
H1560 C1585 0.951 . S
H1561 C1587 0.950 . S
H1562 C1588 0.950 . S
H1563 C1590 0.950 . S
H1564 C1593 0.950 . S
H1565 C1594 0.950 . S
H1566 C1596 0.950 . S
H1567 C1597 0.950 . S
C1568 H1550 0.951 . S
C1568 C1569 1.366 . S
C1568 C1570 1.388 . S
C1569 C1568 1.366 . S
C1569 C1573 1.385 . S
C1570 H1551 0.951 . S
C1570 C1568 1.388 . S
C1570 C1571 1.366 . S
C1571 C1570 1.366 . S
C1571 C1572 1.414 . S
C1571 C1574 1.499 . S
C1572 H1552 0.950 . S
C1572 C1571 1.414 . S
C1572 C1573 1.374 . S
C1573 H1553 0.950 . S
C1573 C1569 1.385 . S
C1573 C1572 1.374 . S
C1574 C1571 1.499 . S
C1574 C1575 1.373 . S
C1574 C1576 1.389 . S
C1575 H1554 0.950 . S
C1575 C1574 1.373 . S
C1575 C1591 1.377 . S
C1576 C1574 1.389 . S
C1576 C1577 1.524 . S
C1576 C1590 1.377 . S
C1577 C1576 1.524 . S
C1577 C1578 1.397 . S
C1577 C1582 1.363 . S
C1578 H1555 0.950 . S
C1578 C1577 1.397 . S
C1578 C1579 1.334 . S
C1579 H1556 0.950 . S
C1579 C1578 1.334 . S
C1579 C1580 1.287 . S
C1580 C1579 1.287 . S
C1580 C1581 1.524 . S
C1580 H1599 0.913 . S
C1581 H1557 0.950 . S
C1581 C1580 1.524 . S
C1581 C1582 1.415 . S
C1582 H1558 0.950 . S
C1582 C1577 1.363 . S
C1582 C1581 1.415 . S
C1583 H1559 0.951 . S
C1583 C1584 1.366 . S
C1583 C1585 1.388 . S
C1584 C1583 1.366 . S
C1584 C1588 1.385 . S
C1585 H1560 0.951 . S
C1585 C1583 1.388 . S
C1585 C1586 1.366 . S
C1586 C1585 1.366 . S
C1586 C1587 1.414 . S
C1586 C1589 1.499 . S
C1587 H1561 0.950 . S
C1587 C1586 1.414 . S
C1587 C1588 1.374 . S
C1588 H1562 0.950 . S
C1588 C1584 1.385 . S
C1588 C1587 1.374 . S
C1589 C1586 1.499 . S
C1589 C1590 1.373 . S
C1589 C1591 1.389 . S
C1590 H1563 0.950 . S
C1590 C1576 1.377 . S
C1590 C1589 1.373 . S
C1591 C1575 1.377 . S
C1591 C1589 1.389 . S
C1591 C1592 1.524 . S
C1592 C1591 1.524 . S
C1592 C1593 1.397 . S
C1592 C1597 1.363 . S
C1593 H1564 0.950 . S
C1593 C1592 1.397 . S
C1593 C1594 1.334 . S
C1594 H1565 0.950 . S
C1594 C1593 1.334 . S
C1594 C1595 1.287 . S
C1595 C1594 1.287 . S
C1595 C1596 1.524 . S
C1595 H1598 0.999 . S
C1596 H1566 0.950 . S
C1596 C1595 1.524 . S
C1596 C1597 1.415 . S
C1597 H1567 0.950 . S
C1597 C1592 1.363 . S
C1597 C1596 1.415 . S
H1598 C1595 0.999 . S
H1599 C1580 0.913 . S
C419 C21 1.536 . S
C434 C338 1.508 . S
C484 C316 1.509 . S
C469 C60 1.536 . S
C534 C342 1.514 . S
C519 C99 1.535 . S
C584 C320 1.505 . S
C569 C138 1.532 . S
C634 C382 1.508 . S
C619 C177 1.536 . S
C684 C360 1.509 . S
C669 C216 1.536 . S
C719 C255 1.535 . S
C734 C386 1.514 . S
C784 C364 1.505 . S
C769 C294 1.532 . S
C819 C1 1.534 . S
C834 C387 1.534 . S
C884 C365 1.531 . S
C869 C40 1.534 . S
C919 C79 1.536 . S
C934 C384 1.537 . S
C969 C133 1.523 . S
C984 C362 1.526 . S
C1034 C343 1.534 . S
C1019 C157 1.535 . S
C1069 C196 1.533 . S
C1084 C321 1.532 . S
C1134 C340 1.538 . S
C1119 C235 1.535 . S
C1184 C318 1.525 . S
C1169 C289 1.523 . S
C1234 C361 1.489 . S
C1219 C16 1.489 . S
C1284 C383 1.489 . S
C1269 C55 1.488 . S
C1319 C94 1.491 . S
C1334 C363 1.490 . S
C1384 C385 1.490 . S
C1369 C118 1.494 . S
C1434 C317 1.490 . S
C1419 C172 1.489 . S
C1469 C211 1.489 . S
C1484 C339 1.489 . S
C1519 C250 1.491 . S
C1534 C319 1.490 . S
C1569 C274 1.493 . S
C1584 C341 1.490 . S
