# Generated by pormake.
# Topology zzz, (3,6)-cn, num edge types: 1
# Building blocks:
#     Node 0, Type 0, BuildingBlock: BETDAH_clean_linker_0, # of connection points: 3
#     Node 1, Type 0, BuildingBlock: BETDAH_clean_linker_0, # of connection points: 3
#     Node 2, Type 0, BuildingBlock: BETDAH_clean_linker_0, # of connection points: 3
#     Node 3, Type 0, BuildingBlock: BETDAH_clean_linker_0, # of connection points: 3
#     Node 4, Type 0, BuildingBlock: BETDAH_clean_linker_0, # of connection points: 3
#     Node 5, Type 0, BuildingBlock: BETDAH_clean_linker_0, # of connection points: 3
#     Node 6, Type 0, BuildingBlock: BETDAH_clean_linker_0, # of connection points: 3
#     Node 7, Type 0, BuildingBlock: BETDAH_clean_linker_0, # of connection points: 3
#     Node 8, Type 1, BuildingBlock: NUHQIS_clean_sbu_0, # of connection points: 6
#     Node 9, Type 1, BuildingBlock: NUHQIS_clean_sbu_0, # of connection points: 6
#     Node 10, Type 1, BuildingBlock: NUHQIS_clean_sbu_0, # of connection points: 6
#     Node 11, Type 1, BuildingBlock: NUHQIS_clean_sbu_0, # of connection points: 6
#     Edge 12, Type (0, 1), BuildingBlock: MIFKUJ_clean_linker_0, # of connection points: 2
#     Edge 13, Type (0, 1), BuildingBlock: MIFKUJ_clean_linker_0, # of connection points: 2
#     Edge 14, Type (0, 1), BuildingBlock: MIFKUJ_clean_linker_0, # of connection points: 2
#     Edge 15, Type (0, 1), BuildingBlock: MIFKUJ_clean_linker_0, # of connection points: 2
#     Edge 16, Type (0, 1), BuildingBlock: MIFKUJ_clean_linker_0, # of connection points: 2
#     Edge 17, Type (0, 1), BuildingBlock: MIFKUJ_clean_linker_0, # of connection points: 2
#     Edge 18, Type (0, 1), BuildingBlock: MIFKUJ_clean_linker_0, # of connection points: 2
#     Edge 19, Type (0, 1), BuildingBlock: MIFKUJ_clean_linker_0, # of connection points: 2
#     Edge 20, Type (0, 1), BuildingBlock: MIFKUJ_clean_linker_0, # of connection points: 2
#     Edge 21, Type (0, 1), BuildingBlock: MIFKUJ_clean_linker_0, # of connection points: 2
#     Edge 22, Type (0, 1), BuildingBlock: MIFKUJ_clean_linker_0, # of connection points: 2
#     Edge 23, Type (0, 1), BuildingBlock: MIFKUJ_clean_linker_0, # of connection points: 2
#     Edge 24, Type (0, 1), BuildingBlock: MIFKUJ_clean_linker_0, # of connection points: 2
#     Edge 25, Type (0, 1), BuildingBlock: MIFKUJ_clean_linker_0, # of connection points: 2
#     Edge 26, Type (0, 1), BuildingBlock: MIFKUJ_clean_linker_0, # of connection points: 2
#     Edge 27, Type (0, 1), BuildingBlock: MIFKUJ_clean_linker_0, # of connection points: 2
#     Edge 28, Type (0, 1), BuildingBlock: MIFKUJ_clean_linker_0, # of connection points: 2
#     Edge 29, Type (0, 1), BuildingBlock: MIFKUJ_clean_linker_0, # of connection points: 2
#     Edge 30, Type (0, 1), BuildingBlock: MIFKUJ_clean_linker_0, # of connection points: 2
#     Edge 31, Type (0, 1), BuildingBlock: MIFKUJ_clean_linker_0, # of connection points: 2
#     Edge 32, Type (0, 1), BuildingBlock: MIFKUJ_clean_linker_0, # of connection points: 2
#     Edge 33, Type (0, 1), BuildingBlock: MIFKUJ_clean_linker_0, # of connection points: 2
#     Edge 34, Type (0, 1), BuildingBlock: MIFKUJ_clean_linker_0, # of connection points: 2
#     Edge 35, Type (0, 1), BuildingBlock: MIFKUJ_clean_linker_0, # of connection points: 2
# Relax obj value: 0.209
# Max RMSD: 0.142
# Mean RMSD: 0.135
data_MOF--net-zzz--node1-NUHQIS_clean_sbu_0--node2-BETDAH_clean_linker_0--edge1-MIFKUJ_clean_linker_0
_symmetry_space_group_name_H-M    P1
_symmetry_Int_Tables_number       1
_symmetry_cell_setting            triclinic
loop_
_symmetry_equiv_pos_as_xyz
'x, y, z'
_cell_length_a     68.433653
_cell_length_b     68.40918
_cell_length_c     18.098108
_cell_angle_alpha  90.051024
_cell_angle_beta   90.049183
_cell_angle_gamma 90.002191
loop_
_atom_site_label
_atom_site_type_symbol
_atom_site_fract_x
_atom_site_fract_y
_atom_site_fract_z
_atom_type_partial_charge
H0 H 0.79156 0.50593 0.24594 0.0
H1 H 0.73049 0.50892 0.19597 0.0
H2 H 0.74982 0.50669 0.42345 0.0
C3 C 0.77655 0.50664 0.26506 0.0
C4 C 0.77272 0.50601 0.34095 0.0
C5 C 0.76144 0.50783 0.21311 0.0
C6 C 0.74202 0.50825 0.23689 0.0
C7 C 0.73761 0.508 0.31291 0.0
C8 C 0.75309 0.50706 0.36492 0.0
N9 N 0.71784 0.50845 0.33802 0.0
C10 C 0.70161 0.50876 0.29087 0.0
H11 H 0.01868 0.79473 0.28493 0.0
H12 H 0.00816 0.73529 0.22333 0.0
H13 H 1.00282 0.75285 0.45179 0.0
C14 C 0.01536 0.77982 0.30109 0.0
C15 C 0.0112 0.77568 0.37517 0.0
C16 C 0.01406 0.76532 0.24669 0.0
C17 C 0.00917 0.74621 0.26628 0.0
C18 C 1.00546 0.74136 0.34042 0.0
C19 C 1.0061 0.75631 0.39475 0.0
N20 N 1.00088 0.72172 0.36107 0.0
C21 C 1.00081 0.70585 0.31194 0.0
H22 H 0.72377 0.97555 0.23856 0.0
H23 H 0.78322 0.98895 0.18882 0.0
H24 H 0.75859 1.00735 0.39685 0.0
C25 C 0.73749 0.98198 0.25585 0.0
C26 C 0.73863 0.99205 0.32354 0.0
C27 C 0.75326 0.9814 0.20654 0.0
C28 C 0.77123 0.98924 0.22785 0.0
C29 C 0.77349 0.99794 0.29785 0.0
C30 C 0.75705 0.99961 0.34498 0.0
N31 N 0.79184 1.00587 0.32029 0.0
C32 C 0.80868 1.00508 0.27661 0.0
H33 H 0.51735 0.72438 0.27714 0.0
H34 H 0.51436 0.78453 0.21251 0.0
H35 H 0.52208 0.76923 0.44268 0.0
C36 C 0.51821 0.73974 0.29199 0.0
C37 C 0.52018 0.74494 0.36625 0.0
C38 C 0.51602 0.75395 0.23704 0.0
C39 C 0.51638 0.77377 0.25569 0.0
C40 C 0.519 0.77953 0.32979 0.0
C41 C 0.52056 0.76497 0.38531 0.0
N42 N 0.51977 0.79971 0.34966 0.0
C43 C 0.51911 0.8151 0.29868 0.0
H44 H 0.21392 0.50825 0.16769 0.0
H45 H 0.27495 0.51095 0.22101 0.0
H46 H 0.25623 0.48762 0.0105 0.0
C47 C 0.22898 0.50512 0.15305 0.0
C48 C 0.23312 0.49711 0.08364 0.0
C49 C 0.24397 0.51025 0.20215 0.0
C50 C 0.26348 0.50683 0.18277 0.0
C51 C 0.26805 0.49825 0.1141 0.0
C52 C 0.25279 0.49383 0.06403 0.0
N53 N 0.28775 0.4941 0.0938 0.0
C54 C 0.30378 0.49596 0.14126 0.0
H55 H 0.012 0.2222 0.17178 0.0
H56 H 0.00927 0.28335 0.22276 0.0
H57 H 0.02325 0.26436 1.00114 0.0
C58 C 0.0138 0.23729 0.15458 0.0
C59 C 0.01827 0.2413 0.08075 0.0
C60 C 0.0104 0.25238 0.20544 0.0
C61 C 0.01204 0.27186 0.18296 0.0
C62 C 0.01706 0.2764 0.10954 0.0
C63 C 0.01978 0.261 0.05811 0.0
N64 N 0.01923 0.29622 0.08624 0.0
C65 C 0.01805 0.31235 0.13373 0.0
H66 H 0.29844 0.995 0.16345 0.0
H67 H 0.2387 1.0026 0.22869 0.0
H68 H 0.26054 0.03138 0.03317 0.0
C69 C 0.28414 1.00127 0.15321 0.0
C70 C 0.28154 0.01373 0.09258 0.0
C71 C 0.26881 0.99718 0.20219 0.0
C72 C 0.25042 1.00564 0.19027 0.0
C73 C 0.24724 0.01786 0.12873 0.0
C74 C 0.26285 0.02171 0.07977 0.0
N75 N 0.22871 0.02671 0.11533 0.0
C76 C 0.21244 0.02493 0.16151 0.0
H77 H 0.51341 0.30152 0.15137 0.0
H78 H 0.51359 0.24149 0.21952 0.0
H79 H 0.49995 0.2566 0.99339 0.0
C80 C 0.51113 0.2862 0.13838 0.0
C81 C 0.50601 0.28096 0.06616 0.0
C82 C 0.51373 0.27213 0.19382 0.0
C83 C 0.51156 0.25229 0.17649 0.0
C84 C 0.50649 0.24652 0.10416 0.0
C85 C 0.50395 0.26095 0.04896 0.0
N86 N 0.50362 0.22645 0.0857 0.0
C87 C 0.50438 0.21106 0.13644 0.0
Tb88 Tb 0.02249 1.00443 0.77435 0.0
Eu89 Eu 0.99343 0.01679 0.64075 0.0
C90 C 0.03978 0.01773 0.61903 0.0
C91 C 0.01267 0.04891 0.7521 0.0
C92 C 0.04065 0.97102 0.90906 0.0
C93 C 0.05332 0.938 0.91939 0.0
C94 C 0.05651 0.95803 0.91018 0.0
C95 C 0.02172 0.96389 0.92247 0.0
C96 C 0.01856 0.94395 0.93181 0.0
C97 C 0.03421 0.93077 0.92745 0.0
C98 C 0.04313 0.99049 0.87626 0.0
O99 O 0.99393 0.00968 0.82436 0.0
O100 O 0.97527 1.00102 0.72583 0.0
O101 O 1.00264 0.9858 0.61529 0.0
O102 O 0.00945 0.97704 0.73441 0.0
C103 C 0.97709 1.00406 0.79695 0.0
O104 O 0.96416 0.02645 0.6108 0.0
O105 O 0.9856 0.02144 0.52501 0.0
O106 O 0.02324 0.02629 0.60133 0.0
O107 O 0.04116 1.00633 0.67716 0.0
O108 O 0.02617 0.03613 0.77093 0.0
O109 O 0.9974 0.04372 0.71232 0.0
C110 C 1.00609 0.97226 0.66506 0.0
O111 O 0.04814 0.99002 0.80701 0.0
O112 O 0.02916 1.00306 0.88785 0.0
C113 C 0.96418 0.0486 0.51232 0.0
C114 C 0.95696 0.0881 0.47816 0.0
C115 C 0.94211 0.07646 0.50845 0.0
C116 C 0.94566 0.05682 0.52493 0.0
C117 C 0.97882 0.06009 0.47971 0.0
C118 C 0.97521 0.07962 0.46257 0.0
C119 C 0.96862 0.02899 0.5415 0.0
H120 H 0.06563 0.9281 0.91566 0.0
H121 H 0.07115 0.96319 0.89857 0.0
H122 H 0.00915 0.97351 0.92083 0.0
H123 H 1.00373 0.93877 0.93947 0.0
H124 H 0.92788 0.08262 0.52046 0.0
H125 H 0.93417 0.04824 0.55026 0.0
H126 H 0.99331 0.05426 0.46997 0.0
H127 H 0.98701 0.08833 0.44005 0.0
Tb128 Tb 0.51607 0.02318 0.76562 0.0
Eu129 Eu 0.49966 0.99548 0.63274 0.0
C130 C 0.50629 0.04111 0.61113 0.0
C131 C 0.47056 0.01652 0.74861 0.0
C132 C 0.55267 0.0394 0.88993 0.0
C133 C 0.58678 0.04943 0.8882 0.0
C134 C 0.56689 0.05413 0.88374 0.0
C135 C 0.55864 0.02015 0.90508 0.0
C136 C 0.57839 0.01547 0.90897 0.0
C137 C 0.59263 0.02992 0.89804 0.0
C138 C 0.53259 0.043 0.86378 0.0
O139 O 0.52305 0.99315 0.79724 0.0
O140 O 0.4973 0.97871 0.73984 0.0
O141 O 0.53234 0.99132 0.6245 0.0
O142 O 0.54188 0.01697 0.69886 0.0
C143 C 0.51084 0.97844 0.79104 0.0
O144 O 0.493 0.96633 0.58959 0.0
O145 O 0.4851 0.99199 0.52642 0.0
O146 O 0.50941 0.02389 0.58126 0.0
O147 O 0.50346 0.04273 0.68275 0.0
O148 O 0.48529 0.01925 0.79427 0.0
O149 O 0.47339 0.01108 0.67985 0.0
C150 C 0.54592 1.00292 0.65162 0.0
O151 O 0.53155 0.04853 0.79501 0.0
O152 O 0.51974 0.02944 0.8786 0.0
C153 C 0.46169 0.96691 0.53635 0.0
C154 C 0.42259 0.95439 0.55017 0.0
C155 C 0.43709 0.94142 0.52476 0.0
C156 C 0.45656 0.94762 0.51845 0.0
C157 C 0.44714 0.97984 0.56086 0.0
C158 C 0.42786 0.97367 0.56781 0.0
C159 C 0.48226 0.97329 0.53618 0.0
H160 H 0.59755 0.06084 0.88018 0.0
H161 H 0.56265 0.069 0.87093 0.0
H162 H 0.54812 0.0084 0.90962 0.0
H163 H 0.58255 1.0004 0.91846 0.0
H164 H 0.43339 0.9265 0.5104 0.0
H165 H 0.4676 0.93734 0.50027 0.0
H166 H 0.45067 0.99479 0.5749 0.0
H167 H 0.41698 0.98418 0.58561 0.0
Tb168 Tb 0.49426 0.51407 0.75088 0.0
Eu169 Eu 0.52384 0.50333 0.61603 0.0
C170 C 0.47772 0.50505 0.59416 0.0
C171 C 0.50613 0.46959 0.72172 0.0
C172 C 0.47056 0.54118 0.90224 0.0
C173 C 0.45619 0.5731 0.92395 0.0
C174 C 0.45567 0.55488 0.88944 0.0
C175 C 0.48507 0.54538 0.95498 0.0
C176 C 0.48552 0.56355 0.98982 0.0
C177 C 0.47153 0.57785 0.97242 0.0
C178 C 0.47184 0.52359 0.85541 0.0
O179 O 0.52348 0.52233 0.78883 0.0
O180 O 0.54011 0.49934 0.7233 0.0
O181 O 0.52516 0.53628 0.62266 0.0
O182 O 0.49706 0.54162 0.68936 0.0
C183 C 0.53901 0.51127 0.77982 0.0
O184 O 0.55319 0.50311 0.56861 0.0
O185 O 0.52902 0.49038 0.50781 0.0
O186 O 0.49447 0.51058 0.56563 0.0
O187 O 0.47654 0.50062 0.66459 0.0
O188 O 0.50039 0.48312 0.76864 0.0
O189 O 0.51296 0.47404 0.65606 0.0
C190 C 0.51144 0.54805 0.64739 0.0
O191 O 0.46762 0.52613 0.78582 0.0
O192 O 0.48735 0.51275 0.86362 0.0
C193 C 0.55817 0.4727 0.50879 0.0
C194 C 0.56842 0.43271 0.50675 0.0
C195 C 0.57142 0.44403 0.57071 0.0
C196 C 0.56617 0.46377 0.57194 0.0
C197 C 0.55661 0.4619 0.44338 0.0
C198 C 0.56154 0.44211 0.44239 0.0
C199 C 0.54797 0.49158 0.51448 0.0
H200 H 0.44526 0.58386 0.90908 0.0
H201 H 0.4442 0.5519 0.84966 0.0
H202 H 0.4966 0.53502 0.96703 0.0
H203 H 0.49728 0.5667 0.02809 0.0
H204 H 0.57706 0.4375 0.62084 0.0
H205 H 0.56738 0.47173 0.62354 0.0
H206 H 0.55026 0.46842 0.39437 0.0
H207 H 0.55867 0.43398 0.39222 0.0
Tb208 Tb 0.99692 0.49727 0.77208 0.0
Eu209 Eu 0.01111 0.52711 0.64285 0.0
C210 C 0.00831 0.48136 0.6146 0.0
C211 C 0.04229 0.50595 0.75343 0.0
C212 C 0.96135 0.46852 0.86996 0.0
C213 C 0.93056 0.46411 0.80465 0.0
C214 C 0.95097 0.46467 0.80432 0.0
C215 C 0.95109 0.47044 0.93652 0.0
C216 C 0.9307 0.47016 0.93664 0.0
C217 C 0.92031 0.46775 0.87027 0.0
C218 C 0.98177 0.47514 0.8668 0.0
O219 O 1.00582 0.52427 0.82706 0.0
O220 O 0.99711 0.54476 0.7342 0.0
O221 O 0.98 0.51963 0.61325 0.0
O222 O 0.96991 0.50997 0.72817 0.0
C223 C 1.00093 0.5418 0.8043 0.0
O224 O 0.02189 0.55619 0.61567 0.0
O225 O 0.01595 0.53549 0.5279 0.0
O226 O 0.01941 0.49678 0.60407 0.0
O227 O 0.99532 0.48115 0.66801 0.0
O228 O 0.02867 0.49367 0.77599 0.0
O229 O 0.03826 0.52083 0.70988 0.0
C230 C 0.966 0.51487 0.65942 0.0
O231 O 0.99236 0.46871 0.812 0.0
O232 O 0.98376 0.49392 0.87575 0.0
C233 C 0.04305 0.55683 0.5142 0.0
C234 C 0.08167 0.56549 0.47229 0.0
C235 C 0.06902 0.58051 0.49469 0.0
C236 C 0.0498 0.57621 0.51509 0.0
C237 C 0.05557 0.54187 0.49008 0.0
C238 C 0.07467 0.5462 0.46886 0.0
C239 C 0.02376 0.55227 0.54557 0.0
H240 H 0.92281 0.46237 0.75281 0.0
H241 H 0.95852 0.46352 0.75189 0.0
H242 H 0.95878 0.47368 0.98745 0.0
H243 H 0.92302 0.47285 0.98797 0.0
H244 H 0.07408 0.5955 0.49739 0.0
H245 H 0.04038 0.58793 0.53392 0.0
H246 H 0.05083 0.52676 0.48983 0.0
H247 H 0.08422 0.53432 0.45262 0.0
H248 H 0.17594 0.0347 0.11956 0.0
H249 H 0.14615 0.03384 0.19503 0.0
H250 H 0.17967 0.01248 0.38018 0.0
H251 H 0.20944 0.01321 0.30423 0.0
H252 H 0.14566 0.99269 0.3667 0.0
H253 H 0.16473 0.06045 0.37004 0.0
H254 H 0.17373 0.09212 0.31463 0.0
H255 H 0.11825 0.09471 0.20404 0.0
H256 H 0.10902 0.06292 0.25806 0.0
H257 H 0.07748 0.00784 0.6515 0.0
H258 H 0.10611 0.00967 0.57196 0.0
H259 H 0.07082 0.0341 0.39738 0.0
H260 H 0.04201 0.03279 0.47794 0.0
H261 H 0.10497 0.05203 0.40118 0.0
H262 H 0.08526 0.98504 0.39829 0.0
H263 H 0.07573 0.95338 0.45247 0.0
H264 H 0.13171 0.94887 0.55843 0.0
H265 H 0.14147 0.98065 0.50576 0.0
C266 C 0.17687 0.0298 0.17638 0.0
C267 C 0.19488 0.02403 0.20633 0.0
C268 C 0.15988 0.02939 0.21959 0.0
C269 C 0.16062 0.02331 0.29379 0.0
C270 C 0.17868 0.01726 0.32325 0.0
C271 C 0.19568 0.0177 0.27996 0.0
C272 C 0.14261 0.02322 0.34056 0.0
C273 C 0.13691 1.00573 0.37496 0.0
C274 C 0.13078 0.04007 0.34976 0.0
C275 C 0.13627 0.05922 0.31751 0.0
C276 C 0.15451 0.06771 0.33346 0.0
C277 C 0.15964 0.08569 0.30239 0.0
C278 C 0.14659 0.09539 0.25569 0.0
C279 C 0.12836 0.08716 0.24014 0.0
C280 C 0.12316 0.06917 0.27102 0.0
C281 C 0.07573 0.01367 0.59627 0.0
C282 C 0.05733 0.02002 0.57106 0.0
C283 C 0.09217 0.01461 0.55054 0.0
C284 C 0.09065 0.0216 0.47779 0.0
C285 C 0.07241 0.02852 0.45306 0.0
C286 C 0.05593 0.02776 0.49921 0.0
C287 C 0.10809 0.02152 0.4279 0.0
C288 C 0.11367 0.03896 0.3928 0.0
C289 C 0.11975 1.00458 0.41759 0.0
C290 C 0.11403 0.98532 0.44856 0.0
C291 C 0.09549 0.97736 0.4335 0.0
C292 C 0.09006 0.95938 0.46391 0.0
C293 C 0.10309 0.94914 0.50901 0.0
C294 C 0.12162 0.95683 0.52356 0.0
C295 C 0.12712 0.97481 0.49338 0.0
H296 H 0.09884 0.93524 0.53258 0.0
H297 H 0.15059 0.10931 0.23168 0.0
H298 H 0.49617 0.21073 0.28299 0.0
H299 H 0.49622 0.18225 0.36574 0.0
H300 H 0.51366 0.14536 0.18381 0.0
H301 H 0.51332 0.17382 0.10118 0.0
H302 H 0.4855 0.12808 0.26132 0.0
H303 H 0.54621 0.15992 0.3208 0.0
H304 H 0.56706 0.18757 0.35886 0.0
H305 H 0.53616 0.19155 0.56472 0.0
H306 H 0.51494 0.16409 0.52744 0.0
H307 H 0.51371 0.04367 0.46242 0.0
H308 H 0.51318 0.07278 0.38436 0.0
H309 H 0.49706 0.108 0.5724 0.0
H310 H 0.49794 0.07896 0.65128 0.0
H311 H 0.5238 0.12655 0.49402 0.0
H312 H 0.46346 0.09468 0.43692 0.0
H313 H 0.44205 0.06741 0.39956 0.0
H314 H 0.47143 0.06386 0.19043 0.0
H315 H 0.49322 0.09094 0.22697 0.0
C316 C 0.50008 0.19652 0.26104 0.0
C317 C 0.50484 0.19438 0.18607 0.0
C318 C 0.50017 0.18026 0.3083 0.0
C319 C 0.50514 0.16157 0.28144 0.0
C320 C 0.50978 0.15954 0.2061 0.0
C321 C 0.50967 0.17579 0.15896 0.0
C322 C 0.50529 0.14411 0.33128 0.0
C323 C 0.49409 0.12767 0.31169 0.0
C324 C 0.51603 0.14366 0.39829 0.0
C325 C 0.52886 0.16008 0.421 0.0
C326 C 0.54377 0.16679 0.37396 0.0
C327 C 0.55567 0.18241 0.39543 0.0
C328 C 0.5529 0.19134 0.46407 0.0
C329 C 0.53826 0.18463 0.51151 0.0
C330 C 0.52631 0.16903 0.49026 0.0
C331 C 0.50999 0.05758 0.48733 0.0
C332 C 0.50576 0.05887 0.56331 0.0
C333 C 0.50962 0.07426 0.44239 0.0
C334 C 0.5048 0.09266 0.47196 0.0
C335 C 0.50078 0.09403 0.54797 0.0
C336 C 0.50123 0.07735 0.59307 0.0
C337 C 0.50411 0.11045 0.42378 0.0
C338 C 0.51519 0.12695 0.4437 0.0
C339 C 0.49319 0.111 0.35718 0.0
C340 C 0.4801 0.09472 0.335 0.0
C341 C 0.46546 0.08798 0.38319 0.0
C342 C 0.45324 0.07257 0.36213 0.0
C343 C 0.45541 0.06387 0.29274 0.0
C344 C 0.46978 0.0706 0.24421 0.0
C345 C 0.48206 0.08598 0.26505 0.0
H346 H 0.44593 0.05195 0.27653 0.0
H347 H 0.56212 0.20344 0.48058 0.0
H348 H 0.33261 0.46929 0.15308 0.0
H349 H 0.36197 0.47128 0.23074 0.0
H350 H 0.343 0.52739 0.31287 0.0
H351 H 0.3137 0.52544 0.23419 0.0
H352 H 0.38113 0.52846 0.2842 0.0
H353 H 0.33879 0.48589 0.41841 0.0
H354 H 0.31711 0.45757 0.43771 0.0
H355 H 0.36429 0.41852 0.38608 0.0
H356 H 0.3862 0.44664 0.36548 0.0
H357 H 0.4401 0.49779 0.6379 0.0
H358 H 0.41059 0.49707 0.56211 0.0
H359 H 0.44508 0.50872 0.36768 0.0
H360 H 0.47467 0.50996 0.44365 0.0
H361 H 0.3982 0.47484 0.4569 0.0
H362 H 0.41811 0.53401 0.24077 0.0
H363 H 0.4379 0.56408 0.23183 0.0
H364 H 0.43238 0.57305 0.46574 0.0
H365 H 0.41234 0.54321 0.4759 0.0
C366 C 0.33475 0.48201 0.18791 0.0
C367 C 0.32096 0.49718 0.18816 0.0
C368 C 0.35149 0.48313 0.23244 0.0
C369 C 0.35471 0.49941 0.27849 0.0
C370 C 0.34092 0.51468 0.27798 0.0
C371 C 0.32416 0.51354 0.23335 0.0
C372 C 0.3724 0.50044 0.32706 0.0
C373 C 0.38487 0.51671 0.32186 0.0
C374 C 0.37721 0.48533 0.37741 0.0
C375 C 0.36408 0.46838 0.38969 0.0
C376 C 0.3445 0.47127 0.41059 0.0
C377 C 0.33218 0.45525 0.42187 0.0
C378 C 0.3393 0.43626 0.41294 0.0
C379 C 0.35879 0.43324 0.39287 0.0
C380 C 0.37117 0.44921 0.38145 0.0
C381 C 0.44147 0.5002 0.579 0.0
C382 C 0.45984 0.50399 0.54709 0.0
C383 C 0.42452 0.49975 0.53556 0.0
C384 C 0.42543 0.50305 0.45899 0.0
C385 C 0.44382 0.5065 0.42672 0.0
C386 C 0.4608 0.5071 0.47028 0.0
C387 C 0.40716 0.50273 0.41334 0.0
C388 C 0.39455 0.48657 0.41905 0.0
C389 C 0.40202 0.51816 0.3647 0.0
C390 C 0.4139 0.53625 0.35914 0.0
C391 C 0.42107 0.54244 0.29024 0.0
C392 C 0.43233 0.55944 0.28497 0.0
C393 C 0.43645 0.57043 0.34822 0.0
C394 C 0.42925 0.56448 0.41683 0.0
C395 C 0.41795 0.54752 0.42239 0.0
H396 H 0.44518 0.58358 0.34402 0.0
H397 H 0.32974 0.42387 0.42173 0.0
H398 H 0.03933 0.3455 0.12268 0.0
H399 H 0.03783 0.37435 0.20327 0.0
H400 H 0.9933 0.34632 0.33447 0.0
H401 H 0.99461 0.3176 0.25282 0.0
H402 H 0.98384 0.38353 0.31229 0.0
H403 H 0.04154 0.3502 0.3942 0.0
H404 H 0.07375 0.33441 0.38097 0.0
H405 H 0.09801 0.38804 0.29882 0.0
H406 H 0.06587 0.40409 0.31065 0.0
H407 H 0.98769 0.44708 0.62162 0.0
H408 H 0.98962 0.41886 0.53955 0.0
H409 H 0.0338 0.44797 0.41037 0.0
H410 H 0.03219 0.47628 0.49338 0.0
H411 H 0.04347 0.41055 0.4303 0.0
H412 H 0.98573 0.44396 0.3496 0.0
H413 H 0.95356 0.45975 0.3642 0.0
H414 H 0.9294 0.406 0.44542 0.0
H415 H 0.96149 0.38992 0.43212 0.0
C416 C 0.02925 0.34555 0.16884 0.0
C417 C 0.01715 0.32937 0.18192 0.0
C418 C 0.02845 0.362 0.21514 0.0
C419 C 0.01562 0.36254 0.27591 0.0
C420 C 1.00335 0.34634 0.28827 0.0
C421 C 1.00415 0.3299 0.24181 0.0
C422 C 0.0149 0.37999 0.32611 0.0
C423 C 0.99686 0.38925 0.33881 0.0
C424 C 0.0319 0.38788 0.35969 0.0
C425 C 0.05125 0.37828 0.35261 0.0
C426 C 0.05371 0.35858 0.37277 0.0
C427 C 0.07196 0.3496 0.36562 0.0
C428 C 0.0879 0.3602 0.33888 0.0
C429 C 0.08564 0.37984 0.31942 0.0
C430 C 0.06741 0.38889 0.32639 0.0
C431 C 0.99784 0.44757 0.57578 0.0
C432 C 0.00973 0.46411 0.56417 0.0
C433 C 0.99886 0.43138 0.52849 0.0
C434 C 0.01164 0.43128 0.46774 0.0
C435 C 0.02376 0.44764 0.45657 0.0
C436 C 0.02278 0.46388 0.50406 0.0
C437 C 0.01243 0.41407 0.41646 0.0
C438 C 0.03046 0.40485 0.40362 0.0
C439 C 0.99542 0.4062 0.38281 0.0
C440 C 0.97606 0.41578 0.39037 0.0
C441 C 0.97358 0.43553 0.37099 0.0
C442 C 0.95536 0.44453 0.37894 0.0
C443 C 0.93945 0.43388 0.40569 0.0
C444 C 0.94173 0.41422 0.42459 0.0
C445 C 0.95993 0.40515 0.41678 0.0
H446 H 0.92535 0.44087 0.41171 0.0
H447 H 0.10202 0.35322 0.3334 0.0
H448 H 0.83115 0.03519 0.23027 0.0
H449 H 0.8597 0.03349 0.14828 0.0
H450 H 0.85305 0.97087 0.13374 0.0
H451 H 0.82461 0.97263 0.21649 0.0
H452 H 0.89076 0.97989 0.14817 0.0
H453 H 0.83835 1.00063 0.9926 0.0
H454 H 0.81055 0.02113 0.9538 0.0
H455 H 0.84811 0.07135 0.94417 0.0
H456 H 0.87609 0.05119 0.98398 0.0
H457 H 0.93924 0.9954 0.75845 0.0
H458 H 0.91062 0.99364 0.83907 0.0
H459 H 0.94679 1.00717 0.0275 0.0
H460 H 0.97552 0.00868 0.94748 0.0
H461 H 0.89328 0.0204 0.92116 0.0
H462 H 0.92832 0.98555 0.18161 0.0
H463 H 0.95484 0.96254 0.21269 0.0
H464 H 0.94955 0.9357 0.99907 0.0
H465 H 0.92285 0.9584 0.96701 0.0
C466 C 0.83588 0.02109 0.20962 0.0
C467 C 0.82579 1.00404 0.22939 0.0
C468 C 0.85213 0.02011 0.16256 0.0
C469 C 0.8585 1.00205 0.134 0.0
C470 C 0.8485 0.98496 0.15492 0.0
C471 C 0.83224 0.98597 0.20198 0.0
C472 C 0.87542 1.00103 0.08178 0.0
C473 C 0.8913 0.98878 0.09863 0.0
C474 C 0.87606 0.01226 0.01603 0.0
C475 C 0.85928 0.02443 0.99196 0.0
C476 C 0.84065 0.01607 0.98277 0.0
C477 C 0.82487 0.02763 0.96051 0.0
C478 C 0.82755 0.04754 0.94671 0.0
C479 C 0.84604 0.05593 0.95498 0.0
C480 C 0.86188 0.04444 0.97734 0.0
C481 C 0.94117 0.99785 0.81713 0.0
C482 C 0.95976 1.00216 0.84631 0.0
C483 C 0.92473 0.99692 0.86321 0.0
C484 C 0.92647 1.00014 0.93966 0.0
C485 C 0.94503 1.00434 0.96898 0.0
C486 C 0.96148 1.00528 0.92295 0.0
C487 C 0.90882 0.99959 0.98835 0.0
C488 C 0.89277 0.01154 0.9708 0.0
C489 C 0.90787 0.98775 0.05254 0.0
C490 C 0.92371 0.97382 0.07171 0.0
C491 C 0.93276 0.97469 0.14139 0.0
C492 C 0.94784 0.96171 0.15914 0.0
C493 C 0.95393 0.94772 0.10777 0.0
C494 C 0.94488 0.94661 0.03866 0.0
C495 C 0.92979 0.95955 0.02065 0.0
H496 H 0.96564 0.93774 0.12156 0.0
H497 H 0.81531 0.05646 0.92945 0.0
H498 H 0.49679 0.81828 0.17553 0.0
H499 H 0.49572 0.84584 0.08863 0.0
H500 H 0.53933 0.876 0.21799 0.0
H501 H 0.54013 0.84852 0.30532 0.0
H502 H 0.51158 0.90087 0.17875 0.0
H503 H 0.5503 0.85341 0.05052 0.0
H504 H 0.55796 0.82116 0.99696 0.0
H505 H 0.50826 0.82567 0.85299 0.0
H506 H 0.50015 0.85786 0.90644 0.0
H507 H 0.53512 0.97375 0.91109 0.0
H508 H 0.53679 0.94603 0.99629 0.0
H509 H 0.49141 0.91673 0.87344 0.0
H510 H 0.48969 0.94434 0.78789 0.0
H511 H 0.52032 0.89148 0.909 0.0
H512 H 0.48159 0.93889 0.03799 0.0
H513 H 0.47401 0.97115 0.09166 0.0
H514 H 0.524 0.96672 0.23421 0.0
H515 H 0.53205 0.93453 0.18059 0.0
C516 C 0.50615 0.83081 0.1851 0.0
C517 C 0.51859 0.83132 0.24675 0.0
C518 C 0.50562 0.84653 0.13529 0.0
C519 C 0.51762 0.86304 0.14589 0.0
C520 C 0.52994 0.86352 0.20822 0.0
C521 C 0.53045 0.84779 0.258 0.0
C522 C 0.51721 0.87985 0.09271 0.0
C523 C 0.51378 0.8988 0.11991 0.0
C524 C 0.51963 0.87728 0.01546 0.0
C525 C 0.5245 0.85796 0.98304 0.0
C526 C 0.54092 0.84746 0.00785 0.0
C527 C 0.54535 0.8292 0.97744 0.0
C528 C 0.53357 0.82134 0.92175 0.0
C529 C 0.51736 0.83176 0.89621 0.0
C530 C 0.51284 0.85002 0.9265 0.0
C531 C 0.52548 0.96143 0.90204 0.0
C532 C 0.5122 0.96141 0.84253 0.0
C533 C 0.52641 0.94557 0.95112 0.0
C534 C 0.51409 0.92927 0.94204 0.0
C535 C 0.50107 0.92908 0.88194 0.0
C536 C 0.50006 0.94496 0.83307 0.0
C537 C 0.51471 0.91246 0.99512 0.0
C538 C 0.51816 0.89353 0.96788 0.0
C539 C 0.51234 0.91505 0.07234 0.0
C540 C 0.50754 0.93439 0.10471 0.0
C541 C 0.49106 0.94486 0.08033 0.0
C542 C 0.48666 0.96312 0.11082 0.0
C543 C 0.49855 0.971 0.16616 0.0
C544 C 0.51483 0.96061 0.19125 0.0
C545 C 0.51931 0.94235 0.16086 0.0
H546 H 0.49511 0.98513 0.18973 0.0
H547 H 0.53703 0.80721 0.89828 0.0
H548 H 0.66692 0.5268 0.31392 0.0
H549 H 0.63862 0.52758 0.23024 0.0
H550 H 0.67011 0.49189 0.07372 0.0
H551 H 0.69842 0.49135 0.15719 0.0
H552 H 0.65268 0.52067 0.00365 0.0
H553 H 0.63249 0.47367 0.18369 0.0
H554 H 0.62477 0.46044 0.30695 0.0
H555 H 0.58108 0.50475 0.33733 0.0
H556 H 0.58876 0.51847 0.21464 0.0
H557 H 0.57418 0.49232 0.77173 0.0
H558 H 0.60095 0.49266 0.86081 0.0
H559 H 0.56818 0.53169 1.00093 0.0
H560 H 0.54111 0.53134 0.91185 0.0
H561 H 0.58561 0.50239 0.08098 0.0
H562 H 0.60586 0.54886 0.89843 0.0
H563 H 0.61286 0.56062 0.77245 0.0
H564 H 0.65624 0.51582 0.74582 0.0
H565 H 0.6493 0.50361 0.87132 0.0
C566 C 0.6677 0.5191 0.26167 0.0
C567 C 0.68477 0.50901 0.24178 0.0
C568 C 0.6515 0.51945 0.214 0.0
C569 C 0.65204 0.50962 0.14562 0.0
C570 C 0.66923 0.49959 0.12595 0.0
C571 C 0.68541 0.49924 0.17365 0.0
C572 C 0.63497 0.51021 0.09366 0.0
C573 C 0.63808 0.51642 0.02056 0.0
C574 C 0.61571 0.50518 0.11567 0.0
C575 C 0.61138 0.49725 0.19026 0.0
C576 C 0.6214 0.48075 0.21698 0.0
C577 C 0.617 0.47313 0.28669 0.0
C578 C 0.60249 0.48179 0.33004 0.0
C579 C 0.59236 0.49809 0.30376 0.0
C580 C 0.59673 0.5058 0.23414 0.0
C581 C 0.5726 0.50105 0.82131 0.0
C582 C 0.55544 0.5119 0.83416 0.0
C583 C 0.58802 0.50127 0.87228 0.0
C584 C 0.58677 0.51236 0.93749 0.0
C585 C 0.56957 0.52304 0.95104 0.0
C586 C 0.55412 0.5229 0.8998 0.0
C587 C 0.60342 0.5127 0.99119 0.0
C588 C 0.60022 0.50671 0.06445 0.0
C589 C 0.62264 0.51783 0.96939 0.0
C590 C 0.62694 0.52522 0.89406 0.0
C591 C 0.61679 0.54142 0.86552 0.0
C592 C 0.62077 0.54819 0.79422 0.0
C593 C 0.63496 0.53895 0.7511 0.0
C594 C 0.64524 0.52295 0.77927 0.0
C595 C 0.64131 0.51612 0.8505 0.0
H596 H 0.63801 0.5442 0.69591 0.0
H597 H 0.59906 0.47583 0.38388 0.0
H598 H 0.99891 0.66761 0.3498 0.0
H599 H 0.99863 0.63923 0.26651 0.0
H600 H 1.00263 0.67786 0.07877 0.0
H601 H 1.00238 0.70611 0.16181 0.0
H602 H 0.97681 0.65055 0.05101 0.0
H603 H 0.04269 0.6499 0.14794 0.0
H604 H 0.06787 0.64888 0.24549 0.0
H605 H 0.0451 0.59413 0.32302 0.0
H606 H 0.01964 0.59493 0.22639 0.0
H607 H 1.00023 0.5811 0.77407 0.0
H608 H 1.00024 0.60833 0.86153 0.0
H609 H 0.99984 0.56758 0.04335 0.0
H610 H 1.00065 0.54029 0.95589 0.0
H611 H 0.02321 0.59534 0.07742 0.0
H612 H 0.95782 0.59506 0.98413 0.0
H613 H 0.93197 0.59523 0.88908 0.0
H614 H 0.95238 0.65071 0.80958 0.0
H615 H 0.97851 0.65076 0.90358 0.0
C616 C 0.99976 0.66998 0.2907 0.0
C617 C 1.00078 0.68904 0.2623 0.0
C618 C 0.99972 0.65374 0.24305 0.0
C619 C 1.00091 0.65625 0.16592 0.0
C620 C 1.00176 0.67541 0.13781 0.0
C621 C 1.0017 0.69161 0.18544 0.0
C622 C 1.00085 0.63906 0.11426 0.0
C623 C 0.98715 0.63862 0.05634 0.0
C624 C 0.01386 0.62303 0.12216 0.0
C625 C 0.02914 0.62258 0.18037 0.0
C626 C 0.04296 0.63772 0.18614 0.0
C627 C 0.0573 0.63716 0.24119 0.0
C628 C 0.05805 0.62147 0.29053 0.0
C629 C 0.04448 0.60628 0.28482 0.0
C630 C 0.03011 0.60677 0.22988 0.0
C631 C 1.00006 0.5779 0.83267 0.0
C632 C 1.00033 0.55844 0.85774 0.0
C633 C 0.99996 0.59355 0.8829 0.0
C634 C 0.99967 0.59019 0.95967 0.0
C635 C 1.00004 0.57072 0.98471 0.0
C636 C 1.00043 0.55507 0.93448 0.0
C637 C 0.99926 0.6069 0.01365 0.0
C638 C 0.01284 0.60725 0.07209 0.0
C639 C 0.986 0.62275 0.00681 0.0
C640 C 0.97023 0.62282 0.95048 0.0
C641 C 0.95687 0.60724 0.94607 0.0
C642 C 0.94216 0.6073 0.89243 0.0
C643 C 0.94056 0.62295 0.84321 0.0
C644 C 0.95365 0.63859 0.84768 0.0
C645 C 0.9684 0.63859 0.90118 0.0
H646 H 0.92917 0.62297 0.8017 0.0
H647 H 0.06917 0.62106 0.33308 0.0
H648 H 0.0274 0.22821 0.30517 0.0
H649 H 0.00971 0.20945 0.39761 0.0
H650 H 0.95879 0.24558 0.36387 0.0
H651 H 0.97652 0.26427 0.27004 0.0
H652 H 0.98582 0.20798 0.51715 0.0
H653 H 0.92237 0.21324 0.31638 0.0
H654 H 0.91457 0.22636 0.19265 0.0
H655 H 0.97374 0.21647 0.12318 0.0
H656 H 0.98171 0.20288 0.24581 0.0
H657 H 0.94092 0.11464 0.57371 0.0
H658 H 0.94065 0.15035 0.56072 0.0
H659 H 0.96696 0.1448 0.345 0.0
H660 H 0.9668 0.10934 0.35699 0.0
H661 H 0.94109 0.17348 0.34489 0.0
H662 H 0.9938 0.1503 0.50454 0.0
H663 H 0.00785 0.13524 0.61635 0.0
H664 H 0.9784 0.17745 0.75214 0.0
H665 H 0.96378 0.19249 0.64101 0.0
C666 C 0.01277 0.23275 0.32023 0.0
C667 C 1.00308 0.24723 0.27948 0.0
C668 C 1.00267 0.22211 0.37346 0.0
C669 C 0.98276 0.22577 0.38588 0.0
C670 C 0.97409 0.2424 0.35425 0.0
C671 C 0.98423 0.25307 0.30074 0.0
C672 C 0.97064 0.20939 0.41314 0.0
C673 C 0.9755 0.2007 0.48082 0.0
C674 C 0.95744 0.19974 0.36496 0.0
C675 C 0.95268 0.20739 0.2905 0.0
C676 C 0.93367 0.21384 0.27456 0.0
C677 C 0.92922 0.22132 0.20463 0.0
C678 C 0.94368 0.22236 0.15025 0.0
C679 C 0.96258 0.21578 0.16549 0.0
C680 C 0.96705 0.20813 0.23507 0.0
C681 C 0.94614 0.12109 0.52279 0.0
C682 C 0.95406 0.10929 0.46652 0.0
C683 C 0.94608 0.14145 0.51568 0.0
C684 C 0.95395 0.15022 0.45225 0.0
C685 C 0.96077 0.13835 0.39441 0.0
C686 C 0.96084 0.1181 0.40149 0.0
C687 C 0.95703 0.1716 0.44734 0.0
C688 C 0.95039 0.18123 0.38372 0.0
C689 C 0.96919 0.18173 0.49794 0.0
C690 C 0.97743 0.17228 0.56468 0.0
C691 C 0.9901 0.15619 0.5583 0.0
C692 C 0.9982 0.14769 0.6215 0.0
C693 C 0.99397 0.15538 0.69121 0.0
C694 C 0.98157 0.17149 0.69803 0.0
C695 C 0.97333 0.17997 0.63501 0.0
H696 H 1.00039 0.14893 0.73987 0.0
H697 H 0.94022 0.22817 0.09622 0.0
H698 H 0.28647 0.96168 0.20594 0.0
H699 H 0.30229 0.94686 0.31212 0.0
H700 H 0.27668 0.99055 0.45463 0.0
H701 H 0.2613 1.0059 0.34688 0.0
H702 H 0.31361 0.99195 0.46764 0.0
H703 H 0.27015 0.93974 0.48832 0.0
H704 H 0.24799 0.91316 0.45049 0.0
H705 H 0.29626 0.8817 0.35665 0.0
H706 H 0.3187 0.9082 0.39275 0.0
H707 H 0.39614 0.96189 0.66 0.0
H708 H 0.36054 0.96071 0.64848 0.0
H709 H 0.36628 0.93342 0.43465 0.0
H710 H 0.40178 0.93455 0.44579 0.0
H711 H 0.33152 0.92253 0.50843 0.0
H712 H 0.36971 0.9822 0.45028 0.0
H713 H 0.39206 0.00857 0.48935 0.0
H714 H 0.35161 0.02578 0.65865 0.0
H715 H 0.32913 0.99932 0.62093 0.0
C716 C 0.28369 0.96773 0.26029 0.0
C717 C 0.27298 0.9851 0.26818 0.0
C718 C 0.29257 0.9591 0.32137 0.0
C719 C 0.29072 0.96753 0.39186 0.0
C720 C 0.27833 0.98377 0.40088 0.0
C721 C 0.26947 0.99248 0.3394 0.0
C722 C 0.30491 0.96195 0.45045 0.0
C723 C 0.31699 0.97675 0.4789 0.0
C724 C 0.30952 0.94215 0.4654 0.0
C725 C 0.29615 0.92602 0.44342 0.0
C726 C 0.27605 0.92721 0.45926 0.0
C727 C 0.26343 0.91214 0.43814 0.0
C728 C 0.27071 0.89575 0.40123 0.0
C729 C 0.29064 0.89439 0.3854 0.0
C730 C 0.30334 0.90942 0.40639 0.0
C731 C 0.38977 0.95509 0.61156 0.0
C732 C 0.4017 0.94872 0.55293 0.0
C733 C 0.36944 0.95429 0.60536 0.0
C734 C 0.3608 0.94731 0.54015 0.0
C735 C 0.37266 0.93886 0.48547 0.0
C736 C 0.39298 0.93957 0.49177 0.0
C737 C 0.34041 0.95248 0.52105 0.0
C738 C 0.32737 0.93766 0.50002 0.0
C739 C 0.33476 0.97228 0.51319 0.0
C740 C 0.3479 0.98865 0.53359 0.0
C741 C 0.36562 0.99159 0.49593 0.0
C742 C 0.37831 1.00654 0.51782 0.0
C743 C 0.37329 0.01881 0.57659 0.0
C744 C 0.3555 0.01625 0.61319 0.0
C745 C 0.34278 1.00129 0.59158 0.0
H746 H 0.38315 0.03033 0.59364 0.0
H747 H 0.26091 0.8841 0.3849 0.0
H748 H 0.49649 0.301 0.27244 0.0
H749 H 0.51071 0.31884 0.37458 0.0
H750 H 0.55663 0.27571 0.39198 0.0
H751 H 0.543 0.25849 0.28454 0.0
H752 H 0.52097 0.31866 0.5055 0.0
H753 H 0.59843 0.29839 0.4359 0.0
H754 H 0.61795 0.28252 0.33793 0.0
H755 H 0.578 0.30378 0.1734 0.0
H756 H 0.55838 0.31986 0.27042 0.0
H757 H 0.56133 0.40759 0.62322 0.0
H758 H 0.55916 0.37209 0.61864 0.0
H759 H 0.57529 0.37322 0.38822 0.0
H760 H 0.57989 0.40821 0.39468 0.0
H761 H 0.58673 0.34197 0.43282 0.0
H762 H 0.52483 0.37622 0.47475 0.0
H763 H 0.49931 0.39449 0.54193 0.0
H764 H 0.50001 0.35146 0.71445 0.0
H765 H 0.5261 0.33346 0.65006 0.0
C766 C 0.50945 0.29512 0.29878 0.0
C767 C 0.51906 0.27882 0.269 0.0
C768 C 0.51751 0.30523 0.358 0.0
C769 C 0.53519 0.29904 0.38987 0.0
C770 C 0.54334 0.28115 0.36685 0.0
C771 C 0.53544 0.27119 0.30598 0.0
C772 C 0.54605 0.31316 0.43717 0.0
C773 C 0.53551 0.32361 0.49064 0.0
C774 C 0.56513 0.31952 0.41877 0.0
C775 C 0.57687 0.31005 0.36027 0.0
C776 C 0.59386 0.29965 0.37877 0.0
C777 C 0.60493 0.29064 0.32347 0.0
C778 C 0.59918 0.29208 0.24952 0.0
C779 C 0.58241 0.30262 0.23067 0.0
C780 C 0.57133 0.3117 0.28574 0.0
C781 C 0.56524 0.40027 0.57229 0.0
C782 C 0.57035 0.41099 0.50859 0.0
C783 C 0.56365 0.37989 0.56958 0.0
C784 C 0.56633 0.36987 0.50261 0.0
C785 C 0.57291 0.38042 0.44077 0.0
C786 C 0.57519 0.40064 0.44408 0.0
C787 C 0.56047 0.34901 0.49317 0.0
C788 C 0.57238 0.33688 0.44949 0.0
C789 C 0.54199 0.34184 0.51633 0.0
C790 C 0.52769 0.35372 0.55834 0.0
C791 C 0.51984 0.37092 0.52785 0.0
C792 C 0.50525 0.38121 0.56541 0.0
C793 C 0.49809 0.37419 0.63263 0.0
C794 C 0.5057 0.35703 0.66293 0.0
C795 C 0.52048 0.34684 0.62618 0.0
H796 H 0.48662 0.38204 0.66115 0.0
H797 H 0.60775 0.28506 0.20682 0.0
H798 H 0.25433 0.54714 0.24187 0.0
H799 H 0.23623 0.56795 0.32843 0.0
H800 H 0.20254 0.51789 0.39801 0.0
H801 H 0.22063 0.49728 0.31237 0.0
H802 H 0.19966 0.57286 0.29615 0.0
H803 H 0.17913 0.52416 0.55348 0.0
H804 H 0.19625 0.50519 0.64928 0.0
H805 H 0.24868 0.53806 0.61067 0.0
H806 H 0.23182 0.55753 0.51554 0.0
H807 H 0.1027 0.55347 0.35341 0.0
H808 H 0.13797 0.55587 0.33611 0.0
H809 H 0.14303 0.58853 0.53935 0.0
H810 H 0.10754 0.586 0.55721 0.0
H811 H 0.1679 0.55769 0.5354 0.0
H812 H 0.15488 0.61159 0.38175 0.0
H813 H 0.13758 0.63082 0.28687 0.0
H814 H 0.15329 0.58858 0.12165 0.0
H815 H 0.17041 0.56895 0.2157 0.0
C816 C 0.24376 0.54049 0.27863 0.0
C817 C 0.23866 0.52074 0.27044 0.0
C818 C 0.23339 0.55238 0.32784 0.0
C819 C 0.21795 0.54455 0.36957 0.0
C820 C 0.21455 0.5243 0.36746 0.0
C821 C 0.2248 0.51249 0.31815 0.0
C822 C 0.20242 0.55742 0.39951 0.0
C823 C 0.19297 0.56991 0.34929 0.0
C824 C 0.19393 0.55408 0.46965 0.0
C825 C 0.20415 0.54237 0.52713 0.0
C826 C 0.19426 0.5275 0.56575 0.0
C827 C 0.20394 0.51661 0.6199 0.0
C828 C 0.22354 0.52041 0.63603 0.0
C829 C 0.23351 0.53511 0.59803 0.0
C830 C 0.22389 0.54607 0.54389 0.0
C831 C 0.1113 0.56145 0.3937 0.0
C832 C 0.10247 0.56951 0.45663 0.0
C833 C 0.13141 0.56296 0.38356 0.0
C834 C 0.14309 0.57256 0.43612 0.0
C835 C 0.13424 0.58121 0.49793 0.0
C836 C 0.11401 0.57983 0.50782 0.0
C837 C 0.16461 0.57146 0.42923 0.0
C838 C 0.17506 0.56126 0.48372 0.0
C839 C 0.17409 0.57693 0.36311 0.0
C840 C 0.16401 0.58881 0.30588 0.0
C841 C 0.1546 0.60636 0.32524 0.0
C842 C 0.14482 0.61734 0.27158 0.0
C843 C 0.14437 0.61094 0.19826 0.0
C844 C 0.15371 0.59356 0.17841 0.0
C845 C 0.1635 0.58253 0.23185 0.0
H846 H 0.13677 0.61945 0.15684 0.0
H847 H 0.23101 0.51196 0.67798 0.0
H848 H 0.98615 0.76331 0.14075 0.0
H849 H 0.98547 0.78286 0.02734 0.0
H850 H 0.04519 0.80039 0.06632 0.0
H851 H 0.04572 0.78117 0.17979 0.0
H852 H 0.98973 0.82152 0.06036 0.0
H853 H 0.06573 0.81699 0.91056 0.0
H854 H 0.08711 0.79161 0.85782 0.0
H855 H 0.03802 0.75301 0.83461 0.0
H856 H 0.01624 0.77824 0.88608 0.0
H857 H 0.05377 0.90233 0.00304 0.0
H858 H 0.04612 0.86736 0.00646 0.0
H859 H 0.99883 0.87633 0.85261 0.0
H860 H 1.00608 0.91138 0.85019 0.0
H861 H 0.03867 0.83808 0.86839 0.0
H862 H 0.97132 0.86512 0.9342 0.0
H863 H 0.95219 0.89096 0.9964 0.0
H864 H 0.98568 0.88276 0.19476 0.0
H865 H 1.00517 0.8571 0.13316 0.0
C866 C 0.99939 0.77059 0.12286 0.0
C867 C 0.01593 0.77104 0.16872 0.0
C868 C 0.999 0.78169 0.05816 0.0
C869 C 0.01525 0.79308 0.03856 0.0
C870 C 0.03257 0.79151 0.0798 0.0
C871 C 0.03286 0.78066 0.14489 0.0
C872 C 0.01277 0.81035 0.99062 0.0
C873 C 0.99986 0.82482 0.01597 0.0
C874 C 0.02622 0.81479 0.93377 0.0
C875 C 0.03931 0.79957 0.9024 0.0
C876 C 0.05942 0.80317 0.8937 0.0
C877 C 0.07164 0.78877 0.86414 0.0
C878 C 0.06394 0.77071 0.84293 0.0
C879 C 0.04399 0.76699 0.85121 0.0
C880 C 0.0317 0.78133 0.88073 0.0
C881 C 0.04188 0.89681 0.96943 0.0
C882 C 0.03038 0.90953 0.92697 0.0
C883 C 0.03757 0.8769 0.97123 0.0
C884 C 0.02191 0.86945 0.9299 0.0
C885 C 0.01087 0.88193 0.88518 0.0
C886 C 0.015 0.90189 0.88411 0.0
C887 C 0.01615 0.84895 0.94029 0.0
C888 C 0.02774 0.8342 0.90914 0.0
C889 C 1.00154 0.84412 0.99193 0.0
C890 C 0.98973 0.85936 0.02902 0.0
C891 C 0.97464 0.86894 0.99091 0.0
C892 C 0.96375 0.88354 0.02603 0.0
C893 C 0.96773 0.88851 0.09945 0.0
C894 C 0.98262 0.87891 0.13789 0.0
C895 C 0.9936 0.86436 0.1029 0.0
H896 H 0.95924 0.89977 0.1266 0.0
H897 H 0.07342 0.75959 0.82005 0.0
H898 H 0.73702 0.94792 0.15152 0.0
H899 H 0.71523 0.94792 0.04474 0.0
H900 H 0.73709 1.00456 0.98114 0.0
H901 H 0.75899 1.00449 0.08706 0.0
H902 H 0.69108 0.97806 0.08021 0.0
H903 H 0.71566 0.01594 0.80367 0.0
H904 H 0.74101 0.01224 0.70819 0.0
H905 H 0.75061 0.95284 0.77515 0.0
H906 H 0.72505 0.95598 0.87005 0.0
H907 H 0.62301 0.04647 0.97299 0.0
H908 H 0.65617 0.03334 0.98514 0.0
H909 H 0.64219 0.98742 0.83041 0.0
H910 H 0.60901 1.00047 0.8181 0.0
H911 H 0.68261 1.00181 0.82337 0.0
H912 H 0.63434 0.977 0.99471 0.0
H913 H 0.60809 0.98049 0.08702 0.0
H914 H 0.64701 0.012 0.23027 0.0
H915 H 0.67339 0.00904 0.13811 0.0
C916 C 0.7381 0.95974 0.11193 0.0
C917 C 0.74915 0.97647 0.12852 0.0
C918 C 0.72566 0.95973 0.05078 0.0
C919 C 0.72413 0.9765 0.00644 0.0
C920 C 0.73795 0.99149 0.0148 0.0
C921 C 0.7505 0.99146 0.07571 0.0
C922 C 0.70494 0.9815 0.97387 0.0
C923 C 0.68925 0.9829 0.02353 0.0
C924 C 0.7026 0.98811 0.90033 0.0
C925 C 0.7185 0.98629 0.84485 0.0
C926 C 0.72314 1.00206 0.79813 0.0
C927 C 0.73755 1.00006 0.74395 0.0
C928 C 0.74746 0.98234 0.73578 0.0
C929 C 0.743 0.9666 0.78185 0.0
C930 C 0.7286 0.96851 0.8361 0.0
C931 C 0.6272 0.03391 0.94012 0.0
C932 C 0.61344 0.02424 0.89576 0.0
C933 C 0.64609 0.02645 0.94694 0.0
C934 C 0.65145 0.00931 0.90925 0.0
C935 C 0.63827 1.00064 0.85993 0.0
C936 C 0.61932 0.00799 0.85359 0.0
C937 C 0.66942 0.99882 0.9306 0.0
C938 C 0.68465 0.99657 0.87938 0.0
C939 C 0.67157 0.99145 0.003 0.0
C940 C 0.65578 0.99298 0.05907 0.0
C941 C 0.63725 0.98482 0.04558 0.0
C942 C 0.62235 0.98668 0.09794 0.0
C943 C 0.62586 0.9965 0.16438 0.0
C944 C 0.6443 1.00442 0.17873 0.0
C945 C 0.65923 1.00266 0.12643 0.0
H946 H 0.6143 0.99793 0.20479 0.0
H947 H 0.75857 0.98081 0.69366 0.0
H948 H 0.53887 0.7343 0.14 0.0
H949 H 0.52611 0.71009 0.05346 0.0
H950 H 0.46788 0.73256 0.08635 0.0
H951 H 0.48075 0.75708 0.17185 0.0
H952 H 0.47742 0.69655 0.15737 0.0
H953 H 0.47971 0.72527 0.92031 0.0
H954 H 0.49287 0.74252 0.81182 0.0
H955 H 0.53535 0.6971 0.78042 0.0
H956 H 0.5228 0.67977 0.88974 0.0
H957 H 0.44364 0.60352 0.02167 0.0
H958 H 0.44786 0.63858 0.0448 0.0
H959 H 0.50959 0.63324 1.00109 0.0
H960 H 0.50549 0.59845 0.97641 0.0
H961 H 0.49171 0.663 0.92088 0.0
H962 H 0.49632 0.63924 0.16786 0.0
H963 H 0.48674 0.62204 0.2817 0.0
H964 H 0.4355 0.65796 0.29898 0.0
H965 H 0.4447 0.6753 0.18463 0.0
C966 C 0.52358 0.73493 0.12453 0.0
C967 C 0.5107 0.74729 0.16259 0.0
C968 C 0.51627 0.72111 0.07509 0.0
C969 C 0.49603 0.71943 0.06449 0.0
C970 C 0.48355 0.73374 0.09377 0.0
C971 C 0.49091 0.74775 0.14244 0.0
C972 C 0.48812 0.7 0.04604 0.0
C973 C 0.47992 0.68936 0.1047 0.0
C974 C 0.49228 0.69055 0.9785 0.0
C975 C 0.50038 0.70127 0.91397 0.0
C976 C 0.49205 0.71908 0.89107 0.0
C977 C 0.49937 0.72886 0.82918 0.0
C978 C 0.51496 0.72094 0.78935 0.0
C979 C 0.52329 0.70324 0.81139 0.0
C980 C 0.51607 0.69343 0.87336 0.0
C981 C 0.45812 0.60982 0.01763 0.0
C982 C 0.47422 0.59827 0.99718 0.0
C983 C 0.46051 0.62977 0.031 0.0
C984 C 0.479 0.63839 0.02394 0.0
C985 C 0.4952 0.62679 0.00639 0.0
C986 C 0.49285 0.60688 0.99324 0.0
C987 C 0.48147 0.65964 0.03259 0.0
C988 C 0.48869 0.67042 0.97253 0.0
C989 C 0.47697 0.66919 0.0995 0.0
C990 C 0.47101 0.65833 0.16682 0.0
C991 C 0.48282 0.64325 0.19512 0.0
C992 C 0.47752 0.63354 0.26002 0.0
C993 C 0.46045 0.63882 0.29732 0.0
C994 C 0.44868 0.65385 0.26988 0.0
C995 C 0.45394 0.66363 0.20506 0.0
H996 H 0.45639 0.63131 0.34764 0.0
H997 H 0.52055 0.7285 0.7413 0.0
H998 H 0.74886 0.48212 0.10781 0.0
H999 H 0.76612 0.47481 0.99225 0.0
H1000 H 0.8037 0.52461 0.02891 0.0
H1001 H 0.78612 0.53221 0.14192 0.0
H1002 H 0.80256 0.51715 0.88781 0.0
H1003 H 0.81222 0.47934 0.11555 0.0
H1004 H 0.80069 0.4575 0.21482 0.0
H1005 H 0.78382 0.41462 0.0534 0.0
H1006 H 0.79506 0.43637 0.95312 0.0
H1007 H 0.9017 0.50005 0.91909 0.0
H1008 H 0.86663 0.50608 0.92352 0.0
H1009 H 0.85594 0.45023 0.81992 0.0
H1010 H 0.89139 0.44396 0.8174 0.0
H1011 H 0.83584 0.4546 0.94592 0.0
H1012 H 0.84217 0.49375 0.72715 0.0
H1013 H 0.85678 0.51865 0.64651 0.0
H1014 H 0.84828 0.56247 0.81257 0.0
H1015 H 0.83346 0.5379 0.89481 0.0
C1016 C 0.76016 0.49201 0.08889 0.0
C1017 C 0.76656 0.50744 0.13405 0.0
C1018 C 0.77008 0.48778 0.02322 0.0
C1019 C 0.7866 0.49878 0.00329 0.0
C1020 C 0.79112 0.51578 0.04332 0.0
C1021 C 0.78116 0.52008 0.10822 0.0
C1022 C 0.80165 0.49084 0.95268 0.0
C1023 C 0.8097 0.50333 0.89941 0.0
C1024 C 0.81081 0.47266 0.96705 0.0
C1025 C 0.80422 0.45952 0.02701 0.0
C1026 C 0.80598 0.46528 0.10134 0.0
C1027 C 0.79949 0.45293 0.15772 0.0
C1028 C 0.79147 0.4347 0.14041 0.0
C1029 C 0.78998 0.42877 0.06668 0.0
C1030 C 0.79638 0.44109 0.01005 0.0
C1031 C 0.89185 0.48914 0.89677 0.0
C1032 C 0.89909 0.47148 0.8684 0.0
C1033 C 0.87183 0.49273 0.89803 0.0
C1034 C 0.85864 0.4788 0.8705 0.0
C1035 C 0.86588 0.4613 0.84039 0.0
C1036 C 0.88603 0.45771 0.839 0.0
C1037 C 0.83747 0.4815 0.88438 0.0
C1038 C 0.82825 0.46795 0.93081 0.0
C1039 C 0.82774 0.49912 0.86626 0.0
C1040 C 0.83668 0.51394 0.81708 0.0
C1041 C 0.84348 0.50867 0.74667 0.0
C1042 C 0.8518 0.52274 0.7006 0.0
C1043 C 0.85357 0.54209 0.72418 0.0
C1044 C 0.8469 0.54747 0.79417 0.0
C1045 C 0.83843 0.5335 0.84047 0.0
H1046 H 0.86009 0.5529 0.68818 0.0
H1047 H 0.78646 0.42516 0.18413 0.0
H1048 H 0.99507 0.23115 0.96319 0.0
H1049 H 0.99481 0.19968 0.89701 0.0
H1050 H 0.04539 0.18114 0.02073 0.0
H1051 H 0.04554 0.21243 0.08687 0.0
H1052 H 0.04784 0.16931 0.87581 0.0
H1053 H 1.00082 0.16314 0.07529 0.0
H1054 H 0.97215 0.17244 0.1499 0.0
H1055 H 0.93628 0.17246 0.95507 0.0
H1056 H 0.96471 0.16261 0.87961 0.0
H1057 H 0.04122 0.06549 0.83941 0.0
H1058 H 0.04313 0.09914 0.88471 0.0
H1059 H 0.98989 0.11317 0.76867 0.0
H1060 H 0.98777 0.07955 0.72383 0.0
H1061 H 0.98857 0.12819 0.90314 0.0
H1062 H 0.03544 0.12881 0.70733 0.0
H1063 H 0.06413 0.11756 0.63683 0.0
H1064 H 0.10101 0.12838 0.82454 0.0
H1065 H 0.07247 0.13948 0.89647 0.0
C1066 C 1.00644 0.22056 0.97454 0.0
C1067 C 0.02051 0.22437 0.02936 0.0
C1068 C 1.00615 0.20246 0.93746 0.0
C1069 C 0.01997 0.18785 0.95428 0.0
C1070 C 0.03458 0.19209 0.00648 0.0
C1071 C 0.03473 0.21003 0.04404 0.0
C1072 C 0.01875 0.16785 0.92053 0.0
C1073 C 0.03493 0.16027 0.88224 0.0
C1074 C 1.00185 0.15605 0.92743 0.0
C1075 C 0.98487 0.16238 0.97188 0.0
C1076 C 0.98683 0.16525 0.0484 0.0
C1077 C 0.97062 0.17054 0.09084 0.0
C1078 C 0.95243 0.17324 0.05718 0.0
C1079 C 0.95039 0.17044 0.98104 0.0
C1080 C 0.96651 0.16487 0.93848 0.0
C1081 C 0.02995 0.07573 0.82308 0.0
C1082 C 0.01434 0.06966 0.77776 0.0
C1083 C 0.03111 0.09507 0.8489 0.0
C1084 C 0.01676 0.10892 0.82977 0.0
C1085 C 1.00119 0.10289 0.78442 0.0
C1086 C 1.00002 0.08357 0.75858 0.0
C1087 C 0.01771 0.12951 0.85838 0.0
C1088 C 1.00146 0.13722 0.89594 0.0
C1089 C 0.03458 0.1414 0.85058 0.0
C1090 C 0.05178 0.13481 0.80746 0.0
C1091 C 0.04964 0.12867 0.73371 0.0
C1092 C 0.06588 0.12234 0.69348 0.0
C1093 C 0.08437 0.12221 0.72624 0.0
C1094 C 0.08667 0.12847 0.79926 0.0
C1095 C 0.07047 0.1348 0.83976 0.0
H1096 H 0.09693 0.1173 0.69501 0.0
H1097 H 0.93992 0.17742 0.09014 0.0
H1098 H 0.28501 0.01299 0.94043 0.0
H1099 H 0.31521 0.01664 0.86773 0.0
H1100 H 0.34743 0.02816 0.06811 0.0
H1101 H 0.31749 0.02514 0.13973 0.0
H1102 H 0.36039 0.05101 0.96441 0.0
H1103 H 0.34438 0.98204 0.98045 0.0
H1104 H 0.32426 0.95266 0.9591 0.0
H1105 H 0.3274 0.96194 0.72471 0.0
H1106 H 0.3474 0.99146 0.74501 0.0
H1107 H 0.45815 0.02416 0.89006 0.0
H1108 H 0.42459 0.02661 0.9351 0.0
H1109 H 0.40288 0.01676 0.71442 0.0
H1110 H 0.43638 0.01432 0.66895 0.0
H1111 H 0.38278 0.99529 0.81085 0.0
H1112 H 0.40083 0.06238 0.79348 0.0
H1113 H 0.42153 0.09142 0.81309 0.0
H1114 H 0.415 0.08549 0.04796 0.0
H1115 H 0.39446 0.05624 0.0298 0.0
C1116 C 0.29849 0.01669 0.96852 0.0
C1117 C 0.29889 0.01855 0.04593 0.0
C1118 C 0.3158 0.01857 0.92709 0.0
C1119 C 0.33378 0.02231 0.96243 0.0
C1120 C 0.33388 0.02516 0.03925 0.0
C1121 C 0.31671 0.02333 0.08032 0.0
C1122 C 0.35275 0.02267 0.92123 0.0
C1123 C 0.36529 0.03875 0.93123 0.0
C1124 C 0.35908 1.00697 0.87588 0.0
C1125 C 0.34705 0.98919 0.86419 0.0
C1126 C 0.34061 0.97793 0.92442 0.0
C1127 C 0.32927 0.96121 0.91254 0.0
C1128 C 0.32446 0.95549 0.84063 0.0
C1129 C 0.33105 0.96642 0.78043 0.0
C1130 C 0.34237 0.98315 0.79208 0.0
C1131 C 0.44628 0.02267 0.85084 0.0
C1132 C 0.45011 0.01899 0.77572 0.0
C1133 C 0.42703 0.02412 0.87672 0.0
C1134 C 0.4111 0.02208 0.82813 0.0
C1135 C 0.41486 0.01842 0.75312 0.0
C1136 C 0.4341 0.01701 0.72717 0.0
C1137 C 0.39058 0.02334 0.85612 0.0
C1138 C 0.37778 0.00763 0.84341 0.0
C1139 C 0.38399 0.03935 0.89906 0.0
C1140 C 0.39621 0.05703 0.91026 0.0
C1141 C 0.40391 0.06719 0.84933 0.0
C1142 C 0.4156 0.08371 0.86018 0.0
C1143 C 0.41961 0.09028 0.93173 0.0
C1144 C 0.41189 0.08038 0.99257 0.0
C1145 C 0.4002 0.06385 0.98203 0.0
H1146 H 0.42867 0.10306 0.94001 0.0
H1147 H 0.3157 0.94253 0.83156 0.0
H1148 H 0.483 0.31296 0.08286 0.0
H1149 H 0.48227 0.34238 0.00749 0.0
H1150 H 0.52119 0.31532 0.85034 0.0
H1151 H 0.5224 0.28574 0.92792 0.0
H1152 H 0.53364 0.35095 0.87972 0.0
H1153 H 0.47236 0.32558 0.80632 0.0
H1154 H 0.43973 0.31074 0.82016 0.0
H1155 H 0.42058 0.36036 0.94619 0.0
H1156 H 0.45317 0.37539 0.934 0.0
H1157 H 0.52375 0.43768 0.6567 0.0
H1158 H 0.52324 0.40369 0.69891 0.0
H1159 H 0.48639 0.42015 0.88195 0.0
H1160 H 0.4869 0.45406 0.84042 0.0
H1161 H 0.47306 0.3875 0.82027 0.0
H1162 H 0.53666 0.41146 0.89639 0.0
H1163 H 0.5692 0.42575 0.87426 0.0
H1164 H 0.58398 0.37752 0.733 0.0
H1165 H 0.55134 0.36313 0.75308 0.0
C1166 C 0.49115 0.3131 0.03155 0.0
C1167 C 0.50276 0.29698 0.01143 0.0
C1168 C 0.49065 0.32997 0.98813 0.0
C1169 C 0.50155 0.33119 0.92254 0.0
C1170 C 0.51262 0.31481 0.9006 0.0
C1171 C 0.51314 0.29781 0.94446 0.0
C1172 C 0.50217 0.35006 0.88049 0.0
C1173 C 0.52037 0.35874 0.8654 0.0
C1174 C 0.48493 0.36049 0.86218 0.0
C1175 C 0.46527 0.35154 0.8697 0.0
C1176 C 0.46123 0.33326 0.83747 0.0
C1177 C 0.44273 0.32483 0.84493 0.0
C1178 C 0.4281 0.33458 0.88416 0.0
C1179 C 0.43193 0.35282 0.91586 0.0
C1180 C 0.45041 0.36131 0.9086 0.0
C1181 C 0.51543 0.43406 0.70569 0.0
C1182 C 0.50535 0.4487 0.74507 0.0
C1183 C 0.5152 0.41456 0.72999 0.0
C1184 C 0.50479 0.40922 0.79393 0.0
C1185 C 0.4945 0.42379 0.83245 0.0
C1186 C 0.49486 0.44325 0.80868 0.0
C1187 C 0.50449 0.38859 0.82157 0.0
C1188 C 0.48632 0.37961 0.83403 0.0
C1189 C 0.52176 0.37783 0.83647 0.0
C1190 C 0.54146 0.38636 0.82542 0.0
C1191 C 0.54678 0.40398 0.86009 0.0
C1192 C 0.56525 0.4121 0.84793 0.0
C1193 C 0.57862 0.4026 0.80196 0.0
C1194 C 0.57359 0.3849 0.76842 0.0
C1195 C 0.5551 0.37677 0.78009 0.0
H1196 H 0.5929 0.40892 0.79254 0.0
H1197 H 0.41379 0.32803 0.88988 0.0
H1198 H 0.22637 0.51287 0.94675 0.0
H1199 H 0.19542 0.51227 0.87745 0.0
H1200 H 0.17089 0.47302 0.03898 0.0
H1201 H 0.20166 0.47371 0.10817 0.0
H1202 H 0.15869 0.46386 0.8967 0.0
H1203 H 0.1632 0.52028 0.05472 0.0
H1204 H 0.17847 0.55037 0.10238 0.0
H1205 H 0.17362 0.57692 0.88826 0.0
H1206 H 0.15876 0.54674 0.83875 0.0
H1207 H 0.05647 0.48015 0.85716 0.0
H1208 H 0.09006 0.47675 0.90144 0.0
H1209 H 0.10862 0.52199 0.75125 0.0
H1210 H 0.07503 0.52579 0.70796 0.0
H1211 H 0.12505 0.52793 0.87924 0.0
H1212 H 0.1188 0.472 0.72203 0.0
H1213 H 0.1038 0.44171 0.67456 0.0
H1214 H 0.11171 0.41428 0.8858 0.0
H1215 H 0.12653 0.44451 0.93486 0.0
C1216 C 0.21456 0.50366 0.96604 0.0
C1217 C 0.21644 0.49326 0.03263 0.0
C1218 C 0.19681 0.50346 0.92687 0.0
C1219 C 0.18068 0.49278 0.95342 0.0
C1220 C 0.18305 0.48137 0.01725 0.0
C1221 C 0.20065 0.48174 0.05672 0.0
C1222 C 0.16091 0.49468 0.91881 0.0
C1223 C 0.15128 0.47785 0.8932 0.0
C1224 C 0.15128 0.51296 0.91308 0.0
C1225 C 0.16009 0.53116 0.94281 0.0
C1226 C 0.16555 0.53246 0.01761 0.0
C1227 C 0.17411 0.54955 0.045 0.0
C1228 C 0.17702 0.56555 0.99841 0.0
C1229 C 0.17138 0.5645 0.92428 0.0
C1230 C 0.16292 0.54739 0.89648 0.0
C1231 C 0.06769 0.48932 0.83315 0.0
C1232 C 0.06291 0.50324 0.77879 0.0
C1233 C 0.08699 0.48729 0.85836 0.0
C1234 C 0.1021 0.49893 0.82922 0.0
C1235 C 0.09735 0.5128 0.77482 0.0
C1236 C 0.07805 0.51493 0.74992 0.0
C1237 C 0.1227 0.49707 0.85683 0.0
C1238 C 0.13248 0.51393 0.88164 0.0
C1239 C 0.13245 0.47881 0.86168 0.0
C1240 C 0.12362 0.46058 0.83229 0.0
C1241 C 0.11722 0.45955 0.75852 0.0
C1242 C 0.10877 0.44239 0.7313 0.0
C1243 C 0.10676 0.4261 0.77718 0.0
C1244 C 0.11326 0.42692 0.85034 0.0
C1245 C 0.1217 0.44406 0.87786 0.0
H1246 H 0.10021 0.41282 0.75601 0.0
H1247 H 0.18361 0.57879 0.0198 0.0
H1248 H 0.98081 0.79053 0.4566 0.0
H1249 H 0.97962 0.8226 0.51818 0.0
H1250 H 0.04072 0.8313 0.47043 0.0
H1251 H 0.04187 0.79941 0.409 0.0
H1252 H 0.03223 0.84679 0.60303 0.0
H1253 H 1.00715 0.85001 0.35861 0.0
H1254 H 0.98617 0.84129 0.25284 0.0
H1255 H 0.93526 0.85824 0.37575 0.0
H1256 H 0.95594 0.86667 0.48299 0.0
H1257 H 1.00611 0.95699 0.52484 0.0
H1258 H 1.00711 0.9227 0.48754 0.0
H1259 H 1.00601 0.90516 0.71623 0.0
H1260 H 1.00584 0.93958 0.75412 0.0
H1261 H 0.98473 0.89354 0.49532 0.0
H1262 H 0.03022 0.86007 0.73825 0.0
H1263 H 0.05581 0.8702 0.82639 0.0
H1264 H 0.0727 0.91696 0.68211 0.0
H1265 H 0.04795 0.90656 0.5913 0.0
C1266 C 0.99412 0.79902 0.46158 0.0
C1267 C 0.01148 0.79235 0.42857 0.0
C1268 C 0.99339 0.81746 0.49602 0.0
C1269 C 0.01003 0.8296 0.49835 0.0
C1270 C 0.02767 0.82233 0.46968 0.0
C1271 C 0.02834 0.80404 0.43473 0.0
C1272 C 0.00881 0.85038 0.52487 0.0
C1273 C 0.02169 0.85697 0.58015 0.0
C1274 C 0.9956 0.86398 0.4932 0.0
C1275 C 0.98307 0.85873 0.42921 0.0
C1276 C 0.99147 0.85168 0.36342 0.0
C1277 C 0.97964 0.84682 0.30314 0.0
C1278 C 0.9594 0.84918 0.3076 0.0
C1279 C 0.95095 0.85638 0.37243 0.0
C1280 C 0.96271 0.86118 0.43302 0.0
C1281 C 1.00608 0.94588 0.56743 0.0
C1282 C 1.00595 0.95118 0.64263 0.0
C1283 C 1.00659 0.92616 0.54592 0.0
C1284 C 1.00686 0.9111 0.59885 0.0
C1285 C 1.00625 0.91637 0.67408 0.0
C1286 C 1.00603 0.93612 0.69572 0.0
C1287 C 0.0079 0.89003 0.57493 0.0
C1288 C 0.99505 0.88337 0.51958 0.0
C1289 C 0.02166 0.87658 0.60473 0.0
C1290 C 0.0369 0.88275 0.6585 0.0
C1291 C 0.03944 0.87246 0.72507 0.0
C1292 C 0.05383 0.87823 0.7755 0.0
C1293 C 0.06565 0.89438 0.76042 0.0
C1294 C 0.0634 0.90456 0.6941 0.0
C1295 C 0.04925 0.89868 0.64295 0.0
H1296 H 0.07664 0.89891 0.7999 0.0
H1297 H 0.95027 0.84549 0.26076 0.0
H1298 H 0.7333 0.99606 0.47608 0.0
H1299 H 0.70248 1.00037 0.54298 0.0
H1300 H 0.67099 0.99833 0.33625 0.0
H1301 H 0.70129 0.99703 0.26992 0.0
H1302 H 0.65327 0.02135 0.40684 0.0
H1303 H 0.67907 0.95839 0.48183 0.0
H1304 H 0.70205 0.93538 0.54067 0.0
H1305 H 0.69332 0.96363 0.74989 0.0
H1306 H 0.67105 0.98737 0.69185 0.0
H1307 H 0.55958 0.98707 0.52195 0.0
H1308 H 0.59341 0.98663 0.47686 0.0
H1309 H 0.61283 0.01383 0.67885 0.0
H1310 H 0.57907 0.01468 0.72377 0.0
H1311 H 0.63699 0.98087 0.62519 0.0
H1312 H 0.60882 0.04198 0.54355 0.0
H1313 H 0.58385 0.06212 0.48139 0.0
H1314 H 0.59493 0.03227 0.27681 0.0
H1315 H 0.61971 0.01171 0.33817 0.0
C1316 C 0.71985 0.99689 0.4448 0.0
C1317 C 0.7201 0.99544 0.36704 0.0
C1318 C 0.70206 0.999 0.48342 0.0
C1319 C 0.68399 0.99906 0.44552 0.0
C1320 C 0.68442 0.99821 0.36799 0.0
C1321 C 0.70204 0.99693 0.32964 0.0
C1322 C 0.66452 1.00011 0.48435 0.0
C1323 C 0.64986 0.01218 0.45393 0.0
C1324 C 0.65973 0.98879 0.54779 0.0
C1325 C 0.67367 0.97489 0.58211 0.0
C1326 C 0.68234 0.95992 0.54013 0.0
C1327 C 0.69529 0.94677 0.57335 0.0
C1328 C 0.69937 0.94821 0.64883 0.0
C1329 C 0.69047 0.96276 0.69125 0.0
C1330 C 0.67774 0.97611 0.65816 0.0
C1331 C 0.57106 0.99277 0.55711 0.0
C1332 C 0.56656 1.00097 0.62633 0.0
C1333 C 0.5904 0.99257 0.53118 0.0
C1334 C 0.60567 1.00026 0.57437 0.0
C1335 C 0.60132 0.00779 0.64461 0.0
C1336 C 0.58197 0.00833 0.67001 0.0
C1337 C 0.62602 1.00119 0.54487 0.0
C1338 C 0.6407 0.98981 0.57774 0.0
C1339 C 0.63076 0.01267 0.48253 0.0
C1340 C 0.61599 0.02518 0.44561 0.0
C1341 C 0.60581 0.0396 0.48548 0.0
C1342 C 0.59171 0.05111 0.45037 0.0
C1343 C 0.58777 0.04845 0.37525 0.0
C1344 C 0.59797 0.0343 0.33502 0.0
C1345 C 0.61205 0.02273 0.36992 0.0
H1346 H 0.57685 0.05738 0.34819 0.0
H1347 H 0.7093 0.93796 0.67459 0.0
H1348 H 0.5502 0.71995 0.39284 0.0
H1349 H 0.54809 0.68777 0.45157 0.0
H1350 H 0.48841 0.69965 0.51347 0.0
H1351 H 0.49076 0.73211 0.45591 0.0
H1352 H 0.50472 0.67723 0.61655 0.0
H1353 H 0.49896 0.67536 0.3584 0.0
H1354 H 0.50772 0.68233 0.2292 0.0
H1355 H 0.55951 0.64742 0.25104 0.0
H1356 H 0.55157 0.64097 0.38172 0.0
H1357 H 0.48175 0.57512 0.6559 0.0
H1358 H 0.48204 0.60922 0.61545 0.0
H1359 H 0.54224 0.60323 0.54896 0.0
H1360 H 0.54177 0.56889 0.58647 0.0
H1361 H 0.52288 0.62307 0.44749 0.0
H1362 H 0.5244 0.62696 0.72045 0.0
H1363 H 0.50922 0.61888 0.84032 0.0
H1364 H 0.4568 0.64884 0.77577 0.0
H1365 H 0.47154 0.65685 0.65525 0.0
C1366 C 0.53692 0.716 0.42176 0.0
C1367 C 0.52078 0.7287 0.42102 0.0
C1368 C 0.5356 0.69747 0.45444 0.0
C1369 C 0.51794 0.69096 0.48576 0.0
C1370 C 0.5022 0.7042 0.48971 0.0
C1371 C 0.50359 0.72285 0.45735 0.0
C1372 C 0.5155 0.66996 0.50825 0.0
C1373 C 0.50864 0.66542 0.57937 0.0
C1374 C 0.52007 0.65434 0.45947 0.0
C1375 C 0.5248 0.6579 0.38041 0.0
C1376 C 0.51236 0.66936 0.33608 0.0
C1377 C 0.51719 0.67325 0.26254 0.0
C1378 C 0.53414 0.66531 0.23187 0.0
C1379 C 0.54638 0.65357 0.2749 0.0
C1380 C 0.54177 0.64987 0.34888 0.0
C1381 C 0.49511 0.58105 0.63301 0.0
C1382 C 0.51179 0.56915 0.62506 0.0
C1383 C 0.49528 0.60069 0.61007 0.0
C1384 C 0.5123 0.60917 0.58026 0.0
C1385 C 0.52891 0.59723 0.57192 0.0
C1386 C 0.52865 0.57752 0.59372 0.0
C1387 C 0.51292 0.6303 0.55696 0.0
C1388 C 0.51925 0.63489 0.48506 0.0
C1389 C 0.50711 0.6459 0.60402 0.0
C1390 C 0.49899 0.64231 0.67863 0.0
C1391 C 0.50965 0.63185 0.73196 0.0
C1392 C 0.5011 0.62723 0.79989 0.0
C1393 C 0.48198 0.63317 0.81519 0.0
C1394 C 0.47155 0.64414 0.76351 0.0
C1395 C 0.48 0.64874 0.6955 0.0
H1396 H 0.4752 0.62932 0.867 0.0
H1397 H 0.53777 0.66823 0.17473 0.0
H1398 H 0.78299 0.52933 0.45928 0.0
H1399 H 0.81475 0.52986 0.52324 0.0
H1400 H 0.83324 0.47962 0.39716 0.0
H1401 H 0.80154 0.47872 0.33558 0.0
H1402 H 0.84833 0.47683 0.52732 0.0
H1403 H 0.84484 0.52768 0.34521 0.0
H1404 H 0.83096 0.55691 0.28516 0.0
H1405 H 0.83952 0.59001 0.48433 0.0
H1406 H 0.85321 0.56087 0.54587 0.0
H1407 H 0.95215 0.52467 0.52205 0.0
H1408 H 0.91876 0.52203 0.47535 0.0
H1409 H 0.89942 0.5013 0.68804 0.0
H1410 H 0.93288 0.50389 0.73531 0.0
H1411 H 0.88526 0.53905 0.51097 0.0
H1412 H 0.8608 0.46613 0.6536 0.0
H1413 H 0.87519 0.43522 0.69721 0.0
H1414 H 0.92532 0.4444 0.5593 0.0
H1415 H 0.91066 0.47464 0.51063 0.0
C1416 C 0.79363 0.51807 0.44706 0.0
C1417 C 0.78978 0.50406 0.39208 0.0
C1418 C 0.81191 0.51852 0.48284 0.0
C1419 C 0.82672 0.50506 0.46388 0.0
C1420 C 0.82227 0.49026 0.41276 0.0
C1421 C 0.80409 0.48977 0.37742 0.0
C1422 C 0.84716 0.50693 0.49318 0.0
C1423 C 0.85633 0.49048 0.52442 0.0
C1424 C 0.85798 0.52454 0.48727 0.0
C1425 C 0.84988 0.54208 0.4503 0.0
C1426 C 0.84365 0.54117 0.3763 0.0
C1427 C 0.83583 0.55772 0.342 0.0
C1428 C 0.83432 0.5753 0.38095 0.0
C1429 C 0.84067 0.57638 0.45426 0.0
C1430 C 0.84847 0.55986 0.48887 0.0
C1431 C 0.94083 0.51964 0.55924 0.0
C1432 C 0.94535 0.51442 0.63254 0.0
C1433 C 0.92167 0.51817 0.53234 0.0
C1434 C 0.90651 0.51126 0.57768 0.0
C1435 C 0.91086 0.5064 0.65143 0.0
C1436 C 0.93004 0.50796 0.67852 0.0
C1437 C 0.88625 0.5091 0.54737 0.0
C1438 C 0.87721 0.52543 0.51488 0.0
C1439 C 0.87573 0.49123 0.55089 0.0
C1440 C 0.88474 0.47295 0.57946 0.0
C1441 C 0.87484 0.46153 0.63209 0.0
C1442 C 0.883 0.44405 0.6574 0.0
C1443 C 0.90125 0.43797 0.63166 0.0
C1444 C 0.91122 0.44918 0.57943 0.0
C1445 C 0.90293 0.46645 0.55262 0.0
H1446 H 0.90763 0.42452 0.65194 0.0
H1447 H 0.82827 0.5881 0.3543 0.0
loop_
_geom_bond_atom_site_label_1
_geom_bond_atom_site_label_2
_geom_bond_distance
_geom_bond_site_symmetry_2
_ccdc_geom_bond_type
H0 C3 0.929 . S
H1 C6 0.929 . S
H2 C8 0.930 . S
C3 H0 0.929 . S
C3 C4 1.398 . S
C3 C5 1.396 . S
C4 C3 1.398 . S
C4 C8 1.407 . S
C5 C3 1.396 . S
C5 C6 1.394 . S
C6 H1 0.929 . S
C6 C5 1.394 . S
C6 C7 1.382 . S
C7 C6 1.382 . S
C7 C8 1.392 . S
C7 N9 1.420 . S
C8 H2 0.930 . S
C8 C4 1.407 . S
C8 C7 1.392 . S
N9 C7 1.420 . S
N9 C10 1.244 . S
C10 N9 1.244 . S
H11 C14 0.929 . S
H12 C17 0.929 . S
H13 C19 0.930 . S
C14 H11 0.929 . S
C14 C15 1.396 1_655 S
C14 C16 1.395 1_655 S
C15 C14 1.396 1_455 S
C15 C19 1.413 . S
C16 C14 1.395 1_455 S
C16 C17 1.396 . S
C17 H12 0.929 . S
C17 C16 1.396 . S
C17 C18 1.382 . S
C18 C17 1.382 . S
C18 C19 1.392 . S
C18 N20 1.420 . S
C19 H13 0.930 . S
C19 C15 1.413 . S
C19 C18 1.392 . S
N20 C18 1.420 . S
N20 C21 1.232 1_455 S
C21 N20 1.232 1_655 S
H22 C25 0.929 . S
H23 C28 0.929 . S
H24 C30 0.930 . S
C25 H22 0.929 . S
C25 C26 1.395 1_565 S
C25 C27 1.395 1_565 S
C26 C25 1.395 1_545 S
C26 C30 1.413 . S
C27 C25 1.395 1_545 S
C27 C28 1.396 . S
C28 H23 0.929 . S
C28 C27 1.396 . S
C28 C29 1.382 . S
C29 C28 1.382 . S
C29 C30 1.392 . S
C29 N31 1.420 . S
C30 H24 0.930 . S
C30 C26 1.413 . S
C30 C29 1.392 . S
N31 C29 1.420 . S
N31 C32 1.232 1_545 S
C32 N31 1.232 1_565 S
H33 C36 0.929 . S
H34 C39 0.929 . S
H35 C41 0.930 . S
C36 H33 0.929 . S
C36 C37 1.398 . S
C36 C38 1.396 . S
C37 C36 1.398 . S
C37 C41 1.407 . S
C38 C36 1.396 . S
C38 C39 1.394 . S
C39 H34 0.929 . S
C39 C38 1.394 . S
C39 C40 1.382 . S
C40 C39 1.382 . S
C40 C41 1.392 . S
C40 N42 1.420 . S
C41 H35 0.930 . S
C41 C37 1.407 . S
C41 C40 1.392 . S
N42 C40 1.420 . S
N42 C43 1.244 . S
C43 N42 1.244 . S
H44 C47 0.929 . S
H45 C50 0.929 . S
H46 C52 0.930 . S
C47 H44 0.929 . S
C47 C48 1.398 1_554 S
C47 C49 1.396 . S
C48 C47 1.398 1_556 S
C48 C52 1.407 . S
C49 C47 1.396 . S
C49 C50 1.394 . S
C50 H45 0.929 . S
C50 C49 1.394 . S
C50 C51 1.382 . S
C51 C50 1.382 . S
C51 C52 1.392 1_554 S
C51 N53 1.420 . S
C52 H46 0.930 . S
C52 C48 1.407 . S
C52 C51 1.392 1_556 S
N53 C51 1.420 . S
N53 C54 1.244 . S
C54 N53 1.244 . S
H55 C58 0.929 . S
H56 C61 0.929 . S
H57 C63 0.930 . S
C58 H55 0.929 . S
C58 C59 1.394 1_654 S
C58 C60 1.394 1_655 S
C59 C58 1.394 1_456 S
C59 C63 1.416 . S
C60 C58 1.394 1_455 S
C60 C61 1.398 . S
C61 H56 0.929 . S
C61 C60 1.398 . S
C61 C62 1.382 . S
C62 C61 1.382 . S
C62 C63 1.392 1_554 S
C62 N64 1.420 . S
C63 H57 0.930 . S
C63 C59 1.416 . S
C63 C62 1.392 1_556 S
N64 C62 1.420 . S
N64 C65 1.238 1_455 S
C65 N64 1.238 1_655 S
H66 C69 0.929 . S
H67 C72 0.929 . S
H68 C74 0.930 . S
C69 H66 0.929 . S
C69 C70 1.394 1_564 S
C69 C71 1.394 1_565 S
C70 C69 1.394 1_546 S
C70 C74 1.416 . S
C71 C69 1.394 1_545 S
C71 C72 1.398 . S
C72 H67 0.929 . S
C72 C71 1.398 . S
C72 C73 1.382 . S
C73 C72 1.382 . S
C73 C74 1.392 1_554 S
C73 N75 1.420 . S
C74 H68 0.930 . S
C74 C70 1.416 . S
C74 C73 1.392 1_556 S
N75 C73 1.420 . S
N75 C76 1.238 1_545 S
C76 N75 1.238 1_565 S
H77 C80 0.929 . S
H78 C83 0.929 . S
H79 C85 0.930 . S
C80 H77 0.929 . S
C80 C81 1.398 1_554 S
C80 C82 1.396 . S
C81 C80 1.398 1_556 S
C81 C85 1.407 . S
C82 C80 1.396 . S
C82 C83 1.394 . S
C83 H78 0.929 . S
C83 C82 1.394 . S
C83 C84 1.382 . S
C84 C83 1.382 . S
C84 C85 1.392 1_554 S
C84 N86 1.420 . S
C85 H79 0.930 . S
C85 C81 1.407 . S
C85 C84 1.392 1_556 S
N86 C84 1.420 . S
N86 C87 1.244 . S
C87 N86 1.244 . S
Tb88 C98 2.825 . S
Tb88 O99 2.347 1_455 S
Tb88 O102 2.366 . S
Tb88 O107 2.418 . S
Tb88 O108 2.384 1_565 S
Tb88 O111 2.479 . S
Tb88 O112 2.471 . S
Eu89 O100 2.418 . S
Eu89 O101 2.384 1_545 S
Eu89 O104 2.479 . S
Eu89 O105 2.471 . S
Eu89 O106 2.347 1_655 S
Eu89 O109 2.366 . S
Eu89 C119 2.825 . S
C90 O106 1.259 1_565 S
C90 O107 1.265 . S
C91 O108 1.255 . S
C91 O109 1.265 1_455 S
C92 C94 1.380 . S
C92 C95 1.374 . S
C92 C98 1.507 . S
C93 C94 1.384 . S
C93 C97 1.387 . S
C93 H120 0.930 . S
C94 C92 1.380 . S
C94 C93 1.384 . S
C94 H121 0.931 . S
C95 C92 1.374 . S
C95 C96 1.390 . S
C95 H122 0.930 1_455 S
C96 C95 1.390 . S
C96 C97 1.391 . S
C96 H123 0.930 1_455 S
C97 C93 1.387 . S
C97 C96 1.391 . S
C98 Tb88 2.825 . S
C98 C92 1.507 . S
C98 O111 1.238 . S
C98 O112 1.247 . S
O99 Tb88 2.347 1_655 S
O99 C103 1.259 1_565 S
O100 Eu89 2.418 . S
O100 C103 1.265 . S
O101 Eu89 2.384 1_565 S
O101 C110 1.255 . S
O102 Tb88 2.366 . S
O102 C110 1.265 1_455 S
C103 O99 1.259 1_545 S
C103 O100 1.265 . S
O104 Eu89 2.479 . S
O104 C119 1.238 . S
O105 Eu89 2.471 . S
O105 C119 1.247 . S
O106 Eu89 2.347 1_455 S
O106 C90 1.259 1_545 S
O107 Tb88 2.418 . S
O107 C90 1.265 . S
O108 Tb88 2.384 1_545 S
O108 C91 1.255 . S
O109 Eu89 2.366 . S
O109 C91 1.265 1_655 S
C110 O101 1.255 . S
C110 O102 1.265 1_655 S
O111 Tb88 2.479 . S
O111 C98 1.238 . S
O112 Tb88 2.471 . S
O112 C98 1.247 . S
C113 C116 1.380 . S
C113 C117 1.374 . S
C113 C119 1.507 . S
C114 C115 1.387 . S
C114 C118 1.391 . S
C115 C114 1.387 . S
C115 C116 1.384 . S
C115 H124 0.930 . S
C116 C113 1.380 . S
C116 C115 1.384 . S
C116 H125 0.931 . S
C117 C113 1.374 . S
C117 C118 1.390 . S
C117 H126 0.930 1_655 S
C118 C114 1.391 . S
C118 C117 1.390 . S
C118 H127 0.930 1_655 S
C119 Eu89 2.825 . S
C119 O104 1.238 . S
C119 O105 1.247 . S
C119 C113 1.507 . S
H120 C93 0.930 . S
H121 C94 0.931 . S
H122 C95 0.930 1_655 S
H123 C96 0.930 1_655 S
H124 C115 0.930 . S
H125 C116 0.931 . S
H126 C117 0.930 1_455 S
H127 C118 0.930 1_455 S
Tb128 C138 2.825 . S
Tb128 O139 2.347 1_545 S
Tb128 O142 2.366 . S
Tb128 O147 2.418 . S
Tb128 O148 2.384 . S
Tb128 O151 2.479 . S
Tb128 O152 2.471 . S
Eu129 O140 2.418 . S
Eu129 O141 2.384 . S
Eu129 O144 2.479 . S
Eu129 O145 2.471 . S
Eu129 O146 2.347 1_565 S
Eu129 O149 2.366 . S
Eu129 C159 2.825 . S
C130 O146 1.259 . S
C130 O147 1.265 . S
C131 O148 1.255 . S
C131 O149 1.265 1_545 S
C132 C134 1.380 . S
C132 C135 1.374 . S
C132 C138 1.507 . S
C133 C134 1.384 . S
C133 C137 1.387 . S
C133 H160 0.930 . S
C134 C132 1.380 . S
C134 C133 1.384 . S
C134 H161 0.931 . S
C135 C132 1.374 . S
C135 C136 1.390 . S
C135 H162 0.930 1_545 S
C136 C135 1.390 . S
C136 C137 1.391 . S
C136 H163 0.930 1_545 S
C137 C133 1.387 . S
C137 C136 1.391 . S
C138 Tb128 2.825 . S
C138 C132 1.507 . S
C138 O151 1.238 . S
C138 O152 1.247 . S
O139 Tb128 2.347 1_565 S
O139 C143 1.259 . S
O140 Eu129 2.418 . S
O140 C143 1.265 . S
O141 Eu129 2.384 . S
O141 C150 1.255 . S
O142 Tb128 2.366 . S
O142 C150 1.265 1_545 S
C143 O139 1.259 . S
C143 O140 1.265 . S
O144 Eu129 2.479 . S
O144 C159 1.238 . S
O145 Eu129 2.471 . S
O145 C159 1.247 . S
O146 Eu129 2.347 1_545 S
O146 C130 1.259 . S
O147 Tb128 2.418 . S
O147 C130 1.265 . S
O148 Tb128 2.384 . S
O148 C131 1.255 . S
O149 Eu129 2.366 . S
O149 C131 1.265 1_565 S
C150 O141 1.255 . S
C150 O142 1.265 1_565 S
O151 Tb128 2.479 . S
O151 C138 1.238 . S
O152 Tb128 2.471 . S
O152 C138 1.247 . S
C153 C156 1.380 . S
C153 C157 1.374 . S
C153 C159 1.507 . S
C154 C155 1.387 . S
C154 C158 1.391 . S
C155 C154 1.387 . S
C155 C156 1.384 . S
C155 H164 0.930 . S
C156 C153 1.380 . S
C156 C155 1.384 . S
C156 H165 0.931 . S
C157 C153 1.374 . S
C157 C158 1.390 . S
C157 H166 0.930 1_565 S
C158 C154 1.391 . S
C158 C157 1.390 . S
C158 H167 0.930 1_565 S
C159 Eu129 2.825 . S
C159 O144 1.238 . S
C159 O145 1.247 . S
C159 C153 1.507 . S
H160 C133 0.930 . S
H161 C134 0.931 . S
H162 C135 0.930 1_565 S
H163 C136 0.930 1_565 S
H164 C155 0.930 . S
H165 C156 0.931 . S
H166 C157 0.930 1_545 S
H167 C158 0.930 1_545 S
Tb168 C178 2.825 . S
Tb168 O179 2.347 . S
Tb168 O182 2.366 . S
Tb168 O187 2.418 . S
Tb168 O188 2.384 . S
Tb168 O191 2.479 . S
Tb168 O192 2.471 . S
Eu169 O180 2.418 . S
Eu169 O181 2.384 . S
Eu169 O184 2.479 . S
Eu169 O185 2.471 . S
Eu169 O186 2.347 . S
Eu169 O189 2.366 . S
Eu169 C199 2.825 . S
C170 O186 1.259 . S
C170 O187 1.265 . S
C171 O188 1.255 . S
C171 O189 1.265 . S
C172 C174 1.380 . S
C172 C175 1.374 . S
C172 C178 1.507 . S
C173 C174 1.384 . S
C173 C177 1.387 . S
C173 H200 0.930 . S
C174 C172 1.380 . S
C174 C173 1.384 . S
C174 H201 0.931 . S
C175 C172 1.374 . S
C175 C176 1.390 . S
C175 H202 0.930 . S
C176 C175 1.390 . S
C176 C177 1.391 . S
C176 H203 0.930 . S
C177 C173 1.387 . S
C177 C176 1.391 . S
C178 Tb168 2.825 . S
C178 C172 1.507 . S
C178 O191 1.238 . S
C178 O192 1.247 . S
O179 Tb168 2.347 . S
O179 C183 1.259 . S
O180 Eu169 2.418 . S
O180 C183 1.265 . S
O181 Eu169 2.384 . S
O181 C190 1.255 . S
O182 Tb168 2.366 . S
O182 C190 1.265 . S
C183 O179 1.259 . S
C183 O180 1.265 . S
O184 Eu169 2.479 . S
O184 C199 1.238 . S
O185 Eu169 2.471 . S
O185 C199 1.247 . S
O186 Eu169 2.347 . S
O186 C170 1.259 . S
O187 Tb168 2.418 . S
O187 C170 1.265 . S
O188 Tb168 2.384 . S
O188 C171 1.255 . S
O189 Eu169 2.366 . S
O189 C171 1.265 . S
C190 O181 1.255 . S
C190 O182 1.265 . S
O191 Tb168 2.479 . S
O191 C178 1.238 . S
O192 Tb168 2.471 . S
O192 C178 1.247 . S
C193 C196 1.380 . S
C193 C197 1.374 . S
C193 C199 1.507 . S
C194 C195 1.387 . S
C194 C198 1.391 . S
C195 C194 1.387 . S
C195 C196 1.384 . S
C195 H204 0.930 . S
C196 C193 1.380 . S
C196 C195 1.384 . S
C196 H205 0.931 . S
C197 C193 1.374 . S
C197 C198 1.390 . S
C197 H206 0.930 . S
C198 C194 1.391 . S
C198 C197 1.390 . S
C198 H207 0.930 . S
C199 Eu169 2.825 . S
C199 O184 1.238 . S
C199 O185 1.247 . S
C199 C193 1.507 . S
H200 C173 0.930 . S
H201 C174 0.931 . S
H202 C175 0.930 . S
H203 C176 0.930 . S
H204 C195 0.930 . S
H205 C196 0.931 . S
H206 C197 0.930 . S
H207 C198 0.930 . S
Tb208 C218 2.825 . S
Tb208 O219 2.347 . S
Tb208 O222 2.366 . S
Tb208 O227 2.418 . S
Tb208 O228 2.384 1_655 S
Tb208 O231 2.479 . S
Tb208 O232 2.471 . S
Eu209 O220 2.418 . S
Eu209 O221 2.384 1_455 S
Eu209 O224 2.479 . S
Eu209 O225 2.471 . S
Eu209 O226 2.347 . S
Eu209 O229 2.366 . S
Eu209 C239 2.825 . S
C210 O226 1.259 1_655 S
C210 O227 1.265 . S
C211 O228 1.255 . S
C211 O229 1.265 . S
C212 C214 1.380 . S
C212 C215 1.374 . S
C212 C218 1.507 . S
C213 C214 1.384 . S
C213 C217 1.387 . S
C213 H240 0.930 . S
C214 C212 1.380 . S
C214 C213 1.384 . S
C214 H241 0.931 . S
C215 C212 1.374 . S
C215 C216 1.390 . S
C215 H242 0.930 . S
C216 C215 1.390 . S
C216 C217 1.391 . S
C216 H243 0.930 . S
C217 C213 1.387 . S
C217 C216 1.391 . S
C218 Tb208 2.825 . S
C218 C212 1.507 . S
C218 O231 1.238 . S
C218 O232 1.247 . S
O219 Tb208 2.347 . S
O219 C223 1.259 1_655 S
O220 Eu209 2.418 . S
O220 C223 1.265 . S
O221 Eu209 2.384 1_655 S
O221 C230 1.255 . S
O222 Tb208 2.366 . S
O222 C230 1.265 . S
C223 O219 1.259 1_455 S
C223 O220 1.265 . S
O224 Eu209 2.479 . S
O224 C239 1.238 . S
O225 Eu209 2.471 . S
O225 C239 1.247 . S
O226 Eu209 2.347 . S
O226 C210 1.259 1_455 S
O227 Tb208 2.418 . S
O227 C210 1.265 . S
O228 Tb208 2.384 1_455 S
O228 C211 1.255 . S
O229 Eu209 2.366 . S
O229 C211 1.265 . S
C230 O221 1.255 . S
C230 O222 1.265 . S
O231 Tb208 2.479 . S
O231 C218 1.238 . S
O232 Tb208 2.471 . S
O232 C218 1.247 . S
C233 C236 1.380 . S
C233 C237 1.374 . S
C233 C239 1.507 . S
C234 C235 1.387 . S
C234 C238 1.391 . S
C235 C234 1.387 . S
C235 C236 1.384 . S
C235 H244 0.930 . S
C236 C233 1.380 . S
C236 C235 1.384 . S
C236 H245 0.931 . S
C237 C233 1.374 . S
C237 C238 1.390 . S
C237 H246 0.930 . S
C238 C234 1.391 . S
C238 C237 1.390 . S
C238 H247 0.930 . S
C239 Eu209 2.825 . S
C239 O224 1.238 . S
C239 O225 1.247 . S
C239 C233 1.507 . S
H240 C213 0.930 . S
H241 C214 0.931 . S
H242 C215 0.930 . S
H243 C216 0.930 . S
H244 C235 0.930 . S
H245 C236 0.931 . S
H246 C237 0.930 . S
H247 C238 0.930 . S
H248 C266 0.951 . S
H249 C268 0.951 . S
H250 C270 0.950 . S
H251 C271 0.950 . S
H252 C273 0.950 . S
H253 C276 0.950 . S
H254 C277 0.950 . S
H255 C279 0.950 . S
H256 C280 0.950 . S
H257 C281 0.951 . S
H258 C283 0.951 . S
H259 C285 0.950 . S
H260 C286 0.950 . S
H261 C288 0.950 . S
H262 C291 0.950 . S
H263 C292 0.950 . S
H264 C294 0.950 . S
H265 C295 0.950 . S
C266 H248 0.951 . S
C266 C267 1.366 . S
C266 C268 1.388 . S
C267 C266 1.366 . S
C267 C271 1.384 1_545 S
C268 H249 0.951 . S
C268 C266 1.388 . S
C268 C269 1.366 . S
C269 C268 1.366 . S
C269 C270 1.414 1_545 S
C269 C272 1.499 . S
C270 H250 0.950 . S
C270 C269 1.414 1_565 S
C270 C271 1.374 . S
C271 H251 0.950 . S
C271 C267 1.384 1_565 S
C271 C270 1.374 . S
C272 C269 1.499 . S
C272 C273 1.373 1_545 S
C272 C274 1.389 . S
C273 H252 0.950 . S
C273 C272 1.373 1_565 S
C273 C289 1.377 . S
C274 C272 1.389 . S
C274 C275 1.524 . S
C274 C288 1.377 . S
C275 C274 1.524 . S
C275 C276 1.397 . S
C275 C280 1.363 . S
C276 H253 0.950 . S
C276 C275 1.397 . S
C276 C277 1.334 . S
C277 H254 0.950 . S
C277 C276 1.334 . S
C277 C278 1.287 . S
C278 C277 1.287 . S
C278 C279 1.524 . S
C278 H297 0.913 . S
C279 H255 0.950 . S
C279 C278 1.524 . S
C279 C280 1.415 . S
C280 H256 0.950 . S
C280 C275 1.363 . S
C280 C279 1.415 . S
C281 H257 0.951 . S
C281 C282 1.361 1_565 S
C281 C283 1.388 . S
C282 C281 1.361 1_545 S
C282 C286 1.390 . S
C283 H258 0.951 . S
C283 C281 1.388 . S
C283 C284 1.369 . S
C284 C283 1.369 . S
C284 C285 1.410 1_565 S
C284 C287 1.499 . S
C285 H259 0.950 . S
C285 C284 1.410 1_545 S
C285 C286 1.374 . S
C286 H260 0.950 . S
C286 C282 1.390 . S
C286 C285 1.374 . S
C287 C284 1.499 . S
C287 C288 1.350 1_565 S
C287 C289 1.411 . S
C288 H261 0.950 . S
C288 C274 1.377 . S
C288 C287 1.350 1_545 S
C289 C273 1.377 . S
C289 C287 1.411 . S
C289 C290 1.524 . S
C290 C289 1.524 . S
C290 C291 1.397 . S
C290 C295 1.363 . S
C291 H262 0.950 . S
C291 C290 1.397 . S
C291 C292 1.334 . S
C292 H263 0.950 . S
C292 C291 1.334 . S
C292 C293 1.287 . S
C293 C292 1.287 . S
C293 C294 1.524 . S
C293 H296 0.999 . S
C294 H264 0.950 . S
C294 C293 1.524 . S
C294 C295 1.415 . S
C295 H265 0.950 . S
C295 C290 1.363 . S
C295 C294 1.415 . S
H296 C293 0.999 . S
H297 C278 0.913 . S
H298 C316 0.951 . S
H299 C318 0.951 . S
H300 C320 0.950 . S
H301 C321 0.950 . S
H302 C323 0.950 . S
H303 C326 0.950 . S
H304 C327 0.950 . S
H305 C329 0.950 . S
H306 C330 0.950 . S
H307 C331 0.951 . S
H308 C333 0.951 . S
H309 C335 0.950 . S
H310 C336 0.950 . S
H311 C338 0.950 . S
H312 C341 0.950 . S
H313 C342 0.950 . S
H314 C344 0.950 . S
H315 C345 0.950 . S
C316 H298 0.951 . S
C316 C317 1.366 . S
C316 C318 1.388 . S
C317 C316 1.366 . S
C317 C321 1.385 . S
C318 H299 0.951 . S
C318 C316 1.388 . S
C318 C319 1.366 . S
C319 C318 1.366 . S
C319 C320 1.414 . S
C319 C322 1.499 . S
C320 H300 0.950 . S
C320 C319 1.414 . S
C320 C321 1.374 . S
C321 H301 0.950 . S
C321 C317 1.385 . S
C321 C320 1.374 . S
C322 C319 1.499 . S
C322 C323 1.373 . S
C322 C324 1.389 . S
C323 H302 0.950 . S
C323 C322 1.373 . S
C323 C339 1.377 . S
C324 C322 1.389 . S
C324 C325 1.524 . S
C324 C338 1.377 . S
C325 C324 1.524 . S
C325 C326 1.397 . S
C325 C330 1.363 . S
C326 H303 0.950 . S
C326 C325 1.397 . S
C326 C327 1.334 . S
C327 H304 0.950 . S
C327 C326 1.334 . S
C327 C328 1.287 . S
C328 C327 1.287 . S
C328 C329 1.524 . S
C328 H347 0.913 . S
C329 H305 0.950 . S
C329 C328 1.524 . S
C329 C330 1.415 . S
C330 H306 0.950 . S
C330 C325 1.363 . S
C330 C329 1.415 . S
C331 H307 0.951 . S
C331 C332 1.366 . S
C331 C333 1.388 . S
C332 C331 1.366 . S
C332 C336 1.385 . S
C333 H308 0.951 . S
C333 C331 1.388 . S
C333 C334 1.366 . S
C334 C333 1.366 . S
C334 C335 1.414 . S
C334 C337 1.499 . S
C335 H309 0.950 . S
C335 C334 1.414 . S
C335 C336 1.374 . S
C336 H310 0.950 . S
C336 C332 1.385 . S
C336 C335 1.374 . S
C337 C334 1.499 . S
C337 C338 1.373 . S
C337 C339 1.389 . S
C338 H311 0.950 . S
C338 C324 1.377 . S
C338 C337 1.373 . S
C339 C323 1.377 . S
C339 C337 1.389 . S
C339 C340 1.524 . S
C340 C339 1.524 . S
C340 C341 1.397 . S
C340 C345 1.363 . S
C341 H312 0.950 . S
C341 C340 1.397 . S
C341 C342 1.334 . S
C342 H313 0.950 . S
C342 C341 1.334 . S
C342 C343 1.287 . S
C343 C342 1.287 . S
C343 C344 1.524 . S
C343 H346 0.999 . S
C344 H314 0.950 . S
C344 C343 1.524 . S
C344 C345 1.415 . S
C345 H315 0.950 . S
C345 C340 1.363 . S
C345 C344 1.415 . S
H346 C343 0.999 . S
H347 C328 0.913 . S
H348 C366 0.951 . S
H349 C368 0.951 . S
H350 C370 0.950 . S
H351 C371 0.950 . S
H352 C373 0.950 . S
H353 C376 0.950 . S
H354 C377 0.950 . S
H355 C379 0.950 . S
H356 C380 0.950 . S
H357 C381 0.951 . S
H358 C383 0.951 . S
H359 C385 0.950 . S
H360 C386 0.950 . S
H361 C388 0.950 . S
H362 C391 0.950 . S
H363 C392 0.950 . S
H364 C394 0.950 . S
H365 C395 0.950 . S
C366 H348 0.951 . S
C366 C367 1.366 . S
C366 C368 1.388 . S
C367 C366 1.366 . S
C367 C371 1.385 . S
C368 H349 0.951 . S
C368 C366 1.388 . S
C368 C369 1.366 . S
C369 C368 1.366 . S
C369 C370 1.414 . S
C369 C372 1.499 . S
C370 H350 0.950 . S
C370 C369 1.414 . S
C370 C371 1.374 . S
C371 H351 0.950 . S
C371 C367 1.385 . S
C371 C370 1.374 . S
C372 C369 1.499 . S
C372 C373 1.373 . S
C372 C374 1.389 . S
C373 H352 0.950 . S
C373 C372 1.373 . S
C373 C389 1.377 . S
C374 C372 1.389 . S
C374 C375 1.524 . S
C374 C388 1.377 . S
C375 C374 1.524 . S
C375 C376 1.397 . S
C375 C380 1.363 . S
C376 H353 0.950 . S
C376 C375 1.397 . S
C376 C377 1.334 . S
C377 H354 0.950 . S
C377 C376 1.334 . S
C377 C378 1.287 . S
C378 C377 1.287 . S
C378 C379 1.524 . S
C378 H397 0.913 . S
C379 H355 0.950 . S
C379 C378 1.524 . S
C379 C380 1.415 . S
C380 H356 0.950 . S
C380 C375 1.363 . S
C380 C379 1.415 . S
C381 H357 0.951 . S
C381 C382 1.366 . S
C381 C383 1.388 . S
C382 C381 1.366 . S
C382 C386 1.385 . S
C383 H358 0.951 . S
C383 C381 1.388 . S
C383 C384 1.366 . S
C384 C383 1.366 . S
C384 C385 1.414 . S
C384 C387 1.499 . S
C385 H359 0.950 . S
C385 C384 1.414 . S
C385 C386 1.374 . S
C386 H360 0.950 . S
C386 C382 1.385 . S
C386 C385 1.374 . S
C387 C384 1.499 . S
C387 C388 1.373 . S
C387 C389 1.389 . S
C388 H361 0.950 . S
C388 C374 1.377 . S
C388 C387 1.373 . S
C389 C373 1.377 . S
C389 C387 1.389 . S
C389 C390 1.524 . S
C390 C389 1.524 . S
C390 C391 1.397 . S
C390 C395 1.363 . S
C391 H362 0.950 . S
C391 C390 1.397 . S
C391 C392 1.334 . S
C392 H363 0.950 . S
C392 C391 1.334 . S
C392 C393 1.287 . S
C393 C392 1.287 . S
C393 C394 1.524 . S
C393 H396 0.999 . S
C394 H364 0.950 . S
C394 C393 1.524 . S
C394 C395 1.415 . S
C395 H365 0.950 . S
C395 C390 1.363 . S
C395 C394 1.415 . S
H396 C393 0.999 . S
H397 C378 0.913 . S
H398 C416 0.951 . S
H399 C418 0.951 . S
H400 C420 0.950 . S
H401 C421 0.950 . S
H402 C423 0.950 . S
H403 C426 0.950 . S
H404 C427 0.950 . S
H405 C429 0.950 . S
H406 C430 0.950 . S
H407 C431 0.951 . S
H408 C433 0.951 . S
H409 C435 0.950 . S
H410 C436 0.950 . S
H411 C438 0.950 . S
H412 C441 0.950 . S
H413 C442 0.950 . S
H414 C444 0.950 . S
H415 C445 0.950 . S
C416 H398 0.951 . S
C416 C417 1.367 . S
C416 C418 1.388 . S
C417 C416 1.367 . S
C417 C421 1.383 1_455 S
C418 H399 0.951 . S
C418 C416 1.388 . S
C418 C419 1.403 . S
C419 C418 1.403 . S
C419 C420 1.376 1_455 S
C419 C422 1.499 . S
C420 H400 0.950 . S
C420 C419 1.376 1_655 S
C420 C421 1.374 . S
C421 H401 0.950 . S
C421 C417 1.383 1_655 S
C421 C420 1.374 . S
C422 C419 1.499 . S
C422 C423 1.337 1_455 S
C422 C424 1.425 . S
C423 H402 0.950 . S
C423 C422 1.337 1_655 S
C423 C439 1.377 . S
C424 C422 1.425 . S
C424 C425 1.524 . S
C424 C438 1.377 . S
C425 C424 1.524 . S
C425 C426 1.397 . S
C425 C430 1.363 . S
C426 H403 0.950 . S
C426 C425 1.397 . S
C426 C427 1.334 . S
C427 H404 0.950 . S
C427 C426 1.334 . S
C427 C428 1.287 . S
C428 C427 1.287 . S
C428 C429 1.524 . S
C428 H447 0.913 . S
C429 H405 0.950 . S
C429 C428 1.524 . S
C429 C430 1.415 . S
C430 H406 0.950 . S
C430 C425 1.363 . S
C430 C429 1.415 . S
C431 H407 0.951 . S
C431 C432 1.338 1_655 S
C431 C433 1.388 . S
C432 C431 1.338 1_455 S
C432 C436 1.413 . S
C433 H408 0.951 . S
C433 C431 1.388 . S
C433 C434 1.365 . S
C434 C433 1.365 . S
C434 C435 1.414 1_655 S
C434 C437 1.499 1_655 S
C435 H409 0.950 . S
C435 C434 1.414 1_455 S
C435 C436 1.374 . S
C436 H410 0.950 . S
C436 C432 1.413 . S
C436 C435 1.374 . S
C437 C434 1.499 1_455 S
C437 C438 1.378 . S
C437 C439 1.385 1_455 S
C438 H411 0.950 . S
C438 C424 1.377 . S
C438 C437 1.378 . S
C439 C423 1.377 . S
C439 C437 1.385 1_655 S
C439 C440 1.524 . S
C440 C439 1.524 . S
C440 C441 1.397 . S
C440 C445 1.363 . S
C441 H412 0.950 . S
C441 C440 1.397 . S
C441 C442 1.334 . S
C442 H413 0.950 . S
C442 C441 1.334 . S
C442 C443 1.287 . S
C443 C442 1.287 . S
C443 C444 1.524 . S
C443 H446 0.999 . S
C444 H414 0.950 . S
C444 C443 1.524 . S
C444 C445 1.415 . S
C445 H415 0.950 . S
C445 C440 1.363 . S
C445 C444 1.415 . S
H446 C443 0.999 . S
H447 C428 0.913 . S
H448 C466 0.951 . S
H449 C468 0.951 . S
H450 C470 0.950 . S
H451 C471 0.950 . S
H452 C473 0.950 . S
H453 C476 0.950 . S
H454 C477 0.951 . S
H455 C479 0.950 . S
H456 C480 0.950 . S
H457 C481 0.951 . S
H458 C483 0.951 . S
H459 C485 0.950 . S
H460 C486 0.950 . S
H461 C488 0.950 . S
H462 C491 0.950 . S
H463 C492 0.950 . S
H464 C494 0.950 . S
H465 C495 0.950 . S
C466 H448 0.951 . S
C466 C467 1.362 . S
C466 C468 1.388 . S
C467 C466 1.362 . S
C467 C471 1.388 1_545 S
C468 H449 0.951 . S
C468 C466 1.388 . S
C468 C469 1.360 . S
C469 C468 1.360 . S
C469 C470 1.419 1_545 S
C469 C472 1.498 1_545 S
C470 H450 0.950 . S
C470 C469 1.419 1_565 S
C470 C471 1.374 . S
C471 H451 0.950 . S
C471 C467 1.388 1_565 S
C471 C470 1.374 . S
C472 C469 1.498 1_565 S
C472 C473 1.397 . S
C472 C474 1.366 1_565 S
C473 H452 0.950 . S
C473 C472 1.397 . S
C473 C489 1.377 . S
C474 C472 1.366 1_545 S
C474 C475 1.524 . S
C474 C488 1.377 1_554 S
C475 C474 1.524 . S
C475 C476 1.397 . S
C475 C480 1.363 . S
C476 H453 0.950 . S
C476 C475 1.397 . S
C476 C477 1.331 1_554 S
C477 H454 0.951 . S
C477 C476 1.331 1_556 S
C477 C478 1.290 . S
C478 C477 1.290 . S
C478 C479 1.524 . S
C478 H497 0.913 . S
C479 H455 0.950 . S
C479 C478 1.524 . S
C479 C480 1.415 1_556 S
C480 H456 0.950 . S
C480 C475 1.363 . S
C480 C479 1.415 1_554 S
C481 H457 0.951 . S
C481 C482 1.386 . S
C481 C483 1.388 . S
C482 C481 1.386 . S
C482 C486 1.365 1_565 S
C483 H458 0.951 . S
C483 C481 1.388 . S
C483 C484 1.384 . S
C484 C483 1.384 . S
C484 C485 1.396 1_565 S
C484 C487 1.489 1_566 S
C485 H459 0.950 . S
C485 C484 1.396 1_545 S
C485 C486 1.374 . S
C486 H460 0.950 . S
C486 C482 1.365 1_545 S
C486 C485 1.374 . S
C487 C484 1.489 1_544 S
C487 C488 1.378 1_554 S
C487 C489 1.393 1_545 S
C488 H461 0.950 . S
C488 C474 1.377 1_556 S
C488 C487 1.378 1_556 S
C489 C473 1.377 . S
C489 C487 1.393 1_565 S
C489 C490 1.524 . S
C490 C489 1.524 . S
C490 C491 1.397 . S
C490 C495 1.363 . S
C491 H462 0.950 . S
C491 C490 1.397 . S
C491 C492 1.334 . S
C492 H463 0.950 . S
C492 C491 1.334 . S
C492 C493 1.287 . S
C493 C492 1.287 . S
C493 C494 1.524 . S
C493 H496 0.999 . S
C494 H464 0.950 . S
C494 C493 1.524 . S
C494 C495 1.415 . S
C495 H465 0.950 . S
C495 C490 1.363 . S
C495 C494 1.415 . S
H496 C493 0.999 . S
H497 C478 0.913 . S
H498 C516 0.951 . S
H499 C518 0.951 . S
H500 C520 0.950 . S
H501 C521 0.950 . S
H502 C523 0.950 . S
H503 C526 0.950 . S
H504 C527 0.950 . S
H505 C529 0.950 . S
H506 C530 0.950 . S
H507 C531 0.951 . S
H508 C533 0.942 1_554 S
H509 C535 0.950 . S
H510 C536 0.950 . S
H511 C538 0.950 . S
H512 C541 0.950 . S
H513 C542 0.950 . S
H514 C544 0.950 . S
H515 C545 0.950 . S
C516 H498 0.951 . S
C516 C517 1.366 . S
C516 C518 1.388 . S
C517 C516 1.366 . S
C517 C521 1.385 . S
C518 H499 0.951 . S
C518 C516 1.388 . S
C518 C519 1.366 . S
C519 C518 1.366 . S
C519 C520 1.414 . S
C519 C522 1.499 . S
C520 H500 0.950 . S
C520 C519 1.414 . S
C520 C521 1.374 . S
C521 H501 0.950 . S
C521 C517 1.385 . S
C521 C520 1.374 . S
C522 C519 1.499 . S
C522 C523 1.373 . S
C522 C524 1.389 . S
C523 H502 0.950 . S
C523 C522 1.373 . S
C523 C539 1.377 . S
C524 C522 1.389 . S
C524 C525 1.524 . S
C524 C538 1.377 1_554 S
C525 C524 1.524 . S
C525 C526 1.397 . S
C525 C530 1.363 1_554 S
C526 H503 0.950 . S
C526 C525 1.397 . S
C526 C527 1.334 . S
C527 H504 0.950 . S
C527 C526 1.334 . S
C527 C528 1.287 1_554 S
C528 C527 1.287 1_556 S
C528 C529 1.524 . S
C528 H547 0.913 . S
C529 H505 0.950 . S
C529 C528 1.524 . S
C529 C530 1.415 . S
C530 H506 0.950 . S
C530 C525 1.363 1_556 S
C530 C529 1.415 . S
C531 H507 0.951 . S
C531 C532 1.366 . S
C531 C533 1.388 . S
C532 C531 1.366 . S
C532 C536 1.385 . S
C533 H508 0.942 1_556 S
C533 C531 1.388 . S
C533 C534 1.366 . S
C534 C533 1.366 . S
C534 C535 1.414 . S
C534 C537 1.499 . S
C535 H509 0.950 . S
C535 C534 1.414 . S
C535 C536 1.374 . S
C536 H510 0.950 . S
C536 C532 1.385 . S
C536 C535 1.374 . S
C537 C534 1.499 . S
C537 C538 1.373 . S
C537 C539 1.389 1_556 S
C538 H511 0.950 . S
C538 C524 1.377 1_556 S
C538 C537 1.373 . S
C539 C523 1.377 . S
C539 C537 1.389 1_554 S
C539 C540 1.524 . S
C540 C539 1.524 . S
C540 C541 1.397 . S
C540 C545 1.363 . S
C541 H512 0.950 . S
C541 C540 1.397 . S
C541 C542 1.334 . S
C542 H513 0.950 . S
C542 C541 1.334 . S
C542 C543 1.287 . S
C543 C542 1.287 . S
C543 C544 1.524 . S
C543 H546 0.999 . S
C544 H514 0.950 . S
C544 C543 1.524 . S
C544 C545 1.415 . S
C545 H515 0.950 . S
C545 C540 1.363 . S
C545 C544 1.415 . S
H546 C543 0.999 . S
H547 C528 0.913 . S
H548 C566 0.951 . S
H549 C568 0.951 . S
H550 C570 0.950 . S
H551 C571 0.950 . S
H552 C573 0.950 . S
H553 C576 0.950 . S
H554 C577 0.950 . S
H555 C579 0.950 . S
H556 C580 0.950 . S
H557 C581 0.951 . S
H558 C583 0.951 . S
H559 C585 0.950 1_554 S
H560 C586 0.950 . S
H561 C588 0.950 . S
H562 C591 0.950 . S
H563 C592 0.950 . S
H564 C594 0.950 . S
H565 C595 0.950 . S
C566 H548 0.951 . S
C566 C567 1.366 . S
C566 C568 1.388 . S
C567 C566 1.366 . S
C567 C571 1.385 . S
C568 H549 0.951 . S
C568 C566 1.388 . S
C568 C569 1.366 . S
C569 C568 1.366 . S
C569 C570 1.414 . S
C569 C572 1.499 . S
C570 H550 0.950 . S
C570 C569 1.414 . S
C570 C571 1.374 . S
C571 H551 0.950 . S
C571 C567 1.385 . S
C571 C570 1.374 . S
C572 C569 1.499 . S
C572 C573 1.373 . S
C572 C574 1.389 . S
C573 H552 0.950 . S
C573 C572 1.373 . S
C573 C589 1.377 1_554 S
C574 C572 1.389 . S
C574 C575 1.524 . S
C574 C588 1.377 . S
C575 C574 1.524 . S
C575 C576 1.397 . S
C575 C580 1.363 . S
C576 H553 0.950 . S
C576 C575 1.397 . S
C576 C577 1.334 . S
C577 H554 0.950 . S
C577 C576 1.334 . S
C577 C578 1.287 . S
C578 C577 1.287 . S
C578 C579 1.524 . S
C578 H597 0.913 . S
C579 H555 0.950 . S
C579 C578 1.524 . S
C579 C580 1.415 . S
C580 H556 0.950 . S
C580 C575 1.363 . S
C580 C579 1.415 . S
C581 H557 0.951 . S
C581 C582 1.366 . S
C581 C583 1.388 . S
C582 C581 1.366 . S
C582 C586 1.385 . S
C583 H558 0.951 . S
C583 C581 1.388 . S
C583 C584 1.366 . S
C584 C583 1.366 . S
C584 C585 1.414 . S
C584 C587 1.499 . S
C585 H559 0.950 1_556 S
C585 C584 1.414 . S
C585 C586 1.374 . S
C586 H560 0.950 . S
C586 C582 1.385 . S
C586 C585 1.374 . S
C587 C584 1.499 . S
C587 C588 1.373 1_556 S
C587 C589 1.389 . S
C588 H561 0.950 . S
C588 C574 1.377 . S
C588 C587 1.373 1_554 S
C589 C573 1.377 1_556 S
C589 C587 1.389 . S
C589 C590 1.524 . S
C590 C589 1.524 . S
C590 C591 1.397 . S
C590 C595 1.363 . S
C591 H562 0.950 . S
C591 C590 1.397 . S
C591 C592 1.334 . S
C592 H563 0.950 . S
C592 C591 1.334 . S
C592 C593 1.287 . S
C593 C592 1.287 . S
C593 C594 1.524 . S
C593 H596 0.999 . S
C594 H564 0.950 . S
C594 C593 1.524 . S
C594 C595 1.415 . S
C595 H565 0.950 . S
C595 C590 1.363 . S
C595 C594 1.415 . S
H596 C593 0.999 . S
H597 C578 0.913 . S
H598 C616 0.951 . S
H599 C618 0.951 . S
H600 C620 0.950 . S
H601 C621 0.950 . S
H602 C623 0.950 . S
H603 C626 0.950 . S
H604 C627 0.950 . S
H605 C629 0.950 . S
H606 C630 0.950 . S
H607 C631 0.951 . S
H608 C633 0.951 . S
H609 C635 0.950 1_554 S
H610 C636 0.950 . S
H611 C638 0.950 . S
H612 C641 0.950 . S
H613 C642 0.950 . S
H614 C644 0.950 . S
H615 C645 0.950 . S
C616 H598 0.951 . S
C616 C617 1.367 . S
C616 C618 1.388 . S
C617 C616 1.367 . S
C617 C621 1.383 1_655 S
C618 H599 0.951 . S
C618 C616 1.388 . S
C618 C619 1.355 1_655 S
C619 C618 1.355 1_455 S
C619 C620 1.424 . S
C619 C622 1.499 . S
C620 H600 0.950 . S
C620 C619 1.424 . S
C620 C621 1.374 . S
C621 H601 0.950 . S
C621 C617 1.383 1_455 S
C621 C620 1.374 . S
C622 C619 1.499 . S
C622 C623 1.348 1_455 S
C622 C624 1.413 . S
C623 H602 0.950 . S
C623 C622 1.348 1_655 S
C623 C639 1.377 1_554 S
C624 C622 1.413 . S
C624 C625 1.524 . S
C624 C638 1.377 . S
C625 C624 1.524 . S
C625 C626 1.397 . S
C625 C630 1.363 . S
C626 H603 0.950 . S
C626 C625 1.397 . S
C626 C627 1.334 . S
C627 H604 0.950 . S
C627 C626 1.334 . S
C627 C628 1.287 . S
C628 C627 1.287 . S
C628 C629 1.524 . S
C628 H647 0.913 . S
C629 H605 0.950 . S
C629 C628 1.524 . S
C629 C630 1.415 . S
C630 H606 0.950 . S
C630 C625 1.363 . S
C630 C629 1.415 . S
C631 H607 0.951 . S
C631 C632 1.356 1_455 S
C631 C633 1.388 . S
C632 C631 1.356 1_655 S
C632 C636 1.396 . S
C633 H608 0.951 . S
C633 C631 1.388 . S
C633 C634 1.366 1_455 S
C634 C633 1.366 1_655 S
C634 C635 1.414 . S
C634 C637 1.499 . S
C635 H609 0.950 1_556 S
C635 C634 1.414 . S
C635 C636 1.374 . S
C636 H610 0.950 . S
C636 C632 1.396 . S
C636 C635 1.374 . S
C637 C634 1.499 . S
C637 C638 1.373 1_656 S
C637 C639 1.389 . S
C638 H611 0.950 . S
C638 C624 1.377 . S
C638 C637 1.373 1_454 S
C639 C623 1.377 1_556 S
C639 C637 1.389 . S
C639 C640 1.524 . S
C640 C639 1.524 . S
C640 C641 1.397 . S
C640 C645 1.363 . S
C641 H612 0.950 . S
C641 C640 1.397 . S
C641 C642 1.334 . S
C642 H613 0.950 . S
C642 C641 1.334 . S
C642 C643 1.287 . S
C643 C642 1.287 . S
C643 C644 1.524 . S
C643 H646 0.999 . S
C644 H614 0.950 . S
C644 C643 1.524 . S
C644 C645 1.415 . S
C645 H615 0.950 . S
C645 C640 1.363 . S
C645 C644 1.415 . S
H646 C643 0.999 . S
H647 C628 0.913 . S
H648 C666 0.951 . S
H649 C668 0.951 . S
H650 C670 0.950 . S
H651 C671 0.950 . S
H652 C673 0.950 . S
H653 C676 0.950 . S
H654 C677 0.950 . S
H655 C679 0.950 1_556 S
H656 C680 0.950 1_455 S
H657 C681 0.951 . S
H658 C683 0.951 . S
H659 C685 0.950 1_455 S
H660 C686 0.950 . S
H661 C688 0.950 . S
H662 C691 0.950 . S
H663 C692 0.950 . S
H664 C694 0.950 . S
H665 C695 0.950 . S
C666 H648 0.951 . S
C666 C667 1.366 . S
C666 C668 1.388 . S
C667 C666 1.366 . S
C667 C671 1.385 1_455 S
C668 H649 0.951 . S
C668 C666 1.388 . S
C668 C669 1.366 1_455 S
C669 C668 1.366 1_655 S
C669 C670 1.414 . S
C669 C672 1.499 . S
C670 H650 0.950 . S
C670 C669 1.414 . S
C670 C671 1.374 . S
C671 H651 0.950 . S
C671 C667 1.385 1_655 S
C671 C670 1.374 . S
C672 C669 1.499 . S
C672 C673 1.373 . S
C672 C674 1.389 . S
C673 H652 0.950 . S
C673 C672 1.373 . S
C673 C689 1.377 . S
C674 C672 1.389 . S
C674 C675 1.524 . S
C674 C688 1.377 . S
C675 C674 1.524 . S
C675 C676 1.397 . S
C675 C680 1.363 . S
C676 H653 0.950 . S
C676 C675 1.397 . S
C676 C677 1.334 . S
C677 H654 0.950 . S
C677 C676 1.334 . S
C677 C678 1.287 1_554 S
C678 C677 1.287 1_556 S
C678 C679 1.524 1_556 S
C678 H697 0.913 . S
C679 H655 0.950 1_554 S
C679 C678 1.524 1_554 S
C679 C680 1.415 . S
C680 H656 0.950 1_655 S
C680 C675 1.363 . S
C680 C679 1.415 . S
C681 H657 0.951 . S
C681 C682 1.366 . S
C681 C683 1.388 . S
C682 C681 1.366 . S
C682 C686 1.385 . S
C683 H658 0.951 . S
C683 C681 1.388 . S
C683 C684 1.366 . S
C684 C683 1.366 . S
C684 C685 1.414 . S
C684 C687 1.499 . S
C685 H659 0.950 1_655 S
C685 C684 1.414 . S
C685 C686 1.374 . S
C686 H660 0.950 . S
C686 C682 1.385 . S
C686 C685 1.374 . S
C687 C684 1.499 . S
C687 C688 1.373 . S
C687 C689 1.389 . S
C688 H661 0.950 . S
C688 C674 1.377 . S
C688 C687 1.373 . S
C689 C673 1.377 . S
C689 C687 1.389 . S
C689 C690 1.524 . S
C690 C689 1.524 . S
C690 C691 1.397 1_655 S
C690 C695 1.363 . S
C691 H662 0.950 . S
C691 C690 1.397 1_455 S
C691 C692 1.334 . S
C692 H663 0.950 . S
C692 C691 1.334 . S
C692 C693 1.287 . S
C693 C692 1.287 . S
C693 C694 1.524 1_455 S
C693 H696 0.999 . S
C694 H664 0.950 . S
C694 C693 1.524 1_655 S
C694 C695 1.415 . S
C695 H665 0.950 . S
C695 C690 1.363 . S
C695 C694 1.415 . S
H696 C693 0.999 . S
H697 C678 0.913 . S
H698 C716 0.951 . S
H699 C718 0.951 . S
H700 C720 0.950 . S
H701 C721 0.950 . S
H702 C723 0.950 . S
H703 C726 0.950 . S
H704 C727 0.950 . S
H705 C729 0.950 . S
H706 C730 0.950 . S
H707 C731 0.951 1_545 S
H708 C733 0.937 1_545 S
H709 C735 0.950 . S
H710 C736 0.950 . S
H711 C738 0.950 . S
H712 C741 0.950 1_565 S
H713 C742 0.950 . S
H714 C744 0.950 . S
H715 C745 0.950 . S
C716 H698 0.951 . S
C716 C717 1.309 1_565 S
C716 C718 1.388 . S
C717 C716 1.309 1_545 S
C717 C721 1.434 . S
C718 H699 0.951 . S
C718 C716 1.388 . S
C718 C719 1.366 . S
C719 C718 1.366 . S
C719 C720 1.414 1_565 S
C719 C722 1.499 . S
C720 H700 0.950 . S
C720 C719 1.414 1_545 S
C720 C721 1.374 . S
C721 H701 0.950 . S
C721 C717 1.434 . S
C721 C720 1.374 . S
C722 C719 1.499 . S
C722 C723 1.373 1_565 S
C722 C724 1.389 . S
C723 H702 0.950 . S
C723 C722 1.373 1_545 S
C723 C739 1.377 . S
C724 C722 1.389 . S
C724 C725 1.524 . S
C724 C738 1.377 . S
C725 C724 1.524 . S
C725 C726 1.397 . S
C725 C730 1.363 . S
C726 H703 0.950 . S
C726 C725 1.397 . S
C726 C727 1.334 . S
C727 H704 0.950 . S
C727 C726 1.334 . S
C727 C728 1.287 . S
C728 C727 1.287 . S
C728 C729 1.524 . S
C728 H747 0.913 . S
C729 H705 0.950 . S
C729 C728 1.524 . S
C729 C730 1.415 . S
C730 H706 0.950 . S
C730 C725 1.363 . S
C730 C729 1.415 . S
C731 H707 0.951 1_565 S
C731 C732 1.366 . S
C731 C733 1.390 . S
C732 C731 1.366 . S
C732 C736 1.385 . S
C733 H708 0.937 1_565 S
C733 C731 1.390 . S
C733 C734 1.377 . S
C734 C733 1.377 . S
C734 C735 1.414 . S
C734 C737 1.499 . S
C735 H709 0.950 . S
C735 C734 1.414 . S
C735 C736 1.374 . S
C736 H710 0.950 . S
C736 C732 1.385 . S
C736 C735 1.374 . S
C737 C734 1.499 . S
C737 C738 1.373 . S
C737 C739 1.389 1_565 S
C738 H711 0.950 . S
C738 C724 1.377 . S
C738 C737 1.373 . S
C739 C723 1.377 . S
C739 C737 1.389 1_545 S
C739 C740 1.524 . S
C740 C739 1.524 . S
C740 C741 1.397 . S
C740 C745 1.363 . S
C741 H712 0.950 1_545 S
C741 C740 1.397 . S
C741 C742 1.334 . S
C742 H713 0.950 . S
C742 C741 1.334 . S
C742 C743 1.287 . S
C743 C742 1.287 . S
C743 C744 1.524 . S
C743 H746 0.999 . S
C744 H714 0.950 . S
C744 C743 1.524 . S
C744 C745 1.415 . S
C745 H715 0.950 . S
C745 C740 1.363 . S
C745 C744 1.415 . S
H746 C743 0.999 . S
H747 C728 0.913 . S
H748 C766 0.951 . S
H749 C768 0.951 . S
H750 C770 0.950 . S
H751 C771 0.950 . S
H752 C773 0.950 . S
H753 C776 0.950 . S
H754 C777 0.950 . S
H755 C779 0.950 . S
H756 C780 0.950 . S
H757 C781 0.951 . S
H758 C783 0.951 . S
H759 C785 0.950 . S
H760 C786 0.950 . S
H761 C788 0.950 . S
H762 C791 0.950 . S
H763 C792 0.950 . S
H764 C794 0.950 . S
H765 C795 0.950 . S
C766 H748 0.951 . S
C766 C767 1.366 . S
C766 C768 1.388 . S
C767 C766 1.366 . S
C767 C771 1.385 . S
C768 H749 0.951 . S
C768 C766 1.388 . S
C768 C769 1.366 . S
C769 C768 1.366 . S
C769 C770 1.414 . S
C769 C772 1.499 . S
C770 H750 0.950 . S
C770 C769 1.414 . S
C770 C771 1.374 . S
C771 H751 0.950 . S
C771 C767 1.385 . S
C771 C770 1.374 . S
C772 C769 1.499 . S
C772 C773 1.373 . S
C772 C774 1.389 . S
C773 H752 0.950 . S
C773 C772 1.373 . S
C773 C789 1.377 . S
C774 C772 1.389 . S
C774 C775 1.524 . S
C774 C788 1.377 . S
C775 C774 1.524 . S
C775 C776 1.397 . S
C775 C780 1.363 . S
C776 H753 0.950 . S
C776 C775 1.397 . S
C776 C777 1.334 . S
C777 H754 0.950 . S
C777 C776 1.334 . S
C777 C778 1.287 . S
C778 C777 1.287 . S
C778 C779 1.524 . S
C778 H797 0.913 . S
C779 H755 0.950 . S
C779 C778 1.524 . S
C779 C780 1.415 . S
C780 H756 0.950 . S
C780 C775 1.363 . S
C780 C779 1.415 . S
C781 H757 0.951 . S
C781 C782 1.366 . S
C781 C783 1.388 . S
C782 C781 1.366 . S
C782 C786 1.385 . S
C783 H758 0.951 . S
C783 C781 1.388 . S
C783 C784 1.366 . S
C784 C783 1.366 . S
C784 C785 1.414 . S
C784 C787 1.499 . S
C785 H759 0.950 . S
C785 C784 1.414 . S
C785 C786 1.374 . S
C786 H760 0.950 . S
C786 C782 1.385 . S
C786 C785 1.374 . S
C787 C784 1.499 . S
C787 C788 1.373 . S
C787 C789 1.389 . S
C788 H761 0.950 . S
C788 C774 1.377 . S
C788 C787 1.373 . S
C789 C773 1.377 . S
C789 C787 1.389 . S
C789 C790 1.524 . S
C790 C789 1.524 . S
C790 C791 1.397 . S
C790 C795 1.363 . S
C791 H762 0.950 . S
C791 C790 1.397 . S
C791 C792 1.334 . S
C792 H763 0.950 . S
C792 C791 1.334 . S
C792 C793 1.287 . S
C793 C792 1.287 . S
C793 C794 1.524 . S
C793 H796 0.999 . S
C794 H764 0.950 . S
C794 C793 1.524 . S
C794 C795 1.415 . S
C795 H765 0.950 . S
C795 C790 1.363 . S
C795 C794 1.415 . S
H796 C793 0.999 . S
H797 C778 0.913 . S
H798 C816 0.951 . S
H799 C818 0.951 . S
H800 C820 0.950 . S
H801 C821 0.950 . S
H802 C823 0.950 . S
H803 C826 0.950 . S
H804 C827 0.950 . S
H805 C829 0.950 . S
H806 C830 0.950 . S
H807 C831 0.951 . S
H808 C833 0.951 . S
H809 C835 0.950 . S
H810 C836 0.950 . S
H811 C838 0.950 . S
H812 C841 0.950 . S
H813 C842 0.950 . S
H814 C844 0.950 . S
H815 C845 0.950 . S
C816 H798 0.951 . S
C816 C817 1.366 . S
C816 C818 1.388 . S
C817 C816 1.366 . S
C817 C821 1.385 . S
C818 H799 0.951 . S
C818 C816 1.388 . S
C818 C819 1.366 . S
C819 C818 1.366 . S
C819 C820 1.414 . S
C819 C822 1.499 . S
C820 H800 0.950 . S
C820 C819 1.414 . S
C820 C821 1.374 . S
C821 H801 0.950 . S
C821 C817 1.385 . S
C821 C820 1.374 . S
C822 C819 1.499 . S
C822 C823 1.373 . S
C822 C824 1.389 . S
C823 H802 0.950 . S
C823 C822 1.373 . S
C823 C839 1.377 . S
C824 C822 1.389 . S
C824 C825 1.524 . S
C824 C838 1.377 . S
C825 C824 1.524 . S
C825 C826 1.397 . S
C825 C830 1.363 . S
C826 H803 0.950 . S
C826 C825 1.397 . S
C826 C827 1.334 . S
C827 H804 0.950 . S
C827 C826 1.334 . S
C827 C828 1.287 . S
C828 C827 1.287 . S
C828 C829 1.524 . S
C828 H847 0.913 . S
C829 H805 0.950 . S
C829 C828 1.524 . S
C829 C830 1.415 . S
C830 H806 0.950 . S
C830 C825 1.363 . S
C830 C829 1.415 . S
C831 H807 0.951 . S
C831 C832 1.366 . S
C831 C833 1.388 . S
C832 C831 1.366 . S
C832 C836 1.385 . S
C833 H808 0.951 . S
C833 C831 1.388 . S
C833 C834 1.366 . S
C834 C833 1.366 . S
C834 C835 1.414 . S
C834 C837 1.499 . S
C835 H809 0.950 . S
C835 C834 1.414 . S
C835 C836 1.374 . S
C836 H810 0.950 . S
C836 C832 1.385 . S
C836 C835 1.374 . S
C837 C834 1.499 . S
C837 C838 1.373 . S
C837 C839 1.389 . S
C838 H811 0.950 . S
C838 C824 1.377 . S
C838 C837 1.373 . S
C839 C823 1.377 . S
C839 C837 1.389 . S
C839 C840 1.524 . S
C840 C839 1.524 . S
C840 C841 1.397 . S
C840 C845 1.363 . S
C841 H812 0.950 . S
C841 C840 1.397 . S
C841 C842 1.334 . S
C842 H813 0.950 . S
C842 C841 1.334 . S
C842 C843 1.287 . S
C843 C842 1.287 . S
C843 C844 1.524 . S
C843 H846 0.999 . S
C844 H814 0.950 . S
C844 C843 1.524 . S
C844 C845 1.415 . S
C845 H815 0.950 . S
C845 C840 1.363 . S
C845 C844 1.415 . S
H846 C843 0.999 . S
H847 C828 0.913 . S
H848 C866 0.951 . S
H849 C868 0.951 . S
H850 C870 0.950 . S
H851 C871 0.950 . S
H852 C873 0.950 1_655 S
H853 C876 0.950 . S
H854 C877 0.950 . S
H855 C879 0.950 . S
H856 C880 0.950 . S
H857 C881 0.951 . S
H858 C883 0.951 . S
H859 C885 0.950 . S
H860 C886 0.950 . S
H861 C888 0.950 . S
H862 C891 0.950 . S
H863 C892 0.950 . S
H864 C894 0.950 . S
H865 C895 0.950 1_455 S
C866 H848 0.951 . S
C866 C867 1.366 . S
C866 C868 1.388 . S
C867 C866 1.366 . S
C867 C871 1.385 1_655 S
C868 H849 0.951 . S
C868 C866 1.388 . S
C868 C869 1.366 1_655 S
C869 C868 1.366 1_455 S
C869 C870 1.414 . S
C869 C872 1.499 . S
C870 H850 0.950 . S
C870 C869 1.414 . S
C870 C871 1.374 . S
C871 H851 0.950 . S
C871 C867 1.385 1_455 S
C871 C870 1.374 . S
C872 C869 1.499 . S
C872 C873 1.373 . S
C872 C874 1.389 . S
C873 H852 0.950 1_455 S
C873 C872 1.373 . S
C873 C889 1.377 . S
C874 C872 1.389 . S
C874 C875 1.524 . S
C874 C888 1.377 . S
C875 C874 1.524 . S
C875 C876 1.397 . S
C875 C880 1.363 1_554 S
C876 H853 0.950 . S
C876 C875 1.397 . S
C876 C877 1.334 . S
C877 H854 0.950 . S
C877 C876 1.334 . S
C877 C878 1.287 . S
C878 C877 1.287 . S
C878 C879 1.524 1_554 S
C878 H897 0.913 . S
C879 H855 0.950 . S
C879 C878 1.524 1_556 S
C879 C880 1.415 . S
C880 H856 0.950 . S
C880 C875 1.363 1_556 S
C880 C879 1.415 . S
C881 H857 0.951 . S
C881 C882 1.366 1_554 S
C881 C883 1.388 . S
C882 C881 1.366 1_556 S
C882 C886 1.385 . S
C883 H858 0.951 . S
C883 C881 1.388 . S
C883 C884 1.366 . S
C884 C883 1.366 . S
C884 C885 1.414 1_554 S
C884 C887 1.499 . S
C885 H859 0.950 . S
C885 C884 1.414 1_556 S
C885 C886 1.374 . S
C886 H860 0.950 . S
C886 C882 1.385 . S
C886 C885 1.374 . S
C887 C884 1.499 . S
C887 C888 1.373 . S
C887 C889 1.389 . S
C888 H861 0.950 . S
C888 C874 1.377 . S
C888 C887 1.373 . S
C889 C873 1.377 . S
C889 C887 1.389 . S
C889 C890 1.524 1_455 S
C890 C889 1.524 1_655 S
C890 C891 1.397 . S
C890 C895 1.363 . S
C891 H862 0.950 . S
C891 C890 1.397 . S
C891 C892 1.334 . S
C892 H863 0.950 . S
C892 C891 1.334 . S
C892 C893 1.287 . S
C893 C892 1.287 . S
C893 C894 1.524 . S
C893 H896 0.999 . S
C894 H864 0.950 . S
C894 C893 1.524 . S
C894 C895 1.415 . S
C895 H865 0.950 1_655 S
C895 C890 1.363 . S
C895 C894 1.415 . S
H896 C893 0.999 . S
H897 C878 0.913 . S
H898 C916 0.951 . S
H899 C918 0.949 1_565 S
H900 C920 0.950 . S
H901 C921 0.950 . S
H902 C923 0.978 . S
H903 C926 0.950 . S
H904 C927 0.950 . S
H905 C929 0.950 . S
H906 C930 0.950 1_556 S
H907 C931 0.951 . S
H908 C933 0.951 . S
H909 C935 0.950 . S
H910 C936 0.950 . S
H911 C938 0.950 . S
H912 C941 0.950 . S
H913 C942 0.950 . S
H914 C944 0.950 . S
H915 C945 0.950 . S
C916 H898 0.951 . S
C916 C917 1.372 . S
C916 C918 1.385 1_565 S
C917 C916 1.372 . S
C917 C921 1.373 1_565 S
C918 H899 0.949 1_545 S
C918 C916 1.385 1_545 S
C918 C919 1.371 . S
C919 C918 1.371 . S
C919 C920 1.414 . S
C919 C922 1.499 . S
C920 H900 0.950 . S
C920 C919 1.414 . S
C920 C921 1.374 . S
C921 H901 0.950 . S
C921 C917 1.373 1_545 S
C921 C920 1.374 . S
C922 C919 1.499 . S
C922 C923 1.350 1_545 S
C922 C924 1.389 . S
C923 H902 0.978 . S
C923 C922 1.350 1_565 S
C923 C939 1.373 1_565 S
C924 C922 1.389 . S
C924 C925 1.524 . S
C924 C938 1.377 . S
C925 C924 1.524 . S
C925 C926 1.397 . S
C925 C930 1.363 . S
C926 H903 0.950 . S
C926 C925 1.397 . S
C926 C927 1.334 . S
C927 H904 0.950 . S
C927 C926 1.334 . S
C927 C928 1.287 . S
C928 C927 1.287 . S
C928 C929 1.524 1_554 S
C928 H947 0.913 . S
C929 H905 0.950 . S
C929 C928 1.524 1_556 S
C929 C930 1.415 1_556 S
C930 H906 0.950 1_554 S
C930 C925 1.363 . S
C930 C929 1.415 1_554 S
C931 H907 0.951 . S
C931 C932 1.366 1_554 S
C931 C933 1.388 . S
C932 C931 1.366 1_556 S
C932 C936 1.385 . S
C933 H908 0.951 . S
C933 C931 1.388 . S
C933 C934 1.366 . S
C934 C933 1.366 . S
C934 C935 1.414 1_554 S
C934 C937 1.499 . S
C935 H909 0.950 . S
C935 C934 1.414 1_556 S
C935 C936 1.374 . S
C936 H910 0.950 . S
C936 C932 1.385 . S
C936 C935 1.374 . S
C937 C934 1.499 . S
C937 C938 1.373 . S
C937 C939 1.407 . S
C938 H911 0.950 . S
C938 C924 1.377 . S
C938 C937 1.373 . S
C939 C923 1.373 1_545 S
C939 C937 1.407 . S
C939 C940 1.507 1_545 S
C940 C939 1.507 1_565 S
C940 C941 1.397 . S
C940 C945 1.363 . S
C941 H912 0.950 . S
C941 C940 1.397 . S
C941 C942 1.334 . S
C942 H913 0.950 . S
C942 C941 1.334 . S
C942 C943 1.287 . S
C943 C942 1.287 . S
C943 C944 1.524 . S
C943 H946 0.999 . S
C944 H914 0.950 . S
C944 C943 1.524 . S
C944 C945 1.415 . S
C945 H915 0.950 . S
C945 C940 1.363 . S
C945 C944 1.415 . S
H946 C943 0.999 . S
H947 C928 0.913 . S
H948 C966 0.951 . S
H949 C968 0.951 . S
H950 C970 0.950 . S
H951 C971 0.950 . S
H952 C973 0.950 . S
H953 C976 0.950 . S
H954 C977 0.950 . S
H955 C979 0.950 . S
H956 C980 0.950 . S
H957 C981 0.950 1_556 S
H958 C983 0.951 . S
H959 C985 0.950 . S
H960 C986 0.950 . S
H961 C988 0.950 . S
H962 C991 0.950 . S
H963 C992 0.950 . S
H964 C994 0.950 . S
H965 C995 0.950 . S
C966 H948 0.951 . S
C966 C967 1.366 . S
C966 C968 1.388 . S
C967 C966 1.366 . S
C967 C971 1.385 . S
C968 H949 0.951 . S
C968 C966 1.388 . S
C968 C969 1.366 . S
C969 C968 1.366 . S
C969 C970 1.414 . S
C969 C972 1.499 . S
C970 H950 0.950 . S
C970 C969 1.414 . S
C970 C971 1.374 . S
C971 H951 0.950 . S
C971 C967 1.385 . S
C971 C970 1.374 . S
C972 C969 1.499 . S
C972 C973 1.373 . S
C972 C974 1.389 . S
C973 H952 0.950 . S
C973 C972 1.373 . S
C973 C989 1.377 . S
C974 C972 1.389 . S
C974 C975 1.524 . S
C974 C988 1.377 . S
C975 C974 1.524 . S
C975 C976 1.397 . S
C975 C980 1.363 . S
C976 H953 0.950 . S
C976 C975 1.397 . S
C976 C977 1.334 . S
C977 H954 0.950 . S
C977 C976 1.334 . S
C977 C978 1.287 1_554 S
C978 C977 1.287 1_556 S
C978 C979 1.524 . S
C978 H997 0.913 . S
C979 H955 0.950 . S
C979 C978 1.524 . S
C979 C980 1.415 1_556 S
C980 H956 0.950 . S
C980 C975 1.363 . S
C980 C979 1.415 1_554 S
C981 H957 0.950 1_554 S
C981 C982 1.366 1_554 S
C981 C983 1.388 . S
C982 C981 1.366 1_556 S
C982 C986 1.385 . S
C983 H958 0.951 . S
C983 C981 1.388 . S
C983 C984 1.366 . S
C984 C983 1.366 . S
C984 C985 1.414 . S
C984 C987 1.499 . S
C985 H959 0.950 . S
C985 C984 1.414 . S
C985 C986 1.374 1_554 S
C986 H960 0.950 . S
C986 C982 1.385 . S
C986 C985 1.374 1_556 S
C987 C984 1.499 . S
C987 C988 1.373 . S
C987 C989 1.389 . S
C988 H961 0.950 . S
C988 C974 1.377 . S
C988 C987 1.373 . S
C989 C973 1.377 . S
C989 C987 1.389 . S
C989 C990 1.524 . S
C990 C989 1.524 . S
C990 C991 1.397 . S
C990 C995 1.363 . S
C991 H962 0.950 . S
C991 C990 1.397 . S
C991 C992 1.334 . S
C992 H963 0.950 . S
C992 C991 1.334 . S
C992 C993 1.287 . S
C993 C992 1.287 . S
C993 C994 1.524 . S
C993 H996 0.999 . S
C994 H964 0.950 . S
C994 C993 1.524 . S
C994 C995 1.415 . S
C995 H965 0.950 . S
C995 C990 1.363 . S
C995 C994 1.415 . S
H996 C993 0.999 . S
H997 C978 0.913 . S
H998 C1016 0.951 . S
H999 C1018 0.951 . S
H1000 C1020 0.950 . S
H1001 C1021 0.950 . S
H1002 C1023 0.950 . S
H1003 C1026 0.950 . S
H1004 C1027 0.950 . S
H1005 C1029 0.950 . S
H1006 C1030 0.950 . S
H1007 C1031 0.951 . S
H1008 C1033 0.951 . S
H1009 C1035 0.950 . S
H1010 C1036 0.950 . S
H1011 C1038 0.950 . S
H1012 C1041 0.950 . S
H1013 C1042 0.950 . S
H1014 C1044 0.950 . S
H1015 C1045 0.950 1_554 S
C1016 H998 0.951 . S
C1016 C1017 1.366 . S
C1016 C1018 1.388 . S
C1017 C1016 1.366 . S
C1017 C1021 1.385 . S
C1018 H999 0.951 . S
C1018 C1016 1.388 . S
C1018 C1019 1.366 . S
C1019 C1018 1.366 . S
C1019 C1020 1.414 . S
C1019 C1022 1.499 . S
C1020 H1000 0.950 . S
C1020 C1019 1.414 . S
C1020 C1021 1.374 . S
C1021 H1001 0.950 . S
C1021 C1017 1.385 . S
C1021 C1020 1.374 . S
C1022 C1019 1.499 . S
C1022 C1023 1.373 . S
C1022 C1024 1.389 . S
C1023 H1002 0.950 . S
C1023 C1022 1.373 . S
C1023 C1039 1.377 . S
C1024 C1022 1.389 . S
C1024 C1025 1.524 . S
C1024 C1038 1.377 . S
C1025 C1024 1.524 . S
C1025 C1026 1.397 . S
C1025 C1030 1.363 . S
C1026 H1003 0.950 . S
C1026 C1025 1.397 . S
C1026 C1027 1.334 . S
C1027 H1004 0.950 . S
C1027 C1026 1.334 . S
C1027 C1028 1.287 . S
C1028 C1027 1.287 . S
C1028 C1029 1.524 . S
C1028 H1047 0.913 . S
C1029 H1005 0.950 . S
C1029 C1028 1.524 . S
C1029 C1030 1.415 . S
C1030 H1006 0.950 . S
C1030 C1025 1.363 . S
C1030 C1029 1.415 . S
C1031 H1007 0.951 . S
C1031 C1032 1.366 . S
C1031 C1033 1.388 1_556 S
C1032 C1031 1.366 . S
C1032 C1036 1.385 . S
C1033 H1008 0.951 . S
C1033 C1031 1.388 1_554 S
C1033 C1034 1.366 . S
C1034 C1033 1.366 . S
C1034 C1035 1.414 . S
C1034 C1037 1.499 . S
C1035 H1009 0.950 . S
C1035 C1034 1.414 . S
C1035 C1036 1.374 1_554 S
C1036 H1010 0.950 . S
C1036 C1032 1.385 . S
C1036 C1035 1.374 1_556 S
C1037 C1034 1.499 . S
C1037 C1038 1.373 . S
C1037 C1039 1.389 . S
C1038 H1011 0.950 . S
C1038 C1024 1.377 . S
C1038 C1037 1.373 . S
C1039 C1023 1.377 . S
C1039 C1037 1.389 . S
C1039 C1040 1.524 1_554 S
C1040 C1039 1.524 1_556 S
C1040 C1041 1.397 . S
C1040 C1045 1.363 . S
C1041 H1012 0.950 . S
C1041 C1040 1.397 . S
C1041 C1042 1.334 . S
C1042 H1013 0.950 . S
C1042 C1041 1.334 . S
C1042 C1043 1.287 . S
C1043 C1042 1.287 . S
C1043 C1044 1.524 . S
C1043 H1046 0.999 . S
C1044 H1014 0.950 . S
C1044 C1043 1.524 . S
C1044 C1045 1.415 . S
C1045 H1015 0.950 1_556 S
C1045 C1040 1.363 . S
C1045 C1044 1.415 . S
H1046 C1043 0.999 . S
H1047 C1028 0.913 . S
H1048 C1066 0.951 . S
H1049 C1068 0.951 . S
H1050 C1070 0.950 . S
H1051 C1071 0.950 . S
H1052 C1073 0.950 . S
H1053 C1076 0.950 . S
H1054 C1077 0.950 1_554 S
H1055 C1079 0.950 . S
H1056 C1080 0.950 . S
H1057 C1081 0.951 . S
H1058 C1083 0.951 . S
H1059 C1085 0.950 . S
H1060 C1086 0.950 . S
H1061 C1088 0.950 . S
H1062 C1091 0.950 . S
H1063 C1092 0.950 . S
H1064 C1094 0.950 . S
H1065 C1095 0.950 . S
C1066 H1048 0.951 . S
C1066 C1067 1.333 1_655 S
C1066 C1068 1.388 . S
C1067 C1066 1.333 1_455 S
C1067 C1071 1.419 . S
C1068 H1049 0.951 . S
C1068 C1066 1.388 . S
C1068 C1069 1.366 1_655 S
C1069 C1068 1.366 1_455 S
C1069 C1070 1.414 . S
C1069 C1072 1.499 . S
C1070 H1050 0.950 . S
C1070 C1069 1.414 . S
C1070 C1071 1.374 . S
C1071 H1051 0.950 . S
C1071 C1067 1.419 . S
C1071 C1070 1.374 . S
C1072 C1069 1.499 . S
C1072 C1073 1.373 . S
C1072 C1074 1.389 1_455 S
C1073 H1052 0.950 . S
C1073 C1072 1.373 . S
C1073 C1089 1.377 . S
C1074 C1072 1.389 1_655 S
C1074 C1075 1.524 . S
C1074 C1088 1.377 . S
C1075 C1074 1.524 . S
C1075 C1076 1.397 . S
C1075 C1080 1.363 . S
C1076 H1053 0.950 . S
C1076 C1075 1.397 . S
C1076 C1077 1.334 . S
C1077 H1054 0.950 1_556 S
C1077 C1076 1.334 . S
C1077 C1078 1.287 . S
C1078 C1077 1.287 . S
C1078 C1079 1.524 . S
C1078 H1097 0.913 . S
C1079 H1055 0.950 . S
C1079 C1078 1.524 . S
C1079 C1080 1.415 . S
C1080 H1056 0.950 . S
C1080 C1075 1.363 . S
C1080 C1079 1.415 . S
C1081 H1057 0.951 . S
C1081 C1082 1.366 . S
C1081 C1083 1.388 . S
C1082 C1081 1.366 . S
C1082 C1086 1.385 1_455 S
C1083 H1058 0.951 . S
C1083 C1081 1.388 . S
C1083 C1084 1.366 . S
C1084 C1083 1.366 . S
C1084 C1085 1.414 1_455 S
C1084 C1087 1.499 . S
C1085 H1059 0.950 . S
C1085 C1084 1.414 1_655 S
C1085 C1086 1.374 . S
C1086 H1060 0.950 . S
C1086 C1082 1.385 1_655 S
C1086 C1085 1.374 . S
C1087 C1084 1.499 . S
C1087 C1088 1.373 1_455 S
C1087 C1089 1.389 . S
C1088 H1061 0.950 . S
C1088 C1074 1.377 . S
C1088 C1087 1.373 1_655 S
C1089 C1073 1.377 . S
C1089 C1087 1.389 . S
C1089 C1090 1.524 . S
C1090 C1089 1.524 . S
C1090 C1091 1.397 . S
C1090 C1095 1.363 . S
C1091 H1062 0.950 . S
C1091 C1090 1.397 . S
C1091 C1092 1.334 . S
C1092 H1063 0.950 . S
C1092 C1091 1.334 . S
C1092 C1093 1.287 . S
C1093 C1092 1.287 . S
C1093 C1094 1.524 . S
C1093 H1096 0.999 . S
C1094 H1064 0.950 . S
C1094 C1093 1.524 . S
C1094 C1095 1.415 . S
C1095 H1065 0.950 . S
C1095 C1090 1.363 . S
C1095 C1094 1.415 . S
H1096 C1093 0.999 . S
H1097 C1078 0.913 . S
H1098 C1116 0.951 . S
H1099 C1118 0.951 . S
H1100 C1120 0.950 . S
H1101 C1121 0.950 1_554 S
H1102 C1123 0.950 . S
H1103 C1126 0.950 . S
H1104 C1127 0.950 . S
H1105 C1129 0.950 . S
H1106 C1130 0.950 . S
H1107 C1131 0.951 . S
H1108 C1133 0.951 . S
H1109 C1135 0.949 1_565 S
H1110 C1136 0.940 1_565 S
H1111 C1138 0.950 . S
H1112 C1141 0.950 . S
H1113 C1142 0.950 . S
H1114 C1144 0.950 . S
H1115 C1145 0.950 . S
C1116 H1098 0.951 . S
C1116 C1117 1.352 1_565 S
C1116 C1118 1.388 . S
C1117 C1116 1.352 1_545 S
C1117 C1121 1.401 . S
C1118 H1099 0.951 . S
C1118 C1116 1.388 . S
C1118 C1119 1.366 1_565 S
C1119 C1118 1.366 1_545 S
C1119 C1120 1.414 . S
C1119 C1122 1.499 . S
C1120 H1100 0.950 . S
C1120 C1119 1.414 . S
C1120 C1121 1.374 . S
C1121 H1101 0.950 1_556 S
C1121 C1117 1.401 . S
C1121 C1120 1.374 . S
C1122 C1119 1.499 . S
C1122 C1123 1.373 . S
C1122 C1124 1.389 1_545 S
C1123 H1102 0.950 . S
C1123 C1122 1.373 . S
C1123 C1139 1.377 . S
C1124 C1122 1.389 1_565 S
C1124 C1125 1.524 . S
C1124 C1138 1.377 . S
C1125 C1124 1.524 . S
C1125 C1126 1.397 . S
C1125 C1130 1.363 . S
C1126 H1103 0.950 . S
C1126 C1125 1.397 . S
C1126 C1127 1.334 . S
C1127 H1104 0.950 . S
C1127 C1126 1.334 . S
C1127 C1128 1.287 . S
C1128 C1127 1.287 . S
C1128 C1129 1.524 . S
C1128 H1147 0.913 . S
C1129 H1105 0.950 . S
C1129 C1128 1.524 . S
C1129 C1130 1.415 . S
C1130 H1106 0.950 . S
C1130 C1125 1.363 . S
C1130 C1129 1.415 . S
C1131 H1107 0.951 . S
C1131 C1132 1.366 . S
C1131 C1133 1.388 . S
C1132 C1131 1.366 . S
C1132 C1136 1.397 . S
C1133 H1108 0.951 . S
C1133 C1131 1.388 . S
C1133 C1134 1.366 . S
C1134 C1133 1.366 . S
C1134 C1135 1.415 . S
C1134 C1137 1.499 . S
C1135 H1109 0.949 1_545 S
C1135 C1134 1.415 . S
C1135 C1136 1.373 . S
C1136 H1110 0.940 1_545 S
C1136 C1132 1.397 . S
C1136 C1135 1.373 . S
C1137 C1134 1.499 . S
C1137 C1138 1.373 1_545 S
C1137 C1139 1.389 . S
C1138 H1111 0.950 . S
C1138 C1124 1.377 . S
C1138 C1137 1.373 1_565 S
C1139 C1123 1.377 . S
C1139 C1137 1.389 . S
C1139 C1140 1.524 . S
C1140 C1139 1.524 . S
C1140 C1141 1.397 . S
C1140 C1145 1.363 . S
C1141 H1112 0.950 . S
C1141 C1140 1.397 . S
C1141 C1142 1.334 . S
C1142 H1113 0.950 . S
C1142 C1141 1.334 . S
C1142 C1143 1.287 . S
C1143 C1142 1.287 . S
C1143 C1144 1.524 . S
C1143 H1146 0.999 . S
C1144 H1114 0.950 . S
C1144 C1143 1.524 . S
C1144 C1145 1.415 . S
C1145 H1115 0.950 . S
C1145 C1140 1.363 . S
C1145 C1144 1.415 . S
H1146 C1143 0.999 . S
H1147 C1128 0.913 . S
H1148 C1166 0.951 1_554 S
H1149 C1168 0.951 . S
H1150 C1170 0.950 . S
H1151 C1171 0.950 . S
H1152 C1173 0.950 . S
H1153 C1176 0.950 . S
H1154 C1177 0.950 . S
H1155 C1179 0.950 . S
H1156 C1180 0.950 1_554 S
H1157 C1181 0.951 . S
H1158 C1183 0.951 . S
H1159 C1185 0.950 . S
H1160 C1186 0.950 . S
H1161 C1188 0.950 . S
H1162 C1191 0.950 . S
H1163 C1192 0.950 . S
H1164 C1194 0.950 . S
H1165 C1195 0.950 . S
C1166 H1148 0.951 1_556 S
C1166 C1167 1.366 . S
C1166 C1168 1.388 . S
C1167 C1166 1.366 . S
C1167 C1171 1.385 . S
C1168 H1149 0.951 . S
C1168 C1166 1.388 . S
C1168 C1169 1.366 . S
C1169 C1168 1.366 . S
C1169 C1170 1.414 . S
C1169 C1172 1.499 . S
C1170 H1150 0.950 . S
C1170 C1169 1.414 . S
C1170 C1171 1.374 . S
C1171 H1151 0.950 . S
C1171 C1167 1.385 . S
C1171 C1170 1.374 . S
C1172 C1169 1.499 . S
C1172 C1173 1.373 . S
C1172 C1174 1.389 . S
C1173 H1152 0.950 . S
C1173 C1172 1.373 . S
C1173 C1189 1.377 . S
C1174 C1172 1.389 . S
C1174 C1175 1.524 . S
C1174 C1188 1.377 . S
C1175 C1174 1.524 . S
C1175 C1176 1.397 . S
C1175 C1180 1.363 . S
C1176 H1153 0.950 . S
C1176 C1175 1.397 . S
C1176 C1177 1.334 . S
C1177 H1154 0.950 . S
C1177 C1176 1.334 . S
C1177 C1178 1.287 . S
C1178 C1177 1.287 . S
C1178 C1179 1.524 1_556 S
C1178 H1197 0.913 . S
C1179 H1155 0.950 . S
C1179 C1178 1.524 1_554 S
C1179 C1180 1.415 1_554 S
C1180 H1156 0.950 1_556 S
C1180 C1175 1.363 . S
C1180 C1179 1.415 1_556 S
C1181 H1157 0.951 . S
C1181 C1182 1.366 . S
C1181 C1183 1.388 . S
C1182 C1181 1.366 . S
C1182 C1186 1.385 . S
C1183 H1158 0.951 . S
C1183 C1181 1.388 . S
C1183 C1184 1.366 . S
C1184 C1183 1.366 . S
C1184 C1185 1.414 . S
C1184 C1187 1.499 . S
C1185 H1159 0.950 . S
C1185 C1184 1.414 . S
C1185 C1186 1.374 . S
C1186 H1160 0.950 . S
C1186 C1182 1.385 . S
C1186 C1185 1.374 . S
C1187 C1184 1.499 . S
C1187 C1188 1.373 . S
C1187 C1189 1.389 . S
C1188 H1161 0.950 . S
C1188 C1174 1.377 . S
C1188 C1187 1.373 . S
C1189 C1173 1.377 . S
C1189 C1187 1.389 . S
C1189 C1190 1.524 . S
C1190 C1189 1.524 . S
C1190 C1191 1.397 . S
C1190 C1195 1.363 . S
C1191 H1162 0.950 . S
C1191 C1190 1.397 . S
C1191 C1192 1.334 . S
C1192 H1163 0.950 . S
C1192 C1191 1.334 . S
C1192 C1193 1.287 . S
C1193 C1192 1.287 . S
C1193 C1194 1.524 . S
C1193 H1196 0.999 . S
C1194 H1164 0.950 . S
C1194 C1193 1.524 . S
C1194 C1195 1.415 . S
C1195 H1165 0.950 . S
C1195 C1190 1.363 . S
C1195 C1194 1.415 . S
H1196 C1193 0.999 . S
H1197 C1178 0.913 . S
H1198 C1216 0.951 . S
H1199 C1218 0.951 . S
H1200 C1220 0.950 . S
H1201 C1221 0.950 1_554 S
H1202 C1223 0.950 . S
H1203 C1226 0.950 . S
H1204 C1227 0.950 . S
H1205 C1229 0.950 . S
H1206 C1230 0.950 . S
H1207 C1231 0.951 . S
H1208 C1233 0.951 . S
H1209 C1235 0.950 . S
H1210 C1236 0.950 . S
H1211 C1238 0.950 . S
H1212 C1241 0.950 . S
H1213 C1242 0.950 . S
H1214 C1244 0.950 . S
H1215 C1245 0.950 1_554 S
C1216 H1198 0.951 . S
C1216 C1217 1.366 . S
C1216 C1218 1.388 . S
C1217 C1216 1.366 . S
C1217 C1221 1.385 . S
C1218 H1199 0.951 . S
C1218 C1216 1.388 . S
C1218 C1219 1.366 . S
C1219 C1218 1.366 . S
C1219 C1220 1.414 . S
C1219 C1222 1.499 . S
C1220 H1200 0.950 . S
C1220 C1219 1.414 . S
C1220 C1221 1.374 . S
C1221 H1201 0.950 1_556 S
C1221 C1217 1.385 . S
C1221 C1220 1.374 . S
C1222 C1219 1.499 . S
C1222 C1223 1.373 . S
C1222 C1224 1.389 . S
C1223 H1202 0.950 . S
C1223 C1222 1.373 . S
C1223 C1239 1.377 . S
C1224 C1222 1.389 . S
C1224 C1225 1.524 . S
C1224 C1238 1.377 . S
C1225 C1224 1.524 . S
C1225 C1226 1.397 . S
C1225 C1230 1.363 . S
C1226 H1203 0.950 . S
C1226 C1225 1.397 . S
C1226 C1227 1.334 . S
C1227 H1204 0.950 . S
C1227 C1226 1.334 . S
C1227 C1228 1.287 . S
C1228 C1227 1.287 . S
C1228 C1229 1.524 . S
C1228 H1247 0.913 . S
C1229 H1205 0.950 . S
C1229 C1228 1.524 . S
C1229 C1230 1.415 . S
C1230 H1206 0.950 . S
C1230 C1225 1.363 . S
C1230 C1229 1.415 . S
C1231 H1207 0.951 . S
C1231 C1232 1.366 . S
C1231 C1233 1.388 . S
C1232 C1231 1.366 . S
C1232 C1236 1.385 . S
C1233 H1208 0.951 . S
C1233 C1231 1.388 . S
C1233 C1234 1.366 . S
C1234 C1233 1.366 . S
C1234 C1235 1.414 . S
C1234 C1237 1.499 . S
C1235 H1209 0.950 . S
C1235 C1234 1.414 . S
C1235 C1236 1.374 . S
C1236 H1210 0.950 . S
C1236 C1232 1.385 . S
C1236 C1235 1.374 . S
C1237 C1234 1.499 . S
C1237 C1238 1.373 . S
C1237 C1239 1.389 . S
C1238 H1211 0.950 . S
C1238 C1224 1.377 . S
C1238 C1237 1.373 . S
C1239 C1223 1.377 . S
C1239 C1237 1.389 . S
C1239 C1240 1.524 . S
C1240 C1239 1.524 . S
C1240 C1241 1.397 . S
C1240 C1245 1.363 . S
C1241 H1212 0.950 . S
C1241 C1240 1.397 . S
C1241 C1242 1.334 . S
C1242 H1213 0.950 . S
C1242 C1241 1.334 . S
C1242 C1243 1.287 . S
C1243 C1242 1.287 . S
C1243 C1244 1.524 1_556 S
C1243 H1246 0.999 . S
C1244 H1214 0.950 . S
C1244 C1243 1.524 1_554 S
C1244 C1245 1.415 1_554 S
C1245 H1215 0.950 1_556 S
C1245 C1240 1.363 . S
C1245 C1244 1.415 1_556 S
H1246 C1243 0.999 . S
H1247 C1228 0.913 . S
H1248 C1266 0.951 . S
H1249 C1268 0.951 . S
H1250 C1270 0.950 . S
H1251 C1271 0.950 . S
H1252 C1273 0.950 . S
H1253 C1276 0.950 . S
H1254 C1277 0.950 . S
H1255 C1279 0.950 . S
H1256 C1280 0.950 . S
H1257 C1281 0.951 . S
H1258 C1283 0.951 . S
H1259 C1285 0.950 . S
H1260 C1286 0.950 . S
H1261 C1288 0.950 . S
H1262 C1291 0.950 . S
H1263 C1292 0.950 . S
H1264 C1294 0.950 . S
H1265 C1295 0.950 . S
C1266 H1248 0.951 . S
C1266 C1267 1.388 . S
C1266 C1268 1.388 . S
C1267 C1266 1.388 . S
C1267 C1271 1.366 1_655 S
C1268 H1249 0.951 . S
C1268 C1266 1.388 . S
C1268 C1269 1.366 . S
C1269 C1268 1.366 . S
C1269 C1270 1.414 1_655 S
C1269 C1272 1.499 . S
C1270 H1250 0.950 . S
C1270 C1269 1.414 1_455 S
C1270 C1271 1.374 . S
C1271 H1251 0.950 . S
C1271 C1267 1.366 1_455 S
C1271 C1270 1.374 . S
C1272 C1269 1.499 . S
C1272 C1273 1.373 1_655 S
C1272 C1274 1.389 . S
C1273 H1252 0.950 . S
C1273 C1272 1.373 1_455 S
C1273 C1289 1.377 . S
C1274 C1272 1.389 . S
C1274 C1275 1.524 . S
C1274 C1288 1.377 . S
C1275 C1274 1.524 . S
C1275 C1276 1.397 . S
C1275 C1280 1.363 . S
C1276 H1253 0.950 . S
C1276 C1275 1.397 . S
C1276 C1277 1.334 . S
C1277 H1254 0.950 . S
C1277 C1276 1.334 . S
C1277 C1278 1.287 . S
C1278 C1277 1.287 . S
C1278 C1279 1.524 . S
C1278 H1297 0.913 . S
C1279 H1255 0.950 . S
C1279 C1278 1.524 . S
C1279 C1280 1.415 . S
C1280 H1256 0.950 . S
C1280 C1275 1.363 . S
C1280 C1279 1.415 . S
C1281 H1257 0.951 . S
C1281 C1282 1.366 1_455 S
C1281 C1283 1.388 . S
C1282 C1281 1.366 1_655 S
C1282 C1286 1.385 . S
C1283 H1258 0.951 . S
C1283 C1281 1.388 . S
C1283 C1284 1.366 1_455 S
C1284 C1283 1.366 1_655 S
C1284 C1285 1.414 . S
C1284 C1287 1.499 . S
C1285 H1259 0.950 . S
C1285 C1284 1.414 . S
C1285 C1286 1.374 . S
C1286 H1260 0.950 . S
C1286 C1282 1.385 . S
C1286 C1285 1.374 . S
C1287 C1284 1.499 . S
C1287 C1288 1.373 . S
C1287 C1289 1.389 1_655 S
C1288 H1261 0.950 . S
C1288 C1274 1.377 . S
C1288 C1287 1.373 . S
C1289 C1273 1.377 . S
C1289 C1287 1.389 1_455 S
C1289 C1290 1.524 . S
C1290 C1289 1.524 . S
C1290 C1291 1.397 . S
C1290 C1295 1.363 . S
C1291 H1262 0.950 . S
C1291 C1290 1.397 . S
C1291 C1292 1.334 . S
C1292 H1263 0.950 . S
C1292 C1291 1.334 . S
C1292 C1293 1.287 . S
C1293 C1292 1.287 . S
C1293 C1294 1.524 . S
C1293 H1296 0.999 . S
C1294 H1264 0.950 . S
C1294 C1293 1.524 . S
C1294 C1295 1.415 . S
C1295 H1265 0.950 . S
C1295 C1290 1.363 . S
C1295 C1294 1.415 . S
H1296 C1293 0.999 . S
H1297 C1278 0.913 . S
H1298 C1316 0.951 . S
H1299 C1318 0.951 . S
H1300 C1320 0.950 . S
H1301 C1321 0.950 . S
H1302 C1323 0.950 . S
H1303 C1326 0.950 . S
H1304 C1327 0.950 . S
H1305 C1329 0.950 . S
H1306 C1330 0.950 . S
H1307 C1331 0.951 . S
H1308 C1333 0.951 . S
H1309 C1335 0.950 . S
H1310 C1336 0.951 . S
H1311 C1338 0.950 . S
H1312 C1341 0.950 . S
H1313 C1342 0.950 . S
H1314 C1344 0.950 . S
H1315 C1345 0.950 . S
C1316 H1298 0.951 . S
C1316 C1317 1.357 1_545 S
C1316 C1318 1.388 . S
C1317 C1316 1.357 1_565 S
C1317 C1321 1.396 . S
C1318 H1299 0.951 . S
C1318 C1316 1.388 . S
C1318 C1319 1.366 1_545 S
C1319 C1318 1.366 1_565 S
C1319 C1320 1.414 . S
C1319 C1322 1.499 . S
C1320 H1300 0.950 . S
C1320 C1319 1.414 . S
C1320 C1321 1.374 . S
C1321 H1301 0.950 . S
C1321 C1317 1.396 . S
C1321 C1320 1.374 . S
C1322 C1319 1.499 . S
C1322 C1323 1.373 1_565 S
C1322 C1324 1.389 . S
C1323 H1302 0.950 . S
C1323 C1322 1.373 1_545 S
C1323 C1339 1.377 . S
C1324 C1322 1.389 . S
C1324 C1325 1.524 . S
C1324 C1338 1.377 . S
C1325 C1324 1.524 . S
C1325 C1326 1.397 . S
C1325 C1330 1.363 . S
C1326 H1303 0.950 . S
C1326 C1325 1.397 . S
C1326 C1327 1.334 . S
C1327 H1304 0.950 . S
C1327 C1326 1.334 . S
C1327 C1328 1.287 . S
C1328 C1327 1.287 . S
C1328 C1329 1.524 . S
C1328 H1347 0.913 . S
C1329 H1305 0.950 . S
C1329 C1328 1.524 . S
C1329 C1330 1.415 . S
C1330 H1306 0.950 . S
C1330 C1325 1.363 . S
C1330 C1329 1.415 . S
C1331 H1307 0.951 . S
C1331 C1332 1.366 . S
C1331 C1333 1.388 . S
C1332 C1331 1.366 . S
C1332 C1336 1.384 1_565 S
C1333 H1308 0.951 . S
C1333 C1331 1.388 . S
C1333 C1334 1.366 . S
C1334 C1333 1.366 . S
C1334 C1335 1.414 1_565 S
C1334 C1337 1.499 . S
C1335 H1309 0.950 . S
C1335 C1334 1.414 1_545 S
C1335 C1336 1.374 . S
C1336 H1310 0.951 . S
C1336 C1332 1.384 1_545 S
C1336 C1335 1.374 . S
C1337 C1334 1.499 . S
C1337 C1338 1.373 . S
C1337 C1339 1.389 1_565 S
C1338 H1311 0.950 . S
C1338 C1324 1.377 . S
C1338 C1337 1.373 . S
C1339 C1323 1.377 . S
C1339 C1337 1.389 1_545 S
C1339 C1340 1.524 . S
C1340 C1339 1.524 . S
C1340 C1341 1.397 . S
C1340 C1345 1.363 . S
C1341 H1312 0.950 . S
C1341 C1340 1.397 . S
C1341 C1342 1.334 . S
C1342 H1313 0.950 . S
C1342 C1341 1.334 . S
C1342 C1343 1.287 . S
C1343 C1342 1.287 . S
C1343 C1344 1.524 . S
C1343 H1346 0.999 . S
C1344 H1314 0.950 . S
C1344 C1343 1.524 . S
C1344 C1345 1.415 . S
C1345 H1315 0.950 . S
C1345 C1340 1.363 . S
C1345 C1344 1.415 . S
H1346 C1343 0.999 . S
H1347 C1328 0.913 . S
H1348 C1366 0.951 . S
H1349 C1368 0.951 . S
H1350 C1370 0.950 . S
H1351 C1371 0.950 . S
H1352 C1373 0.950 . S
H1353 C1376 0.950 . S
H1354 C1377 0.950 . S
H1355 C1379 0.950 . S
H1356 C1380 0.950 . S
H1357 C1381 0.951 . S
H1358 C1383 0.951 . S
H1359 C1385 0.950 . S
H1360 C1386 0.950 . S
H1361 C1388 0.950 . S
H1362 C1391 0.950 . S
H1363 C1392 0.950 . S
H1364 C1394 0.950 . S
H1365 C1395 0.950 . S
C1366 H1348 0.951 . S
C1366 C1367 1.366 . S
C1366 C1368 1.388 . S
C1367 C1366 1.366 . S
C1367 C1371 1.385 . S
C1368 H1349 0.951 . S
C1368 C1366 1.388 . S
C1368 C1369 1.366 . S
C1369 C1368 1.366 . S
C1369 C1370 1.414 . S
C1369 C1372 1.499 . S
C1370 H1350 0.950 . S
C1370 C1369 1.414 . S
C1370 C1371 1.374 . S
C1371 H1351 0.950 . S
C1371 C1367 1.385 . S
C1371 C1370 1.374 . S
C1372 C1369 1.499 . S
C1372 C1373 1.373 . S
C1372 C1374 1.389 . S
C1373 H1352 0.950 . S
C1373 C1372 1.373 . S
C1373 C1389 1.377 . S
C1374 C1372 1.389 . S
C1374 C1375 1.524 . S
C1374 C1388 1.377 . S
C1375 C1374 1.524 . S
C1375 C1376 1.397 . S
C1375 C1380 1.363 . S
C1376 H1353 0.950 . S
C1376 C1375 1.397 . S
C1376 C1377 1.334 . S
C1377 H1354 0.950 . S
C1377 C1376 1.334 . S
C1377 C1378 1.287 . S
C1378 C1377 1.287 . S
C1378 C1379 1.524 . S
C1378 H1397 0.913 . S
C1379 H1355 0.950 . S
C1379 C1378 1.524 . S
C1379 C1380 1.415 . S
C1380 H1356 0.950 . S
C1380 C1375 1.363 . S
C1380 C1379 1.415 . S
C1381 H1357 0.951 . S
C1381 C1382 1.366 . S
C1381 C1383 1.388 . S
C1382 C1381 1.366 . S
C1382 C1386 1.385 . S
C1383 H1358 0.951 . S
C1383 C1381 1.388 . S
C1383 C1384 1.366 . S
C1384 C1383 1.366 . S
C1384 C1385 1.414 . S
C1384 C1387 1.499 . S
C1385 H1359 0.950 . S
C1385 C1384 1.414 . S
C1385 C1386 1.374 . S
C1386 H1360 0.950 . S
C1386 C1382 1.385 . S
C1386 C1385 1.374 . S
C1387 C1384 1.499 . S
C1387 C1388 1.373 . S
C1387 C1389 1.389 . S
C1388 H1361 0.950 . S
C1388 C1374 1.377 . S
C1388 C1387 1.373 . S
C1389 C1373 1.377 . S
C1389 C1387 1.389 . S
C1389 C1390 1.524 . S
C1390 C1389 1.524 . S
C1390 C1391 1.397 . S
C1390 C1395 1.363 . S
C1391 H1362 0.950 . S
C1391 C1390 1.397 . S
C1391 C1392 1.334 . S
C1392 H1363 0.950 . S
C1392 C1391 1.334 . S
C1392 C1393 1.287 . S
C1393 C1392 1.287 . S
C1393 C1394 1.524 . S
C1393 H1396 0.999 . S
C1394 H1364 0.950 . S
C1394 C1393 1.524 . S
C1394 C1395 1.415 . S
C1395 H1365 0.950 . S
C1395 C1390 1.363 . S
C1395 C1394 1.415 . S
H1396 C1393 0.999 . S
H1397 C1378 0.913 . S
H1398 C1416 0.951 . S
H1399 C1418 0.951 . S
H1400 C1420 0.950 . S
H1401 C1421 0.950 . S
H1402 C1423 0.950 . S
H1403 C1426 0.950 . S
H1404 C1427 0.950 . S
H1405 C1429 0.950 . S
H1406 C1430 0.950 . S
H1407 C1431 0.951 . S
H1408 C1433 0.951 . S
H1409 C1435 0.950 . S
H1410 C1436 0.950 . S
H1411 C1438 0.950 . S
H1412 C1441 0.950 . S
H1413 C1442 0.950 . S
H1414 C1444 0.950 . S
H1415 C1445 0.950 . S
C1416 H1398 0.951 . S
C1416 C1417 1.366 . S
C1416 C1418 1.388 . S
C1417 C1416 1.366 . S
C1417 C1421 1.385 . S
C1418 H1399 0.951 . S
C1418 C1416 1.388 . S
C1418 C1419 1.366 . S
C1419 C1418 1.366 . S
C1419 C1420 1.414 . S
C1419 C1422 1.499 . S
C1420 H1400 0.950 . S
C1420 C1419 1.414 . S
C1420 C1421 1.374 . S
C1421 H1401 0.950 . S
C1421 C1417 1.385 . S
C1421 C1420 1.374 . S
C1422 C1419 1.499 . S
C1422 C1423 1.373 . S
C1422 C1424 1.389 . S
C1423 H1402 0.950 . S
C1423 C1422 1.373 . S
C1423 C1439 1.377 . S
C1424 C1422 1.389 . S
C1424 C1425 1.524 . S
C1424 C1438 1.377 . S
C1425 C1424 1.524 . S
C1425 C1426 1.397 . S
C1425 C1430 1.363 . S
C1426 H1403 0.950 . S
C1426 C1425 1.397 . S
C1426 C1427 1.334 . S
C1427 H1404 0.950 . S
C1427 C1426 1.334 . S
C1427 C1428 1.287 . S
C1428 C1427 1.287 . S
C1428 C1429 1.524 . S
C1428 H1447 0.913 . S
C1429 H1405 0.950 . S
C1429 C1428 1.524 . S
C1429 C1430 1.415 . S
C1430 H1406 0.950 . S
C1430 C1425 1.363 . S
C1430 C1429 1.415 . S
C1431 H1407 0.951 . S
C1431 C1432 1.366 . S
C1431 C1433 1.388 . S
C1432 C1431 1.366 . S
C1432 C1436 1.385 . S
C1433 H1408 0.951 . S
C1433 C1431 1.388 . S
C1433 C1434 1.366 . S
C1434 C1433 1.366 . S
C1434 C1435 1.414 . S
C1434 C1437 1.499 . S
C1435 H1409 0.950 . S
C1435 C1434 1.414 . S
C1435 C1436 1.374 . S
C1436 H1410 0.950 . S
C1436 C1432 1.385 . S
C1436 C1435 1.374 . S
C1437 C1434 1.499 . S
C1437 C1438 1.373 . S
C1437 C1439 1.389 . S
C1438 H1411 0.950 . S
C1438 C1424 1.377 . S
C1438 C1437 1.373 . S
C1439 C1423 1.377 . S
C1439 C1437 1.389 . S
C1439 C1440 1.524 . S
C1440 C1439 1.524 . S
C1440 C1441 1.397 . S
C1440 C1445 1.363 . S
C1441 H1412 0.950 . S
C1441 C1440 1.397 . S
C1441 C1442 1.334 . S
C1442 H1413 0.950 . S
C1442 C1441 1.334 . S
C1442 C1443 1.287 . S
C1443 C1442 1.287 . S
C1443 C1444 1.524 . S
C1443 H1446 0.999 . S
C1444 H1414 0.950 . S
C1444 C1443 1.524 . S
C1444 C1445 1.415 . S
C1445 H1415 0.950 . S
C1445 C1440 1.363 . S
C1445 C1444 1.415 . S
H1446 C1443 0.999 . S
H1447 C1428 0.913 . S
C267 C76 1.753 1_545 S
C282 C90 1.837 1_545 S
C332 C130 1.848 . S
C317 C87 1.751 . S
C382 C170 1.849 . S
C367 C54 1.759 . S
C432 C210 1.843 1_455 S
C417 C65 1.755 1_455 S
C482 C103 1.844 1_565 S
C467 C32 1.761 1_545 S
C517 C43 1.757 . S
C532 C143 1.852 . S
C567 C10 1.757 . S
C582 C183 1.848 . S
C617 C21 1.755 . S
C632 C223 1.845 1_655 S
C682 C114 0.308 . S
C667 C60 0.386 . S
C732 C154 0.312 . S
C717 C71 0.380 . S
C782 C194 0.315 . S
C767 C82 0.386 . S
C817 C49 0.382 . S
C832 C234 0.304 . S
C867 C16 0.386 1_655 S
C882 C97 0.312 . S
C932 C137 0.313 . S
C917 C27 0.382 1_565 S
C982 C177 0.315 . S
C967 C38 0.391 . S
C1017 C5 0.393 . S
C1032 C217 0.317 . S
C1067 C59 1.883 . S
C1082 C91 2.082 . S
C1117 C70 1.877 . S
C1132 C131 2.083 . S
C1182 C171 2.080 . S
C1167 C81 1.873 . S
C1232 C211 2.086 . S
C1217 C48 1.873 . S
C1267 C15 1.883 1_655 S
C1282 C110 2.097 . S
C1332 C150 2.084 . S
C1317 C26 1.876 1_565 S
C1382 C190 2.080 . S
C1367 C37 1.876 . S
C1417 C4 1.881 . S
C1432 C230 2.093 . S
