# Generated by pormake.
# Topology rtl, (3,6)-cn, num edge types: 1
# Building blocks:
#     Node 0, Type 0, BuildingBlock: BETDIP_clean_linker_0, # of connection points: 3
#     Node 1, Type 0, BuildingBlock: BETDIP_clean_linker_0, # of connection points: 3
#     Node 2, Type 0, BuildingBlock: BETDIP_clean_linker_0, # of connection points: 3
#     Node 3, Type 0, BuildingBlock: BETDIP_clean_linker_0, # of connection points: 3
#     Node 4, Type 1, BuildingBlock: CIFDUS_clean_sbu_1, # of connection points: 6
#     Node 5, Type 1, BuildingBlock: CIFDUS_clean_sbu_1, # of connection points: 6
#     Edge 6, Type (0, 1), BuildingBlock: EZIPEK_clean_linker_0, # of connection points: 2
#     Edge 7, Type (0, 1), BuildingBlock: EZIPEK_clean_linker_0, # of connection points: 2
#     Edge 8, Type (0, 1), BuildingBlock: EZIPEK_clean_linker_0, # of connection points: 2
#     Edge 9, Type (0, 1), BuildingBlock: EZIPEK_clean_linker_0, # of connection points: 2
#     Edge 10, Type (0, 1), BuildingBlock: EZIPEK_clean_linker_0, # of connection points: 2
#     Edge 11, Type (0, 1), BuildingBlock: EZIPEK_clean_linker_0, # of connection points: 2
#     Edge 12, Type (0, 1), BuildingBlock: EZIPEK_clean_linker_0, # of connection points: 2
#     Edge 13, Type (0, 1), BuildingBlock: EZIPEK_clean_linker_0, # of connection points: 2
#     Edge 14, Type (0, 1), BuildingBlock: EZIPEK_clean_linker_0, # of connection points: 2
#     Edge 15, Type (0, 1), BuildingBlock: EZIPEK_clean_linker_0, # of connection points: 2
#     Edge 16, Type (0, 1), BuildingBlock: EZIPEK_clean_linker_0, # of connection points: 2
#     Edge 17, Type (0, 1), BuildingBlock: EZIPEK_clean_linker_0, # of connection points: 2
# Relax obj value: 0.018
# Max RMSD: 0.110
# Mean RMSD: 0.085
data_MOF--net-rtl--node1-CIFDUS_clean_sbu_1--node2-BETDIP_clean_linker_0--edge1-EZIPEK_clean_linker_0
_symmetry_space_group_name_H-M    P1
_symmetry_Int_Tables_number       1
_symmetry_cell_setting            triclinic
loop_
_symmetry_equiv_pos_as_xyz
'x, y, z'
_cell_length_a     26.475585
_cell_length_b     26.230812
_cell_length_c     15.878986
_cell_angle_alpha  91.3942
_cell_angle_beta   99.504171
_cell_angle_gamma 89.960522
loop_
_atom_site_label
_atom_site_type_symbol
_atom_site_fract_x
_atom_site_fract_y
_atom_site_fract_z
_atom_type_partial_charge
H0 H 0.21842 0.83429 0.9555 0.0
H1 H 0.2269 0.8273 0.22867 0.0
H2 H 0.10579 0.91005 0.08063 0.0
H3 H 0.27959 0.76382 0.22454 0.0
C4 C 0.28563 0.75481 0.16006 0.0
C5 C 0.20278 0.84369 0.01283 0.0
C6 C 0.15932 0.87516 1.00797 0.0
C7 C 0.22567 0.82333 0.09117 0.0
C8 C 0.20807 0.83924 0.16676 0.0
C9 C 0.16521 0.87114 0.1628 0.0
C10 C 0.13958 0.88633 0.08322 0.0
N11 N 0.26479 0.78598 0.09043 0.0
H12 H 0.71798 0.71462 0.7546 0.0
H13 H 0.72435 0.72793 0.48668 0.0
H14 H 0.62241 0.61927 0.5686 0.0
H15 H 0.73872 0.81804 0.54922 0.0
C16 C 0.77159 0.80458 0.59324 0.0
C17 C 0.70551 0.70208 0.68894 0.0
C18 C 0.66742 0.66429 0.66982 0.0
C19 C 0.72613 0.72539 0.6235 0.0
C20 C 0.70837 0.71064 0.53776 0.0
C21 C 0.67118 0.67214 0.51789 0.0
C22 C 0.65156 0.64859 0.58407 0.0
N23 N 0.76566 0.76245 0.64537 0.0
H24 H 0.79072 0.21639 0.84945 0.0
H25 H 0.80449 0.22657 0.12309 0.0
H26 H 0.91176 0.13684 1.0062 0.0
H27 H 0.78093 0.32058 0.06402 0.0
C28 C 0.74696 0.30466 0.02428 0.0
C29 C 0.81119 0.20718 0.9121 0.0
C30 C 0.85418 0.17552 0.91923 0.0
C31 C 0.79498 0.22807 0.98495 0.0
C32 C 0.8196 0.21387 0.06679 0.0
C33 C 0.86125 0.17985 0.07485 0.0
C34 C 0.87965 0.16296 1.00068 0.0
N35 N 0.75139 0.26021 0.97351 0.0
H36 H 0.27727 0.33967 0.34788 0.0
H37 H 0.27937 0.35208 0.61939 0.0
H38 H 0.40594 0.40822 0.50896 0.0
H39 H 0.22277 0.28968 0.59918 0.0
C40 C 0.21003 0.28014 0.53223 0.0
C41 C 0.29658 0.35085 0.41123 0.0
C42 C 0.3429 0.37741 0.42078 0.0
C43 C 0.27517 0.33803 0.48273 0.0
C44 C 0.29817 0.35676 0.56464 0.0
C45 C 0.3457 0.3827 0.57542 0.0
C46 C 0.369 0.38941 0.50274 0.0
N47 N 0.23146 0.30544 0.46849 0.0
O48 O 0.97709 0.06444 0.42768 0.0
Mn49 Mn 0.00782 0.02281 0.53827 0.0
O50 O 0.9107 0.01885 0.36558 0.0
Mn51 Mn 0.94422 0.96121 0.40506 0.0
O52 O 0.03842 0.98095 0.64792 0.0
O53 O 0.06283 0.08146 0.55866 0.0
Mn54 Mn 0.06679 0.0863 0.67142 0.0
O55 O 0.95721 0.06095 0.60699 0.0
O56 O 0.09856 0.03058 0.72132 0.0
O57 O 0.0571 0.98392 0.46881 0.0
O58 O 0.00361 0.94352 0.36426 0.0
O59 O 0.10847 0.13593 0.65496 0.0
O60 O 0.00757 0.10658 0.70779 0.0
C61 C 0.92024 0.92638 0.50519 0.0
C62 C 0.93646 0.0595 0.37128 0.0
C63 C 0.07593 0.98811 0.70951 0.0
C64 C 0.09705 0.11862 0.57685 0.0
C65 C 0.96378 0.0913 0.67241 0.0
C66 C 0.0485 0.95581 0.40062 0.0
O67 O 0.95417 0.96373 0.51807 0.0
O68 O 0.90393 0.91077 0.42735 0.0
O69 O 0.54732 0.57303 0.15202 0.0
Mn70 Mn 0.50533 0.5255 0.05412 0.0
O71 O 0.59198 0.52038 0.24347 0.0
Mn72 Mn 0.56375 0.46358 0.18612 0.0
O73 O 0.46568 0.48076 0.95303 0.0
O74 O 0.44764 0.58129 0.04096 0.0
Mn75 Mn 0.45182 0.59689 0.93505 0.0
O76 O 0.55044 0.55615 0.96605 0.0
O77 O 0.43212 0.54107 0.86345 0.0
O78 O 0.45854 0.49309 0.13501 0.0
O79 O 0.50597 0.43873 0.21906 0.0
O80 O 0.40257 0.6386 0.95602 0.0
O81 O 0.5125 0.62873 0.92979 0.0
C82 C 0.59407 0.43037 0.08829 0.0
C83 C 0.58091 0.56506 0.21884 0.0
C84 C 0.44029 0.49434 0.88105 0.0
C85 C 0.41176 0.61677 0.02936 0.0
C86 C 0.54955 0.59908 0.92803 0.0
C87 C 0.46326 0.45869 0.1919 0.0
O88 O 0.55974 0.46705 0.0724 0.0
O89 O 0.60846 0.41663 0.16647 0.0
C90 C 0.20951 0.18556 0.54797 0.0
C91 C 0.18468 0.22977 0.51179 0.0
C92 C 0.10607 0.18014 0.46486 0.0
C93 C 0.12773 0.14023 0.51645 0.0
N94 N 0.20284 0.09499 0.57577 0.0
N95 N 0.11347 0.26773 0.42037 0.0
C96 C 0.18105 0.1395 0.54543 0.0
C97 C 0.13453 0.22627 0.4632 0.0
N98 N 0.25929 0.18853 0.58823 0.0
N99 N 0.0579 0.17364 0.42027 0.0
H100 H 0.13358 0.30173 0.41849 0.0
H101 H 0.0763 0.26894 0.38685 0.0
H102 H 0.03875 0.13899 0.42119 0.0
H103 H 0.0387 0.20008 0.37899 0.0
H104 H 0.27817 0.15941 0.62393 0.0
H105 H 0.28181 0.2211 0.58733 0.0
H106 H 0.24194 0.08996 0.59557 0.0
H107 H 0.18095 0.06177 0.57485 0.0
C108 C 0.29211 0.67139 0.08087 0.0
C109 C 0.31437 0.70758 0.14428 0.0
C110 C 0.39425 0.6583 0.16511 0.0
C111 C 0.3761 0.63027 0.08953 0.0
N112 N 0.30458 0.59621 0.99296 0.0
N113 N 0.38491 0.73317 0.25387 0.0
C114 C 0.32345 0.63209 0.05388 0.0
C115 C 0.36445 0.69948 0.19039 0.0
N116 N 0.24142 0.67526 0.04634 0.0
N117 N 0.43946 0.64472 0.21291 0.0
H118 H 0.36433 0.76354 0.27468 0.0
H119 H 0.42313 0.73266 0.28304 0.0
H120 H 0.46078 0.61427 0.19432 0.0
H121 H 0.45233 0.6593 0.27426 0.0
H122 H 0.22302 0.65281 0.99567 0.0
H123 H 0.21677 0.70083 0.07019 0.0
H124 H 0.26677 0.59394 0.96238 0.0
H125 H 0.32751 0.56651 0.97588 0.0
C126 C 0.81815 0.88764 0.62504 0.0
C127 C 0.81985 0.83486 0.60404 0.0
C128 C 0.90671 0.8461 0.57321 0.0
C129 C 0.89928 0.89948 0.5727 0.0
N130 N 0.85049 0.97238 0.60479 0.0
N131 N 0.86627 0.76278 0.55853 0.0
C132 C 0.85647 0.92072 0.60344 0.0
C133 C 0.86494 0.81337 0.58073 0.0
N134 N 0.77949 0.90587 0.66447 0.0
N135 N 0.95308 0.82726 0.56098 0.0
H136 H 0.8364 0.73759 0.56262 0.0
H137 H 0.89565 0.74631 0.53107 0.0
H138 H 0.98338 0.8515 0.55405 0.0
H139 H 0.96276 0.78883 0.56561 0.0
H140 H 0.77812 0.94319 0.68782 0.0
H141 H 0.75121 0.88207 0.68081 0.0
H142 H 0.81753 0.99063 0.61742 0.0
H143 H 0.87857 0.99693 0.5901 0.0
C144 C 0.70165 0.38705 0.98542 0.0
C145 C 0.69932 0.33553 0.01017 0.0
C146 C 0.60959 0.3477 0.02519 0.0
C147 C 0.61662 0.40099 0.02316 0.0
N148 N 0.66505 0.4721 0.98872 0.0
N149 N 0.65051 0.2659 0.05368 0.0
C150 C 0.6609 0.42074 0.99674 0.0
C151 C 0.65261 0.31502 0.02754 0.0
N152 N 0.74277 0.40342 0.95145 0.0
N153 N 0.56218 0.32933 0.03141 0.0
H154 H 0.6815 0.24102 0.05851 0.0
H155 H 0.61918 0.25078 0.07651 0.0
H156 H 0.53106 0.35383 0.03193 0.0
H157 H 0.55293 0.29067 0.02819 0.0
H158 H 0.74518 0.43941 0.92618 0.0
H159 H 0.77272 0.37919 0.94193 0.0
H160 H 0.69838 0.49047 0.97909 0.0
H161 H 0.63435 0.49624 0.99396 0.0
C162 C 0.15051 0.94481 0.25918 0.0
C163 C 0.14737 0.89146 0.24133 0.0
C164 C 0.09739 0.88165 0.35667 0.0
C165 C 0.09135 0.93527 0.36097 0.0
N166 N 0.1112 0.01891 0.31558 0.0
N167 N 0.11693 0.80836 0.27206 0.0
C168 C 0.1184 0.96733 0.31319 0.0
C169 C 0.12144 0.85942 0.29098 0.0
N170 N 0.18454 0.97364 0.2248 0.0
N171 N 0.07969 0.85218 0.41539 0.0
H172 H 0.13386 0.79058 0.2244 0.0
H173 H 0.09357 0.78411 0.29972 0.0
H174 H 0.06227 0.86791 0.46438 0.0
H175 H 0.08679 0.81325 0.42075 0.0
H176 H 0.19135 0.01214 0.23999 0.0
H177 H 0.20997 0.95748 0.18814 0.0
H178 H 0.12479 0.04362 0.27401 0.0
H179 H 0.08904 0.03679 0.35612 0.0
C180 C 0.5857 0.65347 0.72733 0.0
C181 C 0.63917 0.64566 0.73746 0.0
C182 C 0.63624 0.60757 0.87723 0.0
C183 C 0.58187 0.60969 0.86104 0.0
N184 N 0.50568 0.62064 0.75419 0.0
N185 N 0.71453 0.60646 0.81586 0.0
C186 C 0.55694 0.62812 0.78095 0.0
C187 C 0.66434 0.61998 0.81064 0.0
N188 N 0.56218 0.68712 0.66908 0.0
N189 N 0.66119 0.59645 0.95682 0.0
H190 H 0.73578 0.61409 0.76782 0.0
H191 H 0.73344 0.58369 0.86394 0.0
H192 H 0.64186 0.58872 1.00726 0.0
H193 H 0.7008 0.59919 0.97437 0.0
H194 H 0.52386 0.69747 0.66549 0.0
H195 H 0.58204 0.70933 0.63176 0.0
H196 H 0.48753 0.62896 0.69268 0.0
H197 H 0.48247 0.60073 0.78878 0.0
C198 C 0.90582 0.17791 0.23144 0.0
C199 C 0.87945 0.15293 0.1563 0.0
C200 C 0.90591 0.0712 0.21658 0.0
C201 C 0.9239 0.09443 0.29764 0.0
N202 N 0.93441 0.17184 0.38457 0.0
N203 N 0.83925 0.07503 0.09483 0.0
C204 C 0.92238 0.14857 0.30609 0.0
C205 C 0.87469 0.09931 0.15446 0.0
N206 N 0.91598 0.22885 0.2312 0.0
N207 N 0.91976 0.02264 0.19745 0.0
H208 H 0.8121 0.09504 0.05324 0.0
H209 H 0.83283 0.03579 0.09507 0.0
H210 H 0.94707 1.00221 0.23809 0.0
H211 H 0.90918 0.00585 0.13685 0.0
H212 H 0.93936 0.24786 0.28145 0.0
H213 H 0.90426 0.25098 0.17783 0.0
H214 H 0.92961 0.2108 0.39487 0.0
H215 H 0.94564 0.15158 0.44014 0.0
C216 C 0.39243 0.45667 0.65721 0.0
C217 C 0.3699 0.40772 0.6591 0.0
C218 C 0.39529 0.41168 0.81615 0.0
C219 C 0.42362 0.45702 0.80922 0.0
N220 N 0.46744 0.50493 0.7154 0.0
N221 N 0.36333 0.33277 0.74349 0.0
C222 C 0.42846 0.47337 0.72702 0.0
C223 C 0.37504 0.38319 0.73963 0.0
N224 N 0.37764 0.48884 0.59155 0.0
N225 N 0.3864 0.39637 0.89385 0.0
H226 H 0.35276 0.30969 0.68912 0.0
H227 H 0.36998 0.31285 0.80025 0.0
H228 H 0.4006 0.416 0.95064 0.0
H229 H 0.36181 0.36625 0.90057 0.0
H230 H 0.39249 0.52569 0.59138 0.0
H231 H 0.34611 0.48116 0.54434 0.0
H232 H 0.47285 0.51607 0.65483 0.0
H233 H 0.4973 0.51396 0.76518 0.0
C234 C 0.68179 0.61625 0.39147 0.0
C235 C 0.65374 0.65467 0.42771 0.0
C236 C 0.5876 0.65125 0.2988 0.0
C237 C 0.61078 0.60663 0.27146 0.0
N238 N 0.69041 0.56381 0.26657 0.0
N239 N 0.58162 0.71178 0.41509 0.0
C240 C 0.66153 0.59485 0.30995 0.0
C241 C 0.60748 0.67373 0.3804 0.0
N242 N 0.72607 0.5979 0.43727 0.0
N243 N 0.54958 0.67412 0.24448 0.0
H244 H 0.59626 0.73043 0.47275 0.0
H245 H 0.54477 0.72313 0.38898 0.0
H246 H 0.53862 0.66115 0.1816 0.0
H247 H 0.53375 0.70919 0.25756 0.0
H248 H 0.74462 0.56541 0.41923 0.0
H249 H 0.74285 0.61339 0.4964 0.0
H250 H 0.72908 0.55651 0.28713 0.0
H251 H 0.67667 0.54987 0.20483 0.0
C252 C 0.89065 0.18469 0.78275 0.0
C253 C 0.87138 0.15302 0.84158 0.0
C254 C 0.9013 0.07712 0.77156 0.0
C255 C 0.92046 0.10887 0.71312 0.0
N256 N 0.91964 0.18983 0.64589 0.0
N257 N 0.84272 0.06931 0.87257 0.0
C258 C 0.90989 0.16169 0.71264 0.0
C259 C 0.87155 0.09917 0.82952 0.0
N260 N 0.89418 0.23626 0.79691 0.0
N261 N 0.91414 0.02668 0.77547 0.0
H262 H 0.81824 0.08484 0.91138 0.0
H263 H 0.83853 0.03008 0.86184 0.0
H264 H 0.93538 0.0091 0.7332 0.0
H265 H 0.90638 0.00318 0.82377 0.0
H266 H 0.91282 0.26035 0.76073 0.0
H267 H 0.88251 0.25471 0.84925 0.0
H268 H 0.90879 0.22782 0.63787 0.0
H269 H 0.93389 0.17328 0.59415 0.0
C270 C 0.38829 0.36449 0.29438 0.0
C271 C 0.3626 0.39714 0.34546 0.0
C272 C 0.39143 0.47215 0.27711 0.0
C273 C 0.41886 0.43956 0.22826 0.0
N274 N 0.42879 0.3557 0.16846 0.0
N275 N 0.32495 0.47928 0.36513 0.0
C276 C 0.41211 0.38591 0.22952 0.0
C277 C 0.35922 0.45017 0.32984 0.0
N278 N 0.39226 0.3136 0.31063 0.0
N279 N 0.39852 0.5237 0.27765 0.0
H280 H 0.3 0.46378 0.40223 0.0
H281 H 0.31759 0.51735 0.35055 0.0
H282 H 0.4208 0.54127 0.2386 0.0
H283 H 0.38463 0.54878 0.32022 0.0
H284 H 0.41552 0.28894 0.28185 0.0
H285 H 0.3748 0.29656 0.35713 0.0
H286 H 0.42146 0.31669 0.1615 0.0
H287 H 0.44539 0.37088 0.11925 0.0
C288 C 0.12566 0.95372 0.93144 0.0
C289 C 0.13626 0.90081 0.92713 0.0
C290 C 0.10225 0.90142 0.77277 0.0
C291 C 0.08694 0.95281 0.78196 0.0
N292 N 0.06535 0.01861 0.87882 0.0
N293 N 0.12233 0.82156 0.84485 0.0
C294 C 0.09202 0.97555 0.86453 0.0
C295 C 0.12101 0.87356 0.84798 0.0
N296 N 0.15006 0.98413 0.99658 0.0
N297 N 0.10035 0.87974 0.69336 0.0
H298 H 0.13285 0.79988 0.89903 0.0
H299 H 0.1079 0.80009 0.79009 0.0
H300 H 0.08594 0.89889 0.63774 0.0
H301 H 0.11604 0.84414 0.68305 0.0
H302 H 0.14521 0.0236 0.99837 0.0
H303 H 0.17997 0.9709 0.04171 0.0
H304 H 0.0661 0.03458 0.93985 0.0
H305 H 0.03819 0.03429 0.83134 0.0
loop_
_geom_bond_atom_site_label_1
_geom_bond_atom_site_label_2
_geom_bond_distance
_geom_bond_site_symmetry_2
_ccdc_geom_bond_type
H0 C5 0.930 . S
H1 C8 0.930 . S
H2 C10 0.930 . S
H3 C4 1.016 . S
C4 H3 1.016 . S
C4 N11 1.286 . S
C5 H0 0.930 . S
C5 C6 1.397 . S
C5 C7 1.361 1_556 S
C6 C5 1.397 . S
C6 C10 1.390 1_556 S
C7 C5 1.361 1_554 S
C7 C8 1.393 . S
C7 N11 1.413 . S
C8 H1 0.930 . S
C8 C7 1.393 . S
C8 C9 1.399 . S
C9 C8 1.399 . S
C9 C10 1.381 . S
C10 H2 0.930 . S
C10 C6 1.390 1_554 S
C10 C9 1.381 . S
N11 C4 1.286 . S
N11 C7 1.413 . S
H12 C17 0.930 . S
H13 C20 0.930 . S
H14 C22 0.930 . S
H15 C16 1.016 . S
C16 H15 1.016 . S
C16 N23 1.286 . S
C17 H12 0.930 . S
C17 C18 1.397 . S
C17 C19 1.361 . S
C18 C17 1.397 . S
C18 C22 1.390 . S
C19 C17 1.361 . S
C19 C20 1.393 . S
C19 N23 1.413 . S
C20 H13 0.930 . S
C20 C19 1.393 . S
C20 C21 1.399 . S
C21 C20 1.399 . S
C21 C22 1.381 . S
C22 H14 0.930 . S
C22 C18 1.390 . S
C22 C21 1.381 . S
N23 C16 1.286 . S
N23 C19 1.413 . S
H24 C29 0.930 . S
H25 C32 0.930 . S
H26 C34 0.930 . S
H27 C28 1.016 . S
C28 H27 1.016 . S
C28 N35 1.286 1_554 S
C29 H24 0.930 . S
C29 C30 1.397 . S
C29 C31 1.361 . S
C30 C29 1.397 . S
C30 C34 1.390 1_556 S
C31 C29 1.361 . S
C31 C32 1.393 1_556 S
C31 N35 1.413 . S
C32 H25 0.930 . S
C32 C31 1.393 1_554 S
C32 C33 1.399 . S
C33 C32 1.399 . S
C33 C34 1.381 . S
C34 H26 0.930 . S
C34 C30 1.390 1_554 S
C34 C33 1.381 . S
N35 C28 1.286 1_556 S
N35 C31 1.413 . S
H36 C41 0.930 . S
H37 C44 0.930 . S
H38 C46 0.930 . S
H39 C40 1.016 . S
C40 H39 1.016 . S
C40 N47 1.286 . S
C41 H36 0.930 . S
C41 C42 1.397 . S
C41 C43 1.361 . S
C42 C41 1.397 . S
C42 C46 1.390 . S
C43 C41 1.361 . S
C43 C44 1.393 . S
C43 N47 1.413 . S
C44 H37 0.930 . S
C44 C43 1.393 . S
C44 C45 1.399 . S
C45 C44 1.399 . S
C45 C46 1.381 . S
C46 H38 0.930 . S
C46 C42 1.390 . S
C46 C45 1.381 . S
N47 C40 1.286 . S
N47 C43 1.413 . S
O48 Mn49 2.163 1_655 S
O48 C62 1.244 . S
Mn49 O48 2.163 1_455 S
Mn49 O52 2.160 1_545 S
Mn49 O53 2.221 . S
Mn49 O55 2.163 1_455 S
Mn49 O57 2.160 1_545 S
Mn49 O67 2.221 1_445 S
O50 Mn51 2.087 1_545 S
O50 C62 1.256 . S
Mn51 O50 2.087 1_565 S
Mn51 O58 2.089 1_655 S
Mn51 O67 2.290 . S
Mn51 O68 2.251 . S
O52 Mn49 2.160 1_565 S
O52 C63 1.239 . S
O53 Mn49 2.221 . S
O53 Mn54 2.290 . S
O53 C64 1.278 . S
Mn54 O53 2.290 . S
Mn54 O56 2.089 . S
Mn54 O59 2.251 . S
Mn54 O60 2.087 . S
O55 Mn49 2.163 1_655 S
O55 C65 1.244 . S
O56 Mn54 2.089 . S
O56 C63 1.256 1_545 S
O57 Mn49 2.160 1_565 S
O57 C66 1.239 . S
O58 Mn51 2.089 1_455 S
O58 C66 1.256 . S
O59 Mn54 2.251 . S
O59 C64 1.241 . S
O60 Mn54 2.087 . S
O60 C65 1.256 1_455 S
C61 O67 1.278 . S
C61 O68 1.241 . S
C62 O48 1.244 . S
C62 O50 1.256 . S
C63 O52 1.239 . S
C63 O56 1.256 1_565 S
C64 O53 1.278 . S
C64 O59 1.241 . S
C65 O55 1.244 . S
C65 O60 1.256 1_655 S
C66 O57 1.239 . S
C66 O58 1.256 . S
O67 Mn49 2.221 1_665 S
O67 Mn51 2.290 . S
O67 C61 1.278 . S
O68 Mn51 2.251 . S
O68 C61 1.241 . S
O69 Mn70 2.163 . S
O69 C83 1.244 . S
Mn70 O69 2.163 . S
Mn70 O73 2.160 1_554 S
Mn70 O74 2.221 . S
Mn70 O76 2.163 1_554 S
Mn70 O78 2.160 . S
Mn70 O88 2.221 . S
O71 Mn72 2.087 . S
O71 C83 1.256 . S
Mn72 O71 2.087 . S
Mn72 O79 2.089 . S
Mn72 O88 2.290 . S
Mn72 O89 2.251 . S
O73 Mn70 2.160 1_556 S
O73 C84 1.239 . S
O74 Mn70 2.221 . S
O74 Mn75 2.290 1_554 S
O74 C85 1.278 . S
Mn75 O74 2.290 1_556 S
Mn75 O77 2.089 . S
Mn75 O80 2.251 . S
Mn75 O81 2.087 . S
O76 Mn70 2.163 1_556 S
O76 C86 1.244 . S
O77 Mn75 2.089 . S
O77 C84 1.256 . S
O78 Mn70 2.160 . S
O78 C87 1.239 . S
O79 Mn72 2.089 . S
O79 C87 1.256 . S
O80 Mn75 2.251 . S
O80 C85 1.241 1_556 S
O81 Mn75 2.087 . S
O81 C86 1.256 . S
C82 O88 1.278 . S
C82 O89 1.241 . S
C83 O69 1.244 . S
C83 O71 1.256 . S
C84 O73 1.239 . S
C84 O77 1.256 . S
C85 O74 1.278 . S
C85 O80 1.241 1_554 S
C86 O76 1.244 . S
C86 O81 1.256 . S
C87 O78 1.239 . S
C87 O79 1.256 . S
O88 Mn70 2.221 . S
O88 Mn72 2.290 . S
O88 C82 1.278 . S
O89 Mn72 2.251 . S
O89 C82 1.241 . S
C90 C91 1.363 . S
C90 C96 1.379 . S
C90 N98 1.356 . S
C91 C90 1.363 . S
C91 C97 1.363 . S
C92 C93 1.363 . S
C92 C97 1.379 . S
C92 N99 1.356 . S
C93 C92 1.363 . S
C93 C96 1.363 . S
N94 C96 1.356 . S
N94 H106 0.984 . S
N94 H107 0.985 . S
N95 C97 1.356 . S
N95 H100 0.984 . S
N95 H101 0.985 . S
C96 C90 1.379 . S
C96 C93 1.363 . S
C96 N94 1.356 . S
C97 C91 1.363 . S
C97 C92 1.379 . S
C97 N95 1.356 . S
N98 C90 1.356 . S
N98 H104 0.984 . S
N98 H105 0.984 . S
N99 C92 1.356 . S
N99 H102 0.984 . S
N99 H103 0.985 . S
H100 N95 0.984 . S
H101 N95 0.985 . S
H102 N99 0.984 . S
H103 N99 0.985 . S
H104 N98 0.984 . S
H105 N98 0.984 . S
H106 N94 0.984 . S
H107 N94 0.985 . S
C108 C109 1.363 . S
C108 C114 1.379 . S
C108 N116 1.356 1_554 S
C109 C108 1.363 . S
C109 C115 1.363 . S
C110 C111 1.363 . S
C110 C115 1.379 . S
C110 N117 1.356 . S
C111 C110 1.363 . S
C111 C114 1.363 . S
N112 C114 1.356 1_556 S
N112 H124 0.984 . S
N112 H125 0.985 . S
N113 C115 1.356 . S
N113 H118 0.984 . S
N113 H119 0.985 . S
C114 C108 1.379 . S
C114 C111 1.363 . S
C114 N112 1.356 1_554 S
C115 C109 1.363 . S
C115 C110 1.379 . S
C115 N113 1.356 . S
N116 C108 1.356 1_556 S
N116 H122 0.984 . S
N116 H123 0.984 1_556 S
N117 C110 1.356 . S
N117 H120 0.984 . S
N117 H121 0.985 . S
H118 N113 0.984 . S
H119 N113 0.985 . S
H120 N117 0.984 . S
H121 N117 0.985 . S
H122 N116 0.984 . S
H123 N116 0.984 1_554 S
H124 N112 0.984 . S
H125 N112 0.985 . S
C126 C127 1.363 . S
C126 C132 1.379 . S
C126 N134 1.356 . S
C127 C126 1.363 . S
C127 C133 1.363 . S
C128 C129 1.363 . S
C128 C133 1.379 . S
C128 N135 1.356 . S
C129 C128 1.363 . S
C129 C132 1.363 . S
N130 C132 1.356 . S
N130 H142 0.984 . S
N130 H143 0.985 . S
N131 C133 1.356 . S
N131 H136 0.984 . S
N131 H137 0.985 . S
C132 C126 1.379 . S
C132 C129 1.363 . S
C132 N130 1.356 . S
C133 C127 1.363 . S
C133 C128 1.379 . S
C133 N131 1.356 . S
N134 C126 1.356 . S
N134 H140 0.984 . S
N134 H141 0.984 . S
N135 C128 1.356 . S
N135 H138 0.984 . S
N135 H139 0.985 . S
H136 N131 0.984 . S
H137 N131 0.985 . S
H138 N135 0.984 . S
H139 N135 0.985 . S
H140 N134 0.984 . S
H141 N134 0.984 . S
H142 N130 0.984 . S
H143 N130 0.985 . S
C144 C145 1.363 1_556 S
C144 C150 1.379 . S
C144 N152 1.356 . S
C145 C144 1.363 1_554 S
C145 C151 1.363 . S
C146 C147 1.363 . S
C146 C151 1.379 . S
C146 N153 1.356 . S
C147 C146 1.363 . S
C147 C150 1.363 1_554 S
N148 C150 1.356 . S
N148 H160 0.984 . S
N148 H161 0.985 . S
N149 C151 1.356 . S
N149 H154 0.984 . S
N149 H155 0.985 . S
C150 C144 1.379 . S
C150 C147 1.363 1_556 S
C150 N148 1.356 . S
C151 C145 1.363 . S
C151 C146 1.379 . S
C151 N149 1.356 . S
N152 C144 1.356 . S
N152 H158 0.984 . S
N152 H159 0.984 . S
N153 C146 1.356 . S
N153 H156 0.984 . S
N153 H157 0.985 . S
H154 N149 0.984 . S
H155 N149 0.985 . S
H156 N153 0.984 . S
H157 N153 0.985 . S
H158 N152 0.984 . S
H159 N152 0.984 . S
H160 N148 0.984 . S
H161 N148 0.985 . S
C162 C163 1.363 . S
C162 C168 1.379 . S
C162 N170 1.356 . S
C163 C162 1.363 . S
C163 C169 1.363 . S
C164 C165 1.363 . S
C164 C169 1.379 . S
C164 N171 1.356 . S
C165 C164 1.363 . S
C165 C168 1.363 . S
N166 C168 1.356 1_545 S
N166 H178 0.984 . S
N166 H179 0.985 . S
N167 C169 1.356 . S
N167 H172 0.984 . S
N167 H173 0.985 . S
C168 C162 1.379 . S
C168 C165 1.363 . S
C168 N166 1.356 1_565 S
C169 C163 1.363 . S
C169 C164 1.379 . S
C169 N167 1.356 . S
N170 C162 1.356 . S
N170 H176 0.984 . S
N170 H177 0.984 . S
N171 C164 1.356 . S
N171 H174 0.984 . S
N171 H175 0.985 . S
H172 N167 0.984 . S
H173 N167 0.985 . S
H174 N171 0.984 . S
H175 N171 0.985 . S
H176 N170 0.984 . S
H177 N170 0.984 . S
H178 N166 0.984 . S
H179 N166 0.985 . S
C180 C181 1.363 . S
C180 C186 1.379 . S
C180 N188 1.356 . S
C181 C180 1.363 . S
C181 C187 1.363 . S
C182 C183 1.363 . S
C182 C187 1.379 . S
C182 N189 1.356 . S
C183 C182 1.363 . S
C183 C186 1.363 . S
N184 C186 1.356 . S
N184 H196 0.984 . S
N184 H197 0.985 . S
N185 C187 1.356 . S
N185 H190 0.984 . S
N185 H191 0.985 . S
C186 C180 1.379 . S
C186 C183 1.363 . S
C186 N184 1.356 . S
C187 C181 1.363 . S
C187 C182 1.379 . S
C187 N185 1.356 . S
N188 C180 1.356 . S
N188 H194 0.984 . S
N188 H195 0.984 . S
N189 C182 1.356 . S
N189 H192 0.984 . S
N189 H193 0.985 . S
H190 N185 0.984 . S
H191 N185 0.985 . S
H192 N189 0.984 . S
H193 N189 0.985 . S
H194 N188 0.984 . S
H195 N188 0.984 . S
H196 N184 0.984 . S
H197 N184 0.985 . S
C198 C199 1.363 . S
C198 C204 1.379 . S
C198 N206 1.356 . S
C199 C198 1.363 . S
C199 C205 1.363 . S
C200 C201 1.363 . S
C200 C205 1.379 . S
C200 N207 1.356 . S
C201 C200 1.363 . S
C201 C204 1.363 . S
N202 C204 1.356 . S
N202 H214 0.984 . S
N202 H215 0.985 . S
N203 C205 1.356 . S
N203 H208 0.984 . S
N203 H209 0.985 . S
C204 C198 1.379 . S
C204 C201 1.363 . S
C204 N202 1.356 . S
C205 C199 1.363 . S
C205 C200 1.379 . S
C205 N203 1.356 . S
N206 C198 1.356 . S
N206 H212 0.984 . S
N206 H213 0.984 . S
N207 C200 1.356 . S
N207 H210 0.984 . S
N207 H211 0.985 1_545 S
H208 N203 0.984 . S
H209 N203 0.985 . S
H210 N207 0.984 . S
H211 N207 0.985 1_565 S
H212 N206 0.984 . S
H213 N206 0.984 . S
H214 N202 0.984 . S
H215 N202 0.985 . S
C216 C217 1.363 . S
C216 C222 1.379 . S
C216 N224 1.356 . S
C217 C216 1.363 . S
C217 C223 1.363 . S
C218 C219 1.363 . S
C218 C223 1.379 . S
C218 N225 1.356 . S
C219 C218 1.363 . S
C219 C222 1.363 . S
N220 C222 1.356 . S
N220 H232 0.984 . S
N220 H233 0.985 . S
N221 C223 1.356 . S
N221 H226 0.984 . S
N221 H227 0.985 . S
C222 C216 1.379 . S
C222 C219 1.363 . S
C222 N220 1.356 . S
C223 C217 1.363 . S
C223 C218 1.379 . S
C223 N221 1.356 . S
N224 C216 1.356 . S
N224 H230 0.984 . S
N224 H231 0.984 . S
N225 C218 1.356 . S
N225 H228 0.984 . S
N225 H229 0.985 . S
H226 N221 0.984 . S
H227 N221 0.985 . S
H228 N225 0.984 . S
H229 N225 0.985 . S
H230 N224 0.984 . S
H231 N224 0.984 . S
H232 N220 0.984 . S
H233 N220 0.985 . S
C234 C235 1.363 . S
C234 C240 1.379 . S
C234 N242 1.356 . S
C235 C234 1.363 . S
C235 C241 1.363 . S
C236 C237 1.363 . S
C236 C241 1.379 . S
C236 N243 1.356 . S
C237 C236 1.363 . S
C237 C240 1.363 . S
N238 C240 1.356 . S
N238 H250 0.984 . S
N238 H251 0.985 . S
N239 C241 1.356 . S
N239 H244 0.984 . S
N239 H245 0.985 . S
C240 C234 1.379 . S
C240 C237 1.363 . S
C240 N238 1.356 . S
C241 C235 1.363 . S
C241 C236 1.379 . S
C241 N239 1.356 . S
N242 C234 1.356 . S
N242 H248 0.984 . S
N242 H249 0.984 . S
N243 C236 1.356 . S
N243 H246 0.984 . S
N243 H247 0.985 . S
H244 N239 0.984 . S
H245 N239 0.985 . S
H246 N243 0.984 . S
H247 N243 0.985 . S
H248 N242 0.984 . S
H249 N242 0.984 . S
H250 N238 0.984 . S
H251 N238 0.985 . S
C252 C253 1.363 . S
C252 C258 1.379 . S
C252 N260 1.356 . S
C253 C252 1.363 . S
C253 C259 1.363 . S
C254 C255 1.363 . S
C254 C259 1.379 . S
C254 N261 1.356 . S
C255 C254 1.363 . S
C255 C258 1.363 . S
N256 C258 1.356 . S
N256 H268 0.984 . S
N256 H269 0.985 . S
N257 C259 1.356 . S
N257 H262 0.984 . S
N257 H263 0.985 . S
C258 C252 1.379 . S
C258 C255 1.363 . S
C258 N256 1.356 . S
C259 C253 1.363 . S
C259 C254 1.379 . S
C259 N257 1.356 . S
N260 C252 1.356 . S
N260 H266 0.984 . S
N260 H267 0.984 . S
N261 C254 1.356 . S
N261 H264 0.984 . S
N261 H265 0.985 1_545 S
H262 N257 0.984 . S
H263 N257 0.985 . S
H264 N261 0.984 . S
H265 N261 0.985 1_565 S
H266 N260 0.984 . S
H267 N260 0.984 . S
H268 N256 0.984 . S
H269 N256 0.985 . S
C270 C271 1.363 . S
C270 C276 1.379 . S
C270 N278 1.356 . S
C271 C270 1.363 . S
C271 C277 1.363 . S
C272 C273 1.363 . S
C272 C277 1.379 . S
C272 N279 1.356 . S
C273 C272 1.363 . S
C273 C276 1.363 . S
N274 C276 1.356 . S
N274 H286 0.984 . S
N274 H287 0.985 . S
N275 C277 1.356 . S
N275 H280 0.984 . S
N275 H281 0.985 . S
C276 C270 1.379 . S
C276 C273 1.363 . S
C276 N274 1.356 . S
C277 C271 1.363 . S
C277 C272 1.379 . S
C277 N275 1.356 . S
N278 C270 1.356 . S
N278 H284 0.984 . S
N278 H285 0.984 . S
N279 C272 1.356 . S
N279 H282 0.984 . S
N279 H283 0.985 . S
H280 N275 0.984 . S
H281 N275 0.985 . S
H282 N279 0.984 . S
H283 N279 0.985 . S
H284 N278 0.984 . S
H285 N278 0.984 . S
H286 N274 0.984 . S
H287 N274 0.985 . S
C288 C289 1.363 . S
C288 C294 1.379 . S
C288 N296 1.356 . S
C289 C288 1.363 . S
C289 C295 1.363 . S
C290 C291 1.363 . S
C290 C295 1.379 . S
C290 N297 1.356 . S
C291 C290 1.363 . S
C291 C294 1.363 . S
N292 C294 1.356 1_545 S
N292 H304 0.984 . S
N292 H305 0.985 . S
N293 C295 1.356 . S
N293 H298 0.984 . S
N293 H299 0.985 . S
C294 C288 1.379 . S
C294 C291 1.363 . S
C294 N292 1.356 1_565 S
C295 C289 1.363 . S
C295 C290 1.379 . S
C295 N293 1.356 . S
N296 C288 1.356 . S
N296 H302 0.984 1_566 S
N296 H303 0.984 1_556 S
N297 C290 1.356 . S
N297 H300 0.984 . S
N297 H301 0.985 . S
H298 N293 0.984 . S
H299 N293 0.985 . S
H300 N297 0.984 . S
H301 N297 0.985 . S
H302 N296 0.984 1_544 S
H303 N296 0.984 1_554 S
H304 N292 0.984 . S
H305 N292 0.985 . S
C93 C64 1.268 . S
C91 C40 1.448 . S
C109 C4 1.487 . S
C111 C85 1.309 . S
C127 C16 1.570 . S
C129 C61 1.395 . S
C145 C28 1.571 . S
C147 C82 1.372 . S
C165 C66 1.497 . S
C163 C9 1.497 . S
C183 C86 1.524 . S
C181 C18 1.589 . S
C199 C33 1.576 . S
C201 C62 1.540 . S
C217 C45 1.511 . S
C219 C84 1.453 . S
C237 C83 1.482 . S
C235 C21 1.521 . S
C255 C65 1.470 . S
C253 C30 1.531 . S
C273 C87 1.432 . S
C271 C42 1.461 . S
C289 C6 1.466 . S
C291 C63 1.406 . S
