# Generated by pormake.
# Topology tsx, (6,3)-cn, num edge types: 1
# Building blocks:
#     Node 0, Type 0, BuildingBlock: VOLQOD_clean_sbu_1, # of connection points: 6
#     Node 1, Type 0, BuildingBlock: VOLQOD_clean_sbu_1, # of connection points: 6
#     Node 2, Type 1, BuildingBlock: CUQRIR_clean_linker_1, # of connection points: 3
#     Node 3, Type 1, BuildingBlock: CUQRIR_clean_linker_1, # of connection points: 3
#     Node 4, Type 1, BuildingBlock: CUQRIR_clean_linker_1, # of connection points: 3
#     Node 5, Type 1, BuildingBlock: CUQRIR_clean_linker_1, # of connection points: 3
#     Edge 6, Type (0, 1), BuildingBlock: ZUJKAS_clean_linker_0, # of connection points: 2
#     Edge 7, Type (0, 1), BuildingBlock: ZUJKAS_clean_linker_0, # of connection points: 2
#     Edge 8, Type (0, 1), BuildingBlock: ZUJKAS_clean_linker_0, # of connection points: 2
#     Edge 9, Type (0, 1), BuildingBlock: ZUJKAS_clean_linker_0, # of connection points: 2
#     Edge 10, Type (0, 1), BuildingBlock: ZUJKAS_clean_linker_0, # of connection points: 2
#     Edge 11, Type (0, 1), BuildingBlock: ZUJKAS_clean_linker_0, # of connection points: 2
#     Edge 12, Type (0, 1), BuildingBlock: ZUJKAS_clean_linker_0, # of connection points: 2
#     Edge 13, Type (0, 1), BuildingBlock: ZUJKAS_clean_linker_0, # of connection points: 2
#     Edge 14, Type (0, 1), BuildingBlock: ZUJKAS_clean_linker_0, # of connection points: 2
#     Edge 15, Type (0, 1), BuildingBlock: ZUJKAS_clean_linker_0, # of connection points: 2
#     Edge 16, Type (0, 1), BuildingBlock: ZUJKAS_clean_linker_0, # of connection points: 2
#     Edge 17, Type (0, 1), BuildingBlock: ZUJKAS_clean_linker_0, # of connection points: 2
# Relax obj value: 0.076
# Max RMSD: 0.144
# Mean RMSD: 0.125
data_MOF--net-tsx--node1-VOLQOD_clean_sbu_1--node2-CUQRIR_clean_linker_1--edge1-ZUJKAS_clean_linker_0
_symmetry_space_group_name_H-M    P1
_symmetry_Int_Tables_number       1
_symmetry_cell_setting            triclinic
loop_
_symmetry_equiv_pos_as_xyz
'x, y, z'
_cell_length_a     25.518216
_cell_length_b     26.383903
_cell_length_c     46.353479
_cell_angle_alpha  79.972132
_cell_angle_beta   89.739458
_cell_angle_gamma 90.118706
loop_
_atom_site_label
_atom_site_type_symbol
_atom_site_fract_x
_atom_site_fract_y
_atom_site_fract_z
_atom_type_partial_charge
O0 O 0.07883 0.9944 0.08316 0.0
Zn1 Zn 0.09538 -0.00069 0.03979 0.0
O2 O 0.0323 0.01227 0.01572 0.0
Zn3 Zn 0.01807 0.95503 0.99524 0.0
Zn4 Zn 0.974 0.02141 0.04157 0.0
Zn5 Zn 0.04048 0.07404 0.98619 0.0
O6 O 0.01372 0.97765 0.95117 0.0
O7 O 0.04388 0.05772 0.94527 0.0
O8 O 0.13056 0.93325 0.03369 0.0
O9 O 0.07745 0.9046 1.00213 0.0
O10 O 0.95211 0.9171 0.01082 0.0
O11 O 0.92558 0.96073 0.04511 0.0
O12 O 0.93197 0.08441 0.02547 0.0
O13 O 0.14613 0.0587 0.02892 0.0
O14 O 0.97823 0.12076 0.98665 0.0
O15 O 0.10595 0.11203 0.99348 0.0
C16 C 0.03927 0.00889 0.0965 0.0
C17 C 0.02884 0.01883 0.93458 0.0
C18 C 0.92064 0.92322 0.03137 0.0
C19 C 0.11868 0.90018 0.01775 0.0
C20 C 0.93829 0.11994 1.00331 0.0
C21 C 0.14463 0.1009 0.01068 0.0
O22 O -0.0024 0.02449 0.08274 0.0
O23 O 0.5896 0.49515 0.58246 0.0
Zn24 Zn 0.60553 0.49771 0.53928 0.0
O25 O 0.54055 0.50725 0.51635 0.0
Zn26 Zn 0.5264 0.44739 0.49813 0.0
Zn27 Zn 0.48164 0.51799 0.54161 0.0
Zn28 Zn 0.54769 0.56711 0.48553 0.0
O29 O 0.52544 0.46579 0.45379 0.0
O30 O 0.5518 0.54725 0.44578 0.0
O31 O 0.64219 0.43121 0.53421 0.0
O32 O 0.58388 0.39612 0.50807 0.0
O33 O 0.45899 0.41174 0.51304 0.0
O34 O 0.42928 0.46039 0.54403 0.0
O35 O 0.44275 0.58372 0.52622 0.0
O36 O 0.65441 0.5587 0.52745 0.0
O37 O 0.48531 0.61336 0.48483 0.0
O38 O 0.61157 0.60825 0.49161 0.0
C39 C 0.54869 0.50563 0.59618 0.0
C40 C 0.53926 0.50646 0.43629 0.0
C41 C 0.425 0.42123 0.53159 0.0
C42 C 0.62722 0.39426 0.5217 0.0
C43 C 0.44779 0.61631 0.50262 0.0
C44 C 0.65076 0.60007 0.50867 0.0
O45 O 0.50568 0.51742 0.58286 0.0
C46 C 0.98949 0.97257 0.45377 0.0
N47 N 0.01415 0.95575 0.43129 0.0
N48 N 0.94745 0.00151 0.44398 0.0
C49 C 0.00537 0.95966 0.48541 0.0
C50 C 0.94744 0.00186 0.41472 0.0
N51 N 0.98776 0.97364 0.40701 0.0
C52 C 0.90997 0.03258 0.39361 0.0
H53 H 0.97102 0.96071 0.50004 0.0
H54 H 0.03438 0.98849 0.4901 0.0
H55 H 0.02371 0.92103 0.4902 0.0
H56 H 0.92272 0.03515 0.3705 0.0
H57 H 0.90576 0.07193 0.39874 0.0
H58 H 0.87084 0.01391 0.39623 0.0
C59 C -0.0009 0.02801 0.57889 0.0
N60 N 0.01787 0.04826 0.60172 0.0
N61 N 0.961 0.99322 0.58799 0.0
C62 C 0.01809 0.04164 0.54773 0.0
C63 C 0.95701 0.993 0.61715 0.0
N64 N 0.99116 0.02705 0.6255 0.0
C65 C 0.92129 0.95809 0.63766 0.0
H66 H 0.98665 0.03598 0.53219 0.0
H67 H 0.0512 0.01604 0.5444 0.0
H68 H 0.03188 0.08215 0.54281 0.0
H69 H 0.94172 0.94341 0.65852 0.0
H70 H 0.90711 0.92518 0.62788 0.0
H71 H 0.88669 0.98037 0.64276 0.0
C72 C 0.48853 0.48661 0.94967 0.0
N73 N 0.51449 0.46961 0.92768 0.0
N74 N 0.4576 0.52716 0.93888 0.0
C75 C 0.49726 0.46683 0.98173 0.0
C76 C 0.46584 0.53413 0.90955 0.0
N77 N 0.50081 0.49956 0.90282 0.0
C78 C 0.4376 0.57274 0.88731 0.0
H79 H 0.47257 0.43215 0.9886 0.0
H80 H 0.48658 0.49607 0.9952 0.0
H81 H 0.5388 0.45565 0.98591 0.0
H82 H 0.46179 0.60817 0.88207 0.0
H83 H 0.39907 0.5829 0.89588 0.0
H84 H 0.43156 0.55743 0.86674 0.0
C85 C 0.52298 0.50426 0.08225 0.0
N86 N 0.54099 0.52439 0.10532 0.0
N87 N 0.49429 0.4614 0.09169 0.0
C88 C 0.53752 0.52299 0.05072 0.0
C89 C 0.49563 0.45586 0.12124 0.0
N90 N 0.52447 0.49385 0.12954 0.0
C91 C 0.46574 0.41549 0.14186 0.0
H92 H 0.50682 0.54973 0.0403 0.0
H93 H 0.53999 0.49012 0.03878 0.0
H94 H 0.57572 0.54346 0.04873 0.0
H95 H 0.49129 0.38146 0.14831 0.0
H96 H 0.43025 0.4031 0.13119 0.0
H97 H 0.45391 0.43007 0.16198 0.0
H98 H 0.23439 0.09118 0.0434 0.0
H99 H 0.29974 0.15784 0.04675 0.0
H100 H 0.21703 0.26368 0.98136 0.0
H101 H 0.15136 0.19752 0.97776 0.0
H102 H 0.36418 0.22613 0.9993 0.0
H103 H 0.21913 0.3271 0.05945 0.0
H104 H 0.21151 0.26032 0.05612 0.0
H105 H 0.1991 0.30994 0.02523 0.0
C106 C 0.23035 0.1284 0.02944 0.0
C107 C 0.18725 0.13915 0.01056 0.0
C108 C 0.26786 0.16632 0.03131 0.0
C109 C 0.26281 0.21558 0.01445 0.0
C110 C 0.22129 0.22586 0.99464 0.0
H111 H 0.42073 0.49153 0.05098 0.0
H112 H 0.36716 0.43521 0.02586 0.0
C113 C 0.18383 0.18796 0.99267 0.0
C114 C 0.29839 0.25726 0.01956 0.0
H115 H 0.30388 0.36154 0.05372 0.0
C116 C 0.35106 0.25611 0.01093 0.0
C117 C 0.28083 0.29639 0.03452 0.0
C118 C 0.22466 0.29872 0.04458 0.0
C119 C 0.38708 0.29278 0.01745 0.0
C120 C 0.36999 0.33048 0.03365 0.0
C121 C 0.31687 0.33262 0.04128 0.0
C122 C 0.40686 0.36523 0.04529 0.0
C123 C 0.44302 0.29066 0.00706 0.0
C124 C 0.44681 0.34449 0.06448 0.0
C125 C 0.4769 0.37646 0.0789 0.0
C126 C 0.46735 0.42953 0.07442 0.0
C127 C 0.42875 0.45064 0.05448 0.0
C128 C 0.39837 0.41862 0.04019 0.0
H129 H 0.44543 0.27333 0.9869 0.0
H130 H 0.46113 0.32956 1.00253 0.0
H131 H 0.46623 0.2662 0.02428 0.0
H132 H 0.45316 0.30332 0.06937 0.0
H133 H 0.50663 0.35974 0.09423 0.0
H134 H 0.12756 0.84467 0.97381 0.0
H135 H 0.18608 0.77298 0.97105 0.0
H136 H 0.24663 0.78254 0.05674 0.0
H137 H 0.18961 0.85653 0.05896 0.0
H138 H 0.32349 0.7689 0.02312 0.0
H139 H 0.17361 0.62656 0.00728 0.0
H140 H 0.16573 0.68224 0.9795 0.0
H141 H 0.15657 0.68734 0.01754 0.0
C142 C 0.15302 0.83131 0.9922 0.0
C143 C 0.15374 0.856 0.0167 0.0
C144 C 0.18616 0.78989 0.99072 0.0
C145 C 0.21966 0.77112 0.01408 0.0
C146 C 0.22071 0.79591 0.03857 0.0
H147 H 0.385 0.49519 0.98054 0.0
H148 H 0.33144 0.54951 0.00708 0.0
C149 C 0.1882 0.83819 0.03981 0.0
C150 C 0.25562 0.72775 0.0118 0.0
H151 H 0.26033 0.61302 0.98755 0.0
C152 C 0.30954 0.73431 0.01593 0.0
C153 C 0.23766 0.68158 1.00347 0.0
C154 C 0.18014 0.66883 1.00208 0.0
C155 C 0.34607 0.69795 0.00971 0.0
C156 C 0.32837 0.65506 0.99781 0.0
C157 C 0.27427 0.64647 0.99595 0.0
C158 C 0.36484 0.62142 0.98471 0.0
C159 C 0.40322 0.7063 0.01577 0.0
C160 C 0.40158 0.64347 0.9635 0.0
C161 C 0.43292 0.61241 0.94912 0.0
C162 C 0.42702 0.55876 0.95492 0.0
C163 C 0.39043 0.53649 0.97608 0.0
C164 C 0.35978 0.56752 0.99102 0.0
H165 H 0.40772 0.72573 0.03505 0.0
H166 H 0.42521 0.66949 0.01991 0.0
H167 H 0.421 0.73184 0.99667 0.0
H168 H 0.40515 0.68484 0.9574 0.0
H169 H 0.46131 0.63031 0.93309 0.0
H170 H 0.86638 0.90709 0.08299 0.0
H171 H 0.80127 0.84039 0.0996 0.0
H172 H 0.81378 0.78697 0.017 0.0
H173 H 0.88063 0.85238 1.00065 0.0
H174 H 0.70761 0.82101 0.08084 0.0
H175 H 0.83621 0.6554 0.07286 0.0
H176 H 0.861 0.72026 0.06919 0.0
H177 H 0.83108 0.69823 0.03845 0.0
C178 C 0.85529 0.88116 0.06832 0.0
C179 C 0.87898 0.88471 0.04058 0.0
C180 C 0.81805 0.84303 0.07788 0.0
C181 C 0.80346 0.80795 0.05982 0.0
C182 C 0.82564 0.81258 0.03168 0.0
H183 H 0.526 0.61891 0.07386 0.0
H184 H 0.58936 0.68977 0.06586 0.0
C185 C 0.86355 0.85022 0.02227 0.0
C186 C 0.76474 0.76683 0.0704 0.0
H187 H 0.7447 0.63726 0.0788 0.0
C188 C 0.71587 0.78076 0.08064 0.0
C189 C 0.77594 0.71419 0.07084 0.0
C190 C 0.82912 0.69606 0.06256 0.0
C191 C 0.67732 0.74365 0.09045 0.0
C192 C 0.68734 0.69139 0.08905 0.0
C193 C 0.73676 0.67736 0.07963 0.0
C194 C 0.64679 0.6507 0.09611 0.0
C195 C 0.62664 0.7609 0.10252 0.0
C196 C 0.6581 0.60485 0.11545 0.0
C197 C 0.62251 0.5639 0.11929 0.0
C198 C 0.57497 0.5683 0.10403 0.0
C199 C 0.56266 0.61481 0.08569 0.0
C200 C 0.59854 0.65544 0.08145 0.0
H201 H 0.63235 0.79661 0.11179 0.0
H202 H 0.59775 0.76953 0.08452 0.0
H203 H 0.60999 0.73073 0.11986 0.0
H204 H 0.69518 0.6002 0.12689 0.0
H205 H 0.63299 0.5281 0.13324 0.0
H206 H 0.85024 0.13416 0.03495 0.0
H207 H 0.7781 0.1938 0.02012 0.0
H208 H 0.8592 0.25313 0.93949 0.0
H209 H 0.93159 0.19371 0.95399 0.0
H210 H 0.78127 0.30558 1.00345 0.0
H211 H 0.71204 0.20561 0.91439 0.0
H212 H 0.7546 0.17525 0.94334 0.0
H213 H 0.78066 0.22151 0.91371 0.0
C214 C 0.85298 0.16008 0.01413 0.0
C215 C 0.89663 0.15892 0.99559 0.0
C216 C 0.8117 0.19408 0.00571 0.0
C217 C 0.8131 0.22717 0.97855 0.0
C218 C 0.85714 0.22725 0.96035 0.0
H219 H 0.61455 0.48576 0.91026 0.0
H220 H 0.68764 0.42495 0.9212 0.0
C221 C 0.89858 0.19347 0.96879 0.0
C222 C 0.76829 0.26143 0.9692 0.0
H223 H 0.67004 0.28395 0.91879 0.0
C224 C 0.75693 0.3009 0.98496 0.0
C225 C 0.73648 0.25479 0.94521 0.0
C226 C 0.74609 0.21179 0.92824 0.0
C227 C 0.71488 0.33452 0.97704 0.0
C228 C 0.68363 0.32833 0.95281 0.0
C229 C 0.6945 0.28856 0.93724 0.0
C230 C 0.63918 0.36292 0.94366 0.0
C231 C 0.70371 0.37638 0.9946 0.0
C232 C 0.58796 0.34741 0.95212 0.0
C233 C 0.54646 0.38196 0.94583 0.0
C234 C 0.55577 0.43216 0.9309 0.0
C235 C 0.60671 0.44693 0.92146 0.0
C236 C 0.64825 0.4125 0.92784 0.0
H237 H 0.72847 0.37294 0.01449 0.0
H238 H 0.71117 0.41451 0.98077 0.0
H239 H 0.66182 0.37516 1.00132 0.0
H240 H 0.58042 0.30922 0.96438 0.0
H241 H 0.50728 0.37014 0.95319 0.0
H242 H 0.7391 0.59893 0.54236 0.0
H243 H 0.79762 0.67137 0.54563 0.0
H244 H 0.71062 0.7673 0.47768 0.0
H245 H 0.65195 0.69539 0.47407 0.0
H246 H 0.85815 0.74578 0.49661 0.0
H247 H 0.70062 0.83189 0.55632 0.0
H248 H 0.70137 0.76422 0.55415 0.0
H249 H 0.68396 0.81062 0.52265 0.0
C250 C 0.73284 0.63515 0.52776 0.0
C251 C 0.69043 0.64141 0.50817 0.0
C252 C 0.76642 0.67642 0.52962 0.0
C253 C 0.75805 0.72458 0.51203 0.0
C254 C 0.71746 0.73038 0.49149 0.0
H255 H 0.8848 0.01624 0.5479 0.0
H256 H 0.83818 0.95518 0.52241 0.0
C257 C 0.68399 0.68917 0.48952 0.0
C258 C 0.78877 0.76974 0.51707 0.0
H259 H 0.78148 0.87466 0.5507 0.0
C260 C 0.84144 0.77428 0.50821 0.0
C261 C 0.76649 0.80705 0.53187 0.0
C262 C 0.71008 0.80346 0.542 0.0
C263 C 0.87286 0.81486 0.51437 0.0
C264 C 0.85123 0.85075 0.53049 0.0
C265 C 0.79799 0.84716 0.53833 0.0
C266 C 0.88385 0.8891 0.54212 0.0
C267 C 0.92883 0.81893 0.5036 0.0
C268 C 0.9251 0.87231 0.56136 0.0
C269 C 0.95139 0.907 0.57573 0.0
C270 C 0.93647 0.9588 0.57137 0.0
C271 C 0.89643 0.97619 0.55152 0.0
C272 C 0.8701 0.94148 0.53701 0.0
H273 H 0.93397 0.80053 0.48397 0.0
H274 H 0.94161 0.85972 0.49807 0.0
H275 H 0.95479 0.79878 0.52103 0.0
H276 H 0.93551 0.83197 0.56625 0.0
H277 H 0.98232 0.8933 0.59102 0.0
H278 H 0.5997 0.30312 0.50607 0.0
H279 H 0.65622 0.231 0.50101 0.0
H280 H 0.78788 0.30913 0.53167 0.0
H281 H 0.73112 0.3819 0.53719 0.0
H282 H 0.7424 0.24341 0.46304 0.0
H283 H 0.80147 0.15949 0.57669 0.0
H284 H 0.74503 0.20078 0.56887 0.0
H285 H 0.80978 0.22794 0.56608 0.0
C286 C 0.64052 0.30491 0.51215 0.0
C287 C 0.66099 0.34859 0.5218 0.0
C288 C 0.67272 0.26347 0.50932 0.0
C289 C 0.72611 0.26456 0.51611 0.0
C290 C 0.74654 0.30717 0.52678 0.0
H291 H 0.98189 0.07347 0.4739 0.0
H292 H 0.92789 0.13442 0.49542 0.0
C293 C 0.71414 0.34882 0.52976 0.0
C294 C 0.76075 0.22351 0.5089 0.0
H295 H 0.84144 0.12474 0.53814 0.0
C296 C 0.76391 0.21737 0.47949 0.0
C297 C 0.78907 0.18995 0.53039 0.0
C298 C 0.78609 0.19439 0.56234 0.0
C299 C 0.79454 0.17858 0.4709 0.0
C300 C 0.82205 0.14432 0.49241 0.0
C301 C 0.81977 0.15083 0.52181 0.0
C302 C 0.85414 0.10237 0.48422 0.0
C303 C 0.79782 0.17506 0.43877 0.0
C304 C 0.83043 0.06309 0.47192 0.0
C305 C 0.86119 0.02844 0.45971 0.0
C306 C 0.91594 0.03247 0.45986 0.0
C307 C 0.93964 0.06974 0.47375 0.0
C308 C 0.90892 0.10442 0.48597 0.0
H309 H 0.78436 0.21101 0.42462 0.0
H310 H 0.83859 0.16704 0.43241 0.0
H311 H 0.77249 0.14303 0.43441 0.0
H312 H 0.78814 0.06053 0.47074 0.0
H313 H 0.8424 -0.0006 0.44943 0.0
H314 H 0.33906 0.43441 0.56504 0.0
H315 H 0.26885 0.37244 0.58108 0.0
H316 H 0.34082 0.264 0.53361 0.0
H317 H 0.41122 0.32561 0.51733 0.0
H318 H 0.1997 0.32125 0.54344 0.0
H319 H 0.32181 0.1865 0.62075 0.0
H320 H 0.34013 0.25288 0.60814 0.0
H321 H 0.34871 0.20622 0.58459 0.0
C322 C 0.33996 0.39744 0.55791 0.0
C323 C 0.38093 0.3849 0.53997 0.0
C324 C 0.2998 0.36215 0.56711 0.0
C325 C 0.30019 0.31355 0.55883 0.0
C326 C 0.34035 0.30116 0.54053 0.0
H327 H 0.1157 0.03909 0.58171 0.0
H328 H 0.18365 0.1059 0.574 0.0
C329 C 0.38034 0.33654 0.53112 0.0
C330 C 0.25837 0.27578 0.56912 0.0
H331 H 0.23653 0.15793 0.61111 0.0
C332 C 0.20744 0.28571 0.55844 0.0
C333 C 0.26891 0.22966 0.58871 0.0
C334 C 0.32273 0.2181 0.60147 0.0
C335 C 0.16698 0.24961 0.56593 0.0
C336 C 0.17766 0.203 0.58521 0.0
C337 C 0.22842 0.19374 0.59642 0.0
C338 C 0.13775 0.16175 0.59222 0.0
C339 C 0.11385 0.26072 0.55211 0.0
C340 C 0.09008 0.17042 0.60586 0.0
C341 C 0.05111 0.1324 0.60992 0.0
C342 C 0.05957 0.08528 0.60059 0.0
C343 C 0.10824 0.07565 0.5885 0.0
C344 C 0.14699 0.11359 0.58428 0.0
H345 H 0.11554 0.29237 0.53287 0.0
H346 H 0.0974 0.22592 0.54498 0.0
H347 H 0.08659 0.27248 0.56843 0.0
H348 H 0.08265 0.20687 0.61279 0.0
H349 H 0.01381 0.14025 0.61944 0.0
H350 H 0.42724 0.67118 0.44843 0.0
H351 H 0.35674 0.73267 0.43455 0.0
H352 H 0.30743 0.71502 0.52494 0.0
H353 H 0.37668 0.65155 0.53883 0.0
H354 H 0.2266 0.70986 0.49146 0.0
H355 H 0.34352 0.87994 0.44207 0.0
H356 H 0.35701 0.82558 0.42485 0.0
H357 H 0.37307 0.82316 0.46288 0.0
C358 C 0.40182 0.68085 0.46544 0.0
C359 C 0.40764 0.65662 0.49476 0.0
C360 C 0.36169 0.71633 0.45747 0.0
C361 C 0.32736 0.72933 0.47875 0.0
C362 C 0.33359 0.70576 0.50814 0.0
H363 H 0.10612 0.98146 0.45283 0.0
H364 H 0.18319 0.92613 0.46321 0.0
C365 C 0.3732 0.66956 0.51606 0.0
C366 C 0.283 0.76498 0.47013 0.0
H367 H 0.25162 0.88358 0.43193 0.0
C368 C 0.23215 0.748 0.47863 0.0
C369 C 0.29023 0.81499 0.45364 0.0
C370 C 0.34397 0.83719 0.44561 0.0
C371 C 0.18834 0.77935 0.47095 0.0
C372 C 0.19533 0.82837 0.45326 0.0
C373 C 0.24621 0.84562 0.44501 0.0
C374 C 0.15059 0.86336 0.44446 0.0
C375 C 0.13527 0.76007 0.48264 0.0
C376 C 0.10743 0.84726 0.42959 0.0
C377 C 0.0631 0.87846 0.42427 0.0
C378 C 0.06189 0.92662 0.43307 0.0
C379 C 0.10627 0.9441 0.44619 0.0
C380 C 0.15021 0.91266 0.45197 0.0
H381 H 0.13877 0.72948 0.5023 0.0
H382 H 0.11117 0.79177 0.48855 0.0
H383 H 0.11425 0.74335 0.46559 0.0
H384 H 0.10739 0.80995 0.42289 0.0
H385 H 0.02901 0.86405 0.41449 0.0
H386 H 0.10409 0.95033 0.13592 0.0
H387 H 0.10088 0.93969 0.18945 0.0
H388 H 0.9759 0.05081 0.18354 0.0
H389 H 0.97735 0.05988 0.13021 0.0
H390 H 0.11589 0.00036 0.22802 0.0
H391 H 0.90985 0.93442 0.23772 0.0
H392 H 0.9456 0.94178 0.20361 0.0
H393 H 0.91543 -0.00332 0.21519 0.0
C394 C 0.07597 0.97255 0.14604 0.0
C395 C 0.04052 0.00548 0.1288 0.0
C396 C 0.07415 0.96642 0.17667 0.0
C397 C 0.03719 0.99339 0.19068 0.0
C398 C 0.00351 0.02814 0.1734 0.0
H399 H 0.0436 0.04409 0.37082 0.0
H400 H 0.05976 0.04595 0.3184 0.0
C401 C 0.00467 0.03362 0.14284 0.0
C402 C 0.03368 0.98518 0.22328 0.0
H403 H 0.94717 0.95904 0.28038 0.0
C404 C 0.07907 0.99087 0.23949 0.0
C405 C 0.98598 0.97156 0.23844 0.0
C406 C 0.93664 0.96018 0.22285 0.0
C407 C 0.07775 0.98484 0.27026 0.0
C408 C 0.02932 0.97453 0.28524 0.0
C409 C 0.98428 0.96749 0.26904 0.0
C410 C 0.02382 0.97168 0.31755 0.0
C411 C 0.12853 0.98871 0.28629 0.0
C412 C 0.99725 0.93003 0.33461 0.0
C413 C 0.987 0.9298 0.36432 0.0
C414 C 0.00397 0.97065 0.37762 0.0
C415 C 0.03147 0.0117 0.36093 0.0
C416 C 0.04089 0.0125 0.33109 0.0
H417 H 0.16252 0.97831 0.27345 0.0
H418 H 0.13434 0.02904 0.28951 0.0
H419 H 0.12839 0.96327 0.30806 0.0
H420 H 0.98322 0.89826 0.32475 0.0
H421 H 0.96453 0.89853 0.37677 0.0
H422 H 0.98345 0.95208 0.90281 0.0
H423 H 0.98292 0.95797 0.84961 0.0
H424 H 0.0751 0.09717 0.83996 0.0
H425 H 0.07439 0.09249 0.89307 0.0
H426 H -0.00207 0.10804 0.80156 0.0
H427 H 0.09788 0.92372 0.79712 0.0
H428 H 0.04019 0.91472 0.81967 0.0
H429 H 0.09463 0.95098 0.83017 0.0
C430 C 0.00384 0.98383 0.8894 0.0
C431 C 0.02911 0.0217 0.90228 0.0
C432 C 0.00384 0.98695 0.85894 0.0
C433 C 0.02991 0.02744 0.84072 0.0
C434 C 0.05495 0.06541 0.85352 0.0
H435 H 0.08282 0.0166 0.6548 0.0
H436 H 0.09645 0.02261 0.70656 0.0
C437 C 0.0545 0.06264 0.88394 0.0
C438 C 0.02954 0.03124 0.80829 0.0
H439 H 0.05482 0.96366 0.75328 0.0
C440 C 0.01082 0.0766 0.791 0.0
C441 C 0.04734 0.99073 0.79434 0.0
C442 C 0.07167 0.94255 0.81127 0.0
C443 C 0.00783 0.08193 0.76036 0.0
C444 C 0.02259 0.0402 0.7466 0.0
C445 C 0.04291 0.99548 0.76378 0.0
C446 C 0.01567 0.04125 0.71462 0.0
C447 C 0.98939 0.1325 0.74307 0.0
C448 C 0.966 0.05019 0.70181 0.0
C449 C 0.95857 0.04762 0.67225 0.0
C450 C 0.00036 0.03511 0.65504 0.0
C451 C 0.05023 0.02694 0.66761 0.0
C452 C 0.05784 0.02996 0.69717 0.0
H453 H 0.99703 0.16478 0.75502 0.0
H454 H 0.00892 0.14121 0.72131 0.0
H455 H 0.94647 0.13055 0.73969 0.0
H456 H 0.93255 0.05775 0.71486 0.0
H457 H 0.91989 0.05434 0.6629 0.0
H458 H 0.46615 0.50756 0.63362 0.0
H459 H 0.46855 0.50456 0.68643 0.0
H460 H 0.63728 0.4964 0.68472 0.0
H461 H 0.63525 0.49803 0.6317 0.0
H462 H 0.59548 0.42959 0.73073 0.0
H463 H 0.50897 0.62283 0.72649 0.0
H464 H 0.46817 0.582 0.70894 0.0
H465 H 0.53218 0.60036 0.69414 0.0
C466 C 0.50388 0.50532 0.64437 0.0
C467 C 0.55058 0.50356 0.62833 0.0
C468 C 0.50516 0.50382 0.6746 0.0
C469 C 0.55313 0.50142 0.68944 0.0
C470 C 0.59983 0.49863 0.67366 0.0
H471 H 0.55514 0.57092 0.86632 0.0
H472 H 0.57728 0.56914 0.81492 0.0
C473 C 0.5986 0.49966 0.64336 0.0
C474 C 0.55413 0.50165 0.72142 0.0
H475 H 0.50965 0.56822 0.77337 0.0
C476 C 0.57724 0.46015 0.74009 0.0
C477 C 0.53123 0.542 0.73359 0.0
C478 C 0.50926 0.58956 0.71472 0.0
C479 C 0.57636 0.45703 0.77069 0.0
C480 C 0.55056 0.49586 0.7829 0.0
C481 C 0.52903 0.53814 0.76411 0.0
C482 C 0.54412 0.49344 0.815 0.0
C483 C 0.60347 0.41243 0.78951 0.0
C484 C 0.51918 0.45111 0.83237 0.0
C485 C 0.50744 0.45196 0.8618 0.0
C486 C 0.51942 0.49551 0.87403 0.0
C487 C 0.54563 0.53711 0.85705 0.0
C488 C 0.55811 0.53602 0.82782 0.0
H489 H 0.63532 0.39678 0.77722 0.0
H490 H 0.62038 0.42385 0.80946 0.0
H491 H 0.57465 0.38105 0.79636 0.0
H492 H 0.50669 0.4184 0.82289 0.0
H493 H 0.48669 0.41985 0.87465 0.0
H494 H 0.50859 0.4298 0.40684 0.0
H495 H 0.51069 0.43132 0.35387 0.0
H496 H 0.57465 0.58503 0.34034 0.0
H497 H 0.57297 0.58401 0.39311 0.0
H498 H 0.45977 0.50491 0.30947 0.0
H499 H 0.67623 0.50288 0.29536 0.0
H500 H 0.64458 0.48413 0.33055 0.0
H501 H 0.65122 0.55102 0.31484 0.0
C502 C 0.52332 0.46387 0.39263 0.0
C503 C 0.54074 0.50672 0.40428 0.0
C504 C 0.52442 0.46467 0.36239 0.0
C505 C 0.54339 0.50806 0.3433 0.0
C506 C 0.56064 0.55089 0.35477 0.0
H507 H 0.49861 0.57645 0.15348 0.0
H508 H 0.50558 0.58399 0.20559 0.0
C509 C 0.55937 0.55026 0.38496 0.0
C510 C 0.5439 0.50904 0.31128 0.0
H511 H 0.6253 0.51435 0.25212 0.0
C512 C 0.4959 0.50705 0.29689 0.0
C513 C 0.59119 0.51156 0.29506 0.0
C514 C 0.64385 0.51211 0.30967 0.0
C515 C 0.49391 0.50773 0.26658 0.0
C516 C 0.54115 0.51088 0.2503 0.0
C517 C 0.58919 0.51258 0.26469 0.0
C518 C 0.54137 0.50922 0.21858 0.0
C519 C 0.44141 0.5039 0.25224 0.0
C520 C 0.56074 0.46555 0.20868 0.0
C521 C 0.55677 0.4614 0.17917 0.0
C522 C 0.53375 0.50096 0.15914 0.0
C523 C 0.51655 0.54568 0.16873 0.0
C524 C 0.52024 0.54978 0.19834 0.0
H525 H 0.40961 0.49284 0.26859 0.0
H526 H 0.43143 0.54178 0.23893 0.0
H527 H 0.44286 0.47525 0.23732 0.0
H528 H 0.57734 0.43398 0.22397 0.0
H529 H 0.57052 0.42683 0.17197 0.0
loop_
_geom_bond_atom_site_label_1
_geom_bond_atom_site_label_2
_geom_bond_distance
_geom_bond_site_symmetry_2
_ccdc_geom_bond_type
O0 Zn1 1.953 . S
O0 C16 1.225 . S
Zn1 O0 1.953 . S
Zn1 O2 1.949 1_565 S
Zn1 O8 1.919 . S
Zn1 O13 1.924 1_565 S
O2 Zn1 1.949 1_545 S
O2 Zn3 1.923 1_544 S
O2 Zn4 1.950 1_455 S
O2 Zn5 1.945 1_554 S
Zn3 O2 1.923 1_566 S
Zn3 O6 1.933 . S
Zn3 O9 1.941 . S
Zn3 O10 1.965 1_456 S
Zn4 O2 1.950 1_655 S
Zn4 O11 1.938 1_545 S
Zn4 O12 1.906 . S
Zn4 O22 1.953 . S
Zn5 O2 1.945 1_556 S
Zn5 O7 1.932 . S
Zn5 O14 1.977 1_455 S
Zn5 O15 1.910 . S
O6 Zn3 1.933 . S
O6 C17 1.226 1_565 S
O7 Zn5 1.932 . S
O7 C17 1.307 . S
O8 Zn1 1.919 . S
O8 C19 1.253 . S
O9 Zn3 1.941 . S
O9 C19 1.283 1_556 S
O10 Zn3 1.965 1_654 S
O10 C18 1.303 . S
O11 Zn4 1.938 1_565 S
O11 C18 1.247 . S
O12 Zn4 1.906 . S
O12 C20 1.304 1_554 S
O13 Zn1 1.924 1_545 S
O13 C21 1.311 . S
O14 Zn5 1.977 1_655 S
O14 C20 1.272 . S
O15 Zn5 1.910 . S
O15 C21 1.231 1_556 S
C16 O0 1.225 . S
C16 O22 1.298 1_465 S
C17 O6 1.226 1_545 S
C17 O7 1.307 . S
C18 O10 1.303 . S
C18 O11 1.247 . S
C19 O8 1.253 . S
C19 O9 1.283 1_554 S
C20 O12 1.304 1_556 S
C20 O14 1.272 . S
C21 O13 1.311 . S
C21 O15 1.231 1_554 S
O22 Zn4 1.953 . S
O22 C16 1.298 1_645 S
O23 Zn24 1.953 . S
O23 C39 1.225 . S
Zn24 O23 1.953 . S
Zn24 O25 1.949 . S
Zn24 O31 1.919 . S
Zn24 O36 1.924 . S
O25 Zn24 1.949 . S
O25 Zn26 1.923 . S
O25 Zn27 1.950 . S
O25 Zn28 1.945 . S
Zn26 O25 1.923 . S
Zn26 O29 1.933 . S
Zn26 O32 1.941 . S
Zn26 O33 1.965 . S
Zn27 O25 1.950 . S
Zn27 O34 1.938 . S
Zn27 O35 1.906 . S
Zn27 O45 1.953 . S
Zn28 O25 1.945 . S
Zn28 O30 1.932 . S
Zn28 O37 1.977 . S
Zn28 O38 1.910 . S
O29 Zn26 1.933 . S
O29 C40 1.226 . S
O30 Zn28 1.932 . S
O30 C40 1.307 . S
O31 Zn24 1.919 . S
O31 C42 1.253 . S
O32 Zn26 1.941 . S
O32 C42 1.283 . S
O33 Zn26 1.965 . S
O33 C41 1.303 . S
O34 Zn27 1.938 . S
O34 C41 1.247 . S
O35 Zn27 1.906 . S
O35 C43 1.304 . S
O36 Zn24 1.924 . S
O36 C44 1.311 . S
O37 Zn28 1.977 . S
O37 C43 1.272 . S
O38 Zn28 1.910 . S
O38 C44 1.231 . S
C39 O23 1.225 . S
C39 O45 1.298 . S
C40 O29 1.226 . S
C40 O30 1.307 . S
C41 O33 1.303 . S
C41 O34 1.247 . S
C42 O31 1.253 . S
C42 O32 1.283 . S
C43 O35 1.304 . S
C43 O37 1.272 . S
C44 O36 1.311 . S
C44 O38 1.231 . S
O45 Zn27 1.953 . S
O45 C39 1.298 . S
C46 N47 1.317 1_545 S
C46 N48 1.348 1_455 S
C46 C49 1.485 1_545 S
N47 C46 1.317 1_565 S
N47 N51 1.370 1_565 S
N48 C46 1.348 1_655 S
N48 C50 1.346 . S
C49 C46 1.485 1_565 S
C49 H53 0.959 . S
C49 H54 0.961 1_565 S
C49 H55 0.960 . S
C50 N48 1.346 . S
C50 N51 1.307 1_655 S
C50 C52 1.486 . S
N51 N47 1.370 1_545 S
N51 C50 1.307 1_455 S
C52 C50 1.486 . S
C52 H56 0.960 . S
C52 H57 0.960 . S
C52 H58 0.959 . S
H53 C49 0.959 . S
H54 C49 0.961 1_545 S
H55 C49 0.960 . S
H56 C52 0.960 . S
H57 C52 0.960 . S
H58 C52 0.959 . S
C59 N60 1.317 . S
C59 N61 1.348 1_445 S
C59 C62 1.485 . S
N60 C59 1.317 . S
N60 N64 1.370 . S
N61 C59 1.348 1_665 S
N61 C63 1.346 . S
C62 C59 1.485 . S
C62 H66 0.960 . S
C62 H67 0.961 1_545 S
C62 H68 0.960 . S
C63 N61 1.346 . S
C63 N64 1.307 1_665 S
C63 C65 1.486 . S
N64 N60 1.370 . S
N64 C63 1.307 1_445 S
C65 C63 1.486 . S
C65 H69 0.960 . S
C65 H70 0.960 . S
C65 H71 0.959 . S
H66 C62 0.960 . S
H67 C62 0.961 1_565 S
H68 C62 0.960 . S
H69 C65 0.960 . S
H70 C65 0.960 . S
H71 C65 0.959 . S
C72 N73 1.317 . S
C72 N74 1.348 . S
C72 C75 1.485 . S
N73 C72 1.317 . S
N73 N77 1.370 . S
N74 C72 1.348 . S
N74 C76 1.346 . S
C75 C72 1.485 . S
C75 H79 0.960 . S
C75 H80 0.961 . S
C75 H81 0.960 . S
C76 N74 1.346 . S
C76 N77 1.307 . S
C76 C78 1.486 . S
N77 N73 1.370 . S
N77 C76 1.307 . S
C78 C76 1.486 . S
C78 H82 0.960 . S
C78 H83 0.960 . S
C78 H84 0.959 . S
H79 C75 0.960 . S
H80 C75 0.961 . S
H81 C75 0.960 . S
H82 C78 0.960 . S
H83 C78 0.960 . S
H84 C78 0.959 . S
C85 N86 1.317 . S
C85 N87 1.348 . S
C85 C88 1.485 . S
N86 C85 1.317 . S
N86 N90 1.370 . S
N87 C85 1.348 . S
N87 C89 1.346 . S
C88 C85 1.485 . S
C88 H92 0.960 . S
C88 H93 0.961 . S
C88 H94 0.960 . S
C89 N87 1.346 . S
C89 N90 1.307 . S
C89 C91 1.486 . S
N90 N86 1.370 . S
N90 C89 1.307 . S
C91 C89 1.486 . S
C91 H95 0.960 . S
C91 H96 0.960 . S
C91 H97 0.959 . S
H92 C88 0.960 . S
H93 C88 0.961 . S
H94 C88 0.960 . S
H95 C91 0.960 . S
H96 C91 0.960 . S
H97 C91 0.959 . S
H98 C106 0.929 . S
H99 C108 0.930 . S
H100 C110 0.930 . S
H101 C113 0.929 . S
H102 C116 0.930 . S
H103 C118 0.960 . S
H104 C118 0.960 . S
H105 C118 0.960 . S
C106 H98 0.929 . S
C106 C107 1.377 . S
C106 C108 1.384 . S
C107 C106 1.377 . S
C107 C113 1.390 . S
C108 H99 0.930 . S
C108 C106 1.384 . S
C108 C109 1.372 . S
C109 C108 1.372 . S
C109 C110 1.400 . S
C109 C114 1.490 . S
C110 H100 0.930 . S
C110 C109 1.400 . S
C110 C113 1.386 . S
H111 C127 0.930 . S
H112 C128 0.931 . S
C113 H101 0.929 . S
C113 C107 1.390 . S
C113 C110 1.386 . S
C114 C109 1.490 . S
C114 C116 1.395 . S
C114 C117 1.403 . S
H115 C121 0.930 . S
C116 H102 0.930 . S
C116 C114 1.395 . S
C116 C119 1.403 . S
C117 C114 1.403 . S
C117 C118 1.524 . S
C117 C121 1.400 . S
C118 H103 0.960 . S
C118 H104 0.960 . S
C118 H105 0.960 . S
C118 C117 1.524 . S
C119 C116 1.403 . S
C119 C120 1.392 . S
C119 C123 1.495 . S
C120 C119 1.392 . S
C120 C121 1.385 . S
C120 C122 1.478 . S
C121 H115 0.930 . S
C121 C117 1.400 . S
C121 C120 1.385 . S
C122 C120 1.478 . S
C122 C124 1.381 . S
C122 C128 1.383 . S
C123 C119 1.495 . S
C123 H129 0.959 . S
C123 H130 0.961 . S
C123 H131 0.960 . S
C124 C122 1.381 . S
C124 C125 1.394 . S
C124 H132 0.930 . S
C125 C124 1.394 . S
C125 C126 1.383 . S
C125 H133 0.929 . S
C126 C125 1.383 . S
C126 C127 1.377 . S
C127 H111 0.930 . S
C127 C126 1.377 . S
C127 C128 1.379 . S
C128 H112 0.931 . S
C128 C122 1.383 . S
C128 C127 1.379 . S
H129 C123 0.959 . S
H130 C123 0.961 . S
H131 C123 0.960 . S
H132 C124 0.930 . S
H133 C125 0.929 . S
H134 C142 0.929 . S
H135 C144 0.930 . S
H136 C146 0.930 . S
H137 C149 0.929 . S
H138 C152 0.930 . S
H139 C154 0.960 . S
H140 C154 0.960 . S
H141 C154 0.960 1_554 S
C142 H134 0.929 . S
C142 C143 1.377 . S
C142 C144 1.384 . S
C143 C142 1.377 . S
C143 C149 1.390 1_556 S
C144 H135 0.930 . S
C144 C142 1.384 . S
C144 C145 1.372 . S
C145 C144 1.372 . S
C145 C146 1.400 1_556 S
C145 C150 1.490 . S
C146 H136 0.930 . S
C146 C145 1.400 1_554 S
C146 C149 1.386 . S
H147 C163 0.930 . S
H148 C164 0.931 . S
C149 H137 0.929 . S
C149 C143 1.390 1_554 S
C149 C146 1.386 . S
C150 C145 1.490 . S
C150 C152 1.395 . S
C150 C153 1.403 . S
H151 C157 0.930 . S
C152 H138 0.930 . S
C152 C150 1.395 . S
C152 C155 1.403 . S
C153 C150 1.403 . S
C153 C154 1.524 . S
C153 C157 1.400 . S
C154 H139 0.960 . S
C154 H140 0.960 . S
C154 H141 0.960 1_556 S
C154 C153 1.524 . S
C155 C152 1.403 . S
C155 C156 1.392 . S
C155 C159 1.495 . S
C156 C155 1.392 . S
C156 C157 1.385 . S
C156 C158 1.478 . S
C157 H151 0.930 . S
C157 C153 1.400 . S
C157 C156 1.385 . S
C158 C156 1.478 . S
C158 C160 1.381 . S
C158 C164 1.383 . S
C159 C155 1.495 . S
C159 H165 0.959 . S
C159 H166 0.961 . S
C159 H167 0.960 . S
C160 C158 1.381 . S
C160 C161 1.394 . S
C160 H168 0.930 . S
C161 C160 1.394 . S
C161 C162 1.383 . S
C161 H169 0.929 . S
C162 C161 1.383 . S
C162 C163 1.377 . S
C163 H147 0.930 . S
C163 C162 1.377 . S
C163 C164 1.379 . S
C164 H148 0.931 . S
C164 C158 1.383 . S
C164 C163 1.379 . S
H165 C159 0.959 . S
H166 C159 0.961 . S
H167 C159 0.960 . S
H168 C160 0.930 . S
H169 C161 0.929 . S
H170 C178 0.929 . S
H171 C180 0.930 . S
H172 C182 0.930 . S
H173 C185 0.929 . S
H174 C188 0.930 . S
H175 C190 0.960 . S
H176 C190 0.960 . S
H177 C190 0.960 . S
C178 H170 0.929 . S
C178 C179 1.377 . S
C178 C180 1.384 . S
C179 C178 1.377 . S
C179 C185 1.390 . S
C180 H171 0.930 . S
C180 C178 1.384 . S
C180 C181 1.372 . S
C181 C180 1.372 . S
C181 C182 1.400 . S
C181 C186 1.490 . S
C182 H172 0.930 . S
C182 C181 1.400 . S
C182 C185 1.386 . S
H183 C199 0.930 . S
H184 C200 0.931 . S
C185 H173 0.929 . S
C185 C179 1.390 . S
C185 C182 1.386 . S
C186 C181 1.490 . S
C186 C188 1.395 . S
C186 C189 1.403 . S
H187 C193 0.930 . S
C188 H174 0.930 . S
C188 C186 1.395 . S
C188 C191 1.403 . S
C189 C186 1.403 . S
C189 C190 1.524 . S
C189 C193 1.400 . S
C190 H175 0.960 . S
C190 H176 0.960 . S
C190 H177 0.960 . S
C190 C189 1.524 . S
C191 C188 1.403 . S
C191 C192 1.392 . S
C191 C195 1.495 . S
C192 C191 1.392 . S
C192 C193 1.385 . S
C192 C194 1.478 . S
C193 H187 0.930 . S
C193 C189 1.400 . S
C193 C192 1.385 . S
C194 C192 1.478 . S
C194 C196 1.381 . S
C194 C200 1.383 . S
C195 C191 1.495 . S
C195 H201 0.959 . S
C195 H202 0.961 . S
C195 H203 0.960 . S
C196 C194 1.381 . S
C196 C197 1.394 . S
C196 H204 0.930 . S
C197 C196 1.394 . S
C197 C198 1.383 . S
C197 H205 0.929 . S
C198 C197 1.383 . S
C198 C199 1.377 . S
C199 H183 0.930 . S
C199 C198 1.377 . S
C199 C200 1.379 . S
C200 H184 0.931 . S
C200 C194 1.383 . S
C200 C199 1.379 . S
H201 C195 0.959 . S
H202 C195 0.961 . S
H203 C195 0.960 . S
H204 C196 0.930 . S
H205 C197 0.929 . S
H206 C214 0.929 . S
H207 C216 0.944 . S
H208 C218 0.930 . S
H209 C221 0.929 . S
H210 C224 0.930 . S
H211 C226 0.960 . S
H212 C226 0.960 . S
H213 C226 0.960 . S
C214 H206 0.929 . S
C214 C215 1.377 1_554 S
C214 C216 1.386 . S
C215 C214 1.377 1_556 S
C215 C221 1.390 . S
C216 H207 0.944 . S
C216 C214 1.386 . S
C216 C217 1.356 1_554 S
C217 C216 1.356 1_556 S
C217 C218 1.400 . S
C217 C222 1.490 . S
C218 H208 0.930 . S
C218 C217 1.400 . S
C218 C221 1.386 . S
H219 C235 0.930 . S
H220 C236 0.931 . S
C221 H209 0.929 . S
C221 C215 1.390 . S
C221 C218 1.386 . S
C222 C217 1.490 . S
C222 C224 1.395 . S
C222 C225 1.403 . S
H223 C229 0.930 . S
C224 H210 0.930 . S
C224 C222 1.395 . S
C224 C227 1.403 . S
C225 C222 1.403 . S
C225 C226 1.524 . S
C225 C229 1.400 . S
C226 H211 0.960 . S
C226 H212 0.960 . S
C226 H213 0.960 . S
C226 C225 1.524 . S
C227 C224 1.403 . S
C227 C228 1.392 . S
C227 C231 1.495 . S
C228 C227 1.392 . S
C228 C229 1.385 . S
C228 C230 1.478 . S
C229 H223 0.930 . S
C229 C225 1.400 . S
C229 C228 1.385 . S
C230 C228 1.478 . S
C230 C232 1.381 . S
C230 C236 1.383 . S
C231 C227 1.495 . S
C231 H237 0.959 1_556 S
C231 H238 0.961 . S
C231 H239 0.960 1_556 S
C232 C230 1.381 . S
C232 C233 1.394 . S
C232 H240 0.930 . S
C233 C232 1.394 . S
C233 C234 1.383 . S
C233 H241 0.929 . S
C234 C233 1.383 . S
C234 C235 1.377 . S
C235 H219 0.930 . S
C235 C234 1.377 . S
C235 C236 1.379 . S
C236 H220 0.931 . S
C236 C230 1.383 . S
C236 C235 1.379 . S
H237 C231 0.959 1_554 S
H238 C231 0.961 . S
H239 C231 0.960 1_554 S
H240 C232 0.930 . S
H241 C233 0.929 . S
H242 C250 0.929 . S
H243 C252 0.930 . S
H244 C254 0.930 . S
H245 C257 0.929 . S
H246 C260 0.930 . S
H247 C262 0.960 . S
H248 C262 0.960 . S
H249 C262 0.960 . S
C250 H242 0.929 . S
C250 C251 1.377 . S
C250 C252 1.384 . S
C251 C250 1.377 . S
C251 C257 1.390 . S
C252 H243 0.930 . S
C252 C250 1.384 . S
C252 C253 1.372 . S
C253 C252 1.372 . S
C253 C254 1.400 . S
C253 C258 1.490 . S
C254 H244 0.930 . S
C254 C253 1.400 . S
C254 C257 1.386 . S
H255 C271 0.930 . S
H256 C272 0.931 . S
C257 H245 0.929 . S
C257 C251 1.390 . S
C257 C254 1.386 . S
C258 C253 1.490 . S
C258 C260 1.395 . S
C258 C261 1.403 . S
H259 C265 0.930 . S
C260 H246 0.930 . S
C260 C258 1.395 . S
C260 C263 1.403 . S
C261 C258 1.403 . S
C261 C262 1.524 . S
C261 C265 1.400 . S
C262 H247 0.960 . S
C262 H248 0.960 . S
C262 H249 0.960 . S
C262 C261 1.524 . S
C263 C260 1.403 . S
C263 C264 1.392 . S
C263 C267 1.495 . S
C264 C263 1.392 . S
C264 C265 1.385 . S
C264 C266 1.478 . S
C265 H259 0.930 . S
C265 C261 1.400 . S
C265 C264 1.385 . S
C266 C264 1.478 . S
C266 C268 1.381 . S
C266 C272 1.383 . S
C267 C263 1.495 . S
C267 H273 0.959 . S
C267 H274 0.961 . S
C267 H275 0.960 . S
C268 C266 1.381 . S
C268 C269 1.394 . S
C268 H276 0.930 . S
C269 C268 1.394 . S
C269 C270 1.383 . S
C269 H277 0.929 . S
C270 C269 1.383 . S
C270 C271 1.377 . S
C271 H255 0.930 . S
C271 C270 1.377 . S
C271 C272 1.379 . S
C272 H256 0.931 . S
C272 C266 1.383 . S
C272 C271 1.379 . S
H273 C267 0.959 . S
H274 C267 0.961 . S
H275 C267 0.960 . S
H276 C268 0.930 . S
H277 C269 0.929 . S
H278 C286 0.929 . S
H279 C288 0.930 . S
H280 C290 0.930 . S
H281 C293 0.929 . S
H282 C296 0.930 . S
H283 C298 0.960 . S
H284 C298 0.960 . S
H285 C298 0.960 . S
C286 H278 0.929 . S
C286 C287 1.377 . S
C286 C288 1.384 . S
C287 C286 1.377 . S
C287 C293 1.390 . S
C288 H279 0.930 . S
C288 C286 1.384 . S
C288 C289 1.372 . S
C289 C288 1.372 . S
C289 C290 1.400 . S
C289 C294 1.490 . S
C290 H280 0.930 . S
C290 C289 1.400 . S
C290 C293 1.386 . S
H291 C307 0.930 . S
H292 C308 0.931 . S
C293 H281 0.929 . S
C293 C287 1.390 . S
C293 C290 1.386 . S
C294 C289 1.490 . S
C294 C296 1.395 . S
C294 C297 1.403 . S
H295 C301 0.930 . S
C296 H282 0.930 . S
C296 C294 1.395 . S
C296 C299 1.403 . S
C297 C294 1.403 . S
C297 C298 1.524 . S
C297 C301 1.400 . S
C298 H283 0.960 . S
C298 H284 0.960 . S
C298 H285 0.960 . S
C298 C297 1.524 . S
C299 C296 1.403 . S
C299 C300 1.392 . S
C299 C303 1.495 . S
C300 C299 1.392 . S
C300 C301 1.385 . S
C300 C302 1.478 . S
C301 H295 0.930 . S
C301 C297 1.400 . S
C301 C300 1.385 . S
C302 C300 1.478 . S
C302 C304 1.381 . S
C302 C308 1.383 . S
C303 C299 1.495 . S
C303 H309 0.959 . S
C303 H310 0.961 . S
C303 H311 0.960 . S
C304 C302 1.381 . S
C304 C305 1.394 . S
C304 H312 0.930 . S
C305 C304 1.394 . S
C305 C306 1.383 . S
C305 H313 0.929 . S
C306 C305 1.383 . S
C306 C307 1.377 . S
C307 H291 0.930 . S
C307 C306 1.377 . S
C307 C308 1.379 . S
C308 H292 0.931 . S
C308 C302 1.383 . S
C308 C307 1.379 . S
H309 C303 0.959 . S
H310 C303 0.961 . S
H311 C303 0.960 . S
H312 C304 0.930 . S
H313 C305 0.929 . S
H314 C322 0.929 . S
H315 C324 0.930 . S
H316 C326 0.930 . S
H317 C329 0.929 . S
H318 C332 0.930 . S
H319 C334 0.960 . S
H320 C334 0.960 . S
H321 C334 0.960 . S
C322 H314 0.929 . S
C322 C323 1.377 . S
C322 C324 1.384 . S
C323 C322 1.377 . S
C323 C329 1.390 . S
C324 H315 0.930 . S
C324 C322 1.384 . S
C324 C325 1.372 . S
C325 C324 1.372 . S
C325 C326 1.400 . S
C325 C330 1.490 . S
C326 H316 0.930 . S
C326 C325 1.400 . S
C326 C329 1.386 . S
H327 C343 0.930 . S
H328 C344 0.931 . S
C329 H317 0.929 . S
C329 C323 1.390 . S
C329 C326 1.386 . S
C330 C325 1.490 . S
C330 C332 1.395 . S
C330 C333 1.403 . S
H331 C337 0.930 . S
C332 H318 0.930 . S
C332 C330 1.395 . S
C332 C335 1.403 . S
C333 C330 1.403 . S
C333 C334 1.524 . S
C333 C337 1.400 . S
C334 H319 0.960 . S
C334 H320 0.960 . S
C334 H321 0.960 . S
C334 C333 1.524 . S
C335 C332 1.403 . S
C335 C336 1.392 . S
C335 C339 1.495 . S
C336 C335 1.392 . S
C336 C337 1.385 . S
C336 C338 1.478 . S
C337 H331 0.930 . S
C337 C333 1.400 . S
C337 C336 1.385 . S
C338 C336 1.478 . S
C338 C340 1.381 . S
C338 C344 1.383 . S
C339 C335 1.495 . S
C339 H345 0.959 . S
C339 H346 0.961 . S
C339 H347 0.960 . S
C340 C338 1.381 . S
C340 C341 1.394 . S
C340 H348 0.930 . S
C341 C340 1.394 . S
C341 C342 1.383 . S
C341 H349 0.929 . S
C342 C341 1.383 . S
C342 C343 1.377 . S
C343 H327 0.930 . S
C343 C342 1.377 . S
C343 C344 1.379 . S
C344 H328 0.931 . S
C344 C338 1.383 . S
C344 C343 1.379 . S
H345 C339 0.959 . S
H346 C339 0.961 . S
H347 C339 0.960 . S
H348 C340 0.930 . S
H349 C341 0.929 . S
H350 C358 0.929 . S
H351 C360 0.930 . S
H352 C362 0.930 . S
H353 C365 0.929 . S
H354 C368 0.930 . S
H355 C370 0.960 . S
H356 C370 0.960 . S
H357 C370 0.960 . S
C358 H350 0.929 . S
C358 C359 1.377 . S
C358 C360 1.384 . S
C359 C358 1.377 . S
C359 C365 1.390 . S
C360 H351 0.930 . S
C360 C358 1.384 . S
C360 C361 1.372 . S
C361 C360 1.372 . S
C361 C362 1.400 . S
C361 C366 1.490 . S
C362 H352 0.930 . S
C362 C361 1.400 . S
C362 C365 1.386 . S
H363 C379 0.930 . S
H364 C380 0.931 . S
C365 H353 0.929 . S
C365 C359 1.390 . S
C365 C362 1.386 . S
C366 C361 1.490 . S
C366 C368 1.395 . S
C366 C369 1.403 . S
H367 C373 0.930 . S
C368 H354 0.930 . S
C368 C366 1.395 . S
C368 C371 1.403 . S
C369 C366 1.403 . S
C369 C370 1.524 . S
C369 C373 1.400 . S
C370 H355 0.960 . S
C370 H356 0.960 . S
C370 H357 0.960 . S
C370 C369 1.524 . S
C371 C368 1.403 . S
C371 C372 1.392 . S
C371 C375 1.495 . S
C372 C371 1.392 . S
C372 C373 1.385 . S
C372 C374 1.478 . S
C373 H367 0.930 . S
C373 C369 1.400 . S
C373 C372 1.385 . S
C374 C372 1.478 . S
C374 C376 1.381 . S
C374 C380 1.383 . S
C375 C371 1.495 . S
C375 H381 0.959 . S
C375 H382 0.961 . S
C375 H383 0.960 . S
C376 C374 1.381 . S
C376 C377 1.394 . S
C376 H384 0.930 . S
C377 C376 1.394 . S
C377 C378 1.383 . S
C377 H385 0.929 . S
C378 C377 1.383 . S
C378 C379 1.377 . S
C379 H363 0.930 . S
C379 C378 1.377 . S
C379 C380 1.379 . S
C380 H364 0.931 . S
C380 C374 1.383 . S
C380 C379 1.379 . S
H381 C375 0.959 . S
H382 C375 0.961 . S
H383 C375 0.960 . S
H384 C376 0.930 . S
H385 C377 0.929 . S
H386 C394 0.929 . S
H387 C396 0.930 . S
H388 C398 0.930 . S
H389 C401 0.929 . S
H390 C404 0.930 . S
H391 C406 0.960 . S
H392 C406 0.960 . S
H393 C406 0.960 . S
C394 H386 0.929 . S
C394 C395 1.377 . S
C394 C396 1.384 . S
C395 C394 1.377 . S
C395 C401 1.390 1_565 S
C396 H387 0.930 . S
C396 C394 1.384 . S
C396 C397 1.372 . S
C397 C396 1.372 . S
C397 C398 1.400 1_565 S
C397 C402 1.490 . S
C398 H388 0.930 . S
C398 C397 1.400 1_545 S
C398 C401 1.386 . S
H399 C415 0.930 . S
H400 C416 0.931 . S
C401 H389 0.929 . S
C401 C395 1.390 1_545 S
C401 C398 1.386 . S
C402 C397 1.490 . S
C402 C404 1.395 . S
C402 C405 1.403 1_465 S
H403 C409 0.930 . S
C404 H390 0.930 . S
C404 C402 1.395 . S
C404 C407 1.403 . S
C405 C402 1.403 1_645 S
C405 C406 1.524 . S
C405 C409 1.400 . S
C406 H391 0.960 . S
C406 H392 0.960 . S
C406 H393 0.960 . S
C406 C405 1.524 . S
C407 C404 1.403 . S
C407 C408 1.392 . S
C407 C411 1.495 . S
C408 C407 1.392 . S
C408 C409 1.385 1_465 S
C408 C410 1.478 . S
C409 H403 0.930 . S
C409 C405 1.400 . S
C409 C408 1.385 1_645 S
C410 C408 1.478 . S
C410 C412 1.381 . S
C410 C416 1.383 1_565 S
C411 C407 1.495 . S
C411 H417 0.959 . S
C411 H418 0.961 . S
C411 H419 0.960 . S
C412 C410 1.381 . S
C412 C413 1.394 . S
C412 H420 0.930 . S
C413 C412 1.394 . S
C413 C414 1.383 . S
C413 H421 0.929 . S
C414 C413 1.383 . S
C414 C415 1.377 1_565 S
C415 H399 0.930 . S
C415 C414 1.377 1_545 S
C415 C416 1.379 . S
C416 H400 0.931 . S
C416 C410 1.383 1_545 S
C416 C415 1.379 . S
H417 C411 0.959 . S
H418 C411 0.961 . S
H419 C411 0.960 . S
H420 C412 0.930 . S
H421 C413 0.929 . S
H422 C430 0.929 . S
H423 C432 0.933 . S
H424 C434 0.930 . S
H425 C437 0.929 . S
H426 C440 0.930 . S
H427 C442 0.960 . S
H428 C442 0.960 . S
H429 C442 0.960 . S
C430 H422 0.929 . S
C430 C431 1.377 1_655 S
C430 C432 1.384 . S
C431 C430 1.377 1_455 S
C431 C437 1.390 . S
C432 H423 0.933 . S
C432 C430 1.384 . S
C432 C433 1.372 1_655 S
C433 C432 1.372 1_455 S
C433 C434 1.400 . S
C433 C438 1.490 . S
C434 H424 0.930 . S
C434 C433 1.400 . S
C434 C437 1.386 . S
H435 C451 0.930 . S
H436 C452 0.931 . S
C437 H425 0.929 . S
C437 C431 1.390 . S
C437 C434 1.386 . S
C438 C433 1.490 . S
C438 C440 1.395 1_455 S
C438 C441 1.403 1_545 S
H439 C445 0.930 . S
C440 H426 0.930 . S
C440 C438 1.395 1_655 S
C440 C443 1.403 . S
C441 C438 1.403 1_565 S
C441 C442 1.524 . S
C441 C445 1.400 . S
C442 H427 0.960 . S
C442 H428 0.960 . S
C442 H429 0.960 . S
C442 C441 1.524 . S
C443 C440 1.403 . S
C443 C444 1.392 1_655 S
C443 C447 1.495 . S
C444 C443 1.392 1_455 S
C444 C445 1.385 1_545 S
C444 C446 1.478 . S
C445 H439 0.930 . S
C445 C441 1.400 . S
C445 C444 1.385 1_565 S
C446 C444 1.478 . S
C446 C448 1.381 1_455 S
C446 C452 1.383 . S
C447 C443 1.495 . S
C447 H453 0.959 . S
C447 H454 0.961 . S
C447 H455 0.960 . S
C448 C446 1.381 1_655 S
C448 C449 1.394 . S
C448 H456 0.930 1_545 S
C449 C448 1.394 . S
C449 C450 1.383 1_655 S
C449 H457 0.929 1_545 S
C450 C449 1.383 1_455 S
C450 C451 1.377 . S
C451 H435 0.930 . S
C451 C450 1.377 . S
C451 C452 1.379 . S
C452 H436 0.931 . S
C452 C446 1.383 . S
C452 C451 1.379 . S
H453 C447 0.959 . S
H454 C447 0.961 . S
H455 C447 0.960 . S
H456 C448 0.930 1_565 S
H457 C449 0.929 1_565 S
H458 C466 0.929 . S
H459 C468 0.930 . S
H460 C470 0.930 . S
H461 C473 0.929 . S
H462 C476 0.930 . S
H463 C478 0.960 . S
H464 C478 0.960 . S
H465 C478 0.960 . S
C466 H458 0.929 . S
C466 C467 1.377 . S
C466 C468 1.384 . S
C467 C466 1.377 . S
C467 C473 1.390 . S
C468 H459 0.930 . S
C468 C466 1.384 . S
C468 C469 1.372 . S
C469 C468 1.372 . S
C469 C470 1.400 . S
C469 C474 1.490 . S
C470 H460 0.930 . S
C470 C469 1.400 . S
C470 C473 1.386 . S
H471 C487 0.930 . S
H472 C488 0.931 . S
C473 H461 0.929 . S
C473 C467 1.390 . S
C473 C470 1.386 . S
C474 C469 1.490 . S
C474 C476 1.395 . S
C474 C477 1.403 . S
H475 C481 0.930 . S
C476 H462 0.930 . S
C476 C474 1.395 . S
C476 C479 1.403 . S
C477 C474 1.403 . S
C477 C478 1.524 . S
C477 C481 1.400 . S
C478 H463 0.960 . S
C478 H464 0.960 . S
C478 H465 0.960 . S
C478 C477 1.524 . S
C479 C476 1.403 . S
C479 C480 1.392 . S
C479 C483 1.495 . S
C480 C479 1.392 . S
C480 C481 1.385 . S
C480 C482 1.478 . S
C481 H475 0.930 . S
C481 C477 1.400 . S
C481 C480 1.385 . S
C482 C480 1.478 . S
C482 C484 1.381 . S
C482 C488 1.383 . S
C483 C479 1.495 . S
C483 H489 0.959 . S
C483 H490 0.961 . S
C483 H491 0.960 . S
C484 C482 1.381 . S
C484 C485 1.394 . S
C484 H492 0.930 . S
C485 C484 1.394 . S
C485 C486 1.383 . S
C485 H493 0.929 . S
C486 C485 1.383 . S
C486 C487 1.377 . S
C487 H471 0.930 . S
C487 C486 1.377 . S
C487 C488 1.379 . S
C488 H472 0.931 . S
C488 C482 1.383 . S
C488 C487 1.379 . S
H489 C483 0.959 . S
H490 C483 0.961 . S
H491 C483 0.960 . S
H492 C484 0.930 . S
H493 C485 0.929 . S
H494 C502 0.929 . S
H495 C504 0.930 . S
H496 C506 0.930 . S
H497 C509 0.929 . S
H498 C512 0.930 . S
H499 C514 0.960 . S
H500 C514 0.960 . S
H501 C514 0.960 . S
C502 H494 0.929 . S
C502 C503 1.377 . S
C502 C504 1.384 . S
C503 C502 1.377 . S
C503 C509 1.390 . S
C504 H495 0.930 . S
C504 C502 1.384 . S
C504 C505 1.372 . S
C505 C504 1.372 . S
C505 C506 1.400 . S
C505 C510 1.490 . S
C506 H496 0.930 . S
C506 C505 1.400 . S
C506 C509 1.386 . S
H507 C523 0.930 . S
H508 C524 0.931 . S
C509 H497 0.929 . S
C509 C503 1.390 . S
C509 C506 1.386 . S
C510 C505 1.490 . S
C510 C512 1.395 . S
C510 C513 1.403 . S
H511 C517 0.930 . S
C512 H498 0.930 . S
C512 C510 1.395 . S
C512 C515 1.403 . S
C513 C510 1.403 . S
C513 C514 1.524 . S
C513 C517 1.400 . S
C514 H499 0.960 . S
C514 H500 0.960 . S
C514 H501 0.960 . S
C514 C513 1.524 . S
C515 C512 1.403 . S
C515 C516 1.392 . S
C515 C519 1.495 . S
C516 C515 1.392 . S
C516 C517 1.385 . S
C516 C518 1.478 . S
C517 H511 0.930 . S
C517 C513 1.400 . S
C517 C516 1.385 . S
C518 C516 1.478 . S
C518 C520 1.381 . S
C518 C524 1.383 . S
C519 C515 1.495 . S
C519 H525 0.959 . S
C519 H526 0.961 . S
C519 H527 0.960 . S
C520 C518 1.381 . S
C520 C521 1.394 . S
C520 H528 0.930 . S
C521 C520 1.394 . S
C521 C522 1.383 . S
C521 H529 0.929 . S
C522 C521 1.383 . S
C522 C523 1.377 . S
C523 H507 0.930 . S
C523 C522 1.377 . S
C523 C524 1.379 . S
C524 H508 0.931 . S
C524 C518 1.383 . S
C524 C523 1.379 . S
H525 C519 0.959 . S
H526 C519 0.961 . S
H527 C519 0.960 . S
H528 C520 0.930 . S
H529 C521 0.929 . S
C126 N87 1.359 . S
C107 C21 1.359 . S
C143 C19 1.353 1_556 S
C162 N74 1.346 . S
C179 C18 1.486 . S
C198 N86 1.511 . S
C215 C20 1.516 . S
C234 N73 1.509 . S
C251 C44 1.360 . S
C270 N61 1.348 . S
C287 C42 1.350 . S
C306 N48 1.345 . S
C342 N60 1.510 . S
C323 C41 1.485 . S
C378 N47 1.524 . S
C359 C43 1.517 . S
C395 C16 1.531 . S
C414 N51 1.523 1_565 S
C431 C17 1.491 . S
C450 N64 1.477 . S
C486 N77 1.521 . S
C467 C39 1.531 . S
C503 C40 1.493 . S
C522 N90 1.459 . S
