# Generated by pormake.
# Topology llk, (3,12)-cn, num edge types: 1
# Building blocks:
#     Node 0, Type 0, BuildingBlock: ESEHIV_clean_linker_0, # of connection points: 3
#     Node 1, Type 0, BuildingBlock: ESEHIV_clean_linker_0, # of connection points: 3
#     Node 2, Type 0, BuildingBlock: ESEHIV_clean_linker_0, # of connection points: 3
#     Node 3, Type 0, BuildingBlock: ESEHIV_clean_linker_0, # of connection points: 3
#     Node 4, Type 0, BuildingBlock: ESEHIV_clean_linker_0, # of connection points: 3
#     Node 5, Type 0, BuildingBlock: ESEHIV_clean_linker_0, # of connection points: 3
#     Node 6, Type 0, BuildingBlock: ESEHIV_clean_linker_0, # of connection points: 3
#     Node 7, Type 0, BuildingBlock: ESEHIV_clean_linker_0, # of connection points: 3
#     Node 8, Type 0, BuildingBlock: ESEHIV_clean_linker_0, # of connection points: 3
#     Node 9, Type 0, BuildingBlock: ESEHIV_clean_linker_0, # of connection points: 3
#     Node 10, Type 0, BuildingBlock: ESEHIV_clean_linker_0, # of connection points: 3
#     Node 11, Type 0, BuildingBlock: ESEHIV_clean_linker_0, # of connection points: 3
#     Node 12, Type 0, BuildingBlock: ESEHIV_clean_linker_0, # of connection points: 3
#     Node 13, Type 0, BuildingBlock: ESEHIV_clean_linker_0, # of connection points: 3
#     Node 14, Type 0, BuildingBlock: ESEHIV_clean_linker_0, # of connection points: 3
#     Node 15, Type 0, BuildingBlock: ESEHIV_clean_linker_0, # of connection points: 3
#     Node 16, Type 0, BuildingBlock: ESEHIV_clean_linker_0, # of connection points: 3
#     Node 17, Type 0, BuildingBlock: ESEHIV_clean_linker_0, # of connection points: 3
#     Node 18, Type 0, BuildingBlock: ESEHIV_clean_linker_0, # of connection points: 3
#     Node 19, Type 0, BuildingBlock: ESEHIV_clean_linker_0, # of connection points: 3
#     Node 20, Type 0, BuildingBlock: ESEHIV_clean_linker_0, # of connection points: 3
#     Node 21, Type 0, BuildingBlock: ESEHIV_clean_linker_0, # of connection points: 3
#     Node 22, Type 0, BuildingBlock: ESEHIV_clean_linker_0, # of connection points: 3
#     Node 23, Type 0, BuildingBlock: ESEHIV_clean_linker_0, # of connection points: 3
#     Node 24, Type 1, BuildingBlock: EZIPEK_clean_sbu_0, # of connection points: 12
#     Node 25, Type 1, BuildingBlock: EZIPEK_clean_sbu_0, # of connection points: 12
#     Node 26, Type 1, BuildingBlock: EZIPEK_clean_sbu_0, # of connection points: 12
#     Node 27, Type 1, BuildingBlock: EZIPEK_clean_sbu_0, # of connection points: 12
#     Node 28, Type 1, BuildingBlock: EZIPEK_clean_sbu_0, # of connection points: 12
#     Node 29, Type 1, BuildingBlock: EZIPEK_clean_sbu_0, # of connection points: 12
#     Edge 30, Type (0, 1), BuildingBlock: EZIPEK_clean_linker_0, # of connection points: 2
#     Edge 31, Type (0, 1), BuildingBlock: EZIPEK_clean_linker_0, # of connection points: 2
#     Edge 32, Type (0, 1), BuildingBlock: EZIPEK_clean_linker_0, # of connection points: 2
#     Edge 33, Type (0, 1), BuildingBlock: EZIPEK_clean_linker_0, # of connection points: 2
#     Edge 34, Type (0, 1), BuildingBlock: EZIPEK_clean_linker_0, # of connection points: 2
#     Edge 35, Type (0, 1), BuildingBlock: EZIPEK_clean_linker_0, # of connection points: 2
#     Edge 36, Type (0, 1), BuildingBlock: EZIPEK_clean_linker_0, # of connection points: 2
#     Edge 37, Type (0, 1), BuildingBlock: EZIPEK_clean_linker_0, # of connection points: 2
#     Edge 38, Type (0, 1), BuildingBlock: EZIPEK_clean_linker_0, # of connection points: 2
#     Edge 39, Type (0, 1), BuildingBlock: EZIPEK_clean_linker_0, # of connection points: 2
#     Edge 40, Type (0, 1), BuildingBlock: EZIPEK_clean_linker_0, # of connection points: 2
#     Edge 41, Type (0, 1), BuildingBlock: EZIPEK_clean_linker_0, # of connection points: 2
#     Edge 42, Type (0, 1), BuildingBlock: EZIPEK_clean_linker_0, # of connection points: 2
#     Edge 43, Type (0, 1), BuildingBlock: EZIPEK_clean_linker_0, # of connection points: 2
#     Edge 44, Type (0, 1), BuildingBlock: EZIPEK_clean_linker_0, # of connection points: 2
#     Edge 45, Type (0, 1), BuildingBlock: EZIPEK_clean_linker_0, # of connection points: 2
#     Edge 46, Type (0, 1), BuildingBlock: EZIPEK_clean_linker_0, # of connection points: 2
#     Edge 47, Type (0, 1), BuildingBlock: EZIPEK_clean_linker_0, # of connection points: 2
#     Edge 48, Type (0, 1), BuildingBlock: EZIPEK_clean_linker_0, # of connection points: 2
#     Edge 49, Type (0, 1), BuildingBlock: EZIPEK_clean_linker_0, # of connection points: 2
#     Edge 50, Type (0, 1), BuildingBlock: EZIPEK_clean_linker_0, # of connection points: 2
#     Edge 51, Type (0, 1), BuildingBlock: EZIPEK_clean_linker_0, # of connection points: 2
#     Edge 52, Type (0, 1), BuildingBlock: EZIPEK_clean_linker_0, # of connection points: 2
#     Edge 53, Type (0, 1), BuildingBlock: EZIPEK_clean_linker_0, # of connection points: 2
#     Edge 54, Type (0, 1), BuildingBlock: EZIPEK_clean_linker_0, # of connection points: 2
#     Edge 55, Type (0, 1), BuildingBlock: EZIPEK_clean_linker_0, # of connection points: 2
#     Edge 56, Type (0, 1), BuildingBlock: EZIPEK_clean_linker_0, # of connection points: 2
#     Edge 57, Type (0, 1), BuildingBlock: EZIPEK_clean_linker_0, # of connection points: 2
#     Edge 58, Type (0, 1), BuildingBlock: EZIPEK_clean_linker_0, # of connection points: 2
#     Edge 59, Type (0, 1), BuildingBlock: EZIPEK_clean_linker_0, # of connection points: 2
#     Edge 60, Type (0, 1), BuildingBlock: EZIPEK_clean_linker_0, # of connection points: 2
#     Edge 61, Type (0, 1), BuildingBlock: EZIPEK_clean_linker_0, # of connection points: 2
#     Edge 62, Type (0, 1), BuildingBlock: EZIPEK_clean_linker_0, # of connection points: 2
#     Edge 63, Type (0, 1), BuildingBlock: EZIPEK_clean_linker_0, # of connection points: 2
#     Edge 64, Type (0, 1), BuildingBlock: EZIPEK_clean_linker_0, # of connection points: 2
#     Edge 65, Type (0, 1), BuildingBlock: EZIPEK_clean_linker_0, # of connection points: 2
#     Edge 66, Type (0, 1), BuildingBlock: EZIPEK_clean_linker_0, # of connection points: 2
#     Edge 67, Type (0, 1), BuildingBlock: EZIPEK_clean_linker_0, # of connection points: 2
#     Edge 68, Type (0, 1), BuildingBlock: EZIPEK_clean_linker_0, # of connection points: 2
#     Edge 69, Type (0, 1), BuildingBlock: EZIPEK_clean_linker_0, # of connection points: 2
#     Edge 70, Type (0, 1), BuildingBlock: EZIPEK_clean_linker_0, # of connection points: 2
#     Edge 71, Type (0, 1), BuildingBlock: EZIPEK_clean_linker_0, # of connection points: 2
#     Edge 72, Type (0, 1), BuildingBlock: EZIPEK_clean_linker_0, # of connection points: 2
#     Edge 73, Type (0, 1), BuildingBlock: EZIPEK_clean_linker_0, # of connection points: 2
#     Edge 74, Type (0, 1), BuildingBlock: EZIPEK_clean_linker_0, # of connection points: 2
#     Edge 75, Type (0, 1), BuildingBlock: EZIPEK_clean_linker_0, # of connection points: 2
#     Edge 76, Type (0, 1), BuildingBlock: EZIPEK_clean_linker_0, # of connection points: 2
#     Edge 77, Type (0, 1), BuildingBlock: EZIPEK_clean_linker_0, # of connection points: 2
#     Edge 78, Type (0, 1), BuildingBlock: EZIPEK_clean_linker_0, # of connection points: 2
#     Edge 79, Type (0, 1), BuildingBlock: EZIPEK_clean_linker_0, # of connection points: 2
#     Edge 80, Type (0, 1), BuildingBlock: EZIPEK_clean_linker_0, # of connection points: 2
#     Edge 81, Type (0, 1), BuildingBlock: EZIPEK_clean_linker_0, # of connection points: 2
#     Edge 82, Type (0, 1), BuildingBlock: EZIPEK_clean_linker_0, # of connection points: 2
#     Edge 83, Type (0, 1), BuildingBlock: EZIPEK_clean_linker_0, # of connection points: 2
#     Edge 84, Type (0, 1), BuildingBlock: EZIPEK_clean_linker_0, # of connection points: 2
#     Edge 85, Type (0, 1), BuildingBlock: EZIPEK_clean_linker_0, # of connection points: 2
#     Edge 86, Type (0, 1), BuildingBlock: EZIPEK_clean_linker_0, # of connection points: 2
#     Edge 87, Type (0, 1), BuildingBlock: EZIPEK_clean_linker_0, # of connection points: 2
#     Edge 88, Type (0, 1), BuildingBlock: EZIPEK_clean_linker_0, # of connection points: 2
#     Edge 89, Type (0, 1), BuildingBlock: EZIPEK_clean_linker_0, # of connection points: 2
#     Edge 90, Type (0, 1), BuildingBlock: EZIPEK_clean_linker_0, # of connection points: 2
#     Edge 91, Type (0, 1), BuildingBlock: EZIPEK_clean_linker_0, # of connection points: 2
#     Edge 92, Type (0, 1), BuildingBlock: EZIPEK_clean_linker_0, # of connection points: 2
#     Edge 93, Type (0, 1), BuildingBlock: EZIPEK_clean_linker_0, # of connection points: 2
#     Edge 94, Type (0, 1), BuildingBlock: EZIPEK_clean_linker_0, # of connection points: 2
#     Edge 95, Type (0, 1), BuildingBlock: EZIPEK_clean_linker_0, # of connection points: 2
#     Edge 96, Type (0, 1), BuildingBlock: EZIPEK_clean_linker_0, # of connection points: 2
#     Edge 97, Type (0, 1), BuildingBlock: EZIPEK_clean_linker_0, # of connection points: 2
#     Edge 98, Type (0, 1), BuildingBlock: EZIPEK_clean_linker_0, # of connection points: 2
#     Edge 99, Type (0, 1), BuildingBlock: EZIPEK_clean_linker_0, # of connection points: 2
#     Edge 100, Type (0, 1), BuildingBlock: EZIPEK_clean_linker_0, # of connection points: 2
#     Edge 101, Type (0, 1), BuildingBlock: EZIPEK_clean_linker_0, # of connection points: 2
# Relax obj value: 0.107
# Max RMSD: 0.160
# Mean RMSD: 0.134
data_MOF--net-llk--node1-EZIPEK_clean_sbu_0--node2-ESEHIV_clean_linker_0--edge1-EZIPEK_clean_linker_0
_symmetry_space_group_name_H-M    P1
_symmetry_Int_Tables_number       1
_symmetry_cell_setting            triclinic
loop_
_symmetry_equiv_pos_as_xyz
'x, y, z'
_cell_length_a     32.801335
_cell_length_b     32.853705
_cell_length_c     32.900855
_cell_angle_alpha  90.039479
_cell_angle_beta   89.939518
_cell_angle_gamma 90.109087
loop_
_atom_site_label
_atom_site_type_symbol
_atom_site_fract_x
_atom_site_fract_y
_atom_site_fract_z
_atom_type_partial_charge
H0 H 0.98505 0.24166 0.33555 0.0
H1 H 0.97075 0.32676 0.23956 0.0
H2 H 0.03767 0.21527 0.2183 0.0
C3 C 0.98836 0.24852 0.30338 0.0
C4 C 1.0093 0.22154 0.27847 0.0
C5 C 0.9777 0.28677 0.28971 0.0
C6 C 0.9801 0.29643 0.24889 0.0
C7 C 1.00366 0.27271 0.22276 0.0
C8 C 0.01869 0.23413 0.23749 0.0
H9 H 0.68933 0.98422 0.24318 0.0
H10 H 0.77721 0.99021 0.33776 0.0
H11 H 0.80138 0.05099 0.22365 0.0
C12 C 0.72005 0.99257 0.25244 0.0
C13 C 0.74382 0.0169 0.22714 0.0
C14 C 0.73115 0.98615 0.29242 0.0
C15 C 0.76974 0.99606 0.30612 0.0
C16 C 0.7959 0.01953 0.2823 0.0
C17 C 0.78268 0.03108 0.2421 0.0
H18 H 0.02797 0.77445 0.33851 0.0
H19 H 0.04176 0.69091 0.24086 0.0
H20 H 0.9796 0.8052 0.22049 0.0
C21 C 0.0249 0.76827 0.3062 0.0
C22 C 1.0061 0.79667 0.28116 0.0
C23 C 0.03537 0.73022 0.29169 0.0
C24 C 0.03286 0.72121 0.25077 0.0
C25 C 0.01045 0.74607 0.2249 0.0
C26 C 0.99702 0.7851 0.23984 0.0
H27 H 0.24094 0.03343 0.3363 0.0
H28 H 0.33097 0.04252 0.24387 0.0
H29 H 0.2174 0.98052 0.21822 0.0
C30 C 0.24887 0.02927 0.30447 0.0
C31 C 0.22267 1.00785 0.27895 0.0
C32 C 0.28804 0.03864 0.29214 0.0
C33 C 0.29981 0.0346 0.25201 0.0
C34 C 0.27567 0.01298 0.22468 0.0
C35 C 0.23623 0.99875 0.23818 0.0
H36 H 0.98421 0.77054 0.68404 0.0
H37 H 0.99101 0.67865 0.77456 0.0
H38 H 0.02627 0.80199 0.80468 0.0
C39 C 0.98935 0.7629 0.71577 0.0
C40 C 1.00434 0.79219 0.74243 0.0
C41 C 0.98711 0.72257 0.72724 0.0
C42 C 0.99324 0.71079 0.76699 0.0
C43 C 1.00708 0.73856 0.7958 0.0
C44 C 0.01366 0.78016 0.78349 0.0
H45 H 0.24876 0.97637 0.68494 0.0
H46 H 0.34047 0.97982 0.77595 0.0
H47 H 0.21734 0.01574 0.8064 0.0
C48 C 0.25636 0.98028 0.71688 0.0
C49 C 0.22702 0.99423 0.74396 0.0
C50 C 0.29665 0.97761 0.72843 0.0
C51 C 0.3083 0.9823 0.76843 0.0
C52 C 0.2807 0.99639 0.79727 0.0
C53 C 0.23909 1.00317 0.7851 0.0
H54 H 0.046 0.33812 0.77798 0.0
H55 H 0.03516 0.24841 0.68552 0.0
H56 H 1.00559 0.21648 0.80931 0.0
C57 C 0.04076 0.3064 0.77012 0.0
C58 C 0.02667 0.27927 0.7995 0.0
C59 C 0.04031 0.29565 0.72952 0.0
C60 C 0.03433 0.25576 0.71774 0.0
C61 C 0.02252 0.2262 0.74545 0.0
C62 C 0.01726 0.23806 0.78734 0.0
H63 H 0.68102 1.00625 0.77214 0.0
H64 H 0.7742 0.00946 0.68247 0.0
H65 H 0.80726 0.01587 0.80972 0.0
C66 C 0.71342 1.00792 0.76532 0.0
C67 C 0.7418 0.01132 0.7965 0.0
C68 C 0.7257 1.00748 0.72529 0.0
C69 C 0.7662 0.00976 0.71456 0.0
C70 C 0.79638 0.0125 0.74396 0.0
C71 C 0.78444 0.01351 0.78611 0.0
H72 H 0.26122 0.33592 0.99351 0.0
H73 H 0.33607 0.23168 0.98193 0.0
H74 H 0.21201 0.21778 0.0253 0.0
C75 C 0.26339 0.30292 0.99473 0.0
C76 C 0.22993 0.27964 1.00659 0.0
C77 C 0.30049 0.28509 0.98657 0.0
C78 C 0.3058 0.24376 0.98805 0.0
C79 C 0.27579 0.21898 1.00453 0.0
C80 C 0.23634 0.23658 0.01335 0.0
H81 H 0.34033 0.76117 1.00402 0.0
H82 H 0.2387 0.68126 0.99935 0.0
H83 H 0.21896 0.80926 0.02387 0.0
C84 C 0.30741 0.75759 1.0053 0.0
C85 C 0.28239 0.79109 0.01208 0.0
C86 C 0.29102 0.71921 1.00085 0.0
C87 C 0.24978 0.71235 1.00255 0.0
C88 C 0.22312 0.74347 0.01257 0.0
C89 C 0.23914 0.78419 0.0169 0.0
H90 H 0.68651 0.25476 0.98714 0.0
H91 H 0.78718 0.33575 0.97791 0.0
H92 H 0.80605 0.2139 0.0241 0.0
C93 C 0.71928 0.25927 0.9893 0.0
C94 C 0.74399 0.22817 1.00372 0.0
C95 C 0.73516 0.2975 0.98194 0.0
C96 C 0.77643 0.30496 0.98376 0.0
C97 C 0.80262 0.27623 1.00033 0.0
C98 C 0.78654 0.2367 0.01061 0.0
H99 H 0.68158 0.78537 0.98302 0.0
H100 H 0.76265 0.6854 0.97299 0.0
H101 H 0.80398 0.79633 0.03068 0.0
C102 C 0.7125 0.77393 0.98619 0.0
C103 C 0.74145 0.79677 1.00709 0.0
C104 C 0.71992 0.73377 0.97669 0.0
C105 C 0.75863 0.7174 0.98031 0.0
C106 C 0.78994 0.73878 0.99966 0.0
C107 C 0.7812 0.77938 0.01394 0.0
H108 H 0.53512 0.7411 0.8346 0.0
H109 H 0.52754 0.83783 0.74905 0.0
H110 H 0.48673 0.71744 0.71463 0.0
C111 C 0.52867 0.75069 0.80364 0.0
C112 C 0.51022 0.72377 0.77674 0.0
C113 C 0.53201 0.79155 0.79419 0.0
C114 C 0.52432 0.80552 0.75535 0.0
C115 C 0.50943 0.77939 0.72549 0.0
C116 C 0.50077 0.73779 0.73639 0.0
H117 H 0.18077 0.53852 0.7544 0.0
H118 H 0.27952 0.53928 0.83735 0.0
H119 H 0.30199 0.50959 0.71108 0.0
C120 C 0.21354 0.53651 0.75884 0.0
C121 C 0.23911 0.52711 0.72634 0.0
C122 C 0.22856 0.54009 0.79779 0.0
C123 C 0.2695 0.53686 0.80592 0.0
C124 C 0.29639 0.52378 0.77605 0.0
C125 C 0.28158 0.51938 0.73501 0.0
H126 H 0.55166 0.17911 0.74252 0.0
H127 H 0.54894 0.26952 0.83425 0.0
H128 H 0.51206 0.30091 0.71194 0.0
C129 C 0.54795 0.21114 0.74998 0.0
C130 C 0.5338 0.2383 0.72076 0.0
C131 C 0.55059 0.22234 0.79024 0.0
C132 C 0.54616 0.26225 0.80211 0.0
C133 C 0.53158 0.29129 0.77504 0.0
C134 C 0.52476 0.27942 0.73335 0.0
H135 H 0.75483 0.5339 0.83744 0.0
H136 H 0.84237 0.52912 0.7424 0.0
H137 H 0.71458 0.51228 0.71402 0.0
C138 C 0.76079 0.53178 0.80498 0.0
C139 C 0.72896 0.52493 0.77795 0.0
C140 C 0.80066 0.53208 0.79175 0.0
C141 C 0.8104 0.52898 0.75118 0.0
C142 C 0.78033 0.52153 0.72242 0.0
C143 C 0.7385 0.51912 0.7356 0.0
H144 H 0.47586 0.28235 0.18474 0.0
H145 H 0.47995 0.18479 0.26871 0.0
H146 H 0.52964 0.30182 0.30337 0.0
C147 C 0.48197 0.27254 0.21571 0.0
C148 C 0.50335 0.29793 0.24201 0.0
C149 C 0.47648 0.23199 0.225 0.0
C150 C 0.48435 0.21716 0.26329 0.0
C151 C 0.50215 0.24153 0.29303 0.0
C152 C 0.51334 0.28273 0.28205 0.0
H153 H 0.7387 0.47615 0.18505 0.0
H154 H 0.83433 0.48429 0.27154 0.0
H155 H 0.71681 0.53646 0.29992 0.0
C156 C 0.74786 0.48359 0.21594 0.0
C157 C 0.72139 0.50497 0.24122 0.0
C158 C 0.7884 0.4793 0.22621 0.0
C159 C 0.80219 0.48855 0.26475 0.0
C160 C 0.77744 0.50947 0.29199 0.0
C161 C 0.7362 0.51863 0.28015 0.0
H162 H 0.51629 0.83413 0.27138 0.0
H163 H 0.51802 0.74298 0.18018 0.0
H164 H 0.48473 0.71029 0.30359 0.0
C165 C 0.51323 0.80198 0.26393 0.0
C166 C 0.50218 0.77419 0.29368 0.0
C167 C 0.51874 0.79019 0.22427 0.0
C168 C 0.51413 0.75036 0.21217 0.0
C169 C 0.50032 0.72108 0.23941 0.0
C170 C 0.49467 0.73258 0.2815 0.0
H171 H 0.18901 0.5312 0.28066 0.0
H172 H 0.27697 0.53366 0.18586 0.0
H173 H 0.30293 0.46707 0.29615 0.0
C174 C 0.21995 0.52443 0.27088 0.0
C175 C 0.24444 0.49948 0.2947 0.0
C176 C 0.23078 0.53333 0.2313 0.0
C177 C 0.26983 0.52596 0.2172 0.0
C178 C 0.29671 0.50194 0.23954 0.0
C179 C 0.28375 0.48753 0.27897 0.0
H180 H 0.73893 0.83752 0.47624 0.0
H181 H 0.84032 0.75727 0.48223 0.0
H182 H 0.72153 0.71511 0.52114 0.0
C183 C 0.75009 0.80679 0.4814 0.0
C184 C 0.72441 0.77778 0.49842 0.0
C185 C 0.79144 0.79981 0.47846 0.0
C186 C 0.80758 0.76145 0.48485 0.0
C187 C 0.78306 0.7299 0.49937 0.0
C188 C 0.74072 0.73819 0.50751 0.0
H189 H 0.83527 0.28426 0.52659 0.0
H190 H 0.75775 0.18093 0.51758 0.0
H191 H 0.71336 0.29857 0.47857 0.0
C192 C 0.805 0.27235 0.52006 0.0
C193 C 0.77575 0.29727 0.50263 0.0
C194 C 0.79876 0.23106 0.52286 0.0
C195 C 0.76127 0.21369 0.5146 0.0
C196 C 0.72939 0.23721 0.49963 0.0
C197 C 0.73674 0.27989 0.49226 0.0
H198 H 0.18119 0.73274 0.53103 0.0
H199 H 0.261 0.83456 0.52519 0.0
H200 H 0.30562 0.71558 0.4907 0.0
C201 C 0.21202 0.74405 0.52621 0.0
C202 C 0.24206 0.71828 0.51138 0.0
C203 C 0.21883 0.78528 0.52881 0.0
C204 C 0.25708 0.8018 0.52261 0.0
C205 C 0.2893 0.77753 0.50961 0.0
C206 C 0.28181 0.73486 0.50281 0.0
H207 H 0.18344 0.26335 0.47724 0.0
H208 H 0.28416 0.18225 0.47448 0.0
H209 H 0.29929 0.30208 0.52669 0.0
C210 C 0.21594 0.25879 0.48156 0.0
C211 C 0.23957 0.28931 0.49939 0.0
C212 C 0.23201 0.22044 0.47501 0.0
C213 C 0.27304 0.21292 0.48013 0.0
C214 C 0.29761 0.24065 0.50056 0.0
C215 C 0.28105 0.28001 0.51038 0.0
C216 C 1.00509 0.91389 0.6156 0.0
C217 C 0.99926 0.91322 0.41233 0.0
C218 C 0.01917 0.10754 0.6161 0.0
C219 C 0.02065 0.10817 0.41183 0.0
C220 C 0.92859 0.12055 0.51857 0.0
C221 C 0.89914 0.9295 0.50449 0.0
C222 C 0.12322 0.09172 0.50061 0.0
C223 C 0.09396 0.90121 0.51681 0.0
C224 C 0.10586 0.998 0.40945 0.0
C225 C 0.91408 0.02469 0.41212 0.0
C226 C 0.10843 1.00339 0.61501 0.0
C227 C 0.91633 0.01804 0.61723 0.0
Eu228 Eu 0.99985 0.93349 0.51378 0.0
O229 O 0.96984 0.97972 0.47832 0.0
O230 O 0.0421 0.97038 0.548 0.0
Eu231 Eu 0.93415 0.02117 0.51436 0.0
Eu232 Eu 0.0883 1.00044 0.51239 0.0
O233 O 0.96957 0.979 0.55049 0.0
O234 O 0.04164 0.96964 0.47753 0.0
Eu235 Eu 0.01213 0.01087 0.58934 0.0
Eu236 Eu 1.01024 0.01076 0.4374 0.0
O237 O 0.98123 0.05139 0.54876 0.0
O238 O 0.98015 0.05199 0.47857 0.0
O239 O 0.0514 0.04181 0.47759 0.0
O240 O 0.05387 0.0429 0.5495 0.0
Eu241 Eu 0.02268 0.08844 0.51368 0.0
O242 O 0.99709 0.9008 0.57734 0.0
O243 O 0.9992 0.89964 0.45113 0.0
O244 O 0.02617 0.12089 0.57766 0.0
O245 O 0.02223 0.12195 0.45061 0.0
O246 O 0.91051 0.08443 0.51646 0.0
O247 O 0.89167 0.96901 0.50711 0.0
O248 O 0.13062 0.05224 0.5033 0.0
O249 O 0.11217 0.93722 0.51408 0.0
O250 O 0.0668 1.00222 0.39991 0.0
O251 O 0.95285 0.02013 0.40156 0.0
O252 O 0.06975 1.00808 0.6256 0.0
O253 O 0.95526 0.01384 0.62698 0.0
O254 O 0.08754 0.11075 0.5054 0.0
O255 O 0.96824 0.12901 0.51826 0.0
O256 O 0.0543 0.89293 0.51719 0.0
O257 O 0.93507 0.91073 0.50769 0.0
O258 O 1.00191 0.95229 0.40183 0.0
O259 O 0.01734 0.06908 0.40157 0.0
O260 O 0.01322 0.95236 0.62517 0.0
O261 O 0.01175 0.06897 0.62572 0.0
O262 O 0.90204 0.02097 0.57865 0.0
O263 O 0.90074 0.02638 0.45113 0.0
O264 O 0.12186 1.00039 0.57605 0.0
O265 O 0.12009 0.99592 0.44811 0.0
C266 C 0.51922 0.91991 0.11432 0.0
C267 C 0.4963 0.1139 0.10291 0.0
C268 C 0.5235 0.90827 0.92077 0.0
C269 C 0.51882 0.10288 0.91 0.0
C270 C 0.6141 0.00903 0.91662 0.0
C271 C 0.61238 0.0228 0.11136 0.0
C272 C 0.40978 1.00771 0.91514 0.0
C273 C 0.40827 1.00824 0.10889 0.0
C274 C 0.40483 0.10341 0.01021 0.0
C275 C 0.61149 0.11112 0.01282 0.0
C276 C 0.41403 0.90977 0.01581 0.0
C277 C 0.61928 0.91983 0.0222 0.0
Eu278 Eu 0.51072 0.01583 0.09056 0.0
O279 O 0.5456 0.05207 0.04797 0.0
O280 O 0.47785 0.97536 0.05034 0.0
Eu281 Eu 0.58777 0.01466 0.01427 0.0
Eu282 Eu 0.43569 1.0076 0.01204 0.0
O283 O 0.54836 0.9787 0.05157 0.0
O284 O 0.47462 0.04735 0.04605 0.0
Eu285 Eu 0.51597 0.93375 0.01635 0.0
Eu286 Eu 0.50837 0.08904 1.00819 0.0
O287 O 0.54968 0.97513 0.97857 0.0
O288 O 0.54564 0.04631 0.97553 0.0
O289 O 0.47432 0.04439 0.97353 0.0
O290 O 0.47754 0.97042 0.97746 0.0
Eu291 Eu 0.51212 1.00679 0.93497 0.0
O292 O 0.51458 0.95825 0.12621 0.0
O293 O 0.50289 0.0773 0.11889 0.0
O294 O 0.51505 0.94493 0.90563 0.0
O295 O 0.52056 0.06391 0.89952 0.0
O296 O 0.62434 0.01165 0.95571 0.0
O297 O 0.62326 0.02113 0.07249 0.0
O298 O 0.3994 1.00769 0.95415 0.0
O299 O 0.39862 1.00507 0.06978 0.0
O300 O 0.44298 0.1189 1.00584 0.0
O301 O 0.57198 0.12385 0.01216 0.0
O302 O 0.4536 0.8977 0.01676 0.0
O303 O 0.5813 0.90391 0.01833 0.0
O304 O 0.44873 1.00762 0.90132 0.0
O305 O 0.57545 1.00713 0.90259 0.0
O306 O 0.44684 0.01255 0.12299 0.0
O307 O 0.57335 0.02163 0.12472 0.0
O308 O 0.49646 0.1245 0.06409 0.0
O309 O 0.51198 0.11837 0.94679 0.0
O310 O 0.52048 0.90502 0.0769 0.0
O311 O 0.52719 0.89838 0.95965 0.0
O312 O 0.62644 0.95937 0.02485 0.0
O313 O 0.62291 0.07258 0.01333 0.0
O314 O 0.40184 0.94816 0.01334 0.0
O315 O 0.39663 0.06399 0.01426 0.0
C316 C 0.01415 0.40756 0.11098 0.0
C317 C 0.01823 0.40905 0.91728 0.0
C318 C 1.00162 0.61306 0.11169 0.0
C319 C 0.0144 0.61284 0.9179 0.0
C320 C 0.90875 0.60715 0.01345 0.0
C321 C 0.91952 0.40445 0.01026 0.0
C322 C 0.10389 0.61759 0.01881 0.0
C323 C 0.11419 0.41362 0.0198 0.0
C324 C 0.11433 0.5198 0.9236 0.0
C325 C 0.92017 0.51152 0.91264 0.0
C326 C 0.10296 0.52461 0.11718 0.0
C327 C 0.91064 0.49676 0.10702 0.0
Eu328 Eu 0.01602 0.43454 0.01457 0.0
O329 O 0.97922 0.47316 0.97666 0.0
O330 O 0.04854 0.47637 0.05367 0.0
Eu331 Eu 0.93448 0.50679 0.0111 0.0
Eu332 Eu 0.08933 0.5147 0.0191 0.0
O333 O 0.97641 0.47358 0.04886 0.0
O334 O 0.05257 0.4766 0.97992 0.0
Eu335 Eu 1.00801 0.51048 0.09287 0.0
Eu336 Eu 0.01602 0.51089 0.93749 0.0
O337 O 0.97148 0.54482 0.05013 0.0
O338 O 0.97559 0.54492 0.97672 0.0
O339 O 0.0476 0.5481 0.98122 0.0
O340 O 0.04385 0.548 0.0527 0.0
Eu341 Eu 1.00757 0.58719 0.01508 0.0
O342 O 0.01719 0.39772 0.07197 0.0
O343 O 0.01688 0.39846 0.95625 0.0
O344 O 1.00194 0.6233 0.07268 0.0
O345 O 0.01204 0.6233 0.95691 0.0
O346 O 0.8973 0.56759 0.01354 0.0
O347 O 0.90417 0.44247 1.00733 0.0
O348 O 0.11942 0.57947 0.01885 0.0
O349 O 0.12585 0.45316 0.02185 0.0
O350 O 0.07693 0.51735 0.90841 0.0
O351 O 0.95894 0.51034 0.90131 0.0
O352 O 0.06483 0.51814 0.12901 0.0
O353 O 0.94741 0.5033 0.12252 0.0
O354 O 0.06428 0.62623 0.01845 0.0
O355 O 0.94718 0.62006 0.01272 0.0
O356 O 0.07586 0.40108 0.0162 0.0
O357 O 0.95896 0.3958 0.01401 0.0
O358 O 0.01898 0.44796 0.90377 0.0
O359 O 0.01577 0.57398 0.90429 0.0
O360 O 0.01084 0.44626 0.12516 0.0
O361 O 1.00319 0.57424 0.12567 0.0
O362 O 0.89946 0.49696 0.06826 0.0
O363 O 0.90491 0.51036 0.95006 0.0
O364 O 0.118 0.52373 0.07971 0.0
O365 O 0.1258 0.51799 0.96219 0.0
C366 C 0.51817 0.41033 0.1092 0.0
C367 C 0.49902 0.60307 0.10938 0.0
C368 C 0.51822 0.4091 0.90478 0.0
C369 C 0.50258 0.60386 0.90442 0.0
C370 C 0.61114 0.51543 0.90752 0.0
C371 C 0.60622 0.517 0.10997 0.0
C372 C 0.41444 0.50354 0.90302 0.0
C373 C 0.41229 0.49598 0.10673 0.0
C374 C 0.4028 0.59168 1.00418 0.0
C375 C 0.59706 0.61398 0.99462 0.0
C376 C 0.42548 0.39938 0.99926 0.0
C377 C 0.61743 0.42009 1.00182 0.0
Eu378 Eu 0.50969 0.50686 0.08253 0.0
O379 O 0.54345 0.54789 0.04347 0.0
O380 O 0.47758 0.46653 0.042 0.0
Eu381 Eu 0.58806 0.51508 1.00766 0.0
Eu382 Eu 0.43366 0.49852 1.00518 0.0
O383 O 0.55058 0.47425 0.043 0.0
O384 O 0.47042 0.53925 0.04146 0.0
Eu385 Eu 0.51891 0.42954 1.00684 0.0
Eu386 Eu 0.50288 0.58456 1.00668 0.0
O387 O 0.55097 0.47458 0.97133 0.0
O388 O 0.5428 0.54594 0.97173 0.0
O389 O 0.47209 0.539 0.97046 0.0
O390 O 0.47906 0.46671 0.9701 0.0
Eu391 Eu 0.51181 0.50652 0.92972 0.0
O392 O 0.51517 0.44938 0.11928 0.0
O393 O 0.49981 0.56386 0.11913 0.0
O394 O 0.51275 0.44776 0.89412 0.0
O395 O 0.50534 0.56476 0.89415 0.0
O396 O 0.6236 0.51729 0.9465 0.0
O397 O 0.62057 0.51963 0.07139 0.0
O398 O 0.40075 0.50191 0.94183 0.0
O399 O 0.39923 0.49474 0.06772 0.0
O400 O 0.43935 0.60932 1.00468 0.0
O401 O 0.55836 0.62396 1.00116 0.0
O402 O 0.46456 0.39009 1.00234 0.0
O403 O 0.581 0.40295 1.00551 0.0
O404 O 0.45372 0.50378 0.89277 0.0
O405 O 0.57238 0.51129 0.89578 0.0
O406 O 0.45112 0.49972 0.11774 0.0
O407 O 0.56719 0.5119 0.11964 0.0
O408 O 0.50058 0.61727 0.07065 0.0
O409 O 0.50111 0.61752 0.94328 0.0
O410 O 0.51975 0.3964 0.07041 0.0
O411 O 0.52231 0.39628 0.94369 0.0
O412 O 0.62674 0.45945 1.00221 0.0
O413 O 0.61339 0.577 0.99539 0.0
O414 O 0.40807 0.43583 0.99987 0.0
O415 O 0.39371 0.55248 1.0051 0.0
C416 C 0.011 0.40924 0.603 0.0
C417 C 0.99881 0.40924 0.41056 0.0
C418 C 1.00615 0.60465 0.60362 0.0
C419 C 0.02289 0.60415 0.40949 0.0
C420 C 0.91197 0.60923 0.50731 0.0
C421 C 0.90293 0.41508 0.49973 0.0
C422 C 0.11592 0.59989 0.50299 0.0
C423 C 0.10787 0.40619 0.51206 0.0
C424 C 0.11333 0.49379 0.41092 0.0
C425 C 0.90891 0.51779 0.4082 0.0
C426 C 0.11039 0.51134 0.60527 0.0
C427 C 0.90577 0.5084 0.60169 0.0
Eu428 Eu 1.00627 0.42952 0.50662 0.0
O429 O 0.97336 0.47288 0.47032 0.0
O430 O 0.04357 0.46938 0.54324 0.0
Eu431 Eu 0.93348 0.51083 0.50544 0.0
Eu432 Eu 0.08617 0.50395 0.50763 0.0
O433 O 0.97152 0.47237 0.54263 0.0
O434 O 0.04448 0.46921 0.47056 0.0
Eu435 Eu 1.00888 0.50726 0.58401 0.0
Eu436 Eu 0.01086 0.50684 0.42853 0.0
O437 O 0.97543 0.54494 0.54201 0.0
O438 O 0.97582 0.54537 0.46891 0.0
O439 O 0.04705 0.54147 0.47106 0.0
O440 O 0.04651 0.54247 0.54306 0.0
Eu441 Eu 0.01277 0.58509 0.50608 0.0
O442 O 1.00019 0.39716 0.56607 0.0
O443 O 1.01025 0.39693 0.44715 0.0
O444 O 1.00851 0.61789 0.5655 0.0
O445 O 0.01177 0.61702 0.4461 0.0
O446 O 0.89986 0.57061 0.50857 0.0
O447 O 0.89425 0.45455 0.50094 0.0
O448 O 0.12488 0.56048 0.5025 0.0
O449 O 0.12008 0.44471 0.513 0.0
O450 O 0.07462 0.49636 0.39639 0.0
O451 O 0.94796 0.51565 0.39455 0.0
O452 O 0.07128 0.51121 0.61831 0.0
O453 O 0.94449 0.50642 0.61608 0.0
O454 O 0.07775 0.61518 0.50593 0.0
O455 O 0.95135 0.62131 0.50554 0.0
O456 O 0.0685 0.39405 0.50908 0.0
O457 O 0.94113 0.39963 0.50177 0.0
O458 O 0.99348 0.44764 0.39902 0.0
O459 O 0.02781 0.56564 0.39805 0.0
O460 O 0.01839 0.44727 0.61473 0.0
O461 O 1.007 0.56649 0.6169 0.0
O462 O 0.89598 0.50945 0.56258 0.0
O463 O 0.89841 0.51736 0.44721 0.0
O464 O 0.12157 0.50916 0.56642 0.0
O465 O 0.12283 0.4951 0.45022 0.0
C466 C 0.50644 0.90642 0.60423 0.0
C467 C 0.50058 0.90494 0.40958 0.0
C468 C 0.51372 0.10934 0.6034 0.0
C469 C 0.51336 0.10856 0.40829 0.0
C470 C 0.41562 0.11312 0.512 0.0
C471 C 0.40814 0.90854 0.50482 0.0
C472 C 0.61011 0.10594 0.4991 0.0
C473 C 0.6028 0.90218 0.5078 0.0
C474 C 0.60384 0.99343 0.40771 0.0
C475 C 0.40981 0.02082 0.41193 0.0
C476 C 0.60804 1.00475 0.60114 0.0
C477 C 0.41271 1.00394 0.60469 0.0
Eu478 Eu 0.50598 0.93093 0.50652 0.0
O479 O 0.47 0.97246 0.47047 0.0
O480 O 0.54439 0.97059 0.54181 0.0
Eu481 Eu 0.4311 0.01025 0.50774 0.0
Eu482 Eu 0.58654 1.00462 0.5046 0.0
O483 O 0.47191 0.97313 0.5431 0.0
O484 O 0.54291 0.97026 0.46962 0.0
Eu485 Eu 0.51014 1.0078 0.5836 0.0
Eu486 Eu 0.50727 1.00686 0.4286 0.0
O487 O 0.47442 0.04492 0.54308 0.0
O488 O 0.47365 0.04413 0.47093 0.0
O489 O 0.54596 0.04176 0.46882 0.0
O490 O 0.5476 0.04241 0.54186 0.0
Eu491 Eu 0.51199 0.08395 0.50596 0.0
O492 O 0.50346 0.89553 0.56538 0.0
O493 O 0.50435 0.89444 0.44839 0.0
O494 O 0.5159 0.11997 0.56445 0.0
O495 O 0.51126 0.11959 0.44716 0.0
O496 O 0.40041 0.07477 0.51088 0.0
O497 O 0.39578 0.94788 0.50589 0.0
O498 O 0.62239 0.06663 0.50116 0.0
O499 O 0.61771 0.94054 0.50583 0.0
O500 O 0.56543 0.99571 0.39509 0.0
O501 O 0.44769 0.01783 0.39783 0.0
O502 O 0.57014 1.00725 0.61507 0.0
O503 O 0.45118 1.00415 0.61724 0.0
O504 O 0.57138 0.11776 0.49967 0.0
O505 O 0.45518 0.12211 0.51145 0.0
O506 O 0.56329 0.89295 0.5091 0.0
O507 O 0.4468 0.89672 0.50428 0.0
O508 O 0.49976 0.94377 0.39581 0.0
O509 O 0.51333 0.06957 0.39494 0.0
O510 O 0.5101 0.94523 0.61741 0.0
O511 O 0.51086 0.07065 0.61702 0.0
O512 O 0.39874 1.00758 0.56707 0.0
O513 O 0.39691 0.01668 0.44989 0.0
O514 O 0.62065 1.0029 0.56288 0.0
O515 O 0.61804 0.99799 0.44516 0.0
C516 C 0.19076 0.16441 0.44525 0.0
C517 C 0.20541 0.18549 0.47977 0.0
C518 C 0.17946 0.13331 0.5249 0.0
C519 C 0.15813 0.11719 0.49195 0.0
N520 N 0.15288 0.10582 0.42028 0.0
N521 N 0.21189 0.19207 0.55326 0.0
C522 C 0.16661 0.12923 0.45165 0.0
C523 C 0.19945 0.17048 0.51991 0.0
N524 N 0.19925 0.1787 0.40713 0.0
N525 N 0.18272 0.11155 0.55997 0.0
H526 H 0.22721 0.21973 0.55165 0.0
H527 H 0.20394 0.18404 0.58287 0.0
H528 H 0.17156 0.0819 0.56189 0.0
H529 H 0.20141 0.12016 0.5841 0.0
H530 H 0.18846 0.16568 0.38042 0.0
H531 H 0.21684 0.20473 0.40215 0.0
H532 H 0.15894 0.11146 0.38979 0.0
H533 H 0.13688 0.07891 0.42552 0.0
C534 C 0.8457 0.18608 0.5599 0.0
C535 C 0.83443 0.20543 0.52351 0.0
C536 C 0.89304 0.17794 0.48779 0.0
C537 C 0.90093 0.15414 0.52254 0.0
N538 N 0.88269 0.13053 0.58977 0.0
N539 N 0.84243 0.21599 0.45097 0.0
C540 C 0.87693 0.15699 0.55831 0.0
C541 C 0.85691 0.20073 0.4869 0.0
N542 N 0.82672 0.19561 0.59568 0.0
N543 N 0.9192 0.17768 0.45536 0.0
H544 H 0.81525 0.23217 0.44857 0.0
H545 H 0.85534 0.20953 0.42278 0.0
H546 H 0.94515 0.15949 0.45404 0.0
H547 H 0.91698 0.19787 0.43107 0.0
H548 H 0.83678 0.18529 0.62387 0.0
H549 H 0.80287 0.21652 0.5975 0.0
H550 H 0.86266 0.12793 0.61422 0.0
H551 H 0.90628 0.10936 0.59009 0.0
C552 C 0.83296 0.85581 0.44922 0.0
C553 C 0.81752 0.8351 0.48361 0.0
C554 C 0.84294 0.88748 0.529 0.0
C555 C 0.86437 0.90373 0.49604 0.0
N556 N 0.87051 0.91458 0.42432 0.0
N557 N 0.80889 0.8291 0.55682 0.0
C558 C 0.85655 0.8913 0.45572 0.0
C559 C 0.82253 0.85043 0.52375 0.0
N560 N 0.82592 0.84076 0.41109 0.0
N561 N 0.84023 0.90891 0.56439 0.0
H562 H 0.79305 0.8017 0.55482 0.0
H563 H 0.81609 0.83703 0.58663 0.0
H564 H 0.85216 0.93823 0.56684 0.0
H565 H 0.82158 0.90039 0.58859 0.0
H566 H 0.838 0.85308 0.38458 0.0
H567 H 0.8086 0.81459 0.40593 0.0
H568 H 0.86456 0.90883 0.39383 0.0
H569 H 0.88637 0.94161 0.42947 0.0
C570 C 0.17239 0.83324 0.56262 0.0
C571 C 0.18386 0.81185 0.52738 0.0
C572 C 0.12902 0.84214 0.48825 0.0
C573 C 0.12121 0.86747 0.52194 0.0
N574 N 0.13781 0.89199 0.5893 0.0
N575 N 0.17838 0.79942 0.45488 0.0
C576 C 0.14339 0.86433 0.55878 0.0
C577 C 0.16342 0.81682 0.48966 0.0
N578 N 0.18899 0.8236 0.59948 0.0
N579 N 0.10439 0.84317 0.45471 0.0
H580 H 0.2044 0.78129 0.45414 0.0
H581 H 0.16722 0.80581 0.42597 0.0
H582 H 0.07994 0.86317 0.45171 0.0
H583 H 0.10625 0.8221 0.43111 0.0
H584 H 0.1785 0.83559 0.62688 0.0
H585 H 0.21098 0.80096 0.603 0.0
H586 H 0.15675 0.89407 0.61461 0.0
H587 H 0.1155 0.91446 0.58814 0.0
C588 C 0.44573 0.1779 0.18245 0.0
C589 C 0.47911 0.20318 0.19199 0.0
C590 C 0.51912 0.17573 0.13694 0.0
C591 C 0.48848 0.14626 0.13113 0.0
N592 N 0.42397 0.11571 0.14985 0.0
N593 N 0.55188 0.21661 0.18731 0.0
C594 C 0.45202 0.14614 0.15437 0.0
C595 C 0.5171 0.19964 0.17175 0.0
N596 N 0.40852 0.18445 0.19995 0.0
N597 N 0.5504 0.18067 0.10994 0.0
H598 H 0.55288 0.23149 0.2152 0.0
H599 H 0.58072 0.2113 0.17507 0.0
H600 H 0.55354 0.16343 0.08363 0.0
H601 H 0.57094 0.20488 0.11172 0.0
H602 H 0.38213 0.16913 0.19116 0.0
H603 H 0.40355 0.20753 0.22119 0.0
H604 H 0.39898 0.11186 0.16903 0.0
H605 H 0.42688 0.09308 0.12789 0.0
C606 C 0.82401 0.52067 0.17502 0.0
C607 C 0.81795 0.48204 0.19364 0.0
C608 C 0.87532 0.45372 0.1573 0.0
C609 C 0.87843 0.49103 0.13592 0.0
N610 N 0.85281 0.55786 0.11893 0.0
N611 N 0.83288 0.41055 0.19941 0.0
C612 C 0.85157 0.52371 0.14274 0.0
C613 C 0.84207 0.448 0.18379 0.0
N614 N 0.8055 0.55494 0.1898 0.0
N615 N 0.90451 0.42443 0.15294 0.0
H616 H 0.80863 0.40584 0.21944 0.0
H617 H 0.84713 0.38382 0.1901 0.0
H618 H 0.92893 0.42749 0.13292 0.0
H619 H 0.90599 0.39838 0.17089 0.0
H620 H 0.813 0.58428 0.18037 0.0
H621 H 0.78559 0.55493 0.21433 0.0
H622 H 0.8303 0.5802 0.11953 0.0
H623 H 0.87465 0.56272 0.09643 0.0
C624 C 0.55644 0.84368 0.18819 0.0
C625 C 0.51981 0.82184 0.19424 0.0
C626 C 0.48266 0.86569 0.14871 0.0
C627 C 0.51839 0.88949 0.14518 0.0
N628 N 0.58729 0.9063 0.16457 0.0
N629 N 0.44629 0.81594 0.18807 0.0
C630 C 0.5548 0.8802 0.16601 0.0
C631 C 0.48232 0.83378 0.17667 0.0
N632 N 0.59242 0.82901 0.20313 0.0
N633 N 0.4495 0.87299 0.12461 0.0
H634 H 0.44425 0.79187 0.20859 0.0
H635 H 0.41785 0.82726 0.17975 0.0
H636 H 0.4477 0.89775 0.10494 0.0
H637 H 0.42492 0.85301 0.12219 0.0
H638 H 0.62075 0.84174 0.19653 0.0
H639 H 0.59422 0.80198 0.21968 0.0
H640 H 0.6136 0.90271 0.18185 0.0
H641 H 0.58663 0.93351 0.1483 0.0
C642 C 0.18715 0.49369 0.18506 0.0
C643 C 0.19789 0.53221 0.20182 0.0
C644 C 0.13999 0.56406 0.16912 0.0
C645 C 0.13297 0.52682 0.14867 0.0
N646 N 0.15118 0.45734 0.13274 0.0
N647 N 0.18771 0.6045 0.20837 0.0
C648 C 0.15694 0.49197 0.15529 0.0
C649 C 0.17516 0.56769 0.19354 0.0
N650 N 0.20436 0.45844 0.1989 0.0
N651 N 0.11287 0.59537 0.16546 0.0
H652 H 0.21341 0.60767 0.22678 0.0
H653 H 0.17451 0.63209 0.20017 0.0
H654 H 0.08675 0.59322 0.14757 0.0
H655 H 0.11456 0.62218 0.18227 0.0
H656 H 0.19343 0.42956 0.19159 0.0
H657 H 0.22717 0.45753 0.22061 0.0
H658 H 0.17176 0.43322 0.1323 0.0
H659 H 0.12714 0.45352 0.11237 0.0
C660 C 0.49894 0.8203 0.85478 0.0
C661 C 0.53229 0.82059 0.82747 0.0
C662 C 0.56092 0.87923 0.86154 0.0
C663 C 0.52983 0.87566 0.89151 0.0
N664 N 0.47846 0.83276 0.92337 0.0
N665 N 0.599 0.84497 0.80857 0.0
C666 C 0.502 0.84281 0.89064 0.0
C667 C 0.56472 0.84839 0.83196 0.0
N668 N 0.46338 0.80058 0.8455 0.0
N669 N 0.58633 0.91209 0.86099 0.0
H670 H 0.60244 0.82238 0.78653 0.0
H671 H 0.62521 0.86227 0.81341 0.0
H672 H 0.58571 0.93419 0.88348 0.0
H673 H 0.60624 0.91846 0.83711 0.0
H674 H 0.4373 0.80268 0.86355 0.0
H675 H 0.45823 0.78664 0.81751 0.0
H676 H 0.46064 0.80643 0.92405 0.0
H677 H 0.47972 0.84765 0.95119 0.0
C678 C 0.18976 0.5693 0.85492 0.0
C679 C 0.20068 0.5352 0.83133 0.0
C680 C 0.15565 0.49071 0.86922 0.0
C681 C 0.1462 0.52435 0.89417 0.0
N682 N 0.15775 0.59361 0.91637 0.0
N683 N 0.20257 0.46212 0.8208 0.0
C684 C 0.16458 0.56306 0.88899 0.0
C685 C 0.18625 0.49539 0.8399 0.0
N686 N 0.20233 0.60745 0.84387 0.0
N687 N 0.13475 0.45477 0.87288 0.0
H688 H 0.22499 0.46398 0.79841 0.0
H689 H 0.19642 0.43228 0.82958 0.0
H690 H 0.11296 0.4494 0.89537 0.0
H691 H 0.13704 0.43105 0.85199 0.0
H692 H 0.19163 0.63403 0.8574 0.0
H693 H 0.22144 0.61277 0.81905 0.0
H694 H 0.17369 0.62104 0.91645 0.0
H695 H 0.13772 0.59063 0.94075 0.0
C696 C 0.57417 0.18267 0.84952 0.0
C697 C 0.54387 0.19114 0.82053 0.0
C698 C 0.50112 0.13659 0.84559 0.0
C699 C 0.52849 0.13175 0.87822 0.0
N700 N 0.58936 0.15257 0.91429 0.0
N701 N 0.47339 0.18489 0.79865 0.0
C702 C 0.56449 0.15568 0.88128 0.0
C703 C 0.50575 0.17069 0.82068 0.0
N704 N 0.61216 0.19954 0.8461 0.0
N705 N 0.47107 0.10881 0.83799 0.0
H706 H 0.47438 0.21155 0.78153 0.0
H707 H 0.44412 0.17274 0.80119 0.0
H708 H 0.46728 0.08236 0.85487 0.0
H709 H 0.45288 0.10984 0.81203 0.0
H710 H 0.63672 0.19098 0.86422 0.0
H711 H 0.61997 0.21974 0.82288 0.0
H712 H 0.61282 0.17306 0.92048 0.0
H713 H 0.58524 0.13038 0.93635 0.0
C714 C 0.83901 0.48728 0.83734 0.0
C715 C 0.83267 0.5268 0.82126 0.0
C716 C 0.88803 0.5546 0.86091 0.0
C717 C 0.89116 0.51625 0.8804 0.0
N718 N 0.86886 0.4469 0.89089 0.0
N719 N 0.84703 0.59873 0.81879 0.0
C720 C 0.86642 0.48271 0.86975 0.0
C721 C 0.85619 0.56071 0.83307 0.0
N722 N 0.81968 0.4542 0.82079 0.0
N723 N 0.91541 0.58495 0.86905 0.0
H724 H 0.82403 0.60407 0.79758 0.0
H725 H 0.86022 0.62535 0.8299 0.0
H726 H 0.93727 0.5828 0.89182 0.0
H727 H 0.9177 0.61161 0.85209 0.0
H728 H 0.8266 0.42425 0.8284 0.0
H729 H 0.79894 0.45624 0.79688 0.0
H730 H 0.84815 0.42308 0.88756 0.0
H731 H 0.89026 0.4417 0.91374 0.0
C732 C 0.68081 0.68647 0.0189 0.0
C733 C 0.68584 0.70584 0.98077 0.0
C734 C 0.62686 0.67034 0.95372 0.0
C735 C 0.62592 0.647 0.99001 0.0
N736 N 0.65686 0.62731 0.05372 0.0
N737 N 0.66623 0.71617 0.91107 0.0
C738 C 0.65421 0.65349 0.02163 0.0
C739 C 0.65937 0.6981 0.94786 0.0
N740 N 0.70087 0.69996 0.05283 0.0
N741 N 0.59729 0.66543 0.92493 0.0
H742 H 0.68964 0.73724 0.90645 0.0
H743 H 0.65047 0.70862 0.88467 0.0
H744 H 0.5747 0.6433 0.92728 0.0
H745 H 0.59403 0.6843 0.89974 0.0
H746 H 0.69408 0.68971 0.08205 0.0
H747 H 0.7215 0.724 0.05277 0.0
H748 H 0.68102 0.62766 0.07429 0.0
H749 H 0.63716 0.6029 0.0577 0.0
C750 C 0.33057 0.66777 0.9638 0.0
C751 C 0.3174 0.68435 1.00119 0.0
C752 C 0.35257 0.6326 0.04001 0.0
C753 C 0.36876 0.61867 1.0029 0.0
N754 N 0.36595 0.61264 0.93008 0.0
N755 N 0.31481 0.68516 0.0748 0.0
C756 C 0.35553 0.63308 0.96478 0.0
C757 C 0.32762 0.66722 0.03941 0.0
N758 N 0.32049 0.68624 0.92791 0.0
N759 N 0.36032 0.61186 0.07523 0.0
H760 H 0.2954 0.71025 0.07569 0.0
H761 H 0.32501 0.67682 0.10352 0.0
H762 H 0.37844 0.58583 0.07607 0.0
H763 H 0.34663 0.61824 0.10304 0.0
H764 H 0.33254 0.67803 0.89983 0.0
H765 H 0.30148 0.71163 0.92634 0.0
H766 H 0.35472 0.6195 0.90134 0.0
H767 H 0.38385 0.58645 0.93055 0.0
C768 C 0.35279 0.31866 0.0276 0.0
C769 C 0.33642 0.31007 0.98858 0.0
C770 C 0.38287 0.35656 0.95576 0.0
C771 C 0.39845 0.3657 0.99481 0.0
N772 N 0.40694 0.35026 0.06604 0.0
N773 N 0.33943 0.31249 0.91548 0.0
C774 C 0.38641 0.34481 0.0302 0.0
C775 C 0.35285 0.32617 0.95242 0.0
N776 N 0.33492 0.30341 0.06206 0.0
N777 N 0.39616 0.3777 0.92248 0.0
H778 H 0.31661 0.2905 0.91253 0.0
H779 H 0.3525 0.32059 0.88782 0.0
H780 H 0.41873 0.40009 0.92403 0.0
H781 H 0.38445 0.37402 0.89335 0.0
H782 H 0.34233 0.31297 0.0913 0.0
H783 H 0.31064 0.28293 0.06176 0.0
H784 H 0.4022 0.33248 0.0918 0.0
H785 H 0.43114 0.37062 0.06936 0.0
C786 C 0.68351 0.34229 0.95172 0.0
C787 C 0.70793 0.33181 0.9852 0.0
C788 C 0.67815 0.38511 0.02684 0.0
C789 C 0.65044 0.39228 0.99495 0.0
N790 N 0.62183 0.37469 0.92934 0.0
N791 N 0.72382 0.33669 0.05713 0.0
C792 C 0.65167 0.3701 0.95791 0.0
C793 C 0.70438 0.35161 0.02347 0.0
N794 N 0.69106 0.32595 0.91423 0.0
N795 N 0.67856 0.40939 0.06068 0.0
H796 H 0.74237 0.31102 0.0567 0.0
H797 H 0.7185 0.34732 0.08648 0.0
H798 H 0.65778 0.43286 0.06561 0.0
H799 H 0.70141 0.40816 0.08261 0.0
H800 H 0.6766 0.33572 0.88781 0.0
H801 H 0.71432 0.30494 0.90901 0.0
H802 H 0.61836 0.35542 0.90442 0.0
H803 H 0.59951 0.39707 0.93131 0.0
C804 C 0.03045 0.68618 0.67836 0.0
C805 C 0.99127 0.69206 0.69579 0.0
C806 C 0.96269 0.63813 0.65479 0.0
C807 C 1.00076 0.6353 0.63445 0.0
N808 N 0.06909 0.65995 0.62176 0.0
N809 N 0.91913 0.67852 0.69833 0.0
C810 C 0.03409 0.66053 0.64446 0.0
C811 C 0.95698 0.66942 0.68343 0.0
N812 N 0.06431 0.70371 0.69532 0.0
N813 N 0.93234 0.61068 0.64707 0.0
H814 H 0.91426 0.70102 0.7202 0.0
H815 H 0.89231 0.66593 0.68694 0.0
H816 H 0.9346 0.58863 0.62448 0.0
H817 H 0.906 0.60826 0.6646 0.0
H818 H 0.09396 0.69672 0.68642 0.0
H819 H 0.0633 0.72231 0.72094 0.0
H820 H 0.0924 0.68127 0.62504 0.0
H821 H 0.07386 0.63991 0.59764 0.0
C822 C 0.34198 0.0238 0.69071 0.0
C823 C 0.32705 0.98368 0.69721 0.0
C824 C 0.3636 0.95872 0.63866 0.0
C825 C 0.38254 0.99743 0.63561 0.0
N826 N 0.3944 0.06559 0.66056 0.0
N827 N 0.32611 0.91206 0.68154 0.0
C828 C 0.37336 0.02961 0.66236 0.0
C829 C 0.33849 0.95075 0.67235 0.0
N830 N 0.32472 0.05647 0.70993 0.0
N831 N 0.36936 0.92991 0.60929 0.0
H832 H 0.30722 0.90545 0.70623 0.0
H833 H 0.33709 0.88626 0.66675 0.0
H834 H 0.3894 0.93398 0.58512 0.0
H835 H 0.35249 0.90308 0.60759 0.0
H836 H 0.33169 0.08657 0.70279 0.0
H837 H 0.30042 0.05397 0.73013 0.0
H838 H 0.39201 0.08823 0.68262 0.0
H839 H 0.41642 0.07179 0.63853 0.0
C840 C 0.99966 0.3522 0.70093 0.0
C841 C 0.03448 0.32681 0.6987 0.0
C842 C 0.04416 0.34598 0.62859 0.0
C843 C 0.01574 0.3782 0.63416 0.0
N844 N 0.97075 0.41545 0.67997 0.0
N845 N 0.0943 0.30447 0.66251 0.0
C846 C 0.99521 0.38285 0.67185 0.0
C847 C 0.05848 0.32562 0.66325 0.0
N848 N 0.96899 0.34503 0.7282 0.0
N849 N 0.05644 0.3334 0.59099 0.0
H850 H 0.10608 0.29011 0.68823 0.0
H851 H 0.11374 0.3042 0.63747 0.0
H852 H 0.0465 0.34606 0.56396 0.0
H853 H 0.07388 0.30725 0.58662 0.0
H854 H 0.94173 0.36132 0.72815 0.0
H855 H 0.96801 0.31942 0.74673 0.0
H856 H 0.95895 0.42105 0.7089 0.0
H857 H 0.96447 0.43832 0.6592 0.0
C858 C 0.68785 0.04254 0.67155 0.0
C859 C 0.69547 1.00642 0.69358 0.0
C860 C 0.64435 0.96932 0.65563 0.0
C861 C 0.63928 1.00453 0.63145 0.0
N862 N 0.66018 0.07206 0.61052 0.0
N863 N 0.68746 0.93395 0.70337 0.0
C864 C 0.66242 0.04036 0.6374 0.0
C865 C 0.67557 0.96924 0.68481 0.0
N866 N 0.70366 0.07898 0.68426 0.0
N867 N 0.61917 0.93639 0.65094 0.0
H868 H 0.71043 0.93285 0.72526 0.0
H869 H 0.6769 0.90529 0.69484 0.0
H870 H 0.59701 0.93457 0.62831 0.0
H871 H 0.61858 0.91181 0.6709 0.0
H872 H 0.69537 0.10687 0.67176 0.0
H873 H 0.72235 0.08188 0.70975 0.0
H874 H 0.67999 0.09686 0.6111 0.0
H875 H 0.64022 0.07256 0.58589 0.0
C876 C 0.95524 0.31933 0.35385 0.0
C877 C 0.9802 0.31979 0.31915 0.0
C878 C 0.01307 0.38159 0.34174 0.0
C879 C 0.99262 0.37799 0.37963 0.0
N880 N 0.95456 0.33264 0.4252 0.0
N881 N 0.0462 0.34016 0.29235 0.0
C882 C 0.96676 0.34367 0.38709 0.0
C883 C 0.01289 0.34783 0.31611 0.0
N884 N 0.92139 0.29512 0.35546 0.0
N885 N 0.03448 0.41545 0.33039 0.0
H886 H 0.05119 0.31203 0.27877 0.0
H887 H 0.07177 0.3591 0.29181 0.0
H888 H 0.03919 0.44091 0.34842 0.0
H889 H 0.04601 0.41884 0.30099 0.0
H890 H 0.90098 0.29571 0.37974 0.0
H891 H 0.91204 0.27724 0.33091 0.0
H892 H 0.93964 0.30518 0.43103 0.0
H893 H 0.96127 0.34867 0.45141 0.0
C894 C 0.68739 0.95059 0.34286 0.0
C895 C 0.69844 0.9865 0.32212 0.0
C896 C 0.64335 0.0245 0.35344 0.0
C897 C 0.6344 0.98964 0.37672 0.0
N898 N 0.65066 0.9217 0.39973 0.0
N899 N 0.69417 0.06001 0.31504 0.0
C900 C 0.65721 0.95316 0.37333 0.0
C901 C 0.67843 0.02418 0.32936 0.0
N902 N 0.70531 0.91437 0.33304 0.0
N903 N 0.61881 0.05816 0.35477 0.0
H904 H 0.72047 0.06182 0.29759 0.0
H905 H 0.68354 0.08855 0.32384 0.0
H906 H 0.59412 0.06117 0.37445 0.0
H907 H 0.62123 0.08217 0.33422 0.0
H908 H 0.69551 0.88644 0.34441 0.0
H909 H 0.72832 0.91202 0.31123 0.0
H910 H 0.66927 0.89611 0.40137 0.0
H911 H 0.62781 0.92223 0.42176 0.0
C912 C 0.06297 0.69564 0.35255 0.0
C913 C 0.03501 0.69656 0.32031 0.0
C914 C 1.00503 0.63301 0.34219 0.0
C915 C 0.02845 0.63525 0.37837 0.0
N916 N 0.0711 0.67764 0.42233 0.0
N917 N 0.96854 0.6752 0.29572 0.0
C918 C 0.05499 0.66912 0.38509 0.0
C919 C 1.00293 0.66778 0.31797 0.0
N920 N 0.09664 0.72017 0.3524 0.0
N921 N 0.9833 0.59923 0.33127 0.0
H922 H 0.96276 0.70316 0.28207 0.0
H923 H 0.94326 0.6559 0.29601 0.0
H924 H 0.98065 0.57301 0.34859 0.0
H925 H 0.96961 0.59657 0.30276 0.0
H926 H 0.11961 0.71788 0.37418 0.0
H927 H 0.10326 0.73994 0.32845 0.0
H928 H 0.08649 0.70475 0.42856 0.0
H929 H 0.06725 0.65943 0.44768 0.0
C930 C 0.33005 0.06922 0.34674 0.0
C931 C 0.31969 0.03525 0.32266 0.0
C932 C 0.36989 0.99271 0.35626 0.0
C933 C 0.37859 0.02597 0.38189 0.0
N934 N 0.36362 0.09331 0.40755 0.0
N935 N 0.32226 0.9623 0.31014 0.0
C936 C 0.35759 0.06355 0.3791 0.0
C937 C 0.33755 0.99628 0.32884 0.0
N938 N 0.31424 0.10669 0.33804 0.0
N939 N 0.39231 0.95762 0.35829 0.0
H940 H 0.29847 0.96285 0.28941 0.0
H941 H 0.33065 0.93274 0.31784 0.0
H942 H 0.41415 0.95206 0.38058 0.0
H943 H 0.39102 0.93478 0.33634 0.0
H944 H 0.32388 0.13346 0.35204 0.0
H945 H 0.29339 0.1114 0.31458 0.0
H946 H 0.34592 0.11952 0.40957 0.0
H947 H 0.38514 0.09087 0.43067 0.0
C948 C 0.05415 0.18855 0.33114 0.0
C949 C 0.02301 0.18387 0.30124 0.0
C950 C 0.98953 0.13317 0.34558 0.0
C951 C 0.02065 0.13727 0.37566 0.0
N952 N 0.08528 0.16633 0.39463 0.0
N953 N 0.96752 0.14433 0.27571 0.0
C954 C 0.05388 0.16415 0.36757 0.0
C955 C 0.99329 0.15316 0.30704 0.0
N956 N 0.08262 0.21839 0.32541 0.0
N957 N 0.95456 0.11261 0.3551 0.0
H958 H 0.96985 0.15914 0.24772 0.0
H959 H 0.94708 0.12003 0.27606 0.0
H960 H 0.94913 0.10089 0.38403 0.0
H961 H 0.92917 0.1113 0.33619 0.0
H962 H 0.10338 0.22779 0.34739 0.0
H963 H 0.08438 0.23481 0.29829 0.0
H964 H 0.11223 0.18215 0.38929 0.0
H965 H 0.08505 0.15076 0.42217 0.0
C966 C 0.8309 0.06186 0.33638 0.0
C967 C 0.83418 0.03243 0.30469 0.0
C968 C 0.88863 0.99835 0.34344 0.0
C969 C 0.8849 0.02713 0.3761 0.0
N970 N 0.85909 0.09231 0.39785 0.0
N971 N 0.87396 0.98073 0.27288 0.0
C972 C 0.85789 0.06069 0.37087 0.0
C973 C 0.86607 1.00372 0.30655 0.0
N974 N 0.80065 0.09018 0.33396 0.0
N975 N 0.91187 0.96421 0.34841 0.0
H976 H 0.85738 0.98431 0.24604 0.0
H977 H 0.89911 0.96163 0.27009 0.0
H978 H 0.92738 0.95753 0.3751 0.0
H979 H 0.91249 0.94018 0.32778 0.0
H980 H 0.79216 0.10907 0.35793 0.0
H981 H 0.78336 0.09376 0.3076 0.0
H982 H 0.84337 0.11949 0.3937 0.0
H983 H 0.87853 0.09287 0.42289 0.0
C984 C 0.96294 0.83337 0.33262 0.0
C985 C 0.99494 0.83541 0.30346 0.0
C986 C 0.02968 0.88668 0.34622 0.0
C987 C 0.99851 0.88377 0.37648 0.0
N988 N 0.93663 0.85178 0.39956 0.0
N989 N 0.05302 0.87075 0.27754 0.0
C990 C 0.96517 0.85663 0.36973 0.0
C991 C 0.02616 0.86471 0.30869 0.0
N992 N 0.93054 0.80853 0.32436 0.0
N993 N 0.06455 0.90778 0.35491 0.0
H994 H 0.05066 0.85471 0.25023 0.0
H995 H 0.07473 0.8939 0.27704 0.0
H996 H 0.06982 0.92104 0.38321 0.0
H997 H 0.09005 0.90854 0.33611 0.0
H998 H 0.90448 0.80626 0.34222 0.0
H999 H 0.92875 0.79201 0.29728 0.0
H1000 H 0.9134 0.83025 0.39883 0.0
H1001 H 0.93743 0.86797 0.42673 0.0
C1002 C 0.15225 0.02221 0.30361 0.0
C1003 C 0.18425 0.99374 0.30047 0.0
C1004 C 0.16131 0.9633 0.36601 0.0
C1005 C 0.1343 0.9966 0.37268 0.0
N1006 N 0.10624 0.05987 0.34709 0.0
N1007 N 0.21785 0.93485 0.32705 0.0
C1008 C 0.1299 0.02623 0.34088 0.0
C1009 C 0.18774 0.96316 0.33101 0.0
N1010 N 0.14412 0.04627 0.27081 0.0
N1011 N 0.16072 0.93103 0.39219 0.0
H1012 H 0.23474 0.93221 0.30028 0.0
H1013 H 0.22662 0.91506 0.35011 0.0
H1014 H 0.14179 0.92983 0.41763 0.0
H1015 H 0.17646 0.90403 0.38707 0.0
H1016 H 0.11892 0.06539 0.26882 0.0
H1017 H 0.16062 0.04363 0.24377 0.0
H1018 H 0.10493 0.0844 0.32715 0.0
H1019 H 0.09108 0.06567 0.37422 0.0
C1020 C 0.98193 0.86201 0.71949 0.0
C1021 C 0.0131 0.83238 0.72176 0.0
C1022 C 0.03771 0.85436 0.65399 0.0
C1023 C 1.00657 0.88443 0.65145 0.0
N1024 N 0.95667 0.92386 0.68888 0.0
N1025 N 0.07798 0.80977 0.69738 0.0
C1026 C 0.98128 0.89057 0.68653 0.0
C1027 C 0.04361 0.83221 0.69107 0.0
N1028 N 0.95156 0.86154 0.74789 0.0
N1029 N 0.06137 0.84624 0.62087 0.0
H1030 H 0.08261 0.79402 0.72455 0.0
H1031 H 0.10316 0.81037 0.67808 0.0
H1032 H 0.05843 0.86184 0.59354 0.0
H1033 H 0.08166 0.82193 0.61945 0.0
H1034 H 0.92485 0.87844 0.74522 0.0
H1035 H 0.95252 0.84247 0.77325 0.0
H1036 H 0.9414 0.93239 0.71532 0.0
H1037 H 0.95383 0.9447 0.66539 0.0
C1038 C 0.16109 0.96912 0.71471 0.0
C1039 C 0.18675 1.00284 0.72345 0.0
C1040 C 0.15904 0.03815 0.66282 0.0
C1041 C 0.13734 1.00238 0.6511 0.0
N1042 N 0.10775 0.93876 0.67342 0.0
N1043 N 0.20912 0.07036 0.70717 0.0
C1044 C 0.13536 0.96938 0.67943 0.0
C1045 C 0.18453 0.03796 0.69827 0.0
N1046 N 0.16365 0.93552 0.73902 0.0
N1047 N 0.15309 0.07329 0.64156 0.0
H1048 H 0.22563 0.07197 0.73424 0.0
H1049 H 0.21434 0.09467 0.68757 0.0
H1050 H 0.13315 0.07499 0.61699 0.0
H1051 H 0.16413 0.10158 0.65059 0.0
H1052 H 0.15082 0.9074 0.73197 0.0
H1053 H 0.18034 0.93569 0.76604 0.0
H1054 H 0.10109 0.91643 0.69484 0.0
H1055 H 0.08917 0.93703 0.64789 0.0
C1056 C 0.0458 0.15765 0.72003 0.0
C1057 C 0.0135 0.18578 0.72507 0.0
C1058 C 0.9862 0.16458 0.65794 0.0
C1059 C 0.01875 0.13646 0.65248 0.0
N1060 N 0.07322 0.09902 0.68483 0.0
N1061 N 0.94684 0.20688 0.70464 0.0
C1062 C 0.04636 0.13061 0.68572 0.0
C1063 C 0.98139 0.18547 0.69603 0.0
N1064 N 0.07739 0.15843 0.74701 0.0
N1065 N 0.96035 0.17226 0.62642 0.0
H1066 H 0.94348 0.22258 0.73207 0.0
H1067 H 0.92062 0.20583 0.68684 0.0
H1068 H 0.96309 0.15796 0.59831 0.0
H1069 H 0.93838 0.19508 0.62696 0.0
H1070 H 0.10473 0.14302 0.74245 0.0
H1071 H 0.0766 0.17627 0.77328 0.0
H1072 H 0.09061 0.09021 0.70979 0.0
H1073 H 0.07606 0.07977 0.65996 0.0
C1074 C 0.85552 0.05058 0.71278 0.0
C1075 C 0.83859 0.01298 0.72576 0.0
C1076 C 0.87234 0.97896 0.66771 0.0
C1077 C 0.88799 0.01691 0.65365 0.0
N1078 N 0.90767 0.08504 0.67331 0.0
N1079 N 0.84114 0.94032 0.72301 0.0
C1080 C 0.88371 0.0516 0.67946 0.0
C1081 C 0.851 0.9768 0.70571 0.0
N1082 N 0.84311 0.08568 0.73114 0.0
N1083 N 0.87798 0.94481 0.64479 0.0
H1084 H 0.82547 0.93875 0.75064 0.0
H1085 H 0.85151 0.91234 0.7124 0.0
H1086 H 0.89628 0.94457 0.61885 0.0
H1087 H 0.86406 0.91699 0.65089 0.0
H1088 H 0.85016 0.11452 0.71995 0.0
H1089 H 0.82411 0.08552 0.75662 0.0
H1090 H 0.90845 0.10972 0.69321 0.0
H1091 H 0.92976 0.08631 0.65058 0.0
C1092 C 0.30399 0.03582 0.15753 0.0
C1093 C 0.29796 1.00342 0.18541 0.0
C1094 C 0.36495 0.97478 0.16477 0.0
C1095 C 0.37167 1.00786 0.13753 0.0
N1096 N 0.344 0.06707 0.10384 0.0
N1097 N 0.31714 0.93685 0.20746 0.0
C1098 C 0.33982 0.03722 0.13243 0.0
C1099 C 0.32674 0.97113 0.18607 0.0
N1100 N 0.27631 0.06685 0.15722 0.0
N1101 N 0.39535 0.94709 0.17085 0.0
H1102 H 0.28906 0.93368 0.22211 0.0
H1103 H 0.33464 0.91048 0.20742 0.0
H1104 H 0.42314 0.94845 0.15557 0.0
H1105 H 0.39432 0.92437 0.19284 0.0
H1106 H 0.28075 0.09447 0.14238 0.0
H1107 H 0.24899 0.06516 0.17348 0.0
H1108 H 0.3203 0.08583 0.09442 0.0
H1109 H 0.37112 0.07239 0.08832 0.0
C1110 C 0.04824 0.32238 0.18496 0.0
C1111 C 0.01453 0.29512 0.18388 0.0
C1112 C 0.98215 0.34009 0.13282 0.0
C1113 C 0.01277 0.37066 0.13903 0.0
N1114 N 0.07501 0.39051 0.17237 0.0
N1115 N 0.95019 0.27678 0.15508 0.0
C1116 C 0.04592 0.36154 0.16544 0.0
C1117 C 0.98229 0.30333 0.15637 0.0
N1118 N 0.08275 0.31027 0.20457 0.0
N1119 N 0.95245 0.34627 0.10444 0.0
H1120 H 0.95097 0.24884 0.1702 0.0
H1121 H 0.92263 0.28275 0.14064 0.0
H1122 H 0.94813 0.37405 0.08994 0.0
H1123 H 0.93295 0.32351 0.09409 0.0
H1124 H 0.10999 0.32657 0.20425 0.0
H1125 H 0.08491 0.2816 0.21804 0.0
H1126 H 0.09787 0.38765 0.1941 0.0
H1127 H 0.07465 0.41887 0.15822 0.0
C1128 C 0.69203 0.06035 0.19049 0.0
C1129 C 0.72169 0.02874 0.18847 0.0
C1130 C 0.67858 0.99311 0.13815 0.0
C1131 C 0.64821 0.02417 0.14063 0.0
N1132 N 0.62969 0.09104 0.16412 0.0
N1133 N 0.74826 0.97158 0.15239 0.0
C1134 C 0.65609 0.05896 0.16534 0.0
C1135 C 0.7166 0.99764 0.15912 0.0
N1136 N 0.69779 0.09096 0.21794 0.0
N1137 N 0.67008 0.95792 0.11762 0.0
H1138 H 0.7759 0.97464 0.16788 0.0
H1139 H 0.74868 0.95003 0.12919 0.0
H1140 H 0.64204 0.95246 0.10379 0.0
H1141 H 0.689 0.93252 0.11761 0.0
H1142 H 0.67566 0.11225 0.22568 0.0
H1143 H 0.72524 0.09428 0.23363 0.0
H1144 H 0.63526 0.11898 0.17797 0.0
H1145 H 0.60284 0.09052 0.14718 0.0
C1146 C 0.03229 0.71686 0.15836 0.0
C1147 C 0.99965 0.72476 0.18548 0.0
C1148 C 0.96787 0.65898 0.16525 0.0
C1149 C 1.00201 0.64967 0.14011 0.0
N1150 N 0.06501 0.67228 0.10944 0.0
N1151 N 0.93157 0.70937 0.20637 0.0
C1152 C 0.03342 0.6797 0.13546 0.0
C1153 C 0.9658 0.69763 0.18592 0.0
N1154 N 0.06388 0.74405 0.15723 0.0
N1155 N 0.93766 0.63064 0.16979 0.0
H1156 H 0.92979 0.73765 0.22076 0.0
H1157 H 0.90429 0.69319 0.20645 0.0
H1158 H 0.93772 0.60287 0.15442 0.0
H1159 H 0.91359 0.63343 0.1902 0.0
H1160 H 0.0916 0.73901 0.14273 0.0
H1161 H 0.06227 0.77207 0.17219 0.0
H1162 H 0.08559 0.69435 0.09976 0.0
H1163 H 0.07029 0.64377 0.09669 0.0
C1164 C 0.30948 0.97301 0.86343 0.0
C1165 C 0.30071 1.00621 0.83745 0.0
C1166 C 0.36174 0.04222 0.86427 0.0
C1167 C 0.37347 1.0068 0.88633 0.0
N1168 N 0.35279 0.94227 0.91451 0.0
N1169 N 0.3158 0.07393 0.81527 0.0
C1170 C 0.3454 0.97347 0.88823 0.0
C1171 C 0.32576 0.04159 0.83931 0.0
N1172 N 0.28472 0.93954 0.86172 0.0
N1173 N 0.38364 0.07726 0.86918 0.0
H1174 H 0.28815 0.07503 0.7996 0.0
H1175 H 0.33467 0.09886 0.81006 0.0
H1176 H 0.40837 0.07921 0.88894 0.0
H1177 H 0.37552 0.10525 0.85692 0.0
H1178 H 0.29148 0.91159 0.87492 0.0
H1179 H 0.25734 0.93969 0.84556 0.0
H1180 H 0.33127 0.92034 0.92227 0.0
H1181 H 0.38004 0.93955 0.9304 0.0
C1182 C 0.05273 0.30925 0.86479 0.0
C1183 C 0.01871 0.2998 0.83994 0.0
C1184 C 0.98511 0.36318 0.86365 0.0
C1185 C 0.01956 0.37321 0.88803 0.0
N1186 N 0.08294 0.35095 0.91763 0.0
N1187 N 0.94823 0.31112 0.82546 0.0
C1188 C 0.05216 0.34451 0.89055 0.0
C1189 C 0.98345 0.3247 0.84287 0.0
N1190 N 0.0868 0.28561 0.86167 0.0
N1191 N 0.95406 0.39057 0.85996 0.0
H1192 H 0.94675 0.28295 0.8108 0.0
H1193 H 0.92018 0.32551 0.8288 0.0
H1194 H 0.95382 0.41834 0.87529 0.0
H1195 H 0.92994 0.38708 0.83971 0.0
H1196 H 0.11488 0.29331 0.87427 0.0
H1197 H 0.087 0.25866 0.8448 0.0
H1198 H 0.10375 0.32852 0.92567 0.0
H1199 H 0.08622 0.37803 0.93378 0.0
C1200 C 0.69936 0.04871 0.84668 0.0
C1201 C 0.72211 0.01306 0.83795 0.0
C1202 C 0.67561 0.97449 0.8833 0.0
C1203 C 0.64968 0.00918 0.88715 0.0
N1204 N 0.63407 0.07747 0.86596 0.0
N1205 N 0.73172 0.94144 0.84727 0.0
C1206 C 0.66093 0.04582 0.86711 0.0
C1207 C 0.71043 0.97587 0.85673 0.0
N1208 N 0.71426 0.08536 0.83396 0.0
N1209 N 0.66649 0.93992 0.90447 0.0
H1210 H 0.75832 0.9424 0.82983 0.0
H1211 H 0.72265 0.91216 0.85524 0.0
H1212 H 0.64133 0.9377 0.92374 0.0
H1213 H 0.68493 0.91422 0.90516 0.0
H1214 H 0.70127 0.11317 0.8419 0.0
H1215 H 0.74214 0.0877 0.81874 0.0
H1216 H 0.63858 0.10353 0.84851 0.0
H1217 H 0.60559 0.07613 0.87993 0.0
C1218 C 0.98281 0.71249 0.86321 0.0
C1219 C 0.01602 0.71908 0.83645 0.0
C1220 C 0.04887 0.65634 0.86282 0.0
C1221 C 0.01458 0.64854 0.88839 0.0
N1222 N 0.95176 0.67355 0.9176 0.0
N1223 N 0.08446 0.70329 0.81718 0.0
C1224 C 0.98272 0.67825 0.89024 0.0
C1225 C 0.05043 0.69292 0.8388 0.0
N1226 N 0.94979 0.73765 0.86047 0.0
N1227 N 0.07984 0.62863 0.86124 0.0
H1228 H 0.08574 0.72995 0.79993 0.0
H1229 H 0.11209 0.68791 0.81874 0.0
H1230 H 0.08061 0.60274 0.87946 0.0
H1231 H 0.104 0.63002 0.84081 0.0
H1232 H 0.92183 0.73199 0.87434 0.0
H1233 H 0.95021 0.76397 0.84271 0.0
H1234 H 0.93153 0.69666 0.92528 0.0
H1235 H 0.94713 0.64688 0.934 0.0
C1236 C 0.17626 0.31744 0.04937 0.0
C1237 C 0.1912 0.30488 0.01073 0.0
C1238 C 0.1628 0.36814 0.98113 0.0
C1239 C 0.14512 0.37933 0.01883 0.0
N1240 N 0.12828 0.35932 0.08735 0.0
N1241 N 0.18812 0.31349 0.93825 0.0
C1242 C 0.14962 0.35217 0.05245 0.0
C1243 C 0.18026 0.32858 0.97614 0.0
N1244 N 0.18893 0.29749 0.08342 0.0
N1245 N 0.16387 0.3957 0.95012 0.0
H1246 H 0.20041 0.28449 0.93396 0.0
H1247 H 0.1789 0.32782 0.91157 0.0
H1248 H 0.15215 0.42502 0.95312 0.0
H1249 H 0.1796 0.39077 0.92304 0.0
H1250 H 0.18313 0.30795 0.11276 0.0
H1251 H 0.20717 0.27156 0.08209 0.0
H1252 H 0.12688 0.33866 0.11132 0.0
H1253 H 0.10973 0.3848 0.09107 0.0
C1254 C 0.15656 0.71805 0.98558 0.0
C1255 C 0.18059 0.72751 0.02014 0.0
C1256 C 0.15457 0.66526 0.054 0.0
C1257 C 0.1318 0.65459 0.01871 0.0
N1258 N 0.10559 0.67516 0.95327 0.0
N1259 N 0.19304 0.7172 0.09088 0.0
C1260 C 0.13072 0.68269 0.98549 0.0
C1261 C 0.17568 0.70356 0.05574 0.0
N1262 N 0.16121 0.74145 0.9516 0.0
N1263 N 0.15683 0.6384 0.08559 0.0
H1264 H 0.20885 0.74482 0.09193 0.0
H1265 H 0.18874 0.70351 0.11908 0.0
H1266 H 0.1414 0.61065 0.08567 0.0
H1267 H 0.17587 0.64229 0.11057 0.0
H1268 H 0.14941 0.73398 0.9232 0.0
H1269 H 0.17853 0.76816 0.95199 0.0
H1270 H 0.09935 0.69635 0.93063 0.0
H1271 H 0.08964 0.64795 0.94986 0.0
C1272 C 0.29937 0.15006 0.98264 0.0
C1273 C 0.29277 0.17757 0.01517 0.0
C1274 C 0.35914 0.15676 0.04469 0.0
C1275 C 0.3671 0.13069 0.01095 0.0
N1276 N 0.3393 0.09582 0.95248 0.0
N1277 N 0.30956 0.19685 0.08308 0.0
C1278 C 0.33523 0.12499 0.98169 0.0
C1279 C 0.32034 0.17676 0.04842 0.0
N1280 N 0.27255 0.15046 0.95095 0.0
N1281 N 0.38896 0.16322 0.07284 0.0
H1282 H 0.28151 0.21169 0.0855 0.0
H1283 H 0.32615 0.19565 0.11 0.0
H1284 H 0.41721 0.14895 0.07129 0.0
H1285 H 0.38689 0.18471 0.096 0.0
H1286 H 0.27759 0.13579 0.92334 0.0
H1287 H 0.24557 0.16728 0.95222 0.0
H1288 H 0.31559 0.08641 0.93365 0.0
H1289 H 0.36608 0.07949 0.94841 0.0
C1290 C 0.84558 0.31962 0.04501 0.0
C1291 C 0.84383 0.29414 0.01022 0.0
C1292 C 0.89538 0.33838 0.97727 0.0
C1293 C 0.89164 0.36756 0.00929 0.0
N1294 N 0.86152 0.38611 0.07347 0.0
N1295 N 0.86886 0.2773 0.94411 0.0
C1296 C 0.86641 0.35804 0.04325 0.0
C1297 C 0.8703 0.3025 0.97711 0.0
N1298 N 0.82622 0.30703 0.07951 0.0
N1299 N 0.92236 0.34543 0.94642 0.0
H1300 H 0.85206 0.25025 0.94454 0.0
H1301 H 0.88289 0.28343 0.9164 0.0
H1302 H 0.93784 0.37295 0.94312 0.0
H1303 H 0.93048 0.32369 0.9249 0.0
H1304 H 0.82831 0.32199 0.10732 0.0
H1305 H 0.81109 0.27906 0.08081 0.0
H1306 H 0.84063 0.38303 0.0971 0.0
H1307 H 0.87652 0.41408 0.07339 0.0
C1308 C 0.69374 0.83323 0.0541 0.0
C1309 C 0.72435 0.83614 0.02362 0.0
C1310 C 0.69386 0.90121 1.00237 0.0
C1311 C 0.65712 0.89253 0.02502 0.0
N1312 N 0.62647 0.85273 0.07868 0.0
N1313 N 0.75381 0.87369 0.96874 0.0
C1314 C 0.65846 0.85921 0.05285 0.0
C1315 C 0.72487 0.87086 0.99848 0.0
N1316 N 0.69878 0.80501 0.08406 0.0
N1317 N 0.70056 0.93838 0.98504 0.0
H1318 H 0.778 0.85318 0.96665 0.0
H1319 H 0.75256 0.89493 0.94525 0.0
H1320 H 0.67953 0.9617 0.98319 0.0
H1321 H 0.72902 0.94719 0.97394 0.0
H1322 H 0.67956 0.80197 0.10905 0.0
H1323 H 0.72512 0.78729 0.0856 0.0
H1324 H 0.62308 0.82665 0.0963 0.0
H1325 H 0.60262 0.87333 0.08212 0.0
C1326 C 0.8391 0.69739 0.04461 0.0
C1327 C 0.82842 0.71356 1.00584 0.0
C1328 C 0.86376 0.65524 0.97377 0.0
C1329 C 0.87735 0.64088 0.01201 0.0
N1330 N 0.88505 0.65438 0.08361 0.0
N1331 N 0.84139 0.71313 0.93387 0.0
C1332 C 0.86738 0.66402 0.04736 0.0
C1333 C 0.84492 0.69429 0.97067 0.0
N1334 N 0.82079 0.71222 0.07878 0.0
N1335 N 0.86756 0.63093 0.94035 0.0
H1336 H 0.82822 0.7419 0.93098 0.0
H1337 H 0.85497 0.70214 0.90741 0.0
H1338 H 0.88007 0.60182 0.94196 0.0
H1339 H 0.85486 0.63809 0.91224 0.0
H1340 H 0.82362 0.69848 0.10718 0.0
H1341 H 0.80075 0.73676 0.07828 0.0
H1342 H 0.88232 0.67248 0.10949 0.0
H1343 H 0.90492 0.62985 0.08687 0.0
C1344 C 0.32749 0.84109 0.97668 0.0
C1345 C 0.30576 0.83091 0.01272 0.0
C1346 C 0.35295 0.87581 0.0507 0.0
C1347 C 0.37904 0.87947 0.01602 0.0
N1348 N 0.39106 0.86292 0.94579 0.0
N1349 N 0.30035 0.83654 0.08532 0.0
C1350 C 0.3662 0.86121 0.97899 0.0
C1351 C 0.31902 0.84807 0.05007 0.0
N1352 N 0.31093 0.83075 0.94002 0.0
N1353 N 0.35984 0.89952 0.08408 0.0
H1354 H 0.27462 0.81782 0.08564 0.0
H1355 H 0.31166 0.84382 0.11401 0.0
H1356 H 0.38399 0.92007 0.08585 0.0
H1357 H 0.33967 0.90124 0.10851 0.0
H1358 H 0.32306 0.83986 0.9122 0.0
H1359 H 0.2826 0.81634 0.93784 0.0
H1360 H 0.38597 0.84625 0.91933 0.0
H1361 H 0.41785 0.87997 0.94543 0.0
C1362 C 0.71181 0.16368 0.97867 0.0
C1363 C 0.72077 0.18928 0.01223 0.0
C1364 C 0.65985 0.1615 0.04773 0.0
C1365 C 0.6476 0.14034 0.01194 0.0
N1366 N 0.67021 0.11081 0.94844 0.0
N1367 N 0.70301 0.21323 0.07887 0.0
C1368 C 0.67613 0.13838 0.97896 0.0
C1369 C 0.69496 0.18773 0.04706 0.0
N1370 N 0.73615 0.16595 0.94498 0.0
N1371 N 0.63991 0.15396 0.08337 0.0
H1372 H 0.72954 0.23079 0.08018 0.0
H1373 H 0.68278 0.21831 0.10274 0.0
H1374 H 0.61611 0.13301 0.08547 0.0
H1375 H 0.64946 0.16506 0.11144 0.0
H1376 H 0.72851 0.15368 0.91681 0.0
H1377 H 0.76366 0.18199 0.94493 0.0
H1378 H 0.69245 0.10332 0.92716 0.0
H1379 H 0.64406 0.09308 0.94584 0.0
C1380 C 0.46659 0.68329 0.82437 0.0
C1381 C 0.49963 0.68351 0.79638 0.0
C1382 C 0.53193 0.62886 0.8365 0.0
C1383 C 0.50213 0.63314 0.86823 0.0
N1384 N 0.44035 0.66555 0.89134 0.0
N1385 N 0.56325 0.65568 0.7748 0.0
C1386 C 0.46918 0.6607 0.86177 0.0
C1387 C 0.5315 0.65513 0.80174 0.0
N1388 N 0.43267 0.70523 0.81475 0.0
N1389 N 0.56149 0.59996 0.83973 0.0
H1390 H 0.56235 0.67299 0.7482 0.0
H1391 H 0.59072 0.64055 0.7793 0.0
H1392 H 0.56759 0.58482 0.86672 0.0
H1393 H 0.57923 0.59025 0.81535 0.0
H1394 H 0.40574 0.70469 0.83147 0.0
H1395 H 0.43058 0.72122 0.7874 0.0
H1396 H 0.418 0.68797 0.89069 0.0
H1397 H 0.43995 0.64848 0.91796 0.0
C1398 C 0.33665 0.47622 0.81864 0.0
C1399 C 0.33707 0.51153 0.79375 0.0
C1400 C 0.39003 0.5405 0.83888 0.0
C1401 C 0.38509 0.50765 0.86716 0.0
N1402 N 0.34707 0.44774 0.88585 0.0
N1403 N 0.36514 0.57699 0.77917 0.0
C1404 C 0.35675 0.47629 0.85738 0.0
C1405 C 0.36505 0.54303 0.80311 0.0
N1406 N 0.31513 0.44314 0.8056 0.0
N1407 N 0.41758 0.57048 0.84711 0.0
H1408 H 0.34843 0.57827 0.75219 0.0
H1409 H 0.38034 0.60389 0.78628 0.0
H1410 H 0.43065 0.57386 0.87567 0.0
H1411 H 0.42754 0.59163 0.82576 0.0
H1412 H 0.31562 0.41504 0.82022 0.0
H1413 H 0.30007 0.44315 0.77763 0.0
H1414 H 0.32379 0.42646 0.88215 0.0
H1415 H 0.35948 0.44789 0.91493 0.0
C1416 C 0.48828 0.32761 0.82546 0.0
C1417 C 0.51996 0.33055 0.79612 0.0
C1418 C 0.54893 0.38737 0.83629 0.0
C1419 C 0.52106 0.37955 0.86904 0.0
N1420 N 0.46933 0.33491 0.89623 0.0
N1421 N 0.58165 0.36283 0.77435 0.0
C1422 C 0.49202 0.34773 0.86393 0.0
C1423 C 0.55017 0.36096 0.80146 0.0
N1424 N 0.45537 0.30362 0.81697 0.0
N1425 N 0.57512 0.41957 0.83874 0.0
H1426 H 0.58197 0.34532 0.74785 0.0
H1427 H 0.60789 0.38016 0.77884 0.0
H1428 H 0.57892 0.43652 0.86516 0.0
H1429 H 0.59197 0.43031 0.81413 0.0
H1430 H 0.42953 0.30228 0.83538 0.0
H1431 H 0.45263 0.28843 0.78919 0.0
H1432 H 0.45063 0.30926 0.89529 0.0
H1433 H 0.47218 0.34736 0.92515 0.0
C1434 C 0.67885 0.48317 0.8174 0.0
C1435 C 0.68828 0.52118 0.79913 0.0
C1436 C 0.65185 0.55591 0.85528 0.0
C1437 C 0.64211 0.51789 0.87332 0.0
N1438 N 0.6573 0.44689 0.87814 0.0
N1439 N 0.67717 0.5931 0.7963 0.0
C1440 C 0.65822 0.4818 0.85584 0.0
C1441 C 0.67217 0.55728 0.8167 0.0
N1442 N 0.69043 0.44834 0.79796 0.0
N1443 N 0.64487 0.59071 0.87686 0.0
H1444 H 0.69189 0.59429 0.76815 0.0
H1445 H 0.66378 0.62039 0.8052 0.0
H1446 H 0.63195 0.59016 0.90584 0.0
H1447 H 0.65467 0.61944 0.86774 0.0
H1448 H 0.68189 0.41929 0.80735 0.0
H1449 H 0.70556 0.449 0.77004 0.0
H1450 H 0.67142 0.41989 0.86951 0.0
H1451 H 0.64566 0.44657 0.90761 0.0
C1452 C 0.55096 0.33459 0.19413 0.0
C1453 C 0.51696 0.33684 0.2211 0.0
C1454 C 0.48402 0.3849 0.17373 0.0
C1455 C 0.51714 0.38169 0.14564 0.0
N1456 N 0.58443 0.35649 0.13126 0.0
N1457 N 0.4575 0.3728 0.24203 0.0
C1458 C 0.55141 0.35742 0.15659 0.0
C1459 C 0.48598 0.36547 0.21267 0.0
N1460 N 0.58225 0.30931 0.2044 0.0
N1461 N 0.44921 0.40434 0.16197 0.0
H1462 H 0.45872 0.35825 0.27023 0.0
H1463 H 0.43563 0.39565 0.24011 0.0
H1464 H 0.44553 0.41653 0.13297 0.0
H1465 H 0.42258 0.40472 0.17917 0.0
H1466 H 0.60659 0.30207 0.1855 0.0
H1467 H 0.58339 0.29531 0.23286 0.0
H1468 H 0.61172 0.34192 0.13791 0.0
H1469 H 0.58519 0.37192 0.10358 0.0
C1470 C 0.67995 0.55128 0.19614 0.0
C1471 C 0.68177 0.51552 0.22036 0.0
C1472 C 0.63614 0.48116 0.17138 0.0
C1473 C 0.63462 0.51667 0.14653 0.0
N1474 N 0.64519 0.58915 0.14336 0.0
N1475 N 0.65208 0.45125 0.23729 0.0
C1476 C 0.65373 0.55283 0.16127 0.0
C1477 C 0.65606 0.48236 0.2101 0.0
N1478 N 0.70446 0.58345 0.20578 0.0
N1479 N 0.62023 0.44547 0.1571 0.0
H1480 H 0.6669 0.45189 0.26538 0.0
H1481 H 0.63139 0.42741 0.23387 0.0
H1482 H 0.60654 0.44294 0.12862 0.0
H1483 H 0.62404 0.41769 0.17177 0.0
H1484 H 0.70931 0.60815 0.18653 0.0
H1485 H 0.72106 0.58446 0.23278 0.0
H1486 H 0.65499 0.61712 0.15464 0.0
H1487 H 0.62407 0.59144 0.12001 0.0
C1488 C 0.4591 0.67933 0.19068 0.0
C1489 C 0.49202 0.68068 0.21884 0.0
C1490 C 0.52676 0.62793 0.17804 0.0
C1491 C 0.49718 0.63162 0.1461 0.0
N1492 N 0.43393 0.66087 0.12336 0.0
N1493 N 0.55715 0.6558 0.23965 0.0
C1494 C 0.46284 0.65727 0.15298 0.0
C1495 C 0.52527 0.65397 0.213 0.0
N1496 N 0.42444 0.70023 0.20019 0.0
N1497 N 0.55682 0.59951 0.17505 0.0
H1498 H 0.55569 0.67279 0.26643 0.0
H1499 H 0.58531 0.64212 0.23457 0.0
H1500 H 0.56236 0.58332 0.14858 0.0
H1501 H 0.57512 0.59072 0.19935 0.0
H1502 H 0.39771 0.69913 0.18324 0.0
H1503 H 0.42167 0.71612 0.22757 0.0
H1504 H 0.41002 0.6816 0.12437 0.0
H1505 H 0.435 0.64443 0.09631 0.0
C1506 C 0.36397 0.52208 0.21031 0.0
C1507 C 0.33481 0.49076 0.21586 0.0
C1508 C 0.35758 0.46028 0.15029 0.0
C1509 C 0.3826 0.49491 0.1423 0.0
N1510 N 0.40483 0.56178 0.16329 0.0
N1511 N 0.30512 0.42838 0.1924 0.0
C1512 C 0.3848 0.52637 0.17226 0.0
C1513 C 0.33251 0.45908 0.18631 0.0
N1514 N 0.37089 0.54844 0.24166 0.0
N1515 N 0.35862 0.42801 0.12409 0.0
H1516 H 0.2899 0.42491 0.22005 0.0
H1517 H 0.29709 0.40706 0.17041 0.0
H1518 H 0.37576 0.4282 0.09739 0.0
H1519 H 0.34467 0.40013 0.1298 0.0
H1520 H 0.39413 0.57007 0.24168 0.0
H1521 H 0.35567 0.54559 0.26943 0.0
H1522 H 0.40436 0.58744 0.18185 0.0
H1523 H 0.4185 0.56712 0.1352 0.0
C1524 C 0.81892 0.47652 0.67518 0.0
C1525 C 0.79777 0.51379 0.68073 0.0
C1526 C 0.84331 0.5455 0.62982 0.0
C1527 C 0.86921 0.51043 0.63007 0.0
N1528 N 0.87911 0.44089 0.6507 0.0
N1529 N 0.78907 0.5838 0.66288 0.0
C1530 C 0.85606 0.47537 0.65201 0.0
C1531 C 0.80926 0.54795 0.65704 0.0
N1532 N 0.80335 0.44236 0.69307 0.0
N1533 N 0.85103 0.57667 0.60343 0.0
H1534 H 0.76289 0.5856 0.6809 0.0
H1535 H 0.79902 0.61169 0.65153 0.0
H1536 H 0.87681 0.5779 0.58506 0.0
H1537 H 0.83072 0.60038 0.59806 0.0
H1538 H 0.81484 0.41319 0.68875 0.0
H1539 H 0.7763 0.44317 0.70984 0.0
H1540 H 0.87448 0.41572 0.66932 0.0
H1541 H 0.90379 0.43778 0.63105 0.0
C1542 C 0.53629 0.80673 0.65932 0.0
C1543 C 0.50221 0.80031 0.68522 0.0
C1544 C 0.47164 0.86428 0.65962 0.0
C1545 C 0.50606 0.87124 0.63411 0.0
N1546 N 0.56902 0.84601 0.60575 0.0
N1547 N 0.43368 0.81743 0.70317 0.0
C1548 C 0.53749 0.84121 0.63252 0.0
C1549 C 0.46854 0.8273 0.68268 0.0
N1550 N 0.56877 0.78094 0.66243 0.0
N1551 N 0.44238 0.89361 0.66273 0.0
H1552 H 0.43125 0.7906 0.72002 0.0
H1553 H 0.40644 0.8334 0.70061 0.0
H1554 H 0.44359 0.92065 0.6463 0.0
H1555 H 0.41856 0.8927 0.68362 0.0
H1556 H 0.59703 0.78609 0.64897 0.0
H1557 H 0.56756 0.75452 0.68002 0.0
H1558 H 0.59015 0.82338 0.59908 0.0
H1559 H 0.57335 0.8725 0.5889 0.0
C1560 C 0.20734 0.48606 0.66812 0.0
C1561 C 0.21655 0.52429 0.68609 0.0
C1562 C 0.15361 0.55228 0.65518 0.0
C1563 C 0.14549 0.51482 0.63524 0.0
N1564 N 0.17194 0.44935 0.61491 0.0
N1565 N 0.20462 0.59643 0.68582 0.0
C1566 C 0.17483 0.48289 0.63908 0.0
C1567 C 0.19182 0.55828 0.67534 0.0
N1568 N 0.22789 0.45213 0.68031 0.0
N1569 N 0.12468 0.58209 0.65567 0.0
H1570 H 0.23255 0.60137 0.70025 0.0
H1571 H 0.18972 0.62289 0.67674 0.0
H1572 H 0.0967 0.5791 0.64099 0.0
H1573 H 0.12728 0.60843 0.67313 0.0
H1574 H 0.21907 0.42274 0.67216 0.0
H1575 H 0.25227 0.45321 0.70053 0.0
H1576 H 0.1949 0.42755 0.61291 0.0
H1577 H 0.14817 0.44524 0.59444 0.0
C1578 C 0.48702 0.20363 0.66921 0.0
C1579 C 0.52664 0.21783 0.68 0.0
C1580 C 0.55597 0.15769 0.64584 0.0
C1581 C 0.51692 0.14451 0.63294 0.0
N1582 N 0.4457 0.16061 0.62506 0.0
N1583 N 0.59855 0.21439 0.66703 0.0
C1584 C 0.48258 0.16947 0.64211 0.0
C1585 C 0.56087 0.19714 0.66339 0.0
N1586 N 0.45363 0.22124 0.68653 0.0
N1587 N 0.58829 0.13175 0.64315 0.0
H1588 H 0.60252 0.24307 0.68021 0.0
H1589 H 0.62462 0.20213 0.6537 0.0
H1590 H 0.58533 0.10227 0.63173 0.0
H1591 H 0.61681 0.13822 0.65551 0.0
H1592 H 0.42433 0.20922 0.68403 0.0
H1593 H 0.45574 0.24694 0.70502 0.0
H1594 H 0.4205 0.17974 0.6273 0.0
H1595 H 0.44125 0.1354 0.60627 0.0
C1596 C 0.83023 0.55296 0.32694 0.0
C1597 C 0.79971 0.52218 0.3302 0.0
C1598 C 0.83991 0.48993 0.38473 0.0
C1599 C 0.87234 0.51889 0.37939 0.0
N1600 N 0.89126 0.58505 0.35432 0.0
N1601 N 0.77206 0.46519 0.36562 0.0
C1602 C 0.86548 0.55244 0.35289 0.0
C1603 C 0.80319 0.4926 0.36116 0.0
N1604 N 0.82615 0.58172 0.29732 0.0
N1605 N 0.84458 0.45937 0.41233 0.0
H1606 H 0.74474 0.46809 0.34962 0.0
H1607 H 0.77229 0.44016 0.38488 0.0
H1608 H 0.87237 0.45336 0.42604 0.0
H1609 H 0.82159 0.43979 0.4218 0.0
H1610 H 0.84927 0.60171 0.28876 0.0
H1611 H 0.7994 0.58441 0.28037 0.0
H1612 H 0.88621 0.6122 0.33886 0.0
H1613 H 0.91578 0.58645 0.37436 0.0
C1614 C 0.46242 0.811 0.34875 0.0
C1615 C 0.49991 0.79395 0.33527 0.0
C1616 C 0.53609 0.8526 0.36563 0.0
C1617 C 0.49905 0.86913 0.38051 0.0
N1618 N 0.42756 0.85848 0.39376 0.0
N1619 N 0.57261 0.79259 0.34228 0.0
C1620 C 0.46241 0.84638 0.37463 0.0
C1621 C 0.53672 0.8125 0.34869 0.0
N1622 N 0.42678 0.79464 0.33497 0.0
N1623 N 0.57048 0.876 0.36577 0.0
H1624 H 0.57331 0.76357 0.32928 0.0
H1625 H 0.60055 0.80309 0.3531 0.0
H1626 H 0.57051 0.90588 0.37651 0.0
H1627 H 0.59766 0.86716 0.35196 0.0
H1628 H 0.39845 0.80827 0.33931 0.0
H1629 H 0.42614 0.76804 0.31761 0.0
H1630 H 0.40092 0.84117 0.394 0.0
H1631 H 0.42631 0.88465 0.41165 0.0
C1632 C 0.22153 0.51216 0.36577 0.0
C1633 C 0.22277 0.48485 0.33272 0.0
C1634 C 0.15505 0.45803 0.35437 0.0
C1635 C 0.15047 0.49062 0.38266 0.0
N1636 N 0.18067 0.55021 0.41371 0.0
N1637 N 0.19304 0.42827 0.29782 0.0
C1638 C 0.1845 0.51758 0.38837 0.0
C1639 C 0.19031 0.45632 0.32826 0.0
N1640 N 0.25596 0.53385 0.37455 0.0
N1641 N 0.12663 0.4277 0.35368 0.0
H1642 H 0.22014 0.42407 0.28172 0.0
H1643 H 0.16896 0.40997 0.28826 0.0
H1644 H 0.10216 0.42703 0.37381 0.0
H1645 H 0.12919 0.40138 0.33627 0.0
H1646 H 0.25938 0.55197 0.40029 0.0
H1647 H 0.28274 0.53016 0.35774 0.0
H1648 H 0.20255 0.57296 0.41677 0.0
H1649 H 0.15382 0.55666 0.42907 0.0
C1650 C 0.47281 0.19994 0.34918 0.0
C1651 C 0.50838 0.21864 0.33275 0.0
C1652 C 0.54893 0.16658 0.36948 0.0
C1653 C 0.5129 0.14389 0.37861 0.0
N1654 N 0.44078 0.1363 0.36849 0.0
N1655 N 0.58132 0.2168 0.32544 0.0
C1656 C 0.4749 0.15995 0.36603 0.0
C1657 C 0.54686 0.20136 0.34283 0.0
N1658 N 0.43642 0.21979 0.34626 0.0
N1659 N 0.58511 0.1551 0.3863 0.0
H1660 H 0.58088 0.24271 0.30716 0.0
H1661 H 0.60969 0.20277 0.32762 0.0
H1662 H 0.58771 0.12956 0.40493 0.0
H1663 H 0.61164 0.17246 0.38406 0.0
H1664 H 0.40959 0.20898 0.35941 0.0
H1665 H 0.43439 0.24899 0.33388 0.0
H1666 H 0.41283 0.14483 0.35616 0.0
H1667 H 0.44161 0.10654 0.37947 0.0
C1668 C 0.65474 0.8005 0.47755 0.0
C1669 C 0.68319 0.79509 0.50941 0.0
C1670 C 0.65838 0.85886 0.5414 0.0
C1671 C 0.63136 0.8657 0.50818 0.0
N1672 N 0.59811 0.83786 0.44876 0.0
N1673 N 0.70418 0.81217 0.5768 0.0
C1674 C 0.62752 0.83463 0.47786 0.0
C1675 C 0.68188 0.82199 0.54323 0.0
N1676 N 0.65611 0.77437 0.44527 0.0
N1677 N 0.66199 0.88782 0.571 0.0
H1678 H 0.72096 0.78523 0.57821 0.0
H1679 H 0.7033 0.82825 0.60404 0.0
H1680 H 0.64445 0.91421 0.57145 0.0
H1681 H 0.68368 0.88697 0.59403 0.0
H1682 H 0.64076 0.77907 0.41801 0.0
H1683 H 0.6743 0.7483 0.4456 0.0
H1684 H 0.58952 0.81387 0.42994 0.0
H1685 H 0.58082 0.86402 0.44462 0.0
C1686 C 0.66364 0.20776 0.52569 0.0
C1687 C 0.6906 0.21315 0.49244 0.0
C1688 C 0.66672 0.14706 0.46373 0.0
C1689 C 0.64054 0.14104 0.49783 0.0
N1690 N 0.61034 0.16882 0.55871 0.0
N1691 N 0.713 0.19223 0.42642 0.0
C1692 C 0.6378 0.17258 0.52776 0.0
C1693 C 0.69023 0.18406 0.46026 0.0
N1694 N 0.66493 0.2352 0.55693 0.0
N1695 N 0.66922 0.11732 0.43475 0.0
H1696 H 0.72966 0.2192 0.42354 0.0
H1697 H 0.71332 0.17439 0.40033 0.0
H1698 H 0.65161 0.0909 0.43562 0.0
H1699 H 0.68962 0.11766 0.41056 0.0
H1700 H 0.65096 0.23081 0.58499 0.0
H1701 H 0.68155 0.26226 0.55512 0.0
H1702 H 0.60143 0.19292 0.5772 0.0
H1703 H 0.59516 0.1417 0.56492 0.0
C1704 C 0.83216 0.68898 0.54159 0.0
C1705 C 0.80601 0.69077 0.50714 0.0
C1706 C 0.84851 0.63836 0.47373 0.0
C1707 C 0.87737 0.6399 0.50623 0.0
N1708 N 0.89689 0.66749 0.57112 0.0
N1709 N 0.78887 0.66726 0.44039 0.0
C1710 C 0.8691 0.66542 0.54027 0.0
C1711 C 0.81374 0.66474 0.47361 0.0
N1712 N 0.82126 0.71024 0.57558 0.0
N1713 N 0.85466 0.61174 0.44245 0.0
H1714 H 0.76208 0.68437 0.44056 0.0
H1715 H 0.79512 0.65378 0.41245 0.0
H1716 H 0.88185 0.59591 0.43871 0.0
H1717 H 0.83258 0.60433 0.421 0.0
H1718 H 0.83667 0.70887 0.60315 0.0
H1719 H 0.7942 0.72688 0.57697 0.0
H1720 H 0.89497 0.68759 0.59546 0.0
H1721 H 0.92359 0.65037 0.57126 0.0
C1722 C 0.32915 0.82868 0.46906 0.0
C1723 C 0.32827 0.80112 0.5024 0.0
C1724 C 0.38089 0.84301 0.53643 0.0
C1725 C 0.37791 0.87347 0.50539 0.0
N1726 N 0.34737 0.89557 0.44259 0.0
N1727 N 0.35227 0.78259 0.56858 0.0
C1728 C 0.35152 0.86628 0.47177 0.0
C1729 C 0.35452 0.80816 0.5359 0.0
N1730 N 0.30801 0.81855 0.43475 0.0
N1731 N 0.4089 0.8474 0.56687 0.0
H1732 H 0.33521 0.75574 0.56801 0.0
H1733 H 0.36566 0.78862 0.59662 0.0
H1734 H 0.42562 0.87395 0.57145 0.0
H1735 H 0.4168 0.82419 0.58687 0.0
H1736 H 0.30936 0.83491 0.40772 0.0
H1737 H 0.29181 0.79125 0.43245 0.0
H1738 H 0.32585 0.89438 0.41942 0.0
H1739 H 0.36409 0.92257 0.44269 0.0
C1740 C 0.20403 0.35146 0.47412 0.0
C1741 C 0.21598 0.32786 0.50814 0.0
C1742 C 0.15822 0.35763 0.54666 0.0
C1743 C 0.14263 0.37584 0.51062 0.0
N1744 N 0.14976 0.38684 0.43875 0.0
N1745 N 0.20344 0.30751 0.57713 0.0
C1746 C 0.16558 0.37206 0.47409 0.0
C1747 C 0.19299 0.33114 0.54469 0.0
N1748 N 0.22964 0.35355 0.44144 0.0
N1749 N 0.14057 0.36653 0.58309 0.0
H1750 H 0.22999 0.29008 0.57744 0.0
H1751 H 0.1852 0.30411 0.60283 0.0
H1752 H 0.11485 0.38497 0.58545 0.0
H1753 H 0.15347 0.35876 0.61091 0.0
H1754 H 0.22506 0.37291 0.41682 0.0
H1755 H 0.25777 0.33869 0.44115 0.0
H1756 H 0.16259 0.38114 0.41038 0.0
H1757 H 0.12158 0.40142 0.43753 0.0
C1758 C 0.36758 0.21699 0.48289 0.0
C1759 C 0.33775 0.2222 0.51352 0.0
C1760 C 0.36013 0.15731 0.54531 0.0
C1761 C 0.38756 0.1501 0.51241 0.0
N1762 N 0.42172 0.17685 0.45299 0.0
N1763 N 0.31244 0.20376 0.57901 0.0
C1764 C 0.39286 0.18143 0.48252 0.0
C1765 C 0.33672 0.19439 0.54662 0.0
N1766 N 0.36904 0.24489 0.45213 0.0
N1767 N 0.35638 0.12866 0.5752 0.0
H1768 H 0.29635 0.23113 0.58024 0.0
H1769 H 0.31037 0.18664 0.60549 0.0
H1770 H 0.37415 0.10242 0.57617 0.0
H1771 H 0.33507 0.1299 0.59857 0.0
H1772 H 0.38578 0.24141 0.4255 0.0
H1773 H 0.35209 0.27176 0.45322 0.0
H1774 H 0.43215 0.20053 0.43477 0.0
H1775 H 0.43626 0.14933 0.44735 0.0
C1776 C 0.79918 0.36519 0.52614 0.0
C1777 C 0.79272 0.33884 0.49274 0.0
C1778 C 0.85485 0.36737 0.46035 0.0
C1779 C 0.86566 0.38743 0.49728 0.0
N1780 N 0.84646 0.40651 0.56538 0.0
N1781 N 0.81178 0.31753 0.42587 0.0
C1782 C 0.83687 0.38717 0.52992 0.0
C1783 C 0.81938 0.34169 0.45878 0.0
N1784 N 0.76934 0.36765 0.55497 0.0
N1785 N 0.87759 0.37406 0.42629 0.0
H1786 H 0.785 0.30045 0.42354 0.0
H1787 H 0.83202 0.31347 0.40186 0.0
H1788 H 0.90357 0.39238 0.42646 0.0
H1789 H 0.86906 0.36448 0.39737 0.0
H1790 H 0.76969 0.38807 0.57916 0.0
H1791 H 0.7422 0.35118 0.55217 0.0
H1792 H 0.82895 0.40476 0.59169 0.0
H1793 H 0.87374 0.42225 0.56933 0.0
C1794 C 0.21604 0.65192 0.53602 0.0
C1795 C 0.22559 0.6765 0.502 0.0
C1796 C 0.16711 0.64559 0.4656 0.0
C1797 C 0.15287 0.6277 0.50245 0.0
N1798 N 0.16463 0.61394 0.5733 0.0
N1799 N 0.21172 0.69523 0.43305 0.0
C1800 C 0.17802 0.6304 0.53764 0.0
C1801 C 0.20202 0.67197 0.46604 0.0
N1802 N 0.24312 0.65078 0.56746 0.0
N1803 N 0.14793 0.63661 0.42994 0.0
H1804 H 0.23825 0.71283 0.43215 0.0
H1805 H 0.19306 0.69829 0.40766 0.0
H1806 H 0.12245 0.61764 0.42857 0.0
H1807 H 0.15895 0.6452 0.40152 0.0
H1808 H 0.24036 0.6314 0.59234 0.0
H1809 H 0.27055 0.66697 0.56631 0.0
H1810 H 0.1791 0.61863 0.601 0.0
H1811 H 0.13709 0.59823 0.57567 0.0
loop_
_geom_bond_atom_site_label_1
_geom_bond_atom_site_label_2
_geom_bond_distance
_geom_bond_site_symmetry_2
_ccdc_geom_bond_type
H0 C3 0.931 1_655 S
H1 C6 0.928 . S
H2 C8 0.931 . S
C3 H0 0.931 1_455 S
C3 C4 1.413 . S
C3 C5 1.360 . S
C4 C3 1.413 . S
C4 C8 1.429 . S
C5 C3 1.360 . S
C5 C6 1.372 1_455 S
C6 H1 0.928 . S
C6 C5 1.372 1_655 S
C6 C7 1.404 1_655 S
C7 C6 1.404 1_455 S
C7 C8 1.390 . S
C8 H2 0.931 . S
C8 C4 1.429 . S
C8 C7 1.390 . S
H9 C12 0.931 . S
H10 C15 0.928 . S
H11 C17 0.930 . S
C12 H9 0.931 . S
C12 C13 1.413 . S
C12 C14 1.360 . S
C13 C12 1.413 . S
C13 C17 1.429 1_545 S
C14 C12 1.360 . S
C14 C15 1.373 . S
C15 H10 0.928 . S
C15 C14 1.373 . S
C15 C16 1.405 . S
C16 C15 1.405 . S
C16 C17 1.390 1_545 S
C17 H11 0.930 . S
C17 C13 1.429 1_565 S
C17 C16 1.390 1_565 S
H18 C21 0.931 . S
H19 C24 0.928 . S
H20 C26 0.930 1_655 S
C21 H18 0.931 . S
C21 C22 1.414 . S
C21 C23 1.360 . S
C22 C21 1.414 . S
C22 C26 1.429 . S
C23 C21 1.360 . S
C23 C24 1.372 . S
C24 H19 0.928 . S
C24 C23 1.372 . S
C24 C25 1.404 . S
C25 C24 1.404 . S
C25 C26 1.391 . S
C26 H20 0.930 1_455 S
C26 C22 1.429 . S
C26 C25 1.391 . S
H27 C30 0.931 . S
H28 C33 0.928 . S
H29 C35 0.930 . S
C30 H27 0.931 . S
C30 C31 1.413 . S
C30 C32 1.360 . S
C31 C30 1.413 . S
C31 C35 1.429 1_545 S
C32 C30 1.360 . S
C32 C33 1.373 . S
C33 H28 0.928 . S
C33 C32 1.373 . S
C33 C34 1.405 . S
C34 C33 1.405 . S
C34 C35 1.390 1_545 S
C35 H29 0.930 . S
C35 C31 1.429 1_565 S
C35 C34 1.390 1_565 S
H36 C39 0.931 1_655 S
H37 C42 0.928 . S
H38 C44 0.931 . S
C39 H36 0.931 1_455 S
C39 C40 1.413 . S
C39 C41 1.360 . S
C40 C39 1.413 . S
C40 C44 1.429 . S
C41 C39 1.360 . S
C41 C42 1.372 1_455 S
C42 H37 0.928 . S
C42 C41 1.372 1_655 S
C42 C43 1.404 1_655 S
C43 C42 1.404 1_455 S
C43 C44 1.390 . S
C44 H38 0.931 . S
C44 C40 1.429 . S
C44 C43 1.390 . S
H45 C48 0.931 . S
H46 C51 0.928 . S
H47 C53 0.931 . S
C48 H45 0.931 . S
C48 C49 1.413 . S
C48 C50 1.360 . S
C49 C48 1.413 . S
C49 C53 1.429 1_565 S
C50 C48 1.360 . S
C50 C51 1.372 . S
C51 H46 0.928 . S
C51 C50 1.372 . S
C51 C52 1.404 . S
C52 C51 1.404 . S
C52 C53 1.390 1_565 S
C53 H47 0.931 . S
C53 C49 1.429 1_545 S
C53 C52 1.390 1_545 S
H54 C57 0.931 1_655 S
H55 C60 0.928 . S
H56 C62 0.931 . S
C57 H54 0.931 1_455 S
C57 C58 1.413 . S
C57 C59 1.360 . S
C58 C57 1.413 . S
C58 C62 1.429 . S
C59 C57 1.360 . S
C59 C60 1.372 1_455 S
C60 H55 0.928 . S
C60 C59 1.372 1_655 S
C60 C61 1.404 1_655 S
C61 C60 1.404 1_455 S
C61 C62 1.390 . S
C62 H56 0.931 . S
C62 C58 1.429 . S
C62 C61 1.390 . S
H63 C66 0.931 . S
H64 C69 0.928 . S
H65 C71 0.931 . S
C66 H63 0.931 . S
C66 C67 1.413 . S
C66 C68 1.360 . S
C67 C66 1.413 . S
C67 C71 1.429 1_565 S
C68 C66 1.360 . S
C68 C69 1.372 . S
C69 H64 0.928 . S
C69 C68 1.372 . S
C69 C70 1.404 . S
C70 C69 1.404 . S
C70 C71 1.390 1_565 S
C71 H65 0.931 . S
C71 C67 1.429 1_545 S
C71 C70 1.390 1_545 S
H72 C75 0.931 . S
H73 C78 0.928 . S
H74 C80 0.931 . S
C75 H72 0.931 . S
C75 C76 1.413 . S
C75 C77 1.360 . S
C76 C75 1.413 . S
C76 C80 1.429 1_556 S
C77 C75 1.360 . S
C77 C78 1.372 . S
C78 H73 0.928 . S
C78 C77 1.372 . S
C78 C79 1.404 . S
C79 C78 1.404 . S
C79 C80 1.390 1_556 S
C80 H74 0.931 . S
C80 C76 1.429 1_554 S
C80 C79 1.390 1_554 S
H81 C84 0.931 . S
H82 C87 0.928 . S
H83 C89 0.931 . S
C84 H81 0.931 . S
C84 C85 1.413 . S
C84 C86 1.360 . S
C85 C84 1.413 . S
C85 C89 1.429 1_556 S
C86 C84 1.360 . S
C86 C87 1.372 . S
C87 H82 0.928 . S
C87 C86 1.372 . S
C87 C88 1.404 . S
C88 C87 1.404 . S
C88 C89 1.390 1_556 S
C89 H83 0.931 . S
C89 C85 1.429 1_554 S
C89 C88 1.390 1_554 S
H90 C93 0.931 . S
H91 C96 0.928 . S
H92 C98 0.931 . S
C93 H90 0.931 . S
C93 C94 1.413 . S
C93 C95 1.360 . S
C94 C93 1.413 . S
C94 C98 1.429 1_556 S
C95 C93 1.360 . S
C95 C96 1.372 . S
C96 H91 0.928 . S
C96 C95 1.372 . S
C96 C97 1.404 . S
C97 C96 1.404 . S
C97 C98 1.390 1_556 S
C98 H92 0.931 . S
C98 C94 1.429 1_554 S
C98 C97 1.390 1_554 S
H99 C102 0.931 . S
H100 C105 0.928 . S
H101 C107 0.930 . S
C102 H99 0.931 . S
C102 C103 1.413 . S
C102 C104 1.360 . S
C103 C102 1.413 . S
C103 C107 1.429 1_554 S
C104 C102 1.360 . S
C104 C105 1.373 . S
C105 H100 0.928 . S
C105 C104 1.373 . S
C105 C106 1.405 . S
C106 C105 1.405 . S
C106 C107 1.390 1_554 S
C107 H101 0.930 . S
C107 C103 1.429 1_556 S
C107 C106 1.390 1_556 S
H108 C111 0.931 . S
H109 C114 0.928 . S
H110 C116 0.930 . S
C111 H108 0.931 . S
C111 C112 1.413 . S
C111 C113 1.360 . S
C112 C111 1.413 . S
C112 C116 1.429 . S
C113 C111 1.360 . S
C113 C114 1.372 . S
C114 H109 0.928 . S
C114 C113 1.372 . S
C114 C115 1.404 . S
C115 C114 1.404 . S
C115 C116 1.391 . S
C116 H110 0.930 . S
C116 C112 1.429 . S
C116 C115 1.391 . S
H117 C120 0.931 . S
H118 C123 0.928 . S
H119 C125 0.930 . S
C120 H117 0.931 . S
C120 C121 1.413 . S
C120 C122 1.360 . S
C121 C120 1.413 . S
C121 C125 1.429 . S
C122 C120 1.360 . S
C122 C123 1.372 . S
C123 H118 0.928 . S
C123 C122 1.372 . S
C123 C124 1.404 . S
C124 C123 1.404 . S
C124 C125 1.391 . S
C125 H119 0.930 . S
C125 C121 1.429 . S
C125 C124 1.391 . S
H126 C129 0.931 . S
H127 C132 0.928 . S
H128 C134 0.930 . S
C129 H126 0.931 . S
C129 C130 1.413 . S
C129 C131 1.360 . S
C130 C129 1.413 . S
C130 C134 1.429 . S
C131 C129 1.360 . S
C131 C132 1.372 . S
C132 H127 0.928 . S
C132 C131 1.372 . S
C132 C133 1.404 . S
C133 C132 1.404 . S
C133 C134 1.391 . S
C134 H128 0.930 . S
C134 C130 1.429 . S
C134 C133 1.391 . S
H135 C138 0.931 . S
H136 C141 0.928 . S
H137 C143 0.930 . S
C138 H135 0.931 . S
C138 C139 1.413 . S
C138 C140 1.360 . S
C139 C138 1.413 . S
C139 C143 1.429 . S
C140 C138 1.360 . S
C140 C141 1.372 . S
C141 H136 0.928 . S
C141 C140 1.372 . S
C141 C142 1.404 . S
C142 C141 1.404 . S
C142 C143 1.391 . S
C143 H137 0.930 . S
C143 C139 1.429 . S
C143 C142 1.391 . S
H144 C147 0.931 . S
H145 C150 0.928 . S
H146 C152 0.930 . S
C147 H144 0.931 . S
C147 C148 1.413 . S
C147 C149 1.360 . S
C148 C147 1.413 . S
C148 C152 1.429 . S
C149 C147 1.360 . S
C149 C150 1.372 . S
C150 H145 0.928 . S
C150 C149 1.372 . S
C150 C151 1.404 . S
C151 C150 1.404 . S
C151 C152 1.391 . S
C152 H146 0.930 . S
C152 C148 1.429 . S
C152 C151 1.391 . S
H153 C156 0.931 . S
H154 C159 0.928 . S
H155 C161 0.930 . S
C156 H153 0.931 . S
C156 C157 1.413 . S
C156 C158 1.360 . S
C157 C156 1.413 . S
C157 C161 1.429 . S
C158 C156 1.360 . S
C158 C159 1.372 . S
C159 H154 0.928 . S
C159 C158 1.372 . S
C159 C160 1.404 . S
C160 C159 1.404 . S
C160 C161 1.391 . S
C161 H155 0.930 . S
C161 C157 1.429 . S
C161 C160 1.391 . S
H162 C165 0.931 . S
H163 C168 0.928 . S
H164 C170 0.930 . S
C165 H162 0.931 . S
C165 C166 1.413 . S
C165 C167 1.360 . S
C166 C165 1.413 . S
C166 C170 1.429 . S
C167 C165 1.360 . S
C167 C168 1.372 . S
C168 H163 0.928 . S
C168 C167 1.372 . S
C168 C169 1.404 . S
C169 C168 1.404 . S
C169 C170 1.391 . S
C170 H164 0.930 . S
C170 C166 1.429 . S
C170 C169 1.391 . S
H171 C174 0.931 . S
H172 C177 0.928 . S
H173 C179 0.930 . S
C174 H171 0.931 . S
C174 C175 1.413 . S
C174 C176 1.360 . S
C175 C174 1.413 . S
C175 C179 1.429 . S
C176 C174 1.360 . S
C176 C177 1.372 . S
C177 H172 0.928 . S
C177 C176 1.372 . S
C177 C178 1.404 . S
C178 C177 1.404 . S
C178 C179 1.391 . S
C179 H173 0.930 . S
C179 C175 1.429 . S
C179 C178 1.391 . S
H180 C183 0.931 . S
H181 C186 0.928 . S
H182 C188 0.930 . S
C183 H180 0.931 . S
C183 C184 1.413 . S
C183 C185 1.360 . S
C184 C183 1.413 . S
C184 C188 1.429 . S
C185 C183 1.360 . S
C185 C186 1.372 . S
C186 H181 0.928 . S
C186 C185 1.372 . S
C186 C187 1.404 . S
C187 C186 1.404 . S
C187 C188 1.391 . S
C188 H182 0.930 . S
C188 C184 1.429 . S
C188 C187 1.391 . S
H189 C192 0.931 . S
H190 C195 0.928 . S
H191 C197 0.930 . S
C192 H189 0.931 . S
C192 C193 1.413 . S
C192 C194 1.360 . S
C193 C192 1.413 . S
C193 C197 1.429 . S
C194 C192 1.360 . S
C194 C195 1.372 . S
C195 H190 0.928 . S
C195 C194 1.372 . S
C195 C196 1.404 . S
C196 C195 1.404 . S
C196 C197 1.391 . S
C197 H191 0.930 . S
C197 C193 1.429 . S
C197 C196 1.391 . S
H198 C201 0.931 . S
H199 C204 0.928 . S
H200 C206 0.930 . S
C201 H198 0.931 . S
C201 C202 1.413 . S
C201 C203 1.360 . S
C202 C201 1.413 . S
C202 C206 1.429 . S
C203 C201 1.360 . S
C203 C204 1.372 . S
C204 H199 0.928 . S
C204 C203 1.372 . S
C204 C205 1.404 . S
C205 C204 1.404 . S
C205 C206 1.391 . S
C206 H200 0.930 . S
C206 C202 1.429 . S
C206 C205 1.391 . S
H207 C210 0.931 . S
H208 C213 0.928 . S
H209 C215 0.930 . S
C210 H207 0.931 . S
C210 C211 1.413 . S
C210 C212 1.360 . S
C211 C210 1.413 . S
C211 C215 1.429 . S
C212 C210 1.360 . S
C212 C213 1.372 . S
C213 H208 0.928 . S
C213 C212 1.372 . S
C213 C214 1.404 . S
C214 C213 1.404 . S
C214 C215 1.391 . S
C215 H209 0.930 . S
C215 C211 1.429 . S
C215 C214 1.391 . S
C216 O242 1.283 . S
C216 O260 1.283 . S
C217 O243 1.283 . S
C217 O258 1.283 . S
C218 O244 1.283 . S
C218 O261 1.283 . S
C219 O245 1.283 . S
C219 O259 1.283 . S
C220 O246 1.283 . S
C220 O255 1.283 . S
C221 O247 1.283 . S
C221 O257 1.283 . S
C222 O248 1.283 . S
C222 O254 1.283 . S
C223 O249 1.283 . S
C223 O256 1.283 . S
C224 O250 1.283 . S
C224 O265 1.283 . S
C225 O251 1.283 . S
C225 O263 1.283 . S
C226 O252 1.283 . S
C226 O264 1.283 . S
C227 O253 1.283 . S
C227 O262 1.283 . S
Eu228 O229 2.359 1_455 S
Eu228 O230 2.382 . S
Eu228 O233 2.359 1_455 S
Eu228 O234 2.382 . S
Eu228 O242 2.363 . S
Eu228 O243 2.363 . S
Eu228 O256 2.382 . S
Eu228 O257 2.344 1_455 S
O229 Eu228 2.359 1_655 S
O229 Eu231 2.368 1_565 S
O229 Eu236 2.356 1_665 S
O230 Eu228 2.382 . S
O230 Eu232 2.368 1_565 S
O230 Eu235 2.380 1_565 S
Eu231 O229 2.368 1_545 S
Eu231 O233 2.368 1_545 S
Eu231 O237 2.373 . S
Eu231 O238 2.373 . S
Eu231 O246 2.367 . S
Eu231 O247 2.359 1_545 S
Eu231 O262 2.363 . S
Eu231 O263 2.363 . S
Eu232 O230 2.368 1_545 S
Eu232 O234 2.368 1_545 S
Eu232 O239 2.372 . S
Eu232 O240 2.372 . S
Eu232 O248 2.367 . S
Eu232 O249 2.359 1_545 S
Eu232 O264 2.363 . S
Eu232 O265 2.363 . S
O233 Eu228 2.359 1_655 S
O233 Eu231 2.368 1_565 S
O233 Eu235 2.356 1_665 S
O234 Eu228 2.382 . S
O234 Eu232 2.368 1_565 S
O234 Eu236 2.379 1_565 S
Eu235 O230 2.380 1_545 S
Eu235 O233 2.356 1_445 S
Eu235 O237 2.361 1_455 S
Eu235 O240 2.384 . S
Eu235 O252 2.383 . S
Eu235 O253 2.343 1_455 S
Eu235 O260 2.359 1_545 S
Eu235 O261 2.367 . S
Eu236 O229 2.356 1_445 S
Eu236 O234 2.379 1_545 S
Eu236 O238 2.361 1_455 S
Eu236 O239 2.384 . S
Eu236 O250 2.383 . S
Eu236 O251 2.343 1_455 S
Eu236 O258 2.359 1_545 S
Eu236 O259 2.367 . S
O237 Eu231 2.373 . S
O237 Eu235 2.361 1_655 S
O237 Eu241 2.358 1_655 S
O238 Eu231 2.373 . S
O238 Eu236 2.361 1_655 S
O238 Eu241 2.358 1_655 S
O239 Eu232 2.372 . S
O239 Eu236 2.384 . S
O239 Eu241 2.382 . S
O240 Eu232 2.372 . S
O240 Eu235 2.384 . S
O240 Eu241 2.382 . S
Eu241 O237 2.358 1_455 S
Eu241 O238 2.358 1_455 S
Eu241 O239 2.382 . S
Eu241 O240 2.382 . S
Eu241 O244 2.363 . S
Eu241 O245 2.363 . S
Eu241 O254 2.383 . S
Eu241 O255 2.343 1_455 S
O242 C216 1.283 . S
O242 Eu228 2.363 . S
O243 C217 1.283 . S
O243 Eu228 2.363 . S
O244 C218 1.283 . S
O244 Eu241 2.363 . S
O245 C219 1.283 . S
O245 Eu241 2.363 . S
O246 C220 1.283 . S
O246 Eu231 2.367 . S
O247 C221 1.283 . S
O247 Eu231 2.359 1_565 S
O248 C222 1.283 . S
O248 Eu232 2.367 . S
O249 C223 1.283 . S
O249 Eu232 2.359 1_565 S
O250 C224 1.283 . S
O250 Eu236 2.383 . S
O251 C225 1.283 . S
O251 Eu236 2.343 1_655 S
O252 C226 1.283 . S
O252 Eu235 2.383 . S
O253 C227 1.283 . S
O253 Eu235 2.343 1_655 S
O254 C222 1.283 . S
O254 Eu241 2.383 . S
O255 C220 1.283 . S
O255 Eu241 2.343 1_655 S
O256 C223 1.283 . S
O256 Eu228 2.382 . S
O257 C221 1.283 . S
O257 Eu228 2.344 1_655 S
O258 C217 1.283 . S
O258 Eu236 2.359 1_565 S
O259 C219 1.283 . S
O259 Eu236 2.367 . S
O260 C216 1.283 . S
O260 Eu235 2.359 1_565 S
O261 C218 1.283 . S
O261 Eu235 2.367 . S
O262 C227 1.283 . S
O262 Eu231 2.363 . S
O263 C225 1.283 . S
O263 Eu231 2.363 . S
O264 C226 1.283 . S
O264 Eu232 2.363 . S
O265 C224 1.283 . S
O265 Eu232 2.363 . S
C266 O292 1.283 . S
C266 O310 1.283 . S
C267 O293 1.283 . S
C267 O308 1.283 . S
C268 O294 1.283 . S
C268 O311 1.283 . S
C269 O295 1.283 . S
C269 O309 1.283 . S
C270 O296 1.283 . S
C270 O305 1.283 . S
C271 O297 1.283 . S
C271 O307 1.283 . S
C272 O298 1.283 . S
C272 O304 1.283 . S
C273 O299 1.283 . S
C273 O306 1.283 . S
C274 O300 1.283 . S
C274 O315 1.283 . S
C275 O301 1.283 . S
C275 O313 1.283 . S
C276 O302 1.283 . S
C276 O314 1.283 . S
C277 O303 1.283 . S
C277 O312 1.283 . S
Eu278 O279 2.370 . S
Eu278 O280 2.370 1_545 S
Eu278 O283 2.370 1_545 S
Eu278 O284 2.370 . S
Eu278 O292 2.362 1_545 S
Eu278 O293 2.363 . S
Eu278 O306 2.363 . S
Eu278 O307 2.363 . S
O279 Eu278 2.370 . S
O279 Eu281 2.372 . S
O279 Eu286 2.372 . S
O280 Eu278 2.370 1_565 S
O280 Eu282 2.372 1_565 S
O280 Eu285 2.373 . S
Eu281 O279 2.372 . S
Eu281 O283 2.372 1_545 S
Eu281 O287 2.368 1_544 S
Eu281 O288 2.368 1_554 S
Eu281 O296 2.359 1_554 S
Eu281 O297 2.367 . S
Eu281 O312 2.363 1_545 S
Eu281 O313 2.363 . S
Eu282 O280 2.372 1_545 S
Eu282 O284 2.372 . S
Eu282 O289 2.368 1_554 S
Eu282 O290 2.368 1_544 S
Eu282 O298 2.359 1_554 S
Eu282 O299 2.367 . S
Eu282 O314 2.363 1_545 S
Eu282 O315 2.363 . S
O283 Eu278 2.370 1_565 S
O283 Eu281 2.372 1_565 S
O283 Eu285 2.373 . S
O284 Eu278 2.370 . S
O284 Eu282 2.372 . S
O284 Eu286 2.372 . S
Eu285 O280 2.373 . S
Eu285 O283 2.373 . S
Eu285 O287 2.368 1_554 S
Eu285 O290 2.368 1_554 S
Eu285 O302 2.363 . S
Eu285 O303 2.363 . S
Eu285 O310 2.367 . S
Eu285 O311 2.359 1_554 S
Eu286 O279 2.372 . S
Eu286 O284 2.372 . S
Eu286 O288 2.368 1_554 S
Eu286 O289 2.368 1_554 S
Eu286 O300 2.363 . S
Eu286 O301 2.363 . S
Eu286 O308 2.366 . S
Eu286 O309 2.360 1_554 S
O287 Eu281 2.368 1_566 S
O287 Eu285 2.368 1_556 S
O287 Eu291 2.370 1_565 S
O288 Eu281 2.368 1_556 S
O288 Eu286 2.368 1_556 S
O288 Eu291 2.370 . S
O289 Eu282 2.368 1_556 S
O289 Eu286 2.368 1_556 S
O289 Eu291 2.370 . S
O290 Eu282 2.368 1_566 S
O290 Eu285 2.368 1_556 S
O290 Eu291 2.370 1_565 S
Eu291 O287 2.370 1_545 S
Eu291 O288 2.370 . S
Eu291 O289 2.370 . S
Eu291 O290 2.370 1_545 S
Eu291 O294 2.363 1_545 S
Eu291 O295 2.362 . S
Eu291 O304 2.363 . S
Eu291 O305 2.363 . S
O292 C266 1.283 . S
O292 Eu278 2.362 1_565 S
O293 C267 1.283 . S
O293 Eu278 2.363 . S
O294 C268 1.283 . S
O294 Eu291 2.363 1_565 S
O295 C269 1.283 . S
O295 Eu291 2.362 . S
O296 C270 1.283 . S
O296 Eu281 2.359 1_556 S
O297 C271 1.283 . S
O297 Eu281 2.367 . S
O298 C272 1.283 . S
O298 Eu282 2.359 1_556 S
O299 C273 1.283 . S
O299 Eu282 2.367 . S
O300 C274 1.283 . S
O300 Eu286 2.363 . S
O301 C275 1.283 . S
O301 Eu286 2.363 . S
O302 C276 1.283 . S
O302 Eu285 2.363 . S
O303 C277 1.283 . S
O303 Eu285 2.363 . S
O304 C272 1.283 . S
O304 Eu291 2.363 . S
O305 C270 1.283 . S
O305 Eu291 2.363 . S
O306 C273 1.283 . S
O306 Eu278 2.363 . S
O307 C271 1.283 . S
O307 Eu278 2.363 . S
O308 C267 1.283 . S
O308 Eu286 2.366 . S
O309 C269 1.283 . S
O309 Eu286 2.360 1_556 S
O310 C266 1.283 . S
O310 Eu285 2.367 . S
O311 C268 1.283 . S
O311 Eu285 2.359 1_556 S
O312 C277 1.283 . S
O312 Eu281 2.363 1_565 S
O313 C275 1.283 . S
O313 Eu281 2.363 . S
O314 C276 1.283 . S
O314 Eu282 2.363 1_565 S
O315 C274 1.283 . S
O315 Eu282 2.363 . S
C316 O342 1.283 . S
C316 O360 1.283 . S
C317 O343 1.283 . S
C317 O358 1.283 . S
C318 O344 1.283 . S
C318 O361 1.283 . S
C319 O345 1.283 . S
C319 O359 1.283 . S
C320 O346 1.283 . S
C320 O355 1.283 . S
C321 O347 1.283 . S
C321 O357 1.283 . S
C322 O348 1.283 . S
C322 O354 1.283 . S
C323 O349 1.283 . S
C323 O356 1.283 . S
C324 O350 1.283 . S
C324 O365 1.283 . S
C325 O351 1.283 . S
C325 O363 1.283 . S
C326 O352 1.283 . S
C326 O364 1.283 . S
C327 O353 1.283 . S
C327 O362 1.283 . S
Eu328 O329 2.363 1_454 S
Eu328 O330 2.377 . S
Eu328 O333 2.363 1_455 S
Eu328 O334 2.377 1_554 S
Eu328 O342 2.363 . S
Eu328 O343 2.363 1_554 S
Eu328 O356 2.374 . S
Eu328 O357 2.352 1_455 S
O329 Eu328 2.363 1_656 S
O329 Eu331 2.370 1_556 S
O329 Eu336 2.363 1_655 S
O330 Eu328 2.377 . S
O330 Eu332 2.370 . S
O330 Eu335 2.377 . S
Eu331 O329 2.370 1_554 S
Eu331 O333 2.370 . S
Eu331 O337 2.370 . S
Eu331 O338 2.370 1_554 S
Eu331 O346 2.363 . S
Eu331 O347 2.363 . S
Eu331 O362 2.363 . S
Eu331 O363 2.363 1_554 S
Eu332 O330 2.370 . S
Eu332 O334 2.370 1_554 S
Eu332 O339 2.370 1_554 S
Eu332 O340 2.370 . S
Eu332 O348 2.363 . S
Eu332 O349 2.363 . S
Eu332 O364 2.363 . S
Eu332 O365 2.363 1_554 S
O333 Eu328 2.363 1_655 S
O333 Eu331 2.370 . S
O333 Eu335 2.363 1_655 S
O334 Eu328 2.377 1_556 S
O334 Eu332 2.370 1_556 S
O334 Eu336 2.377 . S
Eu335 O330 2.377 . S
Eu335 O333 2.363 1_455 S
Eu335 O337 2.363 1_455 S
Eu335 O340 2.377 . S
Eu335 O352 2.374 . S
Eu335 O353 2.352 1_455 S
Eu335 O360 2.363 . S
Eu335 O361 2.363 . S
Eu336 O329 2.363 1_455 S
Eu336 O334 2.377 . S
Eu336 O338 2.363 1_455 S
Eu336 O339 2.377 . S
Eu336 O350 2.374 . S
Eu336 O351 2.352 1_455 S
Eu336 O358 2.363 . S
Eu336 O359 2.363 . S
O337 Eu331 2.370 . S
O337 Eu335 2.363 1_655 S
O337 Eu341 2.364 1_655 S
O338 Eu331 2.370 1_556 S
O338 Eu336 2.363 1_655 S
O338 Eu341 2.363 1_656 S
O339 Eu332 2.370 1_556 S
O339 Eu336 2.377 . S
O339 Eu341 2.377 1_556 S
O340 Eu332 2.370 . S
O340 Eu335 2.377 . S
O340 Eu341 2.377 . S
Eu341 O337 2.364 1_455 S
Eu341 O338 2.363 1_454 S
Eu341 O339 2.377 1_554 S
Eu341 O340 2.377 . S
Eu341 O344 2.363 . S
Eu341 O345 2.363 1_554 S
Eu341 O354 2.374 . S
Eu341 O355 2.352 1_455 S
O342 C316 1.283 . S
O342 Eu328 2.363 . S
O343 C317 1.283 . S
O343 Eu328 2.363 1_556 S
O344 C318 1.283 . S
O344 Eu341 2.363 . S
O345 C319 1.283 . S
O345 Eu341 2.363 1_556 S
O346 C320 1.283 . S
O346 Eu331 2.363 . S
O347 C321 1.283 . S
O347 Eu331 2.363 . S
O348 C322 1.283 . S
O348 Eu332 2.363 . S
O349 C323 1.283 . S
O349 Eu332 2.363 . S
O350 C324 1.283 . S
O350 Eu336 2.374 . S
O351 C325 1.283 . S
O351 Eu336 2.352 1_655 S
O352 C326 1.283 . S
O352 Eu335 2.374 . S
O353 C327 1.283 . S
O353 Eu335 2.352 1_655 S
O354 C322 1.283 . S
O354 Eu341 2.374 . S
O355 C320 1.283 . S
O355 Eu341 2.352 1_655 S
O356 C323 1.283 . S
O356 Eu328 2.374 . S
O357 C321 1.283 . S
O357 Eu328 2.352 1_655 S
O358 C317 1.283 . S
O358 Eu336 2.363 . S
O359 C319 1.283 . S
O359 Eu336 2.363 . S
O360 C316 1.283 . S
O360 Eu335 2.363 . S
O361 C318 1.283 . S
O361 Eu335 2.363 . S
O362 C327 1.283 . S
O362 Eu331 2.363 . S
O363 C325 1.283 . S
O363 Eu331 2.363 1_556 S
O364 C326 1.283 . S
O364 Eu332 2.363 . S
O365 C324 1.283 . S
O365 Eu332 2.363 1_556 S
C366 O392 1.283 . S
C366 O410 1.283 . S
C367 O393 1.283 . S
C367 O408 1.283 . S
C368 O394 1.283 . S
C368 O411 1.283 . S
C369 O395 1.283 . S
C369 O409 1.283 . S
C370 O396 1.283 . S
C370 O405 1.283 . S
C371 O397 1.283 . S
C371 O407 1.283 . S
C372 O398 1.283 . S
C372 O404 1.283 . S
C373 O399 1.283 . S
C373 O406 1.283 . S
C374 O400 1.283 . S
C374 O415 1.283 . S
C375 O401 1.283 . S
C375 O413 1.283 . S
C376 O402 1.283 . S
C376 O414 1.283 . S
C377 O403 1.283 . S
C377 O412 1.283 . S
Eu378 O379 2.370 . S
Eu378 O380 2.370 . S
Eu378 O383 2.370 . S
Eu378 O384 2.370 . S
Eu378 O392 2.363 . S
Eu378 O393 2.363 . S
Eu378 O406 2.363 . S
Eu378 O407 2.363 . S
O379 Eu378 2.370 . S
O379 Eu381 2.373 . S
O379 Eu386 2.373 . S
O380 Eu378 2.370 . S
O380 Eu382 2.373 . S
O380 Eu385 2.373 . S
Eu381 O379 2.373 . S
Eu381 O383 2.373 . S
Eu381 O387 2.367 1_554 S
Eu381 O388 2.367 1_554 S
Eu381 O396 2.358 1_554 S
Eu381 O397 2.368 . S
Eu381 O412 2.363 . S
Eu381 O413 2.363 . S
Eu382 O380 2.373 . S
Eu382 O384 2.373 . S
Eu382 O389 2.367 1_554 S
Eu382 O390 2.367 1_554 S
Eu382 O398 2.358 1_554 S
Eu382 O399 2.368 . S
Eu382 O414 2.363 . S
Eu382 O415 2.363 . S
O383 Eu378 2.370 . S
O383 Eu381 2.373 . S
O383 Eu385 2.373 . S
O384 Eu378 2.370 . S
O384 Eu382 2.373 . S
O384 Eu386 2.373 . S
Eu385 O380 2.373 . S
Eu385 O383 2.373 . S
Eu385 O387 2.367 1_554 S
Eu385 O390 2.367 1_554 S
Eu385 O402 2.363 . S
Eu385 O403 2.363 . S
Eu385 O410 2.367 . S
Eu385 O411 2.358 1_554 S
Eu386 O379 2.373 . S
Eu386 O384 2.373 . S
Eu386 O388 2.367 1_554 S
Eu386 O389 2.367 1_554 S
Eu386 O400 2.363 . S
Eu386 O401 2.363 . S
Eu386 O408 2.368 . S
Eu386 O409 2.358 1_554 S
O387 Eu381 2.367 1_556 S
O387 Eu385 2.367 1_556 S
O387 Eu391 2.370 . S
O388 Eu381 2.367 1_556 S
O388 Eu386 2.367 1_556 S
O388 Eu391 2.370 . S
O389 Eu382 2.367 1_556 S
O389 Eu386 2.367 1_556 S
O389 Eu391 2.370 . S
O390 Eu382 2.367 1_556 S
O390 Eu385 2.367 1_556 S
O390 Eu391 2.370 . S
Eu391 O387 2.370 . S
Eu391 O388 2.370 . S
Eu391 O389 2.370 . S
Eu391 O390 2.370 . S
Eu391 O394 2.363 . S
Eu391 O395 2.363 . S
Eu391 O404 2.363 . S
Eu391 O405 2.363 . S
O392 C366 1.283 . S
O392 Eu378 2.363 . S
O393 C367 1.283 . S
O393 Eu378 2.363 . S
O394 C368 1.283 . S
O394 Eu391 2.363 . S
O395 C369 1.283 . S
O395 Eu391 2.363 . S
O396 C370 1.283 . S
O396 Eu381 2.358 1_556 S
O397 C371 1.283 . S
O397 Eu381 2.368 . S
O398 C372 1.283 . S
O398 Eu382 2.358 1_556 S
O399 C373 1.283 . S
O399 Eu382 2.368 . S
O400 C374 1.283 . S
O400 Eu386 2.363 . S
O401 C375 1.283 . S
O401 Eu386 2.363 . S
O402 C376 1.283 . S
O402 Eu385 2.363 . S
O403 C377 1.283 . S
O403 Eu385 2.363 . S
O404 C372 1.283 . S
O404 Eu391 2.363 . S
O405 C370 1.283 . S
O405 Eu391 2.363 . S
O406 C373 1.283 . S
O406 Eu378 2.363 . S
O407 C371 1.283 . S
O407 Eu378 2.363 . S
O408 C367 1.283 . S
O408 Eu386 2.368 . S
O409 C369 1.283 . S
O409 Eu386 2.358 1_556 S
O410 C366 1.283 . S
O410 Eu385 2.367 . S
O411 C368 1.283 . S
O411 Eu385 2.358 1_556 S
O412 C377 1.283 . S
O412 Eu381 2.363 . S
O413 C375 1.283 . S
O413 Eu381 2.363 . S
O414 C376 1.283 . S
O414 Eu382 2.363 . S
O415 C374 1.283 . S
O415 Eu382 2.363 . S
C416 O442 1.283 . S
C416 O460 1.283 . S
C417 O443 1.283 . S
C417 O458 1.283 . S
C418 O444 1.283 . S
C418 O461 1.283 . S
C419 O445 1.283 . S
C419 O459 1.283 . S
C420 O446 1.283 . S
C420 O455 1.283 . S
C421 O447 1.283 . S
C421 O457 1.283 . S
C422 O448 1.283 . S
C422 O454 1.283 . S
C423 O449 1.283 . S
C423 O456 1.283 . S
C424 O450 1.283 . S
C424 O465 1.283 . S
C425 O451 1.283 . S
C425 O463 1.283 . S
C426 O452 1.283 . S
C426 O464 1.283 . S
C427 O453 1.283 . S
C427 O462 1.283 . S
Eu428 O429 2.361 1_455 S
Eu428 O430 2.379 . S
Eu428 O433 2.361 1_455 S
Eu428 O434 2.379 . S
Eu428 O442 2.363 . S
Eu428 O443 2.363 . S
Eu428 O456 2.379 . S
Eu428 O457 2.347 1_455 S
O429 Eu428 2.361 1_655 S
O429 Eu431 2.370 . S
O429 Eu436 2.361 1_655 S
O430 Eu428 2.379 . S
O430 Eu432 2.370 . S
O430 Eu435 2.379 . S
Eu431 O429 2.370 . S
Eu431 O433 2.370 . S
Eu431 O437 2.370 . S
Eu431 O438 2.370 . S
Eu431 O446 2.363 . S
Eu431 O447 2.363 . S
Eu431 O462 2.363 . S
Eu431 O463 2.363 . S
Eu432 O430 2.370 . S
Eu432 O434 2.370 . S
Eu432 O439 2.370 . S
Eu432 O440 2.370 . S
Eu432 O448 2.363 . S
Eu432 O449 2.363 . S
Eu432 O464 2.363 . S
Eu432 O465 2.363 . S
O433 Eu428 2.361 1_655 S
O433 Eu431 2.370 . S
O433 Eu435 2.361 1_655 S
O434 Eu428 2.379 . S
O434 Eu432 2.370 . S
O434 Eu436 2.379 . S
Eu435 O430 2.379 . S
Eu435 O433 2.361 1_455 S
Eu435 O437 2.361 1_455 S
Eu435 O440 2.379 . S
Eu435 O452 2.379 . S
Eu435 O453 2.347 1_455 S
Eu435 O460 2.363 . S
Eu435 O461 2.363 . S
Eu436 O429 2.361 1_455 S
Eu436 O434 2.379 . S
Eu436 O438 2.361 1_455 S
Eu436 O439 2.379 . S
Eu436 O450 2.379 . S
Eu436 O451 2.347 1_455 S
Eu436 O458 2.363 . S
Eu436 O459 2.363 . S
O437 Eu431 2.370 . S
O437 Eu435 2.361 1_655 S
O437 Eu441 2.361 1_655 S
O438 Eu431 2.370 . S
O438 Eu436 2.361 1_655 S
O438 Eu441 2.361 1_655 S
O439 Eu432 2.370 . S
O439 Eu436 2.379 . S
O439 Eu441 2.379 . S
O440 Eu432 2.370 . S
O440 Eu435 2.379 . S
O440 Eu441 2.379 . S
Eu441 O437 2.361 1_455 S
Eu441 O438 2.361 1_455 S
Eu441 O439 2.379 . S
Eu441 O440 2.379 . S
Eu441 O444 2.363 . S
Eu441 O445 2.363 . S
Eu441 O454 2.379 . S
Eu441 O455 2.347 1_455 S
O442 C416 1.283 . S
O442 Eu428 2.363 . S
O443 C417 1.283 . S
O443 Eu428 2.363 . S
O444 C418 1.283 . S
O444 Eu441 2.363 . S
O445 C419 1.283 . S
O445 Eu441 2.363 . S
O446 C420 1.283 . S
O446 Eu431 2.363 . S
O447 C421 1.283 . S
O447 Eu431 2.363 . S
O448 C422 1.283 . S
O448 Eu432 2.363 . S
O449 C423 1.283 . S
O449 Eu432 2.363 . S
O450 C424 1.283 . S
O450 Eu436 2.379 . S
O451 C425 1.283 . S
O451 Eu436 2.347 1_655 S
O452 C426 1.283 . S
O452 Eu435 2.379 . S
O453 C427 1.283 . S
O453 Eu435 2.347 1_655 S
O454 C422 1.283 . S
O454 Eu441 2.379 . S
O455 C420 1.283 . S
O455 Eu441 2.347 1_655 S
O456 C423 1.283 . S
O456 Eu428 2.379 . S
O457 C421 1.283 . S
O457 Eu428 2.347 1_655 S
O458 C417 1.283 . S
O458 Eu436 2.363 . S
O459 C419 1.283 . S
O459 Eu436 2.363 . S
O460 C416 1.283 . S
O460 Eu435 2.363 . S
O461 C418 1.283 . S
O461 Eu435 2.363 . S
O462 C427 1.283 . S
O462 Eu431 2.363 . S
O463 C425 1.283 . S
O463 Eu431 2.363 . S
O464 C426 1.283 . S
O464 Eu432 2.363 . S
O465 C424 1.283 . S
O465 Eu432 2.363 . S
C466 O492 1.283 . S
C466 O510 1.283 . S
C467 O493 1.283 . S
C467 O508 1.283 . S
C468 O494 1.283 . S
C468 O511 1.283 . S
C469 O495 1.283 . S
C469 O509 1.283 . S
C470 O496 1.283 . S
C470 O505 1.283 . S
C471 O497 1.283 . S
C471 O507 1.283 . S
C472 O498 1.283 . S
C472 O504 1.283 . S
C473 O499 1.283 . S
C473 O506 1.283 . S
C474 O500 1.283 . S
C474 O515 1.283 . S
C475 O501 1.283 . S
C475 O513 1.283 . S
C476 O502 1.283 . S
C476 O514 1.283 . S
C477 O503 1.283 . S
C477 O512 1.283 . S
Eu478 O479 2.370 . S
Eu478 O480 2.370 . S
Eu478 O483 2.370 . S
Eu478 O484 2.370 . S
Eu478 O492 2.363 . S
Eu478 O493 2.363 . S
Eu478 O506 2.363 . S
Eu478 O507 2.363 . S
O479 Eu478 2.370 . S
O479 Eu481 2.367 1_565 S
O479 Eu486 2.367 1_565 S
O480 Eu478 2.370 . S
O480 Eu482 2.367 1_565 S
O480 Eu485 2.367 1_565 S
Eu481 O479 2.367 1_545 S
Eu481 O483 2.367 1_545 S
Eu481 O487 2.373 . S
Eu481 O488 2.373 . S
Eu481 O496 2.368 . S
Eu481 O497 2.358 1_545 S
Eu481 O512 2.363 . S
Eu481 O513 2.363 . S
Eu482 O480 2.367 1_545 S
Eu482 O484 2.367 1_545 S
Eu482 O489 2.373 . S
Eu482 O490 2.373 . S
Eu482 O498 2.368 . S
Eu482 O499 2.358 1_545 S
Eu482 O514 2.363 . S
Eu482 O515 2.363 . S
O483 Eu478 2.370 . S
O483 Eu481 2.367 1_565 S
O483 Eu485 2.367 1_565 S
O484 Eu478 2.370 . S
O484 Eu482 2.367 1_565 S
O484 Eu486 2.367 1_565 S
Eu485 O480 2.367 1_545 S
Eu485 O483 2.367 1_545 S
Eu485 O487 2.373 . S
Eu485 O490 2.373 . S
Eu485 O502 2.363 . S
Eu485 O503 2.363 . S
Eu485 O510 2.358 1_545 S
Eu485 O511 2.368 . S
Eu486 O479 2.367 1_545 S
Eu486 O484 2.367 1_545 S
Eu486 O488 2.373 . S
Eu486 O489 2.373 . S
Eu486 O500 2.363 . S
Eu486 O501 2.363 . S
Eu486 O508 2.358 1_545 S
Eu486 O509 2.368 . S
O487 Eu481 2.373 . S
O487 Eu485 2.373 . S
O487 Eu491 2.370 . S
O488 Eu481 2.373 . S
O488 Eu486 2.373 . S
O488 Eu491 2.370 . S
O489 Eu482 2.373 . S
O489 Eu486 2.373 . S
O489 Eu491 2.370 . S
O490 Eu482 2.373 . S
O490 Eu485 2.373 . S
O490 Eu491 2.370 . S
Eu491 O487 2.370 . S
Eu491 O488 2.370 . S
Eu491 O489 2.370 . S
Eu491 O490 2.370 . S
Eu491 O494 2.363 . S
Eu491 O495 2.363 . S
Eu491 O504 2.363 . S
Eu491 O505 2.363 . S
O492 C466 1.283 . S
O492 Eu478 2.363 . S
O493 C467 1.283 . S
O493 Eu478 2.363 . S
O494 C468 1.283 . S
O494 Eu491 2.363 . S
O495 C469 1.283 . S
O495 Eu491 2.363 . S
O496 C470 1.283 . S
O496 Eu481 2.368 . S
O497 C471 1.283 . S
O497 Eu481 2.358 1_565 S
O498 C472 1.283 . S
O498 Eu482 2.368 . S
O499 C473 1.283 . S
O499 Eu482 2.358 1_565 S
O500 C474 1.283 . S
O500 Eu486 2.363 . S
O501 C475 1.283 . S
O501 Eu486 2.363 . S
O502 C476 1.283 . S
O502 Eu485 2.363 . S
O503 C477 1.283 . S
O503 Eu485 2.363 . S
O504 C472 1.283 . S
O504 Eu491 2.363 . S
O505 C470 1.283 . S
O505 Eu491 2.363 . S
O506 C473 1.283 . S
O506 Eu478 2.363 . S
O507 C471 1.283 . S
O507 Eu478 2.363 . S
O508 C467 1.283 . S
O508 Eu486 2.358 1_565 S
O509 C469 1.283 . S
O509 Eu486 2.368 . S
O510 C466 1.283 . S
O510 Eu485 2.358 1_565 S
O511 C468 1.283 . S
O511 Eu485 2.368 . S
O512 C477 1.283 . S
O512 Eu481 2.363 . S
O513 C475 1.283 . S
O513 Eu481 2.363 . S
O514 C476 1.283 . S
O514 Eu482 2.363 . S
O515 C474 1.283 . S
O515 Eu482 2.363 . S
C516 C517 1.363 . S
C516 C522 1.379 . S
C516 N524 1.356 . S
C517 C516 1.363 . S
C517 C523 1.363 . S
C518 C519 1.363 . S
C518 C523 1.379 . S
C518 N525 1.356 . S
C519 C518 1.363 . S
C519 C522 1.363 . S
N520 C522 1.356 . S
N520 H532 0.984 . S
N520 H533 0.985 . S
N521 C523 1.356 . S
N521 H526 0.984 . S
N521 H527 0.985 . S
C522 C516 1.379 . S
C522 C519 1.363 . S
C522 N520 1.356 . S
C523 C517 1.363 . S
C523 C518 1.379 . S
C523 N521 1.356 . S
N524 C516 1.356 . S
N524 H530 0.984 . S
N524 H531 0.984 . S
N525 C518 1.356 . S
N525 H528 0.984 . S
N525 H529 0.985 . S
H526 N521 0.984 . S
H527 N521 0.985 . S
H528 N525 0.984 . S
H529 N525 0.985 . S
H530 N524 0.984 . S
H531 N524 0.984 . S
H532 N520 0.984 . S
H533 N520 0.985 . S
C534 C535 1.363 . S
C534 C540 1.379 . S
C534 N542 1.356 . S
C535 C534 1.363 . S
C535 C541 1.363 . S
C536 C537 1.363 . S
C536 C541 1.379 . S
C536 N543 1.356 . S
C537 C536 1.363 . S
C537 C540 1.363 . S
N538 C540 1.356 . S
N538 H550 0.984 . S
N538 H551 0.985 . S
N539 C541 1.356 . S
N539 H544 0.984 . S
N539 H545 0.985 . S
C540 C534 1.379 . S
C540 C537 1.363 . S
C540 N538 1.356 . S
C541 C535 1.363 . S
C541 C536 1.379 . S
C541 N539 1.356 . S
N542 C534 1.356 . S
N542 H548 0.984 . S
N542 H549 0.984 . S
N543 C536 1.356 . S
N543 H546 0.984 . S
N543 H547 0.985 . S
H544 N539 0.984 . S
H545 N539 0.985 . S
H546 N543 0.984 . S
H547 N543 0.985 . S
H548 N542 0.984 . S
H549 N542 0.984 . S
H550 N538 0.984 . S
H551 N538 0.985 . S
C552 C553 1.363 . S
C552 C558 1.379 . S
C552 N560 1.356 . S
C553 C552 1.363 . S
C553 C559 1.363 . S
C554 C555 1.363 . S
C554 C559 1.379 . S
C554 N561 1.356 . S
C555 C554 1.363 . S
C555 C558 1.363 . S
N556 C558 1.356 . S
N556 H568 0.984 . S
N556 H569 0.985 . S
N557 C559 1.356 . S
N557 H562 0.984 . S
N557 H563 0.985 . S
C558 C552 1.379 . S
C558 C555 1.363 . S
C558 N556 1.356 . S
C559 C553 1.363 . S
C559 C554 1.379 . S
C559 N557 1.356 . S
N560 C552 1.356 . S
N560 H566 0.984 . S
N560 H567 0.984 . S
N561 C554 1.356 . S
N561 H564 0.984 . S
N561 H565 0.985 . S
H562 N557 0.984 . S
H563 N557 0.985 . S
H564 N561 0.984 . S
H565 N561 0.985 . S
H566 N560 0.984 . S
H567 N560 0.984 . S
H568 N556 0.984 . S
H569 N556 0.985 . S
C570 C571 1.363 . S
C570 C576 1.379 . S
C570 N578 1.356 . S
C571 C570 1.363 . S
C571 C577 1.363 . S
C572 C573 1.363 . S
C572 C577 1.379 . S
C572 N579 1.356 . S
C573 C572 1.363 . S
C573 C576 1.363 . S
N574 C576 1.356 . S
N574 H586 0.984 . S
N574 H587 0.985 . S
N575 C577 1.356 . S
N575 H580 0.984 . S
N575 H581 0.985 . S
C576 C570 1.379 . S
C576 C573 1.363 . S
C576 N574 1.356 . S
C577 C571 1.363 . S
C577 C572 1.379 . S
C577 N575 1.356 . S
N578 C570 1.356 . S
N578 H584 0.984 . S
N578 H585 0.984 . S
N579 C572 1.356 . S
N579 H582 0.984 . S
N579 H583 0.985 . S
H580 N575 0.984 . S
H581 N575 0.985 . S
H582 N579 0.984 . S
H583 N579 0.985 . S
H584 N578 0.984 . S
H585 N578 0.984 . S
H586 N574 0.984 . S
H587 N574 0.985 . S
C588 C589 1.363 . S
C588 C594 1.379 . S
C588 N596 1.356 . S
C589 C588 1.363 . S
C589 C595 1.363 . S
C590 C591 1.363 . S
C590 C595 1.379 . S
C590 N597 1.356 . S
C591 C590 1.363 . S
C591 C594 1.363 . S
N592 C594 1.356 . S
N592 H604 0.984 . S
N592 H605 0.985 . S
N593 C595 1.356 . S
N593 H598 0.984 . S
N593 H599 0.985 . S
C594 C588 1.379 . S
C594 C591 1.363 . S
C594 N592 1.356 . S
C595 C589 1.363 . S
C595 C590 1.379 . S
C595 N593 1.356 . S
N596 C588 1.356 . S
N596 H602 0.984 . S
N596 H603 0.984 . S
N597 C590 1.356 . S
N597 H600 0.984 . S
N597 H601 0.985 . S
H598 N593 0.984 . S
H599 N593 0.985 . S
H600 N597 0.984 . S
H601 N597 0.985 . S
H602 N596 0.984 . S
H603 N596 0.984 . S
H604 N592 0.984 . S
H605 N592 0.985 . S
C606 C607 1.363 . S
C606 C612 1.379 . S
C606 N614 1.356 . S
C607 C606 1.363 . S
C607 C613 1.363 . S
C608 C609 1.363 . S
C608 C613 1.379 . S
C608 N615 1.356 . S
C609 C608 1.363 . S
C609 C612 1.363 . S
N610 C612 1.356 . S
N610 H622 0.984 . S
N610 H623 0.985 . S
N611 C613 1.356 . S
N611 H616 0.984 . S
N611 H617 0.985 . S
C612 C606 1.379 . S
C612 C609 1.363 . S
C612 N610 1.356 . S
C613 C607 1.363 . S
C613 C608 1.379 . S
C613 N611 1.356 . S
N614 C606 1.356 . S
N614 H620 0.984 . S
N614 H621 0.984 . S
N615 C608 1.356 . S
N615 H618 0.984 . S
N615 H619 0.985 . S
H616 N611 0.984 . S
H617 N611 0.985 . S
H618 N615 0.984 . S
H619 N615 0.985 . S
H620 N614 0.984 . S
H621 N614 0.984 . S
H622 N610 0.984 . S
H623 N610 0.985 . S
C624 C625 1.363 . S
C624 C630 1.379 . S
C624 N632 1.356 . S
C625 C624 1.363 . S
C625 C631 1.363 . S
C626 C627 1.363 . S
C626 C631 1.379 . S
C626 N633 1.356 . S
C627 C626 1.363 . S
C627 C630 1.363 . S
N628 C630 1.356 . S
N628 H640 0.984 . S
N628 H641 0.985 . S
N629 C631 1.356 . S
N629 H634 0.984 . S
N629 H635 0.985 . S
C630 C624 1.379 . S
C630 C627 1.363 . S
C630 N628 1.356 . S
C631 C625 1.363 . S
C631 C626 1.379 . S
C631 N629 1.356 . S
N632 C624 1.356 . S
N632 H638 0.984 . S
N632 H639 0.984 . S
N633 C626 1.356 . S
N633 H636 0.984 . S
N633 H637 0.985 . S
H634 N629 0.984 . S
H635 N629 0.985 . S
H636 N633 0.984 . S
H637 N633 0.985 . S
H638 N632 0.984 . S
H639 N632 0.984 . S
H640 N628 0.984 . S
H641 N628 0.985 . S
C642 C643 1.363 . S
C642 C648 1.379 . S
C642 N650 1.356 . S
C643 C642 1.363 . S
C643 C649 1.363 . S
C644 C645 1.363 . S
C644 C649 1.379 . S
C644 N651 1.356 . S
C645 C644 1.363 . S
C645 C648 1.363 . S
N646 C648 1.356 . S
N646 H658 0.984 . S
N646 H659 0.985 . S
N647 C649 1.356 . S
N647 H652 0.984 . S
N647 H653 0.985 . S
C648 C642 1.379 . S
C648 C645 1.363 . S
C648 N646 1.356 . S
C649 C643 1.363 . S
C649 C644 1.379 . S
C649 N647 1.356 . S
N650 C642 1.356 . S
N650 H656 0.984 . S
N650 H657 0.984 . S
N651 C644 1.356 . S
N651 H654 0.984 . S
N651 H655 0.985 . S
H652 N647 0.984 . S
H653 N647 0.985 . S
H654 N651 0.984 . S
H655 N651 0.985 . S
H656 N650 0.984 . S
H657 N650 0.984 . S
H658 N646 0.984 . S
H659 N646 0.985 . S
C660 C661 1.363 . S
C660 C666 1.379 . S
C660 N668 1.356 . S
C661 C660 1.363 . S
C661 C667 1.363 . S
C662 C663 1.363 . S
C662 C667 1.379 . S
C662 N669 1.356 . S
C663 C662 1.363 . S
C663 C666 1.363 . S
N664 C666 1.356 . S
N664 H676 0.984 . S
N664 H677 0.985 . S
N665 C667 1.356 . S
N665 H670 0.984 . S
N665 H671 0.985 . S
C666 C660 1.379 . S
C666 C663 1.363 . S
C666 N664 1.356 . S
C667 C661 1.363 . S
C667 C662 1.379 . S
C667 N665 1.356 . S
N668 C660 1.356 . S
N668 H674 0.984 . S
N668 H675 0.984 . S
N669 C662 1.356 . S
N669 H672 0.984 . S
N669 H673 0.985 . S
H670 N665 0.984 . S
H671 N665 0.985 . S
H672 N669 0.984 . S
H673 N669 0.985 . S
H674 N668 0.984 . S
H675 N668 0.984 . S
H676 N664 0.984 . S
H677 N664 0.985 . S
C678 C679 1.363 . S
C678 C684 1.379 . S
C678 N686 1.356 . S
C679 C678 1.363 . S
C679 C685 1.363 . S
C680 C681 1.363 . S
C680 C685 1.379 . S
C680 N687 1.356 . S
C681 C680 1.363 . S
C681 C684 1.363 . S
N682 C684 1.356 . S
N682 H694 0.984 . S
N682 H695 0.985 . S
N683 C685 1.356 . S
N683 H688 0.984 . S
N683 H689 0.985 . S
C684 C678 1.379 . S
C684 C681 1.363 . S
C684 N682 1.356 . S
C685 C679 1.363 . S
C685 C680 1.379 . S
C685 N683 1.356 . S
N686 C678 1.356 . S
N686 H692 0.984 . S
N686 H693 0.984 . S
N687 C680 1.356 . S
N687 H690 0.984 . S
N687 H691 0.985 . S
H688 N683 0.984 . S
H689 N683 0.985 . S
H690 N687 0.984 . S
H691 N687 0.985 . S
H692 N686 0.984 . S
H693 N686 0.984 . S
H694 N682 0.984 . S
H695 N682 0.985 . S
C696 C697 1.363 . S
C696 C702 1.379 . S
C696 N704 1.356 . S
C697 C696 1.363 . S
C697 C703 1.363 . S
C698 C699 1.363 . S
C698 C703 1.379 . S
C698 N705 1.356 . S
C699 C698 1.363 . S
C699 C702 1.363 . S
N700 C702 1.356 . S
N700 H712 0.984 . S
N700 H713 0.985 . S
N701 C703 1.356 . S
N701 H706 0.984 . S
N701 H707 0.985 . S
C702 C696 1.379 . S
C702 C699 1.363 . S
C702 N700 1.356 . S
C703 C697 1.363 . S
C703 C698 1.379 . S
C703 N701 1.356 . S
N704 C696 1.356 . S
N704 H710 0.984 . S
N704 H711 0.984 . S
N705 C698 1.356 . S
N705 H708 0.984 . S
N705 H709 0.985 . S
H706 N701 0.984 . S
H707 N701 0.985 . S
H708 N705 0.984 . S
H709 N705 0.985 . S
H710 N704 0.984 . S
H711 N704 0.984 . S
H712 N700 0.984 . S
H713 N700 0.985 . S
C714 C715 1.363 . S
C714 C720 1.379 . S
C714 N722 1.356 . S
C715 C714 1.363 . S
C715 C721 1.363 . S
C716 C717 1.363 . S
C716 C721 1.379 . S
C716 N723 1.356 . S
C717 C716 1.363 . S
C717 C720 1.363 . S
N718 C720 1.356 . S
N718 H730 0.984 . S
N718 H731 0.985 . S
N719 C721 1.356 . S
N719 H724 0.984 . S
N719 H725 0.985 . S
C720 C714 1.379 . S
C720 C717 1.363 . S
C720 N718 1.356 . S
C721 C715 1.363 . S
C721 C716 1.379 . S
C721 N719 1.356 . S
N722 C714 1.356 . S
N722 H728 0.984 . S
N722 H729 0.984 . S
N723 C716 1.356 . S
N723 H726 0.984 . S
N723 H727 0.985 . S
H724 N719 0.984 . S
H725 N719 0.985 . S
H726 N723 0.984 . S
H727 N723 0.985 . S
H728 N722 0.984 . S
H729 N722 0.984 . S
H730 N718 0.984 . S
H731 N718 0.985 . S
C732 C733 1.366 . S
C732 C738 1.379 . S
C732 N740 1.356 . S
C733 C732 1.366 . S
C733 C739 1.360 1_554 S
C734 C735 1.359 1_556 S
C734 C739 1.379 . S
C734 N741 1.356 . S
C735 C734 1.359 1_554 S
C735 C738 1.367 . S
N736 C738 1.356 . S
N736 H748 0.984 . S
N736 H749 0.985 . S
N737 C739 1.356 . S
N737 H742 0.984 . S
N737 H743 0.985 . S
C738 C732 1.379 . S
C738 C735 1.367 . S
C738 N736 1.356 . S
C739 C733 1.360 1_556 S
C739 C734 1.379 . S
C739 N737 1.356 . S
N740 C732 1.356 . S
N740 H746 0.984 . S
N740 H747 0.984 . S
N741 C734 1.356 . S
N741 H744 0.984 . S
N741 H745 0.985 . S
H742 N737 0.984 . S
H743 N737 0.985 . S
H744 N741 0.984 . S
H745 N741 0.985 . S
H746 N740 0.984 . S
H747 N740 0.984 . S
H748 N736 0.984 . S
H749 N736 0.985 . S
C750 C751 1.360 1_556 S
C750 C756 1.379 . S
C750 N758 1.356 . S
C751 C750 1.360 1_554 S
C751 C757 1.366 . S
C752 C753 1.367 . S
C752 C757 1.379 . S
C752 N759 1.356 . S
C753 C752 1.367 . S
C753 C756 1.359 1_554 S
N754 C756 1.356 . S
N754 H766 0.984 . S
N754 H767 0.985 . S
N755 C757 1.356 . S
N755 H760 0.984 . S
N755 H761 0.985 . S
C756 C750 1.379 . S
C756 C753 1.359 1_556 S
C756 N754 1.356 . S
C757 C751 1.366 . S
C757 C752 1.379 . S
C757 N755 1.356 . S
N758 C750 1.356 . S
N758 H764 0.984 . S
N758 H765 0.984 . S
N759 C752 1.356 . S
N759 H762 0.984 . S
N759 H763 0.985 . S
H760 N755 0.984 . S
H761 N755 0.985 . S
H762 N759 0.984 . S
H763 N759 0.985 . S
H764 N758 0.984 . S
H765 N758 0.984 . S
H766 N754 0.984 . S
H767 N754 0.985 . S
C768 C769 1.365 . S
C768 C774 1.379 . S
C768 N776 1.356 . S
C769 C768 1.365 . S
C769 C775 1.361 1_554 S
C770 C771 1.360 1_556 S
C770 C775 1.379 . S
C770 N777 1.356 . S
C771 C770 1.360 1_554 S
C771 C774 1.366 . S
N772 C774 1.356 . S
N772 H784 0.984 . S
N772 H785 0.985 . S
N773 C775 1.356 . S
N773 H778 0.984 . S
N773 H779 0.985 . S
C774 C768 1.379 . S
C774 C771 1.366 . S
C774 N772 1.356 . S
C775 C769 1.361 1_556 S
C775 C770 1.379 . S
C775 N773 1.356 . S
N776 C768 1.356 . S
N776 H782 0.984 . S
N776 H783 0.984 . S
N777 C770 1.356 . S
N777 H780 0.984 . S
N777 H781 0.985 . S
H778 N773 0.984 . S
H779 N773 0.985 . S
H780 N777 0.984 . S
H781 N777 0.985 . S
H782 N776 0.984 . S
H783 N776 0.984 . S
H784 N772 0.984 . S
H785 N772 0.985 . S
C786 C787 1.361 1_556 S
C786 C792 1.379 . S
C786 N794 1.356 . S
C787 C786 1.361 1_554 S
C787 C793 1.365 . S
C788 C789 1.366 . S
C788 C793 1.379 . S
C788 N795 1.356 . S
C789 C788 1.366 . S
C789 C792 1.360 1_554 S
N790 C792 1.356 . S
N790 H802 0.984 . S
N790 H803 0.985 . S
N791 C793 1.356 . S
N791 H796 0.984 . S
N791 H797 0.985 . S
C792 C786 1.379 . S
C792 C789 1.360 1_556 S
C792 N790 1.356 . S
C793 C787 1.365 . S
C793 C788 1.379 . S
C793 N791 1.356 . S
N794 C786 1.356 . S
N794 H800 0.984 . S
N794 H801 0.984 . S
N795 C788 1.356 . S
N795 H798 0.984 . S
N795 H799 0.985 . S
H796 N791 0.984 . S
H797 N791 0.985 . S
H798 N795 0.984 . S
H799 N795 0.985 . S
H800 N794 0.984 . S
H801 N794 0.984 . S
H802 N790 0.984 . S
H803 N790 0.985 . S
C804 C805 1.375 . S
C804 C810 1.379 . S
C804 N812 1.356 . S
C805 C804 1.375 . S
C805 C811 1.351 1_455 S
C806 C807 1.351 1_655 S
C806 C811 1.379 . S
C806 N813 1.356 . S
C807 C806 1.351 1_455 S
C807 C810 1.375 . S
N808 C810 1.356 . S
N808 H820 0.984 . S
N808 H821 0.985 . S
N809 C811 1.356 . S
N809 H814 0.984 . S
N809 H815 0.985 . S
C810 C804 1.379 . S
C810 C807 1.375 . S
C810 N808 1.356 . S
C811 C805 1.351 1_655 S
C811 C806 1.379 . S
C811 N809 1.356 . S
N812 C804 1.356 . S
N812 H818 0.984 . S
N812 H819 0.984 . S
N813 C806 1.356 . S
N813 H816 0.984 . S
N813 H817 0.985 . S
H814 N809 0.984 . S
H815 N809 0.985 . S
H816 N813 0.984 . S
H817 N813 0.985 . S
H818 N812 0.984 . S
H819 N812 0.984 . S
H820 N808 0.984 . S
H821 N808 0.985 . S
C822 C823 1.365 . S
C822 C828 1.379 . S
C822 N830 1.356 . S
C823 C822 1.365 . S
C823 C829 1.361 1_545 S
C824 C825 1.360 1_565 S
C824 C829 1.379 . S
C824 N831 1.356 . S
C825 C824 1.360 1_545 S
C825 C828 1.366 . S
N826 C828 1.356 . S
N826 H838 0.984 . S
N826 H839 0.985 . S
N827 C829 1.356 . S
N827 H832 0.984 . S
N827 H833 0.985 . S
C828 C822 1.379 . S
C828 C825 1.366 . S
C828 N826 1.356 . S
C829 C823 1.361 1_565 S
C829 C824 1.379 . S
C829 N827 1.356 . S
N830 C822 1.356 . S
N830 H836 0.984 . S
N830 H837 0.984 . S
N831 C824 1.356 . S
N831 H834 0.984 . S
N831 H835 0.985 . S
H832 N827 0.984 . S
H833 N827 0.985 . S
H834 N831 0.984 . S
H835 N831 0.985 . S
H836 N830 0.984 . S
H837 N830 0.984 . S
H838 N826 0.984 . S
H839 N826 0.985 . S
C840 C841 1.357 1_655 S
C840 C846 1.379 . S
C840 N848 1.356 . S
C841 C840 1.357 1_455 S
C841 C847 1.370 . S
C842 C843 1.370 . S
C842 C847 1.379 . S
C842 N849 1.356 . S
C843 C842 1.370 . S
C843 C846 1.357 1_455 S
N844 C846 1.356 . S
N844 H856 0.984 . S
N844 H857 0.985 . S
N845 C847 1.356 . S
N845 H850 0.984 . S
N845 H851 0.985 . S
C846 C840 1.379 . S
C846 C843 1.357 1_655 S
C846 N844 1.356 . S
C847 C841 1.370 . S
C847 C842 1.379 . S
C847 N845 1.356 . S
N848 C840 1.356 . S
N848 H854 0.984 . S
N848 H855 0.984 . S
N849 C842 1.356 . S
N849 H852 0.984 . S
N849 H853 0.985 . S
H850 N845 0.984 . S
H851 N845 0.985 . S
H852 N849 0.984 . S
H853 N849 0.985 . S
H854 N848 0.984 . S
H855 N848 0.984 . S
H856 N844 0.984 . S
H857 N844 0.985 . S
C858 C859 1.365 . S
C858 C864 1.379 . S
C858 N866 1.356 . S
C859 C858 1.365 . S
C859 C865 1.361 1_545 S
C860 C861 1.360 1_565 S
C860 C865 1.379 . S
C860 N867 1.356 . S
C861 C860 1.360 1_545 S
C861 C864 1.366 . S
N862 C864 1.356 . S
N862 H874 0.984 . S
N862 H875 0.985 . S
N863 C865 1.356 . S
N863 H868 0.984 . S
N863 H869 0.985 . S
C864 C858 1.379 . S
C864 C861 1.366 . S
C864 N862 1.356 . S
C865 C859 1.361 1_565 S
C865 C860 1.379 . S
C865 N863 1.356 . S
N866 C858 1.356 . S
N866 H872 0.984 . S
N866 H873 0.984 . S
N867 C860 1.356 . S
N867 H870 0.984 . S
N867 H871 0.985 . S
H868 N863 0.984 . S
H869 N863 0.985 . S
H870 N867 0.984 . S
H871 N867 0.985 . S
H872 N866 0.984 . S
H873 N866 0.984 . S
H874 N862 0.984 . S
H875 N862 0.985 . S
C876 C877 1.354 1_655 S
C876 C882 1.379 . S
C876 N884 1.356 . S
C877 C876 1.354 1_455 S
C877 C883 1.372 . S
C878 C879 1.372 . S
C878 C883 1.379 . S
C878 N885 1.356 . S
C879 C878 1.372 . S
C879 C882 1.354 1_455 S
N880 C882 1.356 . S
N880 H892 0.984 . S
N880 H893 0.985 . S
N881 C883 1.356 . S
N881 H886 0.984 . S
N881 H887 0.985 . S
C882 C876 1.379 . S
C882 C879 1.354 1_655 S
C882 N880 1.356 . S
C883 C877 1.372 . S
C883 C878 1.379 . S
C883 N881 1.356 . S
N884 C876 1.356 . S
N884 H890 0.984 . S
N884 H891 0.984 . S
N885 C878 1.356 . S
N885 H888 0.984 . S
N885 H889 0.985 . S
H886 N881 0.984 . S
H887 N881 0.985 . S
H888 N885 0.984 . S
H889 N885 0.985 . S
H890 N884 0.984 . S
H891 N884 0.984 . S
H892 N880 0.984 . S
H893 N880 0.985 . S
C894 C895 1.359 1_565 S
C894 C900 1.379 . S
C894 N902 1.356 . S
C895 C894 1.359 1_545 S
C895 C901 1.367 . S
C896 C897 1.367 . S
C896 C901 1.379 . S
C896 N903 1.356 . S
C897 C896 1.367 . S
C897 C900 1.359 1_545 S
N898 C900 1.356 . S
N898 H910 0.984 . S
N898 H911 0.985 . S
N899 C901 1.356 . S
N899 H904 0.984 . S
N899 H905 0.985 . S
C900 C894 1.379 . S
C900 C897 1.359 1_565 S
C900 N898 1.356 . S
C901 C895 1.367 . S
C901 C896 1.379 . S
C901 N899 1.356 . S
N902 C894 1.356 . S
N902 H908 0.984 . S
N902 H909 0.984 . S
N903 C896 1.356 . S
N903 H906 0.984 . S
N903 H907 0.985 . S
H904 N899 0.984 . S
H905 N899 0.985 . S
H906 N903 0.984 . S
H907 N903 0.985 . S
H908 N902 0.984 . S
H909 N902 0.984 . S
H910 N898 0.984 . S
H911 N898 0.985 . S
C912 C913 1.368 . S
C912 C918 1.379 . S
C912 N920 1.356 . S
C913 C912 1.368 . S
C913 C919 1.358 1_455 S
C914 C915 1.358 1_655 S
C914 C919 1.379 . S
C914 N921 1.356 . S
C915 C914 1.358 1_455 S
C915 C918 1.368 . S
N916 C918 1.356 . S
N916 H928 0.984 . S
N916 H929 0.985 . S
N917 C919 1.356 . S
N917 H922 0.984 . S
N917 H923 0.985 . S
C918 C912 1.379 . S
C918 C915 1.368 . S
C918 N916 1.356 . S
C919 C913 1.358 1_655 S
C919 C914 1.379 . S
C919 N917 1.356 . S
N920 C912 1.356 . S
N920 H926 0.984 . S
N920 H927 0.984 . S
N921 C914 1.356 . S
N921 H924 0.984 . S
N921 H925 0.985 . S
H922 N917 0.984 . S
H923 N917 0.985 . S
H924 N921 0.984 . S
H925 N921 0.985 . S
H926 N920 0.984 . S
H927 N920 0.984 . S
H928 N916 0.984 . S
H929 N916 0.985 . S
C930 C931 1.366 . S
C930 C936 1.379 . S
C930 N938 1.356 . S
C931 C930 1.366 . S
C931 C937 1.360 1_545 S
C932 C933 1.359 1_565 S
C932 C937 1.379 . S
C932 N939 1.356 . S
C933 C932 1.359 1_545 S
C933 C936 1.367 . S
N934 C936 1.356 . S
N934 H946 0.984 . S
N934 H947 0.985 . S
N935 C937 1.356 . S
N935 H940 0.984 . S
N935 H941 0.985 . S
C936 C930 1.379 . S
C936 C933 1.367 . S
C936 N934 1.356 . S
C937 C931 1.360 1_565 S
C937 C932 1.379 . S
C937 N935 1.356 . S
N938 C930 1.356 . S
N938 H944 0.984 . S
N938 H945 0.984 . S
N939 C932 1.356 . S
N939 H942 0.984 . S
N939 H943 0.985 . S
H940 N935 0.984 . S
H941 N935 0.985 . S
H942 N939 0.984 . S
H943 N939 0.985 . S
H944 N938 0.984 . S
H945 N938 0.984 . S
H946 N934 0.984 . S
H947 N934 0.985 . S
C948 C949 1.368 . S
C948 C954 1.379 . S
C948 N956 1.356 . S
C949 C948 1.368 . S
C949 C955 1.358 1_455 S
C950 C951 1.358 1_655 S
C950 C955 1.379 . S
C950 N957 1.356 . S
C951 C950 1.358 1_455 S
C951 C954 1.369 . S
N952 C954 1.356 . S
N952 H964 0.984 . S
N952 H965 0.985 . S
N953 C955 1.356 . S
N953 H958 0.984 . S
N953 H959 0.985 . S
C954 C948 1.379 . S
C954 C951 1.369 . S
C954 N952 1.356 . S
C955 C949 1.358 1_655 S
C955 C950 1.379 . S
C955 N953 1.356 . S
N956 C948 1.356 . S
N956 H962 0.984 . S
N956 H963 0.984 . S
N957 C950 1.356 . S
N957 H960 0.984 . S
N957 H961 0.985 . S
H958 N953 0.984 . S
H959 N953 0.985 . S
H960 N957 0.984 . S
H961 N957 0.985 . S
H962 N956 0.984 . S
H963 N956 0.984 . S
H964 N952 0.984 . S
H965 N952 0.985 . S
C966 C967 1.366 . S
C966 C972 1.379 . S
C966 N974 1.356 . S
C967 C966 1.366 . S
C967 C973 1.360 1_545 S
C968 C969 1.360 1_565 S
C968 C973 1.379 . S
C968 N975 1.356 . S
C969 C968 1.360 1_545 S
C969 C972 1.366 . S
N970 C972 1.356 . S
N970 H982 0.984 . S
N970 H983 0.985 . S
N971 C973 1.356 . S
N971 H976 0.984 . S
N971 H977 0.985 . S
C972 C966 1.379 . S
C972 C969 1.366 . S
C972 N970 1.356 . S
C973 C967 1.360 1_565 S
C973 C968 1.379 . S
C973 N971 1.356 . S
N974 C966 1.356 . S
N974 H980 0.984 . S
N974 H981 0.984 . S
N975 C968 1.356 . S
N975 H978 0.984 . S
N975 H979 0.985 . S
H976 N971 0.984 . S
H977 N971 0.985 . S
H978 N975 0.984 . S
H979 N975 0.985 . S
H980 N974 0.984 . S
H981 N974 0.984 . S
H982 N970 0.984 . S
H983 N970 0.985 . S
C984 C985 1.356 1_655 S
C984 C990 1.379 . S
C984 N992 1.356 . S
C985 C984 1.356 1_455 S
C985 C991 1.371 . S
C986 C987 1.372 . S
C986 C991 1.379 . S
C986 N993 1.356 . S
C987 C986 1.372 . S
C987 C990 1.355 1_455 S
N988 C990 1.356 . S
N988 H1000 0.984 . S
N988 H1001 0.985 . S
N989 C991 1.356 . S
N989 H994 0.984 . S
N989 H995 0.985 . S
C990 C984 1.379 . S
C990 C987 1.355 1_655 S
C990 N988 1.356 . S
C991 C985 1.371 . S
C991 C986 1.379 . S
C991 N989 1.356 . S
N992 C984 1.356 . S
N992 H998 0.984 . S
N992 H999 0.984 . S
N993 C986 1.356 . S
N993 H996 0.984 . S
N993 H997 0.985 . S
H994 N989 0.984 . S
H995 N989 0.985 . S
H996 N993 0.984 . S
H997 N993 0.985 . S
H998 N992 0.984 . S
H999 N992 0.984 . S
H1000 N988 0.984 . S
H1001 N988 0.985 . S
C1002 C1003 1.366 . S
C1002 C1008 1.379 . S
C1002 N1010 1.356 . S
C1003 C1002 1.366 . S
C1003 C1009 1.360 1_545 S
C1004 C1005 1.360 1_565 S
C1004 C1009 1.379 . S
C1004 N1011 1.356 . S
C1005 C1004 1.360 1_545 S
C1005 C1008 1.366 . S
N1006 C1008 1.356 . S
N1006 H1018 0.984 . S
N1006 H1019 0.985 . S
N1007 C1009 1.356 . S
N1007 H1012 0.984 . S
N1007 H1013 0.985 . S
C1008 C1002 1.379 . S
C1008 C1005 1.366 . S
C1008 N1006 1.356 . S
C1009 C1003 1.360 1_565 S
C1009 C1004 1.379 . S
C1009 N1007 1.356 . S
N1010 C1002 1.356 . S
N1010 H1016 0.984 . S
N1010 H1017 0.984 . S
N1011 C1004 1.356 . S
N1011 H1014 0.984 . S
N1011 H1015 0.985 . S
H1012 N1007 0.984 . S
H1013 N1007 0.985 . S
H1014 N1011 0.984 . S
H1015 N1011 0.985 . S
H1016 N1010 0.984 . S
H1017 N1010 0.984 . S
H1018 N1006 0.984 . S
H1019 N1006 0.985 . S
C1020 C1021 1.355 1_655 S
C1020 C1026 1.379 . S
C1020 N1028 1.356 . S
C1021 C1020 1.355 1_455 S
C1021 C1027 1.372 . S
C1022 C1023 1.373 . S
C1022 C1027 1.379 . S
C1022 N1029 1.356 . S
C1023 C1022 1.373 . S
C1023 C1026 1.354 1_455 S
N1024 C1026 1.356 . S
N1024 H1036 0.984 . S
N1024 H1037 0.985 . S
N1025 C1027 1.356 . S
N1025 H1030 0.984 . S
N1025 H1031 0.985 . S
C1026 C1020 1.379 . S
C1026 C1023 1.354 1_655 S
C1026 N1024 1.356 . S
C1027 C1021 1.372 . S
C1027 C1022 1.379 . S
C1027 N1025 1.356 . S
N1028 C1020 1.356 . S
N1028 H1034 0.984 . S
N1028 H1035 0.984 . S
N1029 C1022 1.356 . S
N1029 H1032 0.984 . S
N1029 H1033 0.985 . S
H1030 N1025 0.984 . S
H1031 N1025 0.985 . S
H1032 N1029 0.984 . S
H1033 N1029 0.985 . S
H1034 N1028 0.984 . S
H1035 N1028 0.984 . S
H1036 N1024 0.984 . S
H1037 N1024 0.985 . S
C1038 C1039 1.362 1_565 S
C1038 C1044 1.379 . S
C1038 N1046 1.356 . S
C1039 C1038 1.362 1_545 S
C1039 C1045 1.364 . S
C1040 C1041 1.365 . S
C1040 C1045 1.379 . S
C1040 N1047 1.356 . S
C1041 C1040 1.365 . S
C1041 C1044 1.361 1_545 S
N1042 C1044 1.356 . S
N1042 H1054 0.984 . S
N1042 H1055 0.985 . S
N1043 C1045 1.356 . S
N1043 H1048 0.984 . S
N1043 H1049 0.985 . S
C1044 C1038 1.379 . S
C1044 C1041 1.361 1_565 S
C1044 N1042 1.356 . S
C1045 C1039 1.364 . S
C1045 C1040 1.379 . S
C1045 N1043 1.356 . S
N1046 C1038 1.356 . S
N1046 H1052 0.984 . S
N1046 H1053 0.984 . S
N1047 C1040 1.356 . S
N1047 H1050 0.984 . S
N1047 H1051 0.985 . S
H1048 N1043 0.984 . S
H1049 N1043 0.985 . S
H1050 N1047 0.984 . S
H1051 N1047 0.985 . S
H1052 N1046 0.984 . S
H1053 N1046 0.984 . S
H1054 N1042 0.984 . S
H1055 N1042 0.985 . S
C1056 C1057 1.369 . S
C1056 C1062 1.379 . S
C1056 N1064 1.356 . S
C1057 C1056 1.369 . S
C1057 C1063 1.357 1_455 S
C1058 C1059 1.357 1_655 S
C1058 C1063 1.379 . S
C1058 N1065 1.356 . S
C1059 C1058 1.357 1_455 S
C1059 C1062 1.370 . S
N1060 C1062 1.356 . S
N1060 H1072 0.984 . S
N1060 H1073 0.985 . S
N1061 C1063 1.356 . S
N1061 H1066 0.984 . S
N1061 H1067 0.985 . S
C1062 C1056 1.379 . S
C1062 C1059 1.370 . S
C1062 N1060 1.356 . S
C1063 C1057 1.357 1_655 S
C1063 C1058 1.379 . S
C1063 N1061 1.356 . S
N1064 C1056 1.356 . S
N1064 H1070 0.984 . S
N1064 H1071 0.984 . S
N1065 C1058 1.356 . S
N1065 H1068 0.984 . S
N1065 H1069 0.985 . S
H1066 N1061 0.984 . S
H1067 N1061 0.985 . S
H1068 N1065 0.984 . S
H1069 N1065 0.985 . S
H1070 N1064 0.984 . S
H1071 N1064 0.984 . S
H1072 N1060 0.984 . S
H1073 N1060 0.985 . S
C1074 C1075 1.365 . S
C1074 C1080 1.379 . S
C1074 N1082 1.356 . S
C1075 C1074 1.365 . S
C1075 C1081 1.361 1_545 S
C1076 C1077 1.360 1_565 S
C1076 C1081 1.379 . S
C1076 N1083 1.356 . S
C1077 C1076 1.360 1_545 S
C1077 C1080 1.366 . S
N1078 C1080 1.356 . S
N1078 H1090 0.984 . S
N1078 H1091 0.985 . S
N1079 C1081 1.356 . S
N1079 H1084 0.984 . S
N1079 H1085 0.985 . S
C1080 C1074 1.379 . S
C1080 C1077 1.366 . S
C1080 N1078 1.356 . S
C1081 C1075 1.361 1_565 S
C1081 C1076 1.379 . S
C1081 N1079 1.356 . S
N1082 C1074 1.356 . S
N1082 H1088 0.984 . S
N1082 H1089 0.984 . S
N1083 C1076 1.356 . S
N1083 H1086 0.984 . S
N1083 H1087 0.985 . S
H1084 N1079 0.984 . S
H1085 N1079 0.985 . S
H1086 N1083 0.984 . S
H1087 N1083 0.985 . S
H1088 N1082 0.984 . S
H1089 N1082 0.984 . S
H1090 N1078 0.984 . S
H1091 N1078 0.985 . S
C1092 C1093 1.365 . S
C1092 C1098 1.379 . S
C1092 N1100 1.356 . S
C1093 C1092 1.365 . S
C1093 C1099 1.361 1_545 S
C1094 C1095 1.362 1_565 S
C1094 C1099 1.379 . S
C1094 N1101 1.356 . S
C1095 C1094 1.362 1_545 S
C1095 C1098 1.364 . S
N1096 C1098 1.356 . S
N1096 H1108 0.984 . S
N1096 H1109 0.985 . S
N1097 C1099 1.356 . S
N1097 H1102 0.984 . S
N1097 H1103 0.985 . S
C1098 C1092 1.379 . S
C1098 C1095 1.364 . S
C1098 N1096 1.356 . S
C1099 C1093 1.361 1_565 S
C1099 C1094 1.379 . S
C1099 N1097 1.356 . S
N1100 C1092 1.356 . S
N1100 H1106 0.984 . S
N1100 H1107 0.984 . S
N1101 C1094 1.356 . S
N1101 H1104 0.984 . S
N1101 H1105 0.985 . S
H1102 N1097 0.984 . S
H1103 N1097 0.985 . S
H1104 N1101 0.984 . S
H1105 N1101 0.985 . S
H1106 N1100 0.984 . S
H1107 N1100 0.984 . S
H1108 N1096 0.984 . S
H1109 N1096 0.985 . S
C1110 C1111 1.371 . S
C1110 C1116 1.379 . S
C1110 N1118 1.356 . S
C1111 C1110 1.371 . S
C1111 C1117 1.355 1_455 S
C1112 C1113 1.357 1_655 S
C1112 C1117 1.379 . S
C1112 N1119 1.356 . S
C1113 C1112 1.357 1_455 S
C1113 C1116 1.370 . S
N1114 C1116 1.356 . S
N1114 H1126 0.984 . S
N1114 H1127 0.985 . S
N1115 C1117 1.356 . S
N1115 H1120 0.984 . S
N1115 H1121 0.985 . S
C1116 C1110 1.379 . S
C1116 C1113 1.370 . S
C1116 N1114 1.356 . S
C1117 C1111 1.355 1_655 S
C1117 C1112 1.379 . S
C1117 N1115 1.356 . S
N1118 C1110 1.356 . S
N1118 H1124 0.984 . S
N1118 H1125 0.984 . S
N1119 C1112 1.356 . S
N1119 H1122 0.984 . S
N1119 H1123 0.985 . S
H1120 N1115 0.984 . S
H1121 N1115 0.985 . S
H1122 N1119 0.984 . S
H1123 N1119 0.985 . S
H1124 N1118 0.984 . S
H1125 N1118 0.984 . S
H1126 N1114 0.984 . S
H1127 N1114 0.985 . S
C1128 C1129 1.366 . S
C1128 C1134 1.379 . S
C1128 N1136 1.356 . S
C1129 C1128 1.366 . S
C1129 C1135 1.360 1_545 S
C1130 C1131 1.362 1_565 S
C1130 C1135 1.379 . S
C1130 N1137 1.356 . S
C1131 C1130 1.362 1_545 S
C1131 C1134 1.364 . S
N1132 C1134 1.356 . S
N1132 H1144 0.984 . S
N1132 H1145 0.985 . S
N1133 C1135 1.356 . S
N1133 H1138 0.984 . S
N1133 H1139 0.985 . S
C1134 C1128 1.379 . S
C1134 C1131 1.364 . S
C1134 N1132 1.356 . S
C1135 C1129 1.360 1_565 S
C1135 C1130 1.379 . S
C1135 N1133 1.356 . S
N1136 C1128 1.356 . S
N1136 H1142 0.984 . S
N1136 H1143 0.984 . S
N1137 C1130 1.356 . S
N1137 H1140 0.984 . S
N1137 H1141 0.985 . S
H1138 N1133 0.984 . S
H1139 N1133 0.985 . S
H1140 N1137 0.984 . S
H1141 N1137 0.985 . S
H1142 N1136 0.984 . S
H1143 N1136 0.984 . S
H1144 N1132 0.984 . S
H1145 N1132 0.985 . S
C1146 C1147 1.374 . S
C1146 C1152 1.379 . S
C1146 N1154 1.356 . S
C1147 C1146 1.374 . S
C1147 C1153 1.352 1_455 S
C1148 C1149 1.354 1_655 S
C1148 C1153 1.379 . S
C1148 N1155 1.356 . S
C1149 C1148 1.354 1_455 S
C1149 C1152 1.372 . S
N1150 C1152 1.356 . S
N1150 H1162 0.984 . S
N1150 H1163 0.985 . S
N1151 C1153 1.356 . S
N1151 H1156 0.984 . S
N1151 H1157 0.985 . S
C1152 C1146 1.379 . S
C1152 C1149 1.372 . S
C1152 N1150 1.356 . S
C1153 C1147 1.352 1_655 S
C1153 C1148 1.379 . S
C1153 N1151 1.356 . S
N1154 C1146 1.356 . S
N1154 H1160 0.984 . S
N1154 H1161 0.984 . S
N1155 C1148 1.356 . S
N1155 H1158 0.984 . S
N1155 H1159 0.985 . S
H1156 N1151 0.984 . S
H1157 N1151 0.985 . S
H1158 N1155 0.984 . S
H1159 N1155 0.985 . S
H1160 N1154 0.984 . S
H1161 N1154 0.984 . S
H1162 N1150 0.984 . S
H1163 N1150 0.985 . S
C1164 C1165 1.363 1_565 S
C1164 C1170 1.379 . S
C1164 N1172 1.356 . S
C1165 C1164 1.363 1_545 S
C1165 C1171 1.363 . S
C1166 C1167 1.362 . S
C1166 C1171 1.379 . S
C1166 N1173 1.356 . S
C1167 C1166 1.362 . S
C1167 C1170 1.364 1_545 S
N1168 C1170 1.356 . S
N1168 H1180 0.984 . S
N1168 H1181 0.985 . S
N1169 C1171 1.356 . S
N1169 H1174 0.984 . S
N1169 H1175 0.985 . S
C1170 C1164 1.379 . S
C1170 C1167 1.364 1_565 S
C1170 N1168 1.356 . S
C1171 C1165 1.363 . S
C1171 C1166 1.379 . S
C1171 N1169 1.356 . S
N1172 C1164 1.356 . S
N1172 H1178 0.984 . S
N1172 H1179 0.984 . S
N1173 C1166 1.356 . S
N1173 H1176 0.984 . S
N1173 H1177 0.985 . S
H1174 N1169 0.984 . S
H1175 N1169 0.985 . S
H1176 N1173 0.984 . S
H1177 N1173 0.985 . S
H1178 N1172 0.984 . S
H1179 N1172 0.984 . S
H1180 N1168 0.984 . S
H1181 N1168 0.985 . S
C1182 C1183 1.374 . S
C1182 C1188 1.379 . S
C1182 N1190 1.356 . S
C1183 C1182 1.374 . S
C1183 C1189 1.352 1_455 S
C1184 C1185 1.354 1_655 S
C1184 C1189 1.379 . S
C1184 N1191 1.356 . S
C1185 C1184 1.354 1_455 S
C1185 C1188 1.372 . S
N1186 C1188 1.356 . S
N1186 H1198 0.984 . S
N1186 H1199 0.985 . S
N1187 C1189 1.356 . S
N1187 H1192 0.984 . S
N1187 H1193 0.985 . S
C1188 C1182 1.379 . S
C1188 C1185 1.372 . S
C1188 N1186 1.356 . S
C1189 C1183 1.352 1_655 S
C1189 C1184 1.379 . S
C1189 N1187 1.356 . S
N1190 C1182 1.356 . S
N1190 H1196 0.984 . S
N1190 H1197 0.984 . S
N1191 C1184 1.356 . S
N1191 H1194 0.984 . S
N1191 H1195 0.985 . S
H1192 N1187 0.984 . S
H1193 N1187 0.985 . S
H1194 N1191 0.984 . S
H1195 N1191 0.985 . S
H1196 N1190 0.984 . S
H1197 N1190 0.984 . S
H1198 N1186 0.984 . S
H1199 N1186 0.985 . S
C1200 C1201 1.364 . S
C1200 C1206 1.379 . S
C1200 N1208 1.356 . S
C1201 C1200 1.364 . S
C1201 C1207 1.362 1_545 S
C1202 C1203 1.363 1_565 S
C1202 C1207 1.379 . S
C1202 N1209 1.356 . S
C1203 C1202 1.363 1_545 S
C1203 C1206 1.363 . S
N1204 C1206 1.356 . S
N1204 H1216 0.984 . S
N1204 H1217 0.985 . S
N1205 C1207 1.356 . S
N1205 H1210 0.984 . S
N1205 H1211 0.985 . S
C1206 C1200 1.379 . S
C1206 C1203 1.363 . S
C1206 N1204 1.356 . S
C1207 C1201 1.362 1_565 S
C1207 C1202 1.379 . S
C1207 N1205 1.356 . S
N1208 C1200 1.356 . S
N1208 H1214 0.984 . S
N1208 H1215 0.984 . S
N1209 C1202 1.356 . S
N1209 H1212 0.984 . S
N1209 H1213 0.985 . S
H1210 N1205 0.984 . S
H1211 N1205 0.985 . S
H1212 N1209 0.984 . S
H1213 N1209 0.985 . S
H1214 N1208 0.984 . S
H1215 N1208 0.984 . S
H1216 N1204 0.984 . S
H1217 N1204 0.985 . S
C1218 C1219 1.352 1_655 S
C1218 C1224 1.379 . S
C1218 N1226 1.356 . S
C1219 C1218 1.352 1_455 S
C1219 C1225 1.374 . S
C1220 C1221 1.372 . S
C1220 C1225 1.379 . S
C1220 N1227 1.356 . S
C1221 C1220 1.372 . S
C1221 C1224 1.354 1_455 S
N1222 C1224 1.356 . S
N1222 H1234 0.984 . S
N1222 H1235 0.985 . S
N1223 C1225 1.356 . S
N1223 H1228 0.984 . S
N1223 H1229 0.985 . S
C1224 C1218 1.379 . S
C1224 C1221 1.354 1_655 S
C1224 N1222 1.356 . S
C1225 C1219 1.374 . S
C1225 C1220 1.379 . S
C1225 N1223 1.356 . S
N1226 C1218 1.356 . S
N1226 H1232 0.984 . S
N1226 H1233 0.984 . S
N1227 C1220 1.356 . S
N1227 H1230 0.984 . S
N1227 H1231 0.985 . S
H1228 N1223 0.984 . S
H1229 N1223 0.985 . S
H1230 N1227 0.984 . S
H1231 N1227 0.985 . S
H1232 N1226 0.984 . S
H1233 N1226 0.984 . S
H1234 N1222 0.984 . S
H1235 N1222 0.985 . S
C1236 C1237 1.364 . S
C1236 C1242 1.379 . S
C1236 N1244 1.356 . S
C1237 C1236 1.364 . S
C1237 C1243 1.362 1_554 S
C1238 C1239 1.363 1_556 S
C1238 C1243 1.379 . S
C1238 N1245 1.356 . S
C1239 C1238 1.363 1_554 S
C1239 C1242 1.363 . S
N1240 C1242 1.356 . S
N1240 H1252 0.984 . S
N1240 H1253 0.985 . S
N1241 C1243 1.356 . S
N1241 H1246 0.984 . S
N1241 H1247 0.985 . S
C1242 C1236 1.379 . S
C1242 C1239 1.363 . S
C1242 N1240 1.356 . S
C1243 C1237 1.362 1_556 S
C1243 C1238 1.379 . S
C1243 N1241 1.356 . S
N1244 C1236 1.356 . S
N1244 H1250 0.984 . S
N1244 H1251 0.984 . S
N1245 C1238 1.356 . S
N1245 H1248 0.984 . S
N1245 H1249 0.985 . S
H1246 N1241 0.984 . S
H1247 N1241 0.985 . S
H1248 N1245 0.984 . S
H1249 N1245 0.985 . S
H1250 N1244 0.984 . S
H1251 N1244 0.984 . S
H1252 N1240 0.984 . S
H1253 N1240 0.985 . S
C1254 C1255 1.361 1_556 S
C1254 C1260 1.379 . S
C1254 N1262 1.356 . S
C1255 C1254 1.361 1_554 S
C1255 C1261 1.365 . S
C1256 C1257 1.363 . S
C1256 C1261 1.379 . S
C1256 N1263 1.356 . S
C1257 C1256 1.363 . S
C1257 C1260 1.363 1_554 S
N1258 C1260 1.356 . S
N1258 H1270 0.984 . S
N1258 H1271 0.985 . S
N1259 C1261 1.356 . S
N1259 H1264 0.984 . S
N1259 H1265 0.985 . S
C1260 C1254 1.379 . S
C1260 C1257 1.363 1_556 S
C1260 N1258 1.356 . S
C1261 C1255 1.365 . S
C1261 C1256 1.379 . S
C1261 N1259 1.356 . S
N1262 C1254 1.356 . S
N1262 H1268 0.984 . S
N1262 H1269 0.984 . S
N1263 C1256 1.356 . S
N1263 H1266 0.984 . S
N1263 H1267 0.985 . S
H1264 N1259 0.984 . S
H1265 N1259 0.985 . S
H1266 N1263 0.984 . S
H1267 N1263 0.985 . S
H1268 N1262 0.984 . S
H1269 N1262 0.984 . S
H1270 N1258 0.984 . S
H1271 N1258 0.985 . S
C1272 C1273 1.362 1_556 S
C1272 C1278 1.379 . S
C1272 N1280 1.356 . S
C1273 C1272 1.362 1_554 S
C1273 C1279 1.365 . S
C1274 C1275 1.365 . S
C1274 C1279 1.379 . S
C1274 N1281 1.356 . S
C1275 C1274 1.365 . S
C1275 C1278 1.361 1_554 S
N1276 C1278 1.356 . S
N1276 H1288 0.984 . S
N1276 H1289 0.985 . S
N1277 C1279 1.356 . S
N1277 H1282 0.984 . S
N1277 H1283 0.985 . S
C1278 C1272 1.379 . S
C1278 C1275 1.361 1_556 S
C1278 N1276 1.356 . S
C1279 C1273 1.365 . S
C1279 C1274 1.379 . S
C1279 N1277 1.356 . S
N1280 C1272 1.356 . S
N1280 H1286 0.984 . S
N1280 H1287 0.984 . S
N1281 C1274 1.356 . S
N1281 H1284 0.984 . S
N1281 H1285 0.985 . S
H1282 N1277 0.984 . S
H1283 N1277 0.985 . S
H1284 N1281 0.984 . S
H1285 N1281 0.985 . S
H1286 N1280 0.984 . S
H1287 N1280 0.984 . S
H1288 N1276 0.984 . S
H1289 N1276 0.985 . S
C1290 C1291 1.364 . S
C1290 C1296 1.379 . S
C1290 N1298 1.356 . S
C1291 C1290 1.364 . S
C1291 C1297 1.362 1_554 S
C1292 C1293 1.363 1_556 S
C1292 C1297 1.379 . S
C1292 N1299 1.356 . S
C1293 C1292 1.363 1_554 S
C1293 C1296 1.363 . S
N1294 C1296 1.356 . S
N1294 H1306 0.984 . S
N1294 H1307 0.985 . S
N1295 C1297 1.356 . S
N1295 H1300 0.984 . S
N1295 H1301 0.985 . S
C1296 C1290 1.379 . S
C1296 C1293 1.363 . S
C1296 N1294 1.356 . S
C1297 C1291 1.362 1_556 S
C1297 C1292 1.379 . S
C1297 N1295 1.356 . S
N1298 C1290 1.356 . S
N1298 H1304 0.984 . S
N1298 H1305 0.984 . S
N1299 C1292 1.356 . S
N1299 H1302 0.984 . S
N1299 H1303 0.985 . S
H1300 N1295 0.984 . S
H1301 N1295 0.985 . S
H1302 N1299 0.984 . S
H1303 N1299 0.985 . S
H1304 N1298 0.984 . S
H1305 N1298 0.984 . S
H1306 N1294 0.984 . S
H1307 N1294 0.985 . S
C1308 C1309 1.366 . S
C1308 C1314 1.379 . S
C1308 N1316 1.356 . S
C1309 C1308 1.366 . S
C1309 C1315 1.360 1_554 S
C1310 C1311 1.360 1_556 S
C1310 C1315 1.379 . S
C1310 N1317 1.356 . S
C1311 C1310 1.360 1_554 S
C1311 C1314 1.366 . S
N1312 C1314 1.356 . S
N1312 H1324 0.984 . S
N1312 H1325 0.985 . S
N1313 C1315 1.356 . S
N1313 H1318 0.984 . S
N1313 H1319 0.985 . S
C1314 C1308 1.379 . S
C1314 C1311 1.366 . S
C1314 N1312 1.356 . S
C1315 C1309 1.360 1_556 S
C1315 C1310 1.379 . S
C1315 N1313 1.356 . S
N1316 C1308 1.356 . S
N1316 H1322 0.984 . S
N1316 H1323 0.984 . S
N1317 C1310 1.356 . S
N1317 H1320 0.984 . S
N1317 H1321 0.985 . S
H1318 N1313 0.984 . S
H1319 N1313 0.985 . S
H1320 N1317 0.984 . S
H1321 N1317 0.985 . S
H1322 N1316 0.984 . S
H1323 N1316 0.984 . S
H1324 N1312 0.984 . S
H1325 N1312 0.985 . S
C1326 C1327 1.365 . S
C1326 C1332 1.379 . S
C1326 N1334 1.356 . S
C1327 C1326 1.365 . S
C1327 C1333 1.361 1_554 S
C1328 C1329 1.363 1_556 S
C1328 C1333 1.379 . S
C1328 N1335 1.356 . S
C1329 C1328 1.363 1_554 S
C1329 C1332 1.363 . S
N1330 C1332 1.356 . S
N1330 H1342 0.984 . S
N1330 H1343 0.985 . S
N1331 C1333 1.356 . S
N1331 H1336 0.984 . S
N1331 H1337 0.985 . S
C1332 C1326 1.379 . S
C1332 C1329 1.363 . S
C1332 N1330 1.356 . S
C1333 C1327 1.361 1_556 S
C1333 C1328 1.379 . S
C1333 N1331 1.356 . S
N1334 C1326 1.356 . S
N1334 H1340 0.984 . S
N1334 H1341 0.984 . S
N1335 C1328 1.356 . S
N1335 H1338 0.984 . S
N1335 H1339 0.985 . S
H1336 N1331 0.984 . S
H1337 N1331 0.985 . S
H1338 N1335 0.984 . S
H1339 N1335 0.985 . S
H1340 N1334 0.984 . S
H1341 N1334 0.984 . S
H1342 N1330 0.984 . S
H1343 N1330 0.985 . S
C1344 C1345 1.360 1_556 S
C1344 C1350 1.379 . S
C1344 N1352 1.356 . S
C1345 C1344 1.360 1_554 S
C1345 C1351 1.366 . S
C1346 C1347 1.366 . S
C1346 C1351 1.379 . S
C1346 N1353 1.356 . S
C1347 C1346 1.366 . S
C1347 C1350 1.360 1_554 S
N1348 C1350 1.356 . S
N1348 H1360 0.984 . S
N1348 H1361 0.985 . S
N1349 C1351 1.356 . S
N1349 H1354 0.984 . S
N1349 H1355 0.985 . S
C1350 C1344 1.379 . S
C1350 C1347 1.360 1_556 S
C1350 N1348 1.356 . S
C1351 C1345 1.366 . S
C1351 C1346 1.379 . S
C1351 N1349 1.356 . S
N1352 C1344 1.356 . S
N1352 H1358 0.984 . S
N1352 H1359 0.984 . S
N1353 C1346 1.356 . S
N1353 H1356 0.984 . S
N1353 H1357 0.985 . S
H1354 N1349 0.984 . S
H1355 N1349 0.985 . S
H1356 N1353 0.984 . S
H1357 N1353 0.985 . S
H1358 N1352 0.984 . S
H1359 N1352 0.984 . S
H1360 N1348 0.984 . S
H1361 N1348 0.985 . S
C1362 C1363 1.361 1_556 S
C1362 C1368 1.379 . S
C1362 N1370 1.356 . S
C1363 C1362 1.361 1_554 S
C1363 C1369 1.365 . S
C1364 C1365 1.365 . S
C1364 C1369 1.379 . S
C1364 N1371 1.356 . S
C1365 C1364 1.365 . S
C1365 C1368 1.361 1_554 S
N1366 C1368 1.356 . S
N1366 H1378 0.984 . S
N1366 H1379 0.985 . S
N1367 C1369 1.356 . S
N1367 H1372 0.984 . S
N1367 H1373 0.985 . S
C1368 C1362 1.379 . S
C1368 C1365 1.361 1_556 S
C1368 N1366 1.356 . S
C1369 C1363 1.365 . S
C1369 C1364 1.379 . S
C1369 N1367 1.356 . S
N1370 C1362 1.356 . S
N1370 H1376 0.984 . S
N1370 H1377 0.984 . S
N1371 C1364 1.356 . S
N1371 H1374 0.984 . S
N1371 H1375 0.985 . S
H1372 N1367 0.984 . S
H1373 N1367 0.985 . S
H1374 N1371 0.984 . S
H1375 N1371 0.985 . S
H1376 N1370 0.984 . S
H1377 N1370 0.984 . S
H1378 N1366 0.984 . S
H1379 N1366 0.985 . S
C1380 C1381 1.363 . S
C1380 C1386 1.379 . S
C1380 N1388 1.356 . S
C1381 C1380 1.363 . S
C1381 C1387 1.363 . S
C1382 C1383 1.363 . S
C1382 C1387 1.379 . S
C1382 N1389 1.356 . S
C1383 C1382 1.363 . S
C1383 C1386 1.363 . S
N1384 C1386 1.356 . S
N1384 H1396 0.984 . S
N1384 H1397 0.985 . S
N1385 C1387 1.356 . S
N1385 H1390 0.984 . S
N1385 H1391 0.985 . S
C1386 C1380 1.379 . S
C1386 C1383 1.363 . S
C1386 N1384 1.356 . S
C1387 C1381 1.363 . S
C1387 C1382 1.379 . S
C1387 N1385 1.356 . S
N1388 C1380 1.356 . S
N1388 H1394 0.984 . S
N1388 H1395 0.984 . S
N1389 C1382 1.356 . S
N1389 H1392 0.984 . S
N1389 H1393 0.985 . S
H1390 N1385 0.984 . S
H1391 N1385 0.985 . S
H1392 N1389 0.984 . S
H1393 N1389 0.985 . S
H1394 N1388 0.984 . S
H1395 N1388 0.984 . S
H1396 N1384 0.984 . S
H1397 N1384 0.985 . S
C1398 C1399 1.363 . S
C1398 C1404 1.379 . S
C1398 N1406 1.356 . S
C1399 C1398 1.363 . S
C1399 C1405 1.363 . S
C1400 C1401 1.363 . S
C1400 C1405 1.379 . S
C1400 N1407 1.356 . S
C1401 C1400 1.363 . S
C1401 C1404 1.363 . S
N1402 C1404 1.356 . S
N1402 H1414 0.984 . S
N1402 H1415 0.985 . S
N1403 C1405 1.356 . S
N1403 H1408 0.984 . S
N1403 H1409 0.985 . S
C1404 C1398 1.379 . S
C1404 C1401 1.363 . S
C1404 N1402 1.356 . S
C1405 C1399 1.363 . S
C1405 C1400 1.379 . S
C1405 N1403 1.356 . S
N1406 C1398 1.356 . S
N1406 H1412 0.984 . S
N1406 H1413 0.984 . S
N1407 C1400 1.356 . S
N1407 H1410 0.984 . S
N1407 H1411 0.985 . S
H1408 N1403 0.984 . S
H1409 N1403 0.985 . S
H1410 N1407 0.984 . S
H1411 N1407 0.985 . S
H1412 N1406 0.984 . S
H1413 N1406 0.984 . S
H1414 N1402 0.984 . S
H1415 N1402 0.985 . S
C1416 C1417 1.363 . S
C1416 C1422 1.379 . S
C1416 N1424 1.356 . S
C1417 C1416 1.363 . S
C1417 C1423 1.363 . S
C1418 C1419 1.363 . S
C1418 C1423 1.379 . S
C1418 N1425 1.356 . S
C1419 C1418 1.363 . S
C1419 C1422 1.363 . S
N1420 C1422 1.356 . S
N1420 H1432 0.984 . S
N1420 H1433 0.985 . S
N1421 C1423 1.356 . S
N1421 H1426 0.984 . S
N1421 H1427 0.985 . S
C1422 C1416 1.379 . S
C1422 C1419 1.363 . S
C1422 N1420 1.356 . S
C1423 C1417 1.363 . S
C1423 C1418 1.379 . S
C1423 N1421 1.356 . S
N1424 C1416 1.356 . S
N1424 H1430 0.984 . S
N1424 H1431 0.984 . S
N1425 C1418 1.356 . S
N1425 H1428 0.984 . S
N1425 H1429 0.985 . S
H1426 N1421 0.984 . S
H1427 N1421 0.985 . S
H1428 N1425 0.984 . S
H1429 N1425 0.985 . S
H1430 N1424 0.984 . S
H1431 N1424 0.984 . S
H1432 N1420 0.984 . S
H1433 N1420 0.985 . S
C1434 C1435 1.363 . S
C1434 C1440 1.379 . S
C1434 N1442 1.356 . S
C1435 C1434 1.363 . S
C1435 C1441 1.363 . S
C1436 C1437 1.363 . S
C1436 C1441 1.379 . S
C1436 N1443 1.356 . S
C1437 C1436 1.363 . S
C1437 C1440 1.363 . S
N1438 C1440 1.356 . S
N1438 H1450 0.984 . S
N1438 H1451 0.985 . S
N1439 C1441 1.356 . S
N1439 H1444 0.984 . S
N1439 H1445 0.985 . S
C1440 C1434 1.379 . S
C1440 C1437 1.363 . S
C1440 N1438 1.356 . S
C1441 C1435 1.363 . S
C1441 C1436 1.379 . S
C1441 N1439 1.356 . S
N1442 C1434 1.356 . S
N1442 H1448 0.984 . S
N1442 H1449 0.984 . S
N1443 C1436 1.356 . S
N1443 H1446 0.984 . S
N1443 H1447 0.985 . S
H1444 N1439 0.984 . S
H1445 N1439 0.985 . S
H1446 N1443 0.984 . S
H1447 N1443 0.985 . S
H1448 N1442 0.984 . S
H1449 N1442 0.984 . S
H1450 N1438 0.984 . S
H1451 N1438 0.985 . S
C1452 C1453 1.363 . S
C1452 C1458 1.379 . S
C1452 N1460 1.356 . S
C1453 C1452 1.363 . S
C1453 C1459 1.363 . S
C1454 C1455 1.363 . S
C1454 C1459 1.379 . S
C1454 N1461 1.356 . S
C1455 C1454 1.363 . S
C1455 C1458 1.363 . S
N1456 C1458 1.356 . S
N1456 H1468 0.984 . S
N1456 H1469 0.985 . S
N1457 C1459 1.356 . S
N1457 H1462 0.984 . S
N1457 H1463 0.985 . S
C1458 C1452 1.379 . S
C1458 C1455 1.363 . S
C1458 N1456 1.356 . S
C1459 C1453 1.363 . S
C1459 C1454 1.379 . S
C1459 N1457 1.356 . S
N1460 C1452 1.356 . S
N1460 H1466 0.984 . S
N1460 H1467 0.984 . S
N1461 C1454 1.356 . S
N1461 H1464 0.984 . S
N1461 H1465 0.985 . S
H1462 N1457 0.984 . S
H1463 N1457 0.985 . S
H1464 N1461 0.984 . S
H1465 N1461 0.985 . S
H1466 N1460 0.984 . S
H1467 N1460 0.984 . S
H1468 N1456 0.984 . S
H1469 N1456 0.985 . S
C1470 C1471 1.363 . S
C1470 C1476 1.379 . S
C1470 N1478 1.356 . S
C1471 C1470 1.363 . S
C1471 C1477 1.363 . S
C1472 C1473 1.363 . S
C1472 C1477 1.379 . S
C1472 N1479 1.356 . S
C1473 C1472 1.363 . S
C1473 C1476 1.363 . S
N1474 C1476 1.356 . S
N1474 H1486 0.984 . S
N1474 H1487 0.985 . S
N1475 C1477 1.356 . S
N1475 H1480 0.984 . S
N1475 H1481 0.985 . S
C1476 C1470 1.379 . S
C1476 C1473 1.363 . S
C1476 N1474 1.356 . S
C1477 C1471 1.363 . S
C1477 C1472 1.379 . S
C1477 N1475 1.356 . S
N1478 C1470 1.356 . S
N1478 H1484 0.984 . S
N1478 H1485 0.984 . S
N1479 C1472 1.356 . S
N1479 H1482 0.984 . S
N1479 H1483 0.985 . S
H1480 N1475 0.984 . S
H1481 N1475 0.985 . S
H1482 N1479 0.984 . S
H1483 N1479 0.985 . S
H1484 N1478 0.984 . S
H1485 N1478 0.984 . S
H1486 N1474 0.984 . S
H1487 N1474 0.985 . S
C1488 C1489 1.363 . S
C1488 C1494 1.379 . S
C1488 N1496 1.356 . S
C1489 C1488 1.363 . S
C1489 C1495 1.363 . S
C1490 C1491 1.363 . S
C1490 C1495 1.379 . S
C1490 N1497 1.356 . S
C1491 C1490 1.363 . S
C1491 C1494 1.363 . S
N1492 C1494 1.356 . S
N1492 H1504 0.984 . S
N1492 H1505 0.985 . S
N1493 C1495 1.356 . S
N1493 H1498 0.984 . S
N1493 H1499 0.985 . S
C1494 C1488 1.379 . S
C1494 C1491 1.363 . S
C1494 N1492 1.356 . S
C1495 C1489 1.363 . S
C1495 C1490 1.379 . S
C1495 N1493 1.356 . S
N1496 C1488 1.356 . S
N1496 H1502 0.984 . S
N1496 H1503 0.984 . S
N1497 C1490 1.356 . S
N1497 H1500 0.984 . S
N1497 H1501 0.985 . S
H1498 N1493 0.984 . S
H1499 N1493 0.985 . S
H1500 N1497 0.984 . S
H1501 N1497 0.985 . S
H1502 N1496 0.984 . S
H1503 N1496 0.984 . S
H1504 N1492 0.984 . S
H1505 N1492 0.985 . S
C1506 C1507 1.363 . S
C1506 C1512 1.379 . S
C1506 N1514 1.356 . S
C1507 C1506 1.363 . S
C1507 C1513 1.363 . S
C1508 C1509 1.363 . S
C1508 C1513 1.379 . S
C1508 N1515 1.356 . S
C1509 C1508 1.363 . S
C1509 C1512 1.363 . S
N1510 C1512 1.356 . S
N1510 H1522 0.984 . S
N1510 H1523 0.985 . S
N1511 C1513 1.356 . S
N1511 H1516 0.984 . S
N1511 H1517 0.985 . S
C1512 C1506 1.379 . S
C1512 C1509 1.363 . S
C1512 N1510 1.356 . S
C1513 C1507 1.363 . S
C1513 C1508 1.379 . S
C1513 N1511 1.356 . S
N1514 C1506 1.356 . S
N1514 H1520 0.984 . S
N1514 H1521 0.984 . S
N1515 C1508 1.356 . S
N1515 H1518 0.984 . S
N1515 H1519 0.985 . S
H1516 N1511 0.984 . S
H1517 N1511 0.985 . S
H1518 N1515 0.984 . S
H1519 N1515 0.985 . S
H1520 N1514 0.984 . S
H1521 N1514 0.984 . S
H1522 N1510 0.984 . S
H1523 N1510 0.985 . S
C1524 C1525 1.363 . S
C1524 C1530 1.379 . S
C1524 N1532 1.356 . S
C1525 C1524 1.363 . S
C1525 C1531 1.363 . S
C1526 C1527 1.363 . S
C1526 C1531 1.379 . S
C1526 N1533 1.356 . S
C1527 C1526 1.363 . S
C1527 C1530 1.363 . S
N1528 C1530 1.356 . S
N1528 H1540 0.984 . S
N1528 H1541 0.985 . S
N1529 C1531 1.356 . S
N1529 H1534 0.984 . S
N1529 H1535 0.985 . S
C1530 C1524 1.379 . S
C1530 C1527 1.363 . S
C1530 N1528 1.356 . S
C1531 C1525 1.363 . S
C1531 C1526 1.379 . S
C1531 N1529 1.356 . S
N1532 C1524 1.356 . S
N1532 H1538 0.984 . S
N1532 H1539 0.984 . S
N1533 C1526 1.356 . S
N1533 H1536 0.984 . S
N1533 H1537 0.985 . S
H1534 N1529 0.984 . S
H1535 N1529 0.985 . S
H1536 N1533 0.984 . S
H1537 N1533 0.985 . S
H1538 N1532 0.984 . S
H1539 N1532 0.984 . S
H1540 N1528 0.984 . S
H1541 N1528 0.985 . S
C1542 C1543 1.363 . S
C1542 C1548 1.379 . S
C1542 N1550 1.356 . S
C1543 C1542 1.363 . S
C1543 C1549 1.363 . S
C1544 C1545 1.363 . S
C1544 C1549 1.379 . S
C1544 N1551 1.356 . S
C1545 C1544 1.363 . S
C1545 C1548 1.363 . S
N1546 C1548 1.356 . S
N1546 H1558 0.984 . S
N1546 H1559 0.985 . S
N1547 C1549 1.356 . S
N1547 H1552 0.984 . S
N1547 H1553 0.985 . S
C1548 C1542 1.379 . S
C1548 C1545 1.363 . S
C1548 N1546 1.356 . S
C1549 C1543 1.363 . S
C1549 C1544 1.379 . S
C1549 N1547 1.356 . S
N1550 C1542 1.356 . S
N1550 H1556 0.984 . S
N1550 H1557 0.984 . S
N1551 C1544 1.356 . S
N1551 H1554 0.984 . S
N1551 H1555 0.985 . S
H1552 N1547 0.984 . S
H1553 N1547 0.985 . S
H1554 N1551 0.984 . S
H1555 N1551 0.985 . S
H1556 N1550 0.984 . S
H1557 N1550 0.984 . S
H1558 N1546 0.984 . S
H1559 N1546 0.985 . S
C1560 C1561 1.363 . S
C1560 C1566 1.379 . S
C1560 N1568 1.356 . S
C1561 C1560 1.363 . S
C1561 C1567 1.363 . S
C1562 C1563 1.363 . S
C1562 C1567 1.379 . S
C1562 N1569 1.356 . S
C1563 C1562 1.363 . S
C1563 C1566 1.363 . S
N1564 C1566 1.356 . S
N1564 H1576 0.984 . S
N1564 H1577 0.985 . S
N1565 C1567 1.356 . S
N1565 H1570 0.984 . S
N1565 H1571 0.985 . S
C1566 C1560 1.379 . S
C1566 C1563 1.363 . S
C1566 N1564 1.356 . S
C1567 C1561 1.363 . S
C1567 C1562 1.379 . S
C1567 N1565 1.356 . S
N1568 C1560 1.356 . S
N1568 H1574 0.984 . S
N1568 H1575 0.984 . S
N1569 C1562 1.356 . S
N1569 H1572 0.984 . S
N1569 H1573 0.985 . S
H1570 N1565 0.984 . S
H1571 N1565 0.985 . S
H1572 N1569 0.984 . S
H1573 N1569 0.985 . S
H1574 N1568 0.984 . S
H1575 N1568 0.984 . S
H1576 N1564 0.984 . S
H1577 N1564 0.985 . S
C1578 C1579 1.363 . S
C1578 C1584 1.379 . S
C1578 N1586 1.356 . S
C1579 C1578 1.363 . S
C1579 C1585 1.363 . S
C1580 C1581 1.363 . S
C1580 C1585 1.379 . S
C1580 N1587 1.356 . S
C1581 C1580 1.363 . S
C1581 C1584 1.363 . S
N1582 C1584 1.356 . S
N1582 H1594 0.984 . S
N1582 H1595 0.985 . S
N1583 C1585 1.356 . S
N1583 H1588 0.984 . S
N1583 H1589 0.985 . S
C1584 C1578 1.379 . S
C1584 C1581 1.363 . S
C1584 N1582 1.356 . S
C1585 C1579 1.363 . S
C1585 C1580 1.379 . S
C1585 N1583 1.356 . S
N1586 C1578 1.356 . S
N1586 H1592 0.984 . S
N1586 H1593 0.984 . S
N1587 C1580 1.356 . S
N1587 H1590 0.984 . S
N1587 H1591 0.985 . S
H1588 N1583 0.984 . S
H1589 N1583 0.985 . S
H1590 N1587 0.984 . S
H1591 N1587 0.985 . S
H1592 N1586 0.984 . S
H1593 N1586 0.984 . S
H1594 N1582 0.984 . S
H1595 N1582 0.985 . S
C1596 C1597 1.363 . S
C1596 C1602 1.379 . S
C1596 N1604 1.356 . S
C1597 C1596 1.363 . S
C1597 C1603 1.363 . S
C1598 C1599 1.363 . S
C1598 C1603 1.379 . S
C1598 N1605 1.356 . S
C1599 C1598 1.363 . S
C1599 C1602 1.363 . S
N1600 C1602 1.356 . S
N1600 H1612 0.984 . S
N1600 H1613 0.985 . S
N1601 C1603 1.356 . S
N1601 H1606 0.984 . S
N1601 H1607 0.985 . S
C1602 C1596 1.379 . S
C1602 C1599 1.363 . S
C1602 N1600 1.356 . S
C1603 C1597 1.363 . S
C1603 C1598 1.379 . S
C1603 N1601 1.356 . S
N1604 C1596 1.356 . S
N1604 H1610 0.984 . S
N1604 H1611 0.984 . S
N1605 C1598 1.356 . S
N1605 H1608 0.984 . S
N1605 H1609 0.985 . S
H1606 N1601 0.984 . S
H1607 N1601 0.985 . S
H1608 N1605 0.984 . S
H1609 N1605 0.985 . S
H1610 N1604 0.984 . S
H1611 N1604 0.984 . S
H1612 N1600 0.984 . S
H1613 N1600 0.985 . S
C1614 C1615 1.363 . S
C1614 C1620 1.379 . S
C1614 N1622 1.356 . S
C1615 C1614 1.363 . S
C1615 C1621 1.363 . S
C1616 C1617 1.363 . S
C1616 C1621 1.379 . S
C1616 N1623 1.356 . S
C1617 C1616 1.363 . S
C1617 C1620 1.363 . S
N1618 C1620 1.356 . S
N1618 H1630 0.984 . S
N1618 H1631 0.985 . S
N1619 C1621 1.356 . S
N1619 H1624 0.984 . S
N1619 H1625 0.985 . S
C1620 C1614 1.379 . S
C1620 C1617 1.363 . S
C1620 N1618 1.356 . S
C1621 C1615 1.363 . S
C1621 C1616 1.379 . S
C1621 N1619 1.356 . S
N1622 C1614 1.356 . S
N1622 H1628 0.984 . S
N1622 H1629 0.984 . S
N1623 C1616 1.356 . S
N1623 H1626 0.984 . S
N1623 H1627 0.985 . S
H1624 N1619 0.984 . S
H1625 N1619 0.985 . S
H1626 N1623 0.984 . S
H1627 N1623 0.985 . S
H1628 N1622 0.984 . S
H1629 N1622 0.984 . S
H1630 N1618 0.984 . S
H1631 N1618 0.985 . S
C1632 C1633 1.363 . S
C1632 C1638 1.379 . S
C1632 N1640 1.356 . S
C1633 C1632 1.363 . S
C1633 C1639 1.363 . S
C1634 C1635 1.363 . S
C1634 C1639 1.379 . S
C1634 N1641 1.356 . S
C1635 C1634 1.363 . S
C1635 C1638 1.363 . S
N1636 C1638 1.356 . S
N1636 H1648 0.984 . S
N1636 H1649 0.985 . S
N1637 C1639 1.356 . S
N1637 H1642 0.984 . S
N1637 H1643 0.985 . S
C1638 C1632 1.379 . S
C1638 C1635 1.363 . S
C1638 N1636 1.356 . S
C1639 C1633 1.363 . S
C1639 C1634 1.379 . S
C1639 N1637 1.356 . S
N1640 C1632 1.356 . S
N1640 H1646 0.984 . S
N1640 H1647 0.984 . S
N1641 C1634 1.356 . S
N1641 H1644 0.984 . S
N1641 H1645 0.985 . S
H1642 N1637 0.984 . S
H1643 N1637 0.985 . S
H1644 N1641 0.984 . S
H1645 N1641 0.985 . S
H1646 N1640 0.984 . S
H1647 N1640 0.984 . S
H1648 N1636 0.984 . S
H1649 N1636 0.985 . S
C1650 C1651 1.363 . S
C1650 C1656 1.379 . S
C1650 N1658 1.356 . S
C1651 C1650 1.363 . S
C1651 C1657 1.363 . S
C1652 C1653 1.363 . S
C1652 C1657 1.379 . S
C1652 N1659 1.356 . S
C1653 C1652 1.363 . S
C1653 C1656 1.363 . S
N1654 C1656 1.356 . S
N1654 H1666 0.984 . S
N1654 H1667 0.985 . S
N1655 C1657 1.356 . S
N1655 H1660 0.984 . S
N1655 H1661 0.985 . S
C1656 C1650 1.379 . S
C1656 C1653 1.363 . S
C1656 N1654 1.356 . S
C1657 C1651 1.363 . S
C1657 C1652 1.379 . S
C1657 N1655 1.356 . S
N1658 C1650 1.356 . S
N1658 H1664 0.984 . S
N1658 H1665 0.984 . S
N1659 C1652 1.356 . S
N1659 H1662 0.984 . S
N1659 H1663 0.985 . S
H1660 N1655 0.984 . S
H1661 N1655 0.985 . S
H1662 N1659 0.984 . S
H1663 N1659 0.985 . S
H1664 N1658 0.984 . S
H1665 N1658 0.984 . S
H1666 N1654 0.984 . S
H1667 N1654 0.985 . S
C1668 C1669 1.363 . S
C1668 C1674 1.379 . S
C1668 N1676 1.356 . S
C1669 C1668 1.363 . S
C1669 C1675 1.363 . S
C1670 C1671 1.363 . S
C1670 C1675 1.379 . S
C1670 N1677 1.356 . S
C1671 C1670 1.363 . S
C1671 C1674 1.363 . S
N1672 C1674 1.356 . S
N1672 H1684 0.984 . S
N1672 H1685 0.985 . S
N1673 C1675 1.356 . S
N1673 H1678 0.984 . S
N1673 H1679 0.985 . S
C1674 C1668 1.379 . S
C1674 C1671 1.363 . S
C1674 N1672 1.356 . S
C1675 C1669 1.363 . S
C1675 C1670 1.379 . S
C1675 N1673 1.356 . S
N1676 C1668 1.356 . S
N1676 H1682 0.984 . S
N1676 H1683 0.984 . S
N1677 C1670 1.356 . S
N1677 H1680 0.984 . S
N1677 H1681 0.985 . S
H1678 N1673 0.984 . S
H1679 N1673 0.985 . S
H1680 N1677 0.984 . S
H1681 N1677 0.985 . S
H1682 N1676 0.984 . S
H1683 N1676 0.984 . S
H1684 N1672 0.984 . S
H1685 N1672 0.985 . S
C1686 C1687 1.363 . S
C1686 C1692 1.379 . S
C1686 N1694 1.356 . S
C1687 C1686 1.363 . S
C1687 C1693 1.363 . S
C1688 C1689 1.363 . S
C1688 C1693 1.379 . S
C1688 N1695 1.356 . S
C1689 C1688 1.363 . S
C1689 C1692 1.363 . S
N1690 C1692 1.356 . S
N1690 H1702 0.984 . S
N1690 H1703 0.985 . S
N1691 C1693 1.356 . S
N1691 H1696 0.984 . S
N1691 H1697 0.985 . S
C1692 C1686 1.379 . S
C1692 C1689 1.363 . S
C1692 N1690 1.356 . S
C1693 C1687 1.363 . S
C1693 C1688 1.379 . S
C1693 N1691 1.356 . S
N1694 C1686 1.356 . S
N1694 H1700 0.984 . S
N1694 H1701 0.984 . S
N1695 C1688 1.356 . S
N1695 H1698 0.984 . S
N1695 H1699 0.985 . S
H1696 N1691 0.984 . S
H1697 N1691 0.985 . S
H1698 N1695 0.984 . S
H1699 N1695 0.985 . S
H1700 N1694 0.984 . S
H1701 N1694 0.984 . S
H1702 N1690 0.984 . S
H1703 N1690 0.985 . S
C1704 C1705 1.363 . S
C1704 C1710 1.379 . S
C1704 N1712 1.356 . S
C1705 C1704 1.363 . S
C1705 C1711 1.363 . S
C1706 C1707 1.363 . S
C1706 C1711 1.379 . S
C1706 N1713 1.356 . S
C1707 C1706 1.363 . S
C1707 C1710 1.363 . S
N1708 C1710 1.356 . S
N1708 H1720 0.984 . S
N1708 H1721 0.985 . S
N1709 C1711 1.356 . S
N1709 H1714 0.984 . S
N1709 H1715 0.985 . S
C1710 C1704 1.379 . S
C1710 C1707 1.363 . S
C1710 N1708 1.356 . S
C1711 C1705 1.363 . S
C1711 C1706 1.379 . S
C1711 N1709 1.356 . S
N1712 C1704 1.356 . S
N1712 H1718 0.984 . S
N1712 H1719 0.984 . S
N1713 C1706 1.356 . S
N1713 H1716 0.984 . S
N1713 H1717 0.985 . S
H1714 N1709 0.984 . S
H1715 N1709 0.985 . S
H1716 N1713 0.984 . S
H1717 N1713 0.985 . S
H1718 N1712 0.984 . S
H1719 N1712 0.984 . S
H1720 N1708 0.984 . S
H1721 N1708 0.985 . S
C1722 C1723 1.363 . S
C1722 C1728 1.379 . S
C1722 N1730 1.356 . S
C1723 C1722 1.363 . S
C1723 C1729 1.363 . S
C1724 C1725 1.363 . S
C1724 C1729 1.379 . S
C1724 N1731 1.356 . S
C1725 C1724 1.363 . S
C1725 C1728 1.363 . S
N1726 C1728 1.356 . S
N1726 H1738 0.984 . S
N1726 H1739 0.985 . S
N1727 C1729 1.356 . S
N1727 H1732 0.984 . S
N1727 H1733 0.985 . S
C1728 C1722 1.379 . S
C1728 C1725 1.363 . S
C1728 N1726 1.356 . S
C1729 C1723 1.363 . S
C1729 C1724 1.379 . S
C1729 N1727 1.356 . S
N1730 C1722 1.356 . S
N1730 H1736 0.984 . S
N1730 H1737 0.984 . S
N1731 C1724 1.356 . S
N1731 H1734 0.984 . S
N1731 H1735 0.985 . S
H1732 N1727 0.984 . S
H1733 N1727 0.985 . S
H1734 N1731 0.984 . S
H1735 N1731 0.985 . S
H1736 N1730 0.984 . S
H1737 N1730 0.984 . S
H1738 N1726 0.984 . S
H1739 N1726 0.985 . S
C1740 C1741 1.363 . S
C1740 C1746 1.379 . S
C1740 N1748 1.356 . S
C1741 C1740 1.363 . S
C1741 C1747 1.363 . S
C1742 C1743 1.363 . S
C1742 C1747 1.379 . S
C1742 N1749 1.356 . S
C1743 C1742 1.363 . S
C1743 C1746 1.363 . S
N1744 C1746 1.356 . S
N1744 H1756 0.984 . S
N1744 H1757 0.985 . S
N1745 C1747 1.356 . S
N1745 H1750 0.984 . S
N1745 H1751 0.985 . S
C1746 C1740 1.379 . S
C1746 C1743 1.363 . S
C1746 N1744 1.356 . S
C1747 C1741 1.363 . S
C1747 C1742 1.379 . S
C1747 N1745 1.356 . S
N1748 C1740 1.356 . S
N1748 H1754 0.984 . S
N1748 H1755 0.984 . S
N1749 C1742 1.356 . S
N1749 H1752 0.984 . S
N1749 H1753 0.985 . S
H1750 N1745 0.984 . S
H1751 N1745 0.985 . S
H1752 N1749 0.984 . S
H1753 N1749 0.985 . S
H1754 N1748 0.984 . S
H1755 N1748 0.984 . S
H1756 N1744 0.984 . S
H1757 N1744 0.985 . S
C1758 C1759 1.363 . S
C1758 C1764 1.379 . S
C1758 N1766 1.356 . S
C1759 C1758 1.363 . S
C1759 C1765 1.363 . S
C1760 C1761 1.363 . S
C1760 C1765 1.379 . S
C1760 N1767 1.356 . S
C1761 C1760 1.363 . S
C1761 C1764 1.363 . S
N1762 C1764 1.356 . S
N1762 H1774 0.984 . S
N1762 H1775 0.985 . S
N1763 C1765 1.356 . S
N1763 H1768 0.984 . S
N1763 H1769 0.985 . S
C1764 C1758 1.379 . S
C1764 C1761 1.363 . S
C1764 N1762 1.356 . S
C1765 C1759 1.363 . S
C1765 C1760 1.379 . S
C1765 N1763 1.356 . S
N1766 C1758 1.356 . S
N1766 H1772 0.984 . S
N1766 H1773 0.984 . S
N1767 C1760 1.356 . S
N1767 H1770 0.984 . S
N1767 H1771 0.985 . S
H1768 N1763 0.984 . S
H1769 N1763 0.985 . S
H1770 N1767 0.984 . S
H1771 N1767 0.985 . S
H1772 N1766 0.984 . S
H1773 N1766 0.984 . S
H1774 N1762 0.984 . S
H1775 N1762 0.985 . S
C1776 C1777 1.363 . S
C1776 C1782 1.379 . S
C1776 N1784 1.356 . S
C1777 C1776 1.363 . S
C1777 C1783 1.363 . S
C1778 C1779 1.363 . S
C1778 C1783 1.379 . S
C1778 N1785 1.356 . S
C1779 C1778 1.363 . S
C1779 C1782 1.363 . S
N1780 C1782 1.356 . S
N1780 H1792 0.984 . S
N1780 H1793 0.985 . S
N1781 C1783 1.356 . S
N1781 H1786 0.984 . S
N1781 H1787 0.985 . S
C1782 C1776 1.379 . S
C1782 C1779 1.363 . S
C1782 N1780 1.356 . S
C1783 C1777 1.363 . S
C1783 C1778 1.379 . S
C1783 N1781 1.356 . S
N1784 C1776 1.356 . S
N1784 H1790 0.984 . S
N1784 H1791 0.984 . S
N1785 C1778 1.356 . S
N1785 H1788 0.984 . S
N1785 H1789 0.985 . S
H1786 N1781 0.984 . S
H1787 N1781 0.985 . S
H1788 N1785 0.984 . S
H1789 N1785 0.985 . S
H1790 N1784 0.984 . S
H1791 N1784 0.984 . S
H1792 N1780 0.984 . S
H1793 N1780 0.985 . S
C1794 C1795 1.363 . S
C1794 C1800 1.379 . S
C1794 N1802 1.356 . S
C1795 C1794 1.363 . S
C1795 C1801 1.363 . S
C1796 C1797 1.363 . S
C1796 C1801 1.379 . S
C1796 N1803 1.356 . S
C1797 C1796 1.363 . S
C1797 C1800 1.363 . S
N1798 C1800 1.356 . S
N1798 H1810 0.984 . S
N1798 H1811 0.985 . S
N1799 C1801 1.356 . S
N1799 H1804 0.984 . S
N1799 H1805 0.985 . S
C1800 C1794 1.379 . S
C1800 C1797 1.363 . S
C1800 N1798 1.356 . S
C1801 C1795 1.363 . S
C1801 C1796 1.379 . S
C1801 N1799 1.356 . S
N1802 C1794 1.356 . S
N1802 H1808 0.984 . S
N1802 H1809 0.984 . S
N1803 C1796 1.356 . S
N1803 H1806 0.984 . S
N1803 H1807 0.985 . S
H1804 N1799 0.984 . S
H1805 N1799 0.985 . S
H1806 N1803 0.984 . S
H1807 N1803 0.985 . S
H1808 N1802 0.984 . S
H1809 N1802 0.984 . S
H1810 N1798 0.984 . S
H1811 N1798 0.985 . S
C519 C222 1.225 . S
C517 C212 1.225 . S
C535 C194 1.228 . S
C537 C220 1.228 . S
C555 C221 1.227 . S
C553 C185 1.227 . S
C571 C203 1.225 . S
C573 C223 1.225 . S
C591 C267 1.228 . S
C589 C149 1.227 . S
C609 C327 1.228 . S
C607 C158 1.227 . S
C625 C167 1.225 . S
C627 C266 1.225 . S
C645 C326 1.230 . S
C643 C176 1.230 . S
C661 C113 1.225 . S
C663 C268 1.225 . S
C681 C324 1.227 . S
C679 C122 1.228 . S
C697 C131 1.227 . S
C699 C269 1.227 . S
C715 C140 1.225 . S
C717 C325 1.225 . S
C735 C375 1.224 . S
C733 C104 1.224 . S
C751 C86 1.226 1_554 S
C753 C374 1.226 . S
C769 C77 1.229 1_554 S
C771 C376 1.229 . S
C789 C377 1.227 . S
C787 C95 1.226 1_554 S
C805 C41 1.224 . S
C807 C418 1.225 . S
C823 C50 1.226 1_545 S
C825 C477 1.226 . S
C841 C59 1.225 . S
C843 C416 1.225 . S
C859 C68 1.228 1_545 S
C861 C476 1.228 . S
C879 C417 1.228 . S
C877 C5 1.227 . S
C897 C474 1.229 . S
C895 C14 1.228 . S
C913 C23 1.228 . S
C915 C419 1.227 . S
C933 C475 1.226 . S
C931 C32 1.226 . S
C951 C219 1.591 . S
C949 C4 1.514 . S
C967 C16 1.503 . S
C969 C225 1.591 . S
C985 C22 1.515 . S
C987 C217 1.592 . S
C1003 C31 1.517 . S
C1005 C224 1.594 . S
C1021 C40 1.513 . S
C1023 C216 1.591 . S
C1041 C226 1.594 . S
C1039 C49 1.517 1_545 S
C1057 C61 1.498 . S
C1059 C218 1.587 . S
C1077 C227 1.591 . S
C1075 C70 1.503 1_545 S
C1095 C273 1.590 . S
C1093 C34 1.501 . S
C1111 C7 1.502 . S
C1113 C316 1.589 . S
C1131 C271 1.595 . S
C1129 C13 1.518 . S
C1149 C318 1.589 . S
C1147 C25 1.501 . S
C1165 C52 1.501 1_545 S
C1167 C272 1.590 . S
C1185 C317 1.591 . S
C1183 C58 1.515 . S
C1203 C270 1.595 . S
C1201 C67 1.518 1_545 S
C1221 C319 1.588 . S
C1219 C43 1.500 . S
C1239 C323 1.595 . S
C1237 C76 1.518 1_554 S
C1255 C88 1.503 1_554 S
C1257 C322 1.591 . S
C1275 C274 1.588 . S
C1273 C79 1.500 1_554 S
C1293 C321 1.588 . S
C1291 C97 1.500 1_554 S
C1309 C103 1.513 . S
C1311 C277 1.591 . S
C1327 C106 1.499 . S
C1329 C320 1.587 . S
C1347 C276 1.590 . S
C1345 C85 1.513 1_554 S
C1365 C275 1.592 . S
C1363 C94 1.515 1_554 S
C1383 C369 1.590 . S
C1381 C112 1.512 . S
C1401 C372 1.591 . S
C1399 C124 1.503 . S
C1417 C133 1.501 . S
C1419 C368 1.589 . S
C1437 C370 1.594 . S
C1435 C139 1.517 . S
C1455 C366 1.592 . S
C1453 C148 1.515 . S
C1471 C157 1.517 . S
C1473 C371 1.594 . S
C1489 C169 1.498 . S
C1491 C367 1.586 . S
C1509 C373 1.591 . S
C1507 C178 1.503 . S
C1527 C427 1.588 . S
C1525 C142 1.500 . S
C1543 C115 1.501 . S
C1545 C466 1.589 . S
C1563 C426 1.594 . S
C1561 C121 1.516 . S
C1581 C468 1.592 . S
C1579 C130 1.515 . S
C1599 C425 1.591 . S
C1597 C160 1.503 . S
C1615 C166 1.515 . S
C1617 C467 1.592 . S
C1635 C424 1.596 . S
C1633 C175 1.519 . S
C1653 C469 1.589 . S
C1651 C151 1.501 . S
C1671 C473 1.595 . S
C1669 C184 1.518 . S
C1687 C196 1.502 . S
C1689 C472 1.590 . S
C1707 C420 1.587 . S
C1705 C187 1.499 . S
C1723 C205 1.500 . S
C1725 C471 1.588 . S
C1743 C423 1.592 . S
C1741 C211 1.515 . S
C1761 C470 1.587 . S
C1759 C214 1.499 . S
C1779 C421 1.592 . S
C1777 C193 1.514 . S
C1795 C202 1.514 . S
C1797 C422 1.591 . S
