# Generated by pormake.
# Topology zzz, (3,6)-cn, num edge types: 1
# Building blocks:
#     Node 0, Type 0, BuildingBlock: VETTIZ_charged_linker_0, # of connection points: 3
#     Node 1, Type 0, BuildingBlock: VETTIZ_charged_linker_0, # of connection points: 3
#     Node 2, Type 0, BuildingBlock: VETTIZ_charged_linker_0, # of connection points: 3
#     Node 3, Type 0, BuildingBlock: VETTIZ_charged_linker_0, # of connection points: 3
#     Node 4, Type 0, BuildingBlock: VETTIZ_charged_linker_0, # of connection points: 3
#     Node 5, Type 0, BuildingBlock: VETTIZ_charged_linker_0, # of connection points: 3
#     Node 6, Type 0, BuildingBlock: VETTIZ_charged_linker_0, # of connection points: 3
#     Node 7, Type 0, BuildingBlock: VETTIZ_charged_linker_0, # of connection points: 3
#     Node 8, Type 1, BuildingBlock: BETFEN_clean_sbu_0, # of connection points: 6
#     Node 9, Type 1, BuildingBlock: BETFEN_clean_sbu_0, # of connection points: 6
#     Node 10, Type 1, BuildingBlock: BETFEN_clean_sbu_0, # of connection points: 6
#     Node 11, Type 1, BuildingBlock: BETFEN_clean_sbu_0, # of connection points: 6
#     Edge 12, Type (0, 1), BuildingBlock: AJUNOK_clean_linker_0, # of connection points: 2
#     Edge 13, Type (0, 1), BuildingBlock: AJUNOK_clean_linker_0, # of connection points: 2
#     Edge 14, Type (0, 1), BuildingBlock: AJUNOK_clean_linker_0, # of connection points: 2
#     Edge 15, Type (0, 1), BuildingBlock: AJUNOK_clean_linker_0, # of connection points: 2
#     Edge 16, Type (0, 1), BuildingBlock: AJUNOK_clean_linker_0, # of connection points: 2
#     Edge 17, Type (0, 1), BuildingBlock: AJUNOK_clean_linker_0, # of connection points: 2
#     Edge 18, Type (0, 1), BuildingBlock: AJUNOK_clean_linker_0, # of connection points: 2
#     Edge 19, Type (0, 1), BuildingBlock: AJUNOK_clean_linker_0, # of connection points: 2
#     Edge 20, Type (0, 1), BuildingBlock: AJUNOK_clean_linker_0, # of connection points: 2
#     Edge 21, Type (0, 1), BuildingBlock: AJUNOK_clean_linker_0, # of connection points: 2
#     Edge 22, Type (0, 1), BuildingBlock: AJUNOK_clean_linker_0, # of connection points: 2
#     Edge 23, Type (0, 1), BuildingBlock: AJUNOK_clean_linker_0, # of connection points: 2
#     Edge 24, Type (0, 1), BuildingBlock: AJUNOK_clean_linker_0, # of connection points: 2
#     Edge 25, Type (0, 1), BuildingBlock: AJUNOK_clean_linker_0, # of connection points: 2
#     Edge 26, Type (0, 1), BuildingBlock: AJUNOK_clean_linker_0, # of connection points: 2
#     Edge 27, Type (0, 1), BuildingBlock: AJUNOK_clean_linker_0, # of connection points: 2
#     Edge 28, Type (0, 1), BuildingBlock: AJUNOK_clean_linker_0, # of connection points: 2
#     Edge 29, Type (0, 1), BuildingBlock: AJUNOK_clean_linker_0, # of connection points: 2
#     Edge 30, Type (0, 1), BuildingBlock: AJUNOK_clean_linker_0, # of connection points: 2
#     Edge 31, Type (0, 1), BuildingBlock: AJUNOK_clean_linker_0, # of connection points: 2
#     Edge 32, Type (0, 1), BuildingBlock: AJUNOK_clean_linker_0, # of connection points: 2
#     Edge 33, Type (0, 1), BuildingBlock: AJUNOK_clean_linker_0, # of connection points: 2
#     Edge 34, Type (0, 1), BuildingBlock: AJUNOK_clean_linker_0, # of connection points: 2
#     Edge 35, Type (0, 1), BuildingBlock: AJUNOK_clean_linker_0, # of connection points: 2
# Relax obj value: 0.516
# Max RMSD: 0.267
# Mean RMSD: 0.257
data_MOF--net-zzz--node1-BETFEN_clean_sbu_0--node2-VETTIZ_charged_linker_0--edge1-AJUNOK_clean_linker_0
_symmetry_space_group_name_H-M    P1
_symmetry_Int_Tables_number       1
_symmetry_cell_setting            triclinic
loop_
_symmetry_equiv_pos_as_xyz
'x, y, z'
_cell_length_a     46.457688
_cell_length_b     46.558323
_cell_length_c     14.683622
_cell_angle_alpha  89.827253
_cell_angle_beta   89.803448
_cell_angle_gamma 90.078619
loop_
_atom_site_label
_atom_site_type_symbol
_atom_site_fract_x
_atom_site_fract_y
_atom_site_fract_z
_atom_type_partial_charge
C0 C 0.80993 0.48973 0.45921 0.0
C1 C 0.82897 0.47373 0.51727 0.0
C2 C 0.82452 0.44386 0.52443 0.0
C3 C 0.78898 0.44522 0.40504 0.0
C4 C 0.78901 0.4747 0.40556 0.0
C5 C 0.76378 0.48551 0.34648 0.0
H6 H 0.65981 0.44255 0.02814 0.0
C7 C 0.76953 0.43468 0.33425 0.0
C8 C 0.7526 0.45757 0.30161 0.0
H9 H 0.66453 0.52704 0.14543 0.0
H10 H 0.70725 0.51241 0.23437 0.0
H11 H 0.72129 0.44183 0.98242 0.0
H12 H 0.67442 0.40266 0.19941 0.0
H13 H 0.69853 0.37682 0.15491 0.0
H14 H 0.67259 0.39341 0.08085 0.0
H15 H 0.70987 0.40537 0.974 0.0
H16 H 0.74498 0.4148 0.01767 0.0
C17 C 0.77469 0.50711 0.27497 0.0
C18 C 0.74098 0.49875 0.40985 0.0
C19 C 0.80628 0.34974 0.15983 0.0
C20 C 0.79978 0.34099 0.07075 0.0
C21 C 0.77188 0.34609 0.03717 0.0
C22 C 0.75271 0.36365 0.08567 0.0
C23 C 0.76212 0.37716 0.16591 0.0
C24 C 0.78779 0.36874 0.20462 0.0
C25 C 0.79526 0.38602 0.28762 0.0
C26 C 0.77111 0.40838 0.28618 0.0
C27 C 0.75215 0.40324 0.21421 0.0
C28 C 0.82537 0.39985 0.2734 0.0
C29 C 0.79407 0.36569 0.37158 0.0
C30 C 0.6694 0.45786 0.07452 0.0
C31 C 0.65802 0.48562 0.08129 0.0
C32 C 0.6724 0.50525 0.13964 0.0
C33 C 0.69691 0.49671 0.19197 0.0
C34 C 0.70746 0.46834 0.18543 0.0
C35 C 0.69372 0.4499 0.12534 0.0
C36 C 0.70896 0.42186 0.11579 0.0
C37 C 0.73191 0.42455 0.18829 0.0
C38 C 0.73186 0.45199 0.22992 0.0
C39 C 0.72188 0.42065 0.01775 0.0
C40 C 0.68757 0.39724 0.13836 0.0
H41 H 0.80074 0.4074 0.48166 0.0
H42 H 0.81127 0.51292 0.45621 0.0
H43 H 0.73458 0.48314 0.46375 0.0
H44 H 0.7213 0.50479 0.37269 0.0
H45 H 0.74962 0.51827 0.44356 0.0
H46 H 0.79191 0.49729 0.23256 0.0
H47 H 0.78363 0.52655 0.30836 0.0
H48 H 0.75707 0.51392 0.22913 0.0
H49 H 0.82733 0.34561 0.18823 0.0
H50 H 0.76607 0.33901 0.96948 0.0
H51 H 0.73216 0.36774 0.05544 0.0
H52 H 0.82601 0.41239 0.20883 0.0
H53 H 0.84251 0.38328 0.27078 0.0
H54 H 0.83151 0.41444 0.32892 0.0
H55 H 0.79271 0.34264 0.35227 0.0
H56 H 0.77495 0.37017 0.41494 0.0
H57 H 0.81384 0.36746 0.41351 0.0
H58 H 0.83751 0.43098 0.57005 0.0
C59 C 0.80415 0.42986 0.47095 0.0
C60 C 0.03882 0.79424 0.84011 0.0
C61 C 0.04419 0.82341 0.82438 0.0
C62 C 0.02946 0.84419 0.87661 0.0
C63 C 1.00941 0.80678 0.97103 0.0
C64 C 0.02067 0.78645 0.91263 0.0
C65 C 0.01161 0.75666 0.93903 0.0
H66 H 0.99536 0.65558 0.22577 0.0
C67 C 0.99659 0.79192 0.04995 0.0
C68 C 0.99537 0.76289 0.0282 0.0
H69 H 0.9634 0.65841 0.94829 0.0
H70 H 0.96105 0.7104 0.95836 0.0
H71 H 0.03976 0.7192 0.23758 0.0
H72 H 0.94674 0.71944 0.27446 0.0
H73 H 0.96849 0.73435 0.3632 0.0
H74 H 0.96864 0.69625 0.34399 0.0
H75 H 0.02362 0.69619 0.32254 0.0
H76 H 0.02537 0.73439 0.34047 0.0
C77 C 0.03845 0.73783 0.95553 0.0
C78 C 0.99284 0.74453 0.8613 0.0
C79 C 0.99497 0.8485 0.34348 0.0
C80 C 0.99768 0.84255 0.43713 0.0
C81 C 0.99844 0.81284 0.46193 0.0
C82 C 0.99664 0.79043 0.3951 0.0
C83 C 0.99449 0.79742 0.30164 0.0
C84 C 0.99443 0.82636 0.27852 0.0
C85 C 0.99569 0.83128 0.17784 0.0
C86 C 0.99474 0.80071 0.14259 0.0
C87 C 0.99337 0.78011 0.2142 0.0
C88 C 0.02442 0.84711 0.15444 0.0
C89 C 0.96846 0.84803 0.14873 0.0
C90 C 0.98961 0.6674 0.16496 0.0
C91 C 0.98176 0.65243 0.08285 0.0
C92 C 0.9715 0.6688 0.00904 0.0
C93 C 0.9716 0.6986 0.01165 0.0
C94 C 0.98397 0.71252 0.08536 0.0
C95 C 0.98942 0.69829 0.16517 0.0
C96 C 0.99273 0.72093 0.24198 0.0
C97 C 0.99084 0.74992 0.18943 0.0
C98 C 0.9882 0.74305 0.09683 0.0
C99 C 0.02208 0.71749 0.28853 0.0
C100 C 0.96775 0.7176 0.31004 0.0
H101 H 1.00133 0.85245 0.9879 0.0
H102 H 0.04937 0.77802 0.7992 0.0
H103 H 1.00062 0.75174 0.79328 0.0
H104 H 0.97013 0.75169 0.86826 0.0
H105 H 0.99398 0.72078 0.85823 0.0
H106 H 0.05236 0.74739 0.009 0.0
H107 H 0.05137 0.73558 0.89217 0.0
H108 H 0.03222 0.71589 0.9778 0.0
H109 H 0.99385 0.87045 0.31934 0.0
H110 H 1.00119 0.80676 0.53249 0.0
H111 H 0.99783 0.76837 0.41715 0.0
H112 H 0.03731 0.85244 0.21579 0.0
H113 H 0.02057 0.86789 0.11936 0.0
H114 H 0.03892 0.83377 0.11184 0.0
H115 H 0.94898 0.83921 0.18318 0.0
H116 H 0.96431 0.84636 0.07482 0.0
H117 H 0.9703 0.87111 0.16691 0.0
H118 H 0.03305 0.86691 0.86474 0.0
C119 C 0.01185 0.83596 0.94949 0.0
C120 C 0.83694 0.01152 0.15847 0.0
C121 C 0.85999 0.02666 0.11409 0.0
C122 C 0.86022 0.05691 0.1202 0.0
C123 C 0.81384 0.05682 0.1946 0.0
C124 C 0.81428 0.02738 0.20137 0.0
C125 C 0.78913 0.01735 0.26239 0.0
H126 H 0.66891 0.06334 0.51092 0.0
C127 C 0.78802 0.0681 0.2387 0.0
C128 C 0.77372 0.04586 0.28566 0.0
H129 H 0.69606 0.97533 0.48696 0.0
H130 H 0.73727 0.99054 0.39152 0.0
H131 H 0.7277 0.1253 0.45789 0.0
H132 H 0.66647 0.07753 0.34233 0.0
H133 H 0.68917 0.09526 0.26413 0.0
H134 H 0.67436 0.11402 0.36149 0.0
H135 H 0.73104 0.09461 0.52796 0.0
H136 H 0.69618 0.1106 0.51264 0.0
C137 C 0.80131 1.00282 0.34816 0.0
C138 C 0.76957 0.99715 0.20762 0.0
C139 C 0.73497 0.14933 0.0929 0.0
C140 C 0.70761 0.16027 0.11668 0.0
C141 C 0.70031 0.1615 0.21015 0.0
C142 C 0.71645 0.14631 0.2742 0.0
C143 C 0.73902 0.12901 0.24356 0.0
C144 C 0.75026 0.13323 0.15777 0.0
C145 C 0.77656 0.11489 0.14246 0.0
C146 C 0.77506 0.0953 0.22691 0.0
C147 C 0.75164 0.10271 0.28188 0.0
C148 C 0.80309 0.13504 0.14036 0.0
C149 C 0.77364 0.09767 0.05312 0.0
C150 C 0.68395 0.04721 0.4872 0.0
C151 C 0.67944 0.0183 0.50897 0.0
C152 C 0.69909 0.99795 0.47248 0.0
C153 C 0.72296 1.00675 0.41729 0.0
C154 C 0.72688 0.03612 0.39606 0.0
C155 C 0.70686 0.05544 0.43021 0.0
C156 C 0.71117 0.08523 0.39511 0.0
C157 C 0.73821 0.08153 0.33777 0.0
C158 C 0.74808 0.05271 0.33781 0.0
C159 C 0.71667 0.10517 0.4775 0.0
C160 C 0.68413 0.09362 0.33792 0.0
H161 H 0.84001 0.09445 0.17253 0.0
H162 H 0.83684 0.98828 0.16062 0.0
H163 H 0.76257 1.00775 0.14344 0.0
H164 H 0.74998 0.99126 0.24631 0.0
H165 H 0.78119 0.9771 0.18963 0.0
H166 H 0.81674 0.01738 0.38292 0.0
H167 H 0.81285 0.98273 0.33005 0.0
H168 H 0.78414 0.99742 0.39758 0.0
H169 H 0.74212 0.1498 0.02269 0.0
H170 H 0.68014 0.17055 0.23313 0.0
H171 H 0.70932 0.14644 0.34363 0.0
H172 H 0.79746 0.15685 0.11501 0.0
H173 H 0.81982 0.12729 0.09238 0.0
H174 H 0.81248 0.13759 0.2094 0.0
H175 H 0.75355 0.08465 0.0537 0.0
H176 H 0.79209 0.08295 0.04331 0.0
H177 H 0.77324 0.1122 0.99306 0.0
H178 H 0.87785 0.06929 0.09164 0.0
C179 C 0.83777 0.0718 0.16221 0.0
C180 C 0.51295 0.69415 0.47545 0.0
C181 C 0.50263 0.66509 0.46595 0.0
C182 C 0.48765 0.65811 0.38526 0.0
C183 C 0.50327 0.70222 0.31656 0.0
C184 C 0.51131 0.71327 0.39858 0.0
C185 C 0.52131 0.74458 0.38162 0.0
H186 H 0.55597 0.83747 0.0184 0.0
C187 C 0.51526 0.71976 0.24392 0.0
C188 C 0.51915 0.74779 0.27614 0.0
H189 H 0.49295 0.86277 0.21997 0.0
H190 H 0.49615 0.81437 0.29021 0.0
H191 H 0.59822 0.7988 0.16463 0.0
H192 H 0.52998 0.78114 0.97387 0.0
H193 H 0.55744 0.75569 0.95765 0.0
H194 H 0.56515 0.79294 0.93855 0.0
H195 H 0.60385 0.80003 0.0437 0.0
H196 H 0.60679 0.76686 0.10714 0.0
C197 C 0.55253 0.74851 0.41401 0.0
C198 C 0.50113 0.76562 0.43035 0.0
C199 C 0.58556 0.66063 0.06277 0.0
C200 C 0.60672 0.66678 0.9969 0.0
C201 C 0.61166 0.69561 0.97219 0.0
C202 C 0.59559 0.71777 0.01324 0.0
C203 C 0.57368 0.71073 0.07648 0.0
C204 C 0.56896 0.68243 0.0993 0.0
C205 C 0.54513 0.67816 0.16707 0.0
C206 C 0.5352 0.70906 0.17917 0.0
C207 C 0.55297 0.7279 0.13004 0.0
C208 C 0.55861 0.66545 0.25474 0.0
C209 C 0.52152 0.6584 0.12661 0.0
C210 C 0.5436 0.83374 0.07986 0.0
C211 C 0.52445 0.85477 0.11253 0.0
C212 C 0.50781 0.8474 0.1912 0.0
C213 C 0.51003 0.81978 0.23351 0.0
C214 C 0.52956 0.79947 0.19873 0.0
C215 C 0.54562 0.80676 0.12225 0.0
C216 C 0.56194 0.78166 0.08463 0.0
C217 C 0.55064 0.75772 0.14462 0.0
C218 C 0.53378 0.76805 0.21739 0.0
C219 C 0.59445 0.78701 0.09994 0.0
C220 C 0.55345 0.77755 0.98328 0.0
H221 H 0.47815 0.67018 0.24697 0.0
H222 H 0.52339 0.70096 0.53752 0.0
H223 H 0.4789 0.76385 0.40314 0.0
H224 H 0.50874 0.78805 0.42105 0.0
H225 H 0.50047 0.76094 0.5046 0.0
H226 H 0.56701 0.73297 0.37933 0.0
H227 H 0.5541 0.745 0.48872 0.0
H228 H 0.56027 0.77058 0.39838 0.0
H229 H 0.58048 0.63879 0.0822 0.0
H230 H 0.62722 0.70083 0.9196 0.0
H231 H 0.60001 0.73939 0.99161 0.0
H232 H 0.57453 0.68061 0.28433 0.0
H233 H 0.56976 0.64486 0.24023 0.0
H234 H 0.54245 0.66048 0.30751 0.0
H235 H 0.50385 0.67114 0.09557 0.0
H236 H 0.51237 0.64375 0.17885 0.0
H237 H 0.53 0.6441 0.07265 0.0
H238 H 0.47791 0.6371 0.3773 0.0
C239 C 0.48807 0.67657 0.31016 0.0
C240 C 0.33303 0.49844 0.3808 0.0
C241 C 0.34899 0.51045 0.45477 0.0
C242 C 0.33764 0.53464 0.49898 0.0
C243 C 0.29728 0.53647 0.39485 0.0
C244 C 0.30684 0.5119 0.35197 0.0
C245 C 0.28607 0.50375 0.27455 0.0
H246 H 0.17154 0.55272 0.00834 0.0
C247 C 0.27227 0.54803 0.34524 0.0
C248 C 0.26434 0.52893 0.27542 0.0
H249 H 0.18081 0.46431 0.08908 0.0
H250 H 0.22217 0.47748 0.18533 0.0
H251 H 0.18278 0.58588 0.24679 0.0
H252 H 0.24251 0.57728 0.01944 0.0
H253 H 0.23609 0.60998 0.07773 0.0
H254 H 0.20886 0.59572 1.00331 0.0
H255 H 0.16396 0.57517 0.14886 0.0
H256 H 0.18084 0.60881 0.14698 0.0
C257 C 0.27199 0.47459 0.29684 0.0
C258 C 0.30236 0.50265 0.18331 0.0
C259 C 0.21522 0.63342 0.44634 0.0
C260 C 0.19482 0.65 0.39812 0.0
C261 C 0.19896 0.65372 0.3033 0.0
C262 C 0.21744 0.63534 0.25556 0.0
C263 C 0.23183 0.61391 0.30411 0.0
C264 C 0.23423 0.61599 0.397 0.0
C265 C 0.25624 0.59513 0.4329 0.0
C266 C 0.26009 0.57584 0.3497 0.0
C267 C 0.24427 0.58636 0.2759 0.0
C268 C 0.24379 0.57834 0.5152 0.0
C269 C 0.28389 0.61254 0.45571 0.0
C270 C 0.18328 0.53573 0.04239 0.0
C271 C 0.17333 0.50733 0.03702 0.0
C272 C 0.18835 0.48632 0.08876 0.0
C273 C 0.21273 0.49373 0.14299 0.0
C274 C 0.22222 0.52249 0.14718 0.0
C275 C 0.20607 0.54299 0.10118 0.0
C276 C 0.21216 0.57286 0.13402 0.0
C277 C 0.23434 0.56704 0.20815 0.0
C278 C 0.24224 0.53774 0.21169 0.0
C279 C 0.18373 0.58645 0.17123 0.0
C280 C 0.22554 0.59005 0.05436 0.0
H281 H 0.30446 0.56527 0.50867 0.0
H282 H 0.34087 0.47949 0.34625 0.0
H283 H 0.31343 0.52341 0.16959 0.0
H284 H 0.28718 0.49843 0.12653 0.0
H285 H 0.31876 0.4853 0.18411 0.0
H286 H 0.25441 0.47707 0.34772 0.0
H287 H 0.28808 0.45936 0.32508 0.0
H288 H 0.26347 0.46424 0.23482 0.0
H289 H 0.2141 0.63102 0.51942 0.0
H290 H 0.1852 0.66803 0.26482 0.0
H291 H 0.21856 0.63693 0.18266 0.0
H292 H 0.22211 0.56965 0.49881 0.0
H293 H 0.24178 0.59244 0.57577 0.0
H294 H 0.25741 0.55985 0.53447 0.0
H295 H 0.28204 0.63571 0.43773 0.0
H296 H 0.30286 0.60461 0.4171 0.0
H297 H 0.28881 0.61176 0.52966 0.0
H298 H 0.34877 0.5438 0.55684 0.0
C299 C 0.31209 0.54744 0.47009 0.0
C300 C 0.85431 0.23121 0.45576 0.0
C301 C 0.84348 0.20361 0.43584 0.0
C302 C 0.84325 0.19475 0.34384 0.0
C303 C 0.87595 0.23309 0.30615 0.0
C304 C 0.87101 0.24549 0.38973 0.0
C305 C 0.88898 0.27216 0.40209 0.0
H306 H 0.01617 0.33296 0.38131 0.0
C307 C 0.9024 0.24564 0.26744 0.0
C308 C 0.90943 0.2696 0.31991 0.0
H309 H 0.93459 0.37275 0.45051 0.0
H310 H 0.90975 0.3345 0.37218 0.0
H311 H 0.99771 0.25882 0.40355 0.0
H312 H 0.98678 0.31136 0.16027 0.0
H313 H 1.00734 0.27916 0.14785 0.0
H314 H 0.02164 0.30849 0.21285 0.0
H315 H 0.02808 0.27761 0.35516 0.0
H316 H 0.01413 0.24596 0.30118 0.0
C317 C 0.90534 0.27082 0.49354 0.0
C318 C 0.86847 0.29835 0.39725 0.0
C319 C 0.95833 0.1787 0.06228 0.0
C320 C 0.98741 0.17422 0.04154 0.0
C321 C 1.00762 0.19417 0.07728 0.0
C322 C 0.99862 0.21802 0.13148 0.0
C323 C 0.96916 0.22173 0.1524 0.0
C324 C 0.94992 0.20159 0.11861 0.0
C325 C 0.92013 0.20543 0.15502 0.0
C326 C 0.92372 0.23235 0.21207 0.0
C327 C 0.95245 0.24267 0.21075 0.0
C328 C 0.9123 0.17826 0.21279 0.0
C329 C 0.89967 0.21091 0.07379 0.0
C330 C 0.99289 0.33275 0.38387 0.0
C331 C 0.97752 0.35566 0.42753 0.0
C332 C 0.9472 0.35536 0.42213 0.0
C333 C 0.93249 0.33266 0.38141 0.0
C334 C 0.9477 0.30893 0.34961 0.0
C335 C 0.97719 0.30978 0.34237 0.0
C336 C 0.98746 0.28453 0.28293 0.0
C337 C 0.95906 0.26856 0.26138 0.0
C338 C 0.93664 0.28274 0.30764 0.0
C339 C 1.00808 0.26562 0.33858 0.0
C340 C 1.00168 0.29647 0.19598 0.0
H341 H 0.85958 0.2016 0.21032 0.0
H342 H 0.85318 0.23939 0.52457 0.0
H343 H 0.84603 0.29257 0.41681 0.0
H344 H 0.86765 0.3075 0.32728 0.0
H345 H 0.8747 0.31534 0.44621 0.0
H346 H 0.91849 0.25093 0.49782 0.0
H347 H 0.89017 0.27121 0.55211 0.0
H348 H 0.91988 0.28948 0.50176 0.0
H349 H 0.94225 0.16355 0.03894 0.0
H350 H 0.03033 0.19135 0.06316 0.0
H351 H 0.01477 0.23244 0.15701 0.0
H352 H 0.92927 0.16144 0.21127 0.0
H353 H 0.89255 0.16751 0.18758 0.0
H354 H 0.90966 0.18337 0.2861 0.0
H355 H 0.89429 0.19051 0.03861 0.0
H356 H 0.90984 0.22559 0.02308 0.0
H357 H 0.87948 0.2216 0.09473 0.0
H358 H 0.83436 0.17423 0.32403 0.0
C359 C 0.85906 0.20987 0.27831 0.0
C360 C 0.31016 1.00237 0.03722 0.0
C361 C 0.33777 0.98948 0.05151 0.0
C362 C 0.34109 0.97185 0.12958 0.0
C363 C 0.29622 0.98904 0.19036 0.0
C364 C 0.28892 1.00053 0.1077 0.0
C365 C 0.25892 0.01378 0.11629 0.0
H366 H 0.16588 0.0617 0.46059 0.0
C367 C 0.27761 1.00127 0.26116 0.0
C368 C 0.25186 1.01016 0.21893 0.0
H369 H 0.14276 0.98391 0.31797 0.0
H370 H 0.18846 0.98673 0.23043 0.0
H371 H 0.23287 0.04359 0.51373 0.0
H372 H 0.21395 0.09404 0.26966 0.0
H373 H 0.23389 0.10977 0.3617 0.0
H374 H 0.19623 0.10357 0.37456 0.0
H375 H 0.2093 0.07411 0.52477 0.0
H376 H 0.2464 0.07979 0.5026 0.0
C377 C 0.2372 0.99696 0.05858 0.0
C378 C 0.25969 0.04564 0.08727 0.0
C379 C 0.3407 0.05768 0.47491 0.0
C380 C 0.34583 0.08699 0.45838 0.0
C381 C 0.323 0.1044 0.42802 0.0
C382 C 0.29625 0.09192 0.40685 0.0
C383 C 0.29329 0.0619 0.41081 0.0
C384 C 0.31643 0.04515 0.43615 0.0
C385 C 0.31707 0.0171 0.38399 0.0
C386 C 0.28863 0.01888 0.33236 0.0
C387 C 0.27426 0.04426 0.35552 0.0
C388 C 0.317 0.99172 0.45122 0.0
C389 C 0.34399 0.01666 0.32031 0.0
C390 C 0.17018 0.04514 0.41089 0.0
C391 C 0.15008 0.02274 0.39709 0.0
C392 C 0.15696 1.00197 0.32936 0.0
C393 C 0.18319 1.00337 0.27901 0.0
C394 C 0.20289 0.02554 0.29667 0.0
C395 C 0.19653 0.04557 0.36331 0.0
C396 C 0.22217 0.0644 0.38347 0.0
C397 C 0.24545 0.04872 0.32944 0.0
C398 C 0.23341 0.02935 0.26761 0.0
C399 C 0.22808 0.06542 0.48695 0.0
C400 C 0.21637 0.09464 0.34497 0.0
H401 H 0.32406 0.95947 0.26086 0.0
H402 H 0.30609 0.015 0.97669 0.0
H403 H 0.27551 0.05776 0.12894 0.0
H404 H 0.23818 0.05568 0.09629 0.0
H405 H 0.26586 0.0478 0.01441 0.0
H406 H 0.23677 0.97396 0.07916 0.0
H407 H 0.24304 0.99822 0.9852 0.0
H408 H 0.2152 1.00589 0.06761 0.0
H409 H 0.35851 0.04381 0.49349 0.0
H410 H 0.3268 0.12677 0.41143 0.0
H411 H 0.28013 0.10503 0.37479 0.0
H412 H 0.33726 0.99137 0.49126 0.0
H413 H 0.31507 0.97103 0.41441 0.0
H414 H 0.29857 0.99334 0.49945 0.0
H415 H 0.3391 0.0259 0.25227 0.0
H416 H 0.35316 0.99485 0.31394 0.0
H417 H 0.36232 0.02925 0.34622 0.0
H418 H 0.36098 0.96024 0.14058 0.0
C419 C 0.32019 0.97135 0.19876 0.0
C420 C 0.50995 0.30564 0.05406 0.0
C421 C 0.52512 0.32515 0.99519 0.0
C422 C 0.55501 0.32127 0.98424 0.0
C423 C 0.5554 0.28532 0.10263 0.0
C424 C 0.52586 0.28484 0.10521 0.0
C425 C 0.51593 0.25924 0.16422 0.0
H426 H 0.562 0.15647 0.48024 0.0
C427 C 0.5669 0.26589 0.17188 0.0
C428 C 0.54449 0.24853 0.2062 0.0
H429 H 0.47698 0.15957 0.36445 0.0
H430 H 0.49074 0.2025 0.2753 0.0
H431 H 0.6011 0.17174 0.30281 0.0
H432 H 0.56329 0.21683 0.52492 0.0
H433 H 0.58946 0.24123 0.48681 0.0
H434 H 0.60013 0.20633 0.5292 0.0
H435 H 0.61075 0.16892 0.42098 0.0
H436 H 0.62711 0.19552 0.34818 0.0
C437 C 0.5026 0.23657 0.10095 0.0
C438 C 0.49468 0.2694 0.23772 0.0
C439 C 0.65249 0.30403 0.34006 0.0
C440 C 0.66198 0.2976 0.42853 0.0
C441 C 0.65772 0.26955 0.46228 0.0
C442 C 0.64016 0.25011 0.415 0.0
C443 C 0.62583 0.25939 0.33592 0.0
C444 C 0.63345 0.28529 0.29677 0.0
C445 C 0.61527 0.29269 0.21556 0.0
C446 C 0.59353 0.26795 0.21805 0.0
C447 C 0.59955 0.24897 0.28954 0.0
C448 C 0.63496 0.29266 0.12991 0.0
C449 C 0.60069 0.32221 0.23208 0.0
C450 C 0.54643 0.16561 0.43371 0.0
C451 C 0.51876 0.15372 0.4275 0.0
C452 C 0.49873 0.16778 0.36967 0.0
C453 C 0.50677 0.19242 0.31713 0.0
C454 C 0.53508 0.20335 0.32267 0.0
C455 C 0.55399 0.18991 0.38201 0.0
C456 C 0.5821 0.20536 0.38936 0.0
C457 C 0.57868 0.22835 0.31704 0.0
C458 C 0.55093 0.2279 0.2773 0.0
C459 C 0.60672 0.18433 0.36457 0.0
C460 C 0.58409 0.21804 0.48727 0.0
H461 H 0.59233 0.29794 0.0222 0.0
H462 H 0.48674 0.3066 0.05961 0.0
H463 H 0.50453 0.28667 0.2795 0.0
H464 H 0.48857 0.25157 0.28395 0.0
H465 H 0.47475 0.27799 0.20614 0.0
H466 H 0.51778 0.23113 0.04489 0.0
H467 H 0.48242 0.24484 0.07003 0.0
H468 H 0.49758 0.21642 0.13724 0.0
H469 H 0.65595 0.32517 0.31132 0.0
H470 H 0.66541 0.26376 0.52942 0.0
H471 H 0.6367 0.22943 0.44532 0.0
H472 H 0.65824 0.29203 0.14722 0.0
H473 H 0.63216 0.31251 0.0888 0.0
H474 H 0.63075 0.27368 0.08628 0.0
H475 H 0.58555 0.32822 0.17774 0.0
H476 H 0.61682 0.33979 0.23442 0.0
H477 H 0.58853 0.32205 0.29747 0.0
H478 H 0.56717 0.33465 0.9374 0.0
C479 C 0.56991 0.30096 0.03554 0.0
Pr480 Pr 0.0216 0.99827 0.81155 0.0
Pr481 Pr 0.98259 0.0145 0.69921 0.0
C482 C 0.06112 0.97347 0.91914 0.0
C483 C 0.0847 0.95458 0.89053 0.0
C484 C 0.09555 0.9567 0.80114 0.0
C485 C 0.10879 0.93308 0.7604 0.0
C486 C 0.11057 0.90693 0.80796 0.0
C487 C 0.10434 0.90679 0.90227 0.0
C488 C 0.0912 0.93042 0.94298 0.0
C489 C 0.05071 0.01886 0.65405 0.0
C490 C 1.00071 0.94872 0.66476 0.0
C491 C 0.94606 0.03937 0.58085 0.0
C492 C 0.92165 0.05911 0.58755 0.0
C493 C 0.91618 0.07415 0.66847 0.0
C494 C 0.89479 0.09523 0.67094 0.0
C495 C 0.87854 0.10137 0.59266 0.0
C496 C 0.883 0.08487 0.51364 0.0
C497 C 0.90439 0.0639 0.51122 0.0
C498 C 0.95335 0.9961 0.86015 0.0
C499 C 1.00362 0.06408 0.84655 0.0
O500 O 0.03538 0.9627 0.90764 0.0
O501 O 0.06304 1.00005 0.89197 0.0
O502 O 0.02916 1.00211 0.65287 0.0
O503 O 0.05469 0.0281 0.73585 0.0
O504 O 0.99407 0.97211 0.61952 0.0
O505 O 1.00787 0.95198 0.75112 0.0
O506 O 0.97126 0.05011 0.60085 0.0
O507 O 0.94196 0.01379 0.61475 0.0
O508 O 0.97566 0.01175 0.85803 0.0
O509 O 0.94795 0.9868 0.77895 0.0
O510 O 0.0118 0.04104 0.89135 0.0
O511 O 0.99479 0.06044 0.76194 0.0
H512 H 0.0909 0.97533 0.75935 0.0
H513 H 0.11368 0.934 0.68824 0.0
H514 H 0.10539 0.88716 0.94184 0.0
H515 H 0.08311 0.92846 0.01204 0.0
H516 H 0.92922 0.07041 0.7284 0.0
H517 H 0.89192 0.10772 0.73243 0.0
H518 H 0.8714 0.08954 0.45147 0.0
H519 H 0.90831 0.05232 0.44847 0.0
Pr520 Pr 0.51573 0.02442 0.84052 0.0
Pr521 Pr 0.49974 0.98769 0.70837 0.0
C522 C 0.53941 0.05723 0.97113 0.0
C523 C 0.56012 0.08097 0.96962 0.0
C524 C 0.57507 0.0878 0.88916 0.0
C525 C 0.59666 0.10871 0.88981 0.0
C526 C 0.60334 0.12328 0.97072 0.0
C527 C 0.58711 0.11746 0.04982 0.0
C528 C 0.56566 0.09642 0.04921 0.0
C529 C 0.50044 0.0566 0.68272 0.0
C530 C 0.56781 1.0037 0.69789 0.0
C531 C 0.47477 0.96816 0.55648 0.0
C532 C 0.46882 0.98708 0.47838 0.0
C533 C 0.44179 0.98571 0.43677 0.0
C534 C 0.42993 0.01041 0.39772 0.0
C535 C 0.44486 0.03671 0.40115 0.0
C536 C 0.47349 0.03691 0.43003 0.0
C537 C 0.48553 0.01216 0.46802 0.0
C538 C 0.51666 0.95426 0.86112 0.0
C539 C 0.44884 1.00632 0.85629 0.0
O540 O 0.54957 0.03208 0.94811 0.0
O541 O 0.51445 0.06274 0.93474 0.0
O542 O 0.51586 0.03431 0.68492 0.0
O543 O 0.49008 0.06132 0.76324 0.0
O544 O 0.54603 0.99526 0.64788 0.0
O545 O 0.56239 0.01275 0.78146 0.0
O546 O 0.5018 0.96316 0.57463 0.0
O547 O 0.46007 0.97503 0.62899 0.0
O548 O 0.50141 0.97679 0.86476 0.0
O549 O 0.52335 0.9485 0.77733 0.0
O550 O 0.47136 0.01208 0.90697 0.0
O551 O 0.4535 1.00107 0.76906 0.0
H552 H 0.57072 0.07623 0.82674 0.0
H553 H 0.60898 0.11264 0.82823 0.0
H554 H 0.59223 0.12784 0.1137 0.0
H555 H 0.55416 0.09148 0.11167 0.0
H556 H 0.42842 0.96677 0.44465 0.0
H557 H 0.40773 1.00972 0.37599 0.0
H558 H 0.48532 0.0569 0.4321 0.0
H559 H 0.50648 0.01379 0.49964 0.0
Pr560 Pr 0.49111 0.50471 0.81087 0.0
Pr561 Pr 0.5249 0.48756 0.6764 0.0
C562 C 0.47703 0.53504 0.95662 0.0
C563 C 0.50028 0.55344 0.99302 0.0
C564 C 0.50107 0.58232 0.96592 0.0
C565 C 0.52743 0.59585 0.95047 0.0
C566 C 0.55352 0.581 0.96376 0.0
C567 C 0.55255 0.55421 1.00747 0.0
C568 C 0.52616 0.54045 0.02175 0.0
C569 C 0.45349 0.48904 0.66766 0.0
C570 C 0.51232 0.55484 0.66417 0.0
C571 C 0.55587 0.4624 0.54349 0.0
C572 C 0.58028 0.4425 0.54607 0.0
C573 C 0.58976 0.43124 0.62956 0.0
C574 C 0.61206 0.41113 0.63177 0.0
C575 C 0.6253 0.40214 0.55053 0.0
C576 C 0.61638 0.4144 0.46744 0.0
C577 C 0.59408 0.43448 0.46533 0.0
C578 C 0.56007 0.50198 0.82852 0.0
C579 C 0.50184 0.43601 0.81922 0.0
O580 O 0.48134 0.50742 0.9626 0.0
O581 O 0.46801 0.54249 0.87577 0.0
O582 O 0.47704 0.50274 0.65686 0.0
O583 O 0.44973 0.48246 0.75292 0.0
O584 O 0.51464 0.53238 0.61098 0.0
O585 O 0.50883 0.54979 0.75207 0.0
O586 O 0.53131 0.45217 0.57284 0.0
O587 O 0.56124 0.48814 0.57369 0.0
O588 O 0.53735 0.48707 0.82984 0.0
O589 O 0.56389 0.51213 0.74727 0.0
O590 O 0.49271 0.45764 0.8686 0.0
O591 O 0.5124 0.44152 0.7373 0.0
H592 H 0.48152 0.59327 0.94576 0.0
H593 H 0.52726 0.61762 0.9243 0.0
H594 H 0.57213 0.54304 0.02521 0.0
H595 H 0.52643 0.51844 0.04587 0.0
H596 H 0.57939 0.43747 0.69272 0.0
H597 H 0.61829 0.40186 0.69651 0.0
H598 H 0.62552 0.4073 0.40339 0.0
H599 H 0.58705 0.44307 0.40046 0.0
Pr600 Pr 0.99201 0.47761 0.84256 0.0
Pr601 Pr 1.00503 0.51774 0.72567 0.0
C602 C 0.96865 0.44102 0.96479 0.0
C603 C 0.94857 0.41683 0.95846 0.0
C604 C 0.94027 0.40209 0.03735 0.0
C605 C 0.91935 0.38061 0.0329 0.0
C606 C 0.90648 0.37343 0.94921 0.0
C607 C 0.91589 0.38745 0.86952 0.0
C608 C 0.93683 0.409 0.87412 0.0
C609 C 1.00819 0.44911 0.67918 0.0
C610 C 0.93927 0.4974 0.70206 0.0
C611 C 0.02584 0.55566 0.60253 0.0
C612 C 0.04601 0.57993 0.59546 0.0
C613 C 0.03937 0.60299 0.53775 0.0
C614 C 0.05985 0.6243 0.51995 0.0
C615 C 0.08739 0.6227 0.55906 0.0
C616 C 0.09314 0.60071 0.62238 0.0
C617 C 0.07252 0.57958 0.64081 0.0
C618 C 0.98619 0.54452 0.88933 0.0
C619 C 0.05853 0.49663 0.86157 0.0
O620 O 0.9579 0.46635 0.94726 0.0
O621 O 0.99377 0.43703 0.92722 0.0
O622 O 0.99215 0.4711 0.68364 0.0
O623 O 0.01867 0.4436 0.75884 0.0
O624 O 0.96124 0.50652 0.6535 0.0
O625 O 0.94471 0.48872 0.7861 0.0
O626 O 0.03681 0.53012 0.61541 0.0
O627 O 1.00231 0.55998 0.64893 0.0
O628 O 1.00451 0.52444 0.88434 0.0
O629 O 0.97502 0.54887 0.80992 0.0
O630 O 0.0369 0.48687 0.91048 0.0
O631 O 0.05261 0.50658 0.77929 0.0
H632 H 0.94917 0.40793 0.10287 0.0
H633 H 0.912 0.37092 0.09599 0.0
H634 H 0.9062 0.38257 0.80438 0.0
H635 H 0.94319 0.42019 0.8124 0.0
H636 H 0.01884 0.6038 0.50303 0.0
H637 H 0.05479 0.64103 0.47113 0.0
H638 H 0.11428 0.59849 0.65243 0.0
H639 H 0.07785 0.56221 0.68679 0.0
C640 C 0.12621 0.02857 0.55194 0.0
C641 C 0.1238 0.02048 0.4595 0.0
C642 C 0.10254 0.02825 0.61215 0.0
C643 C 0.0749 0.01925 0.58479 0.0
H644 H 0.14682 0.03508 0.57924 0.0
H645 H 0.10622 0.03484 0.68183 0.0
S646 S 0.05596 0.99509 0.35185 0.0
N647 N 0.09057 1.00305 0.34414 0.0
N648 N 0.04654 1.00135 0.45858 0.0
C649 C 0.072 0.01042 0.49344 0.0
C650 C 0.0962 0.0112 0.43097 0.0
C651 C 0.48854 0.1267 0.54609 0.0
C652 C 0.51174 0.12721 0.48374 0.0
C653 C 0.48471 0.10374 0.60888 0.0
C654 C 0.50358 0.07994 0.61137 0.0
H655 H 0.4739 0.14476 0.54904 0.0
H656 H 0.46697 0.10484 0.65679 0.0
S657 S 0.56665 0.06973 0.45832 0.0
N658 N 0.55298 0.10082 0.42591 0.0
N659 N 0.54589 0.05824 0.54233 0.0
C660 C 0.52631 0.07984 0.54734 0.0
C661 C 0.53028 0.10319 0.48407 0.0
C662 C 0.40303 0.51425 0.47476 0.0
C663 C 0.37716 0.49902 0.49121 0.0
C664 C 0.4281 0.50976 0.52796 0.0
C665 C 0.42837 0.49027 0.6019 0.0
H666 H 0.40343 0.53098 0.42334 0.0
H667 H 0.44689 0.52288 0.51411 0.0
S668 S 0.36676 0.44395 0.67128 0.0
N669 N 0.35407 0.46272 0.58465 0.0
N670 N 0.40051 0.45434 0.68438 0.0
C671 C 0.40298 0.47407 0.61647 0.0
C672 C 0.37764 0.47846 0.56163 0.0
C673 C 0.98095 0.4086 0.46826 0.0
C674 C 0.99124 0.38019 0.4799 0.0
C675 C 0.98764 0.43091 0.52989 0.0
C676 C 1.00515 0.42618 0.60669 0.0
H677 H 0.96638 0.41341 0.41284 0.0
H678 H 0.97799 0.4518 0.51907 0.0
S679 S 0.04014 0.35666 0.66481 0.0
N680 N 0.02163 0.34939 0.57182 0.0
N681 N 0.03468 0.39105 0.68616 0.0
C682 C 0.01712 0.39836 0.6161 0.0
C683 C 1.01015 0.37556 0.55325 0.0
C684 C 0.913 0.02209 0.0736 0.0
C685 C 0.88428 0.01274 0.06074 0.0
C686 C 0.9353 0.01535 0.0115 0.0
C687 C 0.93024 0.99883 0.93281 0.0
H688 H 0.91807 0.03598 0.1304 0.0
H689 H 0.95649 0.02429 0.02347 0.0
S690 S 0.85969 0.96658 0.87063 0.0
N691 N 0.85273 0.98427 0.96555 0.0
N692 N 0.89437 0.97125 0.84999 0.0
C693 C 0.90204 0.9878 0.92197 0.0
C694 C 0.87926 0.99475 0.98544 0.0
C695 C 0.54632 0.8945 0.01391 0.0
C696 C 0.52191 0.88308 0.05978 0.0
C697 C 0.54441 0.91769 0.95201 0.0
C698 C 0.51824 0.93177 0.93498 0.0
H699 H 0.56733 0.88502 0.02399 0.0
H700 H 0.56372 0.92452 0.91641 0.0
S701 S 0.44787 0.913 0.03988 0.0
N702 N 0.47035 0.88923 0.08363 0.0
N703 N 0.46741 0.93384 0.97253 0.0
C704 C 0.49389 0.92204 0.98378 0.0
C705 C 0.49558 0.89768 0.04499 0.0
C706 C 0.63246 0.51319 0.95395 0.0
C707 C 0.63152 0.49291 0.02564 0.0
C708 C 0.6093 0.51634 0.89166 0.0
C709 C 0.58388 0.49964 0.89865 0.0
H710 H 0.65173 0.52591 0.94358 0.0
H711 H 0.6115 0.53179 0.83679 0.0
S712 S 0.56974 0.44475 0.07776 0.0
N713 N 0.60235 0.4567 0.10138 0.0
N714 N 0.5591 0.46296 0.98728 0.0
C715 C 0.58234 0.48009 0.97221 0.0
C716 C 0.60598 0.47666 0.0346 0.0
C717 C 1.0093 0.60686 0.04511 0.0
C718 C 0.9829 0.62034 0.06677 0.0
C719 C 1.0104 0.58083 0.99459 0.0
C720 C 0.98514 0.56747 0.96174 0.0
H721 H 0.02932 0.61772 0.06057 0.0
H722 H 0.03124 0.57243 0.97494 0.0
S723 S 0.91059 0.59203 1.00743 0.0
N724 N 0.93091 0.61622 0.0585 0.0
N725 N 0.93302 0.56855 0.96198 0.0
C726 C 0.95873 0.57971 0.98801 0.0
C727 C 0.9576 0.60565 0.04093 0.0
C728 C 0.86619 0.18025 0.56981 0.0
C729 C 0.84292 0.18109 0.50828 0.0
C730 C 0.87548 0.15431 0.60763 0.0
C731 C 0.86178 0.12835 0.58573 0.0
H732 H 0.87983 0.19884 0.57979 0.0
H733 H 0.89556 0.1543 0.645 0.0
S734 S 0.79361 0.12056 0.45878 0.0
N735 N 0.80143 0.15508 0.45025 0.0
N736 N 0.8194 0.10602 0.52061 0.0
C737 C 0.83568 0.1296 0.53799 0.0
C738 C 0.82604 0.15611 0.49981 0.0
C739 C 0.39642 0.09061 0.50569 0.0
C740 C 0.37609 0.09393 0.43586 0.0
C741 C 0.42199 0.07543 0.48978 0.0
C742 C 0.42781 0.06345 0.4037 0.0
H743 H 0.39038 0.09515 0.57551 0.0
H744 H 0.43494 0.06942 0.54799 0.0
S745 S 0.38622 0.07512 0.19283 0.0
N746 N 0.36744 0.09158 0.27288 0.0
N747 N 0.41501 0.06208 0.24402 0.0
C748 C 0.41043 0.07148 0.33035 0.0
C749 C 0.38482 0.08759 0.3461 0.0
C750 C 0.64479 0.32429 0.5628 0.0
C751 C 0.66517 0.32221 0.49186 0.0
C752 C 0.63433 0.35104 0.59063 0.0
C753 C 0.64423 0.37649 0.54931 0.0
H754 H 0.63367 0.30533 0.58752 0.0
H755 H 0.61598 0.35141 0.63635 0.0
S756 S 0.70548 0.38279 0.38844 0.0
N757 N 0.70085 0.34783 0.40148 0.0
N758 N 0.68123 0.39834 0.45432 0.0
C759 C 0.66832 0.37485 0.49142 0.0
C760 C 0.67901 0.34757 0.46323 0.0
C761 C 0.14156 0.64649 0.38457 0.0
C762 C 0.16552 0.65426 0.43798 0.0
C763 C 0.11523 0.63925 0.42441 0.0
C764 C 0.11164 0.6394 0.51938 0.0
H765 H 0.14368 0.6428 0.3121 0.0
H766 H 0.09859 0.63068 0.38065 0.0
S767 S 0.1642 0.66685 0.68745 0.0
N768 N 0.1815 0.6685 0.58905 0.0
N769 N 0.13186 0.65403 0.66442 0.0
C770 C 0.13398 0.65074 0.57275 0.0
C771 C 0.1609 0.65846 0.5319 0.0
C772 C 0.06395 0.8551 0.705 0.0
C773 C 0.06874 0.833 0.7682 0.0
C774 C 0.08329 0.87806 0.69848 0.0
C775 C 0.10716 0.87949 0.75764 0.0
H776 H 0.04311 0.85721 0.6731 0.0
H777 H 0.07617 0.89692 0.66154 0.0
S778 S 0.13615 0.81952 0.89449 0.0
N779 N 0.1043 0.80814 0.86007 0.0
N780 N 0.14074 0.85153 0.84773 0.0
C781 C 0.11603 0.85378 0.79903 0.0
C782 C 0.0964 0.83036 0.80548 0.0
C783 C 0.68258 0.13644 0.98782 0.0
C784 C 0.68384 0.15988 0.04852 0.0
C785 C 0.65633 0.12667 0.95355 0.0
C786 C 0.63038 0.13995 0.97842 0.0
H787 H 0.70127 0.12316 0.97525 0.0
H788 H 0.65619 0.1067 0.91586 0.0
S789 S 0.62288 0.20793 0.10625 0.0
N790 N 0.6577 0.20088 0.10954 0.0
N791 N 0.60802 0.1817 0.04725 0.0
C792 C 0.63171 0.16591 0.02661 0.0
C793 C 0.65857 0.17618 0.06062 0.0
C794 C 0.62449 0.6176 0.99472 0.0
C795 C 0.61766 0.64224 0.94285 0.0
C796 C 0.60503 0.5944 0.9957 0.0
C797 C 0.58126 0.59457 0.93621 0.0
H798 H 0.63916 0.61958 0.05157 0.0
H799 H 0.60627 0.57917 0.05136 0.0
S800 S 0.57327 0.64202 0.7349 0.0
N801 N 0.59891 0.65714 0.79619 0.0
N802 N 0.56407 0.61234 0.78981 0.0
C803 C 0.58246 0.61355 0.86145 0.0
C804 C 0.60159 0.63739 0.86388 0.0
C805 C 0.82754 0.35812 0.93786 0.0
C806 C 0.82443 0.33738 1.00728 0.0
C807 C 0.85484 0.36733 0.90973 0.0
C808 C 0.87984 0.3558 0.94925 0.0
H809 H 0.80913 0.37034 0.91466 0.0
H810 H 0.85614 0.38594 0.86545 0.0
S811 S 0.88294 0.29341 0.10577 0.0
N812 N 0.8482 0.30001 0.0947 0.0
N813 N 0.89975 0.31709 0.04063 0.0
C814 C 0.87691 0.33147 1.00546 0.0
C815 C 0.84907 0.32215 0.03427 0.0
C816 C 0.98129 0.1418 0.90375 0.0
C817 C 0.99544 0.14782 0.98671 0.0
C818 C 0.98485 0.11535 0.85759 0.0
C819 C 1.00229 0.09316 0.89282 0.0
H820 H 0.96672 0.15753 0.87508 0.0
H821 H 0.97295 0.11195 0.79524 0.0
S822 S 0.04466 0.09785 0.10688 0.0
N823 N 0.02828 0.12926 0.10053 0.0
N824 N 0.03466 0.07975 0.01567 0.0
C825 C 0.01703 0.09911 0.97485 0.0
C826 C 0.01374 0.12627 0.02104 0.0
C827 C 0.39013 1.00379 0.04133 0.0
C828 C 0.36453 0.99624 0.99547 0.0
C829 C 0.41656 1.00758 0.99537 0.0
C830 C 0.41925 1.00403 0.90027 0.0
H831 H 0.38989 1.00648 0.11462 0.0
H832 H 0.43526 0.01286 0.03587 0.0
S833 S 0.35862 0.98602 0.7455 0.0
N834 N 0.34346 0.98667 0.84752 0.0
N835 N 0.39301 0.99374 0.7609 0.0
C836 C 0.39364 0.99738 0.85257 0.0
C837 C 0.36645 0.99362 0.89989 0.0
C838 C 0.50083 0.37395 0.99451 0.0
C839 C 0.51187 0.35037 0.94562 0.0
C840 C 0.49632 0.40103 0.95234 0.0
C841 C 0.50277 0.40595 0.8592 0.0
H842 H 0.49745 0.37205 0.0673 0.0
H843 H 0.48903 0.41863 0.99454 0.0
S844 S 0.52953 0.35039 0.69857 0.0
N845 N 0.5269 0.33327 0.79689 0.0
N846 N 0.51875 0.38357 0.71843 0.0
C847 C 0.51229 0.38201 0.80864 0.0
C848 C 0.51671 0.35451 0.85145 0.0
C849 C 0.12201 0.48758 0.02981 0.0
C850 C 0.14545 0.50128 0.98625 0.0
C851 C 0.09446 0.48577 0.98861 0.0
C852 C 0.0888 0.49734 0.9011 0.0
H853 H 0.12461 0.47918 0.09815 0.0
H854 H 0.07726 0.47562 0.0269 0.0
S855 S 0.14341 0.53327 0.75398 0.0
N856 N 0.1613 0.52519 0.84759 0.0
N857 N 0.11027 0.52145 0.77047 0.0
C858 C 0.11242 0.51008 0.85541 0.0
C859 C 0.14037 0.51214 0.89771 0.0
C860 C 0.01412 0.89374 0.47439 0.0
C861 C 1.00066 0.86791 0.50377 0.0
C862 C 0.0143 0.91905 0.52736 0.0
C863 C 1.00214 0.92013 0.61524 0.0
H864 H 0.02455 0.89481 0.40847 0.0
H865 H 0.02417 0.93815 0.49868 0.0
S866 S 0.96681 0.8586 0.73236 0.0
N867 N 0.97588 0.8454 0.63191 0.0
N868 N 0.97804 0.89231 0.73288 0.0
C869 C 0.99019 0.89424 0.64888 0.0
C870 C 0.98911 0.86845 0.59338 0.0
C871 C 0.63091 0.99357 0.52902 0.0
C872 C 0.65317 0.01059 0.56535 0.0
C873 C 0.60387 0.99089 0.57334 0.0
C874 C 0.59778 1.00481 0.65687 0.0
H875 H 0.63389 0.98336 0.4635 0.0
H876 H 0.58733 0.97825 0.54048 0.0
S877 S 0.64937 0.05074 0.78344 0.0
N878 N 0.66751 0.04077 0.69196 0.0
N879 N 0.61742 0.03539 0.77533 0.0
C880 C 0.62033 0.02097 0.69554 0.0
C881 C 0.6477 0.02395 0.64991 0.0
C882 C 0.52292 0.61549 0.4891 0.0
C883 C 0.50984 0.63996 0.52821 0.0
C884 C 0.52441 0.58884 0.53485 0.0
C885 C 0.51317 0.58489 0.62334 0.0
H886 H 0.53103 0.61657 0.41988 0.0
H887 H 0.53388 0.57088 0.49896 0.0
S888 S 0.47906 0.64245 0.76158 0.0
N889 N 0.48701 0.65871 0.6644 0.0
N890 N 0.49022 0.60891 0.75123 0.0
C891 C 0.5015 0.60956 0.6659 0.0
C892 C 0.49977 0.6369 0.61847 0.0
C893 C 0.87788 0.49852 0.52393 0.0
C894 C 0.85423 0.48607 0.56989 0.0
C895 C 0.90474 0.50296 0.56775 0.0
C896 C 0.90947 0.49512 0.65989 0.0
H897 H 0.87619 0.50332 0.45193 0.0
H898 H 0.92231 0.5117 0.52765 0.0
S899 S 0.85382 0.46387 0.81351 0.0
N900 N 0.83698 0.46785 0.7154 0.0
N901 N 0.88688 0.47586 0.79654 0.0
C902 C 0.88553 0.48392 0.70765 0.0
C903 C 0.85822 0.47952 0.6632 0.0
loop_
_geom_bond_atom_site_label_1
_geom_bond_atom_site_label_2
_geom_bond_distance
_geom_bond_site_symmetry_2
_ccdc_geom_bond_type
C0 C1 1.391 . S
C0 C4 1.391 . S
C0 H42 0.948 . S
C1 C0 1.391 . S
C1 C2 1.391 . S
C2 C1 1.391 . S
C2 H58 0.947 . S
C2 C59 1.392 . S
C3 C4 1.391 . S
C3 C7 1.397 . S
C3 C59 1.419 . S
C4 C0 1.391 . S
C4 C3 1.391 . S
C4 C5 1.399 . S
C5 C4 1.399 . S
C5 C8 1.396 . S
C5 C17 1.453 . S
C5 C18 1.684 . S
H6 C30 0.948 . S
C7 C3 1.397 . S
C7 C8 1.394 . S
C7 C26 1.723 . S
C8 C5 1.396 . S
C8 C7 1.394 . S
C8 C38 1.723 . S
H9 C32 0.947 . S
H10 C33 0.948 . S
H11 C39 0.982 . S
H12 C40 0.979 . S
H13 C40 0.980 . S
H14 C40 0.983 . S
H15 C39 0.979 . S
H16 C39 0.977 . S
C17 C5 1.453 . S
C17 H46 0.982 . S
C17 H47 0.979 . S
C17 H48 0.977 . S
C18 C5 1.684 . S
C18 H43 0.979 . S
C18 H44 0.980 . S
C18 H45 0.983 . S
C19 C20 1.391 . S
C19 C24 1.391 . S
C19 H49 0.948 . S
C20 C19 1.391 . S
C20 C21 1.391 . S
C21 C20 1.391 . S
C21 C22 1.392 . S
C21 H50 0.947 . S
C22 C21 1.392 . S
C22 C23 1.419 . S
C22 H51 0.948 . S
C23 C22 1.419 . S
C23 C24 1.391 . S
C23 C27 1.397 . S
C24 C19 1.391 . S
C24 C23 1.391 . S
C24 C25 1.399 . S
C25 C24 1.399 . S
C25 C26 1.396 . S
C25 C28 1.453 . S
C25 C29 1.684 . S
C26 C7 1.723 . S
C26 C25 1.396 . S
C26 C27 1.394 . S
C27 C23 1.397 . S
C27 C26 1.394 . S
C27 C37 1.723 . S
C28 C25 1.453 . S
C28 H52 0.982 . S
C28 H53 0.979 . S
C28 H54 0.977 . S
C29 C25 1.684 . S
C29 H55 0.979 . S
C29 H56 0.980 . S
C29 H57 0.983 . S
C30 H6 0.948 . S
C30 C31 1.391 . S
C30 C35 1.391 . S
C31 C30 1.391 . S
C31 C32 1.391 . S
C32 H9 0.947 . S
C32 C31 1.391 . S
C32 C33 1.392 . S
C33 H10 0.948 . S
C33 C32 1.392 . S
C33 C34 1.419 . S
C34 C33 1.419 . S
C34 C35 1.391 . S
C34 C38 1.397 . S
C35 C30 1.391 . S
C35 C34 1.391 . S
C35 C36 1.399 . S
C36 C35 1.399 . S
C36 C37 1.396 . S
C36 C39 1.453 . S
C36 C40 1.684 . S
C37 C27 1.723 . S
C37 C36 1.396 . S
C37 C38 1.394 . S
C38 C8 1.723 . S
C38 C34 1.397 . S
C38 C37 1.394 . S
C39 H11 0.982 . S
C39 H15 0.979 . S
C39 H16 0.977 . S
C39 C36 1.453 . S
C40 H12 0.979 . S
C40 H13 0.980 . S
C40 H14 0.983 . S
C40 C36 1.684 . S
H41 C59 0.948 . S
H42 C0 0.948 . S
H43 C18 0.979 . S
H44 C18 0.980 . S
H45 C18 0.983 . S
H46 C17 0.982 . S
H47 C17 0.979 . S
H48 C17 0.977 . S
H49 C19 0.948 . S
H50 C21 0.947 . S
H51 C22 0.948 . S
H52 C28 0.982 . S
H53 C28 0.979 . S
H54 C28 0.977 . S
H55 C29 0.979 . S
H56 C29 0.980 . S
H57 C29 0.983 . S
H58 C2 0.947 . S
C59 C2 1.392 . S
C59 C3 1.419 . S
C59 H41 0.948 . S
C60 C61 1.391 . S
C60 C64 1.391 . S
C60 H102 0.948 . S
C61 C60 1.391 . S
C61 C62 1.391 . S
C62 C61 1.391 . S
C62 H118 0.947 . S
C62 C119 1.392 . S
C63 C64 1.391 . S
C63 C67 1.397 1_655 S
C63 C119 1.419 . S
C64 C60 1.391 . S
C64 C63 1.391 . S
C64 C65 1.399 . S
C65 C64 1.399 . S
C65 C68 1.396 1_655 S
C65 C77 1.453 1_655 S
C65 C78 1.684 . S
H66 C90 0.948 . S
C67 C63 1.397 1_455 S
C67 C68 1.394 . S
C67 C86 1.723 . S
C68 C65 1.396 1_455 S
C68 C67 1.394 . S
C68 C98 1.723 . S
H69 C92 0.947 . S
H70 C93 0.948 . S
H71 C99 0.982 . S
H72 C100 0.979 . S
H73 C100 0.980 . S
H74 C100 0.983 . S
H75 C99 0.979 . S
H76 C99 0.977 . S
C77 C65 1.453 1_455 S
C77 H106 0.982 . S
C77 H107 0.979 . S
C77 H108 0.977 . S
C78 C65 1.684 . S
C78 H103 0.979 . S
C78 H104 0.980 . S
C78 H105 0.983 . S
C79 C80 1.391 . S
C79 C84 1.391 . S
C79 H109 0.948 . S
C80 C79 1.391 . S
C80 C81 1.391 . S
C81 C80 1.391 . S
C81 C82 1.392 . S
C81 H110 0.947 . S
C82 C81 1.392 . S
C82 C83 1.419 . S
C82 H111 0.948 . S
C83 C82 1.419 . S
C83 C84 1.391 . S
C83 C87 1.397 1_655 S
C84 C79 1.391 . S
C84 C83 1.391 . S
C84 C85 1.399 . S
C85 C84 1.399 . S
C85 C86 1.396 1_655 S
C85 C88 1.453 1_655 S
C85 C89 1.684 . S
C86 C67 1.723 . S
C86 C85 1.396 1_455 S
C86 C87 1.394 . S
C87 C83 1.397 1_455 S
C87 C86 1.394 . S
C87 C97 1.723 . S
C88 C85 1.453 1_455 S
C88 H112 0.982 . S
C88 H113 0.979 . S
C88 H114 0.977 . S
C89 C85 1.684 . S
C89 H115 0.979 . S
C89 H116 0.980 . S
C89 H117 0.983 . S
C90 H66 0.948 . S
C90 C91 1.391 . S
C90 C95 1.391 . S
C91 C90 1.391 . S
C91 C92 1.391 . S
C92 H69 0.947 . S
C92 C91 1.391 . S
C92 C93 1.392 . S
C93 H70 0.948 . S
C93 C92 1.392 . S
C93 C94 1.419 . S
C94 C93 1.419 . S
C94 C95 1.391 . S
C94 C98 1.397 1_655 S
C95 C90 1.391 . S
C95 C94 1.391 . S
C95 C96 1.399 . S
C96 C95 1.399 . S
C96 C97 1.396 1_655 S
C96 C99 1.453 1_655 S
C96 C100 1.684 . S
C97 C87 1.723 . S
C97 C96 1.396 1_455 S
C97 C98 1.394 . S
C98 C68 1.723 . S
C98 C94 1.397 1_455 S
C98 C97 1.394 . S
C99 H71 0.982 . S
C99 H75 0.979 . S
C99 H76 0.977 . S
C99 C96 1.453 1_455 S
C100 H72 0.979 . S
C100 H73 0.980 . S
C100 H74 0.983 . S
C100 C96 1.684 . S
H101 C119 0.948 . S
H102 C60 0.948 . S
H103 C78 0.979 . S
H104 C78 0.980 . S
H105 C78 0.983 . S
H106 C77 0.982 . S
H107 C77 0.979 . S
H108 C77 0.977 . S
H109 C79 0.948 . S
H110 C81 0.947 . S
H111 C82 0.948 . S
H112 C88 0.982 . S
H113 C88 0.979 . S
H114 C88 0.977 . S
H115 C89 0.979 . S
H116 C89 0.980 . S
H117 C89 0.983 . S
H118 C62 0.947 . S
C119 C62 1.392 . S
C119 C63 1.419 . S
C119 H101 0.948 . S
C120 C121 1.391 . S
C120 C124 1.391 . S
C120 H162 0.948 . S
C121 C120 1.391 . S
C121 C122 1.391 . S
C122 C121 1.391 . S
C122 H178 0.947 . S
C122 C179 1.392 . S
C123 C124 1.391 . S
C123 C127 1.397 1_565 S
C123 C179 1.419 . S
C124 C120 1.391 . S
C124 C123 1.391 . S
C124 C125 1.399 . S
C125 C124 1.399 . S
C125 C128 1.396 1_565 S
C125 C137 1.453 1_565 S
C125 C138 1.684 . S
H126 C150 0.948 . S
C127 C123 1.397 1_545 S
C127 C128 1.394 . S
C127 C146 1.723 . S
C128 C125 1.396 1_545 S
C128 C127 1.394 . S
C128 C158 1.723 . S
H129 C152 0.947 . S
H130 C153 0.948 . S
H131 C159 0.982 . S
H132 C160 0.979 . S
H133 C160 0.980 . S
H134 C160 0.983 . S
H135 C159 0.979 . S
H136 C159 0.977 . S
C137 C125 1.453 1_545 S
C137 H166 0.982 . S
C137 H167 0.979 . S
C137 H168 0.977 . S
C138 C125 1.684 . S
C138 H163 0.979 . S
C138 H164 0.980 . S
C138 H165 0.983 . S
C139 C140 1.391 . S
C139 C144 1.391 . S
C139 H169 0.948 . S
C140 C139 1.391 . S
C140 C141 1.391 . S
C141 C140 1.391 . S
C141 C142 1.392 . S
C141 H170 0.947 . S
C142 C141 1.392 . S
C142 C143 1.419 . S
C142 H171 0.948 . S
C143 C142 1.419 . S
C143 C144 1.391 . S
C143 C147 1.397 1_565 S
C144 C139 1.391 . S
C144 C143 1.391 . S
C144 C145 1.399 . S
C145 C144 1.399 . S
C145 C146 1.396 1_565 S
C145 C148 1.453 1_565 S
C145 C149 1.684 . S
C146 C127 1.723 . S
C146 C145 1.396 1_545 S
C146 C147 1.394 . S
C147 C143 1.397 1_545 S
C147 C146 1.394 . S
C147 C157 1.723 . S
C148 C145 1.453 1_545 S
C148 H172 0.982 . S
C148 H173 0.979 . S
C148 H174 0.977 . S
C149 C145 1.684 . S
C149 H175 0.979 . S
C149 H176 0.980 . S
C149 H177 0.983 . S
C150 H126 0.948 . S
C150 C151 1.391 . S
C150 C155 1.391 . S
C151 C150 1.391 . S
C151 C152 1.391 . S
C152 H129 0.947 . S
C152 C151 1.391 . S
C152 C153 1.392 . S
C153 H130 0.948 . S
C153 C152 1.392 . S
C153 C154 1.419 . S
C154 C153 1.419 . S
C154 C155 1.391 . S
C154 C158 1.397 1_565 S
C155 C150 1.391 . S
C155 C154 1.391 . S
C155 C156 1.399 . S
C156 C155 1.399 . S
C156 C157 1.396 1_565 S
C156 C159 1.453 1_565 S
C156 C160 1.684 . S
C157 C147 1.723 . S
C157 C156 1.396 1_545 S
C157 C158 1.394 . S
C158 C128 1.723 . S
C158 C154 1.397 1_545 S
C158 C157 1.394 . S
C159 H131 0.982 . S
C159 H135 0.979 . S
C159 H136 0.977 . S
C159 C156 1.453 1_545 S
C160 H132 0.979 . S
C160 H133 0.980 . S
C160 H134 0.983 . S
C160 C156 1.684 . S
H161 C179 0.948 . S
H162 C120 0.948 . S
H163 C138 0.979 . S
H164 C138 0.980 . S
H165 C138 0.983 . S
H166 C137 0.982 . S
H167 C137 0.979 . S
H168 C137 0.977 . S
H169 C139 0.948 . S
H170 C141 0.947 . S
H171 C142 0.948 . S
H172 C148 0.982 . S
H173 C148 0.979 . S
H174 C148 0.977 . S
H175 C149 0.979 . S
H176 C149 0.980 . S
H177 C149 0.983 . S
H178 C122 0.947 . S
C179 C122 1.392 . S
C179 C123 1.419 . S
C179 H161 0.948 . S
C180 C181 1.391 . S
C180 C184 1.391 . S
C180 H222 0.948 . S
C181 C180 1.391 . S
C181 C182 1.391 . S
C182 C181 1.391 . S
C182 H238 0.947 . S
C182 C239 1.392 . S
C183 C184 1.391 . S
C183 C187 1.397 . S
C183 C239 1.419 . S
C184 C180 1.391 . S
C184 C183 1.391 . S
C184 C185 1.399 . S
C185 C184 1.399 . S
C185 C188 1.396 . S
C185 C197 1.453 . S
C185 C198 1.684 . S
H186 C210 0.948 . S
C187 C183 1.397 . S
C187 C188 1.394 . S
C187 C206 1.723 . S
C188 C185 1.396 . S
C188 C187 1.394 . S
C188 C218 1.723 . S
H189 C212 0.947 . S
H190 C213 0.948 . S
H191 C219 0.982 . S
H192 C220 0.979 . S
H193 C220 0.980 . S
H194 C220 0.983 . S
H195 C219 0.979 . S
H196 C219 0.977 . S
C197 C185 1.453 . S
C197 H226 0.982 . S
C197 H227 0.979 . S
C197 H228 0.977 . S
C198 C185 1.684 . S
C198 H223 0.979 . S
C198 H224 0.980 . S
C198 H225 0.983 . S
C199 C200 1.391 . S
C199 C204 1.391 . S
C199 H229 0.948 . S
C200 C199 1.391 . S
C200 C201 1.391 . S
C201 C200 1.391 . S
C201 C202 1.392 . S
C201 H230 0.947 . S
C202 C201 1.392 . S
C202 C203 1.419 . S
C202 H231 0.948 . S
C203 C202 1.419 . S
C203 C204 1.391 . S
C203 C207 1.397 . S
C204 C199 1.391 . S
C204 C203 1.391 . S
C204 C205 1.399 . S
C205 C204 1.399 . S
C205 C206 1.396 . S
C205 C208 1.453 . S
C205 C209 1.684 . S
C206 C187 1.723 . S
C206 C205 1.396 . S
C206 C207 1.394 . S
C207 C203 1.397 . S
C207 C206 1.394 . S
C207 C217 1.723 . S
C208 C205 1.453 . S
C208 H232 0.982 . S
C208 H233 0.979 . S
C208 H234 0.977 . S
C209 C205 1.684 . S
C209 H235 0.979 . S
C209 H236 0.980 . S
C209 H237 0.983 . S
C210 H186 0.948 . S
C210 C211 1.391 . S
C210 C215 1.391 . S
C211 C210 1.391 . S
C211 C212 1.391 . S
C212 H189 0.947 . S
C212 C211 1.391 . S
C212 C213 1.392 . S
C213 H190 0.948 . S
C213 C212 1.392 . S
C213 C214 1.419 . S
C214 C213 1.419 . S
C214 C215 1.391 . S
C214 C218 1.397 . S
C215 C210 1.391 . S
C215 C214 1.391 . S
C215 C216 1.399 . S
C216 C215 1.399 . S
C216 C217 1.396 . S
C216 C219 1.453 . S
C216 C220 1.684 . S
C217 C207 1.723 . S
C217 C216 1.396 . S
C217 C218 1.394 . S
C218 C188 1.723 . S
C218 C214 1.397 . S
C218 C217 1.394 . S
C219 H191 0.982 . S
C219 H195 0.979 . S
C219 H196 0.977 . S
C219 C216 1.453 . S
C220 H192 0.979 . S
C220 H193 0.980 . S
C220 H194 0.983 . S
C220 C216 1.684 . S
H221 C239 0.948 . S
H222 C180 0.948 . S
H223 C198 0.979 . S
H224 C198 0.980 . S
H225 C198 0.983 . S
H226 C197 0.982 . S
H227 C197 0.979 . S
H228 C197 0.977 . S
H229 C199 0.948 . S
H230 C201 0.947 . S
H231 C202 0.948 . S
H232 C208 0.982 . S
H233 C208 0.979 . S
H234 C208 0.977 . S
H235 C209 0.979 . S
H236 C209 0.980 . S
H237 C209 0.983 . S
H238 C182 0.947 . S
C239 C182 1.392 . S
C239 C183 1.419 . S
C239 H221 0.948 . S
C240 C241 1.391 . S
C240 C244 1.391 . S
C240 H282 0.948 . S
C241 C240 1.391 . S
C241 C242 1.391 . S
C242 C241 1.391 . S
C242 H298 0.947 . S
C242 C299 1.392 . S
C243 C244 1.391 . S
C243 C247 1.397 . S
C243 C299 1.419 . S
C244 C240 1.391 . S
C244 C243 1.391 . S
C244 C245 1.399 1_554 S
C245 C244 1.399 1_556 S
C245 C248 1.396 . S
C245 C257 1.453 . S
C245 C258 1.684 . S
H246 C270 0.948 . S
C247 C243 1.397 . S
C247 C248 1.394 1_554 S
C247 C266 1.723 . S
C248 C245 1.396 . S
C248 C247 1.394 1_556 S
C248 C278 1.723 . S
H249 C272 0.947 . S
H250 C273 0.948 . S
H251 C279 0.982 . S
H252 C280 0.979 . S
H253 C280 0.980 1_554 S
H254 C280 0.983 . S
H255 C279 0.979 . S
H256 C279 0.977 1_554 S
C257 C245 1.453 . S
C257 H286 0.982 . S
C257 H287 0.979 . S
C257 H288 0.977 . S
C258 C245 1.684 . S
C258 H283 0.979 . S
C258 H284 0.980 . S
C258 H285 0.983 . S
C259 C260 1.391 . S
C259 C264 1.391 . S
C259 H289 0.948 . S
C260 C259 1.391 . S
C260 C261 1.391 . S
C261 C260 1.391 . S
C261 C262 1.392 . S
C261 H290 0.947 . S
C262 C261 1.392 . S
C262 C263 1.419 . S
C262 H291 0.948 . S
C263 C262 1.419 . S
C263 C264 1.391 . S
C263 C267 1.397 . S
C264 C259 1.391 . S
C264 C263 1.391 . S
C264 C265 1.399 . S
C265 C264 1.399 . S
C265 C266 1.396 . S
C265 C268 1.453 . S
C265 C269 1.684 . S
C266 C247 1.723 . S
C266 C265 1.396 . S
C266 C267 1.394 . S
C267 C263 1.397 . S
C267 C266 1.394 . S
C267 C277 1.723 1_554 S
C268 C265 1.453 . S
C268 H292 0.982 . S
C268 H293 0.979 . S
C268 H294 0.977 . S
C269 C265 1.684 . S
C269 H295 0.979 . S
C269 H296 0.980 . S
C269 H297 0.983 . S
C270 H246 0.948 . S
C270 C271 1.391 . S
C270 C275 1.391 . S
C271 C270 1.391 . S
C271 C272 1.391 . S
C272 H249 0.947 . S
C272 C271 1.391 . S
C272 C273 1.392 . S
C273 H250 0.948 . S
C273 C272 1.392 . S
C273 C274 1.419 . S
C274 C273 1.419 . S
C274 C275 1.391 . S
C274 C278 1.397 . S
C275 C270 1.391 . S
C275 C274 1.391 . S
C275 C276 1.399 . S
C276 C275 1.399 . S
C276 C277 1.396 . S
C276 C279 1.453 . S
C276 C280 1.684 . S
C277 C267 1.723 1_556 S
C277 C276 1.396 . S
C277 C278 1.394 . S
C278 C248 1.723 . S
C278 C274 1.397 . S
C278 C277 1.394 . S
C279 H251 0.982 . S
C279 H255 0.979 . S
C279 H256 0.977 1_556 S
C279 C276 1.453 . S
C280 H252 0.979 . S
C280 H253 0.980 1_556 S
C280 H254 0.983 . S
C280 C276 1.684 . S
H281 C299 0.948 . S
H282 C240 0.948 . S
H283 C258 0.979 . S
H284 C258 0.980 . S
H285 C258 0.983 . S
H286 C257 0.982 . S
H287 C257 0.979 . S
H288 C257 0.977 . S
H289 C259 0.948 . S
H290 C261 0.947 . S
H291 C262 0.948 . S
H292 C268 0.982 . S
H293 C268 0.979 . S
H294 C268 0.977 . S
H295 C269 0.979 . S
H296 C269 0.980 . S
H297 C269 0.983 . S
H298 C242 0.947 . S
C299 C242 1.392 . S
C299 C243 1.419 . S
C299 H281 0.948 . S
C300 C301 1.391 . S
C300 C304 1.391 . S
C300 H342 0.948 . S
C301 C300 1.391 . S
C301 C302 1.391 . S
C302 C301 1.391 . S
C302 H358 0.947 . S
C302 C359 1.392 . S
C303 C304 1.391 . S
C303 C307 1.396 1_655 S
C303 C359 1.419 . S
C304 C300 1.391 . S
C304 C303 1.391 . S
C304 C305 1.399 . S
C305 C304 1.399 . S
C305 C308 1.396 1_655 S
C305 C317 1.453 1_655 S
C305 C318 1.684 . S
H306 C330 0.948 . S
C307 C303 1.396 1_455 S
C307 C308 1.395 . S
C307 C326 1.711 1_554 S
C308 C305 1.396 1_455 S
C308 C307 1.395 . S
C308 C338 1.723 . S
H309 C332 0.947 . S
H310 C333 0.948 . S
H311 C339 0.982 . S
H312 C340 0.979 . S
H313 C340 0.980 . S
H314 C340 0.983 . S
H315 C339 0.979 . S
H316 C339 0.977 . S
C317 C305 1.453 1_455 S
C317 H346 0.982 . S
C317 H347 0.979 . S
C317 H348 0.977 . S
C318 C305 1.684 . S
C318 H343 0.979 . S
C318 H344 0.980 . S
C318 H345 0.983 . S
C319 C320 1.391 . S
C319 C324 1.391 . S
C319 H349 0.948 . S
C320 C319 1.391 . S
C320 C321 1.391 . S
C321 C320 1.391 . S
C321 C322 1.392 . S
C321 H350 0.947 . S
C322 C321 1.392 . S
C322 C323 1.419 . S
C322 H351 0.948 . S
C323 C322 1.419 . S
C323 C324 1.391 . S
C323 C327 1.396 1_655 S
C324 C319 1.391 . S
C324 C323 1.391 . S
C324 C325 1.399 . S
C325 C324 1.399 . S
C325 C326 1.405 1_655 S
C325 C328 1.453 1_655 S
C325 C329 1.684 . S
C326 C307 1.711 1_556 S
C326 C325 1.405 1_455 S
C326 C327 1.401 . S
C327 C323 1.396 1_455 S
C327 C326 1.401 . S
C327 C337 1.723 . S
C328 C325 1.453 1_455 S
C328 H352 0.982 . S
C328 H353 0.979 . S
C328 H354 0.977 1_556 S
C329 C325 1.684 . S
C329 H355 0.979 . S
C329 H356 0.980 1_556 S
C329 H357 0.983 . S
C330 H306 0.948 . S
C330 C331 1.391 . S
C330 C335 1.391 . S
C331 C330 1.391 . S
C331 C332 1.391 . S
C332 H309 0.947 . S
C332 C331 1.391 . S
C332 C333 1.392 . S
C333 H310 0.948 . S
C333 C332 1.392 . S
C333 C334 1.419 . S
C334 C333 1.419 . S
C334 C335 1.391 . S
C334 C338 1.396 1_655 S
C335 C330 1.391 . S
C335 C334 1.391 . S
C335 C336 1.399 1_554 S
C336 C335 1.399 1_556 S
C336 C337 1.396 1_655 S
C336 C339 1.453 1_655 S
C336 C340 1.684 . S
C337 C327 1.723 . S
C337 C336 1.396 1_455 S
C337 C338 1.395 1_556 S
C338 C308 1.723 . S
C338 C334 1.396 1_455 S
C338 C337 1.395 1_554 S
C339 H311 0.982 . S
C339 H315 0.979 . S
C339 H316 0.977 . S
C339 C336 1.453 1_455 S
C340 H312 0.979 . S
C340 H313 0.980 . S
C340 H314 0.983 . S
C340 C336 1.684 . S
H341 C359 0.948 . S
H342 C300 0.948 . S
H343 C318 0.979 . S
H344 C318 0.980 . S
H345 C318 0.983 . S
H346 C317 0.982 . S
H347 C317 0.979 . S
H348 C317 0.977 . S
H349 C319 0.948 . S
H350 C321 0.947 . S
H351 C322 0.948 . S
H352 C328 0.982 . S
H353 C328 0.979 . S
H354 C328 0.977 1_554 S
H355 C329 0.979 . S
H356 C329 0.980 1_554 S
H357 C329 0.983 . S
H358 C302 0.947 . S
C359 C302 1.392 . S
C359 C303 1.419 . S
C359 H341 0.948 . S
C360 C361 1.391 . S
C360 C364 1.391 . S
C360 H402 0.948 . S
C361 C360 1.391 . S
C361 C362 1.391 . S
C362 C361 1.391 . S
C362 H418 0.947 . S
C362 C419 1.392 . S
C363 C364 1.391 . S
C363 C367 1.397 1_545 S
C363 C419 1.419 . S
C364 C360 1.391 . S
C364 C363 1.391 . S
C364 C365 1.399 . S
C365 C364 1.399 . S
C365 C368 1.396 1_545 S
C365 C377 1.453 1_545 S
C365 C378 1.684 . S
H366 C390 0.948 . S
C367 C363 1.397 1_565 S
C367 C368 1.394 . S
C367 C386 1.723 1_556 S
C368 C365 1.396 1_565 S
C368 C367 1.394 . S
C368 C398 1.723 1_556 S
H369 C392 0.947 1_556 S
H370 C393 0.948 . S
H371 C399 0.982 . S
H372 C400 0.979 . S
H373 C400 0.980 . S
H374 C400 0.983 . S
H375 C399 0.979 . S
H376 C399 0.977 . S
C377 C365 1.453 1_565 S
C377 H406 0.982 . S
C377 H407 0.979 . S
C377 H408 0.977 . S
C378 C365 1.684 . S
C378 H403 0.979 . S
C378 H404 0.980 . S
C378 H405 0.983 . S
C379 C380 1.391 . S
C379 C384 1.391 . S
C379 H409 0.948 . S
C380 C379 1.391 . S
C380 C381 1.391 . S
C381 C380 1.391 . S
C381 C382 1.392 . S
C381 H410 0.947 . S
C382 C381 1.392 . S
C382 C383 1.419 . S
C382 H411 0.948 . S
C383 C382 1.419 . S
C383 C384 1.391 . S
C383 C387 1.397 1_545 S
C384 C379 1.391 . S
C384 C383 1.391 . S
C384 C385 1.399 . S
C385 C384 1.399 . S
C385 C386 1.396 1_545 S
C385 C388 1.453 1_545 S
C385 C389 1.684 . S
C386 C367 1.723 1_554 S
C386 C385 1.396 1_565 S
C386 C387 1.394 . S
C387 C383 1.397 1_565 S
C387 C386 1.394 . S
C387 C397 1.723 . S
C388 C385 1.453 1_565 S
C388 H412 0.982 . S
C388 H413 0.979 . S
C388 H414 0.977 1_554 S
C389 C385 1.684 . S
C389 H415 0.979 . S
C389 H416 0.980 1_554 S
C389 H417 0.983 . S
C390 H366 0.948 . S
C390 C391 1.391 . S
C390 C395 1.391 . S
C391 C390 1.391 . S
C391 C392 1.391 . S
C392 H369 0.947 1_554 S
C392 C391 1.391 . S
C392 C393 1.392 1_554 S
C393 H370 0.948 . S
C393 C392 1.392 1_556 S
C393 C394 1.419 1_556 S
C394 C393 1.419 1_554 S
C394 C395 1.391 . S
C394 C398 1.397 1_545 S
C395 C390 1.391 . S
C395 C394 1.391 . S
C395 C396 1.399 . S
C396 C395 1.399 . S
C396 C397 1.396 1_545 S
C396 C399 1.453 1_545 S
C396 C400 1.684 . S
C397 C387 1.723 . S
C397 C396 1.396 1_565 S
C397 C398 1.394 . S
C398 C368 1.723 1_554 S
C398 C394 1.397 1_565 S
C398 C397 1.394 . S
C399 H371 0.982 . S
C399 H375 0.979 . S
C399 H376 0.977 . S
C399 C396 1.453 1_565 S
C400 H372 0.979 . S
C400 H373 0.980 . S
C400 H374 0.983 . S
C400 C396 1.684 . S
H401 C419 0.948 . S
H402 C360 0.948 . S
H403 C378 0.979 . S
H404 C378 0.980 . S
H405 C378 0.983 . S
H406 C377 0.982 . S
H407 C377 0.979 . S
H408 C377 0.977 . S
H409 C379 0.948 . S
H410 C381 0.947 . S
H411 C382 0.948 . S
H412 C388 0.982 . S
H413 C388 0.979 . S
H414 C388 0.977 1_556 S
H415 C389 0.979 . S
H416 C389 0.980 1_556 S
H417 C389 0.983 . S
H418 C362 0.947 . S
C419 C362 1.392 . S
C419 C363 1.419 . S
C419 H401 0.948 . S
C420 C421 1.391 . S
C420 C424 1.391 . S
C420 H462 0.948 . S
C421 C420 1.391 . S
C421 C422 1.391 . S
C422 C421 1.391 . S
C422 H478 0.947 . S
C422 C479 1.392 . S
C423 C424 1.391 . S
C423 C427 1.397 . S
C423 C479 1.419 . S
C424 C420 1.391 . S
C424 C423 1.391 . S
C424 C425 1.399 . S
C425 C424 1.399 . S
C425 C428 1.396 . S
C425 C437 1.453 . S
C425 C438 1.684 . S
H426 C450 0.948 . S
C427 C423 1.397 . S
C427 C428 1.394 . S
C427 C446 1.723 1_556 S
C428 C425 1.396 . S
C428 C427 1.394 . S
C428 C458 1.723 1_556 S
H429 C452 0.947 1_556 S
H430 C453 0.948 . S
H431 C459 0.982 . S
H432 C460 0.979 . S
H433 C460 0.980 . S
H434 C460 0.983 . S
H435 C459 0.979 . S
H436 C459 0.977 . S
C437 C425 1.453 . S
C437 H466 0.982 . S
C437 H467 0.979 . S
C437 H468 0.977 . S
C438 C425 1.684 . S
C438 H463 0.979 . S
C438 H464 0.980 . S
C438 H465 0.983 . S
C439 C440 1.391 . S
C439 C444 1.391 . S
C439 H469 0.948 . S
C440 C439 1.391 . S
C440 C441 1.391 . S
C441 C440 1.391 . S
C441 C442 1.392 . S
C441 H470 0.947 . S
C442 C441 1.392 . S
C442 C443 1.419 . S
C442 H471 0.948 . S
C443 C442 1.419 . S
C443 C444 1.391 . S
C443 C447 1.397 . S
C444 C439 1.391 . S
C444 C443 1.391 . S
C444 C445 1.399 . S
C445 C444 1.399 . S
C445 C446 1.396 . S
C445 C448 1.453 . S
C445 C449 1.684 . S
C446 C427 1.723 1_554 S
C446 C445 1.396 . S
C446 C447 1.394 . S
C447 C443 1.397 . S
C447 C446 1.394 . S
C447 C457 1.723 . S
C448 C445 1.453 . S
C448 H472 0.982 . S
C448 H473 0.979 . S
C448 H474 0.977 1_554 S
C449 C445 1.684 . S
C449 H475 0.979 . S
C449 H476 0.980 1_554 S
C449 H477 0.983 . S
C450 H426 0.948 . S
C450 C451 1.391 . S
C450 C455 1.391 . S
C451 C450 1.391 . S
C451 C452 1.391 . S
C452 H429 0.947 1_554 S
C452 C451 1.391 . S
C452 C453 1.392 1_554 S
C453 H430 0.948 . S
C453 C452 1.392 1_556 S
C453 C454 1.419 1_556 S
C454 C453 1.419 1_554 S
C454 C455 1.391 . S
C454 C458 1.397 . S
C455 C450 1.391 . S
C455 C454 1.391 . S
C455 C456 1.399 . S
C456 C455 1.399 . S
C456 C457 1.396 . S
C456 C459 1.453 . S
C456 C460 1.684 . S
C457 C447 1.723 . S
C457 C456 1.396 . S
C457 C458 1.394 . S
C458 C428 1.723 1_554 S
C458 C454 1.397 . S
C458 C457 1.394 . S
C459 H431 0.982 . S
C459 H435 0.979 . S
C459 H436 0.977 . S
C459 C456 1.453 . S
C460 H432 0.979 . S
C460 H433 0.980 . S
C460 H434 0.983 . S
C460 C456 1.684 . S
H461 C479 0.948 . S
H462 C420 0.948 . S
H463 C438 0.979 . S
H464 C438 0.980 . S
H465 C438 0.983 . S
H466 C437 0.982 . S
H467 C437 0.979 . S
H468 C437 0.977 . S
H469 C439 0.948 . S
H470 C441 0.947 . S
H471 C442 0.948 . S
H472 C448 0.982 . S
H473 C448 0.979 . S
H474 C448 0.977 1_556 S
H475 C449 0.979 . S
H476 C449 0.980 1_556 S
H477 C449 0.983 . S
H478 C422 0.947 . S
C479 C422 1.392 . S
C479 C423 1.419 . S
C479 H461 0.948 . S
Pr480 C482 2.880 . S
Pr480 O500 2.562 . S
Pr480 O501 2.490 . S
Pr480 O502 2.695 1_565 S
Pr480 O503 2.512 . S
Pr480 O505 2.437 . S
Pr480 O508 2.436 1_455 S
Pr480 O510 2.438 1_565 S
Pr481 C491 2.880 . S
Pr481 O502 2.436 1_655 S
Pr481 O504 2.438 1_545 S
Pr481 O506 2.562 . S
Pr481 O507 2.490 . S
Pr481 O508 2.695 1_545 S
Pr481 O509 2.512 . S
Pr481 O511 2.437 . S
C482 Pr480 2.880 . S
C482 C483 1.491 . S
C482 O500 1.254 . S
C482 O501 1.225 . S
C483 C482 1.491 . S
C483 C484 1.392 . S
C483 C488 1.356 1_556 S
C484 C483 1.392 . S
C484 C485 1.368 1_556 S
C484 H512 0.929 . S
C485 C484 1.368 1_554 S
C485 C486 1.386 . S
C485 H513 0.929 . S
C486 C485 1.386 . S
C486 C487 1.373 . S
C487 C486 1.373 . S
C487 C488 1.409 . S
C487 H514 0.931 . S
C488 C483 1.356 1_554 S
C488 C487 1.409 . S
C488 H515 0.930 1_454 S
C489 O502 1.270 1_565 S
C489 O503 1.248 . S
C490 O504 1.267 . S
C490 O505 1.278 1_655 S
C491 Pr481 2.880 . S
C491 C492 1.491 . S
C491 O506 1.254 . S
C491 O507 1.225 . S
C492 C491 1.491 . S
C492 C493 1.392 . S
C492 C497 1.356 . S
C493 C492 1.392 . S
C493 C494 1.368 . S
C493 H516 0.929 . S
C494 C493 1.368 . S
C494 C495 1.386 . S
C494 H517 0.929 . S
C495 C494 1.386 . S
C495 C496 1.373 . S
C496 C495 1.373 . S
C496 C497 1.409 . S
C496 H518 0.931 . S
C497 C492 1.356 . S
C497 C496 1.409 . S
C497 H519 0.930 1_655 S
C498 O508 1.270 1_545 S
C498 O509 1.248 . S
C499 O510 1.267 . S
C499 O511 1.278 1_455 S
O500 Pr480 2.562 . S
O500 C482 1.254 . S
O501 Pr480 2.490 . S
O501 C482 1.225 . S
O502 Pr480 2.695 1_545 S
O502 Pr481 2.436 1_455 S
O502 C489 1.270 1_545 S
O503 Pr480 2.512 . S
O503 C489 1.248 . S
O504 Pr481 2.438 1_565 S
O504 C490 1.267 . S
O505 Pr480 2.437 . S
O505 C490 1.278 1_455 S
O506 Pr481 2.562 . S
O506 C491 1.254 . S
O507 Pr481 2.490 . S
O507 C491 1.225 . S
O508 Pr480 2.436 1_655 S
O508 Pr481 2.695 1_565 S
O508 C498 1.270 1_565 S
O509 Pr481 2.512 . S
O509 C498 1.248 . S
O510 Pr480 2.438 1_545 S
O510 C499 1.267 . S
O511 Pr481 2.437 . S
O511 C499 1.278 1_655 S
H512 C484 0.929 . S
H513 C485 0.929 . S
H514 C487 0.931 . S
H515 C488 0.930 1_656 S
H516 C493 0.929 . S
H517 C494 0.929 . S
H518 C496 0.931 . S
H519 C497 0.930 1_455 S
Pr520 C522 2.880 . S
Pr520 O540 2.562 . S
Pr520 O541 2.490 . S
Pr520 O542 2.695 . S
Pr520 O543 2.512 . S
Pr520 O545 2.437 . S
Pr520 O548 2.436 1_545 S
Pr520 O550 2.438 . S
Pr521 C531 2.880 . S
Pr521 O542 2.436 1_565 S
Pr521 O544 2.438 . S
Pr521 O546 2.562 . S
Pr521 O547 2.490 . S
Pr521 O548 2.695 . S
Pr521 O549 2.512 . S
Pr521 O551 2.437 . S
C522 Pr520 2.880 . S
C522 C523 1.491 . S
C522 O540 1.254 . S
C522 O541 1.225 . S
C523 C522 1.491 . S
C523 C524 1.392 . S
C523 C528 1.356 1_556 S
C524 C523 1.392 . S
C524 C525 1.368 1_556 S
C524 H552 0.929 . S
C525 C524 1.368 1_554 S
C525 C526 1.386 . S
C525 H553 0.929 . S
C526 C525 1.386 . S
C526 C527 1.373 . S
C527 C526 1.373 . S
C527 C528 1.409 . S
C527 H554 0.931 . S
C528 C523 1.356 1_554 S
C528 C527 1.409 . S
C528 H555 0.930 1_544 S
C529 O542 1.270 . S
C529 O543 1.248 . S
C530 O544 1.267 . S
C530 O545 1.278 1_565 S
C531 Pr521 2.880 . S
C531 C532 1.491 . S
C531 O546 1.254 . S
C531 O547 1.225 . S
C532 C531 1.491 . S
C532 C533 1.392 . S
C532 C537 1.356 . S
C533 C532 1.392 . S
C533 C534 1.368 . S
C533 H556 0.929 . S
C534 C533 1.368 . S
C534 C535 1.386 . S
C534 H557 0.929 . S
C535 C534 1.386 . S
C535 C536 1.373 . S
C536 C535 1.373 . S
C536 C537 1.409 . S
C536 H558 0.931 . S
C537 C532 1.356 . S
C537 C536 1.409 . S
C537 H559 0.930 1_565 S
C538 O548 1.270 . S
C538 O549 1.248 . S
C539 O550 1.267 . S
C539 O551 1.278 1_545 S
O540 Pr520 2.562 . S
O540 C522 1.254 . S
O541 Pr520 2.490 . S
O541 C522 1.225 . S
O542 Pr520 2.695 . S
O542 Pr521 2.436 1_545 S
O542 C529 1.270 . S
O543 Pr520 2.512 . S
O543 C529 1.248 . S
O544 Pr521 2.438 . S
O544 C530 1.267 . S
O545 Pr520 2.437 . S
O545 C530 1.278 1_545 S
O546 Pr521 2.562 . S
O546 C531 1.254 . S
O547 Pr521 2.490 . S
O547 C531 1.225 . S
O548 Pr520 2.436 1_565 S
O548 Pr521 2.695 . S
O548 C538 1.270 . S
O549 Pr521 2.512 . S
O549 C538 1.248 . S
O550 Pr520 2.438 . S
O550 C539 1.267 . S
O551 Pr521 2.437 . S
O551 C539 1.278 1_565 S
H552 C524 0.929 . S
H553 C525 0.929 . S
H554 C527 0.931 . S
H555 C528 0.930 1_566 S
H556 C533 0.929 . S
H557 C534 0.929 . S
H558 C536 0.931 . S
H559 C537 0.930 1_545 S
Pr560 C562 2.880 . S
Pr560 O580 2.562 . S
Pr560 O581 2.490 . S
Pr560 O582 2.695 . S
Pr560 O583 2.512 . S
Pr560 O585 2.437 . S
Pr560 O588 2.436 . S
Pr560 O590 2.438 . S
Pr561 C571 2.880 . S
Pr561 O582 2.436 . S
Pr561 O584 2.438 . S
Pr561 O586 2.562 . S
Pr561 O587 2.490 . S
Pr561 O588 2.695 . S
Pr561 O589 2.512 . S
Pr561 O591 2.437 . S
C562 Pr560 2.880 . S
C562 C563 1.491 . S
C562 O580 1.254 . S
C562 O581 1.225 . S
C563 C562 1.491 . S
C563 C564 1.392 . S
C563 C568 1.356 1_556 S
C564 C563 1.392 . S
C564 C565 1.368 1_556 S
C564 H592 0.929 . S
C565 C564 1.368 1_554 S
C565 C566 1.386 . S
C565 H593 0.929 . S
C566 C565 1.386 . S
C566 C567 1.373 . S
C567 C566 1.373 . S
C567 C568 1.409 . S
C567 H594 0.931 . S
C568 C563 1.356 1_554 S
C568 C567 1.409 . S
C568 H595 0.929 1_554 S
C569 O582 1.270 . S
C569 O583 1.248 . S
C570 O584 1.267 . S
C570 O585 1.278 . S
C571 Pr561 2.880 . S
C571 C572 1.491 . S
C571 O586 1.254 . S
C571 O587 1.225 . S
C572 C571 1.491 . S
C572 C573 1.392 . S
C572 C577 1.356 . S
C573 C572 1.392 . S
C573 C574 1.368 . S
C573 H596 0.929 . S
C574 C573 1.368 . S
C574 C575 1.386 . S
C574 H597 0.929 . S
C575 C574 1.386 . S
C575 C576 1.373 . S
C576 C575 1.373 . S
C576 C577 1.409 . S
C576 H598 0.931 . S
C577 C572 1.356 . S
C577 C576 1.409 . S
C577 H599 0.930 . S
C578 O588 1.270 . S
C578 O589 1.248 . S
C579 O590 1.267 . S
C579 O591 1.278 . S
O580 Pr560 2.562 . S
O580 C562 1.254 . S
O581 Pr560 2.490 . S
O581 C562 1.225 . S
O582 Pr560 2.695 . S
O582 Pr561 2.436 . S
O582 C569 1.270 . S
O583 Pr560 2.512 . S
O583 C569 1.248 . S
O584 Pr561 2.438 . S
O584 C570 1.267 . S
O585 Pr560 2.437 . S
O585 C570 1.278 . S
O586 Pr561 2.562 . S
O586 C571 1.254 . S
O587 Pr561 2.490 . S
O587 C571 1.225 . S
O588 Pr560 2.436 . S
O588 Pr561 2.695 . S
O588 C578 1.270 . S
O589 Pr561 2.512 . S
O589 C578 1.248 . S
O590 Pr560 2.438 . S
O590 C579 1.267 . S
O591 Pr561 2.437 . S
O591 C579 1.278 . S
H592 C564 0.929 . S
H593 C565 0.929 . S
H594 C567 0.931 . S
H595 C568 0.929 1_556 S
H596 C573 0.929 . S
H597 C574 0.929 . S
H598 C576 0.931 . S
H599 C577 0.930 . S
Pr600 C602 2.880 . S
Pr600 O620 2.562 . S
Pr600 O621 2.490 . S
Pr600 O622 2.695 1_655 S
Pr600 O623 2.512 . S
Pr600 O625 2.437 . S
Pr600 O628 2.436 . S
Pr600 O630 2.438 1_655 S
Pr601 C611 2.880 . S
Pr601 O622 2.436 . S
Pr601 O624 2.438 1_455 S
Pr601 O626 2.562 . S
Pr601 O627 2.490 . S
Pr601 O628 2.695 1_455 S
Pr601 O629 2.512 . S
Pr601 O631 2.437 . S
C602 Pr600 2.880 . S
C602 C603 1.491 . S
C602 O620 1.254 . S
C602 O621 1.225 . S
C603 C602 1.491 . S
C603 C604 1.392 . S
C603 C608 1.356 1_556 S
C604 C603 1.392 . S
C604 C605 1.368 1_556 S
C604 H632 0.929 . S
C605 C604 1.368 1_554 S
C605 C606 1.386 . S
C605 H633 0.929 . S
C606 C605 1.386 . S
C606 C607 1.373 . S
C607 C606 1.373 . S
C607 C608 1.409 . S
C607 H634 0.931 . S
C608 C603 1.356 1_554 S
C608 C607 1.409 . S
C608 H635 0.930 1_554 S
C609 O622 1.266 1_655 S
C609 O623 1.256 . S
C610 O624 1.267 . S
C610 O625 1.278 . S
C611 Pr601 2.880 . S
C611 C612 1.491 . S
C611 O626 1.254 . S
C611 O627 1.225 . S
C612 C611 1.491 . S
C612 C613 1.392 . S
C612 C617 1.356 . S
C613 C612 1.392 . S
C613 C614 1.368 . S
C613 H636 0.929 . S
C614 C613 1.368 . S
C614 C615 1.386 . S
C614 H637 0.929 . S
C615 C614 1.386 . S
C615 C616 1.373 . S
C616 C615 1.373 . S
C616 C617 1.409 . S
C616 H638 0.931 . S
C617 C612 1.356 . S
C617 C616 1.409 . S
C617 H639 0.930 . S
C618 O628 1.263 1_455 S
C618 O629 1.261 . S
C619 O630 1.267 . S
C619 O631 1.278 . S
O620 Pr600 2.562 . S
O620 C602 1.254 . S
O621 Pr600 2.490 . S
O621 C602 1.225 . S
O622 Pr600 2.695 1_455 S
O622 Pr601 2.436 . S
O622 C609 1.266 1_455 S
O623 Pr600 2.512 . S
O623 C609 1.256 . S
O624 Pr601 2.438 1_655 S
O624 C610 1.267 . S
O625 Pr600 2.437 . S
O625 C610 1.278 . S
O626 Pr601 2.562 . S
O626 C611 1.254 . S
O627 Pr601 2.490 . S
O627 C611 1.225 . S
O628 Pr600 2.436 . S
O628 Pr601 2.695 1_655 S
O628 C618 1.263 1_655 S
O629 Pr601 2.512 . S
O629 C618 1.261 . S
O630 Pr600 2.438 1_455 S
O630 C619 1.267 . S
O631 Pr601 2.437 . S
O631 C619 1.278 . S
H632 C604 0.929 . S
H633 C605 0.929 . S
H634 C607 0.931 . S
H635 C608 0.930 1_556 S
H636 C613 0.929 . S
H637 C614 0.929 . S
H638 C616 0.931 . S
H639 C617 0.930 . S
C640 C641 1.364 1_565 S
C640 C642 1.419 . S
C640 H644 0.930 . S
C641 C640 1.364 1_545 S
C641 C650 1.435 . S
C642 C640 1.419 . S
C642 C643 1.354 1_565 S
C642 H645 0.929 . S
C643 C642 1.354 1_545 S
C643 C649 1.438 . S
H644 C640 0.930 . S
H645 C642 0.929 . S
S646 N647 1.613 1_655 S
S646 N648 1.610 1_655 S
N647 S646 1.613 1_455 S
N647 C650 1.350 . S
N648 S646 1.610 1_455 S
N648 C649 1.351 . S
C649 C643 1.438 . S
C649 N648 1.351 . S
C649 C650 1.434 . S
C650 C641 1.435 . S
C650 N647 1.350 . S
C650 C649 1.434 . S
C651 C652 1.369 . S
C651 C653 1.419 . S
C651 H655 0.930 . S
C652 C651 1.369 . S
C652 C661 1.429 . S
C653 C651 1.419 . S
C653 C654 1.363 . S
C653 H656 0.929 . S
C654 C653 1.363 . S
C654 C660 1.428 . S
H655 C651 0.930 . S
H656 C653 0.929 . S
S657 N658 1.613 . S
S657 N659 1.610 . S
N658 S657 1.613 . S
N658 C661 1.350 . S
N659 S657 1.610 . S
N659 C660 1.351 . S
C660 C654 1.428 . S
C660 N659 1.351 . S
C660 C661 1.434 . S
C661 C652 1.429 . S
C661 N658 1.350 . S
C661 C660 1.434 . S
C662 C663 1.369 . S
C662 C664 1.419 . S
C662 H666 0.930 . S
C663 C662 1.369 . S
C663 C672 1.429 . S
C664 C662 1.419 . S
C664 C665 1.363 . S
C664 H667 0.929 . S
C665 C664 1.363 . S
C665 C671 1.428 . S
H666 C662 0.930 . S
H667 C664 0.929 . S
S668 N669 1.613 . S
S668 N670 1.610 . S
N669 S668 1.613 . S
N669 C672 1.350 . S
N670 S668 1.610 . S
N670 C671 1.351 . S
C671 C665 1.428 . S
C671 N670 1.351 . S
C671 C672 1.434 . S
C672 C663 1.429 . S
C672 N669 1.350 . S
C672 C671 1.434 . S
C673 C674 1.369 1_655 S
C673 C675 1.419 . S
C673 H677 0.930 . S
C674 C673 1.369 1_455 S
C674 C683 1.429 . S
C675 C673 1.419 . S
C675 C676 1.363 1_655 S
C675 H678 0.929 . S
C676 C675 1.363 1_455 S
C676 C682 1.428 . S
H677 C673 0.930 . S
H678 C675 0.929 . S
S679 N680 1.613 . S
S679 N681 1.610 . S
N680 S679 1.613 . S
N680 C683 1.350 . S
N681 S679 1.610 . S
N681 C682 1.351 . S
C682 C676 1.428 . S
C682 N681 1.351 . S
C682 C683 1.434 . S
C683 C674 1.429 . S
C683 N680 1.350 . S
C683 C682 1.434 . S
C684 C685 1.365 1_545 S
C684 C686 1.419 . S
C684 H688 0.930 . S
C685 C684 1.365 1_565 S
C685 C694 1.433 . S
C686 C684 1.419 . S
C686 C687 1.349 1_545 S
C686 H689 0.929 . S
C687 C686 1.349 1_565 S
C687 C693 1.442 . S
H688 C684 0.930 . S
H689 C686 0.929 . S
S690 N691 1.613 . S
S690 N692 1.610 . S
N691 S690 1.613 . S
N691 C694 1.350 . S
N692 S690 1.610 . S
N692 C693 1.351 . S
C693 C687 1.442 . S
C693 N692 1.351 . S
C693 C694 1.434 . S
C694 C685 1.433 . S
C694 N691 1.350 . S
C694 C693 1.434 . S
C695 C696 1.369 . S
C695 C697 1.419 . S
C695 H699 0.930 . S
C696 C695 1.369 . S
C696 C705 1.429 . S
C697 C695 1.419 . S
C697 C698 1.363 . S
C697 H700 0.929 . S
C698 C697 1.363 . S
C698 C704 1.428 . S
H699 C695 0.930 . S
H700 C697 0.929 . S
S701 N702 1.613 . S
S701 N703 1.610 1_554 S
N702 S701 1.613 . S
N702 C705 1.350 . S
N703 S701 1.610 1_556 S
N703 C704 1.351 1_556 S
C704 C698 1.428 . S
C704 N703 1.351 1_554 S
C704 C705 1.434 . S
C705 C696 1.429 . S
C705 N702 1.350 . S
C705 C704 1.434 . S
C706 C707 1.369 . S
C706 C708 1.419 . S
C706 H710 0.930 . S
C707 C706 1.369 . S
C707 C716 1.429 . S
C708 C706 1.419 . S
C708 C709 1.363 . S
C708 H711 0.929 . S
C709 C708 1.363 . S
C709 C715 1.428 . S
H710 C706 0.930 . S
H711 C708 0.929 . S
S712 N713 1.613 . S
S712 N714 1.610 . S
N713 S712 1.613 . S
N713 C716 1.350 . S
N714 S712 1.610 . S
N714 C715 1.351 . S
C715 C709 1.428 . S
C715 N714 1.351 . S
C715 C716 1.434 . S
C716 C707 1.429 . S
C716 N713 1.350 . S
C716 C715 1.434 . S
C717 C718 1.357 1_455 S
C717 C719 1.419 . S
C717 H721 0.930 . S
C718 C717 1.357 1_655 S
C718 C727 1.442 . S
C719 C717 1.419 . S
C719 C720 1.363 1_455 S
C719 H722 0.929 . S
C720 C719 1.363 1_655 S
C720 C726 1.428 . S
H721 C717 0.930 . S
H722 C719 0.929 . S
S723 N724 1.613 . S
S723 N725 1.610 . S
N724 S723 1.613 . S
N724 C727 1.350 . S
N725 S723 1.610 . S
N725 C726 1.351 . S
C726 C720 1.428 . S
C726 N725 1.351 . S
C726 C727 1.434 . S
C727 C718 1.442 . S
C727 N724 1.350 . S
C727 C726 1.434 . S
C728 C729 1.369 . S
C728 C730 1.419 . S
C728 H732 0.930 1_655 S
C729 C728 1.369 . S
C729 C738 1.429 . S
C730 C728 1.419 . S
C730 C731 1.363 . S
C730 H733 0.929 . S
C731 C730 1.363 . S
C731 C737 1.428 . S
H732 C728 0.930 1_455 S
H733 C730 0.929 . S
S734 N735 1.613 . S
S734 N736 1.610 . S
N735 S734 1.613 . S
N735 C738 1.350 . S
N736 S734 1.610 . S
N736 C737 1.351 . S
C737 C731 1.428 . S
C737 N736 1.351 . S
C737 C738 1.434 . S
C738 C729 1.429 . S
C738 N735 1.350 . S
C738 C737 1.434 . S
C739 C740 1.369 . S
C739 C741 1.419 . S
C739 H743 0.930 . S
C740 C739 1.369 . S
C740 C749 1.429 1_565 S
C741 C739 1.419 . S
C741 C742 1.363 . S
C741 H744 0.929 . S
C742 C741 1.363 . S
C742 C748 1.428 . S
H743 C739 0.930 . S
H744 C741 0.929 . S
S745 N746 1.613 . S
S745 N747 1.610 1_545 S
N746 S745 1.613 . S
N746 C749 1.350 . S
N747 S745 1.610 1_565 S
N747 C748 1.351 . S
C748 C742 1.428 . S
C748 N747 1.351 . S
C748 C749 1.434 1_565 S
C749 C740 1.429 1_545 S
C749 N746 1.350 . S
C749 C748 1.434 1_545 S
C750 C751 1.369 . S
C750 C752 1.419 . S
C750 H754 0.930 . S
C751 C750 1.369 . S
C751 C760 1.429 . S
C752 C750 1.419 . S
C752 C753 1.363 . S
C752 H755 0.929 . S
C753 C752 1.363 . S
C753 C759 1.428 . S
H754 C750 0.930 . S
H755 C752 0.929 . S
S756 N757 1.613 . S
S756 N758 1.610 . S
N757 S756 1.613 . S
N757 C760 1.350 . S
N758 S756 1.610 . S
N758 C759 1.351 . S
C759 C753 1.428 . S
C759 N758 1.351 . S
C759 C760 1.434 . S
C760 C751 1.429 . S
C760 N757 1.350 . S
C760 C759 1.434 . S
C761 C762 1.369 . S
C761 C763 1.419 . S
C761 H765 0.930 . S
C762 C761 1.369 . S
C762 C771 1.429 . S
C763 C761 1.419 . S
C763 C764 1.363 . S
C763 H766 0.929 . S
C764 C763 1.363 . S
C764 C770 1.428 . S
H765 C761 0.930 . S
H766 C763 0.929 . S
S767 N768 1.613 . S
S767 N769 1.610 . S
N768 S767 1.613 . S
N768 C771 1.350 . S
N769 S767 1.610 . S
N769 C770 1.351 . S
C770 C764 1.428 . S
C770 N769 1.351 . S
C770 C771 1.434 . S
C771 C762 1.429 . S
C771 N768 1.350 . S
C771 C770 1.434 . S
C772 C773 1.369 . S
C772 C774 1.419 . S
C772 H776 0.930 1_454 S
C773 C772 1.369 . S
C773 C782 1.429 . S
C774 C772 1.419 . S
C774 C775 1.363 . S
C774 H777 0.929 1_554 S
C775 C774 1.363 . S
C775 C781 1.428 . S
H776 C772 0.930 1_656 S
H777 C774 0.929 1_556 S
S778 N779 1.613 . S
S778 N780 1.610 . S
N779 S778 1.613 . S
N779 C782 1.350 . S
N780 S778 1.610 . S
N780 C781 1.351 . S
C781 C775 1.428 . S
C781 N780 1.351 . S
C781 C782 1.434 . S
C782 C773 1.429 . S
C782 N779 1.350 . S
C782 C781 1.434 . S
C783 C784 1.370 . S
C783 C785 1.427 . S
C783 H787 0.921 1_545 S
C784 C783 1.370 . S
C784 C793 1.429 . S
C785 C783 1.427 . S
C785 C786 1.363 . S
C785 H788 0.929 . S
C786 C785 1.363 . S
C786 C792 1.428 . S
H787 C783 0.921 1_565 S
H788 C785 0.929 . S
S789 N790 1.613 . S
S789 N791 1.610 . S
N790 S789 1.613 . S
N790 C793 1.350 . S
N791 S789 1.610 . S
N791 C792 1.351 . S
C792 C786 1.428 . S
C792 N791 1.351 . S
C792 C793 1.434 . S
C793 C784 1.429 . S
C793 N790 1.350 . S
C793 C792 1.434 . S
C794 C795 1.369 . S
C794 C796 1.419 . S
C794 H798 0.930 . S
C795 C794 1.369 . S
C795 C804 1.429 . S
C796 C794 1.419 . S
C796 C797 1.363 . S
C796 H799 0.929 . S
C797 C796 1.363 . S
C797 C803 1.428 . S
H798 C794 0.930 . S
H799 C796 0.929 . S
S800 N801 1.613 . S
S800 N802 1.610 . S
N801 S800 1.613 . S
N801 C804 1.350 1_556 S
N802 S800 1.610 . S
N802 C803 1.351 1_556 S
C803 C797 1.428 . S
C803 N802 1.351 1_554 S
C803 C804 1.434 . S
C804 C795 1.429 . S
C804 N801 1.350 1_554 S
C804 C803 1.434 . S
C805 C806 1.369 . S
C805 C807 1.419 . S
C805 H809 0.930 . S
C806 C805 1.369 . S
C806 C815 1.429 . S
C807 C805 1.419 . S
C807 C808 1.363 . S
C807 H810 0.929 . S
C808 C807 1.363 . S
C808 C814 1.428 . S
H809 C805 0.930 . S
H810 C807 0.929 . S
S811 N812 1.613 . S
S811 N813 1.610 . S
N812 S811 1.613 . S
N812 C815 1.350 . S
N813 S811 1.610 . S
N813 C814 1.351 . S
C814 C808 1.428 . S
C814 N813 1.351 . S
C814 C815 1.434 . S
C815 C806 1.429 . S
C815 N812 1.350 . S
C815 C814 1.434 . S
C816 C817 1.369 1_655 S
C816 C818 1.419 . S
C816 H820 0.930 . S
C817 C816 1.369 1_455 S
C817 C826 1.429 . S
C818 C816 1.419 . S
C818 C819 1.363 1_655 S
C818 H821 0.929 . S
C819 C818 1.363 1_455 S
C819 C825 1.428 . S
H820 C816 0.930 . S
H821 C818 0.929 . S
S822 N823 1.613 . S
S822 N824 1.610 . S
N823 S822 1.613 . S
N823 C826 1.350 . S
N824 S822 1.610 . S
N824 C825 1.351 . S
C825 C819 1.428 . S
C825 N824 1.351 . S
C825 C826 1.434 . S
C826 C817 1.429 . S
C826 N823 1.350 . S
C826 C825 1.434 . S
C827 C828 1.369 1_565 S
C827 C829 1.416 1_565 S
C827 H831 0.930 . S
C828 C827 1.369 1_545 S
C828 C837 1.429 . S
C829 C827 1.416 1_545 S
C829 C830 1.377 . S
C829 H832 0.919 1_545 S
C830 C829 1.377 . S
C830 C836 1.428 . S
H831 C827 0.930 . S
H832 C829 0.919 1_565 S
S833 N834 1.613 . S
S833 N835 1.610 . S
N834 S833 1.613 . S
N834 C837 1.350 . S
N835 S833 1.610 . S
N835 C836 1.351 . S
C836 C830 1.428 . S
C836 N835 1.351 . S
C836 C837 1.434 . S
C837 C828 1.429 . S
C837 N834 1.350 . S
C837 C836 1.434 . S
C838 C839 1.369 . S
C838 C840 1.419 . S
C838 H842 0.930 . S
C839 C838 1.369 . S
C839 C848 1.429 . S
C840 C838 1.419 . S
C840 C841 1.363 . S
C840 H843 0.929 . S
C841 C840 1.363 . S
C841 C847 1.428 . S
H842 C838 0.930 . S
H843 C840 0.929 . S
S844 N845 1.613 . S
S844 N846 1.610 . S
N845 S844 1.613 . S
N845 C848 1.350 . S
N846 S844 1.610 . S
N846 C847 1.351 . S
C847 C841 1.428 . S
C847 N846 1.351 . S
C847 C848 1.434 . S
C848 C839 1.429 . S
C848 N845 1.350 . S
C848 C847 1.434 . S
C849 C850 1.369 . S
C849 C851 1.419 . S
C849 H853 0.930 . S
C850 C849 1.369 . S
C850 C859 1.429 . S
C851 C849 1.419 . S
C851 C852 1.363 . S
C851 H854 0.929 . S
C852 C851 1.363 . S
C852 C858 1.428 . S
H853 C849 0.930 . S
H854 C851 0.929 . S
S855 N856 1.613 . S
S855 N857 1.610 . S
N856 S855 1.613 . S
N856 C859 1.350 . S
N857 S855 1.610 . S
N857 C858 1.351 . S
C858 C852 1.428 . S
C858 N857 1.351 . S
C858 C859 1.434 . S
C859 C850 1.429 . S
C859 N856 1.350 . S
C859 C858 1.434 . S
C860 C861 1.369 1_455 S
C860 C862 1.419 . S
C860 H864 0.930 . S
C861 C860 1.369 1_655 S
C861 C870 1.429 . S
C862 C860 1.419 . S
C862 C863 1.363 1_455 S
C862 H865 0.929 . S
C863 C862 1.363 1_655 S
C863 C869 1.428 . S
H864 C860 0.930 . S
H865 C862 0.929 . S
S866 N867 1.613 . S
S866 N868 1.610 . S
N867 S866 1.613 . S
N867 C870 1.350 . S
N868 S866 1.610 . S
N868 C869 1.351 . S
C869 C863 1.428 . S
C869 N868 1.351 . S
C869 C870 1.434 . S
C870 C861 1.429 . S
C870 N867 1.350 . S
C870 C869 1.434 . S
C871 C872 1.369 . S
C871 C873 1.419 . S
C871 H875 0.930 . S
C872 C871 1.369 . S
C872 C881 1.429 1_565 S
C873 C871 1.419 . S
C873 C874 1.363 . S
C873 H876 0.929 . S
C874 C873 1.363 . S
C874 C880 1.428 1_565 S
H875 C871 0.930 . S
H876 C873 0.929 . S
S877 N878 1.613 . S
S877 N879 1.610 . S
N878 S877 1.613 . S
N878 C881 1.350 . S
N879 S877 1.610 . S
N879 C880 1.351 . S
C880 C874 1.428 1_545 S
C880 N879 1.351 . S
C880 C881 1.434 . S
C881 C872 1.429 1_545 S
C881 N878 1.350 . S
C881 C880 1.434 . S
C882 C883 1.369 . S
C882 C884 1.419 . S
C882 H886 0.930 . S
C883 C882 1.369 . S
C883 C892 1.429 . S
C884 C882 1.419 . S
C884 C885 1.363 . S
C884 H887 0.929 . S
C885 C884 1.363 . S
C885 C891 1.428 . S
H886 C882 0.930 . S
H887 C884 0.929 . S
S888 N889 1.613 . S
S888 N890 1.610 . S
N889 S888 1.613 . S
N889 C892 1.350 . S
N890 S888 1.610 . S
N890 C891 1.351 . S
C891 C885 1.428 . S
C891 N890 1.351 . S
C891 C892 1.434 . S
C892 C883 1.429 . S
C892 N889 1.350 . S
C892 C891 1.434 . S
C893 C894 1.369 . S
C893 C895 1.419 . S
C893 H897 0.930 . S
C894 C893 1.369 . S
C894 C903 1.429 . S
C895 C893 1.419 . S
C895 C896 1.363 . S
C895 H898 0.929 . S
C896 C895 1.363 . S
C896 C902 1.428 . S
H897 C893 0.930 . S
H898 C895 0.929 . S
S899 N900 1.613 . S
S899 N901 1.610 . S
N900 S899 1.613 . S
N900 C903 1.350 . S
N901 S899 1.610 . S
N901 C902 1.351 . S
C902 C896 1.428 . S
C902 N901 1.351 . S
C902 C903 1.434 . S
C903 C894 1.429 . S
C903 N900 1.350 . S
C903 C902 1.434 . S
C641 C391 2.655 . S
C643 C489 2.835 1_545 S
C654 C529 2.855 . S
C652 C451 2.668 . S
C665 C569 2.862 . S
C663 C241 2.332 . S
C676 C609 2.842 1_455 S
C674 C331 2.297 1_455 S
C687 C498 2.836 1_564 S
C685 C121 2.294 . S
C696 C211 2.680 . S
C698 C538 2.858 1_554 S
C707 C31 2.695 . S
C709 C578 2.860 1_554 S
C718 C91 2.299 . S
C720 C618 2.840 1_654 S
C731 C495 0.812 . S
C729 C301 0.769 . S
C742 C535 0.790 . S
C740 C380 0.822 1_565 S
C753 C575 0.774 . S
C751 C440 0.761 . S
C762 C260 0.764 . S
C764 C615 0.769 . S
C773 C61 0.798 1_455 S
C775 C486 0.807 . S
C786 C526 0.805 . S
C784 C140 0.802 1_545 S
C797 C566 0.764 . S
C795 C200 0.763 . S
C806 C20 0.756 . S
C808 C606 0.782 . S
C817 C320 3.423 1_455 S
C819 C499 3.734 . S
C828 C361 2.935 . S
C830 C539 3.704 . S
C841 C579 3.695 . S
C839 C421 2.914 . S
C852 C619 3.729 . S
C850 C271 3.411 . S
C861 C80 3.395 . S
C863 C490 3.744 . S
C874 C530 3.703 . S
C872 C151 3.365 . S
C885 C570 3.695 . S
C883 C181 2.961 . S
C894 C1 2.993 . S
C896 C610 3.733 . S
