# Generated by pormake.
# Topology pyr, (3,6)-cn, num edge types: 1
# Building blocks:
#     Node 0, Type 0, BuildingBlock: PAMTOO_clean_linker_0, # of connection points: 3
#     Node 1, Type 0, BuildingBlock: PAMTOO_clean_linker_0, # of connection points: 3
#     Node 2, Type 0, BuildingBlock: PAMTOO_clean_linker_0, # of connection points: 3
#     Node 3, Type 0, BuildingBlock: PAMTOO_clean_linker_0, # of connection points: 3
#     Node 4, Type 0, BuildingBlock: PAMTOO_clean_linker_0, # of connection points: 3
#     Node 5, Type 0, BuildingBlock: PAMTOO_clean_linker_0, # of connection points: 3
#     Node 6, Type 0, BuildingBlock: PAMTOO_clean_linker_0, # of connection points: 3
#     Node 7, Type 0, BuildingBlock: PAMTOO_clean_linker_0, # of connection points: 3
#     Node 8, Type 1, BuildingBlock: CIFDUS_clean_sbu_1, # of connection points: 6
#     Node 9, Type 1, BuildingBlock: CIFDUS_clean_sbu_1, # of connection points: 6
#     Node 10, Type 1, BuildingBlock: CIFDUS_clean_sbu_1, # of connection points: 6
#     Node 11, Type 1, BuildingBlock: CIFDUS_clean_sbu_1, # of connection points: 6
#     Edge 12, Type (0, 1), BuildingBlock: CIFDUS_clean_linker_0, # of connection points: 2
#     Edge 13, Type (0, 1), BuildingBlock: CIFDUS_clean_linker_0, # of connection points: 2
#     Edge 14, Type (0, 1), BuildingBlock: CIFDUS_clean_linker_0, # of connection points: 2
#     Edge 15, Type (0, 1), BuildingBlock: CIFDUS_clean_linker_0, # of connection points: 2
#     Edge 16, Type (0, 1), BuildingBlock: CIFDUS_clean_linker_0, # of connection points: 2
#     Edge 17, Type (0, 1), BuildingBlock: CIFDUS_clean_linker_0, # of connection points: 2
#     Edge 18, Type (0, 1), BuildingBlock: CIFDUS_clean_linker_0, # of connection points: 2
#     Edge 19, Type (0, 1), BuildingBlock: CIFDUS_clean_linker_0, # of connection points: 2
#     Edge 20, Type (0, 1), BuildingBlock: CIFDUS_clean_linker_0, # of connection points: 2
#     Edge 21, Type (0, 1), BuildingBlock: CIFDUS_clean_linker_0, # of connection points: 2
#     Edge 22, Type (0, 1), BuildingBlock: CIFDUS_clean_linker_0, # of connection points: 2
#     Edge 23, Type (0, 1), BuildingBlock: CIFDUS_clean_linker_0, # of connection points: 2
#     Edge 24, Type (0, 1), BuildingBlock: CIFDUS_clean_linker_0, # of connection points: 2
#     Edge 25, Type (0, 1), BuildingBlock: CIFDUS_clean_linker_0, # of connection points: 2
#     Edge 26, Type (0, 1), BuildingBlock: CIFDUS_clean_linker_0, # of connection points: 2
#     Edge 27, Type (0, 1), BuildingBlock: CIFDUS_clean_linker_0, # of connection points: 2
#     Edge 28, Type (0, 1), BuildingBlock: CIFDUS_clean_linker_0, # of connection points: 2
#     Edge 29, Type (0, 1), BuildingBlock: CIFDUS_clean_linker_0, # of connection points: 2
#     Edge 30, Type (0, 1), BuildingBlock: CIFDUS_clean_linker_0, # of connection points: 2
#     Edge 31, Type (0, 1), BuildingBlock: CIFDUS_clean_linker_0, # of connection points: 2
#     Edge 32, Type (0, 1), BuildingBlock: CIFDUS_clean_linker_0, # of connection points: 2
#     Edge 33, Type (0, 1), BuildingBlock: CIFDUS_clean_linker_0, # of connection points: 2
#     Edge 34, Type (0, 1), BuildingBlock: CIFDUS_clean_linker_0, # of connection points: 2
#     Edge 35, Type (0, 1), BuildingBlock: CIFDUS_clean_linker_0, # of connection points: 2
# Relax obj value: 0.095
# Max RMSD: 0.205
# Mean RMSD: 0.143
data_MOF--net-pry--node1-CIFDUS_clean_sbu_1--node2-PAMTOO_clean_linker_0--edge1-CIFDUS_clean_linker_0
_symmetry_space_group_name_H-M    P1
_symmetry_Int_Tables_number       1
_symmetry_cell_setting            triclinic
loop_
_symmetry_equiv_pos_as_xyz
'x, y, z'
_cell_length_a     31.724532
_cell_length_b     31.321412
_cell_length_c     30.554285
_cell_angle_alpha  91.951863
_cell_angle_beta   92.4855
_cell_angle_gamma 98.711079
loop_
_atom_site_label
_atom_site_type_symbol
_atom_site_fract_x
_atom_site_fract_y
_atom_site_fract_z
_atom_type_partial_charge
H0 H 0.12666 0.22179 0.2313 0.0
H1 H 0.21209 0.12729 0.24417 0.0
H2 H 0.22724 0.21774 0.14181 0.0
H3 H 0.23559 0.12562 0.11824 0.0
C4 C 0.25607 0.11989 0.14728 0.0
O5 O 0.25766 0.15345 0.17832 0.0
H6 H 0.2421 0.08921 0.16189 0.0
C7 C 0.15287 0.20666 0.21971 0.0
C8 C 0.17456 0.22327 0.18318 0.0
C9 C 0.16643 0.17227 0.24269 0.0
C10 C 0.20133 0.15399 0.22757 0.0
C11 C 0.2227 0.16985 0.1909 0.0
C12 C 0.20962 0.20471 0.1692 0.0
H13 H 0.35385 0.94952 0.70688 0.0
H14 H 0.31828 0.84731 0.60835 0.0
H15 H 0.43112 0.84882 0.69037 0.0
H16 H 0.43657 0.83937 0.59345 0.0
C17 C 0.41293 0.80912 0.59184 0.0
O18 O 0.38469 0.80911 0.62503 0.0
H19 H 0.39459 0.80721 0.55982 0.0
C20 C 0.36017 0.92016 0.69036 0.0
C21 C 0.39659 0.9022 0.70303 0.0
C22 C 0.33105 0.90011 0.65704 0.0
C23 C 0.34033 0.86344 0.63392 0.0
C24 C 0.37692 0.84573 0.64564 0.0
C25 C 0.40428 0.86444 0.68053 0.0
H26 H 0.74642 0.28364 0.89477 0.0
H27 H 0.69218 0.25458 0.76321 0.0
H28 H 0.80229 0.35182 0.78667 0.0
H29 H 0.76975 0.34758 0.67668 0.0
C30 C 0.75097 0.3502 0.70624 0.0
O31 O 0.74749 0.31061 0.72597 0.0
H32 H 0.76976 0.37638 0.72755 0.0
C33 C 0.74709 0.28887 0.85989 0.0
C34 C 0.77662 0.32222 0.84436 0.0
C35 C 0.71686 0.26372 0.83065 0.0
C36 C 0.71569 0.27321 0.78594 0.0
C37 C 0.74646 0.30488 0.76983 0.0
C38 C 0.77778 0.32799 0.79901 0.0
H39 H 0.8586 0.69119 0.46982 0.0
H40 H 0.83208 0.61424 0.34959 0.0
H41 H 0.94967 0.70021 0.3677 0.0
H42 H 0.89859 0.69663 0.27966 0.0
C43 C 0.89006 0.66079 0.27701 0.0
O44 O 0.90359 0.64291 0.31487 0.0
H45 H 0.85472 0.65285 0.27235 0.0
C46 C 0.86857 0.68116 0.43813 0.0
C47 C 0.90878 0.69907 0.42329 0.0
C48 C 0.84023 0.65145 0.41123 0.0
C49 C 0.85319 0.6377 0.37041 0.0
C50 C 0.89251 0.65529 0.35508 0.0
C51 C 0.92001 0.68598 0.38116 0.0
H52 H 0.82574 0.92495 0.84186 0.0
H53 H 0.85242 0.84642 0.94973 0.0
H54 H 0.92876 0.84947 0.83762 0.0
H55 H 0.8902 0.75806 0.88065 0.0
C56 C 0.89874 0.7712 0.91471 0.0
O57 O 0.91436 0.81494 0.91406 0.0
H58 H 0.86922 0.76666 0.93349 0.0
C59 C 0.84468 0.90302 0.85711 0.0
C60 C 0.8794 0.8905 0.83495 0.0
C61 C 0.83389 0.88704 0.89834 0.0
C62 C 0.85878 0.85821 0.9174 0.0
C63 C 0.89175 0.84351 0.895 0.0
C64 C 0.902 0.85961 0.85379 0.0
H65 H 0.73674 0.08956 0.3426 0.0
H66 H 0.64585 0.17455 0.36937 0.0
H67 H 0.74744 0.16635 0.4638 0.0
H68 H 0.66284 0.19268 0.50747 0.0
C69 C 0.64874 0.19637 0.47413 0.0
O70 O 0.68116 0.20354 0.44535 0.0
H71 H 0.6264 0.16617 0.46463 0.0
C72 C 0.72443 0.11189 0.36479 0.0
C73 C 0.74656 0.12517 0.40516 0.0
C74 C 0.68847 0.12995 0.35124 0.0
C75 C 0.67311 0.15965 0.37961 0.0
C76 C 0.69384 0.17185 0.42042 0.0
C77 C 0.73038 0.15461 0.43323 0.0
H78 H 0.33478 0.76514 0.15139 0.0
H79 H 0.29397 0.68122 0.25506 0.0
H80 H 0.41706 0.75913 0.26697 0.0
H81 H 0.39565 0.65287 0.2702 0.0
C82 C 0.37516 0.65646 0.29844 0.0
O83 O 0.36547 0.6979 0.30172 0.0
H84 H 0.34505 0.63341 0.29196 0.0
C85 C 0.34062 0.75295 0.18352 0.0
C86 C 0.37938 0.76757 0.20772 0.0
C87 C 0.30963 0.72188 0.20061 0.0
C88 C 0.31734 0.70577 0.24193 0.0
C89 C 0.35636 0.71842 0.26509 0.0
C90 C 0.38712 0.74944 0.2483 0.0
H91 H 0.12775 0.31353 0.72788 0.0
H92 H 0.16424 0.4519 0.72859 0.0
H93 H 0.17468 0.37515 0.61199 0.0
H94 H 0.22247 0.49409 0.68905 0.0
C95 C 0.21998 0.48228 0.65413 0.0
O96 O 0.18279 0.45355 0.64596 0.0
H97 H 0.21785 0.51129 0.63472 0.0
C98 C 0.1403 0.34264 0.71162 0.0
C99 C 0.15011 0.33977 0.66723 0.0
C100 C 0.14695 0.38288 0.73491 0.0
C101 C 0.16159 0.42026 0.71233 0.0
C102 C 0.17214 0.41734 0.66837 0.0
C103 C 0.16742 0.37703 0.64628 0.0
O104 O 0.98256 0.04243 0.52059 0.0
Mn105 Mn 0.03766 0.01654 0.53901 0.0
O106 O 0.96366 0.01431 0.45232 0.0
Mn107 Mn 0.00804 0.9832 0.44589 0.0
O108 O 0.09282 0.98983 0.55623 0.0
O109 O 0.05716 0.06995 0.57997 0.0
Mn110 Mn 0.06857 0.04702 0.63044 0.0
O111 O 1.00205 0.98129 0.58774 0.0
O112 O 0.11252 0.0157 0.62453 0.0
O113 O 0.07203 0.05198 0.48968 0.0
O114 O 0.05659 0.0139 0.42604 0.0
O115 O 0.08111 0.10391 0.64346 0.0
O116 O 0.01956 0.01863 0.65117 0.0
C117 C 0.00695 0.92582 0.47999 0.0
C118 C 0.95793 0.03811 0.48557 0.0
C119 C 0.11788 0.9927 0.59078 0.0
C120 C 0.06912 0.10632 0.60262 0.0
C121 C 0.99634 0.98864 0.62873 0.0
C122 C 0.07727 0.04569 0.44836 0.0
O123 O 0.019 0.96414 0.49804 0.0
O124 O 0.99722 0.92465 0.4383 0.0
O125 O 0.52034 1.00384 0.96003 0.0
Mn126 Mn 0.55115 0.01745 0.02211 0.0
O127 O 0.51382 0.93217 0.94699 0.0
Mn128 Mn 0.54423 0.92258 0.99731 0.0
O129 O 0.58145 0.03272 0.08491 0.0
O130 O 0.57045 0.07841 1.00194 0.0
Mn131 Mn 0.55574 0.11349 0.04266 0.0
O132 O 0.49237 0.03338 0.0453 0.0
O133 O 0.58572 0.10484 0.09334 0.0
O134 O 0.61019 1.00141 0.99905 0.0
O135 O 0.60192 0.9292 0.99352 0.0
O136 O 0.58048 0.14983 1.00321 0.0
O137 O 0.49777 0.10539 0.04559 0.0
C138 C 0.51687 0.91875 0.05794 0.0
C139 C 0.50766 0.96951 0.93602 0.0
C140 C 0.59292 0.06865 0.10721 0.0
C141 C 0.58558 0.11393 0.98324 0.0
C142 C 0.47618 0.0686 0.05071 0.0
C143 C 0.62513 0.96568 0.99198 0.0
O144 O 0.53127 0.95579 0.04135 0.0
O145 O 0.5206 0.88408 0.03494 0.0
O146 O 0.59736 0.53167 0.52196 0.0
Mn147 Mn 0.53541 0.50494 0.53792 0.0
O148 O 0.60045 0.51727 0.44935 0.0
Mn149 Mn 0.54792 0.48269 0.44034 0.0
O150 O 0.47312 0.47968 0.55324 0.0
O151 O 0.55555 0.50297 0.60091 0.0
Mn152 Mn 0.52204 0.52652 0.63565 0.0
O153 O 0.52059 0.56757 0.54754 0.0
O154 O 0.46856 0.49359 0.62565 0.0
O155 O 0.5501 0.44208 0.52857 0.0
O156 O 0.54542 0.42626 0.45614 0.0
O157 O 0.562 0.5062 0.6718 0.0
O158 O 0.52532 0.58338 0.62004 0.0
C159 C 0.49373 0.51538 0.44039 0.0
C160 C 0.61669 0.535 0.48572 0.0
C161 C 0.45238 0.47756 0.5886 0.0
C162 C 0.5754 0.49192 0.63549 0.0
C163 C 0.51966 0.59404 0.58056 0.0
C164 C 0.55074 0.41553 0.49556 0.0
O165 O 0.51463 0.50634 0.47512 0.0
O166 O 0.50688 0.50088 0.40409 0.0
O167 O 0.9876 0.46245 0.01883 0.0
Mn168 Mn 0.04534 0.50035 0.04041 0.0
O169 O 0.97659 0.48999 0.95309 0.0
Mn170 Mn 0.0309 0.52112 0.94951 0.0
O171 O 0.10341 0.53973 0.06027 0.0
O172 O 0.02387 0.50451 0.10153 0.0
Mn173 Mn 0.06416 0.49444 0.13962 0.0
O174 O 0.07065 0.44251 0.05489 0.0
O175 O 0.10871 0.53885 0.13398 0.0
O176 O 0.01836 0.55828 0.02967 0.0
O177 O 0.03865 0.57856 0.96479 0.0
O178 O 0.01985 0.50489 0.17267 0.0
O179 O 0.0753 0.43946 0.12853 0.0
C180 C 0.08168 0.48922 0.93875 0.0
C181 C 0.96455 0.46462 0.9835 0.0
C182 C 0.12165 0.55336 0.09769 0.0
C183 C 1.0023 0.51225 0.13519 0.0
C184 C 0.07885 0.42326 0.09046 0.0
C185 C 0.0237 0.58735 1.00079 0.0
O186 O 0.06761 0.4935 0.97823 0.0
O187 O 0.063 0.50639 0.90672 0.0
H188 H 0.20171 0.1482 0.32026 0.0
H189 H 0.08065 0.1574 0.25387 0.0
H190 H 0.04313 0.1251 0.31546 0.0
H191 H 0.04419 0.08802 0.38461 0.0
H192 H 0.16386 0.07514 0.45087 0.0
H193 H 0.20259 0.11564 0.39339 0.0
C194 C 0.16711 0.1432 0.3193 0.0
C195 C 0.1441 0.1551 0.28209 0.0
C196 C 0.14556 0.12417 0.35497 0.0
C197 C 0.09928 0.149 0.28195 0.0
C198 C 0.07774 0.13031 0.31716 0.0
C199 C 0.0788 0.09517 0.38706 0.0
C200 C 0.10124 0.07917 0.42211 0.0
C201 C 0.10049 0.11717 0.35341 0.0
C202 C 0.14597 0.08793 0.4247 0.0
C203 C 0.168 0.11052 0.39147 0.0
H204 H 0.37478 0.94242 0.77819 0.0
H205 H 0.48331 0.90496 0.71416 0.0
H206 H 0.52838 0.92685 0.77992 0.0
H207 H 0.53546 0.95003 0.85773 0.0
H208 H 0.42897 0.99159 0.92065 0.0
H209 H 0.38486 0.97658 0.85221 0.0
C210 C 0.4085 0.94013 0.77785 0.0
C211 C 0.42517 0.92108 0.74117 0.0
C212 C 0.43469 0.95387 0.81547 0.0
C213 C 0.46903 0.91806 0.74217 0.0
C214 C 0.49507 0.93101 0.77966 0.0
C215 C 0.50295 0.957 0.85585 0.0
C216 C 0.48525 0.97203 0.89356 0.0
C217 C 0.478 0.94796 0.81676 0.0
C218 C 0.44314 0.98061 0.8915 0.0
C219 C 0.41792 0.97153 0.85263 0.0
H220 H 0.72934 0.38687 0.63086 0.0
H221 H 0.67957 0.3486 0.75523 0.0
H222 H 0.61852 0.38558 0.74091 0.0
H223 H 0.58427 0.43592 0.69779 0.0
H224 H 0.63483 0.47841 0.57525 0.0
H225 H 0.69069 0.43239 0.58382 0.0
C226 C 0.70445 0.38558 0.65422 0.0
C227 C 0.70863 0.36405 0.69364 0.0
C228 C 0.67012 0.40835 0.64643 0.0
C229 C 0.67678 0.36373 0.72419 0.0
C230 C 0.64204 0.38539 0.71623 0.0
C231 C 0.60734 0.43486 0.67271 0.0
C232 C 0.60601 0.4609 0.63625 0.0
C233 C 0.63922 0.40888 0.6782 0.0
C234 C 0.63549 0.4588 0.60367 0.0
C235 C 0.66738 0.43259 0.6087 0.0
H236 H 0.86332 0.58575 0.22908 0.0
H237 H 0.96395 0.69514 0.24039 0.0
H238 H 1.00245 0.6624 0.18371 0.0
H239 H 0.01288 0.59775 0.1409 0.0
H240 H 0.91709 0.48459 0.13691 0.0
H241 H 0.86985 0.52425 0.17818 0.0
C242 C 0.89319 0.6027 0.21824 0.0
C243 C 0.91074 0.64288 0.23844 0.0
C244 C 0.91554 0.58317 0.18632 0.0
C245 C 0.9498 0.66436 0.22493 0.0
C246 C 0.97172 0.64567 0.19253 0.0
C247 C 0.98066 0.58266 0.14702 0.0
C248 C 0.96802 0.53867 0.1354 0.0
C249 C 0.9555 0.60456 0.17397 0.0
C250 C 0.92693 0.51877 0.14464 0.0
C251 C 0.90044 0.54116 0.16923 0.0
H252 H 0.28697 0.04729 0.11806 0.0
H253 H 0.32339 0.18513 0.13923 0.0
H254 H 0.39366 0.18033 0.11209 0.0
H255 H 0.44426 0.13805 0.08236 0.0
H256 H 0.40895 1.00088 0.05556 0.0
H257 H 0.33881 1.00417 0.08552 0.0
C258 C 0.31056 0.07612 0.11709 0.0
C259 C 0.30031 0.11634 0.132 0.0
C260 C 0.35096 0.07324 0.10054 0.0
C261 C 0.33069 0.15366 0.12925 0.0
C262 C 0.37084 0.15096 0.11346 0.0
C263 C 0.42142 0.10857 0.08268 0.0
C264 C 0.43248 0.06892 0.0671 0.0
C265 C 0.38123 0.11102 0.09901 0.0
C266 C 0.40198 0.0315 0.06822 0.0
C267 C 0.36168 0.03357 0.08501 0.0
H268 H 0.28789 0.91079 0.57903 0.0
H269 H 0.27966 0.92187 0.71965 0.0
H270 H 0.21193 0.94838 0.71065 0.0
H271 H 0.15674 0.97062 0.66415 0.0
H272 H 0.16223 0.96188 0.52336 0.0
H273 H 0.2288 0.93076 0.53107 0.0
C274 C 0.27103 0.91879 0.60757 0.0
C275 C 0.28925 0.91518 0.64997 0.0
C276 C 0.23162 0.93403 0.60219 0.0
C277 C 0.267 0.92548 0.6867 0.0
C278 C 0.22805 0.94027 0.68163 0.0
C279 C 0.17233 0.96195 0.63493 0.0
C280 C 0.1549 0.96911 0.59325 0.0
C281 C 0.21043 0.94511 0.63967 0.0
C282 C 0.17507 0.95672 0.55585 0.0
C283 C 0.21322 0.93923 0.5603 0.0
H284 H 0.82959 0.30671 0.91402 0.0
H285 H 0.78416 0.40897 0.84318 0.0
H286 H 0.8337 0.46287 0.88629 0.0
H287 H 0.89542 0.48055 0.93702 0.0
H288 H 0.94495 0.38001 1.00652 0.0
H289 H 0.8876 0.32604 0.9724 0.0
C290 C 0.83025 0.34084 0.90863 0.0
C291 C 0.80396 0.35385 0.8748 0.0
C292 C 0.85946 0.37194 0.93336 0.0
C293 C 0.80482 0.39816 0.86829 0.0
C294 C 0.83297 0.42902 0.89307 0.0
C295 C 0.89312 0.44692 0.94547 0.0
C296 C 0.92452 0.43419 0.97386 0.0
C297 C 0.86126 0.41623 0.92466 0.0
C298 C 0.92097 0.39064 0.98492 0.0
C299 C 0.88851 0.35972 0.96493 0.0
H300 H 0.81109 0.6188 0.48874 0.0
H301 H 0.76916 0.65306 0.36008 0.0
H302 H 0.69588 0.62341 0.37398 0.0
H303 H 0.64486 0.58283 0.41938 0.0
H304 H 0.68365 0.54668 0.5481 0.0
H305 H 0.75688 0.58286 0.53807 0.0
C306 C 0.78571 0.62019 0.46414 0.0
C307 C 0.7956 0.63725 0.42308 0.0
C308 C 0.74325 0.60272 0.47229 0.0
C309 C 0.76247 0.63916 0.3915 0.0
C310 C 0.72053 0.6224 0.39946 0.0
C311 C 0.66927 0.58304 0.44545 0.0
C312 C 0.65921 0.56154 0.48407 0.0
C313 C 0.7108 0.60322 0.43919 0.0
C314 C 0.69079 0.56294 0.51798 0.0
C315 C 0.73263 0.58337 0.51208 0.0
H316 H 0.10235 0.23377 0.13405 0.0
H317 H 0.22334 0.30172 0.18622 0.0
H318 H 0.20707 0.36882 0.15561 0.0
H319 H 0.15623 0.40946 0.11929 0.0
H320 H 0.03514 0.34319 0.06629 0.0
H321 H 0.05387 0.27402 0.09036 0.0
C322 C 0.12512 0.2633 0.13831 0.0
C323 C 0.16393 0.26299 0.16261 0.0
C324 C 0.11577 0.30184 0.11982 0.0
C325 C 0.19334 0.30128 0.16772 0.0
C326 C 0.18407 0.33959 0.15013 0.0
C327 C 0.13469 0.37955 0.11146 0.0
C328 C 0.09484 0.38123 0.09 0.0
C329 C 0.14528 0.34038 0.12651 0.0
C330 C 0.06655 0.34253 0.08141 0.0
C331 C 0.07699 0.30312 0.09599 0.0
H332 H 0.73366 0.19784 0.88097 0.0
H333 H 0.63048 0.25073 0.81694 0.0
H334 H 0.57842 0.19754 0.8504 0.0
H335 H 0.56286 0.14502 0.90733 0.0
H336 H 0.66552 0.09577 0.97553 0.0
H337 H 0.71725 0.13639 0.92935 0.0
C338 C 0.69974 0.19721 0.87398 0.0
C339 C 0.68578 0.22847 0.84715 0.0
C340 C 0.67003 0.16657 0.89344 0.0
C341 C 0.64188 0.22706 0.83764 0.0
C342 C 0.61215 0.19666 0.85673 0.0
C343 C 0.59635 0.14139 0.91025 0.0
C344 C 0.61046 0.11682 0.94396 0.0
C345 C 0.62587 0.1672 0.88571 0.0
C346 C 0.65391 0.11319 0.94864 0.0
C347 C 0.68355 0.13751 0.92311 0.0
H348 H 0.887 0.76249 0.47893 0.0
H349 H 0.99654 0.71442 0.42769 0.0
H350 H 0.04236 0.78024 0.45453 0.0
H351 H 0.04758 0.85696 0.47704 0.0
H352 H 0.93908 0.90438 0.52943 0.0
H353 H 0.89731 0.8321 0.52079 0.0
C354 C 0.92105 0.76533 0.47494 0.0
C355 C 0.9377 0.73395 0.4494 0.0
C356 C 0.94764 0.80315 0.49121 0.0
C357 C 0.98221 0.73877 0.44517 0.0
C358 C 0.0087 0.77628 0.46102 0.0
C359 C 0.01569 0.85075 0.48923 0.0
C360 C 0.99618 0.88583 0.50326 0.0
C361 C 0.99135 0.80958 0.482 0.0
C362 C 0.95482 0.87773 0.51874 0.0
C363 C 0.93056 0.83656 0.51264 0.0
H364 H 0.43074 0.75304 0.52712 0.0
H365 H 0.45075 0.78225 0.66609 0.0
H366 H 0.48894 0.7208 0.67402 0.0
H367 H 0.51326 0.65691 0.64236 0.0
H368 H 0.49361 0.6266 0.50358 0.0
H369 H 0.45934 0.69073 0.4944 0.0
C370 C 0.44348 0.74581 0.55907 0.0
C371 C 0.43702 0.77144 0.59615 0.0
C372 C 0.46565 0.71046 0.56334 0.0
C373 C 0.45454 0.76248 0.63724 0.0
C374 C 0.47653 0.72744 0.64176 0.0
C375 C 0.502 0.66445 0.60992 0.0
C376 C 0.50569 0.63654 0.57364 0.0
C377 C 0.48183 0.70096 0.60513 0.0
C378 C 0.49107 0.6473 0.53197 0.0
C379 C 0.47126 0.6839 0.5268 0.0
H380 H 0.90869 0.85577 0.75929 0.0
H381 H 0.88371 0.97578 0.81931 0.0
H382 H 0.91017 0.01459 0.75632 0.0
H383 H 0.94671 0.01655 0.68816 0.0
H384 H 0.97715 0.89947 0.62791 0.0
H385 H 0.94129 0.85732 0.68604 0.0
C386 C 0.90886 0.89036 0.75843 0.0
C387 C 0.89382 0.9126 0.79426 0.0
C388 C 0.92482 0.91302 0.72183 0.0
C389 C 0.89416 0.95746 0.79222 0.0
C390 C 0.90956 0.97988 0.75618 0.0
C391 C 0.94451 0.98159 0.68707 0.0
C392 C 0.96443 0.96114 0.65377 0.0
C393 C 0.92553 0.95819 0.72125 0.0
C394 C 0.96151 0.91591 0.65281 0.0
C395 C 0.94162 0.89198 0.68651 0.0
H396 H 0.66651 0.05363 0.30216 0.0
H397 H 0.67357 0.19216 0.29656 0.0
H398 H 0.64743 0.18458 0.2205 0.0
H399 H 0.6222 0.14023 0.15687 0.0
H400 H 0.61042 1.0011 0.15875 0.0
H401 H 0.63999 1.00739 0.23501 0.0
C402 C 0.66218 0.08198 0.28411 0.0
C403 C 0.67126 0.12341 0.30521 0.0
C404 C 0.6468 0.07739 0.2399 0.0
C405 C 0.66582 0.15994 0.2815 0.0
C406 C 0.65126 0.15568 0.23786 0.0
C407 C 0.62587 0.11087 0.1735 0.0
C408 C 0.61371 0.07014 0.15191 0.0
C409 C 0.64152 0.11471 0.21697 0.0
C410 C 0.61945 0.03289 0.17446 0.0
C411 C 0.63615 0.03652 0.21811 0.0
H412 H 0.34832 0.59551 0.35686 0.0
H413 H 0.45479 0.69225 0.33007 0.0
H414 H 0.49998 0.6622 0.38435 0.0
H415 H 0.5125 0.59872 0.42499 0.0
H416 H 0.40788 0.49807 0.44547 0.0
H417 H 0.35803 0.53971 0.40943 0.0
C418 C 0.38107 0.61072 0.36397 0.0
C419 C 0.39866 0.64546 0.33923 0.0
C420 C 0.40704 0.59236 0.39405 0.0
C421 C 0.44093 0.66523 0.34868 0.0
C422 C 0.46671 0.64794 0.37947 0.0
C423 C 0.4784 0.58717 0.42354 0.0
C424 C 0.46344 0.54612 0.43872 0.0
C425 C 0.45066 0.61015 0.40048 0.0
C426 C 0.41964 0.53037 0.43548 0.0
C427 C 0.39137 0.55379 0.41399 0.0
H428 H 0.19194 0.43371 0.80056 0.0
H429 H 0.07746 0.34116 0.77459 0.0
H430 H 0.05372 0.35666 0.8475 0.0
H431 H 0.05808 0.40755 0.91083 0.0
H432 H 0.16749 0.50651 0.93213 0.0
H433 H 0.20169 0.47641 0.87046 0.0
C434 C 0.16205 0.41651 0.81111 0.0
C435 C 0.13617 0.38687 0.78174 0.0
C436 C 0.14795 0.42655 0.85268 0.0
C437 C 0.09804 0.36412 0.79633 0.0
C438 C 0.08433 0.37312 0.83806 0.0
C439 C 0.09055 0.42079 0.90354 0.0
C440 C 0.11042 0.45898 0.92605 0.0
C441 C 0.10813 0.40557 0.8657 0.0
C442 C 0.15195 0.47665 0.91579 0.0
C443 C 0.17094 0.4601 0.8797 0.0
H444 H 0.80128 0.96483 0.90049 0.0
H445 H 0.77903 0.83455 0.94641 0.0
H446 H 0.7178 0.85083 0.98446 0.0
H447 H 0.66839 0.89926 1.00213 0.0
H448 H 0.68159 0.02661 0.95032 0.0
H449 H 0.74895 0.01469 0.91818 0.0
C450 C 0.78296 0.93992 0.91863 0.0
C451 C 0.7958 0.89855 0.92097 0.0
C452 C 0.74628 0.9491 0.9398 0.0
C453 C 0.77132 0.86699 0.9449 0.0
C454 C 0.73584 0.87614 0.96653 0.0
C455 C 0.68593 0.92482 0.98405 0.0
C456 C 0.66969 0.96394 0.97881 0.0
C457 C 0.72296 0.91683 0.96402 0.0
C458 C 0.69346 0.99654 0.95561 0.0
C459 C 0.73169 0.98935 0.93665 0.0
H460 H 0.78041 0.10488 0.48475 0.0
H461 H 0.80921 0.11875 0.34847 0.0
H462 H 0.87833 0.09673 0.363 0.0
H463 H 0.9292 0.07067 0.4127 0.0
H464 H 0.90362 0.05675 0.54929 0.0
H465 H 0.8353 0.08372 0.53679 0.0
C466 C 0.80198 0.10341 0.45836 0.0
C467 C 0.789 0.11237 0.41532 0.0
C468 C 0.84239 0.09137 0.46707 0.0
C469 C 0.81751 0.11052 0.38155 0.0
C470 C 0.85737 0.09849 0.38989 0.0
C471 C 0.90883 0.07386 0.43991 0.0
C472 C 0.92096 0.06132 0.48168 0.0
C473 C 0.86982 0.08835 0.43227 0.0
C474 C 0.89484 0.06635 0.51683 0.0
C475 C 0.85569 0.08131 0.50955 0.0
H476 H 0.3001 0.6712 0.12548 0.0
H477 H 0.22986 0.73023 0.22225 0.0
H478 H 0.16342 0.68654 0.19371 0.0
H479 H 0.12767 0.62435 0.14938 0.0
H480 H 0.1964 0.56193 0.05392 0.0
H481 H 0.26108 0.61445 0.07298 0.0
C482 C 0.26992 0.67537 0.13914 0.0
C483 C 0.26953 0.70392 0.17571 0.0
C484 C 0.2319 0.6491 0.12323 0.0
C485 C 0.2306 0.70864 0.1939 0.0
C486 C 0.19276 0.68346 0.17782 0.0
C487 C 0.15664 0.62287 0.1321 0.0
C488 C 0.15768 0.58929 0.10074 0.0
C489 C 0.19336 0.65249 0.14374 0.0
C490 C 0.19503 0.58768 0.07816 0.0
C491 C 0.23198 0.61748 0.08934 0.0
H492 H 0.25776 0.48241 0.57548 0.0
H493 H 0.26952 0.43967 0.70736 0.0
H494 H 0.34166 0.42474 0.69486 0.0
H495 H 0.40541 0.43843 0.65177 0.0
H496 H 0.39513 0.48459 0.5211 0.0
H497 H 0.31825 0.48255 0.52703 0.0
C498 C 0.27589 0.46883 0.60098 0.0
C499 C 0.25924 0.46334 0.64265 0.0
C500 C 0.31767 0.46136 0.59382 0.0
C501 C 0.28231 0.44493 0.67534 0.0
C502 C 0.32351 0.43655 0.66823 0.0
C503 C 0.38605 0.44673 0.6241 0.0
C504 C 0.4059 0.4623 0.58629 0.0
C505 C 0.34224 0.44683 0.62841 0.0
C506 C 0.38054 0.47242 0.55045 0.0
C507 C 0.33664 0.4718 0.55411 0.0
H508 H 0.89009 0.71553 0.98285 0.0
H509 H 0.98012 0.76936 0.89018 0.0
H510 H 0.03015 0.72181 0.91474 0.0
H511 H 0.04465 0.65977 0.95614 0.0
H512 H 0.95366 0.60229 0.04619 0.0
H513 H 0.90833 0.65739 0.03042 0.0
C514 C 0.92105 0.7174 0.96872 0.0
C515 C 0.93157 0.74619 0.93484 0.0
C516 C 0.94944 0.68937 0.98266 0.0
C517 C 0.97153 0.74785 0.91648 0.0
C518 C 1.00003 0.72056 0.93045 0.0
C519 C 0.01536 0.65983 0.97319 0.0
C520 C 1.00252 0.62668 1.00217 0.0
C521 C 0.98889 0.69053 0.96271 0.0
C522 C 0.96457 0.62748 0.02406 0.0
C523 C 0.93835 0.65869 0.01452 0.0
H524 H 0.36906 0.84212 0.16731 0.0
H525 H 0.46498 0.76559 0.20815 0.0
H526 H 0.51976 0.81557 0.17519 0.0
H527 H 0.53829 0.87364 0.12509 0.0
H528 H 0.44247 0.9459 0.07726 0.0
H529 H 0.3901 0.9067 0.12399 0.0
C530 C 0.40201 0.83661 0.16917 0.0
C531 C 0.41278 0.79993 0.18986 0.0
C532 C 0.43346 0.86526 0.14949 0.0
C533 C 0.45575 0.7936 0.19267 0.0
C534 C 0.48717 0.82216 0.17377 0.0
C535 C 0.50647 0.88221 0.12671 0.0
C536 C 0.49418 0.91311 0.09859 0.0
C537 C 0.47619 0.85735 0.15113 0.0
C538 C 0.45278 0.92338 0.09986 0.0
C539 C 0.42264 0.89998 0.12563 0.0
H540 H 0.07228 0.2948 0.64425 0.0
H541 H 0.20684 0.2928 0.63318 0.0
H542 H 0.1916 0.22093 0.59645 0.0
H543 H 0.14056 0.15467 0.57983 0.0
H544 H 0.00641 0.15534 0.59414 0.0
H545 H 0.02025 0.23256 0.61452 0.0
C546 C 0.09806 0.27863 0.6332 0.0
C547 C 0.14058 0.29815 0.64206 0.0
C548 C 0.08895 0.2376 0.61186 0.0
C549 C 0.17395 0.27774 0.6271 0.0
C550 C 0.1652 0.2369 0.60596 0.0
C551 C 0.1142 0.17246 0.58476 0.0
C552 C 0.07255 0.1496 0.58537 0.0
C553 C 0.12289 0.21601 0.59938 0.0
C554 C 0.03863 0.17252 0.5927 0.0
C555 C 0.04673 0.2164 0.60563 0.0
H556 H 0.63843 0.25376 0.54138 0.0
H557 H 0.60415 0.22247 0.40468 0.0
H558 H 0.56759 0.28551 0.40037 0.0
H559 H 0.54873 0.35086 0.43417 0.0
H560 H 0.58147 0.38303 0.57117 0.0
H561 H 0.61458 0.31767 0.57702 0.0
C562 C 0.62258 0.26066 0.51085 0.0
C563 C 0.62412 0.2338 0.47327 0.0
C564 C 0.60133 0.29686 0.50875 0.0
C565 C 0.60348 0.24288 0.43387 0.0
C566 C 0.58255 0.27881 0.43145 0.0
C567 C 0.56265 0.34353 0.46557 0.0
C568 C 0.56339 0.37243 0.502 0.0
C569 C 0.58168 0.3062 0.46854 0.0
C570 C 0.581 0.36179 0.54245 0.0
C571 C 0.60002 0.32442 0.54577 0.0
loop_
_geom_bond_atom_site_label_1
_geom_bond_atom_site_label_2
_geom_bond_distance
_geom_bond_site_symmetry_2
_ccdc_geom_bond_type
H0 C7 0.929 . S
H1 C10 0.930 . S
H2 C12 0.929 . S
H3 C4 0.969 . S
C4 H3 0.969 . S
C4 O5 1.550 . S
C4 H6 0.973 . S
O5 C4 1.550 . S
O5 C11 1.412 . S
H6 C4 0.973 . S
C7 H0 0.929 . S
C7 C8 1.400 . S
C7 C9 1.364 . S
C8 C7 1.400 . S
C8 C12 1.377 . S
C9 C7 1.364 . S
C9 C10 1.374 . S
C10 H1 0.930 . S
C10 C9 1.374 . S
C10 C11 1.383 . S
C11 O5 1.412 . S
C11 C10 1.383 . S
C11 C12 1.394 . S
C12 H2 0.929 . S
C12 C8 1.377 . S
C12 C11 1.394 . S
H13 C20 0.929 . S
H14 C23 0.930 . S
H15 C25 0.929 . S
H16 C17 0.969 . S
C17 H16 0.969 . S
C17 O18 1.550 . S
C17 H19 0.973 . S
O18 C17 1.550 . S
O18 C24 1.412 . S
H19 C17 0.973 . S
C20 H13 0.929 . S
C20 C21 1.400 . S
C20 C22 1.364 . S
C21 C20 1.400 . S
C21 C25 1.377 . S
C22 C20 1.364 . S
C22 C23 1.374 . S
C23 H14 0.930 . S
C23 C22 1.374 . S
C23 C24 1.383 . S
C24 O18 1.412 . S
C24 C23 1.383 . S
C24 C25 1.394 . S
C25 H15 0.929 . S
C25 C21 1.377 . S
C25 C24 1.394 . S
H26 C33 0.929 . S
H27 C36 0.930 . S
H28 C38 0.929 . S
H29 C30 0.969 . S
C30 H29 0.969 . S
C30 O31 1.550 . S
C30 H32 0.973 . S
O31 C30 1.550 . S
O31 C37 1.412 . S
H32 C30 0.973 . S
C33 H26 0.929 . S
C33 C34 1.400 . S
C33 C35 1.364 . S
C34 C33 1.400 . S
C34 C38 1.377 . S
C35 C33 1.364 . S
C35 C36 1.374 . S
C36 H27 0.930 . S
C36 C35 1.374 . S
C36 C37 1.383 . S
C37 O31 1.412 . S
C37 C36 1.383 . S
C37 C38 1.394 . S
C38 H28 0.929 . S
C38 C34 1.377 . S
C38 C37 1.394 . S
H39 C46 0.929 . S
H40 C49 0.930 . S
H41 C51 0.929 . S
H42 C43 0.969 . S
C43 H42 0.969 . S
C43 O44 1.550 . S
C43 H45 0.973 . S
O44 C43 1.550 . S
O44 C50 1.412 . S
H45 C43 0.973 . S
C46 H39 0.929 . S
C46 C47 1.400 . S
C46 C48 1.364 . S
C47 C46 1.400 . S
C47 C51 1.377 . S
C48 C46 1.364 . S
C48 C49 1.374 . S
C49 H40 0.930 . S
C49 C48 1.374 . S
C49 C50 1.383 . S
C50 O44 1.412 . S
C50 C49 1.383 . S
C50 C51 1.394 . S
C51 H41 0.929 . S
C51 C47 1.377 . S
C51 C50 1.394 . S
H52 C59 0.929 . S
H53 C62 0.930 . S
H54 C64 0.929 . S
H55 C56 0.969 . S
C56 H55 0.969 . S
C56 O57 1.550 . S
C56 H58 0.973 . S
O57 C56 1.550 . S
O57 C63 1.412 . S
H58 C56 0.973 . S
C59 H52 0.929 . S
C59 C60 1.400 . S
C59 C61 1.364 . S
C60 C59 1.400 . S
C60 C64 1.377 . S
C61 C59 1.364 . S
C61 C62 1.374 . S
C62 H53 0.930 . S
C62 C61 1.374 . S
C62 C63 1.383 . S
C63 O57 1.412 . S
C63 C62 1.383 . S
C63 C64 1.394 . S
C64 H54 0.929 . S
C64 C60 1.377 . S
C64 C63 1.394 . S
H65 C72 0.929 . S
H66 C75 0.930 . S
H67 C77 0.929 . S
H68 C69 0.969 . S
C69 H68 0.969 . S
C69 O70 1.550 . S
C69 H71 0.973 . S
O70 C69 1.550 . S
O70 C76 1.412 . S
H71 C69 0.973 . S
C72 H65 0.929 . S
C72 C73 1.400 . S
C72 C74 1.364 . S
C73 C72 1.400 . S
C73 C77 1.377 . S
C74 C72 1.364 . S
C74 C75 1.374 . S
C75 H66 0.930 . S
C75 C74 1.374 . S
C75 C76 1.383 . S
C76 O70 1.412 . S
C76 C75 1.383 . S
C76 C77 1.394 . S
C77 H67 0.929 . S
C77 C73 1.377 . S
C77 C76 1.394 . S
H78 C85 0.929 . S
H79 C88 0.930 . S
H80 C90 0.929 . S
H81 C82 0.969 . S
C82 H81 0.969 . S
C82 O83 1.550 . S
C82 H84 0.973 . S
O83 C82 1.550 . S
O83 C89 1.412 . S
H84 C82 0.973 . S
C85 H78 0.929 . S
C85 C86 1.400 . S
C85 C87 1.364 . S
C86 C85 1.400 . S
C86 C90 1.377 . S
C87 C85 1.364 . S
C87 C88 1.374 . S
C88 H79 0.930 . S
C88 C87 1.374 . S
C88 C89 1.383 . S
C89 O83 1.412 . S
C89 C88 1.383 . S
C89 C90 1.394 . S
C90 H80 0.929 . S
C90 C86 1.377 . S
C90 C89 1.394 . S
H91 C98 0.929 . S
H92 C101 0.930 . S
H93 C103 0.929 . S
H94 C95 0.969 . S
C95 H94 0.969 . S
C95 O96 1.550 . S
C95 H97 0.973 . S
O96 C95 1.550 . S
O96 C102 1.412 . S
H97 C95 0.973 . S
C98 H91 0.929 . S
C98 C99 1.400 . S
C98 C100 1.364 . S
C99 C98 1.400 . S
C99 C103 1.377 . S
C100 C98 1.364 . S
C100 C101 1.374 . S
C101 H92 0.930 . S
C101 C100 1.374 . S
C101 C102 1.383 . S
C102 O96 1.412 . S
C102 C101 1.383 . S
C102 C103 1.394 . S
C103 H93 0.929 . S
C103 C99 1.377 . S
C103 C102 1.394 . S
O104 Mn105 2.163 1_655 S
O104 C118 1.244 . S
Mn105 O104 2.163 1_455 S
Mn105 O108 2.160 1_545 S
Mn105 O109 2.221 . S
Mn105 O111 2.163 1_445 S
Mn105 O113 2.160 . S
Mn105 O123 2.221 1_445 S
O106 Mn107 2.087 1_545 S
O106 C118 1.256 . S
Mn107 O106 2.087 1_565 S
Mn107 O114 2.089 1_665 S
Mn107 O123 2.290 . S
Mn107 O124 2.251 . S
O108 Mn105 2.160 1_565 S
O108 C119 1.239 . S
O109 Mn105 2.221 . S
O109 Mn110 2.290 . S
O109 C120 1.278 . S
Mn110 O109 2.290 . S
Mn110 O112 2.089 . S
Mn110 O115 2.251 . S
Mn110 O116 2.087 . S
O111 Mn105 2.163 1_665 S
O111 C121 1.244 . S
O112 Mn110 2.089 . S
O112 C119 1.256 1_545 S
O113 Mn105 2.160 . S
O113 C122 1.239 . S
O114 Mn107 2.089 1_445 S
O114 C122 1.256 . S
O115 Mn110 2.251 . S
O115 C120 1.241 . S
O116 Mn110 2.087 . S
O116 C121 1.256 1_445 S
C117 O123 1.278 . S
C117 O124 1.241 . S
C118 O104 1.244 . S
C118 O106 1.256 . S
C119 O108 1.239 . S
C119 O112 1.256 1_565 S
C120 O109 1.278 . S
C120 O115 1.241 . S
C121 O111 1.244 . S
C121 O116 1.256 1_665 S
C122 O113 1.239 . S
C122 O114 1.256 . S
O123 Mn105 2.221 1_665 S
O123 Mn107 2.290 . S
O123 C117 1.278 . S
O124 Mn107 2.251 . S
O124 C117 1.241 . S
O125 Mn126 2.163 1_556 S
O125 C139 1.244 1_545 S
Mn126 O125 2.163 1_554 S
Mn126 O129 2.160 . S
Mn126 O130 2.221 1_554 S
Mn126 O132 2.163 . S
Mn126 O134 2.160 1_554 S
Mn126 O144 2.221 1_545 S
O127 Mn128 2.087 . S
O127 C139 1.256 . S
Mn128 O127 2.087 . S
Mn128 O135 2.089 . S
Mn128 O144 2.290 1_556 S
Mn128 O145 2.251 1_556 S
O129 Mn126 2.160 . S
O129 C140 1.239 . S
O130 Mn126 2.221 1_556 S
O130 Mn131 2.290 1_556 S
O130 C141 1.278 . S
Mn131 O130 2.290 1_554 S
Mn131 O133 2.089 . S
Mn131 O136 2.251 1_554 S
Mn131 O137 2.087 . S
O132 Mn126 2.163 . S
O132 C142 1.244 . S
O133 Mn131 2.089 . S
O133 C140 1.256 . S
O134 Mn126 2.160 1_556 S
O134 C143 1.239 1_545 S
O135 Mn128 2.089 . S
O135 C143 1.256 . S
O136 Mn131 2.251 1_556 S
O136 C141 1.241 . S
O137 Mn131 2.087 . S
O137 C142 1.256 . S
C138 O144 1.278 . S
C138 O145 1.241 . S
C139 O125 1.244 1_565 S
C139 O127 1.256 . S
C140 O129 1.239 . S
C140 O133 1.256 . S
C141 O130 1.278 . S
C141 O136 1.241 . S
C142 O132 1.244 . S
C142 O137 1.256 . S
C143 O134 1.239 1_565 S
C143 O135 1.256 . S
O144 Mn126 2.221 1_565 S
O144 Mn128 2.290 1_554 S
O144 C138 1.278 . S
O145 Mn128 2.251 1_554 S
O145 C138 1.241 . S
O146 Mn147 2.163 . S
O146 C160 1.244 . S
Mn147 O146 2.163 . S
Mn147 O150 2.160 . S
Mn147 O151 2.221 . S
Mn147 O153 2.163 . S
Mn147 O155 2.160 . S
Mn147 O165 2.221 . S
O148 Mn149 2.087 . S
O148 C160 1.256 . S
Mn149 O148 2.087 . S
Mn149 O156 2.089 . S
Mn149 O165 2.290 . S
Mn149 O166 2.251 . S
O150 Mn147 2.160 . S
O150 C161 1.239 . S
O151 Mn147 2.221 . S
O151 Mn152 2.290 . S
O151 C162 1.278 . S
Mn152 O151 2.290 . S
Mn152 O154 2.089 . S
Mn152 O157 2.251 . S
Mn152 O158 2.087 . S
O153 Mn147 2.163 . S
O153 C163 1.244 . S
O154 Mn152 2.089 . S
O154 C161 1.256 . S
O155 Mn147 2.160 . S
O155 C164 1.239 . S
O156 Mn149 2.089 . S
O156 C164 1.256 . S
O157 Mn152 2.251 . S
O157 C162 1.241 . S
O158 Mn152 2.087 . S
O158 C163 1.256 . S
C159 O165 1.278 . S
C159 O166 1.241 . S
C160 O146 1.244 . S
C160 O148 1.256 . S
C161 O150 1.239 . S
C161 O154 1.256 . S
C162 O151 1.278 . S
C162 O157 1.241 . S
C163 O153 1.244 . S
C163 O158 1.256 . S
C164 O155 1.239 . S
C164 O156 1.256 . S
O165 Mn147 2.221 . S
O165 Mn149 2.290 . S
O165 C159 1.278 . S
O166 Mn149 2.251 . S
O166 C159 1.241 . S
O167 Mn168 2.163 1_655 S
O167 C181 1.244 1_554 S
Mn168 O167 2.163 1_455 S
Mn168 O171 2.160 . S
Mn168 O172 2.221 . S
Mn168 O174 2.163 . S
Mn168 O176 2.160 . S
Mn168 O186 2.221 1_554 S
O169 Mn170 2.087 . S
O169 C181 1.256 . S
Mn170 O169 2.087 . S
Mn170 O177 2.089 . S
Mn170 O186 2.290 1_655 S
Mn170 O187 2.251 1_655 S
O171 Mn168 2.160 . S
O171 C182 1.239 . S
O172 Mn168 2.221 . S
O172 Mn173 2.290 . S
O172 C183 1.294 . S
Mn173 O172 2.290 . S
Mn173 O175 2.089 . S
Mn173 O178 2.251 . S
Mn173 O179 2.087 . S
O174 Mn168 2.163 . S
O174 C184 1.244 . S
O175 Mn173 2.089 . S
O175 C182 1.256 . S
O176 Mn168 2.160 . S
O176 C185 1.239 1_554 S
O177 Mn170 2.089 . S
O177 C185 1.256 1_655 S
O178 Mn173 2.251 . S
O178 C183 1.248 . S
O179 Mn173 2.087 . S
O179 C184 1.256 . S
C180 O186 1.278 . S
C180 O187 1.241 . S
C181 O167 1.244 1_556 S
C181 O169 1.256 . S
C182 O171 1.239 . S
C182 O175 1.256 . S
C183 O172 1.294 . S
C183 O178 1.248 . S
C184 O174 1.244 . S
C184 O179 1.256 . S
C185 O176 1.239 1_556 S
C185 O177 1.256 1_455 S
O186 Mn168 2.221 1_556 S
O186 Mn170 2.290 1_455 S
O186 C180 1.278 . S
O187 Mn170 2.251 1_455 S
O187 C180 1.241 . S
H188 C194 0.930 . S
H189 C197 0.930 . S
H190 C198 0.930 . S
H191 C199 0.930 . S
H192 C202 0.930 . S
H193 C203 0.930 . S
C194 H188 0.930 . S
C194 C195 1.355 . S
C194 C196 1.415 . S
C195 C194 1.355 . S
C195 C197 1.419 . S
C196 C194 1.415 . S
C196 C201 1.425 . S
C196 C203 1.409 . S
C197 H189 0.930 . S
C197 C195 1.419 . S
C197 C198 1.362 . S
C198 H190 0.930 . S
C198 C197 1.362 . S
C198 C201 1.409 . S
C199 H191 0.930 . S
C199 C200 1.355 . S
C199 C201 1.415 . S
C200 C199 1.355 . S
C200 C202 1.419 . S
C201 C196 1.425 . S
C201 C198 1.409 . S
C201 C199 1.415 . S
C202 H192 0.930 . S
C202 C200 1.419 . S
C202 C203 1.362 . S
C203 H193 0.930 . S
C203 C196 1.409 . S
C203 C202 1.362 . S
H204 C210 0.930 . S
H205 C213 0.930 . S
H206 C214 0.930 . S
H207 C215 0.930 . S
H208 C218 0.930 . S
H209 C219 0.930 . S
C210 H204 0.930 . S
C210 C211 1.355 . S
C210 C212 1.415 . S
C211 C210 1.355 . S
C211 C213 1.419 . S
C212 C210 1.415 . S
C212 C217 1.425 . S
C212 C219 1.409 . S
C213 H205 0.930 . S
C213 C211 1.419 . S
C213 C214 1.362 . S
C214 H206 0.930 . S
C214 C213 1.362 . S
C214 C217 1.409 . S
C215 H207 0.930 . S
C215 C216 1.355 . S
C215 C217 1.415 . S
C216 C215 1.355 . S
C216 C218 1.419 . S
C217 C212 1.425 . S
C217 C214 1.409 . S
C217 C215 1.415 . S
C218 H208 0.930 . S
C218 C216 1.419 . S
C218 C219 1.362 . S
C219 H209 0.930 . S
C219 C212 1.409 . S
C219 C218 1.362 . S
H220 C226 0.930 . S
H221 C229 0.930 . S
H222 C230 0.930 . S
H223 C231 0.930 . S
H224 C234 0.930 . S
H225 C235 0.930 . S
C226 H220 0.930 . S
C226 C227 1.355 . S
C226 C228 1.415 . S
C227 C226 1.355 . S
C227 C229 1.419 . S
C228 C226 1.415 . S
C228 C233 1.425 . S
C228 C235 1.409 . S
C229 H221 0.930 . S
C229 C227 1.419 . S
C229 C230 1.362 . S
C230 H222 0.930 . S
C230 C229 1.362 . S
C230 C233 1.409 . S
C231 H223 0.930 . S
C231 C232 1.355 . S
C231 C233 1.415 . S
C232 C231 1.355 . S
C232 C234 1.419 . S
C233 C228 1.425 . S
C233 C230 1.409 . S
C233 C231 1.415 . S
C234 H224 0.930 . S
C234 C232 1.419 . S
C234 C235 1.362 . S
C235 H225 0.930 . S
C235 C228 1.409 . S
C235 C234 1.362 . S
H236 C242 0.930 . S
H237 C245 0.930 1_455 S
H238 C246 0.930 . S
H239 C247 0.930 1_455 S
H240 C250 0.930 . S
H241 C251 0.930 . S
C242 H236 0.930 . S
C242 C243 1.355 . S
C242 C244 1.415 . S
C243 C242 1.355 . S
C243 C245 1.419 . S
C244 C242 1.415 . S
C244 C249 1.425 . S
C244 C251 1.409 . S
C245 H237 0.930 1_655 S
C245 C243 1.419 . S
C245 C246 1.362 1_655 S
C246 H238 0.930 . S
C246 C245 1.362 1_455 S
C246 C249 1.409 1_455 S
C247 H239 0.930 1_655 S
C247 C248 1.355 . S
C247 C249 1.415 . S
C248 C247 1.355 . S
C248 C250 1.419 . S
C249 C244 1.425 . S
C249 C246 1.409 1_655 S
C249 C247 1.415 . S
C250 H240 0.930 . S
C250 C248 1.419 . S
C250 C251 1.362 . S
C251 H241 0.930 . S
C251 C244 1.409 . S
C251 C250 1.362 . S
H252 C258 0.930 . S
H253 C261 0.930 . S
H254 C262 0.930 . S
H255 C263 0.930 . S
H256 C266 0.930 . S
H257 C267 0.930 . S
C258 H252 0.930 . S
C258 C259 1.355 . S
C258 C260 1.415 . S
C259 C258 1.355 . S
C259 C261 1.419 . S
C260 C258 1.415 . S
C260 C265 1.425 . S
C260 C267 1.409 . S
C261 H253 0.930 . S
C261 C259 1.419 . S
C261 C262 1.362 . S
C262 H254 0.930 . S
C262 C261 1.362 . S
C262 C265 1.409 . S
C263 H255 0.930 . S
C263 C264 1.355 . S
C263 C265 1.415 . S
C264 C263 1.355 . S
C264 C266 1.419 . S
C265 C260 1.425 . S
C265 C262 1.409 . S
C265 C263 1.415 . S
C266 H256 0.930 . S
C266 C264 1.419 . S
C266 C267 1.362 . S
C267 H257 0.930 . S
C267 C260 1.409 . S
C267 C266 1.362 . S
H268 C274 0.930 . S
H269 C277 0.930 . S
H270 C278 0.930 . S
H271 C279 0.930 . S
H272 C282 0.930 . S
H273 C283 0.937 . S
C274 H268 0.930 . S
C274 C275 1.355 . S
C274 C276 1.415 . S
C275 C274 1.355 . S
C275 C277 1.419 . S
C276 C274 1.415 . S
C276 C281 1.425 . S
C276 C283 1.401 1_565 S
C277 H269 0.930 . S
C277 C275 1.419 . S
C277 C278 1.362 . S
C278 H270 0.930 . S
C278 C277 1.362 . S
C278 C281 1.409 . S
C279 H271 0.930 . S
C279 C280 1.355 . S
C279 C281 1.415 . S
C280 C279 1.355 . S
C280 C282 1.419 1_565 S
C281 C276 1.425 . S
C281 C278 1.409 . S
C281 C279 1.415 . S
C282 H272 0.930 . S
C282 C280 1.419 1_545 S
C282 C283 1.364 . S
C283 H273 0.937 . S
C283 C276 1.401 1_545 S
C283 C282 1.364 . S
H284 C290 0.930 . S
H285 C293 0.930 . S
H286 C294 0.930 . S
H287 C295 0.930 . S
H288 C298 0.930 . S
H289 C299 0.930 . S
C290 H284 0.930 . S
C290 C291 1.355 . S
C290 C292 1.415 . S
C291 C290 1.355 . S
C291 C293 1.419 . S
C292 C290 1.415 . S
C292 C297 1.425 . S
C292 C299 1.409 1_556 S
C293 H285 0.930 . S
C293 C291 1.419 . S
C293 C294 1.362 . S
C294 H286 0.930 . S
C294 C293 1.362 . S
C294 C297 1.409 . S
C295 H287 0.930 . S
C295 C296 1.355 . S
C295 C297 1.415 . S
C296 C295 1.355 . S
C296 C298 1.419 1_556 S
C297 C292 1.425 . S
C297 C294 1.409 . S
C297 C295 1.415 . S
C298 H288 0.930 . S
C298 C296 1.419 1_554 S
C298 C299 1.362 . S
C299 H289 0.930 . S
C299 C292 1.409 1_554 S
C299 C298 1.362 . S
H300 C306 0.930 . S
H301 C309 0.930 . S
H302 C310 0.930 . S
H303 C311 0.930 . S
H304 C314 0.930 . S
H305 C315 0.930 . S
C306 H300 0.930 . S
C306 C307 1.355 . S
C306 C308 1.415 . S
C307 C306 1.355 . S
C307 C309 1.419 . S
C308 C306 1.415 . S
C308 C313 1.425 . S
C308 C315 1.409 . S
C309 H301 0.930 . S
C309 C307 1.419 . S
C309 C310 1.362 . S
C310 H302 0.930 . S
C310 C309 1.362 . S
C310 C313 1.409 . S
C311 H303 0.930 . S
C311 C312 1.355 . S
C311 C313 1.415 . S
C312 C311 1.355 . S
C312 C314 1.419 . S
C313 C308 1.425 . S
C313 C310 1.409 . S
C313 C311 1.415 . S
C314 H304 0.930 . S
C314 C312 1.419 . S
C314 C315 1.362 . S
C315 H305 0.930 . S
C315 C308 1.409 . S
C315 C314 1.362 . S
H316 C322 0.930 . S
H317 C325 0.930 . S
H318 C326 0.930 . S
H319 C327 0.930 . S
H320 C330 0.930 . S
H321 C331 0.930 . S
C322 H316 0.930 . S
C322 C323 1.355 . S
C322 C324 1.415 . S
C323 C322 1.355 . S
C323 C325 1.419 . S
C324 C322 1.415 . S
C324 C329 1.425 . S
C324 C331 1.409 . S
C325 H317 0.930 . S
C325 C323 1.419 . S
C325 C326 1.362 . S
C326 H318 0.930 . S
C326 C325 1.362 . S
C326 C329 1.409 . S
C327 H319 0.930 . S
C327 C328 1.355 . S
C327 C329 1.415 . S
C328 C327 1.355 . S
C328 C330 1.419 . S
C329 C324 1.425 . S
C329 C326 1.409 . S
C329 C327 1.415 . S
C330 H320 0.930 . S
C330 C328 1.419 . S
C330 C331 1.362 . S
C331 H321 0.930 . S
C331 C324 1.409 . S
C331 C330 1.362 . S
H332 C338 0.930 . S
H333 C341 0.930 . S
H334 C342 0.930 . S
H335 C343 0.930 . S
H336 C346 0.930 . S
H337 C347 0.930 . S
C338 H332 0.930 . S
C338 C339 1.355 . S
C338 C340 1.415 . S
C339 C338 1.355 . S
C339 C341 1.419 . S
C340 C338 1.415 . S
C340 C345 1.425 . S
C340 C347 1.409 . S
C341 H333 0.930 . S
C341 C339 1.419 . S
C341 C342 1.362 . S
C342 H334 0.930 . S
C342 C341 1.362 . S
C342 C345 1.409 . S
C343 H335 0.930 . S
C343 C344 1.355 . S
C343 C345 1.415 . S
C344 C343 1.355 . S
C344 C346 1.419 . S
C345 C340 1.425 . S
C345 C342 1.409 . S
C345 C343 1.415 . S
C346 H336 0.930 . S
C346 C344 1.419 . S
C346 C347 1.362 . S
C347 H337 0.930 . S
C347 C340 1.409 . S
C347 C346 1.362 . S
H348 C354 0.930 . S
H349 C357 0.930 . S
H350 C358 0.930 1_455 S
H351 C359 0.930 1_455 S
H352 C362 0.930 . S
H353 C363 0.930 . S
C354 H348 0.930 . S
C354 C355 1.355 . S
C354 C356 1.415 . S
C355 C354 1.355 . S
C355 C357 1.419 . S
C356 C354 1.415 . S
C356 C361 1.425 . S
C356 C363 1.409 . S
C357 H349 0.930 . S
C357 C355 1.419 . S
C357 C358 1.362 . S
C358 H350 0.930 1_655 S
C358 C357 1.362 . S
C358 C361 1.409 . S
C359 H351 0.930 1_655 S
C359 C360 1.355 . S
C359 C361 1.415 . S
C360 C359 1.355 . S
C360 C362 1.419 . S
C361 C356 1.425 . S
C361 C358 1.409 . S
C361 C359 1.415 . S
C362 H352 0.930 . S
C362 C360 1.419 . S
C362 C363 1.362 . S
C363 H353 0.930 . S
C363 C356 1.409 . S
C363 C362 1.362 . S
H364 C370 0.930 . S
H365 C373 0.930 . S
H366 C374 0.930 . S
H367 C375 0.930 . S
H368 C378 0.930 . S
H369 C379 0.930 . S
C370 H364 0.930 . S
C370 C371 1.355 . S
C370 C372 1.415 . S
C371 C370 1.355 . S
C371 C373 1.419 . S
C372 C370 1.415 . S
C372 C377 1.425 . S
C372 C379 1.409 . S
C373 H365 0.930 . S
C373 C371 1.419 . S
C373 C374 1.362 . S
C374 H366 0.930 . S
C374 C373 1.362 . S
C374 C377 1.409 . S
C375 H367 0.930 . S
C375 C376 1.355 . S
C375 C377 1.415 . S
C376 C375 1.355 . S
C376 C378 1.419 . S
C377 C372 1.425 . S
C377 C374 1.409 . S
C377 C375 1.415 . S
C378 H368 0.930 . S
C378 C376 1.419 . S
C378 C379 1.362 . S
C379 H369 0.930 . S
C379 C372 1.409 . S
C379 C378 1.362 . S
H380 C386 0.930 . S
H381 C389 0.930 . S
H382 C390 0.930 . S
H383 C391 0.930 . S
H384 C394 0.930 . S
H385 C395 0.930 . S
C386 H380 0.930 . S
C386 C387 1.355 . S
C386 C388 1.415 . S
C387 C386 1.355 . S
C387 C389 1.419 . S
C388 C386 1.415 . S
C388 C393 1.425 . S
C388 C395 1.409 1_655 S
C389 H381 0.930 . S
C389 C387 1.419 . S
C389 C390 1.362 . S
C390 H382 0.930 . S
C390 C389 1.362 . S
C390 C393 1.409 . S
C391 H383 0.930 . S
C391 C392 1.355 . S
C391 C393 1.415 . S
C392 C391 1.355 . S
C392 C394 1.419 1_655 S
C393 C388 1.425 . S
C393 C390 1.409 . S
C393 C391 1.415 . S
C394 H384 0.930 . S
C394 C392 1.419 1_455 S
C394 C395 1.362 . S
C395 H385 0.930 . S
C395 C388 1.409 1_455 S
C395 C394 1.362 . S
H396 C402 0.930 . S
H397 C405 0.930 . S
H398 C406 0.930 . S
H399 C407 0.930 . S
H400 C410 0.930 1_565 S
H401 C411 0.930 . S
C402 H396 0.930 . S
C402 C403 1.355 . S
C402 C404 1.415 . S
C403 C402 1.355 . S
C403 C405 1.419 . S
C404 C402 1.415 . S
C404 C409 1.425 . S
C404 C411 1.409 . S
C405 H397 0.930 . S
C405 C403 1.419 . S
C405 C406 1.362 . S
C406 H398 0.930 . S
C406 C405 1.362 . S
C406 C409 1.409 . S
C407 H399 0.930 . S
C407 C408 1.355 . S
C407 C409 1.415 . S
C408 C407 1.355 . S
C408 C410 1.419 . S
C409 C404 1.425 . S
C409 C406 1.409 . S
C409 C407 1.415 . S
C410 H400 0.930 1_545 S
C410 C408 1.419 . S
C410 C411 1.362 . S
C411 H401 0.930 . S
C411 C404 1.409 . S
C411 C410 1.362 . S
H412 C418 0.930 . S
H413 C421 0.930 . S
H414 C422 0.930 . S
H415 C423 0.930 . S
H416 C426 0.930 . S
H417 C427 0.930 . S
C418 H412 0.930 . S
C418 C419 1.355 . S
C418 C420 1.415 . S
C419 C418 1.355 . S
C419 C421 1.419 . S
C420 C418 1.415 . S
C420 C425 1.425 . S
C420 C427 1.409 . S
C421 H413 0.930 . S
C421 C419 1.419 . S
C421 C422 1.362 . S
C422 H414 0.930 . S
C422 C421 1.362 . S
C422 C425 1.409 . S
C423 H415 0.930 . S
C423 C424 1.355 . S
C423 C425 1.415 . S
C424 C423 1.355 . S
C424 C426 1.419 . S
C425 C420 1.425 . S
C425 C422 1.409 . S
C425 C423 1.415 . S
C426 H416 0.930 . S
C426 C424 1.419 . S
C426 C427 1.362 . S
C427 H417 0.930 . S
C427 C420 1.409 . S
C427 C426 1.362 . S
H428 C434 0.930 . S
H429 C437 0.930 . S
H430 C438 0.930 . S
H431 C439 0.930 . S
H432 C442 0.930 . S
H433 C443 0.930 . S
C434 H428 0.930 . S
C434 C435 1.355 . S
C434 C436 1.415 . S
C435 C434 1.355 . S
C435 C437 1.419 . S
C436 C434 1.415 . S
C436 C441 1.425 . S
C436 C443 1.409 . S
C437 H429 0.930 . S
C437 C435 1.419 . S
C437 C438 1.362 . S
C438 H430 0.930 . S
C438 C437 1.362 . S
C438 C441 1.409 . S
C439 H431 0.930 . S
C439 C440 1.355 . S
C439 C441 1.415 . S
C440 C439 1.355 . S
C440 C442 1.419 . S
C441 C436 1.425 . S
C441 C438 1.409 . S
C441 C439 1.415 . S
C442 H432 0.930 . S
C442 C440 1.419 . S
C442 C443 1.362 . S
C443 H433 0.930 . S
C443 C436 1.409 . S
C443 C442 1.362 . S
H444 C450 0.930 . S
H445 C453 0.930 . S
H446 C454 0.930 . S
H447 C455 0.930 . S
H448 C458 0.930 1_544 S
H449 C459 0.930 1_545 S
C450 H444 0.930 . S
C450 C451 1.355 . S
C450 C452 1.415 . S
C451 C450 1.355 . S
C451 C453 1.419 . S
C452 C450 1.415 . S
C452 C457 1.425 . S
C452 C459 1.409 . S
C453 H445 0.930 . S
C453 C451 1.419 . S
C453 C454 1.362 . S
C454 H446 0.930 . S
C454 C453 1.362 . S
C454 C457 1.409 . S
C455 H447 0.930 . S
C455 C456 1.355 . S
C455 C457 1.415 . S
C456 C455 1.355 . S
C456 C458 1.419 . S
C457 C452 1.425 . S
C457 C454 1.409 . S
C457 C455 1.415 . S
C458 H448 0.930 1_566 S
C458 C456 1.419 . S
C458 C459 1.362 . S
C459 H449 0.930 1_565 S
C459 C452 1.409 . S
C459 C458 1.362 . S
H460 C466 0.930 . S
H461 C469 0.930 . S
H462 C470 0.930 . S
H463 C471 0.930 . S
H464 C474 0.930 . S
H465 C475 0.930 . S
C466 H460 0.930 . S
C466 C467 1.355 . S
C466 C468 1.415 . S
C467 C466 1.355 . S
C467 C469 1.419 . S
C468 C466 1.415 . S
C468 C473 1.425 . S
C468 C475 1.409 . S
C469 H461 0.930 . S
C469 C467 1.419 . S
C469 C470 1.362 . S
C470 H462 0.930 . S
C470 C469 1.362 . S
C470 C473 1.409 . S
C471 H463 0.930 . S
C471 C472 1.355 . S
C471 C473 1.415 . S
C472 C471 1.355 . S
C472 C474 1.419 . S
C473 C468 1.425 . S
C473 C470 1.409 . S
C473 C471 1.415 . S
C474 H464 0.930 . S
C474 C472 1.419 . S
C474 C475 1.362 . S
C475 H465 0.930 . S
C475 C468 1.409 . S
C475 C474 1.362 . S
H476 C482 0.930 . S
H477 C485 0.930 . S
H478 C486 0.930 . S
H479 C487 0.930 . S
H480 C490 0.930 . S
H481 C491 0.930 . S
C482 H476 0.930 . S
C482 C483 1.355 . S
C482 C484 1.415 . S
C483 C482 1.355 . S
C483 C485 1.419 . S
C484 C482 1.415 . S
C484 C489 1.425 . S
C484 C491 1.409 . S
C485 H477 0.930 . S
C485 C483 1.419 . S
C485 C486 1.362 . S
C486 H478 0.930 . S
C486 C485 1.362 . S
C486 C489 1.409 . S
C487 H479 0.930 . S
C487 C488 1.355 . S
C487 C489 1.415 . S
C488 C487 1.355 . S
C488 C490 1.419 . S
C489 C484 1.425 . S
C489 C486 1.409 . S
C489 C487 1.415 . S
C490 H480 0.930 . S
C490 C488 1.419 . S
C490 C491 1.362 . S
C491 H481 0.930 . S
C491 C484 1.409 . S
C491 C490 1.362 . S
H492 C498 0.930 . S
H493 C501 0.930 . S
H494 C502 0.930 . S
H495 C503 0.930 . S
H496 C506 0.930 . S
H497 C507 0.930 . S
C498 H492 0.930 . S
C498 C499 1.355 . S
C498 C500 1.415 . S
C499 C498 1.355 . S
C499 C501 1.419 . S
C500 C498 1.415 . S
C500 C505 1.425 . S
C500 C507 1.409 . S
C501 H493 0.930 . S
C501 C499 1.419 . S
C501 C502 1.362 . S
C502 H494 0.930 . S
C502 C501 1.362 . S
C502 C505 1.409 . S
C503 H495 0.930 . S
C503 C504 1.355 . S
C503 C505 1.415 . S
C504 C503 1.355 . S
C504 C506 1.419 . S
C505 C500 1.425 . S
C505 C502 1.409 . S
C505 C503 1.415 . S
C506 H496 0.930 . S
C506 C504 1.419 . S
C506 C507 1.362 . S
C507 H497 0.930 . S
C507 C500 1.409 . S
C507 C506 1.362 . S
H508 C514 0.930 . S
H509 C517 0.930 1_455 S
H510 C518 0.930 . S
H511 C519 0.930 . S
H512 C522 0.930 1_554 S
H513 C523 0.930 . S
C514 H508 0.930 . S
C514 C515 1.355 . S
C514 C516 1.415 . S
C515 C514 1.355 . S
C515 C517 1.419 . S
C516 C514 1.415 . S
C516 C521 1.425 . S
C516 C523 1.409 . S
C517 H509 0.930 1_655 S
C517 C515 1.419 . S
C517 C518 1.362 1_655 S
C518 H510 0.930 . S
C518 C517 1.362 1_455 S
C518 C521 1.409 1_455 S
C519 H511 0.930 . S
C519 C520 1.355 1_455 S
C519 C521 1.415 1_455 S
C520 C519 1.355 1_655 S
C520 C522 1.419 . S
C521 C516 1.425 . S
C521 C518 1.409 1_655 S
C521 C519 1.415 1_655 S
C522 H512 0.930 1_556 S
C522 C520 1.419 . S
C522 C523 1.362 . S
C523 H513 0.930 . S
C523 C516 1.409 . S
C523 C522 1.362 . S
H524 C530 0.930 . S
H525 C533 0.930 . S
H526 C534 0.930 . S
H527 C535 0.930 . S
H528 C538 0.930 . S
H529 C539 0.930 . S
C530 H524 0.930 . S
C530 C531 1.355 . S
C530 C532 1.415 . S
C531 C530 1.355 . S
C531 C533 1.419 . S
C532 C530 1.415 . S
C532 C537 1.425 . S
C532 C539 1.409 . S
C533 H525 0.930 . S
C533 C531 1.419 . S
C533 C534 1.362 . S
C534 H526 0.930 . S
C534 C533 1.362 . S
C534 C537 1.409 . S
C535 H527 0.930 . S
C535 C536 1.355 . S
C535 C537 1.415 . S
C536 C535 1.355 . S
C536 C538 1.419 . S
C537 C532 1.425 . S
C537 C534 1.409 . S
C537 C535 1.415 . S
C538 H528 0.930 . S
C538 C536 1.419 . S
C538 C539 1.362 . S
C539 H529 0.930 . S
C539 C532 1.409 . S
C539 C538 1.362 . S
H540 C546 0.930 . S
H541 C549 0.930 . S
H542 C550 0.930 . S
H543 C551 0.930 . S
H544 C554 0.930 1_655 S
H545 C555 0.930 1_655 S
C546 H540 0.930 . S
C546 C547 1.355 . S
C546 C548 1.415 . S
C547 C546 1.355 . S
C547 C549 1.419 . S
C548 C546 1.415 . S
C548 C553 1.425 . S
C548 C555 1.409 . S
C549 H541 0.930 . S
C549 C547 1.419 . S
C549 C550 1.362 . S
C550 H542 0.930 . S
C550 C549 1.362 . S
C550 C553 1.409 . S
C551 H543 0.930 . S
C551 C552 1.355 . S
C551 C553 1.415 . S
C552 C551 1.355 . S
C552 C554 1.419 . S
C553 C548 1.425 . S
C553 C550 1.409 . S
C553 C551 1.415 . S
C554 H544 0.930 1_455 S
C554 C552 1.419 . S
C554 C555 1.362 . S
C555 H545 0.930 1_455 S
C555 C548 1.409 . S
C555 C554 1.362 . S
H556 C562 0.930 . S
H557 C565 0.930 . S
H558 C566 0.930 . S
H559 C567 0.930 . S
H560 C570 0.930 . S
H561 C571 0.930 . S
C562 H556 0.930 . S
C562 C563 1.355 . S
C562 C564 1.415 . S
C563 C562 1.355 . S
C563 C565 1.419 . S
C564 C562 1.415 . S
C564 C569 1.425 . S
C564 C571 1.409 . S
C565 H557 0.930 . S
C565 C563 1.419 . S
C565 C566 1.362 . S
C566 H558 0.930 . S
C566 C565 1.362 . S
C566 C569 1.409 . S
C567 H559 0.930 . S
C567 C568 1.355 . S
C567 C569 1.415 . S
C568 C567 1.355 . S
C568 C570 1.419 . S
C569 C564 1.425 . S
C569 C566 1.409 . S
C569 C567 1.415 . S
C570 H560 0.930 . S
C570 C568 1.419 . S
C570 C571 1.362 . S
C571 H561 0.930 . S
C571 C564 1.409 . S
C571 C570 1.362 . S
C195 C9 1.909 . S
C200 C122 1.882 . S
C211 C21 1.530 . S
C216 C139 1.476 . S
C232 C162 1.141 . S
C227 C30 1.246 . S
C243 C43 1.488 . S
C248 C183 1.327 1_655 S
C264 C142 1.570 . S
C259 C4 1.581 . S
C280 C119 2.016 . S
C275 C22 2.057 . S
C296 C181 1.126 . S
C291 C34 1.137 . S
C312 C160 1.315 . S
C307 C48 1.290 . S
C323 C8 1.752 . S
C328 C184 1.663 . S
C344 C141 1.344 . S
C339 C35 1.650 . S
C355 C47 1.692 . S
C360 C117 1.511 . S
C371 C17 1.397 . S
C376 C163 1.379 . S
C392 C121 1.545 . S
C387 C60 1.610 . S
C403 C74 1.585 . S
C408 C140 1.573 . S
C419 C82 1.131 . S
C424 C159 0.959 . S
C435 C100 1.885 . S
C440 C180 1.584 . S
C451 C61 1.948 . S
C456 C143 1.926 . S
C472 C118 1.661 . S
C467 C73 1.726 . S
C488 C182 1.347 . S
C483 C87 1.408 . S
C504 C161 1.213 . S
C499 C95 1.147 . S
C515 C56 1.564 . S
C520 C185 1.549 1_655 S
C536 C138 1.328 . S
C531 C86 1.561 . S
C552 C120 1.293 . S
C547 C99 1.418 . S
C563 C69 1.324 . S
C568 C164 1.325 . S
