# Generated by pormake.
# Topology zzz, (3,6)-cn, num edge types: 1
# Building blocks:
#     Node 0, Type 0, BuildingBlock: QEWDON_clean_linker_0, # of connection points: 3
#     Node 1, Type 0, BuildingBlock: QEWDON_clean_linker_0, # of connection points: 3
#     Node 2, Type 0, BuildingBlock: QEWDON_clean_linker_0, # of connection points: 3
#     Node 3, Type 0, BuildingBlock: QEWDON_clean_linker_0, # of connection points: 3
#     Node 4, Type 0, BuildingBlock: QEWDON_clean_linker_0, # of connection points: 3
#     Node 5, Type 0, BuildingBlock: QEWDON_clean_linker_0, # of connection points: 3
#     Node 6, Type 0, BuildingBlock: QEWDON_clean_linker_0, # of connection points: 3
#     Node 7, Type 0, BuildingBlock: QEWDON_clean_linker_0, # of connection points: 3
#     Node 8, Type 1, BuildingBlock: PAMTUU_clean_sbu_0, # of connection points: 6
#     Node 9, Type 1, BuildingBlock: PAMTUU_clean_sbu_0, # of connection points: 6
#     Node 10, Type 1, BuildingBlock: PAMTUU_clean_sbu_0, # of connection points: 6
#     Node 11, Type 1, BuildingBlock: PAMTUU_clean_sbu_0, # of connection points: 6
#     Edge 12, Type (0, 1), BuildingBlock: CIFDUS_clean_linker_0, # of connection points: 2
#     Edge 13, Type (0, 1), BuildingBlock: CIFDUS_clean_linker_0, # of connection points: 2
#     Edge 14, Type (0, 1), BuildingBlock: CIFDUS_clean_linker_0, # of connection points: 2
#     Edge 15, Type (0, 1), BuildingBlock: CIFDUS_clean_linker_0, # of connection points: 2
#     Edge 16, Type (0, 1), BuildingBlock: CIFDUS_clean_linker_0, # of connection points: 2
#     Edge 17, Type (0, 1), BuildingBlock: CIFDUS_clean_linker_0, # of connection points: 2
#     Edge 18, Type (0, 1), BuildingBlock: CIFDUS_clean_linker_0, # of connection points: 2
#     Edge 19, Type (0, 1), BuildingBlock: CIFDUS_clean_linker_0, # of connection points: 2
#     Edge 20, Type (0, 1), BuildingBlock: CIFDUS_clean_linker_0, # of connection points: 2
#     Edge 21, Type (0, 1), BuildingBlock: CIFDUS_clean_linker_0, # of connection points: 2
#     Edge 22, Type (0, 1), BuildingBlock: CIFDUS_clean_linker_0, # of connection points: 2
#     Edge 23, Type (0, 1), BuildingBlock: CIFDUS_clean_linker_0, # of connection points: 2
#     Edge 24, Type (0, 1), BuildingBlock: CIFDUS_clean_linker_0, # of connection points: 2
#     Edge 25, Type (0, 1), BuildingBlock: CIFDUS_clean_linker_0, # of connection points: 2
#     Edge 26, Type (0, 1), BuildingBlock: CIFDUS_clean_linker_0, # of connection points: 2
#     Edge 27, Type (0, 1), BuildingBlock: CIFDUS_clean_linker_0, # of connection points: 2
#     Edge 28, Type (0, 1), BuildingBlock: CIFDUS_clean_linker_0, # of connection points: 2
#     Edge 29, Type (0, 1), BuildingBlock: CIFDUS_clean_linker_0, # of connection points: 2
#     Edge 30, Type (0, 1), BuildingBlock: CIFDUS_clean_linker_0, # of connection points: 2
#     Edge 31, Type (0, 1), BuildingBlock: CIFDUS_clean_linker_0, # of connection points: 2
#     Edge 32, Type (0, 1), BuildingBlock: CIFDUS_clean_linker_0, # of connection points: 2
#     Edge 33, Type (0, 1), BuildingBlock: CIFDUS_clean_linker_0, # of connection points: 2
#     Edge 34, Type (0, 1), BuildingBlock: CIFDUS_clean_linker_0, # of connection points: 2
#     Edge 35, Type (0, 1), BuildingBlock: CIFDUS_clean_linker_0, # of connection points: 2
# Relax obj value: 0.152
# Max RMSD: 0.215
# Mean RMSD: 0.080
data_MOF--net-zzz--node1-PAMTUU_clean_sbu_0--node2-QEWDON_clean_linker_0--edge1-CIFDUS_clean_linker_0
_symmetry_space_group_name_H-M    P1
_symmetry_Int_Tables_number       1
_symmetry_cell_setting            triclinic
loop_
_symmetry_equiv_pos_as_xyz
'x, y, z'
_cell_length_a     46.976036
_cell_length_b     51.108837
_cell_length_c     13.580929
_cell_angle_alpha  102.00162
_cell_angle_beta   90.472035
_cell_angle_gamma 90.92262
loop_
_atom_site_label
_atom_site_type_symbol
_atom_site_fract_x
_atom_site_fract_y
_atom_site_fract_z
_atom_type_partial_charge
H0 H 0.77058 0.47236 0.37603 0.0
C1 C 0.78721 0.48115 0.42886 0.0
C2 C 0.81194 0.4665 0.43394 0.0
C3 C 0.78387 0.50661 0.49167 0.0
H4 H 0.85305 0.46624 0.5048 0.0
C5 C 0.83343 0.47709 0.50362 0.0
C6 C 0.83136 0.50231 0.56659 0.0
C7 C 0.80664 0.51734 0.55948 0.0
C8 C 0.75604 0.52089 0.48952 0.0
H9 H 0.80519 0.5371 0.60687 0.0
C10 C 0.73853 0.51743 0.40113 0.0
C11 C 0.71088 0.52831 0.40453 0.0
C12 C 0.74557 0.53648 0.57928 0.0
H13 H 0.75767 0.53926 0.64892 0.0
C14 C 0.7187 0.54784 0.58203 0.0
H15 H 0.74595 0.50588 0.33031 0.0
C16 C 0.70141 0.54361 0.49605 0.0
H17 H 0.68051 0.55243 0.50105 0.0
H18 H 0.71098 0.55961 0.65201 0.0
H19 H 0.0403 0.75024 0.29799 0.0
C20 C 1.02906 0.7673 0.33941 0.0
C21 C 1.03442 0.79245 0.31689 0.0
C22 C 1.00998 0.76463 0.41725 0.0
H23 H 1.0257 0.83442 0.35467 0.0
C24 C 1.02093 0.81492 0.37125 0.0
C25 C 1.00279 0.81308 0.45006 0.0
C26 C 0.99711 0.78799 0.47277 0.0
C27 C 1.00366 0.73782 0.44151 0.0
H28 H 0.98253 0.78693 0.53313 0.0
C29 C 1.00437 0.7141 0.36638 0.0
C30 C 0.99755 0.68888 0.38832 0.0
C31 C 0.99654 0.73573 0.54016 0.0
H32 H 0.99681 0.75308 0.60136 0.0
C33 C 0.9891 0.71108 0.56201 0.0
H34 H 1.0103 0.71526 0.29073 0.0
C35 C 0.98927 0.68792 0.48691 0.0
H36 H 0.98279 0.66927 0.50667 0.0
H37 H 0.9832 0.70991 0.63789 0.0
H38 H 0.80233 0.04059 0.39758 0.0
C39 C 0.7889 0.03533 0.45504 0.0
C40 C 0.76502 0.0511 0.4852 0.0
C41 C 0.79398 0.0119 0.49174 0.0
H42 H 0.72684 0.0549 0.57369 0.0
C43 C 0.74622 0.04377 0.55501 0.0
C44 C 0.74969 0.02034 0.59089 0.0
C45 C 0.77382 1.00459 0.56027 0.0
C46 C 0.81827 0.99386 0.44919 0.0
H47 H 0.77635 0.98662 0.58938 0.0
C48 C 0.84289 1.00342 0.40494 0.0
C49 C 0.86365 0.98551 0.35581 0.0
C50 C 0.81597 0.96613 0.44571 0.0
H51 H 0.79753 0.95736 0.47418 0.0
C52 C 0.83697 0.94873 0.40155 0.0
H53 H 0.84576 0.02452 0.40604 0.0
C54 C 0.86042 0.95821 0.35668 0.0
H55 H 0.87607 0.94399 0.3216 0.0
H56 H 0.8347 0.92753 0.39998 0.0
H57 H 0.54187 0.73792 0.06787 0.0
C58 C 0.53873 0.74 0.14802 0.0
C59 C 0.52522 0.7192 0.1855 0.0
C60 C 0.55097 0.76236 0.21544 0.0
H61 H 0.50877 0.70855 0.31957 0.0
C62 C 0.52087 0.72331 0.28956 0.0
C63 C 0.53875 0.741 0.35516 0.0
C64 C 0.55311 0.76136 0.31854 0.0
C65 C 0.56822 0.7825 0.17582 0.0
H66 H 0.56737 0.77509 0.36803 0.0
C67 C 0.55721 0.80737 0.16359 0.0
C68 C 0.57454 0.82566 0.12382 0.0
C69 C 0.59652 0.7764 0.14994 0.0
H70 H 0.60536 0.75758 0.15905 0.0
C71 C 0.61371 0.79444 0.11249 0.0
H72 H 0.53531 0.81218 0.18302 0.0
C73 C 0.60291 0.81875 0.09949 0.0
H74 H 0.61699 0.83235 0.07084 0.0
H75 H 0.63558 0.78953 0.09328 0.0
H76 H 0.31075 0.47589 0.34846 0.0
C77 C 0.29503 0.48129 0.29776 0.0
C78 C 0.26671 0.47356 0.30692 0.0
C79 C 0.30305 0.49554 0.2237 0.0
H80 H 0.22397 0.47446 0.24953 0.0
C81 C 0.24604 0.48003 0.24116 0.0
C82 C 0.25251 0.49498 0.16888 0.0
C83 C 0.28142 0.50238 0.15875 0.0
C84 C 0.33418 0.50182 0.213 0.0
H85 H 0.28683 0.51394 0.10296 0.0
C86 C 0.35341 0.50705 0.29722 0.0
C87 C 0.38321 0.50983 0.28424 0.0
C88 C 0.34534 0.50023 0.11642 0.0
H89 H 0.33166 0.49579 0.05027 0.0
C90 C 0.37451 0.50297 0.10296 0.0
H91 H 0.34523 0.50914 0.37266 0.0
C92 C 0.39323 0.50734 0.18518 0.0
H93 H 0.41578 0.50829 0.17023 0.0
H94 H 0.38279 0.5011 0.0277 0.0
H95 H 1.02529 0.27038 0.41608 0.0
C96 C 1.03245 0.25503 0.35416 0.0
C97 C 1.03853 0.22966 0.3715 0.0
C98 C 1.03408 0.26004 0.25602 0.0
H99 H 0.04958 0.18939 0.30526 0.0
C100 C 0.04644 0.20934 0.2915 0.0
C101 C 0.04679 0.21331 0.19283 0.0
C102 C 0.04074 0.2388 0.17507 0.0
C103 C 1.02643 0.28682 0.23803 0.0
H104 H 0.04083 0.2419 0.09854 0.0
C105 C 1.03543 0.31037 0.30584 0.0
C106 C 1.02645 0.33574 0.29373 0.0
C107 C 1.00891 0.28895 0.15585 0.0
H108 H 1.00126 0.27127 0.10329 0.0
C109 C 1.00017 0.31394 0.14257 0.0
H110 H 0.0496 0.30883 0.3676 0.0
C111 C 1.00858 0.33711 0.21114 0.0
H112 H 1.00049 0.35603 0.20024 0.0
H113 H 0.98632 0.31533 0.07983 0.0
H114 H 0.27272 0.04372 0.39475 0.0
C115 C 0.28795 0.03651 0.33651 0.0
C116 C 0.31568 0.04699 0.3495 0.0
C117 C 0.28009 0.01688 0.25088 0.0
H118 H 0.3576 0.0457 0.28604 0.0
C119 C 0.33569 0.03871 0.27382 0.0
C120 C 0.32907 0.01997 0.18592 0.0
C121 C 0.30118 1.00846 0.17544 0.0
C122 C 0.24964 1.00644 0.24088 0.0
H123 H 0.2961 0.9932 0.10934 0.0
C124 C 0.23226 1.00614 0.32669 0.0
C125 C 0.20271 0.99987 0.31631 0.0
C126 C 0.23689 0.99874 0.14494 0.0
H127 H 0.24886 0.99904 0.07746 0.0
C128 C 0.20805 0.99158 0.13427 0.0
H129 H 0.24134 0.01136 0.4018 0.0
C130 C 0.19109 0.99243 0.2187 0.0
H131 H 0.16873 0.98718 0.20761 0.0
H132 H 0.19859 0.98586 0.05977 0.0
H133 H 0.57048 0.27681 0.70758 0.0
C134 C 0.55984 0.28047 0.64079 0.0
C135 C 0.55344 0.30693 0.63369 0.0
C136 C 0.55407 0.25902 0.55782 0.0
H137 H 0.53512 0.33199 0.54219 0.0
C138 C 0.5402 0.3116 0.54698 0.0
C139 C 0.53493 0.29112 0.46376 0.0
C140 C 0.54162 0.26475 0.46897 0.0
C141 C 0.56469 0.2314 0.55631 0.0
H142 H 0.53808 0.24893 0.40309 0.0
C143 C 0.55868 0.21695 0.63292 0.0
C144 C 0.56886 0.19055 0.62485 0.0
C145 C 0.58128 0.21919 0.47421 0.0
H146 H 0.58665 0.22974 0.41525 0.0
C147 C 0.59145 0.19342 0.4671 0.0
H148 H 0.54593 0.22589 0.69681 0.0
C149 C 0.58526 0.1792 0.54145 0.0
H150 H 0.59331 0.15912 0.5338 0.0
H151 H 0.6042 0.18439 0.40337 0.0
Tb152 Tb 1.01185 0.01855 0.78105 0.0
Tb153 Tb 0.05804 0.99978 0.93239 0.0
C154 C 0.99179 1.00251 0.97977 0.0
C155 C 0.98001 0.06576 0.65234 0.0
C156 C 0.98349 0.11892 0.62434 0.0
C157 C 0.96391 0.10029 0.5677 0.0
C158 C 0.96198 0.07396 0.58246 0.0
C159 C 0.99964 0.08406 0.70766 0.0
C160 C 1.00089 0.11045 0.69602 0.0
C161 C 0.97876 0.03844 0.67055 0.0
O162 O 1.02213 0.05301 0.90077 0.0
O163 O 0.06674 0.04219 0.94553 0.0
O164 O 0.07844 0.99543 0.78487 0.0
O165 O 0.05383 0.02737 0.72759 0.0
O166 O 0.0726 0.99712 0.07707 0.0
O167 O 0.09655 0.98051 0.94534 0.0
O168 O 1.03351 0.96404 0.86874 0.0
O169 O 1.01548 0.97543 0.72546 0.0
O170 O 0.98659 1.00057 0.88336 0.0
O171 O 1.01784 1.00746 0.01732 0.0
C172 C 0.04737 0.06007 0.94053 0.0
O173 O 1.00019 0.02347 0.6361 0.0
O174 O 0.9732 0.03712 0.76325 0.0
C175 C 0.07595 0.01181 0.72256 0.0
C176 C 0.09476 0.95559 0.07016 0.0
C177 C 0.09774 0.90354 0.10816 0.0
C178 C 0.12259 0.91932 0.10942 0.0
C179 C 0.12111 0.94508 0.08966 0.0
C180 C 0.06995 0.93988 0.06856 0.0
C181 C 0.07141 0.91414 0.08749 0.0
C182 C 0.09351 0.98166 0.04105 0.0
C183 C 1.02148 0.95747 0.77929 0.0
H184 H 0.95057 0.10574 0.51006 0.0
H185 H 0.94682 0.05999 0.53842 0.0
H186 H 1.01422 0.07783 0.75974 0.0
H187 H 1.01583 0.12404 0.74275 0.0
H188 H 0.14317 0.91166 0.12474 0.0
H189 H 0.14055 0.95662 0.08796 0.0
H190 H 0.04944 0.94744 0.05183 0.0
H191 H 0.05179 0.90273 0.08785 0.0
Tb192 Tb 0.53362 1.00102 0.80022 0.0
Tb193 Tb 0.55096 0.02976 0.02659 0.0
C194 C 0.5499 0.96602 0.95436 0.0
C195 C 0.49446 1.0023 0.57856 0.0
C196 C 0.44877 0.03587 0.55789 0.0
C197 C 0.44403 1.00838 0.55432 0.0
C198 C 0.46665 0.99179 0.56481 0.0
C199 C 0.49947 0.02917 0.57221 0.0
C200 C 0.47685 0.04577 0.56222 0.0
C201 C 0.51646 0.98762 0.62206 0.0
O202 O 0.495 0.99704 0.88702 0.0
O203 O 0.50468 0.03284 0.01458 0.0
O204 O 0.55857 0.05948 0.93395 0.0
O205 O 0.52282 0.04324 0.82544 0.0
O206 O 0.57187 0.03092 0.16468 0.0
O207 O 0.5438 0.0625 0.14487 0.0
O208 O 0.59259 0.02469 0.95564 0.0
O209 O 0.58015 1.00479 0.79221 0.0
O210 O 0.55094 0.96863 0.86026 0.0
O211 O 0.54483 0.98672 0.02815 0.0
C212 C 0.48646 0.01523 0.96366 0.0
O213 O 0.54028 1.00081 0.64763 0.0
O214 O 0.50772 0.9756 0.69263 0.0
C215 C 0.54035 0.0629 0.86444 0.0
C216 C 0.58541 0.07473 0.24082 0.0
C217 C 0.63525 0.10429 0.30995 0.0
C218 C 0.62691 0.10041 0.20817 0.0
C219 C 0.60225 0.08557 0.17373 0.0
C220 C 0.59206 0.08074 0.34363 0.0
C221 C 0.61675 0.09549 0.37814 0.0
C222 C 0.56295 0.05493 0.20244 0.0
C223 C 0.59942 0.01467 0.86163 0.0
H224 H 0.42273 0.99974 0.54591 0.0
H225 H 0.46217 0.97115 0.56858 0.0
H226 H 0.52068 0.03802 0.5819 0.0
H227 H 0.48133 0.06667 0.56311 0.0
H228 H 0.6405 0.10715 0.154 0.0
H229 H 0.59727 0.08124 0.0939 0.0
H230 H 0.57918 0.0726 0.39633 0.0
H231 H 0.62255 0.09781 0.45686 0.0
Tb232 Tb 0.51497 0.49893 0.95443 0.0
Tb233 Tb 0.55813 0.52316 0.80151 0.0
C234 C 0.49182 0.51176 0.75133 0.0
C235 C 0.49362 0.45074 0.10239 0.0
C236 C 0.50823 0.40214 0.15852 0.0
C237 C 0.48298 0.41548 0.19347 0.0
C238 C 0.47566 0.43947 0.165 0.0
C239 C 0.51872 0.43763 0.06801 0.0
C240 C 0.52565 0.41345 0.09378 0.0
C241 C 0.48672 0.47589 0.0707 0.0
O242 O 0.5276 0.4659 0.83705 0.0
O243 O 0.5701 0.48104 0.78588 0.0
O244 O 0.58145 0.52635 0.94461 0.0
O245 O 0.55828 0.49304 0.0032 0.0
O246 O 0.57166 0.52663 0.65687 0.0
O247 O 0.59176 0.54989 0.79032 0.0
O248 O 0.53075 0.55569 0.86932 0.0
O249 O 0.51927 0.5418 0.01432 0.0
O250 O 0.48634 0.51176 0.84649 0.0
O251 O 0.51812 0.51179 0.71778 0.0
C252 C 0.5529 0.46129 0.7981 0.0
O253 O 0.50447 0.4958 0.10205 0.0
O254 O 0.48098 0.47335 0.97514 0.0
C255 C 0.57999 0.50971 0.00653 0.0
C256 C 0.58697 0.57125 0.65422 0.0
C257 C 0.58389 0.62107 0.59329 0.0
C258 C 0.61036 0.60959 0.6069 0.0
C259 C 0.61184 0.585 0.63663 0.0
C260 C 0.56045 0.58261 0.64208 0.0
C261 C 0.55892 0.60718 0.61147 0.0
C262 C 0.5893 0.54635 0.69303 0.0
C263 C 0.52265 0.56087 0.96332 0.0
H264 H 0.46919 0.40781 0.24474 0.0
H265 H 0.45622 0.44937 0.19286 0.0
H266 H 0.53309 0.44618 0.02091 0.0
H267 H 0.54488 0.40376 0.0629 0.0
H268 H 0.6301 0.61975 0.5957 0.0
H269 H 0.63254 0.57686 0.64728 0.0
H270 H 0.54094 0.57255 0.65669 0.0
H271 H 0.53813 0.61505 0.60068 0.0
Tb272 Tb 0.0474 0.52088 0.81965 0.0
Tb273 Tb 1.02982 0.48229 0.97147 0.0
C274 C 1.02403 0.54535 0.03604 0.0
C275 C 0.08878 0.53068 0.61784 0.0
C276 C 0.1351 0.49776 0.54818 0.0
C277 C 0.13927 0.52547 0.58588 0.0
C278 C 0.11635 0.54169 0.62168 0.0
C279 C 0.08425 0.50386 0.56895 0.0
C280 C 0.10711 0.48744 0.53664 0.0
C281 C 0.06726 0.54368 0.68899 0.0
O282 O 0.08756 0.50745 0.8785 0.0
O283 O 0.07166 0.49786 0.02622 0.0
O284 O 0.0557 0.45931 0.85394 0.0
O285 O 0.04113 0.48038 0.73242 0.0
O286 O 1.01896 0.47304 0.11057 0.0
O287 O 1.01982 0.44238 0.9755 0.0
O288 O 0.9928 0.48461 0.87487 0.0
O289 O 1.00096 0.52428 0.82571 0.0
O290 O 1.03863 0.5491 0.95786 0.0
O291 O 1.01572 0.52155 0.04877 0.0
C292 C 0.09253 0.50404 0.97076 0.0
O293 O 0.0421 0.53219 0.68037 0.0
O294 O 0.076 0.5493 0.78252 0.0
C295 C 0.05032 0.45886 0.75913 0.0
C296 C 0.98146 0.44116 0.08047 0.0
C297 C 0.92354 0.42609 0.08312 0.0
C298 C 0.94497 0.40776 0.0926 0.0
C299 C 0.97379 0.41525 0.09089 0.0
C300 C 0.96019 0.45926 0.06954 0.0
C301 C 0.93164 0.45188 0.07126 0.0
C302 C 1.01127 0.44863 0.06801 0.0
C303 C 0.9835 0.50484 0.838 0.0
H304 H 0.16033 0.53459 0.59121 0.0
H305 H 0.12044 0.56232 0.6589 0.0
H306 H 0.06316 0.49491 0.56322 0.0
H307 H 0.10271 0.46639 0.50763 0.0
H308 H 0.9395 0.38777 0.10197 0.0
H309 H 0.99001 0.40082 0.09697 0.0
H310 H 0.96565 0.47919 0.05926 0.0
H311 H 0.91595 0.46688 0.06657 0.0
H312 H 0.15014 0.02214 0.34296 0.0
H313 H 0.21155 0.98123 0.49083 0.0
H314 H 0.17827 0.98112 0.62923 0.0
H315 H 0.13053 0.99145 0.70616 0.0
H316 H 0.07039 0.03353 0.55669 0.0
H317 H 0.10404 0.03405 0.4218 0.0
C318 C 0.15632 0.01313 0.40533 0.0
C319 C 0.18341 1.0015 0.40543 0.0
C320 C 0.13707 0.0132 0.48473 0.0
C321 C 0.19103 0.99044 0.4884 0.0
C322 C 0.17185 0.99023 0.56746 0.0
C323 C 0.1248 1.00076 0.64417 0.0
C324 C 0.09766 0.01235 0.6423 0.0
C325 C 0.14463 1.00134 0.56618 0.0
C326 C 0.09093 0.02449 0.56119 0.0
C327 C 0.11024 0.02479 0.48344 0.0
H328 H 0.52407 0.1565 0.62827 0.0
H329 H 0.60254 0.1848 0.78238 0.0
H330 H 0.60023 0.14863 0.87602 0.0
H331 H 0.57838 0.10582 0.90033 0.0
H332 H 0.49962 0.07806 0.74534 0.0
H333 H 0.49954 0.11671 0.66638 0.0
C334 C 0.54008 0.15527 0.68506 0.0
C335 C 0.56308 0.17372 0.70021 0.0
C336 C 0.53892 0.13397 0.73682 0.0
C337 C 0.58424 0.17129 0.77141 0.0
C338 C 0.5831 0.15036 0.82396 0.0
C339 C 0.56102 0.10841 0.85033 0.0
C340 C 0.53937 0.0885 0.82716 0.0
C341 C 0.56094 0.13108 0.80529 0.0
C342 C 0.51698 0.09249 0.76261 0.0
C343 C 0.51678 0.11479 0.71777 0.0
H344 H 0.38206 0.49188 0.46453 0.0
H345 H 0.43259 0.54006 0.30275 0.0
H346 H 0.47016 0.54415 0.42884 0.0
H347 H 0.49022 0.53298 0.58265 0.0
H348 H 0.43879 0.48868 0.75505 0.0
H349 H 0.40032 0.48467 0.62934 0.0
C350 C 0.40103 0.50365 0.45733 0.0
C351 C 0.4044 0.51491 0.37113 0.0
C352 C 0.42272 0.50664 0.53259 0.0
C353 C 0.42942 0.53016 0.36505 0.0
C354 C 0.45105 0.53277 0.43806 0.0
C355 C 0.47055 0.52251 0.59298 0.0
C356 C 0.46763 0.51093 0.67806 0.0
C357 C 0.44822 0.52075 0.52132 0.0
C358 C 0.44173 0.49782 0.69059 0.0
C359 C 0.41969 0.49545 0.61834 0.0
H360 H 1.03488 0.34212 0.49802 0.0
H361 H 1.03714 0.38594 0.2579 0.0
H362 H 0.04558 0.42747 0.38008 0.0
H363 H 0.04924 0.45172 0.55518 0.0
H364 H 0.05098 0.40808 0.79479 0.0
H365 H 0.04477 0.36598 0.67198 0.0
C366 C 1.03784 0.36057 0.47161 0.0
C367 C 1.03474 0.36068 0.36821 0.0
C368 C 0.04342 0.38449 0.54225 0.0
C369 C 1.03844 0.3851 0.3368 0.0
C370 C 0.04354 0.40895 0.40667 0.0
C371 C 0.04884 0.43305 0.58068 0.0
C372 C 0.05054 0.43319 0.68422 0.0
C373 C 0.04555 0.40893 0.50965 0.0
C374 C 0.04983 0.40864 0.71557 0.0
C375 C 0.04611 0.38453 0.64535 0.0
H376 H 0.87982 0.96341 0.16606 0.0
H377 H 0.90308 0.02676 0.41722 0.0
H378 H 0.94573 0.0371 0.32721 0.0
H379 H 0.97723 0.02721 0.17524 0.0
H380 H 0.95127 0.96439 0.92493 0.0
H381 H 0.90952 0.95452 0.01661 0.0
C382 C 0.89418 0.97954 0.20135 0.0
C383 C 0.8882 0.99416 0.29878 0.0
C384 C 0.91855 0.98527 0.14923 0.0
C385 C 0.90694 0.01526 0.34224 0.0
C386 C 0.93151 0.02101 0.29091 0.0
C387 C 0.96253 0.01124 0.14148 0.0
C388 C 0.96763 0.99643 0.04311 0.0
C389 C 0.93776 1.00597 0.19436 0.0
C390 C 0.94801 0.97611 1.00006 0.0
C391 C 0.92401 0.97045 0.05247 0.0
H392 H 0.58192 0.84623 0.95689 0.0
H393 H 0.54406 0.86456 0.25038 0.0
H394 H 0.53306 0.90975 0.22641 0.0
H395 H 0.53648 0.94515 0.1231 0.0
H396 H 0.57492 0.92473 0.82974 0.0
H397 H 0.58371 0.87987 0.85363 0.0
C398 C 0.57117 0.86005 0.0158 0.0
C399 C 0.56407 0.85193 0.10571 0.0
C400 C 0.56528 0.88598 0.00191 0.0
C401 C 0.54967 0.87009 0.18015 0.0
C402 C 0.54362 0.89608 0.16673 0.0
C403 C 0.54682 0.93089 0.06463 0.0
C404 C 0.55502 0.93869 0.97462 0.0
C405 C 0.55174 0.90448 0.07831 0.0
C406 C 0.56818 0.91963 0.8996 0.0
C407 C 0.57329 0.89378 0.91305 0.0
H408 H 0.65662 0.50857 0.39263 0.0
H409 H 0.72052 0.53813 0.21578 0.0
H410 H 0.686 0.53539 0.07678 0.0
H411 H 0.63646 0.52632 0.00815 0.0
H412 H 0.57407 0.49432 0.18502 0.0
H413 H 0.6089 0.49641 0.32041 0.0
C414 C 0.66307 0.51421 0.32326 0.0
C415 C 0.69114 0.52365 0.31495 0.0
C416 C 0.64317 0.51235 0.24357 0.0
C417 C 0.69916 0.53064 0.22412 0.0
C418 C 0.67932 0.52925 0.14485 0.0
C419 C 0.63055 0.51974 0.07623 0.0
C420 C 0.60244 0.51033 0.08604 0.0
C421 C 0.65108 0.52044 0.15406 0.0
C422 C 0.59539 0.50161 0.17466 0.0
C423 C 0.61535 0.50283 0.2526 0.0
H424 H 1.01113 0.63866 0.41435 0.0
H425 H 0.98831 0.68158 0.18298 0.0
H426 H 0.99501 0.6413 0.05475 0.0
H427 H 1.00821 0.59391 0.00707 0.0
H428 H 1.0251 0.54988 0.239 0.0
H429 H 1.01866 0.59044 0.3686 0.0
C430 C 1.00686 0.63932 0.33641 0.0
C431 C 0.9996 0.66364 0.30958 0.0
C432 C 1.00952 0.61573 0.26281 0.0
C433 C 0.99484 0.66366 0.20696 0.0
C434 C 0.99833 0.64045 0.1331 0.0
C435 C 1.01026 0.59323 0.08613 0.0
C436 C 1.01732 0.56911 0.11383 0.0
C437 C 1.00592 0.61646 0.16007 0.0
C438 C 1.01957 0.56826 0.21621 0.0
C439 C 1.01605 0.59146 0.29013 0.0
H440 H 0.98639 0.22133 0.43828 0.0
H441 H 0.07555 0.21715 0.50783 0.0
H442 H 0.06523 0.18364 0.60794 0.0
H443 H 1.03286 0.14852 0.63665 0.0
H444 H 0.94331 0.15135 0.56445 0.0
H445 H 0.95193 0.19207 0.5014 0.0
C446 C 1.00327 0.2141 0.48013 0.0
C447 C 1.03163 0.22156 0.46638 0.0
C448 C 0.9973 0.19371 0.53238 0.0
C449 C 0.05355 0.21182 0.51879 0.0
C450 C 0.04768 0.19227 0.57412 0.0
C451 C 1.01486 0.15838 0.61096 0.0
C452 C 0.98752 0.14625 0.60324 0.0
C453 C 1.01989 0.18188 0.57561 0.0
C454 C 0.96477 0.15954 0.56801 0.0
C455 C 0.96961 0.18305 0.5329 0.0
H456 H 0.35061 0.09109 0.38865 0.0
H457 H 0.30517 0.03675 0.53628 0.0
H458 H 0.34564 0.03581 0.64809 0.0
H459 H 0.39774 0.03471 0.64961 0.0
H460 H 0.44503 0.07787 0.46098 0.0
H461 H 0.40153 0.09851 0.41923 0.0
C462 C 0.34925 0.08012 0.4489 0.0
C463 C 0.32624 0.06216 0.44868 0.0
C464 C 0.37411 0.07629 0.50123 0.0
C465 C 0.3234 0.04961 0.53095 0.0
C466 C 0.34693 0.04848 0.59334 0.0
C467 C 0.39857 0.04892 0.6004 0.0
C468 C 0.42434 0.0537 0.55456 0.0
C469 C 0.3732 0.059 0.57009 0.0
C470 C 0.42541 0.07331 0.49565 0.0
C471 C 0.40045 0.08511 0.47139 0.0
H472 H 0.5944 0.34384 0.62332 0.0
H473 H 0.52574 0.32566 0.80772 0.0
H474 H 0.52042 0.37333 0.87916 0.0
H475 H 0.52843 0.41933 0.86065 0.0
H476 H 0.59716 0.43879 0.67815 0.0
H477 H 0.60864 0.39113 0.63031 0.0
C478 C 0.57936 0.35032 0.68331 0.0
C479 C 0.56058 0.33124 0.71089 0.0
C480 C 0.57544 0.37789 0.71973 0.0
C481 C 0.54073 0.33983 0.78678 0.0
C482 C 0.53723 0.36716 0.82557 0.0
C483 C 0.54648 0.41347 0.8127 0.0
C484 C 0.56176 0.43281 0.77256 0.0
C485 C 0.55335 0.38629 0.78804 0.0
C486 C 0.58485 0.42444 0.70941 0.0
C487 C 0.5915 0.39719 0.68258 0.0
H488 H 0.23053 0.4318 0.30929 0.0
H489 H 0.27959 0.49315 0.50602 0.0
H490 H 0.24037 0.50079 0.62418 0.0
H491 H 0.18834 0.50257 0.63387 0.0
H492 H 0.13763 0.45178 0.40035 0.0
H493 H 0.17973 0.42792 0.33493 0.0
C494 C 0.23294 0.44591 0.38072 0.0
C495 C 0.2567 0.46339 0.39543 0.0
C496 C 0.20878 0.45335 0.43868 0.0
C497 C 0.2608 0.48033 0.49035 0.0
C498 C 0.23799 0.48528 0.55666 0.0
C499 C 0.18639 0.48631 0.56857 0.0
C500 C 0.1598 0.47993 0.52002 0.0
C501 C 0.21107 0.47418 0.52513 0.0
C502 C 0.15763 0.45762 0.43933 0.0
C503 C 0.18187 0.44388 0.40117 0.0
H504 H 0.08708 0.8134 0.34864 0.0
H505 H 1.02475 0.78477 0.1158 0.0
H506 H 0.04414 0.81516 0.01488 0.0
H507 H 0.06949 0.8578 0.01726 0.0
H508 H 0.12762 0.88966 0.26207 0.0
H509 H 0.11975 0.85014 0.33318 0.0
C510 C 0.07894 0.81279 0.27313 0.0
C511 C 0.05452 0.79714 0.23951 0.0
C512 C 0.08879 0.83176 0.21963 0.0
C513 C 0.04371 0.79655 0.14248 0.0
C514 C 0.0544 0.81439 0.08597 0.0
C515 C 0.08087 0.85578 0.08505 0.0
C516 C 0.09852 0.87693 0.13579 0.0
C517 C 0.07541 0.83344 0.12757 0.0
C518 C 0.11377 0.87378 0.2219 0.0
C519 C 0.10914 0.85122 0.263 0.0
H520 H 0.74242 0.09996 0.55964 0.0
H521 H 0.76466 0.04691 0.28156 0.0
H522 H 0.72914 0.06706 0.19129 0.0
H523 H 0.68243 0.08725 0.20439 0.0
H524 H 0.65585 0.1359 0.48629 0.0
H525 H 0.70212 0.13016 0.56174 0.0
C526 C 0.7402 0.09361 0.47854 0.0
C527 C 0.75528 0.07124 0.42825 0.0
C528 C 0.71811 0.10384 0.42839 0.0
C529 C 0.75304 0.06376 0.32279 0.0
C530 C 0.73231 0.07501 0.27113 0.0
C531 C 0.68711 0.09775 0.28088 0.0
C532 C 0.66533 0.11112 0.34087 0.0
C533 C 0.71314 0.09323 0.32493 0.0
C534 C 0.672 0.12477 0.43955 0.0
C535 C 0.69842 0.12139 0.4828 0.0
H536 H 0.53288 0.67301 0.25131 0.0
H537 H 0.51244 0.70117 0.98071 0.0
H538 H 0.50975 0.65452 0.88672 0.0
H539 H 0.51349 0.60547 0.88351 0.0
H540 H 0.52842 0.58003 0.16351 0.0
H541 H 0.53122 0.62634 0.25312 0.0
C542 C 0.52643 0.66947 0.17281 0.0
C543 C 0.52184 0.69111 0.12476 0.0
C544 C 0.52372 0.64293 0.12096 0.0
C545 C 0.51582 0.68521 0.02068 0.0
C546 C 0.51414 0.65848 0.96695 0.0
C547 C 0.51696 0.61014 0.96435 0.0
C548 C 0.52072 0.5892 0.01672 0.0
C549 C 0.51804 0.63712 0.01656 0.0
C550 C 0.52518 0.59558 0.12136 0.0
C551 C 0.527 0.62211 0.1727 0.0
H552 H 0.80724 0.46055 0.23185 0.0
H553 H 0.83249 0.41874 0.46213 0.0
H554 H 0.86779 0.39423 0.3504 0.0
H555 H 0.90141 0.39863 0.21744 0.0
H556 H 0.87655 0.44072 0.98689 0.0
H557 H 0.8307 0.45067 0.06744 0.0
C558 C 0.81925 0.44493 0.25546 0.0
C559 C 0.81853 0.44244 0.35647 0.0
C560 C 0.84031 0.43173 0.19211 0.0
C561 C 0.83353 0.4216 0.38536 0.0
C562 C 0.854 0.40783 0.32191 0.0
C563 C 0.88551 0.40876 0.18155 0.0
C564 C 0.89303 0.42044 0.10017 0.0
C565 C 0.85936 0.41481 0.22926 0.0
C566 C 0.87176 0.43278 0.05304 0.0
C567 C 0.8455 0.43849 0.09903 0.0
H568 H 0.08733 0.17542 0.16816 0.0
H569 H 1.00894 0.19635 0.03927 0.0
H570 H 1.00267 0.15029 0.9449 0.0
H571 H 1.01539 0.10306 0.92301 0.0
H572 H 0.09414 0.08198 0.05063 0.0
H573 H 0.10381 0.12904 0.12492 0.0
C574 C 0.06938 0.17002 0.11674 0.0
C575 C 0.04855 0.18916 0.11095 0.0
C576 C 0.06541 0.14333 0.06585 0.0
C577 C 1.02538 0.18204 0.04424 0.0
C578 C 1.02153 0.15559 0.9918 0.0
C579 C 1.03501 0.10868 0.96498 0.0
C580 C 0.05391 0.08883 0.98136 0.0
C581 C 0.04073 0.13586 0.00584 0.0
C582 C 0.07906 0.09671 0.03727 0.0
C583 C 0.0847 0.12367 0.07946 0.0
H584 H 0.36405 0.05393 0.11318 0.0
H585 H 0.34956 0.96983 0.09876 0.0
H586 H 0.39623 0.96017 0.01926 0.0
H587 H 0.44429 0.97666 0.97338 0.0
H588 H 0.45862 0.06172 0.00907 0.0
H589 H 0.40957 0.06991 0.06148 0.0
C590 C 0.3708 0.03336 0.09087 0.0
C591 C 0.35306 0.01267 0.11233 0.0
C592 C 0.39824 0.02819 0.05084 0.0
C593 C 0.36236 0.98619 0.08238 0.0
C594 C 0.38936 0.98073 0.03827 0.0
C595 C 0.43649 0.99692 0.99149 0.0
C596 C 0.4554 0.0186 0.98752 0.0
C597 C 0.408 1.00167 0.02518 0.0
C598 C 0.44485 0.0447 0.0122 0.0
C599 C 0.41666 0.04943 0.04197 0.0
H600 H 0.5681 0.31383 0.34602 0.0
H601 H 0.48115 0.29069 0.38432 0.0
H602 H 0.46477 0.32198 0.28184 0.0
H603 H 0.4752 0.36121 0.20602 0.0
H604 H 0.56274 0.38778 0.19367 0.0
H605 H 0.57871 0.35005 0.25982 0.0
C606 C 0.54565 0.31477 0.32769 0.0
C607 C 0.52589 0.29964 0.37069 0.0
C608 C 0.53642 0.33418 0.27569 0.0
C609 C 0.49678 0.30163 0.3497 0.0
C610 C 0.48743 0.31998 0.29302 0.0
C611 C 0.49777 0.35879 0.2176 0.0
C612 C 0.51756 0.37764 0.19393 0.0
C613 C 0.50702 0.33733 0.25998 0.0
C614 C 0.54679 0.37363 0.20847 0.0
C615 C 0.55609 0.35202 0.24735 0.0
H616 H 0.20362 0.51783 0.24469 0.0
H617 H 0.24442 0.48811 0.96176 0.0
H618 H 0.19888 0.49025 0.87245 0.0
H619 H 0.14553 0.49556 0.87791 0.0
H620 H 0.10609 0.52057 0.16756 0.0
H621 H 0.15247 0.5246 0.25034 0.0
C622 C 0.20275 0.51217 0.16313 0.0
C623 C 0.22763 0.50272 0.11043 0.0
C624 C 0.17628 0.51195 0.1134 0.0
C625 C 0.2259 0.49571 0.00466 0.0
C626 C 0.19964 0.49655 0.95371 0.0
C627 C 0.14718 0.50212 0.95899 0.0
C628 C 0.122 0.50755 0.01619 0.0
C629 C 0.17437 0.5038 0.00757 0.0
C630 C 0.12476 0.51592 0.12133 0.0
C631 C 0.15142 0.51838 0.16903 0.0
H632 H 1.01659 0.83201 0.64461 0.0
H633 H 0.97059 0.85148 0.39471 0.0
H634 H 0.97025 0.89868 0.47938 0.0
H635 H 0.98984 0.93503 0.61201 0.0
H636 H 1.03772 0.91515 0.85856 0.0
H637 H 1.03057 0.86775 0.78802 0.0
C638 C 1.00547 0.84647 0.61093 0.0
C639 C 0.99349 0.83842 0.51423 0.0
C640 C 1.00649 0.87367 0.65808 0.0
C641 C 0.97966 0.85733 0.46984 0.0
C642 C 0.97986 0.88434 0.51753 0.0
C643 C 0.99849 0.92033 0.65073 0.0
C644 C 1.01475 0.92876 0.73941 0.0
C645 C 0.9944 0.8929 0.60951 0.0
C646 C 1.02538 0.90937 0.7895 0.0
C647 C 1.02127 0.88215 0.74937 0.0
H648 H 0.72594 0.04649 0.76631 0.0
H649 H 0.71682 0.97502 0.53525 0.0
H650 H 0.66957 0.96634 0.59846 0.0
H651 H 0.62857 0.98171 0.70982 0.0
H652 H 0.63923 0.05216 0.94592 0.0
H653 H 0.68772 0.05853 0.89086 0.0
C654 C 0.71396 0.02856 0.73178 0.0
C655 C 0.72516 0.01128 0.64658 0.0
C656 C 0.68667 0.0238 0.76839 0.0
C657 C 0.70909 0.98837 0.60193 0.0
C658 C 0.68182 0.98362 0.63731 0.0
C659 C 0.64161 0.99831 0.74976 0.0
C660 C 0.62994 0.01657 0.83157 0.0
C661 C 0.66999 1.00161 0.7188 0.0
C662 C 0.64743 0.03776 0.88295 0.0
C663 C 0.67527 0.04148 0.85129 0.0
H664 H 0.58804 0.71636 0.36201 0.0
H665 H 0.51192 0.73801 0.53132 0.0
H666 H 0.5207 0.70338 0.62827 0.0
H667 H 0.54591 0.66227 0.6447 0.0
H668 H 0.61859 0.63792 0.45687 0.0
H669 H 0.6153 0.67798 0.38795 0.0
C670 C 0.57419 0.71438 0.42373 0.0
C671 C 0.54977 0.73021 0.44124 0.0
C672 C 0.57824 0.69314 0.47345 0.0
C673 C 0.5313 0.72665 0.5185 0.0
C674 C 0.536 0.70639 0.57221 0.0
C675 C 0.56109 0.6657 0.58882 0.0
C676 C 0.58247 0.64676 0.55641 0.0
C677 C 0.55865 0.68866 0.54683 0.0
C678 C 0.60215 0.65205 0.48495 0.0
C679 C 0.60022 0.67501 0.44477 0.0
H680 H 0.85488 0.47794 0.70535 0.0
H681 H 0.86552 0.54707 0.57369 0.0
H682 H 0.91337 0.55523 0.65015 0.0
H683 H 0.95448 0.53938 0.73968 0.0
H684 H 0.94248 0.46884 0.8644 0.0
H685 H 0.89343 0.46468 0.80582 0.0
C686 C 0.86737 0.49525 0.69565 0.0
C687 C 0.85644 0.51198 0.63439 0.0
C688 C 0.89511 0.49924 0.7371 0.0
C689 C 0.8731 0.53413 0.62177 0.0
C690 C 0.90069 0.53854 0.66437 0.0
C691 C 0.94108 0.52325 0.75479 0.0
C692 C 0.95271 0.50432 0.80604 0.0
C693 C 0.91235 0.52071 0.71972 0.0
C694 C 0.93465 0.48366 0.82488 0.0
C695 C 0.90635 0.48121 0.79135 0.0
loop_
_geom_bond_atom_site_label_1
_geom_bond_atom_site_label_2
_geom_bond_distance
_geom_bond_site_symmetry_2
_ccdc_geom_bond_type
H0 C1 0.949 . S
C1 H0 0.949 . S
C1 C2 1.395 . S
C1 C3 1.391 . S
C2 C1 1.395 . S
C2 C5 1.390 . S
C3 C1 1.391 . S
C3 C7 1.387 . S
C3 C8 1.491 . S
H4 C5 0.950 . S
C5 C2 1.390 . S
C5 H4 0.950 . S
C5 C6 1.378 . S
C6 C5 1.378 . S
C6 C7 1.409 . S
C7 C3 1.387 . S
C7 C6 1.409 . S
C7 H9 0.951 . S
C8 C3 1.491 . S
C8 C10 1.382 . S
C8 C12 1.404 . S
H9 C7 0.951 . S
C10 C8 1.382 . S
C10 C11 1.390 . S
C10 H15 0.949 . S
C11 C10 1.390 . S
C11 C16 1.399 . S
C12 C8 1.404 . S
C12 H13 0.950 . S
C12 C14 1.375 . S
H13 C12 0.950 . S
C14 C12 1.375 . S
C14 C16 1.382 . S
C14 H18 0.950 . S
H15 C10 0.949 . S
C16 C11 1.399 . S
C16 C14 1.382 . S
C16 H17 0.952 . S
H17 C16 0.952 . S
H18 C14 0.950 . S
H19 C20 0.949 . S
C20 H19 0.949 . S
C20 C21 1.395 . S
C20 C22 1.391 . S
C21 C20 1.395 . S
C21 C24 1.390 1_655 S
C22 C20 1.391 . S
C22 C26 1.387 . S
C22 C27 1.491 . S
H23 C24 0.950 . S
C24 C21 1.390 1_455 S
C24 H23 0.950 . S
C24 C25 1.377 1_455 S
C25 C24 1.377 1_655 S
C25 C26 1.412 . S
C26 C22 1.387 . S
C26 C25 1.412 . S
C26 H28 0.951 . S
C27 C22 1.491 . S
C27 C29 1.382 . S
C27 C31 1.404 . S
H28 C26 0.951 . S
C29 C27 1.382 . S
C29 C30 1.390 . S
C29 H34 0.949 1_655 S
C30 C29 1.390 . S
C30 C35 1.399 . S
C31 C27 1.404 . S
C31 H32 0.950 . S
C31 C33 1.375 . S
H32 C31 0.950 . S
C33 C31 1.375 . S
C33 C35 1.382 . S
C33 H37 0.950 . S
H34 C29 0.949 1_455 S
C35 C30 1.399 . S
C35 C33 1.382 . S
C35 H36 0.952 . S
H36 C35 0.952 . S
H37 C33 0.950 . S
H38 C39 0.949 . S
C39 H38 0.949 . S
C39 C40 1.395 . S
C39 C41 1.391 . S
C40 C39 1.395 . S
C40 C43 1.391 1_565 S
C41 C39 1.391 . S
C41 C45 1.387 . S
C41 C46 1.491 . S
H42 C43 0.950 . S
C43 C40 1.391 1_545 S
C43 H42 0.950 . S
C43 C44 1.372 1_545 S
C44 C43 1.372 1_565 S
C44 C45 1.413 . S
C45 C41 1.387 . S
C45 C44 1.413 . S
C45 H47 0.951 . S
C46 C41 1.491 . S
C46 C48 1.382 . S
C46 C50 1.404 . S
H47 C45 0.951 . S
C48 C46 1.382 . S
C48 C49 1.390 . S
C48 H53 0.949 1_565 S
C49 C48 1.390 . S
C49 C54 1.399 . S
C50 C46 1.404 . S
C50 H51 0.950 . S
C50 C52 1.375 . S
H51 C50 0.950 . S
C52 C50 1.375 . S
C52 C54 1.382 . S
C52 H56 0.950 . S
H53 C48 0.949 1_545 S
C54 C49 1.399 . S
C54 C52 1.382 . S
C54 H55 0.952 . S
H55 C54 0.952 . S
H56 C52 0.950 . S
H57 C58 0.949 . S
C58 H57 0.949 . S
C58 C59 1.395 . S
C58 C60 1.391 1_556 S
C59 C58 1.395 . S
C59 C62 1.390 1_556 S
C60 C58 1.391 1_554 S
C60 C64 1.387 . S
C60 C65 1.491 . S
H61 C62 0.950 . S
C62 C59 1.390 1_554 S
C62 H61 0.950 . S
C62 C63 1.378 . S
C63 C62 1.378 . S
C63 C64 1.409 . S
C64 C60 1.387 . S
C64 C63 1.409 . S
C64 H66 0.951 . S
C65 C60 1.491 . S
C65 C67 1.382 1_554 S
C65 C69 1.404 . S
H66 C64 0.951 . S
C67 C65 1.382 1_556 S
C67 C68 1.390 . S
C67 H72 0.949 . S
C68 C67 1.390 . S
C68 C73 1.399 1_556 S
C69 C65 1.404 . S
C69 H70 0.950 . S
C69 C71 1.375 . S
H70 C69 0.950 . S
C71 C69 1.375 . S
C71 C73 1.382 . S
C71 H75 0.950 . S
H72 C67 0.949 . S
C73 C68 1.399 1_554 S
C73 C71 1.382 . S
C73 H74 0.952 . S
H74 C73 0.952 . S
H75 C71 0.950 . S
H76 C77 0.949 . S
C77 H76 0.949 . S
C77 C78 1.395 . S
C77 C79 1.391 . S
C78 C77 1.395 . S
C78 C81 1.390 . S
C79 C77 1.391 . S
C79 C83 1.387 . S
C79 C84 1.491 . S
H80 C81 0.950 . S
C81 C78 1.390 . S
C81 H80 0.950 . S
C81 C82 1.378 . S
C82 C81 1.378 . S
C82 C83 1.409 . S
C83 C79 1.387 . S
C83 C82 1.409 . S
C83 H85 0.951 . S
C84 C79 1.491 . S
C84 C86 1.382 . S
C84 C88 1.404 . S
H85 C83 0.951 . S
C86 C84 1.382 . S
C86 C87 1.390 . S
C86 H91 0.949 . S
C87 C86 1.390 . S
C87 C92 1.399 . S
C88 C84 1.404 . S
C88 H89 0.950 . S
C88 C90 1.375 . S
H89 C88 0.950 . S
C90 C88 1.375 . S
C90 C92 1.382 . S
C90 H94 0.950 . S
H91 C86 0.949 . S
C92 C87 1.399 . S
C92 C90 1.382 . S
C92 H93 0.952 . S
H93 C92 0.952 . S
H94 C90 0.950 . S
H95 C96 0.949 . S
C96 H95 0.949 . S
C96 C97 1.394 . S
C96 C98 1.391 . S
C97 C96 1.394 . S
C97 C100 1.391 1_655 S
C98 C96 1.391 . S
C98 C102 1.387 . S
C98 C103 1.491 . S
H99 C100 0.950 . S
C100 C97 1.391 1_455 S
C100 H99 0.950 . S
C100 C101 1.377 1_455 S
C101 C100 1.377 1_655 S
C101 C102 1.411 . S
C102 C98 1.387 . S
C102 C101 1.411 . S
C102 H104 0.951 . S
C103 C98 1.491 . S
C103 C105 1.382 . S
C103 C107 1.404 . S
H104 C102 0.951 . S
C105 C103 1.382 . S
C105 C106 1.390 . S
C105 H110 0.949 1_655 S
C106 C105 1.390 . S
C106 C111 1.399 . S
C107 C103 1.404 . S
C107 H108 0.950 . S
C107 C109 1.375 . S
H108 C107 0.950 . S
C109 C107 1.375 . S
C109 C111 1.382 . S
C109 H113 0.950 . S
H110 C105 0.949 1_455 S
C111 C106 1.399 . S
C111 C109 1.382 . S
C111 H112 0.952 . S
H112 C111 0.952 . S
H113 C109 0.950 . S
H114 C115 0.949 . S
C115 H114 0.949 . S
C115 C116 1.394 . S
C115 C117 1.391 . S
C116 C115 1.394 . S
C116 C119 1.391 1_565 S
C117 C115 1.391 . S
C117 C121 1.387 . S
C117 C122 1.491 . S
H118 C119 0.950 . S
C119 C116 1.391 1_545 S
C119 H118 0.950 . S
C119 C120 1.379 1_545 S
C120 C119 1.379 1_565 S
C120 C121 1.411 . S
C121 C117 1.387 . S
C121 C120 1.411 . S
C121 H123 0.951 . S
C122 C117 1.491 . S
C122 C124 1.382 . S
C122 C126 1.404 . S
H123 C121 0.951 . S
C124 C122 1.382 . S
C124 C125 1.390 . S
C124 H129 0.949 1_565 S
C125 C124 1.390 . S
C125 C130 1.399 . S
C126 C122 1.404 . S
C126 H127 0.950 . S
C126 C128 1.375 . S
H127 C126 0.950 . S
C128 C126 1.375 . S
C128 C130 1.382 . S
C128 H132 0.950 . S
H129 C124 0.949 1_545 S
C130 C125 1.399 . S
C130 C128 1.382 . S
C130 H131 0.952 . S
H131 C130 0.952 . S
H132 C128 0.950 . S
H133 C134 0.949 . S
C134 H133 0.949 . S
C134 C135 1.395 . S
C134 C136 1.391 . S
C135 C134 1.395 . S
C135 C138 1.390 . S
C136 C134 1.391 . S
C136 C140 1.387 . S
C136 C141 1.491 . S
H137 C138 0.950 . S
C138 C135 1.390 . S
C138 H137 0.950 . S
C138 C139 1.378 . S
C139 C138 1.378 . S
C139 C140 1.409 . S
C140 C136 1.387 . S
C140 C139 1.409 . S
C140 H142 0.951 . S
C141 C136 1.491 . S
C141 C143 1.382 . S
C141 C145 1.404 . S
H142 C140 0.951 . S
C143 C141 1.382 . S
C143 C144 1.390 . S
C143 H148 0.949 . S
C144 C143 1.390 . S
C144 C149 1.399 . S
C145 C141 1.404 . S
C145 H146 0.950 . S
C145 C147 1.375 . S
H146 C145 0.950 . S
C147 C145 1.375 . S
C147 C149 1.382 . S
C147 H151 0.950 . S
H148 C143 0.949 . S
C149 C144 1.399 . S
C149 C147 1.382 . S
C149 H150 0.952 . S
H150 C149 0.952 . S
H151 C147 0.950 . S
Tb152 C161 2.764 . S
Tb152 O162 2.325 . S
Tb152 O165 2.303 1_655 S
Tb152 O169 2.322 1_545 S
Tb152 O170 2.349 . S
Tb152 O173 2.415 . S
Tb152 O174 2.399 . S
Tb153 O163 2.322 1_565 S
Tb153 O164 2.349 . S
Tb153 O166 2.415 1_556 S
Tb153 O167 2.399 1_556 S
Tb153 O168 2.325 . S
Tb153 O171 2.303 1_455 S
Tb153 C182 2.764 1_556 S
C154 O170 1.262 . S
C154 O171 1.256 1_545 S
C155 C158 1.358 . S
C155 C159 1.332 . S
C155 C161 1.504 . S
C156 C157 1.373 . S
C156 C160 1.308 . S
C157 C156 1.373 . S
C157 C158 1.429 . S
C157 H184 0.932 . S
C158 C155 1.358 . S
C158 C157 1.429 . S
C158 H185 0.930 . S
C159 C155 1.332 . S
C159 C160 1.394 . S
C159 H186 0.932 1_655 S
C160 C156 1.308 . S
C160 C159 1.394 . S
C160 H187 0.929 1_655 S
C161 Tb152 2.764 . S
C161 C155 1.504 . S
C161 O173 1.239 . S
C161 O174 1.263 . S
O162 Tb152 2.325 . S
O162 C172 1.236 1_655 S
O163 Tb153 2.322 1_545 S
O163 C172 1.257 . S
O164 Tb153 2.349 . S
O164 C175 1.262 1_565 S
O165 Tb152 2.303 1_455 S
O165 C175 1.256 . S
O166 Tb153 2.415 1_554 S
O166 C182 1.239 . S
O167 Tb153 2.399 1_554 S
O167 C182 1.263 . S
O168 Tb153 2.325 . S
O168 C183 1.236 1_455 S
O169 Tb152 2.322 1_565 S
O169 C183 1.257 . S
O170 Tb152 2.349 . S
O170 C154 1.262 . S
O171 Tb153 2.303 1_655 S
O171 C154 1.256 1_565 S
C172 O162 1.236 1_455 S
C172 O163 1.257 . S
O173 Tb152 2.415 . S
O173 C161 1.239 . S
O174 Tb152 2.399 . S
O174 C161 1.263 . S
C175 O164 1.262 1_545 S
C175 O165 1.256 . S
C176 C179 1.358 . S
C176 C180 1.332 . S
C176 C182 1.504 . S
C177 C178 1.373 . S
C177 C181 1.308 . S
C178 C177 1.373 . S
C178 C179 1.429 . S
C178 H188 0.932 . S
C179 C176 1.358 . S
C179 C178 1.429 . S
C179 H189 0.930 . S
C180 C176 1.332 . S
C180 C181 1.394 . S
C180 H190 0.932 1_455 S
C181 C177 1.308 . S
C181 C180 1.394 . S
C181 H191 0.929 1_455 S
C182 Tb153 2.764 1_554 S
C182 O166 1.239 . S
C182 O167 1.263 . S
C182 C176 1.504 . S
C183 O168 1.236 1_655 S
C183 O169 1.257 . S
H184 C157 0.932 . S
H185 C158 0.930 . S
H186 C159 0.932 1_455 S
H187 C160 0.929 1_455 S
H188 C178 0.932 . S
H189 C179 0.930 . S
H190 C180 0.932 1_655 S
H191 C181 0.929 1_655 S
Tb192 C201 2.764 . S
Tb192 O202 2.325 . S
Tb192 O205 2.303 1_565 S
Tb192 O209 2.322 . S
Tb192 O210 2.349 . S
Tb192 O213 2.415 1_565 S
Tb192 O214 2.399 . S
Tb193 O203 2.322 . S
Tb193 O204 2.349 1_554 S
Tb193 O206 2.415 1_545 S
Tb193 O207 2.399 . S
Tb193 O208 2.325 1_554 S
Tb193 O211 2.303 1_544 S
Tb193 C222 2.764 . S
C194 O210 1.261 . S
C194 O211 1.257 . S
C195 C198 1.358 . S
C195 C199 1.332 1_565 S
C195 C201 1.504 . S
C196 C197 1.373 . S
C196 C200 1.308 1_565 S
C197 C196 1.373 . S
C197 C198 1.429 . S
C197 H224 0.932 . S
C198 C195 1.358 . S
C198 C197 1.429 . S
C198 H225 0.930 . S
C199 C195 1.332 1_545 S
C199 C200 1.394 . S
C199 H226 0.932 . S
C200 C196 1.308 1_545 S
C200 C199 1.394 . S
C200 H227 0.929 . S
C201 Tb192 2.764 . S
C201 C195 1.504 . S
C201 O213 1.239 1_565 S
C201 O214 1.263 . S
O202 Tb192 2.325 . S
O202 C212 1.236 1_565 S
O203 Tb193 2.322 . S
O203 C212 1.257 1_554 S
O204 Tb193 2.349 1_556 S
O204 C215 1.261 . S
O205 Tb192 2.303 1_545 S
O205 C215 1.257 . S
O206 Tb193 2.415 1_565 S
O206 C222 1.239 1_565 S
O207 Tb193 2.399 . S
O207 C222 1.263 . S
O208 Tb193 2.325 1_556 S
O208 C223 1.236 1_545 S
O209 Tb192 2.322 . S
O209 C223 1.257 . S
O210 Tb192 2.349 . S
O210 C194 1.261 . S
O211 Tb193 2.303 1_566 S
O211 C194 1.257 . S
C212 O202 1.236 1_545 S
C212 O203 1.257 1_556 S
O213 Tb192 2.415 1_545 S
O213 C201 1.239 1_545 S
O214 Tb192 2.399 . S
O214 C201 1.263 . S
C215 O204 1.261 . S
C215 O205 1.257 . S
C216 C219 1.358 . S
C216 C220 1.332 1_545 S
C216 C222 1.504 . S
C217 C218 1.373 . S
C217 C221 1.308 1_545 S
C218 C217 1.373 . S
C218 C219 1.429 . S
C218 H228 0.932 . S
C219 C216 1.358 . S
C219 C218 1.429 . S
C219 H229 0.930 . S
C220 C216 1.332 1_565 S
C220 C221 1.394 . S
C220 H230 0.932 . S
C221 C217 1.308 1_565 S
C221 C220 1.394 . S
C221 H231 0.929 . S
C222 Tb193 2.764 . S
C222 O206 1.239 1_545 S
C222 O207 1.263 . S
C222 C216 1.504 . S
C223 O208 1.236 1_565 S
C223 O209 1.257 . S
H224 C197 0.932 . S
H225 C198 0.930 . S
H226 C199 0.932 . S
H227 C200 0.929 . S
H228 C218 0.932 . S
H229 C219 0.930 . S
H230 C220 0.932 . S
H231 C221 0.929 . S
Tb232 C241 2.764 1_556 S
Tb232 O242 2.325 . S
Tb232 O245 2.303 . S
Tb232 O249 2.322 . S
Tb232 O250 2.349 . S
Tb232 O253 2.415 1_556 S
Tb232 O254 2.399 1_556 S
Tb233 O243 2.322 . S
Tb233 O244 2.349 . S
Tb233 O246 2.415 . S
Tb233 O247 2.399 . S
Tb233 O248 2.325 . S
Tb233 O251 2.303 . S
Tb233 C262 2.764 . S
C234 O250 1.261 . S
C234 O251 1.257 . S
C235 C238 1.358 . S
C235 C239 1.332 . S
C235 C241 1.504 . S
C236 C237 1.373 . S
C236 C240 1.308 . S
C237 C236 1.373 . S
C237 C238 1.429 . S
C237 H264 0.932 . S
C238 C235 1.358 . S
C238 C237 1.429 . S
C238 H265 0.930 . S
C239 C235 1.332 . S
C239 C240 1.394 . S
C239 H266 0.932 . S
C240 C236 1.308 . S
C240 C239 1.394 . S
C240 H267 0.929 . S
C241 Tb232 2.764 1_554 S
C241 C235 1.504 . S
C241 O253 1.239 . S
C241 O254 1.263 . S
O242 Tb232 2.325 . S
O242 C252 1.236 . S
O243 Tb233 2.322 . S
O243 C252 1.257 . S
O244 Tb233 2.349 . S
O244 C255 1.261 . S
O245 Tb232 2.303 . S
O245 C255 1.257 . S
O246 Tb233 2.415 . S
O246 C262 1.239 . S
O247 Tb233 2.399 . S
O247 C262 1.263 . S
O248 Tb233 2.325 . S
O248 C263 1.236 . S
O249 Tb232 2.322 . S
O249 C263 1.257 . S
O250 Tb232 2.349 . S
O250 C234 1.261 . S
O251 Tb233 2.303 . S
O251 C234 1.257 . S
C252 O242 1.236 . S
C252 O243 1.257 . S
O253 Tb232 2.415 1_554 S
O253 C241 1.239 . S
O254 Tb232 2.399 1_554 S
O254 C241 1.263 . S
C255 O244 1.261 . S
C255 O245 1.257 . S
C256 C259 1.358 . S
C256 C260 1.332 . S
C256 C262 1.504 . S
C257 C258 1.373 . S
C257 C261 1.308 . S
C258 C257 1.373 . S
C258 C259 1.429 . S
C258 H268 0.932 . S
C259 C256 1.358 . S
C259 C258 1.429 . S
C259 H269 0.930 . S
C260 C256 1.332 . S
C260 C261 1.394 . S
C260 H270 0.932 . S
C261 C257 1.308 . S
C261 C260 1.394 . S
C261 H271 0.929 . S
C262 Tb233 2.764 . S
C262 O246 1.239 . S
C262 O247 1.263 . S
C262 C256 1.504 . S
C263 O248 1.236 . S
C263 O249 1.257 . S
H264 C237 0.932 . S
H265 C238 0.930 . S
H266 C239 0.932 . S
H267 C240 0.929 . S
H268 C258 0.932 . S
H269 C259 0.930 . S
H270 C260 0.932 . S
H271 C261 0.929 . S
Tb272 C281 2.764 . S
Tb272 O282 2.325 . S
Tb272 O285 2.303 . S
Tb272 O289 2.322 1_455 S
Tb272 O290 2.349 . S
Tb272 O293 2.415 . S
Tb272 O294 2.399 . S
Tb273 O283 2.322 1_655 S
Tb273 O284 2.349 . S
Tb273 O286 2.415 1_556 S
Tb273 O287 2.399 1_556 S
Tb273 O288 2.325 . S
Tb273 O291 2.303 . S
Tb273 C302 2.764 1_556 S
C274 O290 1.261 . S
C274 O291 1.257 1_455 S
C275 C278 1.358 . S
C275 C279 1.332 . S
C275 C281 1.504 . S
C276 C277 1.373 . S
C276 C280 1.308 . S
C277 C276 1.373 . S
C277 C278 1.429 . S
C277 H304 0.932 . S
C278 C275 1.358 . S
C278 C277 1.429 . S
C278 H305 0.930 . S
C279 C275 1.332 . S
C279 C280 1.394 . S
C279 H306 0.932 . S
C280 C276 1.308 . S
C280 C279 1.394 . S
C280 H307 0.929 . S
C281 Tb272 2.764 . S
C281 C275 1.504 . S
C281 O293 1.239 . S
C281 O294 1.263 . S
O282 Tb272 2.325 . S
O282 C292 1.236 . S
O283 Tb273 2.322 1_455 S
O283 C292 1.257 . S
O284 Tb273 2.349 . S
O284 C295 1.261 . S
O285 Tb272 2.303 . S
O285 C295 1.257 1_455 S
O286 Tb273 2.415 1_554 S
O286 C302 1.239 . S
O287 Tb273 2.399 1_554 S
O287 C302 1.263 . S
O288 Tb273 2.325 . S
O288 C303 1.236 . S
O289 Tb272 2.322 1_655 S
O289 C303 1.257 . S
O290 Tb272 2.349 . S
O290 C274 1.261 . S
O291 Tb273 2.303 . S
O291 C274 1.257 1_655 S
C292 O282 1.236 . S
C292 O283 1.257 . S
O293 Tb272 2.415 . S
O293 C281 1.239 . S
O294 Tb272 2.399 . S
O294 C281 1.263 . S
C295 O284 1.261 . S
C295 O285 1.257 1_655 S
C296 C299 1.358 . S
C296 C300 1.332 . S
C296 C302 1.504 . S
C297 C298 1.373 . S
C297 C301 1.308 . S
C298 C297 1.373 . S
C298 C299 1.429 . S
C298 H308 0.932 . S
C299 C296 1.358 . S
C299 C298 1.429 . S
C299 H309 0.930 . S
C300 C296 1.332 . S
C300 C301 1.394 . S
C300 H310 0.932 . S
C301 C297 1.308 . S
C301 C300 1.394 . S
C301 H311 0.929 . S
C302 Tb273 2.764 1_554 S
C302 O286 1.239 . S
C302 O287 1.263 . S
C302 C296 1.504 . S
C303 O288 1.236 . S
C303 O289 1.257 . S
H304 C277 0.932 . S
H305 C278 0.930 . S
H306 C279 0.932 . S
H307 C280 0.929 . S
H308 C298 0.932 . S
H309 C299 0.930 . S
H310 C300 0.932 . S
H311 C301 0.929 . S
H312 C318 0.930 . S
H313 C321 0.930 . S
H314 C322 0.930 . S
H315 C323 0.930 . S
H316 C326 0.930 . S
H317 C327 0.930 . S
C318 H312 0.930 . S
C318 C319 1.351 1_545 S
C318 C320 1.415 . S
C319 C318 1.351 1_565 S
C319 C321 1.425 . S
C320 C318 1.415 . S
C320 C325 1.425 1_545 S
C320 C327 1.409 . S
C321 H313 0.930 . S
C321 C319 1.425 . S
C321 C322 1.362 . S
C322 H314 0.930 . S
C322 C321 1.362 . S
C322 C325 1.409 . S
C323 H315 0.930 . S
C323 C324 1.355 1_565 S
C323 C325 1.415 . S
C324 C323 1.355 1_545 S
C324 C326 1.419 . S
C325 C320 1.425 1_565 S
C325 C322 1.409 . S
C325 C323 1.415 . S
C326 H316 0.930 . S
C326 C324 1.419 . S
C326 C327 1.362 . S
C327 H317 0.930 . S
C327 C320 1.409 . S
C327 C326 1.362 . S
H328 C334 0.930 . S
H329 C337 0.930 . S
H330 C338 0.930 . S
H331 C339 0.930 . S
H332 C342 0.930 . S
H333 C343 0.930 . S
C334 H328 0.930 . S
C334 C335 1.355 . S
C334 C336 1.415 . S
C335 C334 1.355 . S
C335 C337 1.419 . S
C336 C334 1.415 . S
C336 C341 1.425 . S
C336 C343 1.409 . S
C337 H329 0.930 . S
C337 C335 1.419 . S
C337 C338 1.362 . S
C338 H330 0.930 . S
C338 C337 1.362 . S
C338 C341 1.409 . S
C339 H331 0.930 . S
C339 C340 1.355 . S
C339 C341 1.415 . S
C340 C339 1.355 . S
C340 C342 1.419 . S
C341 C336 1.425 . S
C341 C338 1.409 . S
C341 C339 1.415 . S
C342 H332 0.930 . S
C342 C340 1.419 . S
C342 C343 1.362 . S
C343 H333 0.930 . S
C343 C336 1.409 . S
C343 C342 1.362 . S
H344 C350 0.930 . S
H345 C353 0.930 . S
H346 C354 0.930 . S
H347 C355 0.930 . S
H348 C358 0.930 . S
H349 C359 0.930 . S
C350 H344 0.930 . S
C350 C351 1.355 . S
C350 C352 1.415 . S
C351 C350 1.355 . S
C351 C353 1.419 . S
C352 C350 1.415 . S
C352 C357 1.425 . S
C352 C359 1.409 . S
C353 H345 0.930 . S
C353 C351 1.419 . S
C353 C354 1.362 . S
C354 H346 0.930 . S
C354 C353 1.362 . S
C354 C357 1.409 . S
C355 H347 0.930 . S
C355 C356 1.355 . S
C355 C357 1.415 . S
C356 C355 1.355 . S
C356 C358 1.419 . S
C357 C352 1.425 . S
C357 C354 1.409 . S
C357 C355 1.415 . S
C358 H348 0.930 . S
C358 C356 1.419 . S
C358 C359 1.362 . S
C359 H349 0.930 . S
C359 C352 1.409 . S
C359 C358 1.362 . S
H360 C366 0.930 . S
H361 C369 0.930 . S
H362 C370 0.930 . S
H363 C371 0.930 . S
H364 C374 0.930 . S
H365 C375 0.930 . S
C366 H360 0.930 . S
C366 C367 1.355 1_455 S
C366 C368 1.415 . S
C367 C366 1.355 1_655 S
C367 C369 1.419 . S
C368 C366 1.415 . S
C368 C373 1.425 1_455 S
C368 C375 1.409 . S
C369 H361 0.930 . S
C369 C367 1.419 . S
C369 C370 1.362 . S
C370 H362 0.930 . S
C370 C369 1.362 . S
C370 C373 1.409 . S
C371 H363 0.930 . S
C371 C372 1.355 1_655 S
C371 C373 1.415 . S
C372 C371 1.355 1_455 S
C372 C374 1.419 . S
C373 C368 1.425 1_655 S
C373 C370 1.409 . S
C373 C371 1.415 . S
C374 H364 0.930 . S
C374 C372 1.419 . S
C374 C375 1.362 . S
C375 H365 0.930 . S
C375 C368 1.409 . S
C375 C374 1.362 . S
H376 C382 0.937 . S
H377 C385 0.930 . S
H378 C386 0.930 . S
H379 C387 0.930 . S
H380 C390 0.930 1_556 S
H381 C391 0.930 . S
C382 H376 0.937 . S
C382 C383 1.344 1_545 S
C382 C384 1.418 . S
C383 C382 1.344 1_565 S
C383 C385 1.419 . S
C384 C382 1.418 . S
C384 C389 1.423 1_545 S
C384 C391 1.413 . S
C385 H377 0.930 . S
C385 C383 1.419 . S
C385 C386 1.362 . S
C386 H378 0.930 . S
C386 C385 1.362 . S
C386 C389 1.409 . S
C387 H379 0.930 . S
C387 C388 1.355 . S
C387 C389 1.415 . S
C388 C387 1.355 . S
C388 C390 1.419 1_565 S
C389 C384 1.423 1_565 S
C389 C386 1.409 . S
C389 C387 1.415 . S
C390 H380 0.930 1_554 S
C390 C388 1.419 1_545 S
C390 C391 1.362 . S
C391 H381 0.930 . S
C391 C384 1.413 . S
C391 C390 1.362 . S
H392 C398 0.930 . S
H393 C401 0.930 . S
H394 C402 0.930 . S
H395 C403 0.930 1_554 S
H396 C406 0.930 . S
H397 C407 0.930 . S
C398 H392 0.930 . S
C398 C399 1.355 . S
C398 C400 1.415 . S
C399 C398 1.355 . S
C399 C401 1.419 1_556 S
C400 C398 1.415 . S
C400 C405 1.425 . S
C400 C407 1.409 . S
C401 H393 0.930 . S
C401 C399 1.419 1_554 S
C401 C402 1.362 . S
C402 H394 0.930 . S
C402 C401 1.362 . S
C402 C405 1.409 1_554 S
C403 H395 0.930 1_556 S
C403 C404 1.355 . S
C403 C405 1.415 . S
C404 C403 1.355 . S
C404 C406 1.419 . S
C405 C400 1.425 . S
C405 C402 1.409 1_556 S
C405 C403 1.415 . S
C406 H396 0.930 . S
C406 C404 1.419 . S
C406 C407 1.362 . S
C407 H397 0.930 . S
C407 C400 1.409 . S
C407 C406 1.362 . S
H408 C414 0.930 . S
H409 C417 0.930 . S
H410 C418 0.930 . S
H411 C419 0.930 . S
H412 C422 0.930 . S
H413 C423 0.930 . S
C414 H408 0.930 . S
C414 C415 1.355 . S
C414 C416 1.415 . S
C415 C414 1.355 . S
C415 C417 1.419 . S
C416 C414 1.415 . S
C416 C421 1.425 . S
C416 C423 1.409 . S
C417 H409 0.930 . S
C417 C415 1.419 . S
C417 C418 1.362 . S
C418 H410 0.930 . S
C418 C417 1.362 . S
C418 C421 1.409 . S
C419 H411 0.930 . S
C419 C420 1.355 . S
C419 C421 1.415 . S
C420 C419 1.355 . S
C420 C422 1.419 . S
C421 C416 1.425 . S
C421 C418 1.409 . S
C421 C419 1.415 . S
C422 H412 0.930 . S
C422 C420 1.419 . S
C422 C423 1.362 . S
C423 H413 0.930 . S
C423 C416 1.409 . S
C423 C422 1.362 . S
H424 C430 0.930 . S
H425 C433 0.930 . S
H426 C434 0.930 . S
H427 C435 0.930 1_556 S
H428 C438 0.930 . S
H429 C439 0.930 . S
C430 H424 0.930 . S
C430 C431 1.348 1_455 S
C430 C432 1.415 . S
C431 C430 1.348 1_655 S
C431 C433 1.427 . S
C432 C430 1.415 . S
C432 C437 1.425 1_455 S
C432 C439 1.409 . S
C433 H425 0.930 . S
C433 C431 1.427 . S
C433 C434 1.362 . S
C434 H426 0.930 . S
C434 C433 1.362 . S
C434 C437 1.409 . S
C435 H427 0.930 1_554 S
C435 C436 1.366 . S
C435 C437 1.415 . S
C436 C435 1.366 . S
C436 C438 1.407 1_655 S
C437 C432 1.425 1_655 S
C437 C434 1.409 . S
C437 C435 1.415 . S
C438 H428 0.930 . S
C438 C436 1.407 1_455 S
C438 C439 1.362 . S
C439 H429 0.930 . S
C439 C432 1.409 . S
C439 C438 1.362 . S
H440 C446 0.930 . S
H441 C449 0.930 . S
H442 C450 0.930 . S
H443 C451 0.930 . S
H444 C454 0.930 . S
H445 C455 0.930 . S
C446 H440 0.930 . S
C446 C447 1.335 1_655 S
C446 C448 1.415 . S
C447 C446 1.335 1_455 S
C447 C449 1.434 . S
C448 C446 1.415 . S
C448 C453 1.425 . S
C448 C455 1.409 . S
C449 H441 0.930 . S
C449 C447 1.434 . S
C449 C450 1.362 . S
C450 H442 0.930 . S
C450 C449 1.362 . S
C450 C453 1.409 1_455 S
C451 H443 0.930 . S
C451 C452 1.355 . S
C451 C453 1.415 . S
C452 C451 1.355 . S
C452 C454 1.419 . S
C453 C448 1.425 . S
C453 C450 1.409 1_655 S
C453 C451 1.415 . S
C454 H444 0.930 . S
C454 C452 1.419 . S
C454 C455 1.362 . S
C455 H445 0.930 . S
C455 C448 1.409 . S
C455 C454 1.362 . S
H456 C462 0.930 . S
H457 C465 0.930 . S
H458 C466 0.930 . S
H459 C467 0.930 . S
H460 C470 0.930 . S
H461 C471 0.930 . S
C462 H456 0.930 . S
C462 C463 1.337 1_545 S
C462 C464 1.415 . S
C463 C462 1.337 1_565 S
C463 C465 1.460 . S
C464 C462 1.415 . S
C464 C469 1.425 1_545 S
C464 C471 1.409 . S
C465 H457 0.930 . S
C465 C463 1.460 . S
C465 C466 1.362 . S
C466 H458 0.930 . S
C466 C465 1.362 . S
C466 C469 1.409 . S
C467 H459 0.930 . S
C467 C468 1.355 . S
C467 C469 1.415 . S
C468 C467 1.355 . S
C468 C470 1.419 1_565 S
C469 C464 1.425 1_565 S
C469 C466 1.409 . S
C469 C467 1.415 . S
C470 H460 0.930 . S
C470 C468 1.419 1_545 S
C470 C471 1.362 . S
C471 H461 0.930 . S
C471 C464 1.409 . S
C471 C470 1.362 . S
H472 C478 0.930 . S
H473 C481 0.930 . S
H474 C482 0.930 . S
H475 C483 0.930 . S
H476 C486 0.930 . S
H477 C487 0.930 . S
C478 H472 0.930 . S
C478 C479 1.355 . S
C478 C480 1.415 . S
C479 C478 1.355 . S
C479 C481 1.419 . S
C480 C478 1.415 . S
C480 C485 1.425 . S
C480 C487 1.409 . S
C481 H473 0.930 . S
C481 C479 1.419 . S
C481 C482 1.362 . S
C482 H474 0.930 . S
C482 C481 1.362 . S
C482 C485 1.409 . S
C483 H475 0.930 . S
C483 C484 1.355 . S
C483 C485 1.415 . S
C484 C483 1.355 . S
C484 C486 1.419 . S
C485 C480 1.425 . S
C485 C482 1.409 . S
C485 C483 1.415 . S
C486 H476 0.930 . S
C486 C484 1.419 . S
C486 C487 1.362 . S
C487 H477 0.930 . S
C487 C480 1.409 . S
C487 C486 1.362 . S
H488 C494 0.930 . S
H489 C497 0.930 . S
H490 C498 0.930 . S
H491 C499 0.930 . S
H492 C502 0.930 . S
H493 C503 0.930 . S
C494 H488 0.930 . S
C494 C495 1.355 . S
C494 C496 1.415 . S
C495 C494 1.355 . S
C495 C497 1.419 . S
C496 C494 1.415 . S
C496 C501 1.425 . S
C496 C503 1.409 . S
C497 H489 0.930 . S
C497 C495 1.419 . S
C497 C498 1.362 . S
C498 H490 0.930 . S
C498 C497 1.362 . S
C498 C501 1.409 . S
C499 H491 0.930 . S
C499 C500 1.355 . S
C499 C501 1.415 . S
C500 C499 1.355 . S
C500 C502 1.419 . S
C501 C496 1.425 . S
C501 C498 1.409 . S
C501 C499 1.415 . S
C502 H492 0.930 . S
C502 C500 1.419 . S
C502 C503 1.362 . S
C503 H493 0.930 . S
C503 C496 1.409 . S
C503 C502 1.362 . S
H504 C510 0.930 . S
H505 C513 0.930 . S
H506 C514 0.930 . S
H507 C515 0.930 . S
H508 C518 0.930 . S
H509 C519 0.930 . S
C510 H504 0.930 . S
C510 C511 1.355 . S
C510 C512 1.415 . S
C511 C510 1.355 . S
C511 C513 1.419 1_455 S
C512 C510 1.415 . S
C512 C517 1.425 . S
C512 C519 1.409 . S
C513 H505 0.930 . S
C513 C511 1.419 1_655 S
C513 C514 1.362 . S
C514 H506 0.930 . S
C514 C513 1.362 . S
C514 C517 1.409 1_655 S
C515 H507 0.930 . S
C515 C516 1.355 . S
C515 C517 1.415 . S
C516 C515 1.355 . S
C516 C518 1.419 . S
C517 C512 1.425 . S
C517 C514 1.409 1_455 S
C517 C515 1.415 . S
C518 H508 0.930 . S
C518 C516 1.419 . S
C518 C519 1.362 . S
C519 H509 0.930 . S
C519 C512 1.409 . S
C519 C518 1.362 . S
H520 C526 0.930 . S
H521 C529 0.930 . S
H522 C530 0.930 . S
H523 C531 0.930 1_565 S
H524 C534 0.930 . S
H525 C535 0.930 . S
C526 H520 0.930 . S
C526 C527 1.355 1_545 S
C526 C528 1.415 . S
C527 C526 1.355 1_565 S
C527 C529 1.419 . S
C528 C526 1.415 . S
C528 C533 1.418 1_545 S
C528 C535 1.409 . S
C529 H521 0.930 . S
C529 C527 1.419 . S
C529 C530 1.362 . S
C530 H522 0.930 . S
C530 C529 1.362 . S
C530 C533 1.420 . S
C531 H523 0.930 1_545 S
C531 C532 1.355 . S
C531 C533 1.411 1_545 S
C532 C531 1.355 . S
C532 C534 1.419 . S
C533 C528 1.418 1_565 S
C533 C530 1.420 . S
C533 C531 1.411 1_565 S
C534 H524 0.930 . S
C534 C532 1.419 . S
C534 C535 1.362 . S
C535 H525 0.930 . S
C535 C528 1.409 . S
C535 C534 1.362 . S
H536 C542 0.930 . S
H537 C545 0.930 . S
H538 C546 0.930 1_554 S
H539 C547 0.923 1_554 S
H540 C550 0.930 . S
H541 C551 0.930 . S
C542 H536 0.930 . S
C542 C543 1.355 . S
C542 C544 1.415 . S
C543 C542 1.355 . S
C543 C545 1.419 . S
C544 C542 1.415 . S
C544 C549 1.425 . S
C544 C551 1.409 . S
C545 H537 0.930 . S
C545 C543 1.419 . S
C545 C546 1.362 . S
C546 H538 0.930 1_556 S
C546 C545 1.362 . S
C546 C549 1.409 . S
C547 H539 0.923 1_556 S
C547 C548 1.355 . S
C547 C549 1.415 . S
C548 C547 1.355 . S
C548 C550 1.419 . S
C549 C544 1.425 . S
C549 C546 1.409 . S
C549 C547 1.415 . S
C550 H540 0.930 . S
C550 C548 1.419 . S
C550 C551 1.362 . S
C551 H541 0.930 . S
C551 C544 1.409 . S
C551 C550 1.362 . S
H552 C558 0.930 . S
H553 C561 0.930 . S
H554 C562 0.930 . S
H555 C563 0.930 . S
H556 C566 0.930 . S
H557 C567 0.930 . S
C558 H552 0.930 . S
C558 C559 1.355 . S
C558 C560 1.415 . S
C559 C558 1.355 . S
C559 C561 1.419 . S
C560 C558 1.415 . S
C560 C565 1.425 . S
C560 C567 1.409 . S
C561 H553 0.930 . S
C561 C559 1.419 . S
C561 C562 1.362 . S
C562 H554 0.930 . S
C562 C561 1.362 . S
C562 C565 1.409 . S
C563 H555 0.930 . S
C563 C564 1.355 . S
C563 C565 1.415 . S
C564 C563 1.355 . S
C564 C566 1.419 . S
C565 C560 1.425 . S
C565 C562 1.409 . S
C565 C563 1.415 . S
C566 H556 0.930 . S
C566 C564 1.419 . S
C566 C567 1.362 . S
C567 H557 0.930 . S
C567 C560 1.409 . S
C567 C566 1.362 . S
H568 C574 0.930 . S
H569 C577 0.930 . S
H570 C578 0.930 . S
H571 C579 0.930 . S
H572 C582 0.930 . S
H573 C583 0.930 . S
C574 H568 0.930 . S
C574 C575 1.330 1_455 S
C574 C576 1.415 . S
C575 C574 1.330 1_655 S
C575 C577 1.445 . S
C576 C574 1.415 . S
C576 C581 1.425 1_455 S
C576 C583 1.409 1_554 S
C577 H569 0.930 . S
C577 C575 1.445 . S
C577 C578 1.362 . S
C578 H570 0.930 . S
C578 C577 1.362 . S
C578 C581 1.409 . S
C579 H571 0.930 . S
C579 C580 1.355 1_654 S
C579 C581 1.415 . S
C580 C579 1.355 1_456 S
C580 C582 1.419 . S
C581 C576 1.425 1_655 S
C581 C578 1.409 . S
C581 C579 1.415 . S
C582 H572 0.930 . S
C582 C580 1.419 . S
C582 C583 1.362 . S
C583 H573 0.930 . S
C583 C576 1.409 1_556 S
C583 C582 1.362 . S
H584 C590 0.930 . S
H585 C593 0.930 . S
H586 C594 0.930 . S
H587 C595 0.930 . S
H588 C598 0.930 . S
H589 C599 0.925 1_565 S
C590 H584 0.930 . S
C590 C591 1.355 . S
C590 C592 1.415 . S
C591 C590 1.355 . S
C591 C593 1.419 1_554 S
C592 C590 1.415 . S
C592 C597 1.425 1_554 S
C592 C599 1.409 . S
C593 H585 0.930 . S
C593 C591 1.419 1_556 S
C593 C594 1.362 . S
C594 H586 0.930 . S
C594 C593 1.362 . S
C594 C597 1.409 . S
C595 H587 0.930 . S
C595 C596 1.355 . S
C595 C597 1.415 . S
C596 C595 1.355 . S
C596 C598 1.419 1_556 S
C597 C592 1.425 1_556 S
C597 C594 1.409 . S
C597 C595 1.415 . S
C598 H588 0.930 . S
C598 C596 1.419 1_554 S
C598 C599 1.362 . S
C599 H589 0.925 1_545 S
C599 C592 1.409 . S
C599 C598 1.362 . S
H600 C606 0.930 . S
H601 C609 0.930 . S
H602 C610 0.930 . S
H603 C611 0.930 . S
H604 C614 0.930 . S
H605 C615 0.930 . S
C606 H600 0.930 . S
C606 C607 1.355 . S
C606 C608 1.415 . S
C607 C606 1.355 . S
C607 C609 1.419 . S
C608 C606 1.415 . S
C608 C613 1.425 . S
C608 C615 1.409 . S
C609 H601 0.930 . S
C609 C607 1.419 . S
C609 C610 1.362 . S
C610 H602 0.930 . S
C610 C609 1.362 . S
C610 C613 1.409 . S
C611 H603 0.930 . S
C611 C612 1.355 . S
C611 C613 1.415 . S
C612 C611 1.355 . S
C612 C614 1.419 . S
C613 C608 1.425 . S
C613 C610 1.409 . S
C613 C611 1.415 . S
C614 H604 0.930 . S
C614 C612 1.419 . S
C614 C615 1.362 . S
C615 H605 0.930 . S
C615 C608 1.409 . S
C615 C614 1.362 . S
H616 C622 0.930 . S
H617 C625 0.930 . S
H618 C626 0.930 . S
H619 C627 0.930 . S
H620 C630 0.930 . S
H621 C631 0.930 . S
C622 H616 0.930 . S
C622 C623 1.355 1_556 S
C622 C624 1.415 . S
C623 C622 1.355 1_554 S
C623 C625 1.419 . S
C624 C622 1.415 . S
C624 C629 1.425 1_556 S
C624 C631 1.409 . S
C625 H617 0.930 . S
C625 C623 1.419 . S
C625 C626 1.362 . S
C626 H618 0.930 . S
C626 C625 1.362 . S
C626 C629 1.409 . S
C627 H619 0.930 . S
C627 C628 1.355 1_554 S
C627 C629 1.415 . S
C628 C627 1.355 1_556 S
C628 C630 1.419 . S
C629 C624 1.425 1_554 S
C629 C626 1.409 . S
C629 C627 1.415 . S
C630 H620 0.930 . S
C630 C628 1.419 . S
C630 C631 1.362 . S
C631 H621 0.930 . S
C631 C624 1.409 . S
C631 C630 1.362 . S
H632 C638 0.930 . S
H633 C641 0.924 1_455 S
H634 C642 0.930 . S
H635 C643 0.930 . S
H636 C646 0.930 . S
H637 C647 0.930 . S
C638 H632 0.930 . S
C638 C639 1.355 . S
C638 C640 1.415 . S
C639 C638 1.355 . S
C639 C641 1.422 . S
C640 C638 1.415 . S
C640 C645 1.425 . S
C640 C647 1.409 . S
C641 H633 0.924 1_655 S
C641 C639 1.422 . S
C641 C642 1.367 . S
C642 H634 0.930 . S
C642 C641 1.367 . S
C642 C645 1.409 . S
C643 H635 0.930 . S
C643 C644 1.355 . S
C643 C645 1.415 . S
C644 C643 1.355 . S
C644 C646 1.419 . S
C645 C640 1.425 . S
C645 C642 1.409 . S
C645 C643 1.415 . S
C646 H636 0.930 . S
C646 C644 1.419 . S
C646 C647 1.362 . S
C647 H637 0.930 . S
C647 C640 1.409 . S
C647 C646 1.362 . S
H648 C654 0.943 . S
H649 C657 0.930 . S
H650 C658 0.930 . S
H651 C659 0.930 . S
H652 C662 0.930 . S
H653 C663 0.922 1_545 S
C654 H648 0.943 . S
C654 C655 1.341 1_545 S
C654 C656 1.410 1_545 S
C655 C654 1.341 1_565 S
C655 C657 1.431 . S
C656 C654 1.410 1_565 S
C656 C661 1.425 . S
C656 C663 1.409 . S
C657 H649 0.930 . S
C657 C655 1.431 . S
C657 C658 1.362 . S
C658 H650 0.930 . S
C658 C657 1.362 . S
C658 C661 1.409 . S
C659 H651 0.930 . S
C659 C660 1.355 . S
C659 C661 1.415 . S
C660 C659 1.355 . S
C660 C662 1.419 . S
C661 C656 1.425 . S
C661 C658 1.409 . S
C661 C659 1.415 . S
C662 H652 0.930 . S
C662 C660 1.419 . S
C662 C663 1.362 . S
C663 H653 0.922 1_565 S
C663 C656 1.409 . S
C663 C662 1.362 . S
H664 C670 0.930 . S
H665 C673 0.930 . S
H666 C674 0.930 . S
H667 C675 0.930 . S
H668 C678 0.930 . S
H669 C679 0.930 . S
C670 H664 0.930 . S
C670 C671 1.355 . S
C670 C672 1.415 . S
C671 C670 1.355 . S
C671 C673 1.419 . S
C672 C670 1.415 . S
C672 C677 1.425 . S
C672 C679 1.409 . S
C673 H665 0.930 . S
C673 C671 1.419 . S
C673 C674 1.362 . S
C674 H666 0.930 . S
C674 C673 1.362 . S
C674 C677 1.409 . S
C675 H667 0.930 . S
C675 C676 1.355 . S
C675 C677 1.415 . S
C676 C675 1.355 . S
C676 C678 1.419 . S
C677 C672 1.425 . S
C677 C674 1.409 . S
C677 C675 1.415 . S
C678 H668 0.930 . S
C678 C676 1.419 . S
C678 C679 1.362 . S
C679 H669 0.930 . S
C679 C672 1.409 . S
C679 C678 1.362 . S
H680 C686 0.930 . S
H681 C689 0.930 . S
H682 C690 0.930 . S
H683 C691 0.930 . S
H684 C694 0.930 . S
H685 C695 0.930 . S
C686 H680 0.930 . S
C686 C687 1.355 . S
C686 C688 1.415 . S
C687 C686 1.355 . S
C687 C689 1.419 . S
C688 C686 1.415 . S
C688 C693 1.425 . S
C688 C695 1.409 . S
C689 H681 0.930 . S
C689 C687 1.419 . S
C689 C690 1.362 . S
C690 H682 0.930 . S
C690 C689 1.362 . S
C690 C693 1.409 . S
C691 H683 0.930 . S
C691 C692 1.355 . S
C691 C693 1.415 . S
C692 C691 1.355 . S
C692 C694 1.419 . S
C693 C688 1.425 . S
C693 C690 1.409 . S
C693 C691 1.415 . S
C694 H684 0.930 . S
C694 C692 1.419 . S
C694 C695 1.362 . S
C695 H685 0.930 . S
C695 C688 1.409 . S
C695 C694 1.362 . S
C319 C125 2.044 . S
C324 C175 2.084 . S
C340 C215 1.844 . S
C335 C144 1.636 . S
C356 C234 2.071 . S
C351 C87 1.973 . S
C372 C295 1.468 1_455 S
C367 C106 1.400 . S
C388 C154 2.082 1_564 S
C383 C49 2.041 . S
C399 C68 1.697 . S
C404 C194 1.817 . S
C415 C11 2.093 . S
C420 C255 2.074 1_554 S
C431 C30 1.428 . S
C436 C274 1.444 1_654 S
C452 C156 1.052 . S
C447 C97 1.015 1_455 S
C468 C196 0.442 . S
C463 C116 0.516 . S
C484 C252 1.313 . S
C479 C135 1.139 . S
C495 C78 0.528 . S
C500 C276 0.471 . S
C511 C21 0.959 1_455 S
C516 C177 1.003 . S
C532 C217 0.575 . S
C527 C40 0.580 . S
C548 C263 1.233 . S
C543 C59 1.078 . S
C559 C2 0.581 . S
C564 C297 0.509 . S
C575 C101 1.507 . S
C580 C172 1.673 . S
C591 C120 2.260 1_545 S
C596 C212 2.434 . S
C612 C236 1.484 . S
C607 C139 1.518 . S
C628 C292 2.411 . S
C623 C82 2.177 . S
C639 C25 1.445 . S
C644 C183 1.642 . S
C660 C223 2.441 . S
C655 C44 2.260 . S
C676 C257 1.516 . S
C671 C63 1.495 . S
C687 C6 2.216 . S
C692 C303 2.416 . S
