# Generated by pormake.
# Topology rtl, (3,6)-cn, num edge types: 1
# Building blocks:
#     Node 0, Type 0, BuildingBlock: KAKCAD_clean_linker_0, # of connection points: 3
#     Node 1, Type 0, BuildingBlock: KAKCAD_clean_linker_0, # of connection points: 3
#     Node 2, Type 0, BuildingBlock: KAKCAD_clean_linker_0, # of connection points: 3
#     Node 3, Type 0, BuildingBlock: KAKCAD_clean_linker_0, # of connection points: 3
#     Node 4, Type 1, BuildingBlock: FUNLAD_clean_sbu_0, # of connection points: 6
#     Node 5, Type 1, BuildingBlock: FUNLAD_clean_sbu_0, # of connection points: 6
#     Edge 6, Type (0, 1), BuildingBlock: XIVTED_clean_linker_0, # of connection points: 2
#     Edge 7, Type (0, 1), BuildingBlock: XIVTED_clean_linker_0, # of connection points: 2
#     Edge 8, Type (0, 1), BuildingBlock: XIVTED_clean_linker_0, # of connection points: 2
#     Edge 9, Type (0, 1), BuildingBlock: XIVTED_clean_linker_0, # of connection points: 2
#     Edge 10, Type (0, 1), BuildingBlock: XIVTED_clean_linker_0, # of connection points: 2
#     Edge 11, Type (0, 1), BuildingBlock: XIVTED_clean_linker_0, # of connection points: 2
#     Edge 12, Type (0, 1), BuildingBlock: XIVTED_clean_linker_0, # of connection points: 2
#     Edge 13, Type (0, 1), BuildingBlock: XIVTED_clean_linker_0, # of connection points: 2
#     Edge 14, Type (0, 1), BuildingBlock: XIVTED_clean_linker_0, # of connection points: 2
#     Edge 15, Type (0, 1), BuildingBlock: XIVTED_clean_linker_0, # of connection points: 2
#     Edge 16, Type (0, 1), BuildingBlock: XIVTED_clean_linker_0, # of connection points: 2
#     Edge 17, Type (0, 1), BuildingBlock: XIVTED_clean_linker_0, # of connection points: 2
# Relax obj value: 0.027
# Max RMSD: 0.092
# Mean RMSD: 0.078
data_MOF--net-rtl--node1-FUNLAD_clean_sbu_0--node2-KAKCAD_clean_linker_0--edge1-XIVTED_clean_linker_0
_symmetry_space_group_name_H-M    P1
_symmetry_Int_Tables_number       1
_symmetry_cell_setting            triclinic
loop_
_symmetry_equiv_pos_as_xyz
'x, y, z'
_cell_length_a     49.31117
_cell_length_b     40.173558
_cell_length_c     28.484319
_cell_angle_alpha  89.839609
_cell_angle_beta   90.883678
_cell_angle_gamma 90.479039
loop_
_atom_site_label
_atom_site_type_symbol
_atom_site_fract_x
_atom_site_fract_y
_atom_site_fract_z
_atom_type_partial_charge
C0 C 0.08751 0.77254 0.84241 0.0
C1 C 0.07528 0.80395 0.84228 0.0
C2 C 0.09772 0.75894 0.88437 0.0
C3 C 0.09636 0.77688 0.92669 0.0
C4 C 0.08432 0.80856 0.9259 0.0
C5 C 0.07365 0.82171 0.88437 0.0
C6 C 0.10805 0.76354 0.97144 0.0
C7 C 0.13211 0.74507 0.97199 0.0
C8 C 0.14435 0.73499 0.01466 0.0
C9 C 0.1328 0.74505 0.05725 0.0
C10 C 0.109 0.76409 0.05735 0.0
C11 C 0.09613 0.77149 0.01433 0.0
C12 C 0.09851 0.77875 0.10149 0.0
C13 C 0.10006 0.76169 0.14471 0.0
C14 C 0.08735 0.81092 0.10055 0.0
C15 C 0.07746 0.8253 0.14118 0.0
C16 C 0.07902 0.80831 0.18412 0.0
C17 C 0.1698 0.71521 0.01433 0.0
C18 C 0.17364 0.69076 0.9798 0.0
C19 C 0.19065 0.72095 0.04773 0.0
C20 C 0.21474 0.70288 0.04639 0.0
C21 C 0.21867 0.67906 0.01122 0.0
C22 C 0.19788 0.6731 0.97804 0.0
C23 C 0.0906 0.77651 0.18579 0.0
H24 H 0.08898 0.75847 0.81017 0.0
H25 H 0.10658 0.73438 0.88359 0.0
H26 H 0.08363 0.82373 0.9572 0.0
H27 H 0.06477 0.84629 0.88489 0.0
H28 H 0.14198 0.73967 0.93921 0.0
H29 H 0.07692 0.78437 0.01425 0.0
H30 H 0.14262 0.73863 0.09024 0.0
H31 H 0.10836 0.73686 0.14681 0.0
H32 H 0.08662 0.82544 0.06849 0.0
H33 H 0.06913 0.85015 0.13921 0.0
H34 H 0.15788 0.68514 0.95408 0.0
H35 H 0.18871 0.73995 0.07431 0.0
H36 H 0.09202 0.763 0.21869 0.0
H37 H 0.20031 0.65457 0.9509 0.0
H38 H 0.2306 0.70816 0.0721 0.0
C39 C 0.58437 0.72924 0.66742 0.0
C40 C 0.58509 0.69427 0.66889 0.0
C41 C 0.59121 0.74636 0.6263 0.0
C42 C 0.59836 0.72869 0.5859 0.0
C43 C 0.59898 0.69377 0.5875 0.0
C44 C 0.59251 0.67676 0.62855 0.0
C45 C 0.60556 0.7462 0.54199 0.0
C46 C 0.62568 0.77114 0.54224 0.0
C47 C 0.63529 0.78423 0.49978 0.0
C48 C 0.62373 0.77325 0.45714 0.0
C49 C 0.60354 0.74843 0.45634 0.0
C50 C 0.59442 0.73527 0.49902 0.0
C51 C 0.59413 0.73358 0.41121 0.0
C52 C 0.56685 0.7241 0.40432 0.0
C53 C 0.61287 0.72651 0.37598 0.0
C54 C 0.60473 0.70936 0.33558 0.0
C55 C 0.5777 0.69868 0.32953 0.0
C56 C 0.65959 0.80613 0.4994 0.0
C57 C 0.6621 0.83358 0.52962 0.0
C58 C 0.68106 0.79863 0.46953 0.0
C59 C 0.70461 0.81798 0.46992 0.0
C60 C 0.70727 0.8456 0.49991 0.0
C61 C 0.68567 0.85327 0.5297 0.0
C62 C 0.55872 0.70682 0.36392 0.0
H63 H 0.57882 0.74329 0.69816 0.0
H64 H 0.59062 0.7733 0.62587 0.0
H65 H 0.60476 0.67956 0.55701 0.0
H66 H 0.59297 0.6498 0.62854 0.0
H67 H 0.63521 0.77854 0.57519 0.0
H68 H 0.57948 0.71532 0.49885 0.0
H69 H 0.63106 0.78345 0.42438 0.0
H70 H 0.55188 0.72947 0.43062 0.0
H71 H 0.6341 0.73308 0.38034 0.0
H72 H 0.61977 0.70394 0.30941 0.0
H73 H 0.64578 0.83989 0.55295 0.0
H74 H 0.67994 0.77715 0.44663 0.0
H75 H 0.53777 0.69879 0.36048 0.0
H76 H 0.68691 0.87452 0.55293 0.0
H77 H 0.72103 0.81067 0.44745 0.0
C78 C 0.90781 0.19874 0.1718 0.0
C79 C 0.93578 0.19791 0.18239 0.0
C80 C 0.8982 0.21451 0.1312 0.0
C81 C 0.91631 0.2294 0.09981 0.0
C82 C 0.94419 0.22914 0.11043 0.0
C83 C 0.95382 0.21383 0.15151 0.0
C84 C 0.90607 0.24322 0.05476 0.0
C85 C 0.88388 0.26482 0.05394 0.0
C86 C 0.87202 0.27512 0.01114 0.0
C87 C 0.88313 0.26385 0.96888 0.0
C88 C 0.90547 0.24227 0.96909 0.0
C89 C 0.91694 0.23237 0.01234 0.0
C90 C 0.91536 0.2276 0.92465 0.0
C91 C 0.89684 0.21709 0.8896 0.0
C92 C 0.94317 0.22194 0.91819 0.0
C93 C 0.95212 0.20499 0.87859 0.0
C94 C 0.93347 0.19341 0.84442 0.0
C95 C 0.84709 0.29589 0.01067 0.0
C96 C 0.82702 0.29089 0.04468 0.0
C97 C 0.84268 0.32008 0.97558 0.0
C98 C 0.81865 0.33833 0.9741 0.0
C99 C 0.79872 0.33317 0.00809 0.0
C100 C 0.80324 0.3095 0.0436 0.0
C101 C 0.9058 0.20036 0.84992 0.0
H102 H 0.89327 0.18622 0.19395 0.0
H103 H 0.87662 0.21395 0.12342 0.0
H104 H 0.95853 0.24065 0.08682 0.0
H105 H 0.97543 0.21433 0.15882 0.0
H106 H 0.87578 0.27336 0.0869 0.0
H107 H 0.93334 0.21457 0.01318 0.0
H108 H 0.87391 0.27109 0.93569 0.0
H109 H 0.87526 0.22065 0.89352 0.0
H110 H 0.95802 0.23009 0.94421 0.0
H111 H 0.97357 0.19993 0.87566 0.0
H112 H 0.8293 0.272 0.07159 0.0
H113 H 0.85781 0.32503 0.94926 0.0
H114 H 0.89091 0.19236 0.82389 0.0
H115 H 0.78801 0.30471 0.06984 0.0
H116 H 0.81571 0.35667 0.94656 0.0
C117 C 0.40858 0.29216 0.33018 0.0
C118 C 0.43567 0.30252 0.32521 0.0
C119 C 0.40041 0.27523 0.37045 0.0
C120 C 0.41917 0.268 0.40667 0.0
C121 C 0.4465 0.27717 0.40089 0.0
C122 C 0.45466 0.29427 0.36061 0.0
C123 C 0.40969 0.25328 0.45154 0.0
C124 C 0.38902 0.22904 0.4515 0.0
C125 C 0.37694 0.21872 0.49354 0.0
C126 C 0.38695 0.23163 0.53631 0.0
C127 C 0.4081 0.25531 0.5372 0.0
C128 C 0.4193 0.26598 0.49462 0.0
C129 C 0.41693 0.27125 0.582 0.0
C130 C 0.39771 0.28078 0.61525 0.0
C131 C 0.44444 0.27876 0.59069 0.0
C132 C 0.45246 0.29628 0.63095 0.0
C133 C 0.43314 0.30663 0.66353 0.0
C134 C 0.35213 0.19734 0.49239 0.0
C135 C 0.33224 0.20213 0.45715 0.0
C136 C 0.34718 0.17368 0.52783 0.0
C137 C 0.32252 0.15621 0.52893 0.0
C138 C 0.30234 0.16187 0.49445 0.0
C139 C 0.30781 0.18446 0.45797 0.0
C140 C 0.40573 0.29816 0.65557 0.0
H141 H 0.39352 0.29763 0.30324 0.0
H142 H 0.37913 0.26893 0.37388 0.0
H143 H 0.4615 0.27169 0.42792 0.0
H144 H 0.47567 0.30205 0.35803 0.0
H145 H 0.38184 0.21878 0.4184 0.0
H146 H 0.4344 0.28573 0.49487 0.0
H147 H 0.37762 0.2242 0.56892 0.0
H148 H 0.37631 0.27577 0.60946 0.0
H149 H 0.45978 0.27148 0.56599 0.0
H150 H 0.47371 0.30261 0.63574 0.0
H151 H 0.33506 0.22042 0.42964 0.0
H152 H 0.36217 0.16903 0.55519 0.0
H153 H 0.39037 0.30529 0.68029 0.0
H154 H 0.29299 0.18897 0.43028 0.0
H155 H 0.31897 0.13909 0.55766 0.0
C156 C 0.01978 0.95668 0.44271 0.0
N157 N 0.06546 0.02873 0.51572 0.0
C158 C 0.08698 0.00789 0.51279 0.0
C159 C 0.1134 0.0207 0.51184 0.0
C160 C 0.11771 0.05528 0.51418 0.0
C161 C 0.09509 0.07608 0.51819 0.0
C162 C 0.06907 0.06225 0.51865 0.0
Zn163 Zn 0.02684 0.01013 0.51411 0.0
C164 C 0.99154 0.04736 0.44685 0.0
N165 N 0.94587 0.97198 0.51011 0.0
C166 C 0.94133 0.93887 0.50338 0.0
C167 C 0.92495 0.99347 0.51551 0.0
C168 C 0.89821 0.98183 0.51455 0.0
C169 C 0.89298 0.94788 0.5071 0.0
C170 C 0.91488 0.92627 0.50136 0.0
Zn171 Zn 0.98468 0.99005 0.51192 0.0
O172 O 0.03745 0.97617 0.46081 0.0
C173 C 0.02003 0.95256 0.57855 0.0
O174 O 0.99547 0.95774 0.45671 0.0
H175 H 0.92897 0.01974 0.5204 0.0
H176 H 0.08365 0.98129 0.51054 0.0
H177 H 0.95825 0.92219 0.49949 0.0
O178 O 0.03733 0.97408 0.56519 0.0
O179 O 0.99598 0.95333 0.56185 0.0
H180 H 0.0517 0.07838 0.52098 0.0
O181 O 0.97458 0.02226 0.5669 0.0
O182 O 0.01555 0.04384 0.56826 0.0
O183 O 0.97388 0.02708 0.46231 0.0
O184 O 0.01584 0.0457 0.46209 0.0
C185 C 0.99158 0.04296 0.58404 0.0
H186 H 0.13016 0.00371 0.50822 0.0
H187 H 0.0974 0.10283 0.52101 0.0
H188 H 0.88177 0.99925 0.5187 0.0
H189 H 0.91157 0.89986 0.49591 0.0
C190 C 0.49003 0.45842 0.92722 0.0
N191 N 0.56496 0.4693 -0.00192 0.0
C192 C 0.56751 0.43582 0.99275 0.0
C193 C 0.59317 0.42139 0.99213 0.0
C194 C 0.61637 0.44154 -0.00225 0.0
C195 C 0.61317 0.47594 0.00359 0.0
C196 C 0.58716 0.48941 0.00328 0.0
Zn197 Zn 0.52717 0.48996 -0.00216 0.0
C198 C 0.52353 0.54679 0.93064 0.0
N199 N 0.44858 0.53413 0.99676 0.0
C200 C 0.42613 0.51445 0.00092 0.0
C201 C 0.44652 0.56782 0.99334 0.0
C202 C 0.42115 0.58294 0.99382 0.0
C203 C 0.39772 0.56327 -0.00134 0.0
C204 C 0.40038 0.52861 0.00236 0.0
Zn205 Zn 0.48625 0.51311 0.99681 0.0
O206 O 0.51415 0.45728 0.94352 0.0
C207 C 0.49039 0.45624 0.06436 0.0
O208 O 0.47369 0.47967 0.94343 0.0
H209 H 0.4646 0.58307 0.99056 0.0
H210 H 0.54963 0.42025 0.98898 0.0
H211 H 0.42819 0.48772 0.00333 0.0
O212 O 0.51434 0.45514 0.04867 0.0
O213 O 0.4742 0.47831 0.04887 0.0
H214 H 0.58471 0.51598 0.00707 0.0
O215 O 0.49918 0.5463 0.05003 0.0
O216 O 0.53928 0.52307 0.05221 0.0
O217 O 0.49926 0.54749 0.94497 0.0
O218 O 0.53966 0.52502 0.94707 0.0
C219 C 0.52302 0.5448 0.06735 0.0
H220 H 0.59484 0.39469 0.98799 0.0
H221 H 0.63061 0.49231 0.00763 0.0
H222 H 0.4199 0.6098 0.99135 0.0
H223 H 0.38271 0.51263 0.00579 0.0
H224 H 0.25287 0.18919 0.47423 0.0
H225 H 0.16536 0.03123 0.5525 0.0
H226 H 0.28971 0.0978 0.52228 0.0
H227 H 0.13356 0.11237 0.46908 0.0
H228 H 0.21068 0.0562 0.5474 0.0
H229 H 0.20851 0.1626 0.47829 0.0
C230 C 0.25171 0.16339 0.48519 0.0
C231 C 0.27521 0.14563 0.4974 0.0
C232 C 0.19374 0.06845 0.53022 0.0
C233 C 0.22412 0.11517 0.50315 0.0
C234 C 0.16787 0.05416 0.53291 0.0
C235 C 0.14549 0.06978 0.51141 0.0
C236 C 0.19722 0.09867 0.50612 0.0
C237 C 0.15001 0.09972 0.48708 0.0
C238 C 0.22628 0.14827 0.48777 0.0
C239 C 0.27219 0.11255 0.5128 0.0
N240 N 0.17528 0.1132 0.48526 0.0
N241 N 0.24709 0.09837 0.51526 0.0
H242 H 0.25021 0.67058 0.93434 0.0
H243 H 0.35761 0.55236 0.06225 0.0
H244 H 0.24609 0.64665 0.08177 0.0
H245 H 0.37655 0.60982 0.93872 0.0
H246 H 0.31337 0.57976 0.0652 0.0
H247 H 0.29353 0.64134 0.93053 0.0
C248 C 0.25839 0.65897 0.96582 0.0
C249 C 0.24465 0.661 0.00845 0.0
C250 C 0.32724 0.58633 0.03748 0.0
C251 C 0.29397 0.6275 0.00431 0.0
C252 C 0.35234 0.57059 0.03561 0.0
C253 C 0.37069 0.57895 0.00024 0.0
C254 C 0.32031 0.61013 0.00326 0.0
C255 C 0.36303 0.60291 0.96677 0.0
C256 C 0.28313 0.64249 0.96369 0.0
C257 C 0.2562 0.64582 0.04833 0.0
N258 N 0.33834 0.61756 0.96895 0.0
N259 N 0.28016 0.62952 0.04526 0.0
H260 H 0.73355 0.87405 0.57602 0.0
H261 H 0.8699 0.90821 0.43986 0.0
H262 H 0.73976 0.86217 0.42587 0.0
H263 H 0.85224 0.95859 0.56921 0.0
H264 H 0.82336 0.88652 0.43713 0.0
H265 H 0.77783 0.90198 0.57709 0.0
C266 C 0.74397 0.87766 0.5432 0.0
C267 C 0.73294 0.86533 0.50084 0.0
C268 C 0.82962 0.90247 0.46599 0.0
C269 C 0.78388 0.89651 0.50218 0.0
C270 C 0.85617 0.91462 0.4677 0.0
C271 C 0.86481 0.93509 0.50486 0.0
C272 C 0.81175 0.91039 0.50212 0.0
C273 C 0.84623 0.94297 0.53987 0.0
C274 C 0.76932 0.89344 0.54393 0.0
C275 C 0.74769 0.87041 0.45956 0.0
N276 N 0.82057 0.93034 0.53791 0.0
N277 N 0.7725 0.88525 0.46135 0.0
H278 H 0.77382 0.36597 0.07924 0.0
H279 H 0.63672 0.39703 0.93528 0.0
H280 H 0.7648 0.34189 0.93234 0.0
H281 H 0.65818 0.45237 0.06016 0.0
H282 H 0.68196 0.3722 0.93656 0.0
H283 H 0.72979 0.39383 0.07597 0.0
C284 C 0.76255 0.36665 0.0463 0.0
C285 C 0.77287 0.35166 0.00599 0.0
C286 C 0.6768 0.3899 0.96354 0.0
C287 C 0.72255 0.3831 0.00209 0.0
C288 C 0.65098 0.40387 0.963 0.0
C289 C 0.64377 0.42672 -0.0023 0.0
C290 C 0.69536 0.39842 -0.00051 0.0
C291 C 0.66304 0.43501 0.03259 0.0
C292 C 0.73754 0.38263 0.0444 0.0
C293 C 0.75761 0.35339 0.96409 0.0
N294 N 0.68791 0.42066 0.03283 0.0
N295 N 0.73307 0.36856 0.96331 0.0
H296 H 0.10655 0.81925 0.2667 0.0
H297 H 0.98646 0.92113 0.38337 0.0
H298 H 0.02932 0.83532 0.19772 0.0
H299 H 0.07085 0.93662 0.4204 0.0
H300 H -3e-05 0.881 0.32375 0.0
H301 H 0.09155 0.85315 0.33298 0.0
C302 C 0.08628 0.82945 0.266 0.0
C303 C 0.06913 0.82471 0.22686 0.0
C304 C 0.01549 0.89318 0.34502 0.0
C305 C 0.05196 0.86334 0.3019 0.0
C306 C 0.00782 0.91604 0.37902 0.0
C307 C 0.02759 0.93243 0.40658 0.0
C308 C 0.04308 0.88628 0.33906 0.0
C309 C 0.05496 0.9248 0.39957 0.0
C310 C 0.07784 0.84896 0.30348 0.0
C311 C 0.04315 0.83866 0.22725 0.0
N312 N 0.06191 0.90219 0.36655 0.0
N313 N 0.03534 0.8574 0.26417 0.0
H314 H 0.6126 0.64301 0.70993 0.0
H315 H 0.49579 0.59928 0.89176 0.0
H316 H 0.54116 0.70299 0.72524 0.0
H317 H 0.57294 0.54932 0.88864 0.0
H318 H 0.51186 0.63795 0.83153 0.0
H319 H 0.59846 0.60899 0.77643 0.0
C320 C 0.59396 0.64906 0.72751 0.0
C321 C 0.5779 0.67565 0.71193 0.0
C322 C 0.5253 0.61861 0.84423 0.0
C323 C 0.56148 0.63677 0.788 0.0
C324 C 0.51611 0.59647 0.87849 0.0
C325 C 0.533 0.57089 0.89506 0.0
C326 C 0.55147 0.61502 0.82625 0.0
C327 C 0.55918 0.56855 0.8768 0.0
C328 C 0.58592 0.62971 0.76556 0.0
C329 C 0.55414 0.68275 0.73632 0.0
N330 N 0.56754 0.5902 0.84324 0.0
N331 N 0.54649 0.66319 0.77293 0.0
H332 H 0.98298 0.16207 0.19178 0.0
H333 H 0.94089 0.07042 0.42538 0.0
H334 H 0.91197 0.19043 0.26878 0.0
H335 H 0.02478 0.08063 0.38628 0.0
H336 H 0.92841 0.11011 0.36353 0.0
H337 H 0.99771 0.12847 0.25877 0.0
C338 C 0.97061 0.16171 0.22284 0.0
C339 C 0.94602 0.17915 0.22421 0.0
C340 C 0.94956 0.10381 0.36875 0.0
C341 C 0.96253 0.13973 0.30053 0.0
C342 C 0.95668 0.08107 0.40382 0.0
C343 C 0.9839 0.0722 0.41084 0.0
C344 C 0.96973 0.11724 0.33989 0.0
C345 C 0.00356 0.08687 0.38207 0.0
C346 C 0.97901 0.14229 0.26099 0.0
C347 C 0.93071 0.1769 0.26539 0.0
N348 N 0.99605 0.10842 0.34744 0.0
N349 N 0.93905 0.15727 0.30164 0.0
H350 H 0.47873 0.30118 0.71987 0.0
H351 H 0.44105 0.45672 0.88078 0.0
H352 H 0.40641 0.35982 0.7004 0.0
H353 H 0.51849 0.40742 0.88816 0.0
H354 H 0.42677 0.41878 0.8182 0.0
H355 H 0.4925 0.33741 0.78499 0.0
C356 C 0.46575 0.32167 0.7292 0.0
C357 C 0.44135 0.32742 0.70452 0.0
C358 C 0.44689 0.41624 0.8335 0.0
C359 C 0.45689 0.36878 0.77935 0.0
C360 C 0.45506 0.43789 0.86929 0.0
C361 C 0.48105 0.43533 0.88965 0.0
C362 C 0.46478 0.39171 0.818 0.0
C363 C 0.4983 0.41038 0.87335 0.0
C364 C 0.47359 0.34226 0.76651 0.0
C365 C 0.42517 0.35407 0.71876 0.0
N366 N 0.48986 0.38954 0.83847 0.0
N367 N 0.43325 0.37374 0.75512 0.0
H368 H 0.53088 0.70114 0.276 0.0
H369 H 0.57196 0.54751 0.11393 0.0
H370 H 0.60621 0.64782 0.29068 0.0
H371 H 0.49388 0.59528 0.10594 0.0
H372 H 0.58567 0.58599 0.17625 0.0
H373 H 0.51765 0.66433 0.21119 0.0
C374 C 0.54463 0.6817 0.26562 0.0
C375 C 0.56971 0.67762 0.2888 0.0
C376 C 0.56554 0.58807 0.16086 0.0
C377 C 0.55479 0.63556 0.2145 0.0
C378 C 0.5577 0.5661 0.12525 0.0
C379 C 0.5317 0.5681 0.10479 0.0
C380 C 0.54729 0.61229 0.1761 0.0
C381 C 0.5141 0.59276 0.12081 0.0
C382 C 0.53712 0.66079 0.22851 0.0
C383 C 0.58687 0.65227 0.27342 0.0
N384 N 0.52221 0.61387 0.15555 0.0
N385 N 0.57907 0.6322 0.23734 0.0
H386 H 0.9798 0.20003 0.79199 0.0
H387 H 0.94297 0.04401 0.62831 0.0
H388 H 0.90803 0.13876 0.80648 0.0
H389 H 0.02092 0.09373 0.6258 0.0
H390 H 0.92902 0.08128 0.69043 0.0
H391 H 0.99453 0.16387 0.72828 0.0
C392 C 0.96715 0.17901 0.78188 0.0
C393 C 0.94254 0.17258 0.80461 0.0
C394 C 0.9492 0.08408 0.67642 0.0
C395 C 0.95918 0.13134 0.7315 0.0
C396 C 0.9572 0.06279 0.64083 0.0
C397 C 0.98321 0.06567 0.62185 0.0
C398 C 0.96725 0.10865 0.69324 0.0
C399 C 0.00071 0.09056 0.63953 0.0
C400 C 0.97554 0.15846 0.74541 0.0
C401 C 0.92686 0.14517 0.78954 0.0
N402 N 0.9924 0.11115 0.67426 0.0
N403 N 0.93544 0.12565 0.75403 0.0
H404 H 0.48246 0.29971 0.27397 0.0
H405 H 0.44123 0.45281 0.10751 0.0
H406 H 0.40725 0.35332 0.284 0.0
H407 H 0.51945 0.40538 0.10432 0.0
H408 H 0.42751 0.41418 0.16916 0.0
H409 H 0.49561 0.3361 0.20901 0.0
C410 C 0.46872 0.31911 0.26256 0.0
C411 C 0.44368 0.32339 0.28449 0.0
C412 C 0.44767 0.41217 0.15495 0.0
C413 C 0.45852 0.36496 0.20997 0.0
C414 C 0.45552 0.43423 0.1197 0.0
C415 C 0.48158 0.43242 0.10084 0.0
C416 C 0.46598 0.38807 0.17151 0.0
C417 C 0.49919 0.40775 0.11795 0.0
C418 C 0.47619 0.33979 0.22535 0.0
C419 C 0.42655 0.34869 0.26776 0.0
N420 N 0.49108 0.38658 0.15238 0.0
N421 N 0.43431 0.36851 0.23163 0.0
H422 H 0.02489 0.82851 0.82422 0.0
H423 H 0.07116 0.93329 0.60421 0.0
H424 H 0.10311 0.81531 0.76171 0.0
H425 H 0.9867 0.91347 0.63178 0.0
H426 H 0.08373 0.89207 0.66387 0.0
H427 H 0.01046 0.86112 0.75559 0.0
C428 C 0.03885 0.83216 0.79561 0.0
C429 C 0.06518 0.81936 0.79837 0.0
C430 C 0.06246 0.89656 0.65655 0.0
C431 C 0.04912 0.85704 0.72056 0.0
C432 C 0.05527 0.92022 0.62278 0.0
C433 C 0.02784 0.92695 0.61331 0.0
C434 C 0.0421 0.87996 0.68161 0.0
C435 C 0.00808 0.90908 0.63808 0.0
C436 C 0.03064 0.85068 0.75655 0.0
C437 C 0.08258 0.82468 0.7606 0.0
N438 N 0.0156 0.88665 0.67152 0.0
N439 N 0.07439 0.84359 0.72345 0.0
loop_
_geom_bond_atom_site_label_1
_geom_bond_atom_site_label_2
_geom_bond_distance
_geom_bond_site_symmetry_2
_ccdc_geom_bond_type
C0 C1 1.386 . S
C0 C2 1.397 . S
C0 H24 0.931 . S
C1 C0 1.386 . S
C1 C5 1.397 . S
C2 C0 1.397 . S
C2 C3 1.384 . S
C2 H25 0.930 . S
C3 C2 1.384 . S
C3 C4 1.377 . S
C3 C6 1.481 . S
C4 C3 1.377 . S
C4 C5 1.389 . S
C4 H26 0.929 . S
C5 C1 1.397 . S
C5 C4 1.389 . S
C5 H27 0.931 . S
C6 C3 1.481 . S
C6 C7 1.387 . S
C6 C11 1.390 1_556 S
C7 C6 1.387 . S
C7 C8 1.401 1_556 S
C7 H28 0.930 . S
C8 C7 1.401 1_554 S
C8 C9 1.376 . S
C8 C17 1.511 . S
C9 C8 1.376 . S
C9 C10 1.392 . S
C9 H30 0.931 . S
C10 C9 1.392 . S
C10 C11 1.361 . S
C10 C12 1.500 . S
C11 C6 1.390 1_554 S
C11 C10 1.361 . S
C11 H29 0.931 . S
C12 C10 1.500 . S
C12 C13 1.371 . S
C12 C14 1.365 . S
C13 C12 1.371 . S
C13 C23 1.386 . S
C13 H31 0.931 . S
C14 C12 1.365 . S
C14 C15 1.409 . S
C14 H32 0.929 . S
C15 C14 1.409 . S
C15 C16 1.380 . S
C15 H33 0.930 . S
C16 C15 1.380 . S
C16 C23 1.357 . S
C17 C8 1.511 . S
C17 C18 1.341 1_554 S
C17 C19 1.371 . S
C18 C17 1.341 1_556 S
C18 C22 1.394 . S
C18 H34 0.930 . S
C19 C17 1.371 . S
C19 C20 1.392 . S
C19 H35 0.931 . S
C20 C19 1.392 . S
C20 C21 1.331 . S
C20 H38 0.932 . S
C21 C20 1.331 . S
C21 C22 1.336 1_554 S
C22 C18 1.394 . S
C22 C21 1.336 1_556 S
C22 H37 0.929 . S
C23 C13 1.386 . S
C23 C16 1.357 . S
C23 H36 0.928 . S
H24 C0 0.931 . S
H25 C2 0.930 . S
H26 C4 0.929 . S
H27 C5 0.931 . S
H28 C7 0.930 . S
H29 C11 0.931 . S
H30 C9 0.931 . S
H31 C13 0.931 . S
H32 C14 0.929 . S
H33 C15 0.930 . S
H34 C18 0.930 . S
H35 C19 0.931 . S
H36 C23 0.928 . S
H37 C22 0.929 . S
H38 C20 0.932 . S
C39 C40 1.386 . S
C39 C41 1.397 . S
C39 H63 0.931 . S
C40 C39 1.386 . S
C40 C44 1.397 . S
C41 C39 1.397 . S
C41 C42 1.384 . S
C41 H64 0.930 . S
C42 C41 1.384 . S
C42 C43 1.377 . S
C42 C45 1.481 . S
C43 C42 1.377 . S
C43 C44 1.389 . S
C43 H65 0.929 . S
C44 C40 1.397 . S
C44 C43 1.389 . S
C44 H66 0.931 . S
C45 C42 1.481 . S
C45 C46 1.387 . S
C45 C50 1.390 . S
C46 C45 1.387 . S
C46 C47 1.401 . S
C46 H67 0.930 . S
C47 C46 1.401 . S
C47 C48 1.376 . S
C47 C56 1.511 . S
C48 C47 1.376 . S
C48 C49 1.392 . S
C48 H69 0.931 . S
C49 C48 1.392 . S
C49 C50 1.361 . S
C49 C51 1.500 . S
C50 C45 1.390 . S
C50 C49 1.361 . S
C50 H68 0.931 . S
C51 C49 1.500 . S
C51 C52 1.371 . S
C51 C53 1.365 . S
C52 C51 1.371 . S
C52 C62 1.386 . S
C52 H70 0.931 . S
C53 C51 1.365 . S
C53 C54 1.409 . S
C53 H71 0.929 . S
C54 C53 1.409 . S
C54 C55 1.380 . S
C54 H72 0.930 . S
C55 C54 1.380 . S
C55 C62 1.357 . S
C56 C47 1.511 . S
C56 C57 1.341 . S
C56 C58 1.371 . S
C57 C56 1.341 . S
C57 C61 1.394 . S
C57 H73 0.930 . S
C58 C56 1.371 . S
C58 C59 1.392 . S
C58 H74 0.931 . S
C59 C58 1.392 . S
C59 C60 1.331 . S
C59 H77 0.932 . S
C60 C59 1.331 . S
C60 C61 1.336 . S
C61 C57 1.394 . S
C61 C60 1.336 . S
C61 H76 0.929 . S
C62 C52 1.386 . S
C62 C55 1.357 . S
C62 H75 0.928 . S
H63 C39 0.931 . S
H64 C41 0.930 . S
H65 C43 0.929 . S
H66 C44 0.931 . S
H67 C46 0.930 . S
H68 C50 0.931 . S
H69 C48 0.931 . S
H70 C52 0.931 . S
H71 C53 0.929 . S
H72 C54 0.930 . S
H73 C57 0.930 . S
H74 C58 0.931 . S
H75 C62 0.928 . S
H76 C61 0.929 . S
H77 C59 0.932 . S
C78 C79 1.386 . S
C78 C80 1.397 . S
C78 H102 0.931 . S
C79 C78 1.386 . S
C79 C83 1.397 . S
C80 C78 1.397 . S
C80 C81 1.384 . S
C80 H103 0.930 . S
C81 C80 1.384 . S
C81 C82 1.377 . S
C81 C84 1.481 . S
C82 C81 1.377 . S
C82 C83 1.389 . S
C82 H104 0.929 . S
C83 C79 1.397 . S
C83 C82 1.389 . S
C83 H105 0.931 . S
C84 C81 1.481 . S
C84 C85 1.387 . S
C84 C89 1.390 . S
C85 C84 1.387 . S
C85 C86 1.401 . S
C85 H106 0.930 . S
C86 C85 1.401 . S
C86 C87 1.376 1_554 S
C86 C95 1.511 . S
C87 C86 1.376 1_556 S
C87 C88 1.392 . S
C87 H108 0.931 . S
C88 C87 1.392 . S
C88 C89 1.361 1_556 S
C88 C90 1.500 . S
C89 C84 1.390 . S
C89 C88 1.361 1_554 S
C89 H107 0.931 . S
C90 C88 1.500 . S
C90 C91 1.371 . S
C90 C92 1.365 . S
C91 C90 1.371 . S
C91 C101 1.386 . S
C91 H109 0.931 . S
C92 C90 1.365 . S
C92 C93 1.409 . S
C92 H110 0.929 . S
C93 C92 1.409 . S
C93 C94 1.380 . S
C93 H111 0.930 . S
C94 C93 1.380 . S
C94 C101 1.357 . S
C95 C86 1.511 . S
C95 C96 1.341 . S
C95 C97 1.371 1_554 S
C96 C95 1.341 . S
C96 C100 1.394 . S
C96 H112 0.930 . S
C97 C95 1.371 1_556 S
C97 C98 1.392 . S
C97 H113 0.931 . S
C98 C97 1.392 . S
C98 C99 1.331 1_556 S
C98 H116 0.932 . S
C99 C98 1.331 1_554 S
C99 C100 1.336 . S
C100 C96 1.394 . S
C100 C99 1.336 . S
C100 H115 0.929 . S
C101 C91 1.386 . S
C101 C94 1.357 . S
C101 H114 0.928 . S
H102 C78 0.931 . S
H103 C80 0.930 . S
H104 C82 0.929 . S
H105 C83 0.931 . S
H106 C85 0.930 . S
H107 C89 0.931 . S
H108 C87 0.931 . S
H109 C91 0.931 . S
H110 C92 0.929 . S
H111 C93 0.930 . S
H112 C96 0.930 . S
H113 C97 0.931 . S
H114 C101 0.928 . S
H115 C100 0.929 . S
H116 C98 0.932 . S
C117 C118 1.386 . S
C117 C119 1.397 . S
C117 H141 0.931 . S
C118 C117 1.386 . S
C118 C122 1.397 . S
C119 C117 1.397 . S
C119 C120 1.384 . S
C119 H142 0.930 . S
C120 C119 1.384 . S
C120 C121 1.377 . S
C120 C123 1.481 . S
C121 C120 1.377 . S
C121 C122 1.389 . S
C121 H143 0.929 . S
C122 C118 1.397 . S
C122 C121 1.389 . S
C122 H144 0.931 . S
C123 C120 1.481 . S
C123 C124 1.387 . S
C123 C128 1.390 . S
C124 C123 1.387 . S
C124 C125 1.401 . S
C124 H145 0.930 . S
C125 C124 1.401 . S
C125 C126 1.376 . S
C125 C134 1.511 . S
C126 C125 1.376 . S
C126 C127 1.392 . S
C126 H147 0.931 . S
C127 C126 1.392 . S
C127 C128 1.361 . S
C127 C129 1.500 . S
C128 C123 1.390 . S
C128 C127 1.361 . S
C128 H146 0.931 . S
C129 C127 1.500 . S
C129 C130 1.371 . S
C129 C131 1.365 . S
C130 C129 1.371 . S
C130 C140 1.386 . S
C130 H148 0.931 . S
C131 C129 1.365 . S
C131 C132 1.409 . S
C131 H149 0.929 . S
C132 C131 1.409 . S
C132 C133 1.380 . S
C132 H150 0.930 . S
C133 C132 1.380 . S
C133 C140 1.357 . S
C134 C125 1.511 . S
C134 C135 1.341 . S
C134 C136 1.371 . S
C135 C134 1.341 . S
C135 C139 1.394 . S
C135 H151 0.930 . S
C136 C134 1.371 . S
C136 C137 1.392 . S
C136 H152 0.931 . S
C137 C136 1.392 . S
C137 C138 1.331 . S
C137 H155 0.932 . S
C138 C137 1.331 . S
C138 C139 1.336 . S
C139 C135 1.394 . S
C139 C138 1.336 . S
C139 H154 0.929 . S
C140 C130 1.386 . S
C140 C133 1.357 . S
C140 H153 0.928 . S
H141 C117 0.931 . S
H142 C119 0.930 . S
H143 C121 0.929 . S
H144 C122 0.931 . S
H145 C124 0.930 . S
H146 C128 0.931 . S
H147 C126 0.931 . S
H148 C130 0.931 . S
H149 C131 0.929 . S
H150 C132 0.930 . S
H151 C135 0.930 . S
H152 C136 0.931 . S
H153 C140 0.928 . S
H154 C139 0.929 . S
H155 C137 0.932 . S
C156 O172 1.251 . S
C156 O174 1.254 . S
N157 C158 1.333 . S
N157 C162 1.307 . S
N157 Zn163 2.020 . S
C158 N157 1.333 . S
C158 C159 1.379 . S
C158 H176 0.952 . S
C159 C158 1.379 . S
C159 C160 1.390 . S
C159 H186 0.949 . S
C160 C159 1.390 . S
C160 C161 1.357 . S
C161 C160 1.357 . S
C161 C162 1.370 . S
C161 H187 0.950 . S
C162 N157 1.307 . S
C162 C161 1.370 . S
C162 H180 0.948 . S
Zn163 N157 2.020 . S
Zn163 O172 2.039 1_545 S
Zn163 O178 2.034 1_545 S
Zn163 O182 2.025 . S
Zn163 O184 2.024 . S
C164 O183 1.246 . S
C164 O184 1.249 1_655 S
N165 C166 1.307 . S
N165 C167 1.333 . S
N165 Zn171 2.020 . S
C166 N165 1.307 . S
C166 C170 1.370 . S
C166 H177 0.948 . S
C167 N165 1.333 . S
C167 C168 1.379 . S
C167 H175 0.952 . S
C168 C167 1.379 . S
C168 C169 1.390 . S
C168 H188 0.949 . S
C169 C168 1.390 . S
C169 C170 1.357 . S
C170 C166 1.370 . S
C170 C169 1.357 . S
C170 H189 0.950 . S
Zn171 N165 2.020 . S
Zn171 O174 2.025 1_655 S
Zn171 O179 2.024 1_655 S
Zn171 O181 2.039 1_565 S
Zn171 O183 2.034 1_565 S
O172 C156 1.251 . S
O172 Zn163 2.039 1_565 S
C173 O178 1.246 . S
C173 O179 1.249 . S
O174 C156 1.254 . S
O174 Zn171 2.025 1_455 S
H175 C167 0.952 . S
H176 C158 0.952 . S
H177 C166 0.948 . S
O178 Zn163 2.034 1_565 S
O178 C173 1.246 . S
O179 Zn171 2.024 1_455 S
O179 C173 1.249 . S
H180 C162 0.948 . S
O181 Zn171 2.039 1_545 S
O181 C185 1.251 . S
O182 Zn163 2.025 . S
O182 C185 1.254 1_455 S
O183 C164 1.246 . S
O183 Zn171 2.034 1_545 S
O184 Zn163 2.024 . S
O184 C164 1.249 1_455 S
C185 O181 1.251 . S
C185 O182 1.254 1_655 S
H186 C159 0.949 . S
H187 C161 0.950 . S
H188 C168 0.949 . S
H189 C170 0.950 . S
C190 O206 1.251 . S
C190 O208 1.254 . S
N191 C192 1.333 1_554 S
N191 C196 1.307 . S
N191 Zn197 2.020 . S
C192 N191 1.333 1_556 S
C192 C193 1.379 . S
C192 H210 0.952 . S
C193 C192 1.379 . S
C193 C194 1.390 1_556 S
C193 H220 0.949 . S
C194 C193 1.390 1_554 S
C194 C195 1.357 . S
C195 C194 1.357 . S
C195 C196 1.370 . S
C195 H221 0.950 . S
C196 N191 1.307 . S
C196 C195 1.370 . S
C196 H214 0.948 . S
Zn197 N191 2.020 . S
Zn197 O206 2.039 1_554 S
Zn197 O212 2.034 . S
Zn197 O216 2.025 . S
Zn197 O218 2.024 1_554 S
C198 O217 1.246 . S
C198 O218 1.249 . S
N199 C200 1.307 1_554 S
N199 C201 1.333 . S
N199 Zn205 2.020 . S
C200 N199 1.307 1_556 S
C200 C204 1.370 . S
C200 H211 0.948 . S
C201 N199 1.333 . S
C201 C202 1.379 . S
C201 H209 0.952 . S
C202 C201 1.379 . S
C202 C203 1.390 . S
C202 H222 0.949 . S
C203 C202 1.390 . S
C203 C204 1.357 1_554 S
C204 C200 1.370 . S
C204 C203 1.357 1_556 S
C204 H223 0.950 . S
Zn205 N199 2.020 . S
Zn205 O208 2.025 1_554 S
Zn205 O213 2.024 . S
Zn205 O215 2.039 . S
Zn205 O217 2.034 1_554 S
O206 C190 1.251 . S
O206 Zn197 2.039 1_556 S
C207 O212 1.246 . S
C207 O213 1.249 . S
O208 C190 1.254 . S
O208 Zn205 2.025 1_556 S
H209 C201 0.952 . S
H210 C192 0.952 . S
H211 C200 0.948 . S
O212 Zn197 2.034 . S
O212 C207 1.246 . S
O213 Zn205 2.024 . S
O213 C207 1.249 . S
H214 C196 0.948 . S
O215 Zn205 2.039 . S
O215 C219 1.251 . S
O216 Zn197 2.025 . S
O216 C219 1.254 . S
O217 C198 1.246 . S
O217 Zn205 2.034 1_556 S
O218 Zn197 2.024 1_556 S
O218 C198 1.249 . S
C219 O215 1.251 . S
C219 O216 1.254 . S
H220 C193 0.949 . S
H221 C195 0.950 . S
H222 C202 0.949 . S
H223 C204 0.950 . S
H224 C230 0.930 . S
H225 C234 0.930 . S
H226 C239 0.929 . S
H227 C237 0.929 . S
H228 C232 0.929 . S
H229 C238 0.929 . S
C230 H224 0.930 . S
C230 C231 1.367 . S
C230 C238 1.378 . S
C231 C230 1.367 . S
C231 C239 1.433 . S
C232 H228 0.929 . S
C232 C234 1.378 . S
C232 C236 1.350 . S
C233 C236 1.463 . S
C233 C238 1.350 . S
C233 N241 1.427 . S
C234 H225 0.930 . S
C234 C232 1.378 . S
C234 C235 1.367 . S
C235 C234 1.367 . S
C235 C237 1.433 . S
C236 C232 1.350 . S
C236 C233 1.463 . S
C236 N240 1.427 . S
C237 H227 0.929 . S
C237 C235 1.433 . S
C237 N240 1.384 . S
C238 H229 0.929 . S
C238 C230 1.378 . S
C238 C233 1.350 . S
C239 H226 0.929 . S
C239 C231 1.433 . S
C239 N241 1.384 . S
N240 C236 1.427 . S
N240 C237 1.384 . S
N241 C233 1.427 . S
N241 C239 1.384 . S
H242 C248 0.930 . S
H243 C252 0.930 . S
H244 C257 0.929 . S
H245 C255 0.929 . S
H246 C250 0.929 . S
H247 C256 0.929 . S
C248 H242 0.930 . S
C248 C249 1.367 1_556 S
C248 C256 1.378 . S
C249 C248 1.367 1_554 S
C249 C257 1.433 . S
C250 H246 0.929 . S
C250 C252 1.378 . S
C250 C254 1.350 . S
C251 C254 1.463 . S
C251 C256 1.350 1_554 S
C251 N259 1.427 . S
C252 H243 0.930 . S
C252 C250 1.378 . S
C252 C253 1.367 . S
C253 C252 1.367 . S
C253 C255 1.433 1_554 S
C254 C250 1.350 . S
C254 C251 1.463 . S
C254 N258 1.427 1_554 S
C255 H245 0.929 . S
C255 C253 1.433 1_556 S
C255 N258 1.384 . S
C256 H247 0.929 . S
C256 C248 1.378 . S
C256 C251 1.350 1_556 S
C257 H244 0.929 . S
C257 C249 1.433 . S
C257 N259 1.384 . S
N258 C254 1.427 1_556 S
N258 C255 1.384 . S
N259 C251 1.427 . S
N259 C257 1.384 . S
H260 C266 0.930 . S
H261 C270 0.930 . S
H262 C275 0.929 . S
H263 C273 0.929 . S
H264 C268 0.929 . S
H265 C274 0.929 . S
C266 H260 0.930 . S
C266 C267 1.367 . S
C266 C274 1.378 . S
C267 C266 1.367 . S
C267 C275 1.433 . S
C268 H264 0.929 . S
C268 C270 1.378 . S
C268 C272 1.350 . S
C269 C272 1.463 . S
C269 C274 1.350 . S
C269 N277 1.427 . S
C270 H261 0.930 . S
C270 C268 1.378 . S
C270 C271 1.367 . S
C271 C270 1.367 . S
C271 C273 1.433 . S
C272 C268 1.350 . S
C272 C269 1.463 . S
C272 N276 1.427 . S
C273 H263 0.929 . S
C273 C271 1.433 . S
C273 N276 1.384 . S
C274 H265 0.929 . S
C274 C266 1.378 . S
C274 C269 1.350 . S
C275 H262 0.929 . S
C275 C267 1.433 . S
C275 N277 1.384 . S
N276 C272 1.427 . S
N276 C273 1.384 . S
N277 C269 1.427 . S
N277 C275 1.384 . S
H278 C284 0.930 . S
H279 C288 0.930 . S
H280 C293 0.929 . S
H281 C291 0.929 . S
H282 C286 0.929 . S
H283 C292 0.929 . S
C284 H278 0.930 . S
C284 C285 1.367 . S
C284 C292 1.378 . S
C285 C284 1.367 . S
C285 C293 1.433 1_554 S
C286 H282 0.929 . S
C286 C288 1.378 . S
C286 C290 1.350 1_556 S
C287 C290 1.463 . S
C287 C292 1.350 . S
C287 N295 1.427 1_554 S
C288 H279 0.930 . S
C288 C286 1.378 . S
C288 C289 1.367 1_556 S
C289 C288 1.367 1_554 S
C289 C291 1.433 . S
C290 C286 1.350 1_554 S
C290 C287 1.463 . S
C290 N294 1.427 . S
C291 H281 0.929 . S
C291 C289 1.433 . S
C291 N294 1.384 . S
C292 H283 0.929 . S
C292 C284 1.378 . S
C292 C287 1.350 . S
C293 H280 0.929 . S
C293 C285 1.433 1_556 S
C293 N295 1.384 . S
N294 C290 1.427 . S
N294 C291 1.384 . S
N295 C287 1.427 1_556 S
N295 C293 1.384 . S
H296 C302 0.930 . S
H297 C306 0.930 . S
H298 C311 0.929 . S
H299 C309 0.929 . S
H300 C304 0.929 . S
H301 C310 0.929 . S
C302 H296 0.930 . S
C302 C303 1.367 . S
C302 C310 1.378 . S
C303 C302 1.367 . S
C303 C311 1.433 . S
C304 H300 0.929 . S
C304 C306 1.378 . S
C304 C308 1.350 . S
C305 C308 1.463 . S
C305 C310 1.350 . S
C305 N313 1.427 . S
C306 H297 0.930 . S
C306 C304 1.378 . S
C306 C307 1.367 . S
C307 C306 1.367 . S
C307 C309 1.433 . S
C308 C304 1.350 . S
C308 C305 1.463 . S
C308 N312 1.427 . S
C309 H299 0.929 . S
C309 C307 1.433 . S
C309 N312 1.384 . S
C310 H301 0.929 . S
C310 C302 1.378 . S
C310 C305 1.350 . S
C311 H298 0.929 . S
C311 C303 1.433 . S
C311 N313 1.384 . S
N312 C308 1.427 . S
N312 C309 1.384 . S
N313 C305 1.427 . S
N313 C311 1.384 . S
H314 C320 0.930 . S
H315 C324 0.930 . S
H316 C329 0.929 . S
H317 C327 0.929 . S
H318 C322 0.929 . S
H319 C328 0.929 . S
C320 H314 0.930 . S
C320 C321 1.367 . S
C320 C328 1.378 . S
C321 C320 1.367 . S
C321 C329 1.433 . S
C322 H318 0.929 . S
C322 C324 1.378 . S
C322 C326 1.350 . S
C323 C326 1.463 . S
C323 C328 1.350 . S
C323 N331 1.427 . S
C324 H315 0.930 . S
C324 C322 1.378 . S
C324 C325 1.367 . S
C325 C324 1.367 . S
C325 C327 1.433 . S
C326 C322 1.350 . S
C326 C323 1.463 . S
C326 N330 1.427 . S
C327 H317 0.929 . S
C327 C325 1.433 . S
C327 N330 1.384 . S
C328 H319 0.929 . S
C328 C320 1.378 . S
C328 C323 1.350 . S
C329 H316 0.929 . S
C329 C321 1.433 . S
C329 N331 1.384 . S
N330 C326 1.427 . S
N330 C327 1.384 . S
N331 C323 1.427 . S
N331 C329 1.384 . S
H332 C338 0.930 . S
H333 C342 0.930 . S
H334 C347 0.929 . S
H335 C345 0.929 1_455 S
H336 C340 0.929 . S
H337 C346 0.929 . S
C338 H332 0.930 . S
C338 C339 1.367 . S
C338 C346 1.378 . S
C339 C338 1.367 . S
C339 C347 1.433 . S
C340 H336 0.929 . S
C340 C342 1.378 . S
C340 C344 1.350 . S
C341 C344 1.463 . S
C341 C346 1.350 . S
C341 N349 1.427 . S
C342 H333 0.930 . S
C342 C340 1.378 . S
C342 C343 1.367 . S
C343 C342 1.367 . S
C343 C345 1.433 . S
C344 C340 1.350 . S
C344 C341 1.463 . S
C344 N348 1.427 . S
C345 H335 0.929 1_655 S
C345 C343 1.433 . S
C345 N348 1.384 . S
C346 H337 0.929 . S
C346 C338 1.378 . S
C346 C341 1.350 . S
C347 H334 0.929 . S
C347 C339 1.433 . S
C347 N349 1.384 . S
N348 C344 1.427 . S
N348 C345 1.384 . S
N349 C341 1.427 . S
N349 C347 1.384 . S
H350 C356 0.930 . S
H351 C360 0.930 . S
H352 C365 0.929 . S
H353 C363 0.929 . S
H354 C358 0.929 . S
H355 C364 0.929 . S
C356 H350 0.930 . S
C356 C357 1.367 . S
C356 C364 1.378 . S
C357 C356 1.367 . S
C357 C365 1.433 . S
C358 H354 0.929 . S
C358 C360 1.378 . S
C358 C362 1.350 . S
C359 C362 1.463 . S
C359 C364 1.350 . S
C359 N367 1.427 . S
C360 H351 0.930 . S
C360 C358 1.378 . S
C360 C361 1.367 . S
C361 C360 1.367 . S
C361 C363 1.433 . S
C362 C358 1.350 . S
C362 C359 1.463 . S
C362 N366 1.427 . S
C363 H353 0.929 . S
C363 C361 1.433 . S
C363 N366 1.384 . S
C364 H355 0.929 . S
C364 C356 1.378 . S
C364 C359 1.350 . S
C365 H352 0.929 . S
C365 C357 1.433 . S
C365 N367 1.384 . S
N366 C362 1.427 . S
N366 C363 1.384 . S
N367 C359 1.427 . S
N367 C365 1.384 . S
H368 C374 0.930 . S
H369 C378 0.930 . S
H370 C383 0.929 . S
H371 C381 0.929 . S
H372 C376 0.929 . S
H373 C382 0.929 . S
C374 H368 0.930 . S
C374 C375 1.367 . S
C374 C382 1.378 . S
C375 C374 1.367 . S
C375 C383 1.433 . S
C376 H372 0.929 . S
C376 C378 1.378 . S
C376 C380 1.350 . S
C377 C380 1.463 . S
C377 C382 1.350 . S
C377 N385 1.427 . S
C378 H369 0.930 . S
C378 C376 1.378 . S
C378 C379 1.367 . S
C379 C378 1.367 . S
C379 C381 1.433 . S
C380 C376 1.350 . S
C380 C377 1.463 . S
C380 N384 1.427 . S
C381 H371 0.929 . S
C381 C379 1.433 . S
C381 N384 1.384 . S
C382 H373 0.929 . S
C382 C374 1.378 . S
C382 C377 1.350 . S
C383 H370 0.929 . S
C383 C375 1.433 . S
C383 N385 1.384 . S
N384 C380 1.427 . S
N384 C381 1.384 . S
N385 C377 1.427 . S
N385 C383 1.384 . S
H386 C392 0.930 . S
H387 C396 0.930 . S
H388 C401 0.929 . S
H389 C399 0.929 1_455 S
H390 C394 0.929 . S
H391 C400 0.929 . S
C392 H386 0.930 . S
C392 C393 1.367 . S
C392 C400 1.378 . S
C393 C392 1.367 . S
C393 C401 1.433 . S
C394 H390 0.929 . S
C394 C396 1.378 . S
C394 C398 1.350 . S
C395 C398 1.463 . S
C395 C400 1.350 . S
C395 N403 1.427 . S
C396 H387 0.930 . S
C396 C394 1.378 . S
C396 C397 1.367 . S
C397 C396 1.367 . S
C397 C399 1.433 . S
C398 C394 1.350 . S
C398 C395 1.463 . S
C398 N402 1.427 . S
C399 H389 0.929 1_655 S
C399 C397 1.433 . S
C399 N402 1.384 . S
C400 H391 0.929 . S
C400 C392 1.378 . S
C400 C395 1.350 . S
C401 H388 0.929 . S
C401 C393 1.433 . S
C401 N403 1.384 . S
N402 C398 1.427 . S
N402 C399 1.384 . S
N403 C395 1.427 . S
N403 C401 1.384 . S
H404 C410 0.930 . S
H405 C414 0.930 . S
H406 C419 0.929 . S
H407 C417 0.929 . S
H408 C412 0.929 . S
H409 C418 0.929 . S
C410 H404 0.930 . S
C410 C411 1.367 . S
C410 C418 1.378 . S
C411 C410 1.367 . S
C411 C419 1.433 . S
C412 H408 0.929 . S
C412 C414 1.378 . S
C412 C416 1.350 . S
C413 C416 1.463 . S
C413 C418 1.350 . S
C413 N421 1.427 . S
C414 H405 0.930 . S
C414 C412 1.378 . S
C414 C415 1.367 . S
C415 C414 1.367 . S
C415 C417 1.433 . S
C416 C412 1.350 . S
C416 C413 1.463 . S
C416 N420 1.427 . S
C417 H407 0.929 . S
C417 C415 1.433 . S
C417 N420 1.384 . S
C418 H409 0.929 . S
C418 C410 1.378 . S
C418 C413 1.350 . S
C419 H406 0.929 . S
C419 C411 1.433 . S
C419 N421 1.384 . S
N420 C416 1.427 . S
N420 C417 1.384 . S
N421 C413 1.427 . S
N421 C419 1.384 . S
H422 C428 0.930 . S
H423 C432 0.930 . S
H424 C437 0.929 . S
H425 C435 0.929 1_655 S
H426 C430 0.929 . S
H427 C436 0.929 . S
C428 H422 0.930 . S
C428 C429 1.367 . S
C428 C436 1.378 . S
C429 C428 1.367 . S
C429 C437 1.433 . S
C430 H426 0.929 . S
C430 C432 1.378 . S
C430 C434 1.350 . S
C431 C434 1.463 . S
C431 C436 1.350 . S
C431 N439 1.427 . S
C432 H423 0.930 . S
C432 C430 1.378 . S
C432 C433 1.367 . S
C433 C432 1.367 . S
C433 C435 1.433 . S
C434 C430 1.350 . S
C434 C431 1.463 . S
C434 N438 1.427 . S
C435 H425 0.929 1_455 S
C435 C433 1.433 . S
C435 N438 1.384 . S
C436 H427 0.929 . S
C436 C428 1.378 . S
C436 C431 1.350 . S
C437 H424 0.929 . S
C437 C429 1.433 . S
C437 N439 1.384 . S
N438 C434 1.427 . S
N438 C435 1.384 . S
N439 C431 1.427 . S
N439 C437 1.384 . S
C235 C160 1.650 . S
C231 C138 1.612 . S
C249 C21 1.564 . S
C253 C203 1.572 . S
C267 C60 1.630 . S
C271 C169 1.651 . S
C285 C99 1.559 . S
C289 C194 1.575 . S
C307 C156 1.636 . S
C303 C16 1.606 . S
C325 C198 1.729 . S
C321 C40 1.689 . S
C339 C79 1.597 . S
C343 C164 1.623 . S
C357 C133 1.691 . S
C361 C190 1.727 . S
C379 C219 1.726 . S
C375 C55 1.685 . S
C397 C185 1.638 . S
C393 C94 1.613 . S
C415 C207 1.733 . S
C411 C118 1.692 . S
C429 C1 1.606 . S
C433 C173 1.625 . S
