# Generated by pormake.
# Topology pyr, (3,6)-cn, num edge types: 1
# Building blocks:
#     Node 0, Type 0, BuildingBlock: BELTOD_clean_linker_0, # of connection points: 3
#     Node 1, Type 0, BuildingBlock: BELTOD_clean_linker_0, # of connection points: 3
#     Node 2, Type 0, BuildingBlock: BELTOD_clean_linker_0, # of connection points: 3
#     Node 3, Type 0, BuildingBlock: BELTOD_clean_linker_0, # of connection points: 3
#     Node 4, Type 0, BuildingBlock: BELTOD_clean_linker_0, # of connection points: 3
#     Node 5, Type 0, BuildingBlock: BELTOD_clean_linker_0, # of connection points: 3
#     Node 6, Type 0, BuildingBlock: BELTOD_clean_linker_0, # of connection points: 3
#     Node 7, Type 0, BuildingBlock: BELTOD_clean_linker_0, # of connection points: 3
#     Node 8, Type 1, BuildingBlock: CIFDUS_clean_sbu_1, # of connection points: 6
#     Node 9, Type 1, BuildingBlock: CIFDUS_clean_sbu_1, # of connection points: 6
#     Node 10, Type 1, BuildingBlock: CIFDUS_clean_sbu_1, # of connection points: 6
#     Node 11, Type 1, BuildingBlock: CIFDUS_clean_sbu_1, # of connection points: 6
#     Edge 12, Type (0, 1), None
#     Edge 13, Type (0, 1), None
#     Edge 14, Type (0, 1), None
#     Edge 15, Type (0, 1), None
#     Edge 16, Type (0, 1), None
#     Edge 17, Type (0, 1), None
#     Edge 18, Type (0, 1), None
#     Edge 19, Type (0, 1), None
#     Edge 20, Type (0, 1), None
#     Edge 21, Type (0, 1), None
#     Edge 22, Type (0, 1), None
#     Edge 23, Type (0, 1), None
#     Edge 24, Type (0, 1), None
#     Edge 25, Type (0, 1), None
#     Edge 26, Type (0, 1), None
#     Edge 27, Type (0, 1), None
#     Edge 28, Type (0, 1), None
#     Edge 29, Type (0, 1), None
#     Edge 30, Type (0, 1), None
#     Edge 31, Type (0, 1), None
#     Edge 32, Type (0, 1), None
#     Edge 33, Type (0, 1), None
#     Edge 34, Type (0, 1), None
#     Edge 35, Type (0, 1), None
# Relax obj value: 0.036
# Max RMSD: 0.107
# Mean RMSD: 0.051
data_MOF--net-pry--node1-CIFDUS_clean_sbu_1--node2-BELTOD_clean_linker_0--edge1-none
_symmetry_space_group_name_H-M    P1
_symmetry_Int_Tables_number       1
_symmetry_cell_setting            triclinic
loop_
_symmetry_equiv_pos_as_xyz
'x, y, z'
_cell_length_a     22.239423
_cell_length_b     21.214326
_cell_length_c     19.753466
_cell_angle_alpha  91.450513
_cell_angle_beta   93.996004
_cell_angle_gamma 94.162915
loop_
_atom_site_label
_atom_site_type_symbol
_atom_site_fract_x
_atom_site_fract_y
_atom_site_fract_z
_atom_type_partial_charge
P0 P 0.1928 0.1868 0.1786 0.0
H1 H 0.27048 0.0852 0.21031 0.0
H2 H 0.34622 0.03833 0.14482 0.0
H3 H 0.27576 0.12759 0.96524 0.0
H4 H 0.19959 0.17315 0.0302 0.0
H5 H 0.22512 0.29351 0.09448 0.0
H6 H 0.16744 0.38059 0.05297 0.0
H7 H 0.00388 0.28338 0.11375 0.0
H8 H 0.06115 0.19618 0.15435 0.0
H9 H 0.17239 0.20935 0.32313 0.0
H10 H 0.11757 0.06894 0.16509 0.0
O11 O 0.24697 0.23199 0.22307 0.0
H12 H 0.11099 0.14997 0.40269 0.0
H13 H 0.05708 0.0099 0.24286 0.0
C14 C 0.23043 0.13398 0.12562 0.0
C15 C 0.26946 0.09217 0.15612 0.0
C16 C 0.31234 0.06472 0.11842 0.0
C17 C 0.31716 0.07988 0.05008 0.0
C18 C 0.2729 0.11511 1.01785 0.0
C19 C 0.2298 0.14202 0.05538 0.0
C20 C 0.14771 0.23933 0.12947 0.0
C21 C 0.17643 0.28968 0.09626 0.0
C22 C 0.14331 0.33889 0.07121 0.0
C23 C 0.08121 0.3385 0.07979 0.0
C24 C 0.0516 0.28429 0.10548 0.0
C25 C 0.0846 0.23493 0.13006 0.0
C26 C 0.14973 0.1431 0.23831 0.0
C27 C 0.14755 0.16548 0.30574 0.0
C28 C 0.1127 0.13153 0.35128 0.0
C29 C 0.07892 0.07531 0.32938 0.0
C30 C 0.08207 0.05326 0.26174 0.0
C31 C 0.11683 0.08683 0.21685 0.0
P32 P 0.3892 0.90537 0.57642 0.0
H33 H 0.49371 0.97229 0.65178 0.0
H34 H 0.5161 0.99392 0.77382 0.0
H35 H 0.33232 0.93295 0.80993 0.0
H36 H 0.30901 0.91458 0.68838 0.0
H37 H 0.44595 0.82065 0.4833 0.0
H38 H 0.48197 0.71439 0.49746 0.0
H39 H 0.41538 0.70937 0.69751 0.0
H40 H 0.37976 0.81359 0.68352 0.0
H41 H 0.32363 0.99718 0.5005 0.0
H42 H 0.28277 0.8173 0.59047 0.0
O43 O 0.43275 0.9452 0.52409 0.0
H44 H 0.2164 0.01587 0.49325 0.0
H45 H 0.17564 0.83727 0.58543 0.0
C46 C 0.39968 0.94196 0.66049 0.0
C47 C 0.4574 0.96671 0.68542 0.0
C48 C 0.47013 0.97917 0.7551 0.0
C49 C 0.42566 0.96543 0.80074 0.0
C50 C 0.36696 0.94478 0.77544 0.0
C51 C 0.3538 0.93415 0.70572 0.0
C52 C 0.41156 0.82582 0.58302 0.0
C53 C 0.43892 0.79634 0.52997 0.0
C54 C 0.45897 0.73559 0.53775 0.0
C55 C 0.45173 0.70409 0.59868 0.0
C56 C 0.4225 0.7331 0.65046 0.0
C57 C 0.40216 0.79301 0.64247 0.0
C58 C 0.3112 0.90601 0.54611 0.0
C59 C 0.29141 0.96028 0.51546 0.0
C60 C 0.23009 0.97073 0.5109 0.0
C61 C 0.18813 0.92749 0.538 0.0
C62 C 0.20713 0.87034 0.56264 0.0
C63 C 0.26848 0.85931 0.56601 0.0
P64 P 0.7196 0.29064 0.78306 0.0
H65 H 0.84157 0.27784 0.84754 0.0
H66 H 0.91003 0.35216 0.91877 0.0
H67 H 0.76817 0.47929 0.93053 0.0
H68 H 0.69917 0.40416 0.86216 0.0
H69 H 0.70371 0.16055 0.83437 0.0
H70 H 0.63043 0.11246 0.91021 0.0
H71 H 0.53777 0.28483 0.90622 0.0
H72 H 0.61042 0.33193 0.83496 0.0
H73 H 0.76678 0.41238 0.7324 0.0
H74 H 0.60208 0.2914 0.70402 0.0
O75 O 0.75957 0.24031 0.74199 0.0
H76 H 0.71203 0.5025 0.69437 0.0
H77 H 0.54719 0.38169 0.66855 0.0
C78 C 0.76598 0.33644 0.84784 0.0
C79 C 0.82454 0.32054 0.86751 0.0
C80 C 0.86325 0.36251 0.90904 0.0
C81 C 0.84382 0.42086 0.93059 0.0
C82 C 0.78364 0.43403 0.91567 0.0
C83 C 0.7446 0.39142 0.87574 0.0
C84 C 0.6616 0.24935 0.82754 0.0
C85 C 0.66664 0.18707 0.84903 0.0
C86 C 0.62493 0.15964 0.89218 0.0
C87 C 0.57862 0.19493 0.91453 0.0
C88 C 0.57314 0.25627 0.89066 0.0
C89 C 0.61454 0.28334 0.84882 0.0
C90 C 0.68773 0.34596 0.72464 0.0
C91 C 0.71942 0.40449 0.71541 0.0
C92 C 0.68827 0.45601 0.69322 0.0
C93 C 0.62563 0.44888 0.67768 0.0
C94 C 0.59584 0.38819 0.67791 0.0
C95 C 0.62712 0.33662 0.69952 0.0
P96 P 0.79737 0.68327 0.33955 0.0
H97 H 0.93039 0.67966 0.35919 0.0
H98 H 0.00201 0.76313 0.40806 0.0
H99 H 0.8614 0.84182 0.51414 0.0
H100 H 0.78848 0.76022 0.4631 0.0
H101 H 0.86928 0.711 0.22369 0.0
H102 H 0.93144 0.64446 0.15835 0.0
H103 H 0.85812 0.47982 0.25671 0.0
H104 H 0.79844 0.54587 0.32355 0.0
H105 H 0.77244 0.63725 0.47587 0.0
H106 H 0.6854 0.62945 0.27334 0.0
O107 O 0.77058 0.74406 0.29817 0.0
H108 H 0.68625 0.5737 0.51584 0.0
H109 H 0.60048 0.56406 0.3123 0.0
C110 C 0.85317 0.71571 0.40439 0.0
C111 C 0.91498 0.71296 0.39532 0.0
C112 C 0.95665 0.75996 0.42514 0.0
C113 C 0.93577 0.81173 0.45989 0.0
C114 C 0.87805 0.8039 0.48455 0.0
C115 C 0.83574 0.75778 0.45408 0.0
C116 C 0.82965 0.63347 0.27885 0.0
C117 C 0.86482 0.66023 0.22908 0.0
C118 C 0.89927 0.62207 0.19056 0.0
C119 C 0.89847 0.55693 0.20158 0.0
C120 C 0.8584 0.52978 0.24633 0.0
C121 C 0.82488 0.56778 0.28536 0.0
C122 C 0.73441 0.63915 0.37196 0.0
C123 C 0.73469 0.62237 0.44015 0.0
C124 C 0.68576 0.58561 0.4628 0.0
C125 C 0.6371 0.56372 0.41695 0.0
C126 C 0.63776 0.5797 0.34851 0.0
C127 C 0.68583 0.61757 0.32639 0.0
P128 P 0.87337 0.90697 0.92816 0.0
H129 H 0.81505 0.99615 1.01497 0.0
H130 H 0.70845 0.01436 0.02804 0.0
H131 H 0.65503 0.87125 0.87159 0.0
H132 H 0.76074 0.85411 0.8583 0.0
H133 H 0.98571 0.87012 0.99652 0.0
H134 H 0.01994 0.76626 0.02456 0.0
H135 H 0.83885 0.68242 0.97991 0.0
H136 H 0.8047 0.78575 0.95077 0.0
H137 H 0.82941 0.97246 0.80715 0.0
H138 H 0.95495 0.83131 0.85389 0.0
O139 O 0.91759 0.96776 0.96319 0.0
H140 H 0.86984 0.98495 0.69577 0.0
H141 H -0.00415 0.84495 0.74361 0.0
C142 C 0.79566 0.92332 0.93596 0.0
C143 C 0.78027 0.96926 0.98302 0.0
C144 C 0.71946 0.98007 0.99014 0.0
C145 C 0.67343 0.94415 0.95107 0.0
C146 C 0.68945 0.89948 0.90281 0.0
C147 C 0.74987 0.88936 0.89525 0.0
C148 C 0.89258 0.83598 0.97119 0.0
C149 C 0.95261 0.83003 0.99593 0.0
C150 C 0.97213 0.77074 1.0129 0.0
C151 C 0.93175 0.71662 1.00599 0.0
C152 C 0.87047 0.72373 0.98771 0.0
C153 C 0.85109 0.78286 0.97002 0.0
C154 C 0.88897 0.90095 0.83941 0.0
C155 C 0.86354 0.94193 0.79247 0.0
C156 C 0.88602 0.94839 0.72818 0.0
C157 C 0.93512 0.91491 0.71041 0.0
C158 C 0.95681 0.86994 0.75514 0.0
C159 C 0.93398 0.863 0.81899 0.0
P160 P 0.66882 0.18785 0.40602 0.0
H161 H 0.6994 0.29915 0.4931 0.0
H162 H 0.63325 0.37515 0.5349 0.0
H163 H 0.47992 0.23929 0.49483 0.0
H164 H 0.54774 0.16103 0.45806 0.0
H165 H 0.789 0.22589 0.46729 0.0
H166 H 0.87628 0.16452 0.49399 0.0
H167 H 0.76132 0.99203 0.46176 0.0
H168 H 0.67387 0.05351 0.43686 0.0
H169 H 0.54982 0.21086 0.34501 0.0
H170 H 0.68474 0.0793 0.31228 0.0
O171 O 0.70529 0.24538 0.36544 0.0
H172 H 0.4907 0.16911 0.2458 0.0
H173 H 0.62671 0.0398 0.20769 0.0
C174 C 0.62757 0.22629 0.4683 0.0
C175 C 0.65214 0.2843 0.49691 0.0
C176 C 0.61414 0.32772 0.52117 0.0
C177 C 0.55125 0.31353 0.516 0.0
C178 C 0.52821 0.25149 0.49834 0.0
C179 C 0.5669 0.2071 0.47672 0.0
C180 C 0.72594 0.14376 0.4469 0.0
C181 C 0.78223 0.17486 0.46826 0.0
C182 C 0.83193 0.13999 0.48426 0.0
C183 C 0.82531 0.07393 0.47867 0.0
C184 C 0.76727 0.04319 0.46578 0.0
C185 C 0.71752 0.0781 0.45088 0.0
C186 C 0.62016 0.14563 0.33984 0.0
C187 C 0.56544 0.17042 0.31899 0.0
C188 C 0.53189 0.1471 0.26063 0.0
C189 C 0.5538 0.10086 0.21854 0.0
C190 C 0.60789 0.07441 0.23974 0.0
C191 C 0.6411 0.09707 0.29977 0.0
P192 P 0.36043 0.69868 0.22496 0.0
H193 H 0.31861 0.62195 0.10205 0.0
H194 H 0.2183 0.57512 0.06218 0.0
H195 H 0.13912 0.68481 0.21486 0.0
H196 H 0.23949 0.73305 0.25384 0.0
H197 H 0.47904 0.76711 0.25015 0.0
H198 H 0.52463 0.84725 0.18061 0.0
H199 H 0.34839 0.88808 0.09696 0.0
H200 H 0.30218 0.80871 0.16752 0.0
H201 H 0.27428 0.61622 0.2966 0.0
H202 H 0.4549 0.70376 0.33804 0.0
O203 O 0.40814 0.65675 0.18413 0.0
H204 H 0.29573 0.53595 0.37683 0.0
H205 H 0.47635 0.6215 0.41798 0.0
C206 C 0.28657 0.68001 0.18207 0.0
C207 C 0.27963 0.63787 0.1255 0.0
C208 C 0.22224 0.61146 0.10212 0.0
C209 C 0.17143 0.62652 0.13556 0.0
C210 C 0.17787 0.673 0.18804 0.0
C211 C 0.23506 0.70037 0.21045 0.0
C212 C 0.38699 0.78019 0.2134 0.0
C213 C 0.44945 0.79641 0.22133 0.0
C214 C 0.47582 0.84293 0.1814 0.0
C215 C 0.44013 0.87313 0.13254 0.0
C216 C 0.37705 0.8657 0.13441 0.0
C217 C 0.35054 0.81923 0.17446 0.0
C218 C 0.36312 0.66686 0.30963 0.0
C219 C 0.31732 0.62146 0.32568 0.0
C220 C 0.32938 0.57498 0.37257 0.0
C221 C 0.38751 0.57252 0.40397 0.0
C222 C 0.43051 0.62317 0.39594 0.0
C223 C 0.41837 0.67008 0.34908 0.0
P224 P 0.18202 0.32554 0.74459 0.0
H225 H 0.20331 0.26636 0.61298 0.0
H226 H 0.14664 0.17788 0.55279 0.0
H227 H -0.00466 0.20498 0.67173 0.0
H228 H 0.0507 0.29617 0.72994 0.0
H229 H 0.30022 0.35159 0.814 0.0
H230 H 0.39146 0.41265 0.78451 0.0
H231 H 0.30643 0.44347 0.58587 0.0
H232 H 0.21418 0.38421 0.61681 0.0
H233 H 0.10574 0.32028 0.86028 0.0
H234 H 0.18483 0.46314 0.73485 0.0
O235 O 0.19997 0.26865 0.79751 0.0
H236 H 0.05466 0.40177 0.9196 0.0
H237 H 0.1366 0.54403 0.79587 0.0
C238 C 0.13184 0.28785 0.67707 0.0
C239 C 0.15631 0.25696 0.62279 0.0
C240 C 0.12322 0.20638 0.58729 0.0
C241 C 0.06762 0.18287 0.60964 0.0
C242 C 0.03855 0.22155 0.65394 0.0
C243 C 0.07093 0.2732 0.68854 0.0
C244 C 0.25135 0.36137 0.71671 0.0
C245 C 0.30158 0.37048 0.76365 0.0
C246 C 0.3534 0.40598 0.74705 0.0
C247 C 0.35594 0.43268 0.68292 0.0
C248 C 0.30583 0.42279 0.63544 0.0
C249 C 0.25341 0.38833 0.65273 0.0
C250 C 0.14878 0.38547 0.79278 0.0
C251 C 0.11367 0.36925 0.847 0.0
C252 C 0.08593 0.41601 0.88232 0.0
C253 C 0.09358 0.47948 0.86403 0.0
C254 C 0.13135 0.49565 0.81214 0.0
C255 C 0.15821 0.44911 0.77646 0.0
O256 O 0.9251 0.04418 0.50992 0.0
Mn257 Mn 0.00458 0.99651 0.5198 0.0
O258 O 0.87456 0.00451 0.4135 0.0
Mn259 Mn 0.93599 0.96006 0.38359 0.0
O260 O 0.08396 0.94806 0.52449 0.0
O261 O 0.04206 0.06873 0.58551 0.0
Mn262 Mn 0.07771 0.02338 0.65002 0.0
O263 O 0.96511 0.94728 0.6002 0.0
O264 O 0.14058 0.98474 0.61677 0.0
O265 O 0.04272 0.04631 0.43869 0.0
O266 O -0.00358 0.00332 0.34214 0.0
O267 O 0.09411 0.10231 0.68242 0.0
O268 O 0.02373 0.97409 0.69458 0.0
C269 C 0.94628 0.87189 0.42655 0.0
C270 C 0.87792 0.03821 0.468 0.0
C271 C 0.13359 0.9523 0.56192 0.0
C272 C 0.06531 0.11577 0.62588 0.0
C273 C 0.97754 0.94476 0.66471 0.0
C274 C 0.03731 0.04006 0.37322 0.0
O275 O 0.96768 0.92503 0.4562 0.0
O276 O 0.92111 0.87602 0.36579 0.0
O277 O 0.4686 0.00514 0.90876 0.0
Mn278 Mn 0.50186 0.02204 1.01035 0.0
O279 O 0.44397 0.90163 0.89323 0.0
Mn280 Mn 0.4947 0.88297 0.96659 0.0
O281 O 0.53591 0.04379 0.11044 0.0
O282 O 0.52617 0.11358 0.98103 0.0
Mn283 Mn 0.47637 0.14931 0.03456 0.0
O284 O 0.41315 0.03762 0.03722 0.0
O285 O 0.49688 0.13687 0.12527 0.0
O286 O 0.58837 0.99847 0.9857 0.0
O287 O 0.57622 0.89504 0.95445 0.0
O288 O 0.51236 0.21654 0.99956 0.0
O289 O 0.39765 0.13247 1.00313 0.0
C290 C 0.46398 0.8792 0.06535 0.0
C291 C 0.44413 0.95778 0.87272 0.0
C292 C 0.526 0.09162 0.14823 0.0
C293 C 0.53825 0.17339 0.9669 0.0
C294 C 0.37665 0.07977 1.0216 0.0
C295 C 0.60897 0.94675 0.96435 0.0
O296 O 0.48049 0.93168 0.03695 0.0
O297 O 0.46801 0.82805 0.02925 0.0
O298 O 0.56863 0.54015 0.50046 0.0
Mn299 Mn 0.49685 0.50711 0.55317 0.0
O300 O 0.55383 0.48792 0.39851 0.0
Mn301 Mn 0.47876 0.4445 0.40977 0.0
O302 O 0.42385 0.47196 0.60411 0.0
O303 O 0.54743 0.51776 0.64034 0.0
Mn304 Mn 0.51163 0.5545 0.70537 0.0
O305 O 0.47002 0.59929 0.56305 0.0
O306 O 0.44273 0.50076 0.7147 0.0
O307 O 0.52642 0.41642 0.54562 0.0
O308 O 0.48066 0.36804 0.45266 0.0
O309 O 0.5855 0.53016 0.74281 0.0
O310 O 0.49689 0.63279 0.67127 0.0
C311 C 0.40958 0.50965 0.41511 0.0
C312 C 0.58413 0.52741 0.44051 0.0
C313 C 0.41054 0.471 0.66625 0.0
C314 C 0.58978 0.50402 0.68371 0.0
C315 C 0.47546 0.64212 0.61093 0.0
C316 C 0.51247 0.36647 0.50848 0.0
O317 O 0.44625 0.49611 0.46518 0.0
O318 O 0.41174 0.47274 0.36232 0.0
O319 O 0.92322 0.47367 1.00271 0.0
Mn320 Mn 0.00365 0.5252 0.03757 0.0
O321 O 0.89977 0.50999 0.89837 0.0
Mn322 Mn 0.96737 0.5656 0.89404 0.0
O323 O 0.0857 0.57564 0.07063 0.0
O324 O 0.97912 0.52027 0.1347 0.0
Mn325 Mn 0.03981 0.49326 0.18496 0.0
O326 O 0.04489 0.43798 0.04356 0.0
O327 O 0.10284 0.55445 0.18133 0.0
O328 O 0.96273 0.61296 0.03428 0.0
O329 O 0.9629 0.64582 0.9276 0.0
O330 O 0.98234 0.50414 0.24427 0.0
O331 O 0.05117 0.4135 0.15377 0.0
C332 C 0.04909 0.52412 0.88084 0.0
C333 C 0.88955 0.47319 0.94699 0.0
C334 C 0.11622 0.58388 0.12839 0.0
C335 C 0.95265 0.52385 0.19114 0.0
C336 C 0.05553 0.39938 0.09167 0.0
C337 C 0.95555 0.65562 0.98972 0.0
O338 O 0.02642 0.52978 0.93951 0.0
O339 O 0.02064 0.55051 0.83092 0.0
loop_
_geom_bond_atom_site_label_1
_geom_bond_atom_site_label_2
_geom_bond_distance
_geom_bond_site_symmetry_2
_ccdc_geom_bond_type
P0 O11 1.490 . S
P0 C14 1.812 . S
P0 C20 1.803 . S
P0 C26 1.819 . S
H1 C15 0.941 . S
H2 C16 0.939 . S
H3 C18 0.940 . S
H4 C19 0.940 . S
H5 C21 0.939 . S
H6 C22 0.942 . S
H7 C24 0.931 1_556 S
H8 C25 0.939 . S
H9 C27 0.941 . S
H10 C31 0.939 . S
O11 P0 1.490 . S
H12 C28 0.939 . S
H13 C30 0.940 . S
C14 P0 1.812 . S
C14 C15 1.389 . S
C14 C19 1.391 . S
C15 H1 0.941 . S
C15 C14 1.389 . S
C15 C16 1.397 . S
C16 H2 0.939 . S
C16 C15 1.397 . S
C16 C17 1.378 . S
C17 C16 1.378 . S
C17 C18 1.378 . S
C18 H3 0.940 . S
C18 C17 1.378 . S
C18 C19 1.396 . S
C19 H4 0.940 . S
C19 C14 1.391 . S
C19 C18 1.396 . S
C20 P0 1.803 . S
C20 C21 1.378 . S
C20 C25 1.400 . S
C21 H5 0.939 . S
C21 C20 1.378 . S
C21 C22 1.361 . S
C22 H6 0.942 . S
C22 C21 1.361 . S
C22 C23 1.369 . S
C23 C22 1.369 . S
C23 C24 1.404 . S
C24 H7 0.931 1_554 S
C24 C23 1.404 . S
C24 C25 1.389 . S
C25 H8 0.939 . S
C25 C20 1.400 . S
C25 C24 1.389 . S
C26 P0 1.819 . S
C26 C27 1.391 . S
C26 C31 1.391 . S
C27 H9 0.941 . S
C27 C26 1.391 . S
C27 C28 1.396 . S
C28 H12 0.939 . S
C28 C27 1.396 . S
C28 C29 1.397 . S
C29 C28 1.397 . S
C29 C30 1.385 . S
C30 H13 0.940 . S
C30 C29 1.385 . S
C30 C31 1.388 . S
C31 H10 0.939 . S
C31 C26 1.391 . S
C31 C30 1.388 . S
P32 O43 1.490 . S
P32 C46 1.812 . S
P32 C52 1.803 . S
P32 C58 1.819 . S
H33 C47 0.941 . S
H34 C48 0.939 1_545 S
H35 C50 0.940 . S
H36 C51 0.940 . S
H37 C53 0.939 . S
H38 C54 0.942 . S
H39 C56 0.940 . S
H40 C57 0.939 . S
H41 C59 0.946 . S
H42 C63 0.939 . S
O43 P32 1.490 . S
H44 C60 0.939 . S
H45 C62 0.940 . S
C46 P32 1.812 . S
C46 C47 1.389 . S
C46 C51 1.391 . S
C47 H33 0.941 . S
C47 C46 1.389 . S
C47 C48 1.397 . S
C48 H34 0.939 1_565 S
C48 C47 1.397 . S
C48 C49 1.378 . S
C49 C48 1.378 . S
C49 C50 1.378 . S
C50 H35 0.940 . S
C50 C49 1.378 . S
C50 C51 1.396 . S
C51 H36 0.940 . S
C51 C46 1.391 . S
C51 C50 1.396 . S
C52 P32 1.803 . S
C52 C53 1.378 . S
C52 C57 1.400 . S
C53 H37 0.939 . S
C53 C52 1.378 . S
C53 C54 1.361 . S
C54 H38 0.942 . S
C54 C53 1.361 . S
C54 C55 1.369 . S
C55 C54 1.369 . S
C55 C56 1.404 . S
C56 H39 0.940 . S
C56 C55 1.404 . S
C56 C57 1.389 . S
C57 H40 0.939 . S
C57 C52 1.400 . S
C57 C56 1.389 . S
C58 P32 1.819 . S
C58 C59 1.385 1_565 S
C58 C63 1.391 . S
C59 H41 0.946 . S
C59 C58 1.385 1_545 S
C59 C60 1.398 . S
C60 H44 0.939 . S
C60 C59 1.398 . S
C60 C61 1.397 1_545 S
C61 C60 1.397 1_565 S
C61 C62 1.385 . S
C62 H45 0.940 . S
C62 C61 1.385 . S
C62 C63 1.388 . S
C63 H42 0.939 . S
C63 C58 1.391 . S
C63 C62 1.388 . S
P64 O75 1.490 . S
P64 C78 1.812 . S
P64 C84 1.803 . S
P64 C90 1.819 . S
H65 C79 0.941 . S
H66 C80 0.939 . S
H67 C82 0.940 . S
H68 C83 0.940 . S
H69 C85 0.939 . S
H70 C86 0.942 . S
H71 C88 0.940 1_554 S
H72 C89 0.939 . S
H73 C91 0.941 . S
H74 C95 0.939 . S
O75 P64 1.490 . S
H76 C92 0.939 . S
H77 C94 0.940 . S
C78 P64 1.812 . S
C78 C79 1.389 . S
C78 C83 1.391 . S
C79 H65 0.941 . S
C79 C78 1.389 . S
C79 C80 1.397 . S
C80 H66 0.939 . S
C80 C79 1.397 . S
C80 C81 1.378 . S
C81 C80 1.378 . S
C81 C82 1.378 . S
C82 H67 0.940 . S
C82 C81 1.378 . S
C82 C83 1.396 . S
C83 H68 0.940 . S
C83 C78 1.391 . S
C83 C82 1.396 . S
C84 P64 1.803 . S
C84 C85 1.378 . S
C84 C89 1.400 . S
C85 H69 0.939 . S
C85 C84 1.378 . S
C85 C86 1.361 . S
C86 H70 0.942 . S
C86 C85 1.361 . S
C86 C87 1.369 . S
C87 C86 1.369 . S
C87 C88 1.404 . S
C88 H71 0.940 1_556 S
C88 C87 1.404 . S
C88 C89 1.389 . S
C89 H72 0.939 . S
C89 C84 1.400 . S
C89 C88 1.389 . S
C90 P64 1.819 . S
C90 C91 1.391 . S
C90 C95 1.391 . S
C91 H73 0.941 . S
C91 C90 1.391 . S
C91 C92 1.396 . S
C92 H76 0.939 . S
C92 C91 1.396 . S
C92 C93 1.397 . S
C93 C92 1.397 . S
C93 C94 1.385 . S
C94 H77 0.940 . S
C94 C93 1.385 . S
C94 C95 1.388 . S
C95 H74 0.939 . S
C95 C90 1.391 . S
C95 C94 1.388 . S
P96 O107 1.490 . S
P96 C110 1.812 . S
P96 C116 1.803 . S
P96 C122 1.819 . S
H97 C111 0.941 . S
H98 C112 0.939 . S
H99 C114 0.940 . S
H100 C115 0.940 . S
H101 C117 0.939 . S
H102 C118 0.942 . S
H103 C120 0.940 . S
H104 C121 0.939 . S
H105 C123 0.941 . S
H106 C127 0.939 . S
O107 P96 1.490 . S
H108 C124 0.939 . S
H109 C126 0.940 . S
C110 P96 1.812 . S
C110 C111 1.389 . S
C110 C115 1.391 . S
C111 H97 0.941 . S
C111 C110 1.389 . S
C111 C112 1.397 . S
C112 H98 0.939 . S
C112 C111 1.397 . S
C112 C113 1.378 . S
C113 C112 1.378 . S
C113 C114 1.378 . S
C114 H99 0.940 . S
C114 C113 1.378 . S
C114 C115 1.396 . S
C115 H100 0.940 . S
C115 C110 1.391 . S
C115 C114 1.396 . S
C116 P96 1.803 . S
C116 C117 1.378 . S
C116 C121 1.400 . S
C117 H101 0.939 . S
C117 C116 1.378 . S
C117 C118 1.361 . S
C118 H102 0.942 . S
C118 C117 1.361 . S
C118 C119 1.369 . S
C119 C118 1.369 . S
C119 C120 1.404 . S
C120 H103 0.940 . S
C120 C119 1.404 . S
C120 C121 1.389 . S
C121 H104 0.939 . S
C121 C116 1.400 . S
C121 C120 1.389 . S
C122 P96 1.819 . S
C122 C123 1.391 . S
C122 C127 1.391 . S
C123 H105 0.941 . S
C123 C122 1.391 . S
C123 C124 1.396 . S
C124 H108 0.939 . S
C124 C123 1.396 . S
C124 C125 1.397 . S
C125 C124 1.397 . S
C125 C126 1.385 . S
C126 H109 0.940 . S
C126 C125 1.385 . S
C126 C127 1.388 . S
C127 H106 0.939 . S
C127 C122 1.391 . S
C127 C126 1.388 . S
P128 O139 1.490 . S
P128 C142 1.812 . S
P128 C148 1.803 . S
P128 C154 1.819 . S
H129 C143 0.941 . S
H130 C144 0.939 . S
H131 C146 0.940 . S
H132 C147 0.940 . S
H133 C149 0.939 1_455 S
H134 C150 0.942 1_554 S
H135 C152 0.940 . S
H136 C153 0.939 . S
H137 C155 0.941 . S
H138 C159 0.939 . S
O139 P128 1.490 . S
H140 C156 0.939 . S
H141 C158 0.940 . S
C142 P128 1.812 . S
C142 C143 1.389 1_556 S
C142 C147 1.391 . S
C143 H129 0.941 . S
C143 C142 1.389 1_554 S
C143 C144 1.397 . S
C144 H130 0.939 . S
C144 C143 1.397 . S
C144 C145 1.378 1_554 S
C145 C144 1.378 1_556 S
C145 C146 1.378 . S
C146 H131 0.940 . S
C146 C145 1.378 . S
C146 C147 1.396 . S
C147 H132 0.940 . S
C147 C142 1.391 . S
C147 C146 1.396 . S
C148 P128 1.803 . S
C148 C149 1.378 . S
C148 C153 1.400 . S
C149 H133 0.939 1_655 S
C149 C148 1.378 . S
C149 C150 1.361 1_655 S
C150 H134 0.942 1_556 S
C150 C149 1.361 1_455 S
C150 C151 1.369 1_455 S
C151 C150 1.369 1_655 S
C151 C152 1.404 . S
C152 H135 0.940 . S
C152 C151 1.404 . S
C152 C153 1.389 . S
C153 H136 0.939 . S
C153 C148 1.400 . S
C153 C152 1.389 . S
C154 P128 1.819 . S
C154 C155 1.391 1_565 S
C154 C159 1.391 . S
C155 H137 0.941 . S
C155 C154 1.391 1_545 S
C155 C156 1.396 . S
C156 H140 0.939 . S
C156 C155 1.396 . S
C156 C157 1.397 1_545 S
C157 C156 1.397 1_565 S
C157 C158 1.385 . S
C158 H141 0.940 . S
C158 C157 1.385 . S
C158 C159 1.388 . S
C159 H138 0.939 . S
C159 C154 1.391 . S
C159 C158 1.388 . S
P160 O171 1.490 . S
P160 C174 1.812 . S
P160 C180 1.803 . S
P160 C186 1.819 . S
H161 C175 0.941 . S
H162 C176 0.939 . S
H163 C178 0.940 . S
H164 C179 0.940 . S
H165 C181 0.939 . S
H166 C182 0.942 . S
H167 C184 0.940 . S
H168 C185 0.939 . S
H169 C187 0.941 . S
H170 C191 0.939 . S
O171 P160 1.490 . S
H172 C188 0.939 . S
H173 C190 0.957 . S
C174 P160 1.812 . S
C174 C175 1.389 . S
C174 C179 1.391 . S
C175 H161 0.941 . S
C175 C174 1.389 . S
C175 C176 1.397 . S
C176 H162 0.939 . S
C176 C175 1.397 . S
C176 C177 1.378 . S
C177 C176 1.378 . S
C177 C178 1.378 . S
C178 H163 0.940 . S
C178 C177 1.378 . S
C178 C179 1.396 . S
C179 H164 0.940 . S
C179 C174 1.391 . S
C179 C178 1.396 . S
C180 P160 1.803 . S
C180 C181 1.378 . S
C180 C185 1.400 . S
C181 H165 0.939 . S
C181 C180 1.378 . S
C181 C182 1.361 . S
C182 H166 0.942 . S
C182 C181 1.361 . S
C182 C183 1.369 . S
C183 C182 1.369 . S
C183 C184 1.404 . S
C184 H167 0.940 . S
C184 C183 1.404 . S
C184 C185 1.389 . S
C185 H168 0.939 . S
C185 C180 1.400 . S
C185 C184 1.389 . S
C186 P160 1.819 . S
C186 C187 1.391 . S
C186 C191 1.391 . S
C187 H169 0.941 . S
C187 C186 1.391 . S
C187 C188 1.396 . S
C188 H172 0.939 . S
C188 C187 1.396 . S
C188 C189 1.397 . S
C189 C188 1.397 . S
C189 C190 1.385 . S
C190 H173 0.957 . S
C190 C189 1.385 . S
C190 C191 1.388 . S
C191 H170 0.939 . S
C191 C186 1.391 . S
C191 C190 1.388 . S
P192 O203 1.490 . S
P192 C206 1.812 . S
P192 C212 1.803 . S
P192 C218 1.819 . S
H193 C207 0.941 1_556 S
H194 C208 0.939 1_556 S
H195 C210 0.940 . S
H196 C211 0.940 . S
H197 C213 0.939 . S
H198 C214 0.942 . S
H199 C216 0.940 . S
H200 C217 0.939 . S
H201 C219 0.941 . S
H202 C223 0.939 . S
O203 P192 1.490 . S
H204 C220 0.939 . S
H205 C222 0.940 . S
C206 P192 1.812 . S
C206 C207 1.389 . S
C206 C211 1.391 . S
C207 H193 0.941 1_554 S
C207 C206 1.389 . S
C207 C208 1.397 . S
C208 H194 0.939 1_554 S
C208 C207 1.397 . S
C208 C209 1.378 . S
C209 C208 1.378 . S
C209 C210 1.378 . S
C210 H195 0.940 . S
C210 C209 1.378 . S
C210 C211 1.396 . S
C211 H196 0.940 . S
C211 C206 1.391 . S
C211 C210 1.396 . S
C212 P192 1.803 . S
C212 C213 1.378 . S
C212 C217 1.400 . S
C213 H197 0.939 . S
C213 C212 1.378 . S
C213 C214 1.361 . S
C214 H198 0.942 . S
C214 C213 1.361 . S
C214 C215 1.369 . S
C215 C214 1.369 . S
C215 C216 1.404 . S
C216 H199 0.940 . S
C216 C215 1.404 . S
C216 C217 1.389 . S
C217 H200 0.939 . S
C217 C212 1.400 . S
C217 C216 1.389 . S
C218 P192 1.819 . S
C218 C219 1.391 . S
C218 C223 1.391 . S
C219 H201 0.941 . S
C219 C218 1.391 . S
C219 C220 1.396 . S
C220 H204 0.939 . S
C220 C219 1.396 . S
C220 C221 1.397 . S
C221 C220 1.397 . S
C221 C222 1.385 . S
C222 H205 0.940 . S
C222 C221 1.385 . S
C222 C223 1.388 . S
C223 H202 0.939 . S
C223 C218 1.391 . S
C223 C222 1.388 . S
P224 O235 1.490 . S
P224 C238 1.812 . S
P224 C244 1.803 . S
P224 C250 1.819 . S
H225 C239 0.941 . S
H226 C240 0.939 . S
H227 C242 0.940 1_655 S
H228 C243 0.940 . S
H229 C245 0.939 . S
H230 C246 0.942 . S
H231 C248 0.940 . S
H232 C249 0.939 . S
H233 C251 0.941 . S
H234 C255 0.939 . S
O235 P224 1.490 . S
H236 C252 0.939 . S
H237 C254 0.940 . S
C238 P224 1.812 . S
C238 C239 1.389 . S
C238 C243 1.391 . S
C239 H225 0.941 . S
C239 C238 1.389 . S
C239 C240 1.397 . S
C240 H226 0.939 . S
C240 C239 1.397 . S
C240 C241 1.378 . S
C241 C240 1.378 . S
C241 C242 1.378 . S
C242 H227 0.940 1_455 S
C242 C241 1.378 . S
C242 C243 1.396 . S
C243 H228 0.940 . S
C243 C238 1.391 . S
C243 C242 1.396 . S
C244 P224 1.803 . S
C244 C245 1.378 . S
C244 C249 1.400 . S
C245 H229 0.939 . S
C245 C244 1.378 . S
C245 C246 1.361 . S
C246 H230 0.942 . S
C246 C245 1.361 . S
C246 C247 1.369 . S
C247 C246 1.369 . S
C247 C248 1.404 . S
C248 H231 0.940 . S
C248 C247 1.404 . S
C248 C249 1.389 . S
C249 H232 0.939 . S
C249 C244 1.400 . S
C249 C248 1.389 . S
C250 P224 1.819 . S
C250 C251 1.391 . S
C250 C255 1.391 . S
C251 H233 0.941 . S
C251 C250 1.391 . S
C251 C252 1.396 . S
C252 H236 0.939 . S
C252 C251 1.396 . S
C252 C253 1.397 . S
C253 C252 1.397 . S
C253 C254 1.385 . S
C254 H237 0.940 . S
C254 C253 1.385 . S
C254 C255 1.388 . S
C255 H234 0.939 . S
C255 C250 1.391 . S
C255 C254 1.388 . S
O256 Mn257 2.163 1_655 S
O256 C270 1.244 . S
Mn257 O256 2.163 1_455 S
Mn257 O260 2.160 1_545 S
Mn257 O261 2.221 . S
Mn257 O263 2.163 1_445 S
Mn257 O265 2.160 . S
Mn257 O275 2.221 1_445 S
O258 Mn259 2.087 1_545 S
O258 C270 1.256 . S
Mn259 O258 2.087 1_565 S
Mn259 O266 2.089 1_565 S
Mn259 O275 2.290 . S
Mn259 O276 2.251 . S
O260 Mn257 2.160 1_565 S
O260 C271 1.239 . S
O261 Mn257 2.221 . S
O261 Mn262 2.290 . S
O261 C272 1.278 . S
Mn262 O261 2.290 . S
Mn262 O264 2.089 1_545 S
Mn262 O267 2.251 . S
Mn262 O268 2.087 . S
O263 Mn257 2.163 1_665 S
O263 C273 1.244 . S
O264 Mn262 2.089 1_565 S
O264 C271 1.256 . S
O265 Mn257 2.160 . S
O265 C274 1.239 . S
O266 Mn259 2.089 1_545 S
O266 C274 1.256 1_655 S
O267 Mn262 2.251 . S
O267 C272 1.241 . S
O268 Mn262 2.087 . S
O268 C273 1.256 1_445 S
C269 O275 1.278 . S
C269 O276 1.241 . S
C270 O256 1.244 . S
C270 O258 1.256 . S
C271 O260 1.239 . S
C271 O264 1.256 . S
C272 O261 1.278 . S
C272 O267 1.241 . S
C273 O263 1.244 . S
C273 O268 1.256 1_665 S
C274 O265 1.239 . S
C274 O266 1.256 1_455 S
O275 Mn257 2.221 1_665 S
O275 Mn259 2.290 . S
O275 C269 1.278 . S
O276 Mn259 2.251 . S
O276 C269 1.241 . S
O277 Mn278 2.163 1_556 S
O277 C291 1.244 1_545 S
Mn278 O277 2.163 1_554 S
Mn278 O281 2.160 . S
Mn278 O282 2.221 1_554 S
Mn278 O284 2.163 . S
Mn278 O286 2.160 1_544 S
Mn278 O296 2.221 1_545 S
O279 Mn280 2.087 . S
O279 C291 1.256 . S
Mn280 O279 2.087 . S
Mn280 O287 2.089 . S
Mn280 O296 2.290 1_556 S
Mn280 O297 2.251 1_556 S
O281 Mn278 2.160 . S
O281 C292 1.239 . S
O282 Mn278 2.221 1_556 S
O282 Mn283 2.290 1_556 S
O282 C293 1.278 . S
Mn283 O282 2.290 1_554 S
Mn283 O285 2.089 . S
Mn283 O288 2.251 1_554 S
Mn283 O289 2.087 . S
O284 Mn278 2.163 . S
O284 C294 1.244 . S
O285 Mn283 2.089 . S
O285 C292 1.256 . S
O286 Mn278 2.160 1_566 S
O286 C295 1.239 . S
O287 Mn280 2.089 . S
O287 C295 1.256 . S
O288 Mn283 2.251 1_556 S
O288 C293 1.241 . S
O289 Mn283 2.087 . S
O289 C294 1.256 . S
C290 O296 1.278 . S
C290 O297 1.241 . S
C291 O277 1.244 1_565 S
C291 O279 1.256 . S
C292 O281 1.239 . S
C292 O285 1.256 . S
C293 O282 1.278 . S
C293 O288 1.241 . S
C294 O284 1.244 . S
C294 O289 1.256 . S
C295 O286 1.239 . S
C295 O287 1.256 . S
O296 Mn278 2.221 1_565 S
O296 Mn280 2.290 1_554 S
O296 C290 1.278 . S
O297 Mn280 2.251 1_554 S
O297 C290 1.241 . S
O298 Mn299 2.163 . S
O298 C312 1.244 . S
Mn299 O298 2.163 . S
Mn299 O302 2.160 . S
Mn299 O303 2.221 . S
Mn299 O305 2.163 . S
Mn299 O307 2.160 . S
Mn299 O317 2.221 . S
O300 Mn301 2.087 . S
O300 C312 1.256 . S
Mn301 O300 2.087 . S
Mn301 O308 2.089 . S
Mn301 O317 2.290 . S
Mn301 O318 2.251 . S
O302 Mn299 2.160 . S
O302 C313 1.239 . S
O303 Mn299 2.221 . S
O303 Mn304 2.290 . S
O303 C314 1.278 . S
Mn304 O303 2.290 . S
Mn304 O306 2.089 . S
Mn304 O309 2.251 . S
Mn304 O310 2.087 . S
O305 Mn299 2.163 . S
O305 C315 1.244 . S
O306 Mn304 2.089 . S
O306 C313 1.256 . S
O307 Mn299 2.160 . S
O307 C316 1.239 . S
O308 Mn301 2.089 . S
O308 C316 1.256 . S
O309 Mn304 2.251 . S
O309 C314 1.241 . S
O310 Mn304 2.087 . S
O310 C315 1.256 . S
C311 O317 1.278 . S
C311 O318 1.241 . S
C312 O298 1.244 . S
C312 O300 1.256 . S
C313 O302 1.239 . S
C313 O306 1.256 . S
C314 O303 1.278 . S
C314 O309 1.241 . S
C315 O305 1.244 . S
C315 O310 1.256 . S
C316 O307 1.239 . S
C316 O308 1.256 . S
O317 Mn299 2.221 . S
O317 Mn301 2.290 . S
O317 C311 1.278 . S
O318 Mn301 2.251 . S
O318 C311 1.241 . S
O319 Mn320 2.163 1_656 S
O319 C333 1.247 . S
Mn320 O319 2.163 1_454 S
Mn320 O323 2.160 . S
Mn320 O324 2.221 1_455 S
Mn320 O326 2.163 . S
Mn320 O328 2.160 1_454 S
Mn320 O338 2.221 1_554 S
O321 Mn322 2.087 . S
O321 C333 1.256 . S
Mn322 O321 2.087 . S
Mn322 O329 2.089 . S
Mn322 O338 2.290 1_655 S
Mn322 O339 2.251 . S
O323 Mn320 2.160 . S
O323 C334 1.239 . S
O324 Mn320 2.221 1_655 S
O324 Mn325 2.290 1_655 S
O324 C335 1.278 . S
Mn325 O324 2.290 1_455 S
Mn325 O327 2.089 . S
Mn325 O330 2.251 1_455 S
Mn325 O331 2.087 . S
O326 Mn320 2.163 . S
O326 C336 1.244 . S
O327 Mn325 2.089 . S
O327 C334 1.256 . S
O328 Mn320 2.160 1_656 S
O328 C337 1.239 . S
O329 Mn322 2.089 . S
O329 C337 1.256 . S
O330 Mn325 2.251 1_655 S
O330 C335 1.241 . S
O331 Mn325 2.087 . S
O331 C336 1.256 . S
C332 O338 1.278 . S
C332 O339 1.241 1_455 S
C333 O319 1.247 . S
C333 O321 1.256 . S
C334 O323 1.239 . S
C334 O327 1.256 . S
C335 O324 1.278 . S
C335 O330 1.241 . S
C336 O326 1.244 . S
C336 O331 1.256 . S
C337 O328 1.239 . S
C337 O329 1.256 . S
O338 Mn320 2.221 1_556 S
O338 Mn322 2.290 1_455 S
O338 C332 1.278 . S
O339 Mn322 2.251 . S
O339 C332 1.241 1_655 S
C29 C274 1.504 . S
C49 C291 1.629 . S
C314 C93 1.129 . S
C119 C335 1.302 . S
C294 C17 1.766 . S
C271 C61 2.136 . S
C333 C81 1.247 . S
C312 C125 1.474 . S
C23 C336 1.616 . S
C293 C87 1.128 . S
C113 C269 1.732 . S
C55 C315 2.023 . S
C273 C157 1.615 . S
C189 C292 1.192 . S
C221 C311 1.185 . S
C253 C332 1.294 . S
C145 C295 2.048 . S
C270 C183 1.739 . S
C334 C209 1.282 . S
C313 C247 1.478 . S
C151 C337 1.874 . S
C290 C215 1.247 . S
C272 C241 1.573 . S
C177 C316 1.600 . S
