# Generated by pormake.
# Topology sqc, (4,8)-cn, num edge types: 1
# Building blocks:
#     Node 0, Type 0, BuildingBlock: GIZVER_clean_linker_0, # of connection points: 4
#     Node 1, Type 0, BuildingBlock: GIZVER_clean_linker_0, # of connection points: 4
#     Node 2, Type 0, BuildingBlock: GIZVER_clean_linker_0, # of connection points: 4
#     Node 3, Type 0, BuildingBlock: GIZVER_clean_linker_0, # of connection points: 4
#     Node 4, Type 0, BuildingBlock: GIZVER_clean_linker_0, # of connection points: 4
#     Node 5, Type 0, BuildingBlock: GIZVER_clean_linker_0, # of connection points: 4
#     Node 6, Type 0, BuildingBlock: GIZVER_clean_linker_0, # of connection points: 4
#     Node 7, Type 0, BuildingBlock: GIZVER_clean_linker_0, # of connection points: 4
#     Node 8, Type 1, BuildingBlock: TAGTUT_clean_sbu_3, # of connection points: 8
#     Node 9, Type 1, BuildingBlock: TAGTUT_clean_sbu_3, # of connection points: 8
#     Node 10, Type 1, BuildingBlock: TAGTUT_clean_sbu_3, # of connection points: 8
#     Node 11, Type 1, BuildingBlock: TAGTUT_clean_sbu_3, # of connection points: 8
#     Edge 12, Type (0, 1), BuildingBlock: MIFKUJ_clean_linker_0, # of connection points: 2
#     Edge 13, Type (0, 1), BuildingBlock: MIFKUJ_clean_linker_0, # of connection points: 2
#     Edge 14, Type (0, 1), BuildingBlock: MIFKUJ_clean_linker_0, # of connection points: 2
#     Edge 15, Type (0, 1), BuildingBlock: MIFKUJ_clean_linker_0, # of connection points: 2
#     Edge 16, Type (0, 1), BuildingBlock: MIFKUJ_clean_linker_0, # of connection points: 2
#     Edge 17, Type (0, 1), BuildingBlock: MIFKUJ_clean_linker_0, # of connection points: 2
#     Edge 18, Type (0, 1), BuildingBlock: MIFKUJ_clean_linker_0, # of connection points: 2
#     Edge 19, Type (0, 1), BuildingBlock: MIFKUJ_clean_linker_0, # of connection points: 2
#     Edge 20, Type (0, 1), BuildingBlock: MIFKUJ_clean_linker_0, # of connection points: 2
#     Edge 21, Type (0, 1), BuildingBlock: MIFKUJ_clean_linker_0, # of connection points: 2
#     Edge 22, Type (0, 1), BuildingBlock: MIFKUJ_clean_linker_0, # of connection points: 2
#     Edge 23, Type (0, 1), BuildingBlock: MIFKUJ_clean_linker_0, # of connection points: 2
#     Edge 24, Type (0, 1), BuildingBlock: MIFKUJ_clean_linker_0, # of connection points: 2
#     Edge 25, Type (0, 1), BuildingBlock: MIFKUJ_clean_linker_0, # of connection points: 2
#     Edge 26, Type (0, 1), BuildingBlock: MIFKUJ_clean_linker_0, # of connection points: 2
#     Edge 27, Type (0, 1), BuildingBlock: MIFKUJ_clean_linker_0, # of connection points: 2
#     Edge 28, Type (0, 1), BuildingBlock: MIFKUJ_clean_linker_0, # of connection points: 2
#     Edge 29, Type (0, 1), BuildingBlock: MIFKUJ_clean_linker_0, # of connection points: 2
#     Edge 30, Type (0, 1), BuildingBlock: MIFKUJ_clean_linker_0, # of connection points: 2
#     Edge 31, Type (0, 1), BuildingBlock: MIFKUJ_clean_linker_0, # of connection points: 2
#     Edge 32, Type (0, 1), BuildingBlock: MIFKUJ_clean_linker_0, # of connection points: 2
#     Edge 33, Type (0, 1), BuildingBlock: MIFKUJ_clean_linker_0, # of connection points: 2
#     Edge 34, Type (0, 1), BuildingBlock: MIFKUJ_clean_linker_0, # of connection points: 2
#     Edge 35, Type (0, 1), BuildingBlock: MIFKUJ_clean_linker_0, # of connection points: 2
#     Edge 36, Type (0, 1), BuildingBlock: MIFKUJ_clean_linker_0, # of connection points: 2
#     Edge 37, Type (0, 1), BuildingBlock: MIFKUJ_clean_linker_0, # of connection points: 2
#     Edge 38, Type (0, 1), BuildingBlock: MIFKUJ_clean_linker_0, # of connection points: 2
#     Edge 39, Type (0, 1), BuildingBlock: MIFKUJ_clean_linker_0, # of connection points: 2
#     Edge 40, Type (0, 1), BuildingBlock: MIFKUJ_clean_linker_0, # of connection points: 2
#     Edge 41, Type (0, 1), BuildingBlock: MIFKUJ_clean_linker_0, # of connection points: 2
#     Edge 42, Type (0, 1), BuildingBlock: MIFKUJ_clean_linker_0, # of connection points: 2
#     Edge 43, Type (0, 1), BuildingBlock: MIFKUJ_clean_linker_0, # of connection points: 2
# Relax obj value: 0.182
# Max RMSD: 0.274
# Mean RMSD: 0.225
data_MOF--net-sqc--node1-TAGTUT_clean_sbu_3--node2-GIZVER_clean_linker_0--edge1-MIFKUJ_clean_linker_0
_symmetry_space_group_name_H-M    P1
_symmetry_Int_Tables_number       1
_symmetry_cell_setting            triclinic
loop_
_symmetry_equiv_pos_as_xyz
'x, y, z'
_cell_length_a     31.621784
_cell_length_b     31.644469
_cell_length_c     88.641767
_cell_angle_alpha  90.746139
_cell_angle_beta   89.819107
_cell_angle_gamma 89.852276
loop_
_atom_site_label
_atom_site_type_symbol
_atom_site_fract_x
_atom_site_fract_y
_atom_site_fract_z
_atom_type_partial_charge
H0 H 0.98467 0.97778 0.47498 0.0
H1 H 0.00722 0.04745 0.51621 0.0
H2 H 0.89935 0.96619 0.5124 0.0
H3 H 0.03283 0.03519 0.47485 0.0
H4 H 0.03455 0.07068 0.49056 0.0
H5 H 0.077 0.96718 0.47539 0.0
H6 H 0.19631 0.98525 0.49774 0.0
H7 H 0.09327 0.07019 0.50709 0.0
C8 C 0.97657 0.98463 0.48665 0.0
C9 C 0.93942 0.96774 0.49282 0.0
C10 C 0.00159 0.01296 0.49507 0.0
C11 C 0.98953 0.02377 0.50996 0.0
C12 C 0.9531 0.00595 0.5164 0.0
C13 C 0.92904 0.97736 0.50784 0.0
C14 C 0.03667 0.03664 0.48732 0.0
C15 C 0.07983 0.01965 0.49123 0.0
C16 C 0.09636 0.98393 0.48356 0.0
C17 C 0.13835 0.97092 0.48602 0.0
C18 C 0.16347 0.9941 0.49617 0.0
C19 C 0.14764 0.02998 0.50371 0.0
C20 C 0.10544 0.04199 0.5015 0.0
H21 H 0.43819 0.74391 0.74757 0.0
H22 H 0.34605 0.77443 0.78196 0.0
H23 H 0.34773 0.84232 0.74023 0.0
H24 H 0.4468 0.72518 0.77567 0.0
H25 H 0.40086 0.72491 0.78742 0.0
H26 H 0.45595 0.67247 0.75486 0.0
H27 H 0.38015 0.56056 0.75749 0.0
H28 H 0.34748 0.66958 0.7845 0.0
C29 C 0.41036 0.76121 0.75128 0.0
C30 C 0.39386 0.79293 0.74216 0.0
C31 C 0.3921 0.75313 0.76544 0.0
C32 C 0.35828 0.77865 0.77065 0.0
C33 C 0.34266 0.8117 0.76174 0.0
C34 C 0.35939 0.817 0.74723 0.0
C35 C 0.41192 0.72066 0.77556 0.0
C36 C 0.40235 0.67631 0.77012 0.0
C37 C 0.42867 0.65615 0.75934 0.0
C38 C 0.42084 0.61423 0.75484 0.0
C39 C 0.38596 0.59308 0.76087 0.0
C40 C 0.35941 0.61253 0.77156 0.0
C41 C 0.36763 0.65435 0.77613 0.0
H42 H 0.64853 0.99839 0.02629 0.0
H43 H 0.64246 0.0815 0.98833 0.0
H44 H 0.75209 0.00406 0.9947 0.0
H45 H 0.59638 0.05705 0.02567 0.0
H46 H 0.59261 0.09001 0.00943 0.0
H47 H 0.56266 0.98867 0.02605 0.0
H48 H 0.48512 0.94989 0.98866 0.0
H49 H 0.55912 0.06369 0.98617 0.0
C50 C 0.66294 0.01098 0.0162 0.0
C51 C 0.70297 0.99656 0.01145 0.0
C52 C 0.64124 0.04191 0.00799 0.0
C53 C 0.65918 0.0578 0.99474 0.0
C54 C 0.69858 0.04303 0.98971 0.0
C55 C 0.72036 0.01296 -0.00184 0.0
C56 C 0.59843 0.05704 0.01314 0.0
C57 C 0.56545 0.02819 0.00653 0.0
C58 C 0.55148 0.99312 0.01464 0.0
C59 C 0.52158 0.96533 0.0084 0.0
C60 C 0.5073 0.97202 0.99364 0.0
C61 C 0.51963 0.00795 0.98558 0.0
C62 C 0.54937 0.03557 0.99207 0.0
H63 H 0.23159 0.23359 0.24466 0.0
H64 H 0.30928 0.26266 0.28309 0.0
H65 H 0.34309 0.15977 0.25396 0.0
H66 H 0.21242 0.29253 0.26014 0.0
H67 H 0.23129 0.29076 0.27911 0.0
H68 H 0.23225 0.35171 0.24473 0.0
H69 H 0.32971 0.43706 0.25968 0.0
H70 H 0.29927 0.32987 0.28626 0.0
C71 C 0.26004 0.22811 0.25112 0.0
C72 C 0.28539 0.19226 0.24803 0.0
C73 C 0.26969 0.25539 0.26332 0.0
C74 C 0.30389 0.24525 0.27273 0.0
C75 C 0.33085 0.21158 0.26912 0.0
C76 C 0.32241 0.18634 0.25646 0.0
C77 C 0.24157 0.29291 0.26713 0.0
C78 C 0.26498 0.33414 0.26515 0.0
C79 C 0.25684 0.36024 0.25269 0.0
C80 C 0.27881 0.3986 0.25106 0.0
C81 C 0.31145 0.40842 0.26113 0.0
C82 C 0.3193 0.38318 0.27359 0.0
C83 C 0.29485 0.34727 0.27597 0.0
H84 H 0.69306 0.25489 0.2532 0.0
H85 H 0.78535 0.25592 0.2173 0.0
H86 H 0.77466 0.36164 0.24797 0.0
H87 H 0.6902 0.2017 0.23323 0.0
H88 H 0.72148 0.20802 0.21658 0.0
H89 H 0.71113 0.15111 0.25175 0.0
H90 H 0.82422 0.0784 0.24479 0.0
H91 H 0.79897 0.18471 0.21656 0.0
C92 C 0.71912 0.26993 0.24741 0.0
C93 C 0.73281 0.31001 0.25216 0.0
C94 C 0.7385 0.24993 0.23489 0.0
C95 C 0.77126 0.27063 0.22719 0.0
C96 C 0.78519 0.31065 0.23197 0.0
C97 C 0.76581 0.32985 0.24453 0.0
C98 C 0.72289 0.20778 0.22912 0.0
C99 C 0.75217 0.17269 0.23386 0.0
C100 C 0.74082 0.14624 0.24583 0.0
C101 C 0.76668 0.11198 0.24956 0.0
C102 C 0.8049 0.10552 0.24194 0.0
C103 C 0.81734 0.13209 0.23022 0.0
C104 C 0.79043 0.16524 0.22603 0.0
H105 H 0.73218 0.73678 0.73324 0.0
H106 H 0.8042 0.75055 0.77421 0.0
H107 H 0.81731 0.63864 0.74682 0.0
H108 H 0.71843 0.79616 0.74974 0.0
H109 H 0.73791 0.7948 0.76865 0.0
H110 H 0.74938 0.84448 0.7322 0.0
H111 H 0.85543 0.92042 0.74586 0.0
H112 H 0.81192 0.82125 0.7744 0.0
C113 C 0.75592 0.72522 0.74097 0.0
C114 C 0.77419 0.68531 0.73848 0.0
C115 C 0.76762 0.74968 0.75364 0.0
C116 C 0.79675 0.73313 0.76399 0.0
C117 C 0.81569 0.69361 0.7614 0.0
C118 C 0.8046 0.67024 0.7485 0.0
C119 C 0.74759 0.7923 0.75659 0.0
C120 C 0.77852 0.82728 0.75328 0.0
C121 C 0.77488 0.851 0.74003 0.0
C122 C 0.80204 0.88527 0.7375 0.0
C123 C 0.83477 0.89365 0.74772 0.0
C124 C 0.83879 0.87033 0.76095 0.0
C125 C 0.81015 0.83769 0.7638 0.0
H126 H 0.48727 0.50178 0.02868 0.0
H127 H 0.50537 0.43726 0.98593 0.0
H128 H 0.38588 0.4948 0.99662 0.0
H129 H 0.54725 0.45563 0.02502 0.0
H130 H 0.54985 0.42189 0.00883 0.0
H131 H 0.58252 0.52416 0.02549 0.0
H132 H 0.67597 0.54647 0.99145 0.0
H133 H 0.59297 0.43944 0.98738 0.0
C134 C 0.47591 0.4932 0.01753 0.0
C135 C 0.43364 0.50149 0.01372 0.0
C136 C 0.50238 0.47049 0.00743 0.0
C137 C 0.48618 0.45681 0.99341 0.0
C138 C 0.44431 0.46612 0.98949 0.0
C139 C 0.41875 0.48915 -0.0005 0.0
C140 C 0.54531 0.45537 0.01249 0.0
C141 C 0.58063 0.48191 0.00614 0.0
C142 C 0.59608 0.51666 0.01453 0.0
C143 C 0.63193 0.53851 0.00956 0.0
C144 C 0.64935 0.52817 0.99545 0.0
C145 C 0.63811 0.49069 0.98788 0.0
C146 C 0.60224 0.46863 0.99294 0.0
H147 H 0.1782 0.54991 0.53365 0.0
H148 H 0.16984 0.62537 0.49379 0.0
H149 H 0.26228 0.52653 0.49603 0.0
H150 H 0.13779 0.61812 0.5334 0.0
H151 H 0.12966 0.64513 0.51599 0.0
H152 H 0.09809 0.55424 0.53935 0.0
H153 H 0.99376 0.5193 0.51109 0.0
H154 H 0.07831 0.618 0.49727 0.0
C155 C 0.18884 0.55647 0.5223 0.0
C156 C 0.22279 0.53348 0.51591 0.0
C157 C 0.16918 0.58913 0.51425 0.0
C158 C 0.18395 0.59934 0.49983 0.0
C159 C 0.21821 0.57739 0.49352 0.0
C160 C 0.23649 0.54383 0.50133 0.0
C161 C 0.13268 0.61331 0.52108 0.0
C162 C 0.09276 0.58862 0.51852 0.0
C163 C 0.08024 0.55832 0.52905 0.0
C164 C 0.04481 0.53314 0.52628 0.0
C165 C 0.02159 0.53857 0.51303 0.0
C166 C 0.03262 0.56972 0.50263 0.0
C167 C 0.06901 0.59409 0.50526 0.0
C168 C 0.11576 0.68639 0.1461 0.0
C169 C 0.96327 0.64126 0.14653 0.0
C170 C 0.9516 0.70582 0.10434 0.0
Mg171 Mg 0.16534 0.76418 0.1323 0.0
Mg172 Mg 0.12326 0.84933 0.11674 0.0
O173 O 0.12088 0.79131 0.11958 0.0
Mg174 Mg 0.07096 0.75899 0.12672 0.0
O175 O 0.02539 0.721 0.13384 0.0
Mg176 Mg 0.0396 0.66898 0.12181 0.0
Mg177 Mg 0.96889 0.73389 0.13715 0.0
C178 C 0.03318 0.83027 0.10255 0.0
O179 O 0.04677 0.81017 0.14382 0.0
O180 O 0.21512 0.79922 0.11815 0.0
O181 O 0.97732 0.79582 0.14706 0.0
O182 O 0.16372 0.82116 0.14975 0.0
O183 O 0.18418 0.85258 0.10588 0.0
O184 O 0.12861 0.87433 0.13892 0.0
O185 O 0.09109 0.70784 0.10953 0.0
O186 O 0.16084 0.71169 0.11459 0.0
C187 C 0.12944 0.69505 0.10758 0.0
C188 C 0.21654 0.82961 0.10874 0.0
O189 O 0.03083 0.79417 0.10902 0.0
O190 O 0.99137 0.63285 0.13646 0.0
O191 O 0.06431 0.85573 0.10453 0.0
O192 O 0.98523 0.68287 0.10446 0.0
O193 O 0.95146 0.67905 0.14977 0.0
O194 O 0.94088 0.72897 0.11559 0.0
O195 O 0.11305 0.72655 0.14416 0.0
O196 O 0.09112 0.6603 0.13929 0.0
C197 C 0.14802 0.85872 0.15015 0.0
C198 C 0.00981 0.81942 0.14907 0.0
C199 C 0.63661 0.80466 0.39763 0.0
C200 C 0.71058 0.66108 0.39506 0.0
C201 C 0.66163 0.65442 0.34966 0.0
Mg202 Mg 0.56034 0.84679 0.38021 0.0
Mg203 Mg 0.49054 0.79892 0.358 0.0
O204 O 0.54556 0.80124 0.36527 0.0
Mg205 Mg 0.58275 0.75496 0.3727 0.0
O206 O 0.62481 0.71387 0.38082 0.0
Mg207 Mg 0.6774 0.73965 0.37233 0.0
Mg208 Mg 0.62098 0.65513 0.38147 0.0
C209 C 0.52718 0.71194 0.34465 0.0
O210 O 0.5315 0.71923 0.38552 0.0
O211 O 0.52613 0.89451 0.36488 0.0
O212 O 0.55479 0.65216 0.3885 0.0
O213 O 0.49692 0.83503 0.39372 0.0
O214 O 0.48777 0.85972 0.34747 0.0
O215 O 0.45215 0.80269 0.37775 0.0
O216 O 0.63565 0.78655 0.35949 0.0
O217 O 0.62008 0.85351 0.3661 0.0
C218 C 0.64376 0.82627 0.35932 0.0
C219 C 0.5031 0.894 0.35299 0.0
O220 O 0.56132 0.71401 0.35249 0.0
O221 O 0.716 0.69382 0.38692 0.0
O222 O 0.49728 0.73947 0.34567 0.0
O223 O 0.67935 0.69013 0.35241 0.0
O224 O 0.67494 0.64191 0.3958 0.0
O225 O 0.6374 0.63631 0.35909 0.0
O226 O 0.59915 0.79695 0.39286 0.0
O227 O 0.66953 0.78664 0.39193 0.0
C228 C 0.4606 0.81886 0.39065 0.0
C229 C 0.5259 0.68077 0.38958 0.0
C230 C 0.63733 0.17344 0.63486 0.0
C231 C 0.49031 0.11765 0.64165 0.0
C232 C 0.45828 0.19391 0.60291 0.0
Mg233 Mg 0.67518 0.25831 0.62202 0.0
Mg234 Mg 0.62018 0.34466 0.61557 0.0
O235 O 0.62484 0.28634 0.61257 0.0
Mg236 Mg 0.58064 0.24785 0.62071 0.0
O237 O 0.54095 0.20506 0.62877 0.0
Mg238 Mg 0.55376 0.1572 0.61444 0.0
Mg239 Mg 0.48565 0.2134 0.63569 0.0
C240 C 0.52918 0.32361 0.60251 0.0
O241 O 0.56075 0.29262 0.64044 0.0
O242 O 0.71535 0.30378 0.60825 0.0
O243 O 0.49635 0.27176 0.6486 0.0
O244 O 0.6782 0.30588 0.64217 0.0
O245 O 0.67767 0.36298 0.6041 0.0
O246 O 0.62874 0.35562 0.63909 0.0
O247 O 0.59721 0.2023 0.60115 0.0
O248 O 0.66755 0.21279 0.60237 0.0
C249 C 0.63521 0.19444 0.5966 0.0
C250 C 0.71144 0.34075 0.60269 0.0
O251 O 0.53184 0.28472 0.60651 0.0
O252 O 0.51482 0.11419 0.63014 0.0
O253 O 0.55792 0.35102 0.6056 0.0
O254 O 0.49296 0.17341 0.60078 0.0
O255 O 0.47668 0.15351 0.6465 0.0
O256 O 0.44961 0.21287 0.61536 0.0
O257 O 0.63091 0.21353 0.63446 0.0
O258 O 0.61205 0.14703 0.62858 0.0
C259 C 0.65741 0.33816 0.64694 0.0
C260 C 0.52802 0.29713 0.64896 0.0
C261 C 0.14285 0.30219 0.88947 0.0
C262 C 0.21452 0.15398 0.88543 0.0
C263 C 0.14185 0.13898 0.84545 0.0
Mg264 Mg 0.05378 0.33648 0.8768 0.0
Mg265 Mg 0.97518 0.27672 0.86404 0.0
O266 O 0.03312 0.28578 0.86536 0.0
Mg267 Mg 0.0764 0.24394 0.8716 0.0
O268 O 0.12374 0.20642 0.87777 0.0
Mg269 Mg 0.16906 0.22949 0.86428 0.0
Mg270 Mg 0.11847 0.1479 0.87887 0.0
C271 C 0.00808 0.18928 0.85047 0.0
O272 O 0.03514 0.21263 0.88986 0.0
O273 O 0.00628 0.37587 0.86314 0.0
O274 O 0.05994 0.14597 0.89181 0.0
O275 O 0.00148 0.32917 0.89544 0.0
O276 O 0.95864 0.33315 0.85202 0.0
O277 O 0.95252 0.2845 0.88646 0.0
O278 O 0.11882 0.27188 0.85329 0.0
O279 O 0.10161 0.33982 0.85778 0.0
C280 C 0.12288 0.31147 0.85062 0.0
C281 C 0.97477 0.3698 0.8543 0.0
O282 O 0.0461 0.19599 0.85502 0.0
O283 O 0.21617 0.18692 0.87713 0.0
O284 O 0.97714 0.21441 0.8535 0.0
O285 O 0.16132 0.17445 0.84655 0.0
O286 O 0.17976 0.13477 0.88821 0.0
O287 O 0.11972 0.12462 0.85628 0.0
O288 O 0.10337 0.29299 0.88821 0.0
O289 O 0.17179 0.28209 0.88212 0.0
C290 C 0.96651 0.30895 0.89685 0.0
C291 C 0.03304 0.1751 0.89523 0.0
H292 H 0.18935 0.90731 0.49589 0.0
H293 H 0.2386 0.86535 0.48054 0.0
H294 H 0.1838 0.916 0.44011 0.0
H295 H 0.13477 0.95865 0.45544 0.0
H296 H 0.2131 0.8304 0.43688 0.0
H297 H 0.26025 0.96681 0.4544 0.0
H298 H 0.27366 0.02143 0.47385 0.0
H299 H 0.36069 0.93842 0.49595 0.0
H300 H 0.34666 0.88271 0.47687 0.0
H301 H 0.37931 0.83619 0.38405 0.0
H302 H 0.32041 0.84774 0.40126 0.0
H303 H 0.40155 0.82046 0.43902 0.0
H304 H 0.4619 0.81185 0.42163 0.0
H305 H 0.35808 0.8847 0.44575 0.0
H306 H 0.32038 0.75414 0.42291 0.0
H307 H 0.30331 0.70092 0.40326 0.0
H308 H 0.19746 0.77579 0.38933 0.0
H309 H 0.21406 0.82934 0.40882 0.0
C310 C 0.18699 0.90859 0.48371 0.0
C311 C 0.15869 0.93681 0.47687 0.0
C312 C 0.2151 0.88451 0.47496 0.0
C313 C 0.21534 0.88815 0.45921 0.0
C314 C 0.18414 0.9128 0.45227 0.0
C315 C 0.15605 0.93709 0.46104 0.0
C316 C 0.25175 0.87191 0.45025 0.0
C317 C 0.24486 0.8423 0.43865 0.0
C318 C 0.29319 0.88691 0.45291 0.0
C319 C 0.30198 0.9204 0.46433 0.0
C320 C 0.28185 0.96001 0.46351 0.0
C321 C 0.28952 0.99115 0.47447 0.0
C322 C 0.3178 0.98334 0.48618 0.0
C323 C 0.33854 0.94434 0.48694 0.0
C324 C 0.33069 0.91293 0.47607 0.0
C325 C 0.3846 0.8323 0.39602 0.0
C326 C 0.42519 0.82306 0.40152 0.0
C327 C 0.35067 0.83853 0.40588 0.0
C328 C 0.35595 0.83402 0.42149 0.0
C329 C 0.39649 0.82402 0.42703 0.0
C330 C 0.43096 0.81907 0.41712 0.0
C331 C 0.31991 0.8431 0.43199 0.0
C332 C 0.32672 0.87182 0.44395 0.0
C333 C 0.27828 0.82755 0.42944 0.0
C334 C 0.26853 0.79565 0.41746 0.0
C335 C 0.29351 0.75912 0.41568 0.0
C336 C 0.28393 0.72896 0.40456 0.0
C337 C 0.24931 0.73494 0.39508 0.0
C338 C 0.22424 0.77112 0.39671 0.0
C339 C 0.2337 0.80134 0.40783 0.0
H340 H 0.24194 0.71157 0.38647 0.0
H341 H 0.32377 0.00762 0.4946 0.0
H342 H 0.46785 0.83472 0.74163 0.0
H343 H 0.49126 0.88149 0.72156 0.0
H344 H 0.39361 0.83178 0.69243 0.0
H345 H 0.36876 0.7867 0.7129 0.0
H346 H 0.51694 0.8881 0.69392 0.0
H347 H 0.34209 0.90955 0.67625 0.0
H348 H 0.27057 0.89998 0.68693 0.0
H349 H 0.31978 0.91682 0.73169 0.0
H350 H 0.39151 0.92656 0.72128 0.0
H351 H 0.51208 0.03596 0.63459 0.0
H352 H 0.50085 0.97324 0.64979 0.0
H353 H 0.43635 0.04911 0.68352 0.0
H354 H 0.44678 0.11196 0.6683 0.0
H355 H 0.39575 0.97855 0.67922 0.0
H356 H 0.53757 0.01795 0.68883 0.0
H357 H 0.61085 0.03793 0.68272 0.0
H358 H 0.63172 0.91651 0.66179 0.0
H359 H 0.55819 0.89603 0.66755 0.0
C360 C 0.45262 0.8326 0.73071 0.0
C361 C 0.41658 0.80744 0.72871 0.0
C362 C 0.46591 0.85938 0.71926 0.0
C363 C 0.44342 0.86098 0.70564 0.0
C364 C 0.41078 0.83174 0.70299 0.0
C365 C 0.39686 0.80569 0.71458 0.0
C366 C 0.44951 0.89735 0.69548 0.0
C367 C 0.49043 0.90758 0.69054 0.0
C368 C 0.41519 0.92399 0.69164 0.0
C369 C 0.37215 0.91831 0.69799 0.0
C370 C 0.33759 0.91123 0.68837 0.0
C371 C 0.29706 0.90571 0.69437 0.0
C372 C 0.29069 0.90757 0.70998 0.0
C373 C 0.32481 0.91512 0.71961 0.0
C374 C 0.36541 0.92056 0.71367 0.0
C375 C 0.49519 0.03935 0.64519 0.0
C376 C 0.48043 0.0791 0.65025 0.0
C377 C 0.48906 0.00345 0.6539 0.0
C378 C 0.46833 0.00662 0.66788 0.0
C379 C 0.45252 0.04598 0.67277 0.0
C380 C 0.4585 0.08189 0.66405 0.0
C381 C 0.46304 0.96894 0.67743 0.0
C382 C 0.42223 0.95863 0.68233 0.0
C383 C 0.49779 0.94367 0.68186 0.0
C384 C 0.54213 0.95568 0.67842 0.0
C385 C 0.55762 0.99565 0.68278 0.0
C386 C 0.59921 0.00708 0.67938 0.0
C387 C 0.62584 0.97864 0.67176 0.0
C388 C 0.61098 0.9386 0.66762 0.0
C389 C 0.56933 0.92706 0.67095 0.0
H390 H 0.65807 0.98751 0.66918 0.0
H391 H 0.2593 0.9033 0.71461 0.0
H392 H 0.55281 0.04702 0.96048 0.0
H393 H 0.51399 0.07119 0.93826 0.0
H394 H 0.39951 0.01669 0.95585 0.0
H395 H 0.43673 0.99486 0.97831 0.0
H396 H 0.41574 0.00073 0.92387 0.0
H397 H 0.4134 0.11411 0.96243 0.0
H398 H 0.44824 0.16652 0.97902 0.0
H399 H 0.50755 0.22273 0.94055 0.0
H400 H 0.47347 0.17018 0.92375 0.0
H401 H 0.22327 0.08909 0.90517 0.0
H402 H 0.28801 0.06317 0.91657 0.0
H403 H 0.36056 0.15504 0.89204 0.0
H404 H 0.29558 0.18161 0.88056 0.0
H405 H 0.38261 0.15385 0.92127 0.0
H406 H 0.36975 0.05223 0.88222 0.0
H407 H 0.33457 0.0007 0.8654 0.0
H408 H 0.30619 0.92241 0.90329 0.0
H409 H 0.34063 0.97375 0.92039 0.0
C410 C 0.51936 0.04022 0.95964 0.0
C411 C 0.49805 0.0188 0.97124 0.0
C412 C 0.49741 0.05373 0.94688 0.0
C413 C 0.45406 0.04543 0.94546 0.0
C414 C 0.43313 0.02284 0.95669 0.0
C415 C 0.45469 0.01009 0.96951 0.0
C416 C 0.42897 0.06264 0.93295 0.0
C417 C 0.40863 0.0342 0.92316 0.0
C418 C 0.42102 0.10644 0.93178 0.0
C419 C 0.44146 0.13788 0.94188 0.0
C420 C 0.43423 0.13737 0.95753 0.0
C421 C 0.45375 0.16715 0.96697 0.0
C422 C 0.48023 0.19783 0.96085 0.0
C423 C 0.48714 0.19887 0.94528 0.0
C424 C 0.46775 0.16909 0.9358 0.0
C425 C 0.25292 0.10364 0.90206 0.0
C426 C 0.25415 0.13748 0.89196 0.0
C427 C 0.29001 0.0886 0.90853 0.0
C428 C 0.32916 0.10673 0.90494 0.0
C429 C 0.33067 0.14044 0.89485 0.0
C430 C 0.29349 0.15553 0.88833 0.0
C431 C 0.36783 0.0917 0.91256 0.0
C432 C 0.3907 0.12052 0.92148 0.0
C433 C 0.37838 0.04822 0.91283 0.0
C434 C 0.35772 0.01699 0.9026 0.0
C435 C 0.35579 0.02416 0.88699 0.0
C436 C 0.336 0.99495 0.8774 0.0
C437 C 0.31813 0.95832 0.88327 0.0
C438 C 0.32008 0.95078 0.89875 0.0
C439 C 0.33982 0.9799 0.9084 0.0
H440 H 0.30281 0.93575 0.87583 0.0
H441 H 0.49529 0.22089 0.96817 0.0
H442 H 0.29477 0.10702 0.25147 0.0
H443 H 0.27128 0.05038 0.23487 0.0
H444 H 0.21577 0.14116 0.20498 0.0
H445 H 0.24188 0.19919 0.22109 0.0
H446 H 0.16388 0.06281 0.21889 0.0
H447 H 0.28668 0.10477 0.18966 0.0
H448 H 0.36211 0.12258 0.18678 0.0
H449 H 0.39712 0.00029 0.20313 0.0
H450 H 0.32184 0.98201 0.20634 0.0
H451 H 0.11092 0.93498 0.15584 0.0
H452 H 0.13076 0.98756 0.17465 0.0
H453 H 0.22367 0.90192 0.19259 0.0
H454 H 0.20346 0.84824 0.17373 0.0
H455 H 0.25796 0.9769 0.18569 0.0
H456 H 0.14033 0.92981 0.21278 0.0
H457 H 0.06859 0.91011 0.22083 0.0
H458 H 0.02558 0.03688 0.21354 0.0
H459 H 0.0963 0.05691 0.20456 0.0
C460 C 0.27886 0.11548 0.24114 0.0
C461 C 0.27113 0.15808 0.2375 0.0
C462 C 0.26501 0.08281 0.23176 0.0
C463 C 0.24223 0.09176 0.21872 0.0
C464 C 0.23361 0.13389 0.21504 0.0
C465 C 0.24833 0.16691 0.22429 0.0
C466 C 0.22611 0.05642 0.20942 0.0
C467 C 0.18386 0.04447 0.21128 0.0
C468 C 0.25339 0.03135 0.20039 0.0
C469 C 0.29864 0.04222 0.1984 0.0
C470 C 0.31046 0.08185 0.1928 0.0
C471 C 0.35319 0.09199 0.19107 0.0
C472 C 0.3844 0.06263 0.19481 0.0
C473 C 0.37292 0.02302 0.20026 0.0
C474 C 0.33023 0.01275 0.20202 0.0
C475 C 0.13496 0.92671 0.16397 0.0
C476 C 0.15567 0.88727 0.16324 0.0
C477 C 0.14614 0.95693 0.17479 0.0
C478 C 0.17866 0.9487 0.18502 0.0
C479 C 0.19839 0.90882 0.18477 0.0
C480 C 0.18672 0.87815 0.17404 0.0
C481 C 0.1948 0.98352 0.19471 0.0
C482 C 0.23736 0.99527 0.19309 0.0
C483 C 0.1678 0.00797 0.20419 0.0
C484 C 0.12384 0.9948 0.20783 0.0
C485 C 0.11536 0.95325 0.21243 0.0
C486 C 0.07479 0.94203 0.21719 0.0
C487 C 0.0425 0.9722 0.21764 0.0
C488 C 0.05047 0.01343 0.21302 0.0
C489 C 0.09077 0.02468 0.20802 0.0
H490 H 0.01138 0.96371 0.22168 0.0
H491 H 0.41746 0.07054 0.19346 0.0
H492 H 0.22617 0.05692 0.49591 0.0
H493 H 0.27653 0.09597 0.51149 0.0
H494 H 0.18505 0.10248 0.54769 0.0
H495 H 0.13416 0.06339 0.532 0.0
H496 H 0.22858 0.17528 0.5458 0.0
H497 H 0.25979 0.02911 0.54778 0.0
H498 H 0.27577 0.95692 0.53868 0.0
H499 H 0.39003 0.00091 0.51792 0.0
H500 H 0.37416 0.07371 0.52655 0.0
H501 H 0.37331 0.19892 0.60716 0.0
H502 H 0.31825 0.18347 0.58881 0.0
H503 H 0.41284 0.17091 0.55378 0.0
H504 H 0.46846 0.18386 0.57242 0.0
H505 H 0.36649 0.10478 0.55429 0.0
H506 H 0.33258 0.25491 0.55806 0.0
H507 H 0.31228 0.31998 0.57202 0.0
H508 H 0.19754 0.26179 0.58673 0.0
H509 H 0.21759 0.1957 0.57359 0.0
C510 C 0.21676 0.06669 0.50719 0.0
C511 C 0.17657 0.05647 0.51288 0.0
C512 C 0.24549 0.08914 0.51605 0.0
C513 C 0.23475 0.10151 0.53082 0.0
C514 C 0.19394 0.09314 0.53631 0.0
C515 C 0.16498 0.07078 0.52738 0.0
C516 C 0.26712 0.12078 0.54078 0.0
C517 C 0.25876 0.15996 0.54775 0.0
C518 C 0.30637 0.10058 0.54326 0.0
C519 C 0.31548 0.05703 0.53765 0.0
C520 C 0.28802 0.02355 0.54109 0.0
C521 C 0.2971 0.98249 0.53604 0.0
C522 C 0.33388 0.97435 0.52772 0.0
C523 C 0.36157 0.00729 0.52438 0.0
C524 C 0.35247 0.04849 0.5293 0.0
C525 C 0.38235 0.19375 0.59548 0.0
C526 C 0.4252 0.19211 0.59122 0.0
C527 C 0.3507 0.18527 0.58494 0.0
C528 C 0.36119 0.17643 0.56983 0.0
C529 C 0.40393 0.1776 0.56539 0.0
C530 C 0.4357 0.18494 0.57601 0.0
C531 C 0.32868 0.16009 0.55921 0.0
C532 C 0.33684 0.12092 0.55214 0.0
C533 C 0.28876 0.17977 0.55714 0.0
C534 C 0.27676 0.22009 0.56485 0.0
C535 C 0.30316 0.25578 0.56435 0.0
C536 C 0.2917 0.2929 0.5721 0.0
C537 C 0.25368 0.29512 0.58011 0.0
C538 C 0.22699 0.2601 0.58049 0.0
C539 C 0.23842 0.22274 0.57294 0.0
H540 H 0.24496 0.32396 0.58605 0.0
H541 H 0.34095 0.94248 0.52391 0.0
H542 H 0.34974 0.89679 0.75884 0.0
H543 H 0.30564 0.95204 0.76988 0.0
H544 H 0.22753 0.85807 0.79096 0.0
H545 H 0.27134 0.8017 0.77944 0.0
H546 H 0.1815 0.93085 0.77848 0.0
H547 H 0.29654 0.89971 0.81191 0.0
H548 H 0.37111 0.88699 0.81856 0.0
H549 H 0.40375 0.01143 0.80376 0.0
H550 H 0.32942 0.02465 0.79681 0.0
H551 H 0.10639 0.06179 0.83964 0.0
H552 H 0.13116 0.00836 0.8217 0.0
H553 H 0.22149 0.09671 0.80387 0.0
H554 H 0.1969 0.15068 0.82186 0.0
H555 H 0.25855 0.02574 0.81385 0.0
H556 H 0.13998 0.06017 0.78359 0.0
H557 H 0.06488 0.07269 0.77786 0.0
H558 H 0.03705 0.94257 0.78647 0.0
H559 H 0.11157 0.92955 0.79295 0.0
C560 C 0.32259 0.88756 0.76549 0.0
C561 C 0.31385 0.84467 0.76814 0.0
C562 C 0.29754 0.91932 0.77188 0.0
C563 C 0.26342 0.90916 0.78125 0.0
C564 C 0.25367 0.86648 0.78368 0.0
C565 C 0.27891 0.8344 0.77723 0.0
C566 C 0.2408 0.94357 0.78946 0.0
C567 C 0.19794 0.95134 0.7864 0.0
C568 C 0.26278 0.97077 0.79946 0.0
C569 C 0.30749 0.963 0.8037 0.0
C570 C 0.31968 0.92422 0.80995 0.0
C571 C 0.36189 0.91695 0.8138 0.0
C572 C 0.39217 0.94834 0.81155 0.0
C573 C 0.38027 0.98712 0.80548 0.0
C574 C 0.3381 0.99453 0.80159 0.0
C575 C 0.13076 0.07041 0.83165 0.0
C576 C 0.14997 0.11053 0.83233 0.0
C577 C 0.14479 0.03971 0.82134 0.0
C578 C 0.17833 0.04845 0.8115 0.0
C579 C 0.19562 0.08931 0.81142 0.0
C580 C 0.18141 0.12019 0.82168 0.0
C581 C 0.19901 0.0136 0.80287 0.0
C582 C 0.24176 0.00555 0.8059 0.0
C583 C 0.17662 0.98625 0.79295 0.0
C584 C 0.13155 0.99399 0.78898 0.0
C585 C 0.11781 0.0343 0.78452 0.0
C586 C 0.07525 0.04152 0.78114 0.0
C587 C 0.04614 0.0085 0.78188 0.0
C588 C 0.05957 0.96819 0.78596 0.0
C589 C 0.10198 0.9609 0.78955 0.0
H590 H 0.01325 0.0141 0.77921 0.0
H591 H 0.42483 0.94266 0.81454 0.0
H592 H 0.43773 0.94684 0.00936 0.0
H593 H 0.40066 0.90609 0.02822 0.0
H594 H 0.51919 0.87295 0.04887 0.0
H595 H 0.55729 0.91339 0.02966 0.0
H596 H 0.42304 0.81025 0.04378 0.0
H597 H 0.50252 0.92406 0.07108 0.0
H598 H 0.53337 0.99565 0.07103 0.0
H599 H 0.41275 0.04798 0.05911 0.0
H600 H 0.38142 0.97655 0.0589 0.0
H601 H 0.28902 0.78193 0.10929 0.0
H602 H 0.35326 0.79172 0.09431 0.0
H603 H 0.29814 0.90219 0.07413 0.0
H604 H 0.2341 0.893 0.08907 0.0
H605 H 0.37892 0.91563 0.08275 0.0
H606 H 0.298 0.80588 0.05709 0.0
H607 H 0.2644 0.73599 0.05426 0.0
H608 H 0.38451 0.67538 0.06069 0.0
H609 H 0.41858 0.74482 0.06405 0.0
C610 C 0.4563 0.92957 0.01747 0.0
C611 C 0.50056 0.9336 0.01803 0.0
C612 C 0.43494 0.90632 0.02828 0.0
C613 C 0.45729 0.88676 0.03987 0.0
C614 C 0.50158 0.88787 0.03992 0.0
C615 C 0.52317 0.91125 0.02905 0.0
C616 C 0.43322 0.87248 0.05308 0.0
C617 C 0.41435 0.83249 0.05269 0.0
C618 C 0.42138 0.90212 0.06435 0.0
C619 C 0.43979 0.94509 0.06489 0.0
C620 C 0.48269 0.95086 0.06839 0.0
C621 C 0.50024 0.99137 0.06841 0.0
C622 C 0.47505 0.02634 0.06504 0.0
C623 C 0.43222 0.02087 0.06171 0.0
C624 C 0.41456 0.98041 0.06165 0.0
C625 C 0.29066 0.80852 0.10175 0.0
C626 C 0.25634 0.8367 0.10036 0.0
C627 C 0.32734 0.81389 0.09316 0.0
C628 C 0.33025 0.84746 0.08307 0.0
C629 C 0.29646 0.87607 0.08189 0.0
C630 C 0.25983 0.87072 0.09042 0.0
C631 C 0.3681 0.85321 0.07351 0.0
C632 C 0.389 0.89218 0.07443 0.0
C633 C 0.38168 0.82236 0.06279 0.0
C634 C 0.36075 0.78061 0.0611 0.0
C635 C 0.31714 0.77766 0.05816 0.0
C636 C 0.298 0.73808 0.05643 0.0
C637 C 0.32223 0.70123 0.05738 0.0
C638 C 0.36567 0.70389 0.06006 0.0
C639 C 0.3849 0.74335 0.06192 0.0
H640 H 0.3074 0.67065 0.05598 0.0
H641 H 0.4887 0.05767 0.06505 0.0
H642 H 0.31937 0.19002 0.2982 0.0
H643 H 0.36808 0.1503 0.31379 0.0
H644 H 0.46512 0.16196 0.27967 0.0
H645 H 0.41504 0.19981 0.26364 0.0
H646 H 0.46017 0.08641 0.28559 0.0
H647 H 0.47582 0.20387 0.31747 0.0
H648 H 0.45656 0.26697 0.33259 0.0
H649 H 0.38295 0.19026 0.36236 0.0
H650 H 0.40117 0.12675 0.3473 0.0
H651 H 0.54093 0.9704 0.35844 0.0
H652 H 0.53119 0.03602 0.34464 0.0
H653 H 0.43988 0.9743 0.31583 0.0
H654 H 0.45013 0.90844 0.32927 0.0
H655 H 0.46704 0.08564 0.34148 0.0
H656 H 0.44038 0.00604 0.2825 0.0
H657 H 0.47185 0.94884 0.2669 0.0
H658 H 0.58929 0.96243 0.2906 0.0
H659 H 0.55827 0.01873 0.3066 0.0
C660 C 0.35156 0.18532 0.29428 0.0
C661 C 0.36364 0.19782 0.27978 0.0
C662 C 0.37959 0.16278 0.30324 0.0
C663 C 0.42059 0.15325 0.29801 0.0
C664 C 0.43367 0.16874 0.28395 0.0
C665 C 0.40524 0.1905 0.27483 0.0
C666 C 0.44661 0.12165 0.30609 0.0
C667 C 0.46223 0.08679 0.29781 0.0
C668 C 0.45094 0.12241 0.32199 0.0
C669 C 0.43984 0.16047 0.3312 0.0
C670 C 0.45532 0.20045 0.32718 0.0
C671 C 0.4446 0.23631 0.33576 0.0
C672 C 0.41854 0.23263 0.34842 0.0
C673 C 0.40318 0.19306 0.35256 0.0
C674 C 0.41378 0.15708 0.34402 0.0
C675 C 0.51874 0.97077 0.34916 0.0
C676 C 0.49616 0.93415 0.34499 0.0
C677 C 0.51335 0.00831 0.34126 0.0
C678 C 0.48535 0.00993 0.32905 0.0
C679 C 0.4625 0.97355 0.32497 0.0
C680 C 0.46805 0.93597 0.33278 0.0
C681 C 0.47798 0.04997 0.32097 0.0
C682 C 0.46593 0.08616 0.32925 0.0
C683 C 0.4787 0.05136 0.30505 0.0
C684 C 0.49693 0.01645 0.29577 0.0
C685 C 0.47287 0.99664 0.28442 0.0
C686 C 0.49057 0.96418 0.27557 0.0
C687 C 0.53246 0.9517 0.27785 0.0
C688 C 0.55669 0.97158 0.289 0.0
C689 C 0.53898 0.00358 0.29803 0.0
H690 H 0.54622 0.92678 0.27093 0.0
H691 H 0.41026 0.26044 0.35504 0.0
H692 H 0.92283 0.96121 0.5402 0.0
H693 H 0.86687 0.98551 0.55738 0.0
H694 H 0.88139 0.11241 0.54105 0.0
H695 H 0.9371 0.08821 0.52378 0.0
H696 H 0.85507 0.10943 0.57157 0.0
H697 H 0.82078 0.04795 0.52285 0.0
H698 H 0.82353 0.99071 0.50379 0.0
H699 H 0.7586 0.90797 0.53402 0.0
H700 H 0.75726 0.9642 0.55358 0.0
H701 H 0.66092 0.206 0.56817 0.0
H702 H 0.71494 0.16141 0.5563 0.0
H703 H 0.69174 0.0648 0.58909 0.0
H704 H 0.6379 0.1099 0.60118 0.0
H705 H 0.72149 0.04448 0.55325 0.0
H706 H 0.75614 0.10773 0.60229 0.0
H707 H 0.75569 0.16611 0.621 0.0
H708 H 0.81957 0.24604 0.58954 0.0
H709 H 0.81914 0.18857 0.57046 0.0
C710 C 0.91541 0.99464 0.5408 0.0
C711 C 0.93388 0.02275 0.53053 0.0
C712 C 0.88327 0.00841 0.55054 0.0
C713 C 0.86929 0.05049 0.55017 0.0
C714 C 0.89157 0.07972 0.54142 0.0
C715 C 0.92367 0.06592 0.53163 0.0
C716 C 0.82775 0.06253 0.55677 0.0
C717 C 0.82595 0.09502 0.56764 0.0
C718 C 0.78965 0.04353 0.55168 0.0
C719 C 0.78942 0.01013 0.53976 0.0
C720 C 0.80743 0.01745 0.5255 0.0
C721 C 0.8087 0.98519 0.5146 0.0
C722 C 0.79108 0.94578 0.51766 0.0
C723 C 0.77228 0.93851 0.53167 0.0
C724 C 0.77142 0.97051 0.5427 0.0
C725 C 0.66524 0.1741 0.57221 0.0
C726 C 0.64509 0.1612 0.5855 0.0
C727 C 0.69658 0.1489 0.56556 0.0
C728 C 0.70773 0.11029 0.57202 0.0
C729 C 0.68348 0.0946 0.58398 0.0
C730 C 0.65228 0.12011 0.59075 0.0
C731 C 0.74903 0.09111 0.56806 0.0
C732 C 0.75073 0.05787 0.5575 0.0
C733 C 0.78706 0.10932 0.57344 0.0
C734 C 0.78694 0.14407 0.58485 0.0
C735 C 0.76938 0.13799 0.59926 0.0
C736 C 0.76931 0.17091 0.60994 0.0
C737 C 0.78714 0.20991 0.6064 0.0
C738 C 0.8053 0.21599 0.59221 0.0
C739 C 0.80519 0.18327 0.58145 0.0
H740 H 0.78713 0.23534 0.61469 0.0
H741 H 0.79193 0.9209 0.50918 0.0
H742 H 0.75654 0.12237 0.27993 0.0
H743 H 0.74449 0.06614 0.29838 0.0
H744 H 0.73574 0.9744 0.26208 0.0
H745 H 0.74811 0.03033 0.24373 0.0
H746 H 0.67399 0.9647 0.28461 0.0
H747 H 0.82441 0.98056 0.27974 0.0
H748 H 0.89126 0.02047 0.27962 0.0
H749 H 0.87154 0.05684 0.32595 0.0
H750 H 0.80416 0.0177 0.32627 0.0
H751 H 0.67127 0.79355 0.33237 0.0
H752 H 0.70623 0.83424 0.3126 0.0
H753 H 0.72413 0.93783 0.34404 0.0
H754 H 0.68968 0.89737 0.36377 0.0
H755 H 0.78626 0.93575 0.32218 0.0
H756 H 0.63328 0.93211 0.32611 0.0
H757 H 0.56396 0.89683 0.327 0.0
H758 H 0.58652 0.84162 0.28321 0.0
H759 H 0.65649 0.87603 0.28218 0.0
C760 C 0.75123 0.09029 0.27598 0.0
C761 C 0.7531 0.08033 0.26054 0.0
C762 C 0.74473 0.05827 0.28645 0.0
C763 C 0.73981 0.01617 0.28154 0.0
C764 C 0.73963 0.00668 0.26606 0.0
C765 C 0.74659 0.0385 0.25563 0.0
C766 C 0.73606 0.98171 0.29252 0.0
C767 C 0.69884 0.95782 0.29264 0.0
C768 C 0.76832 0.97331 0.3031 0.0
C769 C 0.80904 0.9965 0.30299 0.0
C770 C 0.83415 0.99734 0.28987 0.0
C771 C 0.87217 0.01978 0.28977 0.0
C772 C 0.8856 0.04125 0.30276 0.0
C773 C 0.86108 0.04022 0.31589 0.0
C774 C 0.82298 0.01789 0.31604 0.0
C775 C 0.68447 0.82418 0.33522 0.0
C776 C 0.67706 0.84283 0.34944 0.0
C777 C 0.7042 0.84746 0.32391 0.0
C778 C 0.71668 0.88938 0.32681 0.0
C779 C 0.71443 0.90566 0.34156 0.0
C780 C 0.69459 0.88258 0.3528 0.0
C781 C 0.72415 0.91886 0.3143 0.0
C782 C 0.76185 0.94204 0.31393 0.0
C783 C 0.69216 0.927 0.30356 0.0
C784 C 0.65029 0.90613 0.30416 0.0
C785 C 0.62363 0.9121 0.31674 0.0
C786 C 0.5842 0.89234 0.31726 0.0
C787 C 0.57086 0.86691 0.30519 0.0
C788 C 0.59697 0.86119 0.29258 0.0
C789 C 0.63653 0.88078 0.29202 0.0
H790 H 0.54023 0.85177 0.3056 0.0
H791 H 0.91504 0.0586 0.30266 0.0
H792 H 0.70601 0.99194 0.04239 0.0
H793 H 0.75767 0.95415 0.05739 0.0
H794 H 0.81288 0.90089 0.0168 0.0
H795 H 0.75852 0.93482 0.00182 0.0
H796 H 0.82599 0.849 0.03726 0.0
H797 H 0.84932 0.99573 0.03316 0.0
H798 H 0.83247 0.07181 0.03441 0.0
H799 H 0.81402 0.06414 0.08231 0.0
H800 H 0.83022 0.9878 0.08131 0.0
H801 H 0.03256 0.89681 0.08318 0.0
H802 H 0.97539 0.91867 0.06658 0.0
H803 H 0.8984 0.81584 0.08235 0.0
H804 H 0.95558 0.79376 0.09896 0.0
H805 H 0.90018 0.94619 0.07261 0.0
H806 H 0.8343 0.78101 0.05078 0.0
H807 H 0.86274 0.71071 0.04366 0.0
H808 H 0.98726 0.76271 0.03982 0.0
H809 H 0.95946 0.83358 0.04589 0.0
C810 C 0.72798 0.97093 0.03664 0.0
C811 C 0.72874 0.96753 0.0208 0.0
C812 C 0.75802 0.94978 0.04525 0.0
C813 C 0.79028 0.92611 0.03818 0.0
C814 C 0.7888 0.91955 0.02252 0.0
C815 C 0.75799 0.93959 0.01394 0.0
C816 C 0.8276 0.91182 0.04687 0.0
C817 C 0.84206 0.87003 0.04509 0.0
C818 C 0.85006 0.94004 0.05643 0.0
C819 C 0.84057 0.98599 0.05714 0.0
C820 C 0.84142 0.01022 0.04394 0.0
C821 C 0.83201 0.05338 0.04461 0.0
C822 C 0.82207 0.07277 0.05842 0.0
C823 C 0.82166 0.04905 0.07161 0.0
C824 C 0.83098 0.00584 0.07101 0.0
C825 C 0.00352 0.87874 0.08312 0.0
C826 C 0.99869 0.84327 0.09236 0.0
C827 C 0.97086 0.89133 0.07363 0.0
C828 C 0.93279 0.86869 0.07317 0.0
C829 C 0.9278 0.83333 0.08237 0.0
C830 C 0.96049 0.82072 0.09185 0.0
C831 C 0.89778 0.8829 0.06341 0.0
C832 C 0.88392 0.92485 0.06492 0.0
C833 C 0.87773 0.85546 0.05291 0.0
C834 C 0.8948 0.81263 0.04923 0.0
C835 C 0.86773 0.77748 0.04841 0.0
C836 C 0.88372 0.73755 0.0445 0.0
C837 C 0.92681 0.73213 0.0416 0.0
C838 C 0.95394 0.76682 0.04226 0.0
C839 C 0.93803 0.80695 0.04587 0.0
H840 H 0.93909 0.70112 0.03869 0.0
H841 H 0.81479 0.1062 0.05892 0.0
H842 H 0.92309 0.88638 0.75767 0.0
H843 H 0.96712 0.92789 0.77506 0.0
H844 H 0.86489 0.93153 0.80732 0.0
H845 H 0.82114 0.88951 0.79018 0.0
H846 H 0.9069 0.01139 0.78634 0.0
H847 H 0.92003 0.89672 0.82264 0.0
H848 H 0.94479 0.82699 0.83084 0.0
H849 H 0.0736 0.86514 0.82415 0.0
H850 H 0.04951 0.93495 0.81568 0.0
H851 H 0.93294 0.14806 0.84816 0.0
H852 H 0.91769 0.08399 0.83351 0.0
H853 H 0.04713 0.07848 0.81826 0.0
H854 H 0.06247 0.14355 0.83264 0.0
H855 H 0.00492 0.99602 0.82954 0.0
H856 H 0.9954 0.10742 0.79355 0.0
H857 H 0.97412 0.17786 0.78467 0.0
H858 H 0.84336 0.14565 0.79068 0.0
H859 H 0.86394 0.0752 0.79982 0.0
C860 C 0.91081 0.89449 0.76876 0.0
C861 C 0.86883 0.88484 0.77263 0.0
C862 C 0.93607 0.91782 0.77871 0.0
C863 C 0.91957 0.93177 0.7926 0.0
C864 C 0.87862 0.91977 0.79686 0.0
C865 C 0.85361 0.89594 0.78703 0.0
C866 C 0.93961 0.96747 0.80059 0.0
C867 C 0.92827 0.00797 0.79581 0.0
C868 C 0.96847 0.96269 0.81261 0.0
C869 C 0.98278 0.92059 0.81781 0.0
C870 C 0.95354 0.88995 0.82246 0.0
C871 C 0.9675 0.85046 0.82733 0.0
C872 C 0.01073 0.8414 0.82782 0.0
C873 C 0.04009 0.87199 0.8236 0.0
C874 C 0.02626 0.9115 0.81873 0.0
C875 C 0.95824 0.13323 0.84173 0.0
C876 C 0.99915 0.15042 0.8417 0.0
C877 C 0.94955 0.09653 0.83347 0.0
C878 C 0.98156 0.07642 0.82506 0.0
C879 C 0.02246 0.0932 0.82502 0.0
C880 C 0.03114 0.13015 0.83324 0.0
C881 C 0.97091 0.03953 0.81555 0.0
C882 C 0.98401 0.99913 0.81994 0.0
C883 C 0.94382 0.04407 0.80307 0.0
C884 C 0.93122 0.08624 0.7975 0.0
C885 C 0.96213 0.11552 0.79311 0.0
C886 C 0.9502 0.1554 0.788 0.0
C887 C 0.90742 0.16626 0.78714 0.0
C888 C 0.87648 0.1372 0.79136 0.0
C889 C 0.88826 0.09728 0.79649 0.0
H890 H 0.89823 0.19716 0.78319 0.0
H891 H 0.02148 0.81084 0.83162 0.0
H892 H 0.91557 0.98994 0.4644 0.0
H893 H 0.85309 0.96634 0.45074 0.0
H894 H 0.82464 0.87855 0.48618 0.0
H895 H 0.88861 0.9003 0.49954 0.0
H896 H 0.80555 0.84439 0.46066 0.0
H897 H 0.76953 0.97682 0.48388 0.0
H898 H 0.77948 0.05194 0.49093 0.0
H899 H 0.77948 0.08539 0.44415 0.0
H900 H 0.76997 0.01046 0.43686 0.0
H901 H 0.61345 0.80202 0.42706 0.0
H902 H 0.65092 0.83932 0.44744 0.0
H903 H 0.71615 0.91458 0.4145 0.0
H904 H 0.67903 0.8773 0.39426 0.0
H905 H 0.7073 0.95583 0.44296 0.0
H906 H 0.74877 0.81867 0.42074 0.0
H907 H 0.7363 0.74328 0.415 0.0
H908 H 0.72304 0.7182 0.46227 0.0
H909 H 0.7346 0.79366 0.46827 0.0
C910 C 0.89688 0.96462 0.46908 0.0
C911 C 0.90701 0.94718 0.48313 0.0
C912 C 0.86057 0.95182 0.46141 0.0
C913 C 0.83327 0.92189 0.46773 0.0
C914 C 0.84481 0.90228 0.48122 0.0
C915 C 0.8814 0.91472 0.48883 0.0
C916 C 0.79269 0.9113 0.46027 0.0
C917 C 0.78367 0.86876 0.4571 0.0
C918 C 0.76399 0.943 0.45559 0.0
C919 C 0.76956 0.98808 0.45985 0.0
C920 C 0.77208 0.00023 0.47513 0.0
C921 C 0.77753 0.04272 0.47916 0.0
C922 C 0.7803 0.07337 0.46799 0.0
C923 C 0.77742 0.0616 0.45278 0.0
C924 C 0.77191 0.01914 0.4487 0.0
C925 C 0.63398 0.82819 0.42431 0.0
C926 C 0.64385 0.83689 0.40924 0.0
C927 C 0.65546 0.84932 0.43591 0.0
C928 C 0.68688 0.87897 0.43239 0.0
C929 C 0.69211 0.89172 0.41742 0.0
C930 C 0.67097 0.87044 0.40587 0.0
C931 C 0.7207 0.88918 0.44327 0.0
C932 C 0.72869 0.93156 0.44693 0.0
C933 C 0.74816 0.8573 0.44861 0.0
C934 C 0.74174 0.81191 0.44494 0.0
C935 C 0.74262 0.79719 0.42989 0.0
C936 C 0.73582 0.75443 0.42659 0.0
C937 C 0.72856 0.72607 0.43827 0.0
C938 C 0.72845 0.74029 0.45325 0.0
C939 C 0.73509 0.78303 0.4566 0.0
H940 H 0.72305 0.69308 0.43574 0.0
H941 H 0.78455 0.10625 0.47113 0.0
H942 H 0.89461 0.11061 0.24139 0.0
H943 H 0.94957 0.07094 0.22784 0.0
H944 H 0.88308 0.08915 0.18605 0.0
H945 H 0.82723 0.12773 0.19957 0.0
H946 H 0.91335 0.99689 0.21327 0.0
H947 H 0.9671 0.07881 0.1582 0.0
H948 H 0.98663 0.15016 0.14978 0.0
H949 H 0.0231 0.18412 0.19494 0.0
H950 H 0.00444 0.11281 0.20359 0.0
H951 H 0.93716 0.86465 0.15077 0.0
H952 H 0.92376 0.92945 0.16515 0.0
H953 H 0.05312 0.93077 0.18029 0.0
H954 H 0.06677 0.86474 0.16596 0.0
H955 H 0.00901 0.01581 0.1694 0.0
H956 H 0.00053 0.89777 0.20333 0.0
H957 H 0.97742 0.82717 0.21116 0.0
H958 H 0.84761 0.86629 0.20836 0.0
H959 H 0.86995 0.93708 0.20028 0.0
C960 C 0.89239 0.10731 0.22924 0.0
C961 C 0.85617 0.12132 0.22157 0.0
C962 C 0.92393 0.08493 0.22153 0.0
C963 C 0.9201 0.07699 0.20601 0.0
C964 C 0.88665 0.09533 0.19803 0.0
C965 C 0.85476 0.11739 0.20577 0.0
C966 C 0.94431 0.04197 0.199 0.0
C967 C 0.93475 0.00106 0.20381 0.0
C968 C 0.97214 0.0477 0.1867 0.0
C969 C 0.98398 0.09051 0.18156 0.0
C970 C 0.97948 0.10142 0.16632 0.0
C971 C 0.99037 0.14188 0.16151 0.0
C972 C 0.00597 0.17169 0.17183 0.0
C973 C 0.01085 0.16105 0.18698 0.0
C974 C 3e-05 0.12063 0.19184 0.0
C975 C 0.96295 0.87875 0.15707 0.0
C976 C 0.00317 0.85979 0.15723 0.0
C977 C 0.95529 0.91593 0.16516 0.0
C978 C 0.98761 0.93484 0.17359 0.0
C979 C 0.02816 0.91683 0.17354 0.0
C980 C 0.03588 0.87931 0.16541 0.0
C981 C 0.97704 0.97104 0.18351 0.0
C982 C 0.98849 0.0119 0.17911 0.0
C983 C 0.95048 0.96545 0.19616 0.0
C984 C 0.937 0.92284 0.20113 0.0
C985 C 0.96707 0.89135 0.20428 0.0
C986 C 0.95409 0.85125 0.20879 0.0
C987 C 0.91107 0.84222 0.21025 0.0
C988 C 0.88094 0.87332 0.20723 0.0
C989 C 0.89376 0.91348 0.20271 0.0
H990 H 0.90108 0.81114 0.21373 0.0
H991 H 0.01435 0.203 0.16808 0.0
H992 H 0.73418 0.00032 0.96609 0.0
H993 H 0.7842 0.02887 0.94774 0.0
H994 H 0.7624 0.15419 0.9658 0.0
H995 H 0.71191 0.12606 0.98391 0.0
H996 H 0.77888 0.13871 0.92982 0.0
H997 H 0.83414 0.12352 0.98116 0.0
H998 H 0.84008 0.08244 0.00453 0.0
H999 H 0.89588 0.97922 0.97956 0.0
H1000 H 0.88948 0.01949 0.95598 0.0
H1001 H 0.97683 0.22918 0.90898 0.0
H1002 H 0.9145 0.21089 0.92394 0.0
H1003 H 0.94648 0.07876 0.91947 0.0
H1004 H 0.00846 0.09669 0.90439 0.0
H1005 H 0.9221 0.10124 0.94837 0.0
H1006 H 0.8747 0.11846 0.89756 0.0
H1007 H 0.86647 0.15654 0.87367 0.0
H1008 H 0.7942 0.25316 0.89649 0.0
H1009 H 0.80276 0.21612 0.92054 0.0
C1010 C 0.73894 0.03419 0.9657 0.0
C1011 C 0.71951 0.06109 0.97639 0.0
C1012 C 0.76728 0.05042 0.95521 0.0
C1013 C 0.77663 0.09368 0.95533 0.0
C1014 C 0.75471 0.12101 0.96519 0.0
C1015 C 0.72608 0.10483 0.97563 0.0
C1016 C 0.81455 0.10846 0.94729 0.0
C1017 C 0.81025 0.13119 0.93392 0.0
C1018 C 0.85523 0.09777 0.9526 0.0
C1019 C 0.86102 0.07433 0.96682 0.0
C1020 C 0.84749 0.09198 0.98066 0.0
C1021 C 0.85092 0.06886 0.99393 0.0
C1022 C 0.86824 0.02819 0.99353 0.0
C1023 C 0.88241 0.0107 0.97985 0.0
C1024 C 0.87893 0.03367 0.96654 0.0
C1025 C 0.97044 0.19628 0.91109 0.0
C1026 C 0.99719 0.16444 0.90525 0.0
C1027 C 0.93495 0.1859 0.91968 0.0
C1028 C 0.92567 0.14348 0.92259 0.0
C1029 C 0.95312 0.1117 0.91729 0.0
C1030 C 0.98851 0.12205 0.90866 0.0
C1031 C 0.88679 0.13195 0.93084 0.0
C1032 C 0.89087 0.10938 0.94426 0.0
C1033 C 0.84602 0.1429 0.92552 0.0
C1034 C 0.83996 0.16481 0.91096 0.0
C1035 C 0.85741 0.14805 0.89753 0.0
C1036 C 0.85264 0.16943 0.88393 0.0
C1037 C 0.82997 0.20734 0.88357 0.0
C1038 C 0.81183 0.22382 0.89678 0.0
C1039 C 0.8167 0.20267 0.91042 0.0
H1040 H 0.82634 0.22388 0.87304 0.0
H1041 H 0.87075 0.01028 0.00381 0.0
H1042 H 0.79366 0.96975 0.74113 0.0
H1043 H 0.77624 0.02197 0.72212 0.0
H1044 H 0.77155 0.92362 0.68803 0.0
H1045 H 0.78885 0.87059 0.70723 0.0
H1046 H 0.81652 0.00286 0.67966 0.0
H1047 H 0.68538 0.95227 0.69833 0.0
H1048 H 0.63093 0.93193 0.71677 0.0
H1049 H 0.62767 0.05887 0.73445 0.0
H1050 H 0.68252 0.07991 0.71619 0.0
H1051 H 0.68363 0.1052 0.6267 0.0
H1052 H 0.72595 0.06196 0.64344 0.0
H1053 H 0.71294 0.15655 0.67868 0.0
H1054 H 0.66986 0.20005 0.66184 0.0
H1055 H 0.68071 0.07986 0.68633 0.0
H1056 H 0.80958 0.13008 0.66448 0.0
H1057 H 0.85626 0.14769 0.64316 0.0
H1058 H 0.85819 0.01746 0.62896 0.0
H1059 H 0.81083 0.99914 0.65003 0.0
C1060 C 0.78946 0.95925 0.72955 0.0
C1061 C 0.79284 0.91623 0.72559 0.0
C1062 C 0.77942 0.98908 0.71874 0.0
C1063 C 0.77276 0.97656 0.70373 0.0
C1064 C 0.77689 0.93375 0.69959 0.0
C1065 C 0.78643 0.9036 0.71052 0.0
C1066 C 0.75918 0.00841 0.69272 0.0
C1067 C 0.78667 0.01949 0.68097 0.0
C1068 C 0.72052 0.03032 0.69466 0.0
C1069 C 0.68859 0.01752 0.70603 0.0
C1070 C 0.67361 0.97571 0.70632 0.0
C1071 C 0.64248 0.9641 0.71668 0.0
C1072 C 0.62598 0.99404 0.72682 0.0
C1073 C 0.64055 0.03568 0.7266 0.0
C1074 C 0.67163 0.04748 0.71623 0.0
C1075 C 0.69104 0.11744 0.63786 0.0
C1076 C 0.67316 0.15557 0.64312 0.0
C1077 C 0.71543 0.09279 0.64738 0.0
C1078 C 0.72238 0.10595 0.66232 0.0
C1079 C 0.70783 0.14593 0.66717 0.0
C1080 C 0.68356 0.17086 0.65755 0.0
C1081 C 0.73823 0.07504 0.67334 0.0
C1082 C 0.71092 0.06381 0.6851 0.0
C1083 C 0.7766 0.0526 0.67117 0.0
C1084 C 0.80642 0.06326 0.65882 0.0
C1085 C 0.81979 0.10519 0.65678 0.0
C1086 C 0.84637 0.11532 0.64473 0.0
C1087 C 0.86013 0.08373 0.6347 0.0
C1088 C 0.8475 0.0419 0.63674 0.0
C1089 C 0.82083 0.03162 0.64875 0.0
H1090 H 0.88062 0.09164 0.62535 0.0
H1091 H 0.60181 0.98502 0.73482 0.0
H1092 H 0.72451 0.4952 0.98878 0.0
H1093 H 0.77571 0.46298 0.97202 0.0
H1094 H 0.67573 0.4045 0.94639 0.0
H1095 H 0.62271 0.43959 0.96271 0.0
H1096 H 0.75198 0.351 0.95956 0.0
H1097 H 0.71647 0.46763 0.9277 0.0
H1098 H 0.70235 0.54254 0.92224 0.0
H1099 H 0.8278 0.5753 0.93655 0.0
H1100 H 0.84245 0.50064 0.94232 0.0
H1101 H 0.89219 0.27012 0.90368 0.0
H1102 H 0.83528 0.29846 0.91921 0.0
H1103 H 0.91617 0.40011 0.93424 0.0
H1104 H 0.97314 0.37285 0.91805 0.0
H1105 H 0.84468 0.43135 0.92501 0.0
H1106 H 0.88043 0.31865 0.95841 0.0
H1107 H 0.8963 0.24489 0.96519 0.0
H1108 H 0.77375 0.20675 0.94935 0.0
H1109 H 0.75729 0.27979 0.94262 0.0
C1110 C 0.71265 0.477 0.9793 0.0
C1111 C 0.66887 0.47128 0.97695 0.0
C1112 C 0.74237 0.45804 0.96982 0.0
C1113 C 0.72948 0.43181 0.95794 0.0
C1114 C 0.68613 0.42502 0.95552 0.0
C1115 C 0.65595 0.44494 0.96488 0.0
C1116 C 0.76233 0.41047 0.9487 0.0
C1117 C 0.77173 0.36815 0.95171 0.0
C1118 C 0.78906 0.43362 0.93906 0.0
C1119 C 0.78041 0.47856 0.93557 0.0
C1120 C 0.74091 0.49085 0.92983 0.0
C1121 C 0.73284 0.53326 0.92664 0.0
C1122 C 0.76412 0.56367 0.92908 0.0
C1123 C 0.80358 0.55171 0.93467 0.0
C1124 C 0.8118 0.50934 0.93789 0.0
C1125 C 0.89837 0.29801 0.91052 0.0
C1126 C 0.9372 0.31947 0.90945 0.0
C1127 C 0.86566 0.31412 0.91948 0.0
C1128 C 0.87126 0.35152 0.92791 0.0
C1129 C 0.91099 0.37136 0.92774 0.0
C1130 C 0.94373 0.35546 0.91861 0.0
C1131 C 0.83466 0.37153 0.93583 0.0
C1132 C 0.8248 0.41383 0.93271 0.0
C1133 C 0.80787 0.34855 0.94556 0.0
C1134 C 0.81765 0.30464 0.94998 0.0
C1135 C 0.85692 0.29441 0.9564 0.0
C1136 C 0.866 0.25269 0.96029 0.0
C1137 C 0.83597 0.22105 0.95787 0.0
C1138 C 0.79685 0.2311 0.95154 0.0
C1139 C 0.78759 0.27268 0.94767 0.0
H1140 H 0.84307 0.18883 0.9609 0.0
H1141 H 0.75782 0.59649 0.9266 0.0
H1142 H 0.79326 0.31415 0.2012 0.0
H1143 H 0.83479 0.36486 0.18691 0.0
H1144 H 0.88696 0.41503 0.22825 0.0
H1145 H 0.84758 0.36283 0.24266 0.0
H1146 H 0.83136 0.47029 0.20759 0.0
H1147 H 0.95451 0.38018 0.20955 0.0
H1148 H 0.99269 0.31278 0.20589 0.0
H1149 H 0.9665 0.31545 0.15841 0.0
H1150 H 0.92756 0.3826 0.16182 0.0
H1151 H 0.94309 0.64103 0.17634 0.0
H1152 H 0.92022 0.58072 0.19122 0.0
H1153 H 0.92035 0.5022 0.15097 0.0
H1154 H 0.94581 0.56195 0.13628 0.0
H1155 H 0.95228 0.45939 0.17196 0.0
H1156 H 0.82732 0.54416 0.16871 0.0
H1157 H 0.78236 0.60768 0.17107 0.0
H1158 H 0.80295 0.61118 0.21893 0.0
H1159 H 0.84861 0.54806 0.21683 0.0
C1160 C 0.81489 0.33465 0.20725 0.0
C1161 C 0.81659 0.33484 0.22311 0.0
C1162 C 0.83842 0.36374 0.19905 0.0
C1163 C 0.86357 0.39356 0.2066 0.0
C1164 C 0.8676 0.3921 0.22229 0.0
C1165 C 0.84479 0.36252 0.23048 0.0
C1166 C 0.88011 0.43002 0.19836 0.0
C1167 C 0.85828 0.46836 0.19997 0.0
C1168 C 0.91401 0.42641 0.18807 0.0
C1169 C 0.93771 0.38621 0.18597 0.0
C1170 C 0.9565 0.3662 0.19835 0.0
C1171 C 0.97838 0.32808 0.19632 0.0
C1172 C 0.98191 0.30977 0.18194 0.0
C1173 C 0.96369 0.32964 0.16955 0.0
C1174 C 0.94176 0.36776 0.17153 0.0
C1175 C 0.93784 0.61094 0.17069 0.0
C1176 C 0.94592 0.60601 0.1552 0.0
C1177 C 0.92469 0.57651 0.17917 0.0
C1178 C 0.9179 0.53697 0.17219 0.0
C1179 C 0.92548 0.53229 0.15664 0.0
C1180 C 0.93976 0.56643 0.14824 0.0
C1181 C 0.90353 0.50034 0.18112 0.0
C1182 C 0.92552 0.46177 0.17962 0.0
C1183 C 0.86897 0.5034 0.1913 0.0
C1184 C 0.84187 0.54168 0.19257 0.0
C1185 C 0.82262 0.55872 0.17971 0.0
C1186 C 0.79695 0.59462 0.18101 0.0
C1187 C 0.78993 0.61355 0.19513 0.0
C1188 C 0.80851 0.59656 0.20799 0.0
C1189 C 0.8343 0.56073 0.20675 0.0
H1190 H 0.77 0.64131 0.19611 0.0
H1191 H 0.99883 0.28025 0.18039 0.0
H1192 H 0.9469 0.57321 0.50301 0.0
H1193 H 0.89891 0.58197 0.48188 0.0
H1194 H 0.00526 0.59676 0.45186 0.0
H1195 H 0.054 0.5859 0.47307 0.0
H1196 H 0.93919 0.65964 0.44971 0.0
H1197 H 0.95543 0.50972 0.44891 0.0
H1198 H 0.95767 0.43845 0.45976 0.0
H1199 H 0.82748 0.45005 0.4731 0.0
H1200 H 0.82466 0.52179 0.4626 0.0
H1201 H 0.79416 0.67452 0.38964 0.0
H1202 H 0.85409 0.65454 0.40517 0.0
H1203 H 0.76902 0.59711 0.43708 0.0
H1204 H 0.70906 0.61442 0.4209 0.0
H1205 H 0.83308 0.55112 0.43548 0.0
H1206 H 0.82567 0.70532 0.44558 0.0
H1207 H 0.82519 0.78114 0.43932 0.0
H1208 H 0.93377 0.76318 0.41081 0.0
H1209 H 0.9363 0.6877 0.41754 0.0
C1210 C 0.96019 0.57734 0.49188 0.0
C1211 C 0.00424 0.57783 0.48967 0.0
C1212 C 0.9327 0.58261 0.47983 0.0
C1213 C 0.94859 0.58918 0.4653 0.0
C1214 C 0.99252 0.59124 0.46302 0.0
C1215 C 0.02023 0.58533 0.47513 0.0
C1216 C 0.91864 0.59562 0.45277 0.0
C1217 C 0.91653 0.63565 0.44631 0.0
C1218 C 0.88843 0.56461 0.44875 0.0
C1219 C 0.88992 0.52132 0.45502 0.0
C1220 C 0.92736 0.49726 0.45426 0.0
C1221 C 0.92872 0.45673 0.46034 0.0
C1222 C 0.89273 0.43973 0.4671 0.0
C1223 C 0.8553 0.46322 0.46781 0.0
C1224 C 0.85381 0.50384 0.46181 0.0
C1225 C 0.78822 0.65741 0.39993 0.0
C1226 C 0.74681 0.64641 0.40414 0.0
C1227 C 0.82257 0.64647 0.40893 0.0
C1228 C 0.81624 0.62556 0.42263 0.0
C1229 C 0.77492 0.61345 0.42662 0.0
C1230 C 0.74059 0.62329 0.41737 0.0
C1231 C 0.85254 0.61585 0.43269 0.0
C1232 C 0.85596 0.57506 0.43868 0.0
C1233 C 0.88355 0.64641 0.43655 0.0
C1234 C 0.88069 0.69093 0.43183 0.0
C1235 C 0.84912 0.71753 0.43785 0.0
C1236 C 0.8486 0.76042 0.43428 0.0
C1237 C 0.87882 0.7768 0.42445 0.0
C1238 C 0.91017 0.75042 0.41834 0.0
C1239 C 0.91144 0.70769 0.42214 0.0
H1240 H 0.8782 0.81 0.42168 0.0
H1241 H 0.89385 0.40834 0.47179 0.0
H1242 H 0.81948 0.64984 0.71555 0.0
H1243 H 0.79858 0.58884 0.69997 0.0
H1244 H 0.67446 0.59173 0.72028 0.0
H1245 H 0.69518 0.6532 0.73577 0.0
H1246 H 0.71997 0.51169 0.72211 0.0
H1247 H 0.67874 0.61617 0.68588 0.0
H1248 H 0.68917 0.67855 0.66993 0.0
H1249 H 0.79179 0.61592 0.64692 0.0
H1250 H 0.78237 0.55336 0.66289 0.0
H1251 H 0.61074 0.37365 0.6696 0.0
H1252 H 0.63418 0.43075 0.68654 0.0
H1253 H 0.76169 0.41591 0.66988 0.0
H1254 H 0.73846 0.35829 0.65314 0.0
H1255 H 0.71615 0.50079 0.66623 0.0
H1256 H 0.76349 0.39996 0.70215 0.0
H1257 H 0.75659 0.33579 0.71747 0.0
H1258 H 0.64847 0.38933 0.74008 0.0
H1259 H 0.65481 0.45381 0.72468 0.0
C1260 C 0.78734 0.63822 0.71628 0.0
C1261 C 0.75869 0.65625 0.72665 0.0
C1262 C 0.77554 0.60335 0.7075 0.0
C1263 C 0.73514 0.58577 0.70912 0.0
C1264 C 0.70583 0.6049 0.71898 0.0
C1265 C 0.71744 0.6402 0.72762 0.0
C1266 C 0.72473 0.54579 0.70125 0.0
C1267 C 0.71859 0.50941 0.7099 0.0
C1268 C 0.72447 0.54269 0.68533 0.0
C1269 C 0.73012 0.58024 0.67569 0.0
C1270 C 0.70379 0.61584 0.67752 0.0
C1271 C 0.70946 0.65121 0.66845 0.0
C1272 C 0.7412 0.65125 0.65744 0.0
C1273 C 0.76725 0.61587 0.65546 0.0
C1274 C 0.76174 0.58043 0.66451 0.0
C1275 C 0.6439 0.38172 0.66996 0.0
C1276 C 0.67278 0.3619 0.66012 0.0
C1277 C 0.65725 0.41422 0.67958 0.0
C1278 C 0.69948 0.42755 0.67926 0.0
C1279 C 0.72897 0.40587 0.6702 0.0
C1280 C 0.71576 0.37276 0.66081 0.0
C1281 C 0.71144 0.46699 0.68709 0.0
C1282 C 0.71775 0.5032 0.67844 0.0
C1283 C 0.71271 0.46982 0.70294 0.0
C1284 C 0.70935 0.43155 0.71232 0.0
C1285 C 0.73813 0.39796 0.71035 0.0
C1286 C 0.73441 0.36159 0.71904 0.0
C1287 C 0.70209 0.35852 0.72975 0.0
C1288 C 0.67351 0.39187 0.73181 0.0
C1289 C 0.6772 0.42832 0.72315 0.0
H1290 H 0.69919 0.33033 0.73645 0.0
H1291 H 0.74553 0.67866 0.65043 0.0
H1292 H 0.60912 0.60428 0.02904 0.0
H1293 H 0.65626 0.64213 0.04685 0.0
H1294 H 0.76084 0.56417 0.0319 0.0
H1295 H 0.71473 0.52636 0.01479 0.0
H1296 H 0.75641 0.56873 0.06211 0.0
H1297 H 0.74603 0.66519 0.0194 0.0
H1298 H 0.70837 0.71379 0.00252 0.0
H1299 H 0.67042 0.7902 0.04063 0.0
H1300 H 0.70739 0.74166 0.05775 0.0
H1301 H 0.95185 0.64859 0.08071 0.0
H1302 H 0.89106 0.62937 0.06511 0.0
H1303 H 0.81854 0.73123 0.0852 0.0
H1304 H 0.87928 0.75162 0.10035 0.0
H1305 H 0.79358 0.72011 0.05759 0.0
H1306 H 0.81276 0.63103 0.0995 0.0
H1307 H 0.85157 0.58464 0.11683 0.0
H1308 H 0.87266 0.49496 0.08081 0.0
H1309 H 0.83458 0.54114 0.06319 0.0
C1310 C 0.6422 0.59554 0.02963 0.0
C1311 C 0.65845 0.56308 0.02028 0.0
C1312 C 0.66904 0.61712 0.03972 0.0
C1313 C 0.7121 0.60601 0.04061 0.0
C1314 C 0.72782 0.57332 0.03141 0.0
C1315 C 0.70141 0.55206 0.02147 0.0
C1316 C 0.74192 0.62725 0.05107 0.0
C1317 C 0.76474 0.60181 0.06105 0.0
C1318 C 0.75156 0.67075 0.05016 0.0
C1319 C 0.72883 0.69942 0.03987 0.0
C1320 C 0.72921 0.69206 0.02419 0.0
C1321 C 0.7081 0.71966 0.01458 0.0
C1322 C 0.68685 0.75495 0.02051 0.0
C1323 C 0.68675 0.76277 0.03606 0.0
C1324 C 0.70775 0.73522 0.04572 0.0
C1325 C 0.92341 0.66764 0.0815 0.0
C1326 C 0.92015 0.7009 0.09208 0.0
C1327 C 0.88849 0.65634 0.07271 0.0
C1328 C 0.84968 0.67773 0.07452 0.0
C1329 C 0.84781 0.71369 0.08385 0.0
C1330 C 0.88273 0.72525 0.09253 0.0
C1331 C 0.81055 0.66071 0.06755 0.0
C1332 C 0.78539 0.68707 0.05862 0.0
C1333 C 0.7987 0.61799 0.06938 0.0
C1334 C 0.82101 0.5897 0.08 0.0
C1335 C 0.82584 0.60151 0.09526 0.0
C1336 C 0.84772 0.57525 0.10513 0.0
C1337 C 0.86461 0.53691 0.09992 0.0
C1338 C 0.85956 0.52468 0.08483 0.0
C1339 C 0.8378 0.55087 0.07489 0.0
H1340 H 0.88156 0.51664 0.10758 0.0
H1341 H 0.67058 0.77632 0.01304 0.0
H1342 H 0.66311 0.35832 0.24903 0.0
H1343 H 0.64362 0.41836 0.26541 0.0
H1344 H 0.73744 0.37982 0.29771 0.0
H1345 H 0.75714 0.32006 0.28123 0.0
H1346 H 0.66471 0.41578 0.31122 0.0
H1347 H 0.76666 0.44421 0.2725 0.0
H1348 H 0.79434 0.44582 0.24648 0.0
H1349 H 0.69257 0.52776 0.23362 0.0
H1350 H 0.66379 0.52596 0.25953 0.0
H1351 H 0.72792 0.60198 0.34703 0.0
H1352 H 0.73473 0.54338 0.32885 0.0
H1353 H 0.62602 0.58939 0.30475 0.0
H1354 H 0.61921 0.64824 0.32303 0.0
H1355 H 0.70027 0.55107 0.28638 0.0
H1356 H 0.60154 0.52361 0.32685 0.0
H1357 H 0.58029 0.52355 0.35369 0.0
H1358 H 0.68259 0.43911 0.36365 0.0
H1359 H 0.70521 0.43981 0.33698 0.0
C1360 C 0.678 0.36162 0.25997 0.0
C1361 C 0.71109 0.33452 0.26406 0.0
C1362 C 0.66726 0.39609 0.26922 0.0
C1363 C 0.68959 0.40378 0.28263 0.0
C1364 C 0.71986 0.37435 0.2874 0.0
C1365 C 0.73086 0.3401 0.27808 0.0
C1366 C 0.68541 0.44486 0.29066 0.0
C1367 C 0.67249 0.44531 0.30579 0.0
C1368 C 0.69555 0.4834 0.28353 0.0
C1369 C 0.71272 0.48449 0.26792 0.0
C1370 C 0.74989 0.46219 0.26409 0.0
C1371 C 0.76584 0.4632 0.24937 0.0
C1372 C 0.74516 0.48677 0.23839 0.0
C1373 C 0.7085 0.50942 0.24213 0.0
C1374 C 0.69234 0.50841 0.25683 0.0
C1375 C 0.70671 0.60057 0.33745 0.0
C1376 C 0.67335 0.62956 0.33625 0.0
C1377 C 0.71035 0.56698 0.32719 0.0
C1378 C 0.68064 0.56198 0.31559 0.0
C1379 C 0.6493 0.5929 0.31362 0.0
C1380 C 0.64547 0.62643 0.324 0.0
C1381 C 0.67943 0.52186 0.30687 0.0
C1382 C 0.69169 0.52158 0.29168 0.0
C1383 C 0.66925 0.48338 0.31398 0.0
C1384 C 0.65529 0.48219 0.32997 0.0
C1385 C 0.6197 0.50543 0.33481 0.0
C1386 C 0.60737 0.50521 0.34997 0.0
C1387 C 0.63003 0.48132 0.36035 0.0
C1388 C 0.66508 0.45762 0.3556 0.0
C1389 C 0.6777 0.45797 0.34046 0.0
H1390 H 0.62039 0.48115 0.37208 0.0
H1391 H 0.75762 0.48761 0.22701 0.0
H1392 H 0.02833 0.44951 0.52268 0.0
H1393 H 0.98097 0.408 0.53851 0.0
H1394 H 0.97462 0.51091 0.57086 0.0
H1395 H 0.02272 0.5522 0.55516 0.0
H1396 H 0.96359 0.43183 0.58432 0.0
H1397 H 0.90232 0.51462 0.54494 0.0
H1398 H 0.89673 0.54206 0.51916 0.0
H1399 H 0.88158 0.4158 0.50169 0.0
H1400 H 0.88631 0.38767 0.52752 0.0
H1401 H 0.742 0.4209 0.6046 0.0
H1402 H 0.80787 0.44716 0.59331 0.0
H1403 H 0.8284 0.32586 0.57172 0.0
H1404 H 0.76321 0.29924 0.58323 0.0
H1405 H 0.83417 0.41067 0.5535 0.0
H1406 H 0.88498 0.33277 0.5969 0.0
H1407 H 0.88461 0.3158 0.62396 0.0
H1408 H 0.91571 0.44448 0.63508 0.0
H1409 H 0.91553 0.46237 0.60806 0.0
C1410 C 0.0182 0.46244 0.53349 0.0
C1411 C 0.02853 0.50402 0.5377 0.0
C1412 C 0.99118 0.43884 0.54249 0.0
C1413 C 0.9737 0.45689 0.55564 0.0
C1414 C 0.98781 0.49656 0.56072 0.0
C1415 C 0.01524 0.52006 0.55177 0.0
C1416 C 0.93548 0.43816 0.56236 0.0
C1417 C 0.93532 0.42712 0.57762 0.0
C1418 C 0.89846 0.43266 0.55362 0.0
C1419 C 0.89511 0.44908 0.53809 0.0
C1420 C 0.89798 0.49273 0.53558 0.0
C1421 C 0.89495 0.50839 0.52097 0.0
C1422 C 0.88935 0.48069 0.50875 0.0
C1423 C 0.88614 0.43723 0.51116 0.0
C1424 C 0.88874 0.42141 0.5258 0.0
C1425 C 0.76045 0.40013 0.59732 0.0
C1426 C 0.74801 0.35814 0.59476 0.0
C1427 C 0.798 0.41496 0.59101 0.0
C1428 C 0.82283 0.38813 0.58188 0.0
C1429 C 0.80959 0.34672 0.57885 0.0
C1430 C 0.77261 0.33164 0.58541 0.0
C1431 C 0.86255 0.40351 0.57536 0.0
C1432 C 0.86274 0.41446 0.56013 0.0
C1433 C 0.89904 0.40985 0.58426 0.0
C1434 C 0.89979 0.399 0.60048 0.0
C1435 C 0.89133 0.35754 0.60512 0.0
C1436 C 0.89131 0.34773 0.62045 0.0
C1437 C 0.90002 0.37907 0.63124 0.0
C1438 C 0.90891 0.42025 0.62671 0.0
C1439 C 0.90891 0.43023 0.61139 0.0
H1440 H 0.89997 0.37142 0.64311 0.0
H1441 H 0.88731 0.49296 0.49744 0.0
H1442 H 0.88977 0.65081 0.75681 0.0
H1443 H 0.92345 0.60243 0.77442 0.0
H1444 H 0.83686 0.64311 0.80943 0.0
H1445 H 0.80225 0.69055 0.79177 0.0
H1446 H 0.96058 0.6 0.80221 0.0
H1447 H 0.79433 0.55455 0.82435 0.0
H1448 H 0.72004 0.5578 0.81594 0.0
H1449 H 0.76079 0.55499 0.76967 0.0
H1450 H 0.83516 0.55096 0.77781 0.0
H1451 H 0.98715 0.45338 0.86065 0.0
H1452 H 0.96405 0.51375 0.84595 0.0
H1453 H 0.90339 0.42942 0.81411 0.0
H1454 H 0.92536 0.36881 0.82903 0.0
H1455 H 0.85517 0.49443 0.81909 0.0
H1456 H 0.00041 0.47398 0.80666 0.0
H1457 H 0.07636 0.46411 0.81186 0.0
H1458 H 0.08159 0.58724 0.83268 0.0
H1459 H 0.00549 0.59763 0.8278 0.0
C1460 C 0.87862 0.65013 0.76837 0.0
C1461 C 0.84292 0.67376 0.77286 0.0
C1462 C 0.89807 0.62275 0.77843 0.0
C1463 C 0.88201 0.61867 0.7931 0.0
C1464 C 0.8493 0.64554 0.79807 0.0
C1465 C 0.82974 0.67282 0.788 0.0
C1466 C 0.8949 0.58225 0.80228 0.0
C1467 C 0.93761 0.57708 0.80605 0.0
C1468 C 0.86504 0.55151 0.8067 0.0
C1469 C 0.8203 0.55299 0.80171 0.0
C1470 C 0.78739 0.55445 0.81239 0.0
C1471 C 0.74528 0.55642 0.80767 0.0
C1472 C 0.73571 0.55675 0.79228 0.0
C1473 C 0.76823 0.55488 0.78158 0.0
C1474 C 0.81036 0.55277 0.78625 0.0
C1475 C 0.96869 0.44766 0.85056 0.0
C1476 C 0.95827 0.4063 0.84594 0.0
C1477 C 0.9557 0.4822 0.84214 0.0
C1478 C 0.93271 0.47602 0.82879 0.0
C1479 C 0.92123 0.43487 0.82436 0.0
C1480 C 0.93379 0.40028 0.83289 0.0
C1481 C 0.92085 0.51247 0.81939 0.0
C1482 C 0.87824 0.51754 0.81547 0.0
C1483 C 0.95114 0.5421 0.81434 0.0
C1484 C 0.99712 0.53638 0.81701 0.0
C1485 C 0.01769 0.49886 0.81243 0.0
C1486 C 0.06076 0.49318 0.8153 0.0
C1487 C 0.08368 0.52496 0.82264 0.0
C1488 C 0.06372 0.56263 0.82701 0.0
C1489 C 0.02063 0.56844 0.82419 0.0
H1490 H 0.11688 0.52034 0.82496 0.0
H1491 H 0.7031 0.55835 0.78865 0.0
H1492 H 0.43512 0.57514 0.03059 0.0
H1493 H 0.37782 0.60297 0.04686 0.0
H1494 H 0.3053 0.48989 0.03826 0.0
H1495 H 0.36176 0.46253 0.02207 0.0
H1496 H 0.25814 0.55783 0.03391 0.0
H1497 H 0.35497 0.50808 0.07125 0.0
H1498 H 0.42245 0.50335 0.08496 0.0
H1499 H 0.41283 0.63447 0.09761 0.0
H1500 H 0.34552 0.64012 0.08384 0.0
H1501 H 0.1547 0.6154 0.113 0.0
H1502 H 0.20036 0.5734 0.09623 0.0
H1503 H 0.18026 0.66338 0.06075 0.0
H1504 H 0.13357 0.70449 0.07744 0.0
H1505 H 0.27256 0.60408 0.08728 0.0
H1506 H 0.20611 0.61987 0.02671 0.0
H1507 H 0.13719 0.62 0.01375 0.0
H1508 H 0.08316 0.54653 0.04931 0.0
H1509 H 0.15187 0.54546 0.06237 0.0
C1510 C 0.40714 0.55618 0.03241 0.0
C1511 C 0.40253 0.51697 0.02502 0.0
C1512 C 0.37446 0.57203 0.04164 0.0
C1513 C 0.33716 0.54856 0.04368 0.0
C1514 C 0.3335 0.50874 0.03672 0.0
C1515 C 0.36582 0.49311 0.02752 0.0
C1516 C 0.30103 0.56551 0.0526 0.0
C1517 C 0.2613 0.56801 0.04559 0.0
C1518 C 0.30504 0.5782 0.06789 0.0
C1519 C 0.3456 0.57477 0.0762 0.0
C1520 C 0.36749 0.53607 0.07677 0.0
C1521 C 0.40566 0.53317 0.08462 0.0
C1522 C 0.42206 0.56865 0.09207 0.0
C1523 C 0.40021 0.60705 0.09177 0.0
C1524 C 0.36205 0.61012 0.08394 0.0
C1525 C 0.15817 0.62471 0.10134 0.0
C1526 C 0.14014 0.66252 0.09635 0.0
C1527 C 0.18475 0.60116 0.09184 0.0
C1528 C 0.19407 0.61541 0.07727 0.0
C1529 C 0.17314 0.65139 0.07186 0.0
C1530 C 0.14614 0.67469 0.08134 0.0
C1531 C 0.22962 0.5962 0.06861 0.0
C1532 C 0.26935 0.59373 0.07562 0.0
C1533 C 0.22548 0.58284 0.05342 0.0
C1534 C 0.18408 0.58295 0.04558 0.0
C1535 C 0.17957 0.60361 0.03173 0.0
C1536 C 0.14052 0.60386 0.02437 0.0
C1537 C 0.10578 0.5834 0.03072 0.0
C1538 C 0.11005 0.56252 0.04443 0.0
C1539 C 0.14902 0.56213 0.05183 0.0
H1540 H 0.07558 0.58366 0.02501 0.0
H1541 H 0.4516 0.56633 0.09815 0.0
H1542 H 0.30285 0.56041 0.75757 0.0
H1543 H 0.25965 0.50597 0.76936 0.0
H1544 H 0.29732 0.55146 0.81337 0.0
H1545 H 0.34146 0.60553 0.80162 0.0
H1546 H 0.2941 0.44287 0.78769 0.0
H1547 H 0.21537 0.53149 0.83714 0.0
H1548 H 0.18609 0.60191 0.84352 0.0
H1549 H 0.15718 0.6221 0.79686 0.0
H1550 H 0.18601 0.55171 0.79024 0.0
H1551 H 0.20896 0.31337 0.84857 0.0
H1552 H 0.24901 0.36132 0.83218 0.0
H1553 H 0.13362 0.39496 0.80939 0.0
H1554 H 0.09401 0.3472 0.82556 0.0
H1555 H 0.17533 0.46302 0.82376 0.0
H1556 H 0.20409 0.34602 0.78985 0.0
H1557 H 0.23058 0.27491 0.78306 0.0
H1558 H 0.35546 0.31027 0.79722 0.0
H1559 H 0.32956 0.38145 0.8043 0.0
C1560 C 0.30139 0.55923 0.76977 0.0
C1561 C 0.32586 0.58689 0.77868 0.0
C1562 C 0.27685 0.52807 0.77646 0.0
C1563 C 0.27578 0.52446 0.79219 0.0
C1564 C 0.29776 0.55385 0.80119 0.0
C1565 C 0.32266 0.58491 0.79448 0.0
C1566 C 0.25388 0.48828 0.7991 0.0
C1567 C 0.26808 0.44719 0.79557 0.0
C1568 C 0.22011 0.49407 0.80936 0.0
C1569 C 0.20319 0.53658 0.81319 0.0
C1570 C 0.20281 0.55102 0.82825 0.0
C1571 C 0.1863 0.5909 0.83191 0.0
C1572 C 0.16994 0.61653 0.82059 0.0
C1573 C 0.17003 0.6023 0.8056 0.0
C1574 C 0.18654 0.56247 0.80189 0.0
C1575 C 0.19277 0.32943 0.83953 0.0
C1576 C 0.14874 0.32642 0.83809 0.0
C1577 C 0.21545 0.35705 0.83031 0.0
C1578 C 0.19405 0.38186 0.81971 0.0
C1579 C 0.15059 0.37615 0.81753 0.0
C1580 C 0.12812 0.34859 0.82664 0.0
C1581 C 0.21536 0.41754 0.8123 0.0
C1582 C 0.20133 0.45862 0.81587 0.0
C1583 C 0.24915 0.41165 0.80204 0.0
C1584 C 0.26478 0.36892 0.79776 0.0
C1585 C 0.23712 0.33851 0.79165 0.0
C1586 C 0.25204 0.29822 0.78772 0.0
C1587 C 0.29465 0.28804 0.78974 0.0
C1588 C 0.32245 0.31818 0.79567 0.0
C1589 C 0.30767 0.35851 0.79964 0.0
H1590 H 0.30615 0.25683 0.78669 0.0
H1591 H 0.15706 0.64733 0.82345 0.0
H1592 H 0.30771 0.51557 0.51507 0.0
H1593 H 0.34658 0.46458 0.52978 0.0
H1594 H 0.23213 0.42929 0.55281 0.0
H1595 H 0.19153 0.47823 0.53717 0.0
H1596 H 0.31564 0.46537 0.56978 0.0
H1597 H 0.25746 0.35319 0.54046 0.0
H1598 H 0.23447 0.31524 0.51745 0.0
H1599 H 0.36188 0.31564 0.50055 0.0
H1600 H 0.38553 0.35409 0.52339 0.0
H1601 H 0.45652 0.2797 0.59611 0.0
H1602 H 0.39533 0.30387 0.58167 0.0
H1603 H 0.45786 0.42268 0.57396 0.0
H1604 H 0.51856 0.39906 0.58843 0.0
H1605 H 0.38587 0.33322 0.55201 0.0
H1606 H 0.38646 0.50086 0.57793 0.0
H1607 H 0.41463 0.5359 0.60076 0.0
H1608 H 0.40026 0.42093 0.62545 0.0
H1609 H 0.37041 0.38574 0.60297 0.0
C1610 C 0.29008 0.49604 0.52278 0.0
C1611 C 0.24609 0.50101 0.52473 0.0
C1612 C 0.31262 0.46702 0.53128 0.0
C1613 C 0.29207 0.44296 0.54218 0.0
C1614 C 0.24833 0.4474 0.54428 0.0
C1615 C 0.22536 0.4758 0.53546 0.0
C1616 C 0.31804 0.41733 0.5524 0.0
C1617 C 0.33031 0.43594 0.56611 0.0
C1618 C 0.33716 0.37919 0.54747 0.0
C1619 C 0.32313 0.35701 0.53354 0.0
C1620 C 0.28046 0.34571 0.53174 0.0
C1621 C 0.26734 0.32393 0.51876 0.0
C1622 C 0.29666 0.31316 0.50752 0.0
C1623 C 0.33918 0.32407 0.50925 0.0
C1624 C 0.35247 0.34582 0.52222 0.0
C1625 C 0.45726 0.31083 0.5913 0.0
C1626 C 0.49225 0.3375 0.5936 0.0
C1627 C 0.42238 0.32454 0.583 0.0
C1628 C 0.42197 0.36523 0.57693 0.0
C1629 C 0.45737 0.39137 0.57876 0.0
C1630 C 0.49201 0.3778 0.58709 0.0
C1631 C 0.38392 0.38164 0.5693 0.0
C1632 C 0.37027 0.36192 0.55593 0.0
C1633 C 0.36296 0.41848 0.57468 0.0
C1634 C 0.37648 0.44058 0.58872 0.0
C1635 C 0.38852 0.4833 0.58831 0.0
C1636 C 0.40482 0.50319 0.6012 0.0
C1637 C 0.40929 0.48067 0.61455 0.0
C1638 C 0.39663 0.43845 0.61514 0.0
C1639 C 0.37987 0.41854 0.60234 0.0
H1640 H 0.42283 0.49591 0.62438 0.0
H1641 H 0.28646 0.29626 0.49749 0.0
H1642 H 0.30551 0.41914 0.30099 0.0
H1643 H 0.35603 0.46329 0.31486 0.0
H1644 H 0.4552 0.42408 0.28412 0.0
H1645 H 0.40422 0.38105 0.26997 0.0
H1646 H 0.43188 0.46452 0.32886 0.0
H1647 H 0.50305 0.51049 0.27172 0.0
H1648 H 0.48496 0.508 0.24463 0.0
H1649 H 0.35279 0.51484 0.25572 0.0
H1650 H 0.37015 0.51744 0.28284 0.0
H1651 H 0.56545 0.63513 0.34709 0.0
H1652 H 0.54473 0.56904 0.3349 0.0
H1653 H 0.44769 0.6348 0.3104 0.0
H1654 H 0.46965 0.70148 0.32202 0.0
H1655 H 0.47988 0.57482 0.29338 0.0
H1656 H 0.43089 0.58847 0.34476 0.0
H1657 H 0.43987 0.59764 0.37222 0.0
H1658 H 0.51003 0.48147 0.37388 0.0
H1659 H 0.50279 0.47236 0.34632 0.0
C1660 C 0.3385 0.41868 0.29764 0.0
C1661 C 0.3513 0.39718 0.28448 0.0
C1662 C 0.36732 0.44381 0.30554 0.0
C1663 C 0.4091 0.44754 0.30031 0.0
C1664 C 0.42294 0.42199 0.28819 0.0
C1665 C 0.394 0.39735 0.28018 0.0
C1666 C 0.43515 0.48341 0.30564 0.0
C1667 C 0.44303 0.48835 0.32112 0.0
C1668 C 0.44863 0.515 0.29554 0.0
C1669 C 0.43791 0.51366 0.27927 0.0
C1670 C 0.47016 0.51147 0.26835 0.0
C1671 C 0.46002 0.50998 0.25301 0.0
C1672 C 0.41774 0.51103 0.24847 0.0
C1673 C 0.38551 0.51376 0.25925 0.0
C1674 C 0.39547 0.51516 0.27461 0.0
C1675 C 0.54088 0.63585 0.33868 0.0
C1676 C 0.5194 0.67358 0.33547 0.0
C1677 C 0.52876 0.5979 0.33184 0.0
C1678 C 0.49433 0.59689 0.32195 0.0
C1679 C 0.47437 0.63486 0.31804 0.0
C1680 C 0.4868 0.67292 0.32475 0.0
C1681 C 0.47648 0.55625 0.31664 0.0
C1682 C 0.46998 0.55046 0.30113 0.0
C1683 C 0.4629 0.52477 0.32681 0.0
C1684 C 0.46676 0.53 0.34343 0.0
C1685 C 0.44862 0.56509 0.35095 0.0
C1686 C 0.45347 0.57033 0.36653 0.0
C1687 C 0.47549 0.54015 0.37479 0.0
C1688 C 0.49293 0.5048 0.36747 0.0
C1689 C 0.4886 0.49966 0.35186 0.0
H1690 H 0.47891 0.54406 0.38687 0.0
H1691 H 0.40996 0.50988 0.23659 0.0
H1692 H 0.43181 0.49825 0.96147 0.0
H1693 H 0.37874 0.4735 0.94323 0.0
H1694 H 0.3518 0.36694 0.97165 0.0
H1695 H 0.40628 0.39049 0.98927 0.0
H1696 H 0.34101 0.34279 0.94488 0.0
H1697 H 0.29474 0.4634 0.97323 0.0
H1698 H 0.29789 0.53631 0.98331 0.0
H1699 H 0.29122 0.58474 0.93834 0.0
H1700 H 0.28873 0.51203 0.92797 0.0
H1701 H 0.13603 0.29858 0.91988 0.0
H1702 H 0.18489 0.33311 0.93759 0.0
H1703 H 0.23475 0.40825 0.90144 0.0
H1704 H 0.18669 0.37311 0.88371 0.0
H1705 H 0.23196 0.44948 0.93204 0.0
H1706 H 0.27652 0.31947 0.90537 0.0
H1707 H 0.26772 0.24428 0.8985 0.0
H1708 H 0.27061 0.21119 0.94532 0.0
H1709 H 0.27826 0.28637 0.95248 0.0
C1710 C 0.41578 0.46857 0.96337 0.0
C1711 C 0.42332 0.44578 0.97654 0.0
C1712 C 0.38495 0.45483 0.95314 0.0
C1713 C 0.36031 0.419 0.95627 0.0
C1714 C 0.37016 0.39471 0.96895 0.0
C1715 C 0.40149 0.40796 0.97897 0.0
C1716 C 0.32246 0.40819 0.94708 0.0
C1717 C 0.3171 0.36617 0.94222 0.0
C1718 C 0.29087 0.43849 0.94363 0.0
C1719 C 0.29201 0.48227 0.94982 0.0
C1720 C 0.29422 0.4896 0.96548 0.0
C1721 C 0.29588 0.53088 0.97125 0.0
C1722 C 0.29486 0.56513 0.96147 0.0
C1723 C 0.29208 0.55817 0.9459 0.0
C1724 C 0.29055 0.51693 0.94007 0.0
C1725 C 0.15584 0.32407 0.91593 0.0
C1726 C 0.15754 0.33362 0.90053 0.0
C1727 C 0.18398 0.34346 0.926 0.0
C1728 C 0.21371 0.37277 0.92074 0.0
C1729 C 0.21199 0.38577 0.90569 0.0
C1730 C 0.1844 0.36591 0.8956 0.0
C1731 C 0.25082 0.38432 0.93002 0.0
C1732 C 0.25603 0.42636 0.93479 0.0
C1733 C 0.28159 0.35378 0.93387 0.0
C1734 C 0.27742 0.3086 0.92946 0.0
C1735 C 0.27483 0.29622 0.9142 0.0
C1736 C 0.27011 0.25357 0.91026 0.0
C1737 C 0.26854 0.22298 0.92148 0.0
C1738 C 0.27174 0.23494 0.93665 0.0
C1739 C 0.2762 0.27755 0.94065 0.0
H1740 H 0.26491 0.18999 0.91846 0.0
H1741 H 0.29612 0.59708 0.96596 0.0
H1742 H 0.45465 0.53638 0.7586 0.0
H1743 H 0.48637 0.49098 0.7394 0.0
H1744 H 0.48335 0.59348 0.70776 0.0
H1745 H 0.4491 0.63885 0.72699 0.0
H1746 H 0.44707 0.52434 0.69647 0.0
H1747 H 0.58542 0.54835 0.71856 0.0
H1748 H 0.63017 0.55831 0.7411 0.0
H1749 H 0.59517 0.43532 0.7567 0.0
H1750 H 0.55086 0.42434 0.7341 0.0
H1751 H 0.53822 0.37988 0.642 0.0
H1752 H 0.53172 0.44139 0.65913 0.0
H1753 H 0.50814 0.35812 0.69635 0.0
H1754 H 0.51307 0.29677 0.67915 0.0
H1755 H 0.56726 0.42519 0.70295 0.0
H1756 H 0.43072 0.39979 0.68208 0.0
H1757 H 0.373 0.39196 0.66369 0.0
H1758 H 0.39264 0.51916 0.64901 0.0
H1759 H 0.45198 0.52708 0.66678 0.0
C1760 C 0.46148 0.54955 0.74764 0.0
C1761 C 0.44896 0.59094 0.74421 0.0
C1762 C 0.48021 0.52368 0.7367 0.0
C1763 C 0.48794 0.53887 0.72215 0.0
C1764 C 0.47792 0.58116 0.71894 0.0
C1765 C 0.45866 0.60712 0.72993 0.0
C1766 C 0.50106 0.50873 0.71 0.0
C1767 C 0.47429 0.50365 0.69755 0.0
C1768 C 0.53551 0.48065 0.71179 0.0
C1769 C 0.56502 0.48549 0.72464 0.0
C1770 C 0.58764 0.5233 0.72673 0.0
C1771 C 0.61289 0.52912 0.73951 0.0
C1772 C 0.6155 0.49748 0.75032 0.0
C1773 C 0.59316 0.45978 0.7483 0.0
C1774 C 0.56835 0.45353 0.73543 0.0
C1775 C 0.53183 0.37488 0.65386 0.0
C1776 C 0.52615 0.33383 0.65934 0.0
C1777 C 0.5281 0.4099 0.6636 0.0
C1778 C 0.51958 0.40424 0.679 0.0
C1779 C 0.515 0.36311 0.68452 0.0
C1780 C 0.51758 0.32819 0.67472 0.0
C1781 C 0.51336 0.44115 0.68926 0.0
C1782 C 0.54118 0.44706 0.70144 0.0
C1783 C 0.4795 0.46991 0.68728 0.0
C1784 C 0.44657 0.4637 0.67555 0.0
C1785 C 0.4237 0.42566 0.67461 0.0
C1786 C 0.39051 0.42127 0.66434 0.0
C1787 C 0.37929 0.45496 0.65514 0.0
C1788 C 0.40159 0.49294 0.65606 0.0
C1789 C 0.43521 0.4973 0.66615 0.0
H1790 H 0.35319 0.45172 0.64735 0.0
H1791 H 0.63487 0.50214 0.76024 0.0
H1792 H 0.29874 0.60305 0.49091 0.0
H1793 H 0.33519 0.62699 0.46829 0.0
H1794 H 0.22102 0.60974 0.4424 0.0
H1795 H 0.18387 0.58622 0.46535 0.0
H1796 H 0.29507 0.57213 0.42926 0.0
H1797 H 0.24776 0.70374 0.44647 0.0
H1798 H 0.23068 0.76507 0.46279 0.0
H1799 H 0.3625 0.7832 0.47213 0.0
H1800 H 0.38044 0.72127 0.45623 0.0
H1801 H 0.45286 0.72609 0.38799 0.0
H1802 H 0.38534 0.71079 0.39994 0.0
H1803 H 0.43611 0.59352 0.4165 0.0
H1804 H 0.50405 0.60887 0.4046 0.0
H1805 H 0.37635 0.70595 0.42918 0.0
H1806 H 0.36017 0.52419 0.42167 0.0
H1807 H 0.37242 0.47025 0.40176 0.0
H1808 H 0.35358 0.56366 0.36771 0.0
H1809 H 0.34145 0.61817 0.38741 0.0
C1810 C 0.28141 0.60455 0.4804 0.0
C1811 C 0.23878 0.59264 0.47973 0.0
C1812 C 0.30208 0.61845 0.46755 0.0
C1813 C 0.28061 0.62037 0.45377 0.0
C1814 C 0.23789 0.60859 0.45301 0.0
C1815 C 0.21683 0.59527 0.46602 0.0
C1816 C 0.3045 0.63258 0.44022 0.0
C1817 C 0.31216 0.60179 0.429 0.0
C1818 C 0.32601 0.67162 0.43979 0.0
C1819 C 0.31541 0.70727 0.45028 0.0
C1820 C 0.27309 0.72014 0.45226 0.0
C1821 C 0.26326 0.75517 0.4614 0.0
C1822 C 0.29547 0.77783 0.46856 0.0
C1823 C 0.33757 0.76547 0.46663 0.0
C1824 C 0.34759 0.73035 0.45757 0.0
C1825 C 0.44966 0.69699 0.39411 0.0
C1826 C 0.48408 0.66921 0.39565 0.0
C1827 C 0.41088 0.68805 0.40078 0.0
C1828 C 0.4057 0.65096 0.40903 0.0
C1829 C 0.43931 0.62205 0.40998 0.0
C1830 C 0.47823 0.63105 0.4033 0.0
C1831 C 0.36754 0.64537 0.4184 0.0
C1832 C 0.35803 0.67701 0.42908 0.0
C1833 C 0.34318 0.60804 0.41789 0.0
C1834 C 0.35002 0.57525 0.40602 0.0
C1835 C 0.35846 0.53317 0.40993 0.0
C1836 C 0.36555 0.50253 0.39869 0.0
C1837 C 0.36385 0.51354 0.38348 0.0
C1838 C 0.35498 0.55519 0.37949 0.0
C1839 C 0.34824 0.58601 0.39069 0.0
H1840 H 0.36944 0.48981 0.37479 0.0
H1841 H 0.28786 0.80511 0.47554 0.0
H1842 H 0.26789 0.48251 0.25621 0.0
H1843 H 0.2504 0.53711 0.23817 0.0
H1844 H 0.24235 0.44283 0.20271 0.0
H1845 H 0.26104 0.38751 0.22084 0.0
H1846 H 0.28697 0.51595 0.19423 0.0
H1847 H 0.15417 0.48076 0.21744 0.0
H1848 H 0.10552 0.46858 0.23873 0.0
H1849 H 0.12303 0.59652 0.25415 0.0
H1850 H 0.17227 0.60929 0.23306 0.0
H1851 H 0.15707 0.61305 0.14108 0.0
H1852 H 0.19744 0.57272 0.15912 0.0
H1853 H 0.18865 0.67612 0.19124 0.0
H1854 H 0.14716 0.71691 0.17298 0.0
H1855 H 0.15918 0.60454 0.20273 0.0
H1856 H 0.28561 0.64211 0.17726 0.0
H1857 H 0.33249 0.65383 0.15544 0.0
H1858 H 0.32644 0.52194 0.14371 0.0
H1859 H 0.27902 0.50946 0.16532 0.0
C1860 C 0.26273 0.4733 0.24455 0.0
C1861 C 0.26612 0.43072 0.2399 0.0
C1862 C 0.25251 0.50457 0.23428 0.0
C1863 C 0.24494 0.494 0.21914 0.0
C1864 C 0.2482 0.45155 0.21438 0.0
C1865 C 0.25844 0.42001 0.22472 0.0
C1866 C 0.23281 0.52751 0.20847 0.0
C1867 C 0.25883 0.5351 0.19595 0.0
C1868 C 0.19693 0.55342 0.21109 0.0
C1869 C 0.16725 0.54584 0.22376 0.0
C1870 C 0.14793 0.50619 0.22545 0.0
C1871 C 0.12019 0.4992 0.23746 0.0
C1872 C 0.11128 0.53172 0.24781 0.0
C1873 C 0.13001 0.57134 0.24614 0.0
C1874 C 0.15781 0.57848 0.23415 0.0
C1875 C 0.16473 0.62777 0.15182 0.0
C1876 C 0.14869 0.66791 0.15571 0.0
C1877 C 0.18815 0.60473 0.16212 0.0
C1878 C 0.19627 0.62137 0.17654 0.0
C1879 C 0.1828 0.66275 0.18013 0.0
C1880 C 0.15938 0.68611 0.1697 0.0
C1881 C 0.21303 0.59291 0.18828 0.0
C1882 C 0.18778 0.58602 0.20106 0.0
C1883 C 0.24956 0.56767 0.18584 0.0
C1884 C 0.27853 0.5749 0.1729 0.0
C1885 C 0.29405 0.61562 0.16998 0.0
C1886 C 0.32076 0.6224 0.15765 0.0
C1887 C 0.33239 0.58866 0.14818 0.0
C1888 C 0.31742 0.54804 0.15105 0.0
C1889 C 0.29068 0.54109 0.16336 0.0
H1890 H 0.35303 0.59398 0.13863 0.0
H1891 H 0.08979 0.52625 0.25711 0.0
loop_
_geom_bond_atom_site_label_1
_geom_bond_atom_site_label_2
_geom_bond_distance
_geom_bond_site_symmetry_2
_ccdc_geom_bond_type
H0 C8 0.930 . S
H1 C11 0.930 . S
H2 C13 0.919 1_565 S
H3 C14 0.970 . S
H4 C14 0.970 . S
H5 C16 0.930 1_565 S
H6 C18 0.930 . S
H7 C20 0.930 . S
C8 H0 0.930 . S
C8 C9 1.382 1_545 S
C8 C10 1.426 . S
C9 C8 1.382 1_565 S
C9 C13 1.383 1_565 S
C10 C8 1.426 . S
C10 C11 1.375 . S
C10 C14 1.532 1_655 S
C11 H1 0.930 . S
C11 C10 1.375 . S
C11 C12 1.416 . S
C12 C11 1.416 . S
C12 C13 1.388 . S
C13 H2 0.919 1_545 S
C13 C9 1.383 1_545 S
C13 C12 1.388 . S
C14 H3 0.970 . S
C14 H4 0.970 . S
C14 C10 1.532 1_455 S
C14 C15 1.499 . S
C15 C14 1.499 . S
C15 C16 1.370 . S
C15 C20 1.415 . S
C16 H5 0.930 1_545 S
C16 C15 1.370 . S
C16 C17 1.407 1_545 S
C17 C16 1.407 1_565 S
C17 C18 1.364 . S
C18 H6 0.930 . S
C18 C17 1.364 . S
C18 C19 1.394 1_565 S
C19 C18 1.394 1_545 S
C19 C20 1.387 . S
C20 H7 0.930 . S
C20 C15 1.415 . S
C20 C19 1.387 . S
H21 C29 0.930 . S
H22 C32 0.930 . S
H23 C34 0.930 . S
H24 C35 0.970 . S
H25 C35 0.970 . S
H26 C37 0.930 . S
H27 C39 0.930 . S
H28 C41 0.930 . S
C29 H21 0.930 . S
C29 C30 1.382 . S
C29 C31 1.426 . S
C30 C29 1.382 . S
C30 C34 1.389 . S
C31 C29 1.426 . S
C31 C32 1.375 . S
C31 C35 1.532 . S
C32 H22 0.930 . S
C32 C31 1.375 . S
C32 C33 1.416 . S
C33 C32 1.416 . S
C33 C34 1.371 . S
C34 H23 0.930 . S
C34 C30 1.389 . S
C34 C33 1.371 . S
C35 H24 0.970 . S
C35 H25 0.970 . S
C35 C31 1.532 . S
C35 C36 1.499 . S
C36 C35 1.499 . S
C36 C37 1.370 . S
C36 C41 1.415 . S
C37 H26 0.930 . S
C37 C36 1.370 . S
C37 C38 1.407 . S
C38 C37 1.407 . S
C38 C39 1.365 . S
C39 H27 0.930 . S
C39 C38 1.365 . S
C39 C40 1.393 . S
C40 C39 1.393 . S
C40 C41 1.387 . S
C41 H28 0.930 . S
C41 C36 1.415 . S
C41 C40 1.387 . S
H42 C50 0.930 1_565 S
H43 C53 0.930 . S
H44 C55 0.930 1_556 S
H45 C56 0.970 . S
H46 C56 0.970 . S
H47 C58 0.930 1_565 S
H48 C60 0.912 1_556 S
H49 C62 0.930 . S
C50 H42 0.930 1_545 S
C50 C51 1.382 1_545 S
C50 C52 1.426 . S
C51 C50 1.382 1_565 S
C51 C55 1.389 . S
C52 C50 1.426 . S
C52 C53 1.375 1_554 S
C52 C56 1.532 . S
C53 H43 0.930 . S
C53 C52 1.375 1_556 S
C53 C54 1.416 . S
C54 C53 1.416 . S
C54 C55 1.371 1_546 S
C55 H44 0.930 1_554 S
C55 C51 1.389 . S
C55 C54 1.371 1_564 S
C56 H45 0.970 . S
C56 H46 0.970 . S
C56 C52 1.532 . S
C56 C57 1.499 . S
C57 C56 1.499 . S
C57 C58 1.370 . S
C57 C62 1.415 1_554 S
C58 H47 0.930 1_545 S
C58 C57 1.370 . S
C58 C59 1.407 1_545 S
C59 C58 1.407 1_565 S
C59 C60 1.413 . S
C60 H48 0.912 1_554 S
C60 C59 1.413 . S
C60 C61 1.365 1_564 S
C61 C60 1.365 1_546 S
C61 C62 1.387 . S
C62 H49 0.930 . S
C62 C57 1.415 1_556 S
C62 C61 1.387 . S
H63 C71 0.930 . S
H64 C74 0.930 . S
H65 C76 0.930 . S
H66 C77 0.970 . S
H67 C77 0.970 . S
H68 C79 0.930 . S
H69 C81 0.930 . S
H70 C83 0.930 . S
C71 H63 0.930 . S
C71 C72 1.382 . S
C71 C73 1.426 . S
C72 C71 1.382 . S
C72 C76 1.389 . S
C73 C71 1.426 . S
C73 C74 1.375 . S
C73 C77 1.532 . S
C74 H64 0.930 . S
C74 C73 1.375 . S
C74 C75 1.416 . S
C75 C74 1.416 . S
C75 C76 1.371 . S
C76 H65 0.930 . S
C76 C72 1.389 . S
C76 C75 1.371 . S
C77 H66 0.970 . S
C77 H67 0.970 . S
C77 C73 1.532 . S
C77 C78 1.499 . S
C78 C77 1.499 . S
C78 C79 1.370 . S
C78 C83 1.415 . S
C79 H68 0.930 . S
C79 C78 1.370 . S
C79 C80 1.407 . S
C80 C79 1.407 . S
C80 C81 1.365 . S
C81 H69 0.930 . S
C81 C80 1.365 . S
C81 C82 1.393 . S
C82 C81 1.393 . S
C82 C83 1.387 . S
C83 H70 0.930 . S
C83 C78 1.415 . S
C83 C82 1.387 . S
H84 C92 0.930 . S
H85 C95 0.930 . S
H86 C97 0.930 . S
H87 C98 0.970 . S
H88 C98 0.970 . S
H89 C100 0.930 . S
H90 C102 0.930 . S
H91 C104 0.930 . S
C92 H84 0.930 . S
C92 C93 1.382 . S
C92 C94 1.426 . S
C93 C92 1.382 . S
C93 C97 1.389 . S
C94 C92 1.426 . S
C94 C95 1.375 . S
C94 C98 1.532 . S
C95 H85 0.930 . S
C95 C94 1.375 . S
C95 C96 1.416 . S
C96 C95 1.416 . S
C96 C97 1.371 . S
C97 H86 0.930 . S
C97 C93 1.389 . S
C97 C96 1.371 . S
C98 H87 0.970 . S
C98 H88 0.970 . S
C98 C94 1.532 . S
C98 C99 1.499 . S
C99 C98 1.499 . S
C99 C100 1.370 . S
C99 C104 1.415 . S
C100 H89 0.930 . S
C100 C99 1.370 . S
C100 C101 1.407 . S
C101 C100 1.407 . S
C101 C102 1.365 . S
C102 H90 0.930 . S
C102 C101 1.365 . S
C102 C103 1.393 . S
C103 C102 1.393 . S
C103 C104 1.387 . S
C104 H91 0.930 . S
C104 C99 1.415 . S
C104 C103 1.387 . S
H105 C113 0.930 . S
H106 C116 0.930 . S
H107 C118 0.930 . S
H108 C119 0.970 . S
H109 C119 0.970 . S
H110 C121 0.930 . S
H111 C123 0.930 . S
H112 C125 0.930 . S
C113 H105 0.930 . S
C113 C114 1.382 . S
C113 C115 1.426 . S
C114 C113 1.382 . S
C114 C118 1.389 . S
C115 C113 1.426 . S
C115 C116 1.375 . S
C115 C119 1.532 . S
C116 H106 0.930 . S
C116 C115 1.375 . S
C116 C117 1.416 . S
C117 C116 1.416 . S
C117 C118 1.371 . S
C118 H107 0.930 . S
C118 C114 1.389 . S
C118 C117 1.371 . S
C119 H108 0.970 . S
C119 H109 0.970 . S
C119 C115 1.532 . S
C119 C120 1.499 . S
C120 C119 1.499 . S
C120 C121 1.370 . S
C120 C125 1.415 . S
C121 H110 0.930 . S
C121 C120 1.370 . S
C121 C122 1.407 . S
C122 C121 1.407 . S
C122 C123 1.365 . S
C123 H111 0.930 . S
C123 C122 1.365 . S
C123 C124 1.393 . S
C124 C123 1.393 . S
C124 C125 1.387 . S
C125 H112 0.930 . S
C125 C120 1.415 . S
C125 C124 1.387 . S
H126 C134 0.930 . S
H127 C137 0.930 . S
H128 C139 0.930 1_556 S
H129 C140 0.970 . S
H130 C140 0.970 . S
H131 C142 0.930 . S
H132 C144 0.930 1_556 S
H133 C146 0.930 . S
C134 H126 0.930 . S
C134 C135 1.382 . S
C134 C136 1.426 . S
C135 C134 1.382 . S
C135 C139 1.389 . S
C136 C134 1.426 . S
C136 C137 1.375 1_554 S
C136 C140 1.532 . S
C137 H127 0.930 . S
C137 C136 1.375 1_556 S
C137 C138 1.416 . S
C138 C137 1.416 . S
C138 C139 1.371 1_556 S
C139 H128 0.930 1_554 S
C139 C135 1.389 . S
C139 C138 1.371 1_554 S
C140 H129 0.970 . S
C140 H130 0.970 . S
C140 C136 1.532 . S
C140 C141 1.499 . S
C141 C140 1.499 . S
C141 C142 1.370 . S
C141 C146 1.415 1_554 S
C142 H131 0.930 . S
C142 C141 1.370 . S
C142 C143 1.407 . S
C143 C142 1.407 . S
C143 C144 1.365 . S
C144 H132 0.930 1_554 S
C144 C143 1.365 . S
C144 C145 1.393 1_554 S
C145 C144 1.393 1_556 S
C145 C146 1.387 . S
C146 H133 0.930 . S
C146 C141 1.415 1_556 S
C146 C145 1.387 . S
H147 C155 0.930 . S
H148 C158 0.930 . S
H149 C160 0.930 . S
H150 C161 0.970 . S
H151 C161 0.970 . S
H152 C163 0.930 . S
H153 C165 0.930 . S
H154 C167 0.930 . S
C155 H147 0.930 . S
C155 C156 1.382 . S
C155 C157 1.426 . S
C156 C155 1.382 . S
C156 C160 1.389 . S
C157 C155 1.426 . S
C157 C158 1.375 . S
C157 C161 1.532 . S
C158 H148 0.930 . S
C158 C157 1.375 . S
C158 C159 1.416 . S
C159 C158 1.416 . S
C159 C160 1.371 . S
C160 H149 0.930 . S
C160 C156 1.389 . S
C160 C159 1.371 . S
C161 H150 0.970 . S
C161 H151 0.970 . S
C161 C157 1.532 . S
C161 C162 1.499 . S
C162 C161 1.499 . S
C162 C163 1.370 . S
C162 C167 1.415 . S
C163 H152 0.930 . S
C163 C162 1.370 . S
C163 C164 1.407 . S
C164 C163 1.407 . S
C164 C165 1.365 . S
C165 H153 0.930 . S
C165 C164 1.365 . S
C165 C166 1.393 . S
C166 C165 1.393 . S
C166 C167 1.387 . S
C167 H154 0.930 . S
C167 C162 1.415 . S
C167 C166 1.387 . S
C168 O195 1.312 . S
C168 O196 1.208 . S
C169 O190 1.331 1_655 S
C169 O193 1.244 . S
C170 O192 1.264 1_655 S
C170 O194 1.273 . S
Mg171 O173 1.936 . S
Mg171 O180 2.081 . S
Mg171 O182 2.023 . S
Mg171 O186 2.031 . S
Mg171 O195 2.291 . S
Mg172 O173 1.963 . S
Mg172 O183 1.942 . S
Mg172 O184 1.955 . S
Mg172 O191 1.986 . S
O173 Mg171 1.936 . S
O173 Mg172 1.963 . S
O173 Mg174 1.915 . S
Mg174 O173 1.915 . S
Mg174 O175 1.915 . S
Mg174 O179 2.013 . S
Mg174 O185 2.114 . S
Mg174 O189 2.013 . S
Mg174 O195 2.114 . S
O175 Mg174 1.915 . S
O175 Mg176 1.936 . S
O175 Mg177 1.963 1_455 S
Mg176 O175 1.936 . S
Mg176 O185 2.291 . S
Mg176 O190 2.081 . S
Mg176 O192 2.023 . S
Mg176 O196 2.031 . S
Mg177 O175 1.963 1_655 S
Mg177 O181 1.986 . S
Mg177 O193 1.942 . S
Mg177 O194 1.955 . S
C178 O189 1.191 . S
C178 O191 1.307 . S
O179 Mg174 2.013 . S
O179 C198 1.191 . S
O180 Mg171 2.081 . S
O180 C188 1.331 . S
O181 Mg177 1.986 . S
O181 C198 1.307 1_655 S
O182 Mg171 2.023 . S
O182 C197 1.264 . S
O183 Mg172 1.942 . S
O183 C188 1.244 . S
O184 Mg172 1.955 . S
O184 C197 1.273 . S
O185 Mg174 2.114 . S
O185 Mg176 2.291 . S
O185 C187 1.312 . S
O186 Mg171 2.031 . S
O186 C187 1.208 . S
C187 O185 1.312 . S
C187 O186 1.208 . S
C188 O180 1.331 . S
C188 O183 1.244 . S
O189 Mg174 2.013 . S
O189 C178 1.191 . S
O190 C169 1.331 1_455 S
O190 Mg176 2.081 . S
O191 Mg172 1.986 . S
O191 C178 1.307 . S
O192 C170 1.264 1_455 S
O192 Mg176 2.023 . S
O193 C169 1.244 . S
O193 Mg177 1.942 . S
O194 C170 1.273 . S
O194 Mg177 1.955 . S
O195 C168 1.312 . S
O195 Mg171 2.291 . S
O195 Mg174 2.114 . S
O196 C168 1.208 . S
O196 Mg176 2.031 . S
C197 O182 1.264 . S
C197 O184 1.273 . S
C198 O179 1.191 . S
C198 O181 1.307 1_455 S
C199 O226 1.312 . S
C199 O227 1.208 . S
C200 O221 1.331 . S
C200 O224 1.244 . S
C201 O223 1.264 . S
C201 O225 1.273 . S
Mg202 O204 1.936 . S
Mg202 O211 2.081 . S
Mg202 O213 2.023 . S
Mg202 O217 2.031 . S
Mg202 O226 2.291 . S
Mg203 O204 1.963 . S
Mg203 O214 1.942 . S
Mg203 O215 1.955 . S
Mg203 O222 1.986 . S
O204 Mg202 1.936 . S
O204 Mg203 1.963 . S
O204 Mg205 1.915 . S
Mg205 O204 1.915 . S
Mg205 O206 1.915 . S
Mg205 O210 2.013 . S
Mg205 O216 2.114 . S
Mg205 O220 2.013 . S
Mg205 O226 2.114 . S
O206 Mg205 1.915 . S
O206 Mg207 1.936 . S
O206 Mg208 1.963 . S
Mg207 O206 1.936 . S
Mg207 O216 2.291 . S
Mg207 O221 2.081 . S
Mg207 O223 2.023 . S
Mg207 O227 2.031 . S
Mg208 O206 1.963 . S
Mg208 O212 1.986 . S
Mg208 O224 1.942 . S
Mg208 O225 1.955 . S
C209 O220 1.191 . S
C209 O222 1.307 . S
O210 Mg205 2.013 . S
O210 C229 1.191 . S
O211 Mg202 2.081 . S
O211 C219 1.331 . S
O212 Mg208 1.986 . S
O212 C229 1.307 . S
O213 Mg202 2.023 . S
O213 C228 1.264 . S
O214 Mg203 1.942 . S
O214 C219 1.244 . S
O215 Mg203 1.955 . S
O215 C228 1.273 . S
O216 Mg205 2.114 . S
O216 Mg207 2.291 . S
O216 C218 1.312 . S
O217 Mg202 2.031 . S
O217 C218 1.208 . S
C218 O216 1.312 . S
C218 O217 1.208 . S
C219 O211 1.331 . S
C219 O214 1.244 . S
O220 Mg205 2.013 . S
O220 C209 1.191 . S
O221 C200 1.331 . S
O221 Mg207 2.081 . S
O222 Mg203 1.986 . S
O222 C209 1.307 . S
O223 C201 1.264 . S
O223 Mg207 2.023 . S
O224 C200 1.244 . S
O224 Mg208 1.942 . S
O225 C201 1.273 . S
O225 Mg208 1.955 . S
O226 C199 1.312 . S
O226 Mg202 2.291 . S
O226 Mg205 2.114 . S
O227 C199 1.208 . S
O227 Mg207 2.031 . S
C228 O213 1.264 . S
C228 O215 1.273 . S
C229 O210 1.191 . S
C229 O212 1.307 . S
C230 O257 1.312 . S
C230 O258 1.208 . S
C231 O252 1.331 . S
C231 O255 1.244 . S
C232 O254 1.264 . S
C232 O256 1.273 . S
Mg233 O235 1.936 . S
Mg233 O242 2.081 . S
Mg233 O244 2.023 . S
Mg233 O248 2.031 . S
Mg233 O257 2.291 . S
Mg234 O235 1.963 . S
Mg234 O245 1.942 . S
Mg234 O246 1.955 . S
Mg234 O253 1.986 . S
O235 Mg233 1.936 . S
O235 Mg234 1.963 . S
O235 Mg236 1.915 . S
Mg236 O235 1.915 . S
Mg236 O237 1.915 . S
Mg236 O241 2.013 . S
Mg236 O247 2.114 . S
Mg236 O251 2.013 . S
Mg236 O257 2.114 . S
O237 Mg236 1.915 . S
O237 Mg238 1.936 . S
O237 Mg239 1.963 . S
Mg238 O237 1.936 . S
Mg238 O247 2.291 . S
Mg238 O252 2.081 . S
Mg238 O254 2.023 . S
Mg238 O258 2.031 . S
Mg239 O237 1.963 . S
Mg239 O243 1.986 . S
Mg239 O255 1.942 . S
Mg239 O256 1.955 . S
C240 O251 1.191 . S
C240 O253 1.307 . S
O241 Mg236 2.013 . S
O241 C260 1.191 . S
O242 Mg233 2.081 . S
O242 C250 1.331 . S
O243 Mg239 1.986 . S
O243 C260 1.307 . S
O244 Mg233 2.023 . S
O244 C259 1.264 . S
O245 Mg234 1.942 . S
O245 C250 1.244 . S
O246 Mg234 1.955 . S
O246 C259 1.273 . S
O247 Mg236 2.114 . S
O247 Mg238 2.291 . S
O247 C249 1.312 . S
O248 Mg233 2.031 . S
O248 C249 1.208 . S
C249 O247 1.312 . S
C249 O248 1.208 . S
C250 O242 1.331 . S
C250 O245 1.244 . S
O251 Mg236 2.013 . S
O251 C240 1.191 . S
O252 C231 1.331 . S
O252 Mg238 2.081 . S
O253 Mg234 1.986 . S
O253 C240 1.307 . S
O254 C232 1.264 . S
O254 Mg238 2.023 . S
O255 C231 1.244 . S
O255 Mg239 1.942 . S
O256 C232 1.273 . S
O256 Mg239 1.955 . S
O257 C230 1.312 . S
O257 Mg233 2.291 . S
O257 Mg236 2.114 . S
O258 C230 1.208 . S
O258 Mg238 2.031 . S
C259 O244 1.264 . S
C259 O246 1.273 . S
C260 O241 1.191 . S
C260 O243 1.307 . S
C261 O288 1.312 . S
C261 O289 1.208 . S
C262 O283 1.331 . S
C262 O286 1.244 . S
C263 O285 1.264 . S
C263 O287 1.273 . S
Mg264 O266 1.936 . S
Mg264 O273 2.081 . S
Mg264 O275 2.023 . S
Mg264 O279 2.031 . S
Mg264 O288 2.291 . S
Mg265 O266 1.963 1_655 S
Mg265 O276 1.942 . S
Mg265 O277 1.955 . S
Mg265 O284 1.986 . S
O266 Mg264 1.936 . S
O266 Mg265 1.963 1_455 S
O266 Mg267 1.915 . S
Mg267 O266 1.915 . S
Mg267 O268 1.915 . S
Mg267 O272 2.013 . S
Mg267 O278 2.114 . S
Mg267 O282 2.013 . S
Mg267 O288 2.114 . S
O268 Mg267 1.915 . S
O268 Mg269 1.936 . S
O268 Mg270 1.963 . S
Mg269 O268 1.936 . S
Mg269 O278 2.291 . S
Mg269 O283 2.081 . S
Mg269 O285 2.023 . S
Mg269 O289 2.031 . S
Mg270 O268 1.963 . S
Mg270 O274 1.986 . S
Mg270 O286 1.942 . S
Mg270 O287 1.955 . S
C271 O282 1.191 . S
C271 O284 1.307 1_455 S
O272 Mg267 2.013 . S
O272 C291 1.191 . S
O273 Mg264 2.081 . S
O273 C281 1.331 1_455 S
O274 Mg270 1.986 . S
O274 C291 1.307 . S
O275 Mg264 2.023 . S
O275 C290 1.264 1_455 S
O276 Mg265 1.942 . S
O276 C281 1.244 . S
O277 Mg265 1.955 . S
O277 C290 1.273 . S
O278 Mg267 2.114 . S
O278 Mg269 2.291 . S
O278 C280 1.312 . S
O279 Mg264 2.031 . S
O279 C280 1.208 . S
C280 O278 1.312 . S
C280 O279 1.208 . S
C281 O273 1.331 1_655 S
C281 O276 1.244 . S
O282 Mg267 2.013 . S
O282 C271 1.191 . S
O283 C262 1.331 . S
O283 Mg269 2.081 . S
O284 Mg265 1.986 . S
O284 C271 1.307 1_655 S
O285 C263 1.264 . S
O285 Mg269 2.023 . S
O286 C262 1.244 . S
O286 Mg270 1.942 . S
O287 C263 1.273 . S
O287 Mg270 1.955 . S
O288 C261 1.312 . S
O288 Mg264 2.291 . S
O288 Mg267 2.114 . S
O289 C261 1.208 . S
O289 Mg269 2.031 . S
C290 O275 1.264 1_655 S
C290 O277 1.273 . S
C291 O272 1.191 . S
C291 O274 1.307 . S
H292 C310 0.951 . S
H293 C312 0.951 . S
H294 C314 0.950 . S
H295 C315 0.950 . S
H296 C317 0.950 . S
H297 C320 0.950 . S
H298 C321 0.950 . S
H299 C323 0.950 . S
H300 C324 0.950 . S
H301 C325 0.951 . S
H302 C327 0.951 . S
H303 C329 0.950 . S
H304 C330 0.950 . S
H305 C332 0.950 . S
H306 C335 0.950 . S
H307 C336 0.950 . S
H308 C338 0.950 . S
H309 C339 0.950 . S
C310 H292 0.951 . S
C310 C311 1.366 . S
C310 C312 1.388 . S
C311 C310 1.366 . S
C311 C315 1.385 . S
C312 H293 0.951 . S
C312 C310 1.388 . S
C312 C313 1.366 . S
C313 C312 1.366 . S
C313 C314 1.414 . S
C313 C316 1.499 . S
C314 H294 0.950 . S
C314 C313 1.414 . S
C314 C315 1.374 . S
C315 H295 0.950 . S
C315 C311 1.385 . S
C315 C314 1.374 . S
C316 C313 1.499 . S
C316 C317 1.373 . S
C316 C318 1.389 . S
C317 H296 0.950 . S
C317 C316 1.373 . S
C317 C333 1.377 . S
C318 C316 1.389 . S
C318 C319 1.524 . S
C318 C332 1.377 . S
C319 C318 1.524 . S
C319 C320 1.397 1_565 S
C319 C324 1.363 . S
C320 H297 0.950 . S
C320 C319 1.397 1_545 S
C320 C321 1.334 . S
C321 H298 0.950 . S
C321 C320 1.334 . S
C321 C322 1.287 . S
C322 C321 1.287 . S
C322 C323 1.524 . S
C322 H341 0.913 . S
C323 H299 0.950 . S
C323 C322 1.524 . S
C323 C324 1.415 1_545 S
C324 H300 0.950 . S
C324 C319 1.363 . S
C324 C323 1.415 1_565 S
C325 H301 0.951 . S
C325 C326 1.366 . S
C325 C327 1.388 . S
C326 C325 1.366 . S
C326 C330 1.385 . S
C327 H302 0.951 . S
C327 C325 1.388 . S
C327 C328 1.366 . S
C328 C327 1.366 . S
C328 C329 1.414 . S
C328 C331 1.499 . S
C329 H303 0.950 . S
C329 C328 1.414 . S
C329 C330 1.374 . S
C330 H304 0.950 . S
C330 C326 1.385 . S
C330 C329 1.374 . S
C331 C328 1.499 . S
C331 C332 1.373 . S
C331 C333 1.389 . S
C332 H305 0.950 . S
C332 C318 1.377 . S
C332 C331 1.373 . S
C333 C317 1.377 . S
C333 C331 1.389 . S
C333 C334 1.524 . S
C334 C333 1.524 . S
C334 C335 1.397 . S
C334 C339 1.363 . S
C335 H306 0.950 . S
C335 C334 1.397 . S
C335 C336 1.334 . S
C336 H307 0.950 . S
C336 C335 1.334 . S
C336 C337 1.287 . S
C337 C336 1.287 . S
C337 C338 1.524 . S
C337 H340 0.999 . S
C338 H308 0.950 . S
C338 C337 1.524 . S
C338 C339 1.415 . S
C339 H309 0.950 . S
C339 C334 1.363 . S
C339 C338 1.415 . S
H340 C337 0.999 . S
H341 C322 0.913 . S
H342 C360 0.951 . S
H343 C362 0.951 . S
H344 C364 0.950 . S
H345 C365 0.950 . S
H346 C367 0.950 . S
H347 C370 0.950 . S
H348 C371 0.950 . S
H349 C373 0.950 1_545 S
H350 C374 0.950 1_545 S
H351 C375 0.951 . S
H352 C377 0.951 . S
H353 C379 0.950 . S
H354 C380 0.950 . S
H355 C382 0.950 . S
H356 C385 0.950 . S
H357 C386 0.950 . S
H358 C388 0.950 . S
H359 C389 0.950 . S
C360 H342 0.951 . S
C360 C361 1.366 . S
C360 C362 1.388 . S
C361 C360 1.366 . S
C361 C365 1.385 . S
C362 H343 0.951 . S
C362 C360 1.388 . S
C362 C363 1.366 . S
C363 C362 1.366 . S
C363 C364 1.414 . S
C363 C366 1.499 . S
C364 H344 0.950 . S
C364 C363 1.414 . S
C364 C365 1.374 . S
C365 H345 0.950 . S
C365 C361 1.385 . S
C365 C364 1.374 . S
C366 C363 1.499 . S
C366 C367 1.373 . S
C366 C368 1.389 . S
C367 H346 0.950 . S
C367 C366 1.373 . S
C367 C383 1.377 . S
C368 C366 1.389 . S
C368 C369 1.524 . S
C368 C382 1.377 1_565 S
C369 C368 1.524 . S
C369 C370 1.397 . S
C369 C374 1.363 . S
C370 H347 0.950 . S
C370 C369 1.397 . S
C370 C371 1.334 . S
C371 H348 0.950 . S
C371 C370 1.334 . S
C371 C372 1.287 . S
C372 C371 1.287 . S
C372 C373 1.524 . S
C372 H391 0.913 . S
C373 H349 0.950 1_565 S
C373 C372 1.524 . S
C373 C374 1.415 . S
C374 H350 0.950 1_565 S
C374 C369 1.363 . S
C374 C373 1.415 . S
C375 H351 0.951 . S
C375 C376 1.366 . S
C375 C377 1.388 . S
C376 C375 1.366 . S
C376 C380 1.385 . S
C377 H352 0.951 . S
C377 C375 1.388 . S
C377 C378 1.366 . S
C378 C377 1.366 . S
C378 C379 1.414 . S
C378 C381 1.499 . S
C379 H353 0.950 . S
C379 C378 1.414 . S
C379 C380 1.374 . S
C380 H354 0.950 . S
C380 C376 1.385 . S
C380 C379 1.374 . S
C381 C378 1.499 . S
C381 C382 1.373 . S
C381 C383 1.389 1_545 S
C382 H355 0.950 . S
C382 C368 1.377 1_545 S
C382 C381 1.373 . S
C383 C367 1.377 . S
C383 C381 1.389 1_565 S
C383 C384 1.524 . S
C384 C383 1.524 . S
C384 C385 1.397 1_565 S
C384 C389 1.363 . S
C385 H356 0.950 . S
C385 C384 1.397 1_545 S
C385 C386 1.334 . S
C386 H357 0.950 . S
C386 C385 1.334 . S
C386 C387 1.287 1_545 S
C387 C386 1.287 1_565 S
C387 C388 1.524 . S
C387 H390 0.999 . S
C388 H358 0.950 . S
C388 C387 1.524 . S
C388 C389 1.415 . S
C389 H359 0.950 . S
C389 C384 1.363 . S
C389 C388 1.415 . S
H390 C387 0.999 . S
H391 C372 0.913 . S
H392 C410 0.951 . S
H393 C412 0.951 . S
H394 C414 0.950 . S
H395 C415 0.950 . S
H396 C417 0.950 . S
H397 C420 0.950 . S
H398 C421 0.950 . S
H399 C423 0.950 . S
H400 C424 0.950 . S
H401 C425 0.951 . S
H402 C427 0.951 . S
H403 C429 0.950 . S
H404 C430 0.950 . S
H405 C432 0.950 . S
H406 C435 0.950 . S
H407 C436 0.950 . S
H408 C438 0.950 . S
H409 C439 0.950 . S
C410 H392 0.951 . S
C410 C411 1.366 . S
C410 C412 1.388 . S
C411 C410 1.366 . S
C411 C415 1.385 . S
C412 H393 0.951 . S
C412 C410 1.388 . S
C412 C413 1.366 . S
C413 C412 1.366 . S
C413 C414 1.414 . S
C413 C416 1.499 . S
C414 H394 0.950 . S
C414 C413 1.414 . S
C414 C415 1.374 . S
C415 H395 0.950 . S
C415 C411 1.385 . S
C415 C414 1.374 . S
C416 C413 1.499 . S
C416 C417 1.373 . S
C416 C418 1.389 . S
C417 H396 0.950 . S
C417 C416 1.373 . S
C417 C433 1.377 . S
C418 C416 1.389 . S
C418 C419 1.524 . S
C418 C432 1.377 . S
C419 C418 1.524 . S
C419 C420 1.397 . S
C419 C424 1.363 . S
C420 H397 0.950 . S
C420 C419 1.397 . S
C420 C421 1.334 . S
C421 H398 0.950 . S
C421 C420 1.334 . S
C421 C422 1.287 . S
C422 C421 1.287 . S
C422 C423 1.524 . S
C422 H441 0.913 . S
C423 H399 0.950 . S
C423 C422 1.524 . S
C423 C424 1.415 . S
C424 H400 0.950 . S
C424 C419 1.363 . S
C424 C423 1.415 . S
C425 H401 0.951 . S
C425 C426 1.366 . S
C425 C427 1.388 . S
C426 C425 1.366 . S
C426 C430 1.385 . S
C427 H402 0.951 . S
C427 C425 1.388 . S
C427 C428 1.366 . S
C428 C427 1.366 . S
C428 C429 1.414 . S
C428 C431 1.499 . S
C429 H403 0.950 . S
C429 C428 1.414 . S
C429 C430 1.374 . S
C430 H404 0.950 . S
C430 C426 1.385 . S
C430 C429 1.374 . S
C431 C428 1.499 . S
C431 C432 1.373 . S
C431 C433 1.389 . S
C432 H405 0.950 . S
C432 C418 1.377 . S
C432 C431 1.373 . S
C433 C417 1.377 . S
C433 C431 1.389 . S
C433 C434 1.524 . S
C434 C433 1.524 . S
C434 C435 1.397 . S
C434 C439 1.363 . S
C435 H406 0.950 . S
C435 C434 1.397 . S
C435 C436 1.334 1_545 S
C436 H407 0.950 . S
C436 C435 1.334 1_565 S
C436 C437 1.287 . S
C437 C436 1.287 . S
C437 C438 1.524 . S
C437 H440 0.999 . S
C438 H408 0.950 . S
C438 C437 1.524 . S
C438 C439 1.415 1_565 S
C439 H409 0.950 . S
C439 C434 1.363 . S
C439 C438 1.415 1_545 S
H440 C437 0.999 . S
H441 C422 0.913 . S
H442 C460 0.951 . S
H443 C462 0.951 . S
H444 C464 0.950 . S
H445 C465 0.950 . S
H446 C467 0.950 . S
H447 C470 0.950 . S
H448 C471 0.950 . S
H449 C473 0.950 . S
H450 C474 0.950 1_565 S
H451 C475 0.951 . S
H452 C477 0.951 . S
H453 C479 0.950 . S
H454 C480 0.950 . S
H455 C482 0.950 1_565 S
H456 C485 0.950 . S
H457 C486 0.950 . S
H458 C488 0.950 . S
H459 C489 0.950 . S
C460 H442 0.951 . S
C460 C461 1.366 . S
C460 C462 1.388 . S
C461 C460 1.366 . S
C461 C465 1.385 . S
C462 H443 0.951 . S
C462 C460 1.388 . S
C462 C463 1.366 . S
C463 C462 1.366 . S
C463 C464 1.414 . S
C463 C466 1.499 . S
C464 H444 0.950 . S
C464 C463 1.414 . S
C464 C465 1.374 . S
C465 H445 0.950 . S
C465 C461 1.385 . S
C465 C464 1.374 . S
C466 C463 1.499 . S
C466 C467 1.373 . S
C466 C468 1.389 . S
C467 H446 0.950 . S
C467 C466 1.373 . S
C467 C483 1.377 . S
C468 C466 1.389 . S
C468 C469 1.524 . S
C468 C482 1.377 . S
C469 C468 1.524 . S
C469 C470 1.397 . S
C469 C474 1.363 . S
C470 H447 0.950 . S
C470 C469 1.397 . S
C470 C471 1.334 . S
C471 H448 0.950 . S
C471 C470 1.334 . S
C471 C472 1.287 . S
C472 C471 1.287 . S
C472 C473 1.524 . S
C472 H491 0.913 . S
C473 H449 0.950 . S
C473 C472 1.524 . S
C473 C474 1.415 . S
C474 H450 0.950 1_545 S
C474 C469 1.363 . S
C474 C473 1.415 . S
C475 H451 0.951 . S
C475 C476 1.366 . S
C475 C477 1.388 . S
C476 C475 1.366 . S
C476 C480 1.385 . S
C477 H452 0.951 . S
C477 C475 1.388 . S
C477 C478 1.366 . S
C478 C477 1.366 . S
C478 C479 1.414 . S
C478 C481 1.499 . S
C479 H453 0.950 . S
C479 C478 1.414 . S
C479 C480 1.374 . S
C480 H454 0.950 . S
C480 C476 1.385 . S
C480 C479 1.374 . S
C481 C478 1.499 . S
C481 C482 1.373 1_565 S
C481 C483 1.389 1_565 S
C482 H455 0.950 1_545 S
C482 C468 1.377 . S
C482 C481 1.373 1_545 S
C483 C467 1.377 . S
C483 C481 1.389 1_545 S
C483 C484 1.524 . S
C484 C483 1.524 . S
C484 C485 1.397 1_545 S
C484 C489 1.363 . S
C485 H456 0.950 . S
C485 C484 1.397 1_565 S
C485 C486 1.334 . S
C486 H457 0.950 . S
C486 C485 1.334 . S
C486 C487 1.287 . S
C487 C486 1.287 . S
C487 C488 1.524 1_565 S
C487 H490 0.999 . S
C488 H458 0.950 . S
C488 C487 1.524 1_545 S
C488 C489 1.415 . S
C489 H459 0.950 . S
C489 C484 1.363 . S
C489 C488 1.415 . S
H490 C487 0.999 . S
H491 C472 0.913 . S
H492 C510 0.951 . S
H493 C512 0.951 . S
H494 C514 0.950 . S
H495 C515 0.950 . S
H496 C517 0.950 . S
H497 C520 0.950 1_545 S
H498 C521 0.950 . S
H499 C523 0.950 . S
H500 C524 0.950 1_545 S
H501 C525 0.951 . S
H502 C527 0.951 . S
H503 C529 0.950 . S
H504 C530 0.950 . S
H505 C532 0.950 . S
H506 C535 0.950 . S
H507 C536 0.950 . S
H508 C538 0.950 . S
H509 C539 0.950 . S
C510 H492 0.951 . S
C510 C511 1.366 . S
C510 C512 1.388 . S
C511 C510 1.366 . S
C511 C515 1.385 . S
C512 H493 0.951 . S
C512 C510 1.388 . S
C512 C513 1.366 . S
C513 C512 1.366 . S
C513 C514 1.414 . S
C513 C516 1.499 . S
C514 H494 0.950 . S
C514 C513 1.414 . S
C514 C515 1.374 . S
C515 H495 0.950 . S
C515 C511 1.385 . S
C515 C514 1.374 . S
C516 C513 1.499 . S
C516 C517 1.373 . S
C516 C518 1.389 . S
C517 H496 0.950 . S
C517 C516 1.373 . S
C517 C533 1.377 . S
C518 C516 1.389 . S
C518 C519 1.524 . S
C518 C532 1.377 . S
C519 C518 1.524 . S
C519 C520 1.397 1_545 S
C519 C524 1.363 1_545 S
C520 H497 0.950 1_565 S
C520 C519 1.397 1_565 S
C520 C521 1.334 . S
C521 H498 0.950 . S
C521 C520 1.334 . S
C521 C522 1.287 . S
C522 C521 1.287 . S
C522 C523 1.524 . S
C522 H541 0.913 . S
C523 H499 0.950 . S
C523 C522 1.524 . S
C523 C524 1.415 . S
C524 H500 0.950 1_565 S
C524 C519 1.363 1_565 S
C524 C523 1.415 . S
C525 H501 0.951 . S
C525 C526 1.366 . S
C525 C527 1.388 . S
C526 C525 1.366 . S
C526 C530 1.385 . S
C527 H502 0.951 . S
C527 C525 1.388 . S
C527 C528 1.366 . S
C528 C527 1.366 . S
C528 C529 1.414 . S
C528 C531 1.499 . S
C529 H503 0.950 . S
C529 C528 1.414 . S
C529 C530 1.374 . S
C530 H504 0.950 . S
C530 C526 1.385 . S
C530 C529 1.374 . S
C531 C528 1.499 . S
C531 C532 1.373 . S
C531 C533 1.389 . S
C532 H505 0.950 . S
C532 C518 1.377 . S
C532 C531 1.373 . S
C533 C517 1.377 . S
C533 C531 1.389 . S
C533 C534 1.524 . S
C534 C533 1.524 . S
C534 C535 1.397 . S
C534 C539 1.363 . S
C535 H506 0.950 . S
C535 C534 1.397 . S
C535 C536 1.334 . S
C536 H507 0.950 . S
C536 C535 1.334 . S
C536 C537 1.287 . S
C537 C536 1.287 . S
C537 C538 1.524 . S
C537 H540 0.999 . S
C538 H508 0.950 . S
C538 C537 1.524 . S
C538 C539 1.415 . S
C539 H509 0.950 . S
C539 C534 1.363 . S
C539 C538 1.415 . S
H540 C537 0.999 . S
H541 C522 0.913 . S
H542 C560 0.951 . S
H543 C562 0.951 . S
H544 C564 0.950 . S
H545 C565 0.950 . S
H546 C567 0.950 . S
H547 C570 0.950 . S
H548 C571 0.950 . S
H549 C573 0.950 . S
H550 C574 0.950 . S
H551 C575 0.951 . S
H552 C577 0.951 . S
H553 C579 0.950 . S
H554 C580 0.950 . S
H555 C582 0.950 1_545 S
H556 C585 0.950 . S
H557 C586 0.950 . S
H558 C588 0.950 1_565 S
H559 C589 0.950 . S
C560 H542 0.951 . S
C560 C561 1.366 . S
C560 C562 1.388 . S
C561 C560 1.366 . S
C561 C565 1.385 . S
C562 H543 0.951 . S
C562 C560 1.388 . S
C562 C563 1.366 . S
C563 C562 1.366 . S
C563 C564 1.414 . S
C563 C566 1.499 . S
C564 H544 0.950 . S
C564 C563 1.414 . S
C564 C565 1.374 . S
C565 H545 0.950 . S
C565 C561 1.385 . S
C565 C564 1.374 . S
C566 C563 1.499 . S
C566 C567 1.373 . S
C566 C568 1.389 . S
C567 H546 0.950 . S
C567 C566 1.373 . S
C567 C583 1.377 . S
C568 C566 1.389 . S
C568 C569 1.524 . S
C568 C582 1.377 . S
C569 C568 1.524 . S
C569 C570 1.397 . S
C569 C574 1.363 . S
C570 H547 0.950 . S
C570 C569 1.397 . S
C570 C571 1.334 . S
C571 H548 0.950 . S
C571 C570 1.334 . S
C571 C572 1.287 . S
C572 C571 1.287 . S
C572 C573 1.524 . S
C572 H591 0.913 . S
C573 H549 0.950 . S
C573 C572 1.524 . S
C573 C574 1.415 . S
C574 H550 0.950 . S
C574 C569 1.363 . S
C574 C573 1.415 . S
C575 H551 0.951 . S
C575 C576 1.366 . S
C575 C577 1.388 . S
C576 C575 1.366 . S
C576 C580 1.385 . S
C577 H552 0.951 . S
C577 C575 1.388 . S
C577 C578 1.366 . S
C578 C577 1.366 . S
C578 C579 1.414 . S
C578 C581 1.499 . S
C579 H553 0.950 . S
C579 C578 1.414 . S
C579 C580 1.374 . S
C580 H554 0.950 . S
C580 C576 1.385 . S
C580 C579 1.374 . S
C581 C578 1.499 . S
C581 C582 1.373 1_545 S
C581 C583 1.389 1_545 S
C582 H555 0.950 1_565 S
C582 C568 1.377 . S
C582 C581 1.373 1_565 S
C583 C567 1.377 . S
C583 C581 1.389 1_565 S
C583 C584 1.524 1_565 S
C584 C583 1.524 1_545 S
C584 C585 1.397 . S
C584 C589 1.363 1_545 S
C585 H556 0.950 . S
C585 C584 1.397 . S
C585 C586 1.334 . S
C586 H557 0.950 . S
C586 C585 1.334 . S
C586 C587 1.287 . S
C587 C586 1.287 . S
C587 C588 1.524 . S
C587 H590 0.999 . S
C588 H558 0.950 1_545 S
C588 C587 1.524 . S
C588 C589 1.415 1_545 S
C589 H559 0.950 . S
C589 C584 1.363 1_565 S
C589 C588 1.415 1_565 S
H590 C587 0.999 . S
H591 C572 0.913 . S
H592 C610 0.951 1_545 S
H593 C612 0.951 . S
H594 C614 0.950 . S
H595 C615 0.950 . S
H596 C617 0.950 . S
H597 C620 0.950 . S
H598 C621 0.950 . S
H599 C623 0.950 . S
H600 C624 0.950 . S
H601 C625 0.951 . S
H602 C627 0.951 . S
H603 C629 0.950 . S
H604 C630 0.950 . S
H605 C632 0.950 . S
H606 C635 0.950 . S
H607 C636 0.950 . S
H608 C638 0.950 . S
H609 C639 0.950 . S
C610 H592 0.951 1_565 S
C610 C611 1.366 . S
C610 C612 1.388 . S
C611 C610 1.366 . S
C611 C615 1.385 . S
C612 H593 0.951 . S
C612 C610 1.388 . S
C612 C613 1.366 . S
C613 C612 1.366 . S
C613 C614 1.414 . S
C613 C616 1.499 . S
C614 H594 0.950 . S
C614 C613 1.414 . S
C614 C615 1.374 . S
C615 H595 0.950 . S
C615 C611 1.385 . S
C615 C614 1.374 . S
C616 C613 1.499 . S
C616 C617 1.373 . S
C616 C618 1.389 . S
C617 H596 0.950 . S
C617 C616 1.373 . S
C617 C633 1.377 . S
C618 C616 1.389 . S
C618 C619 1.524 . S
C618 C632 1.377 . S
C619 C618 1.524 . S
C619 C620 1.397 . S
C619 C624 1.363 1_565 S
C620 H597 0.950 . S
C620 C619 1.397 . S
C620 C621 1.334 1_565 S
C621 H598 0.950 . S
C621 C620 1.334 1_545 S
C621 C622 1.287 . S
C622 C621 1.287 . S
C622 C623 1.524 . S
C622 H641 0.913 . S
C623 H599 0.950 . S
C623 C622 1.524 . S
C623 C624 1.415 . S
C624 H600 0.950 . S
C624 C619 1.363 1_545 S
C624 C623 1.415 . S
C625 H601 0.951 . S
C625 C626 1.366 . S
C625 C627 1.388 . S
C626 C625 1.366 . S
C626 C630 1.385 . S
C627 H602 0.951 . S
C627 C625 1.388 . S
C627 C628 1.366 . S
C628 C627 1.366 . S
C628 C629 1.414 . S
C628 C631 1.499 . S
C629 H603 0.950 . S
C629 C628 1.414 . S
C629 C630 1.374 . S
C630 H604 0.950 . S
C630 C626 1.385 . S
C630 C629 1.374 . S
C631 C628 1.499 . S
C631 C632 1.373 . S
C631 C633 1.389 . S
C632 H605 0.950 . S
C632 C618 1.377 . S
C632 C631 1.373 . S
C633 C617 1.377 . S
C633 C631 1.389 . S
C633 C634 1.524 . S
C634 C633 1.524 . S
C634 C635 1.397 . S
C634 C639 1.363 . S
C635 H606 0.950 . S
C635 C634 1.397 . S
C635 C636 1.334 . S
C636 H607 0.950 . S
C636 C635 1.334 . S
C636 C637 1.287 . S
C637 C636 1.287 . S
C637 C638 1.524 . S
C637 H640 0.999 . S
C638 H608 0.950 . S
C638 C637 1.524 . S
C638 C639 1.415 . S
C639 H609 0.950 . S
C639 C634 1.363 . S
C639 C638 1.415 . S
H640 C637 0.999 . S
H641 C622 0.913 . S
H642 C660 0.951 . S
H643 C662 0.951 . S
H644 C664 0.950 . S
H645 C665 0.950 . S
H646 C667 0.950 . S
H647 C670 0.950 . S
H648 C671 0.950 . S
H649 C673 0.950 . S
H650 C674 0.950 . S
H651 C675 0.951 . S
H652 C677 0.951 . S
H653 C679 0.950 . S
H654 C680 0.950 . S
H655 C682 0.950 . S
H656 C685 0.950 . S
H657 C686 0.950 . S
H658 C688 0.950 . S
H659 C689 0.950 . S
C660 H642 0.951 . S
C660 C661 1.366 . S
C660 C662 1.388 . S
C661 C660 1.366 . S
C661 C665 1.385 . S
C662 H643 0.951 . S
C662 C660 1.388 . S
C662 C663 1.366 . S
C663 C662 1.366 . S
C663 C664 1.414 . S
C663 C666 1.499 . S
C664 H644 0.950 . S
C664 C663 1.414 . S
C664 C665 1.374 . S
C665 H645 0.950 . S
C665 C661 1.385 . S
C665 C664 1.374 . S
C666 C663 1.499 . S
C666 C667 1.373 . S
C666 C668 1.389 . S
C667 H646 0.950 . S
C667 C666 1.373 . S
C667 C683 1.398 . S
C668 C666 1.389 . S
C668 C669 1.524 . S
C668 C682 1.377 . S
C669 C668 1.524 . S
C669 C670 1.397 . S
C669 C674 1.363 . S
C670 H647 0.950 . S
C670 C669 1.397 . S
C670 C671 1.334 . S
C671 H648 0.950 . S
C671 C670 1.334 . S
C671 C672 1.287 . S
C672 C671 1.287 . S
C672 C673 1.524 . S
C672 H691 0.913 . S
C673 H649 0.950 . S
C673 C672 1.524 . S
C673 C674 1.415 . S
C674 H650 0.950 . S
C674 C669 1.363 . S
C674 C673 1.415 . S
C675 H651 0.951 . S
C675 C676 1.366 . S
C675 C677 1.388 . S
C676 C675 1.366 . S
C676 C680 1.385 . S
C677 H652 0.951 . S
C677 C675 1.388 . S
C677 C678 1.366 . S
C678 C677 1.366 . S
C678 C679 1.414 . S
C678 C681 1.499 1_565 S
C679 H653 0.950 . S
C679 C678 1.414 . S
C679 C680 1.374 . S
C680 H654 0.950 . S
C680 C676 1.385 . S
C680 C679 1.374 . S
C681 C678 1.499 1_545 S
C681 C682 1.373 . S
C681 C683 1.390 . S
C682 H655 0.950 . S
C682 C668 1.377 . S
C682 C681 1.373 . S
C683 C667 1.398 . S
C683 C681 1.390 . S
C683 C684 1.503 1_545 S
C684 C683 1.503 1_565 S
C684 C685 1.397 . S
C684 C689 1.363 . S
C685 H656 0.950 . S
C685 C684 1.397 . S
C685 C686 1.334 . S
C686 H657 0.950 . S
C686 C685 1.334 . S
C686 C687 1.287 . S
C687 C686 1.287 . S
C687 C688 1.524 . S
C687 H690 0.999 . S
C688 H658 0.950 . S
C688 C687 1.524 . S
C688 C689 1.415 . S
C689 H659 0.950 . S
C689 C684 1.363 . S
C689 C688 1.415 . S
H690 C687 0.999 . S
H691 C672 0.913 . S
H692 C710 0.951 1_565 S
H693 C712 0.951 . S
H694 C714 0.950 . S
H695 C715 0.950 . S
H696 C717 0.950 . S
H697 C720 0.950 . S
H698 C721 0.950 . S
H699 C723 0.950 . S
H700 C724 0.950 1_545 S
H701 C725 0.951 . S
H702 C727 0.951 . S
H703 C729 0.950 . S
H704 C730 0.950 . S
H705 C732 0.950 . S
H706 C735 0.950 . S
H707 C736 0.950 . S
H708 C738 0.950 . S
H709 C739 0.950 . S
C710 H692 0.951 1_545 S
C710 C711 1.366 . S
C710 C712 1.388 . S
C711 C710 1.366 . S
C711 C715 1.385 . S
C712 H693 0.951 . S
C712 C710 1.388 . S
C712 C713 1.366 . S
C713 C712 1.366 . S
C713 C714 1.414 . S
C713 C716 1.499 . S
C714 H694 0.950 . S
C714 C713 1.414 . S
C714 C715 1.374 . S
C715 H695 0.950 . S
C715 C711 1.385 . S
C715 C714 1.374 . S
C716 C713 1.499 . S
C716 C717 1.373 . S
C716 C718 1.389 . S
C717 H696 0.950 . S
C717 C716 1.373 . S
C717 C733 1.377 . S
C718 C716 1.389 . S
C718 C719 1.524 . S
C718 C732 1.377 . S
C719 C718 1.524 . S
C719 C720 1.397 . S
C719 C724 1.363 1_545 S
C720 H697 0.950 . S
C720 C719 1.397 . S
C720 C721 1.334 1_545 S
C721 H698 0.950 . S
C721 C720 1.334 1_565 S
C721 C722 1.287 . S
C722 C721 1.287 . S
C722 C723 1.524 . S
C722 H741 0.913 . S
C723 H699 0.950 . S
C723 C722 1.524 . S
C723 C724 1.415 . S
C724 H700 0.950 1_565 S
C724 C719 1.363 1_565 S
C724 C723 1.415 . S
C725 H701 0.951 . S
C725 C726 1.366 . S
C725 C727 1.388 . S
C726 C725 1.366 . S
C726 C730 1.385 . S
C727 H702 0.951 . S
C727 C725 1.388 . S
C727 C728 1.366 . S
C728 C727 1.366 . S
C728 C729 1.414 . S
C728 C731 1.499 . S
C729 H703 0.950 . S
C729 C728 1.414 . S
C729 C730 1.374 . S
C730 H704 0.950 . S
C730 C726 1.385 . S
C730 C729 1.374 . S
C731 C728 1.499 . S
C731 C732 1.373 . S
C731 C733 1.389 . S
C732 H705 0.950 . S
C732 C718 1.377 . S
C732 C731 1.373 . S
C733 C717 1.377 . S
C733 C731 1.389 . S
C733 C734 1.524 . S
C734 C733 1.524 . S
C734 C735 1.397 . S
C734 C739 1.363 . S
C735 H706 0.950 . S
C735 C734 1.397 . S
C735 C736 1.334 . S
C736 H707 0.950 . S
C736 C735 1.334 . S
C736 C737 1.287 . S
C737 C736 1.287 . S
C737 C738 1.524 . S
C737 H740 0.999 . S
C738 H708 0.950 . S
C738 C737 1.524 . S
C738 C739 1.415 . S
C739 H709 0.950 . S
C739 C734 1.363 . S
C739 C738 1.415 . S
H740 C737 0.999 . S
H741 C722 0.913 . S
H742 C760 0.951 . S
H743 C762 0.951 . S
H744 C764 0.950 1_565 S
H745 C765 0.950 . S
H746 C767 0.950 . S
H747 C770 0.950 . S
H748 C771 0.950 . S
H749 C773 0.950 . S
H750 C774 0.950 . S
H751 C775 0.951 . S
H752 C777 0.951 . S
H753 C779 0.950 . S
H754 C780 0.950 . S
H755 C782 0.950 . S
H756 C785 0.950 . S
H757 C786 0.950 . S
H758 C788 0.950 . S
H759 C789 0.950 . S
C760 H742 0.951 . S
C760 C761 1.366 . S
C760 C762 1.388 . S
C761 C760 1.366 . S
C761 C765 1.385 . S
C762 H743 0.951 . S
C762 C760 1.388 . S
C762 C763 1.366 . S
C763 C762 1.366 . S
C763 C764 1.414 . S
C763 C766 1.499 1_545 S
C764 H744 0.950 1_545 S
C764 C763 1.414 . S
C764 C765 1.374 . S
C765 H745 0.950 . S
C765 C761 1.385 . S
C765 C764 1.374 . S
C766 C763 1.499 1_565 S
C766 C767 1.373 . S
C766 C768 1.389 . S
C767 H746 0.950 . S
C767 C766 1.373 . S
C767 C783 1.377 . S
C768 C766 1.389 . S
C768 C769 1.524 . S
C768 C782 1.377 . S
C769 C768 1.524 . S
C769 C770 1.397 . S
C769 C774 1.363 1_565 S
C770 H747 0.950 . S
C770 C769 1.397 . S
C770 C771 1.334 1_565 S
C771 H748 0.950 . S
C771 C770 1.334 1_545 S
C771 C772 1.287 . S
C772 C771 1.287 . S
C772 C773 1.524 . S
C772 H791 0.913 . S
C773 H749 0.950 . S
C773 C772 1.524 . S
C773 C774 1.415 . S
C774 H750 0.950 . S
C774 C769 1.363 1_545 S
C774 C773 1.415 . S
C775 H751 0.951 . S
C775 C776 1.366 . S
C775 C777 1.388 . S
C776 C775 1.366 . S
C776 C780 1.385 . S
C777 H752 0.951 . S
C777 C775 1.388 . S
C777 C778 1.366 . S
C778 C777 1.366 . S
C778 C779 1.414 . S
C778 C781 1.499 . S
C779 H753 0.950 . S
C779 C778 1.414 . S
C779 C780 1.374 . S
C780 H754 0.950 . S
C780 C776 1.385 . S
C780 C779 1.374 . S
C781 C778 1.499 . S
C781 C782 1.373 . S
C781 C783 1.389 . S
C782 H755 0.950 . S
C782 C768 1.377 . S
C782 C781 1.373 . S
C783 C767 1.377 . S
C783 C781 1.389 . S
C783 C784 1.524 . S
C784 C783 1.524 . S
C784 C785 1.397 . S
C784 C789 1.363 . S
C785 H756 0.950 . S
C785 C784 1.397 . S
C785 C786 1.334 . S
C786 H757 0.950 . S
C786 C785 1.334 . S
C786 C787 1.287 . S
C787 C786 1.287 . S
C787 C788 1.524 . S
C787 H790 0.999 . S
C788 H758 0.950 . S
C788 C787 1.524 . S
C788 C789 1.415 . S
C789 H759 0.950 . S
C789 C784 1.363 . S
C789 C788 1.415 . S
H790 C787 0.999 . S
H791 C772 0.913 . S
H792 C810 0.951 . S
H793 C812 0.951 . S
H794 C814 0.950 . S
H795 C815 0.950 . S
H796 C817 0.950 . S
H797 C820 0.950 1_565 S
H798 C821 0.950 . S
H799 C823 0.950 . S
H800 C824 0.950 . S
H801 C825 0.951 . S
H802 C827 0.951 . S
H803 C829 0.950 . S
H804 C830 0.950 . S
H805 C832 0.950 . S
H806 C835 0.950 . S
H807 C836 0.950 . S
H808 C838 0.950 . S
H809 C839 0.950 . S
C810 H792 0.951 . S
C810 C811 1.366 . S
C810 C812 1.388 . S
C811 C810 1.366 . S
C811 C815 1.385 . S
C812 H793 0.951 . S
C812 C810 1.388 . S
C812 C813 1.366 . S
C813 C812 1.366 . S
C813 C814 1.414 . S
C813 C816 1.499 . S
C814 H794 0.950 . S
C814 C813 1.414 . S
C814 C815 1.374 . S
C815 H795 0.950 . S
C815 C811 1.385 . S
C815 C814 1.374 . S
C816 C813 1.499 . S
C816 C817 1.373 . S
C816 C818 1.389 . S
C817 H796 0.950 . S
C817 C816 1.373 . S
C817 C833 1.377 . S
C818 C816 1.389 . S
C818 C819 1.524 . S
C818 C832 1.377 . S
C819 C818 1.524 . S
C819 C820 1.397 1_565 S
C819 C824 1.363 . S
C820 H797 0.950 1_545 S
C820 C819 1.397 1_545 S
C820 C821 1.334 . S
C821 H798 0.950 . S
C821 C820 1.334 . S
C821 C822 1.287 . S
C822 C821 1.287 . S
C822 C823 1.524 . S
C822 H841 0.913 . S
C823 H799 0.950 . S
C823 C822 1.524 . S
C823 C824 1.415 1_545 S
C824 H800 0.950 . S
C824 C819 1.363 . S
C824 C823 1.415 1_565 S
C825 H801 0.951 . S
C825 C826 1.366 . S
C825 C827 1.388 1_455 S
C826 C825 1.366 . S
C826 C830 1.385 1_455 S
C827 H802 0.951 . S
C827 C825 1.388 1_655 S
C827 C828 1.366 . S
C828 C827 1.366 . S
C828 C829 1.414 . S
C828 C831 1.499 . S
C829 H803 0.950 . S
C829 C828 1.414 . S
C829 C830 1.374 . S
C830 H804 0.950 . S
C830 C826 1.385 1_655 S
C830 C829 1.374 . S
C831 C828 1.499 . S
C831 C832 1.373 . S
C831 C833 1.389 . S
C832 H805 0.950 . S
C832 C818 1.377 . S
C832 C831 1.373 . S
C833 C817 1.377 . S
C833 C831 1.389 . S
C833 C834 1.524 . S
C834 C833 1.524 . S
C834 C835 1.397 . S
C834 C839 1.363 . S
C835 H806 0.950 . S
C835 C834 1.397 . S
C835 C836 1.334 . S
C836 H807 0.950 . S
C836 C835 1.334 . S
C836 C837 1.287 . S
C837 C836 1.287 . S
C837 C838 1.524 . S
C837 H840 0.999 . S
C838 H808 0.950 . S
C838 C837 1.524 . S
C838 C839 1.415 . S
C839 H809 0.950 . S
C839 C834 1.363 . S
C839 C838 1.415 . S
H840 C837 0.999 . S
H841 C822 0.913 . S
H842 C860 0.951 . S
H843 C862 0.951 . S
H844 C864 0.950 1_545 S
H845 C865 0.950 . S
H846 C867 0.950 . S
H847 C870 0.950 . S
H848 C871 0.950 . S
H849 C873 0.950 . S
H850 C874 0.950 1_455 S
H851 C875 0.951 . S
H852 C877 0.951 . S
H853 C879 0.950 . S
H854 C880 0.950 . S
H855 C882 0.950 . S
H856 C885 0.950 . S
H857 C886 0.950 . S
H858 C888 0.950 . S
H859 C889 0.950 . S
C860 H842 0.951 . S
C860 C861 1.366 . S
C860 C862 1.388 . S
C861 C860 1.366 . S
C861 C865 1.385 . S
C862 H843 0.951 . S
C862 C860 1.388 . S
C862 C863 1.366 . S
C863 C862 1.366 . S
C863 C864 1.414 . S
C863 C866 1.499 1_565 S
C864 H844 0.950 1_565 S
C864 C863 1.414 . S
C864 C865 1.374 . S
C865 H845 0.950 . S
C865 C861 1.385 . S
C865 C864 1.374 . S
C866 C863 1.499 1_545 S
C866 C867 1.373 . S
C866 C868 1.389 . S
C867 H846 0.950 . S
C867 C866 1.373 . S
C867 C883 1.377 . S
C868 C866 1.389 . S
C868 C869 1.524 1_545 S
C868 C882 1.377 . S
C869 C868 1.524 1_565 S
C869 C870 1.397 . S
C869 C874 1.363 . S
C870 H847 0.950 . S
C870 C869 1.397 . S
C870 C871 1.334 . S
C871 H848 0.950 . S
C871 C870 1.334 . S
C871 C872 1.287 . S
C872 C871 1.287 . S
C872 C873 1.524 1_655 S
C872 H891 0.913 . S
C873 H849 0.950 . S
C873 C872 1.524 1_455 S
C873 C874 1.415 1_455 S
C874 H850 0.950 1_655 S
C874 C869 1.363 . S
C874 C873 1.415 1_655 S
C875 H851 0.951 . S
C875 C876 1.366 1_655 S
C875 C877 1.388 . S
C876 C875 1.366 1_455 S
C876 C880 1.385 . S
C877 H852 0.951 . S
C877 C875 1.388 . S
C877 C878 1.366 . S
C878 C877 1.366 . S
C878 C879 1.414 1_655 S
C878 C881 1.499 . S
C879 H853 0.950 . S
C879 C878 1.414 1_455 S
C879 C880 1.374 . S
C880 H854 0.950 . S
C880 C876 1.385 . S
C880 C879 1.374 . S
C881 C878 1.499 . S
C881 C882 1.373 . S
C881 C883 1.389 . S
C882 H855 0.950 . S
C882 C868 1.377 . S
C882 C881 1.373 . S
C883 C867 1.377 . S
C883 C881 1.389 . S
C883 C884 1.524 . S
C884 C883 1.524 . S
C884 C885 1.397 . S
C884 C889 1.363 . S
C885 H856 0.950 . S
C885 C884 1.397 . S
C885 C886 1.334 . S
C886 H857 0.950 . S
C886 C885 1.334 . S
C886 C887 1.287 . S
C887 C886 1.287 . S
C887 C888 1.524 . S
C887 H890 0.999 . S
C888 H858 0.950 . S
C888 C887 1.524 . S
C888 C889 1.415 . S
C889 H859 0.950 . S
C889 C884 1.363 . S
C889 C888 1.415 . S
H890 C887 0.999 . S
H891 C872 0.913 . S
H892 C910 0.951 . S
H893 C912 0.951 . S
H894 C914 0.950 . S
H895 C915 0.950 . S
H896 C917 0.950 . S
H897 C920 0.950 . S
H898 C921 0.950 . S
H899 C923 0.950 . S
H900 C924 0.950 . S
H901 C925 0.951 . S
H902 C927 0.951 . S
H903 C929 0.950 . S
H904 C930 0.950 . S
H905 C932 0.950 . S
H906 C935 0.950 . S
H907 C936 0.950 . S
H908 C938 0.950 . S
H909 C939 0.950 . S
C910 H892 0.951 . S
C910 C911 1.366 . S
C910 C912 1.388 . S
C911 C910 1.366 . S
C911 C915 1.385 . S
C912 H893 0.951 . S
C912 C910 1.388 . S
C912 C913 1.366 . S
C913 C912 1.366 . S
C913 C914 1.414 . S
C913 C916 1.499 . S
C914 H894 0.950 . S
C914 C913 1.414 . S
C914 C915 1.374 . S
C915 H895 0.950 . S
C915 C911 1.385 . S
C915 C914 1.374 . S
C916 C913 1.499 . S
C916 C917 1.373 . S
C916 C918 1.389 . S
C917 H896 0.950 . S
C917 C916 1.373 . S
C917 C933 1.377 . S
C918 C916 1.389 . S
C918 C919 1.524 . S
C918 C932 1.377 . S
C919 C918 1.524 . S
C919 C920 1.397 1_565 S
C919 C924 1.363 . S
C920 H897 0.950 . S
C920 C919 1.397 1_545 S
C920 C921 1.334 . S
C921 H898 0.950 . S
C921 C920 1.334 . S
C921 C922 1.287 . S
C922 C921 1.287 . S
C922 C923 1.524 . S
C922 H941 0.913 . S
C923 H899 0.950 . S
C923 C922 1.524 . S
C923 C924 1.415 1_545 S
C924 H900 0.950 . S
C924 C919 1.363 . S
C924 C923 1.415 1_565 S
C925 H901 0.951 . S
C925 C926 1.366 . S
C925 C927 1.388 . S
C926 C925 1.366 . S
C926 C930 1.385 . S
C927 H902 0.951 . S
C927 C925 1.388 . S
C927 C928 1.366 . S
C928 C927 1.366 . S
C928 C929 1.414 . S
C928 C931 1.499 . S
C929 H903 0.950 . S
C929 C928 1.414 . S
C929 C930 1.374 . S
C930 H904 0.950 . S
C930 C926 1.385 . S
C930 C929 1.374 . S
C931 C928 1.499 . S
C931 C932 1.373 . S
C931 C933 1.389 . S
C932 H905 0.950 . S
C932 C918 1.377 . S
C932 C931 1.373 . S
C933 C917 1.377 . S
C933 C931 1.389 . S
C933 C934 1.524 . S
C934 C933 1.524 . S
C934 C935 1.397 . S
C934 C939 1.363 . S
C935 H906 0.950 . S
C935 C934 1.397 . S
C935 C936 1.334 . S
C936 H907 0.950 . S
C936 C935 1.334 . S
C936 C937 1.287 . S
C937 C936 1.287 . S
C937 C938 1.524 . S
C937 H940 0.999 . S
C938 H908 0.950 . S
C938 C937 1.524 . S
C938 C939 1.415 . S
C939 H909 0.950 . S
C939 C934 1.363 . S
C939 C938 1.415 . S
H940 C937 0.999 . S
H941 C922 0.913 . S
H942 C960 0.951 . S
H943 C962 0.951 . S
H944 C964 0.950 . S
H945 C965 0.950 . S
H946 C967 0.950 . S
H947 C970 0.950 . S
H948 C971 0.950 . S
H949 C973 0.950 . S
H950 C974 0.950 . S
H951 C975 0.951 . S
H952 C977 0.951 . S
H953 C979 0.950 . S
H954 C980 0.950 . S
H955 C982 0.950 1_455 S
H956 C985 0.950 . S
H957 C986 0.950 . S
H958 C988 0.950 . S
H959 C989 0.950 . S
C960 H942 0.951 . S
C960 C961 1.366 . S
C960 C962 1.388 . S
C961 C960 1.366 . S
C961 C965 1.385 . S
C962 H943 0.951 . S
C962 C960 1.388 . S
C962 C963 1.366 . S
C963 C962 1.366 . S
C963 C964 1.414 . S
C963 C966 1.499 1_545 S
C964 H944 0.950 . S
C964 C963 1.414 . S
C964 C965 1.374 . S
C965 H945 0.950 . S
C965 C961 1.385 . S
C965 C964 1.374 . S
C966 C963 1.499 1_565 S
C966 C967 1.373 . S
C966 C968 1.389 . S
C967 H946 0.950 . S
C967 C966 1.373 . S
C967 C983 1.377 . S
C968 C966 1.389 . S
C968 C969 1.524 1_565 S
C968 C982 1.377 . S
C969 C968 1.524 1_545 S
C969 C970 1.397 . S
C969 C974 1.363 1_655 S
C970 H947 0.950 . S
C970 C969 1.397 . S
C970 C971 1.334 . S
C971 H948 0.950 . S
C971 C970 1.334 . S
C971 C972 1.287 1_655 S
C972 C971 1.287 1_455 S
C972 C973 1.524 . S
C972 H991 0.913 . S
C973 H949 0.950 . S
C973 C972 1.524 . S
C973 C974 1.415 . S
C974 H950 0.950 . S
C974 C969 1.363 1_455 S
C974 C973 1.415 . S
C975 H951 0.951 . S
C975 C976 1.366 1_655 S
C975 C977 1.388 . S
C976 C975 1.366 1_455 S
C976 C980 1.385 . S
C977 H952 0.951 . S
C977 C975 1.388 . S
C977 C978 1.366 . S
C978 C977 1.366 . S
C978 C979 1.414 1_655 S
C978 C981 1.499 . S
C979 H953 0.950 . S
C979 C978 1.414 1_455 S
C979 C980 1.374 . S
C980 H954 0.950 . S
C980 C976 1.385 . S
C980 C979 1.374 . S
C981 C978 1.499 . S
C981 C982 1.373 . S
C981 C983 1.389 . S
C982 H955 0.950 1_655 S
C982 C968 1.377 . S
C982 C981 1.373 . S
C983 C967 1.377 . S
C983 C981 1.389 . S
C983 C984 1.524 . S
C984 C983 1.524 . S
C984 C985 1.397 . S
C984 C989 1.363 . S
C985 H956 0.950 . S
C985 C984 1.397 . S
C985 C986 1.334 . S
C986 H957 0.950 . S
C986 C985 1.334 . S
C986 C987 1.287 . S
C987 C986 1.287 . S
C987 C988 1.524 . S
C987 H990 0.999 . S
C988 H958 0.950 . S
C988 C987 1.524 . S
C988 C989 1.415 . S
C989 H959 0.950 . S
C989 C984 1.363 . S
C989 C988 1.415 . S
H990 C987 0.999 . S
H991 C972 0.913 . S
H992 C1010 0.951 1_565 S
H993 C1012 0.951 . S
H994 C1014 0.950 . S
H995 C1015 0.950 . S
H996 C1017 0.950 . S
H997 C1020 0.950 . S
H998 C1021 0.991 . S
H999 C1023 0.950 . S
H1000 C1024 0.950 . S
H1001 C1025 0.951 . S
H1002 C1027 0.951 . S
H1003 C1029 0.950 . S
H1004 C1030 0.950 . S
H1005 C1032 0.950 . S
H1006 C1035 0.950 . S
H1007 C1036 0.950 . S
H1008 C1038 0.950 . S
H1009 C1039 0.950 . S
C1010 H992 0.951 1_545 S
C1010 C1011 1.366 . S
C1010 C1012 1.388 . S
C1011 C1010 1.366 . S
C1011 C1015 1.385 . S
C1012 H993 0.951 . S
C1012 C1010 1.388 . S
C1012 C1013 1.366 . S
C1013 C1012 1.366 . S
C1013 C1014 1.414 . S
C1013 C1016 1.499 . S
C1014 H994 0.950 . S
C1014 C1013 1.414 . S
C1014 C1015 1.374 . S
C1015 H995 0.950 . S
C1015 C1011 1.385 . S
C1015 C1014 1.374 . S
C1016 C1013 1.499 . S
C1016 C1017 1.373 . S
C1016 C1018 1.389 . S
C1017 H996 0.950 . S
C1017 C1016 1.373 . S
C1017 C1033 1.377 . S
C1018 C1016 1.389 . S
C1018 C1019 1.524 . S
C1018 C1032 1.377 . S
C1019 C1018 1.524 . S
C1019 C1020 1.397 . S
C1019 C1024 1.363 . S
C1020 H997 0.950 . S
C1020 C1019 1.397 . S
C1020 C1021 1.291 1_556 S
C1021 H998 0.991 . S
C1021 C1020 1.291 1_554 S
C1021 C1022 1.289 . S
C1022 C1021 1.289 . S
C1022 C1023 1.524 1_554 S
C1022 H1041 0.913 . S
C1023 H999 0.950 . S
C1023 C1022 1.524 1_556 S
C1023 C1024 1.415 . S
C1024 H1000 0.950 . S
C1024 C1019 1.363 . S
C1024 C1023 1.415 . S
C1025 H1001 0.951 . S
C1025 C1026 1.366 1_655 S
C1025 C1027 1.388 . S
C1026 C1025 1.366 1_455 S
C1026 C1030 1.385 . S
C1027 H1002 0.951 . S
C1027 C1025 1.388 . S
C1027 C1028 1.366 . S
C1028 C1027 1.366 . S
C1028 C1029 1.414 . S
C1028 C1031 1.499 . S
C1029 H1003 0.950 . S
C1029 C1028 1.414 . S
C1029 C1030 1.374 1_655 S
C1030 H1004 0.950 . S
C1030 C1026 1.385 . S
C1030 C1029 1.374 1_455 S
C1031 C1028 1.499 . S
C1031 C1032 1.373 . S
C1031 C1033 1.389 . S
C1032 H1005 0.950 . S
C1032 C1018 1.377 . S
C1032 C1031 1.373 . S
C1033 C1017 1.377 . S
C1033 C1031 1.389 . S
C1033 C1034 1.524 . S
C1034 C1033 1.524 . S
C1034 C1035 1.397 . S
C1034 C1039 1.363 . S
C1035 H1006 0.950 . S
C1035 C1034 1.397 . S
C1035 C1036 1.334 . S
C1036 H1007 0.950 . S
C1036 C1035 1.334 . S
C1036 C1037 1.287 . S
C1037 C1036 1.287 . S
C1037 C1038 1.524 . S
C1037 H1040 0.999 . S
C1038 H1008 0.950 . S
C1038 C1037 1.524 . S
C1038 C1039 1.415 . S
C1039 H1009 0.950 . S
C1039 C1034 1.363 . S
C1039 C1038 1.415 . S
H1040 C1037 0.999 . S
H1041 C1022 0.913 . S
H1042 C1060 0.951 . S
H1043 C1062 0.951 1_545 S
H1044 C1064 0.950 . S
H1045 C1065 0.950 . S
H1046 C1067 0.950 . S
H1047 C1070 0.952 . S
H1048 C1071 0.950 . S
H1049 C1073 0.950 . S
H1050 C1074 0.950 . S
H1051 C1075 0.951 . S
H1052 C1077 0.951 . S
H1053 C1079 0.950 . S
H1054 C1080 0.950 . S
H1055 C1082 0.950 . S
H1056 C1085 0.950 . S
H1057 C1086 0.950 . S
H1058 C1088 0.950 . S
H1059 C1089 0.950 . S
C1060 H1042 0.951 . S
C1060 C1061 1.366 . S
C1060 C1062 1.388 . S
C1061 C1060 1.366 . S
C1061 C1065 1.385 . S
C1062 H1043 0.951 1_565 S
C1062 C1060 1.388 . S
C1062 C1063 1.366 . S
C1063 C1062 1.366 . S
C1063 C1064 1.414 . S
C1063 C1066 1.499 1_565 S
C1064 H1044 0.950 . S
C1064 C1063 1.414 . S
C1064 C1065 1.374 . S
C1065 H1045 0.950 . S
C1065 C1061 1.385 . S
C1065 C1064 1.374 . S
C1066 C1063 1.499 1_545 S
C1066 C1067 1.373 . S
C1066 C1068 1.389 . S
C1067 H1046 0.950 . S
C1067 C1066 1.373 . S
C1067 C1083 1.377 . S
C1068 C1066 1.389 . S
C1068 C1069 1.524 . S
C1068 C1082 1.377 . S
C1069 C1068 1.524 . S
C1069 C1070 1.393 1_545 S
C1069 C1074 1.363 . S
C1070 H1047 0.952 . S
C1070 C1069 1.393 1_565 S
C1070 C1071 1.335 . S
C1071 H1048 0.950 . S
C1071 C1070 1.335 . S
C1071 C1072 1.287 1_565 S
C1072 C1071 1.287 1_545 S
C1072 C1073 1.524 . S
C1072 H1091 0.913 . S
C1073 H1049 0.950 . S
C1073 C1072 1.524 . S
C1073 C1074 1.415 . S
C1074 H1050 0.950 . S
C1074 C1069 1.363 . S
C1074 C1073 1.415 . S
C1075 H1051 0.951 . S
C1075 C1076 1.366 . S
C1075 C1077 1.388 . S
C1076 C1075 1.366 . S
C1076 C1080 1.385 . S
C1077 H1052 0.951 . S
C1077 C1075 1.388 . S
C1077 C1078 1.366 . S
C1078 C1077 1.366 . S
C1078 C1079 1.414 . S
C1078 C1081 1.499 . S
C1079 H1053 0.950 . S
C1079 C1078 1.414 . S
C1079 C1080 1.374 . S
C1080 H1054 0.950 . S
C1080 C1076 1.385 . S
C1080 C1079 1.374 . S
C1081 C1078 1.499 . S
C1081 C1082 1.373 . S
C1081 C1083 1.389 . S
C1082 H1055 0.950 . S
C1082 C1068 1.377 . S
C1082 C1081 1.373 . S
C1083 C1067 1.377 . S
C1083 C1081 1.389 . S
C1083 C1084 1.524 . S
C1084 C1083 1.524 . S
C1084 C1085 1.397 . S
C1084 C1089 1.363 . S
C1085 H1056 0.950 . S
C1085 C1084 1.397 . S
C1085 C1086 1.334 . S
C1086 H1057 0.950 . S
C1086 C1085 1.334 . S
C1086 C1087 1.287 . S
C1087 C1086 1.287 . S
C1087 C1088 1.524 . S
C1087 H1090 0.999 . S
C1088 H1058 0.950 . S
C1088 C1087 1.524 . S
C1088 C1089 1.415 . S
C1089 H1059 0.950 . S
C1089 C1084 1.363 . S
C1089 C1088 1.415 . S
H1090 C1087 0.999 . S
H1091 C1072 0.913 . S
H1092 C1110 0.951 . S
H1093 C1112 0.951 . S
H1094 C1114 0.950 . S
H1095 C1115 0.950 . S
H1096 C1117 0.950 . S
H1097 C1120 0.950 . S
H1098 C1121 0.950 . S
H1099 C1123 0.950 . S
H1100 C1124 0.950 . S
H1101 C1125 0.951 . S
H1102 C1127 0.951 . S
H1103 C1129 0.950 . S
H1104 C1130 0.950 . S
H1105 C1132 0.950 . S
H1106 C1135 0.950 . S
H1107 C1136 0.950 . S
H1108 C1138 0.950 . S
H1109 C1139 0.950 . S
C1110 H1092 0.951 . S
C1110 C1111 1.366 . S
C1110 C1112 1.388 . S
C1111 C1110 1.366 . S
C1111 C1115 1.385 . S
C1112 H1093 0.951 . S
C1112 C1110 1.388 . S
C1112 C1113 1.366 . S
C1113 C1112 1.366 . S
C1113 C1114 1.414 . S
C1113 C1116 1.499 . S
C1114 H1094 0.950 . S
C1114 C1113 1.414 . S
C1114 C1115 1.374 . S
C1115 H1095 0.950 . S
C1115 C1111 1.385 . S
C1115 C1114 1.374 . S
C1116 C1113 1.499 . S
C1116 C1117 1.373 . S
C1116 C1118 1.389 . S
C1117 H1096 0.950 . S
C1117 C1116 1.373 . S
C1117 C1133 1.377 . S
C1118 C1116 1.389 . S
C1118 C1119 1.524 . S
C1118 C1132 1.377 . S
C1119 C1118 1.524 . S
C1119 C1120 1.397 . S
C1119 C1124 1.363 . S
C1120 H1097 0.950 . S
C1120 C1119 1.397 . S
C1120 C1121 1.334 . S
C1121 H1098 0.950 . S
C1121 C1120 1.334 . S
C1121 C1122 1.287 . S
C1122 C1121 1.287 . S
C1122 C1123 1.524 . S
C1122 H1141 0.913 . S
C1123 H1099 0.950 . S
C1123 C1122 1.524 . S
C1123 C1124 1.415 . S
C1124 H1100 0.950 . S
C1124 C1119 1.363 . S
C1124 C1123 1.415 . S
C1125 H1101 0.951 . S
C1125 C1126 1.366 . S
C1125 C1127 1.388 . S
C1126 C1125 1.366 . S
C1126 C1130 1.385 . S
C1127 H1102 0.951 . S
C1127 C1125 1.388 . S
C1127 C1128 1.366 . S
C1128 C1127 1.366 . S
C1128 C1129 1.414 . S
C1128 C1131 1.499 . S
C1129 H1103 0.950 . S
C1129 C1128 1.414 . S
C1129 C1130 1.374 . S
C1130 H1104 0.950 . S
C1130 C1126 1.385 . S
C1130 C1129 1.374 . S
C1131 C1128 1.499 . S
C1131 C1132 1.373 . S
C1131 C1133 1.389 . S
C1132 H1105 0.950 . S
C1132 C1118 1.377 . S
C1132 C1131 1.373 . S
C1133 C1117 1.377 . S
C1133 C1131 1.389 . S
C1133 C1134 1.524 . S
C1134 C1133 1.524 . S
C1134 C1135 1.397 . S
C1134 C1139 1.363 . S
C1135 H1106 0.950 . S
C1135 C1134 1.397 . S
C1135 C1136 1.334 . S
C1136 H1107 0.950 . S
C1136 C1135 1.334 . S
C1136 C1137 1.287 . S
C1137 C1136 1.287 . S
C1137 C1138 1.524 . S
C1137 H1140 0.999 . S
C1138 H1108 0.950 . S
C1138 C1137 1.524 . S
C1138 C1139 1.415 . S
C1139 H1109 0.950 . S
C1139 C1134 1.363 . S
C1139 C1138 1.415 . S
H1140 C1137 0.999 . S
H1141 C1122 0.913 . S
H1142 C1160 0.951 . S
H1143 C1162 0.951 . S
H1144 C1164 0.950 . S
H1145 C1165 0.950 . S
H1146 C1167 0.950 . S
H1147 C1170 0.950 . S
H1148 C1171 0.950 1_455 S
H1149 C1173 0.950 . S
H1150 C1174 0.950 . S
H1151 C1175 0.951 . S
H1152 C1177 0.951 . S
H1153 C1179 0.950 . S
H1154 C1180 0.950 . S
H1155 C1182 0.950 . S
H1156 C1185 0.950 . S
H1157 C1186 0.950 . S
H1158 C1188 0.950 . S
H1159 C1189 0.950 . S
C1160 H1142 0.951 . S
C1160 C1161 1.366 . S
C1160 C1162 1.388 . S
C1161 C1160 1.366 . S
C1161 C1165 1.385 . S
C1162 H1143 0.951 . S
C1162 C1160 1.388 . S
C1162 C1163 1.366 . S
C1163 C1162 1.366 . S
C1163 C1164 1.414 . S
C1163 C1166 1.499 . S
C1164 H1144 0.950 . S
C1164 C1163 1.414 . S
C1164 C1165 1.374 . S
C1165 H1145 0.950 . S
C1165 C1161 1.385 . S
C1165 C1164 1.374 . S
C1166 C1163 1.499 . S
C1166 C1167 1.373 . S
C1166 C1168 1.389 . S
C1167 H1146 0.950 . S
C1167 C1166 1.373 . S
C1167 C1183 1.377 . S
C1168 C1166 1.389 . S
C1168 C1169 1.524 . S
C1168 C1182 1.377 . S
C1169 C1168 1.524 . S
C1169 C1170 1.397 . S
C1169 C1174 1.363 . S
C1170 H1147 0.950 . S
C1170 C1169 1.397 . S
C1170 C1171 1.334 . S
C1171 H1148 0.950 1_655 S
C1171 C1170 1.334 . S
C1171 C1172 1.287 . S
C1172 C1171 1.287 . S
C1172 C1173 1.524 . S
C1172 H1191 0.913 1_655 S
C1173 H1149 0.950 . S
C1173 C1172 1.524 . S
C1173 C1174 1.415 . S
C1174 H1150 0.950 . S
C1174 C1169 1.363 . S
C1174 C1173 1.415 . S
C1175 H1151 0.951 . S
C1175 C1176 1.366 . S
C1175 C1177 1.388 . S
C1176 C1175 1.366 . S
C1176 C1180 1.385 . S
C1177 H1152 0.951 . S
C1177 C1175 1.388 . S
C1177 C1178 1.366 . S
C1178 C1177 1.366 . S
C1178 C1179 1.414 . S
C1178 C1181 1.499 . S
C1179 H1153 0.950 . S
C1179 C1178 1.414 . S
C1179 C1180 1.374 . S
C1180 H1154 0.950 . S
C1180 C1176 1.385 . S
C1180 C1179 1.374 . S
C1181 C1178 1.499 . S
C1181 C1182 1.373 . S
C1181 C1183 1.389 . S
C1182 H1155 0.950 . S
C1182 C1168 1.377 . S
C1182 C1181 1.373 . S
C1183 C1167 1.377 . S
C1183 C1181 1.389 . S
C1183 C1184 1.524 . S
C1184 C1183 1.524 . S
C1184 C1185 1.397 . S
C1184 C1189 1.363 . S
C1185 H1156 0.950 . S
C1185 C1184 1.397 . S
C1185 C1186 1.334 . S
C1186 H1157 0.950 . S
C1186 C1185 1.334 . S
C1186 C1187 1.287 . S
C1187 C1186 1.287 . S
C1187 C1188 1.524 . S
C1187 H1190 0.999 . S
C1188 H1158 0.950 . S
C1188 C1187 1.524 . S
C1188 C1189 1.415 . S
C1189 H1159 0.950 . S
C1189 C1184 1.363 . S
C1189 C1188 1.415 . S
H1190 C1187 0.999 . S
H1191 C1172 0.913 1_455 S
H1192 C1210 0.951 . S
H1193 C1212 0.951 . S
H1194 C1214 0.950 . S
H1195 C1215 0.950 . S
H1196 C1217 0.950 . S
H1197 C1220 0.950 . S
H1198 C1221 0.950 . S
H1199 C1223 0.950 . S
H1200 C1224 0.950 . S
H1201 C1225 0.951 . S
H1202 C1227 0.951 . S
H1203 C1229 0.950 . S
H1204 C1230 0.950 . S
H1205 C1232 0.950 . S
H1206 C1235 0.950 . S
H1207 C1236 0.950 . S
H1208 C1238 0.950 . S
H1209 C1239 0.950 . S
C1210 H1192 0.951 . S
C1210 C1211 1.366 1_655 S
C1210 C1212 1.388 . S
C1211 C1210 1.366 1_455 S
C1211 C1215 1.385 . S
C1212 H1193 0.951 . S
C1212 C1210 1.388 . S
C1212 C1213 1.366 . S
C1213 C1212 1.366 . S
C1213 C1214 1.414 . S
C1213 C1216 1.499 . S
C1214 H1194 0.950 . S
C1214 C1213 1.414 . S
C1214 C1215 1.374 1_655 S
C1215 H1195 0.950 . S
C1215 C1211 1.385 . S
C1215 C1214 1.374 1_455 S
C1216 C1213 1.499 . S
C1216 C1217 1.373 . S
C1216 C1218 1.389 . S
C1217 H1196 0.950 . S
C1217 C1216 1.373 . S
C1217 C1233 1.377 . S
C1218 C1216 1.389 . S
C1218 C1219 1.524 . S
C1218 C1232 1.377 . S
C1219 C1218 1.524 . S
C1219 C1220 1.397 . S
C1219 C1224 1.363 . S
C1220 H1197 0.950 . S
C1220 C1219 1.397 . S
C1220 C1221 1.334 . S
C1221 H1198 0.950 . S
C1221 C1220 1.334 . S
C1221 C1222 1.287 . S
C1222 C1221 1.287 . S
C1222 C1223 1.524 . S
C1222 H1241 0.913 . S
C1223 H1199 0.950 . S
C1223 C1222 1.524 . S
C1223 C1224 1.415 . S
C1224 H1200 0.950 . S
C1224 C1219 1.363 . S
C1224 C1223 1.415 . S
C1225 H1201 0.951 . S
C1225 C1226 1.366 . S
C1225 C1227 1.388 . S
C1226 C1225 1.366 . S
C1226 C1230 1.385 . S
C1227 H1202 0.951 . S
C1227 C1225 1.388 . S
C1227 C1228 1.366 . S
C1228 C1227 1.366 . S
C1228 C1229 1.414 . S
C1228 C1231 1.499 . S
C1229 H1203 0.950 . S
C1229 C1228 1.414 . S
C1229 C1230 1.374 . S
C1230 H1204 0.950 . S
C1230 C1226 1.385 . S
C1230 C1229 1.374 . S
C1231 C1228 1.499 . S
C1231 C1232 1.373 . S
C1231 C1233 1.389 . S
C1232 H1205 0.950 . S
C1232 C1218 1.377 . S
C1232 C1231 1.373 . S
C1233 C1217 1.377 . S
C1233 C1231 1.389 . S
C1233 C1234 1.524 . S
C1234 C1233 1.524 . S
C1234 C1235 1.397 . S
C1234 C1239 1.363 . S
C1235 H1206 0.950 . S
C1235 C1234 1.397 . S
C1235 C1236 1.334 . S
C1236 H1207 0.950 . S
C1236 C1235 1.334 . S
C1236 C1237 1.287 . S
C1237 C1236 1.287 . S
C1237 C1238 1.524 . S
C1237 H1240 0.999 . S
C1238 H1208 0.950 . S
C1238 C1237 1.524 . S
C1238 C1239 1.415 . S
C1239 H1209 0.950 . S
C1239 C1234 1.363 . S
C1239 C1238 1.415 . S
H1240 C1237 0.999 . S
H1241 C1222 0.913 . S
H1242 C1260 0.951 . S
H1243 C1262 0.951 . S
H1244 C1264 0.950 . S
H1245 C1265 0.950 . S
H1246 C1267 0.950 . S
H1247 C1270 0.950 . S
H1248 C1271 0.950 . S
H1249 C1273 0.950 . S
H1250 C1274 0.950 . S
H1251 C1275 0.951 . S
H1252 C1277 0.951 . S
H1253 C1279 0.950 . S
H1254 C1280 0.950 . S
H1255 C1282 0.950 . S
H1256 C1285 0.950 . S
H1257 C1286 0.950 . S
H1258 C1288 0.950 . S
H1259 C1289 0.950 . S
C1260 H1242 0.951 . S
C1260 C1261 1.366 . S
C1260 C1262 1.388 . S
C1261 C1260 1.366 . S
C1261 C1265 1.385 . S
C1262 H1243 0.951 . S
C1262 C1260 1.388 . S
C1262 C1263 1.366 . S
C1263 C1262 1.366 . S
C1263 C1264 1.414 . S
C1263 C1266 1.499 . S
C1264 H1244 0.950 . S
C1264 C1263 1.414 . S
C1264 C1265 1.374 . S
C1265 H1245 0.950 . S
C1265 C1261 1.385 . S
C1265 C1264 1.374 . S
C1266 C1263 1.499 . S
C1266 C1267 1.373 . S
C1266 C1268 1.389 . S
C1267 H1246 0.950 . S
C1267 C1266 1.373 . S
C1267 C1283 1.377 . S
C1268 C1266 1.389 . S
C1268 C1269 1.524 . S
C1268 C1282 1.377 . S
C1269 C1268 1.524 . S
C1269 C1270 1.397 . S
C1269 C1274 1.363 . S
C1270 H1247 0.950 . S
C1270 C1269 1.397 . S
C1270 C1271 1.334 . S
C1271 H1248 0.950 . S
C1271 C1270 1.334 . S
C1271 C1272 1.287 . S
C1272 C1271 1.287 . S
C1272 C1273 1.524 . S
C1272 H1291 0.913 . S
C1273 H1249 0.950 . S
C1273 C1272 1.524 . S
C1273 C1274 1.415 . S
C1274 H1250 0.950 . S
C1274 C1269 1.363 . S
C1274 C1273 1.415 . S
C1275 H1251 0.951 . S
C1275 C1276 1.366 . S
C1275 C1277 1.388 . S
C1276 C1275 1.366 . S
C1276 C1280 1.385 . S
C1277 H1252 0.951 . S
C1277 C1275 1.388 . S
C1277 C1278 1.366 . S
C1278 C1277 1.366 . S
C1278 C1279 1.414 . S
C1278 C1281 1.499 . S
C1279 H1253 0.950 . S
C1279 C1278 1.414 . S
C1279 C1280 1.374 . S
C1280 H1254 0.950 . S
C1280 C1276 1.385 . S
C1280 C1279 1.374 . S
C1281 C1278 1.499 . S
C1281 C1282 1.373 . S
C1281 C1283 1.389 . S
C1282 H1255 0.950 . S
C1282 C1268 1.377 . S
C1282 C1281 1.373 . S
C1283 C1267 1.377 . S
C1283 C1281 1.389 . S
C1283 C1284 1.524 . S
C1284 C1283 1.524 . S
C1284 C1285 1.397 . S
C1284 C1289 1.363 . S
C1285 H1256 0.950 . S
C1285 C1284 1.397 . S
C1285 C1286 1.334 . S
C1286 H1257 0.950 . S
C1286 C1285 1.334 . S
C1286 C1287 1.287 . S
C1287 C1286 1.287 . S
C1287 C1288 1.524 . S
C1287 H1290 0.999 . S
C1288 H1258 0.950 . S
C1288 C1287 1.524 . S
C1288 C1289 1.415 . S
C1289 H1259 0.950 . S
C1289 C1284 1.363 . S
C1289 C1288 1.415 . S
H1290 C1287 0.999 . S
H1291 C1272 0.913 . S
H1292 C1310 0.951 . S
H1293 C1312 0.951 . S
H1294 C1314 0.950 . S
H1295 C1315 0.950 . S
H1296 C1317 0.950 . S
H1297 C1320 0.950 . S
H1298 C1321 0.950 . S
H1299 C1323 0.950 . S
H1300 C1324 0.950 . S
H1301 C1325 0.951 . S
H1302 C1327 0.951 . S
H1303 C1329 0.950 . S
H1304 C1330 0.950 . S
H1305 C1332 0.950 . S
H1306 C1335 0.950 . S
H1307 C1336 0.950 . S
H1308 C1338 0.950 . S
H1309 C1339 0.950 . S
C1310 H1292 0.951 . S
C1310 C1311 1.366 . S
C1310 C1312 1.388 . S
C1311 C1310 1.366 . S
C1311 C1315 1.385 . S
C1312 H1293 0.951 . S
C1312 C1310 1.388 . S
C1312 C1313 1.366 . S
C1313 C1312 1.366 . S
C1313 C1314 1.414 . S
C1313 C1316 1.499 . S
C1314 H1294 0.950 . S
C1314 C1313 1.414 . S
C1314 C1315 1.374 . S
C1315 H1295 0.950 . S
C1315 C1311 1.385 . S
C1315 C1314 1.374 . S
C1316 C1313 1.499 . S
C1316 C1317 1.373 . S
C1316 C1318 1.389 . S
C1317 H1296 0.950 . S
C1317 C1316 1.373 . S
C1317 C1333 1.377 . S
C1318 C1316 1.389 . S
C1318 C1319 1.524 . S
C1318 C1332 1.377 . S
C1319 C1318 1.524 . S
C1319 C1320 1.397 . S
C1319 C1324 1.363 . S
C1320 H1297 0.950 . S
C1320 C1319 1.397 . S
C1320 C1321 1.334 . S
C1321 H1298 0.950 . S
C1321 C1320 1.334 . S
C1321 C1322 1.287 . S
C1322 C1321 1.287 . S
C1322 C1323 1.524 . S
C1322 H1341 0.913 . S
C1323 H1299 0.950 . S
C1323 C1322 1.524 . S
C1323 C1324 1.415 . S
C1324 H1300 0.950 . S
C1324 C1319 1.363 . S
C1324 C1323 1.415 . S
C1325 H1301 0.951 . S
C1325 C1326 1.366 . S
C1325 C1327 1.388 . S
C1326 C1325 1.366 . S
C1326 C1330 1.385 . S
C1327 H1302 0.951 . S
C1327 C1325 1.388 . S
C1327 C1328 1.366 . S
C1328 C1327 1.366 . S
C1328 C1329 1.414 . S
C1328 C1331 1.499 . S
C1329 H1303 0.950 . S
C1329 C1328 1.414 . S
C1329 C1330 1.374 . S
C1330 H1304 0.950 . S
C1330 C1326 1.385 . S
C1330 C1329 1.374 . S
C1331 C1328 1.499 . S
C1331 C1332 1.373 . S
C1331 C1333 1.389 . S
C1332 H1305 0.950 . S
C1332 C1318 1.377 . S
C1332 C1331 1.373 . S
C1333 C1317 1.377 . S
C1333 C1331 1.389 . S
C1333 C1334 1.524 . S
C1334 C1333 1.524 . S
C1334 C1335 1.397 . S
C1334 C1339 1.363 . S
C1335 H1306 0.950 . S
C1335 C1334 1.397 . S
C1335 C1336 1.334 . S
C1336 H1307 0.950 . S
C1336 C1335 1.334 . S
C1336 C1337 1.287 . S
C1337 C1336 1.287 . S
C1337 C1338 1.524 . S
C1337 H1340 0.999 . S
C1338 H1308 0.950 . S
C1338 C1337 1.524 . S
C1338 C1339 1.415 . S
C1339 H1309 0.950 . S
C1339 C1334 1.363 . S
C1339 C1338 1.415 . S
H1340 C1337 0.999 . S
H1341 C1322 0.913 . S
H1342 C1360 0.951 . S
H1343 C1362 0.951 . S
H1344 C1364 0.950 . S
H1345 C1365 0.950 . S
H1346 C1367 0.950 . S
H1347 C1370 0.950 . S
H1348 C1371 0.950 . S
H1349 C1373 0.950 . S
H1350 C1374 0.950 . S
H1351 C1375 0.951 . S
H1352 C1377 0.951 . S
H1353 C1379 0.950 . S
H1354 C1380 0.950 . S
H1355 C1382 0.950 . S
H1356 C1385 0.950 . S
H1357 C1386 0.950 . S
H1358 C1388 0.950 . S
H1359 C1389 0.950 . S
C1360 H1342 0.951 . S
C1360 C1361 1.366 . S
C1360 C1362 1.388 . S
C1361 C1360 1.366 . S
C1361 C1365 1.385 . S
C1362 H1343 0.951 . S
C1362 C1360 1.388 . S
C1362 C1363 1.366 . S
C1363 C1362 1.366 . S
C1363 C1364 1.414 . S
C1363 C1366 1.499 . S
C1364 H1344 0.950 . S
C1364 C1363 1.414 . S
C1364 C1365 1.374 . S
C1365 H1345 0.950 . S
C1365 C1361 1.385 . S
C1365 C1364 1.374 . S
C1366 C1363 1.499 . S
C1366 C1367 1.373 . S
C1366 C1368 1.389 . S
C1367 H1346 0.950 . S
C1367 C1366 1.373 . S
C1367 C1383 1.377 . S
C1368 C1366 1.389 . S
C1368 C1369 1.524 . S
C1368 C1382 1.377 . S
C1369 C1368 1.524 . S
C1369 C1370 1.397 . S
C1369 C1374 1.363 . S
C1370 H1347 0.950 . S
C1370 C1369 1.397 . S
C1370 C1371 1.334 . S
C1371 H1348 0.950 . S
C1371 C1370 1.334 . S
C1371 C1372 1.287 . S
C1372 C1371 1.287 . S
C1372 C1373 1.524 . S
C1372 H1391 0.913 . S
C1373 H1349 0.950 . S
C1373 C1372 1.524 . S
C1373 C1374 1.415 . S
C1374 H1350 0.950 . S
C1374 C1369 1.363 . S
C1374 C1373 1.415 . S
C1375 H1351 0.951 . S
C1375 C1376 1.366 . S
C1375 C1377 1.388 . S
C1376 C1375 1.366 . S
C1376 C1380 1.385 . S
C1377 H1352 0.951 . S
C1377 C1375 1.388 . S
C1377 C1378 1.366 . S
C1378 C1377 1.366 . S
C1378 C1379 1.414 . S
C1378 C1381 1.499 . S
C1379 H1353 0.950 . S
C1379 C1378 1.414 . S
C1379 C1380 1.374 . S
C1380 H1354 0.950 . S
C1380 C1376 1.385 . S
C1380 C1379 1.374 . S
C1381 C1378 1.499 . S
C1381 C1382 1.373 . S
C1381 C1383 1.389 . S
C1382 H1355 0.950 . S
C1382 C1368 1.377 . S
C1382 C1381 1.373 . S
C1383 C1367 1.377 . S
C1383 C1381 1.389 . S
C1383 C1384 1.524 . S
C1384 C1383 1.524 . S
C1384 C1385 1.397 . S
C1384 C1389 1.363 . S
C1385 H1356 0.950 . S
C1385 C1384 1.397 . S
C1385 C1386 1.334 . S
C1386 H1357 0.950 . S
C1386 C1385 1.334 . S
C1386 C1387 1.287 . S
C1387 C1386 1.287 . S
C1387 C1388 1.524 . S
C1387 H1390 0.999 . S
C1388 H1358 0.950 . S
C1388 C1387 1.524 . S
C1388 C1389 1.415 . S
C1389 H1359 0.950 . S
C1389 C1384 1.363 . S
C1389 C1388 1.415 . S
H1390 C1387 0.999 . S
H1391 C1372 0.913 . S
H1392 C1410 0.951 1_455 S
H1393 C1412 0.951 . S
H1394 C1414 0.950 . S
H1395 C1415 0.950 1_455 S
H1396 C1417 0.950 . S
H1397 C1420 0.950 . S
H1398 C1421 0.950 . S
H1399 C1423 0.950 . S
H1400 C1424 0.950 . S
H1401 C1425 0.951 . S
H1402 C1427 0.951 . S
H1403 C1429 0.950 . S
H1404 C1430 0.950 . S
H1405 C1432 0.950 . S
H1406 C1435 0.950 . S
H1407 C1436 0.950 . S
H1408 C1438 0.950 . S
H1409 C1439 0.950 . S
C1410 H1392 0.951 1_655 S
C1410 C1411 1.366 1_655 S
C1410 C1412 1.388 . S
C1411 C1410 1.366 1_455 S
C1411 C1415 1.385 1_455 S
C1412 H1393 0.951 . S
C1412 C1410 1.388 . S
C1412 C1413 1.366 . S
C1413 C1412 1.366 . S
C1413 C1414 1.414 . S
C1413 C1416 1.499 . S
C1414 H1394 0.950 . S
C1414 C1413 1.414 . S
C1414 C1415 1.374 . S
C1415 H1395 0.950 1_655 S
C1415 C1411 1.385 1_655 S
C1415 C1414 1.374 . S
C1416 C1413 1.499 . S
C1416 C1417 1.373 . S
C1416 C1418 1.389 . S
C1417 H1396 0.950 . S
C1417 C1416 1.373 . S
C1417 C1433 1.377 . S
C1418 C1416 1.389 . S
C1418 C1419 1.524 . S
C1418 C1432 1.377 . S
C1419 C1418 1.524 . S
C1419 C1420 1.397 . S
C1419 C1424 1.363 . S
C1420 H1397 0.950 . S
C1420 C1419 1.397 . S
C1420 C1421 1.334 . S
C1421 H1398 0.950 . S
C1421 C1420 1.334 . S
C1421 C1422 1.287 . S
C1422 C1421 1.287 . S
C1422 C1423 1.524 . S
C1422 H1441 0.913 . S
C1423 H1399 0.950 . S
C1423 C1422 1.524 . S
C1423 C1424 1.415 . S
C1424 H1400 0.950 . S
C1424 C1419 1.363 . S
C1424 C1423 1.415 . S
C1425 H1401 0.951 . S
C1425 C1426 1.366 . S
C1425 C1427 1.388 . S
C1426 C1425 1.366 . S
C1426 C1430 1.385 . S
C1427 H1402 0.951 . S
C1427 C1425 1.388 . S
C1427 C1428 1.366 . S
C1428 C1427 1.366 . S
C1428 C1429 1.414 . S
C1428 C1431 1.499 . S
C1429 H1403 0.950 . S
C1429 C1428 1.414 . S
C1429 C1430 1.374 . S
C1430 H1404 0.950 . S
C1430 C1426 1.385 . S
C1430 C1429 1.374 . S
C1431 C1428 1.499 . S
C1431 C1432 1.373 . S
C1431 C1433 1.389 . S
C1432 H1405 0.950 . S
C1432 C1418 1.377 . S
C1432 C1431 1.373 . S
C1433 C1417 1.377 . S
C1433 C1431 1.389 . S
C1433 C1434 1.524 . S
C1434 C1433 1.524 . S
C1434 C1435 1.397 . S
C1434 C1439 1.363 . S
C1435 H1406 0.950 . S
C1435 C1434 1.397 . S
C1435 C1436 1.334 . S
C1436 H1407 0.950 . S
C1436 C1435 1.334 . S
C1436 C1437 1.287 . S
C1437 C1436 1.287 . S
C1437 C1438 1.524 . S
C1437 H1440 0.999 . S
C1438 H1408 0.950 . S
C1438 C1437 1.524 . S
C1438 C1439 1.415 . S
C1439 H1409 0.950 . S
C1439 C1434 1.363 . S
C1439 C1438 1.415 . S
H1440 C1437 0.999 . S
H1441 C1422 0.913 . S
H1442 C1460 0.951 . S
H1443 C1462 0.951 . S
H1444 C1464 0.950 . S
H1445 C1465 0.950 . S
H1446 C1467 0.950 . S
H1447 C1470 0.950 . S
H1448 C1471 0.950 . S
H1449 C1473 0.950 . S
H1450 C1474 0.950 . S
H1451 C1475 0.951 . S
H1452 C1477 0.951 . S
H1453 C1479 0.950 . S
H1454 C1480 0.950 . S
H1455 C1482 0.950 . S
H1456 C1485 0.950 . S
H1457 C1486 0.950 . S
H1458 C1488 0.948 1_655 S
H1459 C1489 0.950 . S
C1460 H1442 0.951 . S
C1460 C1461 1.366 . S
C1460 C1462 1.388 . S
C1461 C1460 1.366 . S
C1461 C1465 1.385 . S
C1462 H1443 0.951 . S
C1462 C1460 1.388 . S
C1462 C1463 1.366 . S
C1463 C1462 1.366 . S
C1463 C1464 1.414 . S
C1463 C1466 1.499 . S
C1464 H1444 0.950 . S
C1464 C1463 1.414 . S
C1464 C1465 1.374 . S
C1465 H1445 0.950 . S
C1465 C1461 1.385 . S
C1465 C1464 1.374 . S
C1466 C1463 1.499 . S
C1466 C1467 1.373 . S
C1466 C1468 1.389 . S
C1467 H1446 0.950 . S
C1467 C1466 1.373 . S
C1467 C1483 1.377 . S
C1468 C1466 1.389 . S
C1468 C1469 1.524 . S
C1468 C1482 1.377 . S
C1469 C1468 1.524 . S
C1469 C1470 1.397 . S
C1469 C1474 1.363 . S
C1470 H1447 0.950 . S
C1470 C1469 1.397 . S
C1470 C1471 1.334 . S
C1471 H1448 0.950 . S
C1471 C1470 1.334 . S
C1471 C1472 1.287 . S
C1472 C1471 1.287 . S
C1472 C1473 1.524 . S
C1472 H1491 0.913 . S
C1473 H1449 0.950 . S
C1473 C1472 1.524 . S
C1473 C1474 1.415 . S
C1474 H1450 0.950 . S
C1474 C1469 1.363 . S
C1474 C1473 1.415 . S
C1475 H1451 0.951 . S
C1475 C1476 1.366 . S
C1475 C1477 1.388 . S
C1476 C1475 1.366 . S
C1476 C1480 1.385 . S
C1477 H1452 0.951 . S
C1477 C1475 1.388 . S
C1477 C1478 1.366 . S
C1478 C1477 1.366 . S
C1478 C1479 1.414 . S
C1478 C1481 1.499 . S
C1479 H1453 0.950 . S
C1479 C1478 1.414 . S
C1479 C1480 1.374 . S
C1480 H1454 0.950 . S
C1480 C1476 1.385 . S
C1480 C1479 1.374 . S
C1481 C1478 1.499 . S
C1481 C1482 1.373 . S
C1481 C1483 1.389 . S
C1482 H1455 0.950 . S
C1482 C1468 1.377 . S
C1482 C1481 1.373 . S
C1483 C1467 1.377 . S
C1483 C1481 1.389 . S
C1483 C1484 1.524 . S
C1484 C1483 1.524 . S
C1484 C1485 1.397 1_655 S
C1484 C1489 1.363 . S
C1485 H1456 0.950 . S
C1485 C1484 1.397 1_455 S
C1485 C1486 1.334 . S
C1486 H1457 0.950 . S
C1486 C1485 1.334 . S
C1486 C1487 1.287 . S
C1487 C1486 1.287 . S
C1487 C1488 1.524 . S
C1487 H1490 0.999 . S
C1488 H1458 0.948 1_455 S
C1488 C1487 1.524 . S
C1488 C1489 1.415 1_455 S
C1489 H1459 0.950 . S
C1489 C1484 1.363 . S
C1489 C1488 1.415 1_655 S
H1490 C1487 0.999 . S
H1491 C1472 0.913 . S
H1492 C1510 0.951 . S
H1493 C1512 0.951 . S
H1494 C1514 0.950 . S
H1495 C1515 0.950 . S
H1496 C1517 0.950 . S
H1497 C1520 0.950 . S
H1498 C1521 0.950 . S
H1499 C1523 0.950 . S
H1500 C1524 0.950 . S
H1501 C1525 0.951 . S
H1502 C1527 0.951 . S
H1503 C1529 0.950 . S
H1504 C1530 0.950 . S
H1505 C1532 0.950 . S
H1506 C1535 0.950 . S
H1507 C1536 0.950 . S
H1508 C1538 0.950 . S
H1509 C1539 0.950 . S
C1510 H1492 0.951 . S
C1510 C1511 1.366 . S
C1510 C1512 1.388 . S
C1511 C1510 1.366 . S
C1511 C1515 1.385 . S
C1512 H1493 0.951 . S
C1512 C1510 1.388 . S
C1512 C1513 1.366 . S
C1513 C1512 1.366 . S
C1513 C1514 1.414 . S
C1513 C1516 1.499 . S
C1514 H1494 0.950 . S
C1514 C1513 1.414 . S
C1514 C1515 1.374 . S
C1515 H1495 0.950 . S
C1515 C1511 1.385 . S
C1515 C1514 1.374 . S
C1516 C1513 1.499 . S
C1516 C1517 1.373 . S
C1516 C1518 1.389 . S
C1517 H1496 0.950 . S
C1517 C1516 1.373 . S
C1517 C1533 1.377 . S
C1518 C1516 1.389 . S
C1518 C1519 1.524 . S
C1518 C1532 1.377 . S
C1519 C1518 1.524 . S
C1519 C1520 1.397 . S
C1519 C1524 1.363 . S
C1520 H1497 0.950 . S
C1520 C1519 1.397 . S
C1520 C1521 1.334 . S
C1521 H1498 0.950 . S
C1521 C1520 1.334 . S
C1521 C1522 1.287 . S
C1522 C1521 1.287 . S
C1522 C1523 1.524 . S
C1522 H1541 0.913 . S
C1523 H1499 0.950 . S
C1523 C1522 1.524 . S
C1523 C1524 1.415 . S
C1524 H1500 0.950 . S
C1524 C1519 1.363 . S
C1524 C1523 1.415 . S
C1525 H1501 0.951 . S
C1525 C1526 1.366 . S
C1525 C1527 1.388 . S
C1526 C1525 1.366 . S
C1526 C1530 1.385 . S
C1527 H1502 0.951 . S
C1527 C1525 1.388 . S
C1527 C1528 1.366 . S
C1528 C1527 1.366 . S
C1528 C1529 1.414 . S
C1528 C1531 1.499 . S
C1529 H1503 0.950 . S
C1529 C1528 1.414 . S
C1529 C1530 1.374 . S
C1530 H1504 0.950 . S
C1530 C1526 1.385 . S
C1530 C1529 1.374 . S
C1531 C1528 1.499 . S
C1531 C1532 1.373 . S
C1531 C1533 1.389 . S
C1532 H1505 0.950 . S
C1532 C1518 1.377 . S
C1532 C1531 1.373 . S
C1533 C1517 1.377 . S
C1533 C1531 1.389 . S
C1533 C1534 1.524 . S
C1534 C1533 1.524 . S
C1534 C1535 1.397 . S
C1534 C1539 1.363 . S
C1535 H1506 0.950 . S
C1535 C1534 1.397 . S
C1535 C1536 1.334 . S
C1536 H1507 0.950 . S
C1536 C1535 1.334 . S
C1536 C1537 1.287 . S
C1537 C1536 1.287 . S
C1537 C1538 1.524 . S
C1537 H1540 0.999 . S
C1538 H1508 0.950 . S
C1538 C1537 1.524 . S
C1538 C1539 1.415 . S
C1539 H1509 0.950 . S
C1539 C1534 1.363 . S
C1539 C1538 1.415 . S
H1540 C1537 0.999 . S
H1541 C1522 0.913 . S
H1542 C1560 0.951 . S
H1543 C1562 0.951 . S
H1544 C1564 0.950 . S
H1545 C1565 0.950 . S
H1546 C1567 0.950 . S
H1547 C1570 0.950 . S
H1548 C1571 0.950 . S
H1549 C1573 0.950 . S
H1550 C1574 0.950 . S
H1551 C1575 0.951 . S
H1552 C1577 0.951 . S
H1553 C1579 0.950 . S
H1554 C1580 0.950 . S
H1555 C1582 0.950 . S
H1556 C1585 0.950 . S
H1557 C1586 0.950 . S
H1558 C1588 0.950 . S
H1559 C1589 0.950 . S
C1560 H1542 0.951 . S
C1560 C1561 1.366 . S
C1560 C1562 1.388 . S
C1561 C1560 1.366 . S
C1561 C1565 1.385 . S
C1562 H1543 0.951 . S
C1562 C1560 1.388 . S
C1562 C1563 1.366 . S
C1563 C1562 1.366 . S
C1563 C1564 1.414 . S
C1563 C1566 1.499 . S
C1564 H1544 0.950 . S
C1564 C1563 1.414 . S
C1564 C1565 1.374 . S
C1565 H1545 0.950 . S
C1565 C1561 1.385 . S
C1565 C1564 1.374 . S
C1566 C1563 1.499 . S
C1566 C1567 1.373 . S
C1566 C1568 1.389 . S
C1567 H1546 0.950 . S
C1567 C1566 1.373 . S
C1567 C1583 1.377 . S
C1568 C1566 1.389 . S
C1568 C1569 1.524 . S
C1568 C1582 1.377 . S
C1569 C1568 1.524 . S
C1569 C1570 1.397 . S
C1569 C1574 1.363 . S
C1570 H1547 0.950 . S
C1570 C1569 1.397 . S
C1570 C1571 1.334 . S
C1571 H1548 0.950 . S
C1571 C1570 1.334 . S
C1571 C1572 1.287 . S
C1572 C1571 1.287 . S
C1572 C1573 1.524 . S
C1572 H1591 0.913 . S
C1573 H1549 0.950 . S
C1573 C1572 1.524 . S
C1573 C1574 1.415 . S
C1574 H1550 0.950 . S
C1574 C1569 1.363 . S
C1574 C1573 1.415 . S
C1575 H1551 0.951 . S
C1575 C1576 1.366 . S
C1575 C1577 1.388 . S
C1576 C1575 1.366 . S
C1576 C1580 1.385 . S
C1577 H1552 0.951 . S
C1577 C1575 1.388 . S
C1577 C1578 1.366 . S
C1578 C1577 1.366 . S
C1578 C1579 1.414 . S
C1578 C1581 1.499 . S
C1579 H1553 0.950 . S
C1579 C1578 1.414 . S
C1579 C1580 1.374 . S
C1580 H1554 0.950 . S
C1580 C1576 1.385 . S
C1580 C1579 1.374 . S
C1581 C1578 1.499 . S
C1581 C1582 1.373 . S
C1581 C1583 1.389 . S
C1582 H1555 0.950 . S
C1582 C1568 1.377 . S
C1582 C1581 1.373 . S
C1583 C1567 1.377 . S
C1583 C1581 1.389 . S
C1583 C1584 1.524 . S
C1584 C1583 1.524 . S
C1584 C1585 1.397 . S
C1584 C1589 1.363 . S
C1585 H1556 0.950 . S
C1585 C1584 1.397 . S
C1585 C1586 1.334 . S
C1586 H1557 0.950 . S
C1586 C1585 1.334 . S
C1586 C1587 1.287 . S
C1587 C1586 1.287 . S
C1587 C1588 1.524 . S
C1587 H1590 0.999 . S
C1588 H1558 0.950 . S
C1588 C1587 1.524 . S
C1588 C1589 1.415 . S
C1589 H1559 0.950 . S
C1589 C1584 1.363 . S
C1589 C1588 1.415 . S
H1590 C1587 0.999 . S
H1591 C1572 0.913 . S
H1592 C1610 0.951 . S
H1593 C1612 0.951 . S
H1594 C1614 0.950 . S
H1595 C1615 0.950 . S
H1596 C1617 0.950 . S
H1597 C1620 0.950 . S
H1598 C1621 0.950 . S
H1599 C1623 0.950 . S
H1600 C1624 0.950 . S
H1601 C1625 0.951 . S
H1602 C1627 0.951 . S
H1603 C1629 0.950 . S
H1604 C1630 0.950 . S
H1605 C1632 0.950 . S
H1606 C1635 0.950 . S
H1607 C1636 0.950 . S
H1608 C1638 0.950 . S
H1609 C1639 0.950 . S
C1610 H1592 0.951 . S
C1610 C1611 1.366 . S
C1610 C1612 1.388 . S
C1611 C1610 1.366 . S
C1611 C1615 1.385 . S
C1612 H1593 0.951 . S
C1612 C1610 1.388 . S
C1612 C1613 1.366 . S
C1613 C1612 1.366 . S
C1613 C1614 1.414 . S
C1613 C1616 1.499 . S
C1614 H1594 0.950 . S
C1614 C1613 1.414 . S
C1614 C1615 1.374 . S
C1615 H1595 0.950 . S
C1615 C1611 1.385 . S
C1615 C1614 1.374 . S
C1616 C1613 1.499 . S
C1616 C1617 1.373 . S
C1616 C1618 1.389 . S
C1617 H1596 0.950 . S
C1617 C1616 1.373 . S
C1617 C1633 1.377 . S
C1618 C1616 1.389 . S
C1618 C1619 1.524 . S
C1618 C1632 1.377 . S
C1619 C1618 1.524 . S
C1619 C1620 1.397 . S
C1619 C1624 1.363 . S
C1620 H1597 0.950 . S
C1620 C1619 1.397 . S
C1620 C1621 1.334 . S
C1621 H1598 0.950 . S
C1621 C1620 1.334 . S
C1621 C1622 1.287 . S
C1622 C1621 1.287 . S
C1622 C1623 1.524 . S
C1622 H1641 0.913 . S
C1623 H1599 0.950 . S
C1623 C1622 1.524 . S
C1623 C1624 1.415 . S
C1624 H1600 0.950 . S
C1624 C1619 1.363 . S
C1624 C1623 1.415 . S
C1625 H1601 0.951 . S
C1625 C1626 1.366 . S
C1625 C1627 1.388 . S
C1626 C1625 1.366 . S
C1626 C1630 1.385 . S
C1627 H1602 0.951 . S
C1627 C1625 1.388 . S
C1627 C1628 1.366 . S
C1628 C1627 1.366 . S
C1628 C1629 1.414 . S
C1628 C1631 1.499 . S
C1629 H1603 0.950 . S
C1629 C1628 1.414 . S
C1629 C1630 1.374 . S
C1630 H1604 0.950 . S
C1630 C1626 1.385 . S
C1630 C1629 1.374 . S
C1631 C1628 1.499 . S
C1631 C1632 1.373 . S
C1631 C1633 1.389 . S
C1632 H1605 0.950 . S
C1632 C1618 1.377 . S
C1632 C1631 1.373 . S
C1633 C1617 1.377 . S
C1633 C1631 1.389 . S
C1633 C1634 1.524 . S
C1634 C1633 1.524 . S
C1634 C1635 1.397 . S
C1634 C1639 1.363 . S
C1635 H1606 0.950 . S
C1635 C1634 1.397 . S
C1635 C1636 1.334 . S
C1636 H1607 0.950 . S
C1636 C1635 1.334 . S
C1636 C1637 1.287 . S
C1637 C1636 1.287 . S
C1637 C1638 1.524 . S
C1637 H1640 0.999 . S
C1638 H1608 0.950 . S
C1638 C1637 1.524 . S
C1638 C1639 1.415 . S
C1639 H1609 0.950 . S
C1639 C1634 1.363 . S
C1639 C1638 1.415 . S
H1640 C1637 0.999 . S
H1641 C1622 0.913 . S
H1642 C1660 0.951 . S
H1643 C1662 0.951 . S
H1644 C1664 0.950 . S
H1645 C1665 0.950 . S
H1646 C1667 0.950 . S
H1647 C1670 0.950 . S
H1648 C1671 0.950 . S
H1649 C1673 0.950 . S
H1650 C1674 0.950 . S
H1651 C1675 0.951 . S
H1652 C1677 0.951 . S
H1653 C1679 0.950 . S
H1654 C1680 0.950 . S
H1655 C1682 0.950 . S
H1656 C1685 0.950 . S
H1657 C1686 0.950 . S
H1658 C1688 0.950 . S
H1659 C1689 0.950 . S
C1660 H1642 0.951 . S
C1660 C1661 1.366 . S
C1660 C1662 1.388 . S
C1661 C1660 1.366 . S
C1661 C1665 1.385 . S
C1662 H1643 0.951 . S
C1662 C1660 1.388 . S
C1662 C1663 1.366 . S
C1663 C1662 1.366 . S
C1663 C1664 1.414 . S
C1663 C1666 1.499 . S
C1664 H1644 0.950 . S
C1664 C1663 1.414 . S
C1664 C1665 1.374 . S
C1665 H1645 0.950 . S
C1665 C1661 1.385 . S
C1665 C1664 1.374 . S
C1666 C1663 1.499 . S
C1666 C1667 1.373 . S
C1666 C1668 1.389 . S
C1667 H1646 0.950 . S
C1667 C1666 1.373 . S
C1667 C1683 1.377 . S
C1668 C1666 1.389 . S
C1668 C1669 1.524 . S
C1668 C1682 1.377 . S
C1669 C1668 1.524 . S
C1669 C1670 1.397 . S
C1669 C1674 1.363 . S
C1670 H1647 0.950 . S
C1670 C1669 1.397 . S
C1670 C1671 1.334 . S
C1671 H1648 0.950 . S
C1671 C1670 1.334 . S
C1671 C1672 1.287 . S
C1672 C1671 1.287 . S
C1672 C1673 1.524 . S
C1672 H1691 0.913 . S
C1673 H1649 0.950 . S
C1673 C1672 1.524 . S
C1673 C1674 1.415 . S
C1674 H1650 0.950 . S
C1674 C1669 1.363 . S
C1674 C1673 1.415 . S
C1675 H1651 0.951 . S
C1675 C1676 1.366 . S
C1675 C1677 1.388 . S
C1676 C1675 1.366 . S
C1676 C1680 1.385 . S
C1677 H1652 0.951 . S
C1677 C1675 1.388 . S
C1677 C1678 1.366 . S
C1678 C1677 1.366 . S
C1678 C1679 1.414 . S
C1678 C1681 1.499 . S
C1679 H1653 0.950 . S
C1679 C1678 1.414 . S
C1679 C1680 1.374 . S
C1680 H1654 0.950 . S
C1680 C1676 1.385 . S
C1680 C1679 1.374 . S
C1681 C1678 1.499 . S
C1681 C1682 1.373 . S
C1681 C1683 1.389 . S
C1682 H1655 0.950 . S
C1682 C1668 1.377 . S
C1682 C1681 1.373 . S
C1683 C1667 1.377 . S
C1683 C1681 1.389 . S
C1683 C1684 1.524 . S
C1684 C1683 1.524 . S
C1684 C1685 1.397 . S
C1684 C1689 1.363 . S
C1685 H1656 0.950 . S
C1685 C1684 1.397 . S
C1685 C1686 1.334 . S
C1686 H1657 0.950 . S
C1686 C1685 1.334 . S
C1686 C1687 1.287 . S
C1687 C1686 1.287 . S
C1687 C1688 1.524 . S
C1687 H1690 0.999 . S
C1688 H1658 0.950 . S
C1688 C1687 1.524 . S
C1688 C1689 1.415 . S
C1689 H1659 0.950 . S
C1689 C1684 1.363 . S
C1689 C1688 1.415 . S
H1690 C1687 0.999 . S
H1691 C1672 0.913 . S
H1692 C1710 0.951 . S
H1693 C1712 0.951 . S
H1694 C1714 0.950 . S
H1695 C1715 0.950 . S
H1696 C1717 0.950 . S
H1697 C1720 0.950 . S
H1698 C1721 0.950 . S
H1699 C1723 0.950 . S
H1700 C1724 0.950 . S
H1701 C1725 0.951 . S
H1702 C1727 0.951 . S
H1703 C1729 0.950 . S
H1704 C1730 0.950 . S
H1705 C1732 0.950 . S
H1706 C1735 0.950 . S
H1707 C1736 0.950 . S
H1708 C1738 0.950 . S
H1709 C1739 0.950 . S
C1710 H1692 0.951 . S
C1710 C1711 1.366 . S
C1710 C1712 1.388 . S
C1711 C1710 1.366 . S
C1711 C1715 1.385 . S
C1712 H1693 0.951 . S
C1712 C1710 1.388 . S
C1712 C1713 1.366 . S
C1713 C1712 1.366 . S
C1713 C1714 1.414 . S
C1713 C1716 1.499 . S
C1714 H1694 0.950 . S
C1714 C1713 1.414 . S
C1714 C1715 1.374 . S
C1715 H1695 0.950 . S
C1715 C1711 1.385 . S
C1715 C1714 1.374 . S
C1716 C1713 1.499 . S
C1716 C1717 1.373 . S
C1716 C1718 1.389 . S
C1717 H1696 0.950 . S
C1717 C1716 1.373 . S
C1717 C1733 1.377 . S
C1718 C1716 1.389 . S
C1718 C1719 1.524 . S
C1718 C1732 1.377 . S
C1719 C1718 1.524 . S
C1719 C1720 1.397 . S
C1719 C1724 1.363 . S
C1720 H1697 0.950 . S
C1720 C1719 1.397 . S
C1720 C1721 1.334 . S
C1721 H1698 0.950 . S
C1721 C1720 1.334 . S
C1721 C1722 1.287 . S
C1722 C1721 1.287 . S
C1722 C1723 1.524 . S
C1722 H1741 0.913 . S
C1723 H1699 0.950 . S
C1723 C1722 1.524 . S
C1723 C1724 1.415 . S
C1724 H1700 0.950 . S
C1724 C1719 1.363 . S
C1724 C1723 1.415 . S
C1725 H1701 0.951 . S
C1725 C1726 1.366 . S
C1725 C1727 1.388 . S
C1726 C1725 1.366 . S
C1726 C1730 1.385 . S
C1727 H1702 0.951 . S
C1727 C1725 1.388 . S
C1727 C1728 1.366 . S
C1728 C1727 1.366 . S
C1728 C1729 1.414 . S
C1728 C1731 1.499 . S
C1729 H1703 0.950 . S
C1729 C1728 1.414 . S
C1729 C1730 1.374 . S
C1730 H1704 0.950 . S
C1730 C1726 1.385 . S
C1730 C1729 1.374 . S
C1731 C1728 1.499 . S
C1731 C1732 1.373 . S
C1731 C1733 1.389 . S
C1732 H1705 0.950 . S
C1732 C1718 1.377 . S
C1732 C1731 1.373 . S
C1733 C1717 1.377 . S
C1733 C1731 1.389 . S
C1733 C1734 1.524 . S
C1734 C1733 1.524 . S
C1734 C1735 1.397 . S
C1734 C1739 1.363 . S
C1735 H1706 0.950 . S
C1735 C1734 1.397 . S
C1735 C1736 1.334 . S
C1736 H1707 0.950 . S
C1736 C1735 1.334 . S
C1736 C1737 1.287 . S
C1737 C1736 1.287 . S
C1737 C1738 1.524 . S
C1737 H1740 0.999 . S
C1738 H1708 0.950 . S
C1738 C1737 1.524 . S
C1738 C1739 1.415 . S
C1739 H1709 0.950 . S
C1739 C1734 1.363 . S
C1739 C1738 1.415 . S
H1740 C1737 0.999 . S
H1741 C1722 0.913 . S
H1742 C1760 0.951 . S
H1743 C1762 0.951 . S
H1744 C1764 0.950 . S
H1745 C1765 0.950 . S
H1746 C1767 0.950 . S
H1747 C1770 0.950 . S
H1748 C1771 0.950 . S
H1749 C1773 0.950 . S
H1750 C1774 0.950 . S
H1751 C1775 0.951 . S
H1752 C1777 0.951 . S
H1753 C1779 0.950 . S
H1754 C1780 0.950 . S
H1755 C1782 0.950 . S
H1756 C1785 0.950 . S
H1757 C1786 0.950 . S
H1758 C1788 0.950 . S
H1759 C1789 0.950 . S
C1760 H1742 0.951 . S
C1760 C1761 1.366 . S
C1760 C1762 1.388 . S
C1761 C1760 1.366 . S
C1761 C1765 1.385 . S
C1762 H1743 0.951 . S
C1762 C1760 1.388 . S
C1762 C1763 1.366 . S
C1763 C1762 1.366 . S
C1763 C1764 1.414 . S
C1763 C1766 1.499 . S
C1764 H1744 0.950 . S
C1764 C1763 1.414 . S
C1764 C1765 1.374 . S
C1765 H1745 0.950 . S
C1765 C1761 1.385 . S
C1765 C1764 1.374 . S
C1766 C1763 1.499 . S
C1766 C1767 1.373 . S
C1766 C1768 1.389 . S
C1767 H1746 0.950 . S
C1767 C1766 1.373 . S
C1767 C1783 1.377 . S
C1768 C1766 1.389 . S
C1768 C1769 1.524 . S
C1768 C1782 1.377 . S
C1769 C1768 1.524 . S
C1769 C1770 1.397 . S
C1769 C1774 1.363 . S
C1770 H1747 0.950 . S
C1770 C1769 1.397 . S
C1770 C1771 1.334 . S
C1771 H1748 0.950 . S
C1771 C1770 1.334 . S
C1771 C1772 1.287 . S
C1772 C1771 1.287 . S
C1772 C1773 1.524 . S
C1772 H1791 0.913 . S
C1773 H1749 0.950 . S
C1773 C1772 1.524 . S
C1773 C1774 1.415 . S
C1774 H1750 0.950 . S
C1774 C1769 1.363 . S
C1774 C1773 1.415 . S
C1775 H1751 0.951 . S
C1775 C1776 1.366 . S
C1775 C1777 1.388 . S
C1776 C1775 1.366 . S
C1776 C1780 1.385 . S
C1777 H1752 0.951 . S
C1777 C1775 1.388 . S
C1777 C1778 1.366 . S
C1778 C1777 1.366 . S
C1778 C1779 1.414 . S
C1778 C1781 1.499 . S
C1779 H1753 0.950 . S
C1779 C1778 1.414 . S
C1779 C1780 1.374 . S
C1780 H1754 0.950 . S
C1780 C1776 1.385 . S
C1780 C1779 1.374 . S
C1781 C1778 1.499 . S
C1781 C1782 1.373 . S
C1781 C1783 1.389 . S
C1782 H1755 0.950 . S
C1782 C1768 1.377 . S
C1782 C1781 1.373 . S
C1783 C1767 1.377 . S
C1783 C1781 1.389 . S
C1783 C1784 1.524 . S
C1784 C1783 1.524 . S
C1784 C1785 1.397 . S
C1784 C1789 1.363 . S
C1785 H1756 0.950 . S
C1785 C1784 1.397 . S
C1785 C1786 1.334 . S
C1786 H1757 0.950 . S
C1786 C1785 1.334 . S
C1786 C1787 1.287 . S
C1787 C1786 1.287 . S
C1787 C1788 1.524 . S
C1787 H1790 0.999 . S
C1788 H1758 0.950 . S
C1788 C1787 1.524 . S
C1788 C1789 1.415 . S
C1789 H1759 0.950 . S
C1789 C1784 1.363 . S
C1789 C1788 1.415 . S
H1790 C1787 0.999 . S
H1791 C1772 0.913 . S
H1792 C1810 0.951 . S
H1793 C1812 0.951 . S
H1794 C1814 0.950 . S
H1795 C1815 0.950 . S
H1796 C1817 0.950 . S
H1797 C1820 0.950 . S
H1798 C1821 0.950 . S
H1799 C1823 0.950 . S
H1800 C1824 0.950 . S
H1801 C1825 0.951 . S
H1802 C1827 0.951 . S
H1803 C1829 0.950 . S
H1804 C1830 0.950 . S
H1805 C1832 0.950 . S
H1806 C1835 0.950 . S
H1807 C1836 0.950 . S
H1808 C1838 0.950 . S
H1809 C1839 0.950 . S
C1810 H1792 0.951 . S
C1810 C1811 1.366 . S
C1810 C1812 1.388 . S
C1811 C1810 1.366 . S
C1811 C1815 1.385 . S
C1812 H1793 0.951 . S
C1812 C1810 1.388 . S
C1812 C1813 1.366 . S
C1813 C1812 1.366 . S
C1813 C1814 1.414 . S
C1813 C1816 1.499 . S
C1814 H1794 0.950 . S
C1814 C1813 1.414 . S
C1814 C1815 1.374 . S
C1815 H1795 0.950 . S
C1815 C1811 1.385 . S
C1815 C1814 1.374 . S
C1816 C1813 1.499 . S
C1816 C1817 1.373 . S
C1816 C1818 1.389 . S
C1817 H1796 0.950 . S
C1817 C1816 1.373 . S
C1817 C1833 1.377 . S
C1818 C1816 1.389 . S
C1818 C1819 1.524 . S
C1818 C1832 1.377 . S
C1819 C1818 1.524 . S
C1819 C1820 1.397 . S
C1819 C1824 1.363 . S
C1820 H1797 0.950 . S
C1820 C1819 1.397 . S
C1820 C1821 1.334 . S
C1821 H1798 0.950 . S
C1821 C1820 1.334 . S
C1821 C1822 1.287 . S
C1822 C1821 1.287 . S
C1822 C1823 1.524 . S
C1822 H1841 0.913 . S
C1823 H1799 0.950 . S
C1823 C1822 1.524 . S
C1823 C1824 1.415 . S
C1824 H1800 0.950 . S
C1824 C1819 1.363 . S
C1824 C1823 1.415 . S
C1825 H1801 0.951 . S
C1825 C1826 1.366 . S
C1825 C1827 1.388 . S
C1826 C1825 1.366 . S
C1826 C1830 1.385 . S
C1827 H1802 0.951 . S
C1827 C1825 1.388 . S
C1827 C1828 1.366 . S
C1828 C1827 1.366 . S
C1828 C1829 1.414 . S
C1828 C1831 1.499 . S
C1829 H1803 0.950 . S
C1829 C1828 1.414 . S
C1829 C1830 1.374 . S
C1830 H1804 0.950 . S
C1830 C1826 1.385 . S
C1830 C1829 1.374 . S
C1831 C1828 1.499 . S
C1831 C1832 1.373 . S
C1831 C1833 1.389 . S
C1832 H1805 0.950 . S
C1832 C1818 1.377 . S
C1832 C1831 1.373 . S
C1833 C1817 1.377 . S
C1833 C1831 1.389 . S
C1833 C1834 1.524 . S
C1834 C1833 1.524 . S
C1834 C1835 1.397 . S
C1834 C1839 1.363 . S
C1835 H1806 0.950 . S
C1835 C1834 1.397 . S
C1835 C1836 1.334 . S
C1836 H1807 0.950 . S
C1836 C1835 1.334 . S
C1836 C1837 1.287 . S
C1837 C1836 1.287 . S
C1837 C1838 1.524 . S
C1837 H1840 0.999 . S
C1838 H1808 0.950 . S
C1838 C1837 1.524 . S
C1838 C1839 1.415 . S
C1839 H1809 0.950 . S
C1839 C1834 1.363 . S
C1839 C1838 1.415 . S
H1840 C1837 0.999 . S
H1841 C1822 0.913 . S
H1842 C1860 0.951 . S
H1843 C1862 0.951 . S
H1844 C1864 0.950 . S
H1845 C1865 0.950 . S
H1846 C1867 0.950 . S
H1847 C1870 0.950 . S
H1848 C1871 0.950 . S
H1849 C1873 0.950 . S
H1850 C1874 0.950 . S
H1851 C1875 0.951 . S
H1852 C1877 0.951 . S
H1853 C1879 0.950 . S
H1854 C1880 0.950 . S
H1855 C1882 0.950 . S
H1856 C1885 0.950 . S
H1857 C1886 0.950 . S
H1858 C1888 0.950 . S
H1859 C1889 0.950 . S
C1860 H1842 0.951 . S
C1860 C1861 1.366 . S
C1860 C1862 1.388 . S
C1861 C1860 1.366 . S
C1861 C1865 1.385 . S
C1862 H1843 0.951 . S
C1862 C1860 1.388 . S
C1862 C1863 1.366 . S
C1863 C1862 1.366 . S
C1863 C1864 1.414 . S
C1863 C1866 1.499 . S
C1864 H1844 0.950 . S
C1864 C1863 1.414 . S
C1864 C1865 1.374 . S
C1865 H1845 0.950 . S
C1865 C1861 1.385 . S
C1865 C1864 1.374 . S
C1866 C1863 1.499 . S
C1866 C1867 1.373 . S
C1866 C1868 1.389 . S
C1867 H1846 0.950 . S
C1867 C1866 1.373 . S
C1867 C1883 1.377 . S
C1868 C1866 1.389 . S
C1868 C1869 1.524 . S
C1868 C1882 1.377 . S
C1869 C1868 1.524 . S
C1869 C1870 1.397 . S
C1869 C1874 1.363 . S
C1870 H1847 0.950 . S
C1870 C1869 1.397 . S
C1870 C1871 1.334 . S
C1871 H1848 0.950 . S
C1871 C1870 1.334 . S
C1871 C1872 1.287 . S
C1872 C1871 1.287 . S
C1872 C1873 1.524 . S
C1872 H1891 0.913 . S
C1873 H1849 0.950 . S
C1873 C1872 1.524 . S
C1873 C1874 1.415 . S
C1874 H1850 0.950 . S
C1874 C1869 1.363 . S
C1874 C1873 1.415 . S
C1875 H1851 0.951 . S
C1875 C1876 1.366 . S
C1875 C1877 1.388 . S
C1876 C1875 1.366 . S
C1876 C1880 1.385 . S
C1877 H1852 0.951 . S
C1877 C1875 1.388 . S
C1877 C1878 1.366 . S
C1878 C1877 1.366 . S
C1878 C1879 1.414 . S
C1878 C1881 1.499 . S
C1879 H1853 0.950 . S
C1879 C1878 1.414 . S
C1879 C1880 1.374 . S
C1880 H1854 0.950 . S
C1880 C1876 1.385 . S
C1880 C1879 1.374 . S
C1881 C1878 1.499 . S
C1881 C1882 1.373 . S
C1881 C1883 1.389 . S
C1882 H1855 0.950 . S
C1882 C1868 1.377 . S
C1882 C1881 1.373 . S
C1883 C1867 1.377 . S
C1883 C1881 1.389 . S
C1883 C1884 1.524 . S
C1884 C1883 1.524 . S
C1884 C1885 1.397 . S
C1884 C1889 1.363 . S
C1885 H1856 0.950 . S
C1885 C1884 1.397 . S
C1885 C1886 1.334 . S
C1886 H1857 0.950 . S
C1886 C1885 1.334 . S
C1886 C1887 1.287 . S
C1887 C1886 1.287 . S
C1887 C1888 1.524 . S
C1887 H1890 0.999 . S
C1888 H1858 0.950 . S
C1888 C1887 1.524 . S
C1888 C1889 1.415 . S
C1889 H1859 0.950 . S
C1889 C1884 1.363 . S
C1889 C1888 1.415 . S
H1890 C1887 0.999 . S
H1891 C1872 0.913 . S
C326 C228 1.820 . S
C311 C17 1.785 . S
C361 C30 1.705 . S
C376 C231 1.721 . S
C411 C61 1.682 . S
C426 C262 1.687 . S
C476 C197 1.792 . S
C461 C72 1.790 . S
C526 C232 1.804 . S
C511 C19 1.814 . S
C576 C263 1.819 . S
C561 C33 1.772 . S
C626 C188 1.762 . S
C611 C59 1.711 . S
C676 C219 1.752 . S
C661 C75 1.691 . S
C711 C12 1.258 . S
C726 C249 1.212 . S
C761 C101 1.246 . S
C776 C218 1.193 . S
C811 C51 1.145 . S
C826 C178 1.151 . S
C876 C271 1.164 . S
C861 C124 1.164 . S
C926 C199 1.216 . S
C911 C9 1.279 . S
C961 C103 1.193 . S
C976 C198 1.193 . S
C1011 C54 1.190 . S
C1026 C291 1.211 . S
C1076 C230 1.225 . S
C1061 C122 1.280 . S
C1111 C145 1.785 . S
C1126 C290 1.776 . S
C1161 C96 1.686 . S
C1176 C169 1.747 . S
C1211 C166 1.713 . S
C1226 C200 1.718 . S
C1261 C114 1.762 . S
C1276 C259 1.764 . S
C1326 C170 1.846 . S
C1311 C143 1.810 . S
C1361 C93 1.788 . S
C1376 C201 1.789 . S
C1411 C164 1.683 . S
C1426 C250 1.734 . S
C1476 C281 1.784 . S
C1461 C117 1.722 . S
C1511 C135 1.250 . S
C1526 C187 1.189 . S
C1561 C40 1.222 . S
C1576 C280 1.156 . S
C1611 C156 1.175 . S
C1626 C240 1.183 . S
C1676 C209 1.199 . S
C1661 C82 1.199 . S
C1726 C261 1.242 . S
C1711 C138 1.289 . S
C1776 C260 1.231 . S
C1761 C38 1.215 . S
C1826 C229 1.177 . S
C1811 C159 1.156 . S
C1876 C168 1.196 . S
C1861 C80 1.250 . S
