# Generated by pormake.
# Topology zzz, (3,6)-cn, num edge types: 1
# Building blocks:
#     Node 0, Type 0, BuildingBlock: MIDCAF_clean_linker_0, # of connection points: 3
#     Node 1, Type 0, BuildingBlock: MIDCAF_clean_linker_0, # of connection points: 3
#     Node 2, Type 0, BuildingBlock: MIDCAF_clean_linker_0, # of connection points: 3
#     Node 3, Type 0, BuildingBlock: MIDCAF_clean_linker_0, # of connection points: 3
#     Node 4, Type 0, BuildingBlock: MIDCAF_clean_linker_0, # of connection points: 3
#     Node 5, Type 0, BuildingBlock: MIDCAF_clean_linker_0, # of connection points: 3
#     Node 6, Type 0, BuildingBlock: MIDCAF_clean_linker_0, # of connection points: 3
#     Node 7, Type 0, BuildingBlock: MIDCAF_clean_linker_0, # of connection points: 3
#     Node 8, Type 1, BuildingBlock: KUMBUR_clean_sbu_0, # of connection points: 6
#     Node 9, Type 1, BuildingBlock: KUMBUR_clean_sbu_0, # of connection points: 6
#     Node 10, Type 1, BuildingBlock: KUMBUR_clean_sbu_0, # of connection points: 6
#     Node 11, Type 1, BuildingBlock: KUMBUR_clean_sbu_0, # of connection points: 6
#     Edge 12, Type (0, 1), BuildingBlock: XIVTED_clean_linker_0, # of connection points: 2
#     Edge 13, Type (0, 1), BuildingBlock: XIVTED_clean_linker_0, # of connection points: 2
#     Edge 14, Type (0, 1), BuildingBlock: XIVTED_clean_linker_0, # of connection points: 2
#     Edge 15, Type (0, 1), BuildingBlock: XIVTED_clean_linker_0, # of connection points: 2
#     Edge 16, Type (0, 1), BuildingBlock: XIVTED_clean_linker_0, # of connection points: 2
#     Edge 17, Type (0, 1), BuildingBlock: XIVTED_clean_linker_0, # of connection points: 2
#     Edge 18, Type (0, 1), BuildingBlock: XIVTED_clean_linker_0, # of connection points: 2
#     Edge 19, Type (0, 1), BuildingBlock: XIVTED_clean_linker_0, # of connection points: 2
#     Edge 20, Type (0, 1), BuildingBlock: XIVTED_clean_linker_0, # of connection points: 2
#     Edge 21, Type (0, 1), BuildingBlock: XIVTED_clean_linker_0, # of connection points: 2
#     Edge 22, Type (0, 1), BuildingBlock: XIVTED_clean_linker_0, # of connection points: 2
#     Edge 23, Type (0, 1), BuildingBlock: XIVTED_clean_linker_0, # of connection points: 2
#     Edge 24, Type (0, 1), BuildingBlock: XIVTED_clean_linker_0, # of connection points: 2
#     Edge 25, Type (0, 1), BuildingBlock: XIVTED_clean_linker_0, # of connection points: 2
#     Edge 26, Type (0, 1), BuildingBlock: XIVTED_clean_linker_0, # of connection points: 2
#     Edge 27, Type (0, 1), BuildingBlock: XIVTED_clean_linker_0, # of connection points: 2
#     Edge 28, Type (0, 1), BuildingBlock: XIVTED_clean_linker_0, # of connection points: 2
#     Edge 29, Type (0, 1), BuildingBlock: XIVTED_clean_linker_0, # of connection points: 2
#     Edge 30, Type (0, 1), BuildingBlock: XIVTED_clean_linker_0, # of connection points: 2
#     Edge 31, Type (0, 1), BuildingBlock: XIVTED_clean_linker_0, # of connection points: 2
#     Edge 32, Type (0, 1), BuildingBlock: XIVTED_clean_linker_0, # of connection points: 2
#     Edge 33, Type (0, 1), BuildingBlock: XIVTED_clean_linker_0, # of connection points: 2
#     Edge 34, Type (0, 1), BuildingBlock: XIVTED_clean_linker_0, # of connection points: 2
#     Edge 35, Type (0, 1), BuildingBlock: XIVTED_clean_linker_0, # of connection points: 2
# Relax obj value: 0.300
# Max RMSD: 0.227
# Mean RMSD: 0.213
data_MOF--net-zzz--node1-KUMBUR_clean_sbu_0--node2-MIDCAF_clean_linker_0--edge1-XIVTED_clean_linker_0
_symmetry_space_group_name_H-M    P1
_symmetry_Int_Tables_number       1
_symmetry_cell_setting            triclinic
loop_
_symmetry_equiv_pos_as_xyz
'x, y, z'
_cell_length_a     57.168891
_cell_length_b     56.980373
_cell_length_c     19.945698
_cell_angle_alpha  90.740794
_cell_angle_beta   90.06752
_cell_angle_gamma 89.958313
loop_
_atom_site_label
_atom_site_type_symbol
_atom_site_fract_x
_atom_site_fract_y
_atom_site_fract_z
_atom_type_partial_charge
C0 C 0.79898 0.55715 0.34164 0.0
C1 C 0.81312 0.53702 0.33376 0.0
C2 C 0.80762 0.52122 0.28098 0.0
C3 C 0.78985 0.5264 0.23454 0.0
H4 H 0.69783 0.53699 0.15311 0.0
H5 H 0.65982 0.52882 0.0995 0.0
H6 H 0.68618 0.55591 0.91313 0.0
H7 H 0.72331 0.56422 0.96571 0.0
H8 H 0.76236 0.59993 0.96119 0.0
H9 H 0.79159 0.61548 0.88496 0.0
H10 H 0.84309 0.61314 0.04384 0.0
H11 H 0.81393 0.59875 0.11982 0.0
H12 H 0.77227 0.57898 0.29945 0.0
H13 H 0.80216 0.56953 0.38226 0.0
H14 H 0.81811 0.50564 0.27252 0.0
H15 H 0.78748 0.51494 0.1913 0.0
N16 N 0.74472 0.54978 0.15446 0.0
N17 N 0.74955 0.57501 0.06281 0.0
N18 N 0.77836 0.5734 0.14533 0.0
C19 C 0.73639 0.55896 0.09573 0.0
C20 C 0.77044 0.58237 0.08709 0.0
C21 C 0.76584 0.55729 0.17939 0.0
C22 C 0.71368 0.5516 0.06436 0.0
C23 C 0.69548 0.54103 0.10063 0.0
C24 C 0.67368 0.53635 0.0698 0.0
C25 C 0.66965 0.54215 1.00209 0.0
C26 C 0.68821 0.55185 0.96572 0.0
C27 C 0.70973 0.55651 0.99618 0.0
C28 C 0.786 0.59726 0.04605 0.0
C29 C 0.77977 0.60342 0.98031 0.0
C30 C 0.79658 0.61229 0.93643 0.0
C31 C 0.81998 0.61495 0.95724 0.0
C32 C 0.82537 0.61141 0.0253 0.0
C33 C 0.80858 0.60277 0.06913 0.0
C34 C 0.77708 0.54742 0.23984 0.0
C35 C 0.78141 0.56237 0.29497 0.0
C36 C 0.97221 0.80986 0.34865 0.0
C37 C 0.99161 0.82419 0.33392 0.0
C38 C 1.00522 0.81794 0.27725 0.0
C39 C 0.9987 0.79913 0.2346 0.0
H40 H 0.95899 0.73318 0.97349 0.0
H41 H 0.96707 0.6968 0.91429 0.0
H42 H 0.9945 0.6671 0.09639 0.0
H43 H 0.9868 0.70437 0.15602 0.0
H44 H 0.92682 0.77531 0.97501 0.0
H45 H 0.90942 0.80738 0.91468 0.0
H46 H 0.88937 0.8405 0.10241 0.0
H47 H 0.90809 0.80872 0.16295 0.0
H48 H 0.94949 0.78198 0.31579 0.0
H49 H 0.96151 0.81344 0.39232 0.0
H50 H 0.02012 0.82845 0.26307 0.0
H51 H 0.00846 0.79612 0.18876 0.0
N52 N 0.97502 0.75298 0.16177 0.0
N53 N 0.94544 0.75541 0.07965 0.0
N54 N 0.94769 0.78398 0.16419 0.0
C55 C 0.96405 0.74378 0.1059 0.0
C56 C 0.93706 0.77532 0.1086 0.0
C57 C 0.96656 0.77323 0.19117 0.0
C58 C 0.97203 0.72185 0.07009 0.0
C59 C 0.96685 0.71901 1.00133 0.0
C60 C 0.97132 0.69787 0.96715 0.0
C61 C 0.98099 0.6785 1.00028 0.0
C62 C 0.98706 0.68152 0.0687 0.0
C63 C 0.98269 0.70294 0.10311 0.0
C64 C 0.9196 0.78995 0.0737 0.0
C65 C 0.91802 0.78901 1.0035 0.0
C66 C 0.90779 0.8075 0.96873 0.0
C67 C 0.89867 0.82715 1.00356 0.0
C68 C 0.89704 0.82615 0.07388 0.0
C69 C 0.90768 0.80787 0.10866 0.0
C70 C 0.97839 0.78603 0.24716 0.0
C71 C 0.96557 0.79132 0.30556 0.0
C72 C 0.70557 0.95875 0.34702 0.0
C73 C 0.69412 0.98057 0.34079 0.0
C74 C 0.70275 0.99622 0.29226 0.0
C75 C 0.72116 0.98971 0.24916 0.0
H76 H 0.78196 0.981 1.00409 0.0
H77 H 0.81806 0.98714 0.942 0.0
H78 H 0.8578 0.95969 0.10768 0.0
H79 H 0.82122 0.95378 0.17044 0.0
H80 H 0.75901 0.91044 0.9851 0.0
H81 H 0.73574 0.90154 0.8857 0.0
H82 H 0.673 0.92048 0.99447 0.0
H83 H 0.69601 0.9284 0.0938 0.0
H84 H 0.73082 0.93458 0.30616 0.0
H85 H 0.70014 0.94633 0.38451 0.0
H86 H 0.69444 0.01303 0.28451 0.0
H87 H 0.72621 1.00152 0.20958 0.0
N88 N 0.76624 0.9661 0.17689 0.0
N89 N 0.76491 0.94212 0.07997 0.0
N90 N 0.73354 0.94199 0.15465 0.0
C91 C 0.77655 0.95779 0.11931 0.0
C92 C 0.74351 0.93405 0.09708 0.0
C93 C 0.7447 0.95774 0.19508 0.0
C94 C 0.79878 0.96722 0.09245 0.0
C95 C 0.79847 0.97696 0.02812 0.0
C96 C 0.81917 0.98013 0.99212 0.0
C97 C 0.84088 0.97345 0.01906 0.0
C98 C 0.8414 0.96505 0.08534 0.0
C99 C 0.8205 0.96186 0.12163 0.0
C100 C 0.72944 0.92102 0.04655 0.0
C101 C 0.74015 0.91185 0.98843 0.0
C102 C 0.7268 0.90679 0.93133 0.0
C103 C 0.70259 0.91118 0.93109 0.0
C104 C 0.6916 0.917 0.99223 0.0
C105 C 0.7049 0.92176 0.04953 0.0
C106 C 0.73131 0.96734 0.25287 0.0
C107 C 0.7236 0.95212 0.30301 0.0
C108 C 0.61535 0.69174 0.02735 0.0
C109 C 0.61565 0.6974 0.95883 0.0
C110 C 0.61355 0.72118 0.94125 0.0
C111 C 0.60811 0.73824 0.98994 0.0
H112 H 0.60216 0.81308 0.06407 0.0
H113 H 0.59256 0.84945 1.00812 0.0
H114 H 0.52165 0.84486 0.08115 0.0
H115 H 0.53145 0.808 0.13772 0.0
H116 H 0.52586 0.75003 0.25652 0.0
H117 H 0.51216 0.72299 0.34338 0.0
H118 H 0.58337 0.70017 0.37518 0.0
H119 H 0.59671 0.7271 0.29043 0.0
H120 H 0.6084 0.70327 0.12741 0.0
H121 H 0.61686 0.67376 0.04364 0.0
H122 H 0.61439 0.72637 0.88928 0.0
H123 H 0.60474 0.75601 0.97393 0.0
N124 N 0.58704 0.76994 0.08808 0.0
N125 N 0.56434 0.77434 0.18623 0.0
N126 N 0.58474 0.73923 0.16382 0.0
C127 C 0.57308 0.78346 0.12806 0.0
C128 C 0.57065 0.75214 0.20465 0.0
C129 C 0.59285 0.74779 0.10534 0.0
C130 C 0.56754 0.80759 0.10523 0.0
C131 C 0.5846 0.82001 0.06934 0.0
C132 C 0.57911 0.841 0.03743 0.0
C133 C 0.55629 0.85013 0.03967 0.0
C134 C 0.53937 0.83822 0.0779 0.0
C135 C 0.545 0.81724 0.11089 0.0
C136 C 0.56237 0.7408 0.26696 0.0
C137 C 0.53855 0.73978 0.28395 0.0
C138 C 0.53071 0.72401 0.333 0.0
C139 C 0.5466 0.70915 0.3664 0.0
C140 C 0.57054 0.71139 0.35171 0.0
C141 C 0.57825 0.72688 0.30275 0.0
C142 C 0.6049 0.73185 0.0572 0.0
C143 C 0.61014 0.70876 0.07585 0.0
C144 C 0.22576 0.47213 0.88345 0.0
C145 C 0.20999 0.49066 0.89664 0.0
C146 C 0.21335 0.50416 0.95566 0.0
C147 C 0.23072 0.49816 1.00228 0.0
H148 H 0.31144 0.50467 0.12784 0.0
H149 H 0.34755 0.51398 0.18929 0.0
H150 H 0.35256 0.44172 0.251 0.0
H151 H 0.3164 0.43288 0.1925 0.0
H152 H 0.25378 0.43395 0.27218 0.0
H153 H 0.22188 0.42061 0.34135 0.0
H154 H 0.18335 0.39971 0.16353 0.0
H155 H 0.21501 0.41447 0.09416 0.0
H156 H 0.25356 0.45057 0.92112 0.0
H157 H 0.22416 0.46157 0.83817 0.0
H158 H 0.20152 0.51837 0.96839 0.0
H159 H 0.23153 0.50764 0.04966 0.0
N160 N 0.27837 0.47341 0.07209 0.0
N161 N 0.27399 0.44639 0.15972 0.0
N162 N 0.24396 0.45098 0.08155 0.0
C163 C 0.28729 0.4625 0.12747 0.0
C164 C 0.25238 0.44054 0.13711 0.0
C165 C 0.25665 0.46727 0.04871 0.0
C166 C 0.31086 0.4681 0.15572 0.0
C167 C 0.32047 0.49079 0.15396 0.0
C168 C 0.34122 0.49608 0.18933 0.0
C169 C 0.35296 0.47874 0.22668 0.0
C170 C 0.34381 0.45582 0.22512 0.0
C171 C 0.32307 0.45066 0.19078 0.0
C172 C 0.23658 0.42593 0.17776 0.0
C173 C 0.23882 0.42587 0.24782 0.0
C174 C 0.22043 0.41799 0.28768 0.0
C175 C 0.19954 0.40966 0.25823 0.0
C176 C 0.19876 0.4068 0.18805 0.0
C177 C 0.21696 0.41515 0.14819 0.0
C178 C 0.24527 0.47865 0.99095 0.0
C179 C 0.24301 0.46608 0.93031 0.0
C180 C 0.06222 0.20265 0.93553 0.0
C181 C 0.03864 0.19863 0.91874 0.0
C182 C 0.02169 0.2138 0.94776 0.0
C183 C 0.02813 0.23157 0.99442 0.0
H184 H 0.01645 0.30369 0.15746 0.0
H185 H 0.00812 0.341 0.21635 0.0
H186 H 0.08229 0.35371 0.23613 0.0
H187 H 0.09032 0.31658 0.17941 0.0
H188 H 0.1002 0.26459 0.29289 0.0
H189 H 0.11359 0.24072 0.3858 0.0
H190 H 0.10518 0.17832 0.26218 0.0
H191 H 0.09305 0.20206 0.16956 0.0
H192 H 0.08683 0.22178 0.99571 0.0
H193 H 0.0759 0.19141 0.91569 0.0
H194 H 1.00336 0.2116 0.93571 0.0
H195 H 0.01461 0.24201 0.01839 0.0
N196 N 0.05153 0.27099 0.08826 0.0
N197 N 0.07465 0.27092 0.18649 0.0
N198 N 0.07352 0.23764 0.11752 0.0
C199 C 0.05993 0.28241 0.1446 0.0
C200 C 0.08139 0.24855 0.17377 0.0
C201 C 0.05882 0.24843 0.07424 0.0
C202 C 0.05405 0.30719 0.16331 0.0
C203 C 0.03088 0.31486 0.1727 0.0
C204 C 0.02616 0.33621 0.20702 0.0
C205 C 0.04451 0.35035 0.23277 0.0
C206 C 0.06761 0.34318 0.21923 0.0
C207 C 0.07226 0.32197 0.18559 0.0
C208 C 0.09475 0.23518 0.2244 0.0
C209 C 0.10186 0.24582 0.28511 0.0
C210 C 0.10949 0.23209 0.33856 0.0
C211 C 0.10984 0.20744 0.33269 0.0
C212 C 0.10526 0.19718 0.2694 0.0
C213 C 0.09793 0.21088 0.21593 0.0
C214 C 0.05165 0.23452 0.01346 0.0
C215 C 0.06855 0.22018 0.98193 0.0
C216 C 0.32378 0.07087 0.93167 0.0
C217 C 0.32511 0.04769 0.907 0.0
C218 C 0.30741 0.03181 0.92599 0.0
C219 C 0.28945 0.03877 0.97048 0.0
H220 H 0.2202 0.02409 0.12923 0.0
H221 H 0.18327 0.01417 0.18492 0.0
H222 H 0.16406 0.08749 0.18845 0.0
H223 H 0.20071 0.09713 0.13308 0.0
H224 H 0.25053 0.10407 0.27661 0.0
H225 H 0.27054 0.10977 0.38334 0.0
H226 H 0.33714 0.1018 0.28331 0.0
H227 H 0.31733 0.09677 0.17695 0.0
H228 H 0.3064 0.09545 0.99637 0.0
H229 H 0.33709 0.08359 0.91913 0.0
H230 H 0.30771 0.01385 0.90756 0.0
H231 H 0.2767 0.02594 0.9863 0.0
N232 N 0.25081 0.06116 0.06048 0.0
N233 N 0.24787 0.0819 0.16314 0.0
N234 N 0.28314 0.08183 0.10469 0.0
C235 C 0.23778 0.06847 0.11455 0.0
C236 C 0.27053 0.08849 0.15913 0.0
C237 C 0.27359 0.06844 0.05489 0.0
C238 C 0.21317 0.06133 0.12583 0.0
C239 C 0.20757 0.03787 0.13927 0.0
C240 C 0.18657 0.03229 0.17226 0.0
C241 C 0.1707 0.05006 0.1921 0.0
C242 C 0.17562 0.07328 0.17366 0.0
C243 C 0.19663 0.07883 0.14154 0.0
C244 C 0.2823 0.09906 0.21852 0.0
C245 C 0.26948 0.10428 0.27702 0.0
C246 C 0.28094 0.10754 0.33835 0.0
C247 C 0.30541 0.10553 0.34234 0.0
C248 C 0.31827 0.10342 0.28245 0.0
C249 C 0.30684 0.1003 0.22114 0.0
C250 C 0.28905 0.06165 0.99765 0.0
C251 C 0.30615 0.07768 0.9764 0.0
C252 C 0.40373 0.33214 0.22492 0.0
C253 C 0.40383 0.32631 0.29332 0.0
C254 C 0.40666 0.30257 0.31039 0.0
C255 C 0.41239 0.28577 0.26121 0.0
H256 H 0.41853 0.21062 0.17789 0.0
H257 H 0.42829 0.17408 0.23287 0.0
H258 H 0.50028 0.18166 0.17149 0.0
H259 H 0.49028 0.21863 0.11567 0.0
H260 H 0.49416 0.27507 0.99115 0.0
H261 H 0.50773 0.30231 0.90465 0.0
H262 H 0.4368 0.32691 0.87895 0.0
H263 H 0.42356 0.29978 0.96324 0.0
H264 H 0.41065 0.32104 0.12446 0.0
H265 H 0.40167 0.35011 0.20903 0.0
H266 H 0.40616 0.29724 0.36228 0.0
H267 H 0.41632 0.26806 0.27679 0.0
N268 N 0.43364 0.25476 0.16148 0.0
N269 N 0.45636 0.25124 0.06311 0.0
N270 N 0.43544 0.28591 0.08712 0.0
C271 C 0.44779 0.24169 0.12087 0.0
C272 C 0.4497 0.27344 0.04568 0.0
C273 C 0.42749 0.27691 0.14522 0.0
C274 C 0.45364 0.21752 0.14243 0.0
C275 C 0.43637 0.20427 0.17484 0.0
C276 C 0.44196 0.18321 0.20622 0.0
C277 C 0.4651 0.17489 0.20701 0.0
C278 C 0.4823 0.18766 0.17226 0.0
C279 C 0.47657 0.20869 0.1397 0.0
C280 C 0.45779 0.28521 0.98381 0.0
C281 C 0.48148 0.28579 0.96519 0.0
C282 C 0.48925 0.30166 0.91633 0.0
C283 C 0.47342 0.31705 0.88472 0.0
C284 C 0.44957 0.31528 0.90103 0.0
C285 C 0.44193 0.29969 0.94979 0.0
C286 C 0.41518 0.2924 0.194 0.0
C287 C 0.40925 0.31539 0.17595 0.0
Tb288 Tb 0.03429 1.00629 0.68987 0.0
C289 C 0.9467 0.98508 0.5224 0.0
C290 C 0.95984 0.96095 0.4293 0.0
C291 C 0.92017 0.95675 0.47096 0.0
C292 C 0.96416 0.9784 0.4787 0.0
C293 C 0.9243 0.97479 0.51812 0.0
C294 C 0.93794 0.94981 0.42666 0.0
C295 C 0.9112 1.00228 0.60322 0.0
N296 N 0.95136 1.00251 0.56717 0.0
C297 C 0.93369 0.01189 0.60558 0.0
C298 C 0.90656 0.98339 0.56001 0.0
Tb299 Tb 0.98883 0.01709 0.56834 0.0
N300 N 0.98509 0.98958 0.48303 0.0
C301 C 1.0019 0.98513 0.43552 0.0
C302 C 0.97748 0.95553 0.38324 0.0
C303 C 0.99847 0.96791 0.38586 0.0
H304 H 0.93721 0.02633 0.63981 0.0
H305 H 0.01212 0.96415 0.34971 0.0
H306 H 0.93441 0.9362 0.38957 0.0
H307 H 0.89751 0.00937 0.63499 0.0
H308 H 0.01839 0.99417 0.43567 0.0
H309 H 0.01183 0.06413 0.89915 0.0
H310 H 0.97491 0.94218 0.34476 0.0
H311 H 0.08704 0.98941 0.64187 0.0
H312 H 0.00547 0.03231 0.81855 0.0
H313 H 0.12756 1.00404 0.64802 0.0
H314 H 0.90317 0.94844 0.46732 0.0
H315 H 0.04924 0.08585 0.90043 0.0
H316 H 0.0903 0.08961 0.85679 0.0
H317 H 0.88913 0.97596 0.55823 0.0
H318 H 0.12215 0.07319 0.7875 0.0
N319 N 0.03883 0.0354 0.77117 0.0
C320 C 0.02205 0.04106 0.81772 0.0
C321 C 0.0466 0.07165 0.86454 0.0
C322 C 0.06435 0.06477 0.82047 0.0
C323 C 0.02553 0.05937 0.86412 0.0
C324 C 0.05991 0.0462 0.77465 0.0
H325 H 0.13641 0.04077 0.71062 0.0
N326 N 0.07272 0.01798 0.69821 0.0
C327 C 0.11365 0.01369 0.67275 0.0
C328 C 0.07759 0.03715 0.73623 0.0
C329 C 0.09061 1.00542 0.6696 0.0
C330 C 0.11855 0.03446 0.7078 0.0
C331 C 0.1005 0.04616 0.74167 0.0
O332 O 0.053 0.97594 0.71578 0.0
O333 O 0.01123 0.99168 0.61395 0.0
O334 O 0.97444 0.99426 0.64611 0.0
O335 O 0.99875 1.00495 0.73438 0.0
O336 O 0.04433 0.97865 0.61717 0.0
O337 O 0.02546 0.98888 0.77892 0.0
O338 O 0.96514 0.04396 0.54614 0.0
O339 O 0.01275 0.03236 0.64166 0.0
O340 O 0.05199 0.02351 0.60575 0.0
O341 O 0.02358 0.02109 0.52085 0.0
O342 O 0.97908 0.0442 0.64247 0.0
O343 O 0.99456 0.03683 0.48136 0.0
C344 C 0.02454 0.97652 0.58726 0.0
C345 C 0.02636 0.94797 0.75545 0.0
C346 C 0.99068 0.9245 0.76438 0.0
C347 C 1.00349 0.94494 0.77979 0.0
C348 C 1.00135 0.9068 0.72508 0.0
C349 C 0.03669 0.92984 0.71722 0.0
C350 C 0.02419 0.90946 0.70203 0.0
C351 C 0.97879 0.99614 0.71116 0.0
C352 C 0.03841 0.97084 0.76316 0.0
C353 C 0.10476 0.06576 0.78333 0.0
C354 C 0.08665 0.07509 0.82277 0.0
C355 C 0.99932 0.04735 0.6688 0.0
C356 C 0.98359 0.07652 0.5016 0.0
C357 C 0.00649 0.08408 0.51608 0.0
C358 C 0.01133 0.10807 0.52576 0.0
C359 C 0.99279 0.12432 0.52243 0.0
C360 C 0.96547 0.09302 0.498 0.0
C361 C 0.97005 0.11679 0.50875 0.0
C362 C 0.04535 0.02496 0.54194 0.0
C363 C 0.97775 0.05145 0.49677 0.0
H364 H 0.9955 0.95875 0.80956 0.0
H365 H 0.99232 0.89055 0.71352 0.0
H366 H 0.05425 0.93163 0.69759 0.0
H367 H 0.03222 0.89569 0.67206 0.0
H368 H 0.02049 0.07136 0.52024 0.0
H369 H 0.99592 0.14298 0.52812 0.0
H370 H 0.94767 0.08745 0.48797 0.0
H371 H 0.95597 0.12945 0.50592 0.0
Tb372 Tb 0.51811 0.03592 0.68546 0.0
C373 C 0.53218 0.94894 0.51128 0.0
C374 C 0.55569 0.96361 0.42062 0.0
C375 C 0.56133 0.92369 0.45837 0.0
C376 C 0.53827 0.96706 0.47008 0.0
C377 C 0.543 0.92675 0.50441 0.0
C378 C 0.5677 0.94213 0.41654 0.0
C379 C 0.51487 0.91152 0.58255 0.0
N380 N 0.51432 0.95253 0.55452 0.0
C381 C 0.50467 0.93378 0.58712 0.0
C382 C 0.53447 0.90809 0.54205 0.0
Tb383 Tb 0.5006 0.99045 0.56687 0.0
N384 N 0.52623 0.98759 0.47597 0.0
C385 C 0.52947 1.00444 0.42799 0.0
C386 C 0.56011 0.98156 0.37553 0.0
C387 C 0.54657 1.00182 0.37834 0.0
H388 H 0.48941 0.93628 0.61834 0.0
H389 H 0.54933 0.01557 0.34226 0.0
H390 H 0.58139 0.93937 0.37974 0.0
H391 H 0.50758 0.89704 0.6102 0.0
H392 H 0.51959 0.02042 0.42652 0.0
H393 H 0.47481 1.00513 0.91241 0.0
H394 H 0.57338 0.97965 0.33709 0.0
H395 H 0.52367 0.09159 0.63736 0.0
H396 H 0.50385 1.00381 0.82486 0.0
H397 H 0.50185 0.12872 0.64871 0.0
H398 H 0.57012 0.90691 0.45312 0.0
H399 H 0.44736 0.03845 0.92178 0.0
H400 H 0.43477 0.07796 0.88167 0.0
H401 H 0.54229 0.8908 0.5382 0.0
H402 H 0.44194 0.11177 0.80899 0.0
N403 N 0.49333 0.03608 0.77837 0.0
C404 C 0.49234 0.01867 0.82543 0.0
C405 C 0.46027 0.03809 0.88204 0.0
C406 C 0.4623 0.05663 0.83748 0.0
C407 C 0.47572 0.01929 0.87686 0.0
C408 C 0.47938 0.05522 0.78638 0.0
H409 H 0.46725 0.13106 0.72288 0.0
N410 N 0.50089 0.07238 0.70098 0.0
C411 C 0.49618 0.1134 0.67578 0.0
C412 C 0.48319 0.074 0.74563 0.0
C413 C 0.50845 0.09227 0.66934 0.0
C414 C 0.47667 0.11464 0.7175 0.0
C415 C 0.47033 0.09499 0.75456 0.0
O416 O 0.54304 0.06165 0.71122 0.0
O417 O 0.52909 0.01105 0.60791 0.0
O418 O 0.51735 0.97235 0.65073 0.0
O419 O 0.52515 1.00164 0.7308 0.0
O420 O 0.54196 0.04448 0.60354 0.0
O421 O 0.54537 0.02735 0.75225 0.0
O422 O 0.47606 0.96627 0.52742 0.0
O423 O 0.48989 0.01481 0.64554 0.0
O424 O 0.50094 0.05346 0.60115 0.0
O425 O 0.49744 0.02452 0.51755 0.0
O426 O 0.47759 0.98125 0.65029 0.0
O427 O 0.47139 1.00292 0.51342 0.0
C428 C 0.5433 0.0239 0.57669 0.0
C429 C 0.58037 0.04414 0.71102 0.0
C430 C 0.61331 0.01867 0.68023 0.0
C431 C 0.59276 0.02297 0.71743 0.0
C432 C 0.62148 0.03619 0.63701 0.0
C433 C 0.58949 0.06167 0.66949 0.0
C434 C 0.60983 0.05762 0.63259 0.0
C435 C 0.52445 0.9794 0.71082 0.0
C436 C 0.55662 0.04666 0.74014 0.0
C437 C 0.45228 0.09597 0.80216 0.0
C438 C 0.44825 0.07677 0.8436 0.0
C439 C 0.47617 1.00174 0.67768 0.0
C440 C 0.43802 0.98162 0.54534 0.0
C441 C 0.42311 1.00119 0.54278 0.0
C442 C 0.40274 1.00245 0.58237 0.0
C443 C 0.39722 0.98346 0.62382 0.0
C444 C 0.43175 0.96259 0.58581 0.0
C445 C 0.41152 0.9636 0.62483 0.0
C446 C 0.49645 0.04661 0.53879 0.0
C447 C 0.46125 0.98258 0.51255 0.0
H448 H 0.58622 0.00981 0.75128 0.0
H449 H 0.63684 0.03338 0.60623 0.0
H450 H 0.58042 0.07821 0.66343 0.0
H451 H 0.61633 0.07098 0.59936 0.0
H452 H 0.42762 0.01554 0.51012 0.0
H453 H 0.38196 0.98396 0.65586 0.0
H454 H 0.44285 0.94724 0.58919 0.0
H455 H 0.40711 0.94909 0.65693 0.0
Tb456 Tb 0.53598 0.50889 0.58089 0.0
C457 C 0.43493 0.48739 0.66279 0.0
C458 C 0.40958 0.50432 0.57928 0.0
C459 C 0.39719 0.46951 0.63872 0.0
C460 C 0.43088 0.50416 0.61514 0.0
C461 C 0.41799 0.47011 0.67627 0.0
C462 C 0.39298 0.48661 0.59029 0.0
C463 C 0.44251 0.45666 0.76667 0.0
N464 N 0.45517 0.48864 0.69799 0.0
C465 C 0.45869 0.47422 0.75163 0.0
C466 C 0.4222 0.45438 0.72821 0.0
Tb467 Tb 0.48112 0.51748 0.66828 0.0
N468 N 0.44749 0.52079 0.60556 0.0
C469 C 0.44292 0.53922 0.56415 0.0
C470 C 0.40545 0.52247 0.53431 0.0
C471 C 0.42208 0.54015 0.52741 0.0
H472 H 0.47446 0.47572 0.78129 0.0
H473 H 0.41891 0.55452 0.4936 0.0
H474 H 0.37667 0.48627 0.56261 0.0
H475 H 0.44576 0.44487 0.80776 0.0
H476 H 0.4553 0.55317 0.55782 0.0
H477 H 0.59834 0.47095 0.75366 0.0
H478 H 0.38937 0.52319 0.5056 0.0
H479 H 0.54294 0.55071 0.46828 0.0
H480 H 0.56196 0.47256 0.6895 0.0
H481 H 0.57172 0.58157 0.44254 0.0
H482 H 0.38404 0.45625 0.64781 0.0
H483 H 0.62778 0.50244 0.74321 0.0
H484 H 0.64044 0.53967 0.68774 0.0
H485 H 0.40966 0.44081 0.74003 0.0
H486 H 0.63313 0.56996 0.60328 0.0
N487 N 0.56964 0.50528 0.64342 0.0
C488 C 0.57427 0.48662 0.6839 0.0
C489 C 0.6117 0.50329 0.71455 0.0
C490 C 0.60753 0.52167 0.67039 0.0
C491 C 0.59512 0.48552 0.72057 0.0
C492 C 0.58623 0.52199 0.63455 0.0
H493 H 0.60768 0.58555 0.5109 0.0
N494 N 0.56205 0.5377 0.5518 0.0
C495 C 0.57487 0.56974 0.48359 0.0
C496 C 0.58223 0.53889 0.58729 0.0
C497 C 0.55865 0.55217 0.49821 0.0
C498 C 0.5951 0.57198 0.52242 0.0
C499 C 0.59921 0.55618 0.57424 0.0
O500 O 0.54828 0.50244 0.48351 0.0
O501 O 0.49826 0.50718 0.57677 0.0
O502 O 0.4851 0.48018 0.64278 0.0
O503 O 0.52565 0.47725 0.63809 0.0
O504 O 0.5145 0.51771 0.49223 0.0
O505 O 0.54722 0.47467 0.55604 0.0
O506 O 0.46874 0.5241 0.76547 0.0
O507 O 0.5188 0.5191 0.6723 0.0
O508 O 0.53199 0.54621 0.60644 0.0
O509 O 0.49145 0.54911 0.61109 0.0
O510 O 0.50263 0.50886 0.75719 0.0
O511 O 0.46961 0.55167 0.69229 0.0
C512 C 0.49442 0.51311 0.51727 0.0
C513 C 0.53843 0.4654 0.44268 0.0
C514 C 0.50375 0.4448 0.40236 0.0
C515 C 0.51595 0.4563 0.45428 0.0
C516 C 0.51428 0.44237 0.33896 0.0
C517 C 0.54874 0.46265 0.37935 0.0
C518 C 0.53669 0.45115 0.32775 0.0
C519 C 0.50464 0.46784 0.64774 0.0
C520 C 0.55028 0.48002 0.49323 0.0
C521 C 0.61996 0.55668 0.612 0.0
C522 C 0.62413 0.53943 0.66001 0.0
C523 C 0.5227 0.51327 0.73183 0.0
C524 C 0.47805 0.56137 0.80553 0.0
C525 C 0.50079 0.56995 0.79506 0.0
C526 C 0.5127 0.58167 0.84712 0.0
C527 C 0.50159 0.5849 0.90945 0.0
C528 C 0.46716 0.5649 0.86776 0.0
C529 C 0.47891 0.57666 0.91946 0.0
C530 C 0.51244 0.55854 0.60137 0.0
C531 C 0.46647 0.54646 0.75517 0.0
H532 H 0.50775 0.45862 0.50285 0.0
H533 H 0.50535 0.43327 0.29837 0.0
H534 H 0.56592 0.46984 0.36948 0.0
H535 H 0.54469 0.44914 0.27886 0.0
H536 H 0.5094 0.56704 0.74732 0.0
H537 H 0.51032 0.59418 0.95009 0.0
H538 H 0.44976 0.5581 0.87677 0.0
H539 H 0.47047 0.57927 0.96753 0.0
Tb540 Tb 0.01932 0.54001 0.57388 0.0
C541 C 0.03142 0.4394 0.66809 0.0
C542 C 0.01508 0.41404 0.58204 0.0
C543 C 0.04745 0.40029 0.65016 0.0
C544 C 0.01569 0.43579 0.61668 0.0
C545 C 0.04713 0.42152 0.68667 0.0
C546 C 0.03143 0.39654 0.59789 0.0
C547 C 0.05934 0.44604 0.77995 0.0
N548 N 0.03043 0.46005 0.70231 0.0
C549 C 0.04338 0.46317 0.75971 0.0
C550 C 0.0615 0.42526 0.74264 0.0
Tb551 Tb 1.00429 0.48747 0.66393 0.0
N552 N 1.00028 0.45321 0.60267 0.0
C553 C 0.98245 0.44903 0.55826 0.0
C554 C 0.9977 0.41031 0.53378 0.0
C555 C 0.98108 0.42775 0.52269 0.0
H556 H 0.04197 0.47931 0.78849 0.0
H557 H 0.96725 0.42488 0.48642 0.0
H558 H 0.03144 0.37986 0.57121 0.0
H559 H 0.07001 0.44893 0.82414 0.0
H560 H 0.96938 0.46205 0.54839 0.0
H561 H 0.04212 0.60809 0.75446 0.0
H562 H 0.99665 0.39388 0.50594 0.0
H563 H 0.98848 0.54317 0.43086 0.0
H564 H 0.04485 0.56917 0.70044 0.0
H565 H 0.96244 0.57117 0.37621 0.0
H566 H 0.05956 0.38642 0.66313 0.0
H567 H 0.01367 0.63725 0.7131 0.0
H568 H 0.98336 0.64815 0.62772 0.0
H569 H 0.07382 0.41198 0.75849 0.0
H570 H 0.96179 0.63815 0.52437 0.0
N571 N 0.01776 0.57565 0.62934 0.0
C572 C 0.03231 0.58161 0.68154 0.0
C573 C 0.01482 0.62014 0.68893 0.0
C574 C 1.0009 0.61449 0.63335 0.0
C575 C 0.03091 0.60376 0.71233 0.0
C576 C 1.00311 0.59197 0.6037 0.0
H577 H 0.95418 0.60966 0.42971 0.0
N578 N 0.99509 0.56511 0.5166 0.0
C579 C 0.97043 0.57571 0.42386 0.0
C580 C 0.99134 0.58652 0.54527 0.0
C581 C 0.9854 0.55983 0.45529 0.0
C582 C 0.96575 0.59738 0.45428 0.0
C583 C 0.97649 0.60317 0.51528 0.0
O584 O 0.03975 0.53955 0.48561 0.0
O585 O 0.01876 0.50199 0.57498 0.0
O586 O 0.04251 0.48965 0.65111 0.0
O587 O 0.04665 0.53 0.64679 0.0
O588 O 0.01396 0.51726 0.48463 0.0
O589 O 0.05041 0.55948 0.57244 0.0
O590 O 0.99475 0.47435 0.7575 0.0
O591 O 1.00481 0.52538 0.66438 0.0
O592 O 0.98111 0.53904 0.57898 0.0
O593 O 0.97525 0.49894 0.59677 0.0
O594 O 0.01114 0.50973 0.75335 0.0
O595 O 0.96858 0.48093 0.68201 0.0
C596 C 0.01523 0.49734 0.51374 0.0
C597 C 0.07995 0.53907 0.51663 0.0
C598 C 0.10419 0.50377 0.50923 0.0
C599 C 0.0825 0.51506 0.50077 0.0
C600 C 0.12317 0.51681 0.53503 0.0
C601 C 0.09921 0.55171 0.54145 0.0
C602 C 0.12064 0.54057 0.55097 0.0
C603 C 0.05535 0.50887 0.6583 0.0
C604 C 0.05688 0.55061 0.51527 0.0
C605 C 0.97326 0.62519 0.54635 0.0
C606 C 0.9855 0.63087 0.60524 0.0
C607 C 0.00842 0.52974 0.72577 0.0
C608 C 0.95935 0.48914 0.7961 0.0
C609 C 0.95112 0.51203 0.7847 0.0
C610 C 0.94124 0.52524 0.83749 0.0
C611 C 0.93964 0.5153 0.90153 0.0
C612 C 0.95733 0.47947 0.86012 0.0
C613 C 0.94754 0.49252 0.91255 0.0
C614 C 0.96768 0.52004 0.57782 0.0
C615 C 0.97254 0.47605 0.74479 0.0
H616 H 0.06761 0.50508 0.48275 0.0
H617 H 0.14025 0.50889 0.54102 0.0
H618 H 0.09751 0.57011 0.55499 0.0
H619 H 0.13539 0.55041 0.57052 0.0
H620 H 0.95279 0.51972 0.73551 0.0
H621 H 0.93171 0.52495 0.9428 0.0
H622 H 0.96385 0.46198 0.86988 0.0
H623 H 0.94612 0.48499 0.96193 0.0
H624 H 0.12582 0.06848 0.19074 0.0
H625 H 0.09155 0.01229 0.54264 0.0
H626 H 0.16977 0.02072 0.30015 0.0
H627 H 0.04049 0.04668 0.41945 0.0
H628 H 0.12088 0.01801 0.45691 0.0
H629 H 0.09483 0.06285 0.27426 0.0
C630 C 0.12895 0.05669 0.23196 0.0
C631 C 0.15057 0.04502 0.23798 0.0
C632 C 0.10333 0.02452 0.44847 0.0
C633 C 0.11509 0.03868 0.33433 0.0
C634 C 0.08655 0.02159 0.49846 0.0
C635 C 0.06354 0.02952 0.48989 0.0
C636 C 0.09726 0.03558 0.38846 0.0
C637 C 0.05805 0.04041 0.42885 0.0
C638 C 0.11119 0.05347 0.27957 0.0
C639 C 0.15341 0.02987 0.29247 0.0
N640 N 0.07479 0.04325 0.38068 0.0
N641 N 0.13604 0.02731 0.33848 0.0
H642 H 0.44108 0.13324 0.21876 0.0
H643 H 0.51917 0.08829 0.52501 0.0
H644 H 0.50265 0.16918 0.29136 0.0
H645 H 0.46489 0.04615 0.43455 0.0
H646 H 0.51244 0.11848 0.44157 0.0
H647 H 0.44893 0.10138 0.29706 0.0
C648 C 0.45635 0.13438 0.25083 0.0
C649 C 0.47119 0.15404 0.2484 0.0
C650 C 0.50185 0.10273 0.43997 0.0
C651 C 0.4802 0.11757 0.33878 0.0
C652 C 0.50543 0.08564 0.48852 0.0
C653 C 0.49206 0.06501 0.48824 0.0
C654 C 0.48473 0.09927 0.39026 0.0
C655 C 0.47541 0.06193 0.43707 0.0
C656 C 0.46084 0.11614 0.29548 0.0
C657 C 0.49084 0.15435 0.29082 0.0
N658 N 0.47207 0.07895 0.39045 0.0
N659 N 0.49462 0.13656 0.33452 0.0
H660 H 0.38867 0.5105 0.20243 0.0
H661 H 0.46356 0.47629 0.52786 0.0
H662 H 0.36598 0.45996 0.34814 0.0
H663 H 0.47897 0.53661 0.40786 0.0
H664 H 0.42931 0.46818 0.45748 0.0
H665 H 0.42307 0.51879 0.27215 0.0
C666 C 0.39075 0.50118 0.249 0.0
C667 C 0.3742 0.48434 0.26865 0.0
C668 C 0.44009 0.48327 0.44654 0.0
C669 C 0.41403 0.49357 0.34861 0.0
C670 C 0.45956 0.48802 0.4872 0.0
C671 C 0.47354 0.50775 0.47544 0.0
C672 C 0.43491 0.49795 0.3923 0.0
C673 C 0.46825 0.52157 0.41965 0.0
C674 C 0.41055 0.50585 0.2887 0.0
C675 C 0.37832 0.4727 0.32953 0.0
N676 N 0.44931 0.51652 0.38042 0.0
N677 N 0.39772 0.47747 0.36694 0.0
H678 H 0.06939 0.36637 0.34303 0.0
H679 H 0.99063 0.48151 0.40629 0.0
H680 H 0.00915 0.38362 0.22275 0.0
H681 H 0.04942 0.46345 0.53047 0.0
H682 H 0.99744 0.44601 0.3382 0.0
H683 H 0.06263 0.40163 0.4112 0.0
C684 C 0.05481 0.3776 0.33033 0.0
C685 C 0.03999 0.37185 0.27595 0.0
C686 C 0.00879 0.44963 0.38057 0.0
C687 C 0.03192 0.41256 0.35564 0.0
C688 C 1.00486 0.46988 0.41958 0.0
C689 C 0.01889 0.47496 0.47572 0.0
C690 C 0.02731 0.43444 0.39656 0.0
C691 C 0.03759 0.45972 0.48927 0.0
C692 C 0.05087 0.39775 0.36991 0.0
C693 C 0.02104 0.38704 0.26397 0.0
N694 N 0.0412 0.44015 0.45023 0.0
N695 N 0.01763 0.40661 0.30313 0.0
H696 H 0.84525 0.95992 0.88725 0.0
H697 H 0.97657 1.00604 0.84662 0.0
H698 H 0.88573 0.98791 0.05238 0.0
H699 H 0.93858 0.97043 0.68863 0.0
H700 H 0.94443 0.99824 0.92349 0.0
H701 H 0.87957 0.96271 0.81511 0.0
C702 C 0.86135 0.96676 0.90843 0.0
C703 C 0.86238 0.97404 0.97606 0.0
C704 C 0.94306 0.99217 0.87197 0.0
C705 C 0.90211 0.97715 0.89304 0.0
C706 C 0.96147 0.99669 0.82771 0.0
C707 C 0.96008 0.98968 0.75994 0.0
C708 C 0.92293 0.98052 0.84867 0.0
C709 C 0.94016 0.97701 0.73955 0.0
C710 C 0.88104 0.96819 0.86713 0.0
C711 C 0.88401 0.98215 1.0007 0.0
N712 N 0.92233 0.97307 0.78337 0.0
N713 N 0.9029 0.9837 0.95913 0.0
H714 H 0.51714 0.8567 0.96221 0.0
H715 H 0.55807 0.98 0.80993 0.0
H716 H 0.58158 0.89071 0.0202 0.0
H717 H 0.50215 0.9377 0.72877 0.0
H718 H 0.56531 0.94966 0.89432 0.0
H719 H 0.50927 0.8887 0.88483 0.0
C720 C 0.52948 0.87106 0.95952 0.0
C721 C 0.55009 0.87088 0.9979 0.0
C722 C 0.55157 0.94697 0.85762 0.0
C723 C 0.54133 0.90762 0.90817 0.0
C724 C 0.54746 0.96426 0.80947 0.0
C725 C 0.52989 0.96109 0.76093 0.0
C726 C 0.53768 0.92657 0.85809 0.0
C727 C 0.51645 0.9405 0.7633 0.0
C728 C 0.5251 0.88925 0.9147 0.0
C729 C 0.56559 0.88992 0.99116 0.0
N730 N 0.52057 0.92413 0.81093 0.0
N731 N 0.56093 0.90745 0.9472 0.0
H732 H 0.63859 0.50515 0.01437 0.0
H733 H 0.553 0.55053 0.72339 0.0
H734 H 0.64733 0.57094 0.91263 0.0
H735 H 0.53926 0.4884 0.83746 0.0
H736 H 0.58763 0.55817 0.79257 0.0
H737 H 0.60203 0.49875 0.9521 0.0
C738 C 0.63278 0.51836 0.97953 0.0
C739 C 0.64637 0.5385 0.96849 0.0
C740 C 0.57709 0.54284 0.80271 0.0
C741 C 0.60449 0.53115 0.89626 0.0
C742 C 0.55743 0.53835 0.76262 0.0
C743 C 0.54378 0.5183 0.77305 0.0
C744 C 0.58301 0.52736 0.85448 0.0
C745 C 0.5497 0.50375 0.82679 0.0
C746 C 0.61193 0.51463 0.94363 0.0
C747 C 0.63787 0.55487 0.92202 0.0
N748 N 0.56898 0.5084 0.86501 0.0
N749 N 0.61767 0.55079 0.88761 0.0
H750 H 0.01631 0.6454 0.01389 0.0
H751 H 0.9738 0.56298 0.70596 0.0
H752 H 0.95329 0.65847 0.90091 0.0
H753 H 0.03028 0.54501 0.83884 0.0
H754 H 0.96623 0.5984 0.77475 0.0
H755 H 0.02191 0.60897 0.94943 0.0
C756 C 1.00352 0.64065 0.97603 0.0
C757 C 0.98437 0.65546 0.96304 0.0
C758 C 0.98032 0.58675 0.78887 0.0
C759 C 0.99093 0.61347 0.88768 0.0
C760 C 0.98472 0.56661 0.74927 0.0
C761 C 1.00322 0.55146 0.76544 0.0
C762 C 0.99437 0.59168 0.84549 0.0
C763 C 0.0162 0.55652 0.82373 0.0
C764 C 0.00682 0.6198 0.9388 0.0
C765 C 0.96864 0.64814 0.91224 0.0
N766 N 0.01172 0.57624 0.86103 0.0
N767 N 0.97231 0.62787 0.87653 0.0
H768 H 0.09204 0.21776 0.45778 0.0
H769 H 0.05022 0.09198 0.45926 0.0
H770 H 0.12719 0.16232 0.34763 0.0
H771 H 0.02843 0.14378 0.60606 0.0
H772 H 0.08646 0.11344 0.44372 0.0
H773 H 0.07856 0.1893 0.53762 0.0
C774 C 0.0977 0.19975 0.4512 0.0
C775 C 0.10983 0.19237 0.39336 0.0
C776 C 0.0741 0.11986 0.48074 0.0
C777 C 0.09331 0.15932 0.48392 0.0
C778 C 0.05333 0.10748 0.4899 0.0
C779 C 0.03578 0.11667 0.53184 0.0
C780 C 0.07703 0.14182 0.51257 0.0
C781 C 0.04102 0.13671 0.57066 0.0
C782 C 0.08973 0.18333 0.49702 0.0
C783 C 0.11672 0.16869 0.38921 0.0
N784 N 0.06087 0.14902 0.55862 0.0
N785 N 0.10762 0.15286 0.43234 0.0
H786 H 0.34898 0.11938 0.38795 0.0
H787 H 0.35476 1.0032 0.58868 0.0
H788 H 0.28855 0.07872 0.44406 0.0
H789 H 0.4143 0.04904 0.56584 0.0
H790 H 0.32911 0.03544 0.55979 0.0
H791 H 0.37168 0.09953 0.47432 0.0
C792 C 0.34031 0.10677 0.41956 0.0
C793 C 0.31699 0.10025 0.40721 0.0
C794 C 0.34777 0.03863 0.56209 0.0
C795 C 0.34288 0.07733 0.50565 0.0
C796 C 0.36251 0.02015 0.579 0.0
C797 C 0.38688 0.02307 0.57753 0.0
C798 C 0.35742 0.0601 0.54212 0.0
C799 C 0.39569 0.04561 0.56462 0.0
C800 C 0.35327 0.09544 0.46899 0.0
C801 C 0.30651 0.08424 0.45097 0.0
N802 N 0.38101 0.0631 0.54581 0.0
N803 N 0.31967 0.07293 0.49703 0.0
H804 H 0.43007 0.32608 0.40901 0.0
H805 H 0.46402 0.44974 0.32791 0.0
H806 H 0.38382 0.37066 0.29582 0.0
H807 H 0.49095 0.41558 0.50347 0.0
H808 H 0.42932 0.4249 0.33223 0.0
H809 H 0.44589 0.36045 0.46493 0.0
C810 C 0.42251 0.34296 0.39733 0.0
C811 C 0.40629 0.3454 0.34479 0.0
C812 C 0.44248 0.42316 0.37094 0.0
C813 C 0.42529 0.38515 0.40735 0.0
C814 C 0.46237 0.43723 0.36808 0.0
C815 C 0.48058 0.43414 0.41419 0.0
C816 C 0.44128 0.40528 0.4187 0.0
C817 C 0.47739 0.4182 0.46634 0.0
C818 C 0.4318 0.36276 0.42928 0.0
C819 C 0.39724 0.36795 0.33325 0.0
N820 N 0.45843 0.40382 0.46603 0.0
N821 N 0.40748 0.38705 0.36231 0.0
H822 H 0.19373 0.3972 0.39116 0.0
H823 H 0.08569 0.48202 0.39748 0.0
H824 H 0.1549 0.42102 0.2189 0.0
H825 H 0.13095 0.46914 0.56651 0.0
H826 H 0.10044 0.44648 0.3434 0.0
H827 H 0.16148 0.41008 0.46309 0.0
C828 C 0.17828 0.40458 0.3681 0.0
C829 C 0.17765 0.40896 0.29888 0.0
C830 C 0.10681 0.45115 0.39297 0.0
C831 C 0.14057 0.42343 0.38097 0.0
C832 C 0.09828 0.47144 0.42421 0.0
C833 C 0.10788 0.4792 0.48543 0.0
C834 C 0.12533 0.43879 0.42259 0.0
C835 C 0.12389 0.46444 0.51779 0.0
C836 C 0.1598 0.41181 0.40929 0.0
C837 C 0.15663 0.41759 0.27187 0.0
N838 N 0.13262 0.44528 0.48517 0.0
N839 N 0.13923 0.42506 0.31309 0.0
H840 H 0.88424 0.83595 0.87338 0.0
H841 H 0.97366 0.9387 0.8875 0.0
H842 H 0.90899 0.87117 0.05294 0.0
H843 H 0.95284 0.90237 0.70567 0.0
H844 H 0.93836 0.92491 0.94164 0.0
H845 H 0.89679 0.86965 0.80815 0.0
C846 C 0.8917 0.85095 0.8995 0.0
C847 C 0.89664 0.85004 0.96851 0.0
C848 C 0.94128 0.92023 0.88952 0.0
C849 C 0.9109 0.88871 0.89416 0.0
C850 C 0.9615 0.92823 0.85825 0.0
C851 C 0.96688 0.92081 0.79262 0.0
C852 C 0.92665 0.9042 0.85565 0.0
C853 C 0.95007 0.9075 0.75749 0.0
C854 C 0.89879 0.87026 0.86215 0.0
C855 C 0.90528 0.87055 0.99978 0.0
N856 N 0.93105 0.89905 0.78999 0.0
N857 N 0.91274 0.88872 0.96216 0.0
H858 H 0.65634 0.90222 0.89818 0.0
H859 H 0.66091 0.01229 0.67475 0.0
H860 H 0.72007 0.93119 0.81778 0.0
H861 H 0.59661 0.97409 0.70615 0.0
H862 H 0.68281 0.97803 0.70785 0.0
H863 H 0.63423 0.92259 0.81152 0.0
C864 C 0.66577 0.91228 0.86131 0.0
C865 C 0.69007 0.91558 0.86697 0.0
C866 C 0.6639 0.97693 0.70659 0.0
C867 C 0.66489 0.93898 0.76797 0.0
C868 C 0.65127 0.9966 0.68721 0.0
C869 C 0.62673 0.99651 0.6894 0.0
C870 C 0.65201 0.95712 0.73015 0.0
C871 C 0.61549 0.97544 0.70655 0.0
C872 C 0.65313 0.92388 0.81168 0.0
C873 C 0.70138 0.92824 0.81642 0.0
N874 N 0.6282 0.95679 0.72791 0.0
N875 N 0.68865 0.93995 0.77023 0.0
H876 H 0.58991 0.69814 0.84226 0.0
H877 H 0.55161 0.57598 0.92445 0.0
H878 H 0.63433 0.65247 0.95782 0.0
H879 H 0.52712 0.61007 0.74592 0.0
H880 H 0.58707 0.59979 0.92153 0.0
H881 H 0.57331 0.66413 0.7864 0.0
C882 C 0.59691 0.68107 0.8545 0.0
C883 C 0.61283 0.67827 0.90764 0.0
C884 C 0.57427 0.60171 0.88189 0.0
C885 C 0.59293 0.63897 0.84512 0.0
C886 C 0.55397 0.58824 0.88395 0.0
C887 C 0.53623 0.59164 0.83652 0.0
C888 C 0.5764 0.6193 0.83353 0.0
C889 C 0.5403 0.60725 0.78404 0.0
C890 C 0.58718 0.66148 0.82258 0.0
C891 C 0.62116 0.65549 0.91989 0.0
N892 N 0.55968 0.62106 0.78504 0.0
N893 N 0.61047 0.63664 0.89082 0.0
H894 H 0.82162 0.59533 0.83062 0.0
H895 H 0.94742 0.56554 0.91131 0.0
H896 H 0.86316 0.63675 0.96907 0.0
H897 H 0.91128 0.53802 0.73761 0.0
H898 H 0.92172 0.59974 0.91104 0.0
H899 H 0.85689 0.58396 0.77196 0.0
C900 C 0.83802 0.60281 0.84765 0.0
C901 C 0.83938 0.61611 0.90741 0.0
C902 C 0.91971 0.58658 0.8718 0.0
C903 C 0.88021 0.60209 0.84147 0.0
C904 C 0.93433 0.567 0.87225 0.0
C905 C 0.93084 0.54861 0.82592 0.0
C906 C 0.90096 0.5873 0.82621 0.0
C907 C 0.9142 0.55162 0.77509 0.0
C908 C 0.85835 0.59606 0.81408 0.0
C909 C 0.86132 0.62536 0.92553 0.0
N910 N 0.89936 0.57025 0.77782 0.0
N911 N 0.88098 0.61748 0.89429 0.0
H912 H 0.06266 0.17895 0.81069 0.0
H913 H 0.9721 0.07267 0.75358 0.0
H914 H 0.99962 0.16997 0.92641 0.0
H915 H 0.03973 0.07434 0.65897 0.0
H916 H 0.98073 0.11014 0.80948 0.0
H917 H 0.05352 0.14285 0.74818 0.0
C918 C 0.04688 0.1695 0.82326 0.0
C919 C 0.03203 0.17778 0.87494 0.0
C920 C 0.9938 0.10237 0.7768 0.0
C921 C 0.02131 0.13612 0.80196 0.0
C922 C 0.98887 0.08092 0.74483 0.0
C923 C 0.0055 0.06994 0.70323 0.0
C924 C 0.01543 0.11344 0.76631 0.0
C925 C 0.02671 0.08178 0.69238 0.0
C926 C 0.04166 0.14882 0.78711 0.0
C927 C 0.01158 0.16473 0.88698 0.0
N928 N 0.0311 0.10282 0.72391 0.0
N929 N 0.00693 0.14467 0.85117 0.0
H930 H 0.34791 0.07179 0.80702 0.0
H931 H 0.45132 0.97704 0.76804 0.0
H932 H 0.35011 1.0064 0.91351 0.0
H933 H 0.45005 0.04204 0.66038 0.0
H934 H 0.41368 0.98722 0.81912 0.0
H935 H 0.38427 0.06085 0.74969 0.0
C936 C 0.35595 0.05508 0.8183 0.0
C937 C 0.34582 0.04009 0.86578 0.0
C938 C 0.42164 0.99941 0.7848 0.0
C939 C 0.38775 0.02745 0.79998 0.0
C940 C 0.44319 0.99364 0.75586 0.0
C941 C 0.4542 0.00908 0.71179 0.0
C942 C 0.41067 0.02071 0.76885 0.0
C943 C 0.44254 0.03 0.69595 0.0
C944 C 0.37675 0.04884 0.78537 0.0
C945 C 0.357 0.0185 0.87712 0.0
N946 N 0.42149 0.03527 0.72474 0.0
N947 N 0.37734 0.01295 0.84497 0.0
H948 H 0.51315 0.34447 0.8945 0.0
H949 H 0.46835 0.43741 0.62646 0.0
H950 H 0.45192 0.33385 0.77104 0.0
H951 H 0.53593 0.44214 0.7217 0.0
H952 H 0.46285 0.39872 0.6758 0.0
H953 H 0.52296 0.37903 0.82849 0.0
C954 C 0.50195 0.34908 0.85289 0.0
C955 C 0.48148 0.33618 0.83912 0.0
C956 C 0.47903 0.40804 0.68534 0.0
C957 C 0.49243 0.37626 0.76388 0.0
C958 C 0.48218 0.43017 0.65713 0.0
C959 C 0.50264 0.44311 0.67001 0.0
C960 C 0.49634 0.39875 0.72759 0.0
C961 C 0.51998 0.43277 0.70995 0.0
C962 C 0.50749 0.36899 0.81544 0.0
C963 C 0.46758 0.34342 0.78481 0.0
N964 N 0.51633 0.41137 0.73794 0.0
N965 N 0.47317 0.36301 0.74986 0.0
H966 H 0.18801 0.53238 0.86374 0.0
H967 H 0.08322 0.4696 0.66107 0.0
H968 H 0.18329 0.45756 0.82964 0.0
H969 H 0.0835 0.54331 0.71294 0.0
H970 H 0.12187 0.46566 0.71245 0.0
H971 H 0.1518 0.53742 0.79976 0.0
C972 C 0.1795 0.51699 0.84278 0.0
C973 C 0.18896 0.49447 0.85264 0.0
C974 C 0.11352 0.48273 0.71262 0.0
C975 C 0.1473 0.50022 0.77839 0.0
C976 C 0.09135 0.48497 0.68349 0.0
C977 C 0.07974 0.50671 0.68411 0.0
C978 C 0.1244 0.5024 0.74243 0.0
C979 C 0.09159 0.52614 0.71198 0.0
C980 C 0.1588 0.51991 0.8059 0.0
C981 C 0.17709 0.47532 0.82293 0.0
N982 N 0.11313 0.52349 0.74039 0.0
N983 N 0.15696 0.47862 0.78766 0.0
H984 H 0.03433 0.84558 0.36097 0.0
H985 H 0.98351 0.9505 0.59198 0.0
H986 H 0.9605 0.85388 0.40048 0.0
H987 H 0.05199 0.95133 0.50248 0.0
H988 H 0.97527 0.91321 0.53248 0.0
H989 H 0.04169 0.88224 0.42221 0.0
C990 C 0.01958 0.85498 0.38216 0.0
C991 C 0.99668 0.84621 0.37475 0.0
C992 C 0.99204 0.92165 0.52544 0.0
C993 C 1.00522 0.88854 0.44694 0.0
C994 C 0.99665 0.94305 0.55895 0.0
C995 C 0.01814 0.95454 0.55009 0.0
C996 C 0.00927 0.91132 0.48402 0.0
C997 C 0.03498 0.94339 0.50942 0.0
C998 C 0.02387 0.87599 0.41762 0.0
C999 C 0.97853 0.85937 0.40531 0.0
N1000 N 0.03018 0.92258 0.47787 0.0
N1001 N 0.98318 0.87971 0.43983 0.0
H1002 H 0.66046 0.95024 0.39041 0.0
H1003 H 0.56933 0.04964 0.49198 0.0
H1004 H 0.67751 0.02407 0.38382 0.0
H1005 H 0.56773 0.98204 0.58598 0.0
H1006 H 0.60664 0.0392 0.43926 0.0
H1007 H 0.6246 0.96009 0.45096 0.0
C1008 C 0.65704 0.9685 0.4022 0.0
C1009 C 0.67249 0.98628 0.38127 0.0
C1010 C 0.59809 0.02655 0.47099 0.0
C1011 C 0.63057 0.99762 0.44932 0.0
C1012 C 0.57672 0.03243 0.50075 0.0
C1013 C 0.56501 0.01638 0.54153 0.0
C1014 C 0.60798 1.00436 0.48188 0.0
C1015 C 0.57575 0.9946 0.55289 0.0
C1016 C 0.63633 0.97407 0.43656 0.0
C1017 C 0.66624 0.00964 0.39713 0.0
N1018 N 0.5965 0.9891 0.52258 0.0
N1019 N 0.64578 0.01458 0.42945 0.0
H1020 H 0.56749 0.69343 0.48227 0.0
H1021 H 0.48096 0.58389 0.52725 0.0
H1022 H 0.5075 0.68083 0.3553 0.0
H1023 H 0.54871 0.58923 0.62133 0.0
H1024 H 0.48694 0.62258 0.47778 0.0
H1025 H 0.55742 0.65869 0.54656 0.0
C1026 C 0.55211 0.68348 0.46793 0.0
C1027 C 0.53856 0.69008 0.41229 0.0
C1028 C 0.5004 0.6154 0.5098 0.0
C1029 C 0.52673 0.65011 0.48689 0.0
C1030 C 0.49689 0.59336 0.53861 0.0
C1031 C 0.51437 0.58321 0.57841 0.0
C1032 C 0.52145 0.62755 0.52132 0.0
C1033 C 0.53482 0.59627 0.59055 0.0
C1034 C 0.54634 0.66361 0.50496 0.0
C1035 C 0.51848 0.67664 0.39774 0.0
N1036 N 0.53782 0.61765 0.56198 0.0
N1037 N 0.5133 0.65726 0.43435 0.0
H1038 H 0.83291 0.49577 0.3806 0.0
H1039 H 0.94333 0.56049 0.55122 0.0
H1040 H 0.84321 0.57082 0.3834 0.0
H1041 H 0.93615 0.48518 0.54138 0.0
H1042 H 0.90545 0.56436 0.4961 0.0
H1043 H 0.86935 0.49132 0.44422 0.0
C1044 C 0.8427 0.51134 0.39454 0.0
C1045 C 0.83464 0.53375 0.37636 0.0
C1046 C 0.9121 0.54695 0.50594 0.0
C1047 C 0.87661 0.5287 0.45005 0.0
C1048 C 0.93389 0.5447 0.53735 0.0
C1049 C 0.94346 0.52243 0.54984 0.0
C1050 C 0.89943 0.52679 0.4869 0.0
C1051 C 0.92984 0.50271 0.53212 0.0
C1052 C 0.86353 0.50876 0.43123 0.0
C1053 C 0.84821 0.5532 0.39696 0.0
N1054 N 0.90868 0.50535 0.50128 0.0
N1055 N 0.8684 0.55021 0.43225 0.0
loop_
_geom_bond_atom_site_label_1
_geom_bond_atom_site_label_2
_geom_bond_distance
_geom_bond_site_symmetry_2
_ccdc_geom_bond_type
C0 C1 1.384 . S
C0 H13 0.947 . S
C0 C35 1.382 . S
C1 C0 1.384 . S
C1 C2 1.378 . S
C2 C1 1.378 . S
C2 C3 1.378 . S
C2 H14 0.952 . S
C3 C2 1.378 . S
C3 H15 0.950 . S
C3 C34 1.383 . S
H4 C23 0.947 . S
H5 C24 0.946 . S
H6 C26 0.953 . S
H7 C27 0.945 . S
H8 C29 0.952 . S
H9 C30 0.949 . S
H10 C32 0.950 . S
H11 C33 0.948 . S
H12 C35 0.951 . S
H13 C0 0.947 . S
H14 C2 0.952 . S
H15 C3 0.950 . S
N16 C19 1.382 . S
N16 C21 1.363 . S
N17 C19 1.371 . S
N17 C20 1.372 . S
N18 C20 1.361 . S
N18 C21 1.377 . S
C19 N16 1.382 . S
C19 N17 1.371 . S
C19 C22 1.480 . S
C20 N17 1.372 . S
C20 N18 1.361 . S
C20 C28 1.457 . S
C21 N16 1.363 . S
C21 N18 1.377 . S
C21 C34 1.479 . S
C22 C19 1.480 . S
C22 C23 1.383 . S
C22 C27 1.385 . S
C23 H4 0.947 . S
C23 C22 1.383 . S
C23 C24 1.388 . S
C24 H5 0.946 . S
C24 C23 1.388 . S
C24 C25 1.384 . S
C25 C24 1.384 . S
C25 C26 1.377 . S
C26 H6 0.953 . S
C26 C25 1.377 . S
C26 C27 1.369 . S
C27 H7 0.945 . S
C27 C22 1.385 . S
C27 C26 1.369 . S
C28 C20 1.457 . S
C28 C29 1.372 . S
C28 C33 1.364 . S
C29 H8 0.952 . S
C29 C28 1.372 . S
C29 C30 1.389 1_554 S
C30 H9 0.949 . S
C30 C29 1.389 1_556 S
C30 C31 1.387 1_556 S
C31 C30 1.387 1_554 S
C31 C32 1.372 . S
C32 H10 0.950 . S
C32 C31 1.372 . S
C32 C33 1.379 . S
C33 H11 0.948 . S
C33 C28 1.364 . S
C33 C32 1.379 . S
C34 C3 1.383 . S
C34 C21 1.479 . S
C34 C35 1.398 . S
C35 C0 1.382 . S
C35 H12 0.951 . S
C35 C34 1.398 . S
C36 C37 1.384 . S
C36 H49 0.947 . S
C36 C71 1.382 . S
C37 C36 1.384 . S
C37 C38 1.378 . S
C38 C37 1.378 . S
C38 C39 1.378 . S
C38 H50 0.952 . S
C39 C38 1.378 . S
C39 H51 0.950 . S
C39 C70 1.383 . S
H40 C59 0.947 . S
H41 C60 0.946 . S
H42 C62 0.953 . S
H43 C63 0.945 . S
H44 C65 0.952 . S
H45 C66 0.949 1_556 S
H46 C68 0.950 . S
H47 C69 0.948 . S
H48 C71 0.951 . S
H49 C36 0.947 . S
H50 C38 0.952 . S
H51 C39 0.950 . S
N52 C55 1.382 . S
N52 C57 1.363 . S
N53 C55 1.371 . S
N53 C56 1.372 . S
N54 C56 1.361 . S
N54 C57 1.377 . S
C55 N52 1.382 . S
C55 N53 1.371 . S
C55 C58 1.480 . S
C56 N53 1.372 . S
C56 N54 1.361 . S
C56 C64 1.457 . S
C57 N52 1.363 . S
C57 N54 1.377 . S
C57 C70 1.479 . S
C58 C55 1.480 . S
C58 C59 1.383 . S
C58 C63 1.385 . S
C59 H40 0.947 . S
C59 C58 1.383 . S
C59 C60 1.388 . S
C60 H41 0.946 . S
C60 C59 1.388 . S
C60 C61 1.384 . S
C61 C60 1.384 . S
C61 C62 1.377 . S
C62 H42 0.953 . S
C62 C61 1.377 . S
C62 C63 1.369 . S
C63 H43 0.945 . S
C63 C58 1.385 . S
C63 C62 1.369 . S
C64 C56 1.457 . S
C64 C65 1.372 . S
C64 C69 1.364 . S
C65 H44 0.952 . S
C65 C64 1.372 . S
C65 C66 1.389 . S
C66 H45 0.949 1_554 S
C66 C65 1.389 . S
C66 C67 1.387 . S
C67 C66 1.387 . S
C67 C68 1.372 . S
C68 H46 0.950 . S
C68 C67 1.372 . S
C68 C69 1.379 . S
C69 H47 0.948 . S
C69 C64 1.364 . S
C69 C68 1.379 . S
C70 C39 1.383 . S
C70 C57 1.479 . S
C70 C71 1.398 . S
C71 C36 1.382 . S
C71 H48 0.951 . S
C71 C70 1.398 . S
C72 C73 1.384 . S
C72 H85 0.947 . S
C72 C107 1.382 . S
C73 C72 1.384 . S
C73 C74 1.378 . S
C74 C73 1.378 . S
C74 C75 1.378 . S
C74 H86 0.952 . S
C75 C74 1.378 . S
C75 H87 0.950 . S
C75 C106 1.383 . S
H76 C95 0.947 . S
H77 C96 0.946 . S
H78 C98 0.953 . S
H79 C99 0.945 . S
H80 C101 0.952 . S
H81 C102 0.949 1_556 S
H82 C104 0.950 . S
H83 C105 0.948 . S
H84 C107 0.951 . S
H85 C72 0.947 . S
H86 C74 0.952 . S
H87 C75 0.950 . S
N88 C91 1.382 . S
N88 C93 1.363 . S
N89 C91 1.371 . S
N89 C92 1.372 . S
N90 C92 1.361 . S
N90 C93 1.377 . S
C91 N88 1.382 . S
C91 N89 1.371 . S
C91 C94 1.480 . S
C92 N89 1.372 . S
C92 N90 1.361 . S
C92 C100 1.457 . S
C93 N88 1.363 . S
C93 N90 1.377 . S
C93 C106 1.479 . S
C94 C91 1.480 . S
C94 C95 1.383 . S
C94 C99 1.385 . S
C95 H76 0.947 . S
C95 C94 1.383 . S
C95 C96 1.388 . S
C96 H77 0.946 . S
C96 C95 1.388 . S
C96 C97 1.384 . S
C97 C96 1.384 . S
C97 C98 1.377 . S
C98 H78 0.953 . S
C98 C97 1.377 . S
C98 C99 1.369 . S
C99 H79 0.945 . S
C99 C94 1.385 . S
C99 C98 1.369 . S
C100 C92 1.457 . S
C100 C101 1.372 . S
C100 C105 1.364 . S
C101 H80 0.952 . S
C101 C100 1.372 . S
C101 C102 1.389 . S
C102 H81 0.949 1_554 S
C102 C101 1.389 . S
C102 C103 1.387 . S
C103 C102 1.387 . S
C103 C104 1.372 . S
C104 H82 0.950 . S
C104 C103 1.372 . S
C104 C105 1.379 . S
C105 H83 0.948 . S
C105 C100 1.364 . S
C105 C104 1.379 . S
C106 C75 1.383 . S
C106 C93 1.479 . S
C106 C107 1.398 . S
C107 C72 1.382 . S
C107 H84 0.951 . S
C107 C106 1.398 . S
C108 C109 1.384 . S
C108 H121 0.947 . S
C108 C143 1.382 . S
C109 C108 1.384 . S
C109 C110 1.378 1_554 S
C110 C109 1.378 1_556 S
C110 C111 1.378 1_556 S
C110 H122 0.952 . S
C111 C110 1.378 1_554 S
C111 H123 0.950 . S
C111 C142 1.383 . S
H112 C131 0.947 . S
H113 C132 0.946 . S
H114 C134 0.953 . S
H115 C135 0.945 . S
H116 C137 0.952 . S
H117 C138 0.949 . S
H118 C140 0.950 . S
H119 C141 0.948 . S
H120 C143 0.951 . S
H121 C108 0.947 . S
H122 C110 0.952 . S
H123 C111 0.950 . S
N124 C127 1.382 . S
N124 C129 1.363 . S
N125 C127 1.371 . S
N125 C128 1.372 . S
N126 C128 1.361 . S
N126 C129 1.377 . S
C127 N124 1.382 . S
C127 N125 1.371 . S
C127 C130 1.480 . S
C128 N125 1.372 . S
C128 N126 1.361 . S
C128 C136 1.457 . S
C129 N124 1.363 . S
C129 N126 1.377 . S
C129 C142 1.479 . S
C130 C127 1.480 . S
C130 C131 1.383 . S
C130 C135 1.385 . S
C131 H112 0.947 . S
C131 C130 1.383 . S
C131 C132 1.388 . S
C132 H113 0.946 . S
C132 C131 1.388 . S
C132 C133 1.384 . S
C133 C132 1.384 . S
C133 C134 1.377 . S
C134 H114 0.953 . S
C134 C133 1.377 . S
C134 C135 1.369 . S
C135 H115 0.945 . S
C135 C130 1.385 . S
C135 C134 1.369 . S
C136 C128 1.457 . S
C136 C137 1.372 . S
C136 C141 1.364 . S
C137 H116 0.952 . S
C137 C136 1.372 . S
C137 C138 1.389 . S
C138 H117 0.949 . S
C138 C137 1.389 . S
C138 C139 1.387 . S
C139 C138 1.387 . S
C139 C140 1.372 . S
C140 H118 0.950 . S
C140 C139 1.372 . S
C140 C141 1.379 . S
C141 H119 0.948 . S
C141 C136 1.364 . S
C141 C140 1.379 . S
C142 C111 1.383 . S
C142 C129 1.479 . S
C142 C143 1.398 . S
C143 C108 1.382 . S
C143 H120 0.951 . S
C143 C142 1.398 . S
C144 C145 1.384 . S
C144 H157 0.947 . S
C144 C179 1.382 . S
C145 C144 1.384 . S
C145 C146 1.378 . S
C146 C145 1.378 . S
C146 C147 1.378 . S
C146 H158 0.952 . S
C147 C146 1.378 . S
C147 H159 0.950 . S
C147 C178 1.383 . S
H148 C167 0.947 1_556 S
H149 C168 0.946 1_556 S
H150 C170 0.953 . S
H151 C171 0.945 . S
H152 C173 0.952 . S
H153 C174 0.949 . S
H154 C176 0.950 . S
H155 C177 0.948 . S
H156 C179 0.951 . S
H157 C144 0.947 . S
H158 C146 0.952 . S
H159 C147 0.950 . S
N160 C163 1.382 1_556 S
N160 C165 1.363 . S
N161 C163 1.371 . S
N161 C164 1.372 . S
N162 C164 1.361 . S
N162 C165 1.377 1_554 S
C163 N160 1.382 1_554 S
C163 N161 1.371 . S
C163 C166 1.480 . S
C164 N161 1.372 . S
C164 N162 1.361 . S
C164 C172 1.457 . S
C165 N160 1.363 . S
C165 N162 1.377 1_556 S
C165 C178 1.479 . S
C166 C163 1.480 . S
C166 C167 1.383 . S
C166 C171 1.385 . S
C167 H148 0.947 1_554 S
C167 C166 1.383 . S
C167 C168 1.388 . S
C168 H149 0.946 1_554 S
C168 C167 1.388 . S
C168 C169 1.384 . S
C169 C168 1.384 . S
C169 C170 1.377 . S
C170 H150 0.953 . S
C170 C169 1.377 . S
C170 C171 1.369 . S
C171 H151 0.945 . S
C171 C166 1.385 . S
C171 C170 1.369 . S
C172 C164 1.457 . S
C172 C173 1.372 . S
C172 C177 1.364 . S
C173 H152 0.952 . S
C173 C172 1.372 . S
C173 C174 1.389 . S
C174 H153 0.949 . S
C174 C173 1.389 . S
C174 C175 1.387 . S
C175 C174 1.387 . S
C175 C176 1.372 . S
C176 H154 0.950 . S
C176 C175 1.372 . S
C176 C177 1.379 . S
C177 H155 0.948 . S
C177 C172 1.364 . S
C177 C176 1.379 . S
C178 C147 1.383 . S
C178 C165 1.479 . S
C178 C179 1.398 . S
C179 C144 1.382 . S
C179 H156 0.951 . S
C179 C178 1.398 . S
C180 C181 1.384 . S
C180 H193 0.947 . S
C180 C215 1.382 . S
C181 C180 1.384 . S
C181 C182 1.378 . S
C182 C181 1.378 . S
C182 C183 1.378 . S
C182 H194 0.952 . S
C183 C182 1.378 . S
C183 H195 0.950 . S
C183 C214 1.383 . S
H184 C203 0.947 1_556 S
H185 C204 0.946 1_556 S
H186 C206 0.953 . S
H187 C207 0.945 . S
H188 C209 0.952 . S
H189 C210 0.949 . S
H190 C212 0.950 . S
H191 C213 0.948 . S
H192 C215 0.951 . S
H193 C180 0.947 . S
H194 C182 0.952 . S
H195 C183 0.950 . S
N196 C199 1.382 1_556 S
N196 C201 1.363 . S
N197 C199 1.371 . S
N197 C200 1.372 . S
N198 C200 1.361 . S
N198 C201 1.377 1_554 S
C199 N196 1.382 1_554 S
C199 N197 1.371 . S
C199 C202 1.480 . S
C200 N197 1.372 . S
C200 N198 1.361 . S
C200 C208 1.457 . S
C201 N196 1.363 . S
C201 N198 1.377 1_556 S
C201 C214 1.479 . S
C202 C199 1.480 . S
C202 C203 1.383 . S
C202 C207 1.385 . S
C203 H184 0.947 1_554 S
C203 C202 1.383 . S
C203 C204 1.388 . S
C204 H185 0.946 1_554 S
C204 C203 1.388 . S
C204 C205 1.384 . S
C205 C204 1.384 . S
C205 C206 1.377 . S
C206 H186 0.953 . S
C206 C205 1.377 . S
C206 C207 1.369 . S
C207 H187 0.945 . S
C207 C202 1.385 . S
C207 C206 1.369 . S
C208 C200 1.457 . S
C208 C209 1.372 . S
C208 C213 1.364 . S
C209 H188 0.952 . S
C209 C208 1.372 . S
C209 C210 1.389 . S
C210 H189 0.949 . S
C210 C209 1.389 . S
C210 C211 1.387 . S
C211 C210 1.387 . S
C211 C212 1.372 . S
C212 H190 0.950 . S
C212 C211 1.372 . S
C212 C213 1.379 . S
C213 H191 0.948 . S
C213 C208 1.364 . S
C213 C212 1.379 . S
C214 C183 1.383 . S
C214 C201 1.479 . S
C214 C215 1.398 . S
C215 C180 1.382 . S
C215 H192 0.951 . S
C215 C214 1.398 . S
C216 C217 1.384 . S
C216 H229 0.947 . S
C216 C251 1.382 . S
C217 C216 1.384 . S
C217 C218 1.378 . S
C218 C217 1.378 . S
C218 C219 1.378 . S
C218 H230 0.952 . S
C219 C218 1.378 . S
C219 H231 0.950 . S
C219 C250 1.383 . S
H220 C239 0.931 1_556 S
H221 C240 0.946 1_556 S
H222 C242 0.953 . S
H223 C243 0.945 . S
H224 C245 0.952 . S
H225 C246 0.949 . S
H226 C248 0.950 . S
H227 C249 0.948 . S
H228 C251 0.951 . S
H229 C216 0.947 . S
H230 C218 0.952 . S
H231 C219 0.950 . S
N232 C235 1.382 1_556 S
N232 C237 1.363 . S
N233 C235 1.371 . S
N233 C236 1.372 . S
N234 C236 1.361 . S
N234 C237 1.377 1_554 S
C235 N232 1.382 1_554 S
C235 N233 1.371 . S
C235 C238 1.480 . S
C236 N233 1.372 . S
C236 N234 1.361 . S
C236 C244 1.457 . S
C237 N232 1.363 . S
C237 N234 1.377 1_556 S
C237 C250 1.479 . S
C238 C235 1.480 . S
C238 C239 1.396 . S
C238 C243 1.385 . S
C239 H220 0.931 1_554 S
C239 C238 1.396 . S
C239 C240 1.393 . S
C240 H221 0.946 1_554 S
C240 C239 1.393 . S
C240 C241 1.384 . S
C241 C240 1.384 . S
C241 C242 1.377 . S
C242 H222 0.953 . S
C242 C241 1.377 . S
C242 C243 1.369 . S
C243 H223 0.945 . S
C243 C238 1.385 . S
C243 C242 1.369 . S
C244 C236 1.457 . S
C244 C245 1.372 . S
C244 C249 1.364 . S
C245 H224 0.952 . S
C245 C244 1.372 . S
C245 C246 1.389 . S
C246 H225 0.949 . S
C246 C245 1.389 . S
C246 C247 1.387 . S
C247 C246 1.387 . S
C247 C248 1.372 . S
C248 H226 0.950 . S
C248 C247 1.372 . S
C248 C249 1.379 . S
C249 H227 0.948 . S
C249 C244 1.364 . S
C249 C248 1.379 . S
C250 C219 1.383 . S
C250 C237 1.479 . S
C250 C251 1.398 . S
C251 C216 1.382 . S
C251 H228 0.951 . S
C251 C250 1.398 . S
C252 C253 1.384 . S
C252 H265 0.947 . S
C252 C287 1.382 . S
C253 C252 1.384 . S
C253 C254 1.378 . S
C254 C253 1.378 . S
C254 C255 1.378 . S
C254 H266 0.952 . S
C255 C254 1.378 . S
C255 H267 0.950 . S
C255 C286 1.383 . S
H256 C275 0.947 . S
H257 C276 0.946 . S
H258 C278 0.953 1_556 S
H259 C279 0.945 1_556 S
H260 C281 0.952 . S
H261 C282 0.949 . S
H262 C284 0.950 . S
H263 C285 0.948 . S
H264 C287 0.951 . S
H265 C252 0.947 . S
H266 C254 0.952 . S
H267 C255 0.950 . S
N268 C271 1.382 . S
N268 C273 1.363 . S
N269 C271 1.371 1_556 S
N269 C272 1.372 . S
N270 C272 1.361 1_554 S
N270 C273 1.377 . S
C271 N268 1.382 . S
C271 N269 1.371 1_554 S
C271 C274 1.480 . S
C272 N269 1.372 . S
C272 N270 1.361 1_556 S
C272 C280 1.457 . S
C273 N268 1.363 . S
C273 N270 1.377 . S
C273 C286 1.479 . S
C274 C271 1.480 . S
C274 C275 1.383 . S
C274 C279 1.385 . S
C275 H256 0.947 . S
C275 C274 1.383 . S
C275 C276 1.388 . S
C276 H257 0.946 . S
C276 C275 1.388 . S
C276 C277 1.384 . S
C277 C276 1.384 . S
C277 C278 1.377 . S
C278 H258 0.953 1_554 S
C278 C277 1.377 . S
C278 C279 1.369 . S
C279 H259 0.945 1_554 S
C279 C274 1.385 . S
C279 C278 1.369 . S
C280 C272 1.457 . S
C280 C281 1.372 . S
C280 C285 1.364 . S
C281 H260 0.952 . S
C281 C280 1.372 . S
C281 C282 1.389 . S
C282 H261 0.949 . S
C282 C281 1.389 . S
C282 C283 1.387 . S
C283 C282 1.387 . S
C283 C284 1.372 . S
C284 H262 0.950 . S
C284 C283 1.372 . S
C284 C285 1.379 . S
C285 H263 0.948 . S
C285 C280 1.364 . S
C285 C284 1.379 . S
C286 C255 1.383 . S
C286 C273 1.479 . S
C286 C287 1.398 . S
C287 C252 1.382 . S
C287 H264 0.951 . S
C287 C286 1.398 . S
Tb288 N319 2.660 1_565 S
Tb288 N326 2.600 . S
Tb288 O332 2.546 . S
Tb288 O333 2.610 1_455 S
Tb288 O335 2.320 1_455 S
Tb288 O336 2.552 . S
Tb288 O337 2.413 . S
Tb288 O339 2.362 1_565 S
Tb288 O340 2.421 . S
Tb288 C352 2.833 . S
C289 C292 1.432 1_545 S
C289 C293 1.414 . S
C289 N296 1.359 . S
C290 C292 1.417 . S
C290 C294 1.432 . S
C290 C302 1.410 . S
C291 C293 1.444 1_565 S
C291 C294 1.317 . S
C291 H314 0.929 . S
C292 C289 1.432 1_565 S
C292 C290 1.417 . S
C292 N300 1.360 . S
C293 C289 1.414 . S
C293 C291 1.444 1_545 S
C293 C298 1.385 . S
C294 C290 1.432 . S
C294 C291 1.317 . S
C294 H306 0.930 . S
C295 C297 1.392 . S
C295 C298 1.370 . S
C295 H307 0.931 . S
N296 C289 1.359 . S
N296 C297 1.327 . S
N296 Tb299 2.600 . S
C297 C295 1.392 . S
C297 N296 1.327 . S
C297 H304 0.930 . S
C298 C293 1.385 . S
C298 C295 1.370 . S
C298 H317 0.930 . S
Tb299 N296 2.600 . S
Tb299 N300 2.658 1_545 S
Tb299 O333 2.362 1_545 S
Tb299 O334 2.421 . S
Tb299 O338 2.546 . S
Tb299 O339 2.610 1_655 S
Tb299 O341 2.320 1_655 S
Tb299 O342 2.552 1_655 S
Tb299 O343 2.413 . S
Tb299 C363 2.833 . S
N300 C292 1.360 . S
N300 Tb299 2.658 1_565 S
N300 C301 1.306 1_655 S
C301 N300 1.306 1_455 S
C301 C303 1.407 1_455 S
C301 H308 0.930 . S
C302 C290 1.410 . S
C302 C303 1.347 . S
C302 H310 0.930 . S
C303 C301 1.407 1_655 S
C303 C302 1.347 . S
C303 H305 0.928 1_655 S
H304 C297 0.930 . S
H305 C303 0.928 1_455 S
H306 C294 0.930 . S
H307 C295 0.931 . S
H308 C301 0.930 . S
H309 C323 0.930 1_655 S
H310 C302 0.930 . S
H311 C329 0.930 . S
H312 C320 0.930 1_655 S
H313 C327 0.931 . S
H314 C291 0.929 . S
H315 C321 0.930 . S
H316 C354 0.930 . S
H317 C298 0.930 . S
H318 C353 0.929 . S
N319 Tb288 2.660 1_545 S
N319 C320 1.305 . S
N319 C324 1.360 . S
C320 H312 0.930 1_455 S
C320 N319 1.305 . S
C320 C323 1.407 . S
C321 H315 0.930 . S
C321 C322 1.410 . S
C321 C323 1.345 . S
C322 C321 1.410 . S
C322 C324 1.417 . S
C322 C354 1.432 . S
C323 H309 0.930 1_455 S
C323 C320 1.407 . S
C323 C321 1.345 . S
C324 N319 1.360 . S
C324 C322 1.417 . S
C324 C328 1.432 . S
H325 C330 0.927 1_545 S
N326 Tb288 2.600 . S
N326 C328 1.359 1_565 S
N326 C329 1.327 . S
C327 H313 0.931 . S
C327 C329 1.392 . S
C327 C330 1.384 . S
C328 C324 1.432 . S
C328 N326 1.359 1_545 S
C328 C331 1.414 . S
C329 H311 0.930 . S
C329 N326 1.327 . S
C329 C327 1.392 . S
C330 H325 0.927 1_565 S
C330 C327 1.384 . S
C330 C331 1.373 1_565 S
C331 C328 1.414 . S
C331 C330 1.373 1_545 S
C331 C353 1.444 . S
O332 Tb288 2.546 . S
O332 C352 1.251 . S
O333 Tb288 2.610 1_655 S
O333 Tb299 2.362 1_565 S
O333 C344 1.283 . S
O334 Tb299 2.421 . S
O334 C351 1.262 . S
O335 Tb288 2.320 1_655 S
O335 C351 1.260 1_565 S
O336 Tb288 2.552 . S
O336 C344 1.243 1_455 S
O337 Tb288 2.413 . S
O337 C352 1.256 . S
O338 Tb299 2.546 . S
O338 C363 1.251 . S
O339 Tb288 2.362 1_545 S
O339 Tb299 2.610 1_455 S
O339 C355 1.283 . S
O340 Tb288 2.421 . S
O340 C362 1.262 1_565 S
O341 Tb299 2.320 1_455 S
O341 C362 1.260 . S
O342 Tb299 2.552 1_455 S
O342 C355 1.243 . S
O343 Tb299 2.413 . S
O343 C363 1.256 . S
C344 O333 1.283 . S
C344 O336 1.243 1_655 S
C345 C347 1.382 . S
C345 C349 1.393 . S
C345 C352 1.500 . S
C346 C347 1.400 . S
C346 C348 1.384 . S
C347 C345 1.382 . S
C347 C346 1.400 . S
C347 H364 0.924 1_455 S
C348 C346 1.384 . S
C348 C350 1.392 . S
C348 H365 0.931 . S
C349 C345 1.393 . S
C349 C350 1.401 . S
C349 H366 0.930 . S
C350 C348 1.392 . S
C350 C349 1.401 . S
C350 H367 0.930 . S
C351 O334 1.262 . S
C351 O335 1.260 1_545 S
C352 Tb288 2.833 . S
C352 O332 1.251 . S
C352 O337 1.256 . S
C352 C345 1.500 . S
C353 H318 0.929 . S
C353 C331 1.444 . S
C353 C354 1.317 . S
C354 H316 0.930 . S
C354 C322 1.432 . S
C354 C353 1.317 . S
C355 O339 1.283 . S
C355 O342 1.243 . S
C356 C357 1.382 . S
C356 C360 1.393 . S
C356 C363 1.500 . S
C357 C356 1.382 . S
C357 C358 1.400 . S
C357 H368 0.930 1_655 S
C358 C357 1.400 . S
C358 C359 1.384 . S
C359 C358 1.384 . S
C359 C361 1.392 . S
C359 H369 0.931 . S
C360 C356 1.393 . S
C360 C361 1.401 . S
C360 H370 0.930 . S
C361 C359 1.392 . S
C361 C360 1.401 . S
C361 H371 0.930 . S
C362 O340 1.262 1_545 S
C362 O341 1.260 . S
C363 Tb299 2.833 . S
C363 O338 1.251 . S
C363 O343 1.256 . S
C363 C356 1.500 . S
H364 C347 0.924 1_655 S
H365 C348 0.931 . S
H366 C349 0.930 . S
H367 C350 0.930 . S
H368 C357 0.930 1_455 S
H369 C359 0.931 . S
H370 C360 0.930 . S
H371 C361 0.930 . S
Tb372 N403 2.660 . S
Tb372 N410 2.600 . S
Tb372 O416 2.546 . S
Tb372 O417 2.610 1_545 S
Tb372 O419 2.320 1_545 S
Tb372 O420 2.552 . S
Tb372 O421 2.413 . S
Tb372 O423 2.362 . S
Tb372 O424 2.421 . S
Tb372 C436 2.833 . S
C373 C376 1.432 . S
C373 C377 1.414 . S
C373 N380 1.359 . S
C374 C376 1.417 . S
C374 C378 1.432 . S
C374 C386 1.410 . S
C375 C377 1.444 . S
C375 C378 1.317 . S
C375 H398 0.929 . S
C376 C373 1.432 . S
C376 C374 1.417 . S
C376 N384 1.360 . S
C377 C373 1.414 . S
C377 C375 1.444 . S
C377 C382 1.385 . S
C378 C374 1.432 . S
C378 C375 1.317 . S
C378 H390 0.930 . S
C379 C381 1.392 . S
C379 C382 1.370 . S
C379 H391 0.931 . S
N380 C373 1.359 . S
N380 C381 1.327 . S
N380 Tb383 2.600 . S
C381 C379 1.392 . S
C381 N380 1.327 . S
C381 H388 0.930 . S
C382 C377 1.385 . S
C382 C379 1.370 . S
C382 H401 0.930 . S
Tb383 N380 2.600 . S
Tb383 N384 2.660 . S
Tb383 O417 2.362 . S
Tb383 O418 2.421 . S
Tb383 O422 2.546 . S
Tb383 O423 2.610 1_565 S
Tb383 O425 2.320 1_565 S
Tb383 O426 2.552 1_565 S
Tb383 O427 2.413 . S
Tb383 C447 2.833 . S
N384 C376 1.360 . S
N384 Tb383 2.660 . S
N384 C385 1.305 1_565 S
C385 N384 1.305 1_545 S
C385 C387 1.407 . S
C385 H392 0.930 . S
C386 C374 1.410 . S
C386 C387 1.345 1_565 S
C386 H394 0.930 . S
C387 C385 1.407 . S
C387 C386 1.345 1_545 S
C387 H389 0.930 . S
H388 C381 0.930 . S
H389 C387 0.930 . S
H390 C378 0.930 . S
H391 C379 0.931 . S
H392 C385 0.930 . S
H393 C407 0.930 1_565 S
H394 C386 0.930 . S
H395 C413 0.930 . S
H396 C404 0.930 1_565 S
H397 C411 0.931 . S
H398 C375 0.929 . S
H399 C405 0.930 . S
H400 C438 0.930 . S
H401 C382 0.930 . S
H402 C437 0.929 . S
N403 Tb372 2.660 . S
N403 C404 1.305 . S
N403 C408 1.360 . S
C404 H396 0.930 1_545 S
C404 N403 1.305 . S
C404 C407 1.407 . S
C405 H399 0.930 . S
C405 C406 1.410 . S
C405 C407 1.345 . S
C406 C405 1.410 . S
C406 C408 1.417 . S
C406 C438 1.432 . S
C407 H393 0.930 1_545 S
C407 C404 1.407 . S
C407 C405 1.345 . S
C408 N403 1.360 . S
C408 C406 1.417 . S
C408 C412 1.432 . S
H409 C414 0.930 . S
N410 Tb372 2.600 . S
N410 C412 1.359 . S
N410 C413 1.327 . S
C411 H397 0.931 . S
C411 C413 1.392 . S
C411 C414 1.370 . S
C412 C408 1.432 . S
C412 N410 1.359 . S
C412 C415 1.414 . S
C413 H395 0.930 . S
C413 N410 1.327 . S
C413 C411 1.392 . S
C414 H409 0.930 . S
C414 C411 1.370 . S
C414 C415 1.385 . S
C415 C412 1.414 . S
C415 C414 1.385 . S
C415 C437 1.444 . S
O416 Tb372 2.546 . S
O416 C436 1.251 . S
O417 Tb372 2.610 1_565 S
O417 Tb383 2.362 . S
O417 C428 1.283 . S
O418 Tb383 2.421 . S
O418 C435 1.262 . S
O419 Tb372 2.320 1_565 S
O419 C435 1.260 . S
O420 Tb372 2.552 . S
O420 C428 1.243 1_545 S
O421 Tb372 2.413 . S
O421 C436 1.256 . S
O422 Tb383 2.546 . S
O422 C447 1.251 . S
O423 Tb372 2.362 . S
O423 Tb383 2.610 1_545 S
O423 C439 1.283 . S
O424 Tb372 2.421 . S
O424 C446 1.262 . S
O425 Tb383 2.320 1_545 S
O425 C446 1.260 . S
O426 Tb383 2.552 1_545 S
O426 C439 1.243 . S
O427 Tb383 2.413 . S
O427 C447 1.256 . S
C428 O417 1.283 . S
C428 O420 1.243 1_565 S
C429 C431 1.382 . S
C429 C433 1.393 . S
C429 C436 1.500 . S
C430 C431 1.400 . S
C430 C432 1.384 . S
C431 C429 1.382 . S
C431 C430 1.400 . S
C431 H448 0.930 . S
C432 C430 1.384 . S
C432 C434 1.392 . S
C432 H449 0.931 . S
C433 C429 1.393 . S
C433 C434 1.401 . S
C433 H450 0.930 . S
C434 C432 1.392 . S
C434 C433 1.401 . S
C434 H451 0.930 . S
C435 O418 1.262 . S
C435 O419 1.260 . S
C436 Tb372 2.833 . S
C436 O416 1.251 . S
C436 O421 1.256 . S
C436 C429 1.500 . S
C437 H402 0.929 . S
C437 C415 1.444 . S
C437 C438 1.317 . S
C438 H400 0.930 . S
C438 C406 1.432 . S
C438 C437 1.317 . S
C439 O423 1.283 . S
C439 O426 1.243 . S
C440 C441 1.382 . S
C440 C444 1.393 . S
C440 C447 1.500 . S
C441 C440 1.382 . S
C441 C442 1.400 . S
C441 H452 0.930 1_565 S
C442 C441 1.400 . S
C442 C443 1.384 . S
C443 C442 1.384 . S
C443 C445 1.392 . S
C443 H453 0.931 . S
C444 C440 1.393 . S
C444 C445 1.401 . S
C444 H454 0.930 . S
C445 C443 1.392 . S
C445 C444 1.401 . S
C445 H455 0.930 . S
C446 O424 1.262 . S
C446 O425 1.260 . S
C447 Tb383 2.833 . S
C447 O422 1.251 . S
C447 O427 1.256 . S
C447 C440 1.500 . S
H448 C431 0.930 . S
H449 C432 0.931 . S
H450 C433 0.930 . S
H451 C434 0.930 . S
H452 C441 0.930 1_545 S
H453 C443 0.931 . S
H454 C444 0.930 . S
H455 C445 0.930 . S
Tb456 N487 2.660 . S
Tb456 N494 2.600 . S
Tb456 O500 2.546 . S
Tb456 O501 2.610 . S
Tb456 O503 2.320 . S
Tb456 O504 2.552 . S
Tb456 O505 2.413 . S
Tb456 O507 2.362 . S
Tb456 O508 2.421 . S
Tb456 C520 2.833 . S
C457 C460 1.432 . S
C457 C461 1.414 . S
C457 N464 1.359 . S
C458 C460 1.417 . S
C458 C462 1.432 . S
C458 C470 1.410 . S
C459 C461 1.444 . S
C459 C462 1.317 . S
C459 H482 0.929 . S
C460 C457 1.432 . S
C460 C458 1.417 . S
C460 N468 1.360 . S
C461 C457 1.414 . S
C461 C459 1.444 . S
C461 C466 1.385 . S
C462 C458 1.432 . S
C462 C459 1.317 . S
C462 H474 0.930 . S
C463 C465 1.392 . S
C463 C466 1.370 . S
C463 H475 0.931 . S
N464 C457 1.359 . S
N464 C465 1.327 . S
N464 Tb467 2.600 . S
C465 C463 1.392 . S
C465 N464 1.327 . S
C465 H472 0.930 . S
C466 C461 1.385 . S
C466 C463 1.370 . S
C466 H485 0.930 . S
Tb467 N464 2.600 . S
Tb467 N468 2.660 . S
Tb467 O501 2.362 . S
Tb467 O502 2.421 . S
Tb467 O506 2.546 . S
Tb467 O507 2.610 . S
Tb467 O509 2.320 . S
Tb467 O510 2.552 . S
Tb467 O511 2.413 . S
Tb467 C531 2.833 . S
N468 C460 1.360 . S
N468 Tb467 2.660 . S
N468 C469 1.305 . S
C469 N468 1.305 . S
C469 C471 1.407 . S
C469 H476 0.930 . S
C470 C458 1.410 . S
C470 C471 1.345 . S
C470 H478 0.930 . S
C471 C469 1.407 . S
C471 C470 1.345 . S
C471 H473 0.930 . S
H472 C465 0.930 . S
H473 C471 0.930 . S
H474 C462 0.930 . S
H475 C463 0.931 . S
H476 C469 0.930 . S
H477 C491 0.930 . S
H478 C470 0.930 . S
H479 C497 0.930 . S
H480 C488 0.930 . S
H481 C495 0.931 . S
H482 C459 0.929 . S
H483 C489 0.930 . S
H484 C522 0.930 . S
H485 C466 0.930 . S
H486 C521 0.929 . S
N487 Tb456 2.660 . S
N487 C488 1.305 . S
N487 C492 1.360 . S
C488 H480 0.930 . S
C488 N487 1.305 . S
C488 C491 1.407 . S
C489 H483 0.930 . S
C489 C490 1.410 . S
C489 C491 1.345 . S
C490 C489 1.410 . S
C490 C492 1.417 . S
C490 C522 1.432 . S
C491 H477 0.930 . S
C491 C488 1.407 . S
C491 C489 1.345 . S
C492 N487 1.360 . S
C492 C490 1.417 . S
C492 C496 1.432 . S
H493 C498 0.930 . S
N494 Tb456 2.600 . S
N494 C496 1.359 . S
N494 C497 1.327 . S
C495 H481 0.931 . S
C495 C497 1.392 . S
C495 C498 1.370 . S
C496 C492 1.432 . S
C496 N494 1.359 . S
C496 C499 1.414 . S
C497 H479 0.930 . S
C497 N494 1.327 . S
C497 C495 1.392 . S
C498 H493 0.930 . S
C498 C495 1.370 . S
C498 C499 1.385 . S
C499 C496 1.414 . S
C499 C498 1.385 . S
C499 C521 1.444 . S
O500 Tb456 2.546 . S
O500 C520 1.251 . S
O501 Tb456 2.610 . S
O501 Tb467 2.362 . S
O501 C512 1.283 . S
O502 Tb467 2.421 . S
O502 C519 1.262 . S
O503 Tb456 2.320 . S
O503 C519 1.260 . S
O504 Tb456 2.552 . S
O504 C512 1.243 . S
O505 Tb456 2.413 . S
O505 C520 1.256 . S
O506 Tb467 2.546 . S
O506 C531 1.251 . S
O507 Tb456 2.362 . S
O507 Tb467 2.610 . S
O507 C523 1.283 . S
O508 Tb456 2.421 . S
O508 C530 1.262 . S
O509 Tb467 2.320 . S
O509 C530 1.260 . S
O510 Tb467 2.552 . S
O510 C523 1.243 . S
O511 Tb467 2.413 . S
O511 C531 1.256 . S
C512 O501 1.283 . S
C512 O504 1.243 . S
C513 C515 1.382 . S
C513 C517 1.393 . S
C513 C520 1.500 . S
C514 C515 1.400 . S
C514 C516 1.384 . S
C515 C513 1.382 . S
C515 C514 1.400 . S
C515 H532 0.930 . S
C516 C514 1.384 . S
C516 C518 1.392 . S
C516 H533 0.931 . S
C517 C513 1.393 . S
C517 C518 1.401 . S
C517 H534 0.930 . S
C518 C516 1.392 . S
C518 C517 1.401 . S
C518 H535 0.930 . S
C519 O502 1.262 . S
C519 O503 1.260 . S
C520 Tb456 2.833 . S
C520 O500 1.251 . S
C520 O505 1.256 . S
C520 C513 1.500 . S
C521 H486 0.929 . S
C521 C499 1.444 . S
C521 C522 1.317 . S
C522 H484 0.930 . S
C522 C490 1.432 . S
C522 C521 1.317 . S
C523 O507 1.283 . S
C523 O510 1.243 . S
C524 C525 1.382 . S
C524 C528 1.393 . S
C524 C531 1.500 . S
C525 C524 1.382 . S
C525 C526 1.400 . S
C525 H536 0.930 . S
C526 C525 1.400 . S
C526 C527 1.384 . S
C527 C526 1.384 . S
C527 C529 1.392 . S
C527 H537 0.931 . S
C528 C524 1.393 . S
C528 C529 1.401 . S
C528 H538 0.930 . S
C529 C527 1.392 . S
C529 C528 1.401 . S
C529 H539 0.930 . S
C530 O508 1.262 . S
C530 O509 1.260 . S
C531 Tb467 2.833 . S
C531 O506 1.251 . S
C531 O511 1.256 . S
C531 C524 1.500 . S
H532 C515 0.930 . S
H533 C516 0.931 . S
H534 C517 0.930 . S
H535 C518 0.930 . S
H536 C525 0.930 . S
H537 C527 0.931 . S
H538 C528 0.930 . S
H539 C529 0.930 . S
Tb540 N571 2.660 . S
Tb540 N578 2.600 . S
Tb540 O584 2.546 . S
Tb540 O585 2.610 . S
Tb540 O587 2.320 . S
Tb540 O588 2.552 . S
Tb540 O589 2.413 . S
Tb540 O591 2.372 . S
Tb540 O592 2.421 1_455 S
Tb540 C604 2.833 . S
C541 C544 1.432 . S
C541 C545 1.414 . S
C541 N548 1.359 . S
C542 C544 1.417 . S
C542 C546 1.432 . S
C542 C554 1.410 . S
C543 C545 1.444 . S
C543 C546 1.317 . S
C543 H566 0.929 . S
C544 C541 1.432 . S
C544 C542 1.417 . S
C544 N552 1.360 . S
C545 C541 1.414 . S
C545 C543 1.444 . S
C545 C550 1.385 . S
C546 C542 1.432 . S
C546 C543 1.317 . S
C546 H558 0.930 . S
C547 C549 1.392 . S
C547 C550 1.370 1_455 S
C547 H559 0.931 . S
N548 C541 1.359 . S
N548 C549 1.327 1_655 S
N548 Tb551 2.600 . S
C549 C547 1.392 . S
C549 N548 1.327 1_455 S
C549 H556 0.930 . S
C550 C545 1.385 . S
C550 C547 1.370 1_655 S
C550 H569 0.930 . S
Tb551 N548 2.600 . S
Tb551 N552 2.660 . S
Tb551 O585 2.362 1_655 S
Tb551 O586 2.421 1_655 S
Tb551 O590 2.546 . S
Tb551 O591 2.603 1_655 S
Tb551 O593 2.320 . S
Tb551 O594 2.552 . S
Tb551 O595 2.413 . S
Tb551 C615 2.833 . S
N552 C544 1.360 . S
N552 Tb551 2.660 . S
N552 C553 1.305 . S
C553 N552 1.305 . S
C553 C555 1.407 . S
C553 H560 0.930 . S
C554 C542 1.410 . S
C554 C555 1.345 . S
C554 H562 0.930 . S
C555 C553 1.407 . S
C555 C554 1.345 . S
C555 H557 0.930 . S
H556 C549 0.930 . S
H557 C555 0.930 . S
H558 C546 0.930 . S
H559 C547 0.931 . S
H560 C553 0.930 . S
H561 C575 0.930 . S
H562 C554 0.930 . S
H563 C581 0.930 1_655 S
H564 C572 0.930 . S
H565 C579 0.925 1_655 S
H566 C543 0.929 . S
H567 C573 0.930 . S
H568 C606 0.930 . S
H569 C550 0.930 . S
H570 C605 0.929 . S
N571 Tb540 2.660 . S
N571 C572 1.305 . S
N571 C576 1.360 . S
C572 H564 0.930 . S
C572 N571 1.305 . S
C572 C575 1.407 . S
C573 H567 0.930 . S
C573 C574 1.410 . S
C573 C575 1.345 . S
C574 C573 1.410 . S
C574 C576 1.417 . S
C574 C606 1.432 . S
C575 H561 0.930 . S
C575 C572 1.407 . S
C575 C573 1.345 . S
C576 N571 1.360 . S
C576 C574 1.417 . S
C576 C580 1.432 . S
H577 C582 0.930 . S
N578 Tb540 2.600 . S
N578 C580 1.359 . S
N578 C581 1.327 . S
C579 H565 0.925 1_455 S
C579 C581 1.393 . S
C579 C582 1.375 . S
C580 C576 1.432 . S
C580 N578 1.359 . S
C580 C583 1.414 . S
C581 H563 0.930 1_455 S
C581 N578 1.327 . S
C581 C579 1.393 . S
C582 H577 0.930 . S
C582 C579 1.375 . S
C582 C583 1.385 . S
C583 C580 1.414 . S
C583 C582 1.385 . S
C583 C605 1.444 . S
O584 Tb540 2.546 . S
O584 C604 1.251 . S
O585 Tb540 2.610 . S
O585 Tb551 2.362 1_455 S
O585 C596 1.283 . S
O586 Tb551 2.421 1_455 S
O586 C603 1.262 . S
O587 Tb540 2.320 . S
O587 C603 1.260 . S
O588 Tb540 2.552 . S
O588 C596 1.243 . S
O589 Tb540 2.413 . S
O589 C604 1.256 . S
O590 Tb551 2.546 . S
O590 C615 1.251 . S
O591 Tb540 2.372 . S
O591 Tb551 2.603 1_455 S
O591 C607 1.276 1_455 S
O592 Tb540 2.421 1_655 S
O592 C614 1.262 . S
O593 Tb551 2.320 . S
O593 C614 1.260 . S
O594 Tb551 2.552 . S
O594 C607 1.243 . S
O595 Tb551 2.413 . S
O595 C615 1.256 . S
C596 O585 1.283 . S
C596 O588 1.243 . S
C597 C599 1.382 . S
C597 C601 1.393 . S
C597 C604 1.500 . S
C598 C599 1.400 . S
C598 C600 1.384 . S
C599 C597 1.382 . S
C599 C598 1.400 . S
C599 H616 0.930 . S
C600 C598 1.384 . S
C600 C602 1.392 . S
C600 H617 0.931 . S
C601 C597 1.393 . S
C601 C602 1.401 . S
C601 H618 0.930 . S
C602 C600 1.392 . S
C602 C601 1.401 . S
C602 H619 0.930 . S
C603 O586 1.262 . S
C603 O587 1.260 . S
C604 Tb540 2.833 . S
C604 O584 1.251 . S
C604 O589 1.256 . S
C604 C597 1.500 . S
C605 H570 0.929 . S
C605 C583 1.444 . S
C605 C606 1.317 . S
C606 H568 0.930 . S
C606 C574 1.432 . S
C606 C605 1.317 . S
C607 O591 1.276 1_655 S
C607 O594 1.243 . S
C608 C609 1.382 . S
C608 C612 1.393 . S
C608 C615 1.500 . S
C609 C608 1.382 . S
C609 C610 1.400 . S
C609 H620 0.930 . S
C610 C609 1.400 . S
C610 C611 1.384 . S
C611 C610 1.384 . S
C611 C613 1.392 . S
C611 H621 0.931 . S
C612 C608 1.393 . S
C612 C613 1.401 . S
C612 H622 0.930 . S
C613 C611 1.392 . S
C613 C612 1.401 . S
C613 H623 0.930 . S
C614 O592 1.262 . S
C614 O593 1.260 . S
C615 Tb551 2.833 . S
C615 O590 1.251 . S
C615 O595 1.256 . S
C615 C608 1.500 . S
H616 C599 0.930 . S
H617 C600 0.931 . S
H618 C601 0.930 . S
H619 C602 0.930 . S
H620 C609 0.930 . S
H621 C611 0.931 . S
H622 C612 0.930 . S
H623 C613 0.930 . S
H624 C630 0.930 . S
H625 C634 0.930 1_565 S
H626 C639 0.929 . S
H627 C637 0.929 . S
H628 C632 0.929 . S
H629 C638 0.929 . S
C630 H624 0.930 . S
C630 C631 1.367 . S
C630 C638 1.378 . S
C631 C630 1.367 . S
C631 C639 1.433 . S
C632 H628 0.929 . S
C632 C634 1.378 . S
C632 C636 1.350 . S
C633 C636 1.463 . S
C633 C638 1.350 . S
C633 N641 1.427 . S
C634 H625 0.930 1_545 S
C634 C632 1.378 . S
C634 C635 1.367 . S
C635 C634 1.367 . S
C635 C637 1.433 . S
C636 C632 1.350 . S
C636 C633 1.463 . S
C636 N640 1.427 . S
C637 H627 0.929 . S
C637 C635 1.433 . S
C637 N640 1.384 . S
C638 H629 0.929 . S
C638 C630 1.378 . S
C638 C633 1.350 . S
C639 H626 0.929 . S
C639 C631 1.433 . S
C639 N641 1.384 . S
N640 C636 1.427 . S
N640 C637 1.384 . S
N641 C633 1.427 . S
N641 C639 1.384 . S
H642 C648 0.930 . S
H643 C652 0.930 . S
H644 C657 0.929 . S
H645 C655 0.929 . S
H646 C650 0.929 . S
H647 C656 0.929 . S
C648 H642 0.930 . S
C648 C649 1.367 . S
C648 C656 1.378 . S
C649 C648 1.367 . S
C649 C657 1.433 . S
C650 H646 0.929 . S
C650 C652 1.378 . S
C650 C654 1.350 . S
C651 C654 1.463 . S
C651 C656 1.350 . S
C651 N659 1.427 . S
C652 H643 0.930 . S
C652 C650 1.378 . S
C652 C653 1.367 . S
C653 C652 1.367 . S
C653 C655 1.433 . S
C654 C650 1.350 . S
C654 C651 1.463 . S
C654 N658 1.427 . S
C655 H645 0.929 . S
C655 C653 1.433 . S
C655 N658 1.384 . S
C656 H647 0.929 . S
C656 C648 1.378 . S
C656 C651 1.350 . S
C657 H644 0.929 . S
C657 C649 1.433 . S
C657 N659 1.384 . S
N658 C654 1.427 . S
N658 C655 1.384 . S
N659 C651 1.427 . S
N659 C657 1.384 . S
H660 C666 0.930 . S
H661 C670 0.930 . S
H662 C675 0.929 . S
H663 C673 0.929 . S
H664 C668 0.929 . S
H665 C674 0.929 . S
C666 H660 0.930 . S
C666 C667 1.367 . S
C666 C674 1.378 . S
C667 C666 1.367 . S
C667 C675 1.433 . S
C668 H664 0.929 . S
C668 C670 1.378 . S
C668 C672 1.350 . S
C669 C672 1.463 . S
C669 C674 1.350 . S
C669 N677 1.427 . S
C670 H661 0.930 . S
C670 C668 1.378 . S
C670 C671 1.367 . S
C671 C670 1.367 . S
C671 C673 1.433 . S
C672 C668 1.350 . S
C672 C669 1.463 . S
C672 N676 1.427 . S
C673 H663 0.929 . S
C673 C671 1.433 . S
C673 N676 1.384 . S
C674 H665 0.929 . S
C674 C666 1.378 . S
C674 C669 1.350 . S
C675 H662 0.929 . S
C675 C667 1.433 . S
C675 N677 1.384 . S
N676 C672 1.427 . S
N676 C673 1.384 . S
N677 C669 1.427 . S
N677 C675 1.384 . S
H678 C684 0.930 . S
H679 C688 0.930 . S
H680 C693 0.929 . S
H681 C691 0.929 . S
H682 C686 0.929 . S
H683 C692 0.929 . S
C684 H678 0.930 . S
C684 C685 1.367 . S
C684 C692 1.378 . S
C685 C684 1.367 . S
C685 C693 1.433 . S
C686 H682 0.929 . S
C686 C688 1.378 . S
C686 C690 1.350 . S
C687 C690 1.463 . S
C687 C692 1.350 . S
C687 N695 1.427 . S
C688 H679 0.930 . S
C688 C686 1.378 . S
C688 C689 1.367 . S
C689 C688 1.367 . S
C689 C691 1.433 . S
C690 C686 1.350 . S
C690 C687 1.463 . S
C690 N694 1.427 . S
C691 H681 0.929 . S
C691 C689 1.433 . S
C691 N694 1.384 . S
C692 H683 0.929 . S
C692 C684 1.378 . S
C692 C687 1.350 . S
C693 H680 0.929 . S
C693 C685 1.433 . S
C693 N695 1.384 . S
N694 C690 1.427 . S
N694 C691 1.384 . S
N695 C687 1.427 . S
N695 C693 1.384 . S
H696 C702 0.930 . S
H697 C706 0.930 . S
H698 C711 0.929 . S
H699 C709 0.974 . S
H700 C704 0.929 . S
H701 C710 0.929 . S
C702 H696 0.930 . S
C702 C703 1.367 . S
C702 C710 1.378 1_554 S
C703 C702 1.367 . S
C703 C711 1.433 . S
C704 H700 0.929 . S
C704 C706 1.378 . S
C704 C708 1.350 . S
C705 C708 1.463 . S
C705 C710 1.350 . S
C705 N713 1.427 . S
C706 H697 0.930 . S
C706 C704 1.378 . S
C706 C707 1.367 . S
C707 C706 1.367 . S
C707 C709 1.402 1_565 S
C708 C704 1.350 . S
C708 C705 1.463 . S
C708 N712 1.427 . S
C709 H699 0.974 . S
C709 C707 1.402 1_545 S
C709 N712 1.369 1_545 S
C710 H701 0.929 . S
C710 C702 1.378 1_556 S
C710 C705 1.350 . S
C711 H698 0.929 . S
C711 C703 1.433 . S
C711 N713 1.384 1_554 S
N712 C708 1.427 . S
N712 C709 1.369 1_565 S
N713 C705 1.427 . S
N713 C711 1.384 1_556 S
H714 C720 0.930 . S
H715 C724 0.930 . S
H716 C729 0.929 . S
H717 C727 0.929 . S
H718 C722 0.929 . S
H719 C728 0.929 . S
C720 H714 0.930 . S
C720 C721 1.367 . S
C720 C728 1.378 1_554 S
C721 C720 1.367 . S
C721 C729 1.433 . S
C722 H718 0.929 . S
C722 C724 1.378 . S
C722 C726 1.350 . S
C723 C726 1.463 . S
C723 C728 1.350 . S
C723 N731 1.427 . S
C724 H715 0.930 . S
C724 C722 1.378 . S
C724 C725 1.367 . S
C725 C724 1.367 . S
C725 C727 1.433 . S
C726 C722 1.350 . S
C726 C723 1.463 . S
C726 N730 1.427 . S
C727 H717 0.929 . S
C727 C725 1.433 . S
C727 N730 1.384 . S
C728 H719 0.929 . S
C728 C720 1.378 1_556 S
C728 C723 1.350 . S
C729 H716 0.929 . S
C729 C721 1.433 . S
C729 N731 1.384 1_554 S
N730 C726 1.427 . S
N730 C727 1.384 . S
N731 C723 1.427 . S
N731 C729 1.384 1_556 S
H732 C738 0.930 . S
H733 C742 0.930 . S
H734 C747 0.929 1_556 S
H735 C745 0.929 . S
H736 C740 0.929 . S
H737 C746 0.929 . S
C738 H732 0.930 . S
C738 C739 1.367 . S
C738 C746 1.378 . S
C739 C738 1.367 . S
C739 C747 1.435 . S
C740 H736 0.929 . S
C740 C742 1.378 . S
C740 C744 1.350 . S
C741 C744 1.463 . S
C741 C746 1.350 1_556 S
C741 N749 1.427 . S
C742 H733 0.930 . S
C742 C740 1.378 . S
C742 C743 1.367 . S
C743 C742 1.367 . S
C743 C745 1.433 . S
C744 C740 1.350 . S
C744 C741 1.463 . S
C744 N748 1.427 . S
C745 H735 0.929 . S
C745 C743 1.433 . S
C745 N748 1.384 . S
C746 H737 0.929 . S
C746 C738 1.378 . S
C746 C741 1.350 1_554 S
C747 H734 0.929 1_554 S
C747 C739 1.435 . S
C747 N749 1.382 1_554 S
N748 C744 1.427 . S
N748 C745 1.384 . S
N749 C741 1.427 . S
N749 C747 1.382 1_556 S
H750 C756 0.930 . S
H751 C760 0.930 1_455 S
H752 C765 0.929 . S
H753 C763 0.929 . S
H754 C758 0.929 . S
H755 C764 0.929 . S
C756 H750 0.930 . S
C756 C757 1.367 . S
C756 C764 1.378 1_554 S
C757 C756 1.367 . S
C757 C765 1.433 . S
C758 H754 0.929 . S
C758 C760 1.378 . S
C758 C762 1.350 . S
C759 C762 1.463 . S
C759 C764 1.350 . S
C759 N767 1.427 . S
C760 H751 0.930 1_655 S
C760 C758 1.378 . S
C760 C761 1.367 . S
C761 C760 1.367 . S
C761 C763 1.433 . S
C762 C758 1.350 . S
C762 C759 1.463 . S
C762 N766 1.427 . S
C763 H753 0.929 . S
C763 C761 1.433 . S
C763 N766 1.384 . S
C764 H755 0.929 . S
C764 C756 1.378 1_556 S
C764 C759 1.350 . S
C765 H752 0.929 . S
C765 C757 1.433 . S
C765 N767 1.384 1_554 S
N766 C762 1.427 . S
N766 C763 1.384 . S
N767 C759 1.427 . S
N767 C765 1.384 1_556 S
H768 C774 0.930 . S
H769 C778 0.930 . S
H770 C783 0.929 . S
H771 C781 0.929 . S
H772 C776 0.929 . S
H773 C782 0.929 . S
C774 H768 0.930 . S
C774 C775 1.367 . S
C774 C782 1.378 . S
C775 C774 1.367 . S
C775 C783 1.433 . S
C776 H772 0.929 . S
C776 C778 1.378 . S
C776 C780 1.350 . S
C777 C780 1.463 . S
C777 C782 1.350 . S
C777 N785 1.427 . S
C778 H769 0.930 . S
C778 C776 1.378 . S
C778 C779 1.367 . S
C779 C778 1.367 . S
C779 C781 1.433 1_455 S
C780 C776 1.350 . S
C780 C777 1.463 . S
C780 N784 1.427 . S
C781 H771 0.929 . S
C781 C779 1.433 1_655 S
C781 N784 1.384 1_655 S
C782 H773 0.929 . S
C782 C774 1.378 . S
C782 C777 1.350 . S
C783 H770 0.929 . S
C783 C775 1.433 . S
C783 N785 1.384 . S
N784 C780 1.427 . S
N784 C781 1.384 1_455 S
N785 C777 1.427 . S
N785 C783 1.384 . S
H786 C792 0.930 . S
H787 C796 0.930 . S
H788 C801 0.929 . S
H789 C799 0.929 . S
H790 C794 0.929 1_565 S
H791 C800 0.929 . S
C792 H786 0.930 . S
C792 C793 1.367 . S
C792 C800 1.378 . S
C793 C792 1.367 . S
C793 C801 1.433 . S
C794 H790 0.929 1_545 S
C794 C796 1.378 1_545 S
C794 C798 1.350 . S
C795 C798 1.463 . S
C795 C800 1.350 . S
C795 N803 1.427 . S
C796 H787 0.930 . S
C796 C794 1.378 1_565 S
C796 C797 1.359 1_565 S
C797 C796 1.359 1_545 S
C797 C799 1.453 . S
C798 C794 1.350 . S
C798 C795 1.463 . S
C798 N802 1.427 . S
C799 H789 0.929 . S
C799 C797 1.453 . S
C799 N802 1.384 . S
C800 H791 0.929 . S
C800 C792 1.378 . S
C800 C795 1.350 . S
C801 H788 0.929 . S
C801 C793 1.433 . S
C801 N803 1.384 . S
N802 C798 1.427 . S
N802 C799 1.384 . S
N803 C795 1.427 . S
N803 C801 1.384 . S
H804 C810 0.930 . S
H805 C814 0.930 . S
H806 C819 0.929 . S
H807 C817 0.929 . S
H808 C812 0.929 . S
H809 C818 0.929 . S
C810 H804 0.930 . S
C810 C811 1.367 . S
C810 C818 1.378 . S
C811 C810 1.367 . S
C811 C819 1.433 . S
C812 H808 0.929 . S
C812 C814 1.378 . S
C812 C816 1.350 . S
C813 C816 1.463 . S
C813 C818 1.350 . S
C813 N821 1.427 . S
C814 H805 0.930 . S
C814 C812 1.378 . S
C814 C815 1.367 . S
C815 C814 1.367 . S
C815 C817 1.433 . S
C816 C812 1.350 . S
C816 C813 1.463 . S
C816 N820 1.427 . S
C817 H807 0.929 . S
C817 C815 1.433 . S
C817 N820 1.384 . S
C818 H809 0.929 . S
C818 C810 1.378 . S
C818 C813 1.350 . S
C819 H806 0.929 . S
C819 C811 1.433 . S
C819 N821 1.384 . S
N820 C816 1.427 . S
N820 C817 1.384 . S
N821 C813 1.427 . S
N821 C819 1.384 . S
H822 C828 0.930 . S
H823 C832 0.930 . S
H824 C837 0.929 . S
H825 C835 0.929 . S
H826 C830 0.929 . S
H827 C836 0.929 . S
C828 H822 0.930 . S
C828 C829 1.367 . S
C828 C836 1.378 . S
C829 C828 1.367 . S
C829 C837 1.433 . S
C830 H826 0.929 . S
C830 C832 1.378 . S
C830 C834 1.350 . S
C831 C834 1.463 . S
C831 C836 1.350 . S
C831 N839 1.427 . S
C832 H823 0.930 . S
C832 C830 1.378 . S
C832 C833 1.367 . S
C833 C832 1.367 . S
C833 C835 1.433 . S
C834 C830 1.350 . S
C834 C831 1.463 . S
C834 N838 1.427 . S
C835 H825 0.929 . S
C835 C833 1.433 . S
C835 N838 1.384 . S
C836 H827 0.929 . S
C836 C828 1.378 . S
C836 C831 1.350 . S
C837 H824 0.929 . S
C837 C829 1.433 . S
C837 N839 1.384 . S
N838 C834 1.427 . S
N838 C835 1.384 . S
N839 C831 1.427 . S
N839 C837 1.384 . S
H840 C846 0.930 . S
H841 C850 0.930 . S
H842 C855 0.929 . S
H843 C853 0.929 . S
H844 C848 0.938 . S
H845 C854 0.929 . S
C846 H840 0.930 . S
C846 C847 1.367 . S
C846 C854 1.378 . S
C847 C846 1.367 . S
C847 C855 1.433 1_556 S
C848 H844 0.938 . S
C848 C850 1.378 1_655 S
C848 C852 1.350 . S
C849 C852 1.463 . S
C849 C854 1.350 . S
C849 N857 1.427 1_556 S
C850 H841 0.930 . S
C850 C848 1.378 1_455 S
C850 C851 1.367 . S
C851 C850 1.367 . S
C851 C853 1.433 1_455 S
C852 C848 1.350 . S
C852 C849 1.463 . S
C852 N856 1.427 . S
C853 H843 0.929 . S
C853 C851 1.433 1_655 S
C853 N856 1.384 . S
C854 H845 0.929 . S
C854 C846 1.378 . S
C854 C849 1.350 . S
C855 H842 0.929 . S
C855 C847 1.433 1_554 S
C855 N857 1.384 . S
N856 C852 1.427 . S
N856 C853 1.384 . S
N857 C849 1.427 1_554 S
N857 C855 1.384 . S
H858 C864 0.930 . S
H859 C868 0.930 . S
H860 C873 0.929 . S
H861 C871 0.929 . S
H862 C866 0.929 . S
H863 C872 0.929 . S
C864 H858 0.930 . S
C864 C865 1.367 . S
C864 C872 1.378 . S
C865 C864 1.367 . S
C865 C873 1.433 1_556 S
C866 H862 0.929 . S
C866 C868 1.378 . S
C866 C870 1.350 1_545 S
C867 C870 1.463 . S
C867 C872 1.350 . S
C867 N875 1.427 . S
C868 H859 0.930 . S
C868 C866 1.378 . S
C868 C869 1.367 . S
C869 C868 1.367 . S
C869 C871 1.433 1_545 S
C870 C866 1.350 1_565 S
C870 C867 1.463 . S
C870 N874 1.427 . S
C871 H861 0.929 . S
C871 C869 1.433 1_565 S
C871 N874 1.384 . S
C872 H863 0.929 . S
C872 C864 1.378 . S
C872 C867 1.350 . S
C873 H860 0.929 . S
C873 C865 1.433 1_554 S
C873 N875 1.384 1_554 S
N874 C870 1.427 . S
N874 C871 1.384 . S
N875 C867 1.427 . S
N875 C873 1.384 1_556 S
H876 C882 0.930 . S
H877 C886 0.930 . S
H878 C891 0.929 . S
H879 C889 0.929 . S
H880 C884 0.929 . S
H881 C890 0.929 . S
C882 H876 0.930 . S
C882 C883 1.367 . S
C882 C890 1.378 . S
C883 C882 1.367 . S
C883 C891 1.433 1_556 S
C884 H880 0.929 . S
C884 C886 1.378 . S
C884 C888 1.350 . S
C885 C888 1.463 . S
C885 C890 1.350 . S
C885 N893 1.427 . S
C886 H877 0.930 . S
C886 C884 1.378 . S
C886 C887 1.367 . S
C887 C886 1.367 . S
C887 C889 1.433 . S
C888 C884 1.350 . S
C888 C885 1.463 . S
C888 N892 1.427 . S
C889 H879 0.929 . S
C889 C887 1.433 . S
C889 N892 1.384 . S
C890 H881 0.929 . S
C890 C882 1.378 . S
C890 C885 1.350 . S
C891 H878 0.929 . S
C891 C883 1.433 1_554 S
C891 N893 1.384 1_554 S
N892 C888 1.427 . S
N892 C889 1.384 . S
N893 C885 1.427 . S
N893 C891 1.384 1_556 S
H894 C900 0.930 . S
H895 C904 0.930 . S
H896 C909 0.935 . S
H897 C907 0.929 . S
H898 C902 0.929 . S
H899 C908 0.929 . S
C900 H894 0.930 . S
C900 C901 1.367 . S
C900 C908 1.378 . S
C901 C900 1.367 . S
C901 C909 1.431 1_556 S
C902 H898 0.929 . S
C902 C904 1.378 . S
C902 C906 1.350 . S
C903 C906 1.463 . S
C903 C908 1.350 . S
C903 N911 1.427 . S
C904 H895 0.930 . S
C904 C902 1.378 . S
C904 C905 1.367 . S
C905 C904 1.367 . S
C905 C907 1.433 . S
C906 C902 1.350 . S
C906 C903 1.463 . S
C906 N910 1.427 . S
C907 H897 0.929 . S
C907 C905 1.433 . S
C907 N910 1.384 . S
C908 H899 0.929 . S
C908 C900 1.378 . S
C908 C903 1.350 . S
C909 H896 0.935 . S
C909 C901 1.431 1_554 S
C909 N911 1.380 1_554 S
N910 C906 1.427 . S
N910 C907 1.384 . S
N911 C903 1.427 . S
N911 C909 1.380 1_556 S
H912 C918 0.930 . S
H913 C922 0.930 . S
H914 C927 0.929 . S
H915 C925 0.929 . S
H916 C920 0.929 . S
H917 C926 0.929 . S
C918 H912 0.930 . S
C918 C919 1.367 . S
C918 C926 1.378 . S
C919 C918 1.367 . S
C919 C927 1.433 . S
C920 H916 0.929 . S
C920 C922 1.378 . S
C920 C924 1.350 . S
C921 C924 1.463 . S
C921 C926 1.350 . S
C921 N929 1.427 . S
C922 H913 0.930 . S
C922 C920 1.378 . S
C922 C923 1.367 . S
C923 C922 1.367 . S
C923 C925 1.433 . S
C924 C920 1.350 . S
C924 C921 1.463 . S
C924 N928 1.427 . S
C925 H915 0.929 . S
C925 C923 1.433 . S
C925 N928 1.384 . S
C926 H917 0.929 . S
C926 C918 1.378 . S
C926 C921 1.350 . S
C927 H914 0.929 . S
C927 C919 1.433 . S
C927 N929 1.384 . S
N928 C924 1.427 . S
N928 C925 1.384 . S
N929 C921 1.427 . S
N929 C927 1.384 . S
H930 C936 0.930 . S
H931 C940 0.930 . S
H932 C945 0.929 . S
H933 C943 0.929 . S
H934 C938 0.929 . S
H935 C944 0.929 . S
C936 H930 0.930 . S
C936 C937 1.367 . S
C936 C944 1.378 . S
C937 C936 1.367 . S
C937 C945 1.433 . S
C938 H934 0.929 . S
C938 C940 1.378 . S
C938 C942 1.350 . S
C939 C942 1.463 . S
C939 C944 1.350 . S
C939 N947 1.427 . S
C940 H931 0.930 . S
C940 C938 1.378 . S
C940 C941 1.367 . S
C941 C940 1.367 . S
C941 C943 1.433 . S
C942 C938 1.350 . S
C942 C939 1.463 . S
C942 N946 1.427 . S
C943 H933 0.929 . S
C943 C941 1.433 . S
C943 N946 1.384 . S
C944 H935 0.929 . S
C944 C936 1.378 . S
C944 C939 1.350 . S
C945 H932 0.929 . S
C945 C937 1.433 . S
C945 N947 1.384 . S
N946 C942 1.427 . S
N946 C943 1.384 . S
N947 C939 1.427 . S
N947 C945 1.384 . S
H948 C954 0.930 . S
H949 C958 0.930 . S
H950 C963 0.929 . S
H951 C961 0.929 . S
H952 C956 0.929 . S
H953 C962 0.929 . S
C954 H948 0.930 . S
C954 C955 1.367 . S
C954 C962 1.378 . S
C955 C954 1.367 . S
C955 C963 1.433 . S
C956 H952 0.929 . S
C956 C958 1.378 . S
C956 C960 1.350 . S
C957 C960 1.463 . S
C957 C962 1.350 . S
C957 N965 1.427 . S
C958 H949 0.930 . S
C958 C956 1.378 . S
C958 C959 1.367 . S
C959 C958 1.367 . S
C959 C961 1.433 . S
C960 C956 1.350 . S
C960 C957 1.463 . S
C960 N964 1.427 . S
C961 H951 0.929 . S
C961 C959 1.433 . S
C961 N964 1.384 . S
C962 H953 0.929 . S
C962 C954 1.378 . S
C962 C957 1.350 . S
C963 H950 0.929 . S
C963 C955 1.433 . S
C963 N965 1.384 . S
N964 C960 1.427 . S
N964 C961 1.384 . S
N965 C957 1.427 . S
N965 C963 1.384 . S
H966 C972 0.930 . S
H967 C976 0.930 . S
H968 C981 0.929 . S
H969 C979 0.929 . S
H970 C974 0.929 . S
H971 C980 0.929 . S
C972 H966 0.930 . S
C972 C973 1.367 . S
C972 C980 1.378 . S
C973 C972 1.367 . S
C973 C981 1.433 . S
C974 H970 0.929 . S
C974 C976 1.378 . S
C974 C978 1.350 . S
C975 C978 1.463 . S
C975 C980 1.350 . S
C975 N983 1.427 . S
C976 H967 0.930 . S
C976 C974 1.378 . S
C976 C977 1.367 . S
C977 C976 1.367 . S
C977 C979 1.433 . S
C978 C974 1.350 . S
C978 C975 1.463 . S
C978 N982 1.427 . S
C979 H969 0.929 . S
C979 C977 1.433 . S
C979 N982 1.384 . S
C980 H971 0.929 . S
C980 C972 1.378 . S
C980 C975 1.350 . S
C981 H968 0.929 . S
C981 C973 1.433 . S
C981 N983 1.384 . S
N982 C978 1.427 . S
N982 C979 1.384 . S
N983 C975 1.427 . S
N983 C981 1.384 . S
H984 C990 0.930 . S
H985 C994 0.930 . S
H986 C999 0.929 . S
H987 C997 0.929 . S
H988 C992 0.929 . S
H989 C998 0.929 . S
C990 H984 0.930 . S
C990 C991 1.367 . S
C990 C998 1.378 . S
C991 C990 1.367 . S
C991 C999 1.433 . S
C992 H988 0.929 . S
C992 C994 1.378 . S
C992 C996 1.350 . S
C993 C996 1.463 . S
C993 C998 1.350 . S
C993 N1001 1.427 . S
C994 H985 0.930 . S
C994 C992 1.378 . S
C994 C995 1.367 . S
C995 C994 1.367 . S
C995 C997 1.433 . S
C996 C992 1.350 . S
C996 C993 1.463 . S
C996 N1000 1.427 . S
C997 H987 0.929 . S
C997 C995 1.433 . S
C997 N1000 1.384 . S
C998 H989 0.929 . S
C998 C990 1.378 . S
C998 C993 1.350 . S
C999 H986 0.929 . S
C999 C991 1.433 . S
C999 N1001 1.384 . S
N1000 C996 1.427 . S
N1000 C997 1.384 . S
N1001 C993 1.427 . S
N1001 C999 1.384 . S
H1002 C1008 0.930 . S
H1003 C1012 0.930 . S
H1004 C1017 0.929 . S
H1005 C1015 0.929 . S
H1006 C1010 0.929 . S
H1007 C1016 0.929 . S
C1008 H1002 0.930 . S
C1008 C1009 1.367 . S
C1008 C1016 1.378 . S
C1009 C1008 1.367 . S
C1009 C1017 1.433 . S
C1010 H1006 0.929 . S
C1010 C1012 1.378 . S
C1010 C1014 1.350 . S
C1011 C1014 1.463 . S
C1011 C1016 1.350 . S
C1011 N1019 1.427 . S
C1012 H1003 0.930 . S
C1012 C1010 1.378 . S
C1012 C1013 1.367 . S
C1013 C1012 1.367 . S
C1013 C1015 1.433 . S
C1014 C1010 1.350 . S
C1014 C1011 1.463 . S
C1014 N1018 1.427 . S
C1015 H1005 0.929 . S
C1015 C1013 1.433 . S
C1015 N1018 1.384 . S
C1016 H1007 0.929 . S
C1016 C1008 1.378 . S
C1016 C1011 1.350 . S
C1017 H1004 0.929 . S
C1017 C1009 1.433 . S
C1017 N1019 1.384 . S
N1018 C1014 1.427 . S
N1018 C1015 1.384 . S
N1019 C1011 1.427 . S
N1019 C1017 1.384 . S
H1020 C1026 0.930 . S
H1021 C1030 0.930 . S
H1022 C1035 0.929 . S
H1023 C1033 0.929 . S
H1024 C1028 0.929 . S
H1025 C1034 0.929 . S
C1026 H1020 0.930 . S
C1026 C1027 1.367 . S
C1026 C1034 1.378 . S
C1027 C1026 1.367 . S
C1027 C1035 1.433 . S
C1028 H1024 0.929 . S
C1028 C1030 1.378 . S
C1028 C1032 1.350 . S
C1029 C1032 1.463 . S
C1029 C1034 1.350 . S
C1029 N1037 1.427 . S
C1030 H1021 0.930 . S
C1030 C1028 1.378 . S
C1030 C1031 1.367 . S
C1031 C1030 1.367 . S
C1031 C1033 1.433 . S
C1032 C1028 1.350 . S
C1032 C1029 1.463 . S
C1032 N1036 1.427 . S
C1033 H1023 0.929 . S
C1033 C1031 1.433 . S
C1033 N1036 1.384 . S
C1034 H1025 0.929 . S
C1034 C1026 1.378 . S
C1034 C1029 1.350 . S
C1035 H1022 0.929 . S
C1035 C1027 1.433 . S
C1035 N1037 1.384 . S
N1036 C1032 1.427 . S
N1036 C1033 1.384 . S
N1037 C1029 1.427 . S
N1037 C1035 1.384 . S
H1038 C1044 0.930 . S
H1039 C1048 0.930 . S
H1040 C1053 0.929 . S
H1041 C1051 0.929 . S
H1042 C1046 0.929 . S
H1043 C1052 0.929 . S
C1044 H1038 0.930 . S
C1044 C1045 1.367 . S
C1044 C1052 1.378 . S
C1045 C1044 1.367 . S
C1045 C1053 1.433 . S
C1046 H1042 0.929 . S
C1046 C1048 1.378 . S
C1046 C1050 1.350 . S
C1047 C1050 1.463 . S
C1047 C1052 1.350 . S
C1047 N1055 1.427 . S
C1048 H1039 0.930 . S
C1048 C1046 1.378 . S
C1048 C1049 1.367 . S
C1049 C1048 1.367 . S
C1049 C1051 1.433 . S
C1050 C1046 1.350 . S
C1050 C1047 1.463 . S
C1050 N1054 1.427 . S
C1051 H1041 0.929 . S
C1051 C1049 1.433 . S
C1051 N1054 1.384 . S
C1052 H1043 0.929 . S
C1052 C1044 1.378 . S
C1052 C1047 1.350 . S
C1053 H1040 0.929 . S
C1053 C1045 1.433 . S
C1053 N1055 1.384 . S
N1054 C1050 1.427 . S
N1054 C1051 1.384 . S
N1055 C1047 1.427 . S
N1055 C1053 1.384 . S
C631 C241 2.241 . S
C635 C362 2.337 . S
C653 C446 2.365 . S
C649 C277 2.274 . S
C671 C512 2.271 . S
C667 C169 2.374 . S
C689 C596 2.252 . S
C685 C205 2.355 . S
C707 C351 2.338 1_565 S
C703 C97 2.184 . S
C721 C133 2.321 . S
C725 C435 2.369 . S
C739 C25 2.317 . S
C743 C523 2.270 . S
C757 C61 2.317 . S
C761 C607 2.267 . S
C779 C358 0.658 1_455 S
C775 C211 0.661 . S
C797 C442 0.566 1_545 S
C793 C247 0.633 . S
C815 C514 0.557 . S
C811 C253 0.610 . S
C829 C175 0.661 . S
C833 C598 0.613 . S
C847 C67 0.706 1_556 S
C851 C346 0.644 . S
C869 C430 0.583 . S
C865 C103 0.670 1_556 S
C887 C526 0.560 . S
C883 C109 0.576 1_556 S
C901 C31 0.662 1_556 S
C905 C610 0.619 . S
C919 C181 2.807 . S
C923 C355 2.912 . S
C937 C217 2.760 . S
C941 C439 2.866 . S
C959 C519 2.940 . S
C955 C283 2.536 . S
C977 C603 2.963 . S
C973 C145 2.680 . S
C991 C37 2.773 . S
C995 C344 2.915 . S
C1013 C428 2.856 . S
C1009 C73 2.719 . S
C1031 C530 2.937 . S
C1027 C139 2.590 . S
C1045 C1 2.641 . S
C1049 C614 2.965 . S
