# Generated by pormake.
# Topology zzz, (3,6)-cn, num edge types: 1
# Building blocks:
#     Node 0, Type 0, BuildingBlock: VETTIZ_charged_linker_0, # of connection points: 3
#     Node 1, Type 0, BuildingBlock: VETTIZ_charged_linker_0, # of connection points: 3
#     Node 2, Type 0, BuildingBlock: VETTIZ_charged_linker_0, # of connection points: 3
#     Node 3, Type 0, BuildingBlock: VETTIZ_charged_linker_0, # of connection points: 3
#     Node 4, Type 0, BuildingBlock: VETTIZ_charged_linker_0, # of connection points: 3
#     Node 5, Type 0, BuildingBlock: VETTIZ_charged_linker_0, # of connection points: 3
#     Node 6, Type 0, BuildingBlock: VETTIZ_charged_linker_0, # of connection points: 3
#     Node 7, Type 0, BuildingBlock: VETTIZ_charged_linker_0, # of connection points: 3
#     Node 8, Type 1, BuildingBlock: PAMTUU_clean_sbu_0, # of connection points: 6
#     Node 9, Type 1, BuildingBlock: PAMTUU_clean_sbu_0, # of connection points: 6
#     Node 10, Type 1, BuildingBlock: PAMTUU_clean_sbu_0, # of connection points: 6
#     Node 11, Type 1, BuildingBlock: PAMTUU_clean_sbu_0, # of connection points: 6
#     Edge 12, Type (0, 1), BuildingBlock: CIFDUS_clean_linker_0, # of connection points: 2
#     Edge 13, Type (0, 1), BuildingBlock: CIFDUS_clean_linker_0, # of connection points: 2
#     Edge 14, Type (0, 1), BuildingBlock: CIFDUS_clean_linker_0, # of connection points: 2
#     Edge 15, Type (0, 1), BuildingBlock: CIFDUS_clean_linker_0, # of connection points: 2
#     Edge 16, Type (0, 1), BuildingBlock: CIFDUS_clean_linker_0, # of connection points: 2
#     Edge 17, Type (0, 1), BuildingBlock: CIFDUS_clean_linker_0, # of connection points: 2
#     Edge 18, Type (0, 1), BuildingBlock: CIFDUS_clean_linker_0, # of connection points: 2
#     Edge 19, Type (0, 1), BuildingBlock: CIFDUS_clean_linker_0, # of connection points: 2
#     Edge 20, Type (0, 1), BuildingBlock: CIFDUS_clean_linker_0, # of connection points: 2
#     Edge 21, Type (0, 1), BuildingBlock: CIFDUS_clean_linker_0, # of connection points: 2
#     Edge 22, Type (0, 1), BuildingBlock: CIFDUS_clean_linker_0, # of connection points: 2
#     Edge 23, Type (0, 1), BuildingBlock: CIFDUS_clean_linker_0, # of connection points: 2
#     Edge 24, Type (0, 1), BuildingBlock: CIFDUS_clean_linker_0, # of connection points: 2
#     Edge 25, Type (0, 1), BuildingBlock: CIFDUS_clean_linker_0, # of connection points: 2
#     Edge 26, Type (0, 1), BuildingBlock: CIFDUS_clean_linker_0, # of connection points: 2
#     Edge 27, Type (0, 1), BuildingBlock: CIFDUS_clean_linker_0, # of connection points: 2
#     Edge 28, Type (0, 1), BuildingBlock: CIFDUS_clean_linker_0, # of connection points: 2
#     Edge 29, Type (0, 1), BuildingBlock: CIFDUS_clean_linker_0, # of connection points: 2
#     Edge 30, Type (0, 1), BuildingBlock: CIFDUS_clean_linker_0, # of connection points: 2
#     Edge 31, Type (0, 1), BuildingBlock: CIFDUS_clean_linker_0, # of connection points: 2
#     Edge 32, Type (0, 1), BuildingBlock: CIFDUS_clean_linker_0, # of connection points: 2
#     Edge 33, Type (0, 1), BuildingBlock: CIFDUS_clean_linker_0, # of connection points: 2
#     Edge 34, Type (0, 1), BuildingBlock: CIFDUS_clean_linker_0, # of connection points: 2
#     Edge 35, Type (0, 1), BuildingBlock: CIFDUS_clean_linker_0, # of connection points: 2
# Relax obj value: 0.405
# Max RMSD: 0.277
# Mean RMSD: 0.224
data_MOF--net-zzz--node1-PAMTUU_clean_sbu_0--node2-VETTIZ_charged_linker_0--edge1-CIFDUS_clean_linker_0
_symmetry_space_group_name_H-M    P1
_symmetry_Int_Tables_number       1
_symmetry_cell_setting            triclinic
loop_
_symmetry_equiv_pos_as_xyz
'x, y, z'
_cell_length_a     50.084497
_cell_length_b     54.510885
_cell_length_c     18.644761
_cell_angle_alpha  99.517063
_cell_angle_beta   89.526731
_cell_angle_gamma 89.798148
loop_
_atom_site_label
_atom_site_type_symbol
_atom_site_fract_x
_atom_site_fract_y
_atom_site_fract_z
_atom_type_partial_charge
C0 C 0.84742 0.52267 0.46313 0.0
C1 C 0.86535 0.5369 0.51286 0.0
C2 C 0.86009 0.56256 0.53392 0.0
C3 C 0.82653 0.56086 0.44215 0.0
C4 C 0.8274 0.53536 0.42921 0.0
C5 C 0.8047 0.52555 0.37752 0.0
H6 H 0.70758 0.55966 0.14682 0.0
C7 C 0.80819 0.5698 0.39221 0.0
C8 C 0.79323 0.54975 0.3566 0.0
H9 H 0.71977 0.48554 0.19273 0.0
H10 H 0.75644 0.50062 0.27514 0.0
H11 H 0.71758 0.5936 0.30436 0.0
H12 H 0.7584 0.56725 0.11034 0.0
H13 H 0.78432 0.58524 0.15446 0.0
H14 H 0.75334 0.59967 0.13335 0.0
H15 H 0.71479 0.60254 0.21605 0.0
H16 H 0.7378 0.61795 0.28226 0.0
C17 C 0.78422 0.51252 0.42019 0.0
C18 C 0.81625 0.50814 0.31107 0.0
C19 C 0.84379 0.63506 0.26135 0.0
C20 C 0.83502 0.63934 0.19312 0.0
C21 C 0.80731 0.64059 0.18169 0.0
C22 C 0.78959 0.63075 0.22803 0.0
C23 C 0.80015 0.61893 0.28294 0.0
C24 C 0.82628 0.62338 0.30404 0.0
C25 C 0.83421 0.60898 0.36287 0.0
C26 C 0.80955 0.59244 0.36484 0.0
C27 C 0.79047 0.59751 0.31481 0.0
C28 C 0.83846 0.62771 0.43371 0.0
C29 C 0.85982 0.59351 0.33939 0.0
C30 C 0.71744 0.54668 0.17619 0.0
C31 C 0.71005 0.5216 0.16472 0.0
C32 C 0.7247 0.50512 0.20124 0.0
C33 C 0.7458 0.51388 0.24938 0.0
C34 C 0.75276 0.53927 0.26006 0.0
C35 C 0.73879 0.55489 0.22201 0.0
C36 C 0.75068 0.58028 0.2294 0.0
C37 C 0.77213 0.57865 0.28552 0.0
C38 C 0.77377 0.55448 0.30386 0.0
C39 C 0.72909 0.59976 0.25928 0.0
C40 C 0.76228 0.58347 0.15354 0.0
H41 H 0.83574 0.59365 0.51928 0.0
H42 H 0.84955 0.50267 0.44955 0.0
H43 H 0.83221 0.51773 0.28466 0.0
H44 H 0.80078 0.5023 0.26989 0.0
H45 H 0.82498 0.49117 0.32751 0.0
H46 H 0.77814 0.52496 0.47118 0.0
H47 H 0.79292 0.49528 0.43509 0.0
H48 H 0.76588 0.50753 0.38895 0.0
H49 H 0.86492 0.63554 0.27295 0.0
H50 H 0.79985 0.64517 0.13113 0.0
H51 H 0.76875 0.63041 0.2154 0.0
H52 H 0.84499 0.64616 0.42217 0.0
H53 H 0.85467 0.62164 0.467 0.0
H54 H 0.81978 0.63066 0.46666 0.0
H55 H 0.85692 0.58133 0.28601 0.0
H56 H 0.86561 0.58163 0.37929 0.0
H57 H 0.87722 0.60573 0.335 0.0
H58 H 0.87173 0.57361 0.57611 0.0
C59 C 0.84029 0.57441 0.49998 0.0
C60 C 0.9393 0.82538 0.12021 0.0
C61 C 0.92685 0.84745 0.15605 0.0
C62 C 0.91219 0.84631 0.22059 0.0
C63 C 0.93344 0.80723 0.22836 0.0
C64 C 0.94204 0.80522 0.1574 0.0
C65 C 0.95758 0.78144 0.13372 0.0
H66 H 1.01112 0.6787 0.23896 0.0
C67 C 0.94805 0.78893 0.26252 0.0
C68 C 0.96112 0.77278 0.20663 0.0
H69 H 0.9956 0.69177 0.02066 0.0
H70 H 0.98164 0.73395 0.06751 0.0
H71 H 0.03873 0.74124 0.31092 0.0
H72 H 0.95699 0.71555 0.32845 0.0
H73 H 0.97595 0.72713 0.40852 0.0
H74 H 0.98397 0.69722 0.35571 0.0
H75 H 0.03405 0.70994 0.32697 0.0
H76 H 1.02505 0.73474 0.39683 0.0
C77 C 0.98479 0.78735 0.10056 0.0
C78 C 0.94007 0.76336 0.08084 0.0
C79 C 0.98326 0.82352 0.50964 0.0
C80 C 1.01034 0.824 0.52821 0.0
C81 C 1.02733 0.80502 0.49279 0.0
C82 C 1.0175 0.78638 0.43814 0.0
C83 C 0.99048 0.7866 0.41863 0.0
C84 C 0.97448 0.80635 0.45013 0.0
C85 C 0.95196 0.81111 0.40067 0.0
C86 C 0.95736 0.79084 0.33508 0.0
C87 C 0.97803 0.77502 0.35004 0.0
C88 C 0.95425 0.83798 0.38226 0.0
C89 C 0.92528 0.80673 0.43817 0.0
C90 C 1.00471 0.69079 0.20174 0.0
C91 C 1.00417 0.68199 0.12615 0.0
C92 C 0.99601 0.69816 0.07886 0.0
C93 C 0.98762 0.72243 0.10596 0.0
C94 C 0.98773 0.73081 0.18113 0.0
C95 C 0.99701 0.71559 0.22808 0.0
C96 C 0.99698 0.72907 0.30614 0.0
C97 C 0.98652 0.75479 0.29649 0.0
C98 C 0.9789 0.75447 0.22433 0.0
C99 C 1.02535 0.72899 0.33694 0.0
C100 C 0.97731 0.71647 0.35237 0.0
H101 H 0.90522 0.8259 0.30791 0.0
H102 H 0.9496 0.82475 0.0688 0.0
H103 H 0.91904 0.76992 0.07984 0.0
H104 H 0.93884 0.7447 0.09705 0.0
H105 H 0.94782 0.76118 0.02412 0.0
H106 H 0.99469 0.80302 0.13617 0.0
H107 H 0.98216 0.79264 0.04603 0.0
H108 H 0.9988 0.77142 0.09463 0.0
H109 H 0.97029 0.83883 0.53263 0.0
H110 H 0.04858 0.80579 0.50328 0.0
H111 H 0.03181 0.77452 0.40608 0.0
H112 H 0.96451 0.83802 0.32924 0.0
H113 H 0.96587 0.85092 0.42215 0.0
H114 H 0.93451 0.84716 0.38228 0.0
H115 H 0.92156 0.82165 0.48553 0.0
H116 H 0.92554 0.78856 0.45797 0.0
H117 H 0.9083 0.80628 0.40048 0.0
H118 H 0.90053 0.86212 0.24662 0.0
C119 C 0.91536 0.82594 0.25689 0.0
C120 C 0.87315 0.9733 0.23379 0.0
C121 C 0.89173 0.96183 0.17977 0.0
C122 C 0.89095 0.9358 0.15836 0.0
C123 C 0.8502 0.93411 0.22559 0.0
C124 C 0.8525 0.95852 0.25748 0.0
C125 C 0.83028 0.96494 0.31493 0.0
H126 H 0.71089 0.92311 0.44436 0.0
C127 C 0.82522 0.92414 0.24718 0.0
C128 C 0.81357 0.94083 0.30421 0.0
H129 H 0.74982 0.99173 0.53319 0.0
H130 H 0.78635 0.98183 0.44381 0.0
H131 H 0.70911 0.92391 0.31046 0.0
H132 H 0.7287 0.88076 0.39073 0.0
H133 H 0.76273 0.88679 0.41832 0.0
H134 H 0.7562 0.86829 0.33296 0.0
H135 H 0.71367 0.89244 0.27316 0.0
H136 H 0.73055 0.91655 0.23404 0.0
C137 C 0.81404 0.98731 0.29832 0.0
C138 C 0.84317 0.96996 0.39053 0.0
C139 C 0.7656 0.8858 0.05027 0.0
C140 C 0.73867 0.87891 0.05676 0.0
C141 C 0.73158 0.86689 0.11571 0.0
C142 C 0.74822 0.86888 0.1764 0.0
C143 C 0.77162 0.8828 0.17632 0.0
C144 C 0.78193 0.8877 0.11161 0.0
C145 C 0.80873 0.90012 0.12209 0.0
C146 C 0.80982 0.90553 0.20559 0.0
C147 C 0.78645 0.89758 0.23598 0.0
C148 C 0.809 0.92425 0.08829 0.0
C149 C 0.83019 0.88145 0.08664 0.0
C150 C 0.72744 0.93595 0.4463 0.0
C151 C 0.72751 0.9579 0.49745 0.0
C152 C 0.74915 0.9745 0.4949 0.0
C153 C 0.7704 0.96869 0.44348 0.0
C154 C 0.76987 0.94627 0.39325 0.0
C155 C 0.74817 0.9307 0.39522 0.0
C156 C 0.74886 0.90854 0.3361 0.0
C157 C 0.7756 0.91212 0.30023 0.0
C158 C 0.78823 0.93437 0.33319 0.0
C159 C 0.7245 0.91031 0.28557 0.0
C160 C 0.74899 0.88473 0.37112 0.0
H161 H 0.87086 0.90183 0.16838 0.0
H162 H 0.87408 0.99304 0.25428 0.0
H163 H 0.85649 0.95425 0.39816 0.0
H164 H 0.82815 0.97202 0.43472 0.0
H165 H 0.85534 0.98718 0.39672 0.0
H166 H 0.80647 0.98354 0.24168 0.0
H167 H 0.82662 1.00426 0.30426 0.0
H168 H 0.79661 0.99128 0.33518 0.0
H169 H 0.77247 0.89338 1.00345 0.0
H170 H 0.71173 0.85936 0.11959 0.0
H171 H 0.74143 0.86166 0.22354 0.0
H172 H 0.80668 0.92009 0.02838 0.0
H173 H 0.82816 0.93426 0.0978 0.0
H174 H 0.79263 0.93703 0.11169 0.0
H175 H 0.8363 0.8686 0.12409 0.0
H176 H 0.84798 0.89103 0.06924 0.0
H177 H 0.82263 0.86999 0.036 0.0
H178 H 0.90574 0.92637 0.12073 0.0
C179 C 0.87059 0.92181 0.18274 0.0
C180 C 0.58824 0.74554 0.38656 0.0
C181 C 0.60101 0.72225 0.38791 0.0
C182 C 0.61471 0.71051 0.32475 0.0
C183 C 0.59555 0.73975 0.2572 0.0
C184 C 0.58702 0.75461 0.31983 0.0
C185 C 0.57509 0.7786 0.30176 0.0
H186 H 0.52613 0.83742 0.03526 0.0
C187 C 0.58467 0.74905 0.19512 0.0
C188 C 0.57707 0.77385 0.21801 0.0
H189 H 0.58202 0.87253 0.19486 0.0
H190 H 0.58973 0.83214 0.23463 0.0
H191 H 0.5639 0.79775 0.98154 0.0
H192 H 0.49862 0.7937 0.13157 0.0
H193 H 0.49868 0.76665 0.06532 0.0
H194 H 0.49385 0.79653 0.03792 0.0
H195 H 0.52991 0.79466 0.95152 0.0
H196 H 0.55018 0.76792 0.96012 0.0
C197 C 0.59169 0.80091 0.33748 0.0
C198 C 0.54577 0.7813 0.32745 0.0
C199 C 0.53808 0.68207 0.02163 0.0
C200 C 0.51915 0.6826 0.96696 0.0
C201 C 0.51171 0.70554 0.94776 0.0
C202 C 0.52245 0.72781 0.9848 0.0
C203 C 0.54108 0.72694 0.04058 0.0
C204 C 0.54887 0.70425 0.05731 0.0
C205 C 0.56832 0.70654 0.1189 0.0
C206 C 0.5716 0.73472 0.13529 0.0
C207 C 0.55478 0.74642 0.09134 0.0
C208 C 0.59462 0.6926 0.09287 0.0
C209 C 0.55472 0.69611 0.18241 0.0
C210 C 0.53863 0.83706 0.08224 0.0
C211 C 0.55234 0.85847 0.11438 0.0
C212 C 0.57038 0.85656 0.17125 0.0
C213 C 0.57417 0.83366 0.19609 0.0
C214 C 0.55942 0.81283 0.16476 0.0
C215 C 0.54308 0.81448 0.10628 0.0
C216 C 0.53551 0.78935 0.06551 0.0
C217 C 0.55132 0.77254 0.10655 0.0
C218 C 0.56331 0.78627 0.16808 0.0
C219 C 0.54512 0.78717 0.9853 0.0
C220 C 0.50505 0.78625 0.07485 0.0
H221 H 0.62233 0.71008 0.21122 0.0
H222 H 0.5787 0.75566 0.43489 0.0
H223 H 0.53405 0.7647 0.3035 0.0
H224 H 0.53649 0.79797 0.31053 0.0
H225 H 0.54437 0.78338 0.38766 0.0
H226 H 0.6113 0.80141 0.30943 0.0
H227 H 0.59542 0.79978 0.39554 0.0
H228 H 0.58082 0.81862 0.33697 0.0
H229 H 0.54467 0.66455 0.03585 0.0
H230 H 0.49745 0.70621 0.90474 0.0
H231 H 0.51585 0.74481 0.96859 0.0
H232 H 0.59219 0.67938 0.0412 0.0
H233 H 0.60181 0.68118 0.13293 0.0
H234 H 0.61063 0.70575 0.08308 0.0
H235 H 0.53637 0.70694 0.20109 0.0
H236 H 0.56788 0.69648 0.22967 0.0
H237 H 0.54901 0.67635 0.16537 0.0
H238 H 0.62551 0.69324 0.32423 0.0
C239 C 0.61224 0.71945 0.25924 0.0
C240 C 0.36982 0.48262 0.3669 0.0
C241 C 0.38904 0.46853 0.3998 0.0
C242 C 0.38626 0.44236 0.3894 0.0
C243 C 0.34236 0.44611 0.34287 0.0
C244 C 0.34665 0.47029 0.335 0.0
C245 C 0.32202 0.47978 0.29904 0.0
H246 H 0.18872 0.46224 0.2266 0.0
C247 C 0.31428 0.44037 0.33391 0.0
C248 C 0.30281 0.45731 0.29406 0.0
H249 H 0.24346 0.4821 0.06516 0.0
H250 H 0.28125 0.47489 0.14334 0.0
H251 H 0.21471 0.41654 0.23361 0.0
H252 H 0.22608 0.48473 0.38464 0.0
H253 H 0.2167 0.46021 0.43059 0.0
H254 H 0.19452 0.46952 0.36565 0.0
H255 H 0.19226 0.42545 0.309 0.0
H256 H 0.22244 0.40791 0.31751 0.0
C257 C 0.32982 0.48585 0.22411 0.0
C258 C 0.31017 0.50277 0.34815 0.0
C259 C 0.27426 0.42371 0.56911 0.0
C260 C 0.24775 0.42697 0.59389 0.0
C261 C 0.22706 0.42245 0.54264 0.0
C262 C 0.23272 0.42053 0.4683 0.0
C263 C 0.25917 0.42341 0.44593 0.0
C264 C 0.27967 0.42252 0.49458 0.0
C265 C 0.30655 0.42589 0.46104 0.0
C266 C 0.29832 0.43019 0.38477 0.0
C267 C 0.27044 0.43073 0.37922 0.0
C268 C 0.32324 0.40199 0.46072 0.0
C269 C 0.32016 0.44903 0.50542 0.0
C270 C 0.20855 0.46571 0.2073 0.0
C271 C 0.21249 0.47303 0.13891 0.0
C272 C 0.23928 0.47723 0.11807 0.0
C273 C 0.26118 0.4736 0.16359 0.0
C274 C 0.25638 0.46621 0.23135 0.0
C275 C 0.2304 0.46139 0.25024 0.0
C276 C 0.22901 0.44811 0.31467 0.0
C277 C 0.25845 0.44376 0.32751 0.0
C278 C 0.27451 0.45638 0.28319 0.0
C279 C 0.21368 0.42329 0.29324 0.0
C280 C 0.21586 0.4664 0.37752 0.0
H281 H 0.36033 0.41119 0.35606 0.0
H282 H 0.37192 0.50253 0.37022 0.0
H283 H 0.30538 0.49847 0.40307 0.0
H284 H 0.29148 0.50885 0.3244 0.0
H285 H 0.3245 0.51848 0.35428 0.0
H286 H 0.33406 0.46856 0.18492 0.0
H287 H 0.34796 0.49767 0.22828 0.0
H288 H 0.31376 0.49651 0.20245 0.0
H289 H 0.29033 0.42614 0.60805 0.0
H290 H 0.20635 0.42412 0.56004 0.0
H291 H 0.2161 0.41939 0.43205 0.0
H292 H 0.31907 0.38798 0.4117 0.0
H293 H 0.3188 0.39331 0.50941 0.0
H294 H 0.34491 0.40591 0.4635 0.0
H295 H 0.32345 0.4466 0.56258 0.0
H296 H 0.30773 0.46597 0.50545 0.0
H297 H 0.34015 0.45254 0.48427 0.0
H298 H 0.40136 0.43083 0.40875 0.0
C299 C 0.36285 0.43106 0.3608 0.0
C300 C 0.90648 0.23029 0.45442 0.0
C301 C 0.89638 0.20622 0.43102 0.0
C302 C 0.89558 0.19718 0.35561 0.0
C303 C 0.92327 0.23126 0.33286 0.0
C304 C 0.92032 0.24231 0.40454 0.0
C305 C 0.93688 0.26552 0.42187 0.0
H306 H 0.04394 0.33193 0.34555 0.0
C307 C 0.94516 0.24391 0.30038 0.0
C308 C 0.95306 0.26421 0.35159 0.0
H309 H 0.98488 0.34963 0.51717 0.0
H310 H 0.95961 0.3137 0.46771 0.0
H311 H 0.0433 0.27041 0.34953 0.0
H312 H 1.01836 0.28619 0.15877 0.0
H313 H 0.03591 0.31168 0.21092 0.0
H314 H 1.00002 0.31172 0.20724 0.0
H315 H 0.06039 0.28515 0.28306 0.0
H316 H 0.0448 0.25523 0.2585 0.0
C317 C 0.95488 0.26318 0.48773 0.0
C318 C 0.91761 0.28825 0.43466 0.0
C319 C 0.98829 0.1964 0.07407 0.0
C320 C 1.01353 0.19683 0.04176 0.0
C321 C 0.03113 0.21637 0.06827 0.0
C322 C 1.02336 0.23518 0.12658 0.0
C323 C 0.99816 0.23386 0.16014 0.0
C324 C 0.98136 0.21442 0.13354 0.0
C325 C 0.95697 0.21339 0.17963 0.0
C326 C 0.96124 0.23582 0.23797 0.0
C327 C 0.98514 0.24826 0.22636 0.0
C328 C 0.95742 0.18834 0.20993 0.0
C329 C 0.93222 0.21699 0.1331 0.0
C330 C 1.02551 0.3279 0.37199 0.0
C331 C 1.01658 0.34341 0.43622 0.0
C332 C 0.99244 0.33775 0.4688 0.0
C333 C 0.97766 0.31692 0.43984 0.0
C334 C 0.98714 0.30106 0.37807 0.0
C335 C 1.01038 0.30666 0.34381 0.0
C336 C 1.01655 0.28711 0.27774 0.0
C337 C 0.99238 0.26997 0.27654 0.0
C338 C 0.97585 0.27809 0.33729 0.0
C339 C 0.04273 0.27376 0.29228 0.0
C340 C 1.01791 0.29976 0.20971 0.0
H341 H 0.90869 0.2014 0.25026 0.0
H342 H 0.9062 0.2383 0.51155 0.0
H343 H 0.89695 0.28326 0.41638 0.0
H344 H 0.92381 0.3029 0.40319 0.0
H345 H 0.91625 0.29648 0.4932 0.0
H346 H 0.96466 0.24456 0.48024 0.0
H347 H 0.94299 0.2655 0.53898 0.0
H348 H 0.97116 0.27687 0.4955 0.0
H349 H 0.97469 0.18121 0.05644 0.0
H350 H 0.05083 0.21696 0.04427 0.0
H351 H 0.0374 0.2497 0.14442 0.0
H352 H 0.97648 0.17789 0.19789 0.0
H353 H 0.94128 0.17568 0.18625 0.0
H354 H 0.95576 0.19116 0.27002 0.0
H355 H 0.936 0.23153 0.09885 0.0
H356 H 0.91446 0.2235 0.16658 0.0
H357 H 0.92725 0.19947 0.09622 0.0
H358 H 0.88745 0.17905 0.33489 0.0
C359 C 0.90868 0.20983 0.30634 0.0
C360 C 0.33746 0.01084 0.11367 0.0
C361 C 0.36582 0.00721 0.1121 0.0
C362 C 0.37843 1.00297 0.17636 0.0
C363 C 0.3385 0.01527 0.24439 0.0
C364 C 0.32383 0.01378 0.18217 0.0
C365 C 0.29419 0.01786 0.20337 0.0
H366 H 0.2079 0.05346 0.49624 0.0
C367 C 0.32226 0.02596 0.30652 0.0
C368 C 0.29537 0.02319 0.28764 0.0
H369 H 0.19801 0.98486 0.34659 0.0
H370 H 0.2409 0.99196 0.28759 0.0
H371 H 0.2598 0.03767 0.5329 0.0
H372 H 0.24484 0.08924 0.38467 0.0
H373 H 0.26907 0.10132 0.44944 0.0
H374 H 0.23583 0.09532 0.47949 0.0
H375 H 0.25088 0.06953 0.56535 0.0
H376 H 0.285 0.06004 0.54515 0.0
C377 C 0.27821 0.99437 0.17436 0.0
C378 C 0.28318 0.04052 0.17352 0.0
C379 C 0.36963 0.09452 0.4702 0.0
C380 C 0.36318 0.10853 0.53864 0.0
C381 C 0.33596 0.11042 0.55967 0.0
C382 C 0.31643 0.09632 0.51728 0.0
C383 C 0.32446 0.07935 0.4553 0.0
C384 C 0.35077 0.07885 0.43296 0.0
C385 C 0.35717 0.05789 0.37237 0.0
C386 C 0.32996 0.04564 0.36164 0.0
C387 C 0.31071 0.05895 0.40747 0.0
C388 C 0.37868 0.04053 0.39753 0.0
C389 C 0.36633 0.06924 0.30553 0.0
C390 C 0.21377 0.04077 0.4476 0.0
C391 C 0.19878 0.01923 0.42439 0.0
C392 C 0.20861 1.00205 0.36432 0.0
C393 C 0.23291 1.00635 0.32884 0.0
C394 C 0.24745 0.02809 0.35307 0.0
C395 C 0.23829 0.04431 0.41372 0.0
C396 C 0.25993 0.06144 0.44739 0.0
C397 C 0.2835 0.05224 0.39887 0.0
C398 C 0.27577 0.03417 0.33984 0.0
C399 C 0.26416 0.05724 0.52697 0.0
C400 C 0.25209 0.08836 0.44044 0.0
H401 H 0.37465 1.00322 0.29071 0.0
H402 H 0.32674 0.01256 0.06457 0.0
H403 H 0.2953 0.05732 0.19296 0.0
H404 H 0.26222 0.04442 0.19204 0.0
H405 H 0.28359 0.03709 0.11308 0.0
H406 H 0.28351 0.97892 0.20382 0.0
H407 H 0.28247 0.98823 0.11551 0.0
H408 H 0.25646 0.99812 0.17991 0.0
H409 H 0.38998 0.09244 0.45024 0.0
H410 H 0.33008 0.12137 0.61127 0.0
H411 H 0.2962 0.09787 0.5371 0.0
H412 H 0.38912 0.04898 0.44786 0.0
H413 H 0.39467 0.03584 0.3559 0.0
H414 H 0.36969 0.02308 0.40989 0.0
H415 H 0.35025 0.08097 0.28785 0.0
H416 H 0.37187 0.05489 0.25872 0.0
H417 H 0.38426 0.08103 0.31863 0.0
H418 H 0.39945 0.99815 0.17604 0.0
C419 C 0.3647 0.00665 0.24248 0.0
C420 C 0.48482 0.2508 0.20791 0.0
C421 C 0.47175 0.26987 0.17755 0.0
C422 C 0.44737 0.27967 0.20903 0.0
C423 C 0.45453 0.25851 0.30987 0.0
C424 C 0.47482 0.24463 0.27376 0.0
C425 C 0.48357 0.2247 0.31726 0.0
H426 H 0.47741 0.18814 0.6531 0.0
C427 C 0.45319 0.25403 0.38408 0.0
C428 C 0.46826 0.23275 0.38928 0.0
H429 H 0.51522 0.14768 0.45903 0.0
H430 H 0.50163 0.17995 0.39175 0.0
H431 H 0.50274 0.23224 0.65065 0.0
H432 H 0.42488 0.21183 0.58853 0.0
H433 H 0.42537 0.24278 0.63747 0.0
H434 H 0.44005 0.21799 0.67687 0.0
H435 H 0.4762 0.24932 0.69824 0.0
H436 H 0.49282 0.26036 0.62323 0.0
C437 C 0.51405 0.22582 0.3276 0.0
C438 C 0.47386 0.19939 0.27658 0.0
C439 C 0.45993 0.33107 0.56914 0.0
C440 C 0.46498 0.33478 0.64442 0.0
C441 C 0.45841 0.31536 0.68318 0.0
C442 C 0.45082 0.2919 0.64599 0.0
C443 C 0.45025 0.28779 0.56977 0.0
C444 C 0.4525 0.30763 0.5331 0.0
C445 C 0.44989 0.3001 0.45227 0.0
C446 C 0.44807 0.27183 0.44676 0.0
C447 C 0.45013 0.26482 0.51552 0.0
C448 C 0.47528 0.30813 0.41409 0.0
C449 C 0.42437 0.31225 0.4274 0.0
C450 C 0.48305 0.1859 0.59629 0.0
C451 C 0.49728 0.1648 0.56217 0.0
C452 C 0.50365 0.16317 0.48724 0.0
C453 C 0.49575 0.18193 0.44783 0.0
C454 C 0.48168 0.20281 0.48357 0.0
C455 C 0.47622 0.20474 0.55711 0.0
C456 C 0.46432 0.22946 0.58928 0.0
C457 C 0.46053 0.24095 0.52123 0.0
C458 C 0.4707 0.2253 0.45895 0.0
C459 C 0.48489 0.24368 0.643 0.0
C460 C 0.43718 0.22537 0.62535 0.0
H461 H 0.41998 0.28127 0.29906 0.0
H462 H 0.50271 0.24191 0.18283 0.0
H463 H 0.45293 0.20085 0.25811 0.0
H464 H 0.47369 0.18481 0.31101 0.0
H465 H 0.48653 0.19304 0.22779 0.0
H466 H 0.52024 0.24508 0.35047 0.0
H467 H 0.52462 0.22014 0.27482 0.0
H468 H 0.5209 0.21359 0.36546 0.0
H469 H 0.46385 0.34535 0.53682 0.0
H470 H 0.46022 0.31787 0.74173 0.0
H471 H 0.44632 0.27753 0.67712 0.0
H472 H 0.49344 0.29958 0.43369 0.0
H473 H 0.47763 0.32864 0.42424 0.0
H474 H 0.47453 0.30277 0.35436 0.0
H475 H 0.42009 0.33056 0.46172 0.0
H476 H 0.40663 0.30025 0.43044 0.0
H477 H 0.42656 0.31638 0.37146 0.0
H478 H 0.43625 0.29348 0.18583 0.0
C479 C 0.43852 0.27372 0.27511 0.0
Tb480 Tb 1.0131 0.01598 0.7379 0.0
Tb481 Tb 0.05593 1.0032 0.85464 0.0
C482 C 0.99447 1.00152 0.88651 0.0
C483 C 0.96655 0.05145 0.63981 0.0
C484 C 0.94484 0.09793 0.62281 0.0
C485 C 0.92803 0.07816 0.63292 0.0
C486 C 0.93881 0.05512 0.64107 0.0
C487 C 0.98345 0.07111 0.63 0.0
C488 C 0.97269 0.09404 0.62097 0.0
C489 C 0.97733 0.02774 0.65493 0.0
O490 O 1.01851 0.05026 0.81548 0.0
O491 O 0.06026 0.04299 0.85727 0.0
O492 O 0.07924 1.00281 0.75375 0.0
O493 O 0.05152 0.02763 0.6988 0.0
O494 O 0.07262 0.01088 0.95913 0.0
O495 O 0.0852 0.97878 0.88278 0.0
O496 O 0.03542 0.96881 0.81144 0.0
O497 O 1.02577 0.97769 0.69918 0.0
O498 O 0.99109 0.99777 0.81582 0.0
O499 O 1.01767 0.00916 0.9136 0.0
C500 C 0.0406 0.05829 0.84911 0.0
O501 O 1.0017 0.02173 0.63347 0.0
O502 O 0.97288 0.02368 0.7207 0.0
C503 C 0.07472 0.01654 0.70302 0.0
C504 C 0.07002 0.97174 0.99738 0.0
C505 C 0.0294 0.94045 0.0353 0.0
C506 C 0.05148 0.93039 0.99322 0.0
C507 C 0.07171 0.94586 0.97486 0.0
C508 C 0.04995 0.9812 0.04799 0.0
C509 C 0.02975 0.96571 0.06644 0.0
C510 C 0.08251 0.98838 0.95147 0.0
C511 C 0.02995 0.96148 0.74269 0.0
H512 H 0.90655 0.08053 0.6355 0.0
H513 H 0.92547 0.04025 0.64972 0.0
H514 H 1.00495 0.06885 0.6298 0.0
H515 H 0.98628 0.10863 0.61173 0.0
H516 H 0.05238 0.91075 0.97095 0.0
H517 H 0.08711 0.93787 0.93681 0.0
H518 H 0.04815 1.00099 0.06752 0.0
H519 H 1.01336 0.97397 0.10039 0.0
Tb520 Tb 0.53162 0.98561 0.74249 0.0
Tb521 Tb 0.56148 0.02398 0.86579 0.0
C522 C 0.55648 0.9674 0.87601 0.0
C523 C 0.48883 0.97625 0.59394 0.0
C524 C 0.46264 0.02009 0.56995 0.0
C525 C 0.44938 1.00273 0.60585 0.0
C526 C 0.46239 0.98109 0.61801 0.0
C527 C 0.49988 0.99097 0.54606 0.0
C528 C 0.48702 0.01272 0.53456 0.0
C529 C 0.50692 0.96264 0.63642 0.0
O530 O 0.49856 1.00457 0.80743 0.0
O531 O 0.5213 0.0214 0.91041 0.0
O532 O 0.53883 0.04916 0.81031 0.0
O533 O 0.53492 0.02127 0.7046 0.0
O534 O 0.57061 0.03445 0.97645 0.0
O535 O 0.5905 0.0517 0.89494 0.0
O536 O 0.58677 0.01763 0.76845 0.0
O537 O 0.57466 0.97777 0.72705 0.0
O538 O 0.53613 0.96502 0.83172 0.0
O539 O 0.5729 0.9862 0.87857 0.0
C540 C 0.49879 0.01486 0.87649 0.0
O541 O 0.53215 0.96821 0.63299 0.0
O542 O 0.49955 0.96237 0.70357 0.0
C543 C 0.53384 0.04416 0.74036 0.0
C544 C 0.61688 0.03348 0.97638 0.0
C545 C 0.64874 0.99343 1.00495 0.0
C546 C 0.63879 0.01139 0.06244 0.0
C547 C 0.62263 0.03102 0.04823 0.0
C548 C 0.62969 0.01754 0.91934 0.0
C549 C 0.645 0.99755 0.93326 0.0
C550 C 0.59204 0.0459 0.95998 0.0
C551 C 0.5922 0.99582 0.72987 0.0
H552 H 0.42957 1.00641 0.62871 0.0
H553 H 0.45281 0.96964 0.65291 0.0
H554 H 0.51991 0.98739 0.52438 0.0
H555 H 0.49762 0.02462 0.50326 0.0
H556 H 0.64215 0.00958 0.11858 0.0
H557 H 0.61289 0.04296 0.09315 0.0
H558 H 0.62566 0.01883 0.86317 0.0
H559 H 0.65198 0.98436 0.88704 0.0
Tb560 Tb 0.52942 0.48376 0.85553 0.0
Tb561 Tb 0.56359 0.51052 0.73474 0.0
C562 C 0.50371 0.49312 0.70504 0.0
C563 C 0.50474 0.4303 0.94318 0.0
C564 C 0.49611 0.38041 0.96354 0.0
C565 C 0.47458 0.39715 0.96374 0.0
C566 C 0.47887 0.42174 0.95381 0.0
C567 C 0.52627 0.41348 0.94084 0.0
C568 C 0.522 0.38887 0.95114 0.0
C569 C 0.50891 0.45711 0.94046 0.0
O570 O 0.5597 0.4602 0.79604 0.0
O571 O 0.56034 0.47161 0.68634 0.0
O572 O 0.59011 0.50091 0.82087 0.0
O573 O 0.55964 0.50764 0.91332 0.0
O574 O 0.57438 0.51733 0.62998 0.0
O575 O 0.59551 0.53457 0.72514 0.0
O576 O 0.54097 0.54008 0.80018 0.0
O577 O 0.51337 0.52127 0.8762 0.0
O578 O 0.50596 0.47889 0.75572 0.0
O579 O 0.52214 0.50966 0.69552 0.0
C580 C 0.55805 0.45397 0.72572 0.0
O581 O 0.53339 0.46518 0.94479 0.0
O582 O 0.49527 0.46689 0.8929 0.0
C583 C 0.58459 0.50663 0.89104 0.0
C584 C 0.59275 0.55755 0.62858 0.0
C585 C 0.59885 0.60455 0.58425 0.0
C586 C 0.61281 0.58346 0.54862 0.0
C587 C 0.60981 0.56031 0.57061 0.0
C588 C 0.578 0.57828 0.66301 0.0
C589 C 0.58094 0.60157 0.64081 0.0
C590 C 0.59249 0.53348 0.65542 0.0
C591 C 0.52148 0.54071 0.8484 0.0
H592 H 0.4544 0.39161 0.97448 0.0
H593 H 0.46195 0.43431 0.95652 0.0
H594 H 0.5465 0.41942 0.93243 0.0
H595 H 0.53903 0.37651 0.9496 0.0
H596 H 0.62632 0.58488 0.50384 0.0
H597 H 0.62136 0.5446 0.54325 0.0
H598 H 0.56475 0.57659 0.70814 0.0
H599 H 0.56989 0.61737 0.66944 0.0
Tb600 Tb 0.0673 0.52176 0.73639 0.0
Tb601 Tb 0.0286 0.49855 0.84785 0.0
C602 C 0.04456 0.55399 0.87467 0.0
C603 C 0.12671 0.5492 0.67525 0.0
C604 C 0.18004 0.54391 0.71397 0.0
C605 C 0.16097 0.55237 0.76779 0.0
C606 C 0.13433 0.55491 0.74858 0.0
C607 C 0.14644 0.5446 0.62107 0.0
C608 C 0.17307 0.54211 0.64035 0.0
C609 C 0.09924 0.54118 0.65769 0.0
O610 O 0.09554 0.50685 0.80707 0.0
O611 O 0.06814 0.49674 0.89802 0.0
O612 O 0.04817 0.46672 0.78347 0.0
O613 O 0.05554 0.4846 0.68228 0.0
O614 O 1.0151 0.50021 0.95549 0.0
O615 O 0.99625 0.47597 0.86744 0.0
O616 O 1.00385 0.50109 0.75253 0.0
O617 O 1.02684 0.53132 0.70682 0.0
O618 O 0.06663 0.54764 0.83843 0.0
O619 O 1.02431 0.53881 0.86751 0.0
C620 C 0.09214 0.4998 0.87083 0.0
O621 O 0.09589 0.51723 0.65243 0.0
O622 O 0.08031 0.55364 0.69636 0.0
C623 C 0.05282 0.4647 0.71326 0.0
C624 C 0.96884 0.50203 0.94982 0.0
C625 C 0.92611 0.53523 0.98801 0.0
C626 C 0.93088 0.51588 0.02784 0.0
C627 C 0.9524 0.49946 1.00925 0.0
C628 C 0.9632 0.52075 0.90851 0.0
C629 C 0.94222 0.53736 0.92783 0.0
C630 C 0.99367 0.48767 0.93412 0.0
C631 C 1.00505 0.51808 0.71014 0.0
H632 H 0.1661 0.55412 0.82472 0.0
H633 H 0.11941 0.55853 0.79146 0.0
H634 H 0.14095 0.54006 0.56434 0.0
H635 H 0.18747 0.53546 0.59779 0.0
H636 H 0.91857 0.51406 0.0747 0.0
H637 H 0.95661 0.48531 0.04214 0.0
H638 H 0.97557 0.52309 0.86242 0.0
H639 H 0.93873 0.55205 0.89625 0.0
H640 H 0.15762 0.05036 0.47858 0.0
H641 H 0.18728 0.97584 0.47469 0.0
H642 H 0.15246 0.96848 0.56161 0.0
H643 H 0.11425 0.98385 0.64344 0.0
H644 H 0.0834 0.05765 0.64109 0.0
H645 H 0.1179 0.06467 0.5534 0.0
C646 C 0.15633 0.03241 0.49622 0.0
C647 C 0.17519 0.01369 0.46963 0.0
C648 C 0.13612 0.02826 0.54625 0.0
C649 C 0.17297 0.99051 0.49311 0.0
C650 C 0.15315 0.98637 0.54359 0.0
C651 C 0.11517 1.00149 0.62392 0.0
C652 C 0.09632 0.02031 0.64984 0.0
C653 C 0.13478 1.00521 0.57143 0.0
C654 C 0.09758 0.04286 0.62258 0.0
C655 C 0.11735 0.0469 0.5722 0.0
H656 H 0.50541 0.11465 0.51473 0.0
H657 H 0.50911 0.1703 0.70874 0.0
H658 H 0.51888 0.13833 0.78094 0.0
H659 H 0.52642 0.09419 0.79048 0.0
H660 H 0.53047 0.04018 0.59369 0.0
H661 H 0.51865 0.0719 0.52186 0.0
C662 C 0.50881 0.12008 0.57246 0.0
C663 C 0.50564 0.14513 0.60547 0.0
C664 C 0.51584 0.1017 0.61394 0.0
C665 C 0.51009 0.15124 0.68108 0.0
C666 C 0.51611 0.13292 0.72289 0.0
C667 C 0.52466 0.08935 0.73193 0.0
C668 C 0.52819 0.06448 0.69809 0.0
C669 C 0.51883 0.10801 0.69009 0.0
C670 C 0.52657 0.05883 0.62181 0.0
C671 C 0.5201 0.07707 0.58037 0.0
H672 H 0.39824 0.45792 0.53343 0.0
H673 H 0.42785 0.50401 0.38412 0.0
H674 H 0.46562 0.51676 0.46597 0.0
H675 H 0.49199 0.51225 0.57797 0.0
H676 H 0.4608 0.46424 0.72129 0.0
H677 H 0.42256 0.45466 0.64358 0.0
C678 C 0.4129 0.47085 0.51854 0.0
C679 C 0.41024 0.47974 0.45198 0.0
C680 C 0.43466 0.47757 0.56486 0.0
C681 C 0.42923 0.49687 0.43481 0.0
C682 C 0.45099 0.50398 0.48153 0.0
C683 C 0.47673 0.49985 0.59245 0.0
C684 C 0.47974 0.489 0.65618 0.0
C685 C 0.45424 0.49408 0.54638 0.0
C686 C 0.45954 0.47292 0.6732 0.0
C687 C 0.43741 0.46736 0.62858 0.0
H688 H 0.03335 0.35291 0.57483 0.0
H689 H 0.03156 0.38431 0.37769 0.0
H690 H 0.04536 0.42478 0.44536 0.0
H691 H 0.05198 0.45233 0.56402 0.0
H692 H 0.05203 0.42006 0.76064 0.0
H693 H 0.04492 0.379 0.68994 0.0
C694 C 0.03661 0.36851 0.54645 0.0
C695 C 0.03138 0.36571 0.47153 0.0
C696 C 0.04376 0.39171 0.586 0.0
C697 C 0.03569 0.38598 0.43522 0.0
C698 C 0.04326 0.40917 0.47416 0.0
C699 C 0.05085 0.43627 0.5913 0.0
C700 C 0.05216 0.43949 0.66795 0.0
C701 C 0.04643 0.41248 0.5501 0.0
C702 C 0.05077 0.41835 0.70206 0.0
C703 C 0.04671 0.39476 0.66161 0.0
H704 H 0.89209 0.96339 0.03662 0.0
H705 H 0.93567 0.98962 0.23197 0.0
H706 H 0.97146 1.00479 0.15923 0.0
H707 H 0.99149 0.00827 0.0376 0.0
H708 H 0.94676 0.98054 0.84419 0.0
H709 H 0.91059 0.96843 0.91821 0.0
C710 C 0.90918 0.97293 0.06345 0.0
C711 C 0.91097 0.97574 0.13976 0.0
C712 C 0.92975 0.98107 0.0212 0.0
C713 C 0.93346 0.98774 0.17359 0.0
C714 C 0.95408 0.99612 0.13174 0.0
C715 C 0.97382 0.99963 0.01169 0.0
C716 C 0.9722 0.99527 0.93476 0.0
C717 C 0.95268 0.99252 0.05515 0.0
C718 C 0.94889 0.98419 0.90274 0.0
C719 C 0.92803 0.9772 0.94519 0.0
H720 H 0.59128 0.88925 0.07507 0.0
H721 H 0.50589 0.87924 0.07968 0.0
H722 H 0.49982 0.9117 1.00567 0.0
H723 H 0.51865 0.94082 0.9324 0.0
H724 H 0.60362 0.95306 0.9312 0.0
H725 H 0.61001 0.92189 0.01066 0.0
C726 C 0.57134 0.89461 0.0613 0.0
C727 C 0.54908 0.88161 0.08234 0.0
C728 C 0.56794 0.91337 0.01814 0.0
C729 C 0.52337 0.88872 0.06352 0.0
C730 C 0.51987 0.90723 0.02094 0.0
C731 C 0.53859 0.93661 0.94935 0.0
C732 C 0.56066 0.94882 0.92469 0.0
C733 C 0.54201 0.9192 0.99634 0.0
C734 C 0.58631 0.9437 0.9488 0.0
C735 C 0.58996 0.92593 0.99444 0.0
H736 H 0.66061 0.54231 0.15874 0.0
H737 H 0.71033 0.48288 0.0491 0.0
H738 H 0.67694 0.47351 0.95273 0.0
H739 H 0.63369 0.48335 0.89674 0.0
H740 H 0.58353 0.54143 0.01252 0.0
H741 H 0.61689 0.55036 0.10789 0.0
C742 C 0.66406 0.52713 0.1141 0.0
C743 C 0.68809 0.51334 0.11153 0.0
C744 C 0.64471 0.52184 0.05899 0.0
C745 C 0.69201 0.49364 0.05325 0.0
C746 C 0.67297 0.48845 0.9976 0.0
C747 C 0.6302 0.49805 0.94265 0.0
C748 C 0.60615 0.51194 0.94669 0.0
C749 C 0.64933 0.50264 0.99921 0.0
C750 C 0.60179 0.53054 1.00756 0.0
C751 C 0.62089 0.53564 0.0624 0.0
H752 H 0.04378 0.66631 0.02965 0.0
H753 H 0.97948 0.63965 0.1504 0.0
H754 H 0.98631 0.59734 0.08356 0.0
H755 H 1.00894 0.56855 0.98514 0.0
H756 H 0.07458 0.59521 0.86827 0.0
H757 H 0.069 0.63682 0.93923 0.0
C758 C 0.03163 0.65108 0.04205 0.0
C759 C 1.01123 0.65595 0.09486 0.0
C760 C 0.03576 0.6269 1.00361 0.0
C761 C 0.9955 0.63621 0.11055 0.0
C762 C 0.99927 0.6121 0.07191 0.0
C763 C 1.02209 0.58346 0.97545 0.0
C764 C 0.04197 0.57883 0.92086 0.0
C765 C 1.01905 0.60731 0.01738 0.0
C766 C 0.05908 0.59826 0.90972 0.0
C767 C 0.05589 0.62208 0.95026 0.0
H768 H 0.92662 0.20424 0.55012 0.0
H769 H 0.86132 0.16703 0.42764 0.0
H770 H 0.86903 0.13017 0.48353 0.0
H771 H 0.89994 0.10636 0.54782 0.0
H772 H 0.96419 0.14447 0.67274 0.0
H773 H 0.95098 0.18338 0.63488 0.0
C774 C 0.91319 0.18859 0.53754 0.0
C775 C 0.89388 0.18827 0.48286 0.0
C776 C 0.91804 0.16736 0.56876 0.0
C777 C 0.87687 0.16758 0.46789 0.0
C778 C 0.88133 0.14644 0.49964 0.0
C779 C 0.91062 0.12326 0.56864 0.0
C780 C 0.93361 0.12225 0.61115 0.0
C781 C 0.90283 0.14569 0.547 0.0
C782 C 0.94707 0.14447 0.63762 0.0
C783 C 0.93939 0.16681 0.61654 0.0
H784 H 0.41537 0.12275 0.51992 0.0
H785 H 0.36235 0.10495 0.68577 0.0
H786 H 0.39561 0.07688 0.72186 0.0
H787 H 0.43051 0.04656 0.67589 0.0
H788 H 0.47141 0.05358 0.47469 0.0
H789 H 0.45237 0.09462 0.47923 0.0
C790 C 0.41144 0.1131 0.56536 0.0
C791 C 0.38516 0.1132 0.59311 0.0
C792 C 0.42807 0.09315 0.57491 0.0
C793 C 0.3815 0.1035 0.658 0.0
C794 C 0.40026 0.08669 0.67732 0.0
C795 C 0.43507 0.05661 0.6319 0.0
C796 C 0.452 0.04606 0.57383 0.0
C797 C 0.42191 0.07925 0.63031 0.0
C798 C 0.45858 0.06063 0.52036 0.0
C799 C 0.44759 0.08434 0.52267 0.0
H800 H 0.46694 0.38121 0.60449 0.0
H801 H 0.4992 0.33906 0.76153 0.0
H802 H 0.53125 0.37185 0.79916 0.0
H803 H 0.55216 0.41155 0.78278 0.0
H804 H 0.52563 0.44814 0.60732 0.0
H805 H 0.49064 0.41742 0.57834 0.0
C806 C 0.48125 0.37859 0.6458 0.0
C807 C 0.48064 0.357 0.67831 0.0
C808 C 0.50128 0.39637 0.66291 0.0
C809 C 0.49856 0.35533 0.73533 0.0
C810 C 0.51737 0.37397 0.75637 0.0
C811 C 0.53906 0.41245 0.73724 0.0
C812 C 0.54146 0.4322 0.69768 0.0
C813 C 0.51935 0.39426 0.71926 0.0
C814 C 0.5244 0.43312 0.63862 0.0
C815 C 0.5041 0.41572 0.62252 0.0
H816 H 0.27085 0.47121 0.6352 0.0
H817 H 0.21044 0.42305 0.70067 0.0
H818 H 0.18757 0.45907 0.77083 0.0
H819 H 0.17745 0.50321 0.77563 0.0
H820 H 0.23303 0.55013 0.685 0.0
H821 H 0.26552 0.51603 0.66393 0.0
C822 C 0.25343 0.4684 0.66788 0.0
C823 C 0.242 0.44457 0.66174 0.0
C824 C 0.23915 0.4893 0.7018 0.0
C825 C 0.21942 0.44125 0.70416 0.0
C826 C 0.20618 0.46191 0.74329 0.0
C827 C 0.19725 0.5063 0.75494 0.0
C828 C 0.20296 0.52897 0.73142 0.0
C829 C 0.21467 0.48601 0.73708 0.0
C830 C 0.22838 0.53279 0.70342 0.0
C831 C 0.24674 0.51318 0.69061 0.0
H832 H 0.93982 0.85944 0.02229 0.0
H833 H 0.93436 0.89119 0.25036 0.0
H834 H 0.96313 0.92499 0.23029 0.0
H835 H 0.99775 0.94021 0.15522 0.0
H836 H 1.00641 0.90666 0.92971 0.0
H837 H 0.96978 0.87836 0.94279 0.0
C838 C 0.94468 0.87383 0.06765 0.0
C839 C 0.93552 0.87195 0.13814 0.0
C840 C 0.96289 0.89245 0.05704 0.0
C841 C 0.94105 0.89165 0.19527 0.0
C842 C 0.95805 0.91093 0.18429 0.0
C843 C 0.99136 0.927 0.1086 0.0
C844 C 1.00545 0.92498 0.04235 0.0
C845 C 0.97038 0.91062 0.11653 0.0
C846 C 0.99663 0.90793 0.98225 0.0
C847 C 0.97545 0.89192 0.98939 0.0
H848 H 0.69212 0.89849 0.11752 0.0
H849 H 0.73875 0.89168 0.91901 0.0
H850 H 0.71495 0.92725 0.88568 0.0
H851 H 0.68651 0.96391 0.92325 0.0
H852 H 0.63729 0.96802 0.11684 0.0
H853 H 0.6576 0.93003 0.14264 0.0
C854 C 0.69658 0.9039 0.06535 0.0
C855 C 0.71793 0.89266 0.02198 0.0
C856 C 0.68319 0.92456 0.04711 0.0
C857 C 0.72298 0.90032 0.95465 0.0
C858 C 0.70951 0.92082 0.93578 0.0
C859 C 0.67961 0.95639 0.97032 0.0
C860 C 0.66082 0.9696 0.01906 0.0
C861 C 0.69054 0.93381 0.98351 0.0
C862 C 0.65259 0.95922 0.07993 0.0
C863 C 0.66382 0.93711 0.09414 0.0
H864 H 0.49769 0.64525 0.02651 0.0
H865 H 0.51928 0.66637 0.82095 0.0
H866 H 0.5166 0.62295 0.76167 0.0
H867 H 0.51746 0.57903 0.77463 0.0
H868 H 0.49961 0.55763 0.98246 0.0
H869 H 0.49094 0.60117 0.0347 0.0
C870 C 0.501 0.64032 0.9683 0.0
C871 C 0.50912 0.6587 0.9281 0.0
C872 C 0.50054 0.61531 0.93557 0.0
C873 C 0.51303 0.65243 0.85273 0.0
C874 C 0.5118 0.62761 0.81913 0.0
C875 C 0.51119 0.58387 0.83108 0.0
C876 C 0.50986 0.56537 0.87536 0.0
C877 C 0.50707 0.60886 0.86095 0.0
C878 C 0.501 0.57165 0.94766 0.0
C879 C 0.49622 0.59652 0.97756 0.0
H880 H 0.82514 0.59853 0.09776 0.0
H881 H 0.88498 0.65468 0.15685 0.0
H882 H 0.91887 0.62724 0.08921 0.0
H883 H 0.93238 0.58462 0.03247 0.0
H884 H 0.87288 0.52714 0.99293 0.0
H885 H 0.83773 0.55757 0.03516 0.0
C886 C 0.84534 0.60524 0.09327 0.0
C887 C 0.8525 0.62875 0.1313 0.0
C888 C 0.86486 0.58866 0.06021 0.0
C889 C 0.87895 0.63686 0.12677 0.0
C890 C 0.89836 0.62097 0.0894 0.0
C891 C 0.91162 0.57897 0.03248 0.0
C892 C 0.90498 0.55382 0.01037 0.0
C893 C 0.89174 0.59641 0.05915 0.0
C894 C 0.87824 0.54642 0.01061 0.0
C895 C 0.85824 0.5638 0.03423 0.0
H896 H 0.05392 0.1636 0.04641 0.0
H897 H 0.98876 0.18098 0.91373 0.0
H898 H 0.99261 0.13993 0.83821 0.0
H899 H 1.01059 0.09729 0.81994 0.0
H900 H 0.07538 0.07941 0.95372 0.0
H901 H 0.07569 0.12223 0.01821 0.0
C902 C 0.04124 0.15865 0.9994 0.0
C903 C 1.02119 0.17533 0.98535 0.0
C904 C 0.04308 0.13465 0.95739 0.0
C905 C 1.00447 0.16851 0.92518 0.0
C906 C 1.00648 0.14493 0.88249 0.0
C907 C 1.02496 0.1028 0.86274 0.0
C908 C 0.04266 0.08498 0.88254 0.0
C909 C 1.02503 0.12752 0.89977 0.0
C910 C 0.06141 0.09262 0.93744 0.0
C911 C 0.06159 0.11716 0.97454 0.0
H912 H 0.40672 0.03896 0.11224 0.0
H913 H 0.36684 0.97992 0.97217 0.0
H914 H 0.40359 0.97836 0.88262 0.0
H915 H 0.44998 0.99086 0.85124 0.0
H916 H 0.48967 0.04831 0.9992 0.0
H917 H 0.45041 0.05328 0.07803 0.0
C918 C 0.40576 0.02606 0.06133 0.0
C919 C 0.38392 0.00963 0.04901 0.0
C920 C 0.42736 0.02469 0.01188 0.0
C921 C 0.38313 0.993 0.98285 0.0
C922 C 0.40439 0.99192 0.93208 0.0
C923 C 0.44987 1.00471 0.90019 0.0
C924 C 0.47311 0.01909 0.91911 0.0
C925 C 0.42706 0.0072 0.94694 0.0
C926 C 0.47244 0.0368 0.98319 0.0
C927 C 0.44988 0.03972 0.0285 0.0
H928 H 0.44969 0.28282 0.05558 0.0
H929 H 0.5223 0.28801 0.17944 0.0
H930 H 0.53803 0.32139 0.11711 0.0
H931 H 0.52729 0.35403 0.04471 0.0
H932 H 0.45441 0.34893 0.92113 0.0
H933 H 0.44255 0.31095 0.96679 0.0
C934 C 0.46932 0.29076 0.06726 0.0
C935 C 0.48468 0.28305 0.1226 0.0
C936 C 0.47783 0.31054 0.03291 0.0
C937 C 0.51015 0.29339 0.13676 0.0
C938 C 0.51897 0.31281 0.1019 0.0
C939 C 0.50915 0.34431 0.02604 0.0
C940 C 0.49146 0.35488 0.98091 0.0
C941 C 0.50241 0.32232 0.05246 0.0
C942 C 0.46803 0.34182 0.95768 0.0
C943 C 0.46129 0.31993 0.98338 0.0
H944 H 0.204 0.50339 0.03418 0.0
H945 H 0.16674 0.44456 0.12799 0.0
H946 H 0.12666 0.44839 0.05894 0.0
H947 H 0.10084 0.46859 0.97177 0.0
H948 H 0.13911 0.52426 0.86868 0.0
H949 H 0.17955 0.52111 0.93902 0.0
C950 C 0.1873 0.49119 0.03928 0.0
C951 C 0.18868 0.47434 0.0894 0.0
C952 C 0.16405 0.49283 0.9969 0.0
C953 C 0.16644 0.45865 0.0934 0.0
C954 C 0.1433 0.46056 0.05285 0.0
C955 C 0.11801 0.48004 0.96475 0.0
C956 C 0.11672 0.49677 0.91461 0.0
C957 C 0.14163 0.47776 1.00495 0.0
C958 C 0.13948 0.51115 0.90614 0.0
C959 C 0.16267 0.50941 0.94684 0.0
H960 H 0.99605 0.84879 0.66282 0.0
H961 H 0.04789 0.85301 0.47963 0.0
H962 H 0.05861 0.89612 0.52926 0.0
H963 H 0.05014 0.93393 0.61957 0.0
H964 H 1.0012 0.9291 0.80775 0.0
H965 H 0.99234 0.88514 0.76178 0.0
C966 C 1.01022 0.85901 0.63494 0.0
C967 C 1.0213 0.84767 0.56792 0.0
C968 C 1.01637 0.88386 0.664 0.0
C969 C 0.03946 0.86116 0.5319 0.0
C970 C 0.04533 0.88594 0.55978 0.0
C971 C 0.03763 0.92314 0.65039 0.0
C972 C 1.02591 0.9347 0.71607 0.0
C973 C 0.03336 0.89769 0.62477 0.0
C974 C 1.01023 0.92053 0.75665 0.0
C975 C 1.00519 0.89542 0.73042 0.0
H976 H 0.69866 1.00131 0.54321 0.0
H977 H 0.70411 0.92463 0.5727 0.0
H978 H 0.66277 0.92888 0.64342 0.0
H979 H 0.62339 0.95376 0.69347 0.0
H980 H 0.61919 0.03113 0.67149 0.0
H981 H 0.66108 0.02721 0.60231 0.0
C982 C 0.69109 0.98566 0.56617 0.0
C983 C 0.70455 0.96255 0.55105 0.0
C984 C 0.66704 0.98823 0.60778 0.0
C985 C 0.69411 0.94254 0.5817 0.0
C986 C 0.67034 0.94492 0.62241 0.0
C987 C 0.63159 0.96971 0.67325 0.0
C988 C 0.6178 0.99261 0.68706 0.0
C989 C 0.65626 0.96752 0.63472 0.0
C990 C 0.62918 0.01321 0.6616 0.0
C991 C 0.65326 0.01101 0.62194 0.0
H992 H 0.63884 0.69718 0.45145 0.0
H993 H 0.55455 0.71351 0.45705 0.0
H994 H 0.54632 0.67962 0.52573 0.0
H995 H 0.56243 0.64104 0.56636 0.0
H996 H 0.6468 0.6243 0.55494 0.0
H997 H 0.65551 0.66216 0.5055 0.0
C998 C 0.61873 0.6937 0.46927 0.0
C999 C 0.59734 0.70777 0.44854 0.0
C1000 C 0.61405 0.67354 0.50593 0.0
C1001 C 0.57144 0.70317 0.47272 0.0
C1002 C 0.56667 0.68348 0.51102 0.0
C1003 C 0.58276 0.64592 0.55429 0.0
C1004 C 0.60385 0.62942 0.56284 0.0
C1005 C 0.58769 0.66785 0.52516 0.0
C1006 C 0.63008 0.63619 0.54704 0.0
C1007 C 0.63513 0.65798 0.51919 0.0
H1008 H 0.91528 0.55573 0.51514 0.0
H1009 H 0.87091 0.49557 0.58111 0.0
H1010 H 0.91017 0.48397 0.64718 0.0
H1011 H 0.95664 0.49297 0.69306 0.0
H1012 H 0.99959 0.55392 0.62508 0.0
H1013 H 0.96142 0.56323 0.55432 0.0
C1014 C 0.91419 0.5399 0.54346 0.0
C1015 C 0.88998 0.52664 0.54326 0.0
C1016 C 0.93663 0.53367 0.58208 0.0
C1017 C 0.8892 0.50603 0.57968 0.0
C1018 C 0.91164 0.49957 0.61814 0.0
C1019 C 0.95771 0.50823 0.66256 0.0
C1020 C 0.98127 0.52276 0.6653 0.0
C1021 C 0.93539 0.51357 0.62096 0.0
C1022 C 0.98202 0.54237 0.62477 0.0
C1023 C 0.96009 0.54775 0.58393 0.0
loop_
_geom_bond_atom_site_label_1
_geom_bond_atom_site_label_2
_geom_bond_distance
_geom_bond_site_symmetry_2
_ccdc_geom_bond_type
C0 C1 1.391 . S
C0 C4 1.391 . S
C0 H42 0.948 . S
C1 C0 1.391 . S
C1 C2 1.391 . S
C2 C1 1.391 . S
C2 H58 0.947 . S
C2 C59 1.392 . S
C3 C4 1.391 . S
C3 C7 1.397 . S
C3 C59 1.419 . S
C4 C0 1.391 . S
C4 C3 1.391 . S
C4 C5 1.399 . S
C5 C4 1.399 . S
C5 C8 1.396 . S
C5 C17 1.453 . S
C5 C18 1.684 . S
H6 C30 0.948 . S
C7 C3 1.397 . S
C7 C8 1.394 . S
C7 C26 1.723 . S
C8 C5 1.396 . S
C8 C7 1.394 . S
C8 C38 1.723 . S
H9 C32 0.947 . S
H10 C33 0.948 . S
H11 C39 0.982 . S
H12 C40 0.979 . S
H13 C40 0.980 . S
H14 C40 0.983 . S
H15 C39 0.979 . S
H16 C39 0.977 . S
C17 C5 1.453 . S
C17 H46 0.982 . S
C17 H47 0.979 . S
C17 H48 0.977 . S
C18 C5 1.684 . S
C18 H43 0.979 . S
C18 H44 0.980 . S
C18 H45 0.983 . S
C19 C20 1.391 . S
C19 C24 1.391 . S
C19 H49 0.948 . S
C20 C19 1.391 . S
C20 C21 1.391 . S
C21 C20 1.391 . S
C21 C22 1.392 . S
C21 H50 0.947 . S
C22 C21 1.392 . S
C22 C23 1.419 . S
C22 H51 0.948 . S
C23 C22 1.419 . S
C23 C24 1.391 . S
C23 C27 1.397 . S
C24 C19 1.391 . S
C24 C23 1.391 . S
C24 C25 1.399 . S
C25 C24 1.399 . S
C25 C26 1.396 . S
C25 C28 1.453 . S
C25 C29 1.684 . S
C26 C7 1.723 . S
C26 C25 1.396 . S
C26 C27 1.394 . S
C27 C23 1.397 . S
C27 C26 1.394 . S
C27 C37 1.723 . S
C28 C25 1.453 . S
C28 H52 0.982 . S
C28 H53 0.979 . S
C28 H54 0.977 . S
C29 C25 1.684 . S
C29 H55 0.979 . S
C29 H56 0.980 . S
C29 H57 0.983 . S
C30 H6 0.948 . S
C30 C31 1.391 . S
C30 C35 1.391 . S
C31 C30 1.391 . S
C31 C32 1.391 . S
C32 H9 0.947 . S
C32 C31 1.391 . S
C32 C33 1.392 . S
C33 H10 0.948 . S
C33 C32 1.392 . S
C33 C34 1.419 . S
C34 C33 1.419 . S
C34 C35 1.391 . S
C34 C38 1.397 . S
C35 C30 1.391 . S
C35 C34 1.391 . S
C35 C36 1.399 . S
C36 C35 1.399 . S
C36 C37 1.396 . S
C36 C39 1.453 . S
C36 C40 1.684 . S
C37 C27 1.723 . S
C37 C36 1.396 . S
C37 C38 1.394 . S
C38 C8 1.723 . S
C38 C34 1.397 . S
C38 C37 1.394 . S
C39 H11 0.982 . S
C39 H15 0.979 . S
C39 H16 0.977 . S
C39 C36 1.453 . S
C40 H12 0.979 . S
C40 H13 0.980 . S
C40 H14 0.983 . S
C40 C36 1.684 . S
H41 C59 0.948 . S
H42 C0 0.948 . S
H43 C18 0.979 . S
H44 C18 0.980 . S
H45 C18 0.983 . S
H46 C17 0.982 . S
H47 C17 0.979 . S
H48 C17 0.977 . S
H49 C19 0.948 . S
H50 C21 0.947 . S
H51 C22 0.948 . S
H52 C28 0.982 . S
H53 C28 0.979 . S
H54 C28 0.977 . S
H55 C29 0.979 . S
H56 C29 0.980 . S
H57 C29 0.983 . S
H58 C2 0.947 . S
C59 C2 1.392 . S
C59 C3 1.419 . S
C59 H41 0.948 . S
C60 C61 1.391 . S
C60 C64 1.391 . S
C60 H102 0.948 . S
C61 C60 1.391 . S
C61 C62 1.391 . S
C62 C61 1.391 . S
C62 H118 0.947 . S
C62 C119 1.392 . S
C63 C64 1.391 . S
C63 C67 1.397 . S
C63 C119 1.419 . S
C64 C60 1.391 . S
C64 C63 1.391 . S
C64 C65 1.399 . S
C65 C64 1.399 . S
C65 C68 1.396 . S
C65 C77 1.453 1_655 S
C65 C78 1.684 . S
H66 C90 0.948 . S
C67 C63 1.397 . S
C67 C68 1.394 . S
C67 C86 1.723 . S
C68 C65 1.396 . S
C68 C67 1.394 . S
C68 C98 1.723 . S
H69 C92 0.947 . S
H70 C93 0.948 . S
H71 C99 0.982 . S
H72 C100 0.979 . S
H73 C100 0.980 . S
H74 C100 0.983 . S
H75 C99 0.979 . S
H76 C99 0.977 . S
C77 C65 1.453 1_455 S
C77 H106 0.982 . S
C77 H107 0.979 . S
C77 H108 0.977 . S
C78 C65 1.684 . S
C78 H103 0.979 . S
C78 H104 0.980 . S
C78 H105 0.983 . S
C79 C80 1.391 . S
C79 C84 1.391 . S
C79 H109 0.948 . S
C80 C79 1.391 . S
C80 C81 1.391 . S
C81 C80 1.391 . S
C81 C82 1.392 . S
C81 H110 0.947 . S
C82 C81 1.392 . S
C82 C83 1.419 . S
C82 H111 0.948 . S
C83 C82 1.419 . S
C83 C84 1.391 . S
C83 C87 1.397 . S
C84 C79 1.391 . S
C84 C83 1.391 . S
C84 C85 1.399 . S
C85 C84 1.399 . S
C85 C86 1.396 . S
C85 C88 1.453 1_655 S
C85 C89 1.684 . S
C86 C67 1.723 . S
C86 C85 1.396 . S
C86 C87 1.394 . S
C87 C83 1.397 . S
C87 C86 1.394 . S
C87 C97 1.723 . S
C88 C85 1.453 1_455 S
C88 H112 0.982 . S
C88 H113 0.979 . S
C88 H114 0.977 . S
C89 C85 1.684 . S
C89 H115 0.979 . S
C89 H116 0.980 . S
C89 H117 0.983 . S
C90 H66 0.948 . S
C90 C91 1.391 . S
C90 C95 1.391 . S
C91 C90 1.391 . S
C91 C92 1.391 . S
C92 H69 0.947 . S
C92 C91 1.391 . S
C92 C93 1.392 . S
C93 H70 0.948 . S
C93 C92 1.392 . S
C93 C94 1.419 . S
C94 C93 1.419 . S
C94 C95 1.391 . S
C94 C98 1.397 . S
C95 C90 1.391 . S
C95 C94 1.391 . S
C95 C96 1.399 . S
C96 C95 1.399 . S
C96 C97 1.396 . S
C96 C99 1.453 1_655 S
C96 C100 1.684 . S
C97 C87 1.723 . S
C97 C96 1.396 . S
C97 C98 1.394 . S
C98 C68 1.723 . S
C98 C94 1.397 . S
C98 C97 1.394 . S
C99 H71 0.982 . S
C99 H75 0.979 . S
C99 H76 0.977 . S
C99 C96 1.453 1_455 S
C100 H72 0.979 . S
C100 H73 0.980 . S
C100 H74 0.983 . S
C100 C96 1.684 . S
H101 C119 0.948 . S
H102 C60 0.948 . S
H103 C78 0.979 . S
H104 C78 0.980 . S
H105 C78 0.983 . S
H106 C77 0.982 . S
H107 C77 0.979 . S
H108 C77 0.977 . S
H109 C79 0.948 . S
H110 C81 0.947 . S
H111 C82 0.948 . S
H112 C88 0.982 . S
H113 C88 0.979 . S
H114 C88 0.977 . S
H115 C89 0.979 . S
H116 C89 0.980 . S
H117 C89 0.983 . S
H118 C62 0.947 . S
C119 C62 1.392 . S
C119 C63 1.419 . S
C119 H101 0.948 . S
C120 C121 1.391 . S
C120 C124 1.391 . S
C120 H162 0.948 . S
C121 C120 1.391 . S
C121 C122 1.391 . S
C122 C121 1.391 . S
C122 H178 0.947 . S
C122 C179 1.392 . S
C123 C124 1.391 . S
C123 C127 1.397 1_565 S
C123 C179 1.419 . S
C124 C120 1.391 . S
C124 C123 1.391 . S
C124 C125 1.399 . S
C125 C124 1.399 . S
C125 C128 1.396 1_565 S
C125 C137 1.453 1_565 S
C125 C138 1.684 . S
H126 C150 0.948 . S
C127 C123 1.397 1_545 S
C127 C128 1.395 . S
C127 C146 1.723 . S
C128 C125 1.396 1_545 S
C128 C127 1.395 . S
C128 C158 1.723 . S
H129 C152 0.947 . S
H130 C153 0.948 . S
H131 C159 0.982 . S
H132 C160 0.979 . S
H133 C160 0.980 . S
H134 C160 0.983 . S
H135 C159 0.979 . S
H136 C159 0.977 . S
C137 C125 1.453 1_545 S
C137 H166 0.982 . S
C137 H167 0.979 . S
C137 H168 0.977 . S
C138 C125 1.684 . S
C138 H163 0.979 . S
C138 H164 0.980 . S
C138 H165 0.983 . S
C139 C140 1.391 . S
C139 C144 1.391 . S
C139 H169 0.948 . S
C140 C139 1.391 . S
C140 C141 1.391 . S
C141 C140 1.391 . S
C141 C142 1.392 . S
C141 H170 0.947 . S
C142 C141 1.392 . S
C142 C143 1.419 . S
C142 H171 0.948 . S
C143 C142 1.419 . S
C143 C144 1.391 . S
C143 C147 1.397 1_565 S
C144 C139 1.391 . S
C144 C143 1.391 . S
C144 C145 1.399 . S
C145 C144 1.399 . S
C145 C146 1.396 1_565 S
C145 C148 1.453 1_565 S
C145 C149 1.684 . S
C146 C127 1.723 . S
C146 C145 1.396 1_545 S
C146 C147 1.394 . S
C147 C143 1.397 1_545 S
C147 C146 1.394 . S
C147 C157 1.723 . S
C148 C145 1.453 1_545 S
C148 H172 0.982 . S
C148 H173 0.979 . S
C148 H174 0.977 . S
C149 C145 1.684 . S
C149 H175 0.979 . S
C149 H176 0.980 . S
C149 H177 0.983 . S
C150 H126 0.948 . S
C150 C151 1.391 . S
C150 C155 1.391 . S
C151 C150 1.391 . S
C151 C152 1.391 . S
C152 H129 0.947 . S
C152 C151 1.391 . S
C152 C153 1.392 . S
C153 H130 0.948 . S
C153 C152 1.392 . S
C153 C154 1.419 . S
C154 C153 1.419 . S
C154 C155 1.391 . S
C154 C158 1.397 1_565 S
C155 C150 1.391 . S
C155 C154 1.391 . S
C155 C156 1.399 . S
C156 C155 1.399 . S
C156 C157 1.396 1_565 S
C156 C159 1.453 1_565 S
C156 C160 1.684 . S
C157 C147 1.723 . S
C157 C156 1.396 1_545 S
C157 C158 1.394 . S
C158 C128 1.723 . S
C158 C154 1.397 1_545 S
C158 C157 1.394 . S
C159 H131 0.982 . S
C159 H135 0.979 . S
C159 H136 0.977 . S
C159 C156 1.453 1_545 S
C160 H132 0.979 . S
C160 H133 0.980 . S
C160 H134 0.983 . S
C160 C156 1.684 . S
H161 C179 0.948 . S
H162 C120 0.948 . S
H163 C138 0.979 . S
H164 C138 0.980 . S
H165 C138 0.983 . S
H166 C137 0.982 . S
H167 C137 0.979 . S
H168 C137 0.977 . S
H169 C139 0.948 . S
H170 C141 0.947 . S
H171 C142 0.948 . S
H172 C148 0.982 . S
H173 C148 0.979 . S
H174 C148 0.977 . S
H175 C149 0.979 . S
H176 C149 0.980 . S
H177 C149 0.983 . S
H178 C122 0.947 . S
C179 C122 1.392 . S
C179 C123 1.419 . S
C179 H161 0.948 . S
C180 C181 1.391 . S
C180 C184 1.391 . S
C180 H222 0.948 . S
C181 C180 1.391 . S
C181 C182 1.391 . S
C182 C181 1.391 . S
C182 H238 0.947 . S
C182 C239 1.392 . S
C183 C184 1.391 . S
C183 C187 1.397 . S
C183 C239 1.419 . S
C184 C180 1.391 . S
C184 C183 1.391 . S
C184 C185 1.399 . S
C185 C184 1.399 . S
C185 C188 1.396 . S
C185 C197 1.453 . S
C185 C198 1.684 . S
H186 C210 0.948 . S
C187 C183 1.397 . S
C187 C188 1.394 . S
C187 C206 1.723 1_554 S
C188 C185 1.396 . S
C188 C187 1.394 . S
C188 C218 1.723 . S
H189 C212 0.947 . S
H190 C213 0.948 . S
H191 C219 0.982 . S
H192 C220 0.979 . S
H193 C220 0.980 . S
H194 C220 0.983 . S
H195 C219 0.979 . S
H196 C219 0.977 . S
C197 C185 1.453 . S
C197 H226 0.982 . S
C197 H227 0.979 . S
C197 H228 0.977 . S
C198 C185 1.684 . S
C198 H223 0.979 . S
C198 H224 0.980 . S
C198 H225 0.983 . S
C199 C200 1.391 . S
C199 C204 1.391 . S
C199 H229 0.948 . S
C200 C199 1.391 . S
C200 C201 1.391 . S
C201 C200 1.391 . S
C201 C202 1.392 . S
C201 H230 0.947 . S
C202 C201 1.392 . S
C202 C203 1.419 . S
C202 H231 0.948 . S
C203 C202 1.419 . S
C203 C204 1.391 . S
C203 C207 1.397 . S
C204 C199 1.391 . S
C204 C203 1.391 . S
C204 C205 1.399 . S
C205 C204 1.399 . S
C205 C206 1.396 . S
C205 C208 1.453 . S
C205 C209 1.684 . S
C206 C187 1.723 1_556 S
C206 C205 1.396 . S
C206 C207 1.394 . S
C207 C203 1.397 . S
C207 C206 1.394 . S
C207 C217 1.723 . S
C208 C205 1.453 . S
C208 H232 0.982 . S
C208 H233 0.979 . S
C208 H234 0.977 1_556 S
C209 C205 1.684 . S
C209 H235 0.979 . S
C209 H236 0.980 1_556 S
C209 H237 0.983 . S
C210 H186 0.948 . S
C210 C211 1.391 . S
C210 C215 1.391 . S
C211 C210 1.391 . S
C211 C212 1.391 1_556 S
C212 H189 0.947 . S
C212 C211 1.391 1_554 S
C212 C213 1.392 . S
C213 H190 0.948 . S
C213 C212 1.392 . S
C213 C214 1.409 1_554 S
C214 C213 1.409 1_556 S
C214 C215 1.407 . S
C214 C218 1.394 1_556 S
C215 C210 1.391 . S
C215 C214 1.407 . S
C215 C216 1.399 . S
C216 C215 1.399 . S
C216 C217 1.396 . S
C216 C219 1.453 . S
C216 C220 1.684 . S
C217 C207 1.723 . S
C217 C216 1.396 . S
C217 C218 1.394 1_556 S
C218 C188 1.723 . S
C218 C214 1.394 1_554 S
C218 C217 1.394 1_554 S
C219 H191 0.982 . S
C219 H195 0.979 . S
C219 H196 0.977 . S
C219 C216 1.453 . S
C220 H192 0.979 . S
C220 H193 0.980 . S
C220 H194 0.983 . S
C220 C216 1.684 . S
H221 C239 0.948 . S
H222 C180 0.948 . S
H223 C198 0.979 . S
H224 C198 0.980 . S
H225 C198 0.983 . S
H226 C197 0.982 . S
H227 C197 0.979 . S
H228 C197 0.977 . S
H229 C199 0.948 . S
H230 C201 0.947 . S
H231 C202 0.948 . S
H232 C208 0.982 . S
H233 C208 0.979 . S
H234 C208 0.977 1_554 S
H235 C209 0.979 . S
H236 C209 0.980 1_554 S
H237 C209 0.983 . S
H238 C182 0.947 . S
C239 C182 1.392 . S
C239 C183 1.419 . S
C239 H221 0.948 . S
C240 C241 1.391 . S
C240 C244 1.391 . S
C240 H282 0.948 . S
C241 C240 1.391 . S
C241 C242 1.391 . S
C242 C241 1.391 . S
C242 H298 0.947 . S
C242 C299 1.392 . S
C243 C244 1.391 . S
C243 C247 1.397 . S
C243 C299 1.419 . S
C244 C240 1.391 . S
C244 C243 1.391 . S
C244 C245 1.399 . S
C245 C244 1.399 . S
C245 C248 1.396 . S
C245 C257 1.453 . S
C245 C258 1.684 . S
H246 C270 0.948 . S
C247 C243 1.397 . S
C247 C248 1.394 . S
C247 C266 1.723 . S
C248 C245 1.396 . S
C248 C247 1.394 . S
C248 C278 1.723 . S
H249 C272 0.947 . S
H250 C273 0.948 . S
H251 C279 0.982 . S
H252 C280 0.979 . S
H253 C280 0.980 . S
H254 C280 0.983 . S
H255 C279 0.979 . S
H256 C279 0.977 . S
C257 C245 1.453 . S
C257 H286 0.982 . S
C257 H287 0.979 . S
C257 H288 0.977 . S
C258 C245 1.684 . S
C258 H283 0.979 . S
C258 H284 0.980 . S
C258 H285 0.983 . S
C259 C260 1.391 . S
C259 C264 1.391 . S
C259 H289 0.948 . S
C260 C259 1.391 . S
C260 C261 1.391 . S
C261 C260 1.391 . S
C261 C262 1.392 . S
C261 H290 0.947 . S
C262 C261 1.392 . S
C262 C263 1.419 . S
C262 H291 0.948 . S
C263 C262 1.419 . S
C263 C264 1.391 . S
C263 C267 1.397 . S
C264 C259 1.391 . S
C264 C263 1.391 . S
C264 C265 1.399 . S
C265 C264 1.399 . S
C265 C266 1.396 . S
C265 C268 1.453 . S
C265 C269 1.684 . S
C266 C247 1.723 . S
C266 C265 1.396 . S
C266 C267 1.394 . S
C267 C263 1.397 . S
C267 C266 1.394 . S
C267 C277 1.723 . S
C268 C265 1.453 . S
C268 H292 0.982 . S
C268 H293 0.979 . S
C268 H294 0.977 . S
C269 C265 1.684 . S
C269 H295 0.979 . S
C269 H296 0.980 . S
C269 H297 0.983 . S
C270 H246 0.948 . S
C270 C271 1.391 . S
C270 C275 1.391 1_556 S
C271 C270 1.391 . S
C271 C272 1.391 . S
C272 H249 0.947 . S
C272 C271 1.391 . S
C272 C273 1.392 . S
C273 H250 0.948 . S
C273 C272 1.392 . S
C273 C274 1.419 1_556 S
C274 C273 1.419 1_554 S
C274 C275 1.391 . S
C274 C278 1.397 . S
C275 C270 1.391 1_554 S
C275 C274 1.391 . S
C275 C276 1.399 . S
C276 C275 1.399 . S
C276 C277 1.396 . S
C276 C279 1.453 . S
C276 C280 1.684 . S
C277 C267 1.723 . S
C277 C276 1.396 . S
C277 C278 1.394 . S
C278 C248 1.723 . S
C278 C274 1.397 . S
C278 C277 1.394 . S
C279 H251 0.982 . S
C279 H255 0.979 . S
C279 H256 0.977 . S
C279 C276 1.453 . S
C280 H252 0.979 . S
C280 H253 0.980 . S
C280 H254 0.983 . S
C280 C276 1.684 . S
H281 C299 0.948 . S
H282 C240 0.948 . S
H283 C258 0.979 . S
H284 C258 0.980 . S
H285 C258 0.983 . S
H286 C257 0.982 . S
H287 C257 0.979 . S
H288 C257 0.977 . S
H289 C259 0.948 . S
H290 C261 0.947 . S
H291 C262 0.948 . S
H292 C268 0.982 . S
H293 C268 0.979 . S
H294 C268 0.977 . S
H295 C269 0.979 . S
H296 C269 0.980 . S
H297 C269 0.983 . S
H298 C242 0.947 . S
C299 C242 1.392 . S
C299 C243 1.419 . S
C299 H281 0.948 . S
C300 C301 1.391 . S
C300 C304 1.391 . S
C300 H342 0.948 . S
C301 C300 1.391 . S
C301 C302 1.391 . S
C302 C301 1.391 . S
C302 H358 0.947 . S
C302 C359 1.392 . S
C303 C304 1.391 . S
C303 C307 1.397 . S
C303 C359 1.419 . S
C304 C300 1.391 . S
C304 C303 1.391 . S
C304 C305 1.399 . S
C305 C304 1.399 . S
C305 C308 1.396 . S
C305 C317 1.453 . S
C305 C318 1.684 1_455 S
H306 C330 0.948 . S
C307 C303 1.397 . S
C307 C308 1.394 . S
C307 C326 1.723 . S
C308 C305 1.396 . S
C308 C307 1.394 . S
C308 C338 1.723 . S
H309 C332 0.947 . S
H310 C333 0.948 . S
H311 C339 0.982 . S
H312 C340 0.979 . S
H313 C340 0.980 . S
H314 C340 0.983 . S
H315 C339 0.979 . S
H316 C339 0.977 . S
C317 C305 1.453 . S
C317 H346 0.982 . S
C317 H347 0.979 . S
C317 H348 0.977 . S
C318 C305 1.684 1_655 S
C318 H343 0.979 . S
C318 H344 0.980 . S
C318 H345 0.983 . S
C319 C320 1.391 . S
C319 C324 1.391 1_556 S
C319 H349 0.948 . S
C320 C319 1.391 . S
C320 C321 1.391 . S
C321 C320 1.391 . S
C321 C322 1.392 1_556 S
C321 H350 0.947 . S
C322 C321 1.392 1_554 S
C322 C323 1.419 . S
C322 H351 0.948 . S
C323 C322 1.419 . S
C323 C324 1.391 . S
C323 C327 1.397 . S
C324 C319 1.391 1_554 S
C324 C323 1.391 . S
C324 C325 1.399 . S
C325 C324 1.399 . S
C325 C326 1.396 . S
C325 C328 1.453 . S
C325 C329 1.684 1_455 S
C326 C307 1.723 . S
C326 C325 1.396 . S
C326 C327 1.394 . S
C327 C323 1.397 . S
C327 C326 1.394 . S
C327 C337 1.723 . S
C328 C325 1.453 . S
C328 H352 0.982 . S
C328 H353 0.979 . S
C328 H354 0.977 . S
C329 C325 1.684 1_655 S
C329 H355 0.979 . S
C329 H356 0.980 . S
C329 H357 0.983 . S
C330 H306 0.948 . S
C330 C331 1.391 . S
C330 C335 1.391 . S
C331 C330 1.391 . S
C331 C332 1.391 . S
C332 H309 0.947 . S
C332 C331 1.391 . S
C332 C333 1.392 . S
C333 H310 0.948 . S
C333 C332 1.392 . S
C333 C334 1.419 . S
C334 C333 1.419 . S
C334 C335 1.391 . S
C334 C338 1.397 . S
C335 C330 1.391 . S
C335 C334 1.391 . S
C335 C336 1.399 . S
C336 C335 1.399 . S
C336 C337 1.396 . S
C336 C339 1.453 . S
C336 C340 1.684 1_455 S
C337 C327 1.723 . S
C337 C336 1.396 . S
C337 C338 1.394 . S
C338 C308 1.723 . S
C338 C334 1.397 . S
C338 C337 1.394 . S
C339 H311 0.982 . S
C339 H315 0.979 . S
C339 H316 0.977 . S
C339 C336 1.453 . S
C340 H312 0.979 . S
C340 H313 0.980 . S
C340 H314 0.983 . S
C340 C336 1.684 1_655 S
H341 C359 0.948 . S
H342 C300 0.948 . S
H343 C318 0.979 . S
H344 C318 0.980 . S
H345 C318 0.983 . S
H346 C317 0.982 . S
H347 C317 0.979 . S
H348 C317 0.977 . S
H349 C319 0.948 . S
H350 C321 0.947 . S
H351 C322 0.948 . S
H352 C328 0.982 . S
H353 C328 0.979 . S
H354 C328 0.977 . S
H355 C329 0.979 . S
H356 C329 0.980 . S
H357 C329 0.983 . S
H358 C302 0.947 . S
C359 C302 1.392 . S
C359 C303 1.419 . S
C359 H341 0.948 . S
C360 C361 1.391 . S
C360 C364 1.391 1_556 S
C360 H402 0.948 . S
C361 C360 1.391 . S
C361 C362 1.391 . S
C362 C361 1.391 . S
C362 H418 0.947 . S
C362 C419 1.392 1_556 S
C363 C364 1.391 . S
C363 C367 1.397 1_545 S
C363 C419 1.419 . S
C364 C360 1.391 1_554 S
C364 C363 1.391 . S
C364 C365 1.399 . S
C365 C364 1.399 . S
C365 C368 1.396 1_545 S
C365 C377 1.453 1_545 S
C365 C378 1.684 . S
H366 C390 0.948 . S
C367 C363 1.397 1_565 S
C367 C368 1.394 . S
C367 C386 1.722 . S
C368 C365 1.396 1_565 S
C368 C367 1.394 . S
C368 C398 1.723 . S
H369 C392 0.947 . S
H370 C393 0.948 . S
H371 C399 0.982 . S
H372 C400 0.979 . S
H373 C400 0.980 . S
H374 C400 0.983 . S
H375 C399 0.979 . S
H376 C399 0.977 . S
C377 C365 1.453 1_565 S
C377 H406 0.982 . S
C377 H407 0.979 1_554 S
C377 H408 0.977 . S
C378 C365 1.684 . S
C378 H403 0.979 . S
C378 H404 0.980 . S
C378 H405 0.983 1_554 S
C379 C380 1.391 . S
C379 C384 1.391 . S
C379 H409 0.948 . S
C380 C379 1.391 . S
C380 C381 1.391 . S
C381 C380 1.391 . S
C381 C382 1.392 . S
C381 H410 0.947 . S
C382 C381 1.392 . S
C382 C383 1.419 . S
C382 H411 0.948 . S
C383 C382 1.419 . S
C383 C384 1.391 . S
C383 C387 1.397 1_545 S
C384 C379 1.391 . S
C384 C383 1.391 . S
C384 C385 1.399 . S
C385 C384 1.399 . S
C385 C386 1.396 1_545 S
C385 C388 1.453 1_545 S
C385 C389 1.684 . S
C386 C367 1.722 . S
C386 C385 1.396 1_565 S
C386 C387 1.395 . S
C387 C383 1.397 1_565 S
C387 C386 1.395 . S
C387 C397 1.723 . S
C388 C385 1.453 1_565 S
C388 H412 0.982 . S
C388 H413 0.979 . S
C388 H414 0.977 . S
C389 C385 1.684 . S
C389 H415 0.979 . S
C389 H416 0.980 . S
C389 H417 0.983 . S
C390 H366 0.948 . S
C390 C391 1.391 . S
C390 C395 1.391 . S
C391 C390 1.391 . S
C391 C392 1.391 . S
C392 H369 0.947 . S
C392 C391 1.391 . S
C392 C393 1.392 . S
C393 H370 0.948 . S
C393 C392 1.392 . S
C393 C394 1.419 . S
C394 C393 1.419 . S
C394 C395 1.391 . S
C394 C398 1.397 1_545 S
C395 C390 1.391 . S
C395 C394 1.391 . S
C395 C396 1.399 . S
C396 C395 1.399 . S
C396 C397 1.396 1_545 S
C396 C399 1.453 1_545 S
C396 C400 1.684 . S
C397 C387 1.723 . S
C397 C396 1.396 1_565 S
C397 C398 1.394 . S
C398 C368 1.723 . S
C398 C394 1.397 1_565 S
C398 C397 1.394 . S
C399 H371 0.982 . S
C399 H375 0.979 . S
C399 H376 0.977 . S
C399 C396 1.453 1_565 S
C400 H372 0.979 . S
C400 H373 0.980 . S
C400 H374 0.983 . S
C400 C396 1.684 . S
H401 C419 0.948 . S
H402 C360 0.948 . S
H403 C378 0.979 . S
H404 C378 0.980 . S
H405 C378 0.983 1_556 S
H406 C377 0.982 . S
H407 C377 0.979 1_556 S
H408 C377 0.977 . S
H409 C379 0.948 . S
H410 C381 0.947 . S
H411 C382 0.948 . S
H412 C388 0.982 . S
H413 C388 0.979 . S
H414 C388 0.977 . S
H415 C389 0.979 . S
H416 C389 0.980 . S
H417 C389 0.983 . S
H418 C362 0.947 . S
C419 C362 1.392 1_554 S
C419 C363 1.419 . S
C419 H401 0.948 . S
C420 C421 1.391 . S
C420 C424 1.391 . S
C420 H462 0.948 . S
C421 C420 1.391 . S
C421 C422 1.391 . S
C422 C421 1.391 . S
C422 H478 0.947 . S
C422 C479 1.392 . S
C423 C424 1.391 . S
C423 C427 1.397 . S
C423 C479 1.419 . S
C424 C420 1.391 . S
C424 C423 1.391 . S
C424 C425 1.399 . S
C425 C424 1.399 . S
C425 C428 1.396 . S
C425 C437 1.453 . S
C425 C438 1.684 . S
H426 C450 0.948 . S
C427 C423 1.397 . S
C427 C428 1.394 . S
C427 C446 1.723 . S
C428 C425 1.396 . S
C428 C427 1.394 . S
C428 C458 1.723 . S
H429 C452 0.947 . S
H430 C453 0.948 . S
H431 C459 0.982 . S
H432 C460 0.979 . S
H433 C460 0.980 . S
H434 C460 0.983 . S
H435 C459 0.979 . S
H436 C459 0.977 . S
C437 C425 1.453 . S
C437 H466 0.982 . S
C437 H467 0.979 . S
C437 H468 0.977 . S
C438 C425 1.684 . S
C438 H463 0.979 . S
C438 H464 0.980 . S
C438 H465 0.983 . S
C439 C440 1.391 . S
C439 C444 1.391 . S
C439 H469 0.948 . S
C440 C439 1.391 . S
C440 C441 1.391 . S
C441 C440 1.391 . S
C441 C442 1.392 . S
C441 H470 0.947 . S
C442 C441 1.392 . S
C442 C443 1.419 . S
C442 H471 0.948 . S
C443 C442 1.419 . S
C443 C444 1.391 . S
C443 C447 1.397 . S
C444 C439 1.391 . S
C444 C443 1.391 . S
C444 C445 1.399 . S
C445 C444 1.399 . S
C445 C446 1.396 . S
C445 C448 1.453 . S
C445 C449 1.684 . S
C446 C427 1.723 . S
C446 C445 1.396 . S
C446 C447 1.394 . S
C447 C443 1.397 . S
C447 C446 1.394 . S
C447 C457 1.723 . S
C448 C445 1.453 . S
C448 H472 0.982 . S
C448 H473 0.979 . S
C448 H474 0.977 . S
C449 C445 1.684 . S
C449 H475 0.979 . S
C449 H476 0.980 . S
C449 H477 0.983 . S
C450 H426 0.948 . S
C450 C451 1.391 . S
C450 C455 1.391 . S
C451 C450 1.391 . S
C451 C452 1.391 . S
C452 H429 0.947 . S
C452 C451 1.391 . S
C452 C453 1.392 . S
C453 H430 0.948 . S
C453 C452 1.392 . S
C453 C454 1.419 . S
C454 C453 1.419 . S
C454 C455 1.391 . S
C454 C458 1.397 . S
C455 C450 1.391 . S
C455 C454 1.391 . S
C455 C456 1.399 . S
C456 C455 1.399 . S
C456 C457 1.396 . S
C456 C459 1.453 . S
C456 C460 1.684 . S
C457 C447 1.723 . S
C457 C456 1.396 . S
C457 C458 1.394 . S
C458 C428 1.723 . S
C458 C454 1.397 . S
C458 C457 1.394 . S
C459 H431 0.982 . S
C459 H435 0.979 . S
C459 H436 0.977 . S
C459 C456 1.453 . S
C460 H432 0.979 . S
C460 H433 0.980 . S
C460 H434 0.983 . S
C460 C456 1.684 . S
H461 C479 0.948 . S
H462 C420 0.948 . S
H463 C438 0.979 . S
H464 C438 0.980 . S
H465 C438 0.983 . S
H466 C437 0.982 . S
H467 C437 0.979 . S
H468 C437 0.977 . S
H469 C439 0.948 . S
H470 C441 0.947 . S
H471 C442 0.948 . S
H472 C448 0.982 . S
H473 C448 0.979 . S
H474 C448 0.977 . S
H475 C449 0.979 . S
H476 C449 0.980 . S
H477 C449 0.983 . S
H478 C422 0.947 . S
C479 C422 1.392 . S
C479 C423 1.419 . S
C479 H461 0.948 . S
Tb480 C489 2.764 . S
Tb480 O490 2.325 . S
Tb480 O493 2.303 1_655 S
Tb480 O497 2.322 1_545 S
Tb480 O498 2.349 . S
Tb480 O501 2.415 . S
Tb480 O502 2.399 . S
Tb481 O491 2.322 1_565 S
Tb481 O492 2.349 . S
Tb481 O494 2.415 . S
Tb481 O495 2.399 . S
Tb481 O496 2.325 . S
Tb481 O499 2.303 1_455 S
Tb481 C510 2.764 . S
C482 O498 1.261 . S
C482 O499 1.257 1_545 S
C483 C486 1.358 . S
C483 C487 1.332 . S
C483 C489 1.504 . S
C484 C485 1.373 . S
C484 C488 1.308 . S
C485 C484 1.373 . S
C485 C486 1.429 . S
C485 H512 0.932 . S
C486 C483 1.358 . S
C486 C485 1.429 . S
C486 H513 0.930 . S
C487 C483 1.332 . S
C487 C488 1.394 . S
C487 H514 0.932 1_655 S
C488 C484 1.308 . S
C488 C487 1.394 . S
C488 H515 0.900 1_655 S
C489 Tb480 2.764 . S
C489 C483 1.504 . S
C489 O501 1.239 . S
C489 O502 1.263 . S
O490 Tb480 2.325 . S
O490 C500 1.236 1_655 S
O491 Tb481 2.322 1_545 S
O491 C500 1.257 . S
O492 Tb481 2.349 . S
O492 C503 1.261 . S
O493 Tb480 2.303 1_455 S
O493 C503 1.257 1_545 S
O494 Tb481 2.415 . S
O494 C510 1.239 . S
O495 Tb481 2.399 . S
O495 C510 1.263 . S
O496 Tb481 2.325 . S
O496 C511 1.236 1_455 S
O497 Tb480 2.322 1_565 S
O497 C511 1.257 . S
O498 Tb480 2.349 . S
O498 C482 1.261 . S
O499 Tb481 2.303 1_655 S
O499 C482 1.257 1_565 S
C500 O490 1.236 1_455 S
C500 O491 1.257 . S
O501 Tb480 2.415 . S
O501 C489 1.239 . S
O502 Tb480 2.399 . S
O502 C489 1.263 . S
C503 O492 1.261 . S
C503 O493 1.257 1_565 S
C504 C507 1.358 . S
C504 C508 1.332 . S
C504 C510 1.504 . S
C505 C506 1.373 1_554 S
C505 C509 1.308 . S
C506 C505 1.373 1_556 S
C506 C507 1.429 . S
C506 H516 0.932 1_556 S
C507 C504 1.358 . S
C507 C506 1.429 . S
C507 H517 0.930 . S
C508 C504 1.332 . S
C508 C509 1.394 1_556 S
C508 H518 0.932 1_455 S
C509 C505 1.308 . S
C509 C508 1.394 1_554 S
C509 H519 0.918 1_455 S
C510 Tb481 2.764 . S
C510 O494 1.239 . S
C510 O495 1.263 . S
C510 C504 1.504 . S
C511 O496 1.236 1_655 S
C511 O497 1.257 . S
H512 C485 0.932 . S
H513 C486 0.930 . S
H514 C487 0.932 1_455 S
H515 C488 0.900 1_455 S
H516 C506 0.932 1_554 S
H517 C507 0.930 . S
H518 C508 0.932 1_655 S
H519 C509 0.918 1_655 S
Tb520 C529 2.764 . S
Tb520 O530 2.325 . S
Tb520 O533 2.303 1_565 S
Tb520 O537 2.322 . S
Tb520 O538 2.349 . S
Tb520 O541 2.415 1_565 S
Tb520 O542 2.399 . S
Tb521 O531 2.322 . S
Tb521 O532 2.349 . S
Tb521 O534 2.415 1_545 S
Tb521 O535 2.399 . S
Tb521 O536 2.325 . S
Tb521 O539 2.303 1_545 S
Tb521 C550 2.764 . S
C522 O538 1.261 . S
C522 O539 1.257 . S
C523 C526 1.358 . S
C523 C527 1.322 1_565 S
C523 C529 1.504 . S
C524 C525 1.373 . S
C524 C528 1.308 . S
C525 C524 1.373 . S
C525 C526 1.429 . S
C525 H552 0.932 . S
C526 C523 1.358 . S
C526 C525 1.429 . S
C526 H553 0.930 . S
C527 C523 1.322 1_545 S
C527 C528 1.395 1_545 S
C527 H554 0.942 . S
C528 C524 1.308 . S
C528 C527 1.395 1_565 S
C528 H555 0.929 1_565 S
C529 Tb520 2.764 . S
C529 C523 1.504 . S
C529 O541 1.239 1_565 S
C529 O542 1.263 . S
O530 Tb520 2.325 . S
O530 C540 1.236 1_565 S
O531 Tb521 2.322 . S
O531 C540 1.257 . S
O532 Tb521 2.349 . S
O532 C543 1.261 . S
O533 Tb520 2.303 1_545 S
O533 C543 1.257 . S
O534 Tb521 2.415 1_565 S
O534 C550 1.239 1_565 S
O535 Tb521 2.399 . S
O535 C550 1.263 . S
O536 Tb521 2.325 . S
O536 C551 1.236 1_545 S
O537 Tb520 2.322 . S
O537 C551 1.257 . S
O538 Tb520 2.349 . S
O538 C522 1.261 . S
O539 Tb521 2.303 1_565 S
O539 C522 1.257 . S
C540 O530 1.236 1_545 S
C540 O531 1.257 . S
O541 Tb520 2.415 1_545 S
O541 C529 1.239 1_545 S
O542 Tb520 2.399 . S
O542 C529 1.263 . S
C543 O532 1.261 . S
C543 O533 1.257 . S
C544 C547 1.358 1_556 S
C544 C548 1.331 1_545 S
C544 C550 1.504 . S
C545 C546 1.373 . S
C545 C549 1.308 . S
C546 C545 1.373 . S
C546 C547 1.429 . S
C546 H556 0.932 . S
C547 C544 1.358 1_554 S
C547 C546 1.429 . S
C547 H557 0.930 . S
C548 C544 1.331 1_565 S
C548 C549 1.394 1_566 S
C548 H558 0.933 . S
C549 C545 1.308 . S
C549 C548 1.394 1_544 S
C549 H559 0.929 1_545 S
C550 Tb521 2.764 . S
C550 O534 1.239 1_545 S
C550 O535 1.263 . S
C550 C544 1.504 . S
C551 O536 1.236 1_565 S
C551 O537 1.257 . S
H552 C525 0.932 . S
H553 C526 0.930 . S
H554 C527 0.942 . S
H555 C528 0.929 1_545 S
H556 C546 0.932 . S
H557 C547 0.930 . S
H558 C548 0.933 . S
H559 C549 0.929 1_565 S
Tb560 C569 2.764 . S
Tb560 O570 2.325 . S
Tb560 O573 2.303 . S
Tb560 O577 2.322 . S
Tb560 O578 2.349 . S
Tb560 O581 2.415 . S
Tb560 O582 2.399 . S
Tb561 O571 2.322 . S
Tb561 O572 2.349 . S
Tb561 O574 2.415 . S
Tb561 O575 2.399 . S
Tb561 O576 2.325 . S
Tb561 O579 2.303 . S
Tb561 C590 2.764 . S
C562 O578 1.261 . S
C562 O579 1.257 . S
C563 C566 1.358 . S
C563 C567 1.332 . S
C563 C569 1.504 1_554 S
C564 C565 1.373 . S
C564 C568 1.308 . S
C565 C564 1.373 . S
C565 C566 1.429 . S
C565 H592 0.932 . S
C566 C563 1.358 . S
C566 C565 1.429 . S
C566 H593 0.930 1_554 S
C567 C563 1.332 . S
C567 C568 1.394 . S
C567 H594 0.932 . S
C568 C564 1.308 . S
C568 C567 1.394 . S
C568 H595 0.929 . S
C569 Tb560 2.764 . S
C569 C563 1.504 1_556 S
C569 O581 1.239 . S
C569 O582 1.263 . S
O570 Tb560 2.325 . S
O570 C580 1.236 . S
O571 Tb561 2.322 . S
O571 C580 1.257 . S
O572 Tb561 2.349 . S
O572 C583 1.261 . S
O573 Tb560 2.303 . S
O573 C583 1.257 . S
O574 Tb561 2.415 . S
O574 C590 1.239 . S
O575 Tb561 2.399 . S
O575 C590 1.263 . S
O576 Tb561 2.325 . S
O576 C591 1.236 . S
O577 Tb560 2.322 . S
O577 C591 1.257 . S
O578 Tb560 2.349 . S
O578 C562 1.261 . S
O579 Tb561 2.303 . S
O579 C562 1.257 . S
C580 O570 1.236 . S
C580 O571 1.257 . S
O581 Tb560 2.415 . S
O581 C569 1.239 . S
O582 Tb560 2.399 . S
O582 C569 1.263 . S
C583 O572 1.261 . S
C583 O573 1.257 . S
C584 C587 1.358 . S
C584 C588 1.332 . S
C584 C590 1.504 . S
C585 C586 1.373 . S
C585 C589 1.308 . S
C586 C585 1.373 . S
C586 C587 1.429 . S
C586 H596 0.932 . S
C587 C584 1.358 . S
C587 C586 1.429 . S
C587 H597 0.930 . S
C588 C584 1.332 . S
C588 C589 1.394 . S
C588 H598 0.932 . S
C589 C585 1.308 . S
C589 C588 1.394 . S
C589 H599 0.929 . S
C590 Tb561 2.764 . S
C590 O574 1.239 . S
C590 O575 1.263 . S
C590 C584 1.504 . S
C591 O576 1.236 . S
C591 O577 1.257 . S
H592 C565 0.932 . S
H593 C566 0.930 1_556 S
H594 C567 0.932 . S
H595 C568 0.929 . S
H596 C586 0.932 . S
H597 C587 0.930 . S
H598 C588 0.932 . S
H599 C589 0.929 . S
Tb600 C609 2.764 . S
Tb600 O610 2.325 . S
Tb600 O613 2.303 . S
Tb600 O617 2.322 1_455 S
Tb600 O618 2.349 . S
Tb600 O621 2.415 . S
Tb600 O622 2.399 . S
Tb601 O611 2.322 1_655 S
Tb601 O612 2.349 . S
Tb601 O614 2.415 . S
Tb601 O615 2.399 . S
Tb601 O616 2.325 . S
Tb601 O619 2.303 . S
Tb601 C630 2.764 . S
C602 O618 1.277 . S
C602 O619 1.250 1_455 S
C603 C606 1.358 . S
C603 C607 1.332 . S
C603 C609 1.504 . S
C604 C605 1.373 . S
C604 C608 1.308 . S
C605 C604 1.373 . S
C605 C606 1.429 . S
C605 H632 0.932 . S
C606 C603 1.358 . S
C606 C605 1.429 . S
C606 H633 0.930 . S
C607 C603 1.332 . S
C607 C608 1.394 . S
C607 H634 0.932 . S
C608 C604 1.308 . S
C608 C607 1.394 . S
C608 H635 0.929 . S
C609 Tb600 2.764 . S
C609 C603 1.504 . S
C609 O621 1.239 . S
C609 O622 1.263 . S
O610 Tb600 2.325 . S
O610 C620 1.236 . S
O611 Tb601 2.322 1_455 S
O611 C620 1.257 . S
O612 Tb601 2.349 . S
O612 C623 1.264 . S
O613 Tb600 2.303 . S
O613 C623 1.256 1_455 S
O614 Tb601 2.415 . S
O614 C630 1.239 . S
O615 Tb601 2.399 . S
O615 C630 1.263 . S
O616 Tb601 2.325 . S
O616 C631 1.236 . S
O617 Tb600 2.322 1_655 S
O617 C631 1.257 . S
O618 Tb600 2.349 . S
O618 C602 1.277 . S
O619 Tb601 2.303 . S
O619 C602 1.250 1_655 S
C620 O610 1.236 . S
C620 O611 1.257 . S
O621 Tb600 2.415 . S
O621 C609 1.239 . S
O622 Tb600 2.399 . S
O622 C609 1.263 . S
C623 O612 1.264 . S
C623 O613 1.256 1_655 S
C624 C627 1.358 . S
C624 C628 1.332 1_556 S
C624 C630 1.504 . S
C625 C626 1.373 . S
C625 C629 1.308 . S
C626 C625 1.373 . S
C626 C627 1.429 1_554 S
C626 H636 0.932 . S
C627 C624 1.358 . S
C627 C626 1.429 1_556 S
C627 H637 0.930 . S
C628 C624 1.332 1_554 S
C628 C629 1.394 . S
C628 H638 0.932 1_554 S
C629 C625 1.308 . S
C629 C628 1.394 . S
C629 H639 0.929 . S
C630 Tb601 2.764 . S
C630 O614 1.239 . S
C630 O615 1.263 . S
C630 C624 1.504 . S
C631 O616 1.236 . S
C631 O617 1.257 . S
H632 C605 0.932 . S
H633 C606 0.930 . S
H634 C607 0.932 . S
H635 C608 0.929 . S
H636 C626 0.932 . S
H637 C627 0.930 . S
H638 C628 0.932 1_556 S
H639 C629 0.929 . S
H640 C646 0.930 . S
H641 C649 0.930 . S
H642 C650 0.930 . S
H643 C651 0.930 . S
H644 C654 0.930 . S
H645 C655 0.930 . S
C646 H640 0.930 . S
C646 C647 1.352 1_545 S
C646 C648 1.415 . S
C647 C646 1.352 1_565 S
C647 C649 1.431 . S
C648 C646 1.415 . S
C648 C653 1.425 1_545 S
C648 C655 1.409 . S
C649 H641 0.930 . S
C649 C647 1.431 . S
C649 C650 1.362 . S
C650 H642 0.930 . S
C650 C649 1.362 . S
C650 C653 1.409 . S
C651 H643 0.930 . S
C651 C652 1.355 1_565 S
C651 C653 1.415 . S
C652 C651 1.355 1_545 S
C652 C654 1.419 . S
C653 C648 1.425 1_565 S
C653 C650 1.409 . S
C653 C651 1.415 . S
C654 H644 0.930 . S
C654 C652 1.419 . S
C654 C655 1.362 . S
C655 H645 0.930 . S
C655 C648 1.409 . S
C655 C654 1.362 . S
H656 C662 0.930 . S
H657 C665 0.930 . S
H658 C666 0.930 . S
H659 C667 0.930 . S
H660 C670 0.930 . S
H661 C671 0.930 . S
C662 H656 0.930 . S
C662 C663 1.355 . S
C662 C664 1.415 . S
C663 C662 1.355 . S
C663 C665 1.419 . S
C664 C662 1.415 . S
C664 C669 1.425 . S
C664 C671 1.409 . S
C665 H657 0.930 . S
C665 C663 1.419 . S
C665 C666 1.362 . S
C666 H658 0.930 . S
C666 C665 1.362 . S
C666 C669 1.409 . S
C667 H659 0.930 . S
C667 C668 1.355 . S
C667 C669 1.415 . S
C668 C667 1.355 . S
C668 C670 1.419 . S
C669 C664 1.425 . S
C669 C666 1.409 . S
C669 C667 1.415 . S
C670 H660 0.930 . S
C670 C668 1.419 . S
C670 C671 1.362 . S
C671 H661 0.930 . S
C671 C664 1.409 . S
C671 C670 1.362 . S
H672 C678 0.930 . S
H673 C681 0.930 . S
H674 C682 0.930 . S
H675 C683 0.930 . S
H676 C686 0.930 . S
H677 C687 0.930 . S
C678 H672 0.930 . S
C678 C679 1.355 . S
C678 C680 1.415 . S
C679 C678 1.355 . S
C679 C681 1.419 . S
C680 C678 1.415 . S
C680 C685 1.425 . S
C680 C687 1.409 . S
C681 H673 0.930 . S
C681 C679 1.419 . S
C681 C682 1.362 . S
C682 H674 0.930 . S
C682 C681 1.362 . S
C682 C685 1.409 . S
C683 H675 0.930 . S
C683 C684 1.355 . S
C683 C685 1.415 . S
C684 C683 1.355 . S
C684 C686 1.419 . S
C685 C680 1.425 . S
C685 C682 1.409 . S
C685 C683 1.415 . S
C686 H676 0.930 . S
C686 C684 1.419 . S
C686 C687 1.362 . S
C687 H677 0.930 . S
C687 C680 1.409 . S
C687 C686 1.362 . S
H688 C694 0.930 . S
H689 C697 0.930 . S
H690 C698 0.930 . S
H691 C699 0.930 . S
H692 C702 0.930 . S
H693 C703 0.930 . S
C694 H688 0.930 . S
C694 C695 1.355 . S
C694 C696 1.415 . S
C695 C694 1.355 . S
C695 C697 1.419 1_455 S
C696 C694 1.415 . S
C696 C701 1.425 1_455 S
C696 C703 1.409 . S
C697 H689 0.930 . S
C697 C695 1.419 1_655 S
C697 C698 1.362 . S
C698 H690 0.930 . S
C698 C697 1.362 . S
C698 C701 1.409 . S
C699 H691 0.930 . S
C699 C700 1.355 1_655 S
C699 C701 1.415 . S
C700 C699 1.355 1_455 S
C700 C702 1.419 . S
C701 C696 1.425 1_655 S
C701 C698 1.409 . S
C701 C699 1.415 . S
C702 H692 0.930 . S
C702 C700 1.419 . S
C702 C703 1.362 . S
C703 H693 0.930 . S
C703 C696 1.409 . S
C703 C702 1.362 . S
H704 C710 0.930 . S
H705 C713 0.930 . S
H706 C714 0.930 . S
H707 C715 0.930 1_556 S
H708 C718 0.930 . S
H709 C719 0.930 . S
C710 H704 0.930 . S
C710 C711 1.355 1_545 S
C710 C712 1.415 . S
C711 C710 1.355 1_565 S
C711 C713 1.419 . S
C712 C710 1.415 . S
C712 C717 1.425 1_545 S
C712 C719 1.409 . S
C713 H705 0.930 . S
C713 C711 1.419 . S
C713 C714 1.362 . S
C714 H706 0.930 . S
C714 C713 1.362 . S
C714 C717 1.409 . S
C715 H707 0.930 1_554 S
C715 C716 1.355 1_564 S
C715 C717 1.415 . S
C716 C715 1.355 1_546 S
C716 C718 1.419 1_556 S
C717 C712 1.425 1_565 S
C717 C714 1.409 . S
C717 C715 1.415 . S
C718 H708 0.930 . S
C718 C716 1.419 1_554 S
C718 C719 1.362 . S
C719 H709 0.930 . S
C719 C712 1.409 . S
C719 C718 1.362 . S
H720 C726 0.930 . S
H721 C729 0.930 . S
H722 C730 0.930 . S
H723 C731 0.930 . S
H724 C734 0.930 . S
H725 C735 0.930 . S
C726 H720 0.930 . S
C726 C727 1.355 . S
C726 C728 1.415 . S
C727 C726 1.355 . S
C727 C729 1.419 . S
C728 C726 1.415 . S
C728 C733 1.425 . S
C728 C735 1.409 . S
C729 H721 0.930 . S
C729 C727 1.419 . S
C729 C730 1.362 . S
C730 H722 0.930 . S
C730 C729 1.362 . S
C730 C733 1.409 . S
C731 H723 0.930 . S
C731 C732 1.355 . S
C731 C733 1.415 . S
C732 C731 1.355 . S
C732 C734 1.419 . S
C733 C728 1.425 . S
C733 C730 1.409 . S
C733 C731 1.415 . S
C734 H724 0.930 . S
C734 C732 1.419 . S
C734 C735 1.362 . S
C735 H725 0.930 . S
C735 C728 1.409 . S
C735 C734 1.362 . S
H736 C742 0.930 . S
H737 C745 0.930 . S
H738 C746 0.930 . S
H739 C747 0.930 1_556 S
H740 C750 0.930 . S
H741 C751 0.930 . S
C742 H736 0.930 . S
C742 C743 1.355 . S
C742 C744 1.415 . S
C743 C742 1.355 . S
C743 C745 1.419 . S
C744 C742 1.415 . S
C744 C749 1.425 . S
C744 C751 1.409 . S
C745 H737 0.930 . S
C745 C743 1.419 . S
C745 C746 1.362 . S
C746 H738 0.930 . S
C746 C745 1.362 . S
C746 C749 1.409 . S
C747 H739 0.930 1_554 S
C747 C748 1.355 1_554 S
C747 C749 1.415 . S
C748 C747 1.355 1_556 S
C748 C750 1.419 1_556 S
C749 C744 1.425 . S
C749 C746 1.409 . S
C749 C747 1.415 . S
C750 H740 0.930 . S
C750 C748 1.419 1_554 S
C750 C751 1.362 . S
C751 H741 0.930 . S
C751 C744 1.409 . S
C751 C750 1.362 . S
H752 C758 0.930 . S
H753 C761 0.930 . S
H754 C762 0.930 . S
H755 C763 0.930 1_556 S
H756 C766 0.930 . S
H757 C767 0.930 . S
C758 H752 0.930 . S
C758 C759 1.355 1_455 S
C758 C760 1.415 . S
C759 C758 1.355 1_655 S
C759 C761 1.419 . S
C760 C758 1.415 . S
C760 C765 1.425 1_455 S
C760 C767 1.409 . S
C761 H753 0.930 . S
C761 C759 1.419 . S
C761 C762 1.362 . S
C762 H754 0.930 . S
C762 C761 1.362 . S
C762 C765 1.409 . S
C763 H755 0.930 1_554 S
C763 C764 1.355 1_554 S
C763 C765 1.414 . S
C764 C763 1.355 1_556 S
C764 C766 1.419 1_655 S
C765 C760 1.425 1_655 S
C765 C762 1.409 . S
C765 C763 1.414 . S
C766 H756 0.930 . S
C766 C764 1.419 1_455 S
C766 C767 1.362 1_556 S
C767 H757 0.930 . S
C767 C760 1.409 . S
C767 C766 1.362 1_554 S
H768 C774 0.930 . S
H769 C777 0.930 . S
H770 C778 0.930 . S
H771 C779 0.930 . S
H772 C782 0.930 . S
H773 C783 0.930 . S
C774 H768 0.930 . S
C774 C775 1.355 . S
C774 C776 1.387 1_455 S
C775 C774 1.355 . S
C775 C777 1.419 1_455 S
C776 C774 1.387 1_655 S
C776 C781 1.467 . S
C776 C783 1.398 1_655 S
C777 H769 0.930 . S
C777 C775 1.419 1_655 S
C777 C778 1.362 . S
C778 H770 0.930 . S
C778 C777 1.362 . S
C778 C781 1.409 . S
C779 H771 0.930 . S
C779 C780 1.355 . S
C779 C781 1.415 . S
C780 C779 1.355 . S
C780 C782 1.419 . S
C781 C776 1.467 . S
C781 C778 1.409 . S
C781 C779 1.415 . S
C782 H772 0.930 . S
C782 C780 1.419 . S
C782 C783 1.362 1_655 S
C783 H773 0.930 . S
C783 C776 1.398 1_455 S
C783 C782 1.362 1_455 S
H784 C790 0.930 . S
H785 C793 0.930 . S
H786 C794 0.930 . S
H787 C795 0.930 . S
H788 C798 0.936 . S
H789 C799 0.930 . S
C790 H784 0.930 . S
C790 C791 1.355 . S
C790 C792 1.441 . S
C791 C790 1.355 . S
C791 C793 1.419 1_545 S
C792 C790 1.441 . S
C792 C797 1.379 1_545 S
C792 C799 1.429 . S
C793 H785 0.930 . S
C793 C791 1.419 1_565 S
C793 C794 1.362 . S
C794 H786 0.930 . S
C794 C793 1.362 . S
C794 C797 1.409 . S
C795 H787 0.930 . S
C795 C796 1.355 . S
C795 C797 1.415 . S
C796 C795 1.355 . S
C796 C798 1.406 1_565 S
C797 C792 1.379 1_565 S
C797 C794 1.409 . S
C797 C795 1.415 . S
C798 H788 0.936 . S
C798 C796 1.406 1_545 S
C798 C799 1.370 . S
C799 H789 0.930 . S
C799 C792 1.429 . S
C799 C798 1.370 . S
H800 C806 0.930 . S
H801 C809 0.930 . S
H802 C810 0.930 . S
H803 C811 0.930 . S
H804 C814 0.930 . S
H805 C815 0.930 . S
C806 H800 0.930 . S
C806 C807 1.355 . S
C806 C808 1.415 . S
C807 C806 1.355 . S
C807 C809 1.419 . S
C808 C806 1.415 . S
C808 C813 1.425 . S
C808 C815 1.409 . S
C809 H801 0.930 . S
C809 C807 1.419 . S
C809 C810 1.362 . S
C810 H802 0.930 . S
C810 C809 1.362 . S
C810 C813 1.409 . S
C811 H803 0.930 . S
C811 C812 1.355 . S
C811 C813 1.415 . S
C812 C811 1.355 . S
C812 C814 1.419 . S
C813 C808 1.425 . S
C813 C810 1.409 . S
C813 C811 1.415 . S
C814 H804 0.930 . S
C814 C812 1.419 . S
C814 C815 1.362 . S
C815 H805 0.930 . S
C815 C808 1.409 . S
C815 C814 1.362 . S
H816 C822 0.930 . S
H817 C825 0.930 . S
H818 C826 0.930 . S
H819 C827 0.930 . S
H820 C830 0.930 . S
H821 C831 0.930 . S
C822 H816 0.930 . S
C822 C823 1.355 . S
C822 C824 1.415 . S
C823 C822 1.355 . S
C823 C825 1.419 . S
C824 C822 1.415 . S
C824 C829 1.425 . S
C824 C831 1.409 . S
C825 H817 0.930 . S
C825 C823 1.419 . S
C825 C826 1.362 . S
C826 H818 0.930 . S
C826 C825 1.362 . S
C826 C829 1.409 . S
C827 H819 0.930 . S
C827 C828 1.355 . S
C827 C829 1.415 . S
C828 C827 1.355 . S
C828 C830 1.419 . S
C829 C824 1.425 . S
C829 C826 1.409 . S
C829 C827 1.415 . S
C830 H820 0.930 . S
C830 C828 1.419 . S
C830 C831 1.362 . S
C831 H821 0.930 . S
C831 C824 1.409 . S
C831 C830 1.362 . S
H832 C838 0.935 . S
H833 C841 0.930 . S
H834 C842 0.930 . S
H835 C843 0.930 . S
H836 C846 0.930 . S
H837 C847 0.930 . S
C838 H832 0.935 . S
C838 C839 1.366 . S
C838 C840 1.399 1_655 S
C839 C838 1.366 . S
C839 C841 1.419 . S
C840 C838 1.399 1_455 S
C840 C845 1.425 . S
C840 C847 1.409 1_554 S
C841 H833 0.930 . S
C841 C839 1.419 . S
C841 C842 1.362 1_655 S
C842 H834 0.930 . S
C842 C841 1.362 1_455 S
C842 C845 1.409 . S
C843 H835 0.930 . S
C843 C844 1.355 . S
C843 C845 1.415 . S
C844 C843 1.355 . S
C844 C846 1.419 1_554 S
C845 C840 1.425 . S
C845 C842 1.409 . S
C845 C843 1.415 . S
C846 H836 0.930 . S
C846 C844 1.419 1_556 S
C846 C847 1.362 . S
C847 H837 0.930 . S
C847 C840 1.409 1_556 S
C847 C846 1.362 . S
H848 C854 0.930 . S
H849 C857 0.930 . S
H850 C858 0.930 . S
H851 C859 0.930 . S
H852 C862 0.922 1_565 S
H853 C863 0.930 . S
C854 H848 0.930 . S
C854 C855 1.355 . S
C854 C856 1.424 . S
C855 C854 1.355 . S
C855 C857 1.419 1_565 S
C856 C854 1.424 . S
C856 C861 1.409 1_565 S
C856 C863 1.415 . S
C857 H849 0.930 . S
C857 C855 1.419 1_545 S
C857 C858 1.362 . S
C858 H850 0.930 . S
C858 C857 1.362 . S
C858 C861 1.409 . S
C859 H851 0.930 . S
C859 C860 1.355 . S
C859 C861 1.415 . S
C860 C859 1.355 . S
C860 C862 1.438 . S
C861 C856 1.409 1_545 S
C861 C858 1.409 . S
C861 C859 1.415 . S
C862 H852 0.922 1_545 S
C862 C860 1.438 . S
C862 C863 1.351 1_545 S
C863 H853 0.930 . S
C863 C856 1.415 . S
C863 C862 1.351 1_565 S
H864 C870 0.930 . S
H865 C873 0.930 . S
H866 C874 0.930 . S
H867 C875 0.930 . S
H868 C878 0.930 . S
H869 C879 0.930 . S
C870 H864 0.930 . S
C870 C871 1.355 . S
C870 C872 1.415 . S
C871 C870 1.355 . S
C871 C873 1.419 . S
C872 C870 1.415 . S
C872 C877 1.425 . S
C872 C879 1.409 . S
C873 H865 0.930 . S
C873 C871 1.419 . S
C873 C874 1.362 . S
C874 H866 0.930 . S
C874 C873 1.362 . S
C874 C877 1.409 . S
C875 H867 0.930 . S
C875 C876 1.355 . S
C875 C877 1.415 . S
C876 C875 1.355 . S
C876 C878 1.419 . S
C877 C872 1.425 . S
C877 C874 1.409 . S
C877 C875 1.415 . S
C878 H868 0.930 . S
C878 C876 1.419 . S
C878 C879 1.362 . S
C879 H869 0.930 . S
C879 C872 1.409 . S
C879 C878 1.362 . S
H880 C886 0.930 . S
H881 C889 0.930 . S
H882 C890 0.930 . S
H883 C891 0.930 . S
H884 C894 0.930 . S
H885 C895 0.930 . S
C886 H880 0.930 . S
C886 C887 1.355 . S
C886 C888 1.415 . S
C887 C886 1.355 . S
C887 C889 1.419 . S
C888 C886 1.415 . S
C888 C893 1.425 . S
C888 C895 1.409 . S
C889 H881 0.930 . S
C889 C887 1.419 . S
C889 C890 1.362 . S
C890 H882 0.930 . S
C890 C889 1.362 . S
C890 C893 1.409 . S
C891 H883 0.930 . S
C891 C892 1.355 . S
C891 C893 1.415 . S
C892 C891 1.355 . S
C892 C894 1.419 . S
C893 C888 1.425 . S
C893 C890 1.409 . S
C893 C891 1.415 . S
C894 H884 0.930 . S
C894 C892 1.419 . S
C894 C895 1.362 . S
C895 H885 0.930 . S
C895 C888 1.409 . S
C895 C894 1.362 . S
H896 C902 0.930 . S
H897 C905 0.930 . S
H898 C906 0.930 . S
H899 C907 0.924 1_655 S
H900 C910 0.930 . S
H901 C911 0.930 . S
C902 H896 0.930 . S
C902 C903 1.355 . S
C902 C904 1.415 . S
C903 C902 1.355 . S
C903 C905 1.419 1_455 S
C904 C902 1.415 . S
C904 C909 1.425 . S
C904 C911 1.409 . S
C905 H897 0.930 . S
C905 C903 1.419 1_655 S
C905 C906 1.362 . S
C906 H898 0.930 . S
C906 C905 1.362 . S
C906 C909 1.409 1_655 S
C907 H899 0.924 1_455 S
C907 C908 1.359 . S
C907 C909 1.415 . S
C908 C907 1.359 . S
C908 C910 1.419 . S
C909 C904 1.425 . S
C909 C906 1.409 1_455 S
C909 C907 1.415 . S
C910 H900 0.930 . S
C910 C908 1.419 . S
C910 C911 1.362 . S
C911 H901 0.930 . S
C911 C904 1.409 . S
C911 C910 1.362 . S
H912 C918 0.930 . S
H913 C921 0.930 . S
H914 C922 0.930 . S
H915 C923 0.930 . S
H916 C926 0.930 . S
H917 C927 0.930 . S
C918 H912 0.930 . S
C918 C919 1.355 . S
C918 C920 1.415 . S
C919 C918 1.355 . S
C919 C921 1.419 1_545 S
C920 C918 1.415 . S
C920 C925 1.425 1_545 S
C920 C927 1.409 . S
C921 H913 0.930 . S
C921 C919 1.419 1_565 S
C921 C922 1.362 . S
C922 H914 0.930 . S
C922 C921 1.362 . S
C922 C925 1.409 . S
C923 H915 0.930 . S
C923 C924 1.355 1_565 S
C923 C925 1.415 . S
C924 C923 1.355 1_545 S
C924 C926 1.419 . S
C925 C920 1.425 1_565 S
C925 C922 1.409 . S
C925 C923 1.415 . S
C926 H916 0.930 . S
C926 C924 1.419 . S
C926 C927 1.362 . S
C927 H917 0.930 . S
C927 C920 1.409 . S
C927 C926 1.362 . S
H928 C934 0.930 . S
H929 C937 0.930 . S
H930 C938 0.930 . S
H931 C939 0.930 . S
H932 C942 0.930 . S
H933 C943 0.930 . S
C934 H928 0.930 . S
C934 C935 1.355 . S
C934 C936 1.415 . S
C935 C934 1.355 . S
C935 C937 1.419 . S
C936 C934 1.415 . S
C936 C941 1.425 . S
C936 C943 1.409 . S
C937 H929 0.930 . S
C937 C935 1.419 . S
C937 C938 1.362 . S
C938 H930 0.930 . S
C938 C937 1.362 . S
C938 C941 1.409 . S
C939 H931 0.930 . S
C939 C940 1.355 . S
C939 C941 1.415 . S
C940 C939 1.355 . S
C940 C942 1.419 . S
C941 C936 1.425 . S
C941 C938 1.409 . S
C941 C939 1.415 . S
C942 H932 0.930 . S
C942 C940 1.419 . S
C942 C943 1.362 . S
C943 H933 0.930 . S
C943 C936 1.409 . S
C943 C942 1.362 . S
H944 C950 0.930 . S
H945 C953 0.930 . S
H946 C954 0.930 . S
H947 C955 0.930 . S
H948 C958 0.930 . S
H949 C959 0.930 . S
C950 H944 0.930 . S
C950 C951 1.355 . S
C950 C952 1.415 . S
C951 C950 1.355 . S
C951 C953 1.419 . S
C952 C950 1.415 . S
C952 C957 1.425 . S
C952 C959 1.409 . S
C953 H945 0.930 . S
C953 C951 1.419 . S
C953 C954 1.362 . S
C954 H946 0.930 . S
C954 C953 1.362 . S
C954 C957 1.409 . S
C955 H947 0.930 . S
C955 C956 1.355 . S
C955 C957 1.415 . S
C956 C955 1.355 . S
C956 C958 1.419 . S
C957 C952 1.425 . S
C957 C954 1.409 . S
C957 C955 1.415 . S
C958 H948 0.930 . S
C958 C956 1.419 . S
C958 C959 1.362 . S
C959 H949 0.930 . S
C959 C952 1.409 . S
C959 C958 1.362 . S
H960 C966 0.930 . S
H961 C969 0.921 1_455 S
H962 C970 0.938 . S
H963 C971 0.930 . S
H964 C974 0.930 . S
H965 C975 0.930 . S
C966 H960 0.930 . S
C966 C967 1.355 . S
C966 C968 1.415 . S
C967 C966 1.355 . S
C967 C969 1.430 . S
C968 C966 1.415 . S
C968 C973 1.425 . S
C968 C975 1.409 . S
C969 H961 0.921 1_655 S
C969 C967 1.430 . S
C969 C970 1.361 1_655 S
C970 H962 0.938 . S
C970 C969 1.361 1_455 S
C970 C973 1.403 1_455 S
C971 H963 0.930 . S
C971 C972 1.355 . S
C971 C973 1.415 . S
C972 C971 1.355 . S
C972 C974 1.419 . S
C973 C968 1.425 . S
C973 C970 1.403 1_655 S
C973 C971 1.415 . S
C974 H964 0.930 . S
C974 C972 1.419 . S
C974 C975 1.362 . S
C975 H965 0.930 . S
C975 C968 1.409 . S
C975 C974 1.362 . S
H976 C982 0.930 . S
H977 C985 0.930 . S
H978 C986 0.930 . S
H979 C987 0.930 . S
H980 C990 0.930 . S
H981 C991 0.930 . S
C982 H976 0.930 . S
C982 C983 1.355 1_545 S
C982 C984 1.415 . S
C983 C982 1.355 1_565 S
C983 C985 1.419 . S
C984 C982 1.415 . S
C984 C989 1.425 1_545 S
C984 C991 1.409 . S
C985 H977 0.930 . S
C985 C983 1.419 . S
C985 C986 1.362 . S
C986 H978 0.930 . S
C986 C985 1.362 . S
C986 C989 1.409 . S
C987 H979 0.930 . S
C987 C988 1.355 . S
C987 C989 1.415 . S
C988 C987 1.355 . S
C988 C990 1.419 1_565 S
C989 C984 1.425 1_565 S
C989 C986 1.409 . S
C989 C987 1.415 . S
C990 H980 0.930 . S
C990 C988 1.419 1_545 S
C990 C991 1.362 . S
C991 H981 0.930 . S
C991 C984 1.409 . S
C991 C990 1.362 . S
H992 C998 0.930 . S
H993 C1001 0.930 . S
H994 C1002 0.930 . S
H995 C1003 0.930 . S
H996 C1006 0.930 . S
H997 C1007 0.930 . S
C998 H992 0.930 . S
C998 C999 1.355 . S
C998 C1000 1.415 . S
C999 C998 1.355 . S
C999 C1001 1.419 . S
C1000 C998 1.415 . S
C1000 C1005 1.425 . S
C1000 C1007 1.409 . S
C1001 H993 0.930 . S
C1001 C999 1.419 . S
C1001 C1002 1.362 . S
C1002 H994 0.930 . S
C1002 C1001 1.362 . S
C1002 C1005 1.409 . S
C1003 H995 0.930 . S
C1003 C1004 1.355 . S
C1003 C1005 1.415 . S
C1004 C1003 1.355 . S
C1004 C1006 1.419 . S
C1005 C1000 1.425 . S
C1005 C1002 1.409 . S
C1005 C1003 1.415 . S
C1006 H996 0.930 . S
C1006 C1004 1.419 . S
C1006 C1007 1.362 . S
C1007 H997 0.930 . S
C1007 C1000 1.409 . S
C1007 C1006 1.362 . S
H1008 C1014 0.930 . S
H1009 C1017 0.930 . S
H1010 C1018 0.930 . S
H1011 C1019 0.930 . S
H1012 C1022 0.930 . S
H1013 C1023 0.930 . S
C1014 H1008 0.930 . S
C1014 C1015 1.355 . S
C1014 C1016 1.415 . S
C1015 C1014 1.355 . S
C1015 C1017 1.419 . S
C1016 C1014 1.415 . S
C1016 C1021 1.425 . S
C1016 C1023 1.409 . S
C1017 H1009 0.930 . S
C1017 C1015 1.419 . S
C1017 C1018 1.362 . S
C1018 H1010 0.930 . S
C1018 C1017 1.362 . S
C1018 C1021 1.409 . S
C1019 H1011 0.930 . S
C1019 C1020 1.355 . S
C1019 C1021 1.415 . S
C1020 C1019 1.355 . S
C1020 C1022 1.419 . S
C1021 C1016 1.425 . S
C1021 C1018 1.409 . S
C1021 C1019 1.415 . S
C1022 H1012 0.930 . S
C1022 C1020 1.419 . S
C1022 C1023 1.362 . S
C1023 H1013 0.930 . S
C1023 C1016 1.409 . S
C1023 C1022 1.362 . S
C647 C391 2.504 1_565 S
C652 C503 2.605 1_545 S
C668 C543 1.662 . S
C663 C451 1.655 . S
C684 C562 2.667 . S
C679 C241 2.246 . S
C700 C623 1.956 1_455 S
C695 C331 1.583 . S
C716 C482 2.569 . S
C711 C121 2.124 . S
C727 C211 1.560 . S
C732 C522 1.665 . S
C743 C31 2.500 . S
C748 C583 2.633 . S
C759 C91 1.581 . S
C764 C602 1.922 1_655 S
C780 C484 0.768 . S
C775 C301 0.741 . S
C796 C524 0.278 . S
C791 C380 0.167 . S
C812 C580 1.176 . S
C807 C440 1.153 . S
C823 C260 0.637 . S
C828 C604 0.629 . S
C839 C61 0.786 . S
C844 C505 0.820 . S
C860 C545 0.300 . S
C855 C140 0.488 . S
C876 C591 1.194 . S
C871 C200 1.104 . S
C887 C20 0.620 . S
C892 C625 0.602 . S
C903 C320 2.480 . S
C908 C500 2.685 . S
C919 C361 2.761 . S
C924 C540 3.350 . S
C940 C564 2.005 . S
C935 C421 1.761 . S
C956 C620 3.314 . S
C951 C271 3.104 . S
C967 C80 2.512 . S
C972 C511 2.700 . S
C988 C551 3.328 . S
C983 C151 3.101 . S
C1004 C585 1.992 . S
C999 C181 1.756 . S
C1015 C1 2.715 . S
C1020 C631 3.315 . S
