# Generated by pormake.
# Topology anh, (6,3)-cn, num edge types: 1
# Building blocks:
#     Node 0, Type 0, BuildingBlock: BETDEL_clean_sbu_0, # of connection points: 6
#     Node 1, Type 0, BuildingBlock: BETDEL_clean_sbu_0, # of connection points: 6
#     Node 2, Type 0, BuildingBlock: BETDEL_clean_sbu_0, # of connection points: 6
#     Node 3, Type 1, BuildingBlock: PAMTOO_clean_linker_0, # of connection points: 3
#     Node 4, Type 1, BuildingBlock: PAMTOO_clean_linker_0, # of connection points: 3
#     Node 5, Type 1, BuildingBlock: PAMTOO_clean_linker_0, # of connection points: 3
#     Node 6, Type 1, BuildingBlock: PAMTOO_clean_linker_0, # of connection points: 3
#     Node 7, Type 1, BuildingBlock: PAMTOO_clean_linker_0, # of connection points: 3
#     Node 8, Type 1, BuildingBlock: PAMTOO_clean_linker_0, # of connection points: 3
#     Edge 9, Type (0, 1), BuildingBlock: XUDNAN_clean_linker_2, # of connection points: 2
#     Edge 10, Type (0, 1), BuildingBlock: XUDNAN_clean_linker_2, # of connection points: 2
#     Edge 11, Type (0, 1), BuildingBlock: XUDNAN_clean_linker_2, # of connection points: 2
#     Edge 12, Type (0, 1), BuildingBlock: XUDNAN_clean_linker_2, # of connection points: 2
#     Edge 13, Type (0, 1), BuildingBlock: XUDNAN_clean_linker_2, # of connection points: 2
#     Edge 14, Type (0, 1), BuildingBlock: XUDNAN_clean_linker_2, # of connection points: 2
#     Edge 15, Type (0, 1), BuildingBlock: XUDNAN_clean_linker_2, # of connection points: 2
#     Edge 16, Type (0, 1), BuildingBlock: XUDNAN_clean_linker_2, # of connection points: 2
#     Edge 17, Type (0, 1), BuildingBlock: XUDNAN_clean_linker_2, # of connection points: 2
#     Edge 18, Type (0, 1), BuildingBlock: XUDNAN_clean_linker_2, # of connection points: 2
#     Edge 19, Type (0, 1), BuildingBlock: XUDNAN_clean_linker_2, # of connection points: 2
#     Edge 20, Type (0, 1), BuildingBlock: XUDNAN_clean_linker_2, # of connection points: 2
#     Edge 21, Type (0, 1), BuildingBlock: XUDNAN_clean_linker_2, # of connection points: 2
#     Edge 22, Type (0, 1), BuildingBlock: XUDNAN_clean_linker_2, # of connection points: 2
#     Edge 23, Type (0, 1), BuildingBlock: XUDNAN_clean_linker_2, # of connection points: 2
#     Edge 24, Type (0, 1), BuildingBlock: XUDNAN_clean_linker_2, # of connection points: 2
#     Edge 25, Type (0, 1), BuildingBlock: XUDNAN_clean_linker_2, # of connection points: 2
#     Edge 26, Type (0, 1), BuildingBlock: XUDNAN_clean_linker_2, # of connection points: 2
# Relax obj value: 0.094
# Max RMSD: 0.132
# Mean RMSD: 0.100
data_MOF--net-anh--node1-BETDEL_clean_sbu_0--node2-PAMTOO_clean_linker_0--edge1-XUDNAN_clean_linker_2
_symmetry_space_group_name_H-M    P1
_symmetry_Int_Tables_number       1
_symmetry_cell_setting            triclinic
loop_
_symmetry_equiv_pos_as_xyz
'x, y, z'
_cell_length_a     30.162076
_cell_length_b     30.074858
_cell_length_c     47.901234
_cell_angle_alpha  85.505942
_cell_angle_beta   92.172427
_cell_angle_gamma 120.24433
loop_
_atom_site_label
_atom_site_type_symbol
_atom_site_fract_x
_atom_site_fract_y
_atom_site_fract_z
_atom_type_partial_charge
Dy0 Dy 0.06286 0.48947 0.1636 0.0
C1 C 0.93298 0.56467 0.17367 0.0
C2 C 0.13868 0.46747 0.16693 0.0
Dy3 Dy 1.00188 0.54343 0.15476 0.0
O4 O 0.11812 0.47455 0.18803 0.0
O5 O 0.11548 0.46904 0.14376 0.0
O6 O 0.0271 0.4618 0.20644 0.0
O7 O 0.04583 0.53487 0.18906 0.0
C8 C 0.02744 0.50421 0.21031 0.0
C9 C 0.02447 0.52945 0.10377 0.0
O10 O 0.07847 0.61382 0.16266 0.0
O11 O 0.12705 0.57454 0.15863 0.0
O12 O 0.96798 0.5944 0.15507 0.0
O13 O 0.93591 0.52403 0.18155 0.0
O14 O 0.99955 0.55335 0.10778 0.0
O15 O 0.03588 0.51555 0.12717 0.0
O16 O 0.98686 0.41753 0.15657 0.0
O17 O 0.93938 0.45865 0.15736 0.0
C18 C 0.12383 0.61675 0.16113 0.0
C19 C 0.94204 0.41593 0.15684 0.0
Dy20 Dy 0.5326 0.02569 0.4925 0.0
C21 C 0.75655 0.15355 0.50619 0.0
C22 C 0.43342 0.95848 0.48244 0.0
Dy23 Dy 0.65675 0.09353 0.49254 0.0
O24 O 0.44965 0.99475 0.49975 0.0
O25 O 0.47168 0.96336 0.46821 0.0
O26 O 0.52423 1.00727 0.53966 0.0
O27 O 0.59505 0.04914 0.52117 0.0
C28 C 0.5732 0.03215 0.54434 0.0
C29 C 0.61615 0.08196 0.44018 0.0
O30 O 0.64195 1.01096 0.49997 0.0
O31 O 0.55629 0.96708 0.48553 0.0
O32 O 0.73834 0.11313 0.4917 0.0
O33 O 0.71933 0.15939 0.51435 0.0
O34 O 0.6652 0.10465 0.4449 0.0
O35 O 0.59463 0.07034 0.46359 0.0
O36 O 0.54469 0.10689 0.48991 0.0
O37 O 0.63313 0.15301 0.49941 0.0
C38 C 0.59989 0.968 0.49251 0.0
C39 C 0.58773 0.15042 0.49567 0.0
Dy40 Dy 0.65588 0.65032 0.82953 0.0
C41 C 0.58474 0.44547 0.85162 0.0
C42 C 0.68441 0.75073 0.82452 0.0
Dy43 Dy 0.60462 0.53775 0.82899 0.0
O44 O 0.65578 0.71824 0.84432 0.0
O45 O 0.69793 0.72867 0.80713 0.0
O46 O 0.68331 0.64455 0.87336 0.0
O47 O 0.6111 0.58821 0.85987 0.0
C48 C 0.64218 0.60094 0.8798 0.0
C49 C 0.62124 0.5699 0.77528 0.0
O50 O 0.53255 0.54114 0.83266 0.0
O51 O 0.5718 0.62943 0.82273 0.0
O52 O 0.55736 0.45241 0.83192 0.0
O53 O 0.62042 0.48922 0.86007 0.0
O54 O 0.59761 0.5217 0.78437 0.0
O55 O 0.63401 0.59954 0.79523 0.0
O56 O 0.72883 0.64688 0.82498 0.0
O57 O 0.68784 0.55814 0.83048 0.0
C58 C 0.52945 0.58348 0.82745 0.0
C59 C 0.73048 0.60348 0.82754 0.0
H60 H 0.63477 0.10916 0.2386 0.0
H61 H 0.49572 0.96329 0.2332 0.0
H62 H 0.57848 0.04715 0.15808 0.0
H63 H 0.45568 0.96278 0.1452 0.0
C64 C 0.45106 0.95468 0.16826 0.0
O65 O 0.49682 0.96014 0.17939 0.0
H66 H 0.44363 0.98431 0.176 0.0
C67 C 0.60676 0.07939 0.2259 0.0
C68 C 0.61321 0.08487 0.19655 0.0
C69 C 0.5651 0.0358 0.2394 0.0
C70 C 0.52798 0.9971 0.22315 0.0
C71 C 0.53194 1.00098 0.19393 0.0
C72 C 0.57472 0.04497 0.1806 0.0
H73 H 0.58324 0.65234 0.56523 0.0
H74 H 0.61464 0.52794 0.5671 0.0
H75 H 0.60435 0.601 0.48808 0.0
H76 H 0.5668 0.47941 0.48148 0.0
C77 C 0.57232 0.47431 0.50432 0.0
O78 O 0.61196 0.5212 0.51318 0.0
H79 H 0.5355 0.46443 0.51441 0.0
C80 C 0.59235 0.62788 0.55417 0.0
C81 C 0.59688 0.63495 0.52496 0.0
C82 C 0.60275 0.59281 0.56975 0.0
C83 C 0.60723 0.55594 0.55555 0.0
C84 C 0.60501 0.55654 0.5261 0.0
C85 C 0.6017 0.59758 0.51069 0.0
H86 H 0.02421 0.58202 0.90298 0.0
H87 H 0.1599 0.57056 0.89799 0.0
H88 H 0.08833 0.59007 0.8222 0.0
H89 H 0.22797 0.64315 0.85701 0.0
C90 C 0.21614 0.6169 0.83964 0.0
O91 O 0.16543 0.57695 0.84373 0.0
H92 H 0.21802 0.63976 0.81989 0.0
C93 C 0.05326 0.58221 0.89024 0.0
C94 C 0.05087 0.58782 0.86081 0.0
C95 C 0.09244 0.57637 0.90364 0.0
C96 C 0.12996 0.57557 0.88763 0.0
C97 C 0.12933 0.5808 0.85834 0.0
C98 C 0.08942 0.58671 0.84485 0.0
H99 H 0.97165 0.50418 0.40908 0.0
H100 H 0.13048 0.62053 0.41855 0.0
H101 H 0.0484 0.51283 0.48722 0.0
H102 H 0.11 0.60449 0.51068 0.0
C103 C 0.13171 0.6287 0.49181 0.0
O104 O 0.13191 0.59716 0.47258 0.0
H105 H 0.11275 0.65037 0.48302 0.0
C106 C 1.00545 0.5242 0.42199 0.0
C107 C 1.00519 0.50316 0.44905 0.0
C108 C 0.0516 0.56324 0.40977 0.0
C109 C 0.09438 0.58963 0.42714 0.0
C110 C 0.09159 0.5728 0.45555 0.0
C111 C 0.04779 0.5287 0.46619 0.0
H112 H 0.62127 1.01154 0.74135 0.0
H113 H 0.61992 0.15183 0.75144 0.0
H114 H 0.65104 0.07415 0.82173 0.0
H115 H 0.60024 0.12062 0.84163 0.0
C116 C 0.60213 0.14517 0.82257 0.0
O117 O 0.64029 0.15181 0.8052 0.0
H118 H 0.56403 0.126 0.81199 0.0
C119 C 0.62221 0.03955 0.75471 0.0
C120 C 0.63521 0.03761 0.78285 0.0
C121 C 0.61737 0.08094 0.74297 0.0
C122 C 0.6225 0.11886 0.76017 0.0
C123 C 0.63317 0.11504 0.78868 0.0
C124 C 0.63956 0.07465 0.80002 0.0
H125 H 0.64288 0.51946 0.08389 0.0
H126 H 0.49147 0.50084 0.0805 0.0
H127 H 0.57008 0.52055 0.15895 0.0
H128 H 0.46791 0.4554 0.16765 0.0
C129 C 0.45118 0.46461 0.14849 0.0
O130 O 0.48783 0.50839 0.13429 0.0
H131 H 0.43503 0.4312 0.1351 0.0
C132 C 0.60949 0.51509 0.09434 0.0
C133 C 0.61021 0.51871 0.12326 0.0
C134 C 0.56672 0.50881 0.07875 0.0
C135 C 0.52445 0.50471 0.09233 0.0
C136 C 0.5263 0.50897 0.1212 0.0
C137 C 0.5689 0.5161 0.13663 0.0
H138 H 0.19288 0.46352 0.12435 0.0
H139 H 0.20036 0.49179 0.21235 0.0
H140 H 0.29053 0.51353 0.21398 0.0
H141 H 0.25373 0.39695 0.12917 0.0
H142 H 0.2897 0.42225 0.09693 0.0
H143 H 0.23076 0.42233 0.10042 0.0
H144 H 0.27802 0.52097 0.08799 0.0
H145 H 0.33751 0.52131 0.08446 0.0
H146 H 0.33343 0.56313 0.10793 0.0
H147 H 0.37191 0.51729 0.20891 0.0
H148 H 0.43819 0.49585 0.19805 0.0
H149 H 0.37772 0.46267 0.11401 0.0
C150 C 0.21391 0.47478 0.1438 0.0
C151 C 0.1902 0.47552 0.16824 0.0
C152 C 0.21814 0.49036 0.19347 0.0
C153 C 0.26954 0.50385 0.19447 0.0
C154 C 0.29201 0.50232 0.17006 0.0
C155 C 0.26518 0.48811 0.14517 0.0
C156 C 0.29558 0.48152 0.12327 0.0
C157 C 0.26565 0.42755 0.11182 0.0
C158 C 0.31214 0.5243 0.09952 0.0
C159 C 0.3408 0.48824 0.14086 0.0
C160 C 0.33933 0.50292 0.1673 0.0
C161 C 0.37403 0.50639 0.18822 0.0
C162 C 0.4106 0.49317 0.18215 0.0
C163 C 0.41071 0.47554 0.15572 0.0
C164 C 0.37679 0.47475 0.13459 0.0
H165 H 0.80392 0.24267 0.53354 0.0
H166 H 0.82204 0.16457 0.46607 0.0
H167 H 0.88915 0.24734 0.44521 0.0
H168 H 0.81607 0.34809 0.49745 0.0
H169 H 0.85641 0.39624 0.5212 0.0
H170 H 0.81548 0.33053 0.53437 0.0
H171 H 0.89368 0.32738 0.55647 0.0
H172 H 0.93476 0.3937 0.54393 0.0
H173 H 0.94862 0.34486 0.53498 0.0
H174 H 0.93788 0.33503 0.42657 0.0
H175 H 0.98758 0.42812 0.41596 0.0
H176 H 0.94604 0.45392 0.49653 0.0
C177 C 0.82416 0.24295 0.51526 0.0
C178 C 0.80807 0.19751 0.50137 0.0
C179 C 0.83434 0.1989 0.47721 0.0
C180 C 0.87215 0.24579 0.46501 0.0
C181 C 0.88462 0.2903 0.47801 0.0
C182 C 0.86345 0.28954 0.50323 0.0
C183 C 0.88379 0.34388 0.51208 0.0
C184 C 0.84031 0.35529 0.51651 0.0
C185 C 0.91721 0.353 0.53843 0.0
C186 C 0.91617 0.37482 0.48671 0.0
C187 C 0.91577 0.34266 0.4675 0.0
C188 C 0.93969 0.36087 0.44164 0.0
C189 C 0.96693 0.41381 0.43561 0.0
C190 C 0.96976 0.44795 0.45525 0.0
C191 C 0.94402 0.42837 0.48118 0.0
H192 H 0.63163 0.78811 0.84845 0.0
H193 H 0.75568 0.82859 0.79059 0.0
H194 H 0.76495 0.91458 0.7805 0.0
H195 H 0.5719 0.8381 0.80642 0.0
H196 H 0.55083 0.86121 0.83374 0.0
H197 H 0.56137 0.80785 0.84143 0.0
H198 H 0.62478 0.85679 0.88081 0.0
H199 H 0.61437 0.91049 0.87315 0.0
H200 H 0.67855 0.92055 0.87293 0.0
H201 H 0.75474 0.98857 0.77229 0.0
H202 H 0.72021 0.04668 0.76219 0.0
H203 H 0.59885 0.95752 0.82315 0.0
C204 C 0.66194 0.81594 0.83444 0.0
C205 C 0.69392 0.80301 0.82066 0.0
C206 C 0.73169 0.83882 0.80157 0.0
C207 C 0.73737 0.88757 0.79593 0.0
C208 C 0.70475 0.89908 0.80953 0.0
C209 C 0.66739 0.86428 0.82821 0.0
C210 C 0.6321 0.88323 0.83644 0.0
C211 C 0.57577 0.84536 0.82903 0.0
C212 C 0.63783 0.8934 0.86769 0.0
C213 C 0.65405 0.933 0.8182 0.0
C214 C 0.6969 0.94185 0.80365 0.0
C215 C 0.72185 0.98277 0.7838 0.0
C216 C 0.70185 1.01512 0.77806 0.0
C217 C 0.65711 1.00563 0.79186 0.0
C218 C 0.63346 0.96517 0.81269 0.0
H219 H 0.83828 0.48383 0.17746 0.0
H220 H 0.92552 0.65059 0.17656 0.0
H221 H 0.84473 0.65301 0.17413 0.0
H222 H 0.76529 0.48297 0.12407 0.0
H223 H 0.707 0.4249 0.13499 0.0
H224 H 0.76781 0.43353 0.14676 0.0
H225 H 0.73855 0.41997 0.19833 0.0
H226 H 0.67706 0.41066 0.18672 0.0
H227 H 0.7147 0.45894 0.21097 0.0
H228 H 0.76028 0.63971 0.16287 0.0
H229 H 0.67722 0.61286 0.1393 0.0
H230 H 0.64626 0.45549 0.14177 0.0
C231 C 0.83996 0.52056 0.17833 0.0
C232 C 0.88717 0.56706 0.17814 0.0
C233 C 0.88906 0.61481 0.17745 0.0
C234 C 0.84354 0.61634 0.17622 0.0
C235 C 0.79729 0.56982 0.17514 0.0
C236 C 0.79515 0.5227 0.17589 0.0
C237 C 0.74289 0.47991 0.16765 0.0
C238 C 0.74601 0.4539 0.14185 0.0
C239 C 0.71674 0.44004 0.19241 0.0
C240 C 0.71677 0.51093 0.16079 0.0
C241 C 0.74824 0.56225 0.16626 0.0
C242 C 0.73476 0.59958 0.15908 0.0
C243 C 0.6881 0.58426 0.14557 0.0
C244 C 0.65664 0.53254 0.13906 0.0
C245 C 0.67029 0.49516 0.14702 0.0
H246 H 0.39177 0.87537 0.4508 0.0
H247 H 0.37826 0.92682 0.53055 0.0
H248 H 0.3146 0.83789 0.54621 0.0
H249 H 0.26562 0.79664 0.44044 0.0
H250 H 0.26991 0.74611 0.425 0.0
H251 H 0.32348 0.81068 0.42278 0.0
H252 H 0.38161 0.77767 0.4459 0.0
H253 H 0.32762 0.71275 0.44841 0.0
H254 H 0.36375 0.74123 0.4793 0.0
H255 H 0.24581 0.74947 0.55118 0.0
H256 H 0.16431 0.67097 0.54176 0.0
H257 H 0.21723 0.67613 0.45805 0.0
C258 C 0.37512 0.86761 0.4715 0.0
C259 C 0.38909 0.90768 0.4893 0.0
C260 C 0.36714 0.89663 0.51634 0.0
C261 C 0.33201 0.84608 0.52572 0.0
C262 C 0.31915 0.80717 0.50779 0.0
C263 C 0.33937 0.81732 0.48106 0.0
C264 C 0.31256 0.77015 0.46433 0.0
C265 C 0.29159 0.78158 0.43653 0.0
C266 C 0.34853 0.74922 0.4592 0.0
C267 C 0.27027 0.73408 0.48473 0.0
C268 C 0.27706 0.75503 0.51033 0.0
C269 C 0.24046 0.73187 0.53156 0.0
C270 C 0.19431 0.6875 0.52603 0.0
C271 C 0.18526 0.66731 0.49946 0.0
C272 C 0.22415 0.69001 0.47885 0.0
H273 H 0.56506 0.38311 0.81026 0.0
H274 H 0.62985 0.41646 0.89355 0.0
H275 H 0.66002 0.35414 0.89052 0.0
H276 H 0.51481 0.25698 0.81349 0.0
H277 H 0.53256 0.25164 0.77889 0.0
H278 H 0.52552 0.30547 0.78572 0.0
H279 H 0.61806 0.36847 0.76801 0.0
H280 H 0.62552 0.31452 0.76107 0.0
H281 H 0.67082 0.36304 0.78323 0.0
H282 H 0.66903 0.27999 0.88181 0.0
H283 H 0.65122 0.19424 0.8694 0.0
H284 H 0.58438 0.21274 0.79087 0.0
C285 C 0.58503 0.37673 0.82799 0.0
C286 C 0.59362 0.40246 0.85258 0.0
C287 C 0.62164 0.39524 0.87496 0.0
C288 C 0.64001 0.36125 0.87309 0.0
C289 C 0.63127 0.33663 0.84834 0.0
C290 C 0.60487 0.34441 0.82607 0.0
C291 C 0.59601 0.3097 0.80294 0.0
C292 C 0.53884 0.27911 0.79485 0.0
C293 C 0.62963 0.34079 0.77731 0.0
C294 C 0.61458 0.27589 0.81755 0.0
C295 C 0.6375 0.29388 0.843 0.0
C296 C 0.65202 0.26583 0.86179 0.0
C297 C 0.64097 0.21707 0.85489 0.0
C298 C 0.61474 0.1971 0.82983 0.0
C299 C 0.60353 0.22753 0.81042 0.0
H300 H 0.64202 0.92253 0.52964 0.0
H301 H 0.55653 0.89922 0.4522 0.0
H302 H 0.55124 0.81494 0.44947 0.0
H303 H 0.71425 0.8604 0.51455 0.0
H304 H 0.70663 0.82948 0.54924 0.0
H305 H 0.70654 0.88941 0.54418 0.0
H306 H 0.61821 0.84695 0.56888 0.0
H307 H 0.61808 0.78689 0.57394 0.0
H308 H 0.56542 0.78895 0.5561 0.0
H309 H 0.55228 0.72861 0.4564 0.0
H310 H 0.55659 0.65069 0.47379 0.0
H311 H 0.64278 0.73153 0.5458 0.0
C312 C 0.62309 0.90015 0.51184 0.0
C313 C 0.60052 0.91842 0.49083 0.0
C314 C 0.57456 0.88667 0.46845 0.0
C315 C 0.57134 0.83848 0.4667 0.0
C316 C 0.5935 0.82128 0.48777 0.0
C317 C 0.61856 0.85112 0.51007 0.0
C318 C 0.63579 0.82214 0.531 0.0
C319 C 0.69429 0.85216 0.53495 0.0
C320 C 0.60772 0.81057 0.55914 0.0
C321 C 0.61845 0.77259 0.51655 0.0
C322 C 0.59351 0.77219 0.49179 0.0
C323 C 0.57202 0.72886 0.47577 0.0
C324 C 0.57497 0.68465 0.48568 0.0
C325 C 0.59932 0.6837 0.51145 0.0
C326 C 0.62267 0.72954 0.52632 0.0
H327 H 0.82263 0.65676 0.85754 0.0
H328 H 0.74993 0.54668 0.79409 0.0
H329 H 0.8263 0.53683 0.79249 0.0
H330 H 0.95701 0.71583 0.83203 0.0
H331 H 0.98347 0.7207 0.86677 0.0
H332 H 0.92578 0.72403 0.86092 0.0
H333 H 0.87833 0.64856 0.89832 0.0
H334 H 0.93586 0.64512 0.90429 0.0
H335 H 0.87711 0.58863 0.89503 0.0
H336 H 0.91046 0.53583 0.79896 0.0
H337 H 0.99038 0.53853 0.81584 0.0
H338 H 1.00829 0.64552 0.87689 0.0
C339 C 0.82341 0.63162 0.84282 0.0
C340 C 0.78023 0.60331 0.82542 0.0
C341 C 0.78243 0.56935 0.8073 0.0
C342 C 0.82587 0.56348 0.80624 0.0
C343 C 0.86744 0.59122 0.82378 0.0
C344 C 0.8665 0.62443 0.84191 0.0
C345 C 0.91471 0.64636 0.8601 0.0
C346 C 0.94716 0.70523 0.85462 0.0
C347 C 0.90064 0.63126 0.89128 0.0
C348 C 0.94226 0.61987 0.84965 0.0
C349 C 0.91476 0.58889 0.82834 0.0
C350 C 0.93225 0.56017 0.81561 0.0
C351 C 0.97814 0.5622 0.82522 0.0
C352 C 1.00632 0.59213 0.84777 0.0
C353 C 0.98798 0.62193 0.8597 0.0
H354 H 0.21898 0.66876 0.13319 0.0
H355 H 0.13624 0.68097 0.20142 0.0
H356 H 0.21309 0.76159 0.21365 0.0
H357 H 0.34724 0.72771 0.16356 0.0
H358 H 0.37945 0.76489 0.13187 0.0
H359 H 0.31982 0.70477 0.12994 0.0
H360 H 0.28018 0.75119 0.09985 0.0
H361 H 0.33977 0.81137 0.10147 0.0
H362 H 0.28096 0.80631 0.11273 0.0
H363 H 0.30017 0.84155 0.21935 0.0
H364 H 0.38432 0.92167 0.2128 0.0
H365 H 0.40978 0.86638 0.13758 0.0
C366 C 0.21733 0.6882 0.15087 0.0
C367 C 0.17143 0.66711 0.16688 0.0
C368 C 0.17074 0.69504 0.18922 0.0
C369 C 0.2145 0.74123 0.19637 0.0
C370 C 0.25907 0.76084 0.18043 0.0
C371 C 0.26047 0.73602 0.15764 0.0
C372 C 0.31153 0.76886 0.14217 0.0
C373 C 0.34127 0.73981 0.14187 0.0
C374 C 0.30258 0.78541 0.11228 0.0
C375 C 0.33882 0.81523 0.16013 0.0
C376 C 0.30798 0.80923 0.18237 0.0
C377 C 0.3244 0.84669 0.20187 0.0
C378 C 0.37256 0.89212 0.1981 0.0
C379 C 0.40404 0.9008 0.17472 0.0
C380 C 0.38703 0.86099 0.15582 0.0
H381 H 0.61812 0.24253 0.46276 0.0
H382 H 0.54884 0.16368 0.54243 0.0
H383 H 0.54434 0.23977 0.55481 0.0
H384 H 0.69328 0.37244 0.48674 0.0
H385 H 0.68174 0.40356 0.45592 0.0
H386 H 0.6817 0.34401 0.45356 0.0
H387 H 0.59049 0.30212 0.43231 0.0
H388 H 0.59047 0.36168 0.43426 0.0
H389 H 0.53973 0.30266 0.45071 0.0
H390 H 0.54839 0.32623 0.55902 0.0
H391 H 0.55028 0.40969 0.55222 0.0
H392 H 0.61224 0.43256 0.46884 0.0
C393 C 0.60203 0.24142 0.4828 0.0
C394 C 0.58387 0.19681 0.5017 0.0
C395 C 0.56285 0.19705 0.5276 0.0
C396 C 0.5604 0.24038 0.53487 0.0
C397 C 0.57868 0.28378 0.51595 0.0
C398 C 0.59843 0.28437 0.49023 0.0
C399 C 0.61297 0.33502 0.47319 0.0
C400 C 0.67087 0.36556 0.46698 0.0
C401 C 0.58154 0.32475 0.44601 0.0
C402 C 0.59821 0.36268 0.49322 0.0
C403 C 0.57925 0.33266 0.51796 0.0
C404 C 0.56305 0.34979 0.53965 0.0
C405 C 0.56462 0.39764 0.53571 0.0
C406 C 0.58157 0.42833 0.51011 0.0
C407 C 0.59956 0.41063 0.48882 0.0
H408 H 0.50299 0.66091 0.82489 0.0
H409 H 0.43572 0.49452 0.8323 0.0
H410 H 0.34966 0.48406 0.83584 0.0
H411 H 0.41823 0.66597 0.87391 0.0
H412 H 0.41405 0.71747 0.8544 0.0
H413 H 0.4706 0.7122 0.85163 0.0
H414 H 0.45981 0.71025 0.79788 0.0
H415 H 0.4032 0.71553 0.80038 0.0
H416 H 0.40002 0.66273 0.78324 0.0
H417 H 0.26861 0.49133 0.83969 0.0
H418 H 0.2023 0.5164 0.84268 0.0
H419 H 0.32061 0.6775 0.83278 0.0
C420 C 0.4702 0.62223 0.82703 0.0
C421 C 0.47699 0.57859 0.82821 0.0
C422 C 0.43241 0.52882 0.83129 0.0
C423 C 0.38293 0.52236 0.83334 0.0
C424 C 0.37763 0.56596 0.83234 0.0
C425 C 0.42013 0.61499 0.82918 0.0
C426 C 0.4038 0.65544 0.82904 0.0
C427 C 0.42812 0.6898 0.85372 0.0
C428 C 0.41753 0.6879 0.80096 0.0
C429 C 0.34575 0.62165 0.83266 0.0
C430 C 0.33132 0.57006 0.83453 0.0
C431 C 0.27969 0.53171 0.83816 0.0
C432 C 0.24203 0.54633 0.83985 0.0
C433 C 0.25576 0.59908 0.83794 0.0
C434 C 0.3086 0.63686 0.83429 0.0
H435 H 0.90231 0.33182 0.19623 0.0
H436 H 0.86739 0.38667 0.1169 0.0
H437 H 0.78214 0.30699 0.11663 0.0
H438 H 0.83559 0.19416 0.18542 0.0
H439 H 0.81109 0.17471 0.22071 0.0
H440 H 0.87051 0.23413 0.21364 0.0
H441 H 0.83418 0.28404 0.23687 0.0
H442 H 0.77459 0.22476 0.24388 0.0
H443 H 0.77457 0.2785 0.22441 0.0
H444 H 0.69745 0.22006 0.12604 0.0
H445 H 0.62269 0.13892 0.14505 0.0
H446 H 0.71232 0.14071 0.2185 0.0
C447 C 0.8771 0.32648 0.17853 0.0
C448 C 0.89234 0.36527 0.15617 0.0
C449 C 0.85716 0.35741 0.134 0.0
C450 C 0.80845 0.31212 0.13372 0.0
C451 C 0.79435 0.27476 0.15609 0.0
C452 C 0.82764 0.28173 0.17822 0.0
C453 C 0.80179 0.23742 0.20061 0.0
C454 C 0.83153 0.20839 0.20536 0.0
C455 C 0.79595 0.25737 0.22806 0.0
C456 C 0.74953 0.20385 0.18737 0.0
C457 C 0.74574 0.22604 0.16174 0.0
C458 C 0.70039 0.20248 0.14609 0.0
C459 C 0.65791 0.15582 0.15702 0.0
C460 C 0.66029 0.13244 0.18355 0.0
C461 C 0.7077 0.15712 0.19846 0.0
H462 H 0.98399 0.47049 0.05885 0.0
H463 H 0.1196 0.6043 0.08798 0.0
H464 H 0.15563 0.62699 0.03999 0.0
H465 H 0.05594 0.4437 0.00434 0.0
H466 H 1.00234 0.42179 0.9806 0.0
H467 H 0.99141 0.41164 0.01791 0.0
H468 H 0.93884 0.45833 0.01304 0.0
H469 H 0.9503 0.46941 0.97592 0.0
H470 H 0.96803 0.52311 -0.00307 0.0
H471 H 0.17171 0.6411 0.98823 0.0
H472 H 0.16835 0.64374 0.93642 0.0
H473 H 1.02214 0.5011 0.94038 0.0
C474 C 1.0221 0.50334 0.05517 0.0
C475 C 0.04975 0.53518 0.07699 0.0
C476 C 0.09869 0.57888 0.07152 0.0
C477 C 0.11927 0.5921 0.04435 0.0
C478 C 0.09064 0.56071 0.023 0.0
C479 C 0.04355 0.5166 0.02816 0.0
C480 C 1.01945 0.49124 0.00117 0.0
C481 C 1.01715 0.43899 0.001 0.0
C482 C 0.96601 0.48523 -0.00349 0.0
C483 C 0.05817 0.53024 0.9799 0.0
C484 C 0.09968 0.56921 0.993 0.0
C485 C 0.13982 0.61036 0.97778 0.0
C486 C 0.1376 0.61166 0.94843 0.0
C487 C 0.0951 0.57266 0.93462 0.0
C488 C 0.05502 0.53136 0.95056 0.0
H489 H 0.61572 0.13752 0.39295 0.0
H490 H 0.56883 0.98216 0.42623 0.0
H491 H 0.54587 0.95132 0.37836 0.0
H492 H 0.51315 0.09818 0.33828 0.0
H493 H 0.55521 0.15009 0.31384 0.0
H494 H 0.56319 0.15801 0.35094 0.0
H495 H 0.6582 0.1817 0.3468 0.0
H496 H 0.65034 0.17314 0.30983 0.0
H497 H 0.67293 0.13735 0.33194 0.0
H498 H 0.53743 0.94034 0.32578 0.0
H499 H 0.53828 0.94849 0.27402 0.0
H500 H 0.58572 0.11054 0.27574 0.0
C501 C 0.59904 0.09675 0.39015 0.0
C502 C 0.59284 0.06183 0.41313 0.0
C503 C 0.57239 1.00904 0.40885 0.0
C504 C 0.55967 0.99138 0.38174 0.0
C505 C 0.56691 0.02701 0.35931 0.0
C506 C 0.58517 0.07844 0.36336 0.0
C507 C 0.59057 0.10918 0.33583 0.0
C508 C 0.55331 0.1301 0.33465 0.0
C509 C 0.64633 0.1529 0.33082 0.0
C510 C 0.57481 0.06768 0.31548 0.0
C511 C 0.56094 0.02044 0.32936 0.0
C512 C 0.54723 0.97696 0.31477 0.0
C513 C 0.5476 0.98193 0.28532 0.0
C514 C 0.56173 0.03009 0.27066 0.0
C515 C 0.575 0.07323 0.28617 0.0
H516 H 0.59913 0.50776 0.73272 0.0
H517 H 0.65734 0.66742 0.74986 0.0
H518 H 0.66261 0.69089 0.69874 0.0
H519 H 0.67684 0.53463 0.66986 0.0
H520 H 0.62619 0.48086 0.65271 0.0
H521 H 0.63099 0.47795 0.69036 0.0
H522 H 0.53728 0.45847 0.69415 0.0
H523 H 0.53229 0.46164 0.65657 0.0
H524 H 0.51927 0.50224 0.67652 0.0
H525 H 0.66097 0.69594 0.64615 0.0
H526 H 0.64867 0.68352 0.59605 0.0
H527 H 0.58392 0.51815 0.61335 0.0
C528 C 0.61346 0.54782 0.72575 0.0
C529 C 0.62799 0.58595 0.74514 0.0
C530 C 0.64638 0.63782 0.73527 0.0
C531 C 0.64947 0.65137 0.70635 0.0
C532 C 0.63423 0.61255 0.68781 0.0
C533 C 0.61667 0.56186 0.69713 0.0
C534 C 0.60094 0.52714 0.673 0.0
C535 C 0.63581 0.50376 0.6714 0.0
C536 C 0.54406 0.4849 0.6752 0.0
C537 C 0.61054 0.56588 0.64851 0.0
C538 C 0.63082 0.61502 0.65755 0.0
C539 C 0.64437 0.65755 0.63891 0.0
C540 C 0.63642 0.64972 0.61036 0.0
C541 C 0.61333 0.59935 0.60041 0.0
C542 C 0.60112 0.55703 0.61996 0.0
H543 H 0.53521 0.97564 0.59277 0.0
H544 H 0.65974 0.12082 0.55814 0.0
H545 H 0.68549 0.15054 0.60601 0.0
H546 H 0.49626 0.02225 0.64289 0.0
H547 H 0.48273 0.9717 0.66982 0.0
H548 H 0.47902 0.95855 0.63357 0.0
H549 H 0.54459 0.927 0.64154 0.0
H550 H 0.54707 0.9383 0.6781 0.0
H551 H 0.60535 0.96792 0.65779 0.0
H552 H 0.68991 0.16741 0.6575 0.0
H553 H 0.68098 0.16512 0.70891 0.0
H554 H 0.55188 1.0091 0.70836 0.0
C555 C 0.56883 1.01307 0.59539 0.0
C556 C 0.59591 0.046 0.57208 0.0
C557 C 0.63935 0.09488 0.57596 0.0
C558 C 0.65382 0.11213 0.603 0.0
C559 C 0.62467 0.07951 0.62562 0.0
C560 C 0.58393 0.03044 0.62209 0.0
C561 C 0.5575 1.00341 0.64948 0.0
C562 C 0.50052 0.98812 0.64887 0.0
C563 C 0.56404 0.95639 0.65718 0.0
C564 C 0.58789 0.04586 0.66881 0.0
C565 C 0.62683 0.08933 0.65486 0.0
C566 C 0.65972 0.13348 0.66865 0.0
C567 C 0.65384 0.13221 0.69767 0.0
C568 C 0.61533 0.08716 0.71229 0.0
C569 C 0.58128 0.04414 0.69751 0.0
H570 H 0.68324 0.64398 0.92943 0.0
H571 H 0.56335 0.50537 0.89377 0.0
H572 H 0.53104 0.46613 0.94104 0.0
H573 H 0.70827 0.58553 0.99181 0.0
H574 H 0.71479 0.63434 0.0139 0.0
H575 H 0.73043 0.65045 0.97723 0.0
H576 H 0.66661 0.68449 0.97197 0.0
H577 H 0.65035 0.66784 0.00857 0.0
H578 H 0.60067 0.64256 0.98246 0.0
H579 H 0.50962 0.44293 0.99158 0.0
H580 H 0.50307 0.4364 0.04339 0.0
H581 H 0.6349 0.59046 0.04596 0.0
C582 C 0.65087 0.60503 0.93171 0.0
C583 C 0.62649 0.57702 0.90817 0.0
C584 C 0.5832 0.52685 0.9117 0.0
C585 C 0.5643 0.50441 0.9384 0.0
C586 C 0.58858 0.53319 0.96121 0.0
C587 C 0.63078 0.58243 0.95823 0.0
C588 C 0.64798 0.60585 0.98618 0.0
C589 C 0.70367 0.61983 0.99265 0.0
C590 C 0.64097 0.65296 0.98735 0.0
C591 C 0.61027 0.56118 0.00529 0.0
C592 C 0.57576 0.51998 0.99045 0.0
C593 C 0.53653 0.47475 0.00354 0.0
C594 C 0.53301 0.47133 0.03276 0.0
C595 C 0.56896 0.51264 0.04819 0.0
C596 C 0.60763 0.55817 0.03435 0.0
H597 H 0.9893 0.44788 0.26022 0.0
H598 H 0.07998 0.60393 0.22341 0.0
H599 H 0.09996 0.63737 0.27034 0.0
H600 H 0.93495 0.48369 0.31514 0.0
H601 H 0.93428 0.43597 0.34061 0.0
H602 H 0.92771 0.42454 0.30393 0.0
H603 H 1.00545 0.40977 0.30708 0.0
H604 H 1.01222 0.4213 0.34371 0.0
H605 H 0.06585 0.45897 0.3203 0.0
H606 H 0.11161 0.65348 0.32204 0.0
H607 H 0.10709 0.65052 0.3739 0.0
H608 H 1.00899 0.48402 0.3754 0.0
C609 C 1.01291 0.48905 0.26212 0.0
C610 C 0.03334 0.52344 0.23829 0.0
C611 C 0.06394 0.5771 0.24148 0.0
C612 C 0.07569 0.59642 0.26804 0.0
C613 C 0.05558 0.56155 0.29122 0.0
C614 C 0.02418 0.50908 0.2885 0.0
C615 C 1.00591 0.48007 0.31667 0.0
C616 C 0.94724 0.45457 0.31923 0.0
C617 C 0.02346 0.44021 0.32225 0.0
C618 C 0.03305 0.5242 0.3355 0.0
C619 C 0.0614 0.57099 0.32064 0.0
C620 C 0.08909 0.61703 0.33397 0.0
C621 C 0.08651 0.61505 0.36336 0.0
C622 C 0.05641 0.56734 0.37881 0.0
C623 C 0.03072 0.52155 0.36445 0.0
loop_
_geom_bond_atom_site_label_1
_geom_bond_atom_site_label_2
_geom_bond_distance
_geom_bond_site_symmetry_2
_ccdc_geom_bond_type
Dy0 O4 2.398 . S
Dy0 O5 2.491 . S
Dy0 O6 2.403 . S
Dy0 O7 2.664 1_455 S
Dy0 O11 2.326 . S
Dy0 O15 2.310 . S
Dy0 O16 2.351 1_455 S
C1 O12 1.185 . S
C1 O13 1.355 . S
C2 O4 1.185 . S
C2 O5 1.355 . S
Dy3 O7 2.310 . S
Dy3 O10 2.351 1_655 S
Dy3 O12 2.398 . S
Dy3 O13 2.491 . S
Dy3 O14 2.403 . S
Dy3 O15 2.664 1_655 S
Dy3 O17 2.326 . S
O4 Dy0 2.398 . S
O4 C2 1.185 . S
O5 Dy0 2.491 . S
O5 C2 1.355 . S
O6 Dy0 2.403 . S
O6 C8 1.254 . S
O7 Dy0 2.664 1_655 S
O7 Dy3 2.310 . S
O7 C8 1.268 1_655 S
C8 O6 1.254 . S
C8 O7 1.268 1_455 S
C9 O14 1.254 1_455 S
C9 O15 1.268 . S
O10 Dy3 2.351 1_455 S
O10 C18 1.249 . S
O11 Dy0 2.326 . S
O11 C18 1.267 . S
O12 C1 1.185 . S
O12 Dy3 2.398 . S
O13 C1 1.355 . S
O13 Dy3 2.491 . S
O14 Dy3 2.403 . S
O14 C9 1.254 1_655 S
O15 Dy0 2.310 . S
O15 Dy3 2.664 1_455 S
O15 C9 1.268 . S
O16 Dy0 2.351 1_655 S
O16 C19 1.249 . S
O17 Dy3 2.326 . S
O17 C19 1.267 . S
C18 O10 1.249 . S
C18 O11 1.267 . S
C19 O16 1.249 . S
C19 O17 1.267 . S
Dy20 O24 2.398 1_545 S
Dy20 O25 2.491 1_545 S
Dy20 O26 2.403 . S
Dy20 O27 2.664 . S
Dy20 O31 2.326 1_545 S
Dy20 O35 2.310 . S
Dy20 O36 2.351 . S
C21 O32 1.185 . S
C21 O33 1.355 . S
C22 O24 1.185 . S
C22 O25 1.355 . S
Dy23 O27 2.310 . S
Dy23 O30 2.351 1_545 S
Dy23 O32 2.398 . S
Dy23 O33 2.491 . S
Dy23 O34 2.403 . S
Dy23 O35 2.664 . S
Dy23 O37 2.326 . S
O24 Dy20 2.398 1_565 S
O24 C22 1.185 . S
O25 Dy20 2.491 1_565 S
O25 C22 1.355 . S
O26 Dy20 2.403 . S
O26 C28 1.254 . S
O27 Dy20 2.664 . S
O27 Dy23 2.310 . S
O27 C28 1.268 . S
C28 O26 1.254 . S
C28 O27 1.268 . S
C29 O34 1.254 . S
C29 O35 1.268 . S
O30 Dy23 2.351 1_565 S
O30 C38 1.249 . S
O31 Dy20 2.326 1_565 S
O31 C38 1.267 . S
O32 C21 1.185 . S
O32 Dy23 2.398 . S
O33 C21 1.355 . S
O33 Dy23 2.491 . S
O34 Dy23 2.403 . S
O34 C29 1.254 . S
O35 Dy20 2.310 . S
O35 Dy23 2.664 . S
O35 C29 1.268 . S
O36 Dy20 2.351 . S
O36 C39 1.249 . S
O37 Dy23 2.326 . S
O37 C39 1.267 . S
C38 O30 1.249 . S
C38 O31 1.267 . S
C39 O36 1.249 . S
C39 O37 1.267 . S
Dy40 O44 2.398 . S
Dy40 O45 2.491 . S
Dy40 O46 2.403 . S
Dy40 O47 2.664 . S
Dy40 O51 2.326 . S
Dy40 O55 2.310 . S
Dy40 O56 2.351 . S
C41 O52 1.185 . S
C41 O53 1.355 . S
C42 O44 1.185 . S
C42 O45 1.355 . S
Dy43 O47 2.310 . S
Dy43 O50 2.351 . S
Dy43 O52 2.398 . S
Dy43 O53 2.491 . S
Dy43 O54 2.403 . S
Dy43 O55 2.664 . S
Dy43 O57 2.326 . S
O44 Dy40 2.398 . S
O44 C42 1.185 . S
O45 Dy40 2.491 . S
O45 C42 1.355 . S
O46 Dy40 2.403 . S
O46 C48 1.254 . S
O47 Dy40 2.664 . S
O47 Dy43 2.310 . S
O47 C48 1.268 . S
C48 O46 1.254 . S
C48 O47 1.268 . S
C49 O54 1.254 . S
C49 O55 1.268 . S
O50 Dy43 2.351 . S
O50 C58 1.249 . S
O51 Dy40 2.326 . S
O51 C58 1.267 . S
O52 C41 1.185 . S
O52 Dy43 2.398 . S
O53 C41 1.355 . S
O53 Dy43 2.491 . S
O54 Dy43 2.403 . S
O54 C49 1.254 . S
O55 Dy40 2.310 . S
O55 Dy43 2.664 . S
O55 C49 1.268 . S
O56 Dy40 2.351 . S
O56 C59 1.249 . S
O57 Dy43 2.326 . S
O57 C59 1.267 . S
C58 O50 1.249 . S
C58 O51 1.267 . S
C59 O56 1.249 . S
C59 O57 1.267 . S
H60 C67 0.929 . S
H61 C70 0.930 . S
H62 C72 0.929 . S
H63 C64 0.969 . S
C64 H63 0.969 . S
C64 O65 1.550 . S
C64 H66 0.973 . S
O65 C64 1.550 . S
O65 C71 1.412 . S
H66 C64 0.973 . S
C67 H60 0.929 . S
C67 C68 1.400 . S
C67 C69 1.364 . S
C68 C67 1.400 . S
C68 C72 1.377 . S
C69 C67 1.364 . S
C69 C70 1.374 1_545 S
C70 H61 0.930 . S
C70 C69 1.374 1_565 S
C70 C71 1.383 . S
C71 O65 1.412 . S
C71 C70 1.383 . S
C71 C72 1.394 1_565 S
C72 H62 0.929 . S
C72 C68 1.377 . S
C72 C71 1.394 1_545 S
H73 C80 0.929 . S
H74 C83 0.930 . S
H75 C85 0.929 . S
H76 C77 0.969 . S
C77 H76 0.969 . S
C77 O78 1.550 . S
C77 H79 0.973 . S
O78 C77 1.550 . S
O78 C84 1.412 . S
H79 C77 0.973 . S
C80 H73 0.929 . S
C80 C81 1.400 . S
C80 C82 1.364 . S
C81 C80 1.400 . S
C81 C85 1.377 . S
C82 C80 1.364 . S
C82 C83 1.374 . S
C83 H74 0.930 . S
C83 C82 1.374 . S
C83 C84 1.383 . S
C84 O78 1.412 . S
C84 C83 1.383 . S
C84 C85 1.394 . S
C85 H75 0.929 . S
C85 C81 1.377 . S
C85 C84 1.394 . S
H86 C93 0.929 . S
H87 C96 0.930 . S
H88 C98 0.929 . S
H89 C90 0.969 . S
C90 H89 0.969 . S
C90 O91 1.550 . S
C90 H92 0.973 . S
O91 C90 1.550 . S
O91 C97 1.412 . S
H92 C90 0.973 . S
C93 H86 0.929 . S
C93 C94 1.400 . S
C93 C95 1.364 . S
C94 C93 1.400 . S
C94 C98 1.377 . S
C95 C93 1.364 . S
C95 C96 1.374 . S
C96 H87 0.930 . S
C96 C95 1.374 . S
C96 C97 1.383 . S
C97 O91 1.412 . S
C97 C96 1.383 . S
C97 C98 1.394 . S
C98 H88 0.929 . S
C98 C94 1.377 . S
C98 C97 1.394 . S
H99 C106 0.929 . S
H100 C109 0.930 . S
H101 C111 0.929 . S
H102 C103 0.969 . S
C103 H102 0.969 . S
C103 O104 1.550 . S
C103 H105 0.973 . S
O104 C103 1.550 . S
O104 C110 1.412 . S
H105 C103 0.973 . S
C106 H99 0.929 . S
C106 C107 1.400 . S
C106 C108 1.364 1_655 S
C107 C106 1.400 . S
C107 C111 1.377 1_655 S
C108 C106 1.364 1_455 S
C108 C109 1.374 . S
C109 H100 0.930 . S
C109 C108 1.374 . S
C109 C110 1.383 . S
C110 O104 1.412 . S
C110 C109 1.383 . S
C110 C111 1.394 . S
C111 H101 0.929 . S
C111 C107 1.377 1_455 S
C111 C110 1.394 . S
H112 C119 0.929 1_565 S
H113 C122 0.930 . S
H114 C124 0.929 . S
H115 C116 0.969 . S
C116 H115 0.969 . S
C116 O117 1.550 . S
C116 H118 0.973 . S
O117 C116 1.550 . S
O117 C123 1.412 . S
H118 C116 0.973 . S
C119 H112 0.929 1_545 S
C119 C120 1.400 . S
C119 C121 1.364 . S
C120 C119 1.400 . S
C120 C124 1.377 . S
C121 C119 1.364 . S
C121 C122 1.374 . S
C122 H113 0.930 . S
C122 C121 1.374 . S
C122 C123 1.383 . S
C123 O117 1.412 . S
C123 C122 1.383 . S
C123 C124 1.394 . S
C124 H114 0.929 . S
C124 C120 1.377 . S
C124 C123 1.394 . S
H125 C132 0.929 . S
H126 C135 0.930 . S
H127 C137 0.929 . S
H128 C129 0.969 . S
C129 H128 0.969 . S
C129 O130 1.550 . S
C129 H131 0.973 . S
O130 C129 1.550 . S
O130 C136 1.412 . S
H131 C129 0.973 . S
C132 H125 0.929 . S
C132 C133 1.400 . S
C132 C134 1.364 . S
C133 C132 1.400 . S
C133 C137 1.377 . S
C134 C132 1.364 . S
C134 C135 1.374 . S
C135 H126 0.930 . S
C135 C134 1.374 . S
C135 C136 1.383 . S
C136 O130 1.412 . S
C136 C135 1.383 . S
C136 C137 1.394 . S
C137 H127 0.929 . S
C137 C133 1.377 . S
C137 C136 1.394 . S
H138 C150 0.930 . S
H139 C152 0.930 . S
H140 C153 0.930 . S
H141 C157 0.959 . S
H142 C157 0.959 . S
H143 C157 0.961 . S
H144 C158 0.960 . S
H145 C158 0.961 . S
H146 C158 0.959 . S
H147 C161 0.929 . S
H148 C162 0.931 . S
H149 C164 0.930 . S
C150 H138 0.930 . S
C150 C151 1.399 . S
C150 C155 1.399 . S
C151 C150 1.399 . S
C151 C152 1.376 . S
C152 H139 0.930 . S
C152 C151 1.376 . S
C152 C153 1.388 . S
C153 H140 0.930 . S
C153 C152 1.388 . S
C153 C154 1.390 . S
C154 C153 1.390 . S
C154 C155 1.394 . S
C154 C160 1.465 . S
C155 C150 1.399 . S
C155 C154 1.394 . S
C155 C156 1.516 . S
C156 C155 1.516 . S
C156 C157 1.502 . S
C156 C158 1.561 . S
C156 C159 1.526 . S
C157 H141 0.959 . S
C157 H142 0.959 . S
C157 H143 0.961 . S
C157 C156 1.502 . S
C158 H144 0.960 . S
C158 H145 0.961 . S
C158 H146 0.959 . S
C158 C156 1.561 . S
C159 C156 1.526 . S
C159 C160 1.396 . S
C159 C164 1.390 . S
C160 C154 1.465 . S
C160 C159 1.396 . S
C160 C161 1.399 . S
C161 H147 0.929 . S
C161 C160 1.399 . S
C161 C162 1.385 . S
C162 H148 0.931 . S
C162 C161 1.385 . S
C162 C163 1.389 . S
C163 C162 1.389 . S
C163 C164 1.387 . S
C164 H149 0.930 . S
C164 C159 1.390 . S
C164 C163 1.387 . S
H165 C177 0.930 . S
H166 C179 0.930 . S
H167 C180 0.930 . S
H168 C184 0.959 . S
H169 C184 0.959 . S
H170 C184 0.961 . S
H171 C185 0.960 . S
H172 C185 0.961 . S
H173 C185 0.959 . S
H174 C188 0.929 . S
H175 C189 0.931 . S
H176 C191 0.930 . S
C177 H165 0.930 . S
C177 C178 1.399 . S
C177 C182 1.399 . S
C178 C177 1.399 . S
C178 C179 1.376 . S
C179 H166 0.930 . S
C179 C178 1.376 . S
C179 C180 1.388 . S
C180 H167 0.930 . S
C180 C179 1.388 . S
C180 C181 1.390 . S
C181 C180 1.390 . S
C181 C182 1.394 . S
C181 C187 1.465 . S
C182 C177 1.399 . S
C182 C181 1.394 . S
C182 C183 1.516 . S
C183 C182 1.516 . S
C183 C184 1.502 . S
C183 C185 1.561 . S
C183 C186 1.526 . S
C184 H168 0.959 . S
C184 H169 0.959 . S
C184 H170 0.961 . S
C184 C183 1.502 . S
C185 H171 0.960 . S
C185 H172 0.961 . S
C185 H173 0.959 . S
C185 C183 1.561 . S
C186 C183 1.526 . S
C186 C187 1.396 . S
C186 C191 1.390 . S
C187 C181 1.465 . S
C187 C186 1.396 . S
C187 C188 1.399 . S
C188 H174 0.929 . S
C188 C187 1.399 . S
C188 C189 1.385 . S
C189 H175 0.931 . S
C189 C188 1.385 . S
C189 C190 1.389 . S
C190 C189 1.389 . S
C190 C191 1.387 . S
C191 H176 0.930 . S
C191 C186 1.390 . S
C191 C190 1.387 . S
H192 C204 0.930 . S
H193 C206 0.930 . S
H194 C207 0.930 . S
H195 C211 0.959 . S
H196 C211 0.959 . S
H197 C211 0.961 . S
H198 C212 0.960 . S
H199 C212 0.961 . S
H200 C212 0.959 . S
H201 C215 0.929 . S
H202 C216 0.931 1_545 S
H203 C218 0.930 . S
C204 H192 0.930 . S
C204 C205 1.399 . S
C204 C209 1.399 . S
C205 C204 1.399 . S
C205 C206 1.376 . S
C206 H193 0.930 . S
C206 C205 1.376 . S
C206 C207 1.388 . S
C207 H194 0.930 . S
C207 C206 1.388 . S
C207 C208 1.390 . S
C208 C207 1.390 . S
C208 C209 1.394 . S
C208 C214 1.465 . S
C209 C204 1.399 . S
C209 C208 1.394 . S
C209 C210 1.516 . S
C210 C209 1.516 . S
C210 C211 1.502 . S
C210 C212 1.561 . S
C210 C213 1.526 . S
C211 H195 0.959 . S
C211 H196 0.959 . S
C211 H197 0.961 . S
C211 C210 1.502 . S
C212 H198 0.960 . S
C212 H199 0.961 . S
C212 H200 0.959 . S
C212 C210 1.561 . S
C213 C210 1.526 . S
C213 C214 1.396 . S
C213 C218 1.390 . S
C214 C208 1.465 . S
C214 C213 1.396 . S
C214 C215 1.399 . S
C215 H201 0.929 . S
C215 C214 1.399 . S
C215 C216 1.385 . S
C216 H202 0.931 1_565 S
C216 C215 1.385 . S
C216 C217 1.389 . S
C217 C216 1.389 . S
C217 C218 1.387 . S
C218 H203 0.930 . S
C218 C213 1.390 . S
C218 C217 1.387 . S
H219 C231 0.930 . S
H220 C233 0.930 . S
H221 C234 0.930 . S
H222 C238 0.959 . S
H223 C238 0.959 . S
H224 C238 0.961 . S
H225 C239 0.960 . S
H226 C239 0.961 . S
H227 C239 0.959 . S
H228 C242 0.929 . S
H229 C243 0.931 . S
H230 C245 0.930 . S
C231 H219 0.930 . S
C231 C232 1.399 . S
C231 C236 1.399 . S
C232 C231 1.399 . S
C232 C233 1.376 . S
C233 H220 0.930 . S
C233 C232 1.376 . S
C233 C234 1.388 . S
C234 H221 0.930 . S
C234 C233 1.388 . S
C234 C235 1.390 . S
C235 C234 1.390 . S
C235 C236 1.394 . S
C235 C241 1.465 . S
C236 C231 1.399 . S
C236 C235 1.394 . S
C236 C237 1.516 . S
C237 C236 1.516 . S
C237 C238 1.502 . S
C237 C239 1.561 . S
C237 C240 1.526 . S
C238 H222 0.959 . S
C238 H223 0.959 . S
C238 H224 0.961 . S
C238 C237 1.502 . S
C239 H225 0.960 . S
C239 H226 0.961 . S
C239 H227 0.959 . S
C239 C237 1.561 . S
C240 C237 1.526 . S
C240 C241 1.396 . S
C240 C245 1.390 . S
C241 C235 1.465 . S
C241 C240 1.396 . S
C241 C242 1.399 . S
C242 H228 0.929 . S
C242 C241 1.399 . S
C242 C243 1.385 . S
C243 H229 0.931 . S
C243 C242 1.385 . S
C243 C244 1.389 . S
C244 C243 1.389 . S
C244 C245 1.387 . S
C245 H230 0.930 . S
C245 C240 1.390 . S
C245 C244 1.387 . S
H246 C258 0.930 . S
H247 C260 0.930 . S
H248 C261 0.930 . S
H249 C265 0.959 . S
H250 C265 0.959 . S
H251 C265 0.961 . S
H252 C266 0.960 . S
H253 C266 0.961 . S
H254 C266 0.959 . S
H255 C269 0.929 . S
H256 C270 0.931 . S
H257 C272 0.930 . S
C258 H246 0.930 . S
C258 C259 1.399 . S
C258 C263 1.399 . S
C259 C258 1.399 . S
C259 C260 1.376 . S
C260 H247 0.930 . S
C260 C259 1.376 . S
C260 C261 1.388 . S
C261 H248 0.930 . S
C261 C260 1.388 . S
C261 C262 1.390 . S
C262 C261 1.390 . S
C262 C263 1.394 . S
C262 C268 1.465 . S
C263 C258 1.399 . S
C263 C262 1.394 . S
C263 C264 1.516 . S
C264 C263 1.516 . S
C264 C265 1.502 . S
C264 C266 1.561 . S
C264 C267 1.526 . S
C265 H249 0.959 . S
C265 H250 0.959 . S
C265 H251 0.961 . S
C265 C264 1.502 . S
C266 H252 0.960 . S
C266 H253 0.961 . S
C266 H254 0.959 . S
C266 C264 1.561 . S
C267 C264 1.526 . S
C267 C268 1.396 . S
C267 C272 1.390 . S
C268 C262 1.465 . S
C268 C267 1.396 . S
C268 C269 1.399 . S
C269 H255 0.929 . S
C269 C268 1.399 . S
C269 C270 1.385 . S
C270 H256 0.931 . S
C270 C269 1.385 . S
C270 C271 1.389 . S
C271 C270 1.389 . S
C271 C272 1.387 . S
C272 H257 0.930 . S
C272 C267 1.390 . S
C272 C271 1.387 . S
H273 C285 0.930 . S
H274 C287 0.930 . S
H275 C288 0.930 . S
H276 C292 0.959 . S
H277 C292 0.959 . S
H278 C292 0.961 . S
H279 C293 0.960 . S
H280 C293 0.961 . S
H281 C293 0.959 . S
H282 C296 0.929 . S
H283 C297 0.931 . S
H284 C299 0.930 . S
C285 H273 0.930 . S
C285 C286 1.399 . S
C285 C290 1.399 . S
C286 C285 1.399 . S
C286 C287 1.376 . S
C287 H274 0.930 . S
C287 C286 1.376 . S
C287 C288 1.388 . S
C288 H275 0.930 . S
C288 C287 1.388 . S
C288 C289 1.390 . S
C289 C288 1.390 . S
C289 C290 1.394 . S
C289 C295 1.465 . S
C290 C285 1.399 . S
C290 C289 1.394 . S
C290 C291 1.516 . S
C291 C290 1.516 . S
C291 C292 1.502 . S
C291 C293 1.561 . S
C291 C294 1.526 . S
C292 H276 0.959 . S
C292 H277 0.959 . S
C292 H278 0.961 . S
C292 C291 1.502 . S
C293 H279 0.960 . S
C293 H280 0.961 . S
C293 H281 0.959 . S
C293 C291 1.561 . S
C294 C291 1.526 . S
C294 C295 1.396 . S
C294 C299 1.390 . S
C295 C289 1.465 . S
C295 C294 1.396 . S
C295 C296 1.399 . S
C296 H282 0.929 . S
C296 C295 1.399 . S
C296 C297 1.385 . S
C297 H283 0.931 . S
C297 C296 1.385 . S
C297 C298 1.389 . S
C298 C297 1.389 . S
C298 C299 1.387 . S
C299 H284 0.930 . S
C299 C294 1.390 . S
C299 C298 1.387 . S
H300 C312 0.930 . S
H301 C314 0.930 . S
H302 C315 0.930 . S
H303 C319 0.959 . S
H304 C319 0.959 . S
H305 C319 0.961 . S
H306 C320 0.960 . S
H307 C320 0.961 . S
H308 C320 0.959 . S
H309 C323 0.929 . S
H310 C324 0.931 . S
H311 C326 0.930 . S
C312 H300 0.930 . S
C312 C313 1.399 . S
C312 C317 1.399 . S
C313 C312 1.399 . S
C313 C314 1.376 . S
C314 H301 0.930 . S
C314 C313 1.376 . S
C314 C315 1.388 . S
C315 H302 0.930 . S
C315 C314 1.388 . S
C315 C316 1.390 . S
C316 C315 1.390 . S
C316 C317 1.394 . S
C316 C322 1.465 . S
C317 C312 1.399 . S
C317 C316 1.394 . S
C317 C318 1.516 . S
C318 C317 1.516 . S
C318 C319 1.502 . S
C318 C320 1.561 . S
C318 C321 1.526 . S
C319 H303 0.959 . S
C319 H304 0.959 . S
C319 H305 0.961 . S
C319 C318 1.502 . S
C320 H306 0.960 . S
C320 H307 0.961 . S
C320 H308 0.959 . S
C320 C318 1.561 . S
C321 C318 1.526 . S
C321 C322 1.396 . S
C321 C326 1.390 . S
C322 C316 1.465 . S
C322 C321 1.396 . S
C322 C323 1.399 . S
C323 H309 0.929 . S
C323 C322 1.399 . S
C323 C324 1.385 . S
C324 H310 0.931 . S
C324 C323 1.385 . S
C324 C325 1.389 . S
C325 C324 1.389 . S
C325 C326 1.387 . S
C326 H311 0.930 . S
C326 C321 1.390 . S
C326 C325 1.387 . S
H327 C339 0.930 . S
H328 C341 0.930 . S
H329 C342 0.930 . S
H330 C346 0.959 . S
H331 C346 0.959 . S
H332 C346 0.961 . S
H333 C347 0.960 . S
H334 C347 0.961 . S
H335 C347 0.959 . S
H336 C350 0.929 . S
H337 C351 0.931 . S
H338 C353 0.930 . S
C339 H327 0.930 . S
C339 C340 1.399 . S
C339 C344 1.399 . S
C340 C339 1.399 . S
C340 C341 1.376 . S
C341 H328 0.930 . S
C341 C340 1.376 . S
C341 C342 1.388 . S
C342 H329 0.930 . S
C342 C341 1.388 . S
C342 C343 1.390 . S
C343 C342 1.390 . S
C343 C344 1.394 . S
C343 C349 1.465 . S
C344 C339 1.399 . S
C344 C343 1.394 . S
C344 C345 1.516 . S
C345 C344 1.516 . S
C345 C346 1.502 . S
C345 C347 1.561 . S
C345 C348 1.526 . S
C346 H330 0.959 . S
C346 H331 0.959 . S
C346 H332 0.961 . S
C346 C345 1.502 . S
C347 H333 0.960 . S
C347 H334 0.961 . S
C347 H335 0.959 . S
C347 C345 1.561 . S
C348 C345 1.526 . S
C348 C349 1.396 . S
C348 C353 1.390 . S
C349 C343 1.465 . S
C349 C348 1.396 . S
C349 C350 1.399 . S
C350 H336 0.929 . S
C350 C349 1.399 . S
C350 C351 1.385 . S
C351 H337 0.931 . S
C351 C350 1.385 . S
C351 C352 1.389 . S
C352 C351 1.389 . S
C352 C353 1.387 . S
C353 H338 0.930 . S
C353 C348 1.390 . S
C353 C352 1.387 . S
H354 C366 0.930 . S
H355 C368 0.930 . S
H356 C369 0.930 . S
H357 C373 0.959 . S
H358 C373 0.959 . S
H359 C373 0.961 . S
H360 C374 0.960 . S
H361 C374 0.961 . S
H362 C374 0.959 . S
H363 C377 0.929 . S
H364 C378 0.931 . S
H365 C380 0.930 . S
C366 H354 0.930 . S
C366 C367 1.399 . S
C366 C371 1.399 . S
C367 C366 1.399 . S
C367 C368 1.376 . S
C368 H355 0.930 . S
C368 C367 1.376 . S
C368 C369 1.388 . S
C369 H356 0.930 . S
C369 C368 1.388 . S
C369 C370 1.390 . S
C370 C369 1.390 . S
C370 C371 1.394 . S
C370 C376 1.465 . S
C371 C366 1.399 . S
C371 C370 1.394 . S
C371 C372 1.516 . S
C372 C371 1.516 . S
C372 C373 1.502 . S
C372 C374 1.561 . S
C372 C375 1.526 . S
C373 H357 0.959 . S
C373 H358 0.959 . S
C373 H359 0.961 . S
C373 C372 1.502 . S
C374 H360 0.960 . S
C374 H361 0.961 . S
C374 H362 0.959 . S
C374 C372 1.561 . S
C375 C372 1.526 . S
C375 C376 1.396 . S
C375 C380 1.390 . S
C376 C370 1.465 . S
C376 C375 1.396 . S
C376 C377 1.399 . S
C377 H363 0.929 . S
C377 C376 1.399 . S
C377 C378 1.385 . S
C378 H364 0.931 . S
C378 C377 1.385 . S
C378 C379 1.389 . S
C379 C378 1.389 . S
C379 C380 1.387 . S
C380 H365 0.930 . S
C380 C375 1.390 . S
C380 C379 1.387 . S
H381 C393 0.930 . S
H382 C395 0.930 . S
H383 C396 0.930 . S
H384 C400 0.959 . S
H385 C400 0.959 . S
H386 C400 0.961 . S
H387 C401 0.960 . S
H388 C401 0.961 . S
H389 C401 0.959 . S
H390 C404 0.929 . S
H391 C405 0.931 . S
H392 C407 0.930 . S
C393 H381 0.930 . S
C393 C394 1.399 . S
C393 C398 1.399 . S
C394 C393 1.399 . S
C394 C395 1.376 . S
C395 H382 0.930 . S
C395 C394 1.376 . S
C395 C396 1.388 . S
C396 H383 0.930 . S
C396 C395 1.388 . S
C396 C397 1.390 . S
C397 C396 1.390 . S
C397 C398 1.394 . S
C397 C403 1.465 . S
C398 C393 1.399 . S
C398 C397 1.394 . S
C398 C399 1.516 . S
C399 C398 1.516 . S
C399 C400 1.502 . S
C399 C401 1.561 . S
C399 C402 1.526 . S
C400 H384 0.959 . S
C400 H385 0.959 . S
C400 H386 0.961 . S
C400 C399 1.502 . S
C401 H387 0.960 . S
C401 H388 0.961 . S
C401 H389 0.959 . S
C401 C399 1.561 . S
C402 C399 1.526 . S
C402 C403 1.396 . S
C402 C407 1.390 . S
C403 C397 1.465 . S
C403 C402 1.396 . S
C403 C404 1.399 . S
C404 H390 0.929 . S
C404 C403 1.399 . S
C404 C405 1.385 . S
C405 H391 0.931 . S
C405 C404 1.385 . S
C405 C406 1.389 . S
C406 C405 1.389 . S
C406 C407 1.387 . S
C407 H392 0.930 . S
C407 C402 1.390 . S
C407 C406 1.387 . S
H408 C420 0.930 . S
H409 C422 0.930 . S
H410 C423 0.930 . S
H411 C427 0.959 . S
H412 C427 0.959 . S
H413 C427 0.961 . S
H414 C428 0.960 . S
H415 C428 0.961 . S
H416 C428 0.959 . S
H417 C431 0.929 . S
H418 C432 0.931 . S
H419 C434 0.930 . S
C420 H408 0.930 . S
C420 C421 1.399 . S
C420 C425 1.399 . S
C421 C420 1.399 . S
C421 C422 1.376 . S
C422 H409 0.930 . S
C422 C421 1.376 . S
C422 C423 1.388 . S
C423 H410 0.930 . S
C423 C422 1.388 . S
C423 C424 1.390 . S
C424 C423 1.390 . S
C424 C425 1.394 . S
C424 C430 1.465 . S
C425 C420 1.399 . S
C425 C424 1.394 . S
C425 C426 1.516 . S
C426 C425 1.516 . S
C426 C427 1.502 . S
C426 C428 1.561 . S
C426 C429 1.526 . S
C427 H411 0.959 . S
C427 H412 0.959 . S
C427 H413 0.961 . S
C427 C426 1.502 . S
C428 H414 0.960 . S
C428 H415 0.961 . S
C428 H416 0.959 . S
C428 C426 1.561 . S
C429 C426 1.526 . S
C429 C430 1.396 . S
C429 C434 1.390 . S
C430 C424 1.465 . S
C430 C429 1.396 . S
C430 C431 1.399 . S
C431 H417 0.929 . S
C431 C430 1.399 . S
C431 C432 1.385 . S
C432 H418 0.931 . S
C432 C431 1.385 . S
C432 C433 1.389 . S
C433 C432 1.389 . S
C433 C434 1.387 . S
C434 H419 0.930 . S
C434 C429 1.390 . S
C434 C433 1.387 . S
H435 C447 0.930 . S
H436 C449 0.930 . S
H437 C450 0.930 . S
H438 C454 0.959 . S
H439 C454 0.959 . S
H440 C454 0.961 . S
H441 C455 0.960 . S
H442 C455 0.961 . S
H443 C455 0.959 . S
H444 C458 0.929 . S
H445 C459 0.931 . S
H446 C461 0.930 . S
C447 H435 0.930 . S
C447 C448 1.399 . S
C447 C452 1.399 . S
C448 C447 1.399 . S
C448 C449 1.376 . S
C449 H436 0.930 . S
C449 C448 1.376 . S
C449 C450 1.388 . S
C450 H437 0.930 . S
C450 C449 1.388 . S
C450 C451 1.390 . S
C451 C450 1.390 . S
C451 C452 1.394 . S
C451 C457 1.465 . S
C452 C447 1.399 . S
C452 C451 1.394 . S
C452 C453 1.516 . S
C453 C452 1.516 . S
C453 C454 1.502 . S
C453 C455 1.561 . S
C453 C456 1.526 . S
C454 H438 0.959 . S
C454 H439 0.959 . S
C454 H440 0.961 . S
C454 C453 1.502 . S
C455 H441 0.960 . S
C455 H442 0.961 . S
C455 H443 0.959 . S
C455 C453 1.561 . S
C456 C453 1.526 . S
C456 C457 1.396 . S
C456 C461 1.390 . S
C457 C451 1.465 . S
C457 C456 1.396 . S
C457 C458 1.399 . S
C458 H444 0.929 . S
C458 C457 1.399 . S
C458 C459 1.385 . S
C459 H445 0.931 . S
C459 C458 1.385 . S
C459 C460 1.389 . S
C460 C459 1.389 . S
C460 C461 1.387 . S
C461 H446 0.930 . S
C461 C456 1.390 . S
C461 C460 1.387 . S
H462 C474 0.930 1_655 S
H463 C476 0.930 . S
H464 C477 0.930 . S
H465 C481 0.955 1_455 S
H466 C481 0.960 1_556 S
H467 C481 0.962 . S
H468 C482 0.960 . S
H469 C482 0.961 1_556 S
H470 C482 0.959 . S
H471 C485 0.929 . S
H472 C486 0.931 . S
H473 C488 0.930 . S
C474 H462 0.930 1_455 S
C474 C475 1.399 . S
C474 C479 1.399 . S
C475 C474 1.399 . S
C475 C476 1.376 . S
C476 H463 0.930 . S
C476 C475 1.376 . S
C476 C477 1.388 . S
C477 H464 0.930 . S
C477 C476 1.388 . S
C477 C478 1.390 . S
C478 C477 1.390 . S
C478 C479 1.394 . S
C478 C484 1.465 1_554 S
C479 C474 1.399 . S
C479 C478 1.394 . S
C479 C480 1.514 1_455 S
C480 C479 1.514 1_655 S
C480 C481 1.492 . S
C480 C482 1.585 . S
C480 C483 1.518 1_654 S
C481 H465 0.955 1_655 S
C481 H466 0.960 1_554 S
C481 H467 0.962 . S
C481 C480 1.492 . S
C482 H468 0.960 . S
C482 H469 0.961 1_554 S
C482 H470 0.959 . S
C482 C480 1.585 . S
C483 C480 1.518 1_456 S
C483 C484 1.396 . S
C483 C488 1.390 . S
C484 C478 1.465 1_556 S
C484 C483 1.396 . S
C484 C485 1.399 . S
C485 H471 0.929 . S
C485 C484 1.399 . S
C485 C486 1.385 . S
C486 H472 0.931 . S
C486 C485 1.385 . S
C486 C487 1.389 . S
C487 C486 1.389 . S
C487 C488 1.387 . S
C488 H473 0.930 . S
C488 C483 1.390 . S
C488 C487 1.387 . S
H489 C501 0.930 . S
H490 C503 0.930 . S
H491 C504 0.930 . S
H492 C508 0.959 . S
H493 C508 0.959 . S
H494 C508 0.961 . S
H495 C509 0.960 . S
H496 C509 0.961 . S
H497 C509 0.959 . S
H498 C512 0.929 . S
H499 C513 0.931 . S
H500 C515 0.930 . S
C501 H489 0.930 . S
C501 C502 1.399 . S
C501 C506 1.399 . S
C502 C501 1.399 . S
C502 C503 1.376 1_545 S
C503 H490 0.930 . S
C503 C502 1.376 1_565 S
C503 C504 1.388 . S
C504 H491 0.930 . S
C504 C503 1.388 . S
C504 C505 1.390 1_565 S
C505 C504 1.390 1_545 S
C505 C506 1.394 . S
C505 C511 1.465 . S
C506 C501 1.399 . S
C506 C505 1.394 . S
C506 C507 1.516 . S
C507 C506 1.516 . S
C507 C508 1.502 . S
C507 C509 1.561 . S
C507 C510 1.526 . S
C508 H492 0.959 . S
C508 H493 0.959 . S
C508 H494 0.961 . S
C508 C507 1.502 . S
C509 H495 0.960 . S
C509 H496 0.961 . S
C509 H497 0.959 . S
C509 C507 1.561 . S
C510 C507 1.526 . S
C510 C511 1.396 . S
C510 C515 1.390 . S
C511 C505 1.465 . S
C511 C510 1.396 . S
C511 C512 1.399 1_545 S
C512 H498 0.929 . S
C512 C511 1.399 1_565 S
C512 C513 1.385 . S
C513 H499 0.931 . S
C513 C512 1.385 . S
C513 C514 1.389 1_565 S
C514 C513 1.389 1_545 S
C514 C515 1.387 . S
C515 H500 0.930 . S
C515 C510 1.390 . S
C515 C514 1.387 . S
H516 C528 0.930 . S
H517 C530 0.930 . S
H518 C531 0.930 . S
H519 C535 0.959 . S
H520 C535 0.959 . S
H521 C535 0.961 . S
H522 C536 0.960 . S
H523 C536 0.961 . S
H524 C536 0.959 . S
H525 C539 0.929 . S
H526 C540 0.931 . S
H527 C542 0.930 . S
C528 H516 0.930 . S
C528 C529 1.399 . S
C528 C533 1.399 . S
C529 C528 1.399 . S
C529 C530 1.376 . S
C530 H517 0.930 . S
C530 C529 1.376 . S
C530 C531 1.388 . S
C531 H518 0.930 . S
C531 C530 1.388 . S
C531 C532 1.390 . S
C532 C531 1.390 . S
C532 C533 1.394 . S
C532 C538 1.465 . S
C533 C528 1.399 . S
C533 C532 1.394 . S
C533 C534 1.516 . S
C534 C533 1.516 . S
C534 C535 1.502 . S
C534 C536 1.561 . S
C534 C537 1.526 . S
C535 H519 0.959 . S
C535 H520 0.959 . S
C535 H521 0.961 . S
C535 C534 1.502 . S
C536 H522 0.960 . S
C536 H523 0.961 . S
C536 H524 0.959 . S
C536 C534 1.561 . S
C537 C534 1.526 . S
C537 C538 1.396 . S
C537 C542 1.390 . S
C538 C532 1.465 . S
C538 C537 1.396 . S
C538 C539 1.399 . S
C539 H525 0.929 . S
C539 C538 1.399 . S
C539 C540 1.385 . S
C540 H526 0.931 . S
C540 C539 1.385 . S
C540 C541 1.389 . S
C541 C540 1.389 . S
C541 C542 1.387 . S
C542 H527 0.930 . S
C542 C537 1.390 . S
C542 C541 1.387 . S
H543 C555 0.930 1_565 S
H544 C557 0.930 . S
H545 C558 0.930 . S
H546 C562 0.959 1_545 S
H547 C562 0.959 . S
H548 C562 0.961 . S
H549 C563 0.960 . S
H550 C563 0.961 . S
H551 C563 0.959 . S
H552 C566 0.929 . S
H553 C567 0.931 . S
H554 C569 0.930 1_565 S
C555 H543 0.930 1_545 S
C555 C556 1.399 . S
C555 C560 1.399 . S
C556 C555 1.399 . S
C556 C557 1.376 . S
C557 H544 0.930 . S
C557 C556 1.376 . S
C557 C558 1.388 . S
C558 H545 0.930 . S
C558 C557 1.388 . S
C558 C559 1.390 . S
C559 C558 1.390 . S
C559 C560 1.394 . S
C559 C565 1.465 . S
C560 C555 1.399 . S
C560 C559 1.394 . S
C560 C561 1.516 1_545 S
C561 C560 1.516 1_565 S
C561 C562 1.502 . S
C561 C563 1.561 . S
C561 C564 1.526 1_565 S
C562 H546 0.959 1_565 S
C562 H547 0.959 . S
C562 H548 0.961 . S
C562 C561 1.502 . S
C563 H549 0.960 . S
C563 H550 0.961 . S
C563 H551 0.959 . S
C563 C561 1.561 . S
C564 C561 1.526 1_545 S
C564 C565 1.396 . S
C564 C569 1.390 . S
C565 C559 1.465 . S
C565 C564 1.396 . S
C565 C566 1.399 . S
C566 H552 0.929 . S
C566 C565 1.399 . S
C566 C567 1.385 . S
C567 H553 0.931 . S
C567 C566 1.385 . S
C567 C568 1.389 . S
C568 C567 1.389 . S
C568 C569 1.387 . S
C569 H554 0.930 1_545 S
C569 C564 1.390 . S
C569 C568 1.387 . S
H570 C582 0.930 . S
H571 C584 0.930 . S
H572 C585 0.930 . S
H573 C589 0.959 . S
H574 C589 0.959 . S
H575 C589 0.961 1_556 S
H576 C590 0.960 . S
H577 C590 0.961 1_554 S
H578 C590 0.959 . S
H579 C593 0.929 . S
H580 C594 0.931 . S
H581 C596 0.930 . S
C582 H570 0.930 . S
C582 C583 1.399 . S
C582 C587 1.399 . S
C583 C582 1.399 . S
C583 C584 1.376 . S
C584 H571 0.930 . S
C584 C583 1.376 . S
C584 C585 1.388 . S
C585 H572 0.930 . S
C585 C584 1.388 . S
C585 C586 1.390 . S
C586 C585 1.390 . S
C586 C587 1.394 . S
C586 C592 1.465 1_556 S
C587 C582 1.399 . S
C587 C586 1.394 . S
C587 C588 1.516 . S
C588 C587 1.516 . S
C588 C589 1.502 1_556 S
C588 C590 1.561 . S
C588 C591 1.526 1_556 S
C589 H573 0.959 . S
C589 H574 0.959 . S
C589 H575 0.961 1_554 S
C589 C588 1.502 1_554 S
C590 H576 0.960 . S
C590 H577 0.961 1_556 S
C590 H578 0.959 . S
C590 C588 1.561 . S
C591 C588 1.526 1_554 S
C591 C592 1.396 . S
C591 C596 1.390 . S
C592 C586 1.465 1_554 S
C592 C591 1.396 . S
C592 C593 1.399 . S
C593 H579 0.929 . S
C593 C592 1.399 . S
C593 C594 1.385 . S
C594 H580 0.931 . S
C594 C593 1.385 . S
C594 C595 1.389 . S
C595 C594 1.389 . S
C595 C596 1.387 . S
C596 H581 0.930 . S
C596 C591 1.390 . S
C596 C595 1.387 . S
H597 C609 0.930 . S
H598 C611 0.930 . S
H599 C612 0.930 . S
H600 C616 0.959 . S
H601 C616 0.959 . S
H602 C616 0.961 . S
H603 C617 0.960 . S
H604 C617 0.961 . S
H605 C617 0.959 1_455 S
H606 C620 0.929 . S
H607 C621 0.931 . S
H608 C623 0.923 1_655 S
C609 H597 0.930 . S
C609 C610 1.399 1_655 S
C609 C614 1.399 . S
C610 C609 1.399 1_455 S
C610 C611 1.376 . S
C611 H598 0.930 . S
C611 C610 1.376 . S
C611 C612 1.388 . S
C612 H599 0.930 . S
C612 C611 1.388 . S
C612 C613 1.390 . S
C613 C612 1.390 . S
C613 C614 1.394 1_455 S
C613 C619 1.465 . S
C614 C609 1.399 . S
C614 C613 1.394 1_655 S
C614 C615 1.516 . S
C615 C614 1.516 . S
C615 C616 1.502 . S
C615 C617 1.561 . S
C615 C618 1.526 1_655 S
C616 H600 0.959 . S
C616 H601 0.959 . S
C616 H602 0.961 . S
C616 C615 1.502 . S
C617 H603 0.960 . S
C617 H604 0.961 . S
C617 H605 0.959 1_655 S
C617 C615 1.561 . S
C618 C615 1.526 1_455 S
C618 C619 1.396 . S
C618 C623 1.392 . S
C619 C613 1.465 . S
C619 C618 1.396 . S
C619 C620 1.399 . S
C620 H606 0.929 . S
C620 C619 1.399 . S
C620 C621 1.385 . S
C621 H607 0.931 . S
C621 C620 1.385 . S
C621 C622 1.389 . S
C622 C621 1.389 . S
C622 C623 1.391 . S
C623 H608 0.923 1_455 S
C623 C618 1.392 . S
C623 C622 1.391 . S
C151 C2 1.142 . S
C163 C129 1.120 . S
C178 C21 0.890 . S
C190 C107 0.881 . S
C205 C42 0.972 . S
C217 C120 0.960 1_565 S
C232 C1 0.904 . S
C244 C133 0.918 . S
C271 C103 1.143 . S
C259 C22 1.147 . S
C298 C116 1.080 . S
C286 C41 1.098 . S
C313 C38 1.794 . S
C325 C81 1.784 . S
C340 C59 1.855 . S
C352 C94 1.837 1_655 S
C367 C18 1.889 . S
C379 C64 1.718 . S
C406 C77 1.793 . S
C394 C39 1.995 . S
C433 C90 1.767 . S
C421 C58 1.916 . S
C448 C19 1.859 . S
C460 C68 1.848 . S
C487 C95 1.584 . S
C475 C9 1.511 . S
C502 C29 1.519 . S
C514 C69 1.567 . S
C529 C49 1.551 . S
C541 C82 1.600 . S
C568 C121 1.441 . S
C556 C28 1.430 . S
C595 C134 1.502 . S
C583 C48 1.484 . S
C610 C8 1.415 . S
C622 C108 1.481 . S
