# Generated by pormake.
# Topology dag, (6,3)-cn, num edge types: 1
# Building blocks:
#     Node 0, Type 0, BuildingBlock: IZENUY_clean_sbu_0, # of connection points: 6
#     Node 1, Type 0, BuildingBlock: IZENUY_clean_sbu_0, # of connection points: 6
#     Node 2, Type 0, BuildingBlock: IZENUY_clean_sbu_0, # of connection points: 6
#     Node 3, Type 0, BuildingBlock: IZENUY_clean_sbu_0, # of connection points: 6
#     Node 4, Type 1, BuildingBlock: ESEHIV_clean_linker_0, # of connection points: 3
#     Node 5, Type 1, BuildingBlock: ESEHIV_clean_linker_0, # of connection points: 3
#     Node 6, Type 1, BuildingBlock: ESEHIV_clean_linker_0, # of connection points: 3
#     Node 7, Type 1, BuildingBlock: ESEHIV_clean_linker_0, # of connection points: 3
#     Node 8, Type 1, BuildingBlock: ESEHIV_clean_linker_0, # of connection points: 3
#     Node 9, Type 1, BuildingBlock: ESEHIV_clean_linker_0, # of connection points: 3
#     Node 10, Type 1, BuildingBlock: ESEHIV_clean_linker_0, # of connection points: 3
#     Node 11, Type 1, BuildingBlock: ESEHIV_clean_linker_0, # of connection points: 3
#     Edge 12, Type (0, 1), BuildingBlock: EZIPEK_clean_linker_0, # of connection points: 2
#     Edge 13, Type (0, 1), BuildingBlock: EZIPEK_clean_linker_0, # of connection points: 2
#     Edge 14, Type (0, 1), BuildingBlock: EZIPEK_clean_linker_0, # of connection points: 2
#     Edge 15, Type (0, 1), BuildingBlock: EZIPEK_clean_linker_0, # of connection points: 2
#     Edge 16, Type (0, 1), BuildingBlock: EZIPEK_clean_linker_0, # of connection points: 2
#     Edge 17, Type (0, 1), BuildingBlock: EZIPEK_clean_linker_0, # of connection points: 2
#     Edge 18, Type (0, 1), BuildingBlock: EZIPEK_clean_linker_0, # of connection points: 2
#     Edge 19, Type (0, 1), BuildingBlock: EZIPEK_clean_linker_0, # of connection points: 2
#     Edge 20, Type (0, 1), BuildingBlock: EZIPEK_clean_linker_0, # of connection points: 2
#     Edge 21, Type (0, 1), BuildingBlock: EZIPEK_clean_linker_0, # of connection points: 2
#     Edge 22, Type (0, 1), BuildingBlock: EZIPEK_clean_linker_0, # of connection points: 2
#     Edge 23, Type (0, 1), BuildingBlock: EZIPEK_clean_linker_0, # of connection points: 2
#     Edge 24, Type (0, 1), BuildingBlock: EZIPEK_clean_linker_0, # of connection points: 2
#     Edge 25, Type (0, 1), BuildingBlock: EZIPEK_clean_linker_0, # of connection points: 2
#     Edge 26, Type (0, 1), BuildingBlock: EZIPEK_clean_linker_0, # of connection points: 2
#     Edge 27, Type (0, 1), BuildingBlock: EZIPEK_clean_linker_0, # of connection points: 2
#     Edge 28, Type (0, 1), BuildingBlock: EZIPEK_clean_linker_0, # of connection points: 2
#     Edge 29, Type (0, 1), BuildingBlock: EZIPEK_clean_linker_0, # of connection points: 2
#     Edge 30, Type (0, 1), BuildingBlock: EZIPEK_clean_linker_0, # of connection points: 2
#     Edge 31, Type (0, 1), BuildingBlock: EZIPEK_clean_linker_0, # of connection points: 2
#     Edge 32, Type (0, 1), BuildingBlock: EZIPEK_clean_linker_0, # of connection points: 2
#     Edge 33, Type (0, 1), BuildingBlock: EZIPEK_clean_linker_0, # of connection points: 2
#     Edge 34, Type (0, 1), BuildingBlock: EZIPEK_clean_linker_0, # of connection points: 2
#     Edge 35, Type (0, 1), BuildingBlock: EZIPEK_clean_linker_0, # of connection points: 2
# Relax obj value: 0.254
# Max RMSD: 0.192
# Mean RMSD: 0.159
data_MOF--net-dag--node1-IZENUY_clean_sbu_0--node2-ESEHIV_clean_linker_0--edge1-EZIPEK_clean_linker_0
_symmetry_space_group_name_H-M    P1
_symmetry_Int_Tables_number       1
_symmetry_cell_setting            triclinic
loop_
_symmetry_equiv_pos_as_xyz
'x, y, z'
_cell_length_a     26.002834
_cell_length_b     27.076171
_cell_length_c     22.906293
_cell_angle_alpha  94.896152
_cell_angle_beta   90.218348
_cell_angle_gamma 90.146907
loop_
_atom_site_label
_atom_site_type_symbol
_atom_site_fract_x
_atom_site_fract_y
_atom_site_fract_z
_atom_type_partial_charge
Fe0 Fe 0.223 0.85812 0.10209 0.0
Fe1 Fe 0.11551 0.88945 0.06578 0.0
O2 O 0.16105 0.84276 0.07388 0.0
Fe3 Fe 0.14571 0.77986 0.05455 0.0
O4 O 0.18806 0.75603 0.11106 0.0
O5 O 0.20974 0.82348 0.16436 0.0
O6 O 0.20336 0.91379 0.14793 0.0
C7 C 0.15987 0.92507 0.16929 0.0
C8 C 0.24277 0.78191 0.01322 0.0
O9 O 0.11938 0.91108 0.14272 0.0
C10 C 0.09424 0.82885 0.96654 0.0
O11 O 0.23764 0.89439 0.04115 0.0
O12 O 0.16337 0.93435 0.04447 0.0
O13 O 0.1959 0.77713 0.00014 0.0
O14 O 0.25556 0.80501 0.06155 0.0
C15 C 0.05781 0.81113 0.10943 0.0
O16 O 0.10708 0.87147 0.98808 0.0
O17 O 0.10031 0.79144 0.9953 0.0
C18 C 0.20932 0.92914 0.02647 0.0
O19 O 0.0612 0.8517 0.08586 0.0
O20 O 0.09403 0.78021 0.10735 0.0
C21 C 0.20207 0.77747 0.16004 0.0
Fe22 Fe 0.72635 0.63948 0.48565 0.0
Fe23 Fe 0.65075 0.72612 0.51207 0.0
O24 O 0.6661 0.66211 0.51284 0.0
Fe25 Fe 0.62059 0.62191 0.54116 0.0
O26 O 0.66772 0.58209 0.57211 0.0
O27 O 0.74351 0.61346 0.55384 0.0
O28 O 0.76158 0.69573 0.5135 0.0
C29 C 0.7497 0.73059 0.55159 0.0
C30 C 0.65582 0.56316 0.44578 0.0
O31 O 0.70354 0.74303 0.56157 0.0
C32 C 0.56138 0.68258 0.47282 0.0
O33 O 0.71487 0.66268 0.41434 0.0
O34 O 0.69013 0.73668 0.44863 0.0
O35 O 0.61794 0.58215 0.47352 0.0
O36 O 0.70111 0.5795 0.45427 0.0
C37 C 0.60645 0.70273 0.61861 0.0
O38 O 0.59736 0.71179 0.462 0.0
O39 O 0.56481 0.65449 0.51409 0.0
C40 C 0.70466 0.70709 0.40662 0.0
O41 O 0.60785 0.729 0.57578 0.0
O42 O 0.62029 0.65811 0.61162 0.0
C43 C 0.71563 0.58449 0.58031 0.0
Fe44 Fe 0.85128 0.21763 0.03658 0.0
Fe45 Fe 0.88155 0.10759 0.01739 0.0
O46 O 0.83547 0.15519 0.01169 0.0
Fe47 Fe 0.77337 0.13999 0.98178 0.0
O48 O 0.78133 0.18168 0.92454 0.0
O49 O 0.81321 0.24496 0.97998 0.0
O50 O 0.9057 0.21982 0.98732 0.0
C51 C 0.94173 0.1888 0.98395 0.0
C52 C 0.75157 0.21288 0.07448 0.0
O53 O 0.9368 0.1468 0.00325 0.0
C54 C 0.7885 0.06265 0.05023 0.0
O55 O 0.89331 0.20145 0.09728 0.0
O56 O 0.88732 0.12047 0.09568 0.0
O57 O 0.73902 0.18726 0.02797 0.0
O58 O 0.79812 0.22113 0.08786 0.0
C59 C 0.8407 0.07733 0.91071 0.0
O60 O 0.83455 0.05962 0.03262 0.0
O61 O 0.76004 0.0979 0.03786 0.0
C62 C 0.90007 0.1615 0.1213 0.0
O63 O 0.88012 0.09052 0.93977 0.0
O64 O 0.79617 0.08927 0.92931 0.0
C65 C 0.79238 0.2273 0.93267 0.0
Fe66 Fe 0.37073 0.38363 0.54668 0.0
Fe67 Fe 0.27222 0.35487 0.60764 0.0
O68 O 0.3303 0.33717 0.571 0.0
Fe69 Fe 0.34755 0.27372 0.55887 0.0
O70 O 0.41728 0.28473 0.56876 0.0
O71 O 0.42344 0.36542 0.59172 0.0
O72 O 0.35447 0.42991 0.60689 0.0
C73 C 0.33825 0.42402 0.65784 0.0
C74 C 0.38006 0.30583 0.45582 0.0
O75 O 0.30715 0.38965 0.66653 0.0
C76 C 0.24019 0.27561 0.5354 0.0
O77 O 0.32026 0.40458 0.49981 0.0
O78 O 0.26179 0.41086 0.56832 0.0
O79 O 0.35157 0.27624 0.48017 0.0
O80 O 0.39516 0.34586 0.48287 0.0
C81 C 0.30647 0.27398 0.66798 0.0
O82 O 0.23436 0.32098 0.55132 0.0
O83 O 0.28079 0.25237 0.54679 0.0
C84 C 0.27765 0.42136 0.51866 0.0
O85 O 0.2712 0.30247 0.65328 0.0
O86 O 0.3453 0.26537 0.63632 0.0
C87 C 0.44176 0.32234 0.59106 0.0
H88 H 0.03704 0.0657 0.27258 0.0
H89 H 0.15307 0.09948 0.40303 0.0
H90 H 0.03971 0.20897 0.36872 0.0
C91 C 0.05166 0.09008 0.30902 0.0
C92 C 0.0313 0.13795 0.3191 0.0
C93 C 0.09657 0.07684 0.33737 0.0
C94 C 0.11716 0.10896 0.38255 0.0
C95 C 0.09612 0.15645 0.39475 0.0
C96 C 0.05295 0.17094 0.36312 0.0
H97 H 0.46408 0.60655 0.72614 0.0
H98 H 0.34522 0.60776 0.85544 0.0
H99 H 0.43166 0.74106 0.8328 0.0
C100 C 0.44301 0.62595 0.76185 0.0
C101 C 0.4544 0.67562 0.77911 0.0
C102 C 0.40291 0.60196 0.78847 0.0
C103 C 0.37595 0.62695 0.83473 0.0
C104 C 0.38496 0.67766 0.85046 0.0
C105 C 0.42449 0.70188 0.8221 0.0
H106 H 0.8494 0.88534 0.10617 0.0
H107 H 0.83294 0.76229 0.21012 0.0
H108 H 0.71207 0.8706 0.20782 0.0
C109 C 0.8255 0.86368 0.13323 0.0
C110 C 0.77697 0.88144 0.15125 0.0
C111 C 0.84575 0.82115 0.15513 0.0
C112 C 0.81614 0.79426 0.19181 0.0
C113 C 0.76796 0.81172 0.21126 0.0
C114 C 0.74795 0.85537 0.19058 0.0
H115 H 0.64892 0.41207 0.6304 0.0
H116 H 0.65736 0.28606 0.73218 0.0
H117 H 0.77781 0.3961 0.7453 0.0
C118 C 0.66958 0.3906 0.66075 0.0
C119 C 0.71671 0.40809 0.68415 0.0
C120 C 0.64795 0.34667 0.67783 0.0
C121 C 0.67432 0.31964 0.71799 0.0
C122 C 0.72081 0.33766 0.74284 0.0
C123 C 0.74239 0.38163 0.72536 0.0
H124 H 0.52956 0.38624 0.35683 0.0
H125 H 0.66408 0.37351 0.24843 0.0
H126 H 0.54836 0.25886 0.23327 0.0
C127 C 0.55107 0.36659 0.32164 0.0
C128 C 0.5331 0.32085 0.29634 0.0
C129 C 0.59807 0.3858 0.30435 0.0
C130 C 0.62688 0.3595 0.26064 0.0
C131 C 0.60886 0.31387 0.2348 0.0
C132 C 0.56168 0.29471 0.2522 0.0
H133 H 0.14172 0.10622 0.96464 0.0
H134 H 0.16596 0.22744 0.85831 0.0
H135 H 0.28031 0.11305 0.86376 0.0
C136 C 0.16615 0.12572 0.93589 0.0
C137 C 0.21381 0.10556 0.91838 0.0
C138 C 0.14873 0.16958 0.91428 0.0
C139 C 0.17985 0.1941 0.87615 0.0
C140 C 0.22723 0.17372 0.85782 0.0
C141 C 0.24443 0.12962 0.87929 0.0
H142 H 0.35665 0.5878 0.45006 0.0
H143 H 0.34679 0.70079 0.33075 0.0
H144 H 0.21228 0.61446 0.36571 0.0
C145 C 0.33388 0.60855 0.42085 0.0
C146 C 0.28229 0.59589 0.40981 0.0
C147 C 0.35647 0.64718 0.39336 0.0
C148 C 0.32812 0.67207 0.35334 0.0
C149 C 0.2758 0.66113 0.34333 0.0
C150 C 0.25253 0.62355 0.37303 0.0
H151 H 0.96098 0.92747 0.81707 0.0
H152 H 0.95836 0.7866 0.71559 0.0
H153 H 0.84914 0.89997 0.68045 0.0
C154 C 0.94672 0.90417 0.77952 0.0
C155 C 0.90359 0.91925 0.74926 0.0
C156 C 0.96689 0.85657 0.76767 0.0
C157 C 0.94539 0.82466 0.72228 0.0
C158 C 0.90249 0.84026 0.6908 0.0
C159 C 0.88347 0.88852 0.70269 0.0
C160 C 0.13422 0.94868 0.27312 0.0
C161 C 0.15571 0.96239 0.22002 0.0
C162 C 0.15984 0.04853 0.26103 0.0
C163 C 0.12771 0.03643 0.30764 0.0
N164 N 0.08477 0.97512 0.3599 0.0
N165 N 0.18517 0.02668 0.1611 0.0
C166 C 0.1156 0.98633 0.31475 0.0
C167 C 0.16847 0.01256 0.21366 0.0
N168 N 0.13242 0.89989 0.28385 0.0
N169 N 0.18115 0.09469 0.26134 0.0
H170 H 0.19095 0.00173 0.12473 0.0
H171 H 0.18891 0.06357 0.15202 0.0
H172 H 0.17597 0.12197 0.29556 0.0
H173 H 0.20845 0.10406 0.23095 0.0
H174 H 0.12073 0.88775 0.32366 0.0
H175 H 0.14729 0.87194 0.25454 0.0
H176 H 0.06955 0.93991 0.36362 0.0
H177 H 0.07274 0.00201 0.39233 0.0
C178 C 0.58863 0.69816 0.72494 0.0
C179 C 0.57605 0.71852 0.67201 0.0
C180 C 0.48671 0.72855 0.70232 0.0
C181 C 0.49717 0.6997 0.74982 0.0
N182 N 0.55818 0.66402 0.81343 0.0
N183 N 0.52261 0.77905 0.63025 0.0
C184 C 0.54857 0.68768 0.76417 0.0
C185 C 0.52803 0.7422 0.66679 0.0
N186 N 0.63914 0.69029 0.73733 0.0
N187 N 0.43721 0.74013 0.68879 0.0
H188 H 0.55392 0.79373 0.60928 0.0
H189 H 0.48913 0.79982 0.6277 0.0
H190 H 0.40586 0.73148 0.71433 0.0
H191 H 0.42705 0.75554 0.65023 0.0
H192 H 0.65249 0.67766 0.77621 0.0
H193 H 0.66821 0.70092 0.70959 0.0
H194 H 0.59383 0.64983 0.82398 0.0
H195 H 0.5296 0.65795 0.84392 0.0
C196 C 0.73774 0.98413 0.05758 0.0
C197 C 0.76856 0.02274 0.08497 0.0
C198 C 0.78282 0.9735 0.16869 0.0
C199 C 0.76215 0.93158 0.13523 0.0
N200 N 0.71681 0.89626 0.04996 0.0
N201 N 0.81323 0.05852 0.17045 0.0
C202 C 0.73763 0.93694 0.08077 0.0
C203 C 0.78823 0.01891 0.14226 0.0
N204 N 0.70879 0.9927 0.00966 0.0
N205 N 0.79786 0.96932 0.22531 0.0
H206 H 0.81305 0.09332 0.15432 0.0
H207 H 0.83432 0.05721 0.20895 0.0
H208 H 0.79417 0.93638 0.24544 0.0
H209 H 0.81026 -0.00112 0.25389 0.0
H210 H 0.68238 0.96738 0.99021 0.0
H211 H 0.70808 0.02709 0.99237 0.0
H212 H 0.70401 0.89601 0.00682 0.0
H213 H 0.71433 0.86188 0.06722 0.0
C214 C 0.50426 0.31806 0.67298 0.0
C215 C 0.49511 0.31712 0.61203 0.0
C216 C 0.58789 0.32055 0.59486 0.0
C217 C 0.59596 0.33129 0.65595 0.0
N218 N 0.55999 0.3474 0.75309 0.0
N219 N 0.52768 0.31984 0.5139 0.0
C220 C 0.55378 0.33133 0.69527 0.0
C221 C 0.53684 0.31849 0.57249 0.0
N222 N 0.46562 0.30623 0.70953 0.0
N223 N 0.62901 0.3118 0.55847 0.0
H224 H 0.49085 0.31708 0.49598 0.0
H225 H 0.55612 0.32679 0.48373 0.0
H226 H 0.66688 0.31229 0.57376 0.0
H227 H 0.62537 0.29942 0.51433 0.0
H228 H 0.47135 0.30188 0.75385 0.0
H229 H 0.4289 0.2963 0.69419 0.0
H230 H 0.52927 0.35301 0.78194 0.0
H231 H 0.59499 0.35979 0.77122 0.0
C232 C 0.63878 0.51941 0.34675 0.0
C233 C 0.64762 0.51698 0.40755 0.0
C234 C 0.63646 0.42682 0.39589 0.0
C235 C 0.61946 0.43051 0.33759 0.0
N236 N 0.60031 0.48026 0.25787 0.0
N237 N 0.65249 0.46883 0.49151 0.0
C238 C 0.61992 0.47674 0.3128 0.0
C239 C 0.64608 0.47074 0.43253 0.0
N240 N 0.64906 0.56223 0.32143 0.0
N241 N 0.64443 0.38119 0.41577 0.0
H242 H 0.66201 0.49971 0.51948 0.0
H243 H 0.64532 0.43731 0.51329 0.0
H244 H 0.63809 0.34809 0.38992 0.0
H245 H 0.66188 0.37602 0.45577 0.0
H246 H 0.64797 0.56497 0.27637 0.0
H247 H 0.66301 0.59404 0.34519 0.0
H248 H 0.5941 0.51389 0.2401 0.0
H249 H 0.5867 0.44965 0.2315 0.0
C250 C 0.03332 0.21244 0.00521 0.0
C251 C 0.99338 0.20248 0.96357 0.0
C252 C 0.056 0.18068 0.88671 0.0
C253 C 0.09611 0.18748 0.92899 0.0
N254 N 0.12513 0.22165 0.02394 0.0
N255 N 0.96695 0.1968 0.86302 0.0
C256 C 0.08541 0.20747 0.98692 0.0
C257 C 0.00495 0.19324 0.90358 0.0
N258 N 0.02103 0.22552 0.06232 0.0
N259 N 0.06596 0.1592 0.83174 0.0
H260 H 0.92993 0.20795 0.87533 0.0
H261 H 0.97341 0.19433 0.81802 0.0
H262 H 0.10271 0.1488 0.81754 0.0
H263 H 0.0372 0.14824 0.80157 0.0
H264 H 0.04745 0.22765 0.09668 0.0
H265 H 0.98338 0.23344 0.07535 0.0
H266 H 0.12033 0.23972 0.06548 0.0
H267 H 0.16357 0.21867 0.0112 0.0
C268 C 0.23763 0.50675 0.51828 0.0
C269 C 0.25374 0.46194 0.48747 0.0
C270 C 0.26644 0.50459 0.3989 0.0
C271 C 0.26187 0.55054 0.4332 0.0
N272 N 0.2397 0.59668 0.52418 0.0
N273 N 0.2547 0.41547 0.39418 0.0
C274 C 0.24537 0.55206 0.4923 0.0
C275 C 0.25893 0.46008 0.42607 0.0
N276 N 0.21199 0.50565 0.56993 0.0
N277 N 0.28183 0.50339 0.3418 0.0
H278 H 0.24604 0.38352 0.41452 0.0
H279 H 0.25367 0.41113 0.34859 0.0
H280 H 0.2873 0.53529 0.3201 0.0
H281 H 0.29199 0.47095 0.31687 0.0
H282 H 0.19622 0.53694 0.59258 0.0
H283 H 0.19994 0.47252 0.58554 0.0
H284 H 0.23429 0.60026 0.56937 0.0
H285 H 0.24295 0.63039 0.50551 0.0
C286 C 0.00748 0.82503 0.91792 0.0
C287 C 0.06189 0.82471 0.91269 0.0
C288 C 0.05417 0.83582 0.80771 0.0
C289 C -8e-05 0.83757 0.81374 0.0
N290 N 0.92417 0.82405 0.87097 0.0
N291 N 0.13662 0.81692 0.8512 0.0
C292 C 0.97648 0.82847 0.86761 0.0
C293 C 0.08515 0.82595 0.85693 0.0
N294 N 0.98524 0.82517 0.97173 0.0
N295 N 0.07593 0.84579 0.75581 0.0
H296 H 0.15963 0.80873 0.88653 0.0
H297 H 0.15558 0.81332 0.81114 0.0
H298 H 0.05403 0.85157 0.71874 0.0
H299 H 0.11525 0.85076 0.75022 0.0
H300 H 0.94678 0.83346 0.98028 0.0
H301 H 0.00606 0.81904 0.00882 0.0
H302 H 0.90522 0.81025 0.90612 0.0
H303 H 0.89937 0.83136 0.83708 0.0
C304 C 0.82424 0.99243 0.86018 0.0
C305 C 0.84753 0.04001 0.85981 0.0
C306 C 0.89811 0.01049 0.77327 0.0
C307 C 0.8753 0.9632 0.77492 0.0
N308 N 0.80648 0.91269 0.80853 0.0
N309 N 0.90146 0.09655 0.81147 0.0
C310 C 0.8344 0.95572 0.81393 0.0
C311 C 0.88251 0.04981 0.81445 0.0
N312 N 0.79705 0.98013 0.9078 0.0
N313 N 0.93665 0.01672 0.73409 0.0
H314 H 0.89406 0.12505 0.84346 0.0
H315 H 0.92238 0.10784 0.77631 0.0
H316 H 0.94636 0.98919 0.7013 0.0
H317 H 0.96001 0.04803 0.73485 0.0
H318 H 0.78502 0.94421 0.91384 0.0
H319 H 0.79122 0.00434 0.94466 0.0
H320 H 0.77247 0.90794 0.83133 0.0
H321 H 0.81404 0.88332 0.77754 0.0
C322 C 0.44767 0.25774 0.40028 0.0
C323 C 0.40538 0.29046 0.39954 0.0
C324 C 0.43837 0.32249 0.31032 0.0
C325 C 0.4861 0.29979 0.32077 0.0
N326 N 0.53692 0.24407 0.37413 0.0
N327 N 0.35506 0.34792 0.34977 0.0
C328 C 0.49059 0.26562 0.36413 0.0
C329 C 0.39857 0.32017 0.35226 0.0
N330 N 0.44756 0.22068 0.43712 0.0
N331 N 0.43219 0.34725 0.26127 0.0
H332 H 0.32469 0.34387 0.37855 0.0
H333 H 0.34944 0.3749 0.32066 0.0
H334 H 0.46134 0.34898 0.23026 0.0
H335 H 0.3975 0.36245 0.24894 0.0
H336 H 0.47573 0.19338 0.43662 0.0
H337 H 0.41639 0.21411 0.46385 0.0
H338 H 0.54437 0.22431 0.41027 0.0
H339 H 0.56911 0.24827 0.34804 0.0
C340 C 0.20941 0.96756 0.93264 0.0
C341 C 0.22949 0.96701 0.98991 0.0
C342 C 0.2577 0.05322 0.98858 0.0
C343 C 0.22821 0.05632 0.93679 0.0
N344 N 0.17979 0.01687 0.85568 0.0
N345 N 0.28115 0.0042 0.06903 0.0
C346 C 0.20613 0.01326 0.90692 0.0
C347 C 0.25732 0.0081 0.01636 0.0
N348 N 0.19338 0.92405 0.90357 0.0
N349 N 0.28464 0.09382 0.01146 0.0
H350 H 0.28287 0.97078 0.08849 0.0
H351 H 0.2986 0.03349 0.09398 0.0
H352 H 0.28497 0.12721 0.99185 0.0
H353 H 0.30882 0.09418 0.04773 0.0
H354 H 0.18118 0.92054 0.8601 0.0
H355 H 0.19698 0.89027 0.922 0.0
H356 H 0.1577 0.98837 0.83504 0.0
H357 H 0.17847 0.04947 0.83457 0.0
C358 C 0.50211 0.64454 0.39601 0.0
C359 C 0.51223 0.68286 0.44068 0.0
C360 C 0.42065 0.70153 0.44959 0.0
C361 C 0.41027 0.66184 0.40656 0.0
N362 N 0.43987 0.60259 0.32962 0.0
N363 N 0.48474 0.75644 0.49773 0.0
C364 C 0.45075 0.63562 0.37663 0.0
C365 C 0.47251 0.71431 0.46337 0.0
N366 N 0.54168 0.61585 0.37369 0.0
N367 N 0.38097 0.72544 0.47898 0.0
H368 H 0.52276 0.76682 0.50697 0.0
H369 H 0.45804 0.78332 0.51211 0.0
H370 H 0.3424 0.71766 0.46935 0.0
H371 H 0.38604 0.75076 0.51537 0.0
H372 H 0.53687 0.58331 0.3466 0.0
H373 H 0.57992 0.62437 0.38397 0.0
H374 H 0.46773 0.58544 0.30249 0.0
H375 H 0.40244 0.59472 0.31503 0.0
C376 C 0.31692 0.50606 0.70699 0.0
C377 C 0.34866 0.46386 0.70436 0.0
C378 C 0.41161 0.50942 0.76834 0.0
C379 C 0.38384 0.55362 0.7617 0.0
N380 N 0.31602 0.59519 0.71269 0.0
N381 N 0.42624 0.42369 0.73203 0.0
C382 C 0.33775 0.55232 0.72826 0.0
C383 C 0.39595 0.46489 0.73543 0.0
N384 N 0.267 0.50193 0.68878 0.0
N385 N 0.45251 0.51012 0.80602 0.0
H386 H 0.41373 0.39006 0.71121 0.0
H387 H 0.46387 0.42334 0.74768 0.0
H388 H 0.46495 0.54241 0.83014 0.0
H389 H 0.47167 0.47833 0.81655 0.0
H390 H 0.24091 0.5311 0.6945 0.0
H391 H 0.25055 0.46782 0.67458 0.0
H392 H 0.28484 0.59573 0.68402 0.0
H393 H 0.33302 0.62983 0.7224 0.0
C394 C 0.98959 0.83141 0.18102 0.0
C395 C 0.0075 0.79917 0.13401 0.0
C396 C 0.91948 0.77142 0.11088 0.0
C397 C 0.90142 0.81076 0.15032 0.0
N398 N 0.91814 0.87701 0.22586 0.0
N399 N 0.99233 0.73345 0.05829 0.0
C400 C 0.93616 0.83999 0.18694 0.0
C401 C 0.97333 0.76661 0.10112 0.0
N402 N 0.02436 0.8535 0.2198 0.0
N403 N 0.88509 0.73943 0.08241 0.0
H404 H 0.03161 0.72766 0.05217 0.0
H405 H 0.96971 0.71272 0.02766 0.0
H406 H 0.84538 0.74346 0.08679 0.0
H407 H 0.89549 0.70736 0.05703 0.0
H408 H 0.01451 0.87487 0.25803 0.0
H409 H 0.06359 0.84593 0.21613 0.0
H410 H 0.94161 0.90327 0.24865 0.0
H411 H 0.87917 0.88339 0.23344 0.0
C412 C 0.7621 0.5043 0.5874 0.0
C413 C 0.73816 0.5468 0.61601 0.0
C414 C 0.71689 0.50044 0.69991 0.0
C415 C 0.73555 0.45688 0.6685 0.0
N416 N 0.78876 0.41861 0.59219 0.0
N417 N 0.70761 0.58978 0.70492 0.0
C418 C 0.76299 0.45947 0.61563 0.0
C419 C 0.72106 0.54626 0.67454 0.0
N420 N 0.78012 0.50576 0.53163 0.0
N421 N 0.69211 0.49723 0.75199 0.0
H422 H 0.7098 0.62334 0.68611 0.0
H423 H 0.69875 0.59329 0.74934 0.0
H424 H 0.69021 0.46444 0.77269 0.0
H425 H 0.67181 0.52627 0.77375 0.0
H426 H 0.79132 0.47455 0.50512 0.0
H427 H 0.78256 0.53845 0.51091 0.0
H428 H 0.81293 0.41863 0.55609 0.0
H429 H 0.78929 0.38542 0.61227 0.0
C430 C 0.98588 0.14708 0.16662 0.0
C431 C 0.93361 0.16126 0.17377 0.0
C432 C 0.94551 0.16674 0.2806 0.0
C433 C 0.99842 0.15587 0.27208 0.0
N434 N 0.07128 0.15485 0.20702 0.0
N435 N 0.86608 0.19424 0.23742 0.0
C436 C 0.0193 0.1532 0.21502 0.0
C437 C 0.9142 0.17465 0.23085 0.0
N438 N 0.00344 0.12442 0.11505 0.0
N439 N 0.92491 0.16745 0.33536 0.0
H440 H 0.84262 0.20011 0.20169 0.0
H441 H 0.85134 0.2083 0.27766 0.0
H442 H 0.9472 0.1626 0.37239 0.0
H443 H 0.88558 0.16997 0.34343 0.0
H444 H 0.04051 0.11011 0.11005 0.0
H445 H 0.97958 0.11353 0.08005 0.0
H446 H 0.088 0.15722 0.16603 0.0
H447 H 0.09712 0.15919 0.2419 0.0
C448 C 0.24809 0.7684 0.25689 0.0
C449 C 0.21566 0.74805 0.21038 0.0
C450 C 0.22023 0.66798 0.25247 0.0
C451 C 0.24694 0.69052 0.302 0.0
N452 N 0.26588 0.7671 0.36008 0.0
N453 N 0.15491 0.68183 0.18103 0.0
C454 C 0.25309 0.74259 0.30748 0.0
C455 C 0.19651 0.69888 0.21329 0.0
N456 N 0.27843 0.80906 0.25168 0.0
N457 N 0.21944 0.61776 0.24041 0.0
H458 H 0.13222 0.70453 0.15714 0.0
H459 H 0.13873 0.64702 0.18524 0.0
H460 H 0.23904 0.59349 0.26537 0.0
H461 H 0.20371 0.60089 0.20173 0.0
H462 H 0.3038 0.82249 0.28474 0.0
H463 H 0.28553 0.82395 0.21209 0.0
H464 H 0.268 0.8057 0.36601 0.0
H465 H 0.26852 0.74903 0.39847 0.0
C466 C 0.80232 0.74229 0.64269 0.0
C467 C 0.79122 0.75642 0.58598 0.0
C468 C 0.86395 0.81413 0.59302 0.0
C469 C 0.87073 0.80498 0.65258 0.0
N470 N 0.84135 0.76438 0.73673 0.0
N471 N 0.80547 0.8112 0.51016 0.0
C472 C 0.83904 0.76966 0.67802 0.0
C473 C 0.82063 0.7936 0.56163 0.0
N474 N 0.77774 0.70251 0.66285 0.0
N475 N 0.89902 0.84256 0.56673 0.0
H476 H 0.77244 0.79843 0.48768 0.0
H477 H 0.8226 0.84147 0.49277 0.0
H478 H 0.93135 0.85767 0.58885 0.0
H479 H 0.89875 0.84711 0.52204 0.0
H480 H 0.78884 0.68633 0.70057 0.0
H481 H 0.74835 0.68352 0.6395 0.0
H482 H 0.81418 0.74473 0.75881 0.0
H483 H 0.86833 0.78219 0.7645 0.0
C484 C 0.71101 0.22433 0.17336 0.0
C485 C 0.71063 0.23443 0.11365 0.0
C486 C 0.63586 0.28878 0.13194 0.0
C487 C 0.64177 0.28433 0.19272 0.0
N488 N 0.68633 0.25066 0.27292 0.0
N489 N 0.6726 0.27655 0.03499 0.0
C490 C 0.67966 0.25278 0.21393 0.0
C491 C 0.67257 0.26623 0.09236 0.0
N492 N 0.73928 0.18563 0.19058 0.0
N493 N 0.59477 0.31415 0.11215 0.0
H494 H 0.69649 0.25903 0.00344 0.0
H495 H 0.65078 0.30457 0.01883 0.0
H496 H 0.56811 0.33246 0.14014 0.0
H497 H 0.5847 0.31407 0.06813 0.0
H498 H 0.73739 0.17319 0.23231 0.0
H499 H 0.76069 0.16259 0.16118 0.0
H500 H 0.7174 0.23307 0.29103 0.0
H501 H 0.66268 0.26931 0.30416 0.0
C502 C 0.27516 0.19613 0.70617 0.0
C503 C 0.29707 0.24395 0.71756 0.0
C504 C 0.28468 0.23946 0.8229 0.0
C505 C 0.25538 0.19558 0.81032 0.0
N506 N 0.21746 0.13454 0.73977 0.0
N507 N 0.3243 0.31175 0.78553 0.0
C508 C 0.24965 0.17417 0.75195 0.0
C509 C 0.30272 0.26568 0.77575 0.0
N510 N 0.27884 0.1716 0.65168 0.0
N511 N 0.29545 0.25557 0.87983 0.0
H512 H 0.34071 0.33034 0.7521 0.0
H513 H 0.32431 0.33234 0.82603 0.0
H514 H 0.28246 0.23704 0.91512 0.0
H515 H 0.32033 0.28482 0.8921 0.0
H516 H 0.26781 0.13477 0.64231 0.0
H517 H 0.2979 0.18622 0.61716 0.0
H518 H 0.20675 0.12141 0.6974 0.0
H519 H 0.19786 0.11715 0.77195 0.0
C520 C 0.768 0.7549 0.3541 0.0
C521 C 0.72106 0.72854 0.35257 0.0
C522 C 0.70151 0.75809 0.25654 0.0
C523 C 0.74574 0.78897 0.26228 0.0
N524 N 0.81186 0.82728 0.32516 0.0
N525 N 0.63952 0.70884 0.30585 0.0
C526 C 0.77591 0.79079 0.31404 0.0
C527 C 0.68654 0.73126 0.30476 0.0
N528 N 0.80594 0.74435 0.39237 0.0
N529 N 0.67497 0.75325 0.20483 0.0
H530 H 0.62858 0.68746 0.33951 0.0
H531 H 0.61061 0.71371 0.2753 0.0
H532 H 0.68447 0.77324 0.1694 0.0
H533 H 0.64565 0.72739 0.19599 0.0
H534 H 0.84263 0.75993 0.39176 0.0
H535 H 0.80246 0.71592 0.42 0.0
H536 H 0.83211 0.83232 0.3646 0.0
H537 H 0.81681 0.85576 0.29778 0.0
C538 C 0.79359 0.2442 0.8263 0.0
C539 C 0.78043 0.2604 0.88519 0.0
C540 C 0.73329 0.33081 0.8501 0.0
C541 C 0.74411 0.31276 0.79155 0.0
N542 N 0.78185 0.25189 0.72215 0.0
N543 N 0.75177 0.32894 0.95302 0.0
C544 C 0.77389 0.26953 0.77917 0.0
C545 C 0.75468 0.30667 0.89725 0.0
N546 N 0.82812 0.20662 0.81598 0.0
N547 N 0.6996 0.36928 0.86076 0.0
H548 H 0.76489 0.31365 0.99025 0.0
H549 H 0.74004 0.36548 0.96245 0.0
H550 H 0.68351 0.38863 0.82777 0.0
H551 H 0.68394 0.37943 0.9018 0.0
H552 H 0.84357 0.19543 0.77519 0.0
H553 H 0.84565 0.18986 0.8499 0.0
H554 H 0.79729 0.21723 0.70948 0.0
H555 H 0.77036 0.27098 0.68664 0.0
C556 C 0.1984 0.25269 0.43921 0.0
C557 C 0.1995 0.2491 0.50052 0.0
C558 C 0.12472 0.19359 0.49332 0.0
C559 C 0.12666 0.19355 0.4315 0.0
N560 N 0.16533 0.22136 0.34434 0.0
N561 N 0.16671 0.21541 0.58702 0.0
C562 C 0.16304 0.22323 0.40412 0.0
C563 C 0.16324 0.21957 0.52804 0.0
N564 N 0.23155 0.28422 0.41463 0.0
N565 N 0.08553 0.16928 0.51845 0.0
H566 H 0.19324 0.23548 0.6139 0.0
H567 H 0.14537 0.19037 0.6091 0.0
H568 H 0.05683 0.15015 0.49377 0.0
H569 H 0.07895 0.17099 0.56334 0.0
H570 H 0.2292 0.29331 0.37149 0.0
H571 H 0.26026 0.30387 0.4385 0.0
H572 H 0.19517 0.23612 0.32116 0.0
H573 H 0.1382 0.20294 0.31706 0.0
C574 C 0.26513 0.71345 0.93663 0.0
C575 C 0.28153 0.75445 0.97509 0.0
C576 C 0.36935 0.73851 0.93975 0.0
C577 C 0.35002 0.70562 0.89307 0.0
N578 N 0.27387 0.67841 0.83775 0.0
N579 N 0.35081 0.81333 0.00051 0.0
C580 C 0.29614 0.69816 0.88845 0.0
C581 C 0.33419 0.76931 0.97335 0.0
N582 N 0.22174 0.68712 0.94699 0.0
N583 N 0.42044 0.73946 0.95365 0.0
H584 H 0.32637 0.83984 0.02068 0.0
H585 H 0.38835 0.82613 0.9961 0.0
H586 H 0.4469 0.71503 0.93297 0.0
H587 H 0.43501 0.76052 0.9903 0.0
H588 H 0.2108 0.65576 0.92007 0.0
H589 H 0.20174 0.69157 0.98644 0.0
H590 H 0.23405 0.675 0.83288 0.0
H591 H 0.29452 0.67226 0.79904 0.0
loop_
_geom_bond_atom_site_label_1
_geom_bond_atom_site_label_2
_geom_bond_distance
_geom_bond_site_symmetry_2
_ccdc_geom_bond_type
Fe0 O2 1.918 . S
Fe0 O5 1.997 . S
Fe0 O6 2.002 . S
Fe0 O11 1.976 . S
Fe0 O14 1.996 . S
Fe1 O2 1.918 . S
Fe1 O9 1.997 . S
Fe1 O12 1.996 . S
Fe1 O16 1.976 1_554 S
Fe1 O19 2.002 . S
O2 Fe0 1.918 . S
O2 Fe1 1.918 . S
O2 Fe3 1.918 . S
Fe3 O2 1.918 . S
Fe3 O4 2.002 . S
Fe3 O13 1.976 . S
Fe3 O17 1.996 1_554 S
Fe3 O20 1.997 . S
O4 Fe3 2.002 . S
O4 C21 1.295 . S
O5 Fe0 1.997 . S
O5 C21 1.235 . S
O6 Fe0 2.002 . S
O6 C7 1.295 . S
C7 O6 1.295 . S
C7 O9 1.235 . S
C8 O13 1.287 . S
C8 O14 1.255 . S
O9 Fe1 1.997 . S
O9 C7 1.235 . S
C10 O16 1.287 . S
C10 O17 1.255 . S
O11 Fe0 1.976 . S
O11 C18 1.287 . S
O12 Fe1 1.996 . S
O12 C18 1.255 . S
O13 Fe3 1.976 . S
O13 C8 1.287 . S
O14 Fe0 1.996 . S
O14 C8 1.255 . S
C15 O19 1.295 . S
C15 O20 1.235 . S
O16 Fe1 1.976 1_556 S
O16 C10 1.287 . S
O17 Fe3 1.996 1_556 S
O17 C10 1.255 . S
C18 O11 1.287 . S
C18 O12 1.255 . S
O19 Fe1 2.002 . S
O19 C15 1.295 . S
O20 Fe3 1.997 . S
O20 C15 1.235 . S
C21 O4 1.295 . S
C21 O5 1.235 . S
Fe22 O24 1.918 . S
Fe22 O27 1.997 . S
Fe22 O28 2.002 . S
Fe22 O33 1.976 . S
Fe22 O36 1.996 . S
Fe23 O24 1.918 . S
Fe23 O31 1.997 . S
Fe23 O34 1.996 . S
Fe23 O38 1.976 . S
Fe23 O41 2.002 . S
O24 Fe22 1.918 . S
O24 Fe23 1.918 . S
O24 Fe25 1.918 . S
Fe25 O24 1.918 . S
Fe25 O26 2.002 . S
Fe25 O35 1.976 . S
Fe25 O39 1.996 . S
Fe25 O42 1.997 . S
O26 Fe25 2.002 . S
O26 C43 1.295 . S
O27 Fe22 1.997 . S
O27 C43 1.235 . S
O28 Fe22 2.002 . S
O28 C29 1.295 . S
C29 O28 1.295 . S
C29 O31 1.235 . S
C30 O35 1.287 . S
C30 O36 1.255 . S
O31 Fe23 1.997 . S
O31 C29 1.235 . S
C32 O38 1.287 . S
C32 O39 1.255 . S
O33 Fe22 1.976 . S
O33 C40 1.287 . S
O34 Fe23 1.996 . S
O34 C40 1.255 . S
O35 Fe25 1.976 . S
O35 C30 1.287 . S
O36 Fe22 1.996 . S
O36 C30 1.255 . S
C37 O41 1.295 . S
C37 O42 1.235 . S
O38 Fe23 1.976 . S
O38 C32 1.287 . S
O39 Fe25 1.996 . S
O39 C32 1.255 . S
C40 O33 1.287 . S
C40 O34 1.255 . S
O41 Fe23 2.002 . S
O41 C37 1.295 . S
O42 Fe25 1.997 . S
O42 C37 1.235 . S
C43 O26 1.295 . S
C43 O27 1.235 . S
Fe44 O46 1.918 . S
Fe44 O49 1.997 1_554 S
Fe44 O50 2.002 1_554 S
Fe44 O55 1.976 . S
Fe44 O58 1.996 . S
Fe45 O46 1.918 . S
Fe45 O53 1.997 1_554 S
Fe45 O56 1.996 . S
Fe45 O60 1.976 . S
Fe45 O63 2.002 1_554 S
O46 Fe44 1.918 . S
O46 Fe45 1.918 . S
O46 Fe47 1.918 1_554 S
Fe47 O46 1.918 1_556 S
Fe47 O48 2.002 . S
Fe47 O57 1.976 1_556 S
Fe47 O61 1.996 1_556 S
Fe47 O64 1.997 . S
O48 Fe47 2.002 . S
O48 C65 1.295 . S
O49 Fe44 1.997 1_556 S
O49 C65 1.235 . S
O50 Fe44 2.002 1_556 S
O50 C51 1.295 . S
C51 O50 1.295 . S
C51 O53 1.235 . S
C52 O57 1.287 . S
C52 O58 1.255 . S
O53 Fe45 1.997 1_556 S
O53 C51 1.235 . S
C54 O60 1.287 . S
C54 O61 1.255 . S
O55 Fe44 1.976 . S
O55 C62 1.287 . S
O56 Fe45 1.996 . S
O56 C62 1.255 . S
O57 Fe47 1.976 1_554 S
O57 C52 1.287 . S
O58 Fe44 1.996 . S
O58 C52 1.255 . S
C59 O63 1.295 . S
C59 O64 1.235 . S
O60 Fe45 1.976 . S
O60 C54 1.287 . S
O61 Fe47 1.996 1_554 S
O61 C54 1.255 . S
C62 O55 1.287 . S
C62 O56 1.255 . S
O63 Fe45 2.002 1_556 S
O63 C59 1.295 . S
O64 Fe47 1.997 . S
O64 C59 1.235 . S
C65 O48 1.295 . S
C65 O49 1.235 . S
Fe66 O68 1.918 . S
Fe66 O71 1.997 . S
Fe66 O72 2.002 . S
Fe66 O77 1.976 . S
Fe66 O80 1.996 . S
Fe67 O68 1.918 . S
Fe67 O75 1.997 . S
Fe67 O78 1.996 . S
Fe67 O82 1.976 . S
Fe67 O85 2.002 . S
O68 Fe66 1.918 . S
O68 Fe67 1.918 . S
O68 Fe69 1.918 . S
Fe69 O68 1.918 . S
Fe69 O70 2.002 . S
Fe69 O79 1.976 . S
Fe69 O83 1.996 . S
Fe69 O86 1.997 . S
O70 Fe69 2.002 . S
O70 C87 1.295 . S
O71 Fe66 1.997 . S
O71 C87 1.235 . S
O72 Fe66 2.002 . S
O72 C73 1.295 . S
C73 O72 1.295 . S
C73 O75 1.235 . S
C74 O79 1.287 . S
C74 O80 1.255 . S
O75 Fe67 1.997 . S
O75 C73 1.235 . S
C76 O82 1.287 . S
C76 O83 1.255 . S
O77 Fe66 1.976 . S
O77 C84 1.287 . S
O78 Fe67 1.996 . S
O78 C84 1.255 . S
O79 Fe69 1.976 . S
O79 C74 1.287 . S
O80 Fe66 1.996 . S
O80 C74 1.255 . S
C81 O85 1.295 . S
C81 O86 1.235 . S
O82 Fe67 1.976 . S
O82 C76 1.287 . S
O83 Fe69 1.996 . S
O83 C76 1.255 . S
C84 O77 1.287 . S
C84 O78 1.255 . S
O85 Fe67 2.002 . S
O85 C81 1.295 . S
O86 Fe69 1.997 . S
O86 C81 1.235 . S
C87 O70 1.295 . S
C87 O71 1.235 . S
H88 C91 0.931 . S
H89 C94 0.928 . S
H90 C96 0.930 . S
C91 H88 0.931 . S
C91 C92 1.413 . S
C91 C93 1.360 . S
C92 C91 1.413 . S
C92 C96 1.429 . S
C93 C91 1.360 . S
C93 C94 1.372 . S
C94 H89 0.928 . S
C94 C93 1.372 . S
C94 C95 1.404 . S
C95 C94 1.404 . S
C95 C96 1.391 . S
C96 H90 0.930 . S
C96 C92 1.429 . S
C96 C95 1.391 . S
H97 C100 0.931 . S
H98 C103 0.928 . S
H99 C105 0.930 . S
C100 H97 0.931 . S
C100 C101 1.413 . S
C100 C102 1.360 . S
C101 C100 1.413 . S
C101 C105 1.429 . S
C102 C100 1.360 . S
C102 C103 1.372 . S
C103 H98 0.928 . S
C103 C102 1.372 . S
C103 C104 1.404 . S
C104 C103 1.404 . S
C104 C105 1.391 . S
C105 H99 0.930 . S
C105 C101 1.429 . S
C105 C104 1.391 . S
H106 C109 0.931 . S
H107 C112 0.928 . S
H108 C114 0.930 . S
C109 H106 0.931 . S
C109 C110 1.413 . S
C109 C111 1.360 . S
C110 C109 1.413 . S
C110 C114 1.429 . S
C111 C109 1.360 . S
C111 C112 1.372 . S
C112 H107 0.928 . S
C112 C111 1.372 . S
C112 C113 1.404 . S
C113 C112 1.404 . S
C113 C114 1.391 . S
C114 H108 0.930 . S
C114 C110 1.429 . S
C114 C113 1.391 . S
H115 C118 0.931 . S
H116 C121 0.928 . S
H117 C123 0.930 . S
C118 H115 0.931 . S
C118 C119 1.413 . S
C118 C120 1.360 . S
C119 C118 1.413 . S
C119 C123 1.429 . S
C120 C118 1.360 . S
C120 C121 1.372 . S
C121 H116 0.928 . S
C121 C120 1.372 . S
C121 C122 1.404 . S
C122 C121 1.404 . S
C122 C123 1.391 . S
C123 H117 0.930 . S
C123 C119 1.429 . S
C123 C122 1.391 . S
H124 C127 0.931 . S
H125 C130 0.928 . S
H126 C132 0.930 . S
C127 H124 0.931 . S
C127 C128 1.413 . S
C127 C129 1.360 . S
C128 C127 1.413 . S
C128 C132 1.429 . S
C129 C127 1.360 . S
C129 C130 1.372 . S
C130 H125 0.928 . S
C130 C129 1.372 . S
C130 C131 1.404 . S
C131 C130 1.404 . S
C131 C132 1.391 . S
C132 H126 0.930 . S
C132 C128 1.429 . S
C132 C131 1.391 . S
H133 C136 0.931 . S
H134 C139 0.928 . S
H135 C141 0.930 . S
C136 H133 0.931 . S
C136 C137 1.413 . S
C136 C138 1.360 . S
C137 C136 1.413 . S
C137 C141 1.429 . S
C138 C136 1.360 . S
C138 C139 1.372 . S
C139 H134 0.928 . S
C139 C138 1.372 . S
C139 C140 1.404 . S
C140 C139 1.404 . S
C140 C141 1.391 . S
C141 H135 0.930 . S
C141 C137 1.429 . S
C141 C140 1.391 . S
H142 C145 0.931 . S
H143 C148 0.928 . S
H144 C150 0.930 . S
C145 H142 0.931 . S
C145 C146 1.413 . S
C145 C147 1.360 . S
C146 C145 1.413 . S
C146 C150 1.429 . S
C147 C145 1.360 . S
C147 C148 1.372 . S
C148 H143 0.928 . S
C148 C147 1.372 . S
C148 C149 1.404 . S
C149 C148 1.404 . S
C149 C150 1.391 . S
C150 H144 0.930 . S
C150 C146 1.429 . S
C150 C149 1.391 . S
H151 C154 0.931 . S
H152 C157 0.928 . S
H153 C159 0.930 . S
C154 H151 0.931 . S
C154 C155 1.413 . S
C154 C156 1.360 . S
C155 C154 1.413 . S
C155 C159 1.429 . S
C156 C154 1.360 . S
C156 C157 1.372 . S
C157 H152 0.928 . S
C157 C156 1.372 . S
C157 C158 1.404 . S
C158 C157 1.404 . S
C158 C159 1.391 . S
C159 H153 0.930 . S
C159 C155 1.429 . S
C159 C158 1.391 . S
C160 C161 1.363 . S
C160 C166 1.379 . S
C160 N168 1.356 . S
C161 C160 1.363 . S
C161 C167 1.363 1_565 S
C162 C163 1.363 . S
C162 C167 1.379 . S
C162 N169 1.356 . S
C163 C162 1.363 . S
C163 C166 1.363 1_545 S
N164 C166 1.356 1_545 S
N164 H176 0.984 1_545 S
N164 H177 0.985 . S
N165 C167 1.356 1_565 S
N165 H170 0.984 . S
N165 H171 0.985 1_565 S
C166 C160 1.379 . S
C166 C163 1.363 1_565 S
C166 N164 1.356 1_565 S
C167 C161 1.363 1_545 S
C167 C162 1.379 . S
C167 N165 1.356 1_545 S
N168 C160 1.356 . S
N168 H174 0.984 . S
N168 H175 0.984 . S
N169 C162 1.356 . S
N169 H172 0.984 . S
N169 H173 0.985 . S
H170 N165 0.984 . S
H171 N165 0.985 1_545 S
H172 N169 0.984 . S
H173 N169 0.985 . S
H174 N168 0.984 . S
H175 N168 0.984 . S
H176 N164 0.984 1_565 S
H177 N164 0.985 . S
C178 C179 1.363 . S
C178 C184 1.379 . S
C178 N186 1.356 . S
C179 C178 1.363 . S
C179 C185 1.363 . S
C180 C181 1.363 . S
C180 C185 1.379 . S
C180 N187 1.356 . S
C181 C180 1.363 . S
C181 C184 1.363 . S
N182 C184 1.356 . S
N182 H194 0.984 . S
N182 H195 0.985 . S
N183 C185 1.356 . S
N183 H188 0.984 . S
N183 H189 0.985 . S
C184 C178 1.379 . S
C184 C181 1.363 . S
C184 N182 1.356 . S
C185 C179 1.363 . S
C185 C180 1.379 . S
C185 N183 1.356 . S
N186 C178 1.356 . S
N186 H192 0.984 . S
N186 H193 0.984 . S
N187 C180 1.356 . S
N187 H190 0.984 . S
N187 H191 0.985 . S
H188 N183 0.984 . S
H189 N183 0.985 . S
H190 N187 0.984 . S
H191 N187 0.985 . S
H192 N186 0.984 . S
H193 N186 0.984 . S
H194 N182 0.984 . S
H195 N182 0.985 . S
C196 C197 1.363 1_565 S
C196 C202 1.379 . S
C196 N204 1.356 1_565 S
C197 C196 1.363 1_545 S
C197 C203 1.367 . S
C198 C199 1.363 . S
C198 C203 1.371 1_565 S
C198 N205 1.356 . S
C199 C198 1.363 . S
C199 C202 1.363 . S
N200 C202 1.356 . S
N200 H212 0.984 . S
N200 H213 0.985 . S
N201 C203 1.362 . S
N201 H206 0.984 . S
N201 H207 0.985 . S
C202 C196 1.379 . S
C202 C199 1.363 . S
C202 N200 1.356 . S
C203 C197 1.367 . S
C203 C198 1.371 1_545 S
C203 N201 1.362 . S
N204 C196 1.356 1_545 S
N204 H210 0.984 1_554 S
N204 H211 0.984 . S
N205 C198 1.356 . S
N205 H208 0.984 . S
N205 H209 0.985 . S
H206 N201 0.984 . S
H207 N201 0.985 . S
H208 N205 0.984 . S
H209 N205 0.985 . S
H210 N204 0.984 1_556 S
H211 N204 0.984 . S
H212 N200 0.984 . S
H213 N200 0.985 . S
C214 C215 1.363 . S
C214 C220 1.379 . S
C214 N222 1.356 . S
C215 C214 1.363 . S
C215 C221 1.363 . S
C216 C217 1.363 . S
C216 C221 1.379 . S
C216 N223 1.356 . S
C217 C216 1.363 . S
C217 C220 1.363 . S
N218 C220 1.356 . S
N218 H230 0.984 . S
N218 H231 0.985 . S
N219 C221 1.356 . S
N219 H224 0.984 . S
N219 H225 0.985 . S
C220 C214 1.379 . S
C220 C217 1.363 . S
C220 N218 1.356 . S
C221 C215 1.363 . S
C221 C216 1.379 . S
C221 N219 1.356 . S
N222 C214 1.356 . S
N222 H228 0.984 . S
N222 H229 0.984 . S
N223 C216 1.356 . S
N223 H226 0.984 . S
N223 H227 0.985 . S
H224 N219 0.984 . S
H225 N219 0.985 . S
H226 N223 0.984 . S
H227 N223 0.985 . S
H228 N222 0.984 . S
H229 N222 0.984 . S
H230 N218 0.984 . S
H231 N218 0.985 . S
C232 C233 1.363 . S
C232 C238 1.379 . S
C232 N240 1.356 . S
C233 C232 1.363 . S
C233 C239 1.363 . S
C234 C235 1.363 . S
C234 C239 1.379 . S
C234 N241 1.356 . S
C235 C234 1.363 . S
C235 C238 1.363 . S
N236 C238 1.356 . S
N236 H248 0.984 . S
N236 H249 0.985 . S
N237 C239 1.356 . S
N237 H242 0.984 . S
N237 H243 0.985 . S
C238 C232 1.379 . S
C238 C235 1.363 . S
C238 N236 1.356 . S
C239 C233 1.363 . S
C239 C234 1.379 . S
C239 N237 1.356 . S
N240 C232 1.356 . S
N240 H246 0.984 . S
N240 H247 0.984 . S
N241 C234 1.356 . S
N241 H244 0.984 . S
N241 H245 0.985 . S
H242 N237 0.984 . S
H243 N237 0.985 . S
H244 N241 0.984 . S
H245 N241 0.985 . S
H246 N240 0.984 . S
H247 N240 0.984 . S
H248 N236 0.984 . S
H249 N236 0.985 . S
C250 C251 1.363 . S
C250 C256 1.379 . S
C250 N258 1.356 1_556 S
C251 C250 1.363 . S
C251 C257 1.363 . S
C252 C253 1.363 . S
C252 C257 1.379 . S
C252 N259 1.356 . S
C253 C252 1.363 . S
C253 C256 1.363 . S
N254 C256 1.356 1_554 S
N254 H266 0.984 . S
N254 H267 0.985 1_554 S
N255 C257 1.355 . S
N255 H260 0.986 1_455 S
N255 H261 0.984 . S
C256 C250 1.379 . S
C256 C253 1.363 . S
C256 N254 1.356 1_556 S
C257 C251 1.363 . S
C257 C252 1.379 . S
C257 N255 1.355 . S
N258 C250 1.356 1_554 S
N258 H264 0.984 . S
N258 H265 0.984 1_455 S
N259 C252 1.356 . S
N259 H262 0.984 . S
N259 H263 0.985 . S
H260 N255 0.986 1_655 S
H261 N255 0.984 . S
H262 N259 0.984 . S
H263 N259 0.985 . S
H264 N258 0.984 . S
H265 N258 0.984 1_655 S
H266 N254 0.984 . S
H267 N254 0.985 1_556 S
C268 C269 1.363 . S
C268 C274 1.379 . S
C268 N276 1.356 . S
C269 C268 1.363 . S
C269 C275 1.363 . S
C270 C271 1.363 . S
C270 C275 1.379 . S
C270 N277 1.356 . S
C271 C270 1.363 . S
C271 C274 1.363 . S
N272 C274 1.356 . S
N272 H284 0.984 . S
N272 H285 0.985 . S
N273 C275 1.356 . S
N273 H278 0.984 . S
N273 H279 0.985 . S
C274 C268 1.379 . S
C274 C271 1.363 . S
C274 N272 1.356 . S
C275 C269 1.363 . S
C275 C270 1.379 . S
C275 N273 1.356 . S
N276 C268 1.356 . S
N276 H282 0.984 . S
N276 H283 0.984 . S
N277 C270 1.356 . S
N277 H280 0.984 . S
N277 H281 0.985 . S
H278 N273 0.984 . S
H279 N273 0.985 . S
H280 N277 0.984 . S
H281 N277 0.985 . S
H282 N276 0.984 . S
H283 N276 0.984 . S
H284 N272 0.984 . S
H285 N272 0.985 . S
C286 C287 1.363 . S
C286 C292 1.379 1_455 S
C286 N294 1.356 . S
C287 C286 1.363 . S
C287 C293 1.363 . S
C288 C289 1.363 . S
C288 C293 1.379 . S
C288 N295 1.356 . S
C289 C288 1.363 . S
C289 C292 1.363 1_455 S
N290 C292 1.356 . S
N290 H302 0.984 . S
N290 H303 0.985 . S
N291 C293 1.356 . S
N291 H296 0.984 . S
N291 H297 0.985 . S
C292 C286 1.379 1_655 S
C292 C289 1.363 1_655 S
C292 N290 1.356 . S
C293 C287 1.363 . S
C293 C288 1.379 . S
C293 N291 1.356 . S
N294 C286 1.356 . S
N294 H300 0.984 . S
N294 H301 0.984 . S
N295 C288 1.356 . S
N295 H298 0.984 . S
N295 H299 0.985 . S
H296 N291 0.984 . S
H297 N291 0.985 . S
H298 N295 0.984 . S
H299 N295 0.985 . S
H300 N294 0.984 . S
H301 N294 0.984 . S
H302 N290 0.984 . S
H303 N290 0.985 . S
C304 C305 1.363 1_565 S
C304 C310 1.379 . S
C304 N312 1.356 . S
C305 C304 1.363 1_545 S
C305 C311 1.363 . S
C306 C307 1.363 1_545 S
C306 C311 1.379 . S
C306 N313 1.356 1_545 S
C307 C306 1.363 1_565 S
C307 C310 1.363 . S
N308 C310 1.356 . S
N308 H320 0.984 . S
N308 H321 0.985 . S
N309 C311 1.356 . S
N309 H314 0.984 . S
N309 H315 0.985 . S
C310 C304 1.379 . S
C310 C307 1.363 . S
C310 N308 1.356 . S
C311 C305 1.363 . S
C311 C306 1.379 . S
C311 N309 1.356 . S
N312 C304 1.356 . S
N312 H318 0.984 . S
N312 H319 0.984 1_565 S
N313 C306 1.356 1_565 S
N313 H316 0.993 . S
N313 H317 0.976 1_565 S
H314 N309 0.984 . S
H315 N309 0.985 . S
H316 N313 0.993 . S
H317 N313 0.976 1_545 S
H318 N312 0.984 . S
H319 N312 0.984 1_545 S
H320 N308 0.984 . S
H321 N308 0.985 . S
C322 C323 1.363 . S
C322 C328 1.379 . S
C322 N330 1.356 . S
C323 C322 1.363 . S
C323 C329 1.363 . S
C324 C325 1.363 . S
C324 C329 1.379 . S
C324 N331 1.356 . S
C325 C324 1.363 . S
C325 C328 1.363 . S
N326 C328 1.356 . S
N326 H338 0.984 . S
N326 H339 0.985 . S
N327 C329 1.356 . S
N327 H332 0.984 . S
N327 H333 0.985 . S
C328 C322 1.379 . S
C328 C325 1.363 . S
C328 N326 1.356 . S
C329 C323 1.363 . S
C329 C324 1.379 . S
C329 N327 1.356 . S
N330 C322 1.356 . S
N330 H336 0.984 . S
N330 H337 0.984 . S
N331 C324 1.356 . S
N331 H334 0.984 . S
N331 H335 0.985 . S
H332 N327 0.984 . S
H333 N327 0.985 . S
H334 N331 0.984 . S
H335 N331 0.985 . S
H336 N330 0.984 . S
H337 N330 0.984 . S
H338 N326 0.984 . S
H339 N326 0.985 . S
C340 C341 1.363 . S
C340 C346 1.379 1_565 S
C340 N348 1.356 . S
C341 C340 1.363 . S
C341 C347 1.363 1_566 S
C342 C343 1.363 1_554 S
C342 C347 1.379 . S
C342 N349 1.356 . S
C343 C342 1.363 1_556 S
C343 C346 1.363 . S
N344 C346 1.356 . S
N344 H356 0.984 . S
N344 H357 0.985 . S
N345 C347 1.356 . S
N345 H350 0.984 1_545 S
N345 H351 0.985 . S
C346 C340 1.379 1_545 S
C346 C343 1.363 . S
C346 N344 1.356 . S
C347 C341 1.363 1_544 S
C347 C342 1.379 . S
C347 N345 1.356 . S
N348 C340 1.356 . S
N348 H354 0.984 . S
N348 H355 0.984 . S
N349 C342 1.356 . S
N349 H352 0.984 . S
N349 H353 0.985 . S
H350 N345 0.984 1_565 S
H351 N345 0.985 . S
H352 N349 0.984 . S
H353 N349 0.985 . S
H354 N348 0.984 . S
H355 N348 0.984 . S
H356 N344 0.984 . S
H357 N344 0.985 . S
C358 C359 1.363 . S
C358 C364 1.379 . S
C358 N366 1.356 . S
C359 C358 1.363 . S
C359 C365 1.363 . S
C360 C361 1.363 . S
C360 C365 1.379 . S
C360 N367 1.356 . S
C361 C360 1.363 . S
C361 C364 1.363 . S
N362 C364 1.356 . S
N362 H374 0.984 . S
N362 H375 0.985 . S
N363 C365 1.356 . S
N363 H368 0.984 . S
N363 H369 0.985 . S
C364 C358 1.379 . S
C364 C361 1.363 . S
C364 N362 1.356 . S
C365 C359 1.363 . S
C365 C360 1.379 . S
C365 N363 1.356 . S
N366 C358 1.356 . S
N366 H372 0.984 . S
N366 H373 0.984 . S
N367 C360 1.356 . S
N367 H370 0.984 . S
N367 H371 0.985 . S
H368 N363 0.984 . S
H369 N363 0.985 . S
H370 N367 0.984 . S
H371 N367 0.985 . S
H372 N366 0.984 . S
H373 N366 0.984 . S
H374 N362 0.984 . S
H375 N362 0.985 . S
C376 C377 1.363 . S
C376 C382 1.379 . S
C376 N384 1.356 . S
C377 C376 1.363 . S
C377 C383 1.363 . S
C378 C379 1.363 . S
C378 C383 1.379 . S
C378 N385 1.356 . S
C379 C378 1.363 . S
C379 C382 1.363 . S
N380 C382 1.356 . S
N380 H392 0.984 . S
N380 H393 0.985 . S
N381 C383 1.356 . S
N381 H386 0.984 . S
N381 H387 0.985 . S
C382 C376 1.379 . S
C382 C379 1.363 . S
C382 N380 1.356 . S
C383 C377 1.363 . S
C383 C378 1.379 . S
C383 N381 1.356 . S
N384 C376 1.356 . S
N384 H390 0.984 . S
N384 H391 0.984 . S
N385 C378 1.356 . S
N385 H388 0.984 . S
N385 H389 0.985 . S
H386 N381 0.984 . S
H387 N381 0.985 . S
H388 N385 0.984 . S
H389 N385 0.985 . S
H390 N384 0.984 . S
H391 N384 0.984 . S
H392 N380 0.984 . S
H393 N380 0.985 . S
C394 C395 1.363 . S
C394 C400 1.379 . S
C394 N402 1.341 1_655 S
C395 C394 1.363 . S
C395 C401 1.363 . S
C396 C397 1.363 . S
C396 C401 1.379 . S
C396 N403 1.356 . S
C397 C396 1.363 . S
C397 C400 1.363 . S
N398 C400 1.356 . S
N398 H410 0.984 . S
N398 H411 0.985 . S
N399 C401 1.356 . S
N399 H404 0.984 1_655 S
N399 H405 0.985 . S
C400 C394 1.379 . S
C400 C397 1.363 . S
C400 N398 1.356 . S
C401 C395 1.363 . S
C401 C396 1.379 . S
C401 N399 1.356 . S
N402 C394 1.341 1_455 S
N402 H408 0.981 1_455 S
N402 H409 1.004 . S
N403 C396 1.356 . S
N403 H406 0.984 . S
N403 H407 0.985 . S
H404 N399 0.984 1_455 S
H405 N399 0.985 . S
H406 N403 0.984 . S
H407 N403 0.985 . S
H408 N402 0.981 1_655 S
H409 N402 1.004 . S
H410 N398 0.984 . S
H411 N398 0.985 . S
C412 C413 1.363 . S
C412 C418 1.379 . S
C412 N420 1.356 . S
C413 C412 1.363 . S
C413 C419 1.363 . S
C414 C415 1.363 . S
C414 C419 1.379 . S
C414 N421 1.356 . S
C415 C414 1.363 . S
C415 C418 1.363 . S
N416 C418 1.356 . S
N416 H428 0.984 . S
N416 H429 0.985 . S
N417 C419 1.356 . S
N417 H422 0.984 . S
N417 H423 0.985 . S
C418 C412 1.379 . S
C418 C415 1.363 . S
C418 N416 1.356 . S
C419 C413 1.363 . S
C419 C414 1.379 . S
C419 N417 1.356 . S
N420 C412 1.356 . S
N420 H426 0.984 . S
N420 H427 0.984 . S
N421 C414 1.356 . S
N421 H424 0.984 . S
N421 H425 0.985 . S
H422 N417 0.984 . S
H423 N417 0.985 . S
H424 N421 0.984 . S
H425 N421 0.985 . S
H426 N420 0.984 . S
H427 N420 0.984 . S
H428 N416 0.984 . S
H429 N416 0.985 . S
C430 C431 1.363 . S
C430 C436 1.379 . S
C430 N438 1.356 . S
C431 C430 1.363 . S
C431 C437 1.363 . S
C432 C433 1.363 . S
C432 C437 1.379 . S
C432 N439 1.356 . S
C433 C432 1.363 . S
C433 C436 1.363 . S
N434 C436 1.356 1_455 S
N434 H446 0.984 . S
N434 H447 0.985 . S
N435 C437 1.356 . S
N435 H440 0.984 . S
N435 H441 0.985 . S
C436 C430 1.379 . S
C436 C433 1.363 . S
C436 N434 1.356 1_655 S
C437 C431 1.363 . S
C437 C432 1.379 . S
C437 N435 1.356 . S
N438 C430 1.356 . S
N438 H444 0.984 . S
N438 H445 0.984 . S
N439 C432 1.356 . S
N439 H442 0.984 . S
N439 H443 0.985 . S
H440 N435 0.984 . S
H441 N435 0.985 . S
H442 N439 0.984 . S
H443 N439 0.985 . S
H444 N438 0.984 . S
H445 N438 0.984 . S
H446 N434 0.984 . S
H447 N434 0.985 . S
C448 C449 1.363 . S
C448 C454 1.379 . S
C448 N456 1.356 . S
C449 C448 1.363 . S
C449 C455 1.363 . S
C450 C451 1.363 . S
C450 C455 1.379 . S
C450 N457 1.356 . S
C451 C450 1.363 . S
C451 C454 1.363 . S
N452 C454 1.356 . S
N452 H464 0.984 . S
N452 H465 0.985 . S
N453 C455 1.356 . S
N453 H458 0.984 . S
N453 H459 0.985 . S
C454 C448 1.379 . S
C454 C451 1.363 . S
C454 N452 1.356 . S
C455 C449 1.363 . S
C455 C450 1.379 . S
C455 N453 1.356 . S
N456 C448 1.356 . S
N456 H462 0.984 . S
N456 H463 0.984 . S
N457 C450 1.356 . S
N457 H460 0.984 . S
N457 H461 0.985 . S
H458 N453 0.984 . S
H459 N453 0.985 . S
H460 N457 0.984 . S
H461 N457 0.985 . S
H462 N456 0.984 . S
H463 N456 0.984 . S
H464 N452 0.984 . S
H465 N452 0.985 . S
C466 C467 1.363 . S
C466 C472 1.379 . S
C466 N474 1.356 . S
C467 C466 1.363 . S
C467 C473 1.363 . S
C468 C469 1.363 . S
C468 C473 1.379 . S
C468 N475 1.356 . S
C469 C468 1.363 . S
C469 C472 1.363 . S
N470 C472 1.356 . S
N470 H482 0.984 . S
N470 H483 0.985 . S
N471 C473 1.356 . S
N471 H476 0.984 . S
N471 H477 0.985 . S
C472 C466 1.379 . S
C472 C469 1.363 . S
C472 N470 1.356 . S
C473 C467 1.363 . S
C473 C468 1.379 . S
C473 N471 1.356 . S
N474 C466 1.356 . S
N474 H480 0.984 . S
N474 H481 0.984 . S
N475 C468 1.356 . S
N475 H478 0.984 . S
N475 H479 0.985 . S
H476 N471 0.984 . S
H477 N471 0.985 . S
H478 N475 0.984 . S
H479 N475 0.985 . S
H480 N474 0.984 . S
H481 N474 0.984 . S
H482 N470 0.984 . S
H483 N470 0.985 . S
C484 C485 1.363 . S
C484 C490 1.379 . S
C484 N492 1.356 . S
C485 C484 1.363 . S
C485 C491 1.363 . S
C486 C487 1.363 . S
C486 C491 1.379 . S
C486 N493 1.356 . S
C487 C486 1.363 . S
C487 C490 1.363 . S
N488 C490 1.356 . S
N488 H500 0.984 . S
N488 H501 0.985 . S
N489 C491 1.356 . S
N489 H494 0.984 . S
N489 H495 0.985 1_554 S
C490 C484 1.379 . S
C490 C487 1.363 . S
C490 N488 1.356 . S
C491 C485 1.363 . S
C491 C486 1.379 . S
C491 N489 1.356 . S
N492 C484 1.356 . S
N492 H498 0.984 . S
N492 H499 0.984 . S
N493 C486 1.356 . S
N493 H496 0.984 . S
N493 H497 0.985 . S
H494 N489 0.984 . S
H495 N489 0.985 1_556 S
H496 N493 0.984 . S
H497 N493 0.985 . S
H498 N492 0.984 . S
H499 N492 0.984 . S
H500 N488 0.984 . S
H501 N488 0.985 . S
C502 C503 1.363 . S
C502 C508 1.379 . S
C502 N510 1.356 . S
C503 C502 1.363 . S
C503 C509 1.363 . S
C504 C505 1.363 . S
C504 C509 1.379 . S
C504 N511 1.356 . S
C505 C504 1.363 . S
C505 C508 1.363 . S
N506 C508 1.356 . S
N506 H518 0.984 . S
N506 H519 0.985 . S
N507 C509 1.356 . S
N507 H512 0.984 . S
N507 H513 0.985 . S
C508 C502 1.379 . S
C508 C505 1.363 . S
C508 N506 1.356 . S
C509 C503 1.363 . S
C509 C504 1.379 . S
C509 N507 1.356 . S
N510 C502 1.356 . S
N510 H516 0.984 . S
N510 H517 0.984 . S
N511 C504 1.356 . S
N511 H514 0.984 . S
N511 H515 0.985 . S
H512 N507 0.984 . S
H513 N507 0.985 . S
H514 N511 0.984 . S
H515 N511 0.985 . S
H516 N510 0.984 . S
H517 N510 0.984 . S
H518 N506 0.984 . S
H519 N506 0.985 . S
C520 C521 1.363 . S
C520 C526 1.379 . S
C520 N528 1.356 . S
C521 C520 1.363 . S
C521 C527 1.363 . S
C522 C523 1.363 . S
C522 C527 1.379 . S
C522 N529 1.356 . S
C523 C522 1.363 . S
C523 C526 1.363 . S
N524 C526 1.356 . S
N524 H536 0.984 . S
N524 H537 0.985 . S
N525 C527 1.356 . S
N525 H530 0.984 . S
N525 H531 0.985 . S
C526 C520 1.379 . S
C526 C523 1.363 . S
C526 N524 1.356 . S
C527 C521 1.363 . S
C527 C522 1.379 . S
C527 N525 1.356 . S
N528 C520 1.356 . S
N528 H534 0.984 . S
N528 H535 0.984 . S
N529 C522 1.356 . S
N529 H532 0.984 . S
N529 H533 0.985 . S
H530 N525 0.984 . S
H531 N525 0.985 . S
H532 N529 0.984 . S
H533 N529 0.985 . S
H534 N528 0.984 . S
H535 N528 0.984 . S
H536 N524 0.984 . S
H537 N524 0.985 . S
C538 C539 1.363 . S
C538 C544 1.379 . S
C538 N546 1.356 . S
C539 C538 1.363 . S
C539 C545 1.363 . S
C540 C541 1.363 . S
C540 C545 1.379 . S
C540 N547 1.356 . S
C541 C540 1.363 . S
C541 C544 1.363 . S
N542 C544 1.356 . S
N542 H554 0.984 . S
N542 H555 0.985 . S
N543 C545 1.356 . S
N543 H548 0.984 . S
N543 H549 0.985 . S
C544 C538 1.379 . S
C544 C541 1.363 . S
C544 N542 1.356 . S
C545 C539 1.363 . S
C545 C540 1.379 . S
C545 N543 1.356 . S
N546 C538 1.356 . S
N546 H552 0.984 . S
N546 H553 0.984 . S
N547 C540 1.356 . S
N547 H550 0.984 . S
N547 H551 0.985 . S
H548 N543 0.984 . S
H549 N543 0.985 . S
H550 N547 0.984 . S
H551 N547 0.985 . S
H552 N546 0.984 . S
H553 N546 0.984 . S
H554 N542 0.984 . S
H555 N542 0.985 . S
C556 C557 1.363 . S
C556 C562 1.379 . S
C556 N564 1.356 . S
C557 C556 1.363 . S
C557 C563 1.363 . S
C558 C559 1.363 . S
C558 C563 1.379 . S
C558 N565 1.356 . S
C559 C558 1.363 . S
C559 C562 1.363 . S
N560 C562 1.356 . S
N560 H572 0.984 . S
N560 H573 0.985 . S
N561 C563 1.356 . S
N561 H566 0.984 . S
N561 H567 0.985 . S
C562 C556 1.379 . S
C562 C559 1.363 . S
C562 N560 1.356 . S
C563 C557 1.363 . S
C563 C558 1.379 . S
C563 N561 1.356 . S
N564 C556 1.356 . S
N564 H570 0.984 . S
N564 H571 0.984 . S
N565 C558 1.356 . S
N565 H568 0.984 . S
N565 H569 0.985 . S
H566 N561 0.984 . S
H567 N561 0.985 . S
H568 N565 0.984 . S
H569 N565 0.985 . S
H570 N564 0.984 . S
H571 N564 0.984 . S
H572 N560 0.984 . S
H573 N560 0.985 . S
C574 C575 1.363 . S
C574 C580 1.379 . S
C574 N582 1.356 . S
C575 C574 1.363 . S
C575 C581 1.363 . S
C576 C577 1.363 . S
C576 C581 1.379 . S
C576 N583 1.356 . S
C577 C576 1.363 . S
C577 C580 1.363 . S
N578 C580 1.356 . S
N578 H590 0.984 . S
N578 H591 0.985 . S
N579 C581 1.356 1_554 S
N579 H584 0.984 . S
N579 H585 0.985 . S
C580 C574 1.379 . S
C580 C577 1.363 . S
C580 N578 1.356 . S
C581 C575 1.363 . S
C581 C576 1.379 . S
C581 N579 1.356 1_556 S
N582 C574 1.356 . S
N582 H588 0.984 . S
N582 H589 0.984 . S
N583 C576 1.356 . S
N583 H586 0.984 . S
N583 H587 0.985 . S
H584 N579 0.984 . S
H585 N579 0.985 . S
H586 N583 0.984 . S
H587 N583 0.985 . S
H588 N582 0.984 . S
H589 N582 0.984 . S
H590 N578 0.984 . S
H591 N578 0.985 . S
C161 C7 1.461 . S
C163 C93 1.446 . S
C179 C37 1.377 . S
C181 C101 1.352 . S
C197 C54 1.446 . S
C199 C110 1.405 . S
C217 C120 1.455 . S
C215 C87 1.438 . S
C235 C129 1.415 . S
C233 C30 1.435 . S
C251 C51 1.447 1_455 S
C253 C138 1.461 . S
C269 C84 1.471 . S
C271 C146 1.425 . S
C287 C10 1.357 . S
C289 C156 1.332 1_455 S
C305 C59 1.463 . S
C307 C155 1.457 . S
C325 C128 1.320 . S
C323 C74 1.343 . S
C343 C137 1.428 . S
C341 C18 1.470 1_556 S
C359 C32 1.429 . S
C361 C147 1.437 . S
C379 C102 1.450 . S
C377 C73 1.464 . S
C395 C15 1.431 1_655 S
C397 C111 1.457 . S
C415 C119 1.451 . S
C413 C43 1.475 . S
C433 C92 1.329 1_655 S
C431 C62 1.349 . S
C451 C149 1.453 . S
C449 C21 1.500 . S
C469 C158 1.353 . S
C467 C29 1.361 . S
C485 C52 1.343 . S
C487 C131 1.324 . S
C505 C140 1.439 . S
C503 C81 1.485 . S
C523 C113 1.439 . S
C521 C40 1.473 . S
C539 C65 1.475 . S
C541 C122 1.430 . S
C559 C95 1.329 . S
C557 C76 1.348 . S
C577 C104 1.347 . S
C575 C8 1.371 1_556 S
