# Generated by pormake.
# Topology ptr, (4,4)-cn, num edge types: 1
# Building blocks:
#     Node 0, Type 0, BuildingBlock: AZAVOO_clean_sbu_0, # of connection points: 4
#     Node 1, Type 0, BuildingBlock: AZAVOO_clean_sbu_0, # of connection points: 4
#     Node 2, Type 0, BuildingBlock: AZAVOO_clean_sbu_0, # of connection points: 4
#     Node 3, Type 0, BuildingBlock: AZAVOO_clean_sbu_0, # of connection points: 4
#     Node 4, Type 0, BuildingBlock: AZAVOO_clean_sbu_0, # of connection points: 4
#     Node 5, Type 0, BuildingBlock: AZAVOO_clean_sbu_0, # of connection points: 4
#     Node 6, Type 0, BuildingBlock: AZAVOO_clean_sbu_0, # of connection points: 4
#     Node 7, Type 0, BuildingBlock: AZAVOO_clean_sbu_0, # of connection points: 4
#     Node 8, Type 0, BuildingBlock: AZAVOO_clean_sbu_0, # of connection points: 4
#     Node 9, Type 0, BuildingBlock: AZAVOO_clean_sbu_0, # of connection points: 4
#     Node 10, Type 0, BuildingBlock: AZAVOO_clean_sbu_0, # of connection points: 4
#     Node 11, Type 0, BuildingBlock: AZAVOO_clean_sbu_0, # of connection points: 4
#     Node 12, Type 0, BuildingBlock: AZAVOO_clean_sbu_0, # of connection points: 4
#     Node 13, Type 0, BuildingBlock: AZAVOO_clean_sbu_0, # of connection points: 4
#     Node 14, Type 0, BuildingBlock: AZAVOO_clean_sbu_0, # of connection points: 4
#     Node 15, Type 0, BuildingBlock: AZAVOO_clean_sbu_0, # of connection points: 4
#     Node 16, Type 0, BuildingBlock: AZAVOO_clean_sbu_0, # of connection points: 4
#     Node 17, Type 0, BuildingBlock: AZAVOO_clean_sbu_0, # of connection points: 4
#     Node 18, Type 1, BuildingBlock: MIFKUJ_clean_linker_1, # of connection points: 4
#     Node 19, Type 1, BuildingBlock: MIFKUJ_clean_linker_1, # of connection points: 4
#     Node 20, Type 1, BuildingBlock: MIFKUJ_clean_linker_1, # of connection points: 4
#     Node 21, Type 1, BuildingBlock: MIFKUJ_clean_linker_1, # of connection points: 4
#     Node 22, Type 1, BuildingBlock: MIFKUJ_clean_linker_1, # of connection points: 4
#     Node 23, Type 1, BuildingBlock: MIFKUJ_clean_linker_1, # of connection points: 4
#     Node 24, Type 1, BuildingBlock: MIFKUJ_clean_linker_1, # of connection points: 4
#     Node 25, Type 1, BuildingBlock: MIFKUJ_clean_linker_1, # of connection points: 4
#     Node 26, Type 1, BuildingBlock: MIFKUJ_clean_linker_1, # of connection points: 4
#     Node 27, Type 1, BuildingBlock: MIFKUJ_clean_linker_1, # of connection points: 4
#     Node 28, Type 1, BuildingBlock: MIFKUJ_clean_linker_1, # of connection points: 4
#     Node 29, Type 1, BuildingBlock: MIFKUJ_clean_linker_1, # of connection points: 4
#     Node 30, Type 1, BuildingBlock: MIFKUJ_clean_linker_1, # of connection points: 4
#     Node 31, Type 1, BuildingBlock: MIFKUJ_clean_linker_1, # of connection points: 4
#     Node 32, Type 1, BuildingBlock: MIFKUJ_clean_linker_1, # of connection points: 4
#     Node 33, Type 1, BuildingBlock: MIFKUJ_clean_linker_1, # of connection points: 4
#     Node 34, Type 1, BuildingBlock: MIFKUJ_clean_linker_1, # of connection points: 4
#     Node 35, Type 1, BuildingBlock: MIFKUJ_clean_linker_1, # of connection points: 4
#     Edge 36, Type (0, 1), BuildingBlock: CIFDUS_clean_linker_0, # of connection points: 2
#     Edge 37, Type (0, 1), BuildingBlock: CIFDUS_clean_linker_0, # of connection points: 2
#     Edge 38, Type (0, 1), BuildingBlock: CIFDUS_clean_linker_0, # of connection points: 2
#     Edge 39, Type (0, 1), BuildingBlock: CIFDUS_clean_linker_0, # of connection points: 2
#     Edge 40, Type (0, 1), BuildingBlock: CIFDUS_clean_linker_0, # of connection points: 2
#     Edge 41, Type (0, 1), BuildingBlock: CIFDUS_clean_linker_0, # of connection points: 2
#     Edge 42, Type (0, 1), BuildingBlock: CIFDUS_clean_linker_0, # of connection points: 2
#     Edge 43, Type (0, 1), BuildingBlock: CIFDUS_clean_linker_0, # of connection points: 2
#     Edge 44, Type (0, 1), BuildingBlock: CIFDUS_clean_linker_0, # of connection points: 2
#     Edge 45, Type (0, 1), BuildingBlock: CIFDUS_clean_linker_0, # of connection points: 2
#     Edge 46, Type (0, 1), BuildingBlock: CIFDUS_clean_linker_0, # of connection points: 2
#     Edge 47, Type (0, 1), BuildingBlock: CIFDUS_clean_linker_0, # of connection points: 2
#     Edge 48, Type (0, 1), BuildingBlock: CIFDUS_clean_linker_0, # of connection points: 2
#     Edge 49, Type (0, 1), BuildingBlock: CIFDUS_clean_linker_0, # of connection points: 2
#     Edge 50, Type (0, 1), BuildingBlock: CIFDUS_clean_linker_0, # of connection points: 2
#     Edge 51, Type (0, 1), BuildingBlock: CIFDUS_clean_linker_0, # of connection points: 2
#     Edge 52, Type (0, 1), BuildingBlock: CIFDUS_clean_linker_0, # of connection points: 2
#     Edge 53, Type (0, 1), BuildingBlock: CIFDUS_clean_linker_0, # of connection points: 2
#     Edge 54, Type (0, 1), BuildingBlock: CIFDUS_clean_linker_0, # of connection points: 2
#     Edge 55, Type (0, 1), BuildingBlock: CIFDUS_clean_linker_0, # of connection points: 2
#     Edge 56, Type (0, 1), BuildingBlock: CIFDUS_clean_linker_0, # of connection points: 2
#     Edge 57, Type (0, 1), BuildingBlock: CIFDUS_clean_linker_0, # of connection points: 2
#     Edge 58, Type (0, 1), BuildingBlock: CIFDUS_clean_linker_0, # of connection points: 2
#     Edge 59, Type (0, 1), BuildingBlock: CIFDUS_clean_linker_0, # of connection points: 2
#     Edge 60, Type (0, 1), BuildingBlock: CIFDUS_clean_linker_0, # of connection points: 2
#     Edge 61, Type (0, 1), BuildingBlock: CIFDUS_clean_linker_0, # of connection points: 2
#     Edge 62, Type (0, 1), BuildingBlock: CIFDUS_clean_linker_0, # of connection points: 2
#     Edge 63, Type (0, 1), BuildingBlock: CIFDUS_clean_linker_0, # of connection points: 2
#     Edge 64, Type (0, 1), BuildingBlock: CIFDUS_clean_linker_0, # of connection points: 2
#     Edge 65, Type (0, 1), BuildingBlock: CIFDUS_clean_linker_0, # of connection points: 2
#     Edge 66, Type (0, 1), BuildingBlock: CIFDUS_clean_linker_0, # of connection points: 2
#     Edge 67, Type (0, 1), BuildingBlock: CIFDUS_clean_linker_0, # of connection points: 2
#     Edge 68, Type (0, 1), BuildingBlock: CIFDUS_clean_linker_0, # of connection points: 2
#     Edge 69, Type (0, 1), BuildingBlock: CIFDUS_clean_linker_0, # of connection points: 2
#     Edge 70, Type (0, 1), BuildingBlock: CIFDUS_clean_linker_0, # of connection points: 2
#     Edge 71, Type (0, 1), BuildingBlock: CIFDUS_clean_linker_0, # of connection points: 2
#     Edge 72, Type (0, 1), BuildingBlock: CIFDUS_clean_linker_0, # of connection points: 2
#     Edge 73, Type (0, 1), BuildingBlock: CIFDUS_clean_linker_0, # of connection points: 2
#     Edge 74, Type (0, 1), BuildingBlock: CIFDUS_clean_linker_0, # of connection points: 2
#     Edge 75, Type (0, 1), BuildingBlock: CIFDUS_clean_linker_0, # of connection points: 2
#     Edge 76, Type (0, 1), BuildingBlock: CIFDUS_clean_linker_0, # of connection points: 2
#     Edge 77, Type (0, 1), BuildingBlock: CIFDUS_clean_linker_0, # of connection points: 2
#     Edge 78, Type (0, 1), BuildingBlock: CIFDUS_clean_linker_0, # of connection points: 2
#     Edge 79, Type (0, 1), BuildingBlock: CIFDUS_clean_linker_0, # of connection points: 2
#     Edge 80, Type (0, 1), BuildingBlock: CIFDUS_clean_linker_0, # of connection points: 2
#     Edge 81, Type (0, 1), BuildingBlock: CIFDUS_clean_linker_0, # of connection points: 2
#     Edge 82, Type (0, 1), BuildingBlock: CIFDUS_clean_linker_0, # of connection points: 2
#     Edge 83, Type (0, 1), BuildingBlock: CIFDUS_clean_linker_0, # of connection points: 2
#     Edge 84, Type (0, 1), BuildingBlock: CIFDUS_clean_linker_0, # of connection points: 2
#     Edge 85, Type (0, 1), BuildingBlock: CIFDUS_clean_linker_0, # of connection points: 2
#     Edge 86, Type (0, 1), BuildingBlock: CIFDUS_clean_linker_0, # of connection points: 2
#     Edge 87, Type (0, 1), BuildingBlock: CIFDUS_clean_linker_0, # of connection points: 2
#     Edge 88, Type (0, 1), BuildingBlock: CIFDUS_clean_linker_0, # of connection points: 2
#     Edge 89, Type (0, 1), BuildingBlock: CIFDUS_clean_linker_0, # of connection points: 2
#     Edge 90, Type (0, 1), BuildingBlock: CIFDUS_clean_linker_0, # of connection points: 2
#     Edge 91, Type (0, 1), BuildingBlock: CIFDUS_clean_linker_0, # of connection points: 2
#     Edge 92, Type (0, 1), BuildingBlock: CIFDUS_clean_linker_0, # of connection points: 2
#     Edge 93, Type (0, 1), BuildingBlock: CIFDUS_clean_linker_0, # of connection points: 2
#     Edge 94, Type (0, 1), BuildingBlock: CIFDUS_clean_linker_0, # of connection points: 2
#     Edge 95, Type (0, 1), BuildingBlock: CIFDUS_clean_linker_0, # of connection points: 2
#     Edge 96, Type (0, 1), BuildingBlock: CIFDUS_clean_linker_0, # of connection points: 2
#     Edge 97, Type (0, 1), BuildingBlock: CIFDUS_clean_linker_0, # of connection points: 2
#     Edge 98, Type (0, 1), BuildingBlock: CIFDUS_clean_linker_0, # of connection points: 2
#     Edge 99, Type (0, 1), BuildingBlock: CIFDUS_clean_linker_0, # of connection points: 2
#     Edge 100, Type (0, 1), BuildingBlock: CIFDUS_clean_linker_0, # of connection points: 2
#     Edge 101, Type (0, 1), BuildingBlock: CIFDUS_clean_linker_0, # of connection points: 2
#     Edge 102, Type (0, 1), BuildingBlock: CIFDUS_clean_linker_0, # of connection points: 2
#     Edge 103, Type (0, 1), BuildingBlock: CIFDUS_clean_linker_0, # of connection points: 2
#     Edge 104, Type (0, 1), BuildingBlock: CIFDUS_clean_linker_0, # of connection points: 2
#     Edge 105, Type (0, 1), BuildingBlock: CIFDUS_clean_linker_0, # of connection points: 2
#     Edge 106, Type (0, 1), BuildingBlock: CIFDUS_clean_linker_0, # of connection points: 2
#     Edge 107, Type (0, 1), BuildingBlock: CIFDUS_clean_linker_0, # of connection points: 2
# Relax obj value: 0.079
# Max RMSD: 0.279
# Mean RMSD: 0.121
data_MOF--net-ptr--node1-AZAVOO_clean_sbu_0--node2-MIFKUJ_clean_linker_1--edge1-CIFDUS_clean_linker_0
_symmetry_space_group_name_H-M    P1
_symmetry_Int_Tables_number       1
_symmetry_cell_setting            triclinic
loop_
_symmetry_equiv_pos_as_xyz
'x, y, z'
_cell_length_a     81.570944
_cell_length_b     80.27137
_cell_length_c     53.27796
_cell_angle_alpha  91.262065
_cell_angle_beta   91.068782
_cell_angle_gamma 120.0136
loop_
_atom_site_label
_atom_site_type_symbol
_atom_site_fract_x
_atom_site_fract_y
_atom_site_fract_z
_atom_type_partial_charge
Mg0 Mg 0.00958 0.34143 0.99332 0.0
O1 O 0.99573 0.35032 0.02479 0.0
O2 O 0.97055 0.34986 0.00644 0.0
Mg3 Mg 0.96889 0.34275 0.96457 0.0
C4 C 0.9812 0.35247 0.02573 0.0
C5 C 0.02792 0.31972 0.01845 0.0
O6 O 0.01819 0.30783 0.99954 0.0
O7 O 0.98536 0.31002 0.99183 0.0
O8 O 0.96183 0.31198 0.9725 0.0
O9 O 0.02801 0.37248 0.98432 0.0
O10 O -0.00054 0.35328 0.96733 0.0
C11 C 0.96855 0.3022 0.98235 0.0
C12 C 0.01399 0.37028 0.97005 0.0
O13 O 0.02715 0.33506 0.02172 0.0
Mg14 Mg 0.65986 0.65043 0.0403 0.0
O15 O 0.63661 0.63933 0.0092 0.0
O16 O 0.61121 0.6392 0.02436 0.0
Mg17 Mg 0.61775 0.64863 0.06596 0.0
C18 C 0.61975 0.63629 0.00646 0.0
C19 C 0.69722 0.67044 0.01017 0.0
O20 O 0.70141 0.68432 0.02701 0.0
O21 O 0.66561 0.6812 0.03812 0.0
O22 O 0.64004 0.67934 0.05568 0.0
O23 O 0.64895 0.62043 0.05219 0.0
O24 O 0.63965 0.64004 0.06769 0.0
C25 C 0.65616 0.68895 0.04577 0.0
C26 C 0.63813 0.62327 0.06707 0.0
O27 O 0.68133 0.655 0.01077 0.0
Mg28 Mg 0.33717 0.97408 0.98398 0.0
O29 O 0.36339 0.99053 0.01038 0.0
O30 O 0.38837 0.00737 0.98676 0.0
Mg31 Mg 0.37803 0.00239 0.94553 0.0
C32 C 0.38113 0.00191 0.00818 0.0
C33 C 0.31908 0.95904 0.03647 0.0
O34 O 0.33241 0.95445 0.03841 0.0
O35 O 0.33579 0.00125 0.97707 0.0
O36 O 0.36046 0.01701 0.95245 0.0
O37 O 0.34395 0.95019 0.97995 0.0
O38 O 0.35364 0.97466 0.95473 0.0
C39 C 0.34613 0.01559 0.9637 0.0
C40 C 0.35373 0.95936 0.96095 0.0
O41 O 0.31794 0.96727 0.01698 0.0
Mg42 Mg 0.98653 0.65804 0.03491 0.0
O43 O 0.9971 0.64545 0.00409 0.0
O44 O 0.01838 0.63922 0.022 0.0
Mg45 Mg 0.02148 0.64761 0.0638 0.0
C46 C 0.00877 0.63924 0.00283 0.0
C47 C 0.95925 0.6546 0.99082 0.0
O48 O 0.95514 0.63662 0.99252 0.0
O49 O 0.01422 0.68726 0.03566 0.0
O50 O 0.03392 0.67934 0.05464 0.0
O51 O 0.96443 0.62787 0.04353 0.0
O52 O 0.99281 0.64358 0.06217 0.0
C53 C 0.03058 0.69178 0.04486 0.0
C54 C 0.97689 0.62785 0.05892 0.0
O55 O 0.97231 0.6674 0.00521 0.0
Mg56 Mg 0.34842 0.3519 0.98483 0.0
O57 O 0.37256 0.36312 0.01488 0.0
O58 O 0.39944 0.37103 0.99557 0.0
Mg59 Mg 0.39271 0.36528 0.95339 0.0
C60 C 0.3904 0.3695 0.0155 0.0
C61 C 0.31021 0.32692 0.01238 0.0
O62 O 0.30506 0.31735 0.99065 0.0
O63 O 0.34826 0.32338 0.98025 0.0
O64 O 0.37493 0.33298 0.95952 0.0
O65 O 0.35374 0.38174 0.97938 0.0
O66 O 0.36774 0.36856 0.95829 0.0
C67 C 0.35995 0.31977 0.96913 0.0
C68 C 0.36607 0.38342 0.96321 0.0
O69 O 0.327 0.34093 0.01564 0.0
Mg70 Mg 0.65217 0.006 0.03833 0.0
O71 O 0.62741 0.99136 0.00952 0.0
O72 O 0.6016 0.97003 0.02891 0.0
Mg73 Mg 0.6099 0.97121 0.07042 0.0
C74 C 0.60989 0.97855 0.00915 0.0
C75 C 0.6871 0.0166 0.00451 0.0
O76 O 0.6908 0.00724 0.02154 0.0
O77 O 0.655 0.9792 0.03964 0.0
O78 O 0.62925 0.95913 0.06038 0.0
O79 O 0.64363 0.02794 0.04707 0.0
O80 O 0.63365 0.00078 0.06697 0.0
C81 C 0.64454 0.96303 0.04953 0.0
C82 C 0.63299 0.01627 0.0638 0.0
O83 O 0.67243 0.01819 0.00634 0.0
Mg84 Mg 0.69006 0.6821 0.32616 0.0
O85 O 0.67478 0.6928 0.35304 0.0
O86 O 0.65478 0.69691 0.3281 0.0
Mg87 Mg 0.65697 0.68982 0.28712 0.0
C88 C 0.66206 0.69755 0.3498 0.0
C89 C 0.71567 0.68516 0.37269 0.0
O90 O 0.72125 0.70344 0.36991 0.0
O91 O 0.66345 0.65197 0.32163 0.0
O92 O 0.64537 0.65832 0.29618 0.0
O93 O 0.7125 0.71281 0.31955 0.0
O94 O 0.68584 0.69671 0.29709 0.0
C95 C 0.64826 0.64647 0.30837 0.0
C96 C 0.70121 0.7127 0.30211 0.0
O97 O 0.70218 0.67263 0.35854 0.0
Mg98 Mg 0.31397 0.98749 0.37559 0.0
O99 O 0.29183 0.9757 0.34308 0.0
O100 O 0.26464 0.97211 0.35721 0.0
Mg101 Mg 0.26884 0.97931 0.39951 0.0
C102 C 0.27454 0.97113 0.33958 0.0
C103 C 0.3488 0.99026 0.35034 0.0
O104 O 0.3474 0.98004 0.36996 0.0
O105 O 0.31652 0.01711 0.37536 0.0
O106 O 0.28951 0.0111 0.39288 0.0
O107 O 0.30599 0.95752 0.38526 0.0
O108 O 0.29249 0.97336 0.40072 0.0
C109 C 0.3056 0.02278 0.38411 0.0
C110 C 0.29309 0.95765 0.39891 0.0
O111 O 0.33712 0.99619 0.34738 0.0
Mg112 Mg 0.01226 0.32215 0.31717 0.0
O113 O 0.03387 0.33459 0.35025 0.0
O114 O 0.06197 0.35524 0.33501 0.0
Mg115 Mg 0.0584 0.35529 0.2923 0.0
C116 C 0.05153 0.34667 0.35337 0.0
C117 C 0.97176 0.30062 0.33328 0.0
O118 O 0.97056 0.29804 0.30872 0.0
O119 O 0.0119 0.35009 0.31372 0.0
O120 O 0.0399 0.36922 0.29688 0.0
O121 O 0.01903 0.2986 0.31154 0.0
O122 O 0.03311 0.32639 0.29249 0.0
C123 C 0.02395 0.36613 0.30479 0.0
C124 C 0.03169 0.30997 0.29631 0.0
O125 O 0.98802 0.31068 0.34391 0.0
Mg126 Mg 0.65512 0.98247 0.3625 0.0
O127 O 0.67021 0.97336 0.33336 0.0
O128 O 0.69226 0.97033 0.35527 0.0
Mg129 Mg 0.6905 0.97558 0.3971 0.0
C130 C 0.68385 0.96978 0.33454 0.0
C131 C 0.6246 0.98786 0.33789 0.0
O132 O 0.61818 0.98033 0.35971 0.0
O133 O 0.68103 0.01303 0.36696 0.0
O134 O 0.70061 0.00714 0.38998 0.0
O135 O 0.63374 0.95148 0.36825 0.0
O136 O 0.66093 0.96768 0.38969 0.0
C137 C 0.69671 0.01883 0.37917 0.0
C138 C 0.64566 0.95155 0.38468 0.0
O139 O 0.64103 0.99129 0.33208 0.0
Mg140 Mg 0.01255 0.68629 0.31021 0.0
O141 O 0.03811 0.69785 0.33794 0.0
O142 O 0.06364 0.70366 0.31645 0.0
Mg143 Mg 0.05463 0.69721 0.2748 0.0
C144 C 0.05571 0.7033 0.337 0.0
C145 C 0.97628 0.66212 0.34142 0.0
O146 O 0.97108 0.65096 0.32099 0.0
O147 O 0.01105 0.65704 0.30576 0.0
O148 O 0.03652 0.6652 0.2828 0.0
O149 O 0.01924 0.71647 0.30437 0.0
O150 O 0.03023 0.70118 0.28134 0.0
C151 C 0.02187 0.65263 0.29376 0.0
C152 C 0.0299 0.71674 0.2865 0.0
O153 O 0.99267 0.67699 0.34292 0.0
Mg154 Mg 0.32742 0.35825 0.36654 0.0
O155 O 0.30452 0.34144 0.33565 0.0
O156 O 0.27832 0.32005 0.35429 0.0
Mg157 Mg 0.2841 0.32365 0.39684 0.0
C158 C 0.28727 0.32784 0.33455 0.0
C159 C 0.34904 0.37789 0.31822 0.0
O160 O 0.33446 0.38045 0.31502 0.0
O161 O 0.3315 0.33258 0.37291 0.0
O162 O 0.3056 0.3134 0.39381 0.0
O163 O 0.31812 0.38021 0.37062 0.0
O164 O 0.30663 0.3535 0.39174 0.0
C165 C 0.32152 0.31731 0.3849 0.0
C166 C 0.30621 0.36885 0.38657 0.0
O167 O 0.35005 0.36933 0.33744 0.0
Mg168 Mg 0.34884 0.01509 0.64811 0.0
O169 O 0.3388 0.02568 0.68205 0.0
O170 O 0.3127 0.02605 0.66928 0.0
Mg171 Mg 0.3069 0.01736 0.62758 0.0
C172 C 0.32513 0.02876 0.68625 0.0
C173 C 0.38022 0.0061 0.6638 0.0
O174 O 0.38178 0.00727 0.63931 0.0
O175 O 0.32439 0.98406 0.64971 0.0
O176 O 0.29975 0.9864 0.6352 0.0
O177 O 0.3671 0.04552 0.63719 0.0
O178 O 0.33733 0.02705 0.62394 0.0
C179 C 0.30691 0.97644 0.64307 0.0
C180 C 0.35249 0.04373 0.62471 0.0
O181 O 0.36763 0.00868 0.67394 0.0
Mg182 Mg 0.99139 0.31203 0.71138 0.0
O183 O 0.97058 0.30158 0.67716 0.0
O184 O 0.943 0.29764 0.69027 0.0
Mg185 Mg 0.9455 0.30313 0.73284 0.0
C186 C 0.95341 0.29729 0.67292 0.0
C187 C 0.03285 0.33277 0.69526 0.0
O188 O 0.03493 0.33654 0.71961 0.0
O189 O 0.99388 0.34156 0.71276 0.0
O190 O 0.96623 0.33539 0.72836 0.0
O191 O 0.98322 0.28177 0.71927 0.0
O192 O 0.96898 0.29682 0.73485 0.0
C193 C 0.98274 0.34715 0.72082 0.0
C194 C 0.96985 0.28126 0.73259 0.0
O195 O 0.01625 0.32266 0.68561 0.0
Mg196 Mg 0.67647 0.6428 0.65101 0.0
O197 O 0.70409 0.65891 0.67505 0.0
O198 O 0.72748 0.6763 0.64934 0.0
Mg199 Mg 0.71504 0.67171 0.60927 0.0
C200 C 0.72155 0.67061 0.67126 0.0
C201 C 0.64427 0.63612 0.68624 0.0
O202 O 0.64008 0.64299 0.66652 0.0
O203 O 0.67532 0.67046 0.64757 0.0
O204 O 0.69838 0.6865 0.6207 0.0
O205 O 0.68245 0.61876 0.64276 0.0
O206 O 0.69105 0.64399 0.61924 0.0
C207 C 0.68498 0.68505 0.63424 0.0
C208 C 0.691 0.62827 0.62327 0.0
O209 O 0.65906 0.63461 0.68618 0.0
Mg210 Mg 0.3213 0.32308 0.70165 0.0
O211 O 0.33351 0.31247 0.67049 0.0
O212 O 0.3571 0.30949 0.68771 0.0
Mg213 Mg 0.35957 0.31745 0.72959 0.0
C214 C 0.34662 0.30823 0.66883 0.0
C215 C 0.30444 0.34575 0.67328 0.0
O216 O 0.31379 0.35855 0.69152 0.0
O217 O 0.34706 0.35357 0.70283 0.0
O218 O 0.36944 0.34898 0.72089 0.0
O219 O 0.30135 0.2924 0.70967 0.0
O220 O 0.32955 0.3099 0.72855 0.0
C221 C 0.36395 0.35992 0.71143 0.0
C222 C 0.31437 0.29342 0.72498 0.0
O223 O 0.30531 0.33037 0.67209 0.0
Mg224 Mg 0.67633 0.01716 0.64652 0.0
O225 O 0.70031 0.02502 0.67566 0.0
O226 O 0.72471 0.02613 0.65574 0.0
Mg227 Mg 0.71698 0.021 0.61352 0.0
C228 C 0.71704 0.0275 0.67578 0.0
C229 C 0.65637 0.02359 0.69152 0.0
O230 O 0.67027 0.04121 0.68844 0.0
O231 O 0.67012 0.98608 0.64289 0.0
O232 O 0.69414 0.98965 0.61944 0.0
O233 O 0.68769 0.04842 0.64042 0.0
O234 O 0.69596 0.03018 0.61873 0.0
C235 C 0.67871 0.97913 0.63051 0.0
C236 C 0.69817 0.04697 0.62357 0.0
O237 O 0.65526 0.00997 0.67761 0.0
Mg238 Mg 0.99326 0.68599 0.70039 0.0
O239 O 0.96632 0.66904 0.67537 0.0
O240 O 0.94187 0.65446 0.70057 0.0
Mg241 Mg 0.95306 0.66174 0.74135 0.0
C242 C 0.94861 0.65828 0.67865 0.0
C243 C 0.02547 0.68768 0.66829 0.0
O244 O 0.02838 0.68083 0.68901 0.0
O245 O 0.99282 0.6583 0.7099 0.0
O246 O 0.9687 0.64489 0.73594 0.0
O247 O 0.98844 0.71114 0.70181 0.0
O248 O 0.97798 0.68809 0.72942 0.0
C249 C 0.98229 0.64489 0.72439 0.0
C250 C 0.97884 0.70351 0.72158 0.0
O251 O 0.01158 0.69067 0.66678 0.0
H252 H 0.14709 0.31209 0.21034 0.0
H253 H 0.12166 0.31196 0.23399 0.0
H254 H 0.08109 0.27645 0.17539 0.0
H255 H 0.1064 0.27555 0.15227 0.0
H256 H 0.15621 0.28804 0.19609 0.0
H257 H 0.13741 0.32793 0.15309 0.0
H258 H 0.11468 0.33479 0.13212 0.0
H259 H 0.1062 0.29357 0.07245 0.0
H260 H 0.12805 0.28596 0.09434 0.0
H261 H 0.18341 0.26986 0.12866 0.0
H262 H 0.20874 0.27125 0.10303 0.0
H263 H 0.2292 0.33145 0.0911 0.0
H264 H 0.2037 0.32992 0.11639 0.0
H265 H 0.16449 0.30618 0.1069 0.0
H266 H 0.17119 0.2635 0.18935 0.0
H267 H 0.19358 0.26448 0.22131 0.0
H268 H 0.23161 0.32446 0.20675 0.0
H269 H 0.20954 0.323 0.17415 0.0
C270 C 0.12874 0.29408 0.17929 0.0
C271 C 0.13269 0.30387 0.20278 0.0
C272 C 0.11819 0.30381 0.21629 0.0
C273 C 0.09956 0.29423 0.20638 0.0
C274 C 0.09543 0.28397 0.18328 0.0
C275 C 0.10988 0.2836 0.17003 0.0
C276 C 0.14454 0.2954 0.16444 0.0
C277 C 0.15786 0.29182 0.1765 0.0
C278 C 0.14709 0.30099 0.13908 0.0
C279 C 0.13419 0.30614 0.12557 0.0
C280 C 0.13051 0.32023 0.13561 0.0
C281 C 0.11763 0.3243 0.12342 0.0
C282 C 0.10842 0.31463 0.10063 0.0
C283 C 0.11264 0.30098 0.09024 0.0
C284 C 0.12534 0.29677 0.10259 0.0
C285 C 0.19175 0.2998 0.12437 0.0
C286 C 0.19344 0.28337 0.12063 0.0
C287 C 0.20781 0.28414 0.10595 0.0
C288 C 0.22088 0.30145 0.09517 0.0
C289 C 0.21937 0.31797 0.09938 0.0
C290 C 0.20481 0.31711 0.11369 0.0
C291 C 0.1759 0.29868 0.13867 0.0
C292 C 0.16258 0.30217 0.1264 0.0
C293 C 0.17372 0.29384 0.16414 0.0
C294 C 0.18873 0.29316 0.17938 0.0
C295 C 0.18462 0.27667 0.19258 0.0
C296 C 0.19738 0.27734 0.21103 0.0
C297 C 0.21431 0.29465 0.21702 0.0
C298 C 0.21887 0.31081 0.20258 0.0
C299 C 0.20622 0.31003 0.18389 0.0
H300 H 0.72553 0.91038 0.18141 0.0
H301 H 0.71875 0.93203 0.20688 0.0
H302 H 0.6683 0.88287 0.23297 0.0
H303 H 0.67516 0.86141 0.20778 0.0
H304 H 0.70603 0.85622 0.21014 0.0
H305 H 0.72722 0.89668 0.11657 0.0
H306 H 0.71974 0.91691 0.09037 0.0
H307 H 0.66649 0.89577 0.12721 0.0
H308 H 0.67371 0.87517 0.15247 0.0
H309 H 0.67628 0.81555 0.12352 0.0
H310 H 0.67199 0.78743 0.09986 0.0
H311 H 0.73093 0.80506 0.11522 0.0
H312 H 0.73444 0.83242 0.14086 0.0
H313 H 0.70599 0.85686 0.11707 0.0
H314 H 0.68014 0.80414 0.17227 0.0
H315 H 0.67741 0.77788 0.19712 0.0
H316 H 0.72895 0.81753 0.23881 0.0
H317 H 0.73218 0.84367 0.21264 0.0
C318 C 0.70089 0.8843 0.19282 0.0
C319 C 0.71302 0.90432 0.19262 0.0
C320 C 0.70914 0.91664 0.20713 0.0
C321 C 0.69293 0.90911 0.22175 0.0
C322 C 0.68075 0.88908 0.22164 0.0
C323 C 0.68477 0.87681 0.20747 0.0
C324 C 0.70464 0.87095 0.17757 0.0
C325 C 0.70646 0.85661 0.1898 0.0
C326 C 0.70489 0.87127 0.15104 0.0
C327 C 0.70116 0.8847 0.13675 0.0
C328 C 0.714 0.89654 0.11903 0.0
C329 C 0.70973 0.90809 0.10413 0.0
C330 C 0.69247 0.90782 0.10658 0.0
C331 C 0.67977 0.89606 0.12455 0.0
C332 C 0.68401 0.88452 0.13934 0.0
C333 C 0.70561 0.8259 0.13404 0.0
C334 C 0.68827 0.81333 0.12168 0.0
C335 C 0.68595 0.79733 0.10783 0.0
C336 C 0.70114 0.79383 0.10524 0.0
C337 C 0.71876 0.80695 0.11705 0.0
C338 C 0.72089 0.82271 0.13159 0.0
C339 C 0.70728 0.84215 0.14962 0.0
C340 C 0.70653 0.85705 0.13745 0.0
C341 C 0.70745 0.84199 0.17616 0.0
C342 C 0.70662 0.82581 0.19013 0.0
C343 C 0.69121 0.80711 0.18616 0.0
C344 C 0.68947 0.79214 0.20078 0.0
C345 C 0.70288 0.7956 0.22016 0.0
C346 C 0.71848 0.8143 0.22389 0.0
C347 C 0.7203 0.82928 0.20904 0.0
H348 H 0.10671 0.84668 0.18685 0.0
H349 H 0.08373 0.8178 0.20801 0.0
H350 H 0.11069 0.78712 0.17865 0.0
H351 H 0.13291 0.81567 0.15688 0.0
H352 H 0.14688 0.86566 0.19338 0.0
H353 H 0.09941 0.83455 0.12912 0.0
H354 H 0.07656 0.80582 0.10497 0.0
H355 H 0.12253 0.80334 0.06931 0.0
H356 H 0.14528 0.83116 0.09503 0.0
H357 H 0.19154 0.87089 0.11442 0.0
H358 H 0.22232 0.89192 0.09704 0.0
H359 H 0.21775 0.94161 0.1186 0.0
H360 H 0.18653 0.92026 0.13593 0.0
H361 H 0.15667 0.86597 0.1018 0.0
H362 H 0.20335 0.89307 0.1704 0.0
H363 H 0.22573 0.91658 0.20111 0.0
H364 H 0.18067 0.92367 0.23167 0.0
H365 H 0.15907 0.90205 0.1988 0.0
C366 C 0.12129 0.83317 0.17008 0.0
C367 C 0.10747 0.83362 0.18487 0.0
C368 C 0.09446 0.81715 0.19706 0.0
C369 C 0.09529 0.80006 0.195 0.0
C370 C 0.1093 0.79982 0.18023 0.0
C371 C 0.1221 0.81617 0.16785 0.0
C372 C 0.13563 0.85061 0.15784 0.0
C373 C 0.14882 0.86611 0.17326 0.0
C374 C 0.13803 0.85081 0.1316 0.0
C375 C 0.12413 0.83483 0.11443 0.0
C376 C 0.10459 0.82776 0.11621 0.0
C377 C 0.09149 0.81145 0.10202 0.0
C378 C 0.09762 0.80203 0.08528 0.0
C379 C 0.11722 0.80989 0.08241 0.0
C380 C 0.13031 0.826 0.09692 0.0
C381 C 0.18677 0.89402 0.12643 0.0
C382 C 0.19709 0.88631 0.11531 0.0
C383 C 0.21478 0.89835 0.10568 0.0
C384 C 0.22254 0.91841 0.1068 0.0
C385 C 0.21209 0.92619 0.11757 0.0
C386 C 0.19432 0.91405 0.12744 0.0
C387 C 0.16845 0.88072 0.13752 0.0
C388 C 0.15444 0.86596 0.12181 0.0
C389 C 0.1654 0.88116 0.16358 0.0
C390 C 0.17954 0.8961 0.18167 0.0
C391 C 0.19845 0.90028 0.18301 0.0
C392 C 0.21121 0.91348 0.20118 0.0
C393 C 0.2052 0.92217 0.21929 0.0
C394 C 0.18618 0.91782 0.21788 0.0
C395 C 0.17363 0.90515 0.19919 0.0
H396 H 0.28123 0.16459 0.81878 0.0
H397 H 0.28422 0.19274 0.79776 0.0
H398 H 0.34351 0.22492 0.82099 0.0
H399 H 0.33999 0.19708 0.84303 0.0
H400 H 0.30522 0.14603 0.81193 0.0
H401 H 0.28871 0.17993 0.87314 0.0
H402 H 0.29442 0.20857 0.89747 0.0
H403 H 0.34314 0.2107 0.93438 0.0
H404 H 0.33828 0.18315 0.90859 0.0
H405 H 0.34284 0.1427 0.89833 0.0
H406 H 0.352 0.12172 0.91914 0.0
H407 H 0.29931 0.07202 0.89333 0.0
H408 H 0.28995 0.09328 0.87275 0.0
H409 H 0.31368 0.14852 0.90458 0.0
H410 H 0.33467 0.11959 0.84217 0.0
H411 H 0.33372 0.09409 0.81565 0.0
H412 H 0.28207 0.08542 0.77903 0.0
H413 H 0.28204 0.10936 0.80761 0.0
C414 C 0.31034 0.17887 0.83261 0.0
C415 C 0.29482 0.17776 0.81929 0.0
C416 C 0.29663 0.19386 0.80715 0.0
C417 C 0.31411 0.21125 0.80769 0.0
C418 C 0.32972 0.21202 0.82062 0.0
C419 C 0.3278 0.19605 0.83307 0.0
C420 C 0.30848 0.16219 0.84623 0.0
C421 C 0.30667 0.14629 0.83224 0.0
C422 C 0.31075 0.1629 0.87268 0.0
C423 C 0.31329 0.17957 0.88855 0.0
C424 C 0.30078 0.18674 0.8862 0.0
C425 C 0.30388 0.20295 0.9005 0.0
C426 C 0.31935 0.2121 0.91782 0.0
C427 C 0.33134 0.20435 0.92087 0.0
C428 C 0.32844 0.1884 0.90628 0.0
C429 C 0.31579 0.11953 0.88382 0.0
C430 C 0.33312 0.1273 0.89739 0.0
C431 C 0.3384 0.11531 0.90914 0.0
C432 C 0.32643 0.09527 0.90765 0.0
C433 C 0.30874 0.08745 0.89484 0.0
C434 C 0.30345 0.09953 0.88296 0.0
C435 C 0.31129 0.13272 0.87028 0.0
C436 C 0.31179 0.14796 0.8843 0.0
C437 C 0.30839 0.13161 0.84382 0.0
C438 C 0.30811 0.11611 0.82753 0.0
C439 C 0.32278 0.11175 0.82903 0.0
C440 C 0.32242 0.09734 0.81334 0.0
C441 C 0.30778 0.08742 0.795 0.0
C442 C 0.29333 0.09217 0.79326 0.0
C443 C 0.29342 0.10616 0.80943 0.0
H444 H 0.82634 0.10051 0.81271 0.0
H445 H 0.80208 0.08095 0.78096 0.0
H446 H 0.76025 0.08522 0.82517 0.0
H447 H 0.78499 0.10669 0.85507 0.0
H448 H 0.83951 0.13556 0.82258 0.0
H449 H 0.80946 0.08075 0.87859 0.0
H450 H 0.7827 0.05561 0.90098 0.0
H451 H 0.7719 0.09884 0.93348 0.0
H452 H 0.79836 0.12368 0.91117 0.0
H453 H 0.84445 0.1773 0.90529 0.0
H454 H 0.86579 0.20528 0.9314 0.0
H455 H 0.90813 0.18776 0.92858 0.0
H456 H 0.88704 0.16079 0.90013 0.0
H457 H 0.83499 0.13497 0.9152 0.0
H458 H 0.86021 0.18796 0.86071 0.0
H459 H 0.8826 0.21492 0.83697 0.0
H460 H 0.89802 0.17744 0.7972 0.0
H461 H 0.87691 0.15093 0.82309 0.0
C462 C 0.80763 0.10502 0.83662 0.0
C463 C 0.81192 0.09719 0.81561 0.0
C464 C 0.79786 0.08572 0.79752 0.0
C465 C 0.77899 0.0814 0.80019 0.0
C466 C 0.77459 0.08848 0.82195 0.0
C467 C 0.78877 0.10046 0.83959 0.0
C468 C 0.82315 0.11956 0.85372 0.0
C469 C 0.83877 0.13504 0.84288 0.0
C470 C 0.82196 0.11946 0.88022 0.0
C471 C 0.80583 0.10404 0.89324 0.0
C472 C 0.80123 0.08472 0.89047 0.0
C473 C 0.78604 0.07044 0.90329 0.0
C474 C 0.77519 0.07531 0.91877 0.0
C475 C 0.77985 0.09465 0.92138 0.0
C476 C 0.79506 0.10887 0.90883 0.0
C477 C 0.86432 0.16723 0.90051 0.0
C478 C 0.85841 0.17963 0.91024 0.0
C479 C 0.87065 0.19553 0.92558 0.0
C480 C 0.88889 0.19901 0.9326 0.0
C481 C 0.89448 0.18603 0.92334 0.0
C482 C 0.88239 0.17045 0.90719 0.0
C483 C 0.85114 0.15066 0.88394 0.0
C484 C 0.83603 0.13494 0.89492 0.0
C485 C 0.85261 0.15073 0.85755 0.0
C486 C 0.8673 0.16751 0.84439 0.0
C487 C 0.86902 0.1857 0.84776 0.0
C488 C 0.88151 0.20106 0.83354 0.0
C489 C 0.89209 0.19843 0.81488 0.0
C490 C 0.89041 0.18018 0.81163 0.0
C491 C 0.87822 0.16492 0.82631 0.0
H492 H 0.79475 0.67431 0.84605 0.0
H493 H 0.76934 0.66779 0.81563 0.0
H494 H 0.80323 0.7247 0.78693 0.0
H495 H 0.82872 0.73105 0.81732 0.0
H496 H 0.84776 0.71295 0.81745 0.0
H497 H 0.8069 0.67266 0.90535 0.0
H498 H 0.78137 0.66966 0.93165 0.0
H499 H 0.78914 0.72345 0.90477 0.0
H500 H 0.81489 0.72654 0.87877 0.0
H501 H 0.87851 0.72079 0.92045 0.0
H502 H 0.90103 0.71467 0.94352 0.0
H503 H 0.89675 0.6753 0.88366 0.0
H504 H 0.87352 0.68072 0.8614 0.0
H505 H 0.84289 0.69836 0.90785 0.0
H506 H 0.89916 0.73458 0.86262 0.0
H507 H 0.92697 0.73895 0.84024 0.0
H508 H 0.89029 0.69879 0.78169 0.0
H509 H 0.8626 0.69377 0.80447 0.0
C510 C 0.81366 0.7032 0.83406 0.0
C511 C 0.79653 0.68559 0.83369 0.0
C512 C 0.78199 0.68187 0.81622 0.0
C513 C 0.7843 0.69566 0.79865 0.0
C514 C 0.80112 0.71364 0.79989 0.0
C515 C 0.81566 0.71734 0.81735 0.0
C516 C 0.83016 0.70577 0.84954 0.0
C517 C 0.84677 0.70992 0.83728 0.0
C518 C 0.82906 0.70225 0.8755 0.0
C519 C 0.81276 0.69979 0.89008 0.0
C520 C 0.80304 0.68376 0.90504 0.0
C521 C 0.78838 0.682 0.91991 0.0
C522 C 0.78329 0.69634 0.92025 0.0
C523 C 0.79288 0.71227 0.90501 0.0
C524 C 0.80746 0.71396 0.89001 0.0
C525 C 0.87443 0.70139 0.88903 0.0
C526 C 0.8824 0.71081 0.91233 0.0
C527 C 0.89544 0.70743 0.92539 0.0
C528 C 0.90081 0.69452 0.91546 0.0
C529 C 0.89283 0.68516 0.89206 0.0
C530 C 0.87968 0.68843 0.87912 0.0
C531 C 0.86017 0.7046 0.87544 0.0
C532 C 0.84401 0.7016 0.88808 0.0
C533 C 0.86183 0.70948 0.84984 0.0
C534 C 0.87877 0.71358 0.83546 0.0
C535 C 0.8971 0.72669 0.84499 0.0
C536 C 0.91295 0.72931 0.83215 0.0
C537 C 0.91068 0.71926 0.80925 0.0
C538 C 0.89238 0.7069 0.79914 0.0
C539 C 0.87657 0.704 0.81219 0.0
H540 H 0.81517 0.63983 0.55037 0.0
H541 H 0.78938 0.63381 0.57798 0.0
H542 H 0.74874 0.59502 0.52149 0.0
H543 H 0.77468 0.60045 0.49409 0.0
H544 H 0.82747 0.61918 0.53395 0.0
H545 H 0.80171 0.65394 0.49555 0.0
H546 H 0.77832 0.66054 0.47609 0.0
H547 H 0.77062 0.62144 0.41399 0.0
H548 H 0.79332 0.61419 0.4342 0.0
H549 H 0.85445 0.60329 0.46612 0.0
H550 H 0.87958 0.60591 0.4391 0.0
H551 H 0.89264 0.66322 0.42026 0.0
H552 H 0.86739 0.66049 0.44717 0.0
H553 H 0.82937 0.63538 0.44441 0.0
H554 H 0.84441 0.59881 0.5295 0.0
H555 H 0.8698 0.60357 0.5591 0.0
H556 H 0.90482 0.66113 0.53296 0.0
H557 H 0.87951 0.6562 0.5033 0.0
C558 C 0.79689 0.62074 0.52001 0.0
C559 C 0.80074 0.62982 0.54398 0.0
C560 C 0.78602 0.62631 0.55981 0.0
C561 C 0.76714 0.61384 0.55189 0.0
C562 C 0.76322 0.60469 0.52797 0.0
C563 C 0.778 0.60794 0.51226 0.0
C564 C 0.8128 0.62425 0.50371 0.0
C565 C 0.82777 0.62258 0.51431 0.0
C566 C 0.81354 0.62943 0.4783 0.0
C567 C 0.79914 0.63335 0.46655 0.0
C568 C 0.79476 0.64654 0.47795 0.0
C569 C 0.78152 0.65049 0.46661 0.0
C570 C 0.77251 0.64153 0.44342 0.0
C571 C 0.77699 0.62838 0.43203 0.0
C572 C 0.79015 0.62435 0.44345 0.0
C573 C 0.85911 0.63172 0.45866 0.0
C574 C 0.86277 0.61644 0.45623 0.0
C575 C 0.87704 0.61791 0.44074 0.0
C576 C 0.88803 0.63478 0.42767 0.0
C577 C 0.88446 0.65013 0.43031 0.0
C578 C 0.87 0.64854 0.44551 0.0
C579 C 0.84372 0.62993 0.47472 0.0
C580 C 0.82885 0.63178 0.464 0.0
C581 C 0.84344 0.62588 0.5004 0.0
C582 C 0.86004 0.62713 0.51416 0.0
C583 C 0.85774 0.61227 0.52972 0.0
C584 C 0.87222 0.61506 0.54674 0.0
C585 C 0.88924 0.63283 0.54865 0.0
C586 C 0.89198 0.64721 0.53185 0.0
C587 C 0.8775 0.6444 0.5148 0.0
H588 H 0.39885 0.2353 0.54682 0.0
H589 H 0.39705 0.25764 0.57646 0.0
H590 H 0.3452 0.24759 0.5388 0.0
H591 H 0.34586 0.22338 0.51155 0.0
H592 H 0.3774 0.19895 0.54142 0.0
H593 H 0.38929 0.25156 0.48082 0.0
H594 H 0.37752 0.27091 0.46018 0.0
H595 H 0.32684 0.21869 0.43506 0.0
H596 H 0.33829 0.19965 0.45593 0.0
H597 H 0.34352 0.16373 0.44513 0.0
H598 H 0.33614 0.13582 0.41881 0.0
H599 H 0.38266 0.13274 0.45425 0.0
H600 H 0.39139 0.16231 0.47872 0.0
H601 H 0.36876 0.19675 0.44896 0.0
H602 H 0.34662 0.1449 0.5056 0.0
H603 H 0.34614 0.11876 0.52858 0.0
H604 H 0.39987 0.15919 0.56517 0.0
H605 H 0.40084 0.185 0.5407 0.0
C606 C 0.37275 0.22786 0.52642 0.0
C607 C 0.38704 0.23786 0.54501 0.0
C608 C 0.38611 0.25096 0.56181 0.0
C609 C 0.37106 0.25482 0.56018 0.0
C610 C 0.35691 0.24497 0.54119 0.0
C611 C 0.35751 0.23135 0.52498 0.0
C612 C 0.37333 0.21296 0.50982 0.0
C613 C 0.37578 0.19862 0.52113 0.0
C614 C 0.37046 0.21196 0.4834 0.0
C615 C 0.36459 0.2242 0.47006 0.0
C616 C 0.3757 0.24437 0.47076 0.0
C617 C 0.36904 0.25535 0.45887 0.0
C618 C 0.35121 0.24625 0.44623 0.0
C619 C 0.3405 0.22608 0.44495 0.0
C620 C 0.3471 0.2152 0.45673 0.0
C621 C 0.36791 0.16513 0.4643 0.0
C622 C 0.35249 0.1574 0.44694 0.0
C623 C 0.34804 0.14112 0.43209 0.0
C624 C 0.35846 0.13161 0.43474 0.0
C625 C 0.37431 0.13967 0.45156 0.0
C626 C 0.37915 0.15643 0.46594 0.0
C627 C 0.37166 0.1821 0.48058 0.0
C628 C 0.37064 0.19715 0.46923 0.0
C629 C 0.37429 0.18285 0.50706 0.0
C630 C 0.37398 0.16686 0.52096 0.0
C631 C 0.35848 0.14806 0.5182 0.0
C632 C 0.35809 0.13316 0.53171 0.0
C633 C 0.37297 0.13679 0.54883 0.0
C634 C 0.38833 0.15572 0.55184 0.0
C635 C 0.38884 0.17056 0.53801 0.0
H636 H 0.78465 0.17302 0.52312 0.0
H637 H 0.76119 0.14501 0.54512 0.0
H638 H 0.78926 0.11367 0.52276 0.0
H639 H 0.81207 0.14144 0.50001 0.0
H640 H 0.82598 0.1924 0.53092 0.0
H641 H 0.77683 0.15639 0.4667 0.0
H642 H 0.75571 0.12574 0.4444 0.0
H643 H 0.80429 0.12517 0.41442 0.0
H644 H 0.82529 0.15524 0.43764 0.0
H645 H 0.86714 0.20062 0.44236 0.0
H646 H 0.89351 0.22402 0.41852 0.0
H647 H 0.88673 0.26988 0.45092 0.0
H648 H 0.85963 0.24618 0.47436 0.0
H649 H 0.83218 0.19033 0.43872 0.0
H650 H 0.88138 0.222 0.50232 0.0
H651 H 0.90443 0.24602 0.5322 0.0
H652 H 0.85934 0.25032 0.56779 0.0
H653 H 0.83688 0.22796 0.53621 0.0
C654 C 0.79991 0.15916 0.50981 0.0
C655 C 0.78564 0.16005 0.52296 0.0
C656 C 0.77234 0.14407 0.53564 0.0
C657 C 0.7733 0.12703 0.53573 0.0
C658 C 0.78783 0.12637 0.52271 0.0
C659 C 0.80096 0.14226 0.50982 0.0
C660 C 0.81403 0.17601 0.49641 0.0
C661 C 0.82722 0.1923 0.51068 0.0
C662 C 0.81573 0.17529 0.47013 0.0
C663 C 0.80268 0.15796 0.45428 0.0
C664 C 0.78292 0.14966 0.45531 0.0
C665 C 0.77084 0.13225 0.44229 0.0
C666 C 0.77832 0.12289 0.42782 0.0
C667 C 0.79808 0.13181 0.42574 0.0
C668 C 0.81011 0.14911 0.43886 0.0
C669 C 0.86132 0.2216 0.46008 0.0
C670 C 0.87118 0.21568 0.44429 0.0
C671 C 0.88626 0.22903 0.43072 0.0
C672 C 0.89197 0.24865 0.43283 0.0
C673 C 0.88253 0.25478 0.4491 0.0
C674 C 0.86713 0.24129 0.46246 0.0
C675 C 0.84473 0.20682 0.47329 0.0
C676 C 0.83089 0.19086 0.45892 0.0
C677 C 0.84284 0.20765 0.49963 0.0
C678 C 0.85734 0.22333 0.5166 0.0
C679 C 0.87657 0.22865 0.51597 0.0
C680 C 0.88974 0.24217 0.53353 0.0
C681 C 0.88392 0.25021 0.55277 0.0
C682 C 0.86465 0.24494 0.55311 0.0
C683 C 0.85162 0.23186 0.53515 0.0
H684 H 0.94321 0.49713 0.14895 0.0
H685 H 0.94591 0.52549 0.12893 0.0
H686 H 0.00542 0.55751 0.15116 0.0
H687 H 0.00214 0.52944 0.17238 0.0
H688 H 0.97125 0.48025 0.14142 0.0
H689 H 0.94878 0.51175 0.20107 0.0
H690 H 0.95465 0.54076 0.22471 0.0
H691 H 0.00165 0.54153 0.26473 0.0
H692 H 0.99662 0.51355 0.23974 0.0
H693 H 0.00117 0.45823 0.19803 0.0
H694 H 0.00716 0.43659 0.22288 0.0
H695 H 0.95482 0.41835 0.261 0.0
H696 H 0.94852 0.43954 0.23515 0.0
H697 H 0.9704 0.47849 0.23442 0.0
H698 H 0.99879 0.47195 0.14009 0.0
H699 H 0.0038 0.44889 0.11565 0.0
H700 H 0.95502 0.40196 0.14863 0.0
H701 H 0.94981 0.4252 0.17269 0.0
C702 C 0.97244 0.51133 0.16224 0.0
C703 C 0.9568 0.51031 0.1494 0.0
C704 C 0.95843 0.52653 0.13784 0.0
C705 C 0.97588 0.54395 0.13846 0.0
C706 C 0.99164 0.54459 0.15077 0.0
C707 C 0.98988 0.52849 0.16271 0.0
C708 C 0.97056 0.49459 0.17568 0.0
C709 C 0.9708 0.47967 0.16173 0.0
C710 C 0.97044 0.49422 0.20222 0.0
C711 C 0.97254 0.5107 0.21811 0.0
C712 C 0.96049 0.51832 0.21471 0.0
C713 C 0.96367 0.53474 0.22859 0.0
C714 C 0.97877 0.54367 0.24649 0.0
C715 C 0.99017 0.53536 0.25072 0.0
C716 C 0.98717 0.51918 0.2366 0.0
C717 C 0.97423 0.45021 0.21441 0.0
C718 C 0.9908 0.4493 0.21138 0.0
C719 C 0.99435 0.43716 0.22592 0.0
C720 C 0.98155 0.42589 0.2441 0.0
C721 C 0.96489 0.42675 0.24703 0.0
C722 C 0.9613 0.43886 0.23235 0.0
C723 C 0.97123 0.46417 0.20025 0.0
C724 C 0.97021 0.47869 0.21406 0.0
C725 C 0.97156 0.46463 0.1737 0.0
C726 C 0.97392 0.45034 0.15824 0.0
C727 C 0.98907 0.4567 0.14193 0.0
C728 C 0.99207 0.44348 0.12821 0.0
C729 C 0.97992 0.42356 0.13036 0.0
C730 C 0.9646 0.4172 0.14648 0.0
C731 C 0.96164 0.43046 0.16031 0.0
H732 H 0.50571 0.42824 0.16223 0.0
H733 H 0.48405 0.40712 0.12843 0.0
H734 H 0.4476 0.43098 0.14135 0.0
H735 H 0.46909 0.45166 0.17535 0.0
H736 H 0.52322 0.46846 0.15941 0.0
H737 H 0.48178 0.41973 0.21838 0.0
H738 H 0.45111 0.39896 0.23712 0.0
H739 H 0.44544 0.4488 0.25334 0.0
H740 H 0.47571 0.46928 0.23429 0.0
H741 H 0.51972 0.51164 0.24497 0.0
H742 H 0.54032 0.54217 0.26736 0.0
H743 H 0.58926 0.53809 0.24702 0.0
H744 H 0.56844 0.50693 0.2257 0.0
H745 H 0.51013 0.47675 0.24791 0.0
H746 H 0.53368 0.51908 0.18072 0.0
H747 H 0.5553 0.54403 0.15352 0.0
H748 H 0.58795 0.51518 0.14688 0.0
H749 H 0.56531 0.48955 0.17299 0.0
C750 C 0.48893 0.44138 0.17146 0.0
C751 C 0.49282 0.42857 0.15811 0.0
C752 C 0.48049 0.41663 0.13868 0.0
C753 C 0.46414 0.41745 0.13201 0.0
C754 C 0.45989 0.42973 0.14617 0.0
C755 C 0.47218 0.4416 0.16566 0.0
C756 C 0.50345 0.45626 0.18901 0.0
C757 C 0.52065 0.46989 0.17905 0.0
C758 C 0.49955 0.45888 0.21407 0.0
C759 C 0.48101 0.44603 0.22501 0.0
C760 C 0.47381 0.4261 0.22581 0.0
C761 C 0.45637 0.41429 0.23659 0.0
C762 C 0.44585 0.42226 0.24657 0.0
C763 C 0.45306 0.44219 0.24547 0.0
C764 C 0.47046 0.45394 0.23484 0.0
C765 C 0.54249 0.50702 0.2333 0.0
C766 C 0.53485 0.51708 0.24569 0.0
C767 C 0.54668 0.53468 0.25832 0.0
C768 C 0.56648 0.54273 0.25874 0.0
C769 C 0.57409 0.53227 0.24721 0.0
C770 C 0.5622 0.51456 0.2347 0.0
C771 C 0.52983 0.48909 0.2182 0.0
C772 C 0.51307 0.4749 0.22859 0.0
C773 C 0.53343 0.48661 0.19294 0.0
C774 C 0.54807 0.50265 0.17898 0.0
C775 C 0.54564 0.5183 0.1736 0.0
C776 C 0.55812 0.53262 0.15812 0.0
C777 C 0.57351 0.53175 0.14797 0.0
C778 C 0.57612 0.5162 0.15397 0.0
C779 C 0.56335 0.50164 0.1691 0.0
H780 H 0.53794 0.04453 0.16942 0.0
H781 H 0.56454 0.04523 0.14771 0.0
H782 H 0.54107 0.98454 0.16026 0.0
H783 H 0.51502 0.98415 0.18236 0.0
H784 H 0.49766 0.02022 0.15881 0.0
H785 H 0.54426 0.033 0.22509 0.0
H786 H 0.56642 0.02781 0.2508 0.0
H787 H 0.52087 0.97136 0.26815 0.0
H788 H 0.49887 0.97658 0.24246 0.0
H789 H 0.45046 0.97396 0.23524 0.0
H790 H 0.42458 0.96841 0.26241 0.0
H791 H 0.43678 0.02676 0.25216 0.0
H792 H 0.4624 0.03201 0.22431 0.0
H793 H 0.48728 0.00134 0.24763 0.0
H794 H 0.44257 0.9838 0.17978 0.0
H795 H 0.41957 0.98267 0.14891 0.0
H796 H 0.45845 0.04175 0.13134 0.0
H797 H 0.48157 0.04264 0.16206 0.0
C798 C 0.52475 0.01436 0.17775 0.0
C799 C 0.53862 0.03143 0.16742 0.0
C800 C 0.55373 0.03178 0.15498 0.0
C801 C 0.55503 0.01499 0.15253 0.0
C802 C 0.54077 0.99783 0.16237 0.0
C803 C 0.52581 0.99754 0.17488 0.0
C804 C 0.50903 0.01385 0.19163 0.0
C805 C 0.49556 0.0166 0.17844 0.0
C806 C 0.50611 0.00837 0.2169 0.0
C807 C 0.51986 0.00519 0.23183 0.0
C808 C 0.5391 0.01942 0.23419 0.0
C809 C 0.55177 0.01643 0.24886 0.0
C810 C 0.54539 -0.00079 0.26164 0.0
C811 C 0.52618 0.9849 0.25889 0.0
C812 C 0.51358 0.98786 0.24419 0.0
C813 C 0.45836 0.00341 0.2279 0.0
C814 C 0.44733 0.98544 0.23853 0.0
C815 C 0.43265 0.98235 0.25419 0.0
C816 C 0.42885 0.99725 0.25982 0.0
C817 C 0.4393 0.01496 0.24811 0.0
C818 C 0.45394 0.018 0.23222 0.0
C819 C 0.47566 0.00737 0.21473 0.0
C820 C 0.48951 0.00538 0.22815 0.0
C821 C 0.47867 0.01307 0.18953 0.0
C822 C 0.46376 0.01336 0.17342 0.0
C823 C 0.44597 0.99668 0.16976 0.0
C824 C 0.4328 0.99605 0.15204 0.0
C825 C 0.43716 0.0121 0.1375 0.0
C826 C 0.45473 0.02904 0.1419 0.0
C827 C 0.46792 0.02962 0.15958 0.0
H828 H 0.47702 0.98754 0.87745 0.0
H829 H 0.44823 0.97975 0.8996 0.0
H830 H 0.41445 0.93904 0.83981 0.0
H831 H 0.44334 0.94616 0.8181 0.0
H832 H 0.49353 0.96972 0.86637 0.0
H833 H 0.46876 0.00063 0.81805 0.0
H834 H 0.44626 0.00589 0.79356 0.0
H835 H 0.44174 0.96407 0.73728 0.0
H836 H 0.46435 0.95891 0.7619 0.0
H837 H 0.51505 0.95855 0.76883 0.0
H838 H 0.543 0.96387 0.74643 0.0
H839 H 0.57832 0.01174 0.79776 0.0
H840 H 0.55018 0.00719 0.81878 0.0
H841 H 0.50017 0.98198 0.77528 0.0
H842 H 0.52326 0.94978 0.83965 0.0
H843 H 0.54761 0.95152 0.86945 0.0
H844 H 0.55899 0.00756 0.89634 0.0
H845 H 0.53441 0.00551 0.86724 0.0
C846 C 0.4624 0.96763 0.84591 0.0
C847 C 0.46347 0.97673 0.86921 0.0
C848 C 0.44704 0.97224 0.88191 0.0
C849 C 0.42921 0.95875 0.87141 0.0
C850 C 0.42808 0.94952 0.84822 0.0
C851 C 0.44455 0.95373 0.83573 0.0
C852 C 0.48 0.97232 0.8327 0.0
C853 C 0.49493 0.97254 0.84647 0.0
C854 C 0.48209 0.97633 0.80679 0.0
C855 C 0.46811 0.9792 0.79198 0.0
C856 C 0.46277 0.99242 0.80058 0.0
C857 C 0.44986 0.99541 0.78655 0.0
C858 C 0.44213 0.98537 0.76347 0.0
C859 C 0.44757 0.9722 0.75484 0.0
C860 C 0.46046 0.96918 0.76892 0.0
C861 C 0.53052 0.98223 0.79579 0.0
C862 C 0.52882 0.97023 0.77518 0.0
C863 C 0.54487 0.97317 0.76257 0.0
C864 C 0.563 0.98814 0.77039 0.0
C865 C 0.56461 0.00017 0.79104 0.0
C866 C 0.54853 0.99738 0.8034 0.0
C867 C 0.51336 0.97899 0.80896 0.0
C868 C 0.49853 0.97901 0.79512 0.0
C869 C 0.51165 0.97619 0.83506 0.0
C870 C 0.52718 0.97756 0.85129 0.0
C871 C 0.53115 0.96246 0.85186 0.0
C872 C 0.54497 0.96346 0.86882 0.0
C873 C 0.55519 0.97973 0.88497 0.0
C874 C 0.55146 0.99498 0.88386 0.0
C875 C 0.5374 0.99379 0.86737 0.0
H876 H 0.04343 0.56777 0.84857 0.0
H877 H 0.04606 0.594 0.87639 0.0
H878 H 0.9978 0.55281 0.9166 0.0
H879 H 0.9956 0.52668 0.88942 0.0
H880 H 0.02522 0.51713 0.88158 0.0
H881 H 0.02596 0.54567 0.78174 0.0
H882 H 0.01596 0.56532 0.75902 0.0
H883 H 0.97763 0.55843 0.81815 0.0
H884 H 0.98654 0.53757 0.83956 0.0
H885 H 0.97868 0.46521 0.81408 0.0
H886 H 0.97098 0.43659 0.78858 0.0
H887 H 0.02952 0.46288 0.7673 0.0
H888 H 0.03724 0.49079 0.7949 0.0
H889 H 0.00528 0.5091 0.79151 0.0
H890 H 0.99175 0.46214 0.85553 0.0
H891 H 0.9954 0.4382 0.87822 0.0
H892 H 0.05409 0.48033 0.89561 0.0
H893 H 0.05059 0.50384 0.87104 0.0
C894 C 0.01936 0.54533 0.86704 0.0
C895 C 0.03346 0.56445 0.8634 0.0
C896 C 0.03493 0.57936 0.87919 0.0
C897 C 0.02202 0.57534 0.89841 0.0
C898 C 0.00777 0.55624 0.90173 0.0
C899 C 0.00659 0.54134 0.88638 0.0
C900 C 0.01776 0.52933 0.85085 0.0
C901 C 0.02111 0.51552 0.86179 0.0
C902 C 0.01221 0.52714 0.82512 0.0
C903 C 0.00731 0.54047 0.81264 0.0
C904 C 0.01541 0.54844 0.78979 0.0
C905 C 0.00977 0.55979 0.7769 0.0
C906 C 0.99598 0.56351 0.78672 0.0
C907 C 0.98806 0.55565 0.80978 0.0
C908 C 0.99347 0.54405 0.82241 0.0
C909 C 0.00857 0.4798 0.8068 0.0
C910 C 0.98987 0.4646 0.80418 0.0
C911 C 0.98546 0.44837 0.78915 0.0
C912 C -0.00044 0.44728 0.77553 0.0
C913 C 0.0183 0.46289 0.77779 0.0
C914 C 0.02277 0.47894 0.79347 0.0
C915 C 0.01281 0.49708 0.82221 0.0
C916 C 0.01 0.51111 0.81109 0.0
C917 C 0.01854 0.49931 0.84783 0.0
C918 C 0.02103 0.4846 0.8609 0.0
C919 C 0.00557 0.46604 0.86345 0.0
C920 C 0.0076 0.45248 0.87699 0.0
C921 C 0.02503 0.45733 0.88896 0.0
C922 C 0.04054 0.47598 0.88638 0.0
C923 C 0.03854 0.48948 0.87247 0.0
H924 H 0.45034 0.51616 0.87013 0.0
H925 H 0.43068 0.48977 0.89745 0.0
H926 H 0.44715 0.45317 0.85775 0.0
H927 H 0.46761 0.47977 0.83196 0.0
H928 H 0.48758 0.53295 0.86878 0.0
H929 H 0.43876 0.50616 0.8003 0.0
H930 H 0.41372 0.4781 0.77714 0.0
H931 H 0.45377 0.45922 0.76038 0.0
H932 H 0.47887 0.4882 0.78168 0.0
H933 H 0.52911 0.53847 0.78366 0.0
H934 H 0.55693 0.56113 0.76124 0.0
H935 H 0.54792 0.60764 0.78509 0.0
H936 H 0.51983 0.58473 0.80756 0.0
H937 H 0.49218 0.5292 0.77639 0.0
H938 H 0.54237 0.55997 0.83919 0.0
H939 H 0.56617 0.58356 0.86869 0.0
H940 H 0.52284 0.59097 0.90426 0.0
H941 H 0.49966 0.569 0.87298 0.0
C942 C 0.4602 0.49988 0.84866 0.0
C943 C 0.44951 0.50236 0.86719 0.0
C944 C 0.43822 0.48724 0.88271 0.0
C945 C 0.43748 0.46941 0.87994 0.0
C946 C 0.44765 0.46681 0.86071 0.0
C947 C 0.45907 0.48193 0.84551 0.0
C948 C 0.47429 0.51648 0.83464 0.0
C949 C 0.48832 0.53254 0.84848 0.0
C950 C 0.47546 0.51552 0.80827 0.0
C951 C 0.46061 0.49918 0.79274 0.0
C952 C 0.44212 0.49608 0.7912 0.0
C953 C 0.42776 0.47984 0.77814 0.0
C954 C 0.43145 0.466 0.76696 0.0
C955 C 0.45023 0.46953 0.76815 0.0
C956 C 0.46467 0.48609 0.78055 0.0
C957 C 0.52245 0.55994 0.79725 0.0
C958 C 0.53311 0.55355 0.78406 0.0
C959 C 0.5491 0.56653 0.77149 0.0
C960 C 0.55466 0.58616 0.77163 0.0
C961 C 0.54392 0.59257 0.78471 0.0
C962 C 0.52795 0.57955 0.79755 0.0
C963 C 0.50564 0.54585 0.81061 0.0
C964 C 0.49115 0.53014 0.79659 0.0
C965 C 0.50411 0.54726 0.83693 0.0
C966 C 0.51917 0.56287 0.85342 0.0
C967 C 0.53812 0.56724 0.85267 0.0
C968 C 0.55171 0.5805 0.87007 0.0
C969 C 0.54658 0.58921 0.88926 0.0
C970 C 0.52762 0.58499 0.88964 0.0
C971 C 0.51418 0.57216 0.87184 0.0
H972 H 0.61623 0.82004 0.47166 0.0
H973 H 0.61989 0.84571 0.44415 0.0
H974 H 0.67041 0.88623 0.48703 0.0
H975 H 0.66728 0.8605 0.51328 0.0
H976 H 0.63918 0.80559 0.47865 0.0
H977 H 0.61513 0.83663 0.53249 0.0
H978 H 0.61702 0.86568 0.55127 0.0
H979 H 0.66878 0.87857 0.59142 0.0
H980 H 0.6669 0.84968 0.57255 0.0
H981 H 0.67651 0.81025 0.56988 0.0
H982 H 0.68733 0.79179 0.59389 0.0
H983 H 0.63789 0.73895 0.5673 0.0
H984 H 0.62687 0.75757 0.5437 0.0
H985 H 0.64523 0.81334 0.57158 0.0
H986 H 0.67565 0.79341 0.50703 0.0
H987 H 0.68047 0.77115 0.48038 0.0
H988 H 0.62035 0.73907 0.4619 0.0
H989 H 0.61595 0.76204 0.48759 0.0
C990 C 0.64129 0.83839 0.4948 0.0
C991 C 0.62807 0.83448 0.47507 0.0
C992 C 0.63011 0.84919 0.45948 0.0
C993 C 0.64548 0.86803 0.46331 0.0
C994 C 0.65857 0.87185 0.48324 0.0
C995 C 0.65663 0.85718 0.49858 0.0
C996 C 0.63989 0.82282 0.51074 0.0
C997 C 0.63994 0.80701 0.499 0.0
C998 C 0.64118 0.82479 0.53732 0.0
C999 C 0.64099 0.84108 0.55085 0.0
C1000 C 0.62679 0.84563 0.54551 0.0
C1001 C 0.62788 0.86221 0.55625 0.0
C1002 C 0.64309 0.87445 0.57274 0.0
C1003 C 0.65675 0.86932 0.57905 0.0
C1004 C 0.65572 0.85281 0.56821 0.0
C1005 C 0.65099 0.78525 0.55483 0.0
C1006 C 0.66787 0.79469 0.56948 0.0
C1007 C 0.67409 0.78415 0.58308 0.0
C1008 C 0.66349 0.76396 0.58237 0.0
C1009 C 0.64625 0.75452 0.56836 0.0
C1010 C 0.64004 0.7651 0.55467 0.0
C1011 C 0.64532 0.79673 0.53938 0.0
C1012 C 0.64379 0.81163 0.55126 0.0
C1013 C 0.64293 0.7941 0.51298 0.0
C1014 C 0.64546 0.77937 0.49916 0.0
C1015 C 0.66352 0.78145 0.49739 0.0
C1016 C 0.66621 0.7686 0.48225 0.0
C1017 C 0.65084 0.75331 0.46871 0.0
C1018 C 0.63262 0.75088 0.4715 0.0
C1019 C 0.63001 0.7639 0.48634 0.0
H1020 H 0.16383 0.77352 0.47839 0.0
H1021 H 0.1407 0.75592 0.44456 0.0
H1022 H 0.09976 0.76579 0.4828 0.0
H1023 H 0.12374 0.78558 0.51434 0.0
H1024 H 0.18056 0.80852 0.48952 0.0
H1025 H 0.14138 0.75438 0.54231 0.0
H1026 H 0.11108 0.73063 0.5597 0.0
H1027 H 0.10287 0.7768 0.58749 0.0
H1028 H 0.13299 0.80035 0.5703 0.0
H1029 H 0.1813 0.84993 0.57157 0.0
H1030 H 0.20271 0.8784 0.59683 0.0
H1031 H 0.24444 0.86002 0.59732 0.0
H1032 H 0.22327 0.8324 0.56981 0.0
H1033 H 0.16834 0.8083 0.58034 0.0
H1034 H 0.20081 0.86026 0.52617 0.0
H1035 H 0.22539 0.88622 0.50306 0.0
H1036 H 0.24257 0.84704 0.47301 0.0
H1037 H 0.21855 0.82125 0.49764 0.0
C1038 C 0.1456 0.78069 0.49941 0.0
C1039 C 0.14987 0.77192 0.47945 0.0
C1040 C 0.13641 0.76155 0.46016 0.0
C1041 C 0.11811 0.75926 0.46059 0.0
C1042 C 0.11371 0.76747 0.48118 0.0
C1043 C 0.12738 0.77843 0.49988 0.0
C1044 C 0.16064 0.79367 0.51829 0.0
C1045 C 0.17809 0.80794 0.5095 0.0
C1046 C 0.15735 0.79358 0.54433 0.0
C1047 C 0.13938 0.77908 0.55509 0.0
C1048 C 0.133 0.75932 0.55216 0.0
C1049 C 0.11577 0.74582 0.56204 0.0
C1050 C 0.10462 0.75194 0.57465 0.0
C1051 C 0.11107 0.77171 0.57749 0.0
C1052 C 0.12835 0.78516 0.56796 0.0
C1053 C 0.20076 0.83918 0.56872 0.0
C1054 C 0.19506 0.85205 0.57725 0.0
C1055 C 0.20737 0.86831 0.59204 0.0
C1056 C 0.22553 0.87178 0.59953 0.0
C1057 C 0.23086 0.85829 0.59165 0.0
C1058 C 0.21869 0.84231 0.5761 0.0
C1059 C 0.18799 0.82291 0.55138 0.0
C1060 C 0.17107 0.80815 0.5605 0.0
C1061 C 0.19164 0.82271 0.5256 0.0
C1062 C 0.20811 0.83891 0.51411 0.0
C1063 C 0.21033 0.85739 0.51546 0.0
C1064 C 0.22417 0.87215 0.50179 0.0
C1065 C 0.23576 0.86862 0.48591 0.0
C1066 C 0.23396 0.85025 0.4852 0.0
C1067 C 0.22021 0.8355 0.49917 0.0
H1068 H 0.13743 0.34372 0.49631 0.0
H1069 H 0.11425 0.34226 0.46524 0.0
H1070 H 0.12912 0.40044 0.48689 0.0
H1071 H 0.15218 0.40166 0.51839 0.0
H1072 H 0.17856 0.37734 0.49306 0.0
H1073 H 0.12607 0.34173 0.54573 0.0
H1074 H 0.09811 0.33428 0.56959 0.0
H1075 H 0.13031 0.38788 0.61256 0.0
H1076 H 0.15836 0.39514 0.58866 0.0
H1077 H 0.2305 0.40237 0.55666 0.0
H1078 H 0.25543 0.40041 0.58066 0.0
H1079 H 0.21355 0.34539 0.60786 0.0
H1080 H 0.18877 0.34738 0.58388 0.0
H1081 H 0.17598 0.37251 0.58568 0.0
H1082 H 0.21489 0.40236 0.4918 0.0
H1083 H 0.23568 0.39886 0.46236 0.0
H1084 H 0.22672 0.34778 0.49962 0.0
H1085 H 0.20509 0.35068 0.52784 0.0
C1086 C 0.14637 0.37274 0.50965 0.0
C1087 C 0.13534 0.35597 0.49477 0.0
C1088 C 0.12208 0.35515 0.47712 0.0
C1089 C 0.1199 0.37124 0.47369 0.0
C1090 C 0.13056 0.38786 0.48917 0.0
C1091 C 0.14364 0.38855 0.50717 0.0
C1092 C 0.1622 0.37437 0.52546 0.0
C1093 C 0.17825 0.37669 0.51339 0.0
C1094 C 0.16137 0.37294 0.55178 0.0
C1095 C 0.1442 0.36911 0.56521 0.0
C1096 C 0.12701 0.35205 0.55995 0.0
C1097 C 0.11103 0.34781 0.57362 0.0
C1098 C 0.11197 0.36051 0.59294 0.0
C1099 C 0.12918 0.37771 0.59798 0.0
C1100 C 0.14518 0.38192 0.58429 0.0
C1101 C 0.20778 0.37501 0.56846 0.0
C1102 C 0.22671 0.38991 0.56783 0.0
C1103 C 0.24091 0.38881 0.5816 0.0
C1104 C 0.23644 0.37269 0.59601 0.0
C1105 C 0.21745 0.35787 0.59669 0.0
C1106 C 0.20326 0.35908 0.58319 0.0
C1107 C 0.19264 0.37564 0.5533 0.0
C1108 C 0.17672 0.37385 0.56546 0.0
C1109 C 0.19338 0.37708 0.52685 0.0
C1110 C 0.20854 0.37688 0.51218 0.0
C1111 C 0.21763 0.39055 0.4938 0.0
C1112 C 0.22958 0.38859 0.47706 0.0
C1113 C 0.23269 0.37291 0.47844 0.0
C1114 C 0.22433 0.35981 0.4977 0.0
C1115 C 0.21222 0.36165 0.51421 0.0
H1116 H 0.00705 0.37807 0.06033 0.0
H1117 H 0.94712 0.34561 0.0421 0.0
H1118 H 0.94122 0.36365 0.07467 0.0
H1119 H 0.95341 0.39119 0.10465 0.0
H1120 H 0.01346 0.42472 0.12179 0.0
H1121 H 0.01899 0.40388 0.09332 0.0
C1122 C 0.99267 0.37462 0.06398 0.0
C1123 C 0.97755 0.36053 0.04883 0.0
C1124 C 0.98943 0.38553 0.0822 0.0
C1125 C 0.95901 0.35642 0.05349 0.0
C1126 C 0.95562 0.3668 0.07202 0.0
C1127 C 0.96767 0.39371 0.10256 0.0
C1128 C 0.983 0.40963 0.11516 0.0
C1129 C 0.97078 0.3818 0.08593 0.0
C1130 C 0.00142 0.41278 0.11197 0.0
C1131 C 0.0046 0.40081 0.09578 0.0
H1132 H 0.62729 0.58523 0.06469 0.0
H1133 H 0.6195 0.62734 0.10641 0.0
H1134 H 0.5995 0.60294 0.13557 0.0
H1135 H 0.58512 0.57009 0.14999 0.0
H1136 H 0.59075 0.5272 0.10663 0.0
H1137 H 0.61125 0.55167 0.0779 0.0
C1138 C 0.62112 0.58902 0.08009 0.0
C1139 C 0.62489 0.60806 0.08339 0.0
C1140 C 0.60951 0.57489 0.09674 0.0
C1141 C 0.61674 0.61276 0.10336 0.0
C1142 C 0.60539 0.59885 0.12014 0.0
C1143 C 0.59054 0.56593 0.13406 0.0
C1144 C 0.58635 0.54674 0.13066 0.0
C1145 C 0.60178 0.57991 0.11709 0.0
C1146 C 0.59398 0.54188 0.11015 0.0
C1147 C 0.60556 0.55584 0.09349 0.0
H1148 H 0.37151 0.99204 0.05674 0.0
H1149 H 0.41969 0.02486 0.01077 0.0
H1150 H 0.44106 0.03182 0.04701 0.0
H1151 H 0.44628 0.02657 0.09082 0.0
H1152 H 0.39832 0.99404 0.13712 0.0
H1153 H 0.37673 0.98888 0.10157 0.0
C1154 C 0.38667 0.00088 0.05465 0.0
C1155 C 0.39391 0.00776 0.03089 0.0
C1156 C 0.39898 0.00474 0.07558 0.0
C1157 C 0.41364 0.01926 0.0287 0.0
C1158 C 0.42592 0.02324 0.04944 0.0
C1159 C 0.43111 0.0187 0.09336 0.0
C1160 C 0.42399 0.01063 0.11666 0.0
C1161 C 0.41877 0.01578 0.07285 0.0
C1162 C 0.40424 0.00017 0.11933 0.0
C1163 C 0.39187 0.99727 0.09903 0.0
H1164 H 0.35817 0.96003 0.91148 0.0
H1165 H 0.37692 0.94706 0.98064 0.0
H1166 H 0.4016 0.94427 0.95835 0.0
H1167 H 0.41981 0.94913 0.91978 0.0
H1168 H 0.4001 0.96143 0.85078 0.0
H1169 H 0.37356 0.96067 0.8723 0.0
C1170 C 0.36746 0.95623 0.92153 0.0
C1171 C 0.36596 0.95388 0.94755 0.0
C1172 C 0.38145 0.95469 0.90865 0.0
C1173 C 0.37786 0.94881 0.96052 0.0
C1174 C 0.39201 0.94739 0.94782 0.0
C1175 C 0.40951 0.95137 0.9095 0.0
C1176 C 0.41189 0.95549 0.88386 0.0
C1177 C 0.39426 0.95085 0.92201 0.0
C1178 C 0.39844 0.95817 0.87052 0.0
C1179 C 0.38337 0.95784 0.88282 0.0
H1180 H 0.04259 0.39903 0.9455 0.0
H1181 H 0.98543 0.37825 0.96871 0.0
H1182 H 0.98421 0.40397 0.94671 0.0
H1183 H -0.00111 0.43156 0.9198 0.0
H1184 H 0.05518 0.45113 0.89345 0.0
H1185 H 0.05744 0.42705 0.91821 0.0
C1186 C 0.02997 0.40032 0.94585 0.0
C1187 C 0.01405 0.38675 0.95842 0.0
C1188 C 0.02923 0.41492 0.93263 0.0
C1189 C 0.99771 0.38836 0.95873 0.0
C1190 C 0.99704 0.40311 0.94626 0.0
C1191 C 0.01159 0.43045 0.91915 0.0
C1192 C 0.02676 0.44308 0.90454 0.0
C1193 C 0.0126 0.41626 0.93282 0.0
C1194 C 0.04332 0.44174 0.90465 0.0
C1195 C 0.04459 0.42788 0.91869 0.0
H1196 H 0.59302 0.64227 0.98398 0.0
H1197 H 0.62292 0.61099 0.97506 0.0
H1198 H 0.60339 0.5941 0.93754 0.0
H1199 H 0.57633 0.5865 0.90942 0.0
H1200 H 0.54845 0.62012 0.9156 0.0
H1201 H 0.5685 0.63755 0.95227 0.0
C1202 C 0.59533 0.63187 0.97366 0.0
C1203 C 0.60924 0.62773 0.98237 0.0
C1204 C 0.58428 0.62246 0.95182 0.0
C1205 C 0.61231 0.61443 0.96868 0.0
C1206 C 0.60109 0.60471 0.9473 0.0
C1207 C 0.57485 0.59795 0.91822 0.0
C1208 C 0.56049 0.60159 0.90974 0.0
C1209 C 0.58684 0.6084 0.93891 0.0
C1210 C 0.55886 0.61642 0.92198 0.0
C1211 C 0.57047 0.62658 0.94291 0.0
H1212 H 0.03807 0.63502 0.98719 0.0
H1213 H 0.98152 0.62196 0.96553 0.0
H1214 H 0.98104 0.60186 0.93009 0.0
H1215 H 0.99555 0.58545 0.90776 0.0
H1216 H 0.05244 0.5994 0.92845 0.0
H1217 H 0.05403 0.6218 0.96167 0.0
C1218 C 0.02574 0.62798 0.9745 0.0
C1219 C 0.00977 0.62981 0.97916 0.0
C1220 C 0.02559 0.6165 0.95411 0.0
C1221 C 0.994 0.62081 0.96237 0.0
C1222 C 0.99366 0.60921 0.94218 0.0
C1223 C 0.00835 0.59363 0.91938 0.0
C1224 C 0.02381 0.59075 0.91593 0.0
C1225 C 0.00918 0.60656 0.93827 0.0
C1226 C 0.04042 0.60148 0.93082 0.0
C1227 C 0.04128 0.61419 0.94986 0.0
H1228 H 0.40217 0.39784 0.94893 0.0
H1229 H 0.35646 0.41011 0.94993 0.0
H1230 H 0.37478 0.43848 0.92481 0.0
H1231 H 0.40291 0.45818 0.89986 0.0
H1232 H 0.44867 0.44574 0.90035 0.0
H1233 H 0.43096 0.41868 0.9271 0.0
C1234 C 0.39615 0.4066 0.94353 0.0
C1235 C 0.37787 0.40167 0.95074 0.0
C1236 C 0.40668 0.42271 0.92911 0.0
C1237 C 0.37054 0.41363 0.94447 0.0
C1238 C 0.38095 0.42976 0.93001 0.0
C1239 C 0.4091 0.4497 0.90608 0.0
C1240 C 0.42694 0.45376 0.89762 0.0
C1241 C 0.39891 0.43422 0.92182 0.0
C1242 C 0.43474 0.4426 0.9059 0.0
C1243 C 0.4247 0.42721 0.92141 0.0
H1244 H 0.61895 0.00044 0.96793 0.0
H1245 H 0.57507 0.94741 0.99728 0.0
H1246 H 0.55503 0.94205 0.95988 0.0
H1247 H 0.54892 0.95382 0.92049 0.0
H1248 H 0.59192 0.00789 0.89275 0.0
H1249 H 0.61346 0.0114 0.92771 0.0
C1250 C 0.60511 0.98757 0.96602 0.0
C1251 C 0.59851 0.97439 0.98545 0.0
C1252 C 0.59347 0.98482 0.94477 0.0
C1253 C 0.58046 0.95786 0.9827 0.0
C1254 C 0.56898 0.95478 0.96131 0.0
C1255 C 0.56315 0.96616 0.92192 0.0
C1256 C 0.56893 0.98055 0.90415 0.0
C1257 C 0.57519 0.96834 0.94246 0.0
C1258 C 0.58724 0.99666 0.90631 0.0
C1259 C 0.5995 0.99868 0.92629 0.0
H1260 H 0.61852 0.00154 0.10808 0.0
H1261 H 0.61774 0.03883 0.05161 0.0
H1262 H 0.5939 0.04245 0.07472 0.0
H1263 H 0.57203 0.03333 0.10988 0.0
H1264 H 0.57435 0.99708 0.16691 0.0
H1265 H 0.59882 0.99462 0.14449 0.0
C1266 C 0.61315 0.0105 0.10083 0.0
C1267 C 0.61963 0.01972 0.07808 0.0
C1268 C 0.59968 0.01259 0.11423 0.0
C1269 C 0.61287 0.03156 0.0691 0.0
C1270 C 0.59924 0.03358 0.08226 0.0
C1271 C 0.5781 0.02515 0.11759 0.0
C1272 C 0.57112 0.01513 0.13982 0.0
C1273 C 0.59237 0.02396 0.10472 0.0
C1274 C 0.57911 0.00452 0.14951 0.0
C1275 C 0.59318 0.0032 0.1368 0.0
H1276 H 0.99426 0.62562 0.10124 0.0
H1277 H 0.95247 0.59045 0.0437 0.0
H1278 H 0.94856 0.56131 0.06303 0.0
H1279 H 0.95783 0.54604 0.09561 0.0
H1280 H 0.99778 0.58157 0.15501 0.0
H1281 H 0.00185 0.61035 0.13526 0.0
C1282 C 0.98428 0.61157 0.09294 0.0
C1283 C 0.97376 0.61015 0.07101 0.0
C1284 C 0.98191 0.59496 0.10435 0.0
C1285 C 0.9607 0.59187 0.06062 0.0
C1286 C 0.95852 0.57524 0.07162 0.0
C1287 C 0.96722 0.56002 0.10452 0.0
C1288 C 0.97766 0.56147 0.12668 0.0
C1289 C 0.96912 0.57661 0.09345 0.0
C1290 C 0.98993 0.57987 0.13762 0.0
C1291 C 0.99215 0.59641 0.12647 0.0
H1292 H 0.42807 0.38322 0.0242 0.0
H1293 H 0.3769 0.37048 0.06198 0.0
H1294 H 0.39497 0.38303 0.10166 0.0
H1295 H 0.42556 0.39901 0.12528 0.0
H1296 H 0.47668 0.41264 0.08676 0.0
H1297 H 0.45826 0.39797 0.04796 0.0
C1298 C 0.42079 0.38307 0.0411 0.0
C1299 C 0.40113 0.37601 0.03996 0.0
C1300 C 0.43126 0.39042 0.06383 0.0
C1301 C 0.39201 0.37587 0.06218 0.0
C1302 C 0.40234 0.38307 0.08493 0.0
C1303 C 0.43267 0.39877 0.1084 0.0
C1304 C 0.45251 0.40694 0.10905 0.0
C1305 C 0.42202 0.39062 0.0859 0.0
C1306 C 0.46143 0.40622 0.08703 0.0
C1307 C 0.45092 0.39799 0.0647 0.0
H1308 H 0.67754 0.70734 0.39793 0.0
H1309 H 0.63343 0.70568 0.34986 0.0
H1310 H 0.62574 0.7219 0.38256 0.0
H1311 H 0.63291 0.73877 0.42323 0.0
H1312 H 0.67607 0.73999 0.47265 0.0
H1313 H 0.68286 0.72204 0.44086 0.0
C1314 C 0.66609 0.7103 0.39473 0.0
C1315 C 0.65626 0.7054 0.37125 0.0
C1316 C 0.66169 0.71982 0.41373 0.0
C1317 C 0.64143 0.70938 0.36755 0.0
C1318 C 0.63698 0.71871 0.38628 0.0
C1319 C 0.64351 0.73477 0.42745 0.0
C1320 C 0.65397 0.74087 0.45041 0.0
C1321 C 0.64722 0.7243 0.40923 0.0
C1322 C 0.66796 0.73582 0.45503 0.0
C1323 C 0.6718 0.72544 0.43688 0.0
H1324 H 0.29966 0.93102 0.41978 0.0
H1325 H 0.25618 0.94584 0.4075 0.0
H1326 H 0.23452 0.91919 0.43269 0.0
H1327 H 0.2283 0.89251 0.45934 0.0
H1328 H 0.27201 0.8783 0.47394 0.0
H1329 H 0.29314 0.90363 0.4463 0.0
C1330 C 0.28537 0.92823 0.42245 0.0
C1331 C 0.27955 0.94046 0.41208 0.0
C1332 C 0.27309 0.91305 0.43739 0.0
C1333 C 0.26108 0.93686 0.41572 0.0
C1334 C 0.24867 0.92156 0.43003 0.0
C1335 C 0.24254 0.89508 0.45676 0.0
C1336 C 0.24866 0.88371 0.46896 0.0
C1337 C 0.25464 0.90981 0.44129 0.0
C1338 C 0.26694 0.88684 0.46473 0.0
C1339 C 0.27904 0.90136 0.44902 0.0
H1340 H 0.0847 0.37745 0.37068 0.0
H1341 H 0.0385 0.32306 0.39314 0.0
H1342 H 0.05496 0.32655 0.43337 0.0
H1343 H 0.0837 0.3438 0.46072 0.0
H1344 H 0.12959 0.39837 0.4385 0.0
H1345 H 0.11193 0.39622 0.39984 0.0
C1346 C 0.07816 0.36643 0.38447 0.0
C1347 C 0.06051 0.34991 0.37877 0.0
C1348 C 0.08766 0.36856 0.40761 0.0
C1349 C 0.05209 0.33592 0.397 0.0
C1350 C 0.06153 0.33786 0.41999 0.0
C1351 C 0.08969 0.3553 0.44751 0.0
C1352 C 0.10793 0.37115 0.45234 0.0
C1353 C 0.07948 0.35392 0.42528 0.0
C1354 C 0.1155 0.38608 0.43526 0.0
C1355 C 0.10548 0.38479 0.41306 0.0
H1356 H 0.04266 0.31788 0.249 0.0
H1357 H 0.04752 0.28921 0.31375 0.0
H1358 H 0.06886 0.28121 0.29126 0.0
H1359 H 0.08703 0.28363 0.25338 0.0
H1360 H 0.07988 0.31029 0.18793 0.0
H1361 H 0.05827 0.3177 0.21033 0.0
C1362 C 0.04841 0.30987 0.25814 0.0
C1363 C 0.04388 0.30435 0.283 0.0
C1364 C 0.06011 0.30492 0.24491 0.0
C1365 C 0.05098 0.29364 0.2946 0.0
C1366 C 0.06314 0.28911 0.28177 0.0
C1367 C 0.08051 0.29086 0.24408 0.0
C1368 C 0.08493 0.29648 0.21919 0.0
C1369 C 0.06791 0.29481 0.25697 0.0
C1370 C 0.07647 0.30576 0.20707 0.0
C1371 C 0.06426 0.31009 0.21988 0.0
H1372 H 0.67598 0.72326 0.28712 0.0
H1373 H 0.73556 0.74211 0.28879 0.0
H1374 H 0.74166 0.76993 0.26396 0.0
H1375 H 0.7295 0.78762 0.23957 0.0
H1376 H 0.66966 0.76835 0.23919 0.0
H1377 H 0.66412 0.74157 0.2651 0.0
C1378 C 0.69025 0.73325 0.28177 0.0
C1379 C 0.70521 0.73037 0.28917 0.0
C1380 C 0.69356 0.74903 0.26751 0.0
C1381 C 0.72379 0.74401 0.28314 0.0
C1382 C 0.72725 0.75983 0.26886 0.0
C1383 C 0.71529 0.77768 0.24537 0.0
C1384 C 0.69998 0.77986 0.23699 0.0
C1385 C 0.71218 0.76233 0.26061 0.0
C1386 C 0.68165 0.76678 0.24471 0.0
C1387 C 0.67846 0.75152 0.25974 0.0
H1388 H 0.24783 0.97607 0.3151 0.0
H1389 H 0.27996 0.94689 0.30918 0.0
H1390 H 0.26169 0.92945 0.27109 0.0
H1391 H 0.235 0.92065 0.24179 0.0
H1392 H 0.20525 0.9526 0.24457 0.0
H1393 H 0.22396 0.97048 0.28187 0.0
C1394 C 0.25093 0.96604 0.30525 0.0
C1395 C 0.26507 0.96262 0.31497 0.0
C1396 C 0.24063 0.95634 0.28308 0.0
C1397 C 0.26916 0.94979 0.30196 0.0
C1398 C 0.25865 0.93974 0.28028 0.0
C1399 C 0.23281 0.93184 0.24994 0.0
C1400 C 0.21827 0.9348 0.24033 0.0
C1401 C 0.24414 0.94268 0.2709 0.0
C1402 C 0.21576 0.94933 0.25182 0.0
C1403 C 0.22662 0.95979 0.27311 0.0
H1404 H 0.66133 0.94889 0.2942 0.0
H1405 H 0.71873 0.97552 0.32419 0.0
H1406 H 0.72715 0.9607 0.29009 0.0
H1407 H 0.71741 0.93742 0.25448 0.0
H1408 H 0.65956 0.90898 0.22604 0.0
H1409 H 0.6521 0.92721 0.25663 0.0
C1410 C 0.67576 0.95176 0.29292 0.0
C1411 C 0.68937 0.96326 0.31169 0.0
C1412 C 0.68036 0.94264 0.2737 0.0
C1413 C 0.70797 0.96664 0.31001 0.0
C1414 C 0.7128 0.95813 0.29056 0.0
C1415 C 0.70328 0.93552 0.25468 0.0
C1416 C 0.68905 0.92186 0.23813 0.0
C1417 C 0.69899 0.94569 0.27271 0.0
C1418 C 0.67071 0.91932 0.23879 0.0
C1419 C 0.66645 0.92974 0.25624 0.0
H1420 H 0.04286 0.7187 0.23995 0.0
H1421 H 0.04323 0.75411 0.30225 0.0
H1422 H 0.06338 0.78318 0.27928 0.0
H1423 H 0.08156 0.79833 0.2419 0.0
H1424 H 0.07891 0.76243 0.17852 0.0
H1425 H 0.0591 0.73371 0.20168 0.0
C1426 C 0.0474 0.73279 0.24852 0.0
C1427 C 0.04177 0.73434 0.27279 0.0
C1428 C 0.05859 0.74931 0.23505 0.0
C1429 C 0.04744 0.75262 0.28355 0.0
C1430 C 0.05895 0.76921 0.27045 0.0
C1431 C 0.07641 0.78425 0.23295 0.0
C1432 C 0.08198 0.78263 0.20856 0.0
C1433 C 0.06465 0.76771 0.24619 0.0
C1434 C 0.07528 0.76418 0.19746 0.0
C1435 C 0.06383 0.74771 0.21063 0.0
H1436 H 0.25012 0.30135 0.32527 0.0
H1437 H 0.30114 0.34056 0.28799 0.0
H1438 H 0.28341 0.33244 0.24788 0.0
H1439 H 0.25301 0.31574 0.22385 0.0
H1440 H 0.2019 0.27815 0.26224 0.0
H1441 H 0.22022 0.28372 0.30112 0.0
C1442 C 0.25746 0.30803 0.30838 0.0
C1443 C 0.27694 0.32167 0.3098 0.0
C1444 C 0.24715 0.30352 0.28543 0.0
C1445 C 0.28614 0.33009 0.28758 0.0
C1446 C 0.276 0.32546 0.26459 0.0
C1447 C 0.24585 0.30875 0.2407 0.0
C1448 C 0.22603 0.29653 0.23991 0.0
C1449 C 0.25642 0.31247 0.26337 0.0
C1450 C 0.21713 0.28735 0.26195 0.0
C1451 C 0.22758 0.2907 0.28438 0.0
H1452 H 0.27106 0.34374 0.40131 0.0
H1453 H 0.31188 0.40432 0.40056 0.0
H1454 H 0.29229 0.41125 0.42849 0.0
H1455 H 0.2651 0.3995 0.45639 0.0
H1456 H 0.22454 0.33859 0.45634 0.0
H1457 H 0.2429 0.33229 0.42607 0.0
C1458 C 0.27572 0.35844 0.40728 0.0
C1459 C 0.29304 0.37344 0.3994 0.0
C1460 C 0.26462 0.3622 0.42357 0.0
C1461 C 0.29855 0.39253 0.40646 0.0
C1462 C 0.28745 0.39646 0.4226 0.0
C1463 C 0.26016 0.38489 0.44953 0.0
C1464 C 0.24367 0.36951 0.45909 0.0
C1465 C 0.27069 0.38134 0.4318 0.0
C1466 C 0.23748 0.35065 0.44995 0.0
C1467 C 0.24786 0.34703 0.43241 0.0
H1468 H 0.67165 0.94195 0.39978 0.0
H1469 H 0.61161 0.92096 0.39619 0.0
H1470 H 0.60596 0.89266 0.4195 0.0
H1471 H 0.61849 0.87513 0.44328 0.0
H1472 H 0.6787 0.89617 0.44524 0.0
H1473 H 0.68392 0.92347 0.42061 0.0
C1474 C 0.65736 0.93131 0.40426 0.0
C1475 C 0.64213 0.93375 0.3968 0.0
C1476 C 0.65427 0.91517 0.41755 0.0
C1477 C 0.62359 0.91941 0.40188 0.0
C1478 C 0.62037 0.90329 0.41528 0.0
C1479 C 0.63272 0.88553 0.43802 0.0
C1480 C 0.6482 0.88373 0.44654 0.0
C1481 C 0.63565 0.90117 0.42353 0.0
C1482 C 0.66656 0.89743 0.43956 0.0
C1483 C 0.66957 0.913 0.42531 0.0
H1484 H 0.05559 0.7279 0.37219 0.0
H1485 H 0.08276 0.69528 0.35328 0.0
H1486 H 0.10352 0.70852 0.391 0.0
H1487 H 0.1143 0.72993 0.42863 0.0
H1488 H 0.09011 0.76626 0.4434 0.0
H1489 H 0.06753 0.75057 0.40861 0.0
C1490 C 0.06595 0.72358 0.37653 0.0
C1491 C 0.06759 0.71053 0.36027 0.0
C1492 C 0.07831 0.73185 0.3976 0.0
C1493 C 0.08128 0.7053 0.36567 0.0
C1494 C 0.09312 0.71287 0.38718 0.0
C1495 C 0.10434 0.73472 0.42419 0.0
C1496 C 0.10404 0.74928 0.4392 0.0
C1497 C 0.09191 0.72634 0.40315 0.0
C1498 C 0.09055 0.75477 0.43302 0.0
C1499 C 0.07767 0.74595 0.41278 0.0
H1500 H 0.29443 0.02504 0.71016 0.0
H1501 H 0.35544 0.05411 0.7159 0.0
H1502 H 0.35552 0.07439 0.75088 0.0
H1503 H 0.33843 0.08616 0.7764 0.0
H1504 H 0.27716 0.0551 0.7732 0.0
H1505 H 0.27713 0.03362 0.7403 0.0
C1506 C 0.30772 0.0356 0.71938 0.0
C1507 C 0.3249 0.03818 0.71033 0.0
C1508 C 0.30766 0.04715 0.73956 0.0
C1509 C 0.34201 0.05177 0.72259 0.0
C1510 C 0.34207 0.0635 0.74245 0.0
C1511 C 0.32499 0.07445 0.76912 0.0
C1512 C 0.30783 0.07278 0.77709 0.0
C1513 C 0.32499 0.06165 0.75065 0.0
C1514 C 0.29067 0.05741 0.76694 0.0
C1515 C 0.29059 0.0449 0.74824 0.0
H1516 H 0.9352 0.27189 0.74959 0.0
H1517 H 0.97474 0.25121 0.74473 0.0
H1518 H 0.95423 0.22368 0.76979 0.0
H1519 H 0.92598 0.20664 0.79503 0.0
H1520 H 0.88542 0.22633 0.79696 0.0
H1521 H 0.90573 0.2534 0.7716 0.0
C1522 C 0.93932 0.26135 0.75388 0.0
C1523 C 0.95654 0.26369 0.7455 0.0
C1524 C 0.92742 0.24554 0.7681 0.0
C1525 C 0.96151 0.24971 0.75094 0.0
C1526 C 0.94984 0.23403 0.76538 0.0
C1527 C 0.92138 0.21663 0.78962 0.0
C1528 C 0.90427 0.2145 0.79841 0.0
C1529 C 0.93287 0.23193 0.77433 0.0
C1530 C 0.89875 0.22783 0.79126 0.0
C1531 C 0.91027 0.24325 0.77647 0.0
H1532 H 0.71455 0.66397 0.72116 0.0
H1533 H 0.76003 0.69311 0.6699 0.0
H1534 H 0.78316 0.70399 0.70479 0.0
H1535 H 0.7907 0.70425 0.74948 0.0
H1536 H 0.74554 0.67556 0.80114 0.0
H1537 H 0.72212 0.66541 0.76641 0.0
C1538 C 0.72951 0.67274 0.71759 0.0
C1539 C 0.73546 0.67761 0.69282 0.0
C1540 C 0.74284 0.679 0.7378 0.0
C1541 C 0.75495 0.68908 0.68868 0.0
C1542 C 0.76824 0.69533 0.70865 0.0
C1543 C 0.77573 0.69608 0.75327 0.0
C1544 C 0.76992 0.69071 0.77794 0.0
C1545 C 0.76236 0.69029 0.73324 0.0
C1546 C 0.75044 0.67975 0.78232 0.0
C1547 C 0.73703 0.67398 0.76247 0.0
H1548 H 0.71363 0.61357 0.63589 0.0
H1549 H 0.69179 0.63039 0.57306 0.0
H1550 H 0.71185 0.62489 0.54465 0.0
H1551 H 0.73796 0.61876 0.53838 0.0
H1552 H 0.76226 0.60489 0.60138 0.0
H1553 H 0.73895 0.60567 0.62905 0.0
C1554 C 0.71307 0.61562 0.6159 0.0
C1555 C 0.70132 0.62231 0.60645 0.0
C1556 C 0.72523 0.61316 0.5998 0.0
C1557 C 0.70083 0.62527 0.58064 0.0
C1558 C 0.71229 0.62217 0.56442 0.0
C1559 C 0.73785 0.6155 0.55806 0.0
C1560 C 0.75167 0.61173 0.5679 0.0
C1561 C 0.72489 0.61661 0.57388 0.0
C1562 C 0.7517 0.60788 0.5935 0.0
C1563 C 0.73842 0.60835 0.60928 0.0
H1564 H 0.38361 0.07529 0.60861 0.0
H1565 H 0.32294 0.04925 0.61201 0.0
H1566 H 0.32403 0.0759 0.58962 0.0
H1567 H 0.34212 0.10643 0.56869 0.0
H1568 H 0.40258 0.13138 0.56236 0.0
H1569 H 0.40169 0.10558 0.58668 0.0
C1570 C 0.37065 0.07553 0.60458 0.0
C1571 C 0.35321 0.06027 0.61199 0.0
C1572 C 0.37134 0.09075 0.5912 0.0
C1573 C 0.33652 0.06067 0.60641 0.0
C1574 C 0.33714 0.07597 0.59362 0.0
C1575 C 0.3551 0.10616 0.57228 0.0
C1576 C 0.37239 0.12095 0.56362 0.0
C1577 C 0.35445 0.091 0.58574 0.0
C1578 C 0.38909 0.12044 0.56907 0.0
C1579 C 0.38859 0.10558 0.58285 0.0
H1580 H 0.92688 0.30277 0.64912 0.0
H1581 H 0.95999 0.27486 0.64039 0.0
H1582 H 0.94203 0.25844 0.60163 0.0
H1583 H 0.91491 0.24964 0.57289 0.0
H1584 H 0.8838 0.28005 0.57923 0.0
H1585 H 0.90284 0.29762 0.61649 0.0
C1586 C 0.9303 0.29329 0.6385 0.0
C1587 C 0.94458 0.28986 0.64767 0.0
C1588 C 0.9201 0.28411 0.61607 0.0
C1589 C 0.94908 0.27776 0.63364 0.0
C1590 C 0.93873 0.26827 0.61158 0.0
C1591 C 0.91251 0.26045 0.58184 0.0
C1592 C 0.89745 0.26301 0.57332 0.0
C1593 C 0.92393 0.27102 0.60292 0.0
C1594 C 0.89471 0.27709 0.58569 0.0
C1595 C 0.90575 0.28735 0.60695 0.0
H1596 H 0.37884 0.31301 0.64824 0.0
H1597 H 0.31813 0.28314 0.63688 0.0
H1598 H 0.32025 0.26423 0.60178 0.0
H1599 H 0.33907 0.25414 0.57734 0.0
H1600 H 0.40022 0.28665 0.58534 0.0
H1601 H 0.39809 0.30622 0.61912 0.0
C1602 C 0.36613 0.30256 0.63778 0.0
C1603 C 0.34835 0.29936 0.64519 0.0
C1604 C 0.36747 0.29194 0.61739 0.0
C1605 C 0.33198 0.28593 0.63141 0.0
C1606 C 0.33318 0.27501 0.61148 0.0
C1607 C 0.35206 0.26578 0.58581 0.0
C1608 C 0.36979 0.26837 0.57886 0.0
C1609 C 0.35083 0.27762 0.60465 0.0
C1610 C 0.38628 0.28358 0.5907 0.0
C1611 C 0.38513 0.29503 0.60993 0.0
H1612 H 0.71483 0.04723 0.58012 0.0
H1613 H 0.7135 0.08481 0.63817 0.0
H1614 H 0.73693 0.11294 0.61633 0.0
H1615 H 0.75773 0.12673 0.58077 0.0
H1616 H 0.75721 0.08897 0.52131 0.0
H1617 H 0.73479 0.06101 0.54395 0.0
C1618 C 0.71975 0.06158 0.58806 0.0
C1619 C 0.71255 0.06397 0.61075 0.0
C1620 C 0.73291 0.07763 0.5752 0.0
C1621 C 0.71884 0.08263 0.62068 0.0
C1622 C 0.73223 0.0987 0.60822 0.0
C1623 C 0.75255 0.11241 0.57256 0.0
C1624 C 0.75928 0.11003 0.54938 0.0
C1625 C 0.7393 0.09636 0.5854 0.0
C1626 C 0.7526 0.09129 0.53932 0.0
C1627 C 0.73965 0.07526 0.55217 0.0
H1628 H 0.95703 0.66397 0.62899 0.0
H1629 H 0.91016 0.63498 0.6783 0.0
H1630 H 0.88798 0.6236 0.64231 0.0
H1631 H 0.88162 0.62347 0.59731 0.0
H1632 H 0.92809 0.65239 0.5476 0.0
H1633 H 0.95067 0.66226 0.58335 0.0
C1634 C 0.94198 0.65507 0.63189 0.0
C1635 C 0.93534 0.65048 0.65644 0.0
C1636 C 0.92919 0.64862 0.61106 0.0
C1637 C 0.91575 0.63885 0.65972 0.0
C1638 C 0.903 0.63231 0.63912 0.0
C1639 C 0.8967 0.63157 0.59416 0.0
C1640 C 0.90313 0.63713 0.56977 0.0
C1641 C 0.90954 0.63729 0.61476 0.0
C1642 C 0.92274 0.64803 0.5662 0.0
C1643 C 0.93565 0.65366 0.58663 0.0
H1644 H 0.97484 0.70506 0.77105 0.0
H1645 H 0.95873 0.71882 0.70041 0.0
H1646 H 0.93697 0.72672 0.72191 0.0
H1647 H 0.92027 0.7263 0.76045 0.0
H1648 H 0.93743 0.71325 0.83094 0.0
H1649 H 0.96138 0.70878 0.80995 0.0
C1650 C 0.96673 0.71006 0.76046 0.0
C1651 C 0.96808 0.71118 0.73429 0.0
C1652 C 0.95449 0.71464 0.77292 0.0
C1653 C 0.95782 0.7179 0.72064 0.0
C1654 C 0.94535 0.72229 0.7329 0.0
C1655 C 0.92951 0.72279 0.77117 0.0
C1656 C 0.9271 0.71996 0.79709 0.0
C1657 C 0.94323 0.72022 0.75895 0.0
C1658 C 0.93917 0.71559 0.81098 0.0
C1659 C 0.95273 0.7129 0.79898 0.0
H1660 H 0.33245 0.29221 0.76741 0.0
H1661 H 0.29148 0.25583 0.70973 0.0
H1662 H 0.28802 0.2272 0.72989 0.0
H1663 H 0.29686 0.2126 0.76373 0.0
H1664 H 0.33583 0.24912 0.82335 0.0
H1665 H 0.34007 0.27754 0.80233 0.0
C1666 C 0.32282 0.278 0.75922 0.0
C1667 C 0.31231 0.27611 0.73707 0.0
C1668 C 0.3206 0.26162 0.77119 0.0
C1669 C 0.2997 0.25764 0.72681 0.0
C1670 C 0.29774 0.24127 0.73831 0.0
C1671 C 0.30609 0.22672 0.77238 0.0
C1672 C 0.31614 0.22857 0.79506 0.0
C1673 C 0.30809 0.24309 0.76056 0.0
C1674 C 0.32824 0.24714 0.80564 0.0
C1675 C 0.33057 0.26347 0.79374 0.0
H1676 H 0.71527 0.04943 0.71369 0.0
H1677 H 0.74488 0.02003 0.69067 0.0
H1678 H 0.76553 0.03263 0.72848 0.0
H1679 H 0.77605 0.05321 0.7669 0.0
H1680 H 0.74883 0.08594 0.78639 0.0
H1681 H 0.72606 0.0703 0.75173 0.0
C1682 C 0.72609 0.04558 0.71714 0.0
C1683 C 0.7285 0.03375 0.69952 0.0
C1684 C 0.73833 0.05343 0.73837 0.0
C1685 C 0.74278 0.02914 0.70398 0.0
C1686 C 0.75458 0.03634 0.72557 0.0
C1687 C 0.76531 0.05715 0.76355 0.0
C1688 C 0.76435 0.07082 0.77963 0.0
C1689 C 0.75269 0.04879 0.74269 0.0
C1690 C 0.74987 0.07521 0.775 0.0
C1691 C 0.73687 0.06642 0.75486 0.0
H1692 H 0.05841 0.34505 0.0481 0.0
H1693 H 0.0255 0.28506 0.0247 0.0
H1694 H 0.04695 0.27811 0.04882 0.0
H1695 H 0.07549 0.2891 0.07547 0.0
H1696 H 0.1098 0.34941 0.09672 0.0
H1697 H 0.08721 0.35608 0.07499 0.0
C1698 C 0.05585 0.33043 0.04849 0.0
C1699 C 0.04037 0.3156 0.03461 0.0
C1700 C 0.06851 0.32657 0.06201 0.0
C1701 C 0.03735 0.29677 0.03512 0.0
C1702 C 0.04961 0.29277 0.04891 0.0
C1703 C 0.0782 0.30376 0.07517 0.0
C1704 C 0.09445 0.3187 0.08771 0.0
C1705 C 0.06537 0.30759 0.06215 0.0
C1706 C 0.09735 0.33753 0.08754 0.0
C1707 C 0.08448 0.34141 0.07494 0.0
H1708 H 0.68876 0.71253 0.07077 0.0
H1709 H 0.64346 0.71194 0.02721 0.0
H1710 H 0.65569 0.746 0.03865 0.0
H1711 H 0.67692 0.77443 0.06498 0.0
H1712 H 0.71838 0.77249 0.11477 0.0
H1713 H 0.71058 0.74138 0.09626 0.0
C1714 C 0.68194 0.72009 0.06326 0.0
C1715 C 0.66548 0.71002 0.04791 0.0
C1716 C 0.68832 0.7392 0.07125 0.0
C1717 C 0.65632 0.71962 0.03881 0.0
C1718 C 0.66323 0.73899 0.04551 0.0
C1719 C 0.6842 0.76723 0.07205 0.0
C1720 C 0.69808 0.77593 0.09165 0.0
C1721 C 0.67881 0.7487 0.06247 0.0
C1722 C 0.7078 0.76649 0.09962 0.0
C1723 C 0.70319 0.74849 0.08922 0.0
H1724 H 0.29128 0.96819 0.03906 0.0
H1725 H 0.31321 0.93563 0.07587 0.0
H1726 H 0.28602 0.92174 0.10298 0.0
H1727 H 0.25453 0.91636 0.11314 0.0
H1728 H 0.23217 0.94813 0.07544 0.0
H1729 H 0.26125 0.96515 0.05209 0.0
C1730 C 0.29023 0.95821 0.05319 0.0
C1731 C 0.3041 0.95271 0.05515 0.0
C1732 C 0.27447 0.95012 0.0685 0.0
C1733 C 0.30266 0.93999 0.07381 0.0
C1734 C 0.28709 0.932 0.08928 0.0
C1735 C 0.25612 0.92714 0.09994 0.0
C1736 C 0.24117 0.93082 0.09574 0.0
C1737 C 0.27268 0.93655 0.08629 0.0
C1738 C 0.24351 0.94508 0.07902 0.0
C1739 C 0.26006 0.95469 0.06553 0.0
H1740 H 0.36639 0.04919 0.94035 0.0
H1741 H 0.31291 0.01446 0.97536 0.0
H1742 H 0.3021 0.03633 0.96152 0.0
H1743 H 0.30721 0.06429 0.93702 0.0
H1744 H 0.36066 0.09816 0.90165 0.0
H1745 H 0.37205 0.07755 0.91801 0.0
C1746 C 0.35241 0.04642 0.94519 0.0
C1747 C 0.34044 0.03009 0.95869 0.0
C1748 C 0.3462 0.05882 0.93688 0.0
C1749 C 0.32244 0.02692 0.96498 0.0
C1750 C 0.31619 0.03935 0.95692 0.0
C1751 C 0.32132 0.06708 0.93293 0.0
C1752 C 0.33308 0.08269 0.91817 0.0
C1753 C 0.32781 0.05512 0.9424 0.0
C1754 C 0.35142 0.08634 0.91318 0.0
C1755 C 0.35793 0.07453 0.92246 0.0
H1756 H 0.93176 0.2788 0.99282 0.0
H1757 H 0.98024 0.27886 0.96206 0.0
H1758 H 0.95995 0.24604 0.94488 0.0
H1759 H 0.92798 0.21963 0.93352 0.0
H1760 H 0.87985 0.21797 0.96879 0.0
H1761 H 0.9005 0.24926 0.98895 0.0
C1762 C 0.93789 0.27135 0.983 0.0
C1763 C 0.95736 0.28114 0.97855 0.0
C1764 C 0.92618 0.25246 0.97339 0.0
C1765 C 0.96527 0.27147 0.96586 0.0
C1766 C 0.95364 0.2528 0.9558 0.0
C1767 C 0.92189 0.22566 0.94614 0.0
C1768 C 0.90206 0.2165 0.94854 0.0
C1769 C 0.93397 0.24343 0.95869 0.0
C1770 C 0.89482 0.22492 0.96525 0.0
C1771 C 0.90668 0.2428 0.97718 0.0
H1772 H 0.73056 0.70252 1.00059 0.0
H1773 H 0.69482 0.64286 0.97696 0.0
H1774 H 0.71806 0.64578 0.94661 0.0
H1775 H 0.74888 0.66502 0.92747 0.0
H1776 H 0.7846 0.72463 0.95098 0.0
H1777 H 0.7609 0.72204 0.98046 0.0
C1778 C 0.72783 0.69016 0.98878 0.0
C1779 C 0.71103 0.67248 0.99117 0.0
C1780 C 0.74122 0.69193 0.97129 0.0
C1781 C 0.70765 0.65665 0.97556 0.0
C1782 C 0.72094 0.65828 0.9582 0.0
C1783 C 0.75147 0.67741 0.93911 0.0
C1784 C 0.76847 0.69495 0.93714 0.0
C1785 C 0.73783 0.6758 0.95605 0.0
C1786 C 0.77153 0.711 0.95201 0.0
C1787 C 0.75805 0.70951 0.96897 0.0
H1788 H 0.96266 0.68988 0.98404 0.0
H1789 H 0.92961 0.6301 0.95957 0.0
H1790 H 0.90901 0.63724 0.93388 0.0
H1791 H 0.89938 0.66001 0.91985 0.0
H1792 H 0.93265 0.71997 0.94334 0.0
H1793 H 0.95391 0.7131 0.96816 0.0
C1794 C 0.95104 0.67843 0.97296 0.0
C1795 C 0.94769 0.65946 0.97388 0.0
C1796 C 0.93912 0.68261 0.95821 0.0
C1797 C 0.93255 0.64483 0.95933 0.0
C1798 C 0.9207 0.64888 0.94463 0.0
C1799 C 0.91144 0.67168 0.93005 0.0
C1800 C 0.91429 0.69048 0.92973 0.0
C1801 C 0.92373 0.66767 0.94412 0.0
C1802 C 0.92987 0.70529 0.94351 0.0
C1803 C 0.94213 0.7014 0.95761 0.0
H1804 H 0.32517 0.2871 0.96828 0.0
H1805 H 0.38464 0.30736 0.95908 0.0
H1806 H 0.37727 0.2755 0.94378 0.0
H1807 H 0.35402 0.24319 0.92863 0.0
H1808 H 0.29441 0.22213 0.93774 0.0
H1809 H 0.30178 0.25315 0.95699 0.0
C1810 C 0.33652 0.28441 0.96345 0.0
C1811 C 0.35541 0.29964 0.96461 0.0
C1812 C 0.33216 0.26605 0.95412 0.0
C1813 C 0.36996 0.29595 0.95814 0.0
C1814 C 0.36577 0.27774 0.9493 0.0
C1815 C 0.34259 0.24511 0.93536 0.0
C1816 C 0.32367 0.23029 0.93156 0.0
C1817 C 0.34691 0.26286 0.94653 0.0
C1818 C 0.3091 0.23337 0.93997 0.0
C1819 C 0.31331 0.25107 0.95115 0.0
H1820 H 0.71948 0.01598 0.99475 0.0
H1821 H 0.68502 0.03965 0.96928 0.0
H1822 H 0.70861 0.05861 0.93891 0.0
H1823 H 0.74002 0.07038 0.92186 0.0
H1824 H 0.7749 0.04737 0.94743 0.0
H1825 H 0.74998 0.02594 0.97515 0.0
C1826 C 0.71706 0.02517 0.98242 0.0
C1827 C 0.70062 0.02658 0.98454 0.0
C1828 C 0.73074 0.03614 0.96502 0.0
C1829 C 0.69761 0.03839 0.96822 0.0
C1830 C 0.7111 0.04927 0.95083 0.0
C1831 C 0.74209 0.06057 0.93341 0.0
C1832 C 0.75929 0.06056 0.93288 0.0
C1833 C 0.72787 0.04855 0.94945 0.0
C1834 C 0.76172 0.04756 0.94752 0.0
C1835 C 0.74755 0.03543 0.96348 0.0
H1836 H 0.68093 0.97146 0.05607 0.0
H1837 H 0.62346 0.92405 0.04993 0.0
H1838 H 0.63393 0.90205 0.06414 0.0
H1839 H 0.65853 0.89727 0.08373 0.0
H1840 H 0.7155 0.94521 0.09375 0.0
H1841 H 0.70624 0.96596 0.07217 0.0
C1842 C 0.67081 0.95621 0.05716 0.0
C1843 C 0.65146 0.94934 0.05208 0.0
C1844 C 0.67681 0.94382 0.06642 0.0
C1845 C 0.63842 0.92962 0.05386 0.0
C1846 C 0.64438 0.91708 0.06211 0.0
C1847 C 0.66894 0.91225 0.08113 0.0
C1848 C 0.68757 0.91977 0.09073 0.0
C1849 C 0.66339 0.92419 0.06943 0.0
C1850 C 0.70104 0.93906 0.08656 0.0
C1851 C 0.69573 0.95096 0.07435 0.0
H1852 H 0.02747 0.72419 0.04265 0.0
H1853 H 0.06825 0.7053 0.0523 0.0
H1854 H 0.09285 0.73803 0.06376 0.0
H1855 H 0.10188 0.77096 0.07597 0.0
H1856 H 0.06179 0.7907 0.066 0.0
H1857 H 0.03783 0.75865 0.05011 0.0
C1858 C 0.04183 0.72732 0.04673 0.0
C1859 C 0.0459 0.71222 0.04691 0.0
C1860 C 0.05598 0.74625 0.05376 0.0
C1861 C 0.06461 0.71656 0.0523 0.0
C1862 C 0.07873 0.73529 0.05893 0.0
C1863 C 0.08811 0.76852 0.06971 0.0
C1864 C 0.0837 0.78331 0.07249 0.0
C1865 C 0.07443 0.75012 0.06047 0.0
C1866 C 0.06554 0.77955 0.06464 0.0
C1867 C 0.05183 0.76122 0.05538 0.0
H1868 H 0.27336 0.29803 0.01222 0.0
H1869 H 0.31541 0.34736 0.05628 0.0
H1870 H 0.29162 0.34335 0.08625 0.0
H1871 H 0.25847 0.32709 0.09868 0.0
H1872 H 0.21642 0.27755 0.0553 0.0
H1873 H 0.24059 0.2803 0.02643 0.0
C1874 C 0.27736 0.3078 0.02849 0.0
C1875 C 0.29611 0.32308 0.03181 0.0
C1876 C 0.26358 0.30544 0.04572 0.0
C1877 C 0.30107 0.33551 0.05314 0.0
C1878 C 0.28746 0.33328 0.0703 0.0
C1879 C 0.25468 0.31688 0.08294 0.0
C1880 C 0.23575 0.30225 0.07894 0.0
C1881 C 0.26862 0.31852 0.06654 0.0
C1882 C 0.23096 0.2889 0.05874 0.0
C1883 C 0.24474 0.29052 0.0422 0.0
H1884 H 0.71048 0.64917 0.37942 0.0
H1885 H 0.74567 0.70865 0.40417 0.0
H1886 H 0.76584 0.70031 0.42885 0.0
H1887 H 0.7748 0.67662 0.44119 0.0
H1888 H 0.73948 0.61703 0.41709 0.0
H1889 H 0.71828 0.62502 0.39417 0.0
C1890 C 0.72243 0.66029 0.39042 0.0
C1891 C 0.72656 0.67954 0.38976 0.0
C1892 C 0.73414 0.65543 0.40447 0.0
C1893 C 0.74214 0.69372 0.40419 0.0
C1894 C 0.75375 0.68898 0.4183 0.0
C1895 C 0.7623 0.66528 0.43131 0.0
C1896 C 0.7589 0.64625 0.43079 0.0
C1897 C 0.75007 0.66995 0.41826 0.0
C1898 C 0.74272 0.63186 0.41748 0.0
C1899 C 0.73049 0.6364 0.40448 0.0
H1900 H 0.34227 0.05233 0.38469 0.0
H1901 H 0.28471 0.04001 0.39277 0.0
H1902 H 0.29617 0.07291 0.40806 0.0
H1903 H 0.32213 0.10353 0.42394 0.0
H1904 H 0.37998 0.11695 0.41521 0.0
H1905 H 0.3687 0.08495 0.39603 0.0
C1906 C 0.33224 0.05697 0.38921 0.0
C1907 C 0.31265 0.04363 0.38784 0.0
C1908 C 0.33893 0.0759 0.3985 0.0
C1909 C 0.29985 0.0499 0.39387 0.0
C1910 C 0.30639 0.0687 0.40275 0.0
C1911 C 0.33241 0.09982 0.41723 0.0
C1912 C 0.35193 0.11277 0.42118 0.0
C1913 C 0.32587 0.08159 0.40589 0.0
C1914 C 0.36487 0.10723 0.41291 0.0
C1915 C 0.35843 0.08897 0.40172 0.0
H1916 H 0.96816 0.30676 0.38293 0.0
H1917 H 0.9367 0.27253 0.31701 0.0
H1918 H 0.9088 0.25443 0.34184 0.0
H1919 H 0.89398 0.24677 0.38267 0.0
H1920 H 0.92476 0.28085 0.44875 0.0
H1921 H 0.95226 0.30082 0.42345 0.0
C1922 C 0.95516 0.29541 0.374 0.0
C1923 C 0.95459 0.29084 0.34822 0.0
C1924 C 0.93908 0.28507 0.3884 0.0
C1925 C 0.93757 0.27629 0.33683 0.0
C1926 C 0.9216 0.2659 0.35101 0.0
C1927 C 0.90669 0.25871 0.39142 0.0
C1928 C 0.90755 0.26233 0.41743 0.0
C1929 C 0.92231 0.26994 0.37684 0.0
C1930 C 0.92388 0.27792 0.42868 0.0
C1931 C 0.93958 0.2892 0.41426 0.0
H1932 H 0.98845 0.36009 0.29666 0.0
H1933 H 0.04721 0.4048 0.30149 0.0
H1934 H 0.03878 0.42792 0.28554 0.0
H1935 H 0.01533 0.43442 0.26584 0.0
H1936 H 0.95697 0.38906 0.25761 0.0
H1937 H 0.96455 0.36729 0.27973 0.0
C1938 C -0.00066 0.37501 0.29478 0.0
C1939 C 0.01843 0.38074 0.30011 0.0
C1940 C 0.99449 0.38803 0.28471 0.0
C1941 C 0.03243 0.40005 0.29736 0.0
C1942 C 0.02763 0.41324 0.28815 0.0
C1943 C 0.00426 0.41976 0.26887 0.0
C1944 C 0.98568 0.41329 0.25975 0.0
C1945 C 0.00881 0.40721 0.28095 0.0
C1946 C 0.97139 0.39443 0.26447 0.0
C1947 C 0.97573 0.38194 0.27699 0.0
H1948 H 0.61274 0.63115 0.28841 0.0
H1949 H 0.65161 0.61503 0.32037 0.0
H1950 H 0.62923 0.58115 0.30901 0.0
H1951 H 0.5995 0.55647 0.28709 0.0
H1952 H 0.56191 0.57383 0.25386 0.0
H1953 H 0.58291 0.60683 0.26879 0.0
C1954 C 0.61635 0.62027 0.29312 0.0
C1955 C 0.63395 0.6257 0.30501 0.0
C1956 C 0.60365 0.601 0.28616 0.0
C1957 C 0.63818 0.61129 0.31122 0.0
C1958 C 0.62543 0.59192 0.30457 0.0
C1959 C 0.59592 0.56748 0.28315 0.0
C1960 C 0.57907 0.56258 0.26939 0.0
C1961 C 0.60829 0.58666 0.29152 0.0
C1962 C 0.57456 0.57703 0.26473 0.0
C1963 C 0.58666 0.59599 0.2731 0.0
H1964 H 0.37525 0.97925 0.35135 0.0
H1965 H 0.35442 0.00936 0.30655 0.0
H1966 H 0.37732 0.01422 0.27453 0.0
H1967 H 0.40285 0.00926 0.25884 0.0
H1968 H 0.4238 0.97962 0.30441 0.0
H1969 H 0.40106 0.97501 0.3363 0.0
C1970 C 0.37573 0.98693 0.33463 0.0
C1971 C 0.36313 0.9939 0.33137 0.0
C1972 C 0.38885 0.98962 0.31629 0.0
C1973 C 0.36398 0.00384 0.30957 0.0
C1974 C 0.37704 0.0066 0.29121 0.0
C1975 C 0.40252 0.00192 0.27583 0.0
C1976 C 0.41489 0.99463 0.27906 0.0
C1977 C 0.3895 -0.00053 0.29432 0.0
C1978 C 0.41417 0.98501 0.30114 0.0
C1979 C 0.40128 0.9825 0.31952 0.0
H1980 H 0.58899 0.98074 0.3455 0.0
H1981 H 0.63302 0.00373 0.29134 0.0
H1982 H 0.61256 0.00958 0.26302 0.0
H1983 H 0.58179 0.00764 0.25347 0.0
H1984 H 0.5382 0.98455 0.30828 0.0
H1985 H 0.55885 0.97915 0.33639 0.0
C1986 C 0.59419 0.98707 0.32753 0.0
C1987 C 0.61254 0.99178 0.32059 0.0
C1988 C 0.58237 0.9903 0.31137 0.0
C1989 C 0.61896 -5e-05 0.29718 0.0
C1990 C 0.60726 0.0033 0.28097 0.0
C1991 C 0.57689 0.00156 0.27164 0.0
C1992 C 0.5584 0.99638 0.27865 0.0
C1993 C 0.5889 0.99848 0.28785 0.0
C1994 C 0.55222 0.98836 0.3022 0.0
C1995 C 0.56406 0.98537 0.31838 0.0
H1996 H 0.98658 0.62067 0.29319 0.0
H1997 H 0.04576 0.63901 0.28534 0.0
H1998 H 0.03757 0.60656 0.27154 0.0
H1999 H 0.01377 0.5742 0.2573 0.0
H2000 H 0.9544 0.55514 0.26458 0.0
H2001 H 0.96251 0.58676 0.28255 0.0
C2002 C 0.99767 0.61742 0.28899 0.0
C2003 C 0.01674 0.63226 0.29013 0.0
C2004 C 0.99284 0.59874 0.28045 0.0
C2005 C 0.03096 0.62788 0.28442 0.0
C2006 C 0.0263 0.60935 0.27644 0.0
C2007 C 0.00254 0.5767 0.26336 0.0
C2008 C 0.98348 0.56225 0.25946 0.0
C2009 C 0.00729 0.59483 0.2737 0.0
C2010 C 0.96919 0.56607 0.26695 0.0
C2011 C 0.97382 0.58412 0.27739 0.0
H2012 H 0.37913 0.37216 0.31741 0.0
H2013 H 0.35413 0.4014 0.27924 0.0
H2014 H 0.38133 0.41656 0.25227 0.0
H2015 H 0.41311 0.42312 0.24145 0.0
H2016 H 0.43832 0.3944 0.28026 0.0
H2017 H 0.40993 0.3771 0.30474 0.0
C2018 C 0.37956 0.38177 0.3031 0.0
C2019 C 0.36472 0.38582 0.30055 0.0
C2020 C 0.39526 0.39049 0.28775 0.0
C2021 C 0.3654 0.39811 0.28171 0.0
C2022 C 0.38097 0.40681 0.26629 0.0
C2023 C 0.41234 0.41302 0.25522 0.0
C2024 C 0.42783 0.41016 0.25921 0.0
C2025 C 0.39611 0.40336 0.26947 0.0
C2026 C 0.42653 0.39676 0.27674 0.0
C2027 C 0.41037 0.38699 0.29088 0.0
H2028 H 0.3042 0.28428 0.41012 0.0
H2029 H 0.35657 0.32222 0.37457 0.0
H2030 H 0.37052 0.30351 0.39034 0.0
H2031 H 0.36823 0.27719 0.41621 0.0
H2032 H 0.31584 0.24032 0.45232 0.0
H2033 H 0.30158 0.25796 0.43447 0.0
C2034 C 0.31863 0.28844 0.40556 0.0
C2035 C 0.32933 0.30473 0.39129 0.0
C2036 C 0.32664 0.27792 0.41504 0.0
C2037 C 0.34798 0.30975 0.38552 0.0
C2038 C 0.35602 0.29913 0.39467 0.0
C2039 C 0.35374 0.27314 0.42019 0.0
C2040 C 0.34308 0.25748 0.43549 0.0
C2041 C 0.34558 0.28339 0.40985 0.0
C2042 C 0.32425 0.2522 0.44037 0.0
C2043 C 0.3161 0.26229 0.43022 0.0
H2044 H 0.73331 0.03503 0.39501 0.0
H2045 H 0.6912 0.04958 0.37173 0.0
H2046 H 0.71316 0.08348 0.38352 0.0
H2047 H 0.74363 0.10853 0.40347 0.0
H2048 H 0.7847 0.09275 0.42777 0.0
H2049 H 0.76384 0.05983 0.41239 0.0
C2050 C 0.7289 0.04559 0.3923 0.0
C2051 C 0.71054 0.0397 0.38275 0.0
C2052 C 0.74142 0.06487 0.39944 0.0
C2053 C 0.70525 0.05369 0.37905 0.0
C2054 C 0.71776 0.07306 0.38595 0.0
C2055 C 0.748 0.09788 0.40534 0.0
C2056 C 0.76577 0.10319 0.41674 0.0
C2057 C 0.73575 0.07875 0.39669 0.0
C2058 C 0.77128 0.08922 0.41875 0.0
C2059 C 0.75929 0.07031 0.41012 0.0
H2060 H 0.94099 0.63104 0.34556 0.0
H2061 H 0.98058 0.68584 0.38158 0.0
H2062 H 0.95692 0.68201 0.41173 0.0
H2063 H 0.92444 0.66387 0.42666 0.0
H2064 H 0.88498 0.60889 0.39129 0.0
H2065 H 0.90913 0.61196 0.36219 0.0
C2066 C 0.94449 0.64208 0.36012 0.0
C2067 C 0.96249 0.65877 0.36114 0.0
C2068 C 0.9308 0.6398 0.37745 0.0
C2069 C 0.96684 0.67286 0.38028 0.0
C2070 C 0.95328 0.67072 0.39751 0.0
C2071 C 0.92118 0.65259 0.41256 0.0
C2072 C 0.90297 0.63626 0.41094 0.0
C2073 C 0.93514 0.65441 0.39603 0.0
C2074 C 0.89895 0.62157 0.3929 0.0
C2075 C 0.91272 0.62335 0.37623 0.0
H2076 H 0.38059 0.00204 0.71461 0.0
H2077 H 0.40876 0.00073 0.6474 0.0
H2078 H 0.43009 0.99401 0.67212 0.0
H2079 H 0.44117 0.98897 0.71281 0.0
H2080 H 0.41293 0.98983 0.78009 0.0
H2081 H 0.39141 0.99644 0.7554 0.0
C2082 C 0.39139 0.00027 0.70536 0.0
C2083 C 0.39303 0.00191 0.67914 0.0
C2084 C 0.40368 0.99639 0.71972 0.0
C2085 C 0.40712 -0.00044 0.66752 0.0
C2086 C 0.41937 0.99571 0.68165 0.0
C2087 C 0.43017 0.99037 0.72206 0.0
C2088 C 0.42871 0.9889 0.74829 0.0
C2089 C 0.41779 0.99411 0.70775 0.0
C2090 C 0.41455 0.99112 0.75998 0.0
C2091 C 0.40216 0.99481 0.74585 0.0
H2092 H 0.9628 0.36588 0.71957 0.0
H2093 H 0.01901 0.37486 0.73303 0.0
H2094 H 0.02968 0.40738 0.74982 0.0
H2095 H 0.02182 0.4313 0.7658 0.0
H2096 H 0.96627 0.42346 0.74897 0.0
H2097 H 0.95655 0.3923 0.7288 0.0
C2098 C 0.97748 0.37513 0.72571 0.0
C2099 C 0.99003 0.36794 0.72536 0.0
C2100 C 0.98354 0.39382 0.73529 0.0
C2101 C 0.00907 0.3801 0.73306 0.0
C2102 C 0.01515 0.39863 0.74289 0.0
C2103 C 0.00773 0.42314 0.75718 0.0
C2104 C 0.99467 0.42966 0.75978 0.0
C2105 C 0.00233 0.4054 0.74485 0.0
C2106 C 0.97647 0.41859 0.74837 0.0
C2107 C 0.9709 0.40079 0.73651 0.0
H2108 H 0.6131 0.63937 0.69331 0.0
H2109 H 0.64519 0.61511 0.72537 0.0
H2110 H 0.6209 0.5988 0.75619 0.0
H2111 H 0.58928 0.58917 0.77157 0.0
H2112 H 0.55697 0.61298 0.73915 0.0
H2113 H 0.58277 0.63201 0.71118 0.0
C2114 C 0.61488 0.63067 0.70719 0.0
C2115 C 0.63081 0.62825 0.7068 0.0
C2116 C 0.6008 0.62122 0.72474 0.0
C2117 C 0.63301 0.61712 0.72513 0.0
C2118 C 0.6191 0.60774 0.74273 0.0
C2119 C 0.58798 0.59864 0.75848 0.0
C2120 C 0.57121 0.59954 0.75719 0.0
C2121 C 0.60274 0.60932 0.7423 0.0
C2122 C 0.56979 0.61211 0.74052 0.0
C2123 C 0.58446 0.62287 0.72442 0.0
H2124 H 0.70587 0.72068 0.61632 0.0
H2125 H 0.65125 0.68242 0.64634 0.0
H2126 H 0.64005 0.70439 0.63451 0.0
H2127 H 0.64481 0.73273 0.61137 0.0
H2128 H 0.69934 0.77014 0.58053 0.0
H2129 H 0.71155 0.75026 0.59706 0.0
C2130 C 0.69158 0.71723 0.62059 0.0
C2131 C 0.67932 0.6998 0.63182 0.0
C2132 C 0.68516 0.72969 0.61335 0.0
C2133 C 0.66096 0.69572 0.63763 0.0
C2134 C 0.6545 0.70821 0.63069 0.0
C2135 C 0.65939 0.73654 0.60844 0.0
C2136 C 0.67112 0.75277 0.59462 0.0
C2137 C 0.66629 0.72492 0.61781 0.0
C2138 C 0.69007 0.75778 0.59125 0.0
C2139 C 0.69704 0.74637 0.60058 0.0
H2140 H 0.26991 0.95398 0.65392 0.0
H2141 H 0.31763 0.95177 0.62435 0.0
H2142 H 0.29678 0.91848 0.60937 0.0
H2143 H 0.2646 0.89196 0.59963 0.0
H2144 H 0.21719 0.89271 0.63359 0.0
H2145 H 0.23836 0.92473 0.65151 0.0
C2146 C 0.27576 0.94599 0.64477 0.0
C2147 C 0.29521 0.9553 0.64006 0.0
C2148 C 0.26373 0.9268 0.63642 0.0
C2149 C 0.30271 0.94485 0.62833 0.0
C2150 C 0.29076 0.92587 0.61953 0.0
C2151 C 0.25877 0.8987 0.61151 0.0
C2152 C 0.239 0.8899 0.61423 0.0
C2153 C 0.27114 0.91693 0.62273 0.0
C2154 C 0.23211 0.89928 0.62989 0.0
C2155 C 0.24427 0.9176 0.64051 0.0
H2156 H 0.03332 0.33008 0.64431 0.0
H2157 H 0.07009 0.35156 0.71071 0.0
H2158 H 0.09777 0.36258 0.68484 0.0
H2159 H 0.11148 0.36508 0.64359 0.0
H2160 H 0.07484 0.34415 0.57709 0.0
H2161 H 0.04714 0.33381 0.60285 0.0
C2162 C 0.04738 0.3372 0.65314 0.0
C2163 C 0.0496 0.33989 0.67942 0.0
C2164 C 0.06326 0.34354 0.63816 0.0
C2165 C 0.06795 0.34926 0.69052 0.0
C2166 C 0.08381 0.35557 0.67575 0.0
C2167 C 0.09747 0.35854 0.63468 0.0
C2168 C 0.09525 0.35535 0.60845 0.0
C2169 C 0.08162 0.35268 0.64957 0.0
C2170 C 0.07693 0.34654 0.59727 0.0
C2171 C 0.06109 0.3407 0.61197 0.0
H2172 H 0.30138 0.37782 0.66809 0.0
H2173 H 0.27882 0.31961 0.63869 0.0
H2174 H 0.25621 0.32301 0.6118 0.0
H2175 H 0.24191 0.34202 0.59782 0.0
H2176 H 0.26457 0.40029 0.62669 0.0
H2177 H 0.28816 0.39743 0.65239 0.0
C2178 C 0.29159 0.3659 0.65571 0.0
C2179 C 0.29174 0.34844 0.65559 0.0
C2180 C 0.2786 0.36795 0.64021 0.0
C2181 C 0.27904 0.33321 0.63924 0.0
C2182 C 0.26604 0.33512 0.62388 0.0
C2183 C 0.25202 0.35407 0.60977 0.0
C2184 C 0.25141 0.37129 0.61051 0.0
C2185 C 0.26554 0.35233 0.62444 0.0
C2186 C 0.2648 0.38692 0.62572 0.0
C2187 C 0.27823 0.38525 0.6405 0.0
H2188 H 0.66131 0.96005 0.58779 0.0
H2189 H 0.67644 0.95205 0.66256 0.0
H2190 H 0.66526 0.91799 0.65183 0.0
H2191 H 0.65363 0.8914 0.61979 0.0
H2192 H 0.639 0.90017 0.54488 0.0
H2193 H 0.6471 0.9329 0.55713 0.0
C2194 C 0.66181 0.95068 0.60179 0.0
C2195 C 0.66957 0.95827 0.62584 0.0
C2196 C 0.65548 0.93133 0.59542 0.0
C2197 C 0.67033 0.94627 0.64397 0.0
C2198 C 0.66405 0.92691 0.63778 0.0
C2199 C 0.65209 0.90046 0.60625 0.0
C2200 C 0.64579 0.89338 0.58143 0.0
C2201 C 0.65699 0.9194 0.61336 0.0
C2202 C 0.64362 0.90517 0.56415 0.0
C2203 C 0.6484 0.92396 0.57107 0.0
H2204 H 0.02713 0.70849 0.62796 0.0
H2205 H 0.05623 0.68286 0.66497 0.0
H2206 H 0.08253 0.69877 0.63674 0.0
H2207 H 0.09891 0.72309 0.60513 0.0
H2208 H 0.07044 0.74996 0.56991 0.0
H2209 H 0.04217 0.73035 0.59376 0.0
C2210 C 0.03907 0.70612 0.62962 0.0
C2211 C 0.03983 0.69472 0.64876 0.0
C2212 C 0.05435 0.71569 0.61379 0.0
C2213 C 0.05538 0.69173 0.65055 0.0
C2214 C 0.07046 0.70086 0.63445 0.0
C2215 C 0.08634 0.7243 0.60231 0.0
C2216 C 0.08671 0.73799 0.58602 0.0
C2217 C 0.07034 0.71333 0.61654 0.0
C2218 C 0.07046 0.73962 0.58262 0.0
C2219 C 0.05434 0.72843 0.59623 0.0
H2220 H 0.95911 0.60999 0.74323 0.0
H2221 H 0.01614 0.64613 0.71886 0.0
H2222 H 0.02523 0.62354 0.73497 0.0
H2223 H 0.01774 0.59538 0.75984 0.0
H2224 H 0.9603 0.55861 0.78263 0.0
H2225 H 0.95075 0.5799 0.76368 0.0
C2226 C 0.97348 0.61282 0.74118 0.0
C2227 C 0.98698 0.62982 0.73018 0.0
C2228 C 0.97863 0.59987 0.75061 0.0
C2229 C 0.00547 0.63315 0.72729 0.0
C2230 C 0.01071 0.62031 0.73666 0.0
C2231 C 0.00304 0.59175 0.76025 0.0
C2232 C 0.98987 0.57557 0.77312 0.0
C2233 C 0.99753 0.60388 0.74892 0.0
C2234 C 0.97091 0.57127 0.77355 0.0
C2235 C 0.96536 0.58334 0.76251 0.0
H2236 H 0.35885 0.38534 0.73877 0.0
H2237 H 0.39866 0.38062 0.69148 0.0
H2238 H 0.42257 0.41418 0.70221 0.0
H2239 H 0.43284 0.4437 0.72791 0.0
H2240 H 0.39418 0.44603 0.78046 0.0
H2241 H 0.3691 0.41499 0.76427 0.0
C2242 C 0.37264 0.39189 0.73038 0.0
C2243 C 0.377 0.38081 0.71405 0.0
C2244 C 0.38657 0.41076 0.73774 0.0
C2245 C 0.39502 0.3891 0.70382 0.0
C2246 C 0.40868 0.40819 0.71011 0.0
C2247 C 0.41903 0.43745 0.73608 0.0
C2248 C 0.41569 0.4475 0.75555 0.0
C2249 C 0.40478 0.41899 0.72762 0.0
C2250 C 0.39736 0.43911 0.76518 0.0
C2251 C 0.38292 0.42113 0.75611 0.0
H2252 H 0.62739 0.98898 0.70517 0.0
H2253 H 0.65116 0.05028 0.71711 0.0
H2254 H 0.62466 0.04469 0.74298 0.0
H2255 H 0.59386 0.02257 0.76001 0.0
H2256 H 0.57059 0.96121 0.74972 0.0
H2257 H 0.59763 0.96673 0.72501 0.0
C2258 C 0.62684 0.00112 0.71358 0.0
C2259 C 0.64117 0.02001 0.70903 0.0
C2260 C 0.61154 0.99782 0.72847 0.0
C2261 C 0.64032 0.03557 0.72024 0.0
C2262 C 0.62512 0.03241 0.73498 0.0
C2263 C 0.59481 0.01036 0.75281 0.0
C2264 C 0.58005 0.99149 0.75662 0.0
C2265 C 0.61054 0.0136 0.73894 0.0
C2266 C 0.5815 0.9759 0.74668 0.0
C2267 C 0.59704 0.97903 0.73269 0.0
loop_
_geom_bond_atom_site_label_1
_geom_bond_atom_site_label_2
_geom_bond_distance
_geom_bond_site_symmetry_2
_ccdc_geom_bond_type
Mg0 O1 2.028 1_556 S
Mg0 O7 1.986 1_455 S
Mg0 O9 2.114 . S
Mg0 O10 2.251 1_455 S
Mg0 O13 2.010 1_556 S
O1 Mg0 2.028 1_554 S
O1 C4 1.250 1_455 S
O2 Mg3 2.028 1_554 S
O2 C4 1.248 . S
Mg3 O2 2.028 1_556 S
Mg3 O8 2.032 . S
Mg3 O10 2.079 . S
C4 O1 1.250 1_655 S
C4 O2 1.248 . S
C5 O6 1.264 . S
C5 O13 1.249 . S
O6 C5 1.264 . S
O7 Mg0 1.986 1_655 S
O7 C11 1.246 . S
O8 Mg3 2.032 . S
O8 C11 1.259 . S
O9 Mg0 2.114 . S
O9 C12 1.252 . S
O10 Mg0 2.251 1_655 S
O10 Mg3 2.079 . S
O10 C12 1.273 1_655 S
C11 O7 1.246 . S
C11 O8 1.259 . S
C12 O9 1.252 . S
C12 O10 1.273 1_455 S
O13 Mg0 2.010 1_554 S
O13 C5 1.249 . S
Mg14 O15 2.028 1_554 S
Mg14 O21 1.986 . S
Mg14 O23 2.114 . S
Mg14 O24 2.251 . S
Mg14 O27 2.010 . S
O15 Mg14 2.028 1_556 S
O15 C18 1.250 . S
O16 Mg17 2.028 1_556 S
O16 C18 1.248 . S
Mg17 O16 2.028 1_554 S
Mg17 O22 2.032 . S
Mg17 O24 2.079 . S
C18 O15 1.250 . S
C18 O16 1.248 . S
C19 O20 1.264 1_556 S
C19 O27 1.249 1_556 S
O20 C19 1.264 1_554 S
O21 Mg14 1.986 . S
O21 C25 1.246 . S
O22 Mg17 2.032 . S
O22 C25 1.259 . S
O23 Mg14 2.114 . S
O23 C26 1.252 . S
O24 Mg14 2.251 . S
O24 Mg17 2.079 . S
O24 C26 1.273 . S
C25 O21 1.246 . S
C25 O22 1.259 . S
C26 O23 1.252 . S
C26 O24 1.273 . S
O27 Mg14 2.010 . S
O27 C19 1.249 1_554 S
Mg28 O29 2.033 1_566 S
Mg28 O35 1.986 1_565 S
Mg28 O37 2.114 . S
Mg28 O38 2.251 1_565 S
Mg28 O41 2.010 1_556 S
O29 Mg28 2.033 1_544 S
O29 C32 1.259 . S
O30 Mg31 2.028 1_554 S
O30 C32 1.248 . S
Mg31 O30 2.028 1_556 S
Mg31 O36 2.032 . S
Mg31 O38 2.079 . S
C32 O29 1.259 . S
C32 O30 1.248 . S
C33 O34 1.264 . S
C33 O41 1.249 . S
O34 C33 1.264 . S
O35 Mg28 1.986 1_545 S
O35 C39 1.246 . S
O36 Mg31 2.032 . S
O36 C39 1.259 . S
O37 Mg28 2.114 . S
O37 C40 1.252 . S
O38 Mg28 2.251 1_545 S
O38 Mg31 2.079 . S
O38 C40 1.273 1_545 S
C39 O35 1.246 . S
C39 O36 1.259 . S
C40 O37 1.252 . S
C40 O38 1.273 1_565 S
O41 Mg28 2.010 1_554 S
O41 C33 1.249 . S
Mg42 O43 2.028 1_654 S
Mg42 O49 1.986 1_655 S
Mg42 O51 2.114 . S
Mg42 O52 2.251 1_655 S
Mg42 O55 2.010 . S
O43 Mg42 2.028 1_456 S
O43 C46 1.251 . S
O44 Mg45 2.028 1_556 S
O44 C46 1.248 . S
Mg45 O44 2.028 1_554 S
Mg45 O50 2.032 . S
Mg45 O52 2.079 . S
C46 O43 1.251 . S
C46 O44 1.248 . S
C47 O48 1.264 . S
C47 O55 1.249 . S
O48 C47 1.264 . S
O49 Mg42 1.986 1_455 S
O49 C53 1.246 . S
O50 Mg45 2.032 . S
O50 C53 1.259 . S
O51 Mg42 2.114 . S
O51 C54 1.252 . S
O52 Mg42 2.251 1_455 S
O52 Mg45 2.079 . S
O52 C54 1.273 1_455 S
C53 O49 1.246 . S
C53 O50 1.259 . S
C54 O51 1.252 . S
C54 O52 1.273 1_655 S
O55 Mg42 2.010 . S
O55 C47 1.249 . S
Mg56 O57 2.028 1_556 S
Mg56 O63 1.986 . S
Mg56 O65 2.114 . S
Mg56 O66 2.251 . S
Mg56 O69 2.010 1_556 S
O57 Mg56 2.028 1_554 S
O57 C60 1.250 . S
O58 Mg59 2.028 1_554 S
O58 C60 1.248 . S
Mg59 O58 2.028 1_556 S
Mg59 O64 2.032 . S
Mg59 O66 2.079 . S
C60 O57 1.250 . S
C60 O58 1.248 . S
C61 O62 1.264 . S
C61 O69 1.249 . S
O62 C61 1.264 . S
O63 Mg56 1.986 . S
O63 C67 1.246 . S
O64 Mg59 2.032 . S
O64 C67 1.259 . S
O65 Mg56 2.114 . S
O65 C68 1.252 . S
O66 Mg56 2.251 . S
O66 Mg59 2.079 . S
O66 C68 1.273 . S
C67 O63 1.246 . S
C67 O64 1.259 . S
C68 O65 1.252 . S
C68 O66 1.273 . S
O69 Mg56 2.010 1_554 S
O69 C61 1.249 . S
Mg70 O71 2.028 1_554 S
Mg70 O77 1.986 1_545 S
Mg70 O79 2.114 . S
Mg70 O80 2.251 1_545 S
Mg70 O83 2.010 . S
O71 Mg70 2.028 1_556 S
O71 C74 1.250 1_545 S
O72 Mg73 2.028 1_556 S
O72 C74 1.248 . S
Mg73 O72 2.028 1_554 S
Mg73 O78 2.032 . S
Mg73 O80 2.079 . S
C74 O71 1.250 1_565 S
C74 O72 1.248 . S
C75 O76 1.264 . S
C75 O83 1.249 . S
O76 C75 1.264 . S
O77 Mg70 1.986 1_565 S
O77 C81 1.246 . S
O78 Mg73 2.032 . S
O78 C81 1.259 . S
O79 Mg70 2.114 . S
O79 C82 1.252 . S
O80 Mg70 2.251 1_565 S
O80 Mg73 2.079 . S
O80 C82 1.273 1_565 S
C81 O77 1.246 . S
C81 O78 1.259 . S
C82 O79 1.252 . S
C82 O80 1.273 1_545 S
O83 Mg70 2.010 . S
O83 C75 1.249 . S
Mg84 O85 2.028 . S
Mg84 O91 1.986 . S
Mg84 O93 2.114 . S
Mg84 O94 2.251 . S
Mg84 O97 2.010 . S
O85 Mg84 2.028 . S
O85 C88 1.250 . S
O86 Mg87 2.028 . S
O86 C88 1.248 . S
Mg87 O86 2.028 . S
Mg87 O92 2.032 . S
Mg87 O94 2.079 . S
C88 O85 1.250 . S
C88 O86 1.248 . S
C89 O90 1.264 . S
C89 O97 1.249 . S
O90 C89 1.264 . S
O91 Mg84 1.986 . S
O91 C95 1.246 . S
O92 Mg87 2.032 . S
O92 C95 1.259 . S
O93 Mg84 2.114 . S
O93 C96 1.252 . S
O94 Mg84 2.251 . S
O94 Mg87 2.079 . S
O94 C96 1.273 . S
C95 O91 1.246 . S
C95 O92 1.259 . S
C96 O93 1.252 . S
C96 O94 1.273 . S
O97 Mg84 2.010 . S
O97 C89 1.249 . S
Mg98 O99 2.028 . S
Mg98 O105 1.986 1_565 S
Mg98 O107 2.114 . S
Mg98 O108 2.251 . S
Mg98 O111 2.010 . S
O99 Mg98 2.028 . S
O99 C102 1.250 . S
O100 Mg101 2.028 . S
O100 C102 1.248 . S
Mg101 O100 2.028 . S
Mg101 O106 2.032 1_565 S
Mg101 O108 2.079 . S
C102 O99 1.250 . S
C102 O100 1.248 . S
C103 O104 1.264 . S
C103 O111 1.249 . S
O104 C103 1.264 . S
O105 Mg98 1.986 1_545 S
O105 C109 1.246 . S
O106 Mg101 2.032 1_545 S
O106 C109 1.259 . S
O107 Mg98 2.114 . S
O107 C110 1.252 . S
O108 Mg98 2.251 . S
O108 Mg101 2.079 . S
O108 C110 1.273 . S
C109 O105 1.246 . S
C109 O106 1.259 . S
C110 O107 1.252 . S
C110 O108 1.273 . S
O111 Mg98 2.010 . S
O111 C103 1.249 . S
Mg112 O113 2.028 . S
Mg112 O119 1.986 . S
Mg112 O121 2.114 . S
Mg112 O122 2.251 . S
Mg112 O125 2.010 1_455 S
O113 Mg112 2.028 . S
O113 C116 1.250 . S
O114 Mg115 2.028 . S
O114 C116 1.248 . S
Mg115 O114 2.028 . S
Mg115 O120 2.032 . S
Mg115 O122 2.079 . S
C116 O113 1.250 . S
C116 O114 1.248 . S
C117 O118 1.264 . S
C117 O125 1.249 . S
O118 C117 1.264 . S
O119 Mg112 1.986 . S
O119 C123 1.246 . S
O120 Mg115 2.032 . S
O120 C123 1.259 . S
O121 Mg112 2.114 . S
O121 C124 1.252 . S
O122 Mg112 2.251 . S
O122 Mg115 2.079 . S
O122 C124 1.273 . S
C123 O119 1.246 . S
C123 O120 1.259 . S
C124 O121 1.252 . S
C124 O122 1.273 . S
O125 Mg112 2.010 1_655 S
O125 C117 1.249 . S
Mg126 O127 2.028 . S
Mg126 O133 1.986 1_565 S
Mg126 O135 2.114 . S
Mg126 O136 2.251 . S
Mg126 O139 2.010 . S
O127 Mg126 2.028 . S
O127 C130 1.250 . S
O128 Mg129 2.028 . S
O128 C130 1.248 . S
Mg129 O128 2.028 . S
Mg129 O134 2.032 1_565 S
Mg129 O136 2.079 . S
C130 O127 1.250 . S
C130 O128 1.248 . S
C131 O132 1.264 . S
C131 O139 1.249 . S
O132 C131 1.264 . S
O133 Mg126 1.986 1_545 S
O133 C137 1.246 . S
O134 Mg129 2.032 1_545 S
O134 C137 1.259 . S
O135 Mg126 2.114 . S
O135 C138 1.252 . S
O136 Mg126 2.251 . S
O136 Mg129 2.079 . S
O136 C138 1.273 . S
C137 O133 1.246 . S
C137 O134 1.259 . S
C138 O135 1.252 . S
C138 O136 1.273 . S
O139 Mg126 2.010 . S
O139 C131 1.249 . S
Mg140 O141 2.028 . S
Mg140 O147 1.986 . S
Mg140 O149 2.114 . S
Mg140 O150 2.251 . S
Mg140 O153 2.010 1_455 S
O141 Mg140 2.028 . S
O141 C144 1.250 . S
O142 Mg143 2.028 . S
O142 C144 1.248 . S
Mg143 O142 2.028 . S
Mg143 O148 2.032 . S
Mg143 O150 2.079 . S
C144 O141 1.250 . S
C144 O142 1.248 . S
C145 O146 1.264 . S
C145 O153 1.249 . S
O146 C145 1.264 . S
O147 Mg140 1.986 . S
O147 C151 1.246 . S
O148 Mg143 2.032 . S
O148 C151 1.259 . S
O149 Mg140 2.114 . S
O149 C152 1.252 . S
O150 Mg140 2.251 . S
O150 Mg143 2.079 . S
O150 C152 1.273 . S
C151 O147 1.246 . S
C151 O148 1.259 . S
C152 O149 1.252 . S
C152 O150 1.273 . S
O153 Mg140 2.010 1_655 S
O153 C145 1.249 . S
Mg154 O155 2.028 . S
Mg154 O161 1.986 . S
Mg154 O163 2.114 . S
Mg154 O164 2.251 . S
Mg154 O167 2.010 . S
O155 Mg154 2.028 . S
O155 C158 1.250 . S
O156 Mg157 2.028 . S
O156 C158 1.248 . S
Mg157 O156 2.028 . S
Mg157 O162 2.032 . S
Mg157 O164 2.079 . S
C158 O155 1.250 . S
C158 O156 1.248 . S
C159 O160 1.264 . S
C159 O167 1.249 . S
O160 C159 1.264 . S
O161 Mg154 1.986 . S
O161 C165 1.246 . S
O162 Mg157 2.032 . S
O162 C165 1.259 . S
O163 Mg154 2.114 . S
O163 C166 1.252 . S
O164 Mg154 2.251 . S
O164 Mg157 2.079 . S
O164 C166 1.273 . S
C165 O161 1.246 . S
C165 O162 1.259 . S
C166 O163 1.252 . S
C166 O164 1.273 . S
O167 Mg154 2.010 . S
O167 C159 1.249 . S
Mg168 O169 2.028 . S
Mg168 O175 1.986 1_545 S
Mg168 O177 2.114 . S
Mg168 O178 2.251 . S
Mg168 O181 2.010 . S
O169 Mg168 2.028 . S
O169 C172 1.250 . S
O170 Mg171 2.028 . S
O170 C172 1.248 . S
Mg171 O170 2.028 . S
Mg171 O176 2.032 1_545 S
Mg171 O178 2.079 . S
C172 O169 1.250 . S
C172 O170 1.248 . S
C173 O174 1.264 . S
C173 O181 1.249 . S
O174 C173 1.264 . S
O175 Mg168 1.986 1_565 S
O175 C179 1.246 . S
O176 Mg171 2.032 1_565 S
O176 C179 1.259 . S
O177 Mg168 2.114 . S
O177 C180 1.252 . S
O178 Mg168 2.251 . S
O178 Mg171 2.079 . S
O178 C180 1.273 . S
C179 O175 1.246 . S
C179 O176 1.259 . S
C180 O177 1.252 . S
C180 O178 1.273 . S
O181 Mg168 2.010 . S
O181 C173 1.249 . S
Mg182 O183 2.028 . S
Mg182 O189 1.986 . S
Mg182 O191 2.114 . S
Mg182 O192 2.251 . S
Mg182 O195 2.010 1_655 S
O183 Mg182 2.028 . S
O183 C186 1.250 . S
O184 Mg185 2.028 . S
O184 C186 1.248 . S
Mg185 O184 2.028 . S
Mg185 O190 2.032 . S
Mg185 O192 2.079 . S
C186 O183 1.250 . S
C186 O184 1.248 . S
C187 O188 1.264 . S
C187 O195 1.249 . S
O188 C187 1.264 . S
O189 Mg182 1.986 . S
O189 C193 1.246 . S
O190 Mg185 2.032 . S
O190 C193 1.259 . S
O191 Mg182 2.114 . S
O191 C194 1.252 . S
O192 Mg182 2.251 . S
O192 Mg185 2.079 . S
O192 C194 1.273 . S
C193 O189 1.246 . S
C193 O190 1.259 . S
C194 O191 1.252 . S
C194 O192 1.273 . S
O195 Mg182 2.010 1_455 S
O195 C187 1.249 . S
Mg196 O197 2.028 . S
Mg196 O203 1.986 . S
Mg196 O205 2.114 . S
Mg196 O206 2.251 . S
Mg196 O209 2.010 . S
O197 Mg196 2.028 . S
O197 C200 1.250 . S
O198 Mg199 2.028 . S
O198 C200 1.248 . S
Mg199 O198 2.028 . S
Mg199 O204 2.032 . S
Mg199 O206 2.079 . S
C200 O197 1.250 . S
C200 O198 1.248 . S
C201 O202 1.264 . S
C201 O209 1.249 . S
O202 C201 1.264 . S
O203 Mg196 1.986 . S
O203 C207 1.246 . S
O204 Mg199 2.032 . S
O204 C207 1.259 . S
O205 Mg196 2.114 . S
O205 C208 1.252 . S
O206 Mg196 2.251 . S
O206 Mg199 2.079 . S
O206 C208 1.273 . S
C207 O203 1.246 . S
C207 O204 1.259 . S
C208 O205 1.252 . S
C208 O206 1.273 . S
O209 Mg196 2.010 . S
O209 C201 1.249 . S
Mg210 O211 2.028 . S
Mg210 O217 1.986 . S
Mg210 O219 2.114 . S
Mg210 O220 2.251 . S
Mg210 O223 2.010 . S
O211 Mg210 2.028 . S
O211 C214 1.250 . S
O212 Mg213 2.028 . S
O212 C214 1.248 . S
Mg213 O212 2.028 . S
Mg213 O218 2.032 . S
Mg213 O220 2.079 . S
C214 O211 1.250 . S
C214 O212 1.248 . S
C215 O216 1.264 . S
C215 O223 1.249 . S
O216 C215 1.264 . S
O217 Mg210 1.986 . S
O217 C221 1.246 . S
O218 Mg213 2.032 . S
O218 C221 1.259 . S
O219 Mg210 2.114 . S
O219 C222 1.252 . S
O220 Mg210 2.251 . S
O220 Mg213 2.079 . S
O220 C222 1.273 . S
C221 O217 1.246 . S
C221 O218 1.259 . S
C222 O219 1.252 . S
C222 O220 1.273 . S
O223 Mg210 2.010 . S
O223 C215 1.249 . S
Mg224 O225 2.028 . S
Mg224 O231 1.986 1_545 S
Mg224 O233 2.114 . S
Mg224 O234 2.251 . S
Mg224 O237 2.010 . S
O225 Mg224 2.028 . S
O225 C228 1.250 . S
O226 Mg227 2.028 . S
O226 C228 1.248 . S
Mg227 O226 2.028 . S
Mg227 O232 2.032 1_545 S
Mg227 O234 2.079 . S
C228 O225 1.250 . S
C228 O226 1.248 . S
C229 O230 1.264 . S
C229 O237 1.249 . S
O230 C229 1.264 . S
O231 Mg224 1.986 1_565 S
O231 C235 1.246 . S
O232 Mg227 2.032 1_565 S
O232 C235 1.259 . S
O233 Mg224 2.114 . S
O233 C236 1.252 . S
O234 Mg224 2.251 . S
O234 Mg227 2.079 . S
O234 C236 1.273 . S
C235 O231 1.246 . S
C235 O232 1.259 . S
C236 O233 1.252 . S
C236 O234 1.273 . S
O237 Mg224 2.010 . S
O237 C229 1.249 . S
Mg238 O239 2.028 . S
Mg238 O245 1.986 . S
Mg238 O247 2.114 . S
Mg238 O248 2.251 . S
Mg238 O251 2.010 1_655 S
O239 Mg238 2.028 . S
O239 C242 1.250 . S
O240 Mg241 2.028 . S
O240 C242 1.248 . S
Mg241 O240 2.028 . S
Mg241 O246 2.032 . S
Mg241 O248 2.079 . S
C242 O239 1.250 . S
C242 O240 1.248 . S
C243 O244 1.264 . S
C243 O251 1.249 . S
O244 C243 1.264 . S
O245 Mg238 1.986 . S
O245 C249 1.246 . S
O246 Mg241 2.032 . S
O246 C249 1.259 . S
O247 Mg238 2.114 . S
O247 C250 1.252 . S
O248 Mg238 2.251 . S
O248 Mg241 2.079 . S
O248 C250 1.273 . S
C249 O245 1.246 . S
C249 O246 1.259 . S
C250 O247 1.252 . S
C250 O248 1.273 . S
O251 Mg238 2.010 1_455 S
O251 C243 1.249 . S
H252 C271 0.949 . S
H253 C272 0.950 . S
H254 C274 0.950 . S
H255 C275 0.950 . S
H256 C277 0.950 . S
H257 C280 0.950 . S
H258 C281 0.950 . S
H259 C283 0.951 . S
H260 C284 0.949 . S
H261 C286 0.949 . S
H262 C287 0.950 . S
H263 C289 0.950 . S
H264 C290 0.950 . S
H265 C292 0.950 . S
H266 C295 0.950 . S
H267 C296 0.950 . S
H268 C298 0.951 . S
H269 C299 0.949 . S
C270 C271 1.376 . S
C270 C275 1.386 . S
C270 C276 1.483 . S
C271 H252 0.949 . S
C271 C270 1.376 . S
C271 C272 1.397 . S
C272 H253 0.950 . S
C272 C271 1.397 . S
C272 C273 1.391 . S
C273 C272 1.391 . S
C273 C274 1.405 . S
C274 H254 0.950 . S
C274 C273 1.405 . S
C274 C275 1.367 . S
C275 H255 0.950 . S
C275 C270 1.386 . S
C275 C274 1.367 . S
C276 C270 1.483 . S
C276 C277 1.382 . S
C276 C278 1.403 . S
C277 H256 0.950 . S
C277 C276 1.382 . S
C277 C293 1.411 . S
C278 C276 1.403 . S
C278 C279 1.489 . S
C278 C292 1.411 . S
C279 C278 1.489 . S
C279 C280 1.383 . S
C279 C284 1.382 . S
C280 H257 0.950 . S
C280 C279 1.383 . S
C280 C281 1.395 . S
C281 H258 0.950 . S
C281 C280 1.395 . S
C281 C282 1.288 . S
C282 C281 1.288 . S
C282 C283 1.392 . S
C283 H259 0.951 . S
C283 C282 1.392 . S
C283 C284 1.392 . S
C284 H260 0.949 . S
C284 C279 1.382 . S
C284 C283 1.392 . S
C285 C286 1.376 . S
C285 C290 1.386 . S
C285 C291 1.483 . S
C286 H261 0.949 . S
C286 C285 1.376 . S
C286 C287 1.397 . S
C287 H262 0.950 . S
C287 C286 1.397 . S
C287 C288 1.391 . S
C288 C287 1.391 . S
C288 C289 1.405 . S
C289 H263 0.950 . S
C289 C288 1.405 . S
C289 C290 1.367 . S
C290 H264 0.950 . S
C290 C285 1.386 . S
C290 C289 1.367 . S
C291 C285 1.483 . S
C291 C292 1.382 . S
C291 C293 1.403 . S
C292 H265 0.950 . S
C292 C278 1.411 . S
C292 C291 1.382 . S
C293 C277 1.411 . S
C293 C291 1.403 . S
C293 C294 1.489 . S
C294 C293 1.489 . S
C294 C295 1.383 . S
C294 C299 1.382 . S
C295 H266 0.950 . S
C295 C294 1.383 . S
C295 C296 1.395 . S
C296 H267 0.950 . S
C296 C295 1.395 . S
C296 C297 1.288 . S
C297 C296 1.288 . S
C297 C298 1.392 . S
C298 H268 0.951 . S
C298 C297 1.392 . S
C298 C299 1.392 . S
C299 H269 0.949 . S
C299 C294 1.382 . S
C299 C298 1.392 . S
H300 C319 0.949 . S
H301 C320 0.950 . S
H302 C322 0.950 . S
H303 C323 0.950 . S
H304 C325 0.950 . S
H305 C328 0.950 . S
H306 C329 0.950 . S
H307 C331 0.951 . S
H308 C332 0.949 . S
H309 C334 0.949 . S
H310 C335 0.950 . S
H311 C337 0.950 . S
H312 C338 0.950 . S
H313 C340 0.950 . S
H314 C343 0.950 . S
H315 C344 0.950 . S
H316 C346 0.951 . S
H317 C347 0.949 . S
C318 C319 1.376 . S
C318 C323 1.386 . S
C318 C324 1.483 . S
C319 H300 0.949 . S
C319 C318 1.376 . S
C319 C320 1.397 . S
C320 H301 0.950 . S
C320 C319 1.397 . S
C320 C321 1.391 . S
C321 C320 1.391 . S
C321 C322 1.405 . S
C322 H302 0.950 . S
C322 C321 1.405 . S
C322 C323 1.367 . S
C323 H303 0.950 . S
C323 C318 1.386 . S
C323 C322 1.367 . S
C324 C318 1.483 . S
C324 C325 1.382 . S
C324 C326 1.403 . S
C325 H304 0.950 . S
C325 C324 1.382 . S
C325 C341 1.411 . S
C326 C324 1.403 . S
C326 C327 1.489 . S
C326 C340 1.411 . S
C327 C326 1.489 . S
C327 C328 1.383 . S
C327 C332 1.382 . S
C328 H305 0.950 . S
C328 C327 1.383 . S
C328 C329 1.395 . S
C329 H306 0.950 . S
C329 C328 1.395 . S
C329 C330 1.288 . S
C330 C329 1.288 . S
C330 C331 1.392 . S
C331 H307 0.951 . S
C331 C330 1.392 . S
C331 C332 1.392 . S
C332 H308 0.949 . S
C332 C327 1.382 . S
C332 C331 1.392 . S
C333 C334 1.376 . S
C333 C338 1.386 . S
C333 C339 1.483 . S
C334 H309 0.949 . S
C334 C333 1.376 . S
C334 C335 1.397 . S
C335 H310 0.950 . S
C335 C334 1.397 . S
C335 C336 1.391 . S
C336 C335 1.391 . S
C336 C337 1.405 . S
C337 H311 0.950 . S
C337 C336 1.405 . S
C337 C338 1.367 . S
C338 H312 0.950 . S
C338 C333 1.386 . S
C338 C337 1.367 . S
C339 C333 1.483 . S
C339 C340 1.382 . S
C339 C341 1.403 . S
C340 H313 0.950 . S
C340 C326 1.411 . S
C340 C339 1.382 . S
C341 C325 1.411 . S
C341 C339 1.403 . S
C341 C342 1.489 . S
C342 C341 1.489 . S
C342 C343 1.383 . S
C342 C347 1.382 . S
C343 H314 0.950 . S
C343 C342 1.383 . S
C343 C344 1.395 . S
C344 H315 0.950 . S
C344 C343 1.395 . S
C344 C345 1.288 . S
C345 C344 1.288 . S
C345 C346 1.392 . S
C346 H316 0.951 . S
C346 C345 1.392 . S
C346 C347 1.392 . S
C347 H317 0.949 . S
C347 C342 1.382 . S
C347 C346 1.392 . S
H348 C367 0.949 . S
H349 C368 0.950 . S
H350 C370 0.950 . S
H351 C371 0.950 . S
H352 C373 0.950 . S
H353 C376 0.950 . S
H354 C377 0.950 . S
H355 C379 0.951 . S
H356 C380 0.949 . S
H357 C382 0.949 . S
H358 C383 0.950 . S
H359 C385 0.950 . S
H360 C386 0.950 . S
H361 C388 0.950 . S
H362 C391 0.950 . S
H363 C392 0.950 . S
H364 C394 0.951 . S
H365 C395 0.949 . S
C366 C367 1.376 . S
C366 C371 1.386 . S
C366 C372 1.483 . S
C367 H348 0.949 . S
C367 C366 1.376 . S
C367 C368 1.397 . S
C368 H349 0.950 . S
C368 C367 1.397 . S
C368 C369 1.391 . S
C369 C368 1.391 . S
C369 C370 1.405 . S
C370 H350 0.950 . S
C370 C369 1.405 . S
C370 C371 1.367 . S
C371 H351 0.950 . S
C371 C366 1.386 . S
C371 C370 1.367 . S
C372 C366 1.483 . S
C372 C373 1.382 . S
C372 C374 1.403 . S
C373 H352 0.950 . S
C373 C372 1.382 . S
C373 C389 1.411 . S
C374 C372 1.403 . S
C374 C375 1.489 . S
C374 C388 1.411 . S
C375 C374 1.489 . S
C375 C376 1.383 . S
C375 C380 1.382 . S
C376 H353 0.950 . S
C376 C375 1.383 . S
C376 C377 1.395 . S
C377 H354 0.950 . S
C377 C376 1.395 . S
C377 C378 1.288 . S
C378 C377 1.288 . S
C378 C379 1.392 . S
C379 H355 0.951 . S
C379 C378 1.392 . S
C379 C380 1.392 . S
C380 H356 0.949 . S
C380 C375 1.382 . S
C380 C379 1.392 . S
C381 C382 1.376 . S
C381 C386 1.386 . S
C381 C387 1.483 . S
C382 H357 0.949 . S
C382 C381 1.376 . S
C382 C383 1.397 . S
C383 H358 0.950 . S
C383 C382 1.397 . S
C383 C384 1.391 . S
C384 C383 1.391 . S
C384 C385 1.405 . S
C385 H359 0.950 . S
C385 C384 1.405 . S
C385 C386 1.367 . S
C386 H360 0.950 . S
C386 C381 1.386 . S
C386 C385 1.367 . S
C387 C381 1.483 . S
C387 C388 1.382 . S
C387 C389 1.403 . S
C388 H361 0.950 . S
C388 C374 1.411 . S
C388 C387 1.382 . S
C389 C373 1.411 . S
C389 C387 1.403 . S
C389 C390 1.489 . S
C390 C389 1.489 . S
C390 C391 1.383 . S
C390 C395 1.382 . S
C391 H362 0.950 . S
C391 C390 1.383 . S
C391 C392 1.395 . S
C392 H363 0.950 . S
C392 C391 1.395 . S
C392 C393 1.288 . S
C393 C392 1.288 . S
C393 C394 1.392 . S
C394 H364 0.951 . S
C394 C393 1.392 . S
C394 C395 1.392 . S
C395 H365 0.949 . S
C395 C390 1.382 . S
C395 C394 1.392 . S
H396 C415 0.949 . S
H397 C416 0.950 . S
H398 C418 0.950 . S
H399 C419 0.950 . S
H400 C421 0.950 . S
H401 C424 0.950 . S
H402 C425 0.950 . S
H403 C427 0.951 . S
H404 C428 0.949 . S
H405 C430 0.949 . S
H406 C431 0.950 . S
H407 C433 0.950 . S
H408 C434 0.950 . S
H409 C436 0.950 . S
H410 C439 0.950 . S
H411 C440 0.950 . S
H412 C442 0.951 . S
H413 C443 0.949 . S
C414 C415 1.376 . S
C414 C419 1.386 . S
C414 C420 1.483 . S
C415 H396 0.949 . S
C415 C414 1.376 . S
C415 C416 1.397 . S
C416 H397 0.950 . S
C416 C415 1.397 . S
C416 C417 1.391 . S
C417 C416 1.391 . S
C417 C418 1.405 . S
C418 H398 0.950 . S
C418 C417 1.405 . S
C418 C419 1.367 . S
C419 H399 0.950 . S
C419 C414 1.386 . S
C419 C418 1.367 . S
C420 C414 1.483 . S
C420 C421 1.382 . S
C420 C422 1.403 . S
C421 H400 0.950 . S
C421 C420 1.382 . S
C421 C437 1.411 . S
C422 C420 1.403 . S
C422 C423 1.489 . S
C422 C436 1.411 . S
C423 C422 1.489 . S
C423 C424 1.383 . S
C423 C428 1.382 . S
C424 H401 0.950 . S
C424 C423 1.383 . S
C424 C425 1.395 . S
C425 H402 0.950 . S
C425 C424 1.395 . S
C425 C426 1.288 . S
C426 C425 1.288 . S
C426 C427 1.392 . S
C427 H403 0.951 . S
C427 C426 1.392 . S
C427 C428 1.392 . S
C428 H404 0.949 . S
C428 C423 1.382 . S
C428 C427 1.392 . S
C429 C430 1.376 . S
C429 C434 1.386 . S
C429 C435 1.483 . S
C430 H405 0.949 . S
C430 C429 1.376 . S
C430 C431 1.397 . S
C431 H406 0.950 . S
C431 C430 1.397 . S
C431 C432 1.391 . S
C432 C431 1.391 . S
C432 C433 1.405 . S
C433 H407 0.950 . S
C433 C432 1.405 . S
C433 C434 1.367 . S
C434 H408 0.950 . S
C434 C429 1.386 . S
C434 C433 1.367 . S
C435 C429 1.483 . S
C435 C436 1.382 . S
C435 C437 1.403 . S
C436 H409 0.950 . S
C436 C422 1.411 . S
C436 C435 1.382 . S
C437 C421 1.411 . S
C437 C435 1.403 . S
C437 C438 1.489 . S
C438 C437 1.489 . S
C438 C439 1.383 . S
C438 C443 1.382 . S
C439 H410 0.950 . S
C439 C438 1.383 . S
C439 C440 1.395 . S
C440 H411 0.950 . S
C440 C439 1.395 . S
C440 C441 1.288 . S
C441 C440 1.288 . S
C441 C442 1.392 . S
C442 H412 0.951 . S
C442 C441 1.392 . S
C442 C443 1.392 . S
C443 H413 0.949 . S
C443 C438 1.382 . S
C443 C442 1.392 . S
H444 C463 0.949 . S
H445 C464 0.950 . S
H446 C466 0.950 . S
H447 C467 0.950 . S
H448 C469 0.950 . S
H449 C472 0.950 . S
H450 C473 0.950 . S
H451 C475 0.951 . S
H452 C476 0.949 . S
H453 C478 0.949 . S
H454 C479 0.950 . S
H455 C481 0.950 . S
H456 C482 0.950 . S
H457 C484 0.950 . S
H458 C487 0.950 . S
H459 C488 0.950 . S
H460 C490 0.951 . S
H461 C491 0.949 . S
C462 C463 1.376 . S
C462 C467 1.386 . S
C462 C468 1.483 . S
C463 H444 0.949 . S
C463 C462 1.376 . S
C463 C464 1.397 . S
C464 H445 0.950 . S
C464 C463 1.397 . S
C464 C465 1.391 . S
C465 C464 1.391 . S
C465 C466 1.405 . S
C466 H446 0.950 . S
C466 C465 1.405 . S
C466 C467 1.367 . S
C467 H447 0.950 . S
C467 C462 1.386 . S
C467 C466 1.367 . S
C468 C462 1.483 . S
C468 C469 1.382 . S
C468 C470 1.403 . S
C469 H448 0.950 . S
C469 C468 1.382 . S
C469 C485 1.411 . S
C470 C468 1.403 . S
C470 C471 1.489 . S
C470 C484 1.411 . S
C471 C470 1.489 . S
C471 C472 1.383 . S
C471 C476 1.382 . S
C472 H449 0.950 . S
C472 C471 1.383 . S
C472 C473 1.395 . S
C473 H450 0.950 . S
C473 C472 1.395 . S
C473 C474 1.288 . S
C474 C473 1.288 . S
C474 C475 1.392 . S
C475 H451 0.951 . S
C475 C474 1.392 . S
C475 C476 1.392 . S
C476 H452 0.949 . S
C476 C471 1.382 . S
C476 C475 1.392 . S
C477 C478 1.376 . S
C477 C482 1.386 . S
C477 C483 1.483 . S
C478 H453 0.949 . S
C478 C477 1.376 . S
C478 C479 1.397 . S
C479 H454 0.950 . S
C479 C478 1.397 . S
C479 C480 1.391 . S
C480 C479 1.391 . S
C480 C481 1.405 . S
C481 H455 0.950 . S
C481 C480 1.405 . S
C481 C482 1.367 . S
C482 H456 0.950 . S
C482 C477 1.386 . S
C482 C481 1.367 . S
C483 C477 1.483 . S
C483 C484 1.382 . S
C483 C485 1.403 . S
C484 H457 0.950 . S
C484 C470 1.411 . S
C484 C483 1.382 . S
C485 C469 1.411 . S
C485 C483 1.403 . S
C485 C486 1.489 . S
C486 C485 1.489 . S
C486 C487 1.383 . S
C486 C491 1.382 . S
C487 H458 0.950 . S
C487 C486 1.383 . S
C487 C488 1.395 . S
C488 H459 0.950 . S
C488 C487 1.395 . S
C488 C489 1.288 . S
C489 C488 1.288 . S
C489 C490 1.392 . S
C490 H460 0.951 . S
C490 C489 1.392 . S
C490 C491 1.392 . S
C491 H461 0.949 . S
C491 C486 1.382 . S
C491 C490 1.392 . S
H492 C511 0.949 . S
H493 C512 0.950 . S
H494 C514 0.950 . S
H495 C515 0.950 . S
H496 C517 0.950 . S
H497 C520 0.950 . S
H498 C521 0.950 . S
H499 C523 0.951 . S
H500 C524 0.949 . S
H501 C526 0.949 . S
H502 C527 0.950 . S
H503 C529 0.950 . S
H504 C530 0.950 . S
H505 C532 0.950 . S
H506 C535 0.950 . S
H507 C536 0.950 . S
H508 C538 0.951 . S
H509 C539 0.949 . S
C510 C511 1.376 . S
C510 C515 1.386 . S
C510 C516 1.483 . S
C511 H492 0.949 . S
C511 C510 1.376 . S
C511 C512 1.397 . S
C512 H493 0.950 . S
C512 C511 1.397 . S
C512 C513 1.391 . S
C513 C512 1.391 . S
C513 C514 1.405 . S
C514 H494 0.950 . S
C514 C513 1.405 . S
C514 C515 1.367 . S
C515 H495 0.950 . S
C515 C510 1.386 . S
C515 C514 1.367 . S
C516 C510 1.483 . S
C516 C517 1.382 . S
C516 C518 1.403 . S
C517 H496 0.950 . S
C517 C516 1.382 . S
C517 C533 1.411 . S
C518 C516 1.403 . S
C518 C519 1.489 . S
C518 C532 1.411 . S
C519 C518 1.489 . S
C519 C520 1.383 . S
C519 C524 1.382 . S
C520 H497 0.950 . S
C520 C519 1.383 . S
C520 C521 1.395 . S
C521 H498 0.950 . S
C521 C520 1.395 . S
C521 C522 1.288 . S
C522 C521 1.288 . S
C522 C523 1.392 . S
C523 H499 0.951 . S
C523 C522 1.392 . S
C523 C524 1.392 . S
C524 H500 0.949 . S
C524 C519 1.382 . S
C524 C523 1.392 . S
C525 C526 1.376 . S
C525 C530 1.386 . S
C525 C531 1.483 . S
C526 H501 0.949 . S
C526 C525 1.376 . S
C526 C527 1.397 . S
C527 H502 0.950 . S
C527 C526 1.397 . S
C527 C528 1.391 . S
C528 C527 1.391 . S
C528 C529 1.405 . S
C529 H503 0.950 . S
C529 C528 1.405 . S
C529 C530 1.367 . S
C530 H504 0.950 . S
C530 C525 1.386 . S
C530 C529 1.367 . S
C531 C525 1.483 . S
C531 C532 1.382 . S
C531 C533 1.403 . S
C532 H505 0.950 . S
C532 C518 1.411 . S
C532 C531 1.382 . S
C533 C517 1.411 . S
C533 C531 1.403 . S
C533 C534 1.489 . S
C534 C533 1.489 . S
C534 C535 1.383 . S
C534 C539 1.382 . S
C535 H506 0.950 . S
C535 C534 1.383 . S
C535 C536 1.395 . S
C536 H507 0.950 . S
C536 C535 1.395 . S
C536 C537 1.288 . S
C537 C536 1.288 . S
C537 C538 1.392 . S
C538 H508 0.951 . S
C538 C537 1.392 . S
C538 C539 1.392 . S
C539 H509 0.949 . S
C539 C534 1.382 . S
C539 C538 1.392 . S
H540 C559 0.949 . S
H541 C560 0.950 . S
H542 C562 0.950 . S
H543 C563 0.950 . S
H544 C565 0.950 . S
H545 C568 0.950 . S
H546 C569 0.950 . S
H547 C571 0.951 . S
H548 C572 0.949 . S
H549 C574 0.949 . S
H550 C575 0.950 . S
H551 C577 0.950 . S
H552 C578 0.950 . S
H553 C580 0.950 . S
H554 C583 0.950 . S
H555 C584 0.950 . S
H556 C586 0.951 . S
H557 C587 0.949 . S
C558 C559 1.376 . S
C558 C563 1.386 . S
C558 C564 1.483 . S
C559 H540 0.949 . S
C559 C558 1.376 . S
C559 C560 1.397 . S
C560 H541 0.950 . S
C560 C559 1.397 . S
C560 C561 1.391 . S
C561 C560 1.391 . S
C561 C562 1.405 . S
C562 H542 0.950 . S
C562 C561 1.405 . S
C562 C563 1.367 . S
C563 H543 0.950 . S
C563 C558 1.386 . S
C563 C562 1.367 . S
C564 C558 1.483 . S
C564 C565 1.382 . S
C564 C566 1.403 . S
C565 H544 0.950 . S
C565 C564 1.382 . S
C565 C581 1.411 . S
C566 C564 1.403 . S
C566 C567 1.489 . S
C566 C580 1.411 . S
C567 C566 1.489 . S
C567 C568 1.383 . S
C567 C572 1.382 . S
C568 H545 0.950 . S
C568 C567 1.383 . S
C568 C569 1.395 . S
C569 H546 0.950 . S
C569 C568 1.395 . S
C569 C570 1.288 . S
C570 C569 1.288 . S
C570 C571 1.392 . S
C571 H547 0.951 . S
C571 C570 1.392 . S
C571 C572 1.392 . S
C572 H548 0.949 . S
C572 C567 1.382 . S
C572 C571 1.392 . S
C573 C574 1.376 . S
C573 C578 1.386 . S
C573 C579 1.483 . S
C574 H549 0.949 . S
C574 C573 1.376 . S
C574 C575 1.397 . S
C575 H550 0.950 . S
C575 C574 1.397 . S
C575 C576 1.391 . S
C576 C575 1.391 . S
C576 C577 1.405 . S
C577 H551 0.950 . S
C577 C576 1.405 . S
C577 C578 1.367 . S
C578 H552 0.950 . S
C578 C573 1.386 . S
C578 C577 1.367 . S
C579 C573 1.483 . S
C579 C580 1.382 . S
C579 C581 1.403 . S
C580 H553 0.950 . S
C580 C566 1.411 . S
C580 C579 1.382 . S
C581 C565 1.411 . S
C581 C579 1.403 . S
C581 C582 1.489 . S
C582 C581 1.489 . S
C582 C583 1.383 . S
C582 C587 1.382 . S
C583 H554 0.950 . S
C583 C582 1.383 . S
C583 C584 1.395 . S
C584 H555 0.950 . S
C584 C583 1.395 . S
C584 C585 1.288 . S
C585 C584 1.288 . S
C585 C586 1.392 . S
C586 H556 0.951 . S
C586 C585 1.392 . S
C586 C587 1.392 . S
C587 H557 0.949 . S
C587 C582 1.382 . S
C587 C586 1.392 . S
H588 C607 0.949 . S
H589 C608 0.950 . S
H590 C610 0.950 . S
H591 C611 0.950 . S
H592 C613 0.950 . S
H593 C616 0.950 . S
H594 C617 0.950 . S
H595 C619 0.951 . S
H596 C620 0.949 . S
H597 C622 0.949 . S
H598 C623 0.950 . S
H599 C625 0.950 . S
H600 C626 0.950 . S
H601 C628 0.950 . S
H602 C631 0.950 . S
H603 C632 0.950 . S
H604 C634 0.951 . S
H605 C635 0.949 . S
C606 C607 1.376 . S
C606 C611 1.386 . S
C606 C612 1.483 . S
C607 H588 0.949 . S
C607 C606 1.376 . S
C607 C608 1.397 . S
C608 H589 0.950 . S
C608 C607 1.397 . S
C608 C609 1.391 . S
C609 C608 1.391 . S
C609 C610 1.405 . S
C610 H590 0.950 . S
C610 C609 1.405 . S
C610 C611 1.367 . S
C611 H591 0.950 . S
C611 C606 1.386 . S
C611 C610 1.367 . S
C612 C606 1.483 . S
C612 C613 1.382 . S
C612 C614 1.403 . S
C613 H592 0.950 . S
C613 C612 1.382 . S
C613 C629 1.411 . S
C614 C612 1.403 . S
C614 C615 1.489 . S
C614 C628 1.411 . S
C615 C614 1.489 . S
C615 C616 1.383 . S
C615 C620 1.382 . S
C616 H593 0.950 . S
C616 C615 1.383 . S
C616 C617 1.395 . S
C617 H594 0.950 . S
C617 C616 1.395 . S
C617 C618 1.288 . S
C618 C617 1.288 . S
C618 C619 1.392 . S
C619 H595 0.951 . S
C619 C618 1.392 . S
C619 C620 1.392 . S
C620 H596 0.949 . S
C620 C615 1.382 . S
C620 C619 1.392 . S
C621 C622 1.376 . S
C621 C626 1.386 . S
C621 C627 1.483 . S
C622 H597 0.949 . S
C622 C621 1.376 . S
C622 C623 1.397 . S
C623 H598 0.950 . S
C623 C622 1.397 . S
C623 C624 1.391 . S
C624 C623 1.391 . S
C624 C625 1.405 . S
C625 H599 0.950 . S
C625 C624 1.405 . S
C625 C626 1.367 . S
C626 H600 0.950 . S
C626 C621 1.386 . S
C626 C625 1.367 . S
C627 C621 1.483 . S
C627 C628 1.382 . S
C627 C629 1.403 . S
C628 H601 0.950 . S
C628 C614 1.411 . S
C628 C627 1.382 . S
C629 C613 1.411 . S
C629 C627 1.403 . S
C629 C630 1.489 . S
C630 C629 1.489 . S
C630 C631 1.383 . S
C630 C635 1.382 . S
C631 H602 0.950 . S
C631 C630 1.383 . S
C631 C632 1.395 . S
C632 H603 0.950 . S
C632 C631 1.395 . S
C632 C633 1.288 . S
C633 C632 1.288 . S
C633 C634 1.392 . S
C634 H604 0.951 . S
C634 C633 1.392 . S
C634 C635 1.392 . S
C635 H605 0.949 . S
C635 C630 1.382 . S
C635 C634 1.392 . S
H636 C655 0.949 . S
H637 C656 0.950 . S
H638 C658 0.950 . S
H639 C659 0.950 . S
H640 C661 0.950 . S
H641 C664 0.950 . S
H642 C665 0.950 . S
H643 C667 0.951 . S
H644 C668 0.949 . S
H645 C670 0.949 . S
H646 C671 0.950 . S
H647 C673 0.950 . S
H648 C674 0.950 . S
H649 C676 0.950 . S
H650 C679 0.950 . S
H651 C680 0.950 . S
H652 C682 0.951 . S
H653 C683 0.949 . S
C654 C655 1.376 . S
C654 C659 1.386 . S
C654 C660 1.483 . S
C655 H636 0.949 . S
C655 C654 1.376 . S
C655 C656 1.397 . S
C656 H637 0.950 . S
C656 C655 1.397 . S
C656 C657 1.391 . S
C657 C656 1.391 . S
C657 C658 1.405 . S
C658 H638 0.950 . S
C658 C657 1.405 . S
C658 C659 1.367 . S
C659 H639 0.950 . S
C659 C654 1.386 . S
C659 C658 1.367 . S
C660 C654 1.483 . S
C660 C661 1.382 . S
C660 C662 1.403 . S
C661 H640 0.950 . S
C661 C660 1.382 . S
C661 C677 1.411 . S
C662 C660 1.403 . S
C662 C663 1.489 . S
C662 C676 1.411 . S
C663 C662 1.489 . S
C663 C664 1.383 . S
C663 C668 1.382 . S
C664 H641 0.950 . S
C664 C663 1.383 . S
C664 C665 1.395 . S
C665 H642 0.950 . S
C665 C664 1.395 . S
C665 C666 1.288 . S
C666 C665 1.288 . S
C666 C667 1.392 . S
C667 H643 0.951 . S
C667 C666 1.392 . S
C667 C668 1.392 . S
C668 H644 0.949 . S
C668 C663 1.382 . S
C668 C667 1.392 . S
C669 C670 1.376 . S
C669 C674 1.386 . S
C669 C675 1.483 . S
C670 H645 0.949 . S
C670 C669 1.376 . S
C670 C671 1.397 . S
C671 H646 0.950 . S
C671 C670 1.397 . S
C671 C672 1.391 . S
C672 C671 1.391 . S
C672 C673 1.405 . S
C673 H647 0.950 . S
C673 C672 1.405 . S
C673 C674 1.367 . S
C674 H648 0.950 . S
C674 C669 1.386 . S
C674 C673 1.367 . S
C675 C669 1.483 . S
C675 C676 1.382 . S
C675 C677 1.403 . S
C676 H649 0.950 . S
C676 C662 1.411 . S
C676 C675 1.382 . S
C677 C661 1.411 . S
C677 C675 1.403 . S
C677 C678 1.489 . S
C678 C677 1.489 . S
C678 C679 1.383 . S
C678 C683 1.382 . S
C679 H650 0.950 . S
C679 C678 1.383 . S
C679 C680 1.395 . S
C680 H651 0.950 . S
C680 C679 1.395 . S
C680 C681 1.288 . S
C681 C680 1.288 . S
C681 C682 1.392 . S
C682 H652 0.951 . S
C682 C681 1.392 . S
C682 C683 1.392 . S
C683 H653 0.949 . S
C683 C678 1.382 . S
C683 C682 1.392 . S
H684 C703 0.949 . S
H685 C704 0.950 . S
H686 C706 0.950 . S
H687 C707 0.950 . S
H688 C709 0.950 . S
H689 C712 0.950 . S
H690 C713 0.950 . S
H691 C715 0.951 . S
H692 C716 0.949 . S
H693 C718 0.949 . S
H694 C719 0.950 . S
H695 C721 0.950 . S
H696 C722 0.950 . S
H697 C724 0.950 . S
H698 C727 0.950 . S
H699 C728 0.950 . S
H700 C730 0.951 . S
H701 C731 0.949 . S
C702 C703 1.376 . S
C702 C707 1.386 1_655 S
C702 C708 1.483 . S
C703 H684 0.949 . S
C703 C702 1.376 . S
C703 C704 1.397 . S
C704 H685 0.950 . S
C704 C703 1.397 . S
C704 C705 1.391 . S
C705 C704 1.391 . S
C705 C706 1.405 1_655 S
C706 H686 0.950 . S
C706 C705 1.405 1_455 S
C706 C707 1.367 . S
C707 H687 0.950 . S
C707 C702 1.386 1_455 S
C707 C706 1.367 . S
C708 C702 1.483 . S
C708 C709 1.382 . S
C708 C710 1.403 1_655 S
C709 H688 0.950 . S
C709 C708 1.382 . S
C709 C725 1.411 . S
C710 C708 1.403 1_455 S
C710 C711 1.489 . S
C710 C724 1.411 . S
C711 C710 1.489 . S
C711 C712 1.383 1_455 S
C711 C716 1.382 . S
C712 H689 0.950 . S
C712 C711 1.383 1_655 S
C712 C713 1.395 . S
C713 H690 0.950 . S
C713 C712 1.395 . S
C713 C714 1.288 1_655 S
C714 C713 1.288 1_455 S
C714 C715 1.392 . S
C715 H691 0.951 . S
C715 C714 1.392 . S
C715 C716 1.392 . S
C716 H692 0.949 . S
C716 C711 1.382 . S
C716 C715 1.392 . S
C717 C718 1.376 . S
C717 C722 1.386 1_455 S
C717 C723 1.483 . S
C718 H693 0.949 . S
C718 C717 1.376 . S
C718 C719 1.397 . S
C719 H694 0.950 . S
C719 C718 1.397 . S
C719 C720 1.391 . S
C720 C719 1.391 . S
C720 C721 1.405 1_455 S
C721 H695 0.950 . S
C721 C720 1.405 1_655 S
C721 C722 1.367 . S
C722 H696 0.950 . S
C722 C717 1.386 1_655 S
C722 C721 1.367 . S
C723 C717 1.483 . S
C723 C724 1.382 . S
C723 C725 1.403 1_455 S
C724 H697 0.950 . S
C724 C710 1.411 . S
C724 C723 1.382 . S
C725 C709 1.411 . S
C725 C723 1.403 1_655 S
C725 C726 1.489 . S
C726 C725 1.489 . S
C726 C727 1.383 1_655 S
C726 C731 1.382 . S
C727 H698 0.950 . S
C727 C726 1.383 1_455 S
C727 C728 1.395 . S
C728 H699 0.950 . S
C728 C727 1.395 . S
C728 C729 1.288 1_455 S
C729 C728 1.288 1_655 S
C729 C730 1.392 . S
C730 H700 0.951 . S
C730 C729 1.392 . S
C730 C731 1.392 . S
C731 H701 0.949 . S
C731 C726 1.382 . S
C731 C730 1.392 . S
H732 C751 0.949 . S
H733 C752 0.950 . S
H734 C754 0.950 . S
H735 C755 0.950 . S
H736 C757 0.950 . S
H737 C760 0.950 . S
H738 C761 0.950 . S
H739 C763 0.951 . S
H740 C764 0.949 . S
H741 C766 0.949 . S
H742 C767 0.950 . S
H743 C769 0.950 . S
H744 C770 0.950 . S
H745 C772 0.950 . S
H746 C775 0.950 . S
H747 C776 0.950 . S
H748 C778 0.951 . S
H749 C779 0.949 . S
C750 C751 1.376 . S
C750 C755 1.386 . S
C750 C756 1.483 . S
C751 H732 0.949 . S
C751 C750 1.376 . S
C751 C752 1.397 . S
C752 H733 0.950 . S
C752 C751 1.397 . S
C752 C753 1.391 . S
C753 C752 1.391 . S
C753 C754 1.405 . S
C754 H734 0.950 . S
C754 C753 1.405 . S
C754 C755 1.367 . S
C755 H735 0.950 . S
C755 C750 1.386 . S
C755 C754 1.367 . S
C756 C750 1.483 . S
C756 C757 1.382 . S
C756 C758 1.403 . S
C757 H736 0.950 . S
C757 C756 1.382 . S
C757 C773 1.411 . S
C758 C756 1.403 . S
C758 C759 1.489 . S
C758 C772 1.411 . S
C759 C758 1.489 . S
C759 C760 1.383 . S
C759 C764 1.382 . S
C760 H737 0.950 . S
C760 C759 1.383 . S
C760 C761 1.395 . S
C761 H738 0.950 . S
C761 C760 1.395 . S
C761 C762 1.288 . S
C762 C761 1.288 . S
C762 C763 1.392 . S
C763 H739 0.951 . S
C763 C762 1.392 . S
C763 C764 1.392 . S
C764 H740 0.949 . S
C764 C759 1.382 . S
C764 C763 1.392 . S
C765 C766 1.376 . S
C765 C770 1.386 . S
C765 C771 1.483 . S
C766 H741 0.949 . S
C766 C765 1.376 . S
C766 C767 1.397 . S
C767 H742 0.950 . S
C767 C766 1.397 . S
C767 C768 1.391 . S
C768 C767 1.391 . S
C768 C769 1.405 . S
C769 H743 0.950 . S
C769 C768 1.405 . S
C769 C770 1.367 . S
C770 H744 0.950 . S
C770 C765 1.386 . S
C770 C769 1.367 . S
C771 C765 1.483 . S
C771 C772 1.382 . S
C771 C773 1.403 . S
C772 H745 0.950 . S
C772 C758 1.411 . S
C772 C771 1.382 . S
C773 C757 1.411 . S
C773 C771 1.403 . S
C773 C774 1.489 . S
C774 C773 1.489 . S
C774 C775 1.383 . S
C774 C779 1.382 . S
C775 H746 0.950 . S
C775 C774 1.383 . S
C775 C776 1.395 . S
C776 H747 0.950 . S
C776 C775 1.395 . S
C776 C777 1.288 . S
C777 C776 1.288 . S
C777 C778 1.392 . S
C778 H748 0.951 . S
C778 C777 1.392 . S
C778 C779 1.392 . S
C779 H749 0.949 . S
C779 C774 1.382 . S
C779 C778 1.392 . S
H780 C799 0.949 . S
H781 C800 0.950 . S
H782 C802 0.950 . S
H783 C803 0.950 . S
H784 C805 0.950 . S
H785 C808 0.950 . S
H786 C809 0.950 . S
H787 C811 0.951 . S
H788 C812 0.949 . S
H789 C814 0.949 . S
H790 C815 0.950 . S
H791 C817 0.950 . S
H792 C818 0.950 . S
H793 C820 0.950 . S
H794 C823 0.950 . S
H795 C824 0.950 . S
H796 C826 0.951 . S
H797 C827 0.949 . S
C798 C799 1.376 . S
C798 C803 1.386 1_545 S
C798 C804 1.483 . S
C799 H780 0.949 . S
C799 C798 1.376 . S
C799 C800 1.397 . S
C800 H781 0.950 . S
C800 C799 1.397 . S
C800 C801 1.391 . S
C801 C800 1.391 . S
C801 C802 1.405 1_545 S
C802 H782 0.950 . S
C802 C801 1.405 1_565 S
C802 C803 1.367 . S
C803 H783 0.950 . S
C803 C798 1.386 1_565 S
C803 C802 1.367 . S
C804 C798 1.483 . S
C804 C805 1.382 . S
C804 C806 1.403 1_545 S
C805 H784 0.950 . S
C805 C804 1.382 . S
C805 C821 1.411 . S
C806 C804 1.403 1_565 S
C806 C807 1.489 . S
C806 C820 1.411 . S
C807 C806 1.489 . S
C807 C808 1.383 1_565 S
C807 C812 1.382 . S
C808 H785 0.950 . S
C808 C807 1.383 1_545 S
C808 C809 1.395 . S
C809 H786 0.950 . S
C809 C808 1.395 . S
C809 C810 1.288 1_545 S
C810 C809 1.288 1_565 S
C810 C811 1.392 . S
C811 H787 0.951 . S
C811 C810 1.392 . S
C811 C812 1.392 . S
C812 H788 0.949 . S
C812 C807 1.382 . S
C812 C811 1.392 . S
C813 C814 1.376 . S
C813 C818 1.386 1_565 S
C813 C819 1.483 . S
C814 H789 0.949 . S
C814 C813 1.376 . S
C814 C815 1.397 . S
C815 H790 0.950 . S
C815 C814 1.397 . S
C815 C816 1.391 . S
C816 C815 1.391 . S
C816 C817 1.405 1_565 S
C817 H791 0.950 . S
C817 C816 1.405 1_545 S
C817 C818 1.367 . S
C818 H792 0.950 . S
C818 C813 1.386 1_545 S
C818 C817 1.367 . S
C819 C813 1.483 . S
C819 C820 1.382 . S
C819 C821 1.403 1_565 S
C820 H793 0.950 . S
C820 C806 1.411 . S
C820 C819 1.382 . S
C821 C805 1.411 . S
C821 C819 1.403 1_545 S
C821 C822 1.489 . S
C822 C821 1.489 . S
C822 C823 1.383 1_545 S
C822 C827 1.382 . S
C823 H794 0.950 . S
C823 C822 1.383 1_565 S
C823 C824 1.395 . S
C824 H795 0.950 . S
C824 C823 1.395 . S
C824 C825 1.288 1_565 S
C825 C824 1.288 1_545 S
C825 C826 1.392 . S
C826 H796 0.951 . S
C826 C825 1.392 . S
C826 C827 1.392 . S
C827 H797 0.949 . S
C827 C822 1.382 . S
C827 C826 1.392 . S
H828 C847 0.949 . S
H829 C848 0.950 . S
H830 C850 0.950 . S
H831 C851 0.950 . S
H832 C853 0.950 . S
H833 C856 0.950 . S
H834 C857 0.950 . S
H835 C859 0.951 . S
H836 C860 0.949 . S
H837 C862 0.949 . S
H838 C863 0.950 . S
H839 C865 0.950 . S
H840 C866 0.950 . S
H841 C868 0.950 . S
H842 C871 0.950 . S
H843 C872 0.950 . S
H844 C874 0.951 . S
H845 C875 0.949 . S
C846 C847 1.375 . S
C846 C851 1.386 1_545 S
C846 C852 1.506 . S
C847 H828 0.949 . S
C847 C846 1.375 . S
C847 C848 1.397 . S
C848 H829 0.950 . S
C848 C847 1.397 . S
C848 C849 1.391 1_545 S
C849 C848 1.391 1_565 S
C849 C850 1.405 . S
C850 H830 0.950 . S
C850 C849 1.405 . S
C850 C851 1.367 . S
C851 H831 0.950 . S
C851 C846 1.386 1_565 S
C851 C850 1.367 . S
C852 C846 1.506 . S
C852 C853 1.360 . S
C852 C854 1.401 1_545 S
C853 H832 0.950 . S
C853 C852 1.360 . S
C853 C869 1.445 . S
C854 C852 1.401 1_565 S
C854 C855 1.485 . S
C854 C868 1.437 . S
C855 C854 1.485 . S
C855 C856 1.342 1_565 S
C855 C860 1.404 . S
C856 H833 0.950 . S
C856 C855 1.342 1_545 S
C856 C857 1.395 . S
C857 H834 0.950 . S
C857 C856 1.395 . S
C857 C858 1.288 . S
C858 C857 1.288 . S
C858 C859 1.392 1_545 S
C859 H835 0.951 . S
C859 C858 1.392 1_565 S
C859 C860 1.392 . S
C860 H836 0.949 . S
C860 C855 1.404 . S
C860 C859 1.392 . S
C861 C862 1.375 1_545 S
C861 C866 1.386 . S
C861 C867 1.499 1_545 S
C862 H837 0.949 . S
C862 C861 1.375 1_565 S
C862 C863 1.397 . S
C863 H838 0.950 . S
C863 C862 1.397 . S
C863 C864 1.391 1_565 S
C864 C863 1.391 1_545 S
C864 C865 1.405 . S
C865 H839 0.950 . S
C865 C864 1.405 . S
C865 C866 1.367 . S
C866 H840 0.950 . S
C866 C861 1.386 . S
C866 C865 1.367 . S
C867 C861 1.499 1_565 S
C867 C868 1.366 . S
C867 C869 1.401 1_565 S
C868 H841 0.950 . S
C868 C854 1.437 . S
C868 C867 1.366 . S
C869 C853 1.445 . S
C869 C867 1.401 1_545 S
C869 C870 1.485 . S
C870 C869 1.485 . S
C870 C871 1.327 1_545 S
C870 C875 1.412 . S
C871 H842 0.950 . S
C871 C870 1.327 1_565 S
C871 C872 1.395 . S
C872 H843 0.950 . S
C872 C871 1.395 . S
C872 C873 1.288 . S
C873 C872 1.288 . S
C873 C874 1.392 1_565 S
C874 H844 0.951 . S
C874 C873 1.392 1_545 S
C874 C875 1.392 . S
C875 H845 0.949 . S
C875 C870 1.412 . S
C875 C874 1.392 . S
H876 C895 0.949 . S
H877 C896 0.950 . S
H878 C898 0.950 . S
H879 C899 0.950 . S
H880 C901 0.950 . S
H881 C904 0.950 . S
H882 C905 0.950 . S
H883 C907 0.951 . S
H884 C908 0.949 . S
H885 C910 0.949 . S
H886 C911 0.950 . S
H887 C913 0.950 . S
H888 C914 0.950 . S
H889 C916 0.950 . S
H890 C919 0.950 . S
H891 C920 0.950 . S
H892 C922 0.951 . S
H893 C923 0.949 . S
C894 C895 1.376 . S
C894 C899 1.386 1_455 S
C894 C900 1.483 . S
C895 H876 0.949 . S
C895 C894 1.376 . S
C895 C896 1.397 . S
C896 H877 0.950 . S
C896 C895 1.397 . S
C896 C897 1.391 . S
C897 C896 1.391 . S
C897 C898 1.405 1_455 S
C898 H878 0.950 . S
C898 C897 1.405 1_655 S
C898 C899 1.367 . S
C899 H879 0.950 . S
C899 C894 1.386 1_655 S
C899 C898 1.367 . S
C900 C894 1.483 . S
C900 C901 1.382 . S
C900 C902 1.403 1_455 S
C901 H880 0.950 . S
C901 C900 1.382 . S
C901 C917 1.411 . S
C902 C900 1.403 1_655 S
C902 C903 1.489 . S
C902 C916 1.411 . S
C903 C902 1.489 . S
C903 C904 1.383 1_655 S
C903 C908 1.382 . S
C904 H881 0.950 . S
C904 C903 1.383 1_455 S
C904 C905 1.395 . S
C905 H882 0.950 . S
C905 C904 1.395 . S
C905 C906 1.288 1_455 S
C906 C905 1.288 1_655 S
C906 C907 1.392 . S
C907 H883 0.951 . S
C907 C906 1.392 . S
C907 C908 1.392 . S
C908 H884 0.949 . S
C908 C903 1.382 . S
C908 C907 1.392 . S
C909 C910 1.376 . S
C909 C914 1.386 1_655 S
C909 C915 1.483 . S
C910 H885 0.949 . S
C910 C909 1.376 . S
C910 C911 1.397 . S
C911 H886 0.950 . S
C911 C910 1.397 . S
C911 C912 1.391 . S
C912 C911 1.391 . S
C912 C913 1.405 1_655 S
C913 H887 0.950 . S
C913 C912 1.405 1_455 S
C913 C914 1.367 . S
C914 H888 0.950 . S
C914 C909 1.386 1_455 S
C914 C913 1.367 . S
C915 C909 1.483 . S
C915 C916 1.382 . S
C915 C917 1.403 1_655 S
C916 H889 0.950 . S
C916 C902 1.411 . S
C916 C915 1.382 . S
C917 C901 1.411 . S
C917 C915 1.403 1_455 S
C917 C918 1.489 . S
C918 C917 1.489 . S
C918 C919 1.383 1_455 S
C918 C923 1.382 . S
C919 H890 0.950 . S
C919 C918 1.383 1_655 S
C919 C920 1.395 . S
C920 H891 0.950 . S
C920 C919 1.395 . S
C920 C921 1.288 1_655 S
C921 C920 1.288 1_455 S
C921 C922 1.392 . S
C922 H892 0.951 . S
C922 C921 1.392 . S
C922 C923 1.392 . S
C923 H893 0.949 . S
C923 C918 1.382 . S
C923 C922 1.392 . S
H924 C943 0.949 . S
H925 C944 0.950 . S
H926 C946 0.950 . S
H927 C947 0.950 . S
H928 C949 0.950 . S
H929 C952 0.950 . S
H930 C953 0.950 . S
H931 C955 0.951 . S
H932 C956 0.949 . S
H933 C958 0.949 . S
H934 C959 0.950 . S
H935 C961 0.950 . S
H936 C962 0.950 . S
H937 C964 0.950 . S
H938 C967 0.950 . S
H939 C968 0.950 . S
H940 C970 0.951 . S
H941 C971 0.949 . S
C942 C943 1.376 . S
C942 C947 1.386 . S
C942 C948 1.483 . S
C943 H924 0.949 . S
C943 C942 1.376 . S
C943 C944 1.397 . S
C944 H925 0.950 . S
C944 C943 1.397 . S
C944 C945 1.391 . S
C945 C944 1.391 . S
C945 C946 1.405 . S
C946 H926 0.950 . S
C946 C945 1.405 . S
C946 C947 1.367 . S
C947 H927 0.950 . S
C947 C942 1.386 . S
C947 C946 1.367 . S
C948 C942 1.483 . S
C948 C949 1.382 . S
C948 C950 1.403 . S
C949 H928 0.950 . S
C949 C948 1.382 . S
C949 C965 1.411 . S
C950 C948 1.403 . S
C950 C951 1.489 . S
C950 C964 1.411 . S
C951 C950 1.489 . S
C951 C952 1.383 . S
C951 C956 1.382 . S
C952 H929 0.950 . S
C952 C951 1.383 . S
C952 C953 1.395 . S
C953 H930 0.950 . S
C953 C952 1.395 . S
C953 C954 1.288 . S
C954 C953 1.288 . S
C954 C955 1.392 . S
C955 H931 0.951 . S
C955 C954 1.392 . S
C955 C956 1.392 . S
C956 H932 0.949 . S
C956 C951 1.382 . S
C956 C955 1.392 . S
C957 C958 1.376 . S
C957 C962 1.386 . S
C957 C963 1.483 . S
C958 H933 0.949 . S
C958 C957 1.376 . S
C958 C959 1.397 . S
C959 H934 0.950 . S
C959 C958 1.397 . S
C959 C960 1.391 . S
C960 C959 1.391 . S
C960 C961 1.405 . S
C961 H935 0.950 . S
C961 C960 1.405 . S
C961 C962 1.367 . S
C962 H936 0.950 . S
C962 C957 1.386 . S
C962 C961 1.367 . S
C963 C957 1.483 . S
C963 C964 1.382 . S
C963 C965 1.403 . S
C964 H937 0.950 . S
C964 C950 1.411 . S
C964 C963 1.382 . S
C965 C949 1.411 . S
C965 C963 1.403 . S
C965 C966 1.489 . S
C966 C965 1.489 . S
C966 C967 1.383 . S
C966 C971 1.382 . S
C967 H938 0.950 . S
C967 C966 1.383 . S
C967 C968 1.395 . S
C968 H939 0.950 . S
C968 C967 1.395 . S
C968 C969 1.288 . S
C969 C968 1.288 . S
C969 C970 1.392 . S
C970 H940 0.951 . S
C970 C969 1.392 . S
C970 C971 1.392 . S
C971 H941 0.949 . S
C971 C966 1.382 . S
C971 C970 1.392 . S
H972 C991 0.949 . S
H973 C992 0.950 . S
H974 C994 0.950 . S
H975 C995 0.950 . S
H976 C997 0.950 . S
H977 C1000 0.950 . S
H978 C1001 0.950 . S
H979 C1003 0.951 . S
H980 C1004 0.949 . S
H981 C1006 0.949 . S
H982 C1007 0.950 . S
H983 C1009 0.950 . S
H984 C1010 0.950 . S
H985 C1012 0.950 . S
H986 C1015 0.950 . S
H987 C1016 0.950 . S
H988 C1018 0.951 . S
H989 C1019 0.949 . S
C990 C991 1.376 . S
C990 C995 1.386 . S
C990 C996 1.483 . S
C991 H972 0.949 . S
C991 C990 1.376 . S
C991 C992 1.397 . S
C992 H973 0.950 . S
C992 C991 1.397 . S
C992 C993 1.391 . S
C993 C992 1.391 . S
C993 C994 1.405 . S
C994 H974 0.950 . S
C994 C993 1.405 . S
C994 C995 1.367 . S
C995 H975 0.950 . S
C995 C990 1.386 . S
C995 C994 1.367 . S
C996 C990 1.483 . S
C996 C997 1.382 . S
C996 C998 1.403 . S
C997 H976 0.950 . S
C997 C996 1.382 . S
C997 C1013 1.411 . S
C998 C996 1.403 . S
C998 C999 1.489 . S
C998 C1012 1.411 . S
C999 C998 1.489 . S
C999 C1000 1.383 . S
C999 C1004 1.382 . S
C1000 H977 0.950 . S
C1000 C999 1.383 . S
C1000 C1001 1.395 . S
C1001 H978 0.950 . S
C1001 C1000 1.395 . S
C1001 C1002 1.288 . S
C1002 C1001 1.288 . S
C1002 C1003 1.392 . S
C1003 H979 0.951 . S
C1003 C1002 1.392 . S
C1003 C1004 1.392 . S
C1004 H980 0.949 . S
C1004 C999 1.382 . S
C1004 C1003 1.392 . S
C1005 C1006 1.376 . S
C1005 C1010 1.386 . S
C1005 C1011 1.483 . S
C1006 H981 0.949 . S
C1006 C1005 1.376 . S
C1006 C1007 1.397 . S
C1007 H982 0.950 . S
C1007 C1006 1.397 . S
C1007 C1008 1.391 . S
C1008 C1007 1.391 . S
C1008 C1009 1.405 . S
C1009 H983 0.950 . S
C1009 C1008 1.405 . S
C1009 C1010 1.367 . S
C1010 H984 0.950 . S
C1010 C1005 1.386 . S
C1010 C1009 1.367 . S
C1011 C1005 1.483 . S
C1011 C1012 1.382 . S
C1011 C1013 1.403 . S
C1012 H985 0.950 . S
C1012 C998 1.411 . S
C1012 C1011 1.382 . S
C1013 C997 1.411 . S
C1013 C1011 1.403 . S
C1013 C1014 1.489 . S
C1014 C1013 1.489 . S
C1014 C1015 1.383 . S
C1014 C1019 1.382 . S
C1015 H986 0.950 . S
C1015 C1014 1.383 . S
C1015 C1016 1.395 . S
C1016 H987 0.950 . S
C1016 C1015 1.395 . S
C1016 C1017 1.288 . S
C1017 C1016 1.288 . S
C1017 C1018 1.392 . S
C1018 H988 0.951 . S
C1018 C1017 1.392 . S
C1018 C1019 1.392 . S
C1019 H989 0.949 . S
C1019 C1014 1.382 . S
C1019 C1018 1.392 . S
H1020 C1039 0.949 . S
H1021 C1040 0.950 . S
H1022 C1042 0.950 . S
H1023 C1043 0.950 . S
H1024 C1045 0.950 . S
H1025 C1048 0.950 . S
H1026 C1049 0.950 . S
H1027 C1051 0.951 . S
H1028 C1052 0.949 . S
H1029 C1054 0.949 . S
H1030 C1055 0.950 . S
H1031 C1057 0.950 . S
H1032 C1058 0.950 . S
H1033 C1060 0.950 . S
H1034 C1063 0.950 . S
H1035 C1064 0.950 . S
H1036 C1066 0.951 . S
H1037 C1067 0.949 . S
C1038 C1039 1.376 . S
C1038 C1043 1.386 . S
C1038 C1044 1.483 . S
C1039 H1020 0.949 . S
C1039 C1038 1.376 . S
C1039 C1040 1.397 . S
C1040 H1021 0.950 . S
C1040 C1039 1.397 . S
C1040 C1041 1.391 . S
C1041 C1040 1.391 . S
C1041 C1042 1.405 . S
C1042 H1022 0.950 . S
C1042 C1041 1.405 . S
C1042 C1043 1.367 . S
C1043 H1023 0.950 . S
C1043 C1038 1.386 . S
C1043 C1042 1.367 . S
C1044 C1038 1.483 . S
C1044 C1045 1.382 . S
C1044 C1046 1.403 . S
C1045 H1024 0.950 . S
C1045 C1044 1.382 . S
C1045 C1061 1.411 . S
C1046 C1044 1.403 . S
C1046 C1047 1.489 . S
C1046 C1060 1.411 . S
C1047 C1046 1.489 . S
C1047 C1048 1.383 . S
C1047 C1052 1.382 . S
C1048 H1025 0.950 . S
C1048 C1047 1.383 . S
C1048 C1049 1.395 . S
C1049 H1026 0.950 . S
C1049 C1048 1.395 . S
C1049 C1050 1.288 . S
C1050 C1049 1.288 . S
C1050 C1051 1.392 . S
C1051 H1027 0.951 . S
C1051 C1050 1.392 . S
C1051 C1052 1.392 . S
C1052 H1028 0.949 . S
C1052 C1047 1.382 . S
C1052 C1051 1.392 . S
C1053 C1054 1.376 . S
C1053 C1058 1.386 . S
C1053 C1059 1.483 . S
C1054 H1029 0.949 . S
C1054 C1053 1.376 . S
C1054 C1055 1.397 . S
C1055 H1030 0.950 . S
C1055 C1054 1.397 . S
C1055 C1056 1.391 . S
C1056 C1055 1.391 . S
C1056 C1057 1.405 . S
C1057 H1031 0.950 . S
C1057 C1056 1.405 . S
C1057 C1058 1.367 . S
C1058 H1032 0.950 . S
C1058 C1053 1.386 . S
C1058 C1057 1.367 . S
C1059 C1053 1.483 . S
C1059 C1060 1.382 . S
C1059 C1061 1.403 . S
C1060 H1033 0.950 . S
C1060 C1046 1.411 . S
C1060 C1059 1.382 . S
C1061 C1045 1.411 . S
C1061 C1059 1.403 . S
C1061 C1062 1.489 . S
C1062 C1061 1.489 . S
C1062 C1063 1.383 . S
C1062 C1067 1.382 . S
C1063 H1034 0.950 . S
C1063 C1062 1.383 . S
C1063 C1064 1.395 . S
C1064 H1035 0.950 . S
C1064 C1063 1.395 . S
C1064 C1065 1.288 . S
C1065 C1064 1.288 . S
C1065 C1066 1.392 . S
C1066 H1036 0.951 . S
C1066 C1065 1.392 . S
C1066 C1067 1.392 . S
C1067 H1037 0.949 . S
C1067 C1062 1.382 . S
C1067 C1066 1.392 . S
H1068 C1087 0.949 . S
H1069 C1088 0.950 . S
H1070 C1090 0.950 . S
H1071 C1091 0.950 . S
H1072 C1093 0.950 . S
H1073 C1096 0.950 . S
H1074 C1097 0.950 . S
H1075 C1099 0.951 . S
H1076 C1100 0.949 . S
H1077 C1102 0.949 . S
H1078 C1103 0.950 . S
H1079 C1105 0.950 . S
H1080 C1106 0.950 . S
H1081 C1108 0.950 . S
H1082 C1111 0.950 . S
H1083 C1112 0.950 . S
H1084 C1114 0.951 . S
H1085 C1115 0.949 . S
C1086 C1087 1.376 . S
C1086 C1091 1.386 . S
C1086 C1092 1.483 . S
C1087 H1068 0.949 . S
C1087 C1086 1.376 . S
C1087 C1088 1.397 . S
C1088 H1069 0.950 . S
C1088 C1087 1.397 . S
C1088 C1089 1.391 . S
C1089 C1088 1.391 . S
C1089 C1090 1.405 . S
C1090 H1070 0.950 . S
C1090 C1089 1.405 . S
C1090 C1091 1.367 . S
C1091 H1071 0.950 . S
C1091 C1086 1.386 . S
C1091 C1090 1.367 . S
C1092 C1086 1.483 . S
C1092 C1093 1.382 . S
C1092 C1094 1.403 . S
C1093 H1072 0.950 . S
C1093 C1092 1.382 . S
C1093 C1109 1.411 . S
C1094 C1092 1.403 . S
C1094 C1095 1.489 . S
C1094 C1108 1.411 . S
C1095 C1094 1.489 . S
C1095 C1096 1.383 . S
C1095 C1100 1.382 . S
C1096 H1073 0.950 . S
C1096 C1095 1.383 . S
C1096 C1097 1.395 . S
C1097 H1074 0.950 . S
C1097 C1096 1.395 . S
C1097 C1098 1.288 . S
C1098 C1097 1.288 . S
C1098 C1099 1.392 . S
C1099 H1075 0.951 . S
C1099 C1098 1.392 . S
C1099 C1100 1.392 . S
C1100 H1076 0.949 . S
C1100 C1095 1.382 . S
C1100 C1099 1.392 . S
C1101 C1102 1.376 . S
C1101 C1106 1.386 . S
C1101 C1107 1.483 . S
C1102 H1077 0.949 . S
C1102 C1101 1.376 . S
C1102 C1103 1.397 . S
C1103 H1078 0.950 . S
C1103 C1102 1.397 . S
C1103 C1104 1.391 . S
C1104 C1103 1.391 . S
C1104 C1105 1.405 . S
C1105 H1079 0.950 . S
C1105 C1104 1.405 . S
C1105 C1106 1.367 . S
C1106 H1080 0.950 . S
C1106 C1101 1.386 . S
C1106 C1105 1.367 . S
C1107 C1101 1.483 . S
C1107 C1108 1.382 . S
C1107 C1109 1.403 . S
C1108 H1081 0.950 . S
C1108 C1094 1.411 . S
C1108 C1107 1.382 . S
C1109 C1093 1.411 . S
C1109 C1107 1.403 . S
C1109 C1110 1.489 . S
C1110 C1109 1.489 . S
C1110 C1111 1.383 . S
C1110 C1115 1.382 . S
C1111 H1082 0.950 . S
C1111 C1110 1.383 . S
C1111 C1112 1.395 . S
C1112 H1083 0.950 . S
C1112 C1111 1.395 . S
C1112 C1113 1.288 . S
C1113 C1112 1.288 . S
C1113 C1114 1.392 . S
C1114 H1084 0.951 . S
C1114 C1113 1.392 . S
C1114 C1115 1.392 . S
C1115 H1085 0.949 . S
C1115 C1110 1.382 . S
C1115 C1114 1.392 . S
H1116 C1122 0.925 . S
H1117 C1125 0.930 . S
H1118 C1126 0.930 . S
H1119 C1127 0.930 . S
H1120 C1130 0.930 . S
H1121 C1131 0.930 . S
C1122 H1116 0.925 . S
C1122 C1123 1.356 1_455 S
C1122 C1124 1.413 1_455 S
C1123 C1122 1.356 1_655 S
C1123 C1125 1.419 . S
C1124 C1122 1.413 1_655 S
C1124 C1129 1.433 . S
C1124 C1131 1.406 1_655 S
C1125 H1117 0.930 . S
C1125 C1123 1.419 . S
C1125 C1126 1.362 . S
C1126 H1118 0.930 . S
C1126 C1125 1.362 . S
C1126 C1129 1.409 . S
C1127 H1119 0.930 . S
C1127 C1128 1.355 . S
C1127 C1129 1.415 . S
C1128 C1127 1.355 . S
C1128 C1130 1.419 1_655 S
C1129 C1124 1.433 . S
C1129 C1126 1.409 . S
C1129 C1127 1.415 . S
C1130 H1120 0.930 . S
C1130 C1128 1.419 1_455 S
C1130 C1131 1.362 . S
C1131 H1121 0.930 . S
C1131 C1124 1.406 1_455 S
C1131 C1130 1.362 . S
H1132 C1138 0.930 . S
H1133 C1141 0.930 . S
H1134 C1142 0.930 . S
H1135 C1143 0.930 . S
H1136 C1146 0.930 . S
H1137 C1147 0.930 . S
C1138 H1132 0.930 . S
C1138 C1139 1.355 . S
C1138 C1140 1.415 . S
C1139 C1138 1.355 . S
C1139 C1141 1.419 . S
C1140 C1138 1.415 . S
C1140 C1145 1.425 . S
C1140 C1147 1.409 . S
C1141 H1133 0.930 . S
C1141 C1139 1.419 . S
C1141 C1142 1.362 . S
C1142 H1134 0.930 . S
C1142 C1141 1.362 . S
C1142 C1145 1.409 . S
C1143 H1135 0.930 . S
C1143 C1144 1.355 . S
C1143 C1145 1.415 . S
C1144 C1143 1.355 . S
C1144 C1146 1.419 . S
C1145 C1140 1.425 . S
C1145 C1142 1.409 . S
C1145 C1143 1.415 . S
C1146 H1136 0.930 . S
C1146 C1144 1.419 . S
C1146 C1147 1.362 . S
C1147 H1137 0.930 . S
C1147 C1140 1.409 . S
C1147 C1146 1.362 . S
H1148 C1154 0.930 . S
H1149 C1157 0.930 . S
H1150 C1158 0.930 . S
H1151 C1159 0.930 . S
H1152 C1162 0.930 . S
H1153 C1163 0.921 . S
C1154 H1148 0.930 . S
C1154 C1155 1.355 . S
C1154 C1156 1.415 . S
C1155 C1154 1.355 . S
C1155 C1157 1.419 . S
C1156 C1154 1.415 . S
C1156 C1161 1.425 . S
C1156 C1163 1.392 1_545 S
C1157 H1149 0.930 . S
C1157 C1155 1.419 . S
C1157 C1158 1.362 . S
C1158 H1150 0.930 . S
C1158 C1157 1.362 . S
C1158 C1161 1.409 . S
C1159 H1151 0.930 . S
C1159 C1160 1.355 . S
C1159 C1161 1.415 . S
C1160 C1159 1.355 . S
C1160 C1162 1.419 1_545 S
C1161 C1156 1.425 . S
C1161 C1158 1.409 . S
C1161 C1159 1.415 . S
C1162 H1152 0.930 . S
C1162 C1160 1.419 1_565 S
C1162 C1163 1.392 . S
C1163 H1153 0.921 . S
C1163 C1156 1.392 1_565 S
C1163 C1162 1.392 . S
H1164 C1170 0.930 . S
H1165 C1173 0.930 . S
H1166 C1174 0.930 . S
H1167 C1175 0.930 . S
H1168 C1178 0.930 . S
H1169 C1179 0.930 . S
C1170 H1164 0.930 . S
C1170 C1171 1.355 . S
C1170 C1172 1.415 . S
C1171 C1170 1.355 . S
C1171 C1173 1.419 . S
C1172 C1170 1.415 . S
C1172 C1177 1.425 . S
C1172 C1179 1.409 1_565 S
C1173 H1165 0.930 . S
C1173 C1171 1.419 . S
C1173 C1174 1.362 . S
C1174 H1166 0.930 . S
C1174 C1173 1.362 . S
C1174 C1177 1.409 . S
C1175 H1167 0.930 . S
C1175 C1176 1.355 . S
C1175 C1177 1.415 . S
C1176 C1175 1.355 . S
C1176 C1178 1.419 1_565 S
C1177 C1172 1.425 . S
C1177 C1174 1.409 . S
C1177 C1175 1.415 . S
C1178 H1168 0.930 . S
C1178 C1176 1.419 1_545 S
C1178 C1179 1.362 . S
C1179 H1169 0.930 . S
C1179 C1172 1.409 1_545 S
C1179 C1178 1.362 . S
H1180 C1186 0.930 . S
H1181 C1189 0.930 . S
H1182 C1190 0.930 . S
H1183 C1191 0.930 . S
H1184 C1194 0.930 . S
H1185 C1195 0.930 . S
C1186 H1180 0.930 . S
C1186 C1187 1.355 . S
C1186 C1188 1.415 . S
C1187 C1186 1.355 . S
C1187 C1189 1.419 1_455 S
C1188 C1186 1.415 . S
C1188 C1193 1.493 . S
C1188 C1195 1.409 . S
C1189 H1181 0.930 . S
C1189 C1187 1.419 1_655 S
C1189 C1190 1.362 . S
C1190 H1182 0.930 . S
C1190 C1189 1.362 . S
C1190 C1193 1.389 1_655 S
C1191 H1183 0.930 . S
C1191 C1192 1.355 1_655 S
C1191 C1193 1.373 1_655 S
C1192 C1191 1.355 1_455 S
C1192 C1194 1.419 . S
C1193 C1188 1.493 . S
C1193 C1190 1.389 1_455 S
C1193 C1191 1.373 1_455 S
C1194 H1184 0.930 . S
C1194 C1192 1.419 . S
C1194 C1195 1.362 . S
C1195 H1185 0.930 . S
C1195 C1188 1.409 . S
C1195 C1194 1.362 . S
H1196 C1202 0.930 . S
H1197 C1205 0.930 . S
H1198 C1206 0.930 . S
H1199 C1207 0.930 . S
H1200 C1210 0.930 . S
H1201 C1211 0.930 . S
C1202 H1196 0.930 . S
C1202 C1203 1.355 . S
C1202 C1204 1.415 . S
C1203 C1202 1.355 . S
C1203 C1205 1.419 . S
C1204 C1202 1.415 . S
C1204 C1209 1.425 . S
C1204 C1211 1.409 . S
C1205 H1197 0.930 . S
C1205 C1203 1.419 . S
C1205 C1206 1.362 . S
C1206 H1198 0.930 . S
C1206 C1205 1.362 . S
C1206 C1209 1.409 . S
C1207 H1199 0.930 . S
C1207 C1208 1.355 . S
C1207 C1209 1.415 . S
C1208 C1207 1.355 . S
C1208 C1210 1.419 . S
C1209 C1204 1.425 . S
C1209 C1206 1.409 . S
C1209 C1207 1.415 . S
C1210 H1200 0.930 . S
C1210 C1208 1.419 . S
C1210 C1211 1.362 . S
C1211 H1201 0.930 . S
C1211 C1204 1.409 . S
C1211 C1210 1.362 . S
H1212 C1218 0.930 . S
H1213 C1221 0.930 . S
H1214 C1222 0.930 . S
H1215 C1223 0.948 . S
H1216 C1226 0.930 . S
H1217 C1227 0.930 . S
C1218 H1212 0.930 . S
C1218 C1219 1.355 . S
C1218 C1220 1.415 . S
C1219 C1218 1.355 . S
C1219 C1221 1.419 . S
C1220 C1218 1.415 . S
C1220 C1225 1.425 . S
C1220 C1227 1.409 . S
C1221 H1213 0.930 . S
C1221 C1219 1.419 . S
C1221 C1222 1.362 . S
C1222 H1214 0.930 . S
C1222 C1221 1.362 . S
C1222 C1225 1.409 . S
C1223 H1215 0.948 . S
C1223 C1224 1.355 . S
C1223 C1225 1.415 . S
C1224 C1223 1.355 . S
C1224 C1226 1.419 . S
C1225 C1220 1.425 . S
C1225 C1222 1.409 . S
C1225 C1223 1.415 . S
C1226 H1216 0.930 . S
C1226 C1224 1.419 . S
C1226 C1227 1.362 . S
C1227 H1217 0.930 . S
C1227 C1220 1.409 . S
C1227 C1226 1.362 . S
H1228 C1234 0.930 . S
H1229 C1237 0.930 . S
H1230 C1238 0.930 . S
H1231 C1239 0.930 . S
H1232 C1242 0.930 . S
H1233 C1243 0.930 . S
C1234 H1228 0.930 . S
C1234 C1235 1.355 . S
C1234 C1236 1.415 . S
C1235 C1234 1.355 . S
C1235 C1237 1.419 . S
C1236 C1234 1.415 . S
C1236 C1241 1.425 . S
C1236 C1243 1.409 . S
C1237 H1229 0.930 . S
C1237 C1235 1.419 . S
C1237 C1238 1.362 . S
C1238 H1230 0.930 . S
C1238 C1237 1.362 . S
C1238 C1241 1.409 . S
C1239 H1231 0.930 . S
C1239 C1240 1.355 . S
C1239 C1241 1.415 . S
C1240 C1239 1.355 . S
C1240 C1242 1.419 . S
C1241 C1236 1.425 . S
C1241 C1238 1.409 . S
C1241 C1239 1.415 . S
C1242 H1232 0.930 . S
C1242 C1240 1.419 . S
C1242 C1243 1.362 . S
C1243 H1233 0.930 . S
C1243 C1236 1.409 . S
C1243 C1242 1.362 . S
H1244 C1250 0.930 . S
H1245 C1253 0.930 . S
H1246 C1254 0.928 1_545 S
H1247 C1255 0.930 . S
H1248 C1258 0.930 . S
H1249 C1259 0.930 . S
C1250 H1244 0.930 . S
C1250 C1251 1.355 . S
C1250 C1252 1.415 . S
C1251 C1250 1.355 . S
C1251 C1253 1.419 . S
C1252 C1250 1.415 . S
C1252 C1257 1.425 . S
C1252 C1259 1.409 . S
C1253 H1245 0.930 . S
C1253 C1251 1.419 . S
C1253 C1254 1.362 . S
C1254 H1246 0.928 1_565 S
C1254 C1253 1.362 . S
C1254 C1257 1.409 . S
C1255 H1247 0.930 . S
C1255 C1256 1.355 . S
C1255 C1257 1.415 . S
C1256 C1255 1.355 . S
C1256 C1258 1.419 . S
C1257 C1252 1.425 . S
C1257 C1254 1.409 . S
C1257 C1255 1.415 . S
C1258 H1248 0.930 . S
C1258 C1256 1.419 . S
C1258 C1259 1.362 . S
C1259 H1249 0.930 . S
C1259 C1252 1.409 . S
C1259 C1258 1.362 . S
H1260 C1266 0.930 . S
H1261 C1269 0.930 . S
H1262 C1270 0.930 . S
H1263 C1271 0.930 . S
H1264 C1274 0.930 . S
H1265 C1275 0.930 . S
C1266 H1260 0.930 . S
C1266 C1267 1.355 . S
C1266 C1268 1.415 . S
C1267 C1266 1.355 . S
C1267 C1269 1.419 . S
C1268 C1266 1.415 . S
C1268 C1273 1.425 . S
C1268 C1275 1.409 . S
C1269 H1261 0.930 . S
C1269 C1267 1.419 . S
C1269 C1270 1.362 . S
C1270 H1262 0.930 . S
C1270 C1269 1.362 . S
C1270 C1273 1.409 . S
C1271 H1263 0.930 . S
C1271 C1272 1.355 . S
C1271 C1273 1.415 . S
C1272 C1271 1.355 . S
C1272 C1274 1.419 . S
C1273 C1268 1.425 . S
C1273 C1270 1.409 . S
C1273 C1271 1.415 . S
C1274 H1264 0.930 . S
C1274 C1272 1.419 . S
C1274 C1275 1.362 . S
C1275 H1265 0.930 . S
C1275 C1268 1.409 . S
C1275 C1274 1.362 . S
H1276 C1282 0.930 . S
H1277 C1285 0.925 1_455 S
H1278 C1286 0.956 . S
H1279 C1287 0.930 1_455 S
H1280 C1290 0.930 . S
H1281 C1291 0.930 . S
C1282 H1276 0.930 . S
C1282 C1283 1.355 . S
C1282 C1284 1.415 . S
C1283 C1282 1.355 . S
C1283 C1285 1.419 . S
C1284 C1282 1.415 . S
C1284 C1289 1.425 . S
C1284 C1291 1.409 . S
C1285 H1277 0.925 1_655 S
C1285 C1283 1.419 . S
C1285 C1286 1.343 1_655 S
C1286 H1278 0.956 . S
C1286 C1285 1.343 1_455 S
C1286 C1289 1.404 1_455 S
C1287 H1279 0.930 1_655 S
C1287 C1288 1.355 . S
C1287 C1289 1.415 . S
C1288 C1287 1.355 . S
C1288 C1290 1.419 . S
C1289 C1284 1.425 . S
C1289 C1286 1.404 1_655 S
C1289 C1287 1.415 . S
C1290 H1280 0.930 . S
C1290 C1288 1.419 . S
C1290 C1291 1.362 . S
C1291 H1281 0.930 . S
C1291 C1284 1.409 . S
C1291 C1290 1.362 . S
H1292 C1298 0.930 . S
H1293 C1301 0.930 . S
H1294 C1302 0.930 . S
H1295 C1303 0.930 . S
H1296 C1306 0.930 . S
H1297 C1307 0.930 . S
C1298 H1292 0.930 . S
C1298 C1299 1.355 . S
C1298 C1300 1.415 . S
C1299 C1298 1.355 . S
C1299 C1301 1.419 . S
C1300 C1298 1.415 . S
C1300 C1305 1.425 . S
C1300 C1307 1.409 . S
C1301 H1293 0.930 . S
C1301 C1299 1.419 . S
C1301 C1302 1.362 . S
C1302 H1294 0.930 . S
C1302 C1301 1.362 . S
C1302 C1305 1.409 . S
C1303 H1295 0.930 . S
C1303 C1304 1.355 . S
C1303 C1305 1.415 . S
C1304 C1303 1.355 . S
C1304 C1306 1.419 . S
C1305 C1300 1.425 . S
C1305 C1302 1.409 . S
C1305 C1303 1.415 . S
C1306 H1296 0.930 . S
C1306 C1304 1.419 . S
C1306 C1307 1.362 . S
C1307 H1297 0.930 . S
C1307 C1300 1.409 . S
C1307 C1306 1.362 . S
H1308 C1314 0.930 . S
H1309 C1317 0.930 . S
H1310 C1318 0.930 . S
H1311 C1319 0.930 . S
H1312 C1322 0.930 . S
H1313 C1323 0.930 . S
C1314 H1308 0.930 . S
C1314 C1315 1.355 . S
C1314 C1316 1.415 . S
C1315 C1314 1.355 . S
C1315 C1317 1.419 . S
C1316 C1314 1.415 . S
C1316 C1321 1.425 . S
C1316 C1323 1.409 . S
C1317 H1309 0.930 . S
C1317 C1315 1.419 . S
C1317 C1318 1.362 . S
C1318 H1310 0.930 . S
C1318 C1317 1.362 . S
C1318 C1321 1.409 . S
C1319 H1311 0.930 . S
C1319 C1320 1.355 . S
C1319 C1321 1.415 . S
C1320 C1319 1.355 . S
C1320 C1322 1.419 . S
C1321 C1316 1.425 . S
C1321 C1318 1.409 . S
C1321 C1319 1.415 . S
C1322 H1312 0.930 . S
C1322 C1320 1.419 . S
C1322 C1323 1.362 . S
C1323 H1313 0.930 . S
C1323 C1316 1.409 . S
C1323 C1322 1.362 . S
H1324 C1330 0.930 . S
H1325 C1333 0.930 . S
H1326 C1334 0.930 . S
H1327 C1335 0.930 . S
H1328 C1338 0.930 . S
H1329 C1339 0.930 . S
C1330 H1324 0.930 . S
C1330 C1331 1.355 . S
C1330 C1332 1.415 . S
C1331 C1330 1.355 . S
C1331 C1333 1.419 . S
C1332 C1330 1.415 . S
C1332 C1337 1.425 . S
C1332 C1339 1.409 . S
C1333 H1325 0.930 . S
C1333 C1331 1.419 . S
C1333 C1334 1.362 . S
C1334 H1326 0.930 . S
C1334 C1333 1.362 . S
C1334 C1337 1.409 . S
C1335 H1327 0.930 . S
C1335 C1336 1.355 . S
C1335 C1337 1.415 . S
C1336 C1335 1.355 . S
C1336 C1338 1.419 . S
C1337 C1332 1.425 . S
C1337 C1334 1.409 . S
C1337 C1335 1.415 . S
C1338 H1328 0.930 . S
C1338 C1336 1.419 . S
C1338 C1339 1.362 . S
C1339 H1329 0.930 . S
C1339 C1332 1.409 . S
C1339 C1338 1.362 . S
H1340 C1346 0.930 . S
H1341 C1349 0.930 . S
H1342 C1350 0.930 . S
H1343 C1351 0.930 . S
H1344 C1354 0.930 . S
H1345 C1355 0.930 . S
C1346 H1340 0.930 . S
C1346 C1347 1.355 . S
C1346 C1348 1.415 . S
C1347 C1346 1.355 . S
C1347 C1349 1.419 . S
C1348 C1346 1.415 . S
C1348 C1353 1.425 . S
C1348 C1355 1.409 . S
C1349 H1341 0.930 . S
C1349 C1347 1.419 . S
C1349 C1350 1.362 . S
C1350 H1342 0.930 . S
C1350 C1349 1.362 . S
C1350 C1353 1.409 . S
C1351 H1343 0.930 . S
C1351 C1352 1.355 . S
C1351 C1353 1.415 . S
C1352 C1351 1.355 . S
C1352 C1354 1.419 . S
C1353 C1348 1.425 . S
C1353 C1350 1.409 . S
C1353 C1351 1.415 . S
C1354 H1344 0.930 . S
C1354 C1352 1.419 . S
C1354 C1355 1.362 . S
C1355 H1345 0.930 . S
C1355 C1348 1.409 . S
C1355 C1354 1.362 . S
H1356 C1362 0.930 . S
H1357 C1365 0.930 . S
H1358 C1366 0.930 . S
H1359 C1367 0.930 . S
H1360 C1370 0.930 . S
H1361 C1371 0.930 . S
C1362 H1356 0.930 . S
C1362 C1363 1.355 . S
C1362 C1364 1.415 . S
C1363 C1362 1.355 . S
C1363 C1365 1.419 . S
C1364 C1362 1.415 . S
C1364 C1369 1.425 . S
C1364 C1371 1.409 . S
C1365 H1357 0.930 . S
C1365 C1363 1.419 . S
C1365 C1366 1.362 . S
C1366 H1358 0.930 . S
C1366 C1365 1.362 . S
C1366 C1369 1.409 . S
C1367 H1359 0.930 . S
C1367 C1368 1.355 . S
C1367 C1369 1.415 . S
C1368 C1367 1.355 . S
C1368 C1370 1.419 . S
C1369 C1364 1.425 . S
C1369 C1366 1.409 . S
C1369 C1367 1.415 . S
C1370 H1360 0.930 . S
C1370 C1368 1.419 . S
C1370 C1371 1.362 . S
C1371 H1361 0.930 . S
C1371 C1364 1.409 . S
C1371 C1370 1.362 . S
H1372 C1378 0.930 . S
H1373 C1381 0.930 . S
H1374 C1382 0.930 . S
H1375 C1383 0.930 . S
H1376 C1386 0.930 . S
H1377 C1387 0.930 . S
C1378 H1372 0.930 . S
C1378 C1379 1.355 . S
C1378 C1380 1.415 . S
C1379 C1378 1.355 . S
C1379 C1381 1.419 . S
C1380 C1378 1.415 . S
C1380 C1385 1.425 . S
C1380 C1387 1.409 . S
C1381 H1373 0.930 . S
C1381 C1379 1.419 . S
C1381 C1382 1.362 . S
C1382 H1374 0.930 . S
C1382 C1381 1.362 . S
C1382 C1385 1.409 . S
C1383 H1375 0.930 . S
C1383 C1384 1.355 . S
C1383 C1385 1.415 . S
C1384 C1383 1.355 . S
C1384 C1386 1.419 . S
C1385 C1380 1.425 . S
C1385 C1382 1.409 . S
C1385 C1383 1.415 . S
C1386 H1376 0.930 . S
C1386 C1384 1.419 . S
C1386 C1387 1.362 . S
C1387 H1377 0.930 . S
C1387 C1380 1.409 . S
C1387 C1386 1.362 . S
H1388 C1394 0.930 . S
H1389 C1397 0.930 . S
H1390 C1398 0.930 . S
H1391 C1399 0.930 . S
H1392 C1402 0.930 . S
H1393 C1403 0.930 . S
C1394 H1388 0.930 . S
C1394 C1395 1.355 . S
C1394 C1396 1.415 . S
C1395 C1394 1.355 . S
C1395 C1397 1.419 . S
C1396 C1394 1.415 . S
C1396 C1401 1.425 . S
C1396 C1403 1.409 . S
C1397 H1389 0.930 . S
C1397 C1395 1.419 . S
C1397 C1398 1.362 . S
C1398 H1390 0.930 . S
C1398 C1397 1.362 . S
C1398 C1401 1.409 . S
C1399 H1391 0.930 . S
C1399 C1400 1.355 . S
C1399 C1401 1.415 . S
C1400 C1399 1.355 . S
C1400 C1402 1.419 . S
C1401 C1396 1.425 . S
C1401 C1398 1.409 . S
C1401 C1399 1.415 . S
C1402 H1392 0.930 . S
C1402 C1400 1.419 . S
C1402 C1403 1.362 . S
C1403 H1393 0.930 . S
C1403 C1396 1.409 . S
C1403 C1402 1.362 . S
H1404 C1410 0.930 . S
H1405 C1413 0.930 . S
H1406 C1414 0.930 . S
H1407 C1415 0.930 . S
H1408 C1418 0.930 . S
H1409 C1419 0.930 . S
C1410 H1404 0.930 . S
C1410 C1411 1.355 . S
C1410 C1412 1.415 . S
C1411 C1410 1.355 . S
C1411 C1413 1.419 . S
C1412 C1410 1.415 . S
C1412 C1417 1.425 . S
C1412 C1419 1.409 . S
C1413 H1405 0.930 . S
C1413 C1411 1.419 . S
C1413 C1414 1.362 . S
C1414 H1406 0.930 . S
C1414 C1413 1.362 . S
C1414 C1417 1.409 . S
C1415 H1407 0.930 . S
C1415 C1416 1.355 . S
C1415 C1417 1.415 . S
C1416 C1415 1.355 . S
C1416 C1418 1.419 . S
C1417 C1412 1.425 . S
C1417 C1414 1.409 . S
C1417 C1415 1.415 . S
C1418 H1408 0.930 . S
C1418 C1416 1.419 . S
C1418 C1419 1.362 . S
C1419 H1409 0.930 . S
C1419 C1412 1.409 . S
C1419 C1418 1.362 . S
H1420 C1426 0.930 . S
H1421 C1429 0.930 . S
H1422 C1430 0.930 . S
H1423 C1431 0.930 . S
H1424 C1434 0.930 . S
H1425 C1435 0.930 . S
C1426 H1420 0.930 . S
C1426 C1427 1.355 . S
C1426 C1428 1.415 . S
C1427 C1426 1.355 . S
C1427 C1429 1.419 . S
C1428 C1426 1.415 . S
C1428 C1433 1.425 . S
C1428 C1435 1.409 . S
C1429 H1421 0.930 . S
C1429 C1427 1.419 . S
C1429 C1430 1.362 . S
C1430 H1422 0.930 . S
C1430 C1429 1.362 . S
C1430 C1433 1.409 . S
C1431 H1423 0.930 . S
C1431 C1432 1.355 . S
C1431 C1433 1.415 . S
C1432 C1431 1.355 . S
C1432 C1434 1.419 . S
C1433 C1428 1.425 . S
C1433 C1430 1.409 . S
C1433 C1431 1.415 . S
C1434 H1424 0.930 . S
C1434 C1432 1.419 . S
C1434 C1435 1.362 . S
C1435 H1425 0.930 . S
C1435 C1428 1.409 . S
C1435 C1434 1.362 . S
H1436 C1442 0.930 . S
H1437 C1445 0.930 . S
H1438 C1446 0.930 . S
H1439 C1447 0.930 . S
H1440 C1450 0.930 . S
H1441 C1451 0.930 . S
C1442 H1436 0.930 . S
C1442 C1443 1.355 . S
C1442 C1444 1.415 . S
C1443 C1442 1.355 . S
C1443 C1445 1.419 . S
C1444 C1442 1.415 . S
C1444 C1449 1.425 . S
C1444 C1451 1.409 . S
C1445 H1437 0.930 . S
C1445 C1443 1.419 . S
C1445 C1446 1.362 . S
C1446 H1438 0.930 . S
C1446 C1445 1.362 . S
C1446 C1449 1.409 . S
C1447 H1439 0.930 . S
C1447 C1448 1.355 . S
C1447 C1449 1.415 . S
C1448 C1447 1.355 . S
C1448 C1450 1.419 . S
C1449 C1444 1.425 . S
C1449 C1446 1.409 . S
C1449 C1447 1.415 . S
C1450 H1440 0.930 . S
C1450 C1448 1.419 . S
C1450 C1451 1.362 . S
C1451 H1441 0.930 . S
C1451 C1444 1.409 . S
C1451 C1450 1.362 . S
H1452 C1458 0.930 . S
H1453 C1461 0.930 . S
H1454 C1462 0.930 . S
H1455 C1463 0.930 . S
H1456 C1466 0.930 . S
H1457 C1467 0.930 . S
C1458 H1452 0.930 . S
C1458 C1459 1.355 . S
C1458 C1460 1.415 . S
C1459 C1458 1.355 . S
C1459 C1461 1.419 . S
C1460 C1458 1.415 . S
C1460 C1465 1.425 . S
C1460 C1467 1.409 . S
C1461 H1453 0.930 . S
C1461 C1459 1.419 . S
C1461 C1462 1.362 . S
C1462 H1454 0.930 . S
C1462 C1461 1.362 . S
C1462 C1465 1.409 . S
C1463 H1455 0.930 . S
C1463 C1464 1.355 . S
C1463 C1465 1.415 . S
C1464 C1463 1.355 . S
C1464 C1466 1.419 . S
C1465 C1460 1.425 . S
C1465 C1462 1.409 . S
C1465 C1463 1.415 . S
C1466 H1456 0.930 . S
C1466 C1464 1.419 . S
C1466 C1467 1.362 . S
C1467 H1457 0.930 . S
C1467 C1460 1.409 . S
C1467 C1466 1.362 . S
H1468 C1474 0.930 . S
H1469 C1477 0.930 . S
H1470 C1478 0.930 . S
H1471 C1479 0.930 . S
H1472 C1482 0.930 . S
H1473 C1483 0.930 . S
C1474 H1468 0.930 . S
C1474 C1475 1.355 . S
C1474 C1476 1.415 . S
C1475 C1474 1.355 . S
C1475 C1477 1.419 . S
C1476 C1474 1.415 . S
C1476 C1481 1.425 . S
C1476 C1483 1.409 . S
C1477 H1469 0.930 . S
C1477 C1475 1.419 . S
C1477 C1478 1.362 . S
C1478 H1470 0.930 . S
C1478 C1477 1.362 . S
C1478 C1481 1.409 . S
C1479 H1471 0.930 . S
C1479 C1480 1.355 . S
C1479 C1481 1.415 . S
C1480 C1479 1.355 . S
C1480 C1482 1.419 . S
C1481 C1476 1.425 . S
C1481 C1478 1.409 . S
C1481 C1479 1.415 . S
C1482 H1472 0.930 . S
C1482 C1480 1.419 . S
C1482 C1483 1.362 . S
C1483 H1473 0.930 . S
C1483 C1476 1.409 . S
C1483 C1482 1.362 . S
H1484 C1490 0.930 . S
H1485 C1493 0.930 . S
H1486 C1494 0.930 . S
H1487 C1495 0.930 . S
H1488 C1498 0.930 . S
H1489 C1499 0.930 . S
C1490 H1484 0.930 . S
C1490 C1491 1.355 . S
C1490 C1492 1.415 . S
C1491 C1490 1.355 . S
C1491 C1493 1.419 . S
C1492 C1490 1.415 . S
C1492 C1497 1.425 . S
C1492 C1499 1.409 . S
C1493 H1485 0.930 . S
C1493 C1491 1.419 . S
C1493 C1494 1.362 . S
C1494 H1486 0.930 . S
C1494 C1493 1.362 . S
C1494 C1497 1.409 . S
C1495 H1487 0.930 . S
C1495 C1496 1.355 . S
C1495 C1497 1.415 . S
C1496 C1495 1.355 . S
C1496 C1498 1.419 . S
C1497 C1492 1.425 . S
C1497 C1494 1.409 . S
C1497 C1495 1.415 . S
C1498 H1488 0.930 . S
C1498 C1496 1.419 . S
C1498 C1499 1.362 . S
C1499 H1489 0.930 . S
C1499 C1492 1.409 . S
C1499 C1498 1.362 . S
H1500 C1506 0.930 . S
H1501 C1509 0.930 . S
H1502 C1510 0.930 . S
H1503 C1511 0.930 . S
H1504 C1514 0.930 . S
H1505 C1515 0.930 . S
C1506 H1500 0.930 . S
C1506 C1507 1.355 . S
C1506 C1508 1.415 . S
C1507 C1506 1.355 . S
C1507 C1509 1.419 . S
C1508 C1506 1.415 . S
C1508 C1513 1.425 . S
C1508 C1515 1.409 . S
C1509 H1501 0.930 . S
C1509 C1507 1.419 . S
C1509 C1510 1.362 . S
C1510 H1502 0.930 . S
C1510 C1509 1.362 . S
C1510 C1513 1.409 . S
C1511 H1503 0.930 . S
C1511 C1512 1.355 . S
C1511 C1513 1.415 . S
C1512 C1511 1.355 . S
C1512 C1514 1.419 . S
C1513 C1508 1.425 . S
C1513 C1510 1.409 . S
C1513 C1511 1.415 . S
C1514 H1504 0.930 . S
C1514 C1512 1.419 . S
C1514 C1515 1.362 . S
C1515 H1505 0.930 . S
C1515 C1508 1.409 . S
C1515 C1514 1.362 . S
H1516 C1522 0.930 . S
H1517 C1525 0.930 . S
H1518 C1526 0.930 . S
H1519 C1527 0.930 . S
H1520 C1530 0.930 . S
H1521 C1531 0.930 . S
C1522 H1516 0.930 . S
C1522 C1523 1.355 . S
C1522 C1524 1.415 . S
C1523 C1522 1.355 . S
C1523 C1525 1.419 . S
C1524 C1522 1.415 . S
C1524 C1529 1.425 . S
C1524 C1531 1.409 . S
C1525 H1517 0.930 . S
C1525 C1523 1.419 . S
C1525 C1526 1.362 . S
C1526 H1518 0.930 . S
C1526 C1525 1.362 . S
C1526 C1529 1.409 . S
C1527 H1519 0.930 . S
C1527 C1528 1.355 . S
C1527 C1529 1.415 . S
C1528 C1527 1.355 . S
C1528 C1530 1.419 . S
C1529 C1524 1.425 . S
C1529 C1526 1.409 . S
C1529 C1527 1.415 . S
C1530 H1520 0.930 . S
C1530 C1528 1.419 . S
C1530 C1531 1.362 . S
C1531 H1521 0.930 . S
C1531 C1524 1.409 . S
C1531 C1530 1.362 . S
H1532 C1538 0.930 . S
H1533 C1541 0.930 . S
H1534 C1542 0.930 . S
H1535 C1543 0.930 . S
H1536 C1546 0.930 . S
H1537 C1547 0.930 . S
C1538 H1532 0.930 . S
C1538 C1539 1.355 . S
C1538 C1540 1.415 . S
C1539 C1538 1.355 . S
C1539 C1541 1.419 . S
C1540 C1538 1.415 . S
C1540 C1545 1.425 . S
C1540 C1547 1.409 . S
C1541 H1533 0.930 . S
C1541 C1539 1.419 . S
C1541 C1542 1.362 . S
C1542 H1534 0.930 . S
C1542 C1541 1.362 . S
C1542 C1545 1.409 . S
C1543 H1535 0.930 . S
C1543 C1544 1.355 . S
C1543 C1545 1.415 . S
C1544 C1543 1.355 . S
C1544 C1546 1.419 . S
C1545 C1540 1.425 . S
C1545 C1542 1.409 . S
C1545 C1543 1.415 . S
C1546 H1536 0.930 . S
C1546 C1544 1.419 . S
C1546 C1547 1.362 . S
C1547 H1537 0.930 . S
C1547 C1540 1.409 . S
C1547 C1546 1.362 . S
H1548 C1554 0.930 . S
H1549 C1557 0.930 . S
H1550 C1558 0.930 . S
H1551 C1559 0.930 . S
H1552 C1562 0.930 . S
H1553 C1563 0.930 . S
C1554 H1548 0.930 . S
C1554 C1555 1.355 . S
C1554 C1556 1.415 . S
C1555 C1554 1.355 . S
C1555 C1557 1.419 . S
C1556 C1554 1.415 . S
C1556 C1561 1.425 . S
C1556 C1563 1.409 . S
C1557 H1549 0.930 . S
C1557 C1555 1.419 . S
C1557 C1558 1.362 . S
C1558 H1550 0.930 . S
C1558 C1557 1.362 . S
C1558 C1561 1.409 . S
C1559 H1551 0.930 . S
C1559 C1560 1.355 . S
C1559 C1561 1.415 . S
C1560 C1559 1.355 . S
C1560 C1562 1.419 . S
C1561 C1556 1.425 . S
C1561 C1558 1.409 . S
C1561 C1559 1.415 . S
C1562 H1552 0.930 . S
C1562 C1560 1.419 . S
C1562 C1563 1.362 . S
C1563 H1553 0.930 . S
C1563 C1556 1.409 . S
C1563 C1562 1.362 . S
H1564 C1570 0.930 . S
H1565 C1573 0.930 . S
H1566 C1574 0.930 . S
H1567 C1575 0.930 . S
H1568 C1578 0.930 . S
H1569 C1579 0.930 . S
C1570 H1564 0.930 . S
C1570 C1571 1.355 . S
C1570 C1572 1.415 . S
C1571 C1570 1.355 . S
C1571 C1573 1.419 . S
C1572 C1570 1.415 . S
C1572 C1577 1.425 . S
C1572 C1579 1.409 . S
C1573 H1565 0.930 . S
C1573 C1571 1.419 . S
C1573 C1574 1.362 . S
C1574 H1566 0.930 . S
C1574 C1573 1.362 . S
C1574 C1577 1.409 . S
C1575 H1567 0.930 . S
C1575 C1576 1.355 . S
C1575 C1577 1.415 . S
C1576 C1575 1.355 . S
C1576 C1578 1.419 . S
C1577 C1572 1.425 . S
C1577 C1574 1.409 . S
C1577 C1575 1.415 . S
C1578 H1568 0.930 . S
C1578 C1576 1.419 . S
C1578 C1579 1.362 . S
C1579 H1569 0.930 . S
C1579 C1572 1.409 . S
C1579 C1578 1.362 . S
H1580 C1586 0.930 . S
H1581 C1589 0.930 . S
H1582 C1590 0.930 . S
H1583 C1591 0.930 . S
H1584 C1594 0.930 . S
H1585 C1595 0.930 . S
C1586 H1580 0.930 . S
C1586 C1587 1.355 . S
C1586 C1588 1.415 . S
C1587 C1586 1.355 . S
C1587 C1589 1.419 . S
C1588 C1586 1.415 . S
C1588 C1593 1.425 . S
C1588 C1595 1.409 . S
C1589 H1581 0.930 . S
C1589 C1587 1.419 . S
C1589 C1590 1.362 . S
C1590 H1582 0.930 . S
C1590 C1589 1.362 . S
C1590 C1593 1.409 . S
C1591 H1583 0.930 . S
C1591 C1592 1.355 . S
C1591 C1593 1.415 . S
C1592 C1591 1.355 . S
C1592 C1594 1.419 . S
C1593 C1588 1.425 . S
C1593 C1590 1.409 . S
C1593 C1591 1.415 . S
C1594 H1584 0.930 . S
C1594 C1592 1.419 . S
C1594 C1595 1.362 . S
C1595 H1585 0.930 . S
C1595 C1588 1.409 . S
C1595 C1594 1.362 . S
H1596 C1602 0.930 . S
H1597 C1605 0.930 . S
H1598 C1606 0.930 . S
H1599 C1607 0.930 . S
H1600 C1610 0.930 . S
H1601 C1611 0.930 . S
C1602 H1596 0.930 . S
C1602 C1603 1.355 . S
C1602 C1604 1.415 . S
C1603 C1602 1.355 . S
C1603 C1605 1.419 . S
C1604 C1602 1.415 . S
C1604 C1609 1.425 . S
C1604 C1611 1.409 . S
C1605 H1597 0.930 . S
C1605 C1603 1.419 . S
C1605 C1606 1.362 . S
C1606 H1598 0.930 . S
C1606 C1605 1.362 . S
C1606 C1609 1.409 . S
C1607 H1599 0.930 . S
C1607 C1608 1.355 . S
C1607 C1609 1.415 . S
C1608 C1607 1.355 . S
C1608 C1610 1.419 . S
C1609 C1604 1.425 . S
C1609 C1606 1.409 . S
C1609 C1607 1.415 . S
C1610 H1600 0.930 . S
C1610 C1608 1.419 . S
C1610 C1611 1.362 . S
C1611 H1601 0.930 . S
C1611 C1604 1.409 . S
C1611 C1610 1.362 . S
H1612 C1618 0.930 . S
H1613 C1621 0.930 . S
H1614 C1622 0.930 . S
H1615 C1623 0.930 . S
H1616 C1626 0.930 . S
H1617 C1627 0.930 . S
C1618 H1612 0.930 . S
C1618 C1619 1.355 . S
C1618 C1620 1.415 . S
C1619 C1618 1.355 . S
C1619 C1621 1.419 . S
C1620 C1618 1.415 . S
C1620 C1625 1.425 . S
C1620 C1627 1.409 . S
C1621 H1613 0.930 . S
C1621 C1619 1.419 . S
C1621 C1622 1.362 . S
C1622 H1614 0.930 . S
C1622 C1621 1.362 . S
C1622 C1625 1.409 . S
C1623 H1615 0.930 . S
C1623 C1624 1.355 . S
C1623 C1625 1.415 . S
C1624 C1623 1.355 . S
C1624 C1626 1.419 . S
C1625 C1620 1.425 . S
C1625 C1622 1.409 . S
C1625 C1623 1.415 . S
C1626 H1616 0.930 . S
C1626 C1624 1.419 . S
C1626 C1627 1.362 . S
C1627 H1617 0.930 . S
C1627 C1620 1.409 . S
C1627 C1626 1.362 . S
H1628 C1634 0.930 . S
H1629 C1637 0.930 . S
H1630 C1638 0.930 . S
H1631 C1639 0.930 . S
H1632 C1642 0.930 . S
H1633 C1643 0.930 . S
C1634 H1628 0.930 . S
C1634 C1635 1.355 . S
C1634 C1636 1.415 . S
C1635 C1634 1.355 . S
C1635 C1637 1.419 . S
C1636 C1634 1.415 . S
C1636 C1641 1.425 . S
C1636 C1643 1.409 . S
C1637 H1629 0.930 . S
C1637 C1635 1.419 . S
C1637 C1638 1.362 . S
C1638 H1630 0.930 . S
C1638 C1637 1.362 . S
C1638 C1641 1.409 . S
C1639 H1631 0.930 . S
C1639 C1640 1.355 . S
C1639 C1641 1.415 . S
C1640 C1639 1.355 . S
C1640 C1642 1.419 . S
C1641 C1636 1.425 . S
C1641 C1638 1.409 . S
C1641 C1639 1.415 . S
C1642 H1632 0.930 . S
C1642 C1640 1.419 . S
C1642 C1643 1.362 . S
C1643 H1633 0.930 . S
C1643 C1636 1.409 . S
C1643 C1642 1.362 . S
H1644 C1650 0.930 . S
H1645 C1653 0.930 . S
H1646 C1654 0.930 . S
H1647 C1655 0.930 . S
H1648 C1658 0.930 . S
H1649 C1659 0.930 . S
C1650 H1644 0.930 . S
C1650 C1651 1.355 . S
C1650 C1652 1.415 . S
C1651 C1650 1.355 . S
C1651 C1653 1.419 . S
C1652 C1650 1.415 . S
C1652 C1657 1.425 . S
C1652 C1659 1.409 . S
C1653 H1645 0.930 . S
C1653 C1651 1.419 . S
C1653 C1654 1.362 . S
C1654 H1646 0.930 . S
C1654 C1653 1.362 . S
C1654 C1657 1.409 . S
C1655 H1647 0.930 . S
C1655 C1656 1.355 . S
C1655 C1657 1.415 . S
C1656 C1655 1.355 . S
C1656 C1658 1.419 . S
C1657 C1652 1.425 . S
C1657 C1654 1.409 . S
C1657 C1655 1.415 . S
C1658 H1648 0.930 . S
C1658 C1656 1.419 . S
C1658 C1659 1.362 . S
C1659 H1649 0.930 . S
C1659 C1652 1.409 . S
C1659 C1658 1.362 . S
H1660 C1666 0.930 . S
H1661 C1669 0.930 . S
H1662 C1670 0.930 . S
H1663 C1671 0.930 . S
H1664 C1674 0.930 . S
H1665 C1675 0.930 . S
C1666 H1660 0.930 . S
C1666 C1667 1.355 . S
C1666 C1668 1.415 . S
C1667 C1666 1.355 . S
C1667 C1669 1.419 . S
C1668 C1666 1.415 . S
C1668 C1673 1.425 . S
C1668 C1675 1.409 . S
C1669 H1661 0.930 . S
C1669 C1667 1.419 . S
C1669 C1670 1.362 . S
C1670 H1662 0.930 . S
C1670 C1669 1.362 . S
C1670 C1673 1.409 . S
C1671 H1663 0.930 . S
C1671 C1672 1.355 . S
C1671 C1673 1.415 . S
C1672 C1671 1.355 . S
C1672 C1674 1.419 . S
C1673 C1668 1.425 . S
C1673 C1670 1.409 . S
C1673 C1671 1.415 . S
C1674 H1664 0.930 . S
C1674 C1672 1.419 . S
C1674 C1675 1.362 . S
C1675 H1665 0.930 . S
C1675 C1668 1.409 . S
C1675 C1674 1.362 . S
H1676 C1682 0.930 . S
H1677 C1685 0.930 . S
H1678 C1686 0.930 . S
H1679 C1687 0.930 . S
H1680 C1690 0.930 . S
H1681 C1691 0.930 . S
C1682 H1676 0.930 . S
C1682 C1683 1.355 . S
C1682 C1684 1.415 . S
C1683 C1682 1.355 . S
C1683 C1685 1.419 . S
C1684 C1682 1.415 . S
C1684 C1689 1.425 . S
C1684 C1691 1.409 . S
C1685 H1677 0.930 . S
C1685 C1683 1.419 . S
C1685 C1686 1.362 . S
C1686 H1678 0.930 . S
C1686 C1685 1.362 . S
C1686 C1689 1.409 . S
C1687 H1679 0.930 . S
C1687 C1688 1.355 . S
C1687 C1689 1.415 . S
C1688 C1687 1.355 . S
C1688 C1690 1.419 . S
C1689 C1684 1.425 . S
C1689 C1686 1.409 . S
C1689 C1687 1.415 . S
C1690 H1680 0.930 . S
C1690 C1688 1.419 . S
C1690 C1691 1.362 . S
C1691 H1681 0.930 . S
C1691 C1684 1.409 . S
C1691 C1690 1.362 . S
H1692 C1698 0.930 . S
H1693 C1701 0.930 . S
H1694 C1702 0.930 . S
H1695 C1703 0.930 . S
H1696 C1706 0.930 . S
H1697 C1707 0.930 . S
C1698 H1692 0.930 . S
C1698 C1699 1.355 . S
C1698 C1700 1.415 . S
C1699 C1698 1.355 . S
C1699 C1701 1.419 . S
C1700 C1698 1.415 . S
C1700 C1705 1.425 . S
C1700 C1707 1.409 . S
C1701 H1693 0.930 . S
C1701 C1699 1.419 . S
C1701 C1702 1.362 . S
C1702 H1694 0.930 . S
C1702 C1701 1.362 . S
C1702 C1705 1.409 . S
C1703 H1695 0.930 . S
C1703 C1704 1.355 . S
C1703 C1705 1.415 . S
C1704 C1703 1.355 . S
C1704 C1706 1.419 . S
C1705 C1700 1.425 . S
C1705 C1702 1.409 . S
C1705 C1703 1.415 . S
C1706 H1696 0.930 . S
C1706 C1704 1.419 . S
C1706 C1707 1.362 . S
C1707 H1697 0.930 . S
C1707 C1700 1.409 . S
C1707 C1706 1.362 . S
H1708 C1714 0.930 . S
H1709 C1717 0.930 . S
H1710 C1718 0.930 . S
H1711 C1719 0.930 . S
H1712 C1722 0.930 . S
H1713 C1723 0.930 . S
C1714 H1708 0.930 . S
C1714 C1715 1.355 . S
C1714 C1716 1.415 . S
C1715 C1714 1.355 . S
C1715 C1717 1.419 . S
C1716 C1714 1.415 . S
C1716 C1721 1.425 . S
C1716 C1723 1.409 . S
C1717 H1709 0.930 . S
C1717 C1715 1.419 . S
C1717 C1718 1.362 . S
C1718 H1710 0.930 . S
C1718 C1717 1.362 . S
C1718 C1721 1.409 . S
C1719 H1711 0.930 . S
C1719 C1720 1.355 . S
C1719 C1721 1.415 . S
C1720 C1719 1.355 . S
C1720 C1722 1.419 . S
C1721 C1716 1.425 . S
C1721 C1718 1.409 . S
C1721 C1719 1.415 . S
C1722 H1712 0.930 . S
C1722 C1720 1.419 . S
C1722 C1723 1.362 . S
C1723 H1713 0.930 . S
C1723 C1716 1.409 . S
C1723 C1722 1.362 . S
H1724 C1730 0.930 . S
H1725 C1733 0.930 . S
H1726 C1734 0.930 . S
H1727 C1735 0.930 . S
H1728 C1738 0.930 . S
H1729 C1739 0.930 . S
C1730 H1724 0.930 . S
C1730 C1731 1.355 . S
C1730 C1732 1.415 . S
C1731 C1730 1.355 . S
C1731 C1733 1.419 . S
C1732 C1730 1.415 . S
C1732 C1737 1.425 . S
C1732 C1739 1.409 . S
C1733 H1725 0.930 . S
C1733 C1731 1.419 . S
C1733 C1734 1.362 . S
C1734 H1726 0.930 . S
C1734 C1733 1.362 . S
C1734 C1737 1.409 . S
C1735 H1727 0.930 . S
C1735 C1736 1.355 . S
C1735 C1737 1.415 . S
C1736 C1735 1.355 . S
C1736 C1738 1.419 . S
C1737 C1732 1.425 . S
C1737 C1734 1.409 . S
C1737 C1735 1.415 . S
C1738 H1728 0.930 . S
C1738 C1736 1.419 . S
C1738 C1739 1.362 . S
C1739 H1729 0.930 . S
C1739 C1732 1.409 . S
C1739 C1738 1.362 . S
H1740 C1746 0.930 . S
H1741 C1749 0.930 . S
H1742 C1750 0.930 . S
H1743 C1751 0.930 . S
H1744 C1754 0.930 . S
H1745 C1755 0.930 . S
C1746 H1740 0.930 . S
C1746 C1747 1.355 . S
C1746 C1748 1.415 . S
C1747 C1746 1.355 . S
C1747 C1749 1.419 . S
C1748 C1746 1.415 . S
C1748 C1753 1.425 . S
C1748 C1755 1.409 . S
C1749 H1741 0.930 . S
C1749 C1747 1.419 . S
C1749 C1750 1.362 . S
C1750 H1742 0.930 . S
C1750 C1749 1.362 . S
C1750 C1753 1.409 . S
C1751 H1743 0.930 . S
C1751 C1752 1.355 . S
C1751 C1753 1.415 . S
C1752 C1751 1.355 . S
C1752 C1754 1.419 . S
C1753 C1748 1.425 . S
C1753 C1750 1.409 . S
C1753 C1751 1.415 . S
C1754 H1744 0.930 . S
C1754 C1752 1.419 . S
C1754 C1755 1.362 . S
C1755 H1745 0.930 . S
C1755 C1748 1.409 . S
C1755 C1754 1.362 . S
H1756 C1762 0.930 1_554 S
H1757 C1765 0.930 . S
H1758 C1766 0.930 . S
H1759 C1767 0.930 . S
H1760 C1770 0.930 . S
H1761 C1771 0.930 . S
C1762 H1756 0.930 1_556 S
C1762 C1763 1.355 . S
C1762 C1764 1.415 . S
C1763 C1762 1.355 . S
C1763 C1765 1.419 . S
C1764 C1762 1.415 . S
C1764 C1769 1.425 . S
C1764 C1771 1.409 . S
C1765 H1757 0.930 . S
C1765 C1763 1.419 . S
C1765 C1766 1.362 . S
C1766 H1758 0.930 . S
C1766 C1765 1.362 . S
C1766 C1769 1.409 . S
C1767 H1759 0.930 . S
C1767 C1768 1.355 . S
C1767 C1769 1.415 . S
C1768 C1767 1.355 . S
C1768 C1770 1.419 . S
C1769 C1764 1.425 . S
C1769 C1766 1.409 . S
C1769 C1767 1.415 . S
C1770 H1760 0.930 . S
C1770 C1768 1.419 . S
C1770 C1771 1.362 . S
C1771 H1761 0.930 . S
C1771 C1764 1.409 . S
C1771 C1770 1.362 . S
H1772 C1778 0.930 . S
H1773 C1781 0.930 . S
H1774 C1782 0.930 . S
H1775 C1783 0.930 . S
H1776 C1786 0.930 . S
H1777 C1787 0.930 . S
C1778 H1772 0.930 . S
C1778 C1779 1.355 . S
C1778 C1780 1.415 . S
C1779 C1778 1.355 . S
C1779 C1781 1.419 . S
C1780 C1778 1.415 . S
C1780 C1785 1.425 . S
C1780 C1787 1.409 . S
C1781 H1773 0.930 . S
C1781 C1779 1.419 . S
C1781 C1782 1.362 . S
C1782 H1774 0.930 . S
C1782 C1781 1.362 . S
C1782 C1785 1.409 . S
C1783 H1775 0.930 . S
C1783 C1784 1.355 . S
C1783 C1785 1.415 . S
C1784 C1783 1.355 . S
C1784 C1786 1.419 . S
C1785 C1780 1.425 . S
C1785 C1782 1.409 . S
C1785 C1783 1.415 . S
C1786 H1776 0.930 . S
C1786 C1784 1.419 . S
C1786 C1787 1.362 . S
C1787 H1777 0.930 . S
C1787 C1780 1.409 . S
C1787 C1786 1.362 . S
H1788 C1794 0.930 . S
H1789 C1797 0.930 . S
H1790 C1798 0.930 . S
H1791 C1799 0.930 . S
H1792 C1802 0.930 . S
H1793 C1803 0.930 . S
C1794 H1788 0.930 . S
C1794 C1795 1.355 . S
C1794 C1796 1.415 . S
C1795 C1794 1.355 . S
C1795 C1797 1.419 . S
C1796 C1794 1.415 . S
C1796 C1801 1.425 . S
C1796 C1803 1.409 . S
C1797 H1789 0.930 . S
C1797 C1795 1.419 . S
C1797 C1798 1.362 . S
C1798 H1790 0.930 . S
C1798 C1797 1.362 . S
C1798 C1801 1.409 . S
C1799 H1791 0.930 . S
C1799 C1800 1.355 . S
C1799 C1801 1.415 . S
C1800 C1799 1.355 . S
C1800 C1802 1.419 . S
C1801 C1796 1.425 . S
C1801 C1798 1.409 . S
C1801 C1799 1.415 . S
C1802 H1792 0.930 . S
C1802 C1800 1.419 . S
C1802 C1803 1.362 . S
C1803 H1793 0.930 . S
C1803 C1796 1.409 . S
C1803 C1802 1.362 . S
H1804 C1810 0.930 . S
H1805 C1813 0.930 . S
H1806 C1814 0.930 . S
H1807 C1815 0.930 . S
H1808 C1818 0.930 . S
H1809 C1819 0.930 . S
C1810 H1804 0.930 . S
C1810 C1811 1.355 . S
C1810 C1812 1.415 . S
C1811 C1810 1.355 . S
C1811 C1813 1.419 . S
C1812 C1810 1.415 . S
C1812 C1817 1.425 . S
C1812 C1819 1.409 . S
C1813 H1805 0.930 . S
C1813 C1811 1.419 . S
C1813 C1814 1.362 . S
C1814 H1806 0.930 . S
C1814 C1813 1.362 . S
C1814 C1817 1.409 . S
C1815 H1807 0.930 . S
C1815 C1816 1.355 . S
C1815 C1817 1.415 . S
C1816 C1815 1.355 . S
C1816 C1818 1.419 . S
C1817 C1812 1.425 . S
C1817 C1814 1.409 . S
C1817 C1815 1.415 . S
C1818 H1808 0.930 . S
C1818 C1816 1.419 . S
C1818 C1819 1.362 . S
C1819 H1809 0.930 . S
C1819 C1812 1.409 . S
C1819 C1818 1.362 . S
H1820 C1826 0.930 1_554 S
H1821 C1829 0.930 . S
H1822 C1830 0.930 . S
H1823 C1831 0.930 . S
H1824 C1834 0.930 . S
H1825 C1835 0.930 1_554 S
C1826 H1820 0.930 1_556 S
C1826 C1827 1.355 . S
C1826 C1828 1.415 . S
C1827 C1826 1.355 . S
C1827 C1829 1.419 . S
C1828 C1826 1.415 . S
C1828 C1833 1.425 . S
C1828 C1835 1.409 . S
C1829 H1821 0.930 . S
C1829 C1827 1.419 . S
C1829 C1830 1.362 . S
C1830 H1822 0.930 . S
C1830 C1829 1.362 . S
C1830 C1833 1.409 . S
C1831 H1823 0.930 . S
C1831 C1832 1.355 . S
C1831 C1833 1.415 . S
C1832 C1831 1.355 . S
C1832 C1834 1.419 . S
C1833 C1828 1.425 . S
C1833 C1830 1.409 . S
C1833 C1831 1.415 . S
C1834 H1824 0.930 . S
C1834 C1832 1.419 . S
C1834 C1835 1.362 . S
C1835 H1825 0.930 1_556 S
C1835 C1828 1.409 . S
C1835 C1834 1.362 . S
H1836 C1842 0.930 . S
H1837 C1845 0.930 . S
H1838 C1846 0.930 . S
H1839 C1847 0.930 . S
H1840 C1850 0.930 . S
H1841 C1851 0.930 . S
C1842 H1836 0.930 . S
C1842 C1843 1.355 . S
C1842 C1844 1.415 . S
C1843 C1842 1.355 . S
C1843 C1845 1.419 . S
C1844 C1842 1.415 . S
C1844 C1849 1.425 . S
C1844 C1851 1.409 . S
C1845 H1837 0.930 . S
C1845 C1843 1.419 . S
C1845 C1846 1.362 . S
C1846 H1838 0.930 . S
C1846 C1845 1.362 . S
C1846 C1849 1.409 . S
C1847 H1839 0.930 . S
C1847 C1848 1.355 . S
C1847 C1849 1.415 . S
C1848 C1847 1.355 . S
C1848 C1850 1.419 . S
C1849 C1844 1.425 . S
C1849 C1846 1.409 . S
C1849 C1847 1.415 . S
C1850 H1840 0.930 . S
C1850 C1848 1.419 . S
C1850 C1851 1.362 . S
C1851 H1841 0.930 . S
C1851 C1844 1.409 . S
C1851 C1850 1.362 . S
H1852 C1858 0.930 . S
H1853 C1861 0.930 . S
H1854 C1862 0.930 . S
H1855 C1863 0.930 . S
H1856 C1866 0.930 . S
H1857 C1867 0.930 . S
C1858 H1852 0.930 . S
C1858 C1859 1.355 . S
C1858 C1860 1.415 . S
C1859 C1858 1.355 . S
C1859 C1861 1.419 . S
C1860 C1858 1.415 . S
C1860 C1865 1.425 . S
C1860 C1867 1.409 . S
C1861 H1853 0.930 . S
C1861 C1859 1.419 . S
C1861 C1862 1.362 . S
C1862 H1854 0.930 . S
C1862 C1861 1.362 . S
C1862 C1865 1.409 . S
C1863 H1855 0.930 . S
C1863 C1864 1.355 . S
C1863 C1865 1.415 . S
C1864 C1863 1.355 . S
C1864 C1866 1.419 . S
C1865 C1860 1.425 . S
C1865 C1862 1.409 . S
C1865 C1863 1.415 . S
C1866 H1856 0.930 . S
C1866 C1864 1.419 . S
C1866 C1867 1.362 . S
C1867 H1857 0.930 . S
C1867 C1860 1.409 . S
C1867 C1866 1.362 . S
H1868 C1874 0.930 . S
H1869 C1877 0.930 . S
H1870 C1878 0.930 . S
H1871 C1879 0.930 . S
H1872 C1882 0.930 . S
H1873 C1883 0.930 . S
C1874 H1868 0.930 . S
C1874 C1875 1.355 . S
C1874 C1876 1.415 . S
C1875 C1874 1.355 . S
C1875 C1877 1.419 . S
C1876 C1874 1.415 . S
C1876 C1881 1.425 . S
C1876 C1883 1.409 . S
C1877 H1869 0.930 . S
C1877 C1875 1.419 . S
C1877 C1878 1.362 . S
C1878 H1870 0.930 . S
C1878 C1877 1.362 . S
C1878 C1881 1.409 . S
C1879 H1871 0.930 . S
C1879 C1880 1.355 . S
C1879 C1881 1.415 . S
C1880 C1879 1.355 . S
C1880 C1882 1.419 . S
C1881 C1876 1.425 . S
C1881 C1878 1.409 . S
C1881 C1879 1.415 . S
C1882 H1872 0.930 . S
C1882 C1880 1.419 . S
C1882 C1883 1.362 . S
C1883 H1873 0.930 . S
C1883 C1876 1.409 . S
C1883 C1882 1.362 . S
H1884 C1890 0.930 . S
H1885 C1893 0.930 . S
H1886 C1894 0.930 . S
H1887 C1895 0.930 . S
H1888 C1898 0.930 . S
H1889 C1899 0.930 . S
C1890 H1884 0.930 . S
C1890 C1891 1.355 . S
C1890 C1892 1.415 . S
C1891 C1890 1.355 . S
C1891 C1893 1.419 . S
C1892 C1890 1.415 . S
C1892 C1897 1.425 . S
C1892 C1899 1.409 . S
C1893 H1885 0.930 . S
C1893 C1891 1.419 . S
C1893 C1894 1.362 . S
C1894 H1886 0.930 . S
C1894 C1893 1.362 . S
C1894 C1897 1.409 . S
C1895 H1887 0.930 . S
C1895 C1896 1.355 . S
C1895 C1897 1.415 . S
C1896 C1895 1.355 . S
C1896 C1898 1.419 . S
C1897 C1892 1.425 . S
C1897 C1894 1.409 . S
C1897 C1895 1.415 . S
C1898 H1888 0.930 . S
C1898 C1896 1.419 . S
C1898 C1899 1.362 . S
C1899 H1889 0.930 . S
C1899 C1892 1.409 . S
C1899 C1898 1.362 . S
H1900 C1906 0.930 . S
H1901 C1909 0.930 . S
H1902 C1910 0.930 . S
H1903 C1911 0.930 . S
H1904 C1914 0.930 . S
H1905 C1915 0.930 . S
C1906 H1900 0.930 . S
C1906 C1907 1.355 . S
C1906 C1908 1.415 . S
C1907 C1906 1.355 . S
C1907 C1909 1.419 . S
C1908 C1906 1.415 . S
C1908 C1913 1.425 . S
C1908 C1915 1.409 . S
C1909 H1901 0.930 . S
C1909 C1907 1.419 . S
C1909 C1910 1.362 . S
C1910 H1902 0.930 . S
C1910 C1909 1.362 . S
C1910 C1913 1.409 . S
C1911 H1903 0.930 . S
C1911 C1912 1.355 . S
C1911 C1913 1.415 . S
C1912 C1911 1.355 . S
C1912 C1914 1.419 . S
C1913 C1908 1.425 . S
C1913 C1910 1.409 . S
C1913 C1911 1.415 . S
C1914 H1904 0.930 . S
C1914 C1912 1.419 . S
C1914 C1915 1.362 . S
C1915 H1905 0.930 . S
C1915 C1908 1.409 . S
C1915 C1914 1.362 . S
H1916 C1922 0.930 . S
H1917 C1925 0.930 . S
H1918 C1926 0.930 . S
H1919 C1927 0.930 . S
H1920 C1930 0.930 . S
H1921 C1931 0.930 . S
C1922 H1916 0.930 . S
C1922 C1923 1.355 . S
C1922 C1924 1.415 . S
C1923 C1922 1.355 . S
C1923 C1925 1.419 . S
C1924 C1922 1.415 . S
C1924 C1929 1.425 . S
C1924 C1931 1.409 . S
C1925 H1917 0.930 . S
C1925 C1923 1.419 . S
C1925 C1926 1.362 . S
C1926 H1918 0.930 . S
C1926 C1925 1.362 . S
C1926 C1929 1.409 . S
C1927 H1919 0.930 . S
C1927 C1928 1.355 . S
C1927 C1929 1.415 . S
C1928 C1927 1.355 . S
C1928 C1930 1.419 . S
C1929 C1924 1.425 . S
C1929 C1926 1.409 . S
C1929 C1927 1.415 . S
C1930 H1920 0.930 . S
C1930 C1928 1.419 . S
C1930 C1931 1.362 . S
C1931 H1921 0.930 . S
C1931 C1924 1.409 . S
C1931 C1930 1.362 . S
H1932 C1938 0.930 . S
H1933 C1941 0.930 . S
H1934 C1942 0.930 . S
H1935 C1943 0.930 . S
H1936 C1946 0.930 . S
H1937 C1947 0.930 . S
C1938 H1932 0.930 . S
C1938 C1939 1.355 . S
C1938 C1940 1.415 . S
C1939 C1938 1.355 . S
C1939 C1941 1.419 . S
C1940 C1938 1.415 . S
C1940 C1945 1.425 . S
C1940 C1947 1.408 1_455 S
C1941 H1933 0.930 . S
C1941 C1939 1.419 . S
C1941 C1942 1.362 . S
C1942 H1934 0.930 . S
C1942 C1941 1.362 . S
C1942 C1945 1.409 . S
C1943 H1935 0.930 . S
C1943 C1944 1.355 . S
C1943 C1945 1.415 . S
C1944 C1943 1.355 . S
C1944 C1946 1.419 1_455 S
C1945 C1940 1.425 . S
C1945 C1942 1.409 . S
C1945 C1943 1.415 . S
C1946 H1936 0.930 . S
C1946 C1944 1.419 1_655 S
C1946 C1947 1.363 . S
C1947 H1937 0.930 . S
C1947 C1940 1.408 1_655 S
C1947 C1946 1.363 . S
H1948 C1954 0.930 . S
H1949 C1957 0.930 . S
H1950 C1958 0.930 . S
H1951 C1959 0.930 . S
H1952 C1962 0.930 . S
H1953 C1963 0.930 . S
C1954 H1948 0.930 . S
C1954 C1955 1.355 . S
C1954 C1956 1.415 . S
C1955 C1954 1.355 . S
C1955 C1957 1.419 . S
C1956 C1954 1.415 . S
C1956 C1961 1.425 . S
C1956 C1963 1.409 . S
C1957 H1949 0.930 . S
C1957 C1955 1.419 . S
C1957 C1958 1.362 . S
C1958 H1950 0.930 . S
C1958 C1957 1.362 . S
C1958 C1961 1.409 . S
C1959 H1951 0.930 . S
C1959 C1960 1.355 . S
C1959 C1961 1.415 . S
C1960 C1959 1.355 . S
C1960 C1962 1.419 . S
C1961 C1956 1.425 . S
C1961 C1958 1.409 . S
C1961 C1959 1.415 . S
C1962 H1952 0.930 . S
C1962 C1960 1.419 . S
C1962 C1963 1.362 . S
C1963 H1953 0.930 . S
C1963 C1956 1.409 . S
C1963 C1962 1.362 . S
H1964 C1970 0.930 . S
H1965 C1973 0.930 . S
H1966 C1974 0.930 . S
H1967 C1975 0.930 . S
H1968 C1978 0.930 . S
H1969 C1979 0.930 . S
C1970 H1964 0.930 . S
C1970 C1971 1.355 . S
C1970 C1972 1.415 . S
C1971 C1970 1.355 . S
C1971 C1973 1.419 1_565 S
C1972 C1970 1.415 . S
C1972 C1977 1.430 . S
C1972 C1979 1.409 . S
C1973 H1965 0.930 . S
C1973 C1971 1.419 1_545 S
C1973 C1974 1.362 . S
C1974 H1966 0.930 . S
C1974 C1973 1.362 . S
C1974 C1977 1.403 1_545 S
C1975 H1967 0.930 . S
C1975 C1976 1.355 1_545 S
C1975 C1977 1.416 1_545 S
C1976 C1975 1.355 1_565 S
C1976 C1978 1.419 . S
C1977 C1972 1.430 . S
C1977 C1974 1.403 1_565 S
C1977 C1975 1.416 1_565 S
C1978 H1968 0.930 . S
C1978 C1976 1.419 . S
C1978 C1979 1.362 . S
C1979 H1969 0.930 . S
C1979 C1972 1.409 . S
C1979 C1978 1.362 . S
H1980 C1986 0.930 . S
H1981 C1989 0.930 1_545 S
H1982 C1990 0.930 . S
H1983 C1991 0.930 . S
H1984 C1994 0.930 . S
H1985 C1995 0.930 . S
C1986 H1980 0.930 . S
C1986 C1987 1.355 . S
C1986 C1988 1.415 . S
C1987 C1986 1.355 . S
C1987 C1989 1.419 . S
C1988 C1986 1.415 . S
C1988 C1993 1.425 . S
C1988 C1995 1.409 . S
C1989 H1981 0.930 1_565 S
C1989 C1987 1.419 . S
C1989 C1990 1.362 1_565 S
C1990 H1982 0.930 . S
C1990 C1989 1.362 1_545 S
C1990 C1993 1.409 1_545 S
C1991 H1983 0.930 . S
C1991 C1992 1.355 1_545 S
C1991 C1993 1.415 1_545 S
C1992 C1991 1.355 1_565 S
C1992 C1994 1.419 . S
C1993 C1988 1.425 . S
C1993 C1990 1.409 1_565 S
C1993 C1991 1.415 1_565 S
C1994 H1984 0.930 . S
C1994 C1992 1.419 . S
C1994 C1995 1.362 . S
C1995 H1985 0.930 . S
C1995 C1988 1.409 . S
C1995 C1994 1.362 . S
H1996 C2002 0.930 1_655 S
H1997 C2005 0.930 . S
H1998 C2006 0.930 . S
H1999 C2007 0.930 . S
H2000 C2010 0.930 . S
H2001 C2011 0.930 . S
C2002 H1996 0.930 1_455 S
C2002 C2003 1.355 . S
C2002 C2004 1.415 . S
C2003 C2002 1.355 . S
C2003 C2005 1.419 . S
C2004 C2002 1.415 . S
C2004 C2009 1.425 . S
C2004 C2011 1.409 1_455 S
C2005 H1997 0.930 . S
C2005 C2003 1.419 . S
C2005 C2006 1.362 . S
C2006 H1998 0.930 . S
C2006 C2005 1.362 . S
C2006 C2009 1.409 . S
C2007 H1999 0.930 . S
C2007 C2008 1.355 . S
C2007 C2009 1.415 . S
C2008 C2007 1.355 . S
C2008 C2010 1.419 1_455 S
C2009 C2004 1.425 . S
C2009 C2006 1.409 . S
C2009 C2007 1.415 . S
C2010 H2000 0.930 . S
C2010 C2008 1.419 1_655 S
C2010 C2011 1.362 . S
C2011 H2001 0.930 . S
C2011 C2004 1.409 1_655 S
C2011 C2010 1.362 . S
H2012 C2018 0.930 . S
H2013 C2021 0.930 . S
H2014 C2022 0.930 . S
H2015 C2023 0.930 . S
H2016 C2026 0.930 . S
H2017 C2027 0.930 . S
C2018 H2012 0.930 . S
C2018 C2019 1.355 . S
C2018 C2020 1.415 . S
C2019 C2018 1.355 . S
C2019 C2021 1.419 . S
C2020 C2018 1.415 . S
C2020 C2025 1.425 . S
C2020 C2027 1.409 . S
C2021 H2013 0.930 . S
C2021 C2019 1.419 . S
C2021 C2022 1.362 . S
C2022 H2014 0.930 . S
C2022 C2021 1.362 . S
C2022 C2025 1.409 . S
C2023 H2015 0.930 . S
C2023 C2024 1.355 . S
C2023 C2025 1.415 . S
C2024 C2023 1.355 . S
C2024 C2026 1.419 . S
C2025 C2020 1.425 . S
C2025 C2022 1.409 . S
C2025 C2023 1.415 . S
C2026 H2016 0.930 . S
C2026 C2024 1.419 . S
C2026 C2027 1.362 . S
C2027 H2017 0.930 . S
C2027 C2020 1.409 . S
C2027 C2026 1.362 . S
H2028 C2034 0.930 . S
H2029 C2037 0.930 . S
H2030 C2038 0.930 . S
H2031 C2039 0.930 . S
H2032 C2042 0.930 . S
H2033 C2043 0.930 . S
C2034 H2028 0.930 . S
C2034 C2035 1.355 . S
C2034 C2036 1.415 . S
C2035 C2034 1.355 . S
C2035 C2037 1.419 . S
C2036 C2034 1.415 . S
C2036 C2041 1.425 . S
C2036 C2043 1.409 . S
C2037 H2029 0.930 . S
C2037 C2035 1.419 . S
C2037 C2038 1.362 . S
C2038 H2030 0.930 . S
C2038 C2037 1.362 . S
C2038 C2041 1.409 . S
C2039 H2031 0.930 . S
C2039 C2040 1.355 . S
C2039 C2041 1.415 . S
C2040 C2039 1.355 . S
C2040 C2042 1.419 . S
C2041 C2036 1.425 . S
C2041 C2038 1.409 . S
C2041 C2039 1.415 . S
C2042 H2032 0.930 . S
C2042 C2040 1.419 . S
C2042 C2043 1.362 . S
C2043 H2033 0.930 . S
C2043 C2036 1.409 . S
C2043 C2042 1.362 . S
H2044 C2050 0.930 . S
H2045 C2053 0.930 . S
H2046 C2054 0.930 . S
H2047 C2055 0.930 . S
H2048 C2058 0.930 . S
H2049 C2059 0.930 . S
C2050 H2044 0.930 . S
C2050 C2051 1.355 . S
C2050 C2052 1.415 . S
C2051 C2050 1.355 . S
C2051 C2053 1.419 . S
C2052 C2050 1.415 . S
C2052 C2057 1.425 . S
C2052 C2059 1.409 . S
C2053 H2045 0.930 . S
C2053 C2051 1.419 . S
C2053 C2054 1.362 . S
C2054 H2046 0.930 . S
C2054 C2053 1.362 . S
C2054 C2057 1.409 . S
C2055 H2047 0.930 . S
C2055 C2056 1.355 . S
C2055 C2057 1.415 . S
C2056 C2055 1.355 . S
C2056 C2058 1.419 . S
C2057 C2052 1.425 . S
C2057 C2054 1.409 . S
C2057 C2055 1.415 . S
C2058 H2048 0.930 . S
C2058 C2056 1.419 . S
C2058 C2059 1.362 . S
C2059 H2049 0.930 . S
C2059 C2052 1.409 . S
C2059 C2058 1.362 . S
H2060 C2066 0.930 . S
H2061 C2069 0.930 . S
H2062 C2070 0.930 . S
H2063 C2071 0.930 . S
H2064 C2074 0.930 . S
H2065 C2075 0.930 . S
C2066 H2060 0.930 . S
C2066 C2067 1.355 . S
C2066 C2068 1.415 . S
C2067 C2066 1.355 . S
C2067 C2069 1.419 . S
C2068 C2066 1.415 . S
C2068 C2073 1.425 . S
C2068 C2075 1.409 . S
C2069 H2061 0.930 . S
C2069 C2067 1.419 . S
C2069 C2070 1.362 . S
C2070 H2062 0.930 . S
C2070 C2069 1.362 . S
C2070 C2073 1.409 . S
C2071 H2063 0.930 . S
C2071 C2072 1.355 . S
C2071 C2073 1.415 . S
C2072 C2071 1.355 . S
C2072 C2074 1.419 . S
C2073 C2068 1.425 . S
C2073 C2070 1.409 . S
C2073 C2071 1.415 . S
C2074 H2064 0.930 . S
C2074 C2072 1.419 . S
C2074 C2075 1.362 . S
C2075 H2065 0.930 . S
C2075 C2068 1.409 . S
C2075 C2074 1.362 . S
H2076 C2082 0.930 . S
H2077 C2085 0.930 . S
H2078 C2086 0.930 . S
H2079 C2087 0.930 . S
H2080 C2090 0.960 . S
H2081 C2091 0.930 1_565 S
C2082 H2076 0.930 . S
C2082 C2083 1.355 . S
C2082 C2084 1.415 . S
C2083 C2082 1.355 . S
C2083 C2085 1.419 . S
C2084 C2082 1.415 . S
C2084 C2089 1.425 . S
C2084 C2091 1.409 . S
C2085 H2077 0.930 . S
C2085 C2083 1.419 . S
C2085 C2086 1.362 . S
C2086 H2078 0.930 . S
C2086 C2085 1.362 . S
C2086 C2089 1.409 . S
C2087 H2079 0.930 . S
C2087 C2088 1.355 . S
C2087 C2089 1.415 . S
C2088 C2087 1.355 . S
C2088 C2090 1.432 1_545 S
C2089 C2084 1.425 . S
C2089 C2086 1.409 . S
C2089 C2087 1.415 . S
C2090 H2080 0.960 . S
C2090 C2088 1.432 1_565 S
C2090 C2091 1.324 1_565 S
C2091 H2081 0.930 1_545 S
C2091 C2084 1.409 . S
C2091 C2090 1.324 1_545 S
H2092 C2098 0.930 . S
H2093 C2101 0.930 . S
H2094 C2102 0.930 . S
H2095 C2103 0.930 . S
H2096 C2106 0.930 . S
H2097 C2107 0.930 . S
C2098 H2092 0.930 . S
C2098 C2099 1.355 . S
C2098 C2100 1.415 . S
C2099 C2098 1.355 . S
C2099 C2101 1.419 . S
C2100 C2098 1.415 . S
C2100 C2105 1.425 . S
C2100 C2107 1.409 . S
C2101 H2093 0.930 . S
C2101 C2099 1.419 . S
C2101 C2102 1.362 . S
C2102 H2094 0.930 . S
C2102 C2101 1.362 . S
C2102 C2105 1.409 . S
C2103 H2095 0.930 . S
C2103 C2104 1.355 . S
C2103 C2105 1.415 . S
C2104 C2103 1.355 . S
C2104 C2106 1.419 . S
C2105 C2100 1.425 . S
C2105 C2102 1.409 . S
C2105 C2103 1.415 . S
C2106 H2096 0.930 . S
C2106 C2104 1.419 . S
C2106 C2107 1.362 . S
C2107 H2097 0.930 . S
C2107 C2100 1.409 . S
C2107 C2106 1.362 . S
H2108 C2114 0.930 . S
H2109 C2117 0.930 . S
H2110 C2118 0.930 . S
H2111 C2119 0.930 . S
H2112 C2122 0.930 . S
H2113 C2123 0.930 . S
C2114 H2108 0.930 . S
C2114 C2115 1.355 . S
C2114 C2116 1.415 . S
C2115 C2114 1.355 . S
C2115 C2117 1.419 . S
C2116 C2114 1.415 . S
C2116 C2121 1.425 . S
C2116 C2123 1.409 . S
C2117 H2109 0.930 . S
C2117 C2115 1.419 . S
C2117 C2118 1.362 . S
C2118 H2110 0.930 . S
C2118 C2117 1.362 . S
C2118 C2121 1.409 . S
C2119 H2111 0.930 . S
C2119 C2120 1.355 . S
C2119 C2121 1.415 . S
C2120 C2119 1.355 . S
C2120 C2122 1.419 . S
C2121 C2116 1.425 . S
C2121 C2118 1.409 . S
C2121 C2119 1.415 . S
C2122 H2112 0.930 . S
C2122 C2120 1.419 . S
C2122 C2123 1.362 . S
C2123 H2113 0.930 . S
C2123 C2116 1.409 . S
C2123 C2122 1.362 . S
H2124 C2130 0.930 . S
H2125 C2133 0.930 . S
H2126 C2134 0.930 . S
H2127 C2135 0.930 . S
H2128 C2138 0.930 . S
H2129 C2139 0.930 . S
C2130 H2124 0.930 . S
C2130 C2131 1.355 . S
C2130 C2132 1.415 . S
C2131 C2130 1.355 . S
C2131 C2133 1.419 . S
C2132 C2130 1.415 . S
C2132 C2137 1.425 . S
C2132 C2139 1.409 . S
C2133 H2125 0.930 . S
C2133 C2131 1.419 . S
C2133 C2134 1.362 . S
C2134 H2126 0.930 . S
C2134 C2133 1.362 . S
C2134 C2137 1.409 . S
C2135 H2127 0.930 . S
C2135 C2136 1.355 . S
C2135 C2137 1.415 . S
C2136 C2135 1.355 . S
C2136 C2138 1.419 . S
C2137 C2132 1.425 . S
C2137 C2134 1.409 . S
C2137 C2135 1.415 . S
C2138 H2128 0.930 . S
C2138 C2136 1.419 . S
C2138 C2139 1.362 . S
C2139 H2129 0.930 . S
C2139 C2132 1.409 . S
C2139 C2138 1.362 . S
H2140 C2146 0.930 . S
H2141 C2149 0.930 . S
H2142 C2150 0.930 . S
H2143 C2151 0.930 . S
H2144 C2154 0.930 . S
H2145 C2155 0.930 . S
C2146 H2140 0.930 . S
C2146 C2147 1.355 . S
C2146 C2148 1.415 . S
C2147 C2146 1.355 . S
C2147 C2149 1.419 . S
C2148 C2146 1.415 . S
C2148 C2153 1.425 . S
C2148 C2155 1.409 . S
C2149 H2141 0.930 . S
C2149 C2147 1.419 . S
C2149 C2150 1.362 . S
C2150 H2142 0.930 . S
C2150 C2149 1.362 . S
C2150 C2153 1.409 . S
C2151 H2143 0.930 . S
C2151 C2152 1.355 . S
C2151 C2153 1.415 . S
C2152 C2151 1.355 . S
C2152 C2154 1.419 . S
C2153 C2148 1.425 . S
C2153 C2150 1.409 . S
C2153 C2151 1.415 . S
C2154 H2144 0.930 . S
C2154 C2152 1.419 . S
C2154 C2155 1.362 . S
C2155 H2145 0.930 . S
C2155 C2148 1.409 . S
C2155 C2154 1.362 . S
H2156 C2162 0.930 . S
H2157 C2165 0.930 . S
H2158 C2166 0.930 . S
H2159 C2167 0.930 . S
H2160 C2170 0.930 . S
H2161 C2171 0.930 . S
C2162 H2156 0.930 . S
C2162 C2163 1.355 . S
C2162 C2164 1.415 . S
C2163 C2162 1.355 . S
C2163 C2165 1.419 . S
C2164 C2162 1.415 . S
C2164 C2169 1.425 . S
C2164 C2171 1.409 . S
C2165 H2157 0.930 . S
C2165 C2163 1.419 . S
C2165 C2166 1.362 . S
C2166 H2158 0.930 . S
C2166 C2165 1.362 . S
C2166 C2169 1.409 . S
C2167 H2159 0.930 . S
C2167 C2168 1.355 . S
C2167 C2169 1.415 . S
C2168 C2167 1.355 . S
C2168 C2170 1.419 . S
C2169 C2164 1.425 . S
C2169 C2166 1.409 . S
C2169 C2167 1.415 . S
C2170 H2160 0.930 . S
C2170 C2168 1.419 . S
C2170 C2171 1.362 . S
C2171 H2161 0.930 . S
C2171 C2164 1.409 . S
C2171 C2170 1.362 . S
H2172 C2178 0.930 . S
H2173 C2181 0.930 . S
H2174 C2182 0.930 . S
H2175 C2183 0.930 . S
H2176 C2186 0.930 . S
H2177 C2187 0.930 . S
C2178 H2172 0.930 . S
C2178 C2179 1.355 . S
C2178 C2180 1.415 . S
C2179 C2178 1.355 . S
C2179 C2181 1.419 . S
C2180 C2178 1.415 . S
C2180 C2185 1.425 . S
C2180 C2187 1.409 . S
C2181 H2173 0.930 . S
C2181 C2179 1.419 . S
C2181 C2182 1.362 . S
C2182 H2174 0.930 . S
C2182 C2181 1.362 . S
C2182 C2185 1.409 . S
C2183 H2175 0.930 . S
C2183 C2184 1.355 . S
C2183 C2185 1.415 . S
C2184 C2183 1.355 . S
C2184 C2186 1.419 . S
C2185 C2180 1.425 . S
C2185 C2182 1.409 . S
C2185 C2183 1.415 . S
C2186 H2176 0.930 . S
C2186 C2184 1.419 . S
C2186 C2187 1.362 . S
C2187 H2177 0.930 . S
C2187 C2180 1.409 . S
C2187 C2186 1.362 . S
H2188 C2194 0.930 . S
H2189 C2197 0.930 . S
H2190 C2198 0.930 . S
H2191 C2199 0.930 . S
H2192 C2202 0.930 . S
H2193 C2203 0.930 . S
C2194 H2188 0.930 . S
C2194 C2195 1.355 . S
C2194 C2196 1.415 . S
C2195 C2194 1.355 . S
C2195 C2197 1.419 . S
C2196 C2194 1.415 . S
C2196 C2201 1.425 . S
C2196 C2203 1.409 . S
C2197 H2189 0.930 . S
C2197 C2195 1.419 . S
C2197 C2198 1.362 . S
C2198 H2190 0.930 . S
C2198 C2197 1.362 . S
C2198 C2201 1.409 . S
C2199 H2191 0.930 . S
C2199 C2200 1.355 . S
C2199 C2201 1.415 . S
C2200 C2199 1.355 . S
C2200 C2202 1.419 . S
C2201 C2196 1.425 . S
C2201 C2198 1.409 . S
C2201 C2199 1.415 . S
C2202 H2192 0.930 . S
C2202 C2200 1.419 . S
C2202 C2203 1.362 . S
C2203 H2193 0.930 . S
C2203 C2196 1.409 . S
C2203 C2202 1.362 . S
H2204 C2210 0.930 . S
H2205 C2213 0.930 . S
H2206 C2214 0.930 . S
H2207 C2215 0.930 . S
H2208 C2218 0.930 . S
H2209 C2219 0.930 . S
C2210 H2204 0.930 . S
C2210 C2211 1.355 . S
C2210 C2212 1.415 . S
C2211 C2210 1.355 . S
C2211 C2213 1.419 . S
C2212 C2210 1.415 . S
C2212 C2217 1.425 . S
C2212 C2219 1.409 . S
C2213 H2205 0.930 . S
C2213 C2211 1.419 . S
C2213 C2214 1.362 . S
C2214 H2206 0.930 . S
C2214 C2213 1.362 . S
C2214 C2217 1.409 . S
C2215 H2207 0.930 . S
C2215 C2216 1.355 . S
C2215 C2217 1.415 . S
C2216 C2215 1.355 . S
C2216 C2218 1.419 . S
C2217 C2212 1.425 . S
C2217 C2214 1.409 . S
C2217 C2215 1.415 . S
C2218 H2208 0.930 . S
C2218 C2216 1.419 . S
C2218 C2219 1.362 . S
C2219 H2209 0.930 . S
C2219 C2212 1.409 . S
C2219 C2218 1.362 . S
H2220 C2226 0.930 . S
H2221 C2229 0.930 . S
H2222 C2230 0.930 . S
H2223 C2231 0.930 . S
H2224 C2234 0.903 1_455 S
H2225 C2235 0.920 1_455 S
C2226 H2220 0.930 . S
C2226 C2227 1.355 . S
C2226 C2228 1.415 . S
C2227 C2226 1.355 . S
C2227 C2229 1.419 . S
C2228 C2226 1.415 . S
C2228 C2233 1.425 . S
C2228 C2235 1.409 . S
C2229 H2221 0.930 . S
C2229 C2227 1.419 . S
C2229 C2230 1.362 . S
C2230 H2222 0.930 . S
C2230 C2229 1.362 . S
C2230 C2233 1.409 . S
C2231 H2223 0.930 . S
C2231 C2232 1.355 . S
C2231 C2233 1.415 . S
C2232 C2231 1.355 . S
C2232 C2234 1.428 . S
C2233 C2228 1.425 . S
C2233 C2230 1.409 . S
C2233 C2231 1.415 . S
C2234 H2224 0.903 1_655 S
C2234 C2232 1.428 . S
C2234 C2235 1.381 . S
C2235 H2225 0.920 1_655 S
C2235 C2228 1.409 . S
C2235 C2234 1.381 . S
H2236 C2242 0.930 . S
H2237 C2245 0.930 . S
H2238 C2246 0.930 . S
H2239 C2247 0.930 . S
H2240 C2250 0.930 . S
H2241 C2251 0.930 . S
C2242 H2236 0.930 . S
C2242 C2243 1.355 . S
C2242 C2244 1.415 . S
C2243 C2242 1.355 . S
C2243 C2245 1.419 . S
C2244 C2242 1.415 . S
C2244 C2249 1.425 . S
C2244 C2251 1.409 . S
C2245 H2237 0.930 . S
C2245 C2243 1.419 . S
C2245 C2246 1.362 . S
C2246 H2238 0.930 . S
C2246 C2245 1.362 . S
C2246 C2249 1.409 . S
C2247 H2239 0.930 . S
C2247 C2248 1.355 . S
C2247 C2249 1.415 . S
C2248 C2247 1.355 . S
C2248 C2250 1.419 . S
C2249 C2244 1.425 . S
C2249 C2246 1.409 . S
C2249 C2247 1.415 . S
C2250 H2240 0.930 . S
C2250 C2248 1.419 . S
C2250 C2251 1.362 . S
C2251 H2241 0.930 . S
C2251 C2244 1.409 . S
C2251 C2250 1.362 . S
H2252 C2258 0.930 1_565 S
H2253 C2261 0.930 . S
H2254 C2262 0.930 . S
H2255 C2263 0.930 . S
H2256 C2266 0.930 . S
H2257 C2267 0.930 . S
C2258 H2252 0.930 1_545 S
C2258 C2259 1.355 . S
C2258 C2260 1.415 . S
C2259 C2258 1.355 . S
C2259 C2261 1.419 . S
C2260 C2258 1.415 . S
C2260 C2265 1.425 . S
C2260 C2267 1.409 1_545 S
C2261 H2253 0.930 . S
C2261 C2259 1.419 . S
C2261 C2262 1.362 . S
C2262 H2254 0.930 . S
C2262 C2261 1.362 . S
C2262 C2265 1.409 . S
C2263 H2255 0.930 . S
C2263 C2264 1.355 . S
C2263 C2265 1.415 . S
C2264 C2263 1.355 . S
C2264 C2266 1.419 1_545 S
C2265 C2260 1.425 . S
C2265 C2262 1.409 . S
C2265 C2263 1.415 . S
C2266 H2256 0.930 . S
C2266 C2264 1.419 1_565 S
C2266 C2267 1.362 . S
C2267 H2257 0.930 . S
C2267 C2260 1.409 1_565 S
C2267 C2266 1.362 . S
C1123 C4 1.443 . S
C1128 C729 1.520 . S
C1139 C26 1.554 . S
C1144 C777 1.546 . S
C1160 C825 1.476 . S
C1155 C32 1.396 . S
C1171 C40 1.441 . S
C1176 C849 1.460 . S
C1187 C12 1.458 . S
C1192 C921 1.490 . S
C1203 C18 1.484 . S
C1208 C969 1.537 . S
C1219 C46 1.496 . S
C1224 C897 1.502 . S
C1240 C945 1.543 . S
C1235 C68 1.560 . S
C1256 C873 1.485 . S
C1251 C74 1.401 . S
C1267 C82 1.406 . S
C1272 C801 1.447 . S
C1288 C705 1.511 . S
C1283 C54 1.476 . S
C1299 C60 1.519 . S
C1304 C753 1.527 . S
C1315 C88 1.568 . S
C1320 C1017 1.638 . S
C1331 C110 1.605 . S
C1336 C1065 1.618 . S
C1352 C1089 1.584 . S
C1347 C116 1.586 . S
C1363 C124 1.490 . S
C1368 C273 1.485 . S
C1379 C96 1.560 . S
C1384 C345 1.549 . S
C1395 C102 1.538 . S
C1400 C393 1.571 . S
C1411 C130 1.504 . S
C1416 C321 1.577 . S
C1427 C152 1.606 . S
C1432 C369 1.603 . S
C1448 C297 1.577 . S
C1443 C158 1.575 . S
C1464 C1113 1.496 . S
C1459 C166 1.559 . S
C1480 C993 1.531 . S
C1475 C138 1.550 . S
C1496 C1041 1.591 . S
C1491 C144 1.529 . S
C1507 C172 1.561 . S
C1512 C441 1.583 . S
C1523 C194 1.608 . S
C1528 C489 1.593 . S
C1539 C200 1.529 . S
C1544 C513 1.576 . S
C1555 C208 1.551 . S
C1560 C561 1.532 . S
C1576 C633 1.555 . S
C1571 C180 1.539 . S
C1592 C681 1.601 . S
C1587 C186 1.528 . S
C1608 C609 1.658 . S
C1603 C214 1.599 . S
C1624 C657 1.607 . S
C1619 C236 1.608 . S
C1635 C242 1.520 . S
C1640 C585 1.576 . S
C1656 C537 1.451 . S
C1651 C250 1.487 . S
C1667 C222 1.547 . S
C1672 C417 1.563 . S
C1688 C465 1.565 . S
C1683 C228 1.511 . S
C1704 C282 1.516 . S
C1699 C5 1.226 . S
C1715 C25 1.471 . S
C1720 C336 1.408 . S
C1736 C384 1.547 . S
C1731 C33 1.363 . S
C1752 C432 1.387 . S
C1747 C39 1.440 . S
C1768 C480 1.452 . S
C1763 C11 1.490 . S
C1784 C522 1.435 . S
C1779 C19 1.207 . S
C1795 C47 1.315 1_556 S
C1800 C528 1.554 . S
C1811 C67 1.456 . S
C1816 C426 1.443 . S
C1827 C75 1.387 1_556 S
C1832 C474 1.526 . S
C1843 C81 1.461 . S
C1848 C330 1.414 . S
C1864 C378 1.472 . S
C1859 C53 1.487 . S
C1875 C61 1.259 . S
C1880 C288 1.433 . S
C1896 C570 1.507 . S
C1891 C89 1.280 . S
C1907 C109 1.517 . S
C1912 C624 1.503 . S
C1923 C117 1.228 . S
C1928 C672 1.494 . S
C1944 C720 1.268 . S
C1939 C123 1.261 . S
C1955 C95 1.440 . S
C1960 C768 1.375 . S
C1971 C103 1.105 . S
C1976 C816 1.276 . S
C1987 C131 1.178 . S
C1992 C810 1.283 . S
C2003 C151 1.274 . S
C2008 C714 1.317 . S
C2024 C762 1.437 . S
C2019 C159 1.198 . S
C2035 C165 1.433 . S
C2040 C618 1.350 . S
C2051 C137 1.511 . S
C2056 C666 1.445 . S
C2072 C576 1.517 . S
C2067 C145 1.333 . S
C2088 C858 1.306 . S
C2083 C173 1.081 . S
C2099 C193 1.268 . S
C2104 C912 1.286 . S
C2115 C201 1.300 . S
C2120 C960 1.452 . S
C2136 C1008 1.357 . S
C2131 C207 1.427 . S
C2152 C1056 1.472 . S
C2147 C179 1.526 . S
C2163 C187 1.191 . S
C2168 C1098 1.500 . S
C2179 C215 1.317 . S
C2184 C1104 1.519 . S
C2195 C235 1.533 . S
C2200 C1002 1.470 . S
C2216 C1050 1.441 . S
C2211 C243 1.236 . S
C2232 C906 1.265 . S
C2227 C249 1.210 . S
C2248 C954 1.408 . S
C2243 C221 1.447 . S
C2259 C229 1.075 . S
C2264 C864 1.289 . S
