# Generated by pormake.
# Topology ssa, (4,4)-cn, num edge types: 1
# Building blocks:
#     Node 0, Type 0, BuildingBlock: KOZSID_clean_sbu_0, # of connection points: 4
#     Node 1, Type 0, BuildingBlock: KOZSID_clean_sbu_0, # of connection points: 4
#     Node 2, Type 0, BuildingBlock: KOZSID_clean_sbu_0, # of connection points: 4
#     Node 3, Type 0, BuildingBlock: KOZSID_clean_sbu_0, # of connection points: 4
#     Node 4, Type 0, BuildingBlock: KOZSID_clean_sbu_0, # of connection points: 4
#     Node 5, Type 0, BuildingBlock: KOZSID_clean_sbu_0, # of connection points: 4
#     Node 6, Type 1, BuildingBlock: MIFKUJ_clean_linker_1, # of connection points: 4
#     Node 7, Type 1, BuildingBlock: MIFKUJ_clean_linker_1, # of connection points: 4
#     Node 8, Type 1, BuildingBlock: MIFKUJ_clean_linker_1, # of connection points: 4
#     Node 9, Type 1, BuildingBlock: MIFKUJ_clean_linker_1, # of connection points: 4
#     Node 10, Type 1, BuildingBlock: MIFKUJ_clean_linker_1, # of connection points: 4
#     Node 11, Type 1, BuildingBlock: MIFKUJ_clean_linker_1, # of connection points: 4
#     Edge 12, Type (0, 1), BuildingBlock: XUDNAN_clean_linker_2, # of connection points: 2
#     Edge 13, Type (0, 1), BuildingBlock: XUDNAN_clean_linker_2, # of connection points: 2
#     Edge 14, Type (0, 1), BuildingBlock: XUDNAN_clean_linker_2, # of connection points: 2
#     Edge 15, Type (0, 1), BuildingBlock: XUDNAN_clean_linker_2, # of connection points: 2
#     Edge 16, Type (0, 1), BuildingBlock: XUDNAN_clean_linker_2, # of connection points: 2
#     Edge 17, Type (0, 1), BuildingBlock: XUDNAN_clean_linker_2, # of connection points: 2
#     Edge 18, Type (0, 1), BuildingBlock: XUDNAN_clean_linker_2, # of connection points: 2
#     Edge 19, Type (0, 1), BuildingBlock: XUDNAN_clean_linker_2, # of connection points: 2
#     Edge 20, Type (0, 1), BuildingBlock: XUDNAN_clean_linker_2, # of connection points: 2
#     Edge 21, Type (0, 1), BuildingBlock: XUDNAN_clean_linker_2, # of connection points: 2
#     Edge 22, Type (0, 1), BuildingBlock: XUDNAN_clean_linker_2, # of connection points: 2
#     Edge 23, Type (0, 1), BuildingBlock: XUDNAN_clean_linker_2, # of connection points: 2
#     Edge 24, Type (0, 1), BuildingBlock: XUDNAN_clean_linker_2, # of connection points: 2
#     Edge 25, Type (0, 1), BuildingBlock: XUDNAN_clean_linker_2, # of connection points: 2
#     Edge 26, Type (0, 1), BuildingBlock: XUDNAN_clean_linker_2, # of connection points: 2
#     Edge 27, Type (0, 1), BuildingBlock: XUDNAN_clean_linker_2, # of connection points: 2
#     Edge 28, Type (0, 1), BuildingBlock: XUDNAN_clean_linker_2, # of connection points: 2
#     Edge 29, Type (0, 1), BuildingBlock: XUDNAN_clean_linker_2, # of connection points: 2
#     Edge 30, Type (0, 1), BuildingBlock: XUDNAN_clean_linker_2, # of connection points: 2
#     Edge 31, Type (0, 1), BuildingBlock: XUDNAN_clean_linker_2, # of connection points: 2
#     Edge 32, Type (0, 1), BuildingBlock: XUDNAN_clean_linker_2, # of connection points: 2
#     Edge 33, Type (0, 1), BuildingBlock: XUDNAN_clean_linker_2, # of connection points: 2
#     Edge 34, Type (0, 1), BuildingBlock: XUDNAN_clean_linker_2, # of connection points: 2
#     Edge 35, Type (0, 1), BuildingBlock: XUDNAN_clean_linker_2, # of connection points: 2
# Relax obj value: 0.005
# Max RMSD: 0.021
# Mean RMSD: 0.012
data_MOF--net-ssa--node1-KOZSID_clean_sbu_0--node2-MIFKUJ_clean_linker_1--edge1-XUDNAN_clean_linker_2
_symmetry_space_group_name_H-M    P1
_symmetry_Int_Tables_number       1
_symmetry_cell_setting            triclinic
loop_
_symmetry_equiv_pos_as_xyz
'x, y, z'
_cell_length_a     64.948166
_cell_length_b     66.400192
_cell_length_c     42.407742
_cell_angle_alpha  87.64176
_cell_angle_beta   90.071402
_cell_angle_gamma 122.09119
loop_
_atom_site_label
_atom_site_type_symbol
_atom_site_fract_x
_atom_site_fract_y
_atom_site_fract_z
_atom_type_partial_charge
C0 C 0.96054 0.50521 0.00148 0.0
C1 C 0.93982 0.50029 0.01802 0.0
C2 C 0.94198 0.49374 0.04839 0.0
C3 C 0.96372 0.49485 0.04865 0.0
N4 N 0.97532 0.50177 0.02038 0.0
Co5 Co 0.00623 0.50414 0.00927 0.0
N6 N 0.00291 0.48318 0.04623 0.0
C7 C 0.98801 0.47771 0.07154 0.0
C8 C 0.99017 0.46359 0.09413 0.0
C9 C 0.00781 0.46029 0.0826 0.0
C10 C 0.01551 0.47267 0.05348 0.0
N11 N 0.03742 0.50705 0.99808 0.0
C12 C 0.04717 0.49461 0.0094 0.0
C13 C 0.06994 0.50324 0.9956 0.0
C14 C 0.07483 0.52213 0.97572 0.0
C15 C 0.05483 0.52394 0.97826 0.0
N16 N 0.00928 0.52491 0.97239 0.0
C17 C 0.02971 0.54022 0.9557 0.0
C18 C 0.02565 0.55152 0.9308 0.0
C19 C 1.00111 0.54261 0.93197 0.0
C20 C 0.99163 0.52632 0.95753 0.0
N21 N 0.02404 0.53208 0.03488 0.0
C22 C 0.05225 0.5738 0.06746 0.0
C23 C 0.03353 0.57102 0.04799 0.0
C24 C 0.01956 0.55 0.0321 0.0
C25 C 0.05595 0.55491 0.0711 0.0
C26 C 0.04174 0.53431 0.05461 0.0
N27 N 0.98838 0.47645 0.98336 0.0
C28 C 0.9825 0.45998 0.93229 0.0
C29 C 0.95858 0.44188 0.94083 0.0
C30 C 0.95069 0.44048 0.97211 0.0
C31 C 0.96598 0.45772 0.99307 0.0
C32 C 0.99696 0.47708 0.95371 0.0
H33 H 0.95913 0.4566 0.01664 0.0
H34 H 0.01468 0.49149 0.94569 0.0
H35 H 0.00545 0.54846 0.01702 0.0
H36 H 0.0456 0.52048 0.05734 0.0
C37 C 0.97076 0.48427 0.0719 0.0
C38 C 0.96612 0.51322 0.9681 0.0
C39 C 0.03703 0.47681 0.03591 0.0
C40 C 0.05065 0.53944 0.95995 0.0
H41 H 0.92448 0.50077 0.00913 0.0
H42 H 0.92849 0.48731 0.06734 0.0
H43 H 0.98006 0.45643 0.11626 0.0
H44 H 0.01482 0.45059 0.09476 0.0
H45 H 0.08208 0.497 1.00017 0.0
H46 H 0.09093 0.53305 0.96092 0.0
H47 H 0.03866 0.56372 0.91289 0.0
H48 H 0.99127 0.54734 0.9158 0.0
H49 H 0.02982 0.58506 0.04483 0.0
H50 H 0.07034 0.55634 0.08567 0.0
H51 H 0.98991 0.46143 0.90886 0.0
H52 H 0.93246 0.42689 0.98009 0.0
C53 C 0.54573 0.01602 0.55722 0.0
C54 C 0.54638 0.00864 0.58811 0.0
C55 C 0.52384 0.98925 0.5953 0.0
C56 C 0.51082 0.98581 0.56846 0.0
N57 N 0.52372 0.00165 0.54436 0.0
Co58 Co 0.51165 0.00332 0.50128 0.0
N59 N 0.47788 0.97612 0.51285 0.0
C60 C 0.47005 0.96405 0.54117 0.0
C61 C 0.44585 0.94663 0.54237 0.0
C62 C 0.4377 0.94741 0.51298 0.0
C63 C 0.45757 0.96519 0.49533 0.0
N64 N 0.49963 0.00491 0.45812 0.0
C65 C 0.47757 0.99065 0.44531 0.0
C66 C 0.47766 0.99692 0.41359 0.0
C67 C 0.50033 0.01595 0.40626 0.0
C68 C 0.5129 0.02009 0.4336 0.0
N69 N 0.5454 0.03068 0.48984 0.0
C70 C 0.55318 0.04301 0.4617 0.0
C71 C 0.57682 0.06173 0.46132 0.0
C72 C 0.58463 0.06159 0.49111 0.0
C73 C 0.56525 0.04256 0.50798 0.0
N74 N 0.51991 0.98035 0.48617 0.0
C75 C 0.52756 0.94574 0.46198 0.0
C76 C 0.53553 0.96726 0.44517 0.0
C77 C 0.53176 0.98424 0.4577 0.0
C78 C 0.51637 0.94216 0.49156 0.0
C79 C 0.51276 0.95952 0.50308 0.0
N80 N 0.50327 0.02616 0.51625 0.0
C81 C 0.50377 0.06274 0.50861 0.0
C82 C 0.49234 0.05919 0.53803 0.0
C83 C 0.48644 0.03873 0.5563 0.0
C84 C 0.492 0.02261 0.54506 0.0
C85 C 0.50896 0.04616 0.49826 0.0
H86 H 0.487 0.00742 0.56015 0.0
H87 H 0.51772 0.04998 0.47568 0.0
H88 H 0.53839 1.00025 0.44372 0.0
H89 H 0.50377 0.95548 0.5255 0.0
C90 C 0.48603 0.969 0.56591 0.0
C91 C 0.56632 0.0371 0.54145 0.0
C92 C 0.4563 0.97066 0.4619 0.0
C93 C 0.53747 0.03738 0.43654 0.0
H94 H 0.56146 0.0167 0.60401 0.0
H95 H 0.51752 0.97923 0.61769 0.0
H96 H 0.43542 0.93462 0.56216 0.0
H97 H 0.41923 0.93599 0.50537 0.0
H98 H 0.46307 0.98841 0.39709 0.0
H99 H 0.50704 0.0253 0.38349 0.0
H100 H 0.58695 0.0744 0.44195 0.0
H101 H 0.60245 0.07444 0.49955 0.0
H102 H 0.54477 0.97108 0.42243 0.0
H103 H 0.50982 0.92575 0.50551 0.0
H104 H 0.50905 0.07845 0.49367 0.0
H105 H 0.47725 0.03493 0.57907 0.0
C106 C 0.54902 0.53185 0.94529 0.0
C107 C 0.55508 0.54173 0.91462 0.0
C108 C 0.53388 0.53671 0.90075 0.0
C109 C 0.51607 0.52407 0.92352 0.0
N110 N 0.52482 0.52114 0.95104 0.0
Co111 Co 0.5049 0.50264 0.989 0.0
N112 N 0.47692 0.50416 0.97397 0.0
C113 C 0.47298 0.50868 0.94416 0.0
C114 C 0.45225 0.5094 0.94172 0.0
C115 C 0.44274 0.50512 0.97197 0.0
C116 C 0.45832 0.5021 0.99107 0.0
N117 N 0.4846 0.48383 0.02652 0.0
C118 C 0.46514 0.48321 0.03907 0.0
C119 C 0.4568 0.4688 0.06654 0.0
C120 C 0.47168 0.46009 0.07104 0.0
C121 C 0.48828 0.46974 0.04626 0.0
N122 N 0.5329 0.50115 0.00447 0.0
C123 C 0.5319 0.48585 0.0272 0.0
C124 C 0.55415 0.48887 0.0329 0.0
C125 C 0.57004 0.50692 0.01212 0.0
C126 C 0.55651 0.51382 0.99462 0.0
N127 N 0.51643 0.53203 0.0109 0.0
C128 C 0.52804 0.57235 0.04354 0.0
C129 C 0.52721 0.55296 0.05912 0.0
C130 C 0.52174 0.5331 0.04225 0.0
C131 C 0.52358 0.5715 0.01123 0.0
C132 C 0.51759 0.55111 0.99541 0.0
N133 N 0.4932 0.47319 0.96696 0.0
C134 C 0.50123 0.44972 0.93319 0.0
C135 C 0.4764 0.43233 0.93247 0.0
C136 C 0.46017 0.43561 0.94995 0.0
C137 C 0.46894 0.45605 0.96719 0.0
C138 C 0.50921 0.46995 0.95041 0.0
H139 H 0.45605 0.45815 0.98038 0.0
H140 H 0.52837 0.48316 0.94978 0.0
H141 H 0.52127 0.51839 0.05474 0.0
H142 H 0.51335 0.55057 0.97077 0.0
C143 C 0.49164 0.51726 0.92123 0.0
C144 C 0.56607 0.53023 0.96652 0.0
C145 C 0.45461 0.49619 0.02503 0.0
C146 C 0.51048 0.47099 0.04509 0.0
H147 H 0.57283 0.55099 0.90308 0.0
H148 H 0.5318 0.54194 0.87703 0.0
H149 H 0.4456 0.51386 0.92085 0.0
H150 H 0.42642 0.50448 0.97921 0.0
H151 H 0.442 0.46536 0.08213 0.0
H152 H 0.47148 0.44944 0.09119 0.0
H153 H 0.55842 0.47939 0.05042 0.0
H154 H 0.58927 0.51378 0.0096 0.0
H155 H 0.53084 0.5532 0.08409 0.0
H156 H 0.52412 0.58626 0.99849 0.0
H157 H 0.51442 0.4481 0.91977 0.0
H158 H 0.44083 0.42248 0.95033 0.0
C159 C 0.96299 0.44696 0.50628 0.0
C160 C 0.94325 0.42889 0.49109 0.0
C161 C 0.94272 0.43815 0.46198 0.0
C162 C 0.962 0.46127 0.46109 0.0
N163 N 0.97521 0.46713 0.48758 0.0
Co164 Co 0.00328 0.49939 0.49792 0.0
N165 N 0.99873 0.5145 0.4588 0.0
C166 C 0.98157 0.50351 0.43684 0.0
C167 C 0.98326 0.51844 0.4123 0.0
C168 C 0.00279 0.54024 0.4188 0.0
C169 C 0.01193 0.53733 0.44706 0.0
N170 N 0.03159 0.5315 0.50816 0.0
C171 C 0.04194 0.55259 0.4914 0.0
C172 C 0.06189 0.57051 0.50653 0.0
C173 C 0.0645 0.56029 0.53356 0.0
C174 C 0.04606 0.53685 0.53344 0.0
N175 N 0.00739 0.48435 0.53737 0.0
C176 C 0.02476 0.49496 0.55915 0.0
C177 C 0.02162 0.48027 0.58484 0.0
C178 C 1.00053 0.45927 0.57962 0.0
C179 C 0.99207 0.46247 0.551 0.0
N180 N 0.0258 0.49336 0.47414 0.0
C181 C 0.05721 0.48361 0.44142 0.0
C182 C 0.06246 0.49232 0.47169 0.0
C183 C 0.04673 0.49705 0.4874 0.0
C184 C 0.03623 0.48037 0.42749 0.0
C185 C 0.02094 0.48532 0.4441 0.0
N186 N 0.98071 0.50505 0.52181 0.0
C187 C 0.96936 0.51461 0.57068 0.0
C188 C 0.94534 0.50395 0.56118 0.0
C189 C 0.93969 0.4955 0.53084 0.0
C190 C 0.95766 0.49666 0.51142 0.0
C191 C 0.98667 0.5149 0.55076 0.0
H192 H 0.95227 0.48981 0.48855 0.0
H193 H 0.00449 0.52231 0.55977 0.0
H194 H 0.05198 0.5037 0.51026 0.0
H195 H 0.00527 0.48236 0.43211 0.0
C196 C 0.96532 0.47885 0.43868 0.0
C197 C 0.96814 0.44528 0.53942 0.0
C198 C 0.034 0.5564 0.46078 0.0
C199 C 0.04214 0.51935 0.55641 0.0
H200 H 0.92982 0.41126 0.50046 0.0
H201 H 0.92883 0.42959 0.44453 0.0
H202 H 0.97209 0.51387 0.39165 0.0
H203 H 0.0099 0.55632 0.40396 0.0
H204 H 0.07354 0.58899 0.49859 0.0
H205 H 0.07839 0.56886 0.55099 0.0
H206 H 0.03257 0.48472 0.60569 0.0
H207 H 0.99166 0.44374 0.59571 0.0
H208 H 0.0788 0.49566 0.48328 0.0
H209 H 0.0313 0.47359 0.40409 0.0
H210 H 0.97447 0.52157 0.59399 0.0
H211 H 0.92134 0.48758 0.52237 0.0
C212 C 0.46258 0.99142 0.05351 0.0
C213 C 0.45905 0.00145 0.0794 0.0
C214 C 0.47884 0.02411 0.0802 0.0
C215 C 0.4933 0.0266 0.05493 0.0
N216 N 0.48359 0.00706 0.03759 0.0
Co217 Co 0.49909 0.00204 1.00036 0.0
N218 N 0.53044 0.03294 0.006 0.0
C219 C 0.53583 0.04811 0.0294 0.0
C220 C 0.55858 0.06834 0.02612 0.0
C221 C 0.56803 0.06615 0.99863 0.0
C222 C 0.5504 0.04467 0.98674 0.0
N223 N 0.51423 0.9974 0.96242 0.0
C224 C 0.53542 0.01302 0.94689 0.0
C225 C 0.53845 0.00376 0.91981 0.0
C226 C 0.51808 0.98161 0.9177 0.0
C227 C 0.50386 0.97871 0.94348 0.0
N228 N 0.46808 0.97068 0.99553 0.0
C229 C 0.46301 0.95485 0.97313 0.0
C230 C 0.44088 0.93403 0.97764 0.0
C231 C 0.43165 0.9364 0.00518 0.0
C232 C 0.44878 0.95859 0.0158 0.0
N233 N 0.48745 0.0185 0.97228 0.0
C234 C 0.47248 0.04248 0.93118 0.0
C235 C 0.46594 0.01922 0.92603 0.0
C236 C 0.47373 0.00772 0.94655 0.0
C237 C 0.48647 0.05353 0.95727 0.0
C238 C 0.49349 0.04124 0.97753 0.0
N239 N 0.51046 0.98546 0.02852 0.0
C240 C 0.51224 0.9506 0.04126 0.0
C241 C 0.51641 0.95643 0.07284 0.0
C242 C 0.51954 0.97793 0.08134 0.0
C243 C 0.51695 0.99229 0.05883 0.0
C244 C 0.50934 0.96529 0.01959 0.0
H245 H 0.5193 0.00836 0.06683 0.0
H246 H 0.50521 0.95946 0.9961 0.0
H247 H 0.46858 0.99022 0.94086 0.0
H248 H 0.50389 0.05059 0.99718 0.0
C249 C 0.51777 0.04477 0.0508 0.0
C250 C 0.4472 0.96633 0.04683 0.0
C251 C 0.55216 0.0374 0.95549 0.0
C252 C 0.48016 0.95942 0.9495 0.0
H253 H 0.44445 0.99297 0.09692 0.0
H254 H 0.48306 0.03657 0.09847 0.0
H255 H 0.56668 0.08356 0.04079 0.0
H256 H 0.58537 0.07938 0.9877 0.0
H257 H 0.55346 0.01251 0.90282 0.0
H258 H 0.51371 0.96948 0.89894 0.0
H259 H 0.43295 0.91855 0.96345 0.0
H260 H 0.41479 0.92294 0.01697 0.0
H261 H 0.45523 0.01006 0.9059 0.0
H262 H 0.49172 0.0715 0.96229 0.0
H263 H 0.50993 0.93415 0.03365 0.0
H264 H 0.5234 0.98337 0.10548 0.0
C265 C 0.51085 0.55378 0.49324 0.0
C266 C 0.50847 0.57143 0.50571 0.0
C267 C 0.50133 0.56449 0.53678 0.0
C268 C 0.49984 0.54312 0.54137 0.0
N269 N 0.50581 0.5364 0.51521 0.0
Co270 Co 0.50516 0.50658 0.50998 0.0
N271 N 0.48321 0.49096 0.54749 0.0
C272 C 0.47805 0.50195 0.56935 0.0
C273 C 0.46153 0.48648 0.59201 0.0
C274 C 0.4564 0.46447 0.58441 0.0
C275 C 0.47041 0.46777 0.55765 0.0
N276 N 0.50475 0.47673 0.50461 0.0
C277 C 0.49097 0.45491 0.51945 0.0
C278 C 0.49792 0.43962 0.5095 0.0
C279 C 0.51694 0.45243 0.48842 0.0
C280 C 0.52065 0.47477 0.48656 0.0
N281 N 0.52699 0.52247 0.4725 0.0
C282 C 0.54092 0.51593 0.45844 0.0
C283 C 0.5528 0.52981 0.4317 0.0
C284 C 0.54571 0.54594 0.42878 0.0
C285 C 0.52996 0.54097 0.45408 0.0
N286 N 0.53358 0.51821 0.53687 0.0
C287 C 0.5754 0.53381 0.57306 0.0
C288 C 0.5735 0.54951 0.55172 0.0
C289 C 0.55265 0.54132 0.53367 0.0
C290 C 0.55552 0.51025 0.57608 0.0
C291 C 0.53486 0.50302 0.55831 0.0
N292 N 0.47698 0.49517 0.48285 0.0
C293 C 0.45744 0.4785 0.4341 0.0
C294 C 0.43915 0.48294 0.44087 0.0
C295 C 0.43986 0.49312 0.46942 0.0
C296 C 0.45874 0.49883 0.49023 0.0
C297 C 0.47622 0.48488 0.45524 0.0
H298 H 0.45883 0.50668 0.51199 0.0
H299 H 0.49045 0.48198 0.44882 0.0
H300 H 0.55207 0.55366 0.51687 0.0
H301 H 0.52016 0.48489 0.56154 0.0
C302 C 0.48718 0.5264 0.5662 0.0
C303 C 0.51799 0.55382 0.46064 0.0
C304 C 0.47477 0.4495 0.54705 0.0
C305 C 0.53759 0.49373 0.46645 0.0
H306 H 0.51105 0.58725 0.49342 0.0
H307 H 0.49612 0.57313 0.55326 0.0
H308 H 0.45407 0.49067 0.61168 0.0
H309 H 0.44477 0.44799 0.59802 0.0
H310 H 0.49086 0.4214 0.51756 0.0
H311 H 0.52695 0.4462 0.4761 0.0
H312 H 0.56389 0.52744 0.41507 0.0
H313 H 0.55109 0.55937 0.40989 0.0
H314 H 0.58796 0.56803 0.54875 0.0
H315 H 0.5559 0.49705 0.59144 0.0
H316 H 0.45759 0.47074 0.41219 0.0
H317 H 0.42589 0.49657 0.47566 0.0
H318 H 0.17713 0.43791 0.20833 0.0
H319 H 0.14253 0.4329 0.17876 0.0
H320 H 0.18873 0.50247 0.13294 0.0
H321 H 0.2232 0.50763 0.16329 0.0
H322 H 0.24571 0.48376 0.16392 0.0
H323 H 0.19319 0.43532 0.27958 0.0
H324 H 0.16206 0.43154 0.31589 0.0
H325 H 0.17645 0.50001 0.28064 0.0
H326 H 0.20693 0.50315 0.24356 0.0
H327 H 0.2852 0.50116 0.29143 0.0
H328 H 0.31429 0.49763 0.32368 0.0
H329 H 0.31482 0.45022 0.25717 0.0
H330 H 0.2843 0.45239 0.22646 0.0
H331 H 0.24135 0.47058 0.28028 0.0
H332 H 0.31218 0.51703 0.21375 0.0
H333 H 0.34804 0.52511 0.1837 0.0
H334 H 0.30186 0.46922 0.12145 0.0
H335 H 0.26624 0.46042 0.15266 0.0
C336 C 0.20277 0.47326 0.18833 0.0
C337 C 0.17978 0.45223 0.19221 0.0
C338 C 0.16003 0.44927 0.17501 0.0
C339 C 0.16282 0.46726 0.1534 0.0
C340 C 0.18586 0.48836 0.14962 0.0
C341 C 0.20564 0.49127 0.16679 0.0
C342 C 0.22387 0.47606 0.20613 0.0
C343 C 0.24485 0.48098 0.18938 0.0
C344 C 0.22294 0.47279 0.23936 0.0
C345 C 0.20238 0.46951 0.25894 0.0
C346 C 0.18938 0.44935 0.27943 0.0
C347 C 0.1717 0.44732 0.30033 0.0
C348 C 0.16692 0.46562 0.30158 0.0
C349 C 0.17942 0.48545 0.28018 0.0
C350 C 0.19694 0.48733 0.25901 0.0
C351 C 0.28257 0.4772 0.25627 0.0
C352 C 0.29154 0.48995 0.28381 0.0
C353 C 0.30847 0.48812 0.3021 0.0
C354 C 0.31707 0.47361 0.29322 0.0
C355 C 0.30841 0.46126 0.26522 0.0
C356 C 0.29117 0.46279 0.24722 0.0
C357 C 0.26324 0.47796 0.23816 0.0
C358 C 0.24245 0.47355 0.25482 0.0
C359 C 0.26465 0.48215 0.2049 0.0
C360 C 0.28647 0.48788 0.18579 0.0
C361 C 0.30979 0.50637 0.1938 0.0
C362 C 0.3303 0.51115 0.17633 0.0
C363 C 0.32793 0.49777 0.15014 0.0
C364 C 0.30448 0.47961 0.14178 0.0
C365 C 0.28402 0.47472 0.15941 0.0
H366 H 0.7083 0.22018 0.78879 0.0
H367 H 0.67152 0.18957 0.81765 0.0
H368 H 0.69117 0.13798 0.80148 0.0
H369 H 0.72827 0.16892 0.77317 0.0
H370 H 0.75828 0.23554 0.80279 0.0
H371 H 0.70499 0.20773 0.70183 0.0
H372 H 0.67702 0.17532 0.66868 0.0
H373 H 0.71954 0.14308 0.68234 0.0
H374 H 0.74795 0.1762 0.71398 0.0
H375 H 0.82181 0.25996 0.69423 0.0
H376 H 0.85371 0.29624 0.66622 0.0
H377 H 0.81683 0.33201 0.69111 0.0
H378 H 0.78619 0.29621 0.72076 0.0
H379 H 0.76827 0.23379 0.68707 0.0
H380 H 0.83015 0.27404 0.75942 0.0
H381 H 0.86148 0.309 0.78591 0.0
H382 H 0.80601 0.3139 0.8341 0.0
H383 H 0.77447 0.27967 0.80605 0.0
C384 C 0.72085 0.19674 0.77862 0.0
C385 C 0.70467 0.20227 0.7915 0.0
C386 C 0.68359 0.18472 0.80776 0.0
C387 C 0.67836 0.16131 0.81166 0.0
C388 C 0.69476 0.15587 0.79899 0.0
C389 C 0.71583 0.17345 0.78258 0.0
C390 C 0.74298 0.21556 0.76123 0.0
C391 C 0.76053 0.23527 0.7775 0.0
C392 C 0.74627 0.21466 0.72852 0.0
C393 C 0.72847 0.19429 0.71024 0.0
C394 C 0.70816 0.19359 0.69764 0.0
C395 C 0.69209 0.17492 0.67889 0.0
C396 C 0.69598 0.1565 0.67257 0.0
C397 C 0.71616 0.15712 0.686 0.0
C398 C 0.73235 0.17594 0.70436 0.0
C399 C 0.80185 0.27554 0.70974 0.0
C400 C 0.82072 0.27569 0.69354 0.0
C401 C 0.83887 0.29647 0.67737 0.0
C402 C 0.8381 0.31733 0.6764 0.0
C403 C 0.81858 0.31668 0.69194 0.0
C404 C 0.80082 0.29611 0.70866 0.0
C405 C 0.7833 0.25415 0.72845 0.0
C406 C 0.76635 0.23401 0.71244 0.0
C407 C 0.78098 0.25447 0.76162 0.0
C408 C 0.79986 0.27452 0.77993 0.0
C409 C 0.82461 0.28277 0.77525 0.0
C410 C 0.84251 0.30257 0.79063 0.0
C411 C 0.83603 0.31404 0.81185 0.0
C412 C 0.81134 0.30522 0.81783 0.0
C413 C 0.79338 0.28568 0.80185 0.0
H414 H 0.56495 0.80059 0.31676 0.0
H415 H 0.56758 0.82953 0.35299 0.0
H416 H 0.49927 0.8176 0.31956 0.0
H417 H 0.49666 0.78852 0.28353 0.0
H418 H 0.52991 0.75301 0.31476 0.0
H419 H 0.56304 0.82296 0.23487 0.0
H420 H 0.55966 0.85543 0.21067 0.0
H421 H 0.48384 0.80538 0.19357 0.0
H422 H 0.48745 0.77293 0.21678 0.0
H423 H 0.49579 0.71185 0.19282 0.0
H424 H 0.49999 0.68562 0.15767 0.0
H425 H 0.56915 0.70658 0.19837 0.0
H426 H 0.5647 0.73236 0.23378 0.0
H427 H 0.5257 0.76093 0.19843 0.0
H428 H 0.49426 0.69102 0.25945 0.0
H429 H 0.48884 0.65535 0.28606 0.0
H430 H 0.5489 0.69898 0.34629 0.0
H431 H 0.55544 0.73465 0.31774 0.0
C432 C 0.53077 0.79254 0.29711 0.0
C433 C 0.55056 0.80423 0.31718 0.0
C434 C 0.552 0.82073 0.33795 0.0
C435 C 0.53362 0.82589 0.3392 0.0
C436 C 0.5139 0.81431 0.31888 0.0
C437 C 0.51241 0.79769 0.2982 0.0
C438 C 0.52914 0.77446 0.2759 0.0
C439 C 0.52946 0.75493 0.28928 0.0
C440 C 0.52702 0.77615 0.24285 0.0
C441 C 0.52547 0.79566 0.22753 0.0
C442 C 0.54579 0.81902 0.22562 0.0
C443 C 0.54386 0.83745 0.21186 0.0
C444 C 0.52148 0.83275 0.20049 0.0
C445 C 0.50123 0.80935 0.20235 0.0
C446 C 0.50329 0.79088 0.21543 0.0
C447 C 0.52991 0.724 0.21595 0.0
C448 C 0.51181 0.71072 0.1942 0.0
C449 C 0.51414 0.69567 0.17432 0.0
C450 C 0.5349 0.69413 0.17536 0.0
C451 C 0.55302 0.70753 0.19703 0.0
C452 C 0.55047 0.72219 0.21728 0.0
C453 C 0.52762 0.73998 0.2372 0.0
C454 C 0.52644 0.75903 0.22387 0.0
C455 C 0.52815 0.73735 0.27045 0.0
C456 C 0.52555 0.71563 0.28614 0.0
C457 C 0.50674 0.69296 0.27776 0.0
C458 C 0.50336 0.6725 0.29347 0.0
C459 C 0.51831 0.67417 0.31854 0.0
C460 C 0.53724 0.69691 0.32681 0.0
C461 C 0.54085 0.71739 0.31071 0.0
H462 H 0.71464 0.50145 0.72991 0.0
H463 H 0.68707 0.5079 0.69764 0.0
H464 H 0.72589 0.58152 0.72195 0.0
H465 H 0.75306 0.57482 0.75497 0.0
H466 H 0.76673 0.52734 0.72102 0.0
H467 H 0.70557 0.50961 0.79668 0.0
H468 H 0.67752 0.51528 0.82721 0.0
H469 H 0.73828 0.57425 0.87208 0.0
H470 H 0.76636 0.5694 0.83973 0.0
H471 H 0.82639 0.55933 0.82955 0.0
H472 H 0.85652 0.55326 0.85533 0.0
H473 H 0.81749 0.48045 0.82682 0.0
H474 H 0.78809 0.48705 0.80017 0.0
H475 H 0.7744 0.53465 0.83701 0.0
H476 H 0.83552 0.54892 0.75925 0.0
H477 H 0.8605 0.53926 0.72818 0.0
H478 H 0.79556 0.48187 0.68768 0.0
H479 H 0.77073 0.49062 0.72036 0.0
C480 C 0.73581 0.53764 0.74487 0.0
C481 C 0.71704 0.51891 0.72854 0.0
C482 C 0.70128 0.52257 0.71027 0.0
C483 C 0.7044 0.5452 0.70738 0.0
C484 C 0.72316 0.56393 0.7238 0.0
C485 C 0.7386 0.56012 0.74266 0.0
C486 C 0.75313 0.53389 0.76306 0.0
C487 C 0.76827 0.52869 0.74643 0.0
C488 C 0.75522 0.53601 0.79616 0.0
C489 C 0.73817 0.5394 0.81529 0.0
C490 C 0.71293 0.5241 0.81258 0.0
C491 C 0.69683 0.52711 0.83056 0.0
C492 C 0.70554 0.54522 0.85227 0.0
C493 C 0.73086 0.56036 0.85528 0.0
C494 C 0.74698 0.55747 0.83698 0.0
C495 C 0.80515 0.52373 0.8127 0.0
C496 C 0.82429 0.54203 0.82909 0.0
C497 C 0.84146 0.53847 0.84392 0.0
C498 C 0.83965 0.51638 0.84304 0.0
C499 C 0.81989 0.49786 0.82743 0.0
C500 C 0.80291 0.50152 0.81236 0.0
C501 C 0.78802 0.52804 0.79492 0.0
C502 C 0.77297 0.53344 0.81159 0.0
C503 C 0.78569 0.5257 0.76184 0.0
C504 C 0.80116 0.52024 0.74263 0.0
C505 C 0.82664 0.53397 0.74412 0.0
C506 C 0.84095 0.52863 0.72594 0.0
C507 C 0.83011 0.50968 0.70543 0.0
C508 C 0.8046 0.49625 0.70365 0.0
C509 C 0.79032 0.50141 0.7221 0.0
H510 H 0.26792 0.82358 0.21101 0.0
H511 H 0.30289 0.85254 0.17823 0.0
H512 H 0.34839 0.8346 0.23144 0.0
H513 H 0.31284 0.80389 0.26121 0.0
H514 H 0.24811 0.77637 0.21403 0.0
H515 H 0.26248 0.82862 0.30877 0.0
H516 H 0.29178 0.86132 0.33983 0.0
H517 H 0.33638 0.83067 0.34387 0.0
H518 H 0.30526 0.79667 0.3162 0.0
H519 H 0.2221 0.72315 0.33383 0.0
H520 H 0.1863 0.69162 0.36335 0.0
H521 H 0.14098 0.7097 0.31026 0.0
H522 H 0.17696 0.74186 0.28195 0.0
H523 H 0.2418 0.7708 0.33103 0.0
H524 H 0.20954 0.70903 0.25027 0.0
H525 H 0.17904 0.68103 0.21453 0.0
H526 H 0.16688 0.73601 0.17986 0.0
H527 H 0.19824 0.764 0.21439 0.0
C528 C 0.28781 0.81199 0.23933 0.0
C529 C 0.28549 0.826 0.21562 0.0
C530 C 0.30567 0.84279 0.19707 0.0
C531 C 0.32876 0.84619 0.20205 0.0
C532 C 0.331 0.83242 0.22636 0.0
C533 C 0.3107 0.8152 0.24424 0.0
C534 C 0.26598 0.79262 0.25691 0.0
C535 C 0.24671 0.77522 0.23962 0.0
C536 C 0.26407 0.79104 0.29027 0.0
C537 C 0.28206 0.81061 0.3095 0.0
C538 C 0.27853 0.82896 0.31669 0.0
C539 C 0.29562 0.84789 0.33416 0.0
C540 C 0.3171 0.84933 0.34408 0.0
C541 C 0.32018 0.83044 0.33722 0.0
C542 C 0.30256 0.81105 0.32079 0.0
C543 C 0.20222 0.73469 0.30538 0.0
C544 C 0.20444 0.72033 0.32861 0.0
C545 C 0.18391 0.70216 0.34527 0.0
C546 C 0.1607 0.69802 0.3391 0.0
C547 C 0.15857 0.71251 0.31585 0.0
C548 C 0.17912 0.73073 0.29932 0.0
C549 C 0.22414 0.75418 0.2881 0.0
C550 C 0.24335 0.77173 0.30546 0.0
C551 C 0.22582 0.75612 0.25473 0.0
C552 C 0.20619 0.73858 0.23482 0.0
C553 C 0.20019 0.71493 0.23498 0.0
C554 C 0.18261 0.69891 0.21464 0.0
C555 C 0.17051 0.70621 0.19398 0.0
C556 C 0.17617 0.72981 0.19473 0.0
C557 C 0.19399 0.74585 0.21465 0.0
H558 H 0.49376 0.29029 0.77243 0.0
H559 H 0.49215 0.3203 0.80206 0.0
H560 H 0.41365 0.27894 0.79822 0.0
H561 H 0.41569 0.2497 0.76736 0.0
H562 H 0.45405 0.22886 0.7884 0.0
H563 H 0.49697 0.29747 0.70905 0.0
H564 H 0.50019 0.33319 0.68526 0.0
H565 H 0.42432 0.29176 0.66132 0.0
H566 H 0.42143 0.25588 0.68491 0.0
H567 H 0.42755 0.1913 0.6644 0.0
H568 H 0.4311 0.16472 0.62984 0.0
H569 H 0.49605 0.17893 0.67758 0.0
H570 H 0.49204 0.20515 0.71251 0.0
H571 H 0.4588 0.23855 0.67144 0.0
H572 H 0.42537 0.16642 0.7351 0.0
H573 H 0.4238 0.13283 0.76306 0.0
H574 H 0.48089 0.18138 0.82374 0.0
H575 H 0.48369 0.2149 0.79396 0.0
C576 C 0.45484 0.26787 0.76778 0.0
C577 C 0.47625 0.28774 0.77813 0.0
C578 C 0.47525 0.3048 0.79523 0.0
C579 C 0.45275 0.30215 0.80261 0.0
C580 C 0.43132 0.28187 0.79257 0.0
C581 C 0.43239 0.26498 0.77519 0.0
C582 C 0.45594 0.25053 0.74816 0.0
C583 C 0.45535 0.23095 0.76284 0.0
C584 C 0.45703 0.25313 0.71496 0.0
C585 C 0.45896 0.2742 0.69883 0.0
C586 C 0.48109 0.29611 0.69854 0.0
C587 C 0.48283 0.31649 0.68511 0.0
C588 C 0.46242 0.31535 0.67173 0.0
C589 C 0.44038 0.29318 0.67129 0.0
C590 C 0.43867 0.27272 0.68479 0.0
C591 C 0.45944 0.20013 0.69113 0.0
C592 C 0.44253 0.18865 0.66744 0.0
C593 C 0.44467 0.17353 0.6476 0.0
C594 C 0.46395 0.16973 0.65077 0.0
C595 C 0.4808 0.18116 0.67471 0.0
C596 C 0.47858 0.19623 0.69465 0.0
C597 C 0.45735 0.21666 0.71154 0.0
C598 C 0.45751 0.23615 0.69698 0.0
C599 C 0.45608 0.2139 0.74499 0.0
C600 C 0.45494 0.19329 0.76201 0.0
C601 C 0.43794 0.16987 0.75396 0.0
C602 C 0.43679 0.1506 0.77038 0.0
C603 C 0.45221 0.15427 0.79578 0.0
C604 C 0.46904 0.17777 0.80397 0.0
C605 C 0.47047 0.19703 0.78717 0.0
H606 H 0.0764 0.50503 0.07107 0.0
H607 H 0.03375 0.43394 0.03672 0.0
H608 H 0.06113 0.42339 0.06338 0.0
H609 H 0.13483 0.51208 0.06183 0.0
H610 H 0.14678 0.52832 0.09716 0.0
H611 H 0.12359 0.52984 0.07587 0.0
H612 H 0.0964 0.51577 0.12661 0.0
H613 H 0.11951 0.51423 0.1481 0.0
H614 H 0.08909 0.48841 0.14733 0.0
H615 H 0.09364 0.42111 0.09364 0.0
H616 H 0.12845 0.42696 0.12472 0.0
H617 H 0.14973 0.49981 0.13933 0.0
C618 C 0.07294 0.48727 0.06922 0.0
C619 C 0.0532 0.47023 0.05183 0.0
C620 C 0.04892 0.44713 0.04991 0.0
C621 C 0.06434 0.44106 0.06495 0.0
C622 C 0.08384 0.45834 0.08179 0.0
C623 C 0.08814 0.48098 0.08401 0.0
C624 C 0.11033 0.49633 0.10336 0.0
C625 C 0.13005 0.51792 0.08335 0.0
C626 C 0.10341 0.50414 0.13312 0.0
C627 C 0.11801 0.47888 0.11163 0.0
C628 C 0.10246 0.45705 0.09908 0.0
C629 C 0.10586 0.43811 0.10365 0.0
C630 C 0.12563 0.44158 0.1215 0.0
C631 C 0.14185 0.46383 0.13458 0.0
C632 C 0.13786 0.48267 0.12943 0.0
H633 H 0.57095 0.0659 0.58887 0.0
H634 H 0.61127 0.04368 0.53445 0.0
H635 H 0.64873 0.07133 0.56264 0.0
H636 H 0.61751 0.12725 0.59117 0.0
H637 H 0.61074 0.13042 0.6312 0.0
H638 H 0.58706 0.10851 0.60737 0.0
H639 H 0.57791 0.07542 0.64981 0.0
H640 H 0.60147 0.09725 0.67389 0.0
H641 H 0.60214 0.07166 0.66287 0.0
H642 H 0.68196 0.1028 0.59466 0.0
H643 H 0.70861 0.13454 0.62993 0.0
H644 H 0.6462 0.13482 0.66616 0.0
C645 C 0.5877 0.06683 0.58316 0.0
C646 C 0.58849 0.05294 0.55944 0.0
C647 C 0.61054 0.0544 0.55247 0.0
C648 C 0.6318 0.06999 0.56834 0.0
C649 C 0.63056 0.08374 0.59137 0.0
C650 C 0.60905 0.08216 0.59901 0.0
C651 C 0.61271 0.09893 0.62469 0.0
C652 C 0.60665 0.11737 0.61289 0.0
C653 C 0.59766 0.08498 0.65459 0.0
C654 C 0.63971 0.11044 0.62997 0.0
C655 C 0.64963 0.10142 0.61049 0.0
C656 C 0.67434 0.10975 0.61036 0.0
C657 C 0.68932 0.12772 0.63074 0.0
C658 C 0.67961 0.13716 0.65129 0.0
C659 C 0.65437 0.12823 0.65075 0.0
H660 H 0.5001 0.57511 0.08922 0.0
H661 H 0.56805 0.61697 0.03602 0.0
H662 H 0.57743 0.65269 0.06443 0.0
H663 H 0.486 0.62083 0.08832 0.0
H664 H 0.47255 0.61299 0.12754 0.0
H665 H 0.47169 0.59058 0.10403 0.0
H666 H 0.49251 0.58038 0.14849 0.0
H667 H 0.49341 0.60272 0.1722 0.0
H668 H 0.52104 0.60365 0.1633 0.0
H669 H 0.57981 0.68336 0.09953 0.0
H670 H 0.57395 0.70785 0.13649 0.0
H671 H 0.5032 0.64679 0.16471 0.0
C672 C 0.517 0.59182 0.08384 0.0
C673 C 0.53357 0.59346 0.06081 0.0
C674 C 0.5553 0.61554 0.05376 0.0
C675 C 0.56073 0.63582 0.06977 0.0
C676 C 0.54404 0.63371 0.09238 0.0
C677 C 0.5225 0.61234 0.09922 0.0
C678 C 0.5073 0.61514 0.12371 0.0
C679 C 0.48295 0.60956 0.11008 0.0
C680 C 0.50334 0.59955 0.1537 0.0
C681 C 0.52374 0.64138 0.12974 0.0
C682 C 0.54493 0.65168 0.11162 0.0
C683 C 0.56324 0.67554 0.11369 0.0
C684 C 0.5598 0.68928 0.13479 0.0
C685 C 0.53811 0.67921 0.15326 0.0
C686 C 0.51983 0.65497 0.15057 0.0
H687 H 0.94244 0.53755 0.59309 0.0
H688 H 0.9047 0.46181 0.57914 0.0
H689 H 0.87196 0.45481 0.61632 0.0
H690 H 0.92676 0.53355 0.67624 0.0
H691 H 0.92254 0.55828 0.67321 0.0
H692 H 0.94359 0.55724 0.64673 0.0
H693 H 0.92112 0.56134 0.59872 0.0
H694 H 0.90007 0.56248 0.62505 0.0
H695 H 0.8889 0.5405 0.59551 0.0
H696 H 0.84354 0.45609 0.65492 0.0
H697 H 0.81989 0.46553 0.68993 0.0
H698 H 0.87472 0.54087 0.67619 0.0
C699 C 0.92731 0.51953 0.59809 0.0
C700 C 0.92595 0.50017 0.58339 0.0
C701 C 0.90586 0.47683 0.5901 0.0
C702 C 0.8873 0.47269 0.61127 0.0
C703 C 0.88904 0.49215 0.62527 0.0
C704 C 0.90841 0.51513 0.61881 0.0
C705 C 0.90526 0.53294 0.63595 0.0
C706 C 0.92576 0.54629 0.65943 0.0
C707 C 0.90374 0.55034 0.6124 0.0
C708 C 0.88109 0.5164 0.65297 0.0
C709 C 0.8722 0.49294 0.64673 0.0
C710 C 0.85022 0.47441 0.6598 0.0
C711 C 0.83681 0.48 0.67949 0.0
C712 C 0.84521 0.50398 0.68569 0.0
C713 C 0.86781 0.52234 0.67232 0.0
H714 H 0.40651 0.95731 0.07973 0.0
H715 H 0.45711 0.93404 0.07096 0.0
H716 H 0.43323 0.90151 0.11124 0.0
H717 H 0.39638 0.94497 0.16578 0.0
H718 H 0.36478 0.93551 0.16382 0.0
H719 H 0.38645 0.95738 0.13522 0.0
H720 H 0.36042 0.93104 0.09002 0.0
H721 H 0.33881 0.909 0.11844 0.0
H722 H 0.35291 0.90072 0.08942 0.0
H723 H 0.40187 0.86968 0.14854 0.0
H724 H 0.36705 0.84219 0.18333 0.0
H725 H 0.33883 0.88854 0.17217 0.0
C726 C 0.41274 0.94561 0.08686 0.0
C727 C 0.43365 0.94813 0.07266 0.0
C728 C 0.44111 0.93228 0.08183 0.0
C729 C 0.4277 0.91384 0.10462 0.0
C730 C 0.40703 0.91169 0.11813 0.0
C731 C 0.39975 0.92732 0.10993 0.0
C732 C 0.37672 0.92091 0.12784 0.0
C733 C 0.38137 0.94088 0.14945 0.0
C734 C 0.356 0.91507 0.10507 0.0
C735 C 0.37187 0.89892 0.14683 0.0
C736 C 0.38953 0.89389 0.14079 0.0
C737 C 0.38821 0.87372 0.15405 0.0
C738 C 0.36836 0.85827 0.1741 0.0
C739 C 0.35012 0.86317 0.1812 0.0
C740 C 0.35219 0.88398 0.16734 0.0
H741 H 0.44927 0.40044 0.54453 0.0
H742 H 0.49609 0.45842 0.60425 0.0
H743 H 0.49513 0.42993 0.64402 0.0
H744 H 0.41292 0.35559 0.60794 0.0
H745 H 0.41208 0.33169 0.58804 0.0
H746 H 0.41409 0.35629 0.56541 0.0
H747 H 0.45298 0.36397 0.53664 0.0
H748 H 0.45108 0.33943 0.55914 0.0
H749 H 0.47842 0.36858 0.55952 0.0
H750 H 0.49103 0.39613 0.67615 0.0
H751 H 0.48549 0.35862 0.69813 0.0
H752 H 0.44339 0.32203 0.61685 0.0
C753 C 0.45902 0.40697 0.5662 0.0
C754 C 0.47258 0.43158 0.57145 0.0
C755 C 0.48542 0.43963 0.59985 0.0
C756 C 0.48497 0.42359 0.62263 0.0
C757 C 0.47177 0.39952 0.6166 0.0
C758 C 0.45912 0.39115 0.58908 0.0
C759 C 0.448 0.36453 0.58765 0.0
C760 C 0.42012 0.35124 0.58724 0.0
C761 C 0.45824 0.3588 0.55904 0.0
C762 C 0.45664 0.35941 0.61847 0.0
C763 C 0.47008 0.37986 0.63488 0.0
C764 C 0.48054 0.37996 0.66357 0.0
C765 C 0.47745 0.3586 0.67573 0.0
C766 C 0.46421 0.33743 0.6591 0.0
C767 C 0.45342 0.33786 0.63026 0.0
H768 H 0.5196 0.93052 0.40128 0.0
H769 H 0.5424 0.91865 0.49274 0.0
H770 H 0.54673 0.88704 0.47118 0.0
H771 H 0.48447 0.86939 0.38165 0.0
H772 H 0.49303 0.87536 0.34032 0.0
H773 H 0.49228 0.89745 0.36268 0.0
H774 H 0.53715 0.92826 0.34631 0.0
H775 H 0.53802 0.90629 0.32381 0.0
H776 H 0.56 0.92123 0.35392 0.0
H777 H 0.54846 0.85667 0.43977 0.0
H778 H 0.5467 0.82907 0.40107 0.0
H779 H 0.52282 0.86063 0.32983 0.0
C780 C 0.52576 0.92145 0.41669 0.0
C781 C 0.5307 0.92709 0.44873 0.0
C782 C 0.53831 0.9145 0.46823 0.0
C783 C 0.54093 0.8966 0.45614 0.0
C784 C 0.53581 0.89142 0.42452 0.0
C785 C 0.52834 0.90343 0.40505 0.0
C786 C 0.52352 0.89406 0.3721 0.0
C787 C 0.49673 0.88343 0.36371 0.0
C788 C 0.5407 0.91363 0.34759 0.0
C789 C 0.52943 0.87488 0.37609 0.0
C790 C 0.53658 0.87374 0.40648 0.0
C791 C 0.54297 0.85746 0.41588 0.0
C792 C 0.54204 0.84194 0.39365 0.0
C793 C 0.53471 0.8427 0.36234 0.0
C794 C 0.52831 0.85944 0.35361 0.0
H795 H 0.58025 0.50163 0.94384 0.0
H796 H 0.60594 0.57546 0.95819 0.0
H797 H 0.6454 0.58773 0.93198 0.0
H798 H 0.63819 0.50609 0.95729 0.0
H799 H 0.63297 0.48538 0.92749 0.0
H800 H 0.6076 0.48285 0.94866 0.0
H801 H 0.58893 0.48512 0.8956 0.0
H802 H 0.61432 0.48788 0.87426 0.0
H803 H 0.60664 0.51013 0.86814 0.0
H804 H 0.68108 0.59156 0.90133 0.0
H805 H 0.71024 0.58693 0.8701 0.0
H806 H 0.6613 0.51012 0.87834 0.0
C807 C 0.59443 0.52033 0.94199 0.0
C808 C 0.59045 0.53767 0.95341 0.0
C809 C 0.60899 0.56202 0.94993 0.0
C810 C 0.63133 0.56907 0.93506 0.0
C811 C 0.6347 0.55149 0.92395 0.0
C812 C 0.61678 0.5276 0.92747 0.0
C813 C 0.62458 0.51221 0.91284 0.0
C814 C 0.62592 0.49566 0.93808 0.0
C815 C 0.60761 0.49801 0.88613 0.0
C816 C 0.6496 0.53114 0.9001 0.0
C817 C 0.65516 0.55368 0.90673 0.0
C818 C 0.67701 0.57397 0.89636 0.0
C819 C 0.69355 0.57113 0.87876 0.0
C820 C 0.68822 0.54815 0.8717 0.0
C821 C 0.66594 0.52798 0.88287 0.0
H822 H 0.07633 0.57089 0.42891 0.0
H823 H 0.02656 0.59297 0.45224 0.0
H824 H 0.05324 0.63165 0.42283 0.0
H825 H 0.13122 0.6274 0.43656 0.0
H826 H 0.14685 0.62416 0.40394 0.0
H827 H 0.12352 0.59819 0.42605 0.0
H828 H 0.10038 0.58086 0.37454 0.0
H829 H 0.12367 0.60674 0.35223 0.0
H830 H 0.09237 0.59826 0.34974 0.0
H831 H 0.08598 0.66809 0.39201 0.0
H832 H 0.12205 0.69965 0.3618 0.0
H833 H 0.15 0.65316 0.35761 0.0
C834 C 0.07111 0.58392 0.42757 0.0
C835 C 0.04953 0.57922 0.44251 0.0
C836 C 0.04308 0.59647 0.44067 0.0
C837 C 0.05809 0.61837 0.4241 0.0
C838 C 0.07938 0.62257 0.40959 0.0
C839 C 0.08585 0.6058 0.4111 0.0
C840 C 0.10978 0.61479 0.39377 0.0
C841 C 0.12897 0.61622 0.41644 0.0
C842 C 0.10633 0.59924 0.36591 0.0
C843 C 0.11588 0.63932 0.38242 0.0
C844 C 0.09811 0.64346 0.39174 0.0
C845 C 0.09992 0.66499 0.38438 0.0
C846 C 0.12042 0.68276 0.36703 0.0
C847 C 0.13888 0.67892 0.35716 0.0
C848 C 0.1364 0.65681 0.36502 0.0
H849 H 0.50078 0.08711 0.90346 0.0
H850 H 0.42671 0.02627 0.91023 0.0
H851 H 0.41346 0.04782 0.87517 0.0
H852 H 0.48689 0.13226 0.90377 0.0
H853 H 0.51051 0.15191 0.87544 0.0
H854 H 0.51415 0.13151 0.90052 0.0
H855 H 0.52131 0.11392 0.85129 0.0
H856 H 0.51776 0.13432 0.82604 0.0
H857 H 0.49901 0.10276 0.82082 0.0
H858 H 0.40807 0.07692 0.84196 0.0
H859 H 0.41105 0.11057 0.81089 0.0
H860 H 0.48928 0.15141 0.82291 0.0
C861 C 0.48178 0.07838 0.89754 0.0
C862 C 0.4647 0.05512 0.90956 0.0
C863 C 0.44004 0.04407 0.90106 0.0
C864 C 0.43237 0.05618 0.88129 0.0
C865 C 0.44966 0.07917 0.86994 0.0
C866 C 0.47389 0.09008 0.87751 0.0
C867 C 0.48882 0.11482 0.86202 0.0
C868 C 0.50079 0.13374 0.88693 0.0
C869 C 0.50785 0.11655 0.83865 0.0
C870 C 0.46912 0.1163 0.84501 0.0
C871 C 0.44667 0.09559 0.84992 0.0
C872 C 0.42562 0.09311 0.83755 0.0
C873 C 0.42755 0.11232 0.8197 0.0
C874 C 0.45043 0.13373 0.8141 0.0
C875 C 0.47145 0.1355 0.82688 0.0
H876 H 0.42378 0.51183 0.41746 0.0
H877 H 0.41064 0.44081 0.41272 0.0
H878 H 0.3782 0.43079 0.37434 0.0
H879 H 0.36151 0.49573 0.41147 0.0
H880 H 0.36873 0.52157 0.38689 0.0
H881 H 0.39062 0.52302 0.41433 0.0
H882 H 0.42249 0.53695 0.36874 0.0
H883 H 0.40072 0.53555 0.34113 0.0
H884 H 0.41519 0.51919 0.33465 0.0
H885 H 0.34649 0.42815 0.33783 0.0
H886 H 0.31868 0.43332 0.30401 0.0
H887 H 0.35418 0.50706 0.32953 0.0
C888 C 0.4139 0.49412 0.40848 0.0
C889 C 0.41954 0.47699 0.41815 0.0
C890 C 0.40659 0.45416 0.40552 0.0
C891 C 0.38813 0.44831 0.3838 0.0
C892 C 0.38303 0.46559 0.37467 0.0
C893 C 0.39563 0.48809 0.38642 0.0
C894 C 0.38695 0.50353 0.3721 0.0
C895 C 0.37632 0.51142 0.39773 0.0
C896 C 0.40756 0.52508 0.35302 0.0
C897 C 0.36731 0.48611 0.35072 0.0
C898 C 0.36531 0.46432 0.35269 0.0
C899 C 0.34808 0.44523 0.33579 0.0
C900 C 0.33246 0.44844 0.31636 0.0
C901 C 0.33423 0.47069 0.3136 0.0
C902 C 0.35206 0.48974 0.33111 0.0
H903 H 0.92109 0.39447 0.94902 0.0
H904 H 0.95712 0.4525 0.87788 0.0
H905 H 0.93004 0.42607 0.83774 0.0
H906 H 0.90975 0.34711 0.90033 0.0
H907 H 0.87998 0.32624 0.91725 0.0
H908 H 0.90272 0.34947 0.94061 0.0
H909 H 0.87346 0.36382 0.95184 0.0
H910 H 0.8506 0.34062 0.92854 0.0
H911 H 0.86044 0.37123 0.91926 0.0
H912 H 0.90012 0.39322 0.80462 0.0
H913 H 0.8673 0.35641 0.78154 0.0
H914 H 0.84804 0.32059 0.8743 0.0
C915 C 0.92325 0.40176 0.92511 0.0
C916 C 0.94176 0.42561 0.91675 0.0
C917 C 0.94378 0.43418 0.88496 0.0
C918 C 0.92826 0.41935 0.86191 0.0
C919 C 0.91043 0.39601 0.87094 0.0
C920 C 0.90762 0.38729 0.9018 0.0
C921 C 0.88651 0.36161 0.90527 0.0
C922 C 0.89527 0.34514 0.91653 0.0
C923 C 0.86657 0.35919 0.92755 0.0
C924 C 0.87808 0.35725 0.87148 0.0
C925 C 0.89228 0.37732 0.85204 0.0
C926 C 0.88871 0.37747 0.81964 0.0
C927 C 0.87012 0.35656 0.80674 0.0
C928 C 0.85516 0.33594 0.82625 0.0
C929 C 0.8591 0.33631 0.85904 0.0
H930 H 0.93913 0.53399 0.96961 0.0
H931 H 0.95124 0.48679 0.91626 0.0
H932 H 0.92029 0.4824 0.87809 0.0
H933 H 0.87382 0.50203 0.96009 0.0
H934 H 0.87293 0.52871 0.95709 0.0
H935 H 0.89615 0.52818 0.9797 0.0
H936 H 0.92933 0.56483 0.94637 0.0
H937 H 0.90623 0.56539 0.92353 0.0
H938 H 0.92983 0.56364 0.904 0.0
H939 H 0.88855 0.48392 0.84545 0.0
H940 H 0.8578 0.49024 0.82121 0.0
H941 H 0.86461 0.53464 0.89795 0.0
C942 C 0.93493 0.52246 0.95013 0.0
C943 C 0.94709 0.51033 0.94601 0.0
C944 C 0.94181 0.49598 0.9198 0.0
C945 C 0.92432 0.49342 0.8981 0.0
C946 C 0.91236 0.50538 0.903 0.0
C947 C 0.91737 0.51954 0.92845 0.0
C948 C 0.90186 0.53034 0.92844 0.0
C949 C 0.8852 0.5218 0.95809 0.0
C950 C 0.91777 0.55767 0.9254 0.0
C951 C 0.8874 0.52015 0.89895 0.0
C952 C 0.8938 0.50588 0.88456 0.0
C953 C 0.88322 0.49486 0.8567 0.0
C954 C 0.86559 0.49843 0.84323 0.0
C955 C 0.85846 0.51277 0.85771 0.0
C956 C 0.86966 0.52374 0.886 0.0
H957 H 0.43355 0.92302 0.45188 0.0
H958 H 0.42762 0.98439 0.43336 0.0
H959 H 0.39128 0.96012 0.40136 0.0
H960 H 0.41489 0.89711 0.3778 0.0
H961 H 0.3972 0.86682 0.39357 0.0
H962 H 0.42268 0.88896 0.41495 0.0
H963 H 0.3948 0.87922 0.46423 0.0
H964 H 0.36927 0.85686 0.4431 0.0
H965 H 0.36776 0.88033 0.46065 0.0
H966 H 0.35827 0.93009 0.36744 0.0
H967 H 0.32759 0.8956 0.33937 0.0
H968 H 0.35114 0.852 0.38663 0.0
C969 C 0.4244 0.93121 0.44129 0.0
C970 C 0.43347 0.9556 0.44454 0.0
C971 C 0.42104 0.96578 0.43065 0.0
C972 C 0.40044 0.95215 0.41254 0.0
C973 C 0.39216 0.92821 0.40931 0.0
C974 C 0.40342 0.91768 0.42386 0.0
C975 C 0.39039 0.89146 0.4174 0.0
C976 C 0.4073 0.88577 0.39989 0.0
C977 C 0.37993 0.87606 0.44818 0.0
C978 C 0.37037 0.889 0.39634 0.0
C979 C 0.37191 0.91046 0.39173 0.0
C980 C 0.35646 0.91302 0.37156 0.0
C981 C 0.33881 0.89307 0.3559 0.0
C982 C 0.3362 0.87051 0.36095 0.0
C983 C 0.35237 0.86871 0.3817 0.0
H984 H 0.49561 0.40442 0.92627 0.0
H985 H 0.43758 0.41338 0.89322 0.0
H986 H 0.42452 0.38042 0.85744 0.0
H987 H 0.51127 0.39232 0.8523 0.0
H988 H 0.51721 0.37035 0.8682 0.0
H989 H 0.52129 0.39386 0.89229 0.0
H990 H 0.49176 0.36269 0.93494 0.0
H991 H 0.48771 0.33907 0.91106 0.0
H992 H 0.46165 0.33971 0.92406 0.0
H993 H 0.4195 0.34822 0.82279 0.0
H994 H 0.42145 0.31784 0.79383 0.0
H995 H 0.48182 0.32876 0.85101 0.0
C996 C 0.4801 0.39938 0.91158 0.0
C997 C 0.46759 0.41146 0.91256 0.0
C998 C 0.44725 0.4042 0.89316 0.0
C999 C 0.43979 0.38559 0.87263 0.0
C1000 C 0.45273 0.37428 0.87196 0.0
C1001 C 0.47231 0.38074 0.89113 0.0
C1002 C 0.48321 0.36585 0.88569 0.0
C1003 C 0.50982 0.38154 0.87392 0.0
C1004 C 0.48094 0.35094 0.91573 0.0
C1005 C 0.46696 0.35024 0.86007 0.0
C1006 C 0.4495 0.3554 0.85248 0.0
C1007 C 0.43288 0.3438 0.82886 0.0
C1008 C 0.43405 0.32642 0.81265 0.0
C1009 C 0.45164 0.3206 0.8202 0.0
C1010 C 0.46825 0.33279 0.84436 0.0
H1011 H 0.07169 0.4923 0.37863 0.0
H1012 H 0.07929 0.46147 0.46682 0.0
H1013 H 0.10713 0.45263 0.44022 0.0
H1014 H 0.07255 0.44982 0.32759 0.0
H1015 H 0.08966 0.47192 0.2964 0.0
H1016 H 0.06979 0.47535 0.32215 0.0
H1017 H 0.10575 0.51691 0.33626 0.0
H1018 H 0.12574 0.51359 0.31065 0.0
H1019 H 0.13307 0.51978 0.35153 0.0
H1020 H 0.13517 0.44842 0.40493 0.0
H1021 H 0.16164 0.44892 0.36308 0.0
H1022 H 0.13476 0.48089 0.29681 0.0
C1023 C 0.07896 0.48341 0.39226 0.0
C1024 C 0.07337 0.47769 0.42489 0.0
C1025 C 0.08358 0.46637 0.44194 0.0
C1026 C 0.09928 0.46112 0.427 0.0
C1027 C 0.10456 0.46717 0.39493 0.0
C1028 C 0.09468 0.478 0.37769 0.0
C1029 C 0.10379 0.48305 0.34362 0.0
C1030 C 0.08269 0.4692 0.32112 0.0
C1031 C 0.11793 0.50993 0.33502 0.0
C1032 C 0.12049 0.47357 0.34454 0.0
C1033 C 0.12058 0.46443 0.37436 0.0
C1034 C 0.13504 0.45525 0.38137 0.0
C1035 C 0.1499 0.45545 0.35729 0.0
C1036 C 0.15017 0.46469 0.32641 0.0
C1037 C 0.13511 0.47378 0.3201 0.0
H1038 H 0.59996 0.05539 0.94037 0.0
H1039 H 0.53816 0.06051 0.91547 0.0
H1040 H 0.56335 0.09203 0.87444 0.0
H1041 H 0.64486 0.11752 0.93158 0.0
H1042 H 0.668 0.11353 0.91526 0.0
H1043 H 0.64484 0.09088 0.94168 0.0
H1044 H 0.63319 0.05958 0.89954 0.0
H1045 H 0.6563 0.08215 0.87294 0.0
H1046 H 0.62522 0.06482 0.86065 0.0
H1047 H 0.59556 0.1236 0.83751 0.0
H1048 H 0.63254 0.15323 0.8069 0.0
H1049 H 0.67359 0.12767 0.85607 0.0
C1050 C 0.59186 0.06315 0.92604 0.0
C1051 C 0.56731 0.05575 0.93067 0.0
C1052 C 0.55703 0.06612 0.91189 0.0
C1053 C 0.57116 0.08393 0.88865 0.0
C1054 C 0.59544 0.091 0.88459 0.0
C1055 C 0.60572 0.08092 0.90271 0.0
C1056 C 0.63235 0.09208 0.894 0.0
C1057 C 0.64846 0.10423 0.92232 0.0
C1058 C 0.63703 0.07355 0.88101 0.0
C1059 C 0.63551 0.11016 0.86839 0.0
C1060 C 0.61399 0.10919 0.86328 0.0
C1061 C 0.61251 0.1245 0.84126 0.0
C1062 C 0.63363 0.14134 0.82412 0.0
C1063 C 0.65594 0.14278 0.82911 0.0
C1064 C 0.65674 0.12681 0.85142 0.0
H1065 H 0.55156 0.59516 0.42841 0.0
H1066 H 0.47434 0.54303 0.43861 0.0
H1067 H 0.46589 0.56703 0.40074 0.0
H1068 H 0.54757 0.64573 0.42541 0.0
H1069 H 0.57172 0.66247 0.39639 0.0
H1070 H 0.57182 0.64023 0.42201 0.0
H1071 H 0.57399 0.61889 0.37347 0.0
H1072 H 0.57417 0.64123 0.34765 0.0
H1073 H 0.55152 0.61021 0.3434 0.0
H1074 H 0.4659 0.59829 0.36563 0.0
H1075 H 0.47402 0.63395 0.3344 0.0
H1076 H 0.55166 0.66509 0.34484 0.0
C1077 C 0.53297 0.58859 0.42188 0.0
C1078 C 0.51355 0.56714 0.43566 0.0
C1079 C 0.48937 0.55933 0.42774 0.0
C1080 C 0.48445 0.57282 0.40635 0.0
C1081 C 0.50399 0.59404 0.39322 0.0
C1082 C 0.52779 0.60181 0.40048 0.0
C1083 C 0.54536 0.62578 0.38421 0.0
C1084 C 0.55997 0.64466 0.40846 0.0
C1085 C 0.56226 0.62391 0.36079 0.0
C1086 C 0.52773 0.63051 0.36721 0.0
C1087 C 0.50398 0.61195 0.37264 0.0
C1088 C 0.48444 0.61276 0.36073 0.0
C1089 C 0.48929 0.63308 0.3428 0.0
C1090 C 0.51352 0.65236 0.33674 0.0
C1091 C 0.53292 0.65082 0.34907 0.0
H1092 H 0.4956 0.07438 0.59846 0.0
H1093 H 0.47577 0.0834 0.50344 0.0
H1094 H 0.46674 0.1127 0.52187 0.0
H1095 H 0.4487 0.07803 0.63877 0.0
H1096 H 0.46779 0.09396 0.67103 0.0
H1097 H 0.47294 0.07383 0.6503 0.0
H1098 H 0.51765 0.10779 0.63864 0.0
H1099 H 0.5126 0.12804 0.65922 0.0
H1100 H 0.52396 0.13515 0.61896 0.0
H1101 H 0.46016 0.14125 0.55038 0.0
H1102 H 0.45602 0.16678 0.5871 0.0
H1103 H 0.47844 0.13806 0.66418 0.0
C1104 C 0.48913 0.08232 0.58155 0.0
C1105 C 0.48653 0.0766 0.5494 0.0
C1106 C 0.47833 0.08772 0.52804 0.0
C1107 C 0.47299 0.1043 0.53832 0.0
C1108 C 0.47585 0.10956 0.57008 0.0
C1109 C 0.48365 0.09887 0.59142 0.0
C1110 C 0.48516 0.10768 0.62429 0.0
C1111 C 0.4676 0.08715 0.64746 0.0
C1112 C 0.5114 0.12042 0.63595 0.0
C1113 C 0.47701 0.12502 0.61806 0.0
C1114 C 0.47175 0.12583 0.58663 0.0
C1115 C 0.46406 0.14065 0.57509 0.0
C1116 C 0.4616 0.15497 0.59623 0.0
C1117 C 0.46671 0.15438 0.62867 0.0
C1118 C 0.47457 0.13915 0.63955 0.0
H1119 H 0.40904 0.46438 0.0497 0.0
H1120 H 0.46454 0.53951 0.04142 0.0
H1121 H 0.43829 0.54854 0.07254 0.0
H1122 H 0.35734 0.47017 0.04363 0.0
H1123 H 0.33906 0.44623 0.07225 0.0
H1124 H 0.36218 0.44594 0.04924 0.0
H1125 H 0.38196 0.44234 0.10055 0.0
H1126 H 0.35885 0.44252 0.12373 0.0
H1127 H 0.3905 0.46403 0.1301 0.0
H1128 H 0.40555 0.549 0.10433 0.0
H1129 H 0.36933 0.54116 0.1345 0.0
H1130 H 0.33612 0.46531 0.12385 0.0
C1131 C 0.41565 0.48267 0.05474 0.0
C1132 C 0.43879 0.5013 0.0437 0.0
C1133 C 0.44682 0.52509 0.04998 0.0
C1134 C 0.43208 0.53033 0.06759 0.0
C1135 C 0.40937 0.51151 0.07854 0.0
C1136 C 0.40123 0.48816 0.0724 0.0
C1137 C 0.37623 0.47119 0.08702 0.0
C1138 C 0.35761 0.45758 0.06151 0.0
C1139 C 0.37694 0.45401 0.11182 0.0
C1140 C 0.37147 0.4886 0.10224 0.0
C1141 C 0.39076 0.51177 0.09707 0.0
C1142 C 0.39039 0.53091 0.10866 0.0
C1143 C 0.36977 0.52625 0.12598 0.0
C1144 C 0.34978 0.5026 0.13171 0.0
C1145 C 0.35085 0.48362 0.11962 0.0
H1146 H 0.94191 0.39636 0.54475 0.0
H1147 H 0.95038 0.45879 0.58638 0.0
H1148 H 0.9184 0.43302 0.62653 0.0
H1149 H 0.87598 0.36043 0.55457 0.0
H1150 H 0.87524 0.33318 0.56252 0.0
H1151 H 0.89913 0.35668 0.53772 0.0
H1152 H 0.9313 0.35676 0.57405 0.0
H1153 H 0.90752 0.33342 0.59912 0.0
H1154 H 0.93034 0.36092 0.61564 0.0
H1155 H 0.88713 0.40047 0.66347 0.0
H1156 H 0.85618 0.36361 0.69215 0.0
H1157 H 0.8648 0.3221 0.62263 0.0
C1158 C 0.93671 0.4045 0.56207 0.0
C1159 C 0.94831 0.42945 0.56249 0.0
C1160 C 0.94155 0.43964 0.58584 0.0
C1161 C 0.92348 0.42518 0.60864 0.0
C1162 C 0.91226 0.40058 0.60754 0.0
C1163 C 0.91838 0.3903 0.58462 0.0
C1164 C 0.90305 0.36339 0.58819 0.0
C1165 C 0.88742 0.3528 0.55902 0.0
C1166 C 0.91901 0.35302 0.59464 0.0
C1167 C 0.88756 0.36014 0.61693 0.0
C1168 C 0.89333 0.38181 0.62787 0.0
C1169 C 0.88213 0.38338 0.65479 0.0
C1170 C 0.86436 0.36224 0.67078 0.0
C1171 C 0.85755 0.33969 0.65956 0.0
C1172 C 0.86951 0.33885 0.6322 0.0
H1173 H 0.54151 0.93373 0.07292 0.0
H1174 H 0.48905 0.94048 0.12706 0.0
H1175 H 0.48572 0.91052 0.16679 0.0
H1176 H 0.51397 0.87133 0.08608 0.0
H1177 H 0.54222 0.87243 0.0896 0.0
H1178 H 0.5411 0.89498 0.06599 0.0
H1179 H 0.57558 0.92774 0.09854 0.0
H1180 H 0.57682 0.90528 0.12225 0.0
H1181 H 0.57207 0.92645 0.14088 0.0
H1182 H 0.48594 0.87798 0.19845 0.0
H1183 H 0.49151 0.84642 0.22175 0.0
H1184 H 0.54538 0.86218 0.14879 0.0
C1185 C 0.52948 0.92897 0.09329 0.0
C1186 C 0.51563 0.93943 0.09716 0.0
C1187 C 0.50005 0.93284 0.12401 0.0
C1188 C 0.49797 0.91581 0.14657 0.0
C1189 C 0.51183 0.90576 0.14208 0.0
C1190 C 0.52747 0.91224 0.1163 0.0
C1191 C 0.54018 0.89859 0.11704 0.0
C1192 C 0.53399 0.88343 0.08795 0.0
C1193 C 0.5678 0.91553 0.11985 0.0
C1194 C 0.52894 0.88316 0.14696 0.0
C1195 C 0.51255 0.88752 0.16097 0.0
C1196 C 0.49894 0.87462 0.18795 0.0
C1197 C 0.50215 0.85674 0.20095 0.0
C1198 C 0.51899 0.85219 0.18713 0.0
C1199 C 0.53268 0.86568 0.15998 0.0
H1200 H 0.57981 0.51626 0.63154 0.0
H1201 H 0.62292 0.56845 0.55594 0.0
H1202 H 0.66012 0.57944 0.58463 0.0
H1203 H 0.61754 0.54744 0.69716 0.0
H1204 H 0.6135 0.52079 0.7163 0.0
H1205 H 0.58994 0.51912 0.69194 0.0
H1206 H 0.59106 0.48805 0.65818 0.0
H1207 H 0.61456 0.48958 0.68243 0.0
H1208 H 0.61946 0.49514 0.64032 0.0
H1209 H 0.69312 0.58373 0.62069 0.0
H1210 H 0.71903 0.57867 0.65903 0.0
H1211 H 0.65464 0.5208 0.70753 0.0
C1212 C 0.59695 0.52994 0.62067 0.0
C1213 C 0.59803 0.5415 0.59126 0.0
C1214 C 0.62117 0.55962 0.57868 0.0
C1215 C 0.64257 0.56591 0.59473 0.0
C1216 C 0.64071 0.55379 0.62323 0.0
C1217 C 0.61849 0.53603 0.63592 0.0
C1218 C 0.6215 0.52433 0.66552 0.0
C1219 C 0.60993 0.52816 0.69444 0.0
C1220 C 0.61103 0.4977 0.66135 0.0
C1221 C 0.64895 0.53812 0.66731 0.0
C1222 C 0.6597 0.55535 0.64304 0.0
C1223 C 0.68489 0.57032 0.63979 0.0
C1224 C 0.69944 0.56738 0.66168 0.0
C1225 C 0.68878 0.54936 0.6861 0.0
C1226 C 0.66321 0.53467 0.68899 0.0
H1227 H 0.06925 0.58051 0.12804 0.0
H1228 H 0.07292 0.61872 0.04057 0.0
H1229 H 0.10252 0.65672 0.06399 0.0
H1230 H 0.07447 0.62506 0.18088 0.0
H1231 H 0.0928 0.62039 0.20856 0.0
H1232 H 0.07103 0.59629 0.18539 0.0
H1233 H 0.10519 0.59087 0.16453 0.0
H1234 H 0.12708 0.61503 0.18747 0.0
H1235 H 0.13188 0.61587 0.14545 0.0
H1236 H 0.13384 0.69011 0.09534 0.0
H1237 H 0.1631 0.71708 0.13344 0.0
H1238 H 0.13782 0.65756 0.20181 0.0
C1239 C 0.0762 0.5969 0.11389 0.0
C1240 C 0.06871 0.59667 0.08249 0.0
C1241 C 0.07812 0.61849 0.0648 0.0
C1242 C 0.09505 0.64015 0.07783 0.0
C1243 C 0.10225 0.63972 0.10868 0.0
C1244 C 0.09297 0.61871 0.12662 0.0
C1245 C 0.10399 0.6232 0.15907 0.0
C1246 C 0.0844 0.6158 0.18501 0.0
C1247 C 0.11786 0.61049 0.16443 0.0
C1248 C 0.12121 0.64999 0.15637 0.0
C1249 C 0.11992 0.65912 0.12709 0.0
C1250 C 0.13472 0.68323 0.11855 0.0
C1251 C 0.1512 0.69846 0.14055 0.0
C1252 C 0.15269 0.68966 0.17099 0.0
C1253 C 0.13736 0.66499 0.17882 0.0
loop_
_geom_bond_atom_site_label_1
_geom_bond_atom_site_label_2
_geom_bond_distance
_geom_bond_site_symmetry_2
_ccdc_geom_bond_type
C0 C1 1.443 1_556 S
C0 N4 1.376 1_556 S
C0 C38 1.389 . S
C1 C0 1.443 1_554 S
C1 C2 1.340 . S
C1 H41 0.951 1_554 S
C2 C1 1.340 . S
C2 C3 1.439 . S
C2 H42 0.950 . S
C3 C2 1.439 . S
C3 N4 1.374 . S
C3 C37 1.395 . S
N4 C0 1.376 1_554 S
N4 C3 1.374 . S
N4 Co5 1.982 1_655 S
Co5 N4 1.982 1_455 S
Co5 N6 2.022 1_455 S
Co5 N11 2.034 1_554 S
Co5 N16 1.968 1_554 S
Co5 N21 2.300 . S
Co5 N27 2.266 1_454 S
N6 Co5 2.022 1_655 S
N6 C7 1.376 . S
N6 C10 1.383 1_655 S
C7 N6 1.376 . S
C7 C8 1.446 . S
C7 C37 1.391 . S
C8 C7 1.446 . S
C8 C9 1.339 1_655 S
C8 H43 0.949 . S
C9 C8 1.339 1_455 S
C9 C10 1.439 . S
C9 H44 0.950 . S
C10 N6 1.383 1_455 S
C10 C9 1.439 . S
C10 C39 1.392 . S
N11 Co5 2.034 1_556 S
N11 C12 1.376 1_556 S
N11 C15 1.374 . S
C12 N11 1.376 1_554 S
C12 C13 1.443 1_554 S
C12 C39 1.389 . S
C13 C12 1.443 1_556 S
C13 C14 1.340 . S
C13 H45 0.951 1_556 S
C14 C13 1.340 . S
C14 C15 1.439 . S
C14 H46 0.950 . S
C15 N11 1.374 . S
C15 C14 1.439 . S
C15 C40 1.395 . S
N16 Co5 1.968 1_556 S
N16 C17 1.376 . S
N16 C20 1.383 1_455 S
C17 N16 1.376 . S
C17 C18 1.446 . S
C17 C40 1.391 . S
C18 C17 1.446 . S
C18 C19 1.339 1_455 S
C18 H47 0.949 . S
C19 C18 1.339 1_655 S
C19 C20 1.439 . S
C19 H48 0.950 . S
C20 N16 1.383 1_655 S
C20 C19 1.439 . S
C20 C38 1.392 . S
N21 Co5 2.300 . S
N21 C24 1.332 . S
N21 C26 1.332 . S
C22 C23 1.386 . S
C22 C25 1.388 . S
C23 C22 1.386 . S
C23 C24 1.382 . S
C23 H49 0.950 . S
C24 N21 1.332 . S
C24 C23 1.382 . S
C24 H35 0.952 1_554 S
C25 C22 1.388 . S
C25 C26 1.382 . S
C25 H50 0.950 . S
C26 N21 1.332 . S
C26 C25 1.382 . S
C26 H36 0.948 . S
N27 Co5 2.266 1_656 S
N27 C31 1.332 . S
N27 C32 1.332 . S
C28 C29 1.388 . S
C28 C32 1.382 . S
C28 H51 0.950 . S
C29 C28 1.388 . S
C29 C30 1.386 . S
C30 C29 1.386 . S
C30 C31 1.382 . S
C30 H52 0.950 . S
C31 N27 1.332 . S
C31 C30 1.382 . S
C31 H33 0.952 1_556 S
C32 N27 1.332 . S
C32 C28 1.382 . S
C32 H34 0.948 . S
H33 C31 0.952 1_554 S
H34 C32 0.948 . S
H35 C24 0.952 1_556 S
H36 C26 0.948 . S
C37 C3 1.395 . S
C37 C7 1.391 . S
C38 C0 1.389 . S
C38 C20 1.392 . S
C39 C10 1.392 . S
C39 C12 1.389 . S
C40 C15 1.395 . S
C40 C17 1.391 . S
H41 C1 0.951 1_556 S
H42 C2 0.950 . S
H43 C8 0.949 . S
H44 C9 0.950 . S
H45 C13 0.951 1_554 S
H46 C14 0.950 . S
H47 C18 0.949 . S
H48 C19 0.950 . S
H49 C23 0.950 . S
H50 C25 0.950 . S
H51 C28 0.950 . S
H52 C30 0.950 . S
C53 C54 1.443 . S
C53 N57 1.375 1_545 S
C53 C91 1.389 . S
C54 C53 1.443 . S
C54 C55 1.340 1_545 S
C54 H94 0.951 . S
C55 C54 1.340 1_565 S
C55 C56 1.439 . S
C55 H95 0.950 . S
C56 C55 1.439 . S
C56 N57 1.375 . S
C56 C90 1.395 . S
N57 C53 1.375 1_565 S
N57 C56 1.375 . S
N57 Co58 2.008 1_565 S
Co58 N57 2.008 1_545 S
Co58 N59 1.995 1_545 S
Co58 N64 2.008 . S
Co58 N69 1.995 . S
Co58 N74 2.282 1_545 S
Co58 N80 2.282 . S
N59 Co58 1.995 1_565 S
N59 C60 1.376 . S
N59 C63 1.383 . S
C60 N59 1.376 . S
C60 C61 1.446 . S
C60 C90 1.391 . S
C61 C60 1.446 . S
C61 C62 1.339 . S
C61 H96 0.949 . S
C62 C61 1.339 . S
C62 C63 1.439 . S
C62 H97 0.950 . S
C63 N59 1.383 . S
C63 C62 1.439 . S
C63 C92 1.392 . S
N64 Co58 2.008 . S
N64 C65 1.376 1_545 S
N64 C68 1.374 . S
C65 N64 1.376 1_565 S
C65 C66 1.443 . S
C65 C92 1.389 . S
C66 C65 1.443 . S
C66 C67 1.340 1_565 S
C66 H98 0.951 . S
C67 C66 1.340 1_545 S
C67 C68 1.439 . S
C67 H99 0.950 . S
C68 N64 1.374 . S
C68 C67 1.439 . S
C68 C93 1.395 . S
N69 Co58 1.995 . S
N69 C70 1.376 . S
N69 C73 1.383 . S
C70 N69 1.376 . S
C70 C71 1.446 . S
C70 C93 1.391 . S
C71 C70 1.446 . S
C71 C72 1.339 . S
C71 H100 0.949 . S
C72 C71 1.339 . S
C72 C73 1.439 . S
C72 H101 0.950 . S
C73 N69 1.383 . S
C73 C72 1.439 . S
C73 C91 1.392 . S
N74 Co58 2.282 1_565 S
N74 C77 1.332 . S
N74 C79 1.332 . S
C75 C76 1.386 . S
C75 C78 1.388 . S
C76 C75 1.386 . S
C76 C77 1.382 . S
C76 H102 0.950 . S
C77 N74 1.332 . S
C77 C76 1.382 . S
C77 H88 0.952 1_565 S
C78 C75 1.388 . S
C78 C79 1.382 . S
C78 H103 0.950 . S
C79 N74 1.332 . S
C79 C78 1.382 . S
C79 H89 0.948 . S
N80 Co58 2.282 . S
N80 C84 1.332 . S
N80 C85 1.332 . S
C81 C82 1.388 . S
C81 C85 1.382 . S
C81 H104 0.950 . S
C82 C81 1.388 . S
C82 C83 1.386 . S
C83 C82 1.386 . S
C83 C84 1.382 . S
C83 H105 0.950 . S
C84 N80 1.332 . S
C84 C83 1.382 . S
C84 H86 0.938 1_545 S
C85 N80 1.332 . S
C85 C81 1.382 . S
C85 H87 0.948 . S
H86 C84 0.938 1_565 S
H87 C85 0.948 . S
H88 C77 0.952 1_545 S
H89 C79 0.948 . S
C90 C56 1.395 . S
C90 C60 1.391 . S
C91 C53 1.389 . S
C91 C73 1.392 . S
C92 C63 1.392 . S
C92 C65 1.389 . S
C93 C68 1.395 . S
C93 C70 1.391 . S
H94 C54 0.951 . S
H95 C55 0.950 . S
H96 C61 0.949 . S
H97 C62 0.950 . S
H98 C66 0.951 . S
H99 C67 0.950 . S
H100 C71 0.949 . S
H101 C72 0.950 . S
H102 C76 0.950 . S
H103 C78 0.950 . S
H104 C81 0.950 . S
H105 C83 0.950 . S
C106 C107 1.443 . S
C106 N110 1.376 . S
C106 C144 1.389 . S
C107 C106 1.443 . S
C107 C108 1.340 . S
C107 H147 0.951 . S
C108 C107 1.340 . S
C108 C109 1.439 . S
C108 H148 0.950 . S
C109 C108 1.439 . S
C109 N110 1.374 . S
C109 C143 1.395 . S
N110 C106 1.376 . S
N110 C109 1.374 . S
N110 Co111 1.986 1_556 S
Co111 N110 1.986 1_554 S
Co111 N112 1.989 1_554 S
Co111 N117 2.030 . S
Co111 N122 2.001 . S
Co111 N127 2.295 . S
Co111 N133 2.270 1_554 S
N112 Co111 1.989 1_556 S
N112 C113 1.376 . S
N112 C116 1.383 1_556 S
C113 N112 1.376 . S
C113 C114 1.446 . S
C113 C143 1.391 . S
C114 C113 1.446 . S
C114 C115 1.339 . S
C114 H149 0.949 . S
C115 C114 1.339 . S
C115 C116 1.439 1_556 S
C115 H150 0.950 1_556 S
C116 N112 1.383 1_554 S
C116 C115 1.439 1_554 S
C116 C145 1.392 . S
N117 Co111 2.030 . S
N117 C118 1.376 . S
N117 C121 1.374 . S
C118 N117 1.376 . S
C118 C119 1.443 . S
C118 C145 1.389 . S
C119 C118 1.443 . S
C119 C120 1.340 . S
C119 H151 0.951 . S
C120 C119 1.340 . S
C120 C121 1.439 . S
C120 H152 0.950 . S
C121 N117 1.374 . S
C121 C120 1.439 . S
C121 C146 1.395 . S
N122 Co111 2.001 . S
N122 C123 1.376 . S
N122 C126 1.383 1_554 S
C123 N122 1.376 . S
C123 C124 1.446 . S
C123 C146 1.391 . S
C124 C123 1.446 . S
C124 C125 1.339 . S
C124 H153 0.949 . S
C125 C124 1.339 . S
C125 C126 1.439 1_554 S
C125 H154 0.941 1_554 S
C126 N122 1.383 1_556 S
C126 C125 1.439 1_556 S
C126 C144 1.392 . S
N127 Co111 2.295 . S
N127 C130 1.332 . S
N127 C132 1.332 . S
C128 C129 1.386 . S
C128 C131 1.388 . S
C129 C128 1.386 . S
C129 C130 1.382 . S
C129 H155 0.950 . S
C130 N127 1.332 . S
C130 C129 1.382 . S
C130 H141 0.952 . S
C131 C128 1.388 . S
C131 C132 1.382 . S
C131 H156 0.950 . S
C132 N127 1.332 . S
C132 C131 1.382 . S
C132 H142 0.948 1_554 S
N133 Co111 2.270 1_556 S
N133 C137 1.332 . S
N133 C138 1.332 . S
C134 C135 1.388 . S
C134 C138 1.382 . S
C134 H157 0.950 . S
C135 C134 1.388 . S
C135 C136 1.386 . S
C136 C135 1.386 . S
C136 C137 1.382 . S
C136 H158 0.950 . S
C137 N133 1.332 . S
C137 C136 1.382 . S
C137 H139 0.952 . S
C138 N133 1.332 . S
C138 C134 1.382 . S
C138 H140 0.948 1_556 S
H139 C137 0.952 . S
H140 C138 0.948 1_554 S
H141 C130 0.952 . S
H142 C132 0.948 1_556 S
C143 C109 1.395 . S
C143 C113 1.391 . S
C144 C106 1.389 . S
C144 C126 1.392 . S
C145 C116 1.392 . S
C145 C118 1.389 . S
C146 C121 1.395 . S
C146 C123 1.391 . S
H147 C107 0.951 . S
H148 C108 0.950 . S
H149 C114 0.949 . S
H150 C115 0.950 1_554 S
H151 C119 0.951 . S
H152 C120 0.950 . S
H153 C124 0.949 . S
H154 C125 0.941 1_556 S
H155 C129 0.950 . S
H156 C131 0.950 . S
H157 C134 0.950 . S
H158 C136 0.950 . S
C159 C160 1.443 . S
C159 N163 1.376 . S
C159 C197 1.389 . S
C160 C159 1.443 . S
C160 C161 1.340 . S
C160 H200 0.951 . S
C161 C160 1.340 . S
C161 C162 1.439 . S
C161 H201 0.950 . S
C162 C161 1.439 . S
C162 N163 1.374 . S
C162 C196 1.395 . S
N163 C159 1.376 . S
N163 C162 1.374 . S
N163 Co164 1.989 1_655 S
Co164 N163 1.989 1_455 S
Co164 N165 1.983 1_455 S
Co164 N170 2.027 . S
Co164 N175 2.006 . S
Co164 N180 2.307 . S
Co164 N186 2.258 1_455 S
N165 Co164 1.983 1_655 S
N165 C166 1.376 . S
N165 C169 1.383 1_655 S
C166 N165 1.376 . S
C166 C167 1.446 . S
C166 C196 1.391 . S
C167 C166 1.446 . S
C167 C168 1.339 1_655 S
C167 H202 0.949 . S
C168 C167 1.339 1_455 S
C168 C169 1.439 . S
C168 H203 0.950 . S
C169 N165 1.383 1_455 S
C169 C168 1.439 . S
C169 C198 1.392 . S
N170 Co164 2.027 . S
N170 C171 1.376 . S
N170 C174 1.374 . S
C171 N170 1.376 . S
C171 C172 1.443 . S
C171 C198 1.389 . S
C172 C171 1.443 . S
C172 C173 1.340 . S
C172 H204 0.951 . S
C173 C172 1.340 . S
C173 C174 1.439 . S
C173 H205 0.950 . S
C174 N170 1.374 . S
C174 C173 1.439 . S
C174 C199 1.395 . S
N175 Co164 2.006 . S
N175 C176 1.376 . S
N175 C179 1.383 1_455 S
C176 N175 1.376 . S
C176 C177 1.446 . S
C176 C199 1.391 . S
C177 C176 1.446 . S
C177 C178 1.339 1_455 S
C177 H206 0.949 . S
C178 C177 1.339 1_655 S
C178 C179 1.439 . S
C178 H207 0.950 . S
C179 N175 1.383 1_655 S
C179 C178 1.439 . S
C179 C197 1.392 . S
N180 Co164 2.307 . S
N180 C183 1.332 . S
N180 C185 1.332 . S
C181 C182 1.386 . S
C181 C184 1.388 . S
C182 C181 1.386 . S
C182 C183 1.382 . S
C182 H208 0.950 . S
C183 N180 1.332 . S
C183 C182 1.382 . S
C183 H194 0.952 . S
C184 C181 1.388 . S
C184 C185 1.382 . S
C184 H209 0.950 . S
C185 N180 1.332 . S
C185 C184 1.382 . S
C185 H195 0.948 . S
N186 Co164 2.258 1_655 S
N186 C190 1.332 . S
N186 C191 1.332 . S
C187 C188 1.388 . S
C187 C191 1.382 . S
C187 H210 0.950 . S
C188 C187 1.388 . S
C188 C189 1.386 . S
C189 C188 1.386 . S
C189 C190 1.382 . S
C189 H211 0.950 . S
C190 N186 1.332 . S
C190 C189 1.382 . S
C190 H192 0.952 . S
C191 N186 1.332 . S
C191 C187 1.382 . S
C191 H193 0.948 . S
H192 C190 0.952 . S
H193 C191 0.948 . S
H194 C183 0.952 . S
H195 C185 0.948 . S
C196 C162 1.395 . S
C196 C166 1.391 . S
C197 C159 1.389 . S
C197 C179 1.392 . S
C198 C169 1.392 . S
C198 C171 1.389 . S
C199 C174 1.395 . S
C199 C176 1.391 . S
H200 C160 0.951 . S
H201 C161 0.950 . S
H202 C167 0.949 . S
H203 C168 0.950 . S
H204 C172 0.951 . S
H205 C173 0.950 . S
H206 C177 0.949 . S
H207 C178 0.950 . S
H208 C182 0.950 . S
H209 C184 0.950 . S
H210 C187 0.950 . S
H211 C189 0.950 . S
C212 C213 1.443 . S
C212 N216 1.376 1_565 S
C212 C250 1.389 . S
C213 C212 1.443 . S
C213 C214 1.340 1_565 S
C213 H253 0.951 . S
C214 C213 1.340 1_545 S
C214 C215 1.439 . S
C214 H254 0.950 . S
C215 C214 1.439 . S
C215 N216 1.374 . S
C215 C249 1.395 . S
N216 C212 1.376 1_545 S
N216 C215 1.374 . S
N216 Co217 2.029 . S
Co217 N216 2.029 . S
Co217 N218 1.999 . S
Co217 N223 1.992 1_554 S
Co217 N228 1.990 1_544 S
Co217 N233 2.273 1_554 S
Co217 N239 2.292 1_545 S
N218 Co217 1.999 . S
N218 C219 1.376 . S
N218 C222 1.383 1_554 S
C219 N218 1.376 . S
C219 C220 1.446 . S
C219 C249 1.391 . S
C220 C219 1.446 . S
C220 C221 1.339 1_554 S
C220 H255 0.949 . S
C221 C220 1.339 1_556 S
C221 C222 1.439 . S
C221 H256 0.950 . S
C222 N218 1.383 1_556 S
C222 C221 1.439 . S
C222 C251 1.392 . S
N223 Co217 1.992 1_556 S
N223 C224 1.381 . S
N223 C227 1.367 1_545 S
C224 N223 1.381 . S
C224 C225 1.443 . S
C224 C251 1.389 . S
C225 C224 1.443 . S
C225 C226 1.340 1_545 S
C225 H257 0.951 . S
C226 C225 1.340 1_565 S
C226 C227 1.439 . S
C226 H258 0.950 . S
C227 N223 1.367 1_565 S
C227 C226 1.439 . S
C227 C252 1.395 . S
N228 Co217 1.990 1_566 S
N228 C229 1.376 . S
N228 C232 1.383 1_556 S
C229 N228 1.376 . S
C229 C230 1.446 . S
C229 C252 1.391 . S
C230 C229 1.446 . S
C230 C231 1.339 1_556 S
C230 H259 0.949 . S
C231 C230 1.339 1_554 S
C231 C232 1.439 . S
C231 H260 0.950 . S
C232 N228 1.383 1_554 S
C232 C231 1.439 . S
C232 C250 1.392 . S
N233 Co217 2.273 1_556 S
N233 C236 1.332 . S
N233 C238 1.332 . S
C234 C235 1.386 . S
C234 C237 1.388 . S
C235 C234 1.386 . S
C235 C236 1.382 . S
C235 H261 0.950 . S
C236 N233 1.332 . S
C236 C235 1.382 . S
C236 H247 0.959 . S
C237 C234 1.388 . S
C237 C238 1.382 . S
C237 H262 0.950 . S
C238 N233 1.332 . S
C238 C237 1.382 . S
C238 H248 0.970 . S
N239 Co217 2.292 1_565 S
N239 C243 1.332 . S
N239 C244 1.332 . S
C240 C241 1.388 . S
C240 C244 1.382 . S
C240 H263 0.950 . S
C241 C240 1.388 . S
C241 C242 1.386 . S
C242 C241 1.386 . S
C242 C243 1.382 . S
C242 H264 0.950 . S
C243 N239 1.332 . S
C243 C242 1.382 . S
C243 H245 0.952 1_565 S
C244 N239 1.332 . S
C244 C240 1.382 . S
C244 H246 0.948 . S
H245 C243 0.952 1_545 S
H246 C244 0.948 . S
H247 C236 0.959 . S
H248 C238 0.970 . S
C249 C215 1.395 . S
C249 C219 1.391 . S
C250 C212 1.389 . S
C250 C232 1.392 . S
C251 C222 1.392 . S
C251 C224 1.389 . S
C252 C227 1.395 . S
C252 C229 1.391 . S
H253 C213 0.951 . S
H254 C214 0.950 . S
H255 C220 0.949 . S
H256 C221 0.950 . S
H257 C225 0.951 . S
H258 C226 0.950 . S
H259 C230 0.949 . S
H260 C231 0.950 . S
H261 C235 0.950 . S
H262 C237 0.950 . S
H263 C240 0.950 . S
H264 C242 0.950 . S
C265 C266 1.443 . S
C265 N269 1.376 . S
C265 C303 1.389 . S
C266 C265 1.443 . S
C266 C267 1.340 . S
C266 H306 0.951 . S
C267 C266 1.340 . S
C267 C268 1.439 . S
C267 H307 0.950 . S
C268 C267 1.439 . S
C268 N269 1.374 . S
C268 C302 1.395 . S
N269 C265 1.376 . S
N269 C268 1.374 . S
N269 Co270 2.008 . S
Co270 N269 2.008 . S
Co270 N271 1.995 . S
Co270 N276 2.008 . S
Co270 N281 1.995 . S
Co270 N286 2.282 . S
Co270 N292 2.282 . S
N271 Co270 1.995 . S
N271 C272 1.376 . S
N271 C275 1.383 . S
C272 N271 1.376 . S
C272 C273 1.446 . S
C272 C302 1.391 . S
C273 C272 1.446 . S
C273 C274 1.339 . S
C273 H308 0.949 . S
C274 C273 1.339 . S
C274 C275 1.439 . S
C274 H309 0.950 . S
C275 N271 1.383 . S
C275 C274 1.439 . S
C275 C304 1.392 . S
N276 Co270 2.008 . S
N276 C277 1.376 . S
N276 C280 1.374 . S
C277 N276 1.376 . S
C277 C278 1.443 . S
C277 C304 1.389 . S
C278 C277 1.443 . S
C278 C279 1.340 . S
C278 H310 0.951 . S
C279 C278 1.340 . S
C279 C280 1.439 . S
C279 H311 0.950 . S
C280 N276 1.374 . S
C280 C279 1.439 . S
C280 C305 1.395 . S
N281 Co270 1.995 . S
N281 C282 1.376 . S
N281 C285 1.383 . S
C282 N281 1.376 . S
C282 C283 1.446 . S
C282 C305 1.391 . S
C283 C282 1.446 . S
C283 C284 1.339 . S
C283 H312 0.949 . S
C284 C283 1.339 . S
C284 C285 1.439 . S
C284 H313 0.950 . S
C285 N281 1.383 . S
C285 C284 1.439 . S
C285 C303 1.392 . S
N286 Co270 2.282 . S
N286 C289 1.332 . S
N286 C291 1.332 . S
C287 C288 1.386 . S
C287 C290 1.388 . S
C288 C287 1.386 . S
C288 C289 1.382 . S
C288 H314 0.950 . S
C289 N286 1.332 . S
C289 C288 1.382 . S
C289 H300 0.952 . S
C290 C287 1.388 . S
C290 C291 1.382 . S
C290 H315 0.950 . S
C291 N286 1.332 . S
C291 C290 1.382 . S
C291 H301 0.948 . S
N292 Co270 2.282 . S
N292 C296 1.332 . S
N292 C297 1.332 . S
C293 C294 1.388 . S
C293 C297 1.382 . S
C293 H316 0.950 . S
C294 C293 1.388 . S
C294 C295 1.386 . S
C295 C294 1.386 . S
C295 C296 1.382 . S
C295 H317 0.950 . S
C296 N292 1.332 . S
C296 C295 1.382 . S
C296 H298 0.952 . S
C297 N292 1.332 . S
C297 C293 1.382 . S
C297 H299 0.948 . S
H298 C296 0.952 . S
H299 C297 0.948 . S
H300 C289 0.952 . S
H301 C291 0.948 . S
C302 C268 1.395 . S
C302 C272 1.391 . S
C303 C265 1.389 . S
C303 C285 1.392 . S
C304 C275 1.392 . S
C304 C277 1.389 . S
C305 C280 1.395 . S
C305 C282 1.391 . S
H306 C266 0.951 . S
H307 C267 0.950 . S
H308 C273 0.949 . S
H309 C274 0.950 . S
H310 C278 0.951 . S
H311 C279 0.950 . S
H312 C283 0.949 . S
H313 C284 0.950 . S
H314 C288 0.950 . S
H315 C290 0.950 . S
H316 C293 0.950 . S
H317 C295 0.950 . S
H318 C337 0.949 . S
H319 C338 0.950 . S
H320 C340 0.950 . S
H321 C341 0.950 . S
H322 C343 0.950 . S
H323 C346 0.950 . S
H324 C347 0.950 . S
H325 C349 0.951 . S
H326 C350 0.949 . S
H327 C352 0.949 . S
H328 C353 0.950 . S
H329 C355 0.950 . S
H330 C356 0.950 . S
H331 C358 0.950 . S
H332 C361 0.950 . S
H333 C362 0.950 . S
H334 C364 0.951 . S
H335 C365 0.949 . S
C336 C337 1.376 . S
C336 C341 1.386 . S
C336 C342 1.483 . S
C337 H318 0.949 . S
C337 C336 1.376 . S
C337 C338 1.397 . S
C338 H319 0.950 . S
C338 C337 1.397 . S
C338 C339 1.391 . S
C339 C338 1.391 . S
C339 C340 1.405 . S
C340 H320 0.950 . S
C340 C339 1.405 . S
C340 C341 1.367 . S
C341 H321 0.950 . S
C341 C336 1.386 . S
C341 C340 1.367 . S
C342 C336 1.483 . S
C342 C343 1.382 . S
C342 C344 1.403 . S
C343 H322 0.950 . S
C343 C342 1.382 . S
C343 C359 1.411 . S
C344 C342 1.403 . S
C344 C345 1.489 . S
C344 C358 1.411 . S
C345 C344 1.489 . S
C345 C346 1.383 . S
C345 C350 1.382 . S
C346 H323 0.950 . S
C346 C345 1.383 . S
C346 C347 1.395 . S
C347 H324 0.950 . S
C347 C346 1.395 . S
C347 C348 1.288 . S
C348 C347 1.288 . S
C348 C349 1.392 . S
C349 H325 0.951 . S
C349 C348 1.392 . S
C349 C350 1.392 . S
C350 H326 0.949 . S
C350 C345 1.382 . S
C350 C349 1.392 . S
C351 C352 1.376 . S
C351 C356 1.386 . S
C351 C357 1.483 . S
C352 H327 0.949 . S
C352 C351 1.376 . S
C352 C353 1.397 . S
C353 H328 0.950 . S
C353 C352 1.397 . S
C353 C354 1.391 . S
C354 C353 1.391 . S
C354 C355 1.405 . S
C355 H329 0.950 . S
C355 C354 1.405 . S
C355 C356 1.367 . S
C356 H330 0.950 . S
C356 C351 1.386 . S
C356 C355 1.367 . S
C357 C351 1.483 . S
C357 C358 1.382 . S
C357 C359 1.403 . S
C358 H331 0.950 . S
C358 C344 1.411 . S
C358 C357 1.382 . S
C359 C343 1.411 . S
C359 C357 1.403 . S
C359 C360 1.489 . S
C360 C359 1.489 . S
C360 C361 1.383 . S
C360 C365 1.382 . S
C361 H332 0.950 . S
C361 C360 1.383 . S
C361 C362 1.395 . S
C362 H333 0.950 . S
C362 C361 1.395 . S
C362 C363 1.288 . S
C363 C362 1.288 . S
C363 C364 1.392 . S
C364 H334 0.951 . S
C364 C363 1.392 . S
C364 C365 1.392 . S
C365 H335 0.949 . S
C365 C360 1.382 . S
C365 C364 1.392 . S
H366 C385 0.949 . S
H367 C386 0.950 . S
H368 C388 0.950 . S
H369 C389 0.950 . S
H370 C391 0.950 . S
H371 C394 0.950 . S
H372 C395 0.950 . S
H373 C397 0.951 . S
H374 C398 0.949 . S
H375 C400 0.949 . S
H376 C401 0.950 . S
H377 C403 0.950 . S
H378 C404 0.950 . S
H379 C406 0.950 . S
H380 C409 0.950 . S
H381 C410 0.950 . S
H382 C412 0.951 . S
H383 C413 0.949 . S
C384 C385 1.376 . S
C384 C389 1.386 . S
C384 C390 1.483 . S
C385 H366 0.949 . S
C385 C384 1.376 . S
C385 C386 1.397 . S
C386 H367 0.950 . S
C386 C385 1.397 . S
C386 C387 1.391 . S
C387 C386 1.391 . S
C387 C388 1.405 . S
C388 H368 0.950 . S
C388 C387 1.405 . S
C388 C389 1.367 . S
C389 H369 0.950 . S
C389 C384 1.386 . S
C389 C388 1.367 . S
C390 C384 1.483 . S
C390 C391 1.382 . S
C390 C392 1.403 . S
C391 H370 0.950 . S
C391 C390 1.382 . S
C391 C407 1.411 . S
C392 C390 1.403 . S
C392 C393 1.489 . S
C392 C406 1.411 . S
C393 C392 1.489 . S
C393 C394 1.383 . S
C393 C398 1.382 . S
C394 H371 0.950 . S
C394 C393 1.383 . S
C394 C395 1.395 . S
C395 H372 0.950 . S
C395 C394 1.395 . S
C395 C396 1.288 . S
C396 C395 1.288 . S
C396 C397 1.392 . S
C397 H373 0.951 . S
C397 C396 1.392 . S
C397 C398 1.392 . S
C398 H374 0.949 . S
C398 C393 1.382 . S
C398 C397 1.392 . S
C399 C400 1.376 . S
C399 C404 1.386 . S
C399 C405 1.483 . S
C400 H375 0.949 . S
C400 C399 1.376 . S
C400 C401 1.397 . S
C401 H376 0.950 . S
C401 C400 1.397 . S
C401 C402 1.391 . S
C402 C401 1.391 . S
C402 C403 1.405 . S
C403 H377 0.950 . S
C403 C402 1.405 . S
C403 C404 1.367 . S
C404 H378 0.950 . S
C404 C399 1.386 . S
C404 C403 1.367 . S
C405 C399 1.483 . S
C405 C406 1.382 . S
C405 C407 1.403 . S
C406 H379 0.950 . S
C406 C392 1.411 . S
C406 C405 1.382 . S
C407 C391 1.411 . S
C407 C405 1.403 . S
C407 C408 1.489 . S
C408 C407 1.489 . S
C408 C409 1.383 . S
C408 C413 1.382 . S
C409 H380 0.950 . S
C409 C408 1.383 . S
C409 C410 1.395 . S
C410 H381 0.950 . S
C410 C409 1.395 . S
C410 C411 1.288 . S
C411 C410 1.288 . S
C411 C412 1.392 . S
C412 H382 0.951 . S
C412 C411 1.392 . S
C412 C413 1.392 . S
C413 H383 0.949 . S
C413 C408 1.382 . S
C413 C412 1.392 . S
H414 C433 0.949 . S
H415 C434 0.950 . S
H416 C436 0.950 . S
H417 C437 0.950 . S
H418 C439 0.950 . S
H419 C442 0.950 . S
H420 C443 0.950 . S
H421 C445 0.951 . S
H422 C446 0.949 . S
H423 C448 0.949 . S
H424 C449 0.950 . S
H425 C451 0.950 . S
H426 C452 0.950 . S
H427 C454 0.950 . S
H428 C457 0.950 . S
H429 C458 0.950 . S
H430 C460 0.951 . S
H431 C461 0.949 . S
C432 C433 1.376 . S
C432 C437 1.386 . S
C432 C438 1.483 . S
C433 H414 0.949 . S
C433 C432 1.376 . S
C433 C434 1.397 . S
C434 H415 0.950 . S
C434 C433 1.397 . S
C434 C435 1.391 . S
C435 C434 1.391 . S
C435 C436 1.405 . S
C436 H416 0.950 . S
C436 C435 1.405 . S
C436 C437 1.367 . S
C437 H417 0.950 . S
C437 C432 1.386 . S
C437 C436 1.367 . S
C438 C432 1.483 . S
C438 C439 1.382 . S
C438 C440 1.403 . S
C439 H418 0.950 . S
C439 C438 1.382 . S
C439 C455 1.411 . S
C440 C438 1.403 . S
C440 C441 1.489 . S
C440 C454 1.411 . S
C441 C440 1.489 . S
C441 C442 1.383 . S
C441 C446 1.382 . S
C442 H419 0.950 . S
C442 C441 1.383 . S
C442 C443 1.395 . S
C443 H420 0.950 . S
C443 C442 1.395 . S
C443 C444 1.288 . S
C444 C443 1.288 . S
C444 C445 1.392 . S
C445 H421 0.951 . S
C445 C444 1.392 . S
C445 C446 1.392 . S
C446 H422 0.949 . S
C446 C441 1.382 . S
C446 C445 1.392 . S
C447 C448 1.376 . S
C447 C452 1.386 . S
C447 C453 1.483 . S
C448 H423 0.949 . S
C448 C447 1.376 . S
C448 C449 1.397 . S
C449 H424 0.950 . S
C449 C448 1.397 . S
C449 C450 1.391 . S
C450 C449 1.391 . S
C450 C451 1.405 . S
C451 H425 0.950 . S
C451 C450 1.405 . S
C451 C452 1.367 . S
C452 H426 0.950 . S
C452 C447 1.386 . S
C452 C451 1.367 . S
C453 C447 1.483 . S
C453 C454 1.382 . S
C453 C455 1.403 . S
C454 H427 0.950 . S
C454 C440 1.411 . S
C454 C453 1.382 . S
C455 C439 1.411 . S
C455 C453 1.403 . S
C455 C456 1.489 . S
C456 C455 1.489 . S
C456 C457 1.383 . S
C456 C461 1.382 . S
C457 H428 0.950 . S
C457 C456 1.383 . S
C457 C458 1.395 . S
C458 H429 0.950 . S
C458 C457 1.395 . S
C458 C459 1.288 . S
C459 C458 1.288 . S
C459 C460 1.392 . S
C460 H430 0.951 . S
C460 C459 1.392 . S
C460 C461 1.392 . S
C461 H431 0.949 . S
C461 C456 1.382 . S
C461 C460 1.392 . S
H462 C481 0.949 . S
H463 C482 0.950 . S
H464 C484 0.950 . S
H465 C485 0.950 . S
H466 C487 0.950 . S
H467 C490 0.950 . S
H468 C491 0.950 . S
H469 C493 0.951 . S
H470 C494 0.949 . S
H471 C496 0.949 . S
H472 C497 0.950 . S
H473 C499 0.950 . S
H474 C500 0.950 . S
H475 C502 0.950 . S
H476 C505 0.950 . S
H477 C506 0.950 . S
H478 C508 0.951 . S
H479 C509 0.949 . S
C480 C481 1.376 . S
C480 C485 1.386 . S
C480 C486 1.483 . S
C481 H462 0.949 . S
C481 C480 1.376 . S
C481 C482 1.397 . S
C482 H463 0.950 . S
C482 C481 1.397 . S
C482 C483 1.391 . S
C483 C482 1.391 . S
C483 C484 1.405 . S
C484 H464 0.950 . S
C484 C483 1.405 . S
C484 C485 1.367 . S
C485 H465 0.950 . S
C485 C480 1.386 . S
C485 C484 1.367 . S
C486 C480 1.483 . S
C486 C487 1.382 . S
C486 C488 1.403 . S
C487 H466 0.950 . S
C487 C486 1.382 . S
C487 C503 1.411 . S
C488 C486 1.403 . S
C488 C489 1.489 . S
C488 C502 1.411 . S
C489 C488 1.489 . S
C489 C490 1.383 . S
C489 C494 1.382 . S
C490 H467 0.950 . S
C490 C489 1.383 . S
C490 C491 1.395 . S
C491 H468 0.950 . S
C491 C490 1.395 . S
C491 C492 1.288 . S
C492 C491 1.288 . S
C492 C493 1.392 . S
C493 H469 0.951 . S
C493 C492 1.392 . S
C493 C494 1.392 . S
C494 H470 0.949 . S
C494 C489 1.382 . S
C494 C493 1.392 . S
C495 C496 1.376 . S
C495 C500 1.386 . S
C495 C501 1.483 . S
C496 H471 0.949 . S
C496 C495 1.376 . S
C496 C497 1.397 . S
C497 H472 0.950 . S
C497 C496 1.397 . S
C497 C498 1.391 . S
C498 C497 1.391 . S
C498 C499 1.405 . S
C499 H473 0.950 . S
C499 C498 1.405 . S
C499 C500 1.367 . S
C500 H474 0.950 . S
C500 C495 1.386 . S
C500 C499 1.367 . S
C501 C495 1.483 . S
C501 C502 1.382 . S
C501 C503 1.403 . S
C502 H475 0.950 . S
C502 C488 1.411 . S
C502 C501 1.382 . S
C503 C487 1.411 . S
C503 C501 1.403 . S
C503 C504 1.489 . S
C504 C503 1.489 . S
C504 C505 1.383 . S
C504 C509 1.382 . S
C505 H476 0.950 . S
C505 C504 1.383 . S
C505 C506 1.395 . S
C506 H477 0.950 . S
C506 C505 1.395 . S
C506 C507 1.288 . S
C507 C506 1.288 . S
C507 C508 1.392 . S
C508 H478 0.951 . S
C508 C507 1.392 . S
C508 C509 1.392 . S
C509 H479 0.949 . S
C509 C504 1.382 . S
C509 C508 1.392 . S
H510 C529 0.949 . S
H511 C530 0.950 . S
H512 C532 0.950 . S
H513 C533 0.950 . S
H514 C535 0.950 . S
H515 C538 0.950 . S
H516 C539 0.950 . S
H517 C541 0.951 . S
H518 C542 0.949 . S
H519 C544 0.949 . S
H520 C545 0.950 . S
H521 C547 0.950 . S
H522 C548 0.950 . S
H523 C550 0.950 . S
H524 C553 0.950 . S
H525 C554 0.950 . S
H526 C556 0.951 . S
H527 C557 0.949 . S
C528 C529 1.376 . S
C528 C533 1.386 . S
C528 C534 1.483 . S
C529 H510 0.949 . S
C529 C528 1.376 . S
C529 C530 1.397 . S
C530 H511 0.950 . S
C530 C529 1.397 . S
C530 C531 1.391 . S
C531 C530 1.391 . S
C531 C532 1.405 . S
C532 H512 0.950 . S
C532 C531 1.405 . S
C532 C533 1.367 . S
C533 H513 0.950 . S
C533 C528 1.386 . S
C533 C532 1.367 . S
C534 C528 1.483 . S
C534 C535 1.382 . S
C534 C536 1.403 . S
C535 H514 0.950 . S
C535 C534 1.382 . S
C535 C551 1.411 . S
C536 C534 1.403 . S
C536 C537 1.489 . S
C536 C550 1.411 . S
C537 C536 1.489 . S
C537 C538 1.383 . S
C537 C542 1.382 . S
C538 H515 0.950 . S
C538 C537 1.383 . S
C538 C539 1.395 . S
C539 H516 0.950 . S
C539 C538 1.395 . S
C539 C540 1.288 . S
C540 C539 1.288 . S
C540 C541 1.392 . S
C541 H517 0.951 . S
C541 C540 1.392 . S
C541 C542 1.392 . S
C542 H518 0.949 . S
C542 C537 1.382 . S
C542 C541 1.392 . S
C543 C544 1.376 . S
C543 C548 1.386 . S
C543 C549 1.483 . S
C544 H519 0.949 . S
C544 C543 1.376 . S
C544 C545 1.397 . S
C545 H520 0.950 . S
C545 C544 1.397 . S
C545 C546 1.391 . S
C546 C545 1.391 . S
C546 C547 1.405 . S
C547 H521 0.950 . S
C547 C546 1.405 . S
C547 C548 1.367 . S
C548 H522 0.950 . S
C548 C543 1.386 . S
C548 C547 1.367 . S
C549 C543 1.483 . S
C549 C550 1.382 . S
C549 C551 1.403 . S
C550 H523 0.950 . S
C550 C536 1.411 . S
C550 C549 1.382 . S
C551 C535 1.411 . S
C551 C549 1.403 . S
C551 C552 1.489 . S
C552 C551 1.489 . S
C552 C553 1.383 . S
C552 C557 1.382 . S
C553 H524 0.950 . S
C553 C552 1.383 . S
C553 C554 1.395 . S
C554 H525 0.950 . S
C554 C553 1.395 . S
C554 C555 1.288 . S
C555 C554 1.288 . S
C555 C556 1.392 . S
C556 H526 0.951 . S
C556 C555 1.392 . S
C556 C557 1.392 . S
C557 H527 0.949 . S
C557 C552 1.382 . S
C557 C556 1.392 . S
H558 C577 0.949 . S
H559 C578 0.950 . S
H560 C580 0.950 . S
H561 C581 0.950 . S
H562 C583 0.950 . S
H563 C586 0.950 . S
H564 C587 0.950 . S
H565 C589 0.951 . S
H566 C590 0.949 . S
H567 C592 0.949 . S
H568 C593 0.950 . S
H569 C595 0.950 . S
H570 C596 0.950 . S
H571 C598 0.950 . S
H572 C601 0.950 . S
H573 C602 0.950 . S
H574 C604 0.951 . S
H575 C605 0.949 . S
C576 C577 1.376 . S
C576 C581 1.386 . S
C576 C582 1.483 . S
C577 H558 0.949 . S
C577 C576 1.376 . S
C577 C578 1.397 . S
C578 H559 0.950 . S
C578 C577 1.397 . S
C578 C579 1.391 . S
C579 C578 1.391 . S
C579 C580 1.405 . S
C580 H560 0.950 . S
C580 C579 1.405 . S
C580 C581 1.367 . S
C581 H561 0.950 . S
C581 C576 1.386 . S
C581 C580 1.367 . S
C582 C576 1.483 . S
C582 C583 1.382 . S
C582 C584 1.403 . S
C583 H562 0.950 . S
C583 C582 1.382 . S
C583 C599 1.411 . S
C584 C582 1.403 . S
C584 C585 1.489 . S
C584 C598 1.411 . S
C585 C584 1.489 . S
C585 C586 1.383 . S
C585 C590 1.382 . S
C586 H563 0.950 . S
C586 C585 1.383 . S
C586 C587 1.395 . S
C587 H564 0.950 . S
C587 C586 1.395 . S
C587 C588 1.288 . S
C588 C587 1.288 . S
C588 C589 1.392 . S
C589 H565 0.951 . S
C589 C588 1.392 . S
C589 C590 1.392 . S
C590 H566 0.949 . S
C590 C585 1.382 . S
C590 C589 1.392 . S
C591 C592 1.376 . S
C591 C596 1.386 . S
C591 C597 1.483 . S
C592 H567 0.949 . S
C592 C591 1.376 . S
C592 C593 1.397 . S
C593 H568 0.950 . S
C593 C592 1.397 . S
C593 C594 1.391 . S
C594 C593 1.391 . S
C594 C595 1.405 . S
C595 H569 0.950 . S
C595 C594 1.405 . S
C595 C596 1.367 . S
C596 H570 0.950 . S
C596 C591 1.386 . S
C596 C595 1.367 . S
C597 C591 1.483 . S
C597 C598 1.382 . S
C597 C599 1.403 . S
C598 H571 0.950 . S
C598 C584 1.411 . S
C598 C597 1.382 . S
C599 C583 1.411 . S
C599 C597 1.403 . S
C599 C600 1.489 . S
C600 C599 1.489 . S
C600 C601 1.383 . S
C600 C605 1.382 . S
C601 H572 0.950 . S
C601 C600 1.383 . S
C601 C602 1.395 . S
C602 H573 0.950 . S
C602 C601 1.395 . S
C602 C603 1.288 . S
C603 C602 1.288 . S
C603 C604 1.392 . S
C604 H574 0.951 . S
C604 C603 1.392 . S
C604 C605 1.392 . S
C605 H575 0.949 . S
C605 C600 1.382 . S
C605 C604 1.392 . S
H606 C618 0.930 . S
H607 C620 0.930 . S
H608 C621 0.930 . S
H609 C625 0.959 . S
H610 C625 0.959 . S
H611 C625 0.961 . S
H612 C626 0.960 . S
H613 C626 0.961 . S
H614 C626 0.959 . S
H615 C629 0.929 . S
H616 C630 0.931 . S
H617 C632 0.930 . S
C618 H606 0.930 . S
C618 C619 1.399 . S
C618 C623 1.399 . S
C619 C618 1.399 . S
C619 C620 1.376 . S
C620 H607 0.930 . S
C620 C619 1.376 . S
C620 C621 1.388 . S
C621 H608 0.930 . S
C621 C620 1.388 . S
C621 C622 1.390 . S
C622 C621 1.390 . S
C622 C623 1.394 . S
C622 C628 1.465 . S
C623 C618 1.399 . S
C623 C622 1.394 . S
C623 C624 1.516 . S
C624 C623 1.516 . S
C624 C625 1.502 . S
C624 C626 1.561 . S
C624 C627 1.526 . S
C625 H609 0.959 . S
C625 H610 0.959 . S
C625 H611 0.961 . S
C625 C624 1.502 . S
C626 H612 0.960 . S
C626 H613 0.961 . S
C626 H614 0.959 . S
C626 C624 1.561 . S
C627 C624 1.526 . S
C627 C628 1.396 . S
C627 C632 1.390 . S
C628 C622 1.465 . S
C628 C627 1.396 . S
C628 C629 1.399 . S
C629 H615 0.929 . S
C629 C628 1.399 . S
C629 C630 1.385 . S
C630 H616 0.931 . S
C630 C629 1.385 . S
C630 C631 1.389 . S
C631 C630 1.389 . S
C631 C632 1.387 . S
C632 H617 0.930 . S
C632 C627 1.390 . S
C632 C631 1.387 . S
H633 C645 0.930 . S
H634 C647 0.930 . S
H635 C648 0.930 . S
H636 C652 0.959 . S
H637 C652 0.959 . S
H638 C652 0.961 . S
H639 C653 0.960 . S
H640 C653 0.961 . S
H641 C653 0.959 . S
H642 C656 0.929 . S
H643 C657 0.931 . S
H644 C659 0.930 . S
C645 H633 0.930 . S
C645 C646 1.399 . S
C645 C650 1.399 . S
C646 C645 1.399 . S
C646 C647 1.376 . S
C647 H634 0.930 . S
C647 C646 1.376 . S
C647 C648 1.388 . S
C648 H635 0.930 . S
C648 C647 1.388 . S
C648 C649 1.390 . S
C649 C648 1.390 . S
C649 C650 1.394 . S
C649 C655 1.465 . S
C650 C645 1.399 . S
C650 C649 1.394 . S
C650 C651 1.516 . S
C651 C650 1.516 . S
C651 C652 1.502 . S
C651 C653 1.561 . S
C651 C654 1.526 . S
C652 H636 0.959 . S
C652 H637 0.959 . S
C652 H638 0.961 . S
C652 C651 1.502 . S
C653 H639 0.960 . S
C653 H640 0.961 . S
C653 H641 0.959 . S
C653 C651 1.561 . S
C654 C651 1.526 . S
C654 C655 1.396 . S
C654 C659 1.390 . S
C655 C649 1.465 . S
C655 C654 1.396 . S
C655 C656 1.399 . S
C656 H642 0.929 . S
C656 C655 1.399 . S
C656 C657 1.385 . S
C657 H643 0.931 . S
C657 C656 1.385 . S
C657 C658 1.389 . S
C658 C657 1.389 . S
C658 C659 1.387 . S
C659 H644 0.930 . S
C659 C654 1.390 . S
C659 C658 1.387 . S
H660 C672 0.930 . S
H661 C674 0.930 . S
H662 C675 0.930 . S
H663 C679 0.959 . S
H664 C679 0.959 . S
H665 C679 0.961 . S
H666 C680 0.960 . S
H667 C680 0.961 . S
H668 C680 0.959 . S
H669 C683 0.929 . S
H670 C684 0.931 . S
H671 C686 0.930 . S
C672 H660 0.930 . S
C672 C673 1.399 . S
C672 C677 1.399 . S
C673 C672 1.399 . S
C673 C674 1.376 . S
C674 H661 0.930 . S
C674 C673 1.376 . S
C674 C675 1.388 . S
C675 H662 0.930 . S
C675 C674 1.388 . S
C675 C676 1.390 . S
C676 C675 1.390 . S
C676 C677 1.394 . S
C676 C682 1.465 . S
C677 C672 1.399 . S
C677 C676 1.394 . S
C677 C678 1.516 . S
C678 C677 1.516 . S
C678 C679 1.502 . S
C678 C680 1.561 . S
C678 C681 1.526 . S
C679 H663 0.959 . S
C679 H664 0.959 . S
C679 H665 0.961 . S
C679 C678 1.502 . S
C680 H666 0.960 . S
C680 H667 0.961 . S
C680 H668 0.959 . S
C680 C678 1.561 . S
C681 C678 1.526 . S
C681 C682 1.396 . S
C681 C686 1.390 . S
C682 C676 1.465 . S
C682 C681 1.396 . S
C682 C683 1.399 . S
C683 H669 0.929 . S
C683 C682 1.399 . S
C683 C684 1.385 . S
C684 H670 0.931 . S
C684 C683 1.385 . S
C684 C685 1.389 . S
C685 C684 1.389 . S
C685 C686 1.387 . S
C686 H671 0.930 . S
C686 C681 1.390 . S
C686 C685 1.387 . S
H687 C699 0.930 . S
H688 C701 0.930 . S
H689 C702 0.930 . S
H690 C706 0.959 . S
H691 C706 0.959 . S
H692 C706 0.961 . S
H693 C707 0.960 . S
H694 C707 0.961 . S
H695 C707 0.959 . S
H696 C710 0.929 . S
H697 C711 0.931 . S
H698 C713 0.930 . S
C699 H687 0.930 . S
C699 C700 1.399 . S
C699 C704 1.399 . S
C700 C699 1.399 . S
C700 C701 1.376 . S
C701 H688 0.930 . S
C701 C700 1.376 . S
C701 C702 1.388 . S
C702 H689 0.930 . S
C702 C701 1.388 . S
C702 C703 1.390 . S
C703 C702 1.390 . S
C703 C704 1.394 . S
C703 C709 1.465 . S
C704 C699 1.399 . S
C704 C703 1.394 . S
C704 C705 1.516 . S
C705 C704 1.516 . S
C705 C706 1.502 . S
C705 C707 1.561 . S
C705 C708 1.526 . S
C706 H690 0.959 . S
C706 H691 0.959 . S
C706 H692 0.961 . S
C706 C705 1.502 . S
C707 H693 0.960 . S
C707 H694 0.961 . S
C707 H695 0.959 . S
C707 C705 1.561 . S
C708 C705 1.526 . S
C708 C709 1.396 . S
C708 C713 1.390 . S
C709 C703 1.465 . S
C709 C708 1.396 . S
C709 C710 1.399 . S
C710 H696 0.929 . S
C710 C709 1.399 . S
C710 C711 1.385 . S
C711 H697 0.931 . S
C711 C710 1.385 . S
C711 C712 1.389 . S
C712 C711 1.389 . S
C712 C713 1.387 . S
C713 H698 0.930 . S
C713 C708 1.390 . S
C713 C712 1.387 . S
H714 C726 0.930 . S
H715 C728 0.930 . S
H716 C729 0.930 . S
H717 C733 0.959 . S
H718 C733 0.959 . S
H719 C733 0.961 . S
H720 C734 0.960 . S
H721 C734 0.961 . S
H722 C734 0.959 . S
H723 C737 0.929 . S
H724 C738 0.931 . S
H725 C740 0.930 . S
C726 H714 0.930 . S
C726 C727 1.399 . S
C726 C731 1.399 . S
C727 C726 1.399 . S
C727 C728 1.376 . S
C728 H715 0.930 . S
C728 C727 1.376 . S
C728 C729 1.388 . S
C729 H716 0.930 . S
C729 C728 1.388 . S
C729 C730 1.390 . S
C730 C729 1.390 . S
C730 C731 1.394 . S
C730 C736 1.465 . S
C731 C726 1.399 . S
C731 C730 1.394 . S
C731 C732 1.516 . S
C732 C731 1.516 . S
C732 C733 1.502 . S
C732 C734 1.561 . S
C732 C735 1.526 . S
C733 H717 0.959 . S
C733 H718 0.959 . S
C733 H719 0.961 . S
C733 C732 1.502 . S
C734 H720 0.960 . S
C734 H721 0.961 . S
C734 H722 0.959 . S
C734 C732 1.561 . S
C735 C732 1.526 . S
C735 C736 1.396 . S
C735 C740 1.390 . S
C736 C730 1.465 . S
C736 C735 1.396 . S
C736 C737 1.399 . S
C737 H723 0.929 . S
C737 C736 1.399 . S
C737 C738 1.385 . S
C738 H724 0.931 . S
C738 C737 1.385 . S
C738 C739 1.389 . S
C739 C738 1.389 . S
C739 C740 1.387 . S
C740 H725 0.930 . S
C740 C735 1.390 . S
C740 C739 1.387 . S
H741 C753 0.930 . S
H742 C755 0.930 . S
H743 C756 0.930 . S
H744 C760 0.959 . S
H745 C760 0.959 . S
H746 C760 0.961 . S
H747 C761 0.960 . S
H748 C761 0.961 . S
H749 C761 0.959 . S
H750 C764 0.929 . S
H751 C765 0.931 . S
H752 C767 0.930 . S
C753 H741 0.930 . S
C753 C754 1.399 . S
C753 C758 1.399 . S
C754 C753 1.399 . S
C754 C755 1.376 . S
C755 H742 0.930 . S
C755 C754 1.376 . S
C755 C756 1.388 . S
C756 H743 0.930 . S
C756 C755 1.388 . S
C756 C757 1.390 . S
C757 C756 1.390 . S
C757 C758 1.394 . S
C757 C763 1.465 . S
C758 C753 1.399 . S
C758 C757 1.394 . S
C758 C759 1.516 . S
C759 C758 1.516 . S
C759 C760 1.502 . S
C759 C761 1.561 . S
C759 C762 1.526 . S
C760 H744 0.959 . S
C760 H745 0.959 . S
C760 H746 0.961 . S
C760 C759 1.502 . S
C761 H747 0.960 . S
C761 H748 0.961 . S
C761 H749 0.959 . S
C761 C759 1.561 . S
C762 C759 1.526 . S
C762 C763 1.396 . S
C762 C767 1.390 . S
C763 C757 1.465 . S
C763 C762 1.396 . S
C763 C764 1.399 . S
C764 H750 0.929 . S
C764 C763 1.399 . S
C764 C765 1.385 . S
C765 H751 0.931 . S
C765 C764 1.385 . S
C765 C766 1.389 . S
C766 C765 1.389 . S
C766 C767 1.387 . S
C767 H752 0.930 . S
C767 C762 1.390 . S
C767 C766 1.387 . S
H768 C780 0.930 . S
H769 C782 0.930 . S
H770 C783 0.930 . S
H771 C787 0.959 . S
H772 C787 0.959 . S
H773 C787 0.961 . S
H774 C788 0.960 . S
H775 C788 0.961 . S
H776 C788 0.959 . S
H777 C791 0.929 . S
H778 C792 0.931 . S
H779 C794 0.930 . S
C780 H768 0.930 . S
C780 C781 1.399 . S
C780 C785 1.399 . S
C781 C780 1.399 . S
C781 C782 1.376 . S
C782 H769 0.930 . S
C782 C781 1.376 . S
C782 C783 1.388 . S
C783 H770 0.930 . S
C783 C782 1.388 . S
C783 C784 1.390 . S
C784 C783 1.390 . S
C784 C785 1.394 . S
C784 C790 1.465 . S
C785 C780 1.399 . S
C785 C784 1.394 . S
C785 C786 1.516 . S
C786 C785 1.516 . S
C786 C787 1.502 . S
C786 C788 1.561 . S
C786 C789 1.526 . S
C787 H771 0.959 . S
C787 H772 0.959 . S
C787 H773 0.961 . S
C787 C786 1.502 . S
C788 H774 0.960 . S
C788 H775 0.961 . S
C788 H776 0.959 . S
C788 C786 1.561 . S
C789 C786 1.526 . S
C789 C790 1.396 . S
C789 C794 1.390 . S
C790 C784 1.465 . S
C790 C789 1.396 . S
C790 C791 1.399 . S
C791 H777 0.929 . S
C791 C790 1.399 . S
C791 C792 1.385 . S
C792 H778 0.931 . S
C792 C791 1.385 . S
C792 C793 1.389 . S
C793 C792 1.389 . S
C793 C794 1.387 . S
C794 H779 0.930 . S
C794 C789 1.390 . S
C794 C793 1.387 . S
H795 C807 0.930 . S
H796 C809 0.930 . S
H797 C810 0.930 . S
H798 C814 0.959 . S
H799 C814 0.959 . S
H800 C814 0.961 . S
H801 C815 0.960 . S
H802 C815 0.961 . S
H803 C815 0.959 . S
H804 C818 0.929 . S
H805 C819 0.931 . S
H806 C821 0.930 . S
C807 H795 0.930 . S
C807 C808 1.399 . S
C807 C812 1.399 . S
C808 C807 1.399 . S
C808 C809 1.376 . S
C809 H796 0.930 . S
C809 C808 1.376 . S
C809 C810 1.388 . S
C810 H797 0.930 . S
C810 C809 1.388 . S
C810 C811 1.390 . S
C811 C810 1.390 . S
C811 C812 1.394 . S
C811 C817 1.465 . S
C812 C807 1.399 . S
C812 C811 1.394 . S
C812 C813 1.516 . S
C813 C812 1.516 . S
C813 C814 1.502 . S
C813 C815 1.561 . S
C813 C816 1.526 . S
C814 H798 0.959 . S
C814 H799 0.959 . S
C814 H800 0.961 . S
C814 C813 1.502 . S
C815 H801 0.960 . S
C815 H802 0.961 . S
C815 H803 0.959 . S
C815 C813 1.561 . S
C816 C813 1.526 . S
C816 C817 1.396 . S
C816 C821 1.390 . S
C817 C811 1.465 . S
C817 C816 1.396 . S
C817 C818 1.399 . S
C818 H804 0.929 . S
C818 C817 1.399 . S
C818 C819 1.385 . S
C819 H805 0.931 . S
C819 C818 1.385 . S
C819 C820 1.389 . S
C820 C819 1.389 . S
C820 C821 1.387 . S
C821 H806 0.930 . S
C821 C816 1.390 . S
C821 C820 1.387 . S
H822 C834 0.930 . S
H823 C836 0.930 . S
H824 C837 0.930 . S
H825 C841 0.959 . S
H826 C841 0.959 . S
H827 C841 0.961 . S
H828 C842 0.960 . S
H829 C842 0.961 . S
H830 C842 0.959 . S
H831 C845 0.929 . S
H832 C846 0.931 . S
H833 C848 0.930 . S
C834 H822 0.930 . S
C834 C835 1.399 . S
C834 C839 1.399 . S
C835 C834 1.399 . S
C835 C836 1.376 . S
C836 H823 0.930 . S
C836 C835 1.376 . S
C836 C837 1.388 . S
C837 H824 0.930 . S
C837 C836 1.388 . S
C837 C838 1.390 . S
C838 C837 1.390 . S
C838 C839 1.394 . S
C838 C844 1.465 . S
C839 C834 1.399 . S
C839 C838 1.394 . S
C839 C840 1.516 . S
C840 C839 1.516 . S
C840 C841 1.502 . S
C840 C842 1.561 . S
C840 C843 1.526 . S
C841 H825 0.959 . S
C841 H826 0.959 . S
C841 H827 0.961 . S
C841 C840 1.502 . S
C842 H828 0.960 . S
C842 H829 0.961 . S
C842 H830 0.959 . S
C842 C840 1.561 . S
C843 C840 1.526 . S
C843 C844 1.396 . S
C843 C848 1.390 . S
C844 C838 1.465 . S
C844 C843 1.396 . S
C844 C845 1.399 . S
C845 H831 0.929 . S
C845 C844 1.399 . S
C845 C846 1.385 . S
C846 H832 0.931 . S
C846 C845 1.385 . S
C846 C847 1.389 . S
C847 C846 1.389 . S
C847 C848 1.387 . S
C848 H833 0.930 . S
C848 C843 1.390 . S
C848 C847 1.387 . S
H849 C861 0.930 . S
H850 C863 0.930 . S
H851 C864 0.930 . S
H852 C868 0.959 . S
H853 C868 0.959 . S
H854 C868 0.961 . S
H855 C869 0.960 . S
H856 C869 0.961 . S
H857 C869 0.959 . S
H858 C872 0.929 . S
H859 C873 0.931 . S
H860 C875 0.930 . S
C861 H849 0.930 . S
C861 C862 1.399 . S
C861 C866 1.399 . S
C862 C861 1.399 . S
C862 C863 1.376 . S
C863 H850 0.930 . S
C863 C862 1.376 . S
C863 C864 1.388 . S
C864 H851 0.930 . S
C864 C863 1.388 . S
C864 C865 1.390 . S
C865 C864 1.390 . S
C865 C866 1.394 . S
C865 C871 1.465 . S
C866 C861 1.399 . S
C866 C865 1.394 . S
C866 C867 1.516 . S
C867 C866 1.516 . S
C867 C868 1.502 . S
C867 C869 1.561 . S
C867 C870 1.526 . S
C868 H852 0.959 . S
C868 H853 0.959 . S
C868 H854 0.961 . S
C868 C867 1.502 . S
C869 H855 0.960 . S
C869 H856 0.961 . S
C869 H857 0.959 . S
C869 C867 1.561 . S
C870 C867 1.526 . S
C870 C871 1.396 . S
C870 C875 1.390 . S
C871 C865 1.465 . S
C871 C870 1.396 . S
C871 C872 1.399 . S
C872 H858 0.929 . S
C872 C871 1.399 . S
C872 C873 1.385 . S
C873 H859 0.931 . S
C873 C872 1.385 . S
C873 C874 1.389 . S
C874 C873 1.389 . S
C874 C875 1.387 . S
C875 H860 0.930 . S
C875 C870 1.390 . S
C875 C874 1.387 . S
H876 C888 0.930 . S
H877 C890 0.930 . S
H878 C891 0.930 . S
H879 C895 0.959 . S
H880 C895 0.959 . S
H881 C895 0.961 . S
H882 C896 0.960 . S
H883 C896 0.961 . S
H884 C896 0.959 . S
H885 C899 0.929 . S
H886 C900 0.931 . S
H887 C902 0.930 . S
C888 H876 0.930 . S
C888 C889 1.399 . S
C888 C893 1.399 . S
C889 C888 1.399 . S
C889 C890 1.376 . S
C890 H877 0.930 . S
C890 C889 1.376 . S
C890 C891 1.388 . S
C891 H878 0.930 . S
C891 C890 1.388 . S
C891 C892 1.390 . S
C892 C891 1.390 . S
C892 C893 1.394 . S
C892 C898 1.465 . S
C893 C888 1.399 . S
C893 C892 1.394 . S
C893 C894 1.516 . S
C894 C893 1.516 . S
C894 C895 1.502 . S
C894 C896 1.561 . S
C894 C897 1.526 . S
C895 H879 0.959 . S
C895 H880 0.959 . S
C895 H881 0.961 . S
C895 C894 1.502 . S
C896 H882 0.960 . S
C896 H883 0.961 . S
C896 H884 0.959 . S
C896 C894 1.561 . S
C897 C894 1.526 . S
C897 C898 1.396 . S
C897 C902 1.390 . S
C898 C892 1.465 . S
C898 C897 1.396 . S
C898 C899 1.399 . S
C899 H885 0.929 . S
C899 C898 1.399 . S
C899 C900 1.385 . S
C900 H886 0.931 . S
C900 C899 1.385 . S
C900 C901 1.389 . S
C901 C900 1.389 . S
C901 C902 1.387 . S
C902 H887 0.930 . S
C902 C897 1.390 . S
C902 C901 1.387 . S
H903 C915 0.930 . S
H904 C917 0.930 . S
H905 C918 0.930 . S
H906 C922 0.959 . S
H907 C922 0.959 . S
H908 C922 0.961 . S
H909 C923 0.960 . S
H910 C923 0.961 . S
H911 C923 0.959 . S
H912 C926 0.929 . S
H913 C927 0.931 . S
H914 C929 0.930 . S
C915 H903 0.930 . S
C915 C916 1.399 . S
C915 C920 1.399 . S
C916 C915 1.399 . S
C916 C917 1.376 . S
C917 H904 0.930 . S
C917 C916 1.376 . S
C917 C918 1.388 . S
C918 H905 0.930 . S
C918 C917 1.388 . S
C918 C919 1.390 . S
C919 C918 1.390 . S
C919 C920 1.394 . S
C919 C925 1.465 . S
C920 C915 1.399 . S
C920 C919 1.394 . S
C920 C921 1.516 . S
C921 C920 1.516 . S
C921 C922 1.502 . S
C921 C923 1.561 . S
C921 C924 1.526 . S
C922 H906 0.959 . S
C922 H907 0.959 . S
C922 H908 0.961 . S
C922 C921 1.502 . S
C923 H909 0.960 . S
C923 H910 0.961 . S
C923 H911 0.959 . S
C923 C921 1.561 . S
C924 C921 1.526 . S
C924 C925 1.396 . S
C924 C929 1.390 . S
C925 C919 1.465 . S
C925 C924 1.396 . S
C925 C926 1.399 . S
C926 H912 0.929 . S
C926 C925 1.399 . S
C926 C927 1.385 . S
C927 H913 0.931 . S
C927 C926 1.385 . S
C927 C928 1.389 . S
C928 C927 1.389 . S
C928 C929 1.387 . S
C929 H914 0.930 . S
C929 C924 1.390 . S
C929 C928 1.387 . S
H930 C942 0.930 . S
H931 C944 0.930 . S
H932 C945 0.930 . S
H933 C949 0.959 . S
H934 C949 0.959 . S
H935 C949 0.961 . S
H936 C950 0.960 . S
H937 C950 0.961 . S
H938 C950 0.959 . S
H939 C953 0.929 . S
H940 C954 0.931 . S
H941 C956 0.930 . S
C942 H930 0.930 . S
C942 C943 1.399 . S
C942 C947 1.399 . S
C943 C942 1.399 . S
C943 C944 1.376 . S
C944 H931 0.930 . S
C944 C943 1.376 . S
C944 C945 1.388 . S
C945 H932 0.930 . S
C945 C944 1.388 . S
C945 C946 1.390 . S
C946 C945 1.390 . S
C946 C947 1.394 . S
C946 C952 1.465 . S
C947 C942 1.399 . S
C947 C946 1.394 . S
C947 C948 1.516 . S
C948 C947 1.516 . S
C948 C949 1.502 . S
C948 C950 1.561 . S
C948 C951 1.526 . S
C949 H933 0.959 . S
C949 H934 0.959 . S
C949 H935 0.961 . S
C949 C948 1.502 . S
C950 H936 0.960 . S
C950 H937 0.961 . S
C950 H938 0.959 . S
C950 C948 1.561 . S
C951 C948 1.526 . S
C951 C952 1.396 . S
C951 C956 1.390 . S
C952 C946 1.465 . S
C952 C951 1.396 . S
C952 C953 1.399 . S
C953 H939 0.929 . S
C953 C952 1.399 . S
C953 C954 1.385 . S
C954 H940 0.931 . S
C954 C953 1.385 . S
C954 C955 1.389 . S
C955 C954 1.389 . S
C955 C956 1.387 . S
C956 H941 0.930 . S
C956 C951 1.390 . S
C956 C955 1.387 . S
H957 C969 0.930 . S
H958 C971 0.930 . S
H959 C972 0.930 . S
H960 C976 0.959 . S
H961 C976 0.959 . S
H962 C976 0.961 . S
H963 C977 0.960 . S
H964 C977 0.961 . S
H965 C977 0.959 . S
H966 C980 0.929 . S
H967 C981 0.931 . S
H968 C983 0.930 . S
C969 H957 0.930 . S
C969 C970 1.399 . S
C969 C974 1.399 . S
C970 C969 1.399 . S
C970 C971 1.376 . S
C971 H958 0.930 . S
C971 C970 1.376 . S
C971 C972 1.388 . S
C972 H959 0.930 . S
C972 C971 1.388 . S
C972 C973 1.390 . S
C973 C972 1.390 . S
C973 C974 1.394 . S
C973 C979 1.465 . S
C974 C969 1.399 . S
C974 C973 1.394 . S
C974 C975 1.516 . S
C975 C974 1.516 . S
C975 C976 1.502 . S
C975 C977 1.561 . S
C975 C978 1.526 . S
C976 H960 0.959 . S
C976 H961 0.959 . S
C976 H962 0.961 . S
C976 C975 1.502 . S
C977 H963 0.960 . S
C977 H964 0.961 . S
C977 H965 0.959 . S
C977 C975 1.561 . S
C978 C975 1.526 . S
C978 C979 1.396 . S
C978 C983 1.390 . S
C979 C973 1.465 . S
C979 C978 1.396 . S
C979 C980 1.399 . S
C980 H966 0.929 . S
C980 C979 1.399 . S
C980 C981 1.385 . S
C981 H967 0.931 . S
C981 C980 1.385 . S
C981 C982 1.389 . S
C982 C981 1.389 . S
C982 C983 1.387 . S
C983 H968 0.930 . S
C983 C978 1.390 . S
C983 C982 1.387 . S
H984 C996 0.930 . S
H985 C998 0.930 . S
H986 C999 0.930 . S
H987 C1003 0.959 . S
H988 C1003 0.959 . S
H989 C1003 0.961 . S
H990 C1004 0.960 . S
H991 C1004 0.961 . S
H992 C1004 0.959 . S
H993 C1007 0.929 . S
H994 C1008 0.931 . S
H995 C1010 0.930 . S
C996 H984 0.930 . S
C996 C997 1.399 . S
C996 C1001 1.399 . S
C997 C996 1.399 . S
C997 C998 1.376 . S
C998 H985 0.930 . S
C998 C997 1.376 . S
C998 C999 1.388 . S
C999 H986 0.930 . S
C999 C998 1.388 . S
C999 C1000 1.390 . S
C1000 C999 1.390 . S
C1000 C1001 1.394 . S
C1000 C1006 1.465 . S
C1001 C996 1.399 . S
C1001 C1000 1.394 . S
C1001 C1002 1.516 . S
C1002 C1001 1.516 . S
C1002 C1003 1.502 . S
C1002 C1004 1.561 . S
C1002 C1005 1.526 . S
C1003 H987 0.959 . S
C1003 H988 0.959 . S
C1003 H989 0.961 . S
C1003 C1002 1.502 . S
C1004 H990 0.960 . S
C1004 H991 0.961 . S
C1004 H992 0.959 . S
C1004 C1002 1.561 . S
C1005 C1002 1.526 . S
C1005 C1006 1.396 . S
C1005 C1010 1.390 . S
C1006 C1000 1.465 . S
C1006 C1005 1.396 . S
C1006 C1007 1.399 . S
C1007 H993 0.929 . S
C1007 C1006 1.399 . S
C1007 C1008 1.385 . S
C1008 H994 0.931 . S
C1008 C1007 1.385 . S
C1008 C1009 1.389 . S
C1009 C1008 1.389 . S
C1009 C1010 1.387 . S
C1010 H995 0.930 . S
C1010 C1005 1.390 . S
C1010 C1009 1.387 . S
H1011 C1023 0.930 . S
H1012 C1025 0.930 . S
H1013 C1026 0.930 . S
H1014 C1030 0.959 . S
H1015 C1030 0.959 . S
H1016 C1030 0.961 . S
H1017 C1031 0.960 . S
H1018 C1031 0.961 . S
H1019 C1031 0.959 . S
H1020 C1034 0.929 . S
H1021 C1035 0.931 . S
H1022 C1037 0.930 . S
C1023 H1011 0.930 . S
C1023 C1024 1.399 . S
C1023 C1028 1.399 . S
C1024 C1023 1.399 . S
C1024 C1025 1.376 . S
C1025 H1012 0.930 . S
C1025 C1024 1.376 . S
C1025 C1026 1.388 . S
C1026 H1013 0.930 . S
C1026 C1025 1.388 . S
C1026 C1027 1.390 . S
C1027 C1026 1.390 . S
C1027 C1028 1.394 . S
C1027 C1033 1.465 . S
C1028 C1023 1.399 . S
C1028 C1027 1.394 . S
C1028 C1029 1.516 . S
C1029 C1028 1.516 . S
C1029 C1030 1.502 . S
C1029 C1031 1.561 . S
C1029 C1032 1.526 . S
C1030 H1014 0.959 . S
C1030 H1015 0.959 . S
C1030 H1016 0.961 . S
C1030 C1029 1.502 . S
C1031 H1017 0.960 . S
C1031 H1018 0.961 . S
C1031 H1019 0.959 . S
C1031 C1029 1.561 . S
C1032 C1029 1.526 . S
C1032 C1033 1.396 . S
C1032 C1037 1.390 . S
C1033 C1027 1.465 . S
C1033 C1032 1.396 . S
C1033 C1034 1.399 . S
C1034 H1020 0.929 . S
C1034 C1033 1.399 . S
C1034 C1035 1.385 . S
C1035 H1021 0.931 . S
C1035 C1034 1.385 . S
C1035 C1036 1.389 . S
C1036 C1035 1.389 . S
C1036 C1037 1.387 . S
C1037 H1022 0.930 . S
C1037 C1032 1.390 . S
C1037 C1036 1.387 . S
H1038 C1050 0.930 . S
H1039 C1052 0.930 . S
H1040 C1053 0.930 . S
H1041 C1057 0.959 . S
H1042 C1057 0.959 . S
H1043 C1057 0.961 . S
H1044 C1058 0.960 . S
H1045 C1058 0.961 . S
H1046 C1058 0.959 . S
H1047 C1061 0.929 . S
H1048 C1062 0.931 . S
H1049 C1064 0.930 . S
C1050 H1038 0.930 . S
C1050 C1051 1.399 . S
C1050 C1055 1.399 . S
C1051 C1050 1.399 . S
C1051 C1052 1.376 . S
C1052 H1039 0.930 . S
C1052 C1051 1.376 . S
C1052 C1053 1.388 . S
C1053 H1040 0.930 . S
C1053 C1052 1.388 . S
C1053 C1054 1.390 . S
C1054 C1053 1.390 . S
C1054 C1055 1.394 . S
C1054 C1060 1.465 . S
C1055 C1050 1.399 . S
C1055 C1054 1.394 . S
C1055 C1056 1.516 . S
C1056 C1055 1.516 . S
C1056 C1057 1.502 . S
C1056 C1058 1.561 . S
C1056 C1059 1.526 . S
C1057 H1041 0.959 . S
C1057 H1042 0.959 . S
C1057 H1043 0.961 . S
C1057 C1056 1.502 . S
C1058 H1044 0.960 . S
C1058 H1045 0.961 . S
C1058 H1046 0.959 . S
C1058 C1056 1.561 . S
C1059 C1056 1.526 . S
C1059 C1060 1.396 . S
C1059 C1064 1.390 . S
C1060 C1054 1.465 . S
C1060 C1059 1.396 . S
C1060 C1061 1.399 . S
C1061 H1047 0.929 . S
C1061 C1060 1.399 . S
C1061 C1062 1.385 . S
C1062 H1048 0.931 . S
C1062 C1061 1.385 . S
C1062 C1063 1.389 . S
C1063 C1062 1.389 . S
C1063 C1064 1.387 . S
C1064 H1049 0.930 . S
C1064 C1059 1.390 . S
C1064 C1063 1.387 . S
H1065 C1077 0.930 . S
H1066 C1079 0.930 . S
H1067 C1080 0.930 . S
H1068 C1084 0.959 . S
H1069 C1084 0.959 . S
H1070 C1084 0.961 . S
H1071 C1085 0.960 . S
H1072 C1085 0.961 . S
H1073 C1085 0.959 . S
H1074 C1088 0.929 . S
H1075 C1089 0.931 . S
H1076 C1091 0.930 . S
C1077 H1065 0.930 . S
C1077 C1078 1.399 . S
C1077 C1082 1.399 . S
C1078 C1077 1.399 . S
C1078 C1079 1.376 . S
C1079 H1066 0.930 . S
C1079 C1078 1.376 . S
C1079 C1080 1.388 . S
C1080 H1067 0.930 . S
C1080 C1079 1.388 . S
C1080 C1081 1.390 . S
C1081 C1080 1.390 . S
C1081 C1082 1.394 . S
C1081 C1087 1.465 . S
C1082 C1077 1.399 . S
C1082 C1081 1.394 . S
C1082 C1083 1.516 . S
C1083 C1082 1.516 . S
C1083 C1084 1.502 . S
C1083 C1085 1.561 . S
C1083 C1086 1.526 . S
C1084 H1068 0.959 . S
C1084 H1069 0.959 . S
C1084 H1070 0.961 . S
C1084 C1083 1.502 . S
C1085 H1071 0.960 . S
C1085 H1072 0.961 . S
C1085 H1073 0.959 . S
C1085 C1083 1.561 . S
C1086 C1083 1.526 . S
C1086 C1087 1.396 . S
C1086 C1091 1.390 . S
C1087 C1081 1.465 . S
C1087 C1086 1.396 . S
C1087 C1088 1.399 . S
C1088 H1074 0.929 . S
C1088 C1087 1.399 . S
C1088 C1089 1.385 . S
C1089 H1075 0.931 . S
C1089 C1088 1.385 . S
C1089 C1090 1.389 . S
C1090 C1089 1.389 . S
C1090 C1091 1.387 . S
C1091 H1076 0.930 . S
C1091 C1086 1.390 . S
C1091 C1090 1.387 . S
H1092 C1104 0.930 . S
H1093 C1106 0.930 . S
H1094 C1107 0.930 . S
H1095 C1111 0.959 . S
H1096 C1111 0.959 . S
H1097 C1111 0.961 . S
H1098 C1112 0.960 . S
H1099 C1112 0.961 . S
H1100 C1112 0.959 . S
H1101 C1115 0.929 . S
H1102 C1116 0.931 . S
H1103 C1118 0.930 . S
C1104 H1092 0.930 . S
C1104 C1105 1.399 . S
C1104 C1109 1.399 . S
C1105 C1104 1.399 . S
C1105 C1106 1.376 . S
C1106 H1093 0.930 . S
C1106 C1105 1.376 . S
C1106 C1107 1.388 . S
C1107 H1094 0.930 . S
C1107 C1106 1.388 . S
C1107 C1108 1.390 . S
C1108 C1107 1.390 . S
C1108 C1109 1.394 . S
C1108 C1114 1.465 . S
C1109 C1104 1.399 . S
C1109 C1108 1.394 . S
C1109 C1110 1.516 . S
C1110 C1109 1.516 . S
C1110 C1111 1.502 . S
C1110 C1112 1.561 . S
C1110 C1113 1.526 . S
C1111 H1095 0.959 . S
C1111 H1096 0.959 . S
C1111 H1097 0.961 . S
C1111 C1110 1.502 . S
C1112 H1098 0.960 . S
C1112 H1099 0.961 . S
C1112 H1100 0.959 . S
C1112 C1110 1.561 . S
C1113 C1110 1.526 . S
C1113 C1114 1.396 . S
C1113 C1118 1.390 . S
C1114 C1108 1.465 . S
C1114 C1113 1.396 . S
C1114 C1115 1.399 . S
C1115 H1101 0.929 . S
C1115 C1114 1.399 . S
C1115 C1116 1.385 . S
C1116 H1102 0.931 . S
C1116 C1115 1.385 . S
C1116 C1117 1.389 . S
C1117 C1116 1.389 . S
C1117 C1118 1.387 . S
C1118 H1103 0.930 . S
C1118 C1113 1.390 . S
C1118 C1117 1.387 . S
H1119 C1131 0.930 . S
H1120 C1133 0.930 . S
H1121 C1134 0.930 . S
H1122 C1138 0.959 . S
H1123 C1138 0.959 . S
H1124 C1138 0.961 . S
H1125 C1139 0.960 . S
H1126 C1139 0.961 . S
H1127 C1139 0.959 . S
H1128 C1142 0.929 . S
H1129 C1143 0.931 . S
H1130 C1145 0.930 . S
C1131 H1119 0.930 . S
C1131 C1132 1.399 . S
C1131 C1136 1.399 . S
C1132 C1131 1.399 . S
C1132 C1133 1.376 . S
C1133 H1120 0.930 . S
C1133 C1132 1.376 . S
C1133 C1134 1.388 . S
C1134 H1121 0.930 . S
C1134 C1133 1.388 . S
C1134 C1135 1.390 . S
C1135 C1134 1.390 . S
C1135 C1136 1.394 . S
C1135 C1141 1.465 . S
C1136 C1131 1.399 . S
C1136 C1135 1.394 . S
C1136 C1137 1.516 . S
C1137 C1136 1.516 . S
C1137 C1138 1.502 . S
C1137 C1139 1.561 . S
C1137 C1140 1.526 . S
C1138 H1122 0.959 . S
C1138 H1123 0.959 . S
C1138 H1124 0.961 . S
C1138 C1137 1.502 . S
C1139 H1125 0.960 . S
C1139 H1126 0.961 . S
C1139 H1127 0.959 . S
C1139 C1137 1.561 . S
C1140 C1137 1.526 . S
C1140 C1141 1.396 . S
C1140 C1145 1.390 . S
C1141 C1135 1.465 . S
C1141 C1140 1.396 . S
C1141 C1142 1.399 . S
C1142 H1128 0.929 . S
C1142 C1141 1.399 . S
C1142 C1143 1.385 . S
C1143 H1129 0.931 . S
C1143 C1142 1.385 . S
C1143 C1144 1.389 . S
C1144 C1143 1.389 . S
C1144 C1145 1.387 . S
C1145 H1130 0.930 . S
C1145 C1140 1.390 . S
C1145 C1144 1.387 . S
H1146 C1158 0.930 . S
H1147 C1160 0.930 . S
H1148 C1161 0.930 . S
H1149 C1165 0.959 . S
H1150 C1165 0.959 . S
H1151 C1165 0.961 . S
H1152 C1166 0.960 . S
H1153 C1166 0.961 . S
H1154 C1166 0.959 . S
H1155 C1169 0.929 . S
H1156 C1170 0.931 . S
H1157 C1172 0.930 . S
C1158 H1146 0.930 . S
C1158 C1159 1.399 . S
C1158 C1163 1.399 . S
C1159 C1158 1.399 . S
C1159 C1160 1.376 . S
C1160 H1147 0.930 . S
C1160 C1159 1.376 . S
C1160 C1161 1.388 . S
C1161 H1148 0.930 . S
C1161 C1160 1.388 . S
C1161 C1162 1.390 . S
C1162 C1161 1.390 . S
C1162 C1163 1.394 . S
C1162 C1168 1.465 . S
C1163 C1158 1.399 . S
C1163 C1162 1.394 . S
C1163 C1164 1.516 . S
C1164 C1163 1.516 . S
C1164 C1165 1.502 . S
C1164 C1166 1.561 . S
C1164 C1167 1.526 . S
C1165 H1149 0.959 . S
C1165 H1150 0.959 . S
C1165 H1151 0.961 . S
C1165 C1164 1.502 . S
C1166 H1152 0.960 . S
C1166 H1153 0.961 . S
C1166 H1154 0.959 . S
C1166 C1164 1.561 . S
C1167 C1164 1.526 . S
C1167 C1168 1.396 . S
C1167 C1172 1.390 . S
C1168 C1162 1.465 . S
C1168 C1167 1.396 . S
C1168 C1169 1.399 . S
C1169 H1155 0.929 . S
C1169 C1168 1.399 . S
C1169 C1170 1.385 . S
C1170 H1156 0.931 . S
C1170 C1169 1.385 . S
C1170 C1171 1.389 . S
C1171 C1170 1.389 . S
C1171 C1172 1.387 . S
C1172 H1157 0.930 . S
C1172 C1167 1.390 . S
C1172 C1171 1.387 . S
H1173 C1185 0.930 . S
H1174 C1187 0.930 . S
H1175 C1188 0.930 . S
H1176 C1192 0.959 . S
H1177 C1192 0.959 . S
H1178 C1192 0.961 . S
H1179 C1193 0.960 . S
H1180 C1193 0.961 . S
H1181 C1193 0.959 . S
H1182 C1196 0.929 . S
H1183 C1197 0.931 . S
H1184 C1199 0.930 . S
C1185 H1173 0.930 . S
C1185 C1186 1.399 . S
C1185 C1190 1.399 . S
C1186 C1185 1.399 . S
C1186 C1187 1.376 . S
C1187 H1174 0.930 . S
C1187 C1186 1.376 . S
C1187 C1188 1.388 . S
C1188 H1175 0.930 . S
C1188 C1187 1.388 . S
C1188 C1189 1.390 . S
C1189 C1188 1.390 . S
C1189 C1190 1.394 . S
C1189 C1195 1.465 . S
C1190 C1185 1.399 . S
C1190 C1189 1.394 . S
C1190 C1191 1.516 . S
C1191 C1190 1.516 . S
C1191 C1192 1.502 . S
C1191 C1193 1.561 . S
C1191 C1194 1.526 . S
C1192 H1176 0.959 . S
C1192 H1177 0.959 . S
C1192 H1178 0.961 . S
C1192 C1191 1.502 . S
C1193 H1179 0.960 . S
C1193 H1180 0.961 . S
C1193 H1181 0.959 . S
C1193 C1191 1.561 . S
C1194 C1191 1.526 . S
C1194 C1195 1.396 . S
C1194 C1199 1.390 . S
C1195 C1189 1.465 . S
C1195 C1194 1.396 . S
C1195 C1196 1.399 . S
C1196 H1182 0.929 . S
C1196 C1195 1.399 . S
C1196 C1197 1.385 . S
C1197 H1183 0.931 . S
C1197 C1196 1.385 . S
C1197 C1198 1.389 . S
C1198 C1197 1.389 . S
C1198 C1199 1.387 . S
C1199 H1184 0.930 . S
C1199 C1194 1.390 . S
C1199 C1198 1.387 . S
H1200 C1212 0.930 . S
H1201 C1214 0.930 . S
H1202 C1215 0.930 . S
H1203 C1219 0.959 . S
H1204 C1219 0.959 . S
H1205 C1219 0.961 . S
H1206 C1220 0.960 . S
H1207 C1220 0.961 . S
H1208 C1220 0.959 . S
H1209 C1223 0.929 . S
H1210 C1224 0.931 . S
H1211 C1226 0.930 . S
C1212 H1200 0.930 . S
C1212 C1213 1.399 . S
C1212 C1217 1.399 . S
C1213 C1212 1.399 . S
C1213 C1214 1.376 . S
C1214 H1201 0.930 . S
C1214 C1213 1.376 . S
C1214 C1215 1.388 . S
C1215 H1202 0.930 . S
C1215 C1214 1.388 . S
C1215 C1216 1.390 . S
C1216 C1215 1.390 . S
C1216 C1217 1.394 . S
C1216 C1222 1.465 . S
C1217 C1212 1.399 . S
C1217 C1216 1.394 . S
C1217 C1218 1.516 . S
C1218 C1217 1.516 . S
C1218 C1219 1.502 . S
C1218 C1220 1.561 . S
C1218 C1221 1.526 . S
C1219 H1203 0.959 . S
C1219 H1204 0.959 . S
C1219 H1205 0.961 . S
C1219 C1218 1.502 . S
C1220 H1206 0.960 . S
C1220 H1207 0.961 . S
C1220 H1208 0.959 . S
C1220 C1218 1.561 . S
C1221 C1218 1.526 . S
C1221 C1222 1.396 . S
C1221 C1226 1.390 . S
C1222 C1216 1.465 . S
C1222 C1221 1.396 . S
C1222 C1223 1.399 . S
C1223 H1209 0.929 . S
C1223 C1222 1.399 . S
C1223 C1224 1.385 . S
C1224 H1210 0.931 . S
C1224 C1223 1.385 . S
C1224 C1225 1.389 . S
C1225 C1224 1.389 . S
C1225 C1226 1.387 . S
C1226 H1211 0.930 . S
C1226 C1221 1.390 . S
C1226 C1225 1.387 . S
H1227 C1239 0.930 . S
H1228 C1241 0.930 . S
H1229 C1242 0.930 . S
H1230 C1246 0.959 . S
H1231 C1246 0.959 . S
H1232 C1246 0.961 . S
H1233 C1247 0.960 . S
H1234 C1247 0.961 . S
H1235 C1247 0.959 . S
H1236 C1250 0.929 . S
H1237 C1251 0.931 . S
H1238 C1253 0.930 . S
C1239 H1227 0.930 . S
C1239 C1240 1.399 . S
C1239 C1244 1.399 . S
C1240 C1239 1.399 . S
C1240 C1241 1.376 . S
C1241 H1228 0.930 . S
C1241 C1240 1.376 . S
C1241 C1242 1.388 . S
C1242 H1229 0.930 . S
C1242 C1241 1.388 . S
C1242 C1243 1.390 . S
C1243 C1242 1.390 . S
C1243 C1244 1.394 . S
C1243 C1249 1.465 . S
C1244 C1239 1.399 . S
C1244 C1243 1.394 . S
C1244 C1245 1.516 . S
C1245 C1244 1.516 . S
C1245 C1246 1.502 . S
C1245 C1247 1.561 . S
C1245 C1248 1.526 . S
C1246 H1230 0.959 . S
C1246 H1231 0.959 . S
C1246 H1232 0.961 . S
C1246 C1245 1.502 . S
C1247 H1233 0.960 . S
C1247 H1234 0.961 . S
C1247 H1235 0.959 . S
C1247 C1245 1.561 . S
C1248 C1245 1.526 . S
C1248 C1249 1.396 . S
C1248 C1253 1.390 . S
C1249 C1243 1.465 . S
C1249 C1248 1.396 . S
C1249 C1250 1.399 . S
C1250 H1236 0.929 . S
C1250 C1249 1.399 . S
C1250 C1251 1.385 . S
C1251 H1237 0.931 . S
C1251 C1250 1.385 . S
C1251 C1252 1.389 . S
C1252 C1251 1.389 . S
C1252 C1253 1.387 . S
C1253 H1238 0.930 . S
C1253 C1248 1.390 . S
C1253 C1252 1.387 . S
C619 C39 1.755 . S
C631 C339 1.757 . S
C646 C91 1.711 . S
C658 C396 1.716 . S
C685 C450 1.586 . S
C673 C128 1.581 . S
C712 C507 1.460 . S
C700 C188 1.550 . S
C739 C531 1.615 . S
C727 C250 1.652 . S
C766 C588 1.715 . S
C754 C304 1.739 . S
C781 C75 1.641 . S
C793 C435 1.655 . S
C808 C144 1.740 . S
C820 C492 1.755 . S
C847 C546 1.693 . S
C835 C198 1.684 . S
C874 C603 1.546 . S
C862 C234 1.548 . S
C889 C294 1.517 . S
C901 C354 1.533 . S
C928 C411 1.522 . S
C916 C29 1.556 . S
C955 C498 1.726 . S
C943 C38 1.773 . S
C970 C92 1.705 . S
C982 C540 1.692 . S
C1009 C579 1.542 . S
C997 C135 1.596 . S
C1024 C181 1.541 . S
C1036 C348 1.494 . S
C1051 C251 1.651 . S
C1063 C387 1.592 . S
C1078 C303 1.736 . S
C1090 C459 1.716 . S
C1105 C82 1.652 . S
C1117 C594 1.646 . S
C1144 C363 1.735 . S
C1132 C145 1.757 . S
C1159 C197 1.693 . S
C1171 C402 1.680 . S
C1186 C241 1.569 . S
C1198 C444 1.485 . S
C1213 C287 1.539 . S
C1225 C483 1.499 . S
C1240 C22 1.561 . S
C1252 C555 1.550 . S
