# Generated by pormake.
# Topology anh, (6,3)-cn, num edge types: 1
# Building blocks:
#     Node 0, Type 0, BuildingBlock: PAMTUU_clean_sbu_0, # of connection points: 6
#     Node 1, Type 0, BuildingBlock: PAMTUU_clean_sbu_0, # of connection points: 6
#     Node 2, Type 0, BuildingBlock: PAMTUU_clean_sbu_0, # of connection points: 6
#     Node 3, Type 1, BuildingBlock: MIDCAF_clean_linker_0, # of connection points: 3
#     Node 4, Type 1, BuildingBlock: MIDCAF_clean_linker_0, # of connection points: 3
#     Node 5, Type 1, BuildingBlock: MIDCAF_clean_linker_0, # of connection points: 3
#     Node 6, Type 1, BuildingBlock: MIDCAF_clean_linker_0, # of connection points: 3
#     Node 7, Type 1, BuildingBlock: MIDCAF_clean_linker_0, # of connection points: 3
#     Node 8, Type 1, BuildingBlock: MIDCAF_clean_linker_0, # of connection points: 3
#     Edge 9, Type (0, 1), BuildingBlock: MIFKUJ_clean_linker_0, # of connection points: 2
#     Edge 10, Type (0, 1), BuildingBlock: MIFKUJ_clean_linker_0, # of connection points: 2
#     Edge 11, Type (0, 1), BuildingBlock: MIFKUJ_clean_linker_0, # of connection points: 2
#     Edge 12, Type (0, 1), BuildingBlock: MIFKUJ_clean_linker_0, # of connection points: 2
#     Edge 13, Type (0, 1), BuildingBlock: MIFKUJ_clean_linker_0, # of connection points: 2
#     Edge 14, Type (0, 1), BuildingBlock: MIFKUJ_clean_linker_0, # of connection points: 2
#     Edge 15, Type (0, 1), BuildingBlock: MIFKUJ_clean_linker_0, # of connection points: 2
#     Edge 16, Type (0, 1), BuildingBlock: MIFKUJ_clean_linker_0, # of connection points: 2
#     Edge 17, Type (0, 1), BuildingBlock: MIFKUJ_clean_linker_0, # of connection points: 2
#     Edge 18, Type (0, 1), BuildingBlock: MIFKUJ_clean_linker_0, # of connection points: 2
#     Edge 19, Type (0, 1), BuildingBlock: MIFKUJ_clean_linker_0, # of connection points: 2
#     Edge 20, Type (0, 1), BuildingBlock: MIFKUJ_clean_linker_0, # of connection points: 2
#     Edge 21, Type (0, 1), BuildingBlock: MIFKUJ_clean_linker_0, # of connection points: 2
#     Edge 22, Type (0, 1), BuildingBlock: MIFKUJ_clean_linker_0, # of connection points: 2
#     Edge 23, Type (0, 1), BuildingBlock: MIFKUJ_clean_linker_0, # of connection points: 2
#     Edge 24, Type (0, 1), BuildingBlock: MIFKUJ_clean_linker_0, # of connection points: 2
#     Edge 25, Type (0, 1), BuildingBlock: MIFKUJ_clean_linker_0, # of connection points: 2
#     Edge 26, Type (0, 1), BuildingBlock: MIFKUJ_clean_linker_0, # of connection points: 2
# Relax obj value: 0.201
# Max RMSD: 0.183
# Mean RMSD: 0.150
data_MOF--net-anh--node1-PAMTUU_clean_sbu_0--node2-MIDCAF_clean_linker_0--edge1-MIFKUJ_clean_linker_0
_symmetry_space_group_name_H-M    P1
_symmetry_Int_Tables_number       1
_symmetry_cell_setting            triclinic
loop_
_symmetry_equiv_pos_as_xyz
'x, y, z'
_cell_length_a     46.674966
_cell_length_b     46.21217
_cell_length_c     82.223271
_cell_angle_alpha  93.4665
_cell_angle_beta   90.55693
_cell_angle_gamma 120.05433
loop_
_atom_site_label
_atom_site_type_symbol
_atom_site_fract_x
_atom_site_fract_y
_atom_site_fract_z
_atom_type_partial_charge
Tb0 Tb 0.06015 0.58795 0.15866 0.0
Tb1 Tb 0.09948 0.54752 0.15771 0.0
C2 C 0.07846 0.56633 0.12521 0.0
C3 C 0.99442 0.60205 0.17052 0.0
C4 C 0.93052 0.56124 0.18153 0.0
C5 C 0.93551 0.58231 0.16889 0.0
C6 C 0.9673 0.60248 0.16337 0.0
C7 C 0.98966 0.583 0.184 0.0
C8 C 0.95797 0.56265 0.18941 0.0
C9 C 1.02574 0.61545 0.16212 0.0
O10 O 1.01902 0.53465 0.1561 0.0
O11 O 0.04764 0.50799 0.16208 0.0
O12 O 0.1066 0.57031 0.18234 0.0
O13 O 0.05692 0.56765 0.18209 0.0
O14 O 0.13263 0.53531 0.14654 0.0
O15 O 0.10776 0.51181 0.16808 0.0
O16 O 0.14064 0.60044 0.15764 0.0
O17 O 0.11274 0.62895 0.16307 0.0
O18 O 0.07571 0.58983 0.13362 0.0
O19 O 0.08104 0.54325 0.13261 0.0
C20 C 1.01905 0.5071 0.15977 0.0
O21 O 0.05211 0.62391 0.17132 0.0
O22 O 1.02428 0.5976 0.14888 0.0
C23 C 0.08197 0.56931 0.19017 0.0
C24 C 0.16219 0.52297 0.1656 0.0
C25 C 0.2232 0.535 0.17891 0.0
C26 C 0.19686 0.502 0.17549 0.0
C27 C 0.16662 0.49608 0.16885 0.0
C28 C 0.18786 0.55597 0.16965 0.0
C29 C 0.21827 0.56195 0.17617 0.0
C30 C 0.13071 0.51617 0.15801 0.0
C31 C 0.14099 0.62902 0.16117 0.0
H32 H 0.91461 0.58127 0.16247 0.0
H33 H 0.97035 0.61659 0.15283 0.0
H34 H 1.01013 0.58208 0.1897 0.0
H35 H 0.95472 0.54668 0.19917 0.0
H36 H 0.2001 0.48074 0.1772 0.0
H37 H 0.14693 0.47048 0.16591 0.0
H38 H 0.18463 0.57706 0.16744 0.0
H39 H 0.23814 0.58759 0.17872 0.0
Tb40 Tb 0.54105 0.04254 0.48888 0.0
Tb41 Tb 0.61987 0.08157 0.49447 0.0
C42 C 0.5865 0.06409 0.45931 0.0
C43 C 0.4551 0.98005 0.4942 0.0
C44 C 0.40988 0.92297 0.50969 0.0
C45 C 0.39983 0.93263 0.49578 0.0
C46 C 0.42227 0.96106 0.48814 0.0
C47 C 0.46535 0.97044 0.50797 0.0
C48 C 0.44292 0.94229 0.51572 0.0
C49 C 0.4788 1.00992 0.4863 0.0
O50 O 0.55267 1.00102 0.48746 0.0
O51 O 0.606 1.0291 0.49828 0.0
O52 O 0.59965 0.0865 0.51753 0.0
O53 O 0.55184 0.03678 0.51369 0.0
O54 O 0.66737 0.1156 0.48711 0.0
O55 O 0.66086 0.08928 0.50882 0.0
O56 O 0.60955 0.12338 0.49254 0.0
O57 O 0.55319 0.09523 0.49495 0.0
O58 O 0.56073 0.06348 0.46584 0.0
O59 O 0.60921 0.06334 0.46858 0.0
C60 C 0.57889 1.00058 0.49354 0.0
O61 O 0.49574 0.03658 0.49622 0.0
O62 O 0.49761 1.00561 0.47595 0.0
C63 C 0.57393 0.06139 0.52347 0.0
C64 C 0.70243 0.14544 0.51002 0.0
C65 C 0.74307 0.20832 0.52692 0.0
C66 C 0.7551 0.18618 0.52346 0.0
C67 C 0.73492 0.15499 0.51499 0.0
C68 C 0.68966 0.16642 0.51435 0.0
C69 C 0.7098 0.19764 0.52261 0.0
C70 C 0.68157 0.11363 0.50043 0.0
C71 C 0.58163 0.12381 0.49456 0.0
H72 H 0.37478 0.91788 0.49056 0.0
H73 H 0.41406 0.96805 0.47746 0.0
H74 H 0.49073 0.98475 0.51275 0.0
H75 H 0.45146 0.93577 0.52644 0.0
H76 H 0.78042 0.19338 0.52683 0.0
H77 H 0.74488 0.13868 0.51202 0.0
H78 H 0.66438 0.15913 0.51089 0.0
H79 H 0.69968 0.21403 0.52478 0.0
Tb80 Tb 0.57437 0.53171 0.82471 0.0
Tb81 Tb 0.61565 0.61199 0.82986 0.0
C82 C 0.59587 0.57513 0.79451 0.0
C83 C 0.54769 0.44382 0.83058 0.0
C84 C 0.55717 0.39724 0.84694 0.0
C85 C 0.58346 0.42282 0.83905 0.0
C86 C 0.57883 0.44604 0.83103 0.0
C87 C 0.52161 0.41873 0.83865 0.0
C88 C 0.52632 0.39575 0.84683 0.0
C89 C 0.54249 0.46874 0.82281 0.0
O90 O 0.62679 0.5423 0.82478 0.0
O91 O 0.65548 0.59896 0.83207 0.0
O92 O 0.59594 0.59319 0.85327 0.0
O93 O 0.59591 0.54428 0.84918 0.0
O94 O 0.62894 0.65931 0.82207 0.0
O95 O 0.64995 0.65453 0.84455 0.0
O96 O 0.56344 0.60155 0.82802 0.0
O97 O 0.53527 0.54483 0.83042 0.0
O98 O 0.57235 0.5486 0.80083 0.0
O99 O 0.61893 0.60027 0.80393 0.0
C100 C 0.65518 0.57027 0.82905 0.0
O101 O 0.53584 0.48731 0.83283 0.0
O102 O 0.56366 0.48626 0.8121 0.0
C103 C 0.59623 0.56758 0.85906 0.0
C104 C 0.63599 0.69654 0.8443 0.0
C105 C 0.61311 0.7387 0.85712 0.0
C106 C 0.64642 0.75212 0.85298 0.0
C107 C 0.6577 0.73115 0.84647 0.0
C108 C 0.60362 0.68281 0.84963 0.0
C109 C 0.59219 0.70366 0.85589 0.0
C110 C 0.64608 0.67475 0.83561 0.0
C111 C 0.53525 0.57348 0.83001 0.0
H112 H 0.60739 0.42439 0.83867 0.0
H113 H 0.59956 0.46558 0.82513 0.0
H114 H 0.4976 0.41702 0.83871 0.0
H115 H 0.50571 0.37667 0.85298 0.0
H116 H 0.66338 0.77893 0.85408 0.0
H117 H 0.68293 0.74204 0.84261 0.0
H118 H 0.58668 0.65602 0.84824 0.0
H119 H 0.56634 0.69231 0.85873 0.0
C120 C 0.46692 0.97878 0.19922 0.0
C121 C 0.46486 0.95414 0.1874 0.0
C122 C 0.49503 0.96238 0.17974 0.0
C123 C 0.52544 0.99308 0.18397 0.0
H124 H 0.62222 0.13138 0.17613 0.0
H125 H 0.67214 0.18226 0.16815 0.0
H126 H 0.72545 0.18187 0.21116 0.0
H127 H 0.6769 0.13185 0.21873 0.0
H128 H 0.62534 0.12476 0.25229 0.0
H129 H 0.62706 0.12442 0.28208 0.0
H130 H 0.55896 1.01778 0.27816 0.0
H131 H 0.55656 1.01811 0.24843 0.0
H132 H 0.49692 1.02589 0.21316 0.0
H133 H 0.44535 0.97431 0.20585 0.0
H134 H 0.49539 0.94489 0.1705 0.0
H135 H 0.54783 0.99721 0.17822 0.0
N136 N 0.5859 0.07142 0.19623 0.0
N137 N 0.61416 0.09613 0.22178 0.0
N138 N 0.56246 0.04701 0.22074 0.0
C139 C 0.6136 0.09694 0.20521 0.0
C140 C 0.58913 0.07157 0.22964 0.0
C141 C 0.55991 0.04605 0.20418 0.0
C142 C 0.64454 0.12635 0.19818 0.0
C143 C 0.64472 0.14174 0.18375 0.0
C144 C 0.6737 0.17159 0.17925 0.0
C145 C 0.7041 0.18736 0.18884 0.0
C146 C 0.70367 0.17132 0.20302 0.0
C147 C 0.67503 0.14204 0.20751 0.0
C148 C 0.59077 0.07147 0.24785 0.0
C149 C 0.61073 0.1012 0.25775 0.0
C150 C 0.61161 0.10106 0.27485 0.0
C151 C 0.59319 0.07107 0.28254 0.0
C152 C 0.57361 0.04128 0.27265 0.0
C153 C 0.57213 0.04153 0.25559 0.0
C154 C 0.52728 1.01708 0.19612 0.0
C155 C 0.49708 1.009 0.20348 0.0
C156 C 0.61286 0.4779 0.5298 0.0
C157 C 0.58566 0.45031 0.52105 0.0
C158 C 0.55931 0.4556 0.51634 0.0
C159 C 0.5599 0.48642 0.52053 0.0
H160 H 0.56549 0.60585 0.50833 0.0
H161 H 0.56433 0.65588 0.50005 0.0
H162 H 0.60179 0.70416 0.54816 0.0
H163 H 0.60362 0.65586 0.55609 0.0
H164 H 0.59199 0.61982 0.58625 0.0
H165 H 0.59393 0.6213 0.61594 0.0
H166 H 0.58517 0.5236 0.61325 0.0
H167 H 0.58284 0.52186 0.58353 0.0
H168 H 0.63404 0.52771 0.54157 0.0
H169 H 0.63361 0.47566 0.53407 0.0
H170 H 0.53777 0.43568 0.50954 0.0
H171 H 0.53843 0.48839 0.51728 0.0
N172 N 0.58376 0.5684 0.53052 0.0
N173 N 0.58516 0.59459 0.55634 0.0
N174 N 0.58602 0.54436 0.55482 0.0
C175 C 0.58414 0.59492 0.53977 0.0
C176 C 0.58594 0.56975 0.564 0.0
C177 C 0.58484 0.54282 0.53822 0.0
C178 C 0.58471 0.62579 0.53302 0.0
C179 C 0.57387 0.62727 0.51709 0.0
C180 C 0.57293 0.65624 0.51236 0.0
C181 C 0.58317 0.68526 0.52327 0.0
C182 C 0.59422 0.6835 0.53903 0.0
C183 C 0.59496 0.65492 0.54371 0.0
C184 C 0.58723 0.57069 0.5823 0.0
C185 C 0.59044 0.59856 0.59192 0.0
C186 C 0.59178 0.59953 0.60904 0.0
C187 C 0.58975 0.5726 0.61714 0.0
C188 C 0.58642 0.54469 0.60753 0.0
C189 C 0.58529 0.54379 0.5904 0.0
C190 C 0.58685 0.51349 0.52965 0.0
C191 C 0.61324 0.50833 0.53409 0.0
C192 C 0.97547 0.5421 0.86312 0.0
C193 C 0.97484 0.56682 0.85397 0.0
C194 C 1.00625 0.59119 0.84855 0.0
C195 C 1.03632 0.59104 0.85234 0.0
H196 H 0.1307 0.53113 0.84674 0.0
H197 H 0.1823 0.53149 0.83991 0.0
H198 H 0.23833 0.62117 0.8717 0.0
H199 H 0.18718 0.6204 0.87852 0.0
H200 H 0.12927 0.55382 0.91589 0.0
H201 H 0.12668 0.55193 0.94541 0.0
H202 H 0.05886 0.59003 0.94517 0.0
H203 H 0.06003 0.58983 0.91565 0.0
H204 H 1.00392 0.52343 0.87476 0.0
H205 H 0.95282 0.523 0.86795 0.0
H206 H 1.00783 0.61083 0.84143 0.0
H207 H 0.05952 0.61107 0.84843 0.0
N208 N 0.09538 0.57153 0.8616 0.0
N209 N 0.1213 0.57356 0.88691 0.0
N210 N 0.06932 0.56989 0.88634 0.0
C211 C 0.12225 0.57341 0.87032 0.0
C212 C 0.09522 0.57179 0.89501 0.0
C213 C 0.06848 0.56979 0.86978 0.0
C214 C 0.15395 0.57633 0.86293 0.0
C215 C 0.15405 0.55151 0.85194 0.0
C216 C 0.18407 0.55147 0.84821 0.0
C217 C 0.21573 0.57644 0.8551 0.0
C218 C 0.21539 0.60156 0.86575 0.0
C219 C 0.18554 0.60121 0.86968 0.0
C220 C 0.09476 0.57182 0.91326 0.0
C221 C 0.11378 0.56177 0.92215 0.0
C222 C 0.11242 0.56093 0.93923 0.0
C223 C 0.09246 0.57075 0.94806 0.0
C224 C 0.07392 0.58138 0.93907 0.0
C225 C 0.07479 0.58156 0.922 0.0
C226 C 1.03668 0.56662 0.86185 0.0
C227 C 1.00532 0.54225 0.86704 0.0
C228 C 0.14869 0.64645 0.45957 0.0
C229 C 0.14649 0.6385 0.4759 0.0
C230 C 0.11779 0.61068 0.48082 0.0
C231 C 0.09095 0.59195 0.46973 0.0
H232 H 0.98787 0.56841 0.46669 0.0
H233 H 0.93981 0.5338 0.48209 0.0
H234 H 0.90082 0.45785 0.44186 0.0
H235 H 0.94939 0.49261 0.42638 0.0
H236 H 0.99176 0.52376 0.3916 0.0
H237 H 0.9987 0.52092 0.36231 0.0
H238 H 0.1022 0.59625 0.3698 0.0
H239 H 0.09559 0.59848 0.399 0.0
H240 H 0.12412 0.63442 0.43594 0.0
H241 H 0.17078 0.66785 0.45557 0.0
H242 H 0.11565 0.60427 0.49339 0.0
H243 H 0.06867 0.5711 0.47394 0.0
N244 N 1.03276 0.56713 0.44822 0.0
N245 N 1.00853 0.54779 0.42182 0.0
N246 N 0.06644 0.58052 0.42583 0.0
C247 C 1.00528 0.55012 0.43819 0.0
C248 C 1.03917 0.56326 0.41554 0.0
C249 C 0.06333 0.58223 0.44219 0.0
C250 C 0.97267 0.5328 0.4455 0.0
C251 C 0.96864 0.54468 0.46095 0.0
C252 C 0.94091 0.52502 0.46972 0.0
C253 C 0.91681 0.49296 0.46326 0.0
C254 C 0.91929 0.48238 0.44717 0.0
C255 C 0.94698 0.50227 0.4383 0.0
C256 C 0.04309 0.56135 0.3977 0.0
C257 C 1.01601 0.53969 0.38701 0.0
C258 C 1.01996 0.53815 0.3702 0.0
C259 C 0.05102 0.55834 0.36369 0.0
C260 C 0.07806 0.57991 0.3744 0.0
C261 C 0.07418 0.58133 0.39118 0.0
C262 C 0.09269 0.60044 0.45347 0.0
C263 C 0.1221 0.62734 0.44838 0.0
C264 C 0.52896 0.1176 0.79139 0.0
C265 C 0.53783 0.11524 0.80743 0.0
C266 C 0.53615 0.08556 0.81168 0.0
C267 C 0.5248 0.05821 0.80018 0.0
H268 H 0.45094 0.95335 0.79609 0.0
H269 H 0.44542 0.90652 0.81029 0.0
H270 H 0.47288 0.8697 0.76713 0.0
H271 H 0.47926 0.91744 0.75293 0.0
H272 H 0.48712 0.9611 0.72028 0.0
H273 H 0.49849 0.97029 0.6916 0.0
H274 H 0.52726 0.07449 0.70129 0.0
H275 H 0.51664 0.06563 0.72993 0.0
H276 H 0.51128 0.09281 0.76753 0.0
H277 H 0.53022 0.14042 0.78787 0.0
H278 H 0.54274 0.08322 0.82401 0.0
H279 H 0.52331 0.0354 0.80386 0.0
N280 N 0.4891 0.99989 0.77753 0.0
N281 N 0.48245 0.97656 0.75069 0.0
N282 N 0.506 0.03482 0.75598 0.0
C283 C 0.47858 0.97255 0.76693 0.0
C284 C 0.49589 1.00774 0.74512 0.0
C285 C 0.50285 1.03101 0.77221 0.0
C286 C 0.46648 0.93957 0.77355 0.0
C287 C 0.45503 0.93484 0.78947 0.0
C288 C 0.45147 0.90769 0.79758 0.0
C289 C 0.45933 0.88472 0.78995 0.0
C290 C 0.46722 0.8874 0.77341 0.0
C291 C 0.47072 0.91463 0.76525 0.0
C292 C 0.50108 1.01262 0.72749 0.0
C293 C 0.49574 0.98595 0.7163 0.0
C294 C 0.50215 0.99118 0.69983 0.0
C295 C 0.51398 1.02318 0.69416 0.0
C296 C 0.51878 0.04968 0.7053 0.0
C297 C 0.51246 0.04449 0.72174 0.0
C298 C 0.51552 0.06034 0.78415 0.0
C299 C 0.51822 0.09047 0.77978 0.0
C300 C 0.626 0.40226 0.10506 0.0
C301 C 0.61926 0.39446 0.12134 0.0
C302 C 0.58977 0.39037 0.12764 0.0
C303 C 0.56876 0.39676 0.11832 0.0
H304 H 0.5058 0.42958 0.12794 0.0
H305 H 0.47322 0.44642 0.14474 0.0
H306 H 0.46123 0.49645 0.10472 0.0
H307 H 0.49317 0.47912 0.08776 0.0
H308 H 0.51425 0.46508 0.05301 0.0
H309 H 0.52629 0.48568 0.02603 0.0
H310 H 0.6105 0.47074 0.02512 0.0
H311 H 0.59869 0.45024 0.05239 0.0
H312 H 0.61192 0.41694 0.08355 0.0
H313 H 0.64874 0.40572 0.09997 0.0
H314 H 0.58393 0.38405 0.14012 0.0
H315 H 0.54701 0.3949 0.12389 0.0
N316 N 0.53777 0.4282 0.10299 0.0
N317 N 0.52831 0.4519 0.08074 0.0
N318 N 0.56427 0.43026 0.07864 0.0
C319 C 0.52265 0.44349 0.09637 0.0
C320 C 0.54892 0.44528 0.07175 0.0
C321 C 0.55846 0.42134 0.09427 0.0
C322 C 0.50203 0.45286 0.10645 0.0
C323 C 0.49616 0.44408 0.12267 0.0
C324 C 0.47772 0.45396 0.13237 0.0
C325 C 0.46473 0.47279 0.12606 0.0
C326 C 0.47059 0.48158 0.10986 0.0
C327 C 0.48897 0.47168 0.10015 0.0
C328 C 0.55554 0.45603 0.05492 0.0
C329 C 0.53531 0.46602 0.04711 0.0
C330 C 0.54207 0.47767 0.03157 0.0
C331 C 0.5693 0.47978 0.02346 0.0
C332 C 0.58948 0.46961 0.03116 0.0
C333 C 0.58255 0.45765 0.04672 0.0
C334 C 0.57696 0.40768 0.10254 0.0
C335 C 0.605 0.40886 0.09571 0.0
H336 H 0.28102 0.57776 0.16551 0.0
H337 H 0.33132 0.57423 0.16584 0.0
H338 H 0.29135 0.50122 0.20178 0.0
H339 H 0.24054 0.50439 0.20138 0.0
H340 H 0.38109 0.57517 0.18455 0.0
H341 H 0.29525 0.43441 0.18649 0.0
H342 H 0.23559 0.3922 0.18369 0.0
H343 H 0.21998 0.45197 0.15061 0.0
H344 H 0.27956 0.49422 0.15306 0.0
H345 H 0.47584 0.49672 0.15824 0.0
H346 H 0.44117 0.51177 0.17484 0.0
H347 H 0.37384 0.48665 0.13316 0.0
H348 H 0.40755 0.47063 0.11675 0.0
H349 H 0.34117 0.46006 0.15965 0.0
H350 H 0.43085 0.56781 0.14539 0.0
H351 H 0.48933 0.61251 0.14489 0.0
H352 H 0.49648 0.62223 0.19726 0.0
H353 H 0.4381 0.57726 0.19805 0.0
C354 C 0.28348 0.56207 0.17403 0.0
C355 C 0.25661 0.54072 0.18312 0.0
C356 C 0.31235 0.56015 0.17424 0.0
C357 C 0.31467 0.53689 0.18355 0.0
C358 C 0.28976 0.51898 0.19435 0.0
C359 C 0.26072 0.52066 0.19403 0.0
C360 C 0.33862 0.52607 0.17899 0.0
C361 C 0.37256 0.54984 0.17942 0.0
C362 C 0.32734 0.49318 0.172 0.0
C363 C 0.29168 0.46756 0.17013 0.0
C364 C 0.27905 0.43842 0.17859 0.0
C365 C 0.24528 0.41452 0.17706 0.0
C366 C 0.22399 0.41946 0.16703 0.0
C367 C 0.23647 0.4482 0.1584 0.0
C368 C 0.27022 0.47212 0.15986 0.0
C369 C 0.45349 0.4942 0.15269 0.0
C370 C 0.44441 0.48256 0.13618 0.0
C371 C 0.4339 0.50303 0.16214 0.0
C372 C 0.40504 0.5004 0.1552 0.0
C373 C 0.39601 0.48879 0.13875 0.0
C374 C 0.41546 0.47995 0.12934 0.0
C375 C 0.38366 0.50933 0.16485 0.0
C376 C 0.35006 0.48507 0.16535 0.0
C377 C 0.39525 0.54196 0.17227 0.0
C378 C 0.43029 0.56889 0.17178 0.0
C379 C 0.44499 0.57927 0.15679 0.0
C380 C 0.47809 0.6047 0.15646 0.0
C381 C 0.49665 0.62012 0.17104 0.0
C382 C 0.4821 0.61021 0.18598 0.0
C383 C 0.44902 0.58476 0.18638 0.0
H384 H 0.52226 0.63981 0.17075 0.0
H385 H 0.19785 0.40099 0.1659 0.0
H386 H 0.80674 0.24828 0.51842 0.0
H387 H 0.83763 0.30877 0.52069 0.0
H388 H 0.76183 0.31098 0.54945 0.0
H389 H 0.73094 0.24953 0.54775 0.0
H390 H 0.76824 0.33997 0.52154 0.0
H391 H 0.84168 0.3568 0.56455 0.0
H392 H 0.87843 0.347 0.58222 0.0
H393 H 0.94512 0.36655 0.54338 0.0
H394 H 0.90858 0.37595 0.52536 0.0
H395 H 0.87834 0.50252 0.48573 0.0
H396 H 0.84744 0.46512 0.5071 0.0
H397 H 0.87328 0.39295 0.4875 0.0
H398 H 0.9037 0.4296 0.4663 0.0
H399 H 0.88982 0.41642 0.52309 0.0
H400 H 0.80234 0.3784 0.47923 0.0
H401 H 0.76306 0.38512 0.46185 0.0
H402 H 0.72103 0.40465 0.50442 0.0
H403 H 0.7606 0.39874 0.52206 0.0
C404 C 0.79726 0.26132 0.52596 0.0
C405 C 0.76589 0.24397 0.53257 0.0
C406 C 0.81509 0.29619 0.52727 0.0
C407 C 0.80193 0.31446 0.53516 0.0
C408 C 0.77231 0.29732 0.54324 0.0
C409 C 0.75458 0.26227 0.54211 0.0
C410 C 0.81544 0.34984 0.53155 0.0
C411 C 0.79471 0.35745 0.5225 0.0
C412 C 0.84991 0.37269 0.53284 0.0
C413 C 0.87233 0.36723 0.54359 0.0
C414 C 0.86411 0.35889 0.55973 0.0
C415 C 0.88493 0.3534 0.56982 0.0
C416 C 0.91412 0.3562 0.56394 0.0
C417 C 0.92255 0.3645 0.54794 0.0
C418 C 0.90182 0.37002 0.53779 0.0
C419 C 0.87683 0.47837 0.48586 0.0
C420 C 0.89322 0.46884 0.47429 0.0
C421 C 0.85937 0.45723 0.49807 0.0
C422 C 0.85859 0.42664 0.49891 0.0
C423 C 0.87391 0.41666 0.48706 0.0
C424 C 0.89087 0.43742 0.47482 0.0
C425 C 0.84275 0.40465 0.5122 0.0
C426 C 0.86319 0.39988 0.52302 0.0
C427 C 0.80801 0.38452 0.51264 0.0
C428 C 0.785 0.389 0.50196 0.0
C429 C 0.78519 0.3848 0.48489 0.0
C430 C 0.76275 0.38829 0.47498 0.0
C431 C 0.73973 0.39557 0.48202 0.0
C432 C 0.73903 0.39926 0.49898 0.0
C433 C 0.7615 0.39591 0.50893 0.0
H434 H 0.7223 0.39815 0.47433 0.0
H435 H 0.93019 0.35191 0.57177 0.0
H436 H 0.62833 0.79557 0.84238 0.0
H437 H 0.5962 0.82327 0.84171 0.0
H438 H 0.53127 0.75878 0.87693 0.0
H439 H 0.56421 0.73103 0.87801 0.0
H440 H 0.49724 0.75407 0.8501 0.0
H441 H 0.57117 0.84423 0.88558 0.0
H442 H 0.62441 0.88791 0.8987 0.0
H443 H 0.65155 0.93735 0.85418 0.0
H444 H 0.59875 0.89374 0.84069 0.0
H445 H 0.42268 0.8475 0.81484 0.0
H446 H 0.44093 0.82241 0.83514 0.0
H447 H 0.52882 0.84867 0.80856 0.0
H448 H 0.51131 0.87393 0.78855 0.0
H449 H 0.53923 0.87421 0.8427 0.0
H450 H 0.47009 0.77132 0.80688 0.0
H451 H 0.41684 0.72558 0.7947 0.0
H452 H 0.37989 0.70015 0.84247 0.0
H453 H 0.43276 0.74623 0.85491 0.0
C454 C 0.60825 0.78814 0.85061 0.0
C455 C 0.59871 0.76073 0.86011 0.0
C456 C 0.58974 0.80411 0.8502 0.0
C457 C 0.5613 0.79317 0.8593 0.0
C458 C 0.55312 0.76758 0.8698 0.0
C459 C 0.57186 0.75166 0.87031 0.0
C460 C 0.53774 0.80464 0.85537 0.0
C461 C 0.50598 0.78046 0.84901 0.0
C462 C 0.54891 0.83901 0.85411 0.0
C463 C 0.58082 0.86563 0.86212 0.0
C464 C 0.58853 0.86432 0.87855 0.0
C465 C 0.61865 0.88909 0.88606 0.0
C466 C 0.64133 0.9154 0.87728 0.0
C467 C 0.63391 0.917 0.86097 0.0
C468 C 0.60382 0.89229 0.8534 0.0
C469 C 0.44558 0.8473 0.81319 0.0
C470 C 0.46557 0.86276 0.80008 0.0
C471 C 0.45592 0.83302 0.82478 0.0
C472 C 0.48638 0.8342 0.8234 0.0
C473 C 0.50532 0.8478 0.80986 0.0
C474 C 0.495 0.86182 0.79829 0.0
C475 C 0.50034 0.8235 0.83635 0.0
C476 C 0.53006 0.84799 0.84448 0.0
C477 C 0.48712 0.7895 0.8394 0.0
C478 C 0.45513 0.76257 0.83181 0.0
C479 C 0.45043 0.75633 0.81477 0.0
C480 C 0.42035 0.73026 0.80782 0.0
C481 C 0.39493 0.71007 0.8178 0.0
C482 C 0.39954 0.71589 0.83475 0.0
C483 C 0.42953 0.74199 0.84175 0.0
H484 H 0.37172 0.68983 0.81239 0.0
H485 H 0.66465 0.93455 0.88311 0.0
H486 H 0.9088 0.49472 0.18196 0.0
H487 H 0.8511 0.44921 0.17958 0.0
H488 H 0.81834 0.52135 0.18492 0.0
H489 H 0.87605 0.56708 0.18717 0.0
H490 H 0.77398 0.45245 0.19772 0.0
H491 H 0.8357 0.51054 0.14951 0.0
H492 H 0.88532 0.52851 0.13335 0.0
H493 H 0.86351 0.4265 0.12625 0.0
H494 H 0.814 0.40809 0.14255 0.0
H495 H 0.64293 0.43239 0.14972 0.0
H496 H 0.69139 0.44374 0.16609 0.0
H497 H 0.70306 0.37222 0.13472 0.0
H498 H 0.65508 0.36229 0.1176 0.0
H499 H 0.75775 0.42341 0.13794 0.0
H500 H 0.68565 0.36245 0.17753 0.0
H501 H 0.63856 0.34087 0.19555 0.0
H502 H 0.67875 0.43853 0.22053 0.0
H503 H 0.72588 0.46089 0.20252 0.0
C504 C 0.8893 0.50079 0.18335 0.0
C505 C 0.89669 0.53436 0.18456 0.0
C506 C 0.85641 0.47475 0.18203 0.0
C507 C 0.83067 0.48206 0.18201 0.0
C508 C 0.83799 0.51533 0.18503 0.0
C509 C 0.87086 0.5414 0.18615 0.0
C510 C 0.79758 0.45702 0.17498 0.0
C511 C 0.77009 0.44582 0.18469 0.0
C512 C 0.79301 0.4472 0.15811 0.0
C513 C 0.82145 0.458 0.14742 0.0
C514 C 0.84155 0.49198 0.14452 0.0
C515 C 0.86966 0.50225 0.13534 0.0
C516 C 0.87763 0.47867 0.12881 0.0
C517 C 0.85734 0.44475 0.13134 0.0
C518 C 0.82928 0.43439 0.14056 0.0
C519 C 0.65529 0.41841 0.14656 0.0
C520 C 0.64527 0.39637 0.13246 0.0
C521 C 0.68294 0.42469 0.15603 0.0
C522 C 0.70074 0.40841 0.1519 0.0
C523 C 0.68975 0.38506 0.13821 0.0
C524 C 0.66239 0.37934 0.12845 0.0
C525 C 0.73315 0.41964 0.16053 0.0
C526 C 0.7609 0.42862 0.15108 0.0
C527 C 0.73776 0.42654 0.17772 0.0
C528 C 0.70933 0.41339 0.18859 0.0
C529 C 0.68436 0.37942 0.18678 0.0
C530 C 0.65767 0.36703 0.19702 0.0
C531 C 0.65565 0.38832 0.20917 0.0
C532 C 0.68036 0.42205 0.21112 0.0
C533 C 0.70713 0.43459 0.20092 0.0
H534 H 0.63495 0.37867 0.21708 0.0
H535 H 0.89947 0.48667 0.12177 0.0
H536 H 0.34409 0.89911 0.51428 0.0
H537 H 0.30359 0.84368 0.52177 0.0
H538 H 0.38159 0.82152 0.53091 0.0
H539 H 0.42224 0.87661 0.52246 0.0
H540 H 0.33915 0.77638 0.51073 0.0
H541 H 0.3273 0.81642 0.56191 0.0
H542 H 0.3237 0.85401 0.58332 0.0
H543 H 0.23264 0.83693 0.56079 0.0
H544 H 0.23588 0.79969 0.53909 0.0
H545 H 0.18325 0.62298 0.49591 0.0
H546 H 0.23047 0.66241 0.51448 0.0
H547 H 0.21529 0.74312 0.50166 0.0
H548 H 0.16896 0.70421 0.48304 0.0
H549 H 0.23238 0.74514 0.53599 0.0
H550 H 0.2658 0.72842 0.48005 0.0
H551 H 0.27071 0.6921 0.45832 0.0
H552 H 0.32296 0.66544 0.49205 0.0
H553 H 0.31797 0.70136 0.51401 0.0
C554 C 0.35273 0.88261 0.51802 0.0
C555 C 0.38629 0.89196 0.51733 0.0
C556 C 0.32956 0.85106 0.52268 0.0
C557 C 0.33949 0.82834 0.52705 0.0
C558 C 0.37335 0.83862 0.52763 0.0
C559 C 0.39656 0.87017 0.52281 0.0
C560 C 0.31401 0.79252 0.52773 0.0
C561 C 0.31629 0.7692 0.51685 0.0
C562 C 0.28421 0.78274 0.5358 0.0
C563 C 0.28182 0.80507 0.54886 0.0
C564 C 0.30655 0.82076 0.56146 0.0
C565 C 0.30457 0.84203 0.57366 0.0
C566 C 0.27793 0.84781 0.57343 0.0
C567 C 0.25321 0.83233 0.56099 0.0
C568 C 0.25506 0.81104 0.54875 0.0
C569 C 0.18992 0.6491 0.49731 0.0
C570 C 0.17307 0.66092 0.48798 0.0
C571 C 0.21659 0.67143 0.50793 0.0
C572 C 0.22609 0.70553 0.50947 0.0
C573 C 0.20806 0.71681 0.50076 0.0
C574 C 0.18194 0.69475 0.49 0.0
C575 C 0.2573 0.73087 0.51816 0.0
C576 C 0.25599 0.75196 0.53076 0.0
C577 C 0.28815 0.73857 0.51186 0.0
C578 C 0.29113 0.71712 0.49867 0.0
C579 C 0.27811 0.7146 0.48283 0.0
C580 C 0.28094 0.69414 0.47048 0.0
C581 C 0.29703 0.67638 0.47381 0.0
C582 C 0.31041 0.67912 0.4895 0.0
C583 C 0.30757 0.6995 0.5019 0.0
H584 H 0.29922 0.66057 0.46423 0.0
H585 H 0.27646 0.86431 0.58288 0.0
H586 H 0.61087 0.40333 0.86439 0.0
H587 H 0.62008 0.35761 0.87126 0.0
H588 H 0.52158 0.28545 0.85203 0.0
H589 H 0.51243 0.3304 0.84499 0.0
H590 H 0.53961 0.26244 0.87795 0.0
H591 H 0.58883 0.31811 0.82664 0.0
H592 H 0.6285 0.36865 0.81331 0.0
H593 H 0.70819 0.37779 0.84389 0.0
H594 H 0.66883 0.32743 0.85747 0.0
H595 H 0.5022 0.1449 0.81558 0.0
H596 H 0.51786 0.1927 0.83524 0.0
H597 H 0.61016 0.19665 0.8469 0.0
H598 H 0.59413 0.14801 0.82723 0.0
H599 H 0.61641 0.25788 0.83793 0.0
H600 H 0.56288 0.18156 0.8773 0.0
H601 H 0.52045 0.1299 0.88872 0.0
H602 H 0.44715 0.15819 0.88035 0.0
H603 H 0.48893 0.20974 0.86864 0.0
C604 C 0.59103 0.37768 0.86188 0.0
C605 C 0.56108 0.37049 0.85392 0.0
C606 C 0.59624 0.35165 0.86596 0.0
C607 C 0.57161 0.31818 0.86204 0.0
C608 C 0.54084 0.3111 0.85531 0.0
C609 C 0.53565 0.33693 0.85125 0.0
C610 C 0.57883 0.29046 0.86199 0.0
C611 C 0.55683 0.26142 0.86949 0.0
C612 C 0.60233 0.28965 0.8515 0.0
C613 C 0.62598 0.31931 0.84311 0.0
C614 C 0.61483 0.33096 0.83049 0.0
C615 C 0.63722 0.35956 0.82292 0.0
C616 C 0.67084 0.37645 0.82777 0.0
C617 C 0.68214 0.3647 0.84017 0.0
C618 C 0.65982 0.33616 0.8478 0.0
C619 C 0.52567 0.15578 0.82246 0.0
C620 C 0.54711 0.14314 0.81988 0.0
C621 C 0.53444 0.18277 0.8338 0.0
C622 C 0.56494 0.19781 0.84269 0.0
C623 C 0.58635 0.18503 0.8403 0.0
C624 C 0.57726 0.15747 0.82909 0.0
C625 C 0.57522 0.22921 0.85283 0.0
C626 C 0.60056 0.259 0.84723 0.0
C627 C 0.55464 0.23059 0.86499 0.0
C628 C 0.52919 0.19968 0.87212 0.0
C629 C 0.53769 0.17673 0.87783 0.0
C630 C 0.51373 0.14744 0.88436 0.0
C631 C 0.48114 0.14079 0.88528 0.0
C632 C 0.47243 0.16342 0.87967 0.0
C633 C 0.49629 0.19275 0.87313 0.0
H634 H 0.46262 0.11809 0.89033 0.0
H635 H 0.68813 0.39861 0.82192 0.0
H636 H 0.53282 0.93513 0.48102 0.0
H637 H 0.5324 0.88253 0.48437 0.0
H638 H 0.6217 0.93628 0.51502 0.0
H639 H 0.62302 0.98889 0.51094 0.0
H640 H 0.6291 0.893 0.50024 0.0
H641 H 0.53015 0.87575 0.52689 0.0
H642 H 0.47506 0.87059 0.52888 0.0
H643 H 0.43601 0.79211 0.49025 0.0
H644 H 0.49093 0.79709 0.48789 0.0
H645 H 0.62447 0.75235 0.53478 0.0
H646 H 0.62198 0.80218 0.52926 0.0
H647 H 0.53887 0.74313 0.49539 0.0
H648 H 0.54041 0.6924 0.50139 0.0
H649 H 0.52706 0.78728 0.51045 0.0
H650 H 0.6238 0.80267 0.48414 0.0
H651 H 0.67809 0.8063 0.48162 0.0
H652 H 0.72075 0.88751 0.51888 0.0
H653 H 0.66659 0.88409 0.52176 0.0
C654 C 0.55246 0.93593 0.48849 0.0
C655 C 0.57797 0.96715 0.49564 0.0
C656 C 0.55205 0.90528 0.49062 0.0
C657 C 0.57663 0.90397 0.50037 0.0
C658 C 0.60213 0.93532 0.50742 0.0
C659 C 0.60284 0.96594 0.50508 0.0
C660 C 0.57657 0.87086 0.50303 0.0
C661 C 0.60661 0.87025 0.50274 0.0
C662 C 0.54757 0.8397 0.50578 0.0
C663 C 0.51472 0.83703 0.5071 0.0
C664 C 0.50986 0.85757 0.51874 0.0
C665 C 0.47866 0.85465 0.51994 0.0
C666 C 0.45209 0.83108 0.50966 0.0
C667 C 0.45664 0.81039 0.49817 0.0
C668 C 0.48777 0.81324 0.4969 0.0
C669 C 0.60527 0.74936 0.52621 0.0
C670 C 0.58252 0.71712 0.51873 0.0
C671 C 0.60418 0.77861 0.52283 0.0
C672 C 0.58051 0.77769 0.51161 0.0
C673 C 0.55767 0.74557 0.50408 0.0
C674 C 0.55878 0.71614 0.50746 0.0
C675 C 0.57961 0.80983 0.50796 0.0
C676 C 0.54948 0.81019 0.50803 0.0
C677 C 0.60848 0.84076 0.50497 0.0
C678 C 0.64106 0.8429 0.50327 0.0
C679 C 0.64471 0.82115 0.49187 0.0
C680 C 0.67546 0.82319 0.49037 0.0
C681 C 0.70283 0.84706 0.50011 0.0
C682 C 0.69952 0.869 0.51135 0.0
C683 C 0.6688 0.86704 0.51292 0.0
H684 H 0.72663 0.8486 0.49893 0.0
H685 H 0.42793 0.82872 0.51061 0.0
H686 H 0.72036 0.62343 0.83433 0.0
H687 H 0.77221 0.62277 0.83803 0.0
H688 H 0.71816 0.51496 0.83234 0.0
H689 H 0.66607 0.51556 0.82864 0.0
H690 H 0.76478 0.53176 0.85539 0.0
H691 H 0.7719 0.5698 0.802 0.0
H692 H 0.77151 0.60585 0.78118 0.0
H693 H 0.85323 0.69183 0.80684 0.0
H694 H 0.85382 0.65634 0.82794 0.0
H695 H 0.90902 0.51334 0.85014 0.0
H696 H 0.8574 0.51352 0.84567 0.0
H697 H 0.91186 0.62109 0.84566 0.0
H698 H 0.96393 0.62094 0.84979 0.0
H699 H 0.86448 0.60425 0.82547 0.0
H700 H 0.85704 0.5671 0.87918 0.0
H701 H 0.85693 0.53171 0.90049 0.0
H702 H 0.77569 0.44505 0.87496 0.0
H703 H 0.77558 0.47987 0.85339 0.0
C704 C 0.71918 0.59939 0.83374 0.0
C705 C 0.688 0.56957 0.83098 0.0
C706 C 0.74943 0.59902 0.83581 0.0
C707 C 0.75047 0.56881 0.83533 0.0
C708 C 0.71924 0.53895 0.8328 0.0
C709 C 0.68896 0.53931 0.83056 0.0
C710 C 0.78354 0.56838 0.83758 0.0
C711 C 0.78628 0.5474 0.84859 0.0
C712 C 0.81294 0.58907 0.82928 0.0
C713 C 0.81268 0.61047 0.81664 0.0
C714 C 0.78962 0.59644 0.80327 0.0
C715 C 0.78939 0.61676 0.7914 0.0
C716 C 0.81227 0.65113 0.79271 0.0
C717 C 0.83549 0.66522 0.80586 0.0
C718 C 0.8358 0.64501 0.81777 0.0
C719 C 0.91048 0.53734 0.84939 0.0
C720 C 0.94196 0.56717 0.8506 0.0
C721 C 0.88021 0.53743 0.84686 0.0
C722 C 0.87915 0.5674 0.84567 0.0
C723 C 0.91062 0.59721 0.84653 0.0
C724 C 0.94103 0.59711 0.84891 0.0
C725 C 0.84591 0.56766 0.84336 0.0
C726 C 0.84307 0.58861 0.83231 0.0
C727 C 0.81645 0.54705 0.85171 0.0
C728 C 0.81656 0.52604 0.86459 0.0
C729 C 0.83931 0.54046 0.87806 0.0
C730 C 0.83927 0.52051 0.89019 0.0
C731 C 0.81639 0.48614 0.88906 0.0
C732 C 0.79344 0.47166 0.87581 0.0
C733 C 0.79342 0.4915 0.86363 0.0
H734 H 0.81638 0.47074 0.89847 0.0
H735 H 0.81206 0.66682 0.78351 0.0
H736 H 0.15372 0.69408 0.16977 0.0
H737 H 0.20665 0.74674 0.17378 0.0
H738 H 0.25877 0.69406 0.16161 0.0
H739 H 0.20576 0.64112 0.158 0.0
H740 H 0.29568 0.7387 0.18382 0.0
H741 H 0.24751 0.75198 0.13538 0.0
H742 H 0.20476 0.75324 0.11807 0.0
H743 H 0.20798 0.8312 0.1506 0.0
H744 H 0.25049 0.83011 0.16822 0.0
H745 H 0.45373 0.88998 0.17657 0.0
H746 H 0.40152 0.8368 0.17159 0.0
H747 H 0.34702 0.88634 0.185 0.0
H748 H 0.39887 0.93963 0.18942 0.0
H749 H 0.31183 0.84293 0.16168 0.0
H750 H 0.36049 0.82885 0.21016 0.0
H751 H 0.40367 0.82721 0.22695 0.0
H752 H 0.40014 0.75037 0.19347 0.0
H753 H 0.35721 0.75184 0.17637 0.0
C754 C 0.1763 0.69342 0.16784 0.0
C755 C 0.17446 0.6624 0.16337 0.0
C756 C 0.20713 0.72414 0.17006 0.0
C757 C 0.23802 0.72579 0.16777 0.0
C758 C 0.23616 0.69468 0.1635 0.0
C759 C 0.20531 0.66392 0.16133 0.0
C760 C 0.27174 0.75934 0.16996 0.0
C761 C 0.29899 0.7612 0.1787 0.0
C762 C 0.27742 0.78994 0.16375 0.0
C763 C 0.25193 0.79072 0.1532 0.0
C764 C 0.23894 0.76923 0.1389 0.0
C765 C 0.21478 0.76994 0.12902 0.0
C766 C 0.2036 0.79222 0.13326 0.0
C767 C 0.21663 0.81391 0.14735 0.0
C768 C 0.24078 0.81328 0.15728 0.0
C769 C 0.43081 0.89 0.17838 0.0
C770 C 0.43181 0.92034 0.18366 0.0
C771 C 0.40039 0.85889 0.17569 0.0
C772 C 0.36906 0.85614 0.17814 0.0
C773 C 0.37002 0.88653 0.18302 0.0
C774 C 0.40036 0.91757 0.18574 0.0
C775 C 0.33569 0.82232 0.1756 0.0
C776 C 0.3085 0.82042 0.16679 0.0
C777 C 0.33015 0.79166 0.18166 0.0
C778 C 0.35591 0.79072 0.1919 0.0
C779 C 0.3691 0.81178 0.20632 0.0
C780 C 0.3935 0.81085 0.2159 0.0
C781 C 0.40471 0.78877 0.21125 0.0
C782 C 0.39148 0.7675 0.19704 0.0
C783 C 0.3671 0.76836 0.1874 0.0
H784 H 0.4236 0.78809 0.21868 0.0
H785 H 0.18489 0.79273 0.1256 0.0
H786 H 0.63532 0.18936 0.49511 0.0
H787 H 0.63628 0.24287 0.4989 0.0
H788 H 0.53052 0.18984 0.50341 0.0
H789 H 0.52944 0.13627 0.49926 0.0
H790 H 0.54254 0.24049 0.48775 0.0
H791 H 0.5955 0.23601 0.53698 0.0
H792 H 0.63659 0.23225 0.55444 0.0
H793 H 0.71503 0.32007 0.53504 0.0
H794 H 0.67452 0.32396 0.51719 0.0
H795 H 0.53154 0.38438 0.51839 0.0
H796 H 0.53063 0.33112 0.51385 0.0
H797 H 0.63673 0.38438 0.51082 0.0
H798 H 0.63781 0.43762 0.51559 0.0
H799 H 0.62474 0.33367 0.52556 0.0
H800 H 0.5728 0.33813 0.47607 0.0
H801 H 0.53213 0.3432 0.4589 0.0
H802 H 0.45268 0.25657 0.47862 0.0
H803 H 0.49287 0.25122 0.49605 0.0
C804 C 0.61211 0.18881 0.4969 0.0
C805 C 0.58228 0.15756 0.49684 0.0
C806 C 0.6127 0.21993 0.49925 0.0
C807 C 0.58354 0.22162 0.50183 0.0
C808 C 0.55369 0.19035 0.50154 0.0
C809 C 0.55309 0.15923 0.49918 0.0
C810 C 0.58392 0.25537 0.50462 0.0
C811 C 0.56038 0.26051 0.49624 0.0
C812 C 0.60743 0.28293 0.5153 0.0
C813 C 0.63197 0.28005 0.52562 0.0
C814 C 0.62155 0.25427 0.53628 0.0
C815 C 0.64474 0.25214 0.54626 0.0
C816 C 0.6784 0.27585 0.54582 0.0
C817 C 0.68898 0.30164 0.53532 0.0
C818 C 0.66591 0.30381 0.52526 0.0
C819 C 0.55482 0.38513 0.51656 0.0
C820 C 0.58474 0.41646 0.51743 0.0
C821 C 0.55428 0.35407 0.51388 0.0
C822 C 0.58358 0.35247 0.51163 0.0
C823 C 0.61345 0.38375 0.5125 0.0
C824 C 0.61403 0.41476 0.5153 0.0
C825 C 0.58336 0.31881 0.50869 0.0
C826 C 0.60694 0.31368 0.51704 0.0
C827 C 0.56002 0.29135 0.49793 0.0
C828 C 0.53581 0.29449 0.48749 0.0
C829 C 0.54664 0.3203 0.47682 0.0
C830 C 0.52368 0.32321 0.46703 0.0
C831 C 0.48984 0.30028 0.4677 0.0
C832 C 0.4789 0.27434 0.47813 0.0
C833 C 0.50175 0.27135 0.48796 0.0
H834 H 0.47211 0.30257 0.46011 0.0
H835 H 0.69623 0.2744 0.55371 0.0
H836 H 0.47047 0.5204 0.83284 0.0
H837 H 0.41878 0.52108 0.8366 0.0
H838 H 0.47196 0.62856 0.83597 0.0
H839 H 0.52391 0.62793 0.83242 0.0
H840 H 0.42776 0.61601 0.85721 0.0
H841 H 0.4138 0.56708 0.80284 0.0
H842 H 0.41162 0.52712 0.78089 0.0
H843 H 0.33375 0.44543 0.8043 0.0
H844 H 0.33575 0.48488 0.82651 0.0
H845 H 0.28072 0.63032 0.85315 0.0
H846 H 0.33237 0.63057 0.84838 0.0
H847 H 0.27942 0.52265 0.84483 0.0
H848 H 0.22729 0.52239 0.84895 0.0
H849 H 0.32419 0.53608 0.82548 0.0
H850 H 0.33926 0.58563 0.88032 0.0
H851 H 0.34206 0.62616 0.90214 0.0
H852 H 0.41852 0.70721 0.87778 0.0
H853 H 0.41582 0.66723 0.85567 0.0
C854 C 0.47149 0.54436 0.83341 0.0
C855 C 0.50242 0.57406 0.83213 0.0
C856 C 0.44128 0.54474 0.83549 0.0
C857 C 0.43997 0.57485 0.83638 0.0
C858 C 0.471 0.60461 0.83533 0.0
C859 C 0.50123 0.60423 0.83319 0.0
C860 C 0.40691 0.57535 0.83856 0.0
C861 C 0.40538 0.59865 0.85002 0.0
C862 C 0.37641 0.55269 0.8297 0.0
C863 C 0.37518 0.52889 0.81642 0.0
C864 C 0.39638 0.54056 0.80337 0.0
C865 C 0.39515 0.51801 0.79087 0.0
C866 C 0.37263 0.48374 0.79123 0.0
C867 C 0.35123 0.47197 0.80406 0.0
C868 C 0.35238 0.49442 0.8166 0.0
C869 C 0.27967 0.60639 0.85149 0.0
C870 C 0.2486 0.57632 0.85169 0.0
C871 C 0.30998 0.60654 0.84884 0.0
C872 C 0.31152 0.57662 0.84662 0.0
C873 C 0.28035 0.54653 0.84651 0.0
C874 C 0.24991 0.54637 0.8489 0.0
C875 C 0.34484 0.57657 0.84427 0.0
C876 C 0.34648 0.55339 0.83273 0.0
C877 C 0.37547 0.59938 0.85306 0.0
C878 C 0.37707 0.62346 0.86627 0.0
C879 C 0.3565 0.61212 0.87957 0.0
C880 C 0.35808 0.635 0.89198 0.0
C881 C 0.38036 0.66925 0.89131 0.0
C882 C 0.40119 0.68069 0.87824 0.0
C883 C 0.39965 0.65794 0.86577 0.0
H884 H 0.38157 0.68691 0.90093 0.0
H885 H 0.37171 0.46632 0.78154 0.0
H886 H 1.00851 0.4475 0.17175 0.0
H887 H 0.9569 0.39622 0.17621 0.0
H888 H 0.90109 0.4389 0.15722 0.0
H889 H 0.95305 0.49113 0.15351 0.0
H890 H 0.86407 0.4028 0.17767 0.0
H891 H 0.91459 0.36879 0.13664 0.0
H892 H 0.95816 0.36164 0.1235 0.0
H893 H 0.96003 0.30523 0.16272 0.0
H894 H 0.91672 0.31238 0.17619 0.0
H895 H 0.7112 0.24153 0.17155 0.0
H896 H 0.76145 0.29338 0.16571 0.0
H897 H 0.82109 0.26161 0.19077 0.0
H898 H 0.77129 0.20931 0.19605 0.0
H899 H 0.85457 0.29182 0.16601 0.0
H900 H 0.80941 0.33718 0.20849 0.0
H901 H 0.76227 0.34125 0.21937 0.0
H902 H 0.74549 0.37018 0.17318 0.0
H903 H 0.79331 0.36775 0.16237 0.0
C904 C 0.9854 0.44619 0.16835 0.0
C905 C 0.986 0.47429 0.16197 0.0
C906 C 0.95524 0.41612 0.1708 0.0
C907 C 0.92364 0.41178 0.16665 0.0
C908 C 0.92423 0.44016 0.16051 0.0
C909 C 0.95448 0.47052 0.15826 0.0
C910 C 0.89065 0.3784 0.1689 0.0
C911 C 0.8624 0.37878 0.17485 0.0
C912 C 0.88663 0.34575 0.16552 0.0
C913 C 0.91267 0.34143 0.1575 0.0
C914 C 0.92445 0.35505 0.14251 0.0
C915 C 0.94908 0.35097 0.135 0.0
C916 C 0.96192 0.33308 0.14229 0.0
C917 C 0.9501 0.31914 0.1571 0.0
C918 C 0.92549 0.32317 0.16467 0.0
C919 C 0.73485 0.24515 0.17582 0.0
C920 C 0.73588 0.2201 0.18458 0.0
C921 C 0.76415 0.27568 0.17265 0.0
C922 C 0.7963 0.28314 0.17807 0.0
C923 C 0.79738 0.25779 0.18643 0.0
C924 C 0.76819 0.22738 0.18963 0.0
C925 C 0.82851 0.31645 0.17494 0.0
C926 C 0.85653 0.31598 0.16883 0.0
C927 C 0.83215 0.34891 0.17786 0.0
C928 C 0.80491 0.35252 0.18468 0.0
C929 C 0.7959 0.34493 0.20078 0.0
C930 C 0.76918 0.34711 0.20696 0.0
C931 C 0.75113 0.35647 0.19705 0.0
C932 C 0.75992 0.36382 0.18099 0.0
C933 C 0.78702 0.36237 0.17488 0.0
H934 H 0.73021 0.35777 0.20178 0.0
H935 H 0.98098 0.32995 0.13646 0.0
H936 H 0.09907 0.53277 0.104 0.0
H937 H 0.10128 0.53361 0.0742 0.0
H938 H 0.06053 0.59915 0.0751 0.0
H939 H 0.05902 0.59921 0.10493 0.0
H940 H 1.03529 0.52297 0.04998 0.0
H941 H 0.11622 0.6445 0.06587 0.0
H942 H 0.16499 0.68713 0.0827 0.0
H943 H 0.2208 0.64106 0.06614 0.0
H944 H 0.17211 0.59786 0.04943 0.0
H945 H 1.04039 0.56058 0.96753 0.0
H946 H 1.03837 0.56076 0.99702 0.0
H947 H 0.13726 0.57591 0.00035 0.0
H948 H 0.14075 0.57894 0.97091 0.0
H949 H 0.13383 0.61029 0.02408 0.0
H950 H 0.06066 0.49616 0.00503 0.0
H951 H 1.01413 0.44868 0.98903 0.0
H952 H 0.94569 0.47299 0.01184 0.0
H953 H 0.99187 0.52087 0.02783 0.0
C954 C 0.09053 0.54737 0.0979 0.0
C955 C 0.07893 0.566 0.10698 0.0
C956 C 0.09186 0.54784 0.08082 0.0
C957 C 0.0813 0.56663 0.07238 0.0
C958 C 0.06911 0.58471 0.08134 0.0
C959 C 0.06826 0.5847 0.09843 0.0
C960 C 0.08303 0.56734 0.05423 0.0
C961 C 0.05658 0.5423 0.04427 0.0
C962 C 0.11127 0.59171 0.04674 0.0
C963 C 0.1405 0.6178 0.05661 0.0
C964 C 0.1388 0.6433 0.06597 0.0
C965 C 0.16643 0.6676 0.07545 0.0
C966 C 0.19594 0.66674 0.07553 0.0
C967 C 0.19791 0.64165 0.0661 0.0
C968 C 0.17032 0.61727 0.05662 0.0
C969 C 0.0621 0.56459 0.97441 0.0
C970 C 0.0908 0.56978 0.96644 0.0
C971 C 0.06062 0.56401 0.99146 0.0
C972 C 0.08734 0.56755 0.00119 0.0
C973 C 0.11607 0.57288 0.99332 0.0
C974 C 0.11785 0.57414 0.97628 0.0
C975 C 0.08554 0.5662 0.01948 0.0
C976 C 0.11221 0.59096 0.02958 0.0
C977 C 0.05759 0.54109 0.02708 0.0
C978 C 1.02976 0.51229 0.01751 0.0
C979 C 1.03571 0.49151 0.00655 0.0
C980 C 1.00939 0.46451 0.9975 0.0
C981 C 0.97698 0.45788 0.99939 0.0
C982 C 0.97081 0.47818 0.01037 0.0
C983 C 0.99704 0.50524 0.01944 0.0
H984 H 0.95664 0.43696 0.99237 0.0
H985 H 0.21731 0.68557 0.08288 0.0
H986 H 0.61999 0.04265 0.43903 0.0
H987 H 0.62209 0.04301 0.40927 0.0
H988 H 0.56318 0.09112 0.40905 0.0
H989 H 0.55937 0.08879 0.43856 0.0
H990 H 0.54206 0.05013 0.38518 0.0
H991 H 0.65338 0.13174 0.40275 0.0
H992 H 0.70759 0.15421 0.41736 0.0
H993 H 0.72301 0.08039 0.39103 0.0
H994 H 0.66867 0.0572 0.37641 0.0
H995 H 0.58493 0.11201 0.30527 0.0
H996 H 0.58495 0.11044 0.3351 0.0
H997 H 0.60437 1.02851 0.33097 0.0
H998 H 0.60352 1.0294 0.3011 0.0
H999 H 0.64602 0.08579 0.35629 0.0
H1000 H 0.53233 1.00678 0.33825 0.0
H1001 H 0.4796 0.98982 0.32328 0.0
H1002 H 0.47131 0.0672 0.35067 0.0
H1003 H 0.5243 0.08496 0.36564 0.0
C1004 C 0.60761 0.05341 0.43262 0.0
C1005 C 0.58954 0.0657 0.44125 0.0
C1006 C 0.60899 0.05385 0.41553 0.0
C1007 C 0.59327 0.06764 0.40663 0.0
C1008 C 0.57549 0.08017 0.41536 0.0
C1009 C 0.57342 0.07896 0.43235 0.0
C1010 C 0.59449 0.06839 0.3883 0.0
C1011 C 0.56504 0.05843 0.37901 0.0
C1012 C 0.62414 0.07866 0.37985 0.0
C1013 C 0.65681 0.09251 0.38862 0.0
C1014 C 0.66823 0.12015 0.40017 0.0
C1015 C 0.69899 0.13304 0.40843 0.0
C1016 C 0.71869 0.11867 0.40516 0.0
C1017 C 0.7077 0.09145 0.39358 0.0
C1018 C 0.67693 0.07844 0.38528 0.0
C1019 C 0.58934 0.09375 0.31071 0.0
C1020 C 0.59417 0.07079 0.30077 0.0
C1021 C 0.58928 0.09283 0.32777 0.0
C1022 C 0.59469 0.06937 0.33534 0.0
C1023 C 0.6002 0.04688 0.32546 0.0
C1024 C 0.59954 0.0473 0.30838 0.0
C1025 C 0.59383 0.06786 0.35349 0.0
C1026 C 0.62324 0.07761 0.36263 0.0
C1027 C 0.56438 0.05822 0.36185 0.0
C1028 C 0.53245 0.04742 0.35294 0.0
C1029 C 0.51942 1.02038 0.34097 0.0
C1030 C 0.48945 1.01058 0.33251 0.0
C1031 C 0.47216 1.02748 0.33599 0.0
C1032 C 0.48476 0.05416 0.34797 0.0
C1033 C 0.51474 0.06409 0.35646 0.0
H1034 H 0.44896 1.01985 0.32942 0.0
H1035 H 0.7425 0.12869 0.41157 0.0
H1036 H 0.55525 0.52534 0.77141 0.0
H1037 H 0.5557 0.52637 0.74177 0.0
H1038 H 0.63758 0.62797 0.74632 0.0
H1039 H 0.6372 0.62723 0.77615 0.0
H1040 H 0.59124 0.62031 0.72322 0.0
H1041 H 0.64977 0.56281 0.73496 0.0
H1042 H 0.65815 0.5199 0.74704 0.0
H1043 H 0.57199 0.44205 0.71997 0.0
H1044 H 0.56281 0.48451 0.70789 0.0
H1045 H 0.62909 0.62603 0.63917 0.0
H1046 H 0.63118 0.62762 0.66895 0.0
H1047 H 0.55553 0.52322 0.6667 0.0
H1048 H 0.55357 0.52142 0.6369 0.0
H1049 H 0.60044 0.53359 0.68887 0.0
H1050 H 0.54036 0.58969 0.67771 0.0
H1051 H 0.5303 0.6317 0.66581 0.0
H1052 H 0.61713 0.71101 0.69183 0.0
H1053 H 0.62796 0.66945 0.70372 0.0
C1054 C 0.57343 0.54801 0.76619 0.0
C1055 C 0.59629 0.57619 0.77632 0.0
C1056 C 0.57373 0.54848 0.74914 0.0
C1057 C 0.59692 0.57711 0.74166 0.0
C1058 C 0.61946 0.60551 0.75171 0.0
C1059 C 0.61929 0.605 0.76882 0.0
C1060 C 0.59746 0.57723 0.72339 0.0
C1061 C 0.59378 0.60165 0.71573 0.0
C1062 C 0.59989 0.55243 0.71346 0.0
C1063 C 0.60544 0.52684 0.72064 0.0
C1064 C 0.63246 0.53654 0.73168 0.0
C1065 C 0.63738 0.5123 0.73851 0.0
C1066 C 0.61557 0.47827 0.73431 0.0
C1067 C 0.58884 0.46842 0.72323 0.0
C1068 C 0.58379 0.49256 0.71637 0.0
C1069 C 0.61264 0.60344 0.64498 0.0
C1070 C 0.59106 0.57362 0.63548 0.0
C1071 C 0.61385 0.60438 0.6621 0.0
C1072 C 0.59318 0.57567 0.67028 0.0
C1073 C 0.57182 0.54579 0.66082 0.0
C1074 C 0.57077 0.54477 0.6437 0.0
C1075 C 0.59403 0.57658 0.68862 0.0
C1076 C 0.59797 0.55234 0.69632 0.0
C1077 C 0.59162 0.60142 0.69858 0.0
C1078 C 0.58516 0.62646 0.69147 0.0
C1079 C 0.55745 0.61609 0.68079 0.0
C1080 C 0.55159 0.63982 0.67407 0.0
C1081 C 0.57312 0.674 0.67803 0.0
C1082 C 0.60051 0.68452 0.68875 0.0
C1083 C 0.60651 0.66089 0.6955 0.0
H1084 H 0.56853 0.69234 0.67281 0.0
H1085 H 0.61942 0.45954 0.73961 0.0
H1086 H 0.61322 0.10855 0.54792 0.0
H1087 H 0.60495 0.10589 0.57732 0.0
H1088 H 0.51664 1.00906 0.56849 0.0
H1089 H 0.52439 1.01164 0.53929 0.0
H1090 H 0.50633 0.04831 0.59003 0.0
H1091 H 0.58983 1.01676 0.58203 0.0
H1092 H 0.64348 1.02501 0.57299 0.0
H1093 H 0.69487 0.11436 0.60517 0.0
H1094 H 0.64147 0.10687 0.61425 0.0
H1095 H 0.47853 0.9826 0.66713 0.0
H1096 H 0.49093 0.9926 0.63854 0.0
H1097 H 0.57816 0.08741 0.65309 0.0
H1098 H 0.56664 0.07701 0.68175 0.0
H1099 H 0.5912 0.05457 0.62915 0.0
H1100 H 0.50791 0.08428 0.63849 0.0
H1101 H 0.45436 0.07635 0.64748 0.0
H1102 H 0.40267 0.99132 0.61273 0.0
H1103 H 0.45593 0.99845 0.60369 0.0
C1104 C 0.59206 0.08671 0.55226 0.0
C1105 C 0.5695 0.0603 0.54126 0.0
C1106 C 0.58742 0.08519 0.56905 0.0
C1107 C 0.56029 0.05716 0.57509 0.0
C1108 C 0.53769 1.03096 0.5641 0.0
C1109 C 0.54225 0.03247 0.54739 0.0
C1110 C 0.55516 0.05474 0.59284 0.0
C1111 C 0.52477 0.04939 0.59857 0.0
C1112 C 0.57958 0.05708 0.60404 0.0
C1113 C 0.61167 0.06145 0.59869 0.0
C1114 C 0.61257 0.0383 0.58709 0.0
C1115 C 0.64293 0.04282 0.58197 0.0
C1116 C 0.67256 0.07025 0.58846 0.0
C1117 C 0.6719 0.09316 0.60013 0.0
C1118 C 0.6416 0.08878 0.60528 0.0
C1119 C 0.50054 1.00543 0.66427 0.0
C1120 C 0.5215 1.02907 0.67674 0.0
C1121 C 0.50741 1.01127 0.64791 0.0
C1122 C 0.53521 0.041 0.64367 0.0
C1123 C 0.55648 0.0644 0.65608 0.0
C1124 C 0.54967 0.05854 0.67245 0.0
C1125 C 0.54211 0.04753 0.62628 0.0
C1126 C 0.57284 0.05373 0.62064 0.0
C1127 C 0.51801 0.04602 0.61514 0.0
C1128 C 0.48592 0.04174 0.62051 0.0
C1129 C 0.48512 0.06374 0.63285 0.0
C1130 C 0.45482 0.05941 0.63794 0.0
C1131 C 0.42513 0.0333 0.63071 0.0
C1132 C 0.42569 1.01151 0.61834 0.0
C1133 C 0.45593 1.0157 0.61321 0.0
H1134 H 0.40169 1.03 0.63467 0.0
H1135 H 0.69604 0.07371 0.58448 0.0
H1136 H 0.60616 0.6144 0.88407 0.0
H1137 H 0.60916 0.60863 0.91345 0.0
H1138 H 0.5904 0.50777 0.90325 0.0
H1139 H 0.5881 0.51348 0.87418 0.0
H1140 H 0.56521 0.56752 0.93336 0.0
H1141 H 0.6312 0.48851 0.92945 0.0
H1142 H 0.67291 0.48448 0.9128 0.0
H1143 H 0.71301 0.58668 0.90124 0.0
H1144 H 0.67188 0.59151 0.91801 0.0
H1145 H 0.52565 0.46397 0.99765 0.0
H1146 H 0.53686 0.48774 0.97118 0.0
H1147 H 0.64045 0.54949 0.98582 0.0
H1148 H 0.62936 0.52545 0.01239 0.0
H1149 H 0.63394 0.52358 0.95568 0.0
H1150 H 0.59057 0.58394 0.9844 0.0
H1151 H 0.55181 0.59228 0.00148 0.0
H1152 H 0.47364 0.53697 0.96485 0.0
H1153 H 0.5118 0.52785 0.94763 0.0
C1154 C 0.60276 0.59106 0.88813 0.0
C1155 C 0.59716 0.56451 0.87681 0.0
C1156 C 0.60449 0.58781 0.90489 0.0
C1157 C 0.60068 0.55802 0.91052 0.0
C1158 C 0.59431 0.53131 0.8992 0.0
C1159 C 0.59282 0.53459 0.88255 0.0
C1160 C 0.60229 0.55397 0.92819 0.0
C1161 C 0.58044 0.55821 0.93829 0.0
C1162 C 0.62289 0.54274 0.93473 0.0
C1163 C 0.64829 0.54029 0.92494 0.0
C1164 C 0.64907 0.51021 0.92346 0.0
C1165 C 0.67258 0.50777 0.91397 0.0
C1166 C 0.69555 0.53529 0.90595 0.0
C1167 C 0.69515 0.56535 0.90743 0.0
C1168 C 0.67172 0.56795 0.91692 0.0
C1169 C 0.5508 0.48271 0.99526 0.0
C1170 C 0.5766 0.49302 0.00711 0.0
C1171 C 0.55716 0.49636 0.98015 0.0
C1172 C 0.58938 0.52092 0.97664 0.0
C1173 C 0.61537 0.53071 0.98831 0.0
C1174 C 0.60904 0.51687 0.00343 0.0
C1175 C 0.59573 0.53564 0.96062 0.0
C1176 C 0.61911 0.53343 0.95084 0.0
C1177 C 0.57711 0.54949 0.9545 0.0
C1178 C 0.55404 0.55506 0.96476 0.0
C1179 C 0.56507 0.57337 0.98002 0.0
C1180 C 0.5432 0.57826 0.98973 0.0
C1181 C 0.51027 0.56513 0.98426 0.0
C1182 C 0.49915 0.54713 0.96906 0.0
C1183 C 0.52091 0.54213 0.95932 0.0
H1184 H 0.49338 0.56894 0.9918 0.0
H1185 H 0.71369 0.53332 0.89858 0.0
H1186 H 1.03106 0.55939 0.20937 0.0
H1187 H 1.02948 0.55812 0.23888 0.0
H1188 H 0.12915 0.57511 0.24136 0.0
H1189 H 0.13096 0.5763 0.21157 0.0
H1190 H 0.08733 0.52588 0.26095 0.0
H1191 H 0.11655 0.63858 0.25191 0.0
H1192 H 0.11108 0.68259 0.23912 0.0
H1193 H 1.01423 0.64518 0.25789 0.0
H1194 H 1.01892 0.60064 0.27061 0.0
H1195 H 0.10338 0.56133 0.34741 0.0
H1196 H 0.11148 0.56356 0.31812 0.0
H1197 H 1.01582 0.5547 0.31008 0.0
H1198 H 1.00823 0.55408 0.33941 0.0
H1199 H 0.06066 0.60267 0.29343 0.0
H1200 H 1.02974 0.48838 0.30117 0.0
H1201 H 1.03393 0.44316 0.31343 0.0
H1202 H 0.13273 0.4825 0.2969 0.0
H1203 H 0.12928 0.52824 0.28473 0.0
C1204 C 0.05281 0.56312 0.21613 0.0
C1205 C 0.08132 0.56838 0.20811 0.0
C1206 C 0.05182 0.56235 0.23303 0.0
C1207 C 0.07937 0.56703 0.24232 0.0
C1208 C 0.10769 0.57161 0.23439 0.0
C1209 C 0.1087 0.57237 0.2174 0.0
C1210 C 0.07826 0.56712 0.26032 0.0
C1211 C 0.08209 0.54303 0.26813 0.0
C1212 C 0.07074 0.58909 0.26958 0.0
C1213 C 0.068 0.61612 0.26212 0.0
C1214 C 0.094 0.63961 0.25323 0.0
C1215 C 0.09105 0.66467 0.246 0.0
C1216 C 0.0623 0.66664 0.24767 0.0
C1217 C 1.03648 0.64361 0.2566 0.0
C1218 C 1.03929 0.61848 0.26385 0.0
C1219 C 0.08413 0.56005 0.33943 0.0
C1220 C 0.05516 0.55759 0.34579 0.0
C1221 C 0.08865 0.56094 0.32265 0.0
C1222 C 0.06413 0.55898 0.31188 0.0
C1223 C 1.03506 0.55618 0.31816 0.0
C1224 C 1.0306 0.55549 0.33493 0.0
C1225 C 0.06911 0.56098 0.2941 0.0
C1226 C 0.06611 0.58561 0.28632 0.0
C1227 C 0.07728 0.53943 0.28488 0.0
C1228 C 0.07938 0.51194 0.2922 0.0
C1229 C 0.05246 0.48755 0.30027 0.0
C1230 C 0.05468 0.46179 0.30718 0.0
C1231 C 0.08361 0.46002 0.30599 0.0
C1232 C 0.11036 0.48394 0.29784 0.0
C1233 C 0.10827 0.50977 0.29093 0.0
H1234 H 0.08528 0.44005 0.31134 0.0
H1235 H 0.06005 0.68604 0.24205 0.0
loop_
_geom_bond_atom_site_label_1
_geom_bond_atom_site_label_2
_geom_bond_distance
_geom_bond_site_symmetry_2
_ccdc_geom_bond_type
Tb0 C9 2.764 1_455 S
Tb0 O10 2.325 1_455 S
Tb0 O13 2.303 . S
Tb0 O17 2.322 . S
Tb0 O18 2.349 . S
Tb0 O21 2.415 1_455 S
Tb0 O22 2.399 1_455 S
Tb1 O11 2.322 . S
Tb1 O12 2.349 . S
Tb1 O14 2.415 . S
Tb1 O15 2.399 . S
Tb1 O16 2.325 . S
Tb1 O19 2.303 . S
Tb1 C30 2.764 . S
C2 O18 1.261 . S
C2 O19 1.257 . S
C3 C6 1.358 . S
C3 C7 1.332 . S
C3 C9 1.504 . S
C4 C5 1.373 . S
C4 C8 1.308 . S
C5 C4 1.373 . S
C5 C6 1.429 . S
C5 H32 0.932 . S
C6 C3 1.358 . S
C6 C5 1.429 . S
C6 H33 0.930 . S
C7 C3 1.332 . S
C7 C8 1.394 . S
C7 H34 0.932 . S
C8 C4 1.308 . S
C8 C7 1.394 . S
C8 H35 0.929 . S
C9 Tb0 2.764 1_655 S
C9 C3 1.504 . S
C9 O21 1.239 . S
C9 O22 1.263 . S
O10 Tb0 2.325 1_655 S
O10 C20 1.236 . S
O11 Tb1 2.322 . S
O11 C20 1.257 1_455 S
O12 Tb1 2.349 . S
O12 C23 1.261 . S
O13 Tb0 2.303 . S
O13 C23 1.257 . S
O14 Tb1 2.415 . S
O14 C30 1.239 . S
O15 Tb1 2.399 . S
O15 C30 1.263 . S
O16 Tb1 2.325 . S
O16 C31 1.236 . S
O17 Tb0 2.322 . S
O17 C31 1.257 . S
O18 Tb0 2.349 . S
O18 C2 1.261 . S
O19 Tb1 2.303 . S
O19 C2 1.257 . S
C20 O10 1.236 . S
C20 O11 1.257 1_655 S
O21 Tb0 2.415 1_655 S
O21 C9 1.239 . S
O22 Tb0 2.399 1_655 S
O22 C9 1.263 . S
C23 O12 1.261 . S
C23 O13 1.257 . S
C24 C27 1.358 . S
C24 C28 1.332 . S
C24 C30 1.504 . S
C25 C26 1.373 . S
C25 C29 1.308 . S
C26 C25 1.373 . S
C26 C27 1.429 . S
C26 H36 0.932 . S
C27 C24 1.358 . S
C27 C26 1.429 . S
C27 H37 0.930 . S
C28 C24 1.332 . S
C28 C29 1.394 . S
C28 H38 0.932 . S
C29 C25 1.308 . S
C29 C28 1.394 . S
C29 H39 0.929 . S
C30 Tb1 2.764 . S
C30 O14 1.239 . S
C30 O15 1.263 . S
C30 C24 1.504 . S
C31 O16 1.236 . S
C31 O17 1.257 . S
H32 C5 0.932 . S
H33 C6 0.930 . S
H34 C7 0.932 . S
H35 C8 0.929 . S
H36 C26 0.932 . S
H37 C27 0.930 . S
H38 C28 0.932 . S
H39 C29 0.929 . S
Tb40 C49 2.764 1_545 S
Tb40 O50 2.325 1_545 S
Tb40 O53 2.303 . S
Tb40 O57 2.322 . S
Tb40 O58 2.349 . S
Tb40 O61 2.415 1_545 S
Tb40 O62 2.399 1_545 S
Tb41 O51 2.322 1_545 S
Tb41 O52 2.349 . S
Tb41 O54 2.415 . S
Tb41 O55 2.399 . S
Tb41 O56 2.325 . S
Tb41 O59 2.303 . S
Tb41 C70 2.764 . S
C42 O58 1.261 . S
C42 O59 1.257 . S
C43 C46 1.358 . S
C43 C47 1.332 . S
C43 C49 1.504 . S
C44 C45 1.373 . S
C44 C48 1.308 . S
C45 C44 1.373 . S
C45 C46 1.429 . S
C45 H72 0.932 . S
C46 C43 1.358 . S
C46 C45 1.429 . S
C46 H73 0.930 . S
C47 C43 1.332 . S
C47 C48 1.394 . S
C47 H74 0.932 . S
C48 C44 1.308 . S
C48 C47 1.394 . S
C48 H75 0.929 . S
C49 Tb40 2.764 1_565 S
C49 C43 1.504 . S
C49 O61 1.239 . S
C49 O62 1.263 . S
O50 Tb40 2.325 1_565 S
O50 C60 1.236 . S
O51 Tb41 2.322 1_565 S
O51 C60 1.257 . S
O52 Tb41 2.349 . S
O52 C63 1.261 . S
O53 Tb40 2.303 . S
O53 C63 1.257 . S
O54 Tb41 2.415 . S
O54 C70 1.239 . S
O55 Tb41 2.399 . S
O55 C70 1.263 . S
O56 Tb41 2.325 . S
O56 C71 1.236 . S
O57 Tb40 2.322 . S
O57 C71 1.257 . S
O58 Tb40 2.349 . S
O58 C42 1.261 . S
O59 Tb41 2.303 . S
O59 C42 1.257 . S
C60 O50 1.236 . S
C60 O51 1.257 . S
O61 Tb40 2.415 1_565 S
O61 C49 1.239 . S
O62 Tb40 2.399 1_565 S
O62 C49 1.263 . S
C63 O52 1.261 . S
C63 O53 1.257 . S
C64 C67 1.358 . S
C64 C68 1.332 . S
C64 C70 1.504 . S
C65 C66 1.373 . S
C65 C69 1.308 . S
C66 C65 1.373 . S
C66 C67 1.429 . S
C66 H76 0.932 . S
C67 C64 1.358 . S
C67 C66 1.429 . S
C67 H77 0.930 . S
C68 C64 1.332 . S
C68 C69 1.394 . S
C68 H78 0.932 . S
C69 C65 1.308 . S
C69 C68 1.394 . S
C69 H79 0.929 . S
C70 Tb41 2.764 . S
C70 O54 1.239 . S
C70 O55 1.263 . S
C70 C64 1.504 . S
C71 O56 1.236 . S
C71 O57 1.257 . S
H72 C45 0.932 . S
H73 C46 0.930 . S
H74 C47 0.932 . S
H75 C48 0.929 . S
H76 C66 0.932 . S
H77 C67 0.930 . S
H78 C68 0.932 . S
H79 C69 0.929 . S
Tb80 C89 2.764 . S
Tb80 O90 2.325 . S
Tb80 O93 2.303 . S
Tb80 O97 2.322 . S
Tb80 O98 2.349 . S
Tb80 O101 2.415 . S
Tb80 O102 2.399 . S
Tb81 O91 2.322 . S
Tb81 O92 2.349 . S
Tb81 O94 2.415 . S
Tb81 O95 2.399 . S
Tb81 O96 2.325 . S
Tb81 O99 2.303 . S
Tb81 C110 2.764 . S
C82 O98 1.261 . S
C82 O99 1.257 . S
C83 C86 1.358 . S
C83 C87 1.332 . S
C83 C89 1.504 . S
C84 C85 1.373 . S
C84 C88 1.308 . S
C85 C84 1.373 . S
C85 C86 1.429 . S
C85 H112 0.932 . S
C86 C83 1.358 . S
C86 C85 1.429 . S
C86 H113 0.930 . S
C87 C83 1.332 . S
C87 C88 1.394 . S
C87 H114 0.932 . S
C88 C84 1.308 . S
C88 C87 1.394 . S
C88 H115 0.929 . S
C89 Tb80 2.764 . S
C89 C83 1.504 . S
C89 O101 1.239 . S
C89 O102 1.263 . S
O90 Tb80 2.325 . S
O90 C100 1.236 . S
O91 Tb81 2.322 . S
O91 C100 1.257 . S
O92 Tb81 2.349 . S
O92 C103 1.261 . S
O93 Tb80 2.303 . S
O93 C103 1.257 . S
O94 Tb81 2.415 . S
O94 C110 1.239 . S
O95 Tb81 2.399 . S
O95 C110 1.263 . S
O96 Tb81 2.325 . S
O96 C111 1.236 . S
O97 Tb80 2.322 . S
O97 C111 1.257 . S
O98 Tb80 2.349 . S
O98 C82 1.261 . S
O99 Tb81 2.303 . S
O99 C82 1.257 . S
C100 O90 1.236 . S
C100 O91 1.257 . S
O101 Tb80 2.415 . S
O101 C89 1.239 . S
O102 Tb80 2.399 . S
O102 C89 1.263 . S
C103 O92 1.261 . S
C103 O93 1.257 . S
C104 C107 1.358 . S
C104 C108 1.332 . S
C104 C110 1.504 . S
C105 C106 1.373 . S
C105 C109 1.308 . S
C106 C105 1.373 . S
C106 C107 1.429 . S
C106 H116 0.932 . S
C107 C104 1.358 . S
C107 C106 1.429 . S
C107 H117 0.930 . S
C108 C104 1.332 . S
C108 C109 1.394 . S
C108 H118 0.932 . S
C109 C105 1.308 . S
C109 C108 1.394 . S
C109 H119 0.929 . S
C110 Tb81 2.764 . S
C110 O94 1.239 . S
C110 O95 1.263 . S
C110 C104 1.504 . S
C111 O96 1.236 . S
C111 O97 1.257 . S
H112 C85 0.932 . S
H113 C86 0.930 . S
H114 C87 0.932 . S
H115 C88 0.929 . S
H116 C106 0.932 . S
H117 C107 0.930 . S
H118 C108 0.932 . S
H119 C109 0.929 . S
C120 C121 1.384 . S
C120 H133 0.947 . S
C120 C155 1.382 . S
C121 C120 1.384 . S
C121 C122 1.378 . S
C122 C121 1.378 . S
C122 C123 1.378 . S
C122 H134 0.952 . S
C123 C122 1.378 . S
C123 H135 0.950 . S
C123 C154 1.383 . S
H124 C143 0.947 . S
H125 C144 0.946 . S
H126 C146 0.953 . S
H127 C147 0.945 . S
H128 C149 0.952 . S
H129 C150 0.949 . S
H130 C152 0.950 1_565 S
H131 C153 0.943 1_565 S
H132 C155 0.951 . S
H133 C120 0.947 . S
H134 C122 0.952 . S
H135 C123 0.950 . S
N136 C139 1.382 . S
N136 C141 1.363 1_545 S
N137 C139 1.371 . S
N137 C140 1.372 . S
N138 C140 1.349 1_565 S
N138 C141 1.379 . S
C139 N136 1.382 . S
C139 N137 1.371 . S
C139 C142 1.480 . S
C140 N137 1.372 . S
C140 N138 1.349 1_545 S
C140 C148 1.457 . S
C141 N136 1.363 1_565 S
C141 N138 1.379 . S
C141 C154 1.479 . S
C142 C139 1.480 . S
C142 C143 1.383 . S
C142 C147 1.385 . S
C143 H124 0.947 . S
C143 C142 1.383 . S
C143 C144 1.388 . S
C144 H125 0.946 . S
C144 C143 1.388 . S
C144 C145 1.384 . S
C145 C144 1.384 . S
C145 C146 1.377 . S
C146 H126 0.953 . S
C146 C145 1.377 . S
C146 C147 1.369 . S
C147 H127 0.945 . S
C147 C142 1.385 . S
C147 C146 1.369 . S
C148 C140 1.457 . S
C148 C149 1.372 . S
C148 C153 1.369 . S
C149 H128 0.952 . S
C149 C148 1.372 . S
C149 C150 1.389 . S
C150 H129 0.949 . S
C150 C149 1.389 . S
C150 C151 1.387 . S
C151 C150 1.387 . S
C151 C152 1.372 . S
C152 H130 0.950 1_545 S
C152 C151 1.372 . S
C152 C153 1.379 . S
C153 H131 0.943 1_545 S
C153 C148 1.369 . S
C153 C152 1.379 . S
C154 C123 1.383 . S
C154 C141 1.479 . S
C154 C155 1.398 . S
C155 C120 1.382 . S
C155 H132 0.951 . S
C155 C154 1.398 . S
C156 C157 1.384 . S
C156 H169 0.947 . S
C156 C191 1.382 . S
C157 C156 1.384 . S
C157 C158 1.378 . S
C158 C157 1.378 . S
C158 C159 1.378 . S
C158 H170 0.952 . S
C159 C158 1.378 . S
C159 H171 0.950 . S
C159 C190 1.383 . S
H160 C179 0.947 . S
H161 C180 0.946 . S
H162 C182 0.953 . S
H163 C183 0.945 . S
H164 C185 0.952 . S
H165 C186 0.949 . S
H166 C188 0.950 . S
H167 C189 0.948 . S
H168 C191 0.951 . S
H169 C156 0.947 . S
H170 C158 0.952 . S
H171 C159 0.950 . S
N172 C175 1.382 . S
N172 C177 1.363 . S
N173 C175 1.371 . S
N173 C176 1.372 . S
N174 C176 1.361 . S
N174 C177 1.377 . S
C175 N172 1.382 . S
C175 N173 1.371 . S
C175 C178 1.480 . S
C176 N173 1.372 . S
C176 N174 1.361 . S
C176 C184 1.457 . S
C177 N172 1.363 . S
C177 N174 1.377 . S
C177 C190 1.479 . S
C178 C175 1.480 . S
C178 C179 1.383 . S
C178 C183 1.385 . S
C179 H160 0.947 . S
C179 C178 1.383 . S
C179 C180 1.388 . S
C180 H161 0.946 . S
C180 C179 1.388 . S
C180 C181 1.384 . S
C181 C180 1.384 . S
C181 C182 1.377 . S
C182 H162 0.953 . S
C182 C181 1.377 . S
C182 C183 1.369 . S
C183 H163 0.945 . S
C183 C178 1.385 . S
C183 C182 1.369 . S
C184 C176 1.457 . S
C184 C185 1.372 . S
C184 C189 1.364 . S
C185 H164 0.952 . S
C185 C184 1.372 . S
C185 C186 1.389 . S
C186 H165 0.949 . S
C186 C185 1.389 . S
C186 C187 1.387 . S
C187 C186 1.387 . S
C187 C188 1.372 . S
C188 H166 0.950 . S
C188 C187 1.372 . S
C188 C189 1.379 . S
C189 H167 0.948 . S
C189 C184 1.364 . S
C189 C188 1.379 . S
C190 C159 1.383 . S
C190 C177 1.479 . S
C190 C191 1.398 . S
C191 C156 1.382 . S
C191 H168 0.951 . S
C191 C190 1.398 . S
C192 C193 1.384 . S
C192 H205 0.947 . S
C192 C227 1.382 . S
C193 C192 1.384 . S
C193 C194 1.378 . S
C194 C193 1.378 . S
C194 C195 1.378 1_655 S
C194 H206 0.952 . S
C195 C194 1.378 1_455 S
C195 H207 0.950 . S
C195 C226 1.383 . S
H196 C215 0.947 . S
H197 C216 0.946 . S
H198 C218 0.953 . S
H199 C219 0.945 . S
H200 C221 0.952 . S
H201 C222 0.949 . S
H202 C224 0.950 . S
H203 C225 0.948 . S
H204 C227 0.951 . S
H205 C192 0.947 . S
H206 C194 0.952 . S
H207 C195 0.950 . S
N208 C211 1.382 . S
N208 C213 1.363 . S
N209 C211 1.371 . S
N209 C212 1.372 . S
N210 C212 1.361 . S
N210 C213 1.377 . S
C211 N208 1.382 . S
C211 N209 1.371 . S
C211 C214 1.480 . S
C212 N209 1.372 . S
C212 N210 1.361 . S
C212 C220 1.457 . S
C213 N208 1.363 . S
C213 N210 1.377 . S
C213 C226 1.479 . S
C214 C211 1.480 . S
C214 C215 1.383 . S
C214 C219 1.385 . S
C215 H196 0.947 . S
C215 C214 1.383 . S
C215 C216 1.388 . S
C216 H197 0.946 . S
C216 C215 1.388 . S
C216 C217 1.384 . S
C217 C216 1.384 . S
C217 C218 1.377 . S
C218 H198 0.953 . S
C218 C217 1.377 . S
C218 C219 1.369 . S
C219 H199 0.945 . S
C219 C214 1.385 . S
C219 C218 1.369 . S
C220 C212 1.457 . S
C220 C221 1.372 . S
C220 C225 1.364 . S
C221 H200 0.952 . S
C221 C220 1.372 . S
C221 C222 1.389 . S
C222 H201 0.949 . S
C222 C221 1.389 . S
C222 C223 1.387 . S
C223 C222 1.387 . S
C223 C224 1.372 . S
C224 H202 0.950 . S
C224 C223 1.372 . S
C224 C225 1.379 . S
C225 H203 0.948 . S
C225 C220 1.364 . S
C225 C224 1.379 . S
C226 C195 1.383 . S
C226 C213 1.479 . S
C226 C227 1.398 1_455 S
C227 C192 1.382 . S
C227 H204 0.951 . S
C227 C226 1.398 1_655 S
C228 C229 1.384 . S
C228 H241 0.947 . S
C228 C263 1.382 . S
C229 C228 1.384 . S
C229 C230 1.378 . S
C230 C229 1.378 . S
C230 C231 1.378 . S
C230 H242 0.952 . S
C231 C230 1.378 . S
C231 H243 0.950 . S
C231 C262 1.383 . S
H232 C251 0.947 . S
H233 C252 0.946 . S
H234 C254 0.953 . S
H235 C255 0.945 . S
H236 C257 0.952 . S
H237 C258 0.949 . S
H238 C260 0.950 . S
H239 C261 0.948 . S
H240 C263 0.951 . S
H241 C228 0.947 . S
H242 C230 0.952 . S
H243 C231 0.950 . S
N244 C247 1.382 1_455 S
N244 C249 1.363 . S
N245 C247 1.371 . S
N245 C248 1.372 1_655 S
N246 C248 1.361 . S
N246 C249 1.377 . S
C247 N244 1.382 1_655 S
C247 N245 1.371 . S
C247 C250 1.480 . S
C248 N245 1.372 1_455 S
C248 N246 1.361 . S
C248 C256 1.457 . S
C249 N244 1.363 . S
C249 N246 1.377 . S
C249 C262 1.479 . S
C250 C247 1.480 . S
C250 C251 1.383 . S
C250 C255 1.385 . S
C251 H232 0.947 . S
C251 C250 1.383 . S
C251 C252 1.388 . S
C252 H233 0.946 . S
C252 C251 1.388 . S
C252 C253 1.384 . S
C253 C252 1.384 . S
C253 C254 1.377 . S
C254 H234 0.953 . S
C254 C253 1.377 . S
C254 C255 1.369 . S
C255 H235 0.945 . S
C255 C250 1.385 . S
C255 C254 1.369 . S
C256 C248 1.457 . S
C256 C257 1.372 1_455 S
C256 C261 1.364 . S
C257 H236 0.952 . S
C257 C256 1.372 1_655 S
C257 C258 1.389 . S
C258 H237 0.949 . S
C258 C257 1.389 . S
C258 C259 1.375 1_655 S
C259 C258 1.375 1_455 S
C259 C260 1.384 . S
C260 H238 0.950 . S
C260 C259 1.384 . S
C260 C261 1.379 . S
C261 H239 0.948 . S
C261 C256 1.364 . S
C261 C260 1.379 . S
C262 C231 1.383 . S
C262 C249 1.479 . S
C262 C263 1.398 . S
C263 C228 1.382 . S
C263 H240 0.951 . S
C263 C262 1.398 . S
C264 C265 1.384 . S
C264 H277 0.947 . S
C264 C299 1.382 . S
C265 C264 1.384 . S
C265 C266 1.378 . S
C266 C265 1.378 . S
C266 C267 1.378 . S
C266 H278 0.952 . S
C267 C266 1.378 . S
C267 H279 0.950 . S
C267 C298 1.383 . S
H268 C287 0.947 . S
H269 C288 0.946 . S
H270 C290 0.953 . S
H271 C291 0.945 . S
H272 C293 0.952 . S
H273 C294 0.949 . S
H274 C296 0.950 . S
H275 C297 0.948 . S
H276 C299 0.951 . S
H277 C264 0.947 . S
H278 C266 0.952 . S
H279 C267 0.950 . S
N280 C283 1.382 1_545 S
N280 C285 1.363 . S
N281 C283 1.371 . S
N281 C284 1.372 1_565 S
N282 C284 1.361 . S
N282 C285 1.377 . S
C283 N280 1.382 1_565 S
C283 N281 1.371 . S
C283 C286 1.480 . S
C284 N281 1.372 1_545 S
C284 N282 1.361 . S
C284 C292 1.457 . S
C285 N280 1.363 . S
C285 N282 1.377 . S
C285 C298 1.479 . S
C286 C283 1.480 . S
C286 C287 1.383 . S
C286 C291 1.385 . S
C287 H268 0.947 . S
C287 C286 1.383 . S
C287 C288 1.388 . S
C288 H269 0.946 . S
C288 C287 1.388 . S
C288 C289 1.384 . S
C289 C288 1.384 . S
C289 C290 1.377 . S
C290 H270 0.953 . S
C290 C289 1.377 . S
C290 C291 1.369 . S
C291 H271 0.945 . S
C291 C286 1.385 . S
C291 C290 1.369 . S
C292 C284 1.457 . S
C292 C293 1.372 1_545 S
C292 C297 1.364 . S
C293 H272 0.952 . S
C293 C292 1.372 1_565 S
C293 C294 1.389 . S
C294 H273 0.949 . S
C294 C293 1.389 . S
C294 C295 1.387 . S
C295 C294 1.387 . S
C295 C296 1.372 1_565 S
C296 H274 0.950 . S
C296 C295 1.372 1_545 S
C296 C297 1.379 . S
C297 H275 0.948 . S
C297 C292 1.364 . S
C297 C296 1.379 . S
C298 C267 1.383 . S
C298 C285 1.479 . S
C298 C299 1.398 . S
C299 C264 1.382 . S
C299 H276 0.951 . S
C299 C298 1.398 . S
C300 C301 1.384 . S
C300 H313 0.947 . S
C300 C335 1.382 . S
C301 C300 1.384 . S
C301 C302 1.378 . S
C302 C301 1.378 . S
C302 C303 1.378 . S
C302 H314 0.952 . S
C303 C302 1.378 . S
C303 H315 0.950 . S
C303 C334 1.383 . S
H304 C323 0.947 . S
H305 C324 0.946 . S
H306 C326 0.953 . S
H307 C327 0.945 . S
H308 C329 0.952 . S
H309 C330 0.949 . S
H310 C332 0.950 . S
H311 C333 0.948 . S
H312 C335 0.951 . S
H313 C300 0.947 . S
H314 C302 0.952 . S
H315 C303 0.950 . S
N316 C319 1.382 . S
N316 C321 1.363 . S
N317 C319 1.371 . S
N317 C320 1.372 . S
N318 C320 1.361 . S
N318 C321 1.377 . S
C319 N316 1.382 . S
C319 N317 1.371 . S
C319 C322 1.480 . S
C320 N317 1.372 . S
C320 N318 1.361 . S
C320 C328 1.457 . S
C321 N316 1.363 . S
C321 N318 1.377 . S
C321 C334 1.479 . S
C322 C319 1.480 . S
C322 C323 1.383 . S
C322 C327 1.385 . S
C323 H304 0.947 . S
C323 C322 1.383 . S
C323 C324 1.388 . S
C324 H305 0.946 . S
C324 C323 1.388 . S
C324 C325 1.384 . S
C325 C324 1.384 . S
C325 C326 1.377 . S
C326 H306 0.953 . S
C326 C325 1.377 . S
C326 C327 1.369 . S
C327 H307 0.945 . S
C327 C322 1.385 . S
C327 C326 1.369 . S
C328 C320 1.457 . S
C328 C329 1.372 . S
C328 C333 1.364 . S
C329 H308 0.952 . S
C329 C328 1.372 . S
C329 C330 1.389 . S
C330 H309 0.949 . S
C330 C329 1.389 . S
C330 C331 1.387 . S
C331 C330 1.387 . S
C331 C332 1.372 . S
C332 H310 0.950 . S
C332 C331 1.372 . S
C332 C333 1.379 . S
C333 H311 0.948 . S
C333 C328 1.364 . S
C333 C332 1.379 . S
C334 C303 1.383 . S
C334 C321 1.479 . S
C334 C335 1.398 . S
C335 C300 1.382 . S
C335 H312 0.951 . S
C335 C334 1.398 . S
H336 C354 0.951 . S
H337 C356 0.951 . S
H338 C358 0.950 . S
H339 C359 0.950 . S
H340 C361 0.950 . S
H341 C364 0.950 . S
H342 C365 0.950 . S
H343 C367 0.950 . S
H344 C368 0.950 . S
H345 C369 0.951 . S
H346 C371 0.951 . S
H347 C373 0.950 . S
H348 C374 0.950 . S
H349 C376 0.950 . S
H350 C379 0.950 . S
H351 C380 0.950 . S
H352 C382 0.950 . S
H353 C383 0.950 . S
C354 H336 0.951 . S
C354 C355 1.366 . S
C354 C356 1.388 . S
C355 C354 1.366 . S
C355 C359 1.385 . S
C356 H337 0.951 . S
C356 C354 1.388 . S
C356 C357 1.366 . S
C357 C356 1.366 . S
C357 C358 1.414 . S
C357 C360 1.499 . S
C358 H338 0.950 . S
C358 C357 1.414 . S
C358 C359 1.374 . S
C359 H339 0.950 . S
C359 C355 1.385 . S
C359 C358 1.374 . S
C360 C357 1.499 . S
C360 C361 1.373 . S
C360 C362 1.389 . S
C361 H340 0.950 . S
C361 C360 1.373 . S
C361 C377 1.377 . S
C362 C360 1.389 . S
C362 C363 1.524 . S
C362 C376 1.377 . S
C363 C362 1.524 . S
C363 C364 1.397 . S
C363 C368 1.363 . S
C364 H341 0.950 . S
C364 C363 1.397 . S
C364 C365 1.334 . S
C365 H342 0.950 . S
C365 C364 1.334 . S
C365 C366 1.287 . S
C366 C365 1.287 . S
C366 C367 1.524 . S
C366 H385 0.913 . S
C367 H343 0.950 . S
C367 C366 1.524 . S
C367 C368 1.415 . S
C368 H344 0.950 . S
C368 C363 1.363 . S
C368 C367 1.415 . S
C369 H345 0.951 . S
C369 C370 1.366 . S
C369 C371 1.388 . S
C370 C369 1.366 . S
C370 C374 1.385 . S
C371 H346 0.951 . S
C371 C369 1.388 . S
C371 C372 1.366 . S
C372 C371 1.366 . S
C372 C373 1.414 . S
C372 C375 1.499 . S
C373 H347 0.950 . S
C373 C372 1.414 . S
C373 C374 1.374 . S
C374 H348 0.950 . S
C374 C370 1.385 . S
C374 C373 1.374 . S
C375 C372 1.499 . S
C375 C376 1.373 . S
C375 C377 1.389 . S
C376 H349 0.950 . S
C376 C362 1.377 . S
C376 C375 1.373 . S
C377 C361 1.377 . S
C377 C375 1.389 . S
C377 C378 1.524 . S
C378 C377 1.524 . S
C378 C379 1.397 . S
C378 C383 1.363 . S
C379 H350 0.950 . S
C379 C378 1.397 . S
C379 C380 1.334 . S
C380 H351 0.950 . S
C380 C379 1.334 . S
C380 C381 1.287 . S
C381 C380 1.287 . S
C381 C382 1.524 . S
C381 H384 0.999 . S
C382 H352 0.950 . S
C382 C381 1.524 . S
C382 C383 1.415 . S
C383 H353 0.950 . S
C383 C378 1.363 . S
C383 C382 1.415 . S
H384 C381 0.999 . S
H385 C366 0.913 . S
H386 C404 0.951 . S
H387 C406 0.951 . S
H388 C408 0.950 . S
H389 C409 0.950 . S
H390 C411 0.950 . S
H391 C414 0.950 . S
H392 C415 0.950 . S
H393 C417 0.950 . S
H394 C418 0.950 . S
H395 C419 0.951 . S
H396 C421 0.951 . S
H397 C423 0.950 . S
H398 C424 0.950 . S
H399 C426 0.950 . S
H400 C429 0.950 . S
H401 C430 0.950 . S
H402 C432 0.950 . S
H403 C433 0.950 . S
C404 H386 0.951 . S
C404 C405 1.366 . S
C404 C406 1.388 . S
C405 C404 1.366 . S
C405 C409 1.385 . S
C406 H387 0.951 . S
C406 C404 1.388 . S
C406 C407 1.366 . S
C407 C406 1.366 . S
C407 C408 1.414 . S
C407 C410 1.499 . S
C408 H388 0.950 . S
C408 C407 1.414 . S
C408 C409 1.374 . S
C409 H389 0.950 . S
C409 C405 1.385 . S
C409 C408 1.374 . S
C410 C407 1.499 . S
C410 C411 1.373 . S
C410 C412 1.389 . S
C411 H390 0.950 . S
C411 C410 1.373 . S
C411 C427 1.377 . S
C412 C410 1.389 . S
C412 C413 1.524 . S
C412 C426 1.377 . S
C413 C412 1.524 . S
C413 C414 1.397 . S
C413 C418 1.363 . S
C414 H391 0.950 . S
C414 C413 1.397 . S
C414 C415 1.334 . S
C415 H392 0.950 . S
C415 C414 1.334 . S
C415 C416 1.287 . S
C416 C415 1.287 . S
C416 C417 1.524 . S
C416 H435 0.913 . S
C417 H393 0.950 . S
C417 C416 1.524 . S
C417 C418 1.415 . S
C418 H394 0.950 . S
C418 C413 1.363 . S
C418 C417 1.415 . S
C419 H395 0.951 . S
C419 C420 1.366 . S
C419 C421 1.388 . S
C420 C419 1.366 . S
C420 C424 1.385 . S
C421 H396 0.951 . S
C421 C419 1.388 . S
C421 C422 1.366 . S
C422 C421 1.366 . S
C422 C423 1.414 . S
C422 C425 1.499 . S
C423 H397 0.950 . S
C423 C422 1.414 . S
C423 C424 1.374 . S
C424 H398 0.950 . S
C424 C420 1.385 . S
C424 C423 1.374 . S
C425 C422 1.499 . S
C425 C426 1.373 . S
C425 C427 1.389 . S
C426 H399 0.950 . S
C426 C412 1.377 . S
C426 C425 1.373 . S
C427 C411 1.377 . S
C427 C425 1.389 . S
C427 C428 1.524 . S
C428 C427 1.524 . S
C428 C429 1.397 . S
C428 C433 1.363 . S
C429 H400 0.950 . S
C429 C428 1.397 . S
C429 C430 1.334 . S
C430 H401 0.950 . S
C430 C429 1.334 . S
C430 C431 1.287 . S
C431 C430 1.287 . S
C431 C432 1.524 . S
C431 H434 0.999 . S
C432 H402 0.950 . S
C432 C431 1.524 . S
C432 C433 1.415 . S
C433 H403 0.950 . S
C433 C428 1.363 . S
C433 C432 1.415 . S
H434 C431 0.999 . S
H435 C416 0.913 . S
H436 C454 0.951 . S
H437 C456 0.951 . S
H438 C458 0.950 . S
H439 C459 0.950 . S
H440 C461 0.950 . S
H441 C464 0.950 . S
H442 C465 0.950 . S
H443 C467 0.950 . S
H444 C468 0.950 . S
H445 C469 0.951 . S
H446 C471 0.951 . S
H447 C473 0.950 . S
H448 C474 0.950 . S
H449 C476 0.950 . S
H450 C479 0.950 . S
H451 C480 0.950 . S
H452 C482 0.950 . S
H453 C483 0.950 . S
C454 H436 0.951 . S
C454 C455 1.366 . S
C454 C456 1.388 . S
C455 C454 1.366 . S
C455 C459 1.385 . S
C456 H437 0.951 . S
C456 C454 1.388 . S
C456 C457 1.366 . S
C457 C456 1.366 . S
C457 C458 1.414 . S
C457 C460 1.499 . S
C458 H438 0.950 . S
C458 C457 1.414 . S
C458 C459 1.374 . S
C459 H439 0.950 . S
C459 C455 1.385 . S
C459 C458 1.374 . S
C460 C457 1.499 . S
C460 C461 1.373 . S
C460 C462 1.389 . S
C461 H440 0.950 . S
C461 C460 1.373 . S
C461 C477 1.377 . S
C462 C460 1.389 . S
C462 C463 1.524 . S
C462 C476 1.377 . S
C463 C462 1.524 . S
C463 C464 1.397 . S
C463 C468 1.363 . S
C464 H441 0.950 . S
C464 C463 1.397 . S
C464 C465 1.334 . S
C465 H442 0.950 . S
C465 C464 1.334 . S
C465 C466 1.287 . S
C466 C465 1.287 . S
C466 C467 1.524 . S
C466 H485 0.913 . S
C467 H443 0.950 . S
C467 C466 1.524 . S
C467 C468 1.415 . S
C468 H444 0.950 . S
C468 C463 1.363 . S
C468 C467 1.415 . S
C469 H445 0.951 . S
C469 C470 1.366 . S
C469 C471 1.388 . S
C470 C469 1.366 . S
C470 C474 1.385 . S
C471 H446 0.951 . S
C471 C469 1.388 . S
C471 C472 1.366 . S
C472 C471 1.366 . S
C472 C473 1.414 . S
C472 C475 1.499 . S
C473 H447 0.950 . S
C473 C472 1.414 . S
C473 C474 1.374 . S
C474 H448 0.950 . S
C474 C470 1.385 . S
C474 C473 1.374 . S
C475 C472 1.499 . S
C475 C476 1.373 . S
C475 C477 1.389 . S
C476 H449 0.950 . S
C476 C462 1.377 . S
C476 C475 1.373 . S
C477 C461 1.377 . S
C477 C475 1.389 . S
C477 C478 1.524 . S
C478 C477 1.524 . S
C478 C479 1.397 . S
C478 C483 1.363 . S
C479 H450 0.950 . S
C479 C478 1.397 . S
C479 C480 1.334 . S
C480 H451 0.950 . S
C480 C479 1.334 . S
C480 C481 1.287 . S
C481 C480 1.287 . S
C481 C482 1.524 . S
C481 H484 0.999 . S
C482 H452 0.950 . S
C482 C481 1.524 . S
C482 C483 1.415 . S
C483 H453 0.950 . S
C483 C478 1.363 . S
C483 C482 1.415 . S
H484 C481 0.999 . S
H485 C466 0.913 . S
H486 C504 0.951 . S
H487 C506 0.951 . S
H488 C508 0.950 . S
H489 C509 0.950 . S
H490 C511 0.950 . S
H491 C514 0.950 . S
H492 C515 0.950 . S
H493 C517 0.950 . S
H494 C518 0.950 . S
H495 C519 0.951 . S
H496 C521 0.951 . S
H497 C523 0.950 . S
H498 C524 0.950 . S
H499 C526 0.950 . S
H500 C529 0.950 . S
H501 C530 0.950 . S
H502 C532 0.950 . S
H503 C533 0.950 . S
C504 H486 0.951 . S
C504 C505 1.366 . S
C504 C506 1.388 . S
C505 C504 1.366 . S
C505 C509 1.385 . S
C506 H487 0.951 . S
C506 C504 1.388 . S
C506 C507 1.366 . S
C507 C506 1.366 . S
C507 C508 1.414 . S
C507 C510 1.499 . S
C508 H488 0.950 . S
C508 C507 1.414 . S
C508 C509 1.374 . S
C509 H489 0.950 . S
C509 C505 1.385 . S
C509 C508 1.374 . S
C510 C507 1.499 . S
C510 C511 1.373 . S
C510 C512 1.389 . S
C511 H490 0.950 . S
C511 C510 1.373 . S
C511 C527 1.377 . S
C512 C510 1.389 . S
C512 C513 1.524 . S
C512 C526 1.377 . S
C513 C512 1.524 . S
C513 C514 1.397 . S
C513 C518 1.363 . S
C514 H491 0.950 . S
C514 C513 1.397 . S
C514 C515 1.334 . S
C515 H492 0.950 . S
C515 C514 1.334 . S
C515 C516 1.287 . S
C516 C515 1.287 . S
C516 C517 1.524 . S
C516 H535 0.913 . S
C517 H493 0.950 . S
C517 C516 1.524 . S
C517 C518 1.415 . S
C518 H494 0.950 . S
C518 C513 1.363 . S
C518 C517 1.415 . S
C519 H495 0.951 . S
C519 C520 1.366 . S
C519 C521 1.388 . S
C520 C519 1.366 . S
C520 C524 1.385 . S
C521 H496 0.951 . S
C521 C519 1.388 . S
C521 C522 1.366 . S
C522 C521 1.366 . S
C522 C523 1.414 . S
C522 C525 1.499 . S
C523 H497 0.950 . S
C523 C522 1.414 . S
C523 C524 1.374 . S
C524 H498 0.950 . S
C524 C520 1.385 . S
C524 C523 1.374 . S
C525 C522 1.499 . S
C525 C526 1.373 . S
C525 C527 1.389 . S
C526 H499 0.950 . S
C526 C512 1.377 . S
C526 C525 1.373 . S
C527 C511 1.377 . S
C527 C525 1.389 . S
C527 C528 1.524 . S
C528 C527 1.524 . S
C528 C529 1.397 . S
C528 C533 1.363 . S
C529 H500 0.950 . S
C529 C528 1.397 . S
C529 C530 1.334 . S
C530 H501 0.950 . S
C530 C529 1.334 . S
C530 C531 1.287 . S
C531 C530 1.287 . S
C531 C532 1.524 . S
C531 H534 0.999 . S
C532 H502 0.950 . S
C532 C531 1.524 . S
C532 C533 1.415 . S
C533 H503 0.950 . S
C533 C528 1.363 . S
C533 C532 1.415 . S
H534 C531 0.999 . S
H535 C516 0.913 . S
H536 C554 0.951 . S
H537 C556 0.951 . S
H538 C558 0.950 . S
H539 C559 0.950 . S
H540 C561 0.950 . S
H541 C564 0.950 . S
H542 C565 0.950 . S
H543 C567 0.950 . S
H544 C568 0.950 . S
H545 C569 0.951 . S
H546 C571 0.951 . S
H547 C573 0.950 . S
H548 C574 0.950 . S
H549 C576 0.950 . S
H550 C579 0.950 . S
H551 C580 0.950 . S
H552 C582 0.950 . S
H553 C583 0.950 . S
C554 H536 0.951 . S
C554 C555 1.366 . S
C554 C556 1.388 . S
C555 C554 1.366 . S
C555 C559 1.385 . S
C556 H537 0.951 . S
C556 C554 1.388 . S
C556 C557 1.366 . S
C557 C556 1.366 . S
C557 C558 1.414 . S
C557 C560 1.499 . S
C558 H538 0.950 . S
C558 C557 1.414 . S
C558 C559 1.374 . S
C559 H539 0.950 . S
C559 C555 1.385 . S
C559 C558 1.374 . S
C560 C557 1.499 . S
C560 C561 1.373 . S
C560 C562 1.389 . S
C561 H540 0.950 . S
C561 C560 1.373 . S
C561 C577 1.377 . S
C562 C560 1.389 . S
C562 C563 1.524 . S
C562 C576 1.377 . S
C563 C562 1.524 . S
C563 C564 1.397 . S
C563 C568 1.363 . S
C564 H541 0.950 . S
C564 C563 1.397 . S
C564 C565 1.334 . S
C565 H542 0.950 . S
C565 C564 1.334 . S
C565 C566 1.287 . S
C566 C565 1.287 . S
C566 C567 1.524 . S
C566 H585 0.913 . S
C567 H543 0.950 . S
C567 C566 1.524 . S
C567 C568 1.415 . S
C568 H544 0.950 . S
C568 C563 1.363 . S
C568 C567 1.415 . S
C569 H545 0.951 . S
C569 C570 1.366 . S
C569 C571 1.388 . S
C570 C569 1.366 . S
C570 C574 1.385 . S
C571 H546 0.951 . S
C571 C569 1.388 . S
C571 C572 1.366 . S
C572 C571 1.366 . S
C572 C573 1.414 . S
C572 C575 1.499 . S
C573 H547 0.950 . S
C573 C572 1.414 . S
C573 C574 1.374 . S
C574 H548 0.950 . S
C574 C570 1.385 . S
C574 C573 1.374 . S
C575 C572 1.499 . S
C575 C576 1.373 . S
C575 C577 1.389 . S
C576 H549 0.950 . S
C576 C562 1.377 . S
C576 C575 1.373 . S
C577 C561 1.377 . S
C577 C575 1.389 . S
C577 C578 1.524 . S
C578 C577 1.524 . S
C578 C579 1.397 . S
C578 C583 1.363 . S
C579 H550 0.950 . S
C579 C578 1.397 . S
C579 C580 1.334 . S
C580 H551 0.950 . S
C580 C579 1.334 . S
C580 C581 1.287 . S
C581 C580 1.287 . S
C581 C582 1.524 . S
C581 H584 0.999 . S
C582 H552 0.950 . S
C582 C581 1.524 . S
C582 C583 1.415 . S
C583 H553 0.950 . S
C583 C578 1.363 . S
C583 C582 1.415 . S
H584 C581 0.999 . S
H585 C566 0.913 . S
H586 C604 0.951 . S
H587 C606 0.951 . S
H588 C608 0.950 . S
H589 C609 0.950 . S
H590 C611 0.950 . S
H591 C614 0.950 . S
H592 C615 0.950 . S
H593 C617 0.950 . S
H594 C618 0.950 . S
H595 C619 0.951 . S
H596 C621 0.951 . S
H597 C623 0.950 . S
H598 C624 0.950 . S
H599 C626 0.950 . S
H600 C629 0.950 . S
H601 C630 0.950 . S
H602 C632 0.950 . S
H603 C633 0.950 . S
C604 H586 0.951 . S
C604 C605 1.366 . S
C604 C606 1.388 . S
C605 C604 1.366 . S
C605 C609 1.385 . S
C606 H587 0.951 . S
C606 C604 1.388 . S
C606 C607 1.366 . S
C607 C606 1.366 . S
C607 C608 1.414 . S
C607 C610 1.499 . S
C608 H588 0.950 . S
C608 C607 1.414 . S
C608 C609 1.374 . S
C609 H589 0.950 . S
C609 C605 1.385 . S
C609 C608 1.374 . S
C610 C607 1.499 . S
C610 C611 1.373 . S
C610 C612 1.389 . S
C611 H590 0.950 . S
C611 C610 1.373 . S
C611 C627 1.377 . S
C612 C610 1.389 . S
C612 C613 1.524 . S
C612 C626 1.377 . S
C613 C612 1.524 . S
C613 C614 1.397 . S
C613 C618 1.363 . S
C614 H591 0.950 . S
C614 C613 1.397 . S
C614 C615 1.334 . S
C615 H592 0.950 . S
C615 C614 1.334 . S
C615 C616 1.287 . S
C616 C615 1.287 . S
C616 C617 1.524 . S
C616 H635 0.913 . S
C617 H593 0.950 . S
C617 C616 1.524 . S
C617 C618 1.415 . S
C618 H594 0.950 . S
C618 C613 1.363 . S
C618 C617 1.415 . S
C619 H595 0.951 . S
C619 C620 1.366 . S
C619 C621 1.388 . S
C620 C619 1.366 . S
C620 C624 1.385 . S
C621 H596 0.951 . S
C621 C619 1.388 . S
C621 C622 1.366 . S
C622 C621 1.366 . S
C622 C623 1.414 . S
C622 C625 1.499 . S
C623 H597 0.950 . S
C623 C622 1.414 . S
C623 C624 1.374 . S
C624 H598 0.950 . S
C624 C620 1.385 . S
C624 C623 1.374 . S
C625 C622 1.499 . S
C625 C626 1.373 . S
C625 C627 1.389 . S
C626 H599 0.950 . S
C626 C612 1.377 . S
C626 C625 1.373 . S
C627 C611 1.377 . S
C627 C625 1.389 . S
C627 C628 1.524 . S
C628 C627 1.524 . S
C628 C629 1.397 . S
C628 C633 1.363 . S
C629 H600 0.950 . S
C629 C628 1.397 . S
C629 C630 1.334 . S
C630 H601 0.950 . S
C630 C629 1.334 . S
C630 C631 1.287 . S
C631 C630 1.287 . S
C631 C632 1.524 . S
C631 H634 0.999 . S
C632 H602 0.950 . S
C632 C631 1.524 . S
C632 C633 1.415 . S
C633 H603 0.950 . S
C633 C628 1.363 . S
C633 C632 1.415 . S
H634 C631 0.999 . S
H635 C616 0.913 . S
H636 C654 0.951 . S
H637 C656 0.951 . S
H638 C658 0.950 . S
H639 C659 0.950 . S
H640 C661 0.950 . S
H641 C664 0.950 . S
H642 C665 0.950 . S
H643 C667 0.950 . S
H644 C668 0.950 . S
H645 C669 0.951 . S
H646 C671 0.951 . S
H647 C673 0.950 . S
H648 C674 0.950 . S
H649 C676 0.950 . S
H650 C679 0.950 . S
H651 C680 0.950 . S
H652 C682 0.950 . S
H653 C683 0.950 . S
C654 H636 0.951 . S
C654 C655 1.366 . S
C654 C656 1.388 . S
C655 C654 1.366 . S
C655 C659 1.385 . S
C656 H637 0.951 . S
C656 C654 1.388 . S
C656 C657 1.366 . S
C657 C656 1.366 . S
C657 C658 1.414 . S
C657 C660 1.499 . S
C658 H638 0.950 . S
C658 C657 1.414 . S
C658 C659 1.374 . S
C659 H639 0.950 . S
C659 C655 1.385 . S
C659 C658 1.374 . S
C660 C657 1.499 . S
C660 C661 1.373 . S
C660 C662 1.389 . S
C661 H640 0.950 . S
C661 C660 1.373 . S
C661 C677 1.377 . S
C662 C660 1.389 . S
C662 C663 1.524 . S
C662 C676 1.377 . S
C663 C662 1.524 . S
C663 C664 1.397 . S
C663 C668 1.363 . S
C664 H641 0.950 . S
C664 C663 1.397 . S
C664 C665 1.334 . S
C665 H642 0.950 . S
C665 C664 1.334 . S
C665 C666 1.287 . S
C666 C665 1.287 . S
C666 C667 1.524 . S
C666 H685 0.913 . S
C667 H643 0.950 . S
C667 C666 1.524 . S
C667 C668 1.415 . S
C668 H644 0.950 . S
C668 C663 1.363 . S
C668 C667 1.415 . S
C669 H645 0.951 . S
C669 C670 1.366 . S
C669 C671 1.388 . S
C670 C669 1.366 . S
C670 C674 1.385 . S
C671 H646 0.951 . S
C671 C669 1.388 . S
C671 C672 1.366 . S
C672 C671 1.366 . S
C672 C673 1.414 . S
C672 C675 1.499 . S
C673 H647 0.950 . S
C673 C672 1.414 . S
C673 C674 1.374 . S
C674 H648 0.950 . S
C674 C670 1.385 . S
C674 C673 1.374 . S
C675 C672 1.499 . S
C675 C676 1.373 . S
C675 C677 1.389 . S
C676 H649 0.950 . S
C676 C662 1.377 . S
C676 C675 1.373 . S
C677 C661 1.377 . S
C677 C675 1.389 . S
C677 C678 1.524 . S
C678 C677 1.524 . S
C678 C679 1.397 . S
C678 C683 1.363 . S
C679 H650 0.950 . S
C679 C678 1.397 . S
C679 C680 1.334 . S
C680 H651 0.950 . S
C680 C679 1.334 . S
C680 C681 1.287 . S
C681 C680 1.287 . S
C681 C682 1.524 . S
C681 H684 0.999 . S
C682 H652 0.950 . S
C682 C681 1.524 . S
C682 C683 1.415 . S
C683 H653 0.950 . S
C683 C678 1.363 . S
C683 C682 1.415 . S
H684 C681 0.999 . S
H685 C666 0.913 . S
H686 C704 0.951 . S
H687 C706 0.951 . S
H688 C708 0.950 . S
H689 C709 0.950 . S
H690 C711 0.950 . S
H691 C714 0.950 . S
H692 C715 0.950 . S
H693 C717 0.950 . S
H694 C718 0.950 . S
H695 C719 0.951 . S
H696 C721 0.951 . S
H697 C723 0.950 . S
H698 C724 0.950 . S
H699 C726 0.950 . S
H700 C729 0.950 . S
H701 C730 0.950 . S
H702 C732 0.950 . S
H703 C733 0.950 . S
C704 H686 0.951 . S
C704 C705 1.366 . S
C704 C706 1.388 . S
C705 C704 1.366 . S
C705 C709 1.385 . S
C706 H687 0.951 . S
C706 C704 1.388 . S
C706 C707 1.366 . S
C707 C706 1.366 . S
C707 C708 1.414 . S
C707 C710 1.499 . S
C708 H688 0.950 . S
C708 C707 1.414 . S
C708 C709 1.374 . S
C709 H689 0.950 . S
C709 C705 1.385 . S
C709 C708 1.374 . S
C710 C707 1.499 . S
C710 C711 1.373 . S
C710 C712 1.389 . S
C711 H690 0.950 . S
C711 C710 1.373 . S
C711 C727 1.377 . S
C712 C710 1.389 . S
C712 C713 1.524 . S
C712 C726 1.377 . S
C713 C712 1.524 . S
C713 C714 1.397 . S
C713 C718 1.363 . S
C714 H691 0.950 . S
C714 C713 1.397 . S
C714 C715 1.334 . S
C715 H692 0.950 . S
C715 C714 1.334 . S
C715 C716 1.287 . S
C716 C715 1.287 . S
C716 C717 1.524 . S
C716 H735 0.913 . S
C717 H693 0.950 . S
C717 C716 1.524 . S
C717 C718 1.415 . S
C718 H694 0.950 . S
C718 C713 1.363 . S
C718 C717 1.415 . S
C719 H695 0.951 . S
C719 C720 1.366 . S
C719 C721 1.388 . S
C720 C719 1.366 . S
C720 C724 1.385 . S
C721 H696 0.951 . S
C721 C719 1.388 . S
C721 C722 1.366 . S
C722 C721 1.366 . S
C722 C723 1.414 . S
C722 C725 1.499 . S
C723 H697 0.950 . S
C723 C722 1.414 . S
C723 C724 1.374 . S
C724 H698 0.950 . S
C724 C720 1.385 . S
C724 C723 1.374 . S
C725 C722 1.499 . S
C725 C726 1.373 . S
C725 C727 1.389 . S
C726 H699 0.950 . S
C726 C712 1.377 . S
C726 C725 1.373 . S
C727 C711 1.377 . S
C727 C725 1.389 . S
C727 C728 1.524 . S
C728 C727 1.524 . S
C728 C729 1.397 . S
C728 C733 1.363 . S
C729 H700 0.950 . S
C729 C728 1.397 . S
C729 C730 1.334 . S
C730 H701 0.950 . S
C730 C729 1.334 . S
C730 C731 1.287 . S
C731 C730 1.287 . S
C731 C732 1.524 . S
C731 H734 0.999 . S
C732 H702 0.950 . S
C732 C731 1.524 . S
C732 C733 1.415 . S
C733 H703 0.950 . S
C733 C728 1.363 . S
C733 C732 1.415 . S
H734 C731 0.999 . S
H735 C716 0.913 . S
H736 C754 0.951 . S
H737 C756 0.951 . S
H738 C758 0.950 . S
H739 C759 0.950 . S
H740 C761 0.950 . S
H741 C764 0.950 . S
H742 C765 0.950 . S
H743 C767 0.950 . S
H744 C768 0.950 . S
H745 C769 0.951 . S
H746 C771 0.951 . S
H747 C773 0.950 . S
H748 C774 0.950 . S
H749 C776 0.950 . S
H750 C779 0.950 . S
H751 C780 0.950 . S
H752 C782 0.950 . S
H753 C783 0.950 . S
C754 H736 0.951 . S
C754 C755 1.366 . S
C754 C756 1.388 . S
C755 C754 1.366 . S
C755 C759 1.385 . S
C756 H737 0.951 . S
C756 C754 1.388 . S
C756 C757 1.366 . S
C757 C756 1.366 . S
C757 C758 1.414 . S
C757 C760 1.499 . S
C758 H738 0.950 . S
C758 C757 1.414 . S
C758 C759 1.374 . S
C759 H739 0.950 . S
C759 C755 1.385 . S
C759 C758 1.374 . S
C760 C757 1.499 . S
C760 C761 1.373 . S
C760 C762 1.389 . S
C761 H740 0.950 . S
C761 C760 1.373 . S
C761 C777 1.377 . S
C762 C760 1.389 . S
C762 C763 1.524 . S
C762 C776 1.377 . S
C763 C762 1.524 . S
C763 C764 1.397 . S
C763 C768 1.363 . S
C764 H741 0.950 . S
C764 C763 1.397 . S
C764 C765 1.334 . S
C765 H742 0.950 . S
C765 C764 1.334 . S
C765 C766 1.287 . S
C766 C765 1.287 . S
C766 C767 1.524 . S
C766 H785 0.913 . S
C767 H743 0.950 . S
C767 C766 1.524 . S
C767 C768 1.415 . S
C768 H744 0.950 . S
C768 C763 1.363 . S
C768 C767 1.415 . S
C769 H745 0.951 . S
C769 C770 1.366 . S
C769 C771 1.388 . S
C770 C769 1.366 . S
C770 C774 1.385 . S
C771 H746 0.951 . S
C771 C769 1.388 . S
C771 C772 1.366 . S
C772 C771 1.366 . S
C772 C773 1.414 . S
C772 C775 1.499 . S
C773 H747 0.950 . S
C773 C772 1.414 . S
C773 C774 1.374 . S
C774 H748 0.950 . S
C774 C770 1.385 . S
C774 C773 1.374 . S
C775 C772 1.499 . S
C775 C776 1.373 . S
C775 C777 1.389 . S
C776 H749 0.950 . S
C776 C762 1.377 . S
C776 C775 1.373 . S
C777 C761 1.377 . S
C777 C775 1.389 . S
C777 C778 1.524 . S
C778 C777 1.524 . S
C778 C779 1.397 . S
C778 C783 1.363 . S
C779 H750 0.950 . S
C779 C778 1.397 . S
C779 C780 1.334 . S
C780 H751 0.950 . S
C780 C779 1.334 . S
C780 C781 1.287 . S
C781 C780 1.287 . S
C781 C782 1.524 . S
C781 H784 0.999 . S
C782 H752 0.950 . S
C782 C781 1.524 . S
C782 C783 1.415 . S
C783 H753 0.950 . S
C783 C778 1.363 . S
C783 C782 1.415 . S
H784 C781 0.999 . S
H785 C766 0.913 . S
H786 C804 0.951 . S
H787 C806 0.951 . S
H788 C808 0.950 . S
H789 C809 0.950 . S
H790 C811 0.950 . S
H791 C814 0.950 . S
H792 C815 0.950 . S
H793 C817 0.950 . S
H794 C818 0.950 . S
H795 C819 0.951 . S
H796 C821 0.951 . S
H797 C823 0.950 . S
H798 C824 0.950 . S
H799 C826 0.950 . S
H800 C829 0.950 . S
H801 C830 0.950 . S
H802 C832 0.950 . S
H803 C833 0.950 . S
C804 H786 0.951 . S
C804 C805 1.366 . S
C804 C806 1.388 . S
C805 C804 1.366 . S
C805 C809 1.385 . S
C806 H787 0.951 . S
C806 C804 1.388 . S
C806 C807 1.366 . S
C807 C806 1.366 . S
C807 C808 1.414 . S
C807 C810 1.499 . S
C808 H788 0.950 . S
C808 C807 1.414 . S
C808 C809 1.374 . S
C809 H789 0.950 . S
C809 C805 1.385 . S
C809 C808 1.374 . S
C810 C807 1.499 . S
C810 C811 1.373 . S
C810 C812 1.389 . S
C811 H790 0.950 . S
C811 C810 1.373 . S
C811 C827 1.377 . S
C812 C810 1.389 . S
C812 C813 1.524 . S
C812 C826 1.377 . S
C813 C812 1.524 . S
C813 C814 1.397 . S
C813 C818 1.363 . S
C814 H791 0.950 . S
C814 C813 1.397 . S
C814 C815 1.334 . S
C815 H792 0.950 . S
C815 C814 1.334 . S
C815 C816 1.287 . S
C816 C815 1.287 . S
C816 C817 1.524 . S
C816 H835 0.913 . S
C817 H793 0.950 . S
C817 C816 1.524 . S
C817 C818 1.415 . S
C818 H794 0.950 . S
C818 C813 1.363 . S
C818 C817 1.415 . S
C819 H795 0.951 . S
C819 C820 1.366 . S
C819 C821 1.388 . S
C820 C819 1.366 . S
C820 C824 1.385 . S
C821 H796 0.951 . S
C821 C819 1.388 . S
C821 C822 1.366 . S
C822 C821 1.366 . S
C822 C823 1.414 . S
C822 C825 1.499 . S
C823 H797 0.950 . S
C823 C822 1.414 . S
C823 C824 1.374 . S
C824 H798 0.950 . S
C824 C820 1.385 . S
C824 C823 1.374 . S
C825 C822 1.499 . S
C825 C826 1.373 . S
C825 C827 1.389 . S
C826 H799 0.950 . S
C826 C812 1.377 . S
C826 C825 1.373 . S
C827 C811 1.377 . S
C827 C825 1.389 . S
C827 C828 1.524 . S
C828 C827 1.524 . S
C828 C829 1.397 . S
C828 C833 1.363 . S
C829 H800 0.950 . S
C829 C828 1.397 . S
C829 C830 1.334 . S
C830 H801 0.950 . S
C830 C829 1.334 . S
C830 C831 1.287 . S
C831 C830 1.287 . S
C831 C832 1.524 . S
C831 H834 0.999 . S
C832 H802 0.950 . S
C832 C831 1.524 . S
C832 C833 1.415 . S
C833 H803 0.950 . S
C833 C828 1.363 . S
C833 C832 1.415 . S
H834 C831 0.999 . S
H835 C816 0.913 . S
H836 C854 0.951 . S
H837 C856 0.951 . S
H838 C858 0.950 . S
H839 C859 0.950 . S
H840 C861 0.950 . S
H841 C864 0.950 . S
H842 C865 0.950 . S
H843 C867 0.950 . S
H844 C868 0.950 . S
H845 C869 0.951 . S
H846 C871 0.951 . S
H847 C873 0.950 . S
H848 C874 0.950 . S
H849 C876 0.950 . S
H850 C879 0.950 . S
H851 C880 0.950 . S
H852 C882 0.950 . S
H853 C883 0.950 . S
C854 H836 0.951 . S
C854 C855 1.366 . S
C854 C856 1.388 . S
C855 C854 1.366 . S
C855 C859 1.385 . S
C856 H837 0.951 . S
C856 C854 1.388 . S
C856 C857 1.366 . S
C857 C856 1.366 . S
C857 C858 1.414 . S
C857 C860 1.499 . S
C858 H838 0.950 . S
C858 C857 1.414 . S
C858 C859 1.374 . S
C859 H839 0.950 . S
C859 C855 1.385 . S
C859 C858 1.374 . S
C860 C857 1.499 . S
C860 C861 1.373 . S
C860 C862 1.389 . S
C861 H840 0.950 . S
C861 C860 1.373 . S
C861 C877 1.377 . S
C862 C860 1.389 . S
C862 C863 1.524 . S
C862 C876 1.377 . S
C863 C862 1.524 . S
C863 C864 1.397 . S
C863 C868 1.363 . S
C864 H841 0.950 . S
C864 C863 1.397 . S
C864 C865 1.334 . S
C865 H842 0.950 . S
C865 C864 1.334 . S
C865 C866 1.287 . S
C866 C865 1.287 . S
C866 C867 1.524 . S
C866 H885 0.913 . S
C867 H843 0.950 . S
C867 C866 1.524 . S
C867 C868 1.415 . S
C868 H844 0.950 . S
C868 C863 1.363 . S
C868 C867 1.415 . S
C869 H845 0.951 . S
C869 C870 1.366 . S
C869 C871 1.388 . S
C870 C869 1.366 . S
C870 C874 1.385 . S
C871 H846 0.951 . S
C871 C869 1.388 . S
C871 C872 1.366 . S
C872 C871 1.366 . S
C872 C873 1.414 . S
C872 C875 1.499 . S
C873 H847 0.950 . S
C873 C872 1.414 . S
C873 C874 1.374 . S
C874 H848 0.950 . S
C874 C870 1.385 . S
C874 C873 1.374 . S
C875 C872 1.499 . S
C875 C876 1.373 . S
C875 C877 1.389 . S
C876 H849 0.950 . S
C876 C862 1.377 . S
C876 C875 1.373 . S
C877 C861 1.377 . S
C877 C875 1.389 . S
C877 C878 1.524 . S
C878 C877 1.524 . S
C878 C879 1.397 . S
C878 C883 1.363 . S
C879 H850 0.950 . S
C879 C878 1.397 . S
C879 C880 1.334 . S
C880 H851 0.950 . S
C880 C879 1.334 . S
C880 C881 1.287 . S
C881 C880 1.287 . S
C881 C882 1.524 . S
C881 H884 0.999 . S
C882 H852 0.950 . S
C882 C881 1.524 . S
C882 C883 1.415 . S
C883 H853 0.950 . S
C883 C878 1.363 . S
C883 C882 1.415 . S
H884 C881 0.999 . S
H885 C866 0.913 . S
H886 C904 0.951 . S
H887 C906 0.951 . S
H888 C908 0.950 . S
H889 C909 0.950 . S
H890 C911 0.950 . S
H891 C914 0.950 . S
H892 C915 0.950 . S
H893 C917 0.950 . S
H894 C918 0.950 . S
H895 C919 0.951 . S
H896 C921 0.951 . S
H897 C923 0.950 . S
H898 C924 0.950 . S
H899 C926 0.950 . S
H900 C929 0.950 . S
H901 C930 0.950 . S
H902 C932 0.950 . S
H903 C933 0.950 . S
C904 H886 0.951 . S
C904 C905 1.366 . S
C904 C906 1.388 . S
C905 C904 1.366 . S
C905 C909 1.385 . S
C906 H887 0.951 . S
C906 C904 1.388 . S
C906 C907 1.366 . S
C907 C906 1.366 . S
C907 C908 1.414 . S
C907 C910 1.499 . S
C908 H888 0.950 . S
C908 C907 1.414 . S
C908 C909 1.374 . S
C909 H889 0.950 . S
C909 C905 1.385 . S
C909 C908 1.374 . S
C910 C907 1.499 . S
C910 C911 1.373 . S
C910 C912 1.389 . S
C911 H890 0.950 . S
C911 C910 1.373 . S
C911 C927 1.377 . S
C912 C910 1.389 . S
C912 C913 1.524 . S
C912 C926 1.377 . S
C913 C912 1.524 . S
C913 C914 1.397 . S
C913 C918 1.363 . S
C914 H891 0.950 . S
C914 C913 1.397 . S
C914 C915 1.334 . S
C915 H892 0.950 . S
C915 C914 1.334 . S
C915 C916 1.287 . S
C916 C915 1.287 . S
C916 C917 1.524 . S
C916 H935 0.913 . S
C917 H893 0.950 . S
C917 C916 1.524 . S
C917 C918 1.415 . S
C918 H894 0.950 . S
C918 C913 1.363 . S
C918 C917 1.415 . S
C919 H895 0.951 . S
C919 C920 1.366 . S
C919 C921 1.388 . S
C920 C919 1.366 . S
C920 C924 1.385 . S
C921 H896 0.951 . S
C921 C919 1.388 . S
C921 C922 1.366 . S
C922 C921 1.366 . S
C922 C923 1.414 . S
C922 C925 1.499 . S
C923 H897 0.950 . S
C923 C922 1.414 . S
C923 C924 1.374 . S
C924 H898 0.950 . S
C924 C920 1.385 . S
C924 C923 1.374 . S
C925 C922 1.499 . S
C925 C926 1.373 . S
C925 C927 1.389 . S
C926 H899 0.950 . S
C926 C912 1.377 . S
C926 C925 1.373 . S
C927 C911 1.377 . S
C927 C925 1.389 . S
C927 C928 1.524 . S
C928 C927 1.524 . S
C928 C929 1.397 . S
C928 C933 1.363 . S
C929 H900 0.950 . S
C929 C928 1.397 . S
C929 C930 1.334 . S
C930 H901 0.950 . S
C930 C929 1.334 . S
C930 C931 1.287 . S
C931 C930 1.287 . S
C931 C932 1.524 . S
C931 H934 0.999 . S
C932 H902 0.950 . S
C932 C931 1.524 . S
C932 C933 1.415 . S
C933 H903 0.950 . S
C933 C928 1.363 . S
C933 C932 1.415 . S
H934 C931 0.999 . S
H935 C916 0.913 . S
H936 C954 0.951 . S
H937 C956 0.951 . S
H938 C958 0.981 . S
H939 C959 0.950 1_655 S
H940 C961 0.950 . S
H941 C964 0.950 . S
H942 C965 0.950 . S
H943 C967 0.950 . S
H944 C968 0.950 . S
H945 C969 0.951 . S
H946 C971 0.951 . S
H947 C973 0.950 . S
H948 C974 0.950 . S
H949 C976 0.950 . S
H950 C979 0.950 . S
H951 C980 0.950 . S
H952 C982 0.950 . S
H953 C983 0.950 . S
C954 H936 0.951 . S
C954 C955 1.366 . S
C954 C956 1.388 . S
C955 C954 1.366 . S
C955 C959 1.385 . S
C956 H937 0.951 . S
C956 C954 1.388 . S
C956 C957 1.366 . S
C957 C956 1.366 . S
C957 C958 1.414 . S
C957 C960 1.499 . S
C958 H938 0.981 . S
C958 C957 1.414 . S
C958 C959 1.374 . S
C959 H939 0.950 1_455 S
C959 C955 1.385 . S
C959 C958 1.374 . S
C960 C957 1.499 . S
C960 C961 1.373 . S
C960 C962 1.389 . S
C961 H940 0.950 . S
C961 C960 1.373 . S
C961 C977 1.377 . S
C962 C960 1.389 . S
C962 C963 1.524 . S
C962 C976 1.377 . S
C963 C962 1.524 . S
C963 C964 1.397 . S
C963 C968 1.363 . S
C964 H941 0.950 . S
C964 C963 1.397 . S
C964 C965 1.334 . S
C965 H942 0.950 . S
C965 C964 1.334 . S
C965 C966 1.287 . S
C966 C965 1.287 . S
C966 C967 1.524 . S
C966 H985 0.913 . S
C967 H943 0.950 . S
C967 C966 1.524 . S
C967 C968 1.415 . S
C968 H944 0.950 . S
C968 C963 1.363 . S
C968 C967 1.415 . S
C969 H945 0.951 . S
C969 C970 1.366 . S
C969 C971 1.388 1_556 S
C970 C969 1.366 . S
C970 C974 1.385 . S
C971 H946 0.951 . S
C971 C969 1.388 1_554 S
C971 C972 1.366 . S
C972 C971 1.366 . S
C972 C973 1.414 . S
C972 C975 1.499 . S
C973 H947 0.950 . S
C973 C972 1.414 . S
C973 C974 1.374 1_554 S
C974 H948 0.950 . S
C974 C970 1.385 . S
C974 C973 1.374 1_556 S
C975 C972 1.499 . S
C975 C976 1.373 . S
C975 C977 1.389 . S
C976 H949 0.950 . S
C976 C962 1.377 . S
C976 C975 1.373 . S
C977 C961 1.377 . S
C977 C975 1.389 . S
C977 C978 1.524 . S
C978 C977 1.524 . S
C978 C979 1.397 . S
C978 C983 1.363 1_455 S
C979 H950 0.950 . S
C979 C978 1.397 . S
C979 C980 1.334 1_455 S
C980 H951 0.950 . S
C980 C979 1.334 1_655 S
C980 C981 1.287 . S
C981 C980 1.287 . S
C981 C982 1.524 . S
C981 H984 0.999 . S
C982 H952 0.950 . S
C982 C981 1.524 . S
C982 C983 1.415 . S
C983 H953 0.950 . S
C983 C978 1.363 1_655 S
C983 C982 1.415 . S
H984 C981 0.999 . S
H985 C966 0.913 . S
H986 C1004 0.951 1_565 S
H987 C1006 0.951 1_565 S
H988 C1008 0.950 . S
H989 C1009 0.950 . S
H990 C1011 0.950 . S
H991 C1014 0.950 . S
H992 C1015 0.950 . S
H993 C1017 0.950 1_565 S
H994 C1018 0.950 1_565 S
H995 C1019 0.951 . S
H996 C1021 0.951 . S
H997 C1023 0.950 1_565 S
H998 C1024 0.950 1_565 S
H999 C1026 0.950 . S
H1000 C1029 0.950 1_565 S
H1001 C1030 0.950 1_565 S
H1002 C1032 0.950 . S
H1003 C1033 0.950 . S
C1004 H986 0.951 1_545 S
C1004 C1005 1.366 . S
C1004 C1006 1.388 . S
C1005 C1004 1.366 . S
C1005 C1009 1.385 . S
C1006 H987 0.951 1_545 S
C1006 C1004 1.388 . S
C1006 C1007 1.366 . S
C1007 C1006 1.366 . S
C1007 C1008 1.414 . S
C1007 C1010 1.499 . S
C1008 H988 0.950 . S
C1008 C1007 1.414 . S
C1008 C1009 1.374 . S
C1009 H989 0.950 . S
C1009 C1005 1.385 . S
C1009 C1008 1.374 . S
C1010 C1007 1.499 . S
C1010 C1011 1.373 . S
C1010 C1012 1.389 . S
C1011 H990 0.950 . S
C1011 C1010 1.373 . S
C1011 C1027 1.377 . S
C1012 C1010 1.389 . S
C1012 C1013 1.524 . S
C1012 C1026 1.377 . S
C1013 C1012 1.524 . S
C1013 C1014 1.397 . S
C1013 C1018 1.363 . S
C1014 H991 0.950 . S
C1014 C1013 1.397 . S
C1014 C1015 1.334 . S
C1015 H992 0.950 . S
C1015 C1014 1.334 . S
C1015 C1016 1.287 . S
C1016 C1015 1.287 . S
C1016 C1017 1.524 . S
C1016 H1035 0.913 . S
C1017 H993 0.950 1_545 S
C1017 C1016 1.524 . S
C1017 C1018 1.415 . S
C1018 H994 0.950 1_545 S
C1018 C1013 1.363 . S
C1018 C1017 1.415 . S
C1019 H995 0.951 . S
C1019 C1020 1.366 . S
C1019 C1021 1.388 . S
C1020 C1019 1.366 . S
C1020 C1024 1.385 . S
C1021 H996 0.951 . S
C1021 C1019 1.388 . S
C1021 C1022 1.366 . S
C1022 C1021 1.366 . S
C1022 C1023 1.414 . S
C1022 C1025 1.499 . S
C1023 H997 0.950 1_545 S
C1023 C1022 1.414 . S
C1023 C1024 1.374 . S
C1024 H998 0.950 1_545 S
C1024 C1020 1.385 . S
C1024 C1023 1.374 . S
C1025 C1022 1.499 . S
C1025 C1026 1.373 . S
C1025 C1027 1.389 . S
C1026 H999 0.950 . S
C1026 C1012 1.377 . S
C1026 C1025 1.373 . S
C1027 C1011 1.377 . S
C1027 C1025 1.389 . S
C1027 C1028 1.524 . S
C1028 C1027 1.524 . S
C1028 C1029 1.397 . S
C1028 C1033 1.363 . S
C1029 H1000 0.950 1_545 S
C1029 C1028 1.397 . S
C1029 C1030 1.334 . S
C1030 H1001 0.950 1_545 S
C1030 C1029 1.334 . S
C1030 C1031 1.287 . S
C1031 C1030 1.287 . S
C1031 C1032 1.524 . S
C1031 H1034 0.999 . S
C1032 H1002 0.950 . S
C1032 C1031 1.524 . S
C1032 C1033 1.415 . S
C1033 H1003 0.950 . S
C1033 C1028 1.363 . S
C1033 C1032 1.415 . S
H1034 C1031 0.999 . S
H1035 C1016 0.913 . S
H1036 C1054 0.951 . S
H1037 C1056 0.951 . S
H1038 C1058 0.950 . S
H1039 C1059 0.950 . S
H1040 C1061 0.950 . S
H1041 C1064 0.950 . S
H1042 C1065 0.950 . S
H1043 C1067 0.950 . S
H1044 C1068 0.950 . S
H1045 C1069 0.951 . S
H1046 C1071 0.951 . S
H1047 C1073 0.950 . S
H1048 C1074 0.950 . S
H1049 C1076 0.950 . S
H1050 C1079 0.950 . S
H1051 C1080 0.950 . S
H1052 C1082 0.950 . S
H1053 C1083 0.950 . S
C1054 H1036 0.951 . S
C1054 C1055 1.366 . S
C1054 C1056 1.388 . S
C1055 C1054 1.366 . S
C1055 C1059 1.385 . S
C1056 H1037 0.951 . S
C1056 C1054 1.388 . S
C1056 C1057 1.366 . S
C1057 C1056 1.366 . S
C1057 C1058 1.414 . S
C1057 C1060 1.499 . S
C1058 H1038 0.950 . S
C1058 C1057 1.414 . S
C1058 C1059 1.374 . S
C1059 H1039 0.950 . S
C1059 C1055 1.385 . S
C1059 C1058 1.374 . S
C1060 C1057 1.499 . S
C1060 C1061 1.373 . S
C1060 C1062 1.389 . S
C1061 H1040 0.950 . S
C1061 C1060 1.373 . S
C1061 C1077 1.377 . S
C1062 C1060 1.389 . S
C1062 C1063 1.524 . S
C1062 C1076 1.377 . S
C1063 C1062 1.524 . S
C1063 C1064 1.397 . S
C1063 C1068 1.363 . S
C1064 H1041 0.950 . S
C1064 C1063 1.397 . S
C1064 C1065 1.334 . S
C1065 H1042 0.950 . S
C1065 C1064 1.334 . S
C1065 C1066 1.287 . S
C1066 C1065 1.287 . S
C1066 C1067 1.524 . S
C1066 H1085 0.913 . S
C1067 H1043 0.950 . S
C1067 C1066 1.524 . S
C1067 C1068 1.415 . S
C1068 H1044 0.950 . S
C1068 C1063 1.363 . S
C1068 C1067 1.415 . S
C1069 H1045 0.951 . S
C1069 C1070 1.366 . S
C1069 C1071 1.388 . S
C1070 C1069 1.366 . S
C1070 C1074 1.385 . S
C1071 H1046 0.951 . S
C1071 C1069 1.388 . S
C1071 C1072 1.366 . S
C1072 C1071 1.366 . S
C1072 C1073 1.414 . S
C1072 C1075 1.499 . S
C1073 H1047 0.950 . S
C1073 C1072 1.414 . S
C1073 C1074 1.374 . S
C1074 H1048 0.950 . S
C1074 C1070 1.385 . S
C1074 C1073 1.374 . S
C1075 C1072 1.499 . S
C1075 C1076 1.373 . S
C1075 C1077 1.389 . S
C1076 H1049 0.950 . S
C1076 C1062 1.377 . S
C1076 C1075 1.373 . S
C1077 C1061 1.377 . S
C1077 C1075 1.389 . S
C1077 C1078 1.524 . S
C1078 C1077 1.524 . S
C1078 C1079 1.397 . S
C1078 C1083 1.363 . S
C1079 H1050 0.950 . S
C1079 C1078 1.397 . S
C1079 C1080 1.334 . S
C1080 H1051 0.950 . S
C1080 C1079 1.334 . S
C1080 C1081 1.287 . S
C1081 C1080 1.287 . S
C1081 C1082 1.524 . S
C1081 H1084 0.999 . S
C1082 H1052 0.950 . S
C1082 C1081 1.524 . S
C1082 C1083 1.415 . S
C1083 H1053 0.950 . S
C1083 C1078 1.363 . S
C1083 C1082 1.415 . S
H1084 C1081 0.999 . S
H1085 C1066 0.913 . S
H1086 C1104 0.951 . S
H1087 C1106 0.951 . S
H1088 C1108 0.950 . S
H1089 C1109 0.950 . S
H1090 C1111 0.950 . S
H1091 C1114 0.950 . S
H1092 C1115 0.950 . S
H1093 C1117 0.950 . S
H1094 C1118 0.950 . S
H1095 C1119 0.951 . S
H1096 C1121 0.951 . S
H1097 C1123 0.950 . S
H1098 C1124 0.950 . S
H1099 C1126 0.950 . S
H1100 C1129 0.950 1_545 S
H1101 C1130 0.950 . S
H1102 C1132 0.950 . S
H1103 C1133 0.950 . S
C1104 H1086 0.951 . S
C1104 C1105 1.366 . S
C1104 C1106 1.388 . S
C1105 C1104 1.366 . S
C1105 C1109 1.385 1_545 S
C1106 H1087 0.951 . S
C1106 C1104 1.388 . S
C1106 C1107 1.366 . S
C1107 C1106 1.366 . S
C1107 C1108 1.414 1_545 S
C1107 C1110 1.499 . S
C1108 H1088 0.950 . S
C1108 C1107 1.414 1_565 S
C1108 C1109 1.374 . S
C1109 H1089 0.950 . S
C1109 C1105 1.385 1_565 S
C1109 C1108 1.374 . S
C1110 C1107 1.499 . S
C1110 C1111 1.373 1_545 S
C1110 C1112 1.389 . S
C1111 H1090 0.950 . S
C1111 C1110 1.373 1_565 S
C1111 C1127 1.377 . S
C1112 C1110 1.389 . S
C1112 C1113 1.524 . S
C1112 C1126 1.377 . S
C1113 C1112 1.524 . S
C1113 C1114 1.397 . S
C1113 C1118 1.363 . S
C1114 H1091 0.950 . S
C1114 C1113 1.397 . S
C1114 C1115 1.334 . S
C1115 H1092 0.950 . S
C1115 C1114 1.334 . S
C1115 C1116 1.287 . S
C1116 C1115 1.287 . S
C1116 C1117 1.524 . S
C1116 H1135 0.913 . S
C1117 H1093 0.950 . S
C1117 C1116 1.524 . S
C1117 C1118 1.415 . S
C1118 H1094 0.950 . S
C1118 C1113 1.363 . S
C1118 C1117 1.415 . S
C1119 H1095 0.951 . S
C1119 C1120 1.366 . S
C1119 C1121 1.388 . S
C1120 C1119 1.366 . S
C1120 C1124 1.385 1_565 S
C1121 H1096 0.951 . S
C1121 C1119 1.388 . S
C1121 C1122 1.366 1_565 S
C1122 C1121 1.366 1_545 S
C1122 C1123 1.414 . S
C1122 C1125 1.499 . S
C1123 H1097 0.950 . S
C1123 C1122 1.414 . S
C1123 C1124 1.374 . S
C1124 H1098 0.950 . S
C1124 C1120 1.385 1_545 S
C1124 C1123 1.374 . S
C1125 C1122 1.499 . S
C1125 C1126 1.373 . S
C1125 C1127 1.389 1_545 S
C1126 H1099 0.950 . S
C1126 C1112 1.377 . S
C1126 C1125 1.373 . S
C1127 C1111 1.377 . S
C1127 C1125 1.389 1_565 S
C1127 C1128 1.524 . S
C1128 C1127 1.524 . S
C1128 C1129 1.397 . S
C1128 C1133 1.363 . S
C1129 H1100 0.950 1_565 S
C1129 C1128 1.397 . S
C1129 C1130 1.334 . S
C1130 H1101 0.950 . S
C1130 C1129 1.334 . S
C1130 C1131 1.287 . S
C1131 C1130 1.287 . S
C1131 C1132 1.524 . S
C1131 H1134 0.999 . S
C1132 H1102 0.950 . S
C1132 C1131 1.524 . S
C1132 C1133 1.415 . S
C1133 H1103 0.950 . S
C1133 C1128 1.363 . S
C1133 C1132 1.415 . S
H1134 C1131 0.999 . S
H1135 C1116 0.913 . S
H1136 C1154 0.951 . S
H1137 C1156 0.951 . S
H1138 C1158 0.950 . S
H1139 C1159 0.950 . S
H1140 C1161 0.950 . S
H1141 C1164 0.950 . S
H1142 C1165 0.950 . S
H1143 C1167 0.950 . S
H1144 C1168 0.950 . S
H1145 C1169 0.951 . S
H1146 C1171 0.951 . S
H1147 C1173 0.950 . S
H1148 C1174 0.950 . S
H1149 C1176 0.950 . S
H1150 C1179 0.950 . S
H1151 C1180 0.950 . S
H1152 C1182 0.950 . S
H1153 C1183 0.950 . S
C1154 H1136 0.951 . S
C1154 C1155 1.366 . S
C1154 C1156 1.388 . S
C1155 C1154 1.366 . S
C1155 C1159 1.385 . S
C1156 H1137 0.951 . S
C1156 C1154 1.388 . S
C1156 C1157 1.366 . S
C1157 C1156 1.366 . S
C1157 C1158 1.414 . S
C1157 C1160 1.499 . S
C1158 H1138 0.950 . S
C1158 C1157 1.414 . S
C1158 C1159 1.374 . S
C1159 H1139 0.950 . S
C1159 C1155 1.385 . S
C1159 C1158 1.374 . S
C1160 C1157 1.499 . S
C1160 C1161 1.373 . S
C1160 C1162 1.389 . S
C1161 H1140 0.950 . S
C1161 C1160 1.373 . S
C1161 C1177 1.377 . S
C1162 C1160 1.389 . S
C1162 C1163 1.524 . S
C1162 C1176 1.377 . S
C1163 C1162 1.524 . S
C1163 C1164 1.397 . S
C1163 C1168 1.363 . S
C1164 H1141 0.950 . S
C1164 C1163 1.397 . S
C1164 C1165 1.334 . S
C1165 H1142 0.950 . S
C1165 C1164 1.334 . S
C1165 C1166 1.287 . S
C1166 C1165 1.287 . S
C1166 C1167 1.524 . S
C1166 H1185 0.913 . S
C1167 H1143 0.950 . S
C1167 C1166 1.524 . S
C1167 C1168 1.415 . S
C1168 H1144 0.950 . S
C1168 C1163 1.363 . S
C1168 C1167 1.415 . S
C1169 H1145 0.951 . S
C1169 C1170 1.366 . S
C1169 C1171 1.388 1_554 S
C1170 C1169 1.366 . S
C1170 C1174 1.385 . S
C1171 H1146 0.951 . S
C1171 C1169 1.388 1_556 S
C1171 C1172 1.366 . S
C1172 C1171 1.366 . S
C1172 C1173 1.414 . S
C1172 C1175 1.499 . S
C1173 H1147 0.950 . S
C1173 C1172 1.414 . S
C1173 C1174 1.374 1_556 S
C1174 H1148 0.950 . S
C1174 C1170 1.385 . S
C1174 C1173 1.374 1_554 S
C1175 C1172 1.499 . S
C1175 C1176 1.373 . S
C1175 C1177 1.389 . S
C1176 H1149 0.950 . S
C1176 C1162 1.377 . S
C1176 C1175 1.373 . S
C1177 C1161 1.377 . S
C1177 C1175 1.389 . S
C1177 C1178 1.524 . S
C1178 C1177 1.524 . S
C1178 C1179 1.397 . S
C1178 C1183 1.363 . S
C1179 H1150 0.950 . S
C1179 C1178 1.397 . S
C1179 C1180 1.334 . S
C1180 H1151 0.950 . S
C1180 C1179 1.334 . S
C1180 C1181 1.287 . S
C1181 C1180 1.287 . S
C1181 C1182 1.524 . S
C1181 H1184 0.999 . S
C1182 H1152 0.950 . S
C1182 C1181 1.524 . S
C1182 C1183 1.415 . S
C1183 H1153 0.950 . S
C1183 C1178 1.363 . S
C1183 C1182 1.415 . S
H1184 C1181 0.999 . S
H1185 C1166 0.913 . S
H1186 C1204 0.975 . S
H1187 C1206 0.951 . S
H1188 C1208 0.950 . S
H1189 C1209 0.950 . S
H1190 C1211 0.950 . S
H1191 C1214 0.950 . S
H1192 C1215 0.950 . S
H1193 C1217 0.950 . S
H1194 C1218 0.950 . S
H1195 C1219 0.951 . S
H1196 C1221 0.951 . S
H1197 C1223 0.950 . S
H1198 C1224 0.950 . S
H1199 C1226 0.950 . S
H1200 C1229 0.950 1_655 S
H1201 C1230 0.950 . S
H1202 C1232 0.950 . S
H1203 C1233 0.950 . S
C1204 H1186 0.975 . S
C1204 C1205 1.337 1_655 S
C1204 C1206 1.394 . S
C1205 C1204 1.337 1_455 S
C1205 C1209 1.385 . S
C1206 H1187 0.951 . S
C1206 C1204 1.394 . S
C1206 C1207 1.366 1_655 S
C1207 C1206 1.366 1_455 S
C1207 C1208 1.414 . S
C1207 C1210 1.499 . S
C1208 H1188 0.950 . S
C1208 C1207 1.414 . S
C1208 C1209 1.374 . S
C1209 H1189 0.950 . S
C1209 C1205 1.385 . S
C1209 C1208 1.374 . S
C1210 C1207 1.499 . S
C1210 C1211 1.373 . S
C1210 C1212 1.389 . S
C1211 H1190 0.950 . S
C1211 C1210 1.373 . S
C1211 C1227 1.377 . S
C1212 C1210 1.389 . S
C1212 C1213 1.524 1_455 S
C1212 C1226 1.377 1_455 S
C1213 C1212 1.524 1_655 S
C1213 C1214 1.397 1_655 S
C1213 C1218 1.363 . S
C1214 H1191 0.950 . S
C1214 C1213 1.397 1_455 S
C1214 C1215 1.334 . S
C1215 H1192 0.950 . S
C1215 C1214 1.334 . S
C1215 C1216 1.287 1_455 S
C1216 C1215 1.287 1_655 S
C1216 C1217 1.524 . S
C1216 H1235 0.913 . S
C1217 H1193 0.950 . S
C1217 C1216 1.524 . S
C1217 C1218 1.415 . S
C1218 H1194 0.950 . S
C1218 C1213 1.363 . S
C1218 C1217 1.415 . S
C1219 H1195 0.951 . S
C1219 C1220 1.337 1_455 S
C1219 C1221 1.388 . S
C1220 C1219 1.337 1_655 S
C1220 C1224 1.409 . S
C1221 H1196 0.951 . S
C1221 C1219 1.388 . S
C1221 C1222 1.366 . S
C1222 C1221 1.366 . S
C1222 C1223 1.414 1_455 S
C1222 C1225 1.499 . S
C1223 H1197 0.950 . S
C1223 C1222 1.414 1_655 S
C1223 C1224 1.374 . S
C1224 H1198 0.950 . S
C1224 C1220 1.409 . S
C1224 C1223 1.374 . S
C1225 C1222 1.499 . S
C1225 C1226 1.373 1_455 S
C1225 C1227 1.389 . S
C1226 H1199 0.950 . S
C1226 C1212 1.377 1_655 S
C1226 C1225 1.373 1_655 S
C1227 C1211 1.377 . S
C1227 C1225 1.389 . S
C1227 C1228 1.524 . S
C1228 C1227 1.524 . S
C1228 C1229 1.397 . S
C1228 C1233 1.363 . S
C1229 H1200 0.950 1_455 S
C1229 C1228 1.397 . S
C1229 C1230 1.334 . S
C1230 H1201 0.950 . S
C1230 C1229 1.334 . S
C1230 C1231 1.287 . S
C1231 C1230 1.287 . S
C1231 C1232 1.524 . S
C1231 H1234 0.999 . S
C1232 H1202 0.950 . S
C1232 C1231 1.524 . S
C1232 C1233 1.415 . S
C1233 H1203 0.950 . S
C1233 C1228 1.363 . S
C1233 C1232 1.415 . S
H1234 C1231 0.999 . S
H1235 C1216 0.913 . S
C355 C25 0.296 . S
C370 C325 0.327 . S
C405 C65 0.257 . S
C420 C253 0.275 . S
C455 C105 0.314 . S
C470 C289 0.302 . S
C505 C4 0.295 . S
C520 C301 0.126 . S
C570 C229 0.286 . S
C555 C44 0.278 . S
C620 C265 0.347 . S
C605 C84 0.324 . S
C655 C60 2.827 . S
C670 C181 2.762 . S
C705 C100 3.035 . S
C720 C193 2.992 . S
C755 C31 3.040 . S
C770 C121 3.000 . S
C820 C157 2.990 . S
C805 C71 3.023 . S
C870 C217 2.765 . S
C855 C111 2.816 . S
C905 C20 2.823 . S
C920 C145 2.759 . S
C970 C223 1.786 . S
C955 C2 1.727 . S
C1005 C42 1.738 . S
C1020 C151 1.773 . S
C1055 C82 1.739 . S
C1070 C187 1.783 . S
C1120 C295 1.080 . S
C1105 C63 1.074 . S
C1170 C331 1.120 . S
C1155 C103 1.105 . S
C1205 C23 1.072 . S
C1220 C259 1.082 1_655 S
