# Generated by pormake.
# Topology sqc, (4,8)-cn, num edge types: 1
# Building blocks:
#     Node 0, Type 0, BuildingBlock: MIFKUJ_clean_linker_1, # of connection points: 4
#     Node 1, Type 0, BuildingBlock: MIFKUJ_clean_linker_1, # of connection points: 4
#     Node 2, Type 0, BuildingBlock: MIFKUJ_clean_linker_1, # of connection points: 4
#     Node 3, Type 0, BuildingBlock: MIFKUJ_clean_linker_1, # of connection points: 4
#     Node 4, Type 0, BuildingBlock: MIFKUJ_clean_linker_1, # of connection points: 4
#     Node 5, Type 0, BuildingBlock: MIFKUJ_clean_linker_1, # of connection points: 4
#     Node 6, Type 0, BuildingBlock: MIFKUJ_clean_linker_1, # of connection points: 4
#     Node 7, Type 0, BuildingBlock: MIFKUJ_clean_linker_1, # of connection points: 4
#     Node 8, Type 1, BuildingBlock: VETTIZ_charged_sbu_0, # of connection points: 8
#     Node 9, Type 1, BuildingBlock: VETTIZ_charged_sbu_0, # of connection points: 8
#     Node 10, Type 1, BuildingBlock: VETTIZ_charged_sbu_0, # of connection points: 8
#     Node 11, Type 1, BuildingBlock: VETTIZ_charged_sbu_0, # of connection points: 8
#     Edge 12, Type (0, 1), BuildingBlock: XIVTED_clean_linker_0, # of connection points: 2
#     Edge 13, Type (0, 1), BuildingBlock: XIVTED_clean_linker_0, # of connection points: 2
#     Edge 14, Type (0, 1), BuildingBlock: XIVTED_clean_linker_0, # of connection points: 2
#     Edge 15, Type (0, 1), BuildingBlock: XIVTED_clean_linker_0, # of connection points: 2
#     Edge 16, Type (0, 1), BuildingBlock: XIVTED_clean_linker_0, # of connection points: 2
#     Edge 17, Type (0, 1), BuildingBlock: XIVTED_clean_linker_0, # of connection points: 2
#     Edge 18, Type (0, 1), BuildingBlock: XIVTED_clean_linker_0, # of connection points: 2
#     Edge 19, Type (0, 1), BuildingBlock: XIVTED_clean_linker_0, # of connection points: 2
#     Edge 20, Type (0, 1), BuildingBlock: XIVTED_clean_linker_0, # of connection points: 2
#     Edge 21, Type (0, 1), BuildingBlock: XIVTED_clean_linker_0, # of connection points: 2
#     Edge 22, Type (0, 1), BuildingBlock: XIVTED_clean_linker_0, # of connection points: 2
#     Edge 23, Type (0, 1), BuildingBlock: XIVTED_clean_linker_0, # of connection points: 2
#     Edge 24, Type (0, 1), BuildingBlock: XIVTED_clean_linker_0, # of connection points: 2
#     Edge 25, Type (0, 1), BuildingBlock: XIVTED_clean_linker_0, # of connection points: 2
#     Edge 26, Type (0, 1), BuildingBlock: XIVTED_clean_linker_0, # of connection points: 2
#     Edge 27, Type (0, 1), BuildingBlock: XIVTED_clean_linker_0, # of connection points: 2
#     Edge 28, Type (0, 1), BuildingBlock: XIVTED_clean_linker_0, # of connection points: 2
#     Edge 29, Type (0, 1), BuildingBlock: XIVTED_clean_linker_0, # of connection points: 2
#     Edge 30, Type (0, 1), BuildingBlock: XIVTED_clean_linker_0, # of connection points: 2
#     Edge 31, Type (0, 1), BuildingBlock: XIVTED_clean_linker_0, # of connection points: 2
#     Edge 32, Type (0, 1), BuildingBlock: XIVTED_clean_linker_0, # of connection points: 2
#     Edge 33, Type (0, 1), BuildingBlock: XIVTED_clean_linker_0, # of connection points: 2
#     Edge 34, Type (0, 1), BuildingBlock: XIVTED_clean_linker_0, # of connection points: 2
#     Edge 35, Type (0, 1), BuildingBlock: XIVTED_clean_linker_0, # of connection points: 2
#     Edge 36, Type (0, 1), BuildingBlock: XIVTED_clean_linker_0, # of connection points: 2
#     Edge 37, Type (0, 1), BuildingBlock: XIVTED_clean_linker_0, # of connection points: 2
#     Edge 38, Type (0, 1), BuildingBlock: XIVTED_clean_linker_0, # of connection points: 2
#     Edge 39, Type (0, 1), BuildingBlock: XIVTED_clean_linker_0, # of connection points: 2
#     Edge 40, Type (0, 1), BuildingBlock: XIVTED_clean_linker_0, # of connection points: 2
#     Edge 41, Type (0, 1), BuildingBlock: XIVTED_clean_linker_0, # of connection points: 2
#     Edge 42, Type (0, 1), BuildingBlock: XIVTED_clean_linker_0, # of connection points: 2
#     Edge 43, Type (0, 1), BuildingBlock: XIVTED_clean_linker_0, # of connection points: 2
# Relax obj value: 0.137
# Max RMSD: 0.270
# Mean RMSD: 0.176
data_MOF--net-sqc--node1-VETTIZ_charged_sbu_0--node2-MIFKUJ_clean_linker_1--edge1-XIVTED_clean_linker_0
_symmetry_space_group_name_H-M    P1
_symmetry_Int_Tables_number       1
_symmetry_cell_setting            triclinic
loop_
_symmetry_equiv_pos_as_xyz
'x, y, z'
_cell_length_a     28.660348
_cell_length_b     28.656944
_cell_length_c     81.9551
_cell_angle_alpha  89.714677
_cell_angle_beta   90.123267
_cell_angle_gamma 89.813891
loop_
_atom_site_label
_atom_site_type_symbol
_atom_site_fract_x
_atom_site_fract_y
_atom_site_fract_z
_atom_type_partial_charge
H0 H 0.93515 0.91525 0.49675 0.0
H1 H 0.86624 0.88003 0.48413 0.0
H2 H 0.80958 0.0174 0.47471 0.0
H3 H 0.87855 0.05248 0.48746 0.0
H4 H 0.99814 0.97756 0.48128 0.0
H5 H 0.89591 0.97513 0.52959 0.0
H6 H 0.83429 0.99496 0.5491 0.0
H7 H 0.85429 0.14136 0.53835 0.0
H8 H 0.916 0.12132 0.51914 0.0
H9 H 0.05561 0.13199 0.52435 0.0
H10 H 0.11832 0.1555 0.54233 0.0
H11 H 0.1826 0.01952 0.53694 0.0
H12 H 0.11687 0.99477 0.52036 0.0
H13 H 0.9944 0.07446 0.53115 0.0
H14 H 0.09813 0.08283 0.48512 0.0
H15 H 0.17149 0.06847 0.47048 0.0
H16 H 0.15104 0.92001 0.47603 0.0
H17 H 0.07795 0.93442 0.49053 0.0
C18 C 0.91178 0.9864 0.49308 0.0
C19 C 0.90771 0.93773 0.49206 0.0
C20 C 0.86831 0.91769 0.48492 0.0
C21 C 0.83266 0.94602 0.47843 0.0
C22 C 0.83673 0.99479 0.47952 0.0
C23 C 0.87587 0.01482 0.48688 0.0
C24 C 0.95461 0.0073 0.49996 0.0
C25 C 0.99744 0.99869 0.49222 0.0
C26 C 0.95356 0.0362 0.51384 0.0
C27 C 0.91035 0.04679 0.52292 0.0
C28 C 0.88609 0.01137 0.53115 0.0
C29 C 0.85109 0.02278 0.54234 0.0
C30 C 0.8401 0.06979 0.54548 0.0
C31 C 0.86275 0.1049 0.5365 0.0
C32 C 0.89762 0.09351 0.52538 0.0
C33 C 0.08131 0.06162 0.52087 0.0
C34 C 0.08333 0.10725 0.52697 0.0
C35 C 0.11978 0.12085 0.53718 0.0
C36 C 0.1559 0.08947 0.54129 0.0
C37 C 0.15507 0.04448 0.53443 0.0
C38 C 0.11786 0.03051 0.52456 0.0
C39 C 0.03832 0.04516 0.51251 0.0
C40 C 0.99533 0.05434 0.51997 0.0
C41 C 0.03919 0.01795 0.49815 0.0
C42 C 0.08286 0.00964 0.48899 0.0
C43 C 0.10952 0.04722 0.48315 0.0
C44 C 0.15115 0.03905 0.47473 0.0
C45 C 0.16692 0.99319 0.47224 0.0
C46 C 0.13986 0.95571 0.47795 0.0
C47 C 0.09804 0.96386 0.48614 0.0
H48 H 0.24429 0.83649 0.7974 0.0
H49 H 0.22516 0.91212 0.8093 0.0
H50 H 0.15695 0.95341 0.76437 0.0
H51 H 0.17457 0.87698 0.75279 0.0
H52 H 0.1937 0.76689 0.78703 0.0
H53 H 0.30231 0.86973 0.76436 0.0
H54 H 0.33391 0.93828 0.75085 0.0
H55 H 0.27106 0.89429 0.70544 0.0
H56 H 0.23611 0.82795 0.71945 0.0
H57 H 0.19593 0.69337 0.72369 0.0
H58 H 0.20596 0.6211 0.70838 0.0
H59 H 0.29998 0.56946 0.7457 0.0
H60 H 0.28914 0.64171 0.76105 0.0
H61 H 0.26727 0.75543 0.7325 0.0
H62 H 0.16251 0.64491 0.75906 0.0
H63 H 0.14666 0.57415 0.77445 0.0
H64 H 0.22053 0.6313 0.81588 0.0
H65 H 0.24055 0.69955 0.79971 0.0
C66 C 0.21119 0.85116 0.77417 0.0
C67 C 0.22498 0.86174 0.79015 0.0
C68 C 0.21452 0.90525 0.79686 0.0
C69 C 0.18991 0.93906 0.78772 0.0
C70 C 0.17572 0.92815 0.77176 0.0
C71 C 0.18608 0.88457 0.76509 0.0
C72 C 0.22325 0.80535 0.76689 0.0
C73 C 0.21032 0.76424 0.77519 0.0
C74 C 0.24565 0.80221 0.75153 0.0
C75 C 0.26586 0.84384 0.74308 0.0
C76 C 0.29442 0.8753 0.75157 0.0
C77 C 0.31332 0.91428 0.74369 0.0
C78 C 0.30533 0.92229 0.72693 0.0
C79 C 0.27741 0.89017 0.71838 0.0
C80 C 0.25777 0.85166 0.72637 0.0
C81 C 0.24164 0.67269 0.74352 0.0
C82 C 0.21856 0.66633 0.72858 0.0
C83 C 0.22439 0.62509 0.71984 0.0
C84 C 0.25371 0.58951 0.72582 0.0
C85 C 0.27652 0.59586 0.74088 0.0
C86 C 0.27063 0.63718 0.74964 0.0
C87 C 0.23601 0.71727 0.75231 0.0
C88 C 0.25062 0.75818 0.74433 0.0
C89 C 0.21693 0.71989 0.76824 0.0
C90 C 0.20396 0.67746 0.77796 0.0
C91 C 0.17636 0.64178 0.77131 0.0
C92 C 0.16648 0.60136 0.78035 0.0
C93 C 0.18238 0.59609 0.79657 0.0
C94 C 0.20862 0.63278 0.80335 0.0
C95 C 0.21954 0.67257 0.79415 0.0
H96 H 0.44657 0.06682 0.0642 0.0
H97 H 0.38375 0.02843 0.07949 0.0
H98 H 0.36416 0.93194 0.03978 0.0
H99 H 0.42646 0.97063 0.0245 0.0
H100 H 0.52698 0.02144 0.05506 0.0
H101 H 0.40855 0.1111 0.03025 0.0
H102 H 0.33543 0.1317 0.01649 0.0
H103 H 0.37859 0.05264 0.97437 0.0
H104 H 0.45097 0.03117 0.98833 0.0
H105 H 0.59867 0.0045 0.99326 0.0
H106 H 0.66838 0.01699 0.9768 0.0
H107 H 0.69636 0.14374 1.00362 0.0
H108 H 0.62836 0.12875 0.0207 0.0
H109 H 0.52172 0.07815 0.99783 0.0
H110 H 0.64154 0.98714 0.02583 0.0
H111 H 0.7121 0.97007 0.04154 0.0
H112 H 0.66426 0.0614 0.07981 0.0
H113 H 0.59414 0.07934 0.06384 0.0
C114 C 0.44079 0.02178 0.04319 0.0
C115 C 0.42813 0.03792 0.05871 0.0
C116 C 0.3924 0.01601 0.0674 0.0
C117 C 0.36956 0.97705 0.06083 0.0
C118 C 0.38161 0.96163 0.04515 0.0
C119 C 0.41678 0.98398 0.03637 0.0
C120 C 0.48252 0.04042 0.03486 0.0
C121 C 0.52588 0.03499 0.04268 0.0
C122 C 0.48057 0.05769 0.01867 0.0
C123 C 0.43533 0.06911 0.01044 0.0
C124 C 0.40204 0.09765 0.01813 0.0
C125 C 0.36039 0.10992 0.01017 0.0
C126 C 0.35093 0.09385 0.99431 0.0
C127 C 0.3843 0.06519 0.98665 0.0
C128 C 0.42599 0.05312 0.99459 0.0
C129 C 0.60873 0.0656 0.00821 0.0
C130 C 0.62024 0.03472 0.99562 0.0
C131 C 0.65995 0.04222 0.98612 0.0
C132 C 0.68834 0.08153 0.98874 0.0
C133 C 0.67625 0.11251 1.0014 0.0
C134 C 0.63709 0.10434 0.01112 0.0
C135 C 0.56611 0.05785 0.01792 0.0
C136 C 0.52265 0.06544 0.01032 0.0
C137 C 0.56795 0.04364 0.03448 0.0
C138 C 0.61268 0.03536 0.04343 0.0
C139 C 0.64671 0.00464 0.03736 0.0
C140 C 0.68703 0.99462 0.04644 0.0
C141 C 0.69391 0.01443 0.06194 0.0
C142 C 0.65991 0.04528 0.06798 0.0
C143 C 0.61986 0.05569 0.05882 0.0
H144 H 0.24148 0.18508 0.30149 0.0
H145 H 0.25688 0.1132 0.3168 0.0
H146 H 0.35075 0.06767 0.27882 0.0
H147 H 0.3348 0.1393 0.26353 0.0
H148 H 0.29618 0.25368 0.29336 0.0
H149 H 0.2012 0.149 0.26463 0.0
H150 H 0.17427 0.08174 0.24923 0.0
H151 H 0.2694 0.11652 0.21022 0.0
H152 H 0.29653 0.18404 0.22581 0.0
H153 H 0.31237 0.33337 0.22884 0.0
H154 H 0.29243 0.40423 0.21327 0.0
H155 H 0.18293 0.43486 0.24772 0.0
H156 H 0.20293 0.36433 0.2632 0.0
H157 H 0.25089 0.25832 0.23493 0.0
H158 H 0.34126 0.36849 0.26572 0.0
H159 H 0.35415 0.44006 0.28106 0.0
H160 H 0.25168 0.39618 0.31653 0.0
H161 H 0.23905 0.32438 0.30109 0.0
C162 C 0.2867 0.16761 0.28127 0.0
C163 C 0.26529 0.15953 0.29644 0.0
C164 C 0.27427 0.11843 0.30522 0.0
C165 C 0.30507 0.08446 0.29908 0.0
C166 C 0.32619 0.09254 0.28382 0.0
C167 C 0.31717 0.13363 0.27505 0.0
C168 C 0.27869 0.21234 0.27231 0.0
C169 C 0.28576 0.25455 0.28063 0.0
C170 C 0.2657 0.21373 0.25559 0.0
C171 C 0.25155 0.1712 0.24654 0.0
C172 C 0.21702 0.14172 0.25292 0.0
C173 C 0.20152 0.10329 0.24405 0.0
C174 C 0.21987 0.09359 0.22851 0.0
C175 C 0.25433 0.12323 0.22209 0.0
C176 C 0.27002 0.16166 0.23103 0.0
C177 C 0.25919 0.34366 0.24719 0.0
C178 C 0.28441 0.35569 0.23311 0.0
C179 C 0.27325 0.39626 0.2243 0.0
C180 C 0.23609 0.42493 0.22928 0.0
C181 C 0.21157 0.41325 0.24357 0.0
C182 C 0.22308 0.37309 0.25245 0.0
C183 C 0.2688 0.29915 0.25596 0.0
C184 C 0.26188 0.25711 0.24761 0.0
C185 C 0.2807 0.29789 0.27272 0.0
C186 C 0.28884 0.34125 0.28215 0.0
C187 C 0.32123 0.37445 0.27671 0.0
C188 C 0.32845 0.41546 0.28549 0.0
C189 C 0.30364 0.42407 0.29997 0.0
C190 C 0.27157 0.3905 0.3055 0.0
C191 C 0.2643 0.34948 0.29668 0.0
H192 H 0.71952 0.31006 0.21594 0.0
H193 H 0.74391 0.37506 0.19845 0.0
H194 H 0.82771 0.42932 0.23777 0.0
H195 H 0.80555 0.36317 0.25497 0.0
H196 H 0.76396 0.24281 0.22722 0.0
H197 H 0.67831 0.36625 0.25505 0.0
H198 H 0.65428 0.43126 0.27262 0.0
H199 H 0.74842 0.38239 0.31019 0.0
H200 H 0.77367 0.31883 0.29251 0.0
H201 H 0.77052 0.18993 0.29544 0.0
H202 H 0.74979 0.12718 0.3144 0.0
H203 H 0.65639 0.06979 0.27839 0.0
H204 H 0.67536 0.13383 0.25966 0.0
H205 H 0.71639 0.25412 0.2851 0.0
H206 H 0.80732 0.13628 0.25795 0.0
H207 H 0.81978 0.0607 0.24508 0.0
H208 H 0.71459 0.09445 0.20897 0.0
H209 H 0.70295 0.17056 0.22181 0.0
C210 C 0.76006 0.33182 0.23693 0.0
C211 C 0.74321 0.33586 0.22084 0.0
C212 C 0.75714 0.37289 0.21083 0.0
C213 C 0.78753 0.40705 0.21682 0.0
C214 C 0.80381 0.40358 0.23295 0.0
C215 C 0.79073 0.36601 0.24284 0.0
C216 C 0.74844 0.29007 0.24699 0.0
C217 C 0.75297 0.24562 0.23984 0.0
C218 C 0.73555 0.29303 0.26365 0.0
C219 C 0.72772 0.33754 0.27246 0.0
C220 C 0.69491 0.37043 0.26683 0.0
C221 C 0.68094 0.40725 0.27691 0.0
C222 C 0.69899 0.41107 0.29282 0.0
C223 C 0.73351 0.37966 0.29807 0.0
C224 C 0.74806 0.34356 0.28793 0.0
C225 C 0.72475 0.16649 0.27606 0.0
C226 C 0.74567 0.16378 0.29157 0.0
C227 C 0.73385 0.12809 0.3024 0.0
C228 C 0.70152 0.09401 0.2978 0.0
C229 C 0.68171 0.09566 0.28211 0.0
C230 C 0.6928 0.13197 0.27139 0.0
C231 C 0.73347 0.20779 0.26553 0.0
C232 C 0.72784 0.25185 0.27251 0.0
C233 C 0.74598 0.20451 0.24891 0.0
C234 C 0.75392 0.15886 0.24093 0.0
C235 C 0.78678 0.12729 0.24731 0.0
C236 C 0.79363 0.08394 0.23998 0.0
C237 C 0.76782 0.07121 0.22607 0.0
C238 C 0.73528 0.10321 0.21959 0.0
C239 C 0.72853 0.14668 0.22692 0.0
H240 H 0.67604 0.83093 0.74429 0.0
H241 H 0.64344 0.90011 0.73091 0.0
H242 H 0.77846 0.96636 0.73279 0.0
H243 H 0.81132 0.89654 0.74585 0.0
H244 H 0.73935 0.77369 0.73337 0.0
H245 H 0.72748 0.87022 0.78334 0.0
H246 H 0.74274 0.94046 0.79959 0.0
H247 H 0.89023 0.9254 0.79034 0.0
H248 H 0.87488 0.85492 0.7744 0.0
H249 H 0.85566 0.66173 0.75263 0.0
H250 H 0.87575 0.58565 0.76444 0.0
H251 H 0.80064 0.62191 0.8083 0.0
H252 H 0.77908 0.69676 0.79616 0.0
H253 H 0.82697 0.77075 0.78561 0.0
H254 H 0.79792 0.70947 0.71959 0.0
H255 H 0.77945 0.63884 0.70423 0.0
H256 H 0.70628 0.58384 0.74615 0.0
H257 H 0.72513 0.65436 0.76141 0.0
C258 C 0.74607 0.8586 0.7462 0.0
C259 C 0.69867 0.86035 0.74185 0.0
C260 C 0.68009 0.89981 0.73417 0.0
C261 C 0.70848 0.93847 0.73076 0.0
C262 C 0.75572 0.93718 0.73541 0.0
C263 C 0.77446 0.8974 0.74294 0.0
C264 C 0.76587 0.81502 0.75324 0.0
C265 C 0.75856 0.77308 0.74479 0.0
C266 C 0.79127 0.81431 0.76807 0.0
C267 C 0.80006 0.85738 0.77764 0.0
C268 C 0.76307 0.88215 0.78481 0.0
C269 C 0.77182 0.92215 0.79411 0.0
C270 C 0.81767 0.93856 0.79618 0.0
C271 C 0.85452 0.91393 0.78883 0.0
C272 C 0.84584 0.8735 0.7798 0.0
C273 C 0.8154 0.68476 0.77344 0.0
C274 C 0.84342 0.65314 0.76477 0.0
C275 C 0.85512 0.60976 0.77158 0.0
C276 C 0.83934 0.59735 0.78725 0.0
C277 C 0.81248 0.62978 0.79606 0.0
C278 C 0.80065 0.67294 0.78923 0.0
C279 C 0.79948 0.72929 0.7659 0.0
C280 C 0.80788 0.77142 0.77417 0.0
C281 C 0.77467 0.73021 0.75094 0.0
C282 C 0.76342 0.68703 0.74172 0.0
C283 C 0.77792 0.68214 0.72546 0.0
C284 C 0.76721 0.64177 0.71668 0.0
C285 C 0.74157 0.60544 0.72396 0.0
C286 C 0.72687 0.61063 0.74024 0.0
C287 C 0.7375 0.65104 0.74899 0.0
H288 H 0.4186 0.36874 0.01029 0.0
H289 H 0.35167 0.35087 0.9928 0.0
H290 H 0.3226 0.4984 0.98773 0.0
H291 H 0.38871 0.51573 0.00537 0.0
H292 H 0.49633 0.41905 1.00224 0.0
H293 H 0.38626 0.42665 0.04795 0.0
H294 H 0.31396 0.4487 0.06218 0.0
H295 H 0.33643 0.59265 0.04875 0.0
H296 H 0.4092 0.57076 0.03501 0.0
H297 H 0.55265 0.58224 0.03203 0.0
H298 H 0.61951 0.62213 0.04417 0.0
H299 H 0.67262 0.49004 0.06189 0.0
H300 H 0.60568 0.45 0.04944 0.0
H301 H 0.48734 0.52526 0.04975 0.0
H302 H 0.60223 0.51769 0.00726 0.0
H303 H 0.67616 0.49768 0.99456 0.0
H304 H 0.64482 0.35108 1.00034 0.0
H305 H 0.57177 0.37163 0.01405 0.0
C306 C 0.40823 0.44348 0.00933 0.0
C307 C 0.39741 0.3971 0.00553 0.0
C308 C 0.35933 0.38703 0.99545 0.0
C309 C 0.3317 0.42323 0.98882 0.0
C310 C 0.34245 0.46961 0.99284 0.0
C311 C 0.38032 0.47959 1.00295 0.0
C312 C 0.45054 0.45498 0.0189 0.0
C313 C 0.4945 0.4412 0.01291 0.0
C314 C 0.44804 0.48431 0.03268 0.0
C315 C 0.40295 0.49708 0.04039 0.0
C316 C 0.37546 0.46291 0.04804 0.0
C317 C 0.33442 0.47551 0.05622 0.0
C318 C 0.31975 0.52233 0.05654 0.0
C319 C 0.3469 0.55629 0.04861 0.0
C320 C 0.38842 0.54387 0.04079 0.0
C321 C 0.57445 0.51329 0.03986 0.0
C322 C 0.57885 0.56187 0.03846 0.0
C323 C 0.61708 0.58453 0.04529 0.0
C324 C 0.65108 0.55905 0.05392 0.0
C325 C 0.64667 0.51035 0.05533 0.0
C326 C 0.60871 0.48753 0.04822 0.0
C327 C 0.53302 0.4903 0.03287 0.0
C328 C 0.48928 0.50194 0.03937 0.0
C329 C 0.53606 0.45871 0.01967 0.0
C330 C 0.58156 0.44626 0.01195 0.0
C331 C 0.61162 0.48121 0.00618 0.0
C332 C 0.65378 0.4696 0.99864 0.0
C333 C 0.66669 0.42263 0.99629 0.0
C334 C 0.63654 0.38759 1.00211 0.0
C335 C 0.59445 0.3993 0.00982 0.0
H336 H 0.92738 0.493 0.47813 0.0
H337 H 0.86075 0.52292 0.46291 0.0
H338 H 0.81648 0.60011 0.50544 0.0
H339 H 0.88565 0.57369 0.51999 0.0
H340 H 0.99831 0.53183 0.48829 0.0
H341 H 0.88345 0.44324 0.51601 0.0
H342 H 0.81234 0.42454 0.53093 0.0
H343 H 0.856 0.51492 0.57014 0.0
H344 H 0.92762 0.5328 0.55521 0.0
H345 H 0.07186 0.53286 0.5534 0.0
H346 H 0.14349 0.51411 0.56837 0.0
H347 H 0.17808 0.41054 0.53215 0.0
H348 H 0.10663 0.42973 0.51722 0.0
H349 H 0.9975 0.47841 0.54589 0.0
H350 H 0.11831 0.56049 0.51538 0.0
H351 H 0.18809 0.5701 0.49858 0.0
H352 H 0.1298 0.47735 0.46255 0.0
H353 H 0.06025 0.46767 0.47943 0.0
C354 C 0.9117 0.53063 0.50032 0.0
C355 C 0.90346 0.51658 0.48417 0.0
C356 C 0.86477 0.53336 0.4755 0.0
C357 C 0.83276 0.56415 0.48283 0.0
C358 C 0.84056 0.57727 0.49917 0.0
C359 C 0.87985 0.5613 0.50769 0.0
C360 C 0.95505 0.51559 0.50904 0.0
C361 C 0.99788 0.51925 0.50079 0.0
C362 C 0.95487 0.49979 0.52547 0.0
C363 C 0.91081 0.48974 0.5344 0.0
C364 C 0.87752 0.45942 0.52774 0.0
C365 C 0.83668 0.44888 0.5363 0.0
C366 C 0.82813 0.46836 0.55176 0.0
C367 C 0.86156 0.49882 0.55838 0.0
C368 C 0.90251 0.50923 0.54982 0.0
C369 C 0.08408 0.4831 0.53408 0.0
C370 C 0.0949 0.5061 0.5487 0.0
C371 C 0.13582 0.49524 0.55727 0.0
C372 C 0.16675 0.46096 0.55144 0.0
C373 C 0.15559 0.43776 0.53684 0.0
C374 C 0.11464 0.4486 0.52829 0.0
C375 C 0.04041 0.49478 0.5251 0.0
C376 C 0.99761 0.49064 0.53335 0.0
C377 C 0.04047 0.50854 0.50848 0.0
C378 C 0.08408 0.51303 0.49876 0.0
C379 C 0.12085 0.54162 0.50399 0.0
C380 C 0.16078 0.54706 0.49437 0.0
C381 C 0.16456 0.52446 0.4792 0.0
C382 C 0.12782 0.49564 0.47406 0.0
C383 C 0.08808 0.49 0.48372 0.0
Fe384 Fe 0.99943 0.74441 0.1794 0.0
O385 O 0.00557 0.74493 0.1559 0.0
Fe386 Fe 0.94705 0.76423 0.14069 0.0
Fe387 Fe 0.06275 0.75408 0.14231 0.0
O388 O 0.99973 0.76352 0.15664 0.0
O389 O 1.00265 0.75686 0.12627 0.0
O390 O 0.01114 0.77395 0.12725 0.0
Fe391 Fe 0.00972 0.77387 0.10355 0.0
C392 C 0.06789 0.82467 0.17127 0.0
O393 O 0.0547 0.69831 0.17786 0.0
O394 O 0.10753 0.72232 0.15899 0.0
O395 O 0.94707 0.73811 0.10087 0.0
O396 O 0.89957 0.75476 0.12228 0.0
O397 O 0.93831 0.69338 0.14745 0.0
O398 O 0.95271 0.69184 0.17495 0.0
O399 O 0.06188 0.69087 0.12907 0.0
O400 O 0.04796 0.71291 0.10263 0.0
C401 C 0.9352 0.67463 0.16182 0.0
O402 O 0.97085 0.8337 0.10659 0.0
O403 O 0.94878 0.83525 0.13341 0.0
O404 O 0.04632 0.79823 0.18156 0.0
O405 O 0.07006 0.81693 0.15568 0.0
C406 C 0.0946 0.69562 0.17081 0.0
C407 C 0.06347 0.68384 0.11345 0.0
C408 C 0.1104 0.80316 0.11435 0.0
O409 O 0.11499 0.77552 0.12669 0.0
O410 O 0.07203 0.80964 0.10643 0.0
C411 C 0.90705 0.73802 0.10801 0.0
O412 O 0.89756 0.78133 0.15802 0.0
O413 O 0.94315 0.78977 0.18058 0.0
C414 C 0.95088 0.8534 0.11887 0.0
C415 C 0.90495 0.79639 0.17258 0.0
Fe416 Fe 0.46832 0.74768 0.42845 0.0
O417 O 0.46637 0.74652 0.40444 0.0
Fe418 Fe 0.49636 0.80371 0.39192 0.0
Fe419 Fe 0.49463 0.69456 0.39145 0.0
O420 O 0.46605 0.75173 0.4044 0.0
O421 O 0.52352 0.75162 0.3789 0.0
O422 O 0.52376 0.74685 0.37893 0.0
Fe423 Fe 0.52414 0.75062 0.35507 0.0
C424 C 0.55332 0.68685 0.42175 0.0
O425 O 0.42123 0.69444 0.42551 0.0
O426 O 0.45805 0.64707 0.40661 0.0
O427 O 0.47479 0.80245 0.35258 0.0
O428 O 0.43926 0.80993 0.37662 0.0
O429 O 0.46226 0.85127 0.40757 0.0
O430 O 0.4241 0.80379 0.42617 0.0
O431 O 0.43734 0.69367 0.37629 0.0
O432 O 0.47262 0.70143 0.35219 0.0
C433 C 0.43174 0.8437 0.41909 0.0
O434 O 0.57119 0.80364 0.35852 0.0
O435 O 0.53359 0.85093 0.3771 0.0
O436 O 0.5181 0.696 0.43059 0.0
O437 O 0.55254 0.692 0.40635 0.0
C438 C 0.42686 0.65524 0.41788 0.0
C439 C 0.43858 0.68758 0.36091 0.0
C440 C 0.56122 0.65496 0.36469 0.0
O441 O 0.52973 0.64718 0.3759 0.0
O442 O 0.56902 0.69524 0.35793 0.0
C443 C 0.44124 0.81738 0.36128 0.0
O444 O 0.55417 0.80164 0.40678 0.0
O445 O 0.52051 0.79644 0.43112 0.0
C446 C 0.56515 0.8431 0.36597 0.0
C447 C 0.55531 0.80631 0.42217 0.0
Fe448 Fe 0.50086 0.29574 0.67954 0.0
O449 O 0.50192 0.2978 0.65546 0.0
Fe450 Fe 0.44576 0.26735 0.64275 0.0
Fe451 Fe 0.55404 0.26928 0.64269 0.0
O452 O 0.49714 0.29729 0.65554 0.0
O453 O 0.49806 0.23906 0.63011 0.0
O454 O 0.50263 0.23899 0.63014 0.0
Fe455 Fe 0.5001 0.23768 0.60626 0.0
C456 C 0.59197 0.3391 0.66877 0.0
O457 O 0.55483 0.24845 0.68175 0.0
O458 O 0.55588 0.21212 0.65795 0.0
O459 O 0.44541 0.19157 0.6095 0.0
O460 O 0.39882 0.2321 0.62753 0.0
O461 O 0.44538 0.20954 0.6577 0.0
O462 O 0.45421 0.24132 0.68229 0.0
O463 O 0.60178 0.23335 0.62768 0.0
O464 O 0.55512 0.19227 0.60975 0.0
C465 C 0.44254 0.20744 0.67316 0.0
O466 O 0.4493 0.28812 0.6034 0.0
O467 O 0.44212 0.32435 0.62733 0.0
O468 O 0.55263 0.34438 0.67641 0.0
O469 O 0.60071 0.30736 0.65773 0.0
C470 C 0.56408 0.21286 0.67317 0.0
C471 C 0.59478 0.20065 0.61689 0.0
C472 C 0.56371 0.32298 0.61177 0.0
O473 O 0.55564 0.32569 0.62702 0.0
O474 O 0.55045 0.28828 0.6033 0.0
C475 C 0.40552 0.20072 0.61632 0.0
O476 O 0.39762 0.30167 0.65787 0.0
O477 O 0.44327 0.33844 0.67727 0.0
C478 C 0.43487 0.32217 0.61199 0.0
C479 C 0.40425 0.33143 0.66961 0.0
Fe480 Fe 0.00723 0.2616 0.91108 0.0
O481 O 0.03417 0.22437 0.89284 0.0
Fe482 Fe 0.98063 0.36743 0.89285 0.0
Fe483 Fe 0.03289 0.15597 0.89239 0.0
O484 O 0.97771 0.29873 0.89311 0.0
O485 O 0.97796 0.2989 0.89133 0.0
O486 O 0.03429 0.22447 0.89118 0.0
Fe487 Fe 0.00622 0.26236 0.87299 0.0
C488 C 0.07612 0.18595 0.92477 0.0
O489 O 0.94989 0.21996 0.9122 0.0
O490 O 0.98259 0.14954 0.91048 0.0
O491 O 0.9723 0.30835 0.85663 0.0
O492 O 0.93505 0.36172 0.87335 0.0
O493 O 0.93422 0.3592 0.91157 0.0
O494 O 0.97189 0.30553 0.92806 0.0
O495 O 0.9813 0.1496 0.87517 0.0
O496 O 0.94797 0.21972 0.87173 0.0
C497 C 0.93998 0.33755 0.92538 0.0
O498 O 0.06468 0.30475 0.87208 0.0
O499 O 0.03133 0.37452 0.87544 0.0
O500 O 0.04498 0.21838 0.92762 0.0
O501 O 0.08028 0.1636 0.91109 0.0
C502 C 0.94949 0.17638 0.91492 0.0
C503 C 0.94807 0.17541 0.87011 0.0
C504 C 0.07076 0.18458 0.859 0.0
O505 O 0.07797 0.16356 0.8729 0.0
O506 O 0.04044 0.21795 0.85643 0.0
C507 C 0.94249 0.34205 0.8593 0.0
O508 O 0.03159 0.3723 0.91098 0.0
O509 O 0.06497 0.30259 0.91044 0.0
C510 C 0.06435 0.34898 0.87027 0.0
C511 C 0.06608 0.34543 0.91399 0.0
H512 H 0.19935 0.0289 0.44321 0.0
H513 H 0.37657 0.90667 0.40247 0.0
H514 H 0.23694 0.9367 0.48287 0.0
H515 H 0.4229 0.86724 0.45063 0.0
H516 H 0.31596 0.95581 0.41468 0.0
H517 H 0.27162 0.00695 0.4291 0.0
C518 C 0.22304 0.00427 0.44896 0.0
C519 C 0.21194 0.98386 0.46407 0.0
C520 C 0.34035 0.93786 0.42262 0.0
C521 C 0.294 0.95815 0.44802 0.0
C522 C 0.37505 0.90987 0.41559 0.0
C523 C 0.40433 0.88283 0.42559 0.0
C524 C 0.33539 0.93846 0.43972 0.0
C525 C 0.40059 0.88737 0.44253 0.0
C526 C 0.26403 0.9914 0.44084 0.0
C527 C 0.24375 0.95245 0.47108 0.0
N528 N 0.36631 0.91398 0.44905 0.0
N529 N 0.28315 0.9405 0.46299 0.0
H530 H 0.2691 0.97397 0.70125 0.0
H531 H 0.46058 0.1736 0.70381 0.0
H532 H 0.38931 0.96612 0.73311 0.0
H533 H 0.38232 0.14339 0.6601 0.0
H534 H 0.42826 0.10334 0.7166 0.0
H535 H 0.30385 0.04141 0.68768 0.0
C536 C 0.30289 0.98593 0.70537 0.0
C537 C 0.32608 0.96378 0.71846 0.0
C538 C 0.41828 0.11206 0.7042 0.0
C539 C 0.36539 0.0423 0.70313 0.0
C540 C 0.43651 0.15225 0.69692 0.0
C541 C 0.42401 0.16445 0.68088 0.0
C542 C 0.38656 0.08433 0.69552 0.0
C543 C 0.393 0.13521 0.67248 0.0
C544 C 0.32255 0.02474 0.69763 0.0
C545 C 0.36937 0.98221 0.72337 0.0
N546 N 0.37497 0.09677 0.67995 0.0
N547 N 0.38739 0.02046 0.71579 0.0
H548 H 0.29555 0.03837 0.97525 0.0
H549 H 0.11506 0.24065 0.949 0.0
H550 H 0.30481 0.17874 0.99376 0.0
H551 H 0.11595 0.10095 0.92964 0.0
H552 H 0.17943 0.2183 0.9675 0.0
H553 H 0.22536 0.06037 0.96025 0.0
C554 C 0.28294 0.07393 0.97613 0.0
C555 C 0.30662 0.10678 0.9857 0.0
C556 C 0.16511 0.1925 0.95931 0.0
C557 C 0.22531 0.13239 0.96853 0.0
C558 C 0.12816 0.20515 0.94885 0.0
C559 C 0.1102 0.17269 0.9377 0.0
C560 C 0.18386 0.14703 0.95865 0.0
C561 C 0.12892 0.12732 0.93789 0.0
C562 C 0.24255 0.08648 0.96761 0.0
C563 C 0.28769 0.15212 0.98662 0.0
N564 N 0.16462 0.11601 0.94809 0.0
N565 N 0.24838 0.16367 0.97807 0.0
H566 H 0.20146 0.0061 0.24002 0.0
H567 H 0.10753 0.90124 0.1556 0.0
H568 H 0.19916 0.0879 0.19567 0.0
H569 H 0.08566 0.84057 0.20334 0.0
H570 H 0.1486 0.96675 0.16868 0.0
H571 H 0.16751 0.94106 0.22529 0.0
C572 C 0.19369 0.01042 0.22716 0.0
C573 C 0.20257 0.05279 0.21915 0.0
C574 C 0.13465 0.93893 0.17619 0.0
C575 C 0.16371 0.97795 0.20204 0.0
C576 C 0.11125 0.9016 0.16875 0.0
C577 C 0.09266 0.86536 0.17834 0.0
C578 C 0.1399 0.93949 0.19327 0.0
C579 C 0.09876 0.86767 0.19535 0.0
C580 C 0.17439 0.97316 0.21871 0.0
C581 C 0.19292 0.05582 0.20233 0.0
N582 N 0.12176 0.90383 0.20218 0.0
N583 N 0.17368 0.01896 0.19432 0.0
H584 H 0.20305 0.03345 0.56346 0.0
H585 H 0.32088 0.24131 0.61123 0.0
H586 H 0.19325 0.17668 0.54681 0.0
H587 H 0.397 0.11323 0.60337 0.0
H588 H 0.25807 0.2121 0.59376 0.0
H589 H 0.26154 0.05734 0.58347 0.0
C590 C 0.2132 0.06977 0.56382 0.0
C591 C 0.19277 0.10299 0.55326 0.0
C592 C 0.28824 0.1902 0.59612 0.0
C593 C 0.25805 0.13046 0.57676 0.0
C594 C 0.32377 0.20651 0.60621 0.0
C595 C 0.3641 0.17954 0.60872 0.0
C596 C 0.29271 0.14629 0.58881 0.0
C597 C 0.36644 0.13504 0.60168 0.0
C598 C 0.24624 0.08329 0.5754 0.0
C599 C 0.20683 0.14977 0.55482 0.0
N600 N 0.33113 0.11969 0.592 0.0
N601 N 0.23824 0.16213 0.56643 0.0
H602 H 0.24442 0.99377 0.80738 0.0
H603 H 0.0373 0.17122 0.82809 0.0
H604 H 0.10834 0.98916 0.78475 0.0
H605 H 0.15906 0.14974 0.85825 0.0
H606 H 0.07144 0.11957 0.80748 0.0
H607 H 0.22124 0.06472 0.82165 0.0
C608 C 0.20972 0.00774 0.80536 0.0
C609 C 0.17801 0.98491 0.79507 0.0
C610 C 0.09107 0.12701 0.81846 0.0
C611 C 0.15148 0.06658 0.81122 0.0
C612 C 0.07184 0.15683 0.83013 0.0
C613 C 0.0953 0.16429 0.84492 0.0
C614 C 0.13408 0.105 0.82162 0.0
C615 C 0.13967 0.1444 0.84706 0.0
C616 C 0.19663 0.04844 0.81342 0.0
C617 C 0.13397 0.00549 0.79256 0.0
N618 N 0.15742 0.11529 0.83563 0.0
N619 N 0.12182 0.04487 0.80072 0.0
H620 H 0.36482 0.88339 0.06678 0.0
H621 H 0.10979 0.89167 0.10263 0.0
H622 H 0.29405 0.01318 0.07671 0.0
H623 H 0.2026 0.77676 0.11346 0.0
H624 H 0.17534 0.93529 0.09135 0.0
H625 H 0.30418 0.84159 0.082 0.0
C626 C 0.33647 0.903 0.07219 0.0
C627 C 0.33408 0.95169 0.07044 0.0
C628 C 0.18151 0.90073 0.09633 0.0
C629 C 0.26493 0.90432 0.08773 0.0
C630 C 0.14414 0.87574 0.10269 0.0
C631 C 0.15091 0.83051 0.10888 0.0
C632 C 0.22583 0.87997 0.09581 0.0
C633 C 0.1961 0.81162 0.10881 0.0
C634 C 0.30221 0.87924 0.08096 0.0
C635 C 0.29708 0.97563 0.07782 0.0
N636 N 0.2319 0.83624 0.10213 0.0
N637 N 0.26359 0.95163 0.08599 0.0
H638 H 0.31831 0.99508 0.28787 0.0
H639 H 0.39399 0.8908 0.37499 0.0
H640 H 0.31743 0.07537 0.3323 0.0
H641 H 0.41501 0.82009 0.3293 0.0
H642 H 0.35275 0.95355 0.36037 0.0
H643 H 0.34213 0.92637 0.30357 0.0
C644 C 0.3231 0.99836 0.30093 0.0
C645 C 0.31628 0.04143 0.3087 0.0
C646 C 0.36574 0.92392 0.35359 0.0
C647 C 0.34309 0.96234 0.32686 0.0
C648 C 0.38878 0.88785 0.36197 0.0
C649 C 0.40802 0.85023 0.35337 0.0
C650 C 0.36178 0.92218 0.33649 0.0
C651 C 0.40101 0.84861 0.33641 0.0
C652 C 0.33643 0.95895 0.30992 0.0
C653 C 0.32195 0.04299 0.32575 0.0
N654 N 0.37883 0.88417 0.32854 0.0
N655 N 0.33532 0.00418 0.33422 0.0
H656 H 0.75604 0.02912 0.55285 0.0
H657 H 0.68765 0.22406 0.6181 0.0
H658 H 0.84854 0.13934 0.56801 0.0
H659 H 0.59395 0.11666 0.60137 0.0
H660 H 0.75115 0.18626 0.60317 0.0
H661 H 0.70009 0.05398 0.57357 0.0
C662 C 0.76474 0.05828 0.56063 0.0
C663 C 0.80666 0.08265 0.55852 0.0
C664 C 0.71679 0.17065 0.60295 0.0
C665 C 0.74279 0.11149 0.58221 0.0
C666 C 0.68062 0.19205 0.61157 0.0
C667 C 0.63527 0.17394 0.61076 0.0
C668 C 0.70745 0.13092 0.5935 0.0
C669 C 0.62819 0.13237 0.60209 0.0
C670 C 0.73277 0.07257 0.57243 0.0
C671 C 0.81609 0.12028 0.56894 0.0
N672 N 0.66373 0.1126 0.59366 0.0
N673 N 0.78429 0.13375 0.58024 0.0
H674 H 0.7029 1.00005 0.29339 0.0
H675 H 0.55188 0.9376 0.37058 0.0
H676 H 0.66785 0.10564 0.32864 0.0
H677 H 0.64307 0.83829 0.34705 0.0
H678 H 0.59111 1.00069 0.35563 0.0
H679 H 0.67646 0.94006 0.31256 0.0
C680 C 0.68972 0.01043 0.30521 0.0
C681 C 0.68741 0.05754 0.30951 0.0
C682 C 0.60283 0.96505 0.354 0.0
C683 C 0.65685 0.98958 0.3314 0.0
C684 C 0.5806 0.92908 0.36255 0.0
C685 C 0.5935 0.88246 0.35982 0.0
C686 C 0.63765 0.95402 0.34259 0.0
C687 C 0.6311 0.87354 0.34929 0.0
C688 C 0.67495 0.97633 0.31618 0.0
C689 C 0.6703 0.06946 0.32498 0.0
N690 N 0.65126 0.90886 0.34088 0.0
N691 N 0.65506 0.03564 0.33535 0.0
H692 H 0.78496 0.00629 0.05206 0.0
H693 H 0.87118 0.88376 0.13415 0.0
H694 H 0.69785 0.99303 0.09467 0.0
H695 H 0.96108 0.91467 0.09344 0.0
H696 H 0.81038 0.93273 0.12176 0.0
H697 H 0.85182 0.97972 0.0682 0.0
C698 C 0.77993 0.99793 0.06484 0.0
C699 C 0.73558 1.00157 0.07196 0.0
C700 C 0.84379 0.92965 0.11571 0.0
C701 C 0.81227 0.97104 0.09063 0.0
C702 C 0.87879 0.9021 0.12291 0.0
C703 C 0.92115 0.89445 0.11476 0.0
C704 C 0.8512 0.94954 0.1002 0.0
C705 C 0.92876 0.91894 0.10009 0.0
C706 C 0.81822 0.98304 0.0741 0.0
C707 C 0.7314 0.99094 0.08867 0.0
N708 N 0.89393 0.94457 0.09317 0.0
N709 N 0.76906 0.97565 0.09738 0.0
H710 H 0.87255 0.0138 0.78866 0.0
H711 H 0.8917 0.10375 0.87894 0.0
H712 H 0.78562 0.95816 0.82691 0.0
H713 H 0.92805 0.19114 0.83804 0.0
H714 H 0.85084 0.05091 0.86035 0.0
H715 H 0.89338 0.0791 0.80646 0.0
C716 C 0.85763 0.01553 0.80078 0.0
C717 C 0.8275 0.98036 0.80635 0.0
C718 C 0.86665 0.08225 0.85546 0.0
C719 C 0.85145 0.05481 0.82683 0.0
C720 C 0.8896 0.11257 0.86608 0.0
C721 C 0.91246 0.15219 0.86001 0.0
C722 C 0.86797 0.09075 0.83857 0.0
C723 C 0.90995 0.16145 0.84321 0.0
C724 C 0.86926 0.05295 0.81089 0.0
C725 C 0.80884 0.98457 0.82211 0.0
N726 N 0.88893 0.13046 0.83301 0.0
N727 N 0.82165 0.02067 0.83188 0.0
H728 H 0.77866 0.87381 0.48932 0.0
H729 H 0.62597 0.85637 0.40793 0.0
H730 H 0.79433 0.96932 0.44888 0.0
H731 H 0.58122 0.79971 0.45421 0.0
H732 H 0.69429 0.88988 0.42151 0.0
H733 H 0.71212 0.83814 0.47536 0.0
C734 C 0.7681 0.88717 0.47748 0.0
C735 C 0.79185 0.92464 0.47025 0.0
C736 C 0.66947 0.87007 0.42866 0.0
C737 C 0.71615 0.88391 0.45419 0.0
C738 C 0.63063 0.85075 0.42092 0.0
C739 C 0.59772 0.82538 0.42997 0.0
C740 C 0.67581 0.86334 0.44551 0.0
C741 C 0.6055 0.8193 0.44678 0.0
C742 C 0.73008 0.86697 0.46956 0.0
C743 C 0.77661 0.94082 0.45494 0.0
N744 N 0.64379 0.83801 0.45399 0.0
N745 N 0.73985 0.9202 0.44737 0.0
H746 H 0.78356 0.98663 0.24093 0.0
H747 H 0.83818 0.85167 0.15785 0.0
H748 H 0.77017 0.05046 0.1933 0.0
H749 H 0.89248 0.81184 0.20505 0.0
H750 H 0.79411 0.91501 0.17085 0.0
H751 H 0.80516 0.91325 0.22793 0.0
C752 C 0.78502 0.98525 0.22774 0.0
C753 C 0.77589 0.02516 0.21822 0.0
C754 C 0.81519 0.89189 0.17834 0.0
C755 C 0.79985 0.94082 0.20326 0.0
C756 C 0.8402 0.8557 0.17095 0.0
C757 C 0.87001 0.82728 0.18032 0.0
C758 C 0.81942 0.89889 0.19524 0.0
C759 C 0.87069 0.83354 0.1973 0.0
C760 C 0.79705 0.94323 0.22033 0.0
C761 C 0.77691 0.0207 0.20115 0.0
N762 N 0.84617 0.86887 0.20418 0.0
N763 N 0.78917 0.97942 0.19421 0.0
H764 H 0.77141 0.12347 0.99706 0.0
H765 H 0.90187 0.09338 0.91251 0.0
H766 H 0.70043 0.06059 0.9561 0.0
H767 H 0.91346 0.2178 0.94151 0.0
H768 H 0.83897 0.06595 0.93075 0.0
H769 H 0.83596 0.14357 0.97905 0.0
C770 C 0.76908 0.11391 0.98433 0.0
C771 C 0.72966 0.09082 0.97815 0.0
C772 C 0.85551 0.09922 0.93305 0.0
C773 C 0.80469 0.11227 0.95764 0.0
C774 C 0.89126 0.11471 0.92274 0.0
C775 C 0.91228 0.15808 0.92551 0.0
C776 C 0.84217 0.12675 0.9464 0.0
C777 C 0.89753 0.18454 0.93888 0.0
C778 C 0.80624 0.1251 0.97411 0.0
C779 C 0.73 0.07794 0.96157 0.0
N780 N 0.86366 0.16833 0.94892 0.0
N781 N 0.76694 0.08882 0.95189 0.0
H782 H 0.7193 0.03083 0.73822 0.0
H783 H 0.5739 0.12408 0.66121 0.0
H784 H 0.65331 0.93937 0.70353 0.0
H785 H 0.60512 0.20872 0.70327 0.0
H786 H 0.61033 0.05713 0.67494 0.0
H787 H 0.68539 0.09802 0.72383 0.0
C788 C 0.69786 0.02497 0.72752 0.0
C789 C 0.68889 0.97956 0.72208 0.0
C790 C 0.60915 0.0904 0.68114 0.0
C791 C 0.65009 0.05601 0.70559 0.0
C792 C 0.58852 0.12864 0.67329 0.0
C793 C 0.58639 0.17205 0.68111 0.0
C794 C 0.62825 0.09579 0.69682 0.0
C795 C 0.60576 0.17588 0.6968 0.0
C796 C 0.67832 0.06323 0.71938 0.0
C797 C 0.6606 0.97383 0.70823 0.0
N798 N 0.62601 0.1383 0.70411 0.0
N799 N 0.64229 0.01162 0.70043 0.0
H800 H 0.70371 0.46811 0.96987 0.0
H801 H 0.91569 0.29066 0.9541 0.0
H802 H 0.72888 0.34938 1.00136 0.0
H803 H 0.88781 0.41675 0.92669 0.0
H804 H 0.85097 0.31108 0.97258 0.0
H805 H 0.77382 0.44928 0.95482 0.0
C806 C 0.72423 0.4383 0.9738 0.0
C807 C 0.71019 0.41067 0.98709 0.0
C808 C 0.85939 0.33422 0.96253 0.0
C809 C 0.79112 0.38792 0.96941 0.0
C810 C 0.89631 0.32255 0.95198 0.0
C811 C 0.90657 0.35117 0.93847 0.0
C812 C 0.83305 0.37503 0.95961 0.0
C813 C 0.88082 0.39275 0.93662 0.0
C814 C 0.76438 0.42728 0.96506 0.0
C815 C 0.73798 0.37157 0.99114 0.0
N816 N 0.84538 0.40306 0.94692 0.0
N817 N 0.77705 0.36129 0.98232 0.0
H818 H 0.78174 0.4997 0.22337 0.0
H819 H 0.94791 0.58332 0.1524 0.0
H820 H 0.82766 0.40318 0.18652 0.0
H821 H 0.85472 0.67521 0.17815 0.0
H822 H 0.90515 0.51584 0.16368 0.0
H823 H 0.81035 0.56433 0.20668 0.0
C824 C 0.79775 0.49228 0.2117 0.0
C825 C 0.80255 0.44628 0.2063 0.0
C826 C 0.89341 0.55084 0.16649 0.0
C827 C 0.83577 0.51985 0.18714 0.0
C828 C 0.91751 0.58914 0.15996 0.0
C829 C 0.90441 0.63449 0.16436 0.0
C830 C 0.85683 0.5585 0.17762 0.0
C831 C 0.86561 0.64058 0.17448 0.0
C832 C 0.81383 0.52909 0.20212 0.0
C833 C 0.82327 0.43836 0.19104 0.0
N834 N 0.8436 0.60307 0.18095 0.0
N835 N 0.83977 0.47482 0.18204 0.0
H836 H 0.79072 0.65054 0.4856 0.0
H837 H 0.62017 0.62751 0.40962 0.0
H838 H 0.78176 0.52222 0.45824 0.0
H839 H 0.58373 0.7069 0.45236 0.0
H840 H 0.68951 0.59763 0.42413 0.0
H841 H 0.72375 0.68059 0.47044 0.0
C842 C 0.77469 0.62835 0.47655 0.0
C843 C 0.79213 0.58332 0.47342 0.0
C844 C 0.66623 0.62164 0.43026 0.0
C845 C 0.71619 0.61874 0.45553 0.0
C846 C 0.62692 0.63882 0.422 0.0
C847 C 0.59608 0.66941 0.42987 0.0
C848 C 0.67522 0.63621 0.4463 0.0
C849 C 0.60637 0.68299 0.44591 0.0
C850 C 0.73662 0.64586 0.46779 0.0
C851 C 0.77034 0.55728 0.46103 0.0
N852 N 0.64522 0.66656 0.45356 0.0
N853 N 0.73368 0.57543 0.4525 0.0
H854 H 0.74078 0.51442 0.73464 0.0
H855 H 0.62606 0.41525 0.65267 0.0
H856 H 0.71441 0.59875 0.6918 0.0
H857 H 0.63832 0.33703 0.69746 0.0
H858 H 0.67169 0.47852 0.66497 0.0
H859 H 0.71515 0.44563 0.71967 0.0
C860 C 0.72963 0.51853 0.72208 0.0
C861 C 0.72926 0.5627 0.71457 0.0
C862 C 0.66537 0.44706 0.67199 0.0
C863 C 0.70025 0.48364 0.69722 0.0
C864 C 0.63994 0.41076 0.66487 0.0
C865 C 0.62931 0.37077 0.67401 0.0
C866 C 0.67976 0.44329 0.68838 0.0
C867 C 0.6465 0.36718 0.68998 0.0
C868 C 0.71528 0.47911 0.71348 0.0
C869 C 0.7155 0.56549 0.6981 0.0
N870 N 0.67055 0.4031 0.69671 0.0
N871 N 0.70119 0.52664 0.69004 0.0
H872 H 0.68056 0.55158 0.0855 0.0
H873 H 0.89607 0.72351 0.07527 0.0
H874 H 0.7096 0.62314 0.04025 0.0
H875 H 0.83004 0.69789 0.12175 0.0
H876 H 0.83399 0.67935 0.06188 0.0
H877 H 0.74251 0.5966 0.09875 0.0
C878 C 0.70035 0.57647 0.07835 0.0
C879 C 0.69016 0.5838 0.0618 0.0
C880 C 0.83303 0.68369 0.075 0.0
C881 C 0.7606 0.63521 0.07679 0.0
C882 C 0.8684 0.70879 0.08264 0.0
C883 C 0.86811 0.71446 0.09964 0.0
C884 C 0.79765 0.6634 0.08445 0.0
C885 C 0.83139 0.6947 0.1086 0.0
C886 C 0.7353 0.60237 0.08592 0.0
C887 C 0.71635 0.61676 0.05307 0.0
N888 N 0.79782 0.66965 0.10091 0.0
N889 N 0.75058 0.64116 0.06066 0.0
H890 H 0.69249 0.50528 0.28837 0.0
H891 H 0.54345 0.56018 0.3671 0.0
H892 H 0.66315 0.39607 0.3232 0.0
H893 H 0.63828 0.65949 0.34538 0.0
H894 H 0.57935 0.49847 0.35045 0.0
H895 H 0.66253 0.5628 0.30781 0.0
C896 C 0.67959 0.49354 0.3001 0.0
C897 C 0.68041 0.44616 0.30428 0.0
C898 C 0.59244 0.5338 0.34956 0.0
C899 C 0.64585 0.51126 0.32645 0.0
C900 C 0.5722 0.56892 0.3591 0.0
C901 C 0.58727 0.61531 0.35748 0.0
C902 C 0.62731 0.54551 0.33823 0.0
C903 C 0.6247 0.62453 0.34686 0.0
C904 C 0.66281 0.52623 0.31121 0.0
C905 C 0.66338 0.43252 0.31965 0.0
N906 N 0.64282 0.5902 0.33749 0.0
N907 N 0.64638 0.46492 0.33017 0.0
H908 H 0.73936 0.45457 0.53992 0.0
H909 H 0.63327 0.37447 0.626 0.0
H910 H 0.81839 0.45352 0.58484 0.0
H911 H 0.56862 0.34643 0.57952 0.0
H912 H 0.6949 0.41789 0.61187 0.0
H913 H 0.67094 0.42802 0.55499 0.0
C914 C 0.74244 0.44879 0.55295 0.0
C915 C 0.78512 0.4558 0.56104 0.0
C916 C 0.66682 0.40281 0.6048 0.0
C917 C 0.7063 0.42601 0.57846 0.0
C918 C 0.63136 0.37848 0.61288 0.0
C919 C 0.5958 0.35672 0.60393 0.0
C920 C 0.6665 0.40564 0.58766 0.0
C921 C 0.59554 0.36239 0.5869 0.0
C922 C 0.70319 0.43389 0.56157 0.0
C923 C 0.78634 0.44889 0.57805 0.0
N924 N 0.63045 0.38599 0.57933 0.0
N925 N 0.74766 0.4341 0.58616 0.0
H926 H 0.9219 0.54819 0.78543 0.0
H927 H 0.85493 0.37875 0.85779 0.0
H928 H 0.78322 0.54068 0.80572 0.0
H929 H 0.97955 0.3597 0.82919 0.0
H930 H 0.82539 0.43333 0.83726 0.0
H931 H 0.94194 0.47565 0.79969 0.0
C932 C 0.89542 0.53101 0.79268 0.0
C933 C 0.85099 0.55112 0.79458 0.0
C934 C 0.85879 0.41657 0.83525 0.0
C935 C 0.87394 0.46828 0.81109 0.0
C936 C 0.87555 0.38527 0.84696 0.0
C937 C 0.91977 0.3649 0.84519 0.0
C938 C 0.88696 0.42852 0.82187 0.0
C939 C 0.94516 0.37454 0.83096 0.0
C940 C 0.90694 0.48959 0.80085 0.0
C941 C 0.81829 0.52728 0.80425 0.0
N942 N 0.92882 0.40647 0.81998 0.0
N943 N 0.83059 0.48753 0.81227 0.0
H944 H 0.24585 0.57075 0.04412 0.0
H945 H 0.1324 0.63239 0.12889 0.0
H946 H 0.29556 0.50598 0.08845 0.0
H947 H 0.05894 0.64567 0.08305 0.0
H948 H 0.19112 0.58361 0.1153 0.0
H949 H 0.17694 0.59856 0.05873 0.0
C950 C 0.24198 0.56219 0.05694 0.0
C951 C 0.27635 0.5362 0.06512 0.0
C952 C 0.16154 0.59641 0.10834 0.0
C953 C 0.19783 0.56833 0.08204 0.0
C954 C 0.12776 0.62396 0.11612 0.0
C955 C 0.09097 0.64386 0.10706 0.0
C956 C 0.15861 0.58922 0.0914 0.0
C957 C 0.08707 0.63185 0.0905 0.0
C958 C 0.20257 0.57781 0.06527 0.0
C959 C 0.26964 0.52583 0.08172 0.0
N960 N 0.12086 0.60617 0.08317 0.0
N961 N 0.23145 0.54253 0.08973 0.0
H962 H 0.10545 0.53799 0.79419 0.0
H963 H 0.13233 0.41141 0.87786 0.0
H964 H 0.23302 0.55504 0.8218 0.0
H965 H 0.06638 0.34272 0.83736 0.0
H966 H 0.16806 0.46714 0.85873 0.0
H967 H 0.08706 0.46985 0.81079 0.0
C968 C 0.13009 0.52743 0.80353 0.0
C969 C 0.17105 0.55318 0.80644 0.0
C970 C 0.14686 0.43906 0.85399 0.0
C971 C 0.14883 0.47526 0.82598 0.0
C972 C 0.12694 0.40704 0.86487 0.0
C973 C 0.09741 0.37186 0.85909 0.0
C974 C 0.13551 0.43692 0.83732 0.0
C975 C 0.0899 0.36872 0.84221 0.0
C976 C 0.11927 0.48839 0.81308 0.0
C977 C 0.20046 0.53761 0.8192 0.0
N978 N 0.10799 0.40144 0.83194 0.0
N979 N 0.18847 0.50021 0.82861 0.0
H980 H 0.25371 0.44151 0.53921 0.0
H981 H 0.36402 0.3727 0.62601 0.0
H982 H 0.17885 0.45289 0.58467 0.0
H983 H 0.43014 0.34564 0.57977 0.0
H984 H 0.30128 0.41438 0.61161 0.0
H985 H 0.3231 0.41701 0.55435 0.0
C986 C 0.2518 0.43884 0.55238 0.0
C987 C 0.21009 0.44882 0.56063 0.0
C988 C 0.32991 0.39993 0.60465 0.0
C989 C 0.28988 0.42123 0.57812 0.0
C990 C 0.366 0.3766 0.61288 0.0
C991 C 0.40228 0.35553 0.60408 0.0
C992 C 0.33028 0.4023 0.5875 0.0
C993 C 0.40265 0.36103 0.58704 0.0
C994 C 0.29159 0.42513 0.56104 0.0
C995 C 0.21021 0.4458 0.57777 0.0
N996 N 0.36706 0.3835 0.57932 0.0
N997 N 0.24933 0.43196 0.58593 0.0
H998 H 0.31616 0.51282 0.28819 0.0
H999 H 0.38597 0.61843 0.37504 0.0
H1000 H 0.31049 0.4344 0.33324 0.0
H1001 H 0.41364 0.68558 0.32884 0.0
H1002 H 0.34264 0.55751 0.36064 0.0
H1003 H 0.33747 0.58224 0.3036 0.0
C1004 C 0.3193 0.5102 0.30133 0.0
C1005 C 0.31222 0.46747 0.30939 0.0
C1006 C 0.35756 0.58602 0.3537 0.0
C1007 C 0.3362 0.54713 0.32717 0.0
C1008 C 0.38191 0.62103 0.36192 0.0
C1009 C 0.40386 0.65684 0.35309 0.0
C1010 C 0.35498 0.58709 0.33656 0.0
C1011 C 0.39776 0.65827 0.3361 0.0
C1012 C 0.3312 0.54995 0.31014 0.0
C1013 C 0.31556 0.46656 0.3265 0.0
N1014 N 0.37432 0.62368 0.32839 0.0
N1015 N 0.32778 0.50567 0.33481 0.0
H1016 H 0.32957 0.35719 0.96475 0.0
H1017 H 0.07461 0.42592 0.93204 0.0
H1018 H 0.2459 0.46628 0.98624 0.0
H1019 H 0.15034 0.30239 0.91758 0.0
H1020 H 0.14021 0.44713 0.94981 0.0
H1021 H 0.26654 0.34141 0.9456 0.0
C1022 C 0.2978 0.3776 0.96556 0.0
C1023 C 0.29305 0.41293 0.97725 0.0
C1024 C 0.14243 0.41555 0.94265 0.0
C1025 C 0.22083 0.39564 0.95502 0.0
C1026 C 0.10518 0.40361 0.93243 0.0
C1027 C 0.10684 0.36221 0.92337 0.0
C1028 C 0.18163 0.38602 0.94369 0.0
C1029 C 0.14727 0.33448 0.92442 0.0
C1030 C 0.26191 0.36882 0.9545 0.0
C1031 C 0.25137 0.43898 0.97736 0.0
N1032 N 0.18287 0.3468 0.93442 0.0
N1033 N 0.21686 0.42979 0.96643 0.0
H1034 H 0.26627 0.5831 0.69275 0.0
H1035 H 0.3613 0.32347 0.69867 0.0
H1036 H 0.26105 0.4989 0.73652 0.0
H1037 H 0.36097 0.40404 0.65418 0.0
H1038 H 0.31113 0.38204 0.71135 0.0
H1039 H 0.28815 0.51398 0.67724 0.0
C1040 C 0.26895 0.54992 0.69907 0.0
C1041 C 0.26239 0.54693 0.71602 0.0
C1042 C 0.32099 0.38655 0.69869 0.0
C1043 C 0.28812 0.46771 0.69834 0.0
C1044 C 0.34928 0.35296 0.69145 0.0
C1045 C 0.3647 0.35911 0.6754 0.0
C1046 C 0.30912 0.42712 0.6899 0.0
C1047 C 0.34911 0.39801 0.66654 0.0
C1048 C 0.28163 0.51046 0.6902 0.0
C1049 C 0.26682 0.50306 0.72355 0.0
N1050 N 0.32271 0.4311 0.67401 0.0
N1051 N 0.27987 0.4653 0.71469 0.0
H1052 H 0.16628 0.53842 0.44604 0.0
H1053 H 0.43734 0.60242 0.44498 0.0
H1054 H 0.25699 0.52879 0.48802 0.0
H1055 H 0.34484 0.62717 0.40438 0.0
H1056 H 0.3752 0.55965 0.45895 0.0
H1057 H 0.23386 0.55676 0.42903 0.0
C1058 C 0.20049 0.53952 0.45166 0.0
C1059 C 0.20584 0.53242 0.46854 0.0
C1060 C 0.36869 0.57334 0.44681 0.0
C1061 C 0.28345 0.55374 0.4491 0.0
C1062 C 0.40437 0.59715 0.43877 0.0
C1063 C 0.39621 0.61748 0.42345 0.0
C1064 C 0.32427 0.57063 0.43959 0.0
C1065 C 0.35258 0.61111 0.41607 0.0
C1066 C 0.23906 0.55019 0.44193 0.0
C1067 C 0.25104 0.53481 0.47513 0.0
N1068 N 0.31796 0.58872 0.4243 0.0
N1069 N 0.28797 0.54551 0.46543 0.0
H1070 H 0.28832 0.49605 0.21573 0.0
H1071 H 0.06487 0.60737 0.17156 0.0
H1072 H 0.14775 0.4438 0.21923 0.0
H1073 H 0.18716 0.69033 0.18085 0.0
H1074 H 0.10332 0.54016 0.18388 0.0
H1075 H 0.25918 0.56162 0.19885 0.0
C1076 C 0.25145 0.49833 0.21289 0.0
C1077 C 0.22025 0.46476 0.21899 0.0
C1078 C 0.12214 0.57283 0.18315 0.0
C1079 C 0.18713 0.53865 0.19962 0.0
C1080 C 0.10029 0.61113 0.17603 0.0
C1081 C 0.12279 0.65442 0.17536 0.0
C1082 C 0.1669 0.57761 0.18986 0.0
C1083 C 0.16878 0.6574 0.18117 0.0
C1084 C 0.23492 0.53567 0.20333 0.0
C1085 C 0.1729 0.46922 0.215 0.0
N1086 N 0.18931 0.61945 0.18841 0.0
N1087 N 0.15791 0.50528 0.20556 0.0
loop_
_geom_bond_atom_site_label_1
_geom_bond_atom_site_label_2
_geom_bond_distance
_geom_bond_site_symmetry_2
_ccdc_geom_bond_type
H0 C19 0.949 . S
H1 C20 0.950 . S
H2 C22 0.938 1_545 S
H3 C23 0.950 . S
H4 C25 0.950 . S
H5 C28 0.950 1_565 S
H6 C29 0.950 . S
H7 C31 0.951 . S
H8 C32 0.949 . S
H9 C34 0.949 . S
H10 C35 0.950 . S
H11 C37 0.950 . S
H12 C38 0.950 1_565 S
H13 C40 0.950 . S
H14 C43 0.950 . S
H15 C44 0.950 1_545 S
H16 C46 0.951 . S
H17 C47 0.949 . S
C18 C19 1.376 . S
C18 C23 1.386 1_565 S
C18 C24 1.483 . S
C19 H0 0.949 . S
C19 C18 1.376 . S
C19 C20 1.397 . S
C20 H1 0.950 . S
C20 C19 1.397 . S
C20 C21 1.391 . S
C21 C20 1.391 . S
C21 C22 1.422 . S
C22 H2 0.938 1_565 S
C22 C21 1.422 . S
C22 C23 1.362 1_565 S
C23 H3 0.950 . S
C23 C18 1.386 1_545 S
C23 C22 1.362 1_545 S
C24 C18 1.483 . S
C24 C25 1.382 . S
C24 C26 1.403 1_565 S
C25 H4 0.950 . S
C25 C24 1.382 . S
C25 C41 1.411 1_655 S
C26 C24 1.403 1_545 S
C26 C27 1.489 . S
C26 C40 1.411 1_655 S
C27 C26 1.489 . S
C27 C28 1.383 . S
C27 C32 1.382 . S
C28 H5 0.950 1_545 S
C28 C27 1.383 . S
C28 C29 1.395 . S
C29 H6 0.950 . S
C29 C28 1.395 . S
C29 C30 1.288 . S
C30 C29 1.288 . S
C30 C31 1.392 . S
C31 H7 0.951 . S
C31 C30 1.392 . S
C31 C32 1.392 . S
C32 H8 0.949 . S
C32 C27 1.382 . S
C32 C31 1.392 . S
C33 C34 1.376 . S
C33 C38 1.386 . S
C33 C39 1.483 . S
C34 H9 0.949 . S
C34 C33 1.376 . S
C34 C35 1.397 . S
C35 H10 0.950 . S
C35 C34 1.397 . S
C35 C36 1.391 . S
C36 C35 1.391 . S
C36 C37 1.405 . S
C37 H11 0.950 . S
C37 C36 1.405 . S
C37 C38 1.367 . S
C38 H12 0.950 1_545 S
C38 C33 1.386 . S
C38 C37 1.367 . S
C39 C33 1.483 . S
C39 C40 1.382 . S
C39 C41 1.403 1_545 S
C40 H13 0.950 . S
C40 C26 1.411 1_455 S
C40 C39 1.382 . S
C41 C25 1.411 1_455 S
C41 C39 1.403 1_565 S
C41 C42 1.489 . S
C42 C41 1.489 . S
C42 C43 1.383 1_565 S
C42 C47 1.382 . S
C43 H14 0.950 . S
C43 C42 1.383 1_545 S
C43 C44 1.395 1_545 S
C44 H15 0.950 1_565 S
C44 C43 1.395 1_565 S
C44 C45 1.288 . S
C45 C44 1.288 . S
C45 C46 1.392 . S
C46 H16 0.951 . S
C46 C45 1.392 . S
C46 C47 1.392 . S
C47 H17 0.949 . S
C47 C42 1.382 . S
C47 C46 1.392 . S
H48 C67 0.949 . S
H49 C68 0.950 . S
H50 C70 0.950 . S
H51 C71 0.950 . S
H52 C73 0.950 . S
H53 C76 0.950 . S
H54 C77 0.950 . S
H55 C79 0.951 . S
H56 C80 0.949 . S
H57 C82 0.949 . S
H58 C83 0.950 . S
H59 C85 0.950 . S
H60 C86 0.950 . S
H61 C88 0.950 . S
H62 C91 0.950 . S
H63 C92 0.950 . S
H64 C94 0.951 . S
H65 C95 0.949 . S
C66 C67 1.376 . S
C66 C71 1.386 . S
C66 C72 1.483 . S
C67 H48 0.949 . S
C67 C66 1.376 . S
C67 C68 1.397 . S
C68 H49 0.950 . S
C68 C67 1.397 . S
C68 C69 1.391 . S
C69 C68 1.391 . S
C69 C70 1.405 . S
C70 H50 0.950 . S
C70 C69 1.405 . S
C70 C71 1.367 . S
C71 H51 0.950 . S
C71 C66 1.386 . S
C71 C70 1.367 . S
C72 C66 1.483 . S
C72 C73 1.382 . S
C72 C74 1.403 . S
C73 H52 0.950 . S
C73 C72 1.382 . S
C73 C89 1.411 . S
C74 C72 1.403 . S
C74 C75 1.489 . S
C74 C88 1.411 . S
C75 C74 1.489 . S
C75 C76 1.383 . S
C75 C80 1.382 . S
C76 H53 0.950 . S
C76 C75 1.383 . S
C76 C77 1.395 . S
C77 H54 0.950 . S
C77 C76 1.395 . S
C77 C78 1.288 . S
C78 C77 1.288 . S
C78 C79 1.392 . S
C79 H55 0.951 . S
C79 C78 1.392 . S
C79 C80 1.392 . S
C80 H56 0.949 . S
C80 C75 1.382 . S
C80 C79 1.392 . S
C81 C82 1.376 . S
C81 C86 1.386 . S
C81 C87 1.483 . S
C82 H57 0.949 . S
C82 C81 1.376 . S
C82 C83 1.397 . S
C83 H58 0.950 . S
C83 C82 1.397 . S
C83 C84 1.391 . S
C84 C83 1.391 . S
C84 C85 1.405 . S
C85 H59 0.950 . S
C85 C84 1.405 . S
C85 C86 1.367 . S
C86 H60 0.950 . S
C86 C81 1.386 . S
C86 C85 1.367 . S
C87 C81 1.483 . S
C87 C88 1.382 . S
C87 C89 1.403 . S
C88 H61 0.950 . S
C88 C74 1.411 . S
C88 C87 1.382 . S
C89 C73 1.411 . S
C89 C87 1.403 . S
C89 C90 1.489 . S
C90 C89 1.489 . S
C90 C91 1.383 . S
C90 C95 1.382 . S
C91 H62 0.950 . S
C91 C90 1.383 . S
C91 C92 1.395 . S
C92 H63 0.950 . S
C92 C91 1.395 . S
C92 C93 1.288 . S
C93 C92 1.288 . S
C93 C94 1.392 . S
C94 H64 0.951 . S
C94 C93 1.392 . S
C94 C95 1.392 . S
C95 H65 0.949 . S
C95 C90 1.382 . S
C95 C94 1.392 . S
H96 C115 0.949 1_545 S
H97 C116 0.950 . S
H98 C118 0.950 . S
H99 C119 0.950 . S
H100 C121 0.950 . S
H101 C124 0.950 . S
H102 C125 0.950 . S
H103 C127 0.951 . S
H104 C128 0.949 . S
H105 C130 0.949 1_565 S
H106 C131 0.950 . S
H107 C133 0.948 . S
H108 C134 0.950 . S
H109 C136 0.950 . S
H110 C139 0.950 . S
H111 C140 0.950 . S
H112 C142 0.951 . S
H113 C143 0.955 . S
C114 C115 1.376 . S
C114 C119 1.386 . S
C114 C120 1.483 . S
C115 H96 0.949 1_565 S
C115 C114 1.376 . S
C115 C116 1.397 . S
C116 H97 0.950 . S
C116 C115 1.397 . S
C116 C117 1.391 . S
C117 C116 1.391 . S
C117 C118 1.405 . S
C118 H98 0.950 . S
C118 C117 1.405 . S
C118 C119 1.367 . S
C119 H99 0.950 . S
C119 C114 1.386 . S
C119 C118 1.367 . S
C120 C114 1.483 . S
C120 C121 1.382 . S
C120 C122 1.403 1_565 S
C121 H100 0.950 . S
C121 C120 1.382 . S
C121 C137 1.411 . S
C122 C120 1.403 1_545 S
C122 C123 1.489 1_554 S
C122 C136 1.411 1_554 S
C123 C122 1.489 1_556 S
C123 C124 1.383 1_556 S
C123 C128 1.382 . S
C124 H101 0.950 . S
C124 C123 1.383 1_554 S
C124 C125 1.395 1_554 S
C125 H102 0.950 . S
C125 C124 1.395 1_556 S
C125 C126 1.288 . S
C126 C125 1.288 . S
C126 C127 1.392 . S
C127 H103 0.951 . S
C127 C126 1.392 . S
C127 C128 1.392 . S
C128 H104 0.949 . S
C128 C123 1.382 . S
C128 C127 1.392 . S
C129 C130 1.376 . S
C129 C134 1.386 1_556 S
C129 C135 1.483 1_556 S
C130 H105 0.949 1_545 S
C130 C129 1.376 . S
C130 C131 1.397 . S
C131 H106 0.950 . S
C131 C130 1.397 . S
C131 C132 1.391 . S
C132 C131 1.391 . S
C132 C133 1.405 . S
C133 H107 0.948 . S
C133 C132 1.405 . S
C133 C134 1.367 1_556 S
C134 H108 0.950 . S
C134 C129 1.386 1_554 S
C134 C133 1.367 1_554 S
C135 C129 1.483 1_554 S
C135 C136 1.382 1_554 S
C135 C137 1.403 1_545 S
C136 H109 0.950 . S
C136 C122 1.411 1_556 S
C136 C135 1.382 1_556 S
C137 C121 1.411 . S
C137 C135 1.403 1_565 S
C137 C138 1.489 . S
C138 C137 1.489 . S
C138 C139 1.383 . S
C138 C143 1.382 . S
C139 H110 0.950 . S
C139 C138 1.383 . S
C139 C140 1.395 . S
C140 H111 0.950 . S
C140 C139 1.395 . S
C140 C141 1.288 . S
C141 C140 1.288 . S
C141 C142 1.392 . S
C142 H112 0.951 . S
C142 C141 1.392 . S
C142 C143 1.392 . S
C143 H113 0.955 . S
C143 C138 1.382 . S
C143 C142 1.392 . S
H144 C163 0.949 . S
H145 C164 0.950 . S
H146 C166 0.950 . S
H147 C167 0.950 . S
H148 C169 0.950 . S
H149 C172 0.950 . S
H150 C173 0.950 . S
H151 C175 0.951 . S
H152 C176 0.949 . S
H153 C178 0.949 . S
H154 C179 0.950 . S
H155 C181 0.950 . S
H156 C182 0.950 . S
H157 C184 0.950 . S
H158 C187 0.950 . S
H159 C188 0.950 . S
H160 C190 0.951 . S
H161 C191 0.949 . S
C162 C163 1.376 . S
C162 C167 1.386 . S
C162 C168 1.483 . S
C163 H144 0.949 . S
C163 C162 1.376 . S
C163 C164 1.397 . S
C164 H145 0.950 . S
C164 C163 1.397 . S
C164 C165 1.391 . S
C165 C164 1.391 . S
C165 C166 1.405 . S
C166 H146 0.950 . S
C166 C165 1.405 . S
C166 C167 1.367 . S
C167 H147 0.950 . S
C167 C162 1.386 . S
C167 C166 1.367 . S
C168 C162 1.483 . S
C168 C169 1.382 . S
C168 C170 1.403 . S
C169 H148 0.950 . S
C169 C168 1.382 . S
C169 C185 1.411 . S
C170 C168 1.403 . S
C170 C171 1.489 . S
C170 C184 1.411 . S
C171 C170 1.489 . S
C171 C172 1.383 . S
C171 C176 1.382 . S
C172 H149 0.950 . S
C172 C171 1.383 . S
C172 C173 1.395 . S
C173 H150 0.950 . S
C173 C172 1.395 . S
C173 C174 1.288 . S
C174 C173 1.288 . S
C174 C175 1.392 . S
C175 H151 0.951 . S
C175 C174 1.392 . S
C175 C176 1.392 . S
C176 H152 0.949 . S
C176 C171 1.382 . S
C176 C175 1.392 . S
C177 C178 1.376 . S
C177 C182 1.386 . S
C177 C183 1.483 . S
C178 H153 0.949 . S
C178 C177 1.376 . S
C178 C179 1.397 . S
C179 H154 0.950 . S
C179 C178 1.397 . S
C179 C180 1.391 . S
C180 C179 1.391 . S
C180 C181 1.405 . S
C181 H155 0.950 . S
C181 C180 1.405 . S
C181 C182 1.367 . S
C182 H156 0.950 . S
C182 C177 1.386 . S
C182 C181 1.367 . S
C183 C177 1.483 . S
C183 C184 1.382 . S
C183 C185 1.403 . S
C184 H157 0.950 . S
C184 C170 1.411 . S
C184 C183 1.382 . S
C185 C169 1.411 . S
C185 C183 1.403 . S
C185 C186 1.489 . S
C186 C185 1.489 . S
C186 C187 1.383 . S
C186 C191 1.382 . S
C187 H158 0.950 . S
C187 C186 1.383 . S
C187 C188 1.395 . S
C188 H159 0.950 . S
C188 C187 1.395 . S
C188 C189 1.288 . S
C189 C188 1.288 . S
C189 C190 1.392 . S
C190 H160 0.951 . S
C190 C189 1.392 . S
C190 C191 1.392 . S
C191 H161 0.949 . S
C191 C186 1.382 . S
C191 C190 1.392 . S
H192 C211 0.949 . S
H193 C212 0.950 . S
H194 C214 0.950 . S
H195 C215 0.950 . S
H196 C217 0.950 . S
H197 C220 0.950 . S
H198 C221 0.950 . S
H199 C223 0.951 . S
H200 C224 0.949 . S
H201 C226 0.949 . S
H202 C227 0.950 . S
H203 C229 0.950 . S
H204 C230 0.950 . S
H205 C232 0.950 . S
H206 C235 0.950 . S
H207 C236 0.950 . S
H208 C238 0.951 . S
H209 C239 0.949 . S
C210 C211 1.376 . S
C210 C215 1.386 . S
C210 C216 1.483 . S
C211 H192 0.949 . S
C211 C210 1.376 . S
C211 C212 1.397 . S
C212 H193 0.950 . S
C212 C211 1.397 . S
C212 C213 1.391 . S
C213 C212 1.391 . S
C213 C214 1.405 . S
C214 H194 0.950 . S
C214 C213 1.405 . S
C214 C215 1.367 . S
C215 H195 0.950 . S
C215 C210 1.386 . S
C215 C214 1.367 . S
C216 C210 1.483 . S
C216 C217 1.382 . S
C216 C218 1.403 . S
C217 H196 0.950 . S
C217 C216 1.382 . S
C217 C233 1.411 . S
C218 C216 1.403 . S
C218 C219 1.489 . S
C218 C232 1.411 . S
C219 C218 1.489 . S
C219 C220 1.383 . S
C219 C224 1.382 . S
C220 H197 0.950 . S
C220 C219 1.383 . S
C220 C221 1.395 . S
C221 H198 0.950 . S
C221 C220 1.395 . S
C221 C222 1.288 . S
C222 C221 1.288 . S
C222 C223 1.392 . S
C223 H199 0.951 . S
C223 C222 1.392 . S
C223 C224 1.392 . S
C224 H200 0.949 . S
C224 C219 1.382 . S
C224 C223 1.392 . S
C225 C226 1.376 . S
C225 C230 1.386 . S
C225 C231 1.483 . S
C226 H201 0.949 . S
C226 C225 1.376 . S
C226 C227 1.397 . S
C227 H202 0.950 . S
C227 C226 1.397 . S
C227 C228 1.391 . S
C228 C227 1.391 . S
C228 C229 1.405 . S
C229 H203 0.950 . S
C229 C228 1.405 . S
C229 C230 1.367 . S
C230 H204 0.950 . S
C230 C225 1.386 . S
C230 C229 1.367 . S
C231 C225 1.483 . S
C231 C232 1.382 . S
C231 C233 1.403 . S
C232 H205 0.950 . S
C232 C218 1.411 . S
C232 C231 1.382 . S
C233 C217 1.411 . S
C233 C231 1.403 . S
C233 C234 1.489 . S
C234 C233 1.489 . S
C234 C235 1.383 . S
C234 C239 1.382 . S
C235 H206 0.950 . S
C235 C234 1.383 . S
C235 C236 1.395 . S
C236 H207 0.950 . S
C236 C235 1.395 . S
C236 C237 1.288 . S
C237 C236 1.288 . S
C237 C238 1.392 . S
C238 H208 0.951 . S
C238 C237 1.392 . S
C238 C239 1.392 . S
C239 H209 0.949 . S
C239 C234 1.382 . S
C239 C238 1.392 . S
H240 C259 0.949 . S
H241 C260 0.950 . S
H242 C262 0.950 . S
H243 C263 0.950 . S
H244 C265 0.950 . S
H245 C268 0.950 . S
H246 C269 0.950 . S
H247 C271 0.951 . S
H248 C272 0.949 . S
H249 C274 0.949 . S
H250 C275 0.950 . S
H251 C277 0.950 . S
H252 C278 0.950 . S
H253 C280 0.950 . S
H254 C283 0.950 . S
H255 C284 0.950 . S
H256 C286 0.951 . S
H257 C287 0.949 . S
C258 C259 1.376 . S
C258 C263 1.386 . S
C258 C264 1.483 . S
C259 H240 0.949 . S
C259 C258 1.376 . S
C259 C260 1.397 . S
C260 H241 0.950 . S
C260 C259 1.397 . S
C260 C261 1.391 . S
C261 C260 1.391 . S
C261 C262 1.405 . S
C262 H242 0.950 . S
C262 C261 1.405 . S
C262 C263 1.367 . S
C263 H243 0.950 . S
C263 C258 1.386 . S
C263 C262 1.367 . S
C264 C258 1.483 . S
C264 C265 1.382 . S
C264 C266 1.403 . S
C265 H244 0.950 . S
C265 C264 1.382 . S
C265 C281 1.411 . S
C266 C264 1.403 . S
C266 C267 1.489 . S
C266 C280 1.411 . S
C267 C266 1.489 . S
C267 C268 1.383 . S
C267 C272 1.382 . S
C268 H245 0.950 . S
C268 C267 1.383 . S
C268 C269 1.395 . S
C269 H246 0.950 . S
C269 C268 1.395 . S
C269 C270 1.288 . S
C270 C269 1.288 . S
C270 C271 1.392 . S
C271 H247 0.951 . S
C271 C270 1.392 . S
C271 C272 1.392 . S
C272 H248 0.949 . S
C272 C267 1.382 . S
C272 C271 1.392 . S
C273 C274 1.376 . S
C273 C278 1.386 . S
C273 C279 1.483 . S
C274 H249 0.949 . S
C274 C273 1.376 . S
C274 C275 1.397 . S
C275 H250 0.950 . S
C275 C274 1.397 . S
C275 C276 1.391 . S
C276 C275 1.391 . S
C276 C277 1.405 . S
C277 H251 0.950 . S
C277 C276 1.405 . S
C277 C278 1.367 . S
C278 H252 0.950 . S
C278 C273 1.386 . S
C278 C277 1.367 . S
C279 C273 1.483 . S
C279 C280 1.382 . S
C279 C281 1.403 . S
C280 H253 0.950 . S
C280 C266 1.411 . S
C280 C279 1.382 . S
C281 C265 1.411 . S
C281 C279 1.403 . S
C281 C282 1.489 . S
C282 C281 1.489 . S
C282 C283 1.383 . S
C282 C287 1.382 . S
C283 H254 0.950 . S
C283 C282 1.383 . S
C283 C284 1.395 . S
C284 H255 0.950 . S
C284 C283 1.395 . S
C284 C285 1.288 . S
C285 C284 1.288 . S
C285 C286 1.392 . S
C286 H256 0.951 . S
C286 C285 1.392 . S
C286 C287 1.392 . S
C287 H257 0.949 . S
C287 C282 1.382 . S
C287 C286 1.392 . S
H288 C307 0.952 . S
H289 C308 0.950 . S
H290 C310 0.950 . S
H291 C311 0.950 . S
H292 C313 0.950 . S
H293 C316 0.950 . S
H294 C317 0.950 . S
H295 C319 0.951 . S
H296 C320 0.949 . S
H297 C322 0.949 . S
H298 C323 0.950 . S
H299 C325 0.950 . S
H300 C326 0.950 . S
H301 C328 0.950 . S
H302 C331 0.950 . S
H303 C332 0.950 . S
H304 C334 0.951 . S
H305 C335 0.949 . S
C306 C307 1.376 . S
C306 C311 1.386 . S
C306 C312 1.483 1_556 S
C307 H288 0.952 . S
C307 C306 1.376 . S
C307 C308 1.397 . S
C308 H289 0.950 . S
C308 C307 1.397 . S
C308 C309 1.391 . S
C309 C308 1.391 . S
C309 C310 1.405 . S
C310 H290 0.950 . S
C310 C309 1.405 . S
C310 C311 1.367 . S
C311 H291 0.950 . S
C311 C306 1.386 . S
C311 C310 1.367 . S
C312 C306 1.483 1_554 S
C312 C313 1.382 1_554 S
C312 C314 1.403 . S
C313 H292 0.950 . S
C313 C312 1.382 1_556 S
C313 C329 1.411 1_556 S
C314 C312 1.403 . S
C314 C315 1.489 . S
C314 C328 1.411 . S
C315 C314 1.489 . S
C315 C316 1.383 . S
C315 C320 1.382 . S
C316 H293 0.950 . S
C316 C315 1.383 . S
C316 C317 1.395 . S
C317 H294 0.950 . S
C317 C316 1.395 . S
C317 C318 1.288 . S
C318 C317 1.288 . S
C318 C319 1.392 . S
C319 H295 0.951 . S
C319 C318 1.392 . S
C319 C320 1.392 . S
C320 H296 0.949 . S
C320 C315 1.382 . S
C320 C319 1.392 . S
C321 C322 1.376 . S
C321 C326 1.386 . S
C321 C327 1.483 . S
C322 H297 0.949 . S
C322 C321 1.376 . S
C322 C323 1.397 . S
C323 H298 0.950 . S
C323 C322 1.397 . S
C323 C324 1.391 . S
C324 C323 1.391 . S
C324 C325 1.405 . S
C325 H299 0.950 . S
C325 C324 1.405 . S
C325 C326 1.367 . S
C326 H300 0.950 . S
C326 C321 1.386 . S
C326 C325 1.367 . S
C327 C321 1.483 . S
C327 C328 1.382 . S
C327 C329 1.403 . S
C328 H301 0.950 . S
C328 C314 1.411 . S
C328 C327 1.382 . S
C329 C313 1.411 1_554 S
C329 C327 1.403 . S
C329 C330 1.489 1_554 S
C330 C329 1.489 1_556 S
C330 C331 1.383 . S
C330 C335 1.382 . S
C331 H302 0.950 . S
C331 C330 1.383 . S
C331 C332 1.395 . S
C332 H303 0.950 . S
C332 C331 1.395 . S
C332 C333 1.288 . S
C333 C332 1.288 . S
C333 C334 1.392 . S
C334 H304 0.951 . S
C334 C333 1.392 . S
C334 C335 1.392 . S
C335 H305 0.949 . S
C335 C330 1.382 . S
C335 C334 1.392 . S
H336 C355 0.949 . S
H337 C356 0.950 . S
H338 C358 0.950 . S
H339 C359 0.950 . S
H340 C361 0.950 . S
H341 C364 0.950 . S
H342 C365 0.950 . S
H343 C367 0.951 . S
H344 C368 0.949 . S
H345 C370 0.949 . S
H346 C371 0.950 . S
H347 C373 0.950 . S
H348 C374 0.950 . S
H349 C376 0.950 . S
H350 C379 0.950 . S
H351 C380 0.950 . S
H352 C382 0.951 . S
H353 C383 0.949 . S
C354 C355 1.376 . S
C354 C359 1.386 . S
C354 C360 1.483 . S
C355 H336 0.949 . S
C355 C354 1.376 . S
C355 C356 1.397 . S
C356 H337 0.950 . S
C356 C355 1.397 . S
C356 C357 1.391 . S
C357 C356 1.391 . S
C357 C358 1.405 . S
C358 H338 0.950 . S
C358 C357 1.405 . S
C358 C359 1.367 . S
C359 H339 0.950 . S
C359 C354 1.386 . S
C359 C358 1.367 . S
C360 C354 1.483 . S
C360 C361 1.382 . S
C360 C362 1.403 . S
C361 H340 0.950 . S
C361 C360 1.382 . S
C361 C377 1.411 1_655 S
C362 C360 1.403 . S
C362 C363 1.489 . S
C362 C376 1.411 1_655 S
C363 C362 1.489 . S
C363 C364 1.383 . S
C363 C368 1.382 . S
C364 H341 0.950 . S
C364 C363 1.383 . S
C364 C365 1.395 . S
C365 H342 0.950 . S
C365 C364 1.395 . S
C365 C366 1.288 . S
C366 C365 1.288 . S
C366 C367 1.392 . S
C367 H343 0.951 . S
C367 C366 1.392 . S
C367 C368 1.392 . S
C368 H344 0.949 . S
C368 C363 1.382 . S
C368 C367 1.392 . S
C369 C370 1.376 . S
C369 C374 1.386 . S
C369 C375 1.483 . S
C370 H345 0.949 . S
C370 C369 1.376 . S
C370 C371 1.397 . S
C371 H346 0.950 . S
C371 C370 1.397 . S
C371 C372 1.391 . S
C372 C371 1.391 . S
C372 C373 1.405 . S
C373 H347 0.950 . S
C373 C372 1.405 . S
C373 C374 1.367 . S
C374 H348 0.950 . S
C374 C369 1.386 . S
C374 C373 1.367 . S
C375 C369 1.483 . S
C375 C376 1.382 . S
C375 C377 1.403 . S
C376 H349 0.950 . S
C376 C362 1.411 1_455 S
C376 C375 1.382 . S
C377 C361 1.411 1_455 S
C377 C375 1.403 . S
C377 C378 1.489 . S
C378 C377 1.489 . S
C378 C379 1.383 . S
C378 C383 1.382 . S
C379 H350 0.950 . S
C379 C378 1.383 . S
C379 C380 1.395 . S
C380 H351 0.950 . S
C380 C379 1.395 . S
C380 C381 1.288 . S
C381 C380 1.288 . S
C381 C382 1.392 . S
C382 H352 0.951 . S
C382 C381 1.392 . S
C382 C383 1.392 . S
C383 H353 0.949 . S
C383 C378 1.382 . S
C383 C382 1.392 . S
Fe384 O385 1.886 . S
Fe384 O388 1.715 1_455 S
Fe384 O393 2.077 . S
Fe384 O398 1.935 1_455 S
Fe384 O404 2.077 . S
Fe384 O413 1.935 1_455 S
O385 Fe384 1.886 . S
O385 Fe387 1.715 . S
Fe386 O388 1.886 . S
Fe386 O389 1.715 . S
Fe386 O396 1.935 . S
Fe386 O397 2.077 . S
Fe386 O403 1.935 . S
Fe386 O412 2.077 . S
Fe387 O385 1.715 . S
Fe387 O390 1.886 . S
Fe387 O394 1.935 . S
Fe387 O399 2.077 . S
Fe387 O405 1.935 . S
Fe387 O409 2.077 . S
O388 Fe384 1.715 1_655 S
O388 Fe386 1.886 . S
O389 Fe386 1.715 . S
O389 Fe391 1.902 . S
O390 Fe387 1.886 . S
O390 Fe391 1.699 1_455 S
Fe391 O389 1.902 . S
Fe391 O390 1.699 1_655 S
Fe391 O395 2.092 . S
Fe391 O400 1.923 1_655 S
Fe391 O402 2.092 . S
Fe391 O410 1.923 1_655 S
C392 O404 1.381 . S
C392 O405 1.421 . S
O393 Fe384 2.077 . S
O393 C406 1.381 . S
O394 Fe387 1.935 . S
O394 C406 1.421 . S
O395 Fe391 2.092 . S
O395 C411 1.381 . S
O396 Fe386 1.935 . S
O396 C411 1.421 . S
O397 Fe386 2.077 . S
O397 C401 1.381 . S
O398 Fe384 1.935 1_655 S
O398 C401 1.421 . S
O399 Fe387 2.077 . S
O399 C407 1.381 . S
O400 Fe391 1.923 1_455 S
O400 C407 1.421 . S
C401 O397 1.381 . S
C401 O398 1.421 . S
O402 Fe391 2.092 . S
O402 C414 1.381 . S
O403 Fe386 1.935 . S
O403 C414 1.421 . S
O404 Fe384 2.077 . S
O404 C392 1.381 . S
O405 Fe387 1.935 . S
O405 C392 1.421 . S
C406 O393 1.381 . S
C406 O394 1.421 . S
C407 O399 1.381 . S
C407 O400 1.421 . S
C408 O409 1.381 . S
C408 O410 1.421 . S
O409 Fe387 2.077 . S
O409 C408 1.381 . S
O410 Fe391 1.923 1_455 S
O410 C408 1.421 . S
C411 O395 1.381 . S
C411 O396 1.421 . S
O412 Fe386 2.077 . S
O412 C415 1.381 . S
O413 Fe384 1.935 1_655 S
O413 C415 1.421 . S
C414 O402 1.381 . S
C414 O403 1.421 . S
C415 O412 1.381 . S
C415 O413 1.421 . S
Fe416 O417 1.886 . S
Fe416 O420 1.715 . S
Fe416 O425 2.077 . S
Fe416 O430 1.935 . S
Fe416 O436 2.077 . S
Fe416 O445 1.935 . S
O417 Fe416 1.886 . S
O417 Fe419 1.715 . S
Fe418 O420 1.886 . S
Fe418 O421 1.715 . S
Fe418 O428 1.935 . S
Fe418 O429 2.077 . S
Fe418 O435 1.935 . S
Fe418 O444 2.077 . S
Fe419 O417 1.715 . S
Fe419 O422 1.886 . S
Fe419 O426 1.935 . S
Fe419 O431 2.077 . S
Fe419 O437 1.935 . S
Fe419 O441 2.077 . S
O420 Fe416 1.715 . S
O420 Fe418 1.886 . S
O421 Fe418 1.715 . S
O421 Fe423 1.886 . S
O422 Fe419 1.886 . S
O422 Fe423 1.715 . S
Fe423 O421 1.886 . S
Fe423 O422 1.715 . S
Fe423 O427 2.077 . S
Fe423 O432 1.935 . S
Fe423 O434 2.077 . S
Fe423 O442 1.935 . S
C424 O436 1.381 . S
C424 O437 1.421 . S
O425 Fe416 2.077 . S
O425 C438 1.381 . S
O426 Fe419 1.935 . S
O426 C438 1.421 . S
O427 Fe423 2.077 . S
O427 C443 1.381 . S
O428 Fe418 1.935 . S
O428 C443 1.421 . S
O429 Fe418 2.077 . S
O429 C433 1.381 . S
O430 Fe416 1.935 . S
O430 C433 1.421 . S
O431 Fe419 2.077 . S
O431 C439 1.381 . S
O432 Fe423 1.935 . S
O432 C439 1.421 . S
C433 O429 1.381 . S
C433 O430 1.421 . S
O434 Fe423 2.077 . S
O434 C446 1.381 . S
O435 Fe418 1.935 . S
O435 C446 1.421 . S
O436 Fe416 2.077 . S
O436 C424 1.381 . S
O437 Fe419 1.935 . S
O437 C424 1.421 . S
C438 O425 1.381 . S
C438 O426 1.421 . S
C439 O431 1.381 . S
C439 O432 1.421 . S
C440 O441 1.381 . S
C440 O442 1.421 . S
O441 Fe419 2.077 . S
O441 C440 1.381 . S
O442 Fe423 1.935 . S
O442 C440 1.421 . S
C443 O427 1.381 . S
C443 O428 1.421 . S
O444 Fe418 2.077 . S
O444 C447 1.381 . S
O445 Fe416 1.935 . S
O445 C447 1.421 . S
C446 O434 1.381 . S
C446 O435 1.421 . S
C447 O444 1.381 . S
C447 O445 1.421 . S
Fe448 O449 1.886 . S
Fe448 O452 1.715 . S
Fe448 O457 2.077 . S
Fe448 O462 1.935 . S
Fe448 O468 2.077 . S
Fe448 O477 1.935 . S
O449 Fe448 1.886 . S
O449 Fe451 1.715 . S
Fe450 O452 1.886 . S
Fe450 O453 1.715 . S
Fe450 O460 1.935 . S
Fe450 O461 2.077 . S
Fe450 O467 1.935 . S
Fe450 O476 2.077 . S
Fe451 O449 1.715 . S
Fe451 O454 1.886 . S
Fe451 O458 1.935 . S
Fe451 O463 2.077 . S
Fe451 O469 1.935 . S
Fe451 O473 2.077 . S
O452 Fe448 1.715 . S
O452 Fe450 1.886 . S
O453 Fe450 1.715 . S
O453 Fe455 1.886 . S
O454 Fe451 1.886 . S
O454 Fe455 1.715 . S
Fe455 O453 1.886 . S
Fe455 O454 1.715 . S
Fe455 O459 2.077 . S
Fe455 O464 1.935 . S
Fe455 O466 2.077 . S
Fe455 O474 1.935 . S
C456 O468 1.381 . S
C456 O469 1.421 . S
O457 Fe448 2.077 . S
O457 C470 1.381 . S
O458 Fe451 1.935 . S
O458 C470 1.421 . S
O459 Fe455 2.077 . S
O459 C475 1.381 . S
O460 Fe450 1.935 . S
O460 C475 1.421 . S
O461 Fe450 2.077 . S
O461 C465 1.381 . S
O462 Fe448 1.935 . S
O462 C465 1.421 . S
O463 Fe451 2.077 . S
O463 C471 1.381 . S
O464 Fe455 1.935 . S
O464 C471 1.421 . S
C465 O461 1.381 . S
C465 O462 1.421 . S
O466 Fe455 2.077 . S
O466 C478 1.381 . S
O467 Fe450 1.935 . S
O467 C478 1.421 . S
O468 Fe448 2.077 . S
O468 C456 1.381 . S
O469 Fe451 1.935 . S
O469 C456 1.421 . S
C470 O457 1.381 . S
C470 O458 1.421 . S
C471 O463 1.381 . S
C471 O464 1.421 . S
C472 O473 1.381 . S
C472 O474 1.421 . S
O473 Fe451 2.077 . S
O473 C472 1.381 . S
O474 Fe455 1.935 . S
O474 C472 1.421 . S
C475 O459 1.381 . S
C475 O460 1.421 . S
O476 Fe450 2.077 . S
O476 C479 1.381 . S
O477 Fe448 1.935 . S
O477 C479 1.421 . S
C478 O466 1.381 . S
C478 O467 1.421 . S
C479 O476 1.381 . S
C479 O477 1.421 . S
Fe480 O481 1.886 . S
Fe480 O484 1.715 . S
Fe480 O489 2.076 1_455 S
Fe480 O494 1.934 1_455 S
Fe480 O500 2.078 . S
Fe480 O509 1.936 . S
O481 Fe480 1.886 . S
O481 Fe483 1.715 . S
Fe482 O484 1.886 . S
Fe482 O485 1.715 . S
Fe482 O492 1.935 1_455 S
Fe482 O493 2.077 1_455 S
Fe482 O499 1.936 . S
Fe482 O508 2.078 . S
Fe483 O481 1.715 . S
Fe483 O486 1.886 . S
Fe483 O490 1.935 1_455 S
Fe483 O495 2.077 1_455 S
Fe483 O501 1.936 . S
Fe483 O505 2.078 . S
O484 Fe480 1.715 . S
O484 Fe482 1.886 . S
O485 Fe482 1.715 . S
O485 Fe487 1.886 . S
O486 Fe483 1.886 . S
O486 Fe487 1.715 . S
Fe487 O485 1.886 . S
Fe487 O486 1.715 . S
Fe487 O491 2.077 1_455 S
Fe487 O496 1.935 1_455 S
Fe487 O498 2.077 . S
Fe487 O506 1.935 . S
C488 O500 1.381 . S
C488 O501 1.421 . S
O489 Fe480 2.076 1_655 S
O489 C502 1.381 . S
O490 Fe483 1.935 1_655 S
O490 C502 1.421 . S
O491 Fe487 2.077 1_655 S
O491 C507 1.381 . S
O492 Fe482 1.935 1_655 S
O492 C507 1.421 . S
O493 Fe482 2.077 1_655 S
O493 C497 1.381 . S
O494 Fe480 1.934 1_655 S
O494 C497 1.421 . S
O495 Fe483 2.077 1_655 S
O495 C503 1.381 . S
O496 Fe487 1.935 1_655 S
O496 C503 1.421 . S
C497 O493 1.381 . S
C497 O494 1.421 . S
O498 Fe487 2.077 . S
O498 C510 1.381 . S
O499 Fe482 1.936 . S
O499 C510 1.421 . S
O500 Fe480 2.078 . S
O500 C488 1.381 . S
O501 Fe483 1.936 . S
O501 C488 1.421 . S
C502 O489 1.381 . S
C502 O490 1.421 . S
C503 O495 1.381 . S
C503 O496 1.421 . S
C504 O505 1.381 . S
C504 O506 1.421 . S
O505 Fe483 2.078 . S
O505 C504 1.381 . S
O506 Fe487 1.935 . S
O506 C504 1.421 . S
C507 O491 1.381 . S
C507 O492 1.421 . S
O508 Fe482 2.078 . S
O508 C511 1.381 . S
O509 Fe480 1.936 . S
O509 C511 1.421 . S
C510 O498 1.381 . S
C510 O499 1.421 . S
C511 O508 1.381 . S
C511 O509 1.421 . S
H512 C518 0.930 . S
H513 C522 0.930 . S
H514 C527 0.929 . S
H515 C525 0.929 . S
H516 C520 0.929 . S
H517 C526 0.929 . S
C518 H512 0.930 . S
C518 C519 1.367 . S
C518 C526 1.378 . S
C519 C518 1.367 . S
C519 C527 1.433 . S
C520 H516 0.929 . S
C520 C522 1.378 . S
C520 C524 1.350 . S
C521 C524 1.463 . S
C521 C526 1.350 . S
C521 N529 1.427 . S
C522 H513 0.930 . S
C522 C520 1.378 . S
C522 C523 1.367 . S
C523 C522 1.367 . S
C523 C525 1.433 . S
C524 C520 1.350 . S
C524 C521 1.463 . S
C524 N528 1.427 . S
C525 H515 0.929 . S
C525 C523 1.433 . S
C525 N528 1.384 . S
C526 H517 0.929 . S
C526 C518 1.378 . S
C526 C521 1.350 . S
C527 H514 0.929 . S
C527 C519 1.433 . S
C527 N529 1.384 . S
N528 C524 1.427 . S
N528 C525 1.384 . S
N529 C521 1.427 . S
N529 C527 1.384 . S
H530 C536 0.930 . S
H531 C540 0.930 . S
H532 C545 0.929 . S
H533 C543 0.929 . S
H534 C538 0.929 . S
H535 C544 0.929 . S
C536 H530 0.930 . S
C536 C537 1.367 . S
C536 C544 1.378 1_565 S
C537 C536 1.367 . S
C537 C545 1.433 . S
C538 H534 0.929 . S
C538 C540 1.378 . S
C538 C542 1.350 . S
C539 C542 1.463 . S
C539 C544 1.350 . S
C539 N547 1.427 . S
C540 H531 0.930 . S
C540 C538 1.378 . S
C540 C541 1.367 . S
C541 C540 1.367 . S
C541 C543 1.433 . S
C542 C538 1.350 . S
C542 C539 1.463 . S
C542 N546 1.427 . S
C543 H533 0.929 . S
C543 C541 1.433 . S
C543 N546 1.384 . S
C544 H535 0.929 . S
C544 C536 1.378 1_545 S
C544 C539 1.350 . S
C545 H532 0.929 . S
C545 C537 1.433 . S
C545 N547 1.384 1_565 S
N546 C542 1.427 . S
N546 C543 1.384 . S
N547 C539 1.427 . S
N547 C545 1.384 1_545 S
H548 C554 0.930 . S
H549 C558 0.930 . S
H550 C563 0.929 . S
H551 C561 0.929 . S
H552 C556 0.929 . S
H553 C562 0.929 . S
C554 H548 0.930 . S
C554 C555 1.367 . S
C554 C562 1.378 . S
C555 C554 1.367 . S
C555 C563 1.433 . S
C556 H552 0.929 . S
C556 C558 1.378 . S
C556 C560 1.350 . S
C557 C560 1.463 . S
C557 C562 1.350 . S
C557 N565 1.427 . S
C558 H549 0.930 . S
C558 C556 1.378 . S
C558 C559 1.367 . S
C559 C558 1.367 . S
C559 C561 1.433 . S
C560 C556 1.350 . S
C560 C557 1.463 . S
C560 N564 1.427 . S
C561 H551 0.929 . S
C561 C559 1.433 . S
C561 N564 1.384 . S
C562 H553 0.929 . S
C562 C554 1.378 . S
C562 C557 1.350 . S
C563 H550 0.929 . S
C563 C555 1.433 . S
C563 N565 1.384 . S
N564 C560 1.427 . S
N564 C561 1.384 . S
N565 C557 1.427 . S
N565 C563 1.384 . S
H566 C572 0.930 . S
H567 C576 0.930 . S
H568 C581 0.929 . S
H569 C579 0.929 . S
H570 C574 0.929 . S
H571 C580 0.929 . S
C572 H566 0.930 . S
C572 C573 1.367 . S
C572 C580 1.378 1_545 S
C573 C572 1.367 . S
C573 C581 1.433 . S
C574 H570 0.929 . S
C574 C576 1.378 . S
C574 C578 1.350 . S
C575 C578 1.463 . S
C575 C580 1.350 . S
C575 N583 1.427 1_565 S
C576 H567 0.930 . S
C576 C574 1.378 . S
C576 C577 1.367 . S
C577 C576 1.367 . S
C577 C579 1.433 . S
C578 C574 1.350 . S
C578 C575 1.463 . S
C578 N582 1.427 . S
C579 H569 0.929 . S
C579 C577 1.433 . S
C579 N582 1.384 . S
C580 H571 0.929 . S
C580 C572 1.378 1_565 S
C580 C575 1.350 . S
C581 H568 0.929 . S
C581 C573 1.433 . S
C581 N583 1.384 . S
N582 C578 1.427 . S
N582 C579 1.384 . S
N583 C575 1.427 1_545 S
N583 C581 1.384 . S
H584 C590 0.930 . S
H585 C594 0.930 . S
H586 C599 0.929 . S
H587 C597 0.929 . S
H588 C592 0.929 . S
H589 C598 0.929 . S
C590 H584 0.930 . S
C590 C591 1.367 . S
C590 C598 1.378 . S
C591 C590 1.367 . S
C591 C599 1.433 . S
C592 H588 0.929 . S
C592 C594 1.378 . S
C592 C596 1.350 . S
C593 C596 1.463 . S
C593 C598 1.350 . S
C593 N601 1.427 . S
C594 H585 0.930 . S
C594 C592 1.378 . S
C594 C595 1.367 . S
C595 C594 1.367 . S
C595 C597 1.433 . S
C596 C592 1.350 . S
C596 C593 1.463 . S
C596 N600 1.427 . S
C597 H587 0.929 . S
C597 C595 1.433 . S
C597 N600 1.384 . S
C598 H589 0.929 . S
C598 C590 1.378 . S
C598 C593 1.350 . S
C599 H586 0.929 . S
C599 C591 1.433 . S
C599 N601 1.384 . S
N600 C596 1.427 . S
N600 C597 1.384 . S
N601 C593 1.427 . S
N601 C599 1.384 . S
H602 C608 0.930 . S
H603 C612 0.930 . S
H604 C617 0.929 . S
H605 C615 0.929 . S
H606 C610 0.929 . S
H607 C616 0.929 . S
C608 H602 0.930 . S
C608 C609 1.367 . S
C608 C616 1.378 1_565 S
C609 C608 1.367 . S
C609 C617 1.433 . S
C610 H606 0.929 . S
C610 C612 1.378 . S
C610 C614 1.350 . S
C611 C614 1.463 . S
C611 C616 1.350 . S
C611 N619 1.427 . S
C612 H603 0.930 . S
C612 C610 1.378 . S
C612 C613 1.367 . S
C613 C612 1.367 . S
C613 C615 1.433 . S
C614 C610 1.350 . S
C614 C611 1.463 . S
C614 N618 1.427 . S
C615 H605 0.929 . S
C615 C613 1.433 . S
C615 N618 1.384 . S
C616 H607 0.929 . S
C616 C608 1.378 1_545 S
C616 C611 1.350 . S
C617 H604 0.929 . S
C617 C609 1.433 . S
C617 N619 1.384 1_565 S
N618 C614 1.427 . S
N618 C615 1.384 . S
N619 C611 1.427 . S
N619 C617 1.384 1_545 S
H620 C626 0.930 . S
H621 C630 0.930 . S
H622 C635 0.929 . S
H623 C633 0.929 . S
H624 C628 0.929 . S
H625 C634 0.929 . S
C626 H620 0.930 . S
C626 C627 1.367 . S
C626 C634 1.378 . S
C627 C626 1.367 . S
C627 C635 1.433 . S
C628 H624 0.929 . S
C628 C630 1.378 . S
C628 C632 1.350 . S
C629 C632 1.463 . S
C629 C634 1.350 . S
C629 N637 1.427 . S
C630 H621 0.930 . S
C630 C628 1.378 . S
C630 C631 1.367 . S
C631 C630 1.367 . S
C631 C633 1.433 . S
C632 C628 1.350 . S
C632 C629 1.463 . S
C632 N636 1.427 . S
C633 H623 0.929 . S
C633 C631 1.433 . S
C633 N636 1.384 . S
C634 H625 0.929 . S
C634 C626 1.378 . S
C634 C629 1.350 . S
C635 H622 0.929 . S
C635 C627 1.433 . S
C635 N637 1.384 . S
N636 C632 1.427 . S
N636 C633 1.384 . S
N637 C629 1.427 . S
N637 C635 1.384 . S
H638 C644 0.930 . S
H639 C648 0.930 . S
H640 C653 0.929 . S
H641 C651 0.929 . S
H642 C646 0.929 . S
H643 C652 0.929 . S
C644 H638 0.930 . S
C644 C645 1.367 . S
C644 C652 1.378 1_545 S
C645 C644 1.367 . S
C645 C653 1.433 . S
C646 H642 0.929 . S
C646 C648 1.378 . S
C646 C650 1.350 . S
C647 C650 1.463 . S
C647 C652 1.350 . S
C647 N655 1.427 1_565 S
C648 H639 0.930 . S
C648 C646 1.378 . S
C648 C649 1.367 . S
C649 C648 1.367 . S
C649 C651 1.433 . S
C650 C646 1.350 . S
C650 C647 1.463 . S
C650 N654 1.427 . S
C651 H641 0.929 . S
C651 C649 1.433 . S
C651 N654 1.384 . S
C652 H643 0.929 . S
C652 C644 1.378 1_565 S
C652 C647 1.350 . S
C653 H640 0.929 . S
C653 C645 1.433 . S
C653 N655 1.384 . S
N654 C650 1.427 . S
N654 C651 1.384 . S
N655 C647 1.427 1_545 S
N655 C653 1.384 . S
H656 C662 0.930 . S
H657 C666 0.930 . S
H658 C671 0.929 . S
H659 C669 0.929 . S
H660 C664 0.929 . S
H661 C670 0.929 . S
C662 H656 0.930 . S
C662 C663 1.367 . S
C662 C670 1.378 . S
C663 C662 1.367 . S
C663 C671 1.433 . S
C664 H660 0.929 . S
C664 C666 1.378 . S
C664 C668 1.350 . S
C665 C668 1.463 . S
C665 C670 1.350 . S
C665 N673 1.427 . S
C666 H657 0.930 . S
C666 C664 1.378 . S
C666 C667 1.367 . S
C667 C666 1.367 . S
C667 C669 1.433 . S
C668 C664 1.350 . S
C668 C665 1.463 . S
C668 N672 1.427 . S
C669 H659 0.929 . S
C669 C667 1.433 . S
C669 N672 1.384 . S
C670 H661 0.929 . S
C670 C662 1.378 . S
C670 C665 1.350 . S
C671 H658 0.929 . S
C671 C663 1.433 . S
C671 N673 1.384 . S
N672 C668 1.427 . S
N672 C669 1.384 . S
N673 C665 1.427 . S
N673 C671 1.384 . S
H674 C680 0.930 . S
H675 C684 0.930 . S
H676 C689 0.929 . S
H677 C687 0.929 . S
H678 C682 0.929 . S
H679 C688 0.929 . S
C680 H674 0.930 . S
C680 C681 1.367 . S
C680 C688 1.378 1_545 S
C681 C680 1.367 . S
C681 C689 1.433 . S
C682 H678 0.929 . S
C682 C684 1.378 . S
C682 C686 1.350 . S
C683 C686 1.463 . S
C683 C688 1.350 . S
C683 N691 1.427 1_565 S
C684 H675 0.930 . S
C684 C682 1.378 . S
C684 C685 1.367 . S
C685 C684 1.367 . S
C685 C687 1.433 . S
C686 C682 1.350 . S
C686 C683 1.463 . S
C686 N690 1.427 . S
C687 H677 0.929 . S
C687 C685 1.433 . S
C687 N690 1.384 . S
C688 H679 0.929 . S
C688 C680 1.378 1_565 S
C688 C683 1.350 . S
C689 H676 0.929 . S
C689 C681 1.433 . S
C689 N691 1.384 . S
N690 C686 1.427 . S
N690 C687 1.384 . S
N691 C683 1.427 1_545 S
N691 C689 1.384 . S
H692 C698 0.930 . S
H693 C702 0.930 . S
H694 C707 0.929 . S
H695 C705 0.929 . S
H696 C700 0.929 . S
H697 C706 0.929 . S
C698 H692 0.930 . S
C698 C699 1.367 . S
C698 C706 1.378 . S
C699 C698 1.367 . S
C699 C707 1.433 . S
C700 H696 0.929 . S
C700 C702 1.378 . S
C700 C704 1.350 . S
C701 C704 1.463 . S
C701 C706 1.350 . S
C701 N709 1.427 . S
C702 H693 0.930 . S
C702 C700 1.378 . S
C702 C703 1.367 . S
C703 C702 1.367 . S
C703 C705 1.433 . S
C704 C700 1.350 . S
C704 C701 1.463 . S
C704 N708 1.427 . S
C705 H695 0.929 . S
C705 C703 1.433 . S
C705 N708 1.384 . S
C706 H697 0.929 . S
C706 C698 1.378 . S
C706 C701 1.350 . S
C707 H694 0.929 . S
C707 C699 1.433 . S
C707 N709 1.384 . S
N708 C704 1.427 . S
N708 C705 1.384 . S
N709 C701 1.427 . S
N709 C707 1.384 . S
H710 C716 0.930 . S
H711 C720 0.930 . S
H712 C725 0.929 . S
H713 C723 0.929 . S
H714 C718 0.929 . S
H715 C724 0.929 . S
C716 H710 0.930 . S
C716 C717 1.367 . S
C716 C724 1.378 1_565 S
C717 C716 1.367 . S
C717 C725 1.433 . S
C718 H714 0.929 . S
C718 C720 1.378 . S
C718 C722 1.350 . S
C719 C722 1.463 . S
C719 C724 1.350 . S
C719 N727 1.427 . S
C720 H711 0.930 . S
C720 C718 1.378 . S
C720 C721 1.367 . S
C721 C720 1.367 . S
C721 C723 1.433 . S
C722 C718 1.350 . S
C722 C719 1.463 . S
C722 N726 1.427 . S
C723 H713 0.929 . S
C723 C721 1.433 . S
C723 N726 1.384 . S
C724 H715 0.929 . S
C724 C716 1.378 1_545 S
C724 C719 1.350 . S
C725 H712 0.929 . S
C725 C717 1.433 . S
C725 N727 1.384 1_565 S
N726 C722 1.427 . S
N726 C723 1.384 . S
N727 C719 1.427 . S
N727 C725 1.384 1_545 S
H728 C734 0.930 . S
H729 C738 0.930 . S
H730 C743 0.929 . S
H731 C741 0.929 . S
H732 C736 0.929 . S
H733 C742 0.929 . S
C734 H728 0.930 . S
C734 C735 1.367 . S
C734 C742 1.378 . S
C735 C734 1.367 . S
C735 C743 1.433 . S
C736 H732 0.929 . S
C736 C738 1.378 . S
C736 C740 1.350 . S
C737 C740 1.463 . S
C737 C742 1.350 . S
C737 N745 1.427 . S
C738 H729 0.930 . S
C738 C736 1.378 . S
C738 C739 1.367 . S
C739 C738 1.367 . S
C739 C741 1.433 . S
C740 C736 1.350 . S
C740 C737 1.463 . S
C740 N744 1.427 . S
C741 H731 0.929 . S
C741 C739 1.433 . S
C741 N744 1.384 . S
C742 H733 0.929 . S
C742 C734 1.378 . S
C742 C737 1.350 . S
C743 H730 0.929 . S
C743 C735 1.433 . S
C743 N745 1.384 . S
N744 C740 1.427 . S
N744 C741 1.384 . S
N745 C737 1.427 . S
N745 C743 1.384 . S
H746 C752 0.930 . S
H747 C756 0.930 . S
H748 C761 0.929 . S
H749 C759 0.929 . S
H750 C754 0.929 . S
H751 C760 0.929 . S
C752 H746 0.930 . S
C752 C753 1.367 . S
C752 C760 1.378 1_545 S
C753 C752 1.367 . S
C753 C761 1.433 . S
C754 H750 0.929 . S
C754 C756 1.378 . S
C754 C758 1.350 . S
C755 C758 1.463 . S
C755 C760 1.350 . S
C755 N763 1.427 1_565 S
C756 H747 0.930 . S
C756 C754 1.378 . S
C756 C757 1.367 . S
C757 C756 1.367 . S
C757 C759 1.433 . S
C758 C754 1.350 . S
C758 C755 1.463 . S
C758 N762 1.427 . S
C759 H749 0.929 . S
C759 C757 1.433 . S
C759 N762 1.384 . S
C760 H751 0.929 . S
C760 C752 1.378 1_565 S
C760 C755 1.350 . S
C761 H748 0.929 . S
C761 C753 1.433 . S
C761 N763 1.384 . S
N762 C758 1.427 . S
N762 C759 1.384 . S
N763 C755 1.427 1_545 S
N763 C761 1.384 . S
H764 C770 0.930 . S
H765 C774 0.930 . S
H766 C779 0.929 . S
H767 C777 0.929 . S
H768 C772 0.929 . S
H769 C778 0.929 . S
C770 H764 0.930 . S
C770 C771 1.367 . S
C770 C778 1.378 . S
C771 C770 1.367 . S
C771 C779 1.433 . S
C772 H768 0.929 . S
C772 C774 1.378 . S
C772 C776 1.350 . S
C773 C776 1.463 . S
C773 C778 1.350 . S
C773 N781 1.427 . S
C774 H765 0.930 . S
C774 C772 1.378 . S
C774 C775 1.367 . S
C775 C774 1.367 . S
C775 C777 1.433 . S
C776 C772 1.350 . S
C776 C773 1.463 . S
C776 N780 1.427 . S
C777 H767 0.929 . S
C777 C775 1.433 . S
C777 N780 1.384 . S
C778 H769 0.929 . S
C778 C770 1.378 . S
C778 C773 1.350 . S
C779 H766 0.929 . S
C779 C771 1.433 . S
C779 N781 1.384 . S
N780 C776 1.427 . S
N780 C777 1.384 . S
N781 C773 1.427 . S
N781 C779 1.384 . S
H782 C788 0.930 . S
H783 C792 0.930 . S
H784 C797 0.929 . S
H785 C795 0.929 . S
H786 C790 0.929 . S
H787 C796 0.929 . S
C788 H782 0.930 . S
C788 C789 1.367 1_545 S
C788 C796 1.378 . S
C789 C788 1.367 1_565 S
C789 C797 1.433 . S
C790 H786 0.929 . S
C790 C792 1.378 . S
C790 C794 1.350 . S
C791 C794 1.463 . S
C791 C796 1.350 . S
C791 N799 1.427 1_545 S
C792 H783 0.930 . S
C792 C790 1.378 . S
C792 C793 1.367 . S
C793 C792 1.367 . S
C793 C795 1.433 . S
C794 C790 1.350 . S
C794 C791 1.463 . S
C794 N798 1.427 . S
C795 H785 0.929 . S
C795 C793 1.433 . S
C795 N798 1.384 . S
C796 H787 0.929 . S
C796 C788 1.378 . S
C796 C791 1.350 . S
C797 H784 0.929 . S
C797 C789 1.433 . S
C797 N799 1.384 . S
N798 C794 1.427 . S
N798 C795 1.384 . S
N799 C791 1.427 1_565 S
N799 C797 1.384 . S
H800 C806 0.930 . S
H801 C810 0.930 . S
H802 C815 0.929 . S
H803 C813 0.929 . S
H804 C808 0.929 . S
H805 C814 0.929 . S
C806 H800 0.930 . S
C806 C807 1.367 . S
C806 C814 1.378 . S
C807 C806 1.367 . S
C807 C815 1.433 . S
C808 H804 0.929 . S
C808 C810 1.378 . S
C808 C812 1.350 . S
C809 C812 1.463 . S
C809 C814 1.350 . S
C809 N817 1.427 . S
C810 H801 0.930 . S
C810 C808 1.378 . S
C810 C811 1.367 . S
C811 C810 1.367 . S
C811 C813 1.433 . S
C812 C808 1.350 . S
C812 C809 1.463 . S
C812 N816 1.427 . S
C813 H803 0.929 . S
C813 C811 1.433 . S
C813 N816 1.384 . S
C814 H805 0.929 . S
C814 C806 1.378 . S
C814 C809 1.350 . S
C815 H802 0.929 . S
C815 C807 1.433 . S
C815 N817 1.384 . S
N816 C812 1.427 . S
N816 C813 1.384 . S
N817 C809 1.427 . S
N817 C815 1.384 . S
H818 C824 0.930 . S
H819 C828 0.930 . S
H820 C833 0.929 . S
H821 C831 0.929 . S
H822 C826 0.929 . S
H823 C832 0.929 . S
C824 H818 0.930 . S
C824 C825 1.367 . S
C824 C832 1.378 . S
C825 C824 1.367 . S
C825 C833 1.433 . S
C826 H822 0.929 . S
C826 C828 1.378 . S
C826 C830 1.350 . S
C827 C830 1.463 . S
C827 C832 1.350 . S
C827 N835 1.427 . S
C828 H819 0.930 . S
C828 C826 1.378 . S
C828 C829 1.367 . S
C829 C828 1.367 . S
C829 C831 1.433 . S
C830 C826 1.350 . S
C830 C827 1.463 . S
C830 N834 1.427 . S
C831 H821 0.929 . S
C831 C829 1.433 . S
C831 N834 1.384 . S
C832 H823 0.929 . S
C832 C824 1.378 . S
C832 C827 1.350 . S
C833 H820 0.929 . S
C833 C825 1.433 . S
C833 N835 1.384 . S
N834 C830 1.427 . S
N834 C831 1.384 . S
N835 C827 1.427 . S
N835 C833 1.384 . S
H836 C842 0.930 . S
H837 C846 0.930 . S
H838 C851 0.929 . S
H839 C849 0.929 . S
H840 C844 0.929 . S
H841 C850 0.929 . S
C842 H836 0.930 . S
C842 C843 1.367 . S
C842 C850 1.378 . S
C843 C842 1.367 . S
C843 C851 1.433 . S
C844 H840 0.929 . S
C844 C846 1.378 . S
C844 C848 1.350 . S
C845 C848 1.463 . S
C845 C850 1.350 . S
C845 N853 1.427 . S
C846 H837 0.930 . S
C846 C844 1.378 . S
C846 C847 1.367 . S
C847 C846 1.367 . S
C847 C849 1.433 . S
C848 C844 1.350 . S
C848 C845 1.463 . S
C848 N852 1.427 . S
C849 H839 0.929 . S
C849 C847 1.433 . S
C849 N852 1.384 . S
C850 H841 0.929 . S
C850 C842 1.378 . S
C850 C845 1.350 . S
C851 H838 0.929 . S
C851 C843 1.433 . S
C851 N853 1.384 . S
N852 C848 1.427 . S
N852 C849 1.384 . S
N853 C845 1.427 . S
N853 C851 1.384 . S
H854 C860 0.930 . S
H855 C864 0.930 . S
H856 C869 0.929 . S
H857 C867 0.929 . S
H858 C862 0.929 . S
H859 C868 0.929 . S
C860 H854 0.930 . S
C860 C861 1.367 . S
C860 C868 1.378 . S
C861 C860 1.367 . S
C861 C869 1.433 . S
C862 H858 0.929 . S
C862 C864 1.378 . S
C862 C866 1.350 . S
C863 C866 1.463 . S
C863 C868 1.350 . S
C863 N871 1.427 . S
C864 H855 0.930 . S
C864 C862 1.378 . S
C864 C865 1.367 . S
C865 C864 1.367 . S
C865 C867 1.433 . S
C866 C862 1.350 . S
C866 C863 1.463 . S
C866 N870 1.427 . S
C867 H857 0.929 . S
C867 C865 1.433 . S
C867 N870 1.384 . S
C868 H859 0.929 . S
C868 C860 1.378 . S
C868 C863 1.350 . S
C869 H856 0.929 . S
C869 C861 1.433 . S
C869 N871 1.384 . S
N870 C866 1.427 . S
N870 C867 1.384 . S
N871 C863 1.427 . S
N871 C869 1.384 . S
H872 C878 0.930 . S
H873 C882 0.930 . S
H874 C887 0.929 . S
H875 C885 0.929 . S
H876 C880 0.929 . S
H877 C886 0.929 . S
C878 H872 0.930 . S
C878 C879 1.367 . S
C878 C886 1.378 . S
C879 C878 1.367 . S
C879 C887 1.433 . S
C880 H876 0.929 . S
C880 C882 1.378 . S
C880 C884 1.350 . S
C881 C884 1.463 . S
C881 C886 1.350 . S
C881 N889 1.427 . S
C882 H873 0.930 . S
C882 C880 1.378 . S
C882 C883 1.367 . S
C883 C882 1.367 . S
C883 C885 1.433 . S
C884 C880 1.350 . S
C884 C881 1.463 . S
C884 N888 1.427 . S
C885 H875 0.929 . S
C885 C883 1.433 . S
C885 N888 1.384 . S
C886 H877 0.929 . S
C886 C878 1.378 . S
C886 C881 1.350 . S
C887 H874 0.929 . S
C887 C879 1.433 . S
C887 N889 1.384 . S
N888 C884 1.427 . S
N888 C885 1.384 . S
N889 C881 1.427 . S
N889 C887 1.384 . S
H890 C896 0.930 . S
H891 C900 0.930 . S
H892 C905 0.929 . S
H893 C903 0.929 . S
H894 C898 0.929 . S
H895 C904 0.929 . S
C896 H890 0.930 . S
C896 C897 1.367 . S
C896 C904 1.378 . S
C897 C896 1.367 . S
C897 C905 1.433 . S
C898 H894 0.929 . S
C898 C900 1.378 . S
C898 C902 1.350 . S
C899 C902 1.463 . S
C899 C904 1.350 . S
C899 N907 1.427 . S
C900 H891 0.930 . S
C900 C898 1.378 . S
C900 C901 1.367 . S
C901 C900 1.367 . S
C901 C903 1.433 . S
C902 C898 1.350 . S
C902 C899 1.463 . S
C902 N906 1.427 . S
C903 H893 0.929 . S
C903 C901 1.433 . S
C903 N906 1.384 . S
C904 H895 0.929 . S
C904 C896 1.378 . S
C904 C899 1.350 . S
C905 H892 0.929 . S
C905 C897 1.433 . S
C905 N907 1.384 . S
N906 C902 1.427 . S
N906 C903 1.384 . S
N907 C899 1.427 . S
N907 C905 1.384 . S
H908 C914 0.930 . S
H909 C918 0.930 . S
H910 C923 0.929 . S
H911 C921 0.929 . S
H912 C916 0.929 . S
H913 C922 0.929 . S
C914 H908 0.930 . S
C914 C915 1.367 . S
C914 C922 1.378 . S
C915 C914 1.367 . S
C915 C923 1.433 . S
C916 H912 0.929 . S
C916 C918 1.378 . S
C916 C920 1.350 . S
C917 C920 1.463 . S
C917 C922 1.350 . S
C917 N925 1.427 . S
C918 H909 0.930 . S
C918 C916 1.378 . S
C918 C919 1.367 . S
C919 C918 1.367 . S
C919 C921 1.433 . S
C920 C916 1.350 . S
C920 C917 1.463 . S
C920 N924 1.427 . S
C921 H911 0.929 . S
C921 C919 1.433 . S
C921 N924 1.384 . S
C922 H913 0.929 . S
C922 C914 1.378 . S
C922 C917 1.350 . S
C923 H910 0.929 . S
C923 C915 1.433 . S
C923 N925 1.384 . S
N924 C920 1.427 . S
N924 C921 1.384 . S
N925 C917 1.427 . S
N925 C923 1.384 . S
H926 C932 0.930 . S
H927 C936 0.930 . S
H928 C941 0.929 . S
H929 C939 0.929 . S
H930 C934 0.929 . S
H931 C940 0.929 . S
C932 H926 0.930 . S
C932 C933 1.367 . S
C932 C940 1.378 . S
C933 C932 1.367 . S
C933 C941 1.433 . S
C934 H930 0.929 . S
C934 C936 1.378 . S
C934 C938 1.350 . S
C935 C938 1.463 . S
C935 C940 1.350 . S
C935 N943 1.427 . S
C936 H927 0.930 . S
C936 C934 1.378 . S
C936 C937 1.367 . S
C937 C936 1.367 . S
C937 C939 1.433 . S
C938 C934 1.350 . S
C938 C935 1.463 . S
C938 N942 1.427 . S
C939 H929 0.929 . S
C939 C937 1.433 . S
C939 N942 1.384 . S
C940 H931 0.929 . S
C940 C932 1.378 . S
C940 C935 1.350 . S
C941 H928 0.929 . S
C941 C933 1.433 . S
C941 N943 1.384 . S
N942 C938 1.427 . S
N942 C939 1.384 . S
N943 C935 1.427 . S
N943 C941 1.384 . S
H944 C950 0.930 . S
H945 C954 0.930 . S
H946 C959 0.929 . S
H947 C957 0.929 . S
H948 C952 0.929 . S
H949 C958 0.929 . S
C950 H944 0.930 . S
C950 C951 1.367 . S
C950 C958 1.378 . S
C951 C950 1.367 . S
C951 C959 1.433 . S
C952 H948 0.929 . S
C952 C954 1.378 . S
C952 C956 1.350 . S
C953 C956 1.463 . S
C953 C958 1.350 . S
C953 N961 1.427 . S
C954 H945 0.930 . S
C954 C952 1.378 . S
C954 C955 1.367 . S
C955 C954 1.367 . S
C955 C957 1.433 . S
C956 C952 1.350 . S
C956 C953 1.463 . S
C956 N960 1.427 . S
C957 H947 0.929 . S
C957 C955 1.433 . S
C957 N960 1.384 . S
C958 H949 0.929 . S
C958 C950 1.378 . S
C958 C953 1.350 . S
C959 H946 0.929 . S
C959 C951 1.433 . S
C959 N961 1.384 . S
N960 C956 1.427 . S
N960 C957 1.384 . S
N961 C953 1.427 . S
N961 C959 1.384 . S
H962 C968 0.930 . S
H963 C972 0.930 . S
H964 C977 0.929 . S
H965 C975 0.929 . S
H966 C970 0.929 . S
H967 C976 0.929 . S
C968 H962 0.930 . S
C968 C969 1.367 . S
C968 C976 1.378 . S
C969 C968 1.367 . S
C969 C977 1.433 . S
C970 H966 0.929 . S
C970 C972 1.378 . S
C970 C974 1.350 . S
C971 C974 1.463 . S
C971 C976 1.350 . S
C971 N979 1.427 . S
C972 H963 0.930 . S
C972 C970 1.378 . S
C972 C973 1.367 . S
C973 C972 1.367 . S
C973 C975 1.433 . S
C974 C970 1.350 . S
C974 C971 1.463 . S
C974 N978 1.427 . S
C975 H965 0.929 . S
C975 C973 1.433 . S
C975 N978 1.384 . S
C976 H967 0.929 . S
C976 C968 1.378 . S
C976 C971 1.350 . S
C977 H964 0.929 . S
C977 C969 1.433 . S
C977 N979 1.384 . S
N978 C974 1.427 . S
N978 C975 1.384 . S
N979 C971 1.427 . S
N979 C977 1.384 . S
H980 C986 0.930 . S
H981 C990 0.930 . S
H982 C995 0.929 . S
H983 C993 0.929 . S
H984 C988 0.929 . S
H985 C994 0.929 . S
C986 H980 0.930 . S
C986 C987 1.367 . S
C986 C994 1.378 . S
C987 C986 1.367 . S
C987 C995 1.433 . S
C988 H984 0.929 . S
C988 C990 1.378 . S
C988 C992 1.350 . S
C989 C992 1.463 . S
C989 C994 1.350 . S
C989 N997 1.427 . S
C990 H981 0.930 . S
C990 C988 1.378 . S
C990 C991 1.367 . S
C991 C990 1.367 . S
C991 C993 1.433 . S
C992 C988 1.350 . S
C992 C989 1.463 . S
C992 N996 1.427 . S
C993 H983 0.929 . S
C993 C991 1.433 . S
C993 N996 1.384 . S
C994 H985 0.929 . S
C994 C986 1.378 . S
C994 C989 1.350 . S
C995 H982 0.929 . S
C995 C987 1.433 . S
C995 N997 1.384 . S
N996 C992 1.427 . S
N996 C993 1.384 . S
N997 C989 1.427 . S
N997 C995 1.384 . S
H998 C1004 0.930 . S
H999 C1008 0.930 . S
H1000 C1013 0.929 . S
H1001 C1011 0.929 . S
H1002 C1006 0.929 . S
H1003 C1012 0.929 . S
C1004 H998 0.930 . S
C1004 C1005 1.367 . S
C1004 C1012 1.378 . S
C1005 C1004 1.367 . S
C1005 C1013 1.433 . S
C1006 H1002 0.929 . S
C1006 C1008 1.378 . S
C1006 C1010 1.350 . S
C1007 C1010 1.463 . S
C1007 C1012 1.350 . S
C1007 N1015 1.427 . S
C1008 H999 0.930 . S
C1008 C1006 1.378 . S
C1008 C1009 1.367 . S
C1009 C1008 1.367 . S
C1009 C1011 1.433 . S
C1010 C1006 1.350 . S
C1010 C1007 1.463 . S
C1010 N1014 1.427 . S
C1011 H1001 0.929 . S
C1011 C1009 1.433 . S
C1011 N1014 1.384 . S
C1012 H1003 0.929 . S
C1012 C1004 1.378 . S
C1012 C1007 1.350 . S
C1013 H1000 0.929 . S
C1013 C1005 1.433 . S
C1013 N1015 1.384 . S
N1014 C1010 1.427 . S
N1014 C1011 1.384 . S
N1015 C1007 1.427 . S
N1015 C1013 1.384 . S
H1016 C1022 0.930 . S
H1017 C1026 0.930 . S
H1018 C1031 0.929 . S
H1019 C1029 0.929 . S
H1020 C1024 0.929 . S
H1021 C1030 0.929 . S
C1022 H1016 0.930 . S
C1022 C1023 1.367 . S
C1022 C1030 1.378 . S
C1023 C1022 1.367 . S
C1023 C1031 1.433 . S
C1024 H1020 0.929 . S
C1024 C1026 1.378 . S
C1024 C1028 1.350 . S
C1025 C1028 1.463 . S
C1025 C1030 1.350 . S
C1025 N1033 1.427 . S
C1026 H1017 0.930 . S
C1026 C1024 1.378 . S
C1026 C1027 1.367 . S
C1027 C1026 1.367 . S
C1027 C1029 1.433 . S
C1028 C1024 1.350 . S
C1028 C1025 1.463 . S
C1028 N1032 1.427 . S
C1029 H1019 0.929 . S
C1029 C1027 1.433 . S
C1029 N1032 1.384 . S
C1030 H1021 0.929 . S
C1030 C1022 1.378 . S
C1030 C1025 1.350 . S
C1031 H1018 0.929 . S
C1031 C1023 1.433 . S
C1031 N1033 1.384 . S
N1032 C1028 1.427 . S
N1032 C1029 1.384 . S
N1033 C1025 1.427 . S
N1033 C1031 1.384 . S
H1034 C1040 0.930 . S
H1035 C1044 0.930 . S
H1036 C1049 0.929 . S
H1037 C1047 0.929 . S
H1038 C1042 0.929 . S
H1039 C1048 0.929 . S
C1040 H1034 0.930 . S
C1040 C1041 1.367 . S
C1040 C1048 1.378 . S
C1041 C1040 1.367 . S
C1041 C1049 1.433 . S
C1042 H1038 0.929 . S
C1042 C1044 1.378 . S
C1042 C1046 1.350 . S
C1043 C1046 1.463 . S
C1043 C1048 1.350 . S
C1043 N1051 1.427 . S
C1044 H1035 0.930 . S
C1044 C1042 1.378 . S
C1044 C1045 1.367 . S
C1045 C1044 1.367 . S
C1045 C1047 1.433 . S
C1046 C1042 1.350 . S
C1046 C1043 1.463 . S
C1046 N1050 1.427 . S
C1047 H1037 0.929 . S
C1047 C1045 1.433 . S
C1047 N1050 1.384 . S
C1048 H1039 0.929 . S
C1048 C1040 1.378 . S
C1048 C1043 1.350 . S
C1049 H1036 0.929 . S
C1049 C1041 1.433 . S
C1049 N1051 1.384 . S
N1050 C1046 1.427 . S
N1050 C1047 1.384 . S
N1051 C1043 1.427 . S
N1051 C1049 1.384 . S
H1052 C1058 0.930 . S
H1053 C1062 0.930 . S
H1054 C1067 0.929 . S
H1055 C1065 0.929 . S
H1056 C1060 0.929 . S
H1057 C1066 0.929 . S
C1058 H1052 0.930 . S
C1058 C1059 1.367 . S
C1058 C1066 1.378 . S
C1059 C1058 1.367 . S
C1059 C1067 1.433 . S
C1060 H1056 0.929 . S
C1060 C1062 1.378 . S
C1060 C1064 1.350 . S
C1061 C1064 1.463 . S
C1061 C1066 1.350 . S
C1061 N1069 1.427 . S
C1062 H1053 0.930 . S
C1062 C1060 1.378 . S
C1062 C1063 1.367 . S
C1063 C1062 1.367 . S
C1063 C1065 1.433 . S
C1064 C1060 1.350 . S
C1064 C1061 1.463 . S
C1064 N1068 1.427 . S
C1065 H1055 0.929 . S
C1065 C1063 1.433 . S
C1065 N1068 1.384 . S
C1066 H1057 0.929 . S
C1066 C1058 1.378 . S
C1066 C1061 1.350 . S
C1067 H1054 0.929 . S
C1067 C1059 1.433 . S
C1067 N1069 1.384 . S
N1068 C1064 1.427 . S
N1068 C1065 1.384 . S
N1069 C1061 1.427 . S
N1069 C1067 1.384 . S
H1070 C1076 0.930 . S
H1071 C1080 0.930 . S
H1072 C1085 0.929 . S
H1073 C1083 0.929 . S
H1074 C1078 0.929 . S
H1075 C1084 0.929 . S
C1076 H1070 0.930 . S
C1076 C1077 1.367 . S
C1076 C1084 1.378 . S
C1077 C1076 1.367 . S
C1077 C1085 1.433 . S
C1078 H1074 0.929 . S
C1078 C1080 1.378 . S
C1078 C1082 1.350 . S
C1079 C1082 1.463 . S
C1079 C1084 1.350 . S
C1079 N1087 1.427 . S
C1080 H1071 0.930 . S
C1080 C1078 1.378 . S
C1080 C1081 1.367 . S
C1081 C1080 1.367 . S
C1081 C1083 1.433 . S
C1082 C1078 1.350 . S
C1082 C1079 1.463 . S
C1082 N1086 1.427 . S
C1083 H1073 0.929 . S
C1083 C1081 1.433 . S
C1083 N1086 1.384 . S
C1084 H1075 0.929 . S
C1084 C1076 1.378 . S
C1084 C1079 1.350 . S
C1085 H1072 0.929 . S
C1085 C1077 1.433 . S
C1085 N1087 1.384 . S
N1086 C1082 1.427 . S
N1086 C1083 1.384 . S
N1087 C1079 1.427 . S
N1087 C1085 1.384 . S
C523 C433 1.511 . S
C519 C45 1.532 . S
C537 C78 1.518 . S
C541 C465 1.507 . S
C555 C126 1.521 . S
C559 C488 1.525 . S
C577 C392 1.528 . S
C573 C174 1.527 . S
C595 C475 1.358 . S
C591 C36 1.502 . S
C613 C504 1.370 . S
C609 C69 1.498 . S
C631 C408 1.389 . S
C627 C117 1.501 . S
C649 C443 1.369 . S
C645 C165 1.499 . S
C663 C30 1.500 . S
C667 C471 1.378 . S
C681 C228 1.499 . S
C685 C446 1.362 . S
C699 C141 1.484 . S
C703 C414 1.354 . S
C721 C503 1.386 . S
C717 C270 1.494 . S
C739 C447 1.518 . S
C735 C21 1.536 . S
C753 C237 1.526 . S
C757 C415 1.518 . S
C771 C132 1.537 . S
C775 C502 1.531 . S
C793 C470 1.531 . S
C789 C261 1.539 . S
C807 C333 1.530 . S
C811 C497 1.509 . S
C825 C213 1.535 . S
C829 C401 1.518 . S
C843 C357 1.535 . S
C847 C424 1.524 . S
C861 C285 1.526 . S
C865 C456 1.524 . S
C883 C411 1.363 . S
C879 C324 1.504 . S
C897 C222 1.486 . S
C901 C440 1.369 . S
C915 C366 1.486 . S
C919 C472 1.368 . S
C937 C507 1.381 . S
C933 C276 1.505 . S
C951 C318 1.495 . S
C955 C407 1.384 . S
C969 C93 1.486 . S
C973 C510 1.377 . S
C987 C372 1.497 . S
C991 C478 1.357 . S
C1009 C439 1.367 . S
C1005 C189 1.485 . S
C1027 C511 1.513 . S
C1023 C309 1.538 . S
C1045 C479 1.514 . S
C1041 C84 1.536 . S
C1063 C438 1.522 . S
C1059 C381 1.520 . S
C1081 C406 1.526 . S
C1077 C180 1.532 . S
