# Generated by pormake.
# Topology nom, (4,4)-cn, num edge types: 1
# Building blocks:
#     Node 0, Type 0, BuildingBlock: MUDLON_clean_linker_0, # of connection points: 4
#     Node 1, Type 0, BuildingBlock: MUDLON_clean_linker_0, # of connection points: 4
#     Node 2, Type 0, BuildingBlock: MUDLON_clean_linker_0, # of connection points: 4
#     Node 3, Type 0, BuildingBlock: MUDLON_clean_linker_0, # of connection points: 4
#     Node 4, Type 0, BuildingBlock: MUDLON_clean_linker_0, # of connection points: 4
#     Node 5, Type 0, BuildingBlock: MUDLON_clean_linker_0, # of connection points: 4
#     Node 6, Type 1, BuildingBlock: CEKHIL_clean_sbu_0, # of connection points: 4
#     Node 7, Type 1, BuildingBlock: CEKHIL_clean_sbu_0, # of connection points: 4
#     Node 8, Type 1, BuildingBlock: CEKHIL_clean_sbu_0, # of connection points: 4
#     Node 9, Type 1, BuildingBlock: CEKHIL_clean_sbu_0, # of connection points: 4
#     Node 10, Type 1, BuildingBlock: CEKHIL_clean_sbu_0, # of connection points: 4
#     Node 11, Type 1, BuildingBlock: CEKHIL_clean_sbu_0, # of connection points: 4
#     Edge 12, Type (0, 1), BuildingBlock: EZIPEK_clean_linker_0, # of connection points: 2
#     Edge 13, Type (0, 1), BuildingBlock: EZIPEK_clean_linker_0, # of connection points: 2
#     Edge 14, Type (0, 1), BuildingBlock: EZIPEK_clean_linker_0, # of connection points: 2
#     Edge 15, Type (0, 1), BuildingBlock: EZIPEK_clean_linker_0, # of connection points: 2
#     Edge 16, Type (0, 1), BuildingBlock: EZIPEK_clean_linker_0, # of connection points: 2
#     Edge 17, Type (0, 1), BuildingBlock: EZIPEK_clean_linker_0, # of connection points: 2
#     Edge 18, Type (0, 1), BuildingBlock: EZIPEK_clean_linker_0, # of connection points: 2
#     Edge 19, Type (0, 1), BuildingBlock: EZIPEK_clean_linker_0, # of connection points: 2
#     Edge 20, Type (0, 1), BuildingBlock: EZIPEK_clean_linker_0, # of connection points: 2
#     Edge 21, Type (0, 1), BuildingBlock: EZIPEK_clean_linker_0, # of connection points: 2
#     Edge 22, Type (0, 1), BuildingBlock: EZIPEK_clean_linker_0, # of connection points: 2
#     Edge 23, Type (0, 1), BuildingBlock: EZIPEK_clean_linker_0, # of connection points: 2
#     Edge 24, Type (0, 1), BuildingBlock: EZIPEK_clean_linker_0, # of connection points: 2
#     Edge 25, Type (0, 1), BuildingBlock: EZIPEK_clean_linker_0, # of connection points: 2
#     Edge 26, Type (0, 1), BuildingBlock: EZIPEK_clean_linker_0, # of connection points: 2
#     Edge 27, Type (0, 1), BuildingBlock: EZIPEK_clean_linker_0, # of connection points: 2
#     Edge 28, Type (0, 1), BuildingBlock: EZIPEK_clean_linker_0, # of connection points: 2
#     Edge 29, Type (0, 1), BuildingBlock: EZIPEK_clean_linker_0, # of connection points: 2
#     Edge 30, Type (0, 1), BuildingBlock: EZIPEK_clean_linker_0, # of connection points: 2
#     Edge 31, Type (0, 1), BuildingBlock: EZIPEK_clean_linker_0, # of connection points: 2
#     Edge 32, Type (0, 1), BuildingBlock: EZIPEK_clean_linker_0, # of connection points: 2
#     Edge 33, Type (0, 1), BuildingBlock: EZIPEK_clean_linker_0, # of connection points: 2
#     Edge 34, Type (0, 1), BuildingBlock: EZIPEK_clean_linker_0, # of connection points: 2
#     Edge 35, Type (0, 1), BuildingBlock: EZIPEK_clean_linker_0, # of connection points: 2
# Relax obj value: 0.009
# Max RMSD: 0.106
# Mean RMSD: 0.066
data_MOF--net-nom--node1-CEKHIL_clean_sbu_0--node2-MUDLON_clean_linker_0--edge1-EZIPEK_clean_linker_0
_symmetry_space_group_name_H-M    P1
_symmetry_Int_Tables_number       1
_symmetry_cell_setting            triclinic
loop_
_symmetry_equiv_pos_as_xyz
'x, y, z'
_cell_length_a     48.765011
_cell_length_b     49.112872
_cell_length_c     48.616455
_cell_angle_alpha  90.3523
_cell_angle_beta   89.823701
_cell_angle_gamma 121.80493
loop_
_atom_site_label
_atom_site_type_symbol
_atom_site_fract_x
_atom_site_fract_y
_atom_site_fract_z
_atom_type_partial_charge
H0 H 0.1667 0.55038 0.32449 0.0
N1 N 0.11742 0.55678 0.33665 0.0
H2 H 0.21542 0.58781 0.29844 0.0
H3 H 0.12583 0.60758 0.30612 0.0
H4 H 0.17429 0.64463 0.27969 0.0
H5 H 0.13903 0.61628 0.35851 0.0
H6 H 0.16262 0.63474 0.40434 0.0
H7 H 0.11519 0.52068 0.37816 0.0
H8 H 0.13808 0.53909 0.42449 0.0
H9 H 0.0787 0.50098 0.31246 0.0
H10 H 0.08238 0.58567 0.34221 0.0
H11 H 0.02213 0.47746 0.29965 0.0
H12 H 0.02552 0.56213 0.32984 0.0
H13 H 0.87614 0.49306 0.25174 0.0
H14 H 0.85523 0.48113 0.20444 0.0
H15 H 0.85942 0.3956 0.20446 0.0
H16 H 0.87936 0.40702 0.2521 0.0
H17 H 0.87876 0.50302 0.30106 0.0
H18 H 0.83185 0.4976 0.32567 0.0
H19 H 0.79082 0.39571 0.33185 0.0
H20 H 0.83734 0.40112 0.30694 0.0
H21 H 0.91454 0.42932 0.31152 0.0
H22 H 0.97141 0.45627 0.3246 0.0
H23 H 0.98795 0.54438 0.28954 0.0
N24 N 0.88552 0.45364 0.28444 0.0
H25 H 0.93056 0.51703 0.27692 0.0
C26 C 0.1426 0.57598 0.31716 0.0
C27 C 0.16789 0.57047 0.3142 0.0
C28 C 0.1956 0.59181 0.29951 0.0
C29 C 0.19832 0.61891 0.28734 0.0
C30 C 0.17243 0.62372 0.28896 0.0
C31 C 0.14477 0.60249 0.30394 0.0
C32 C 0.12566 0.56705 0.36485 0.0
C33 C 0.13813 0.59909 0.37285 0.0
C34 C 0.1516 0.60966 0.39897 0.0
C35 C 0.15225 0.58828 0.41754 0.0
C36 C 0.13775 0.55585 0.41032 0.0
C37 C 0.12469 0.54538 0.38405 0.0
C38 C 0.08464 0.54481 0.3284 0.0
C39 C 0.06722 0.51447 0.31616 0.0
C40 C 0.0349 0.50105 0.30904 0.0
C41 C 0.01922 0.51779 0.31405 0.0
C42 C 0.03696 0.5487 0.32565 0.0
C43 C 0.06942 0.56212 0.33285 0.0
C44 C 0.87887 0.45058 0.25544 0.0
C45 C 0.87304 0.47203 0.24147 0.0
C46 C 0.86124 0.46532 0.21451 0.0
C47 C 0.8558 0.43749 0.20115 0.0
C48 C 0.86362 0.41723 0.2145 0.0
C49 C 0.87496 0.4237 0.24153 0.0
C50 C 0.86129 0.45233 0.30222 0.0
C51 C 0.8599 0.47964 0.30808 0.0
C52 C 0.83324 0.47658 0.32204 0.0
C53 C 0.808 0.44624 0.33039 0.0
C54 C 0.81015 0.41927 0.32556 0.0
C55 C 0.83659 0.42233 0.31151 0.0
C56 C 0.91856 0.47113 0.29325 0.0
C57 C 0.93046 0.4545 0.3069 0.0
C58 C 0.96295 0.46989 0.31413 0.0
C59 C 0.98429 0.50236 0.30777 0.0
C60 C 0.97207 0.51938 0.29479 0.0
C61 C 0.93938 0.50383 0.28752 0.0
H62 H 0.47387 0.85306 0.46184 0.0
N63 N 0.46753 0.90055 0.44456 0.0
H64 H 0.43459 0.80598 0.48845 0.0
H65 H 0.41391 0.89299 0.47062 0.0
H66 H 0.37459 0.84583 0.49694 0.0
H67 H 0.4087 0.87986 0.42071 0.0
H68 H 0.39142 0.85511 0.37524 0.0
H69 H 0.50487 0.90049 0.40459 0.0
H70 H 0.48771 0.87672 0.35834 0.0
H71 H 0.5221 0.9383 0.47111 0.0
H72 H 0.44063 0.93677 0.4352 0.0
H73 H 0.54548 0.99437 0.48435 0.0
H74 H 0.4636 0.99285 0.4487 0.0
H75 H 0.63157 0.16721 0.52158 0.0
H76 H 0.6386 0.19051 0.5678 0.0
H77 H 0.53557 0.14649 0.57506 0.0
H78 H 0.52851 0.12291 0.52881 0.0
H79 H 0.52653 0.14116 0.48375 0.0
H80 H 0.53046 0.18744 0.46055 0.0
H81 H 0.62977 0.22256 0.44024 0.0
H82 H 0.62587 0.17643 0.46357 0.0
H83 H 0.56676 0.08415 0.52636 0.0
H84 H 0.53668 0.02736 0.51579 0.0
H85 H 0.51026 0.0465 0.43686 0.0
N86 N 0.57699 0.1329 0.4936 0.0
H87 H 0.53965 0.10329 0.44743 0.0
C88 C 0.44691 0.87648 0.46423 0.0
C89 C 0.45269 0.85203 0.47011 0.0
C90 C 0.43034 0.82526 0.48516 0.0
C91 C 0.4018 0.82257 0.49449 0.0
C92 C 0.39661 0.84769 0.48991 0.0
C93 C 0.41908 0.87457 0.47494 0.0
C94 C 0.45812 0.89161 0.41626 0.0
C95 C 0.42631 0.87971 0.40727 0.0
C96 C 0.41639 0.86558 0.3813 0.0
C97 C 0.43822 0.86376 0.36372 0.0
C98 C 0.47054 0.8778 0.37178 0.0
C99 C 0.48032 0.8914 0.398 0.0
C100 C 0.47984 0.93341 0.45215 0.0
C101 C 0.50922 0.95011 0.46625 0.0
C102 C 0.52237 0.98204 0.47395 0.0
C103 C 0.50629 0.99806 0.46774 0.0
C104 C 0.47667 0.98125 0.45362 0.0
C105 C 0.46346 0.94915 0.44596 0.0
C106 C 0.57967 0.14337 0.52183 0.0
C107 C 0.61051 0.16224 0.5333 0.0
C108 C 0.61449 0.17556 0.5595 0.0
C109 C 0.5876 0.17019 0.57466 0.0
C110 C 0.55655 0.15082 0.56355 0.0
C111 C 0.55256 0.13745 0.53725 0.0
C112 C 0.57608 0.15553 0.47542 0.0
C113 C 0.5489 0.15844 0.47381 0.0
C114 C 0.5511 0.18471 0.46055 0.0
C115 C 0.58046 0.20838 0.44891 0.0
C116 C 0.60693 0.20446 0.44909 0.0
C117 C 0.6047 0.17821 0.46226 0.0
C118 C 0.55478 0.09881 0.48847 0.0
C119 C 0.55364 0.07637 0.50712 0.0
C120 C 0.53675 0.0437 0.50089 0.0
C121 C 0.52106 0.03236 0.47548 0.0
C122 C 0.5216 0.05439 0.45685 0.0
C123 C 0.53851 0.08718 0.46308 0.0
H124 H 0.46134 0.63386 0.65393 0.0
N125 N 0.4552 0.57974 0.67063 0.0
H126 H 0.42198 0.64025 0.62796 0.0
H127 H 0.39964 0.53119 0.64706 0.0
H128 H 0.36039 0.53759 0.62066 0.0
H129 H 0.3998 0.54041 0.69931 0.0
H130 H 0.38819 0.54956 0.74652 0.0
H131 H 0.49668 0.62234 0.70652 0.0
H132 H 0.48522 0.63122 0.7539 0.0
H133 H 0.50874 0.59936 0.64239 0.0
H134 H 0.42959 0.51589 0.68075 0.0
H135 H 0.53351 0.56877 0.63017 0.0
H136 H 0.4541 0.4848 0.66844 0.0
H137 H 0.6248 0.49282 0.59546 0.0
H138 H 0.63081 0.47543 0.54946 0.0
H139 H 0.52865 0.40534 0.54727 0.0
H140 H 0.52251 0.42339 0.59279 0.0
H141 H 0.52156 0.40722 0.63829 0.0
H142 H 0.52749 0.36584 0.66063 0.0
H143 H 0.62782 0.43563 0.6763 0.0
H144 H 0.62204 0.47687 0.65358 0.0
H145 H 0.55762 0.5022 0.59115 0.0
H146 H 0.52525 0.52526 0.60032 0.0
H147 H 0.5034 0.48384 0.68143 0.0
N148 N 0.57136 0.46795 0.6256 0.0
H149 H 0.53526 0.45994 0.67229 0.0
C150 C 0.43355 0.5822 0.65224 0.0
C151 C 0.43962 0.61278 0.6463 0.0
C152 C 0.4172 0.61639 0.63165 0.0
C153 C 0.38836 0.58939 0.62258 0.0
C154 C 0.38261 0.55866 0.62754 0.0
C155 C 0.40501 0.55504 0.64248 0.0
C156 C 0.44915 0.58097 0.69944 0.0
C157 C 0.41877 0.55986 0.71124 0.0
C158 C 0.41214 0.56501 0.73812 0.0
C159 C 0.43589 0.59105 0.75348 0.0
C160 C 0.46672 0.61094 0.74228 0.0
C161 C 0.47325 0.60591 0.7154 0.0
C162 C 0.46752 0.56 0.66243 0.0
C163 C 0.49658 0.57427 0.64786 0.0
C164 C 0.51056 0.55669 0.64083 0.0
C165 C 0.4957 0.52428 0.64826 0.0
C166 C 0.46622 0.50978 0.66262 0.0
C167 C 0.45212 0.52746 0.66954 0.0
C168 C 0.57339 0.45928 0.59757 0.0
C169 C 0.60369 0.47407 0.58483 0.0
C170 C 0.6071 0.46414 0.55876 0.0
C171 C 0.58019 0.43899 0.54522 0.0
C172 C 0.54965 0.4247 0.55755 0.0
C173 C 0.5462 0.43487 0.58351 0.0
C174 C 0.57155 0.44521 0.64418 0.0
C175 C 0.54465 0.4138 0.64699 0.0
C176 C 0.54799 0.39022 0.65972 0.0
C177 C 0.57816 0.39777 0.6698 0.0
C178 C 0.60439 0.42945 0.66859 0.0
C179 C 0.60107 0.45295 0.65585 0.0
C180 C 0.54813 0.47762 0.63031 0.0
C181 C 0.54505 0.49685 0.61063 0.0
C182 C 0.5268 0.51056 0.61602 0.0
C183 C 0.51169 0.50634 0.64157 0.0
C184 C 0.51424 0.487 0.66131 0.0
C185 C 0.53255 0.47316 0.65592 0.0
H186 H 0.1596 0.58428 0.79122 0.0
N187 N 0.12191 0.52182 0.77388 0.0
H188 H 0.20771 0.60624 0.82018 0.0
H189 H 0.14277 0.4894 0.80101 0.0
H190 H 0.19148 0.51165 0.82981 0.0
H191 H 0.14801 0.50413 0.73525 0.0
H192 H 0.17309 0.53188 0.69193 0.0
H193 H 0.12043 0.57279 0.75246 0.0
H194 H 0.1451 0.6001 0.70921 0.0
H195 H 0.10481 0.56049 0.80034 0.0
H196 H 0.06774 0.46536 0.76804 0.0
H197 H 0.05057 0.54553 0.81421 0.0
H198 H 0.01308 0.45014 0.78193 0.0
H199 H 0.87275 0.4044 0.85437 0.0
H200 H 0.85016 0.39063 0.90068 0.0
H201 H 0.88336 0.48973 0.9168 0.0
H202 H 0.90551 0.50364 0.86982 0.0
H203 H 0.88456 0.40721 0.80395 0.0
H204 H 0.83437 0.37114 0.77936 0.0
H205 H 0.80502 0.43948 0.78893 0.0
H206 H 0.85533 0.47572 0.81388 0.0
H207 H 0.94408 0.51624 0.80488 0.0
H208 H 0.99876 0.53106 0.79151 0.0
H209 H 0.98144 0.44201 0.82488 0.0
N210 N 0.8996 0.46342 0.83002 0.0
H211 H 0.92705 0.42744 0.83814 0.0
C212 C 0.14733 0.53497 0.79413 0.0
C213 C 0.16564 0.56801 0.80017 0.0
C214 C 0.19321 0.58063 0.81659 0.0
C215 C 0.20298 0.56051 0.82703 0.0
C216 C 0.18411 0.52744 0.82198 0.0
C217 C 0.15641 0.51479 0.80569 0.0
C218 C 0.13211 0.53607 0.74704 0.0
C219 C 0.14673 0.52467 0.72941 0.0
C220 C 0.16107 0.54049 0.70486 0.0
C221 C 0.16085 0.56792 0.69756 0.0
C222 C 0.14531 0.57884 0.71459 0.0
C223 C 0.13113 0.56312 0.73924 0.0
C224 C 0.0904 0.51394 0.78304 0.0
C225 C 0.0851 0.53637 0.79621 0.0
C226 C 0.05395 0.52782 0.80405 0.0
C227 C 0.02754 0.49667 0.79913 0.0
C228 C 0.03297 0.47423 0.78625 0.0
C229 C 0.06408 0.48289 0.77821 0.0
C230 C 0.89064 0.4552 0.85846 0.0
C231 C 0.8757 0.42338 0.8678 0.0
C232 C 0.86275 0.41544 0.89426 0.0
C233 C 0.8649 0.43914 0.91191 0.0
C234 C 0.88147 0.47117 0.90332 0.0
C235 C 0.89411 0.47907 0.87668 0.0
C236 C 0.87379 0.44439 0.81084 0.0
C237 C 0.86792 0.415 0.80025 0.0
C238 C 0.83921 0.39429 0.78625 0.0
C239 C 0.81612 0.40272 0.7825 0.0
C240 C 0.8227 0.43272 0.79161 0.0
C241 C 0.85133 0.45335 0.80569 0.0
C242 C 0.93142 0.47083 0.8224 0.0
C243 C 0.95217 0.49998 0.80927 0.0
C244 C 0.98338 0.50844 0.80181 0.0
C245 C 0.9944 0.4877 0.80718 0.0
C246 C 0.97352 0.45835 0.82023 0.0
C247 C 0.94237 0.45003 0.82791 0.0
H248 H 0.54842 0.17799 0.9552 0.0
N249 N 0.55099 0.12659 0.94367 0.0
H250 H 0.5888 0.22643 0.98003 0.0
H251 H 0.60279 0.13363 0.9724 0.0
H252 H 0.64283 0.18186 0.99767 0.0
H253 H 0.60915 0.14523 0.91961 0.0
H254 H 0.62577 0.16746 0.87332 0.0
H255 H 0.51273 0.12352 0.90332 0.0
H256 H 0.52918 0.1448 0.85645 0.0
H257 H 0.49808 0.09254 0.97331 0.0
H258 H 0.57561 0.0881 0.93539 0.0
H259 H 0.47377 0.03732 0.98893 0.0
H260 H 0.55096 0.0324 0.95014 0.0
H261 H 0.39335 0.87693 0.03395 0.0
H262 H 0.38412 0.85217 0.07951 0.0
H263 H 0.48235 0.87475 0.08098 0.0
H264 H 0.49153 0.89938 0.0354 0.0
H265 H 0.49295 0.88782 0.98729 0.0
H266 H 0.48468 0.83979 0.96341 0.0
H267 H 0.38386 0.80613 0.95316 0.0
H268 H 0.39214 0.85406 0.97722 0.0
H269 H 0.41871 0.92896 0.98327 0.0
H270 H 0.44575 0.98486 0.96888 0.0
H271 H 0.53792 0.99764 0.98995 0.0
N272 N 0.44527 0.89808 0.00277 0.0
H273 H 0.5105 0.94128 0.00355 0.0
C274 C 0.57238 0.15217 0.96211 0.0
C275 C 0.56861 0.17843 0.96492 0.0
C276 C 0.59162 0.20599 0.97891 0.0
C277 C 0.61871 0.2076 0.99049 0.0
C278 C 0.62196 0.18089 0.98884 0.0
C279 C 0.59904 0.15337 0.97456 0.0
C280 C 0.55968 0.13314 0.91504 0.0
C281 C 0.59133 0.14444 0.90589 0.0
C282 C 0.60085 0.15711 0.87949 0.0
C283 C 0.57876 0.15804 0.86173 0.0
C284 C 0.54652 0.14431 0.86998 0.0
C285 C 0.53715 0.13215 0.89657 0.0
C286 C 0.5383 0.09429 0.95296 0.0
C287 C 0.50975 0.07951 0.96831 0.0
C288 C 0.49584 0.04791 0.97704 0.0
C289 C 0.51017 0.03022 0.97048 0.0
C290 C 0.53936 0.04535 0.95565 0.0
C291 C 0.55336 0.07715 0.947 0.0
C292 C 0.44306 0.89017 0.03141 0.0
C293 C 0.41313 0.87738 0.04448 0.0
C294 C 0.40784 0.86313 0.07026 0.0
C295 C 0.43253 0.86159 0.08338 0.0
C296 C 0.46309 0.87586 0.07108 0.0
C297 C 0.46834 0.89006 0.04517 0.0
C298 C 0.44303 0.87435 0.98397 0.0
C299 C 0.46929 0.87056 0.97931 0.0
C300 C 0.46458 0.84319 0.96578 0.0
C301 C 0.43362 0.81948 0.9568 0.0
C302 C 0.40788 0.82425 0.95998 0.0
C303 C 0.4126 0.85152 0.97351 0.0
C304 C 0.46248 0.93109 0.99461 0.0
C305 C 0.44475 0.94391 0.98474 0.0
C306 C 0.46026 0.9759 0.97672 0.0
C307 C 0.49404 0.99591 0.97852 0.0
C308 C 0.51191 0.98286 0.98815 0.0
C309 C 0.49625 0.95067 0.99612 0.0
H310 H 0.55311 0.4034 0.13254 0.0
N311 N 0.56358 0.44707 0.1702 0.0
H312 H 0.59388 0.39812 0.10739 0.0
H313 H 0.62832 0.49163 0.16905 0.0
H314 H 0.66916 0.48662 0.14362 0.0
H315 H 0.54636 0.39388 0.19756 0.0
H316 H 0.55587 0.38888 0.24637 0.0
H317 H 0.5926 0.49613 0.20768 0.0
H318 H 0.6013 0.49104 0.25674 0.0
H319 H 0.50087 0.42347 0.16732 0.0
H320 H 0.59308 0.51039 0.15566 0.0
H321 H 0.47351 0.45134 0.15507 0.0
H322 H 0.56603 0.53838 0.14217 0.0
H323 H 0.39271 0.5316 0.09016 0.0
H324 H 0.38677 0.54916 0.04454 0.0
H325 H 0.48962 0.61602 0.04106 0.0
H326 H 0.49561 0.59734 0.08621 0.0
H327 H 0.49148 0.62049 0.12745 0.0
H328 H 0.48257 0.65936 0.15099 0.0
H329 H 0.3886 0.5829 0.17695 0.0
H330 H 0.39755 0.54379 0.15337 0.0
H331 H 0.43185 0.49835 0.10673 0.0
H332 H 0.46209 0.47293 0.11701 0.0
H333 H 0.53433 0.5591 0.15889 0.0
N334 N 0.44611 0.55666 0.12004 0.0
H335 H 0.50484 0.58487 0.14725 0.0
C336 C 0.58765 0.44784 0.15248 0.0
C337 C 0.57835 0.422 0.13453 0.0
C338 C 0.60153 0.41896 0.12034 0.0
C339 C 0.63443 0.44187 0.12387 0.0
C340 C 0.64383 0.46873 0.14071 0.0
C341 C 0.62056 0.47165 0.15507 0.0
C342 C 0.56837 0.44519 0.19915 0.0
C343 C 0.55826 0.41514 0.21041 0.0
C344 C 0.56376 0.41232 0.23809 0.0
C345 C 0.57928 0.4396 0.25501 0.0
C346 C 0.5893 0.46978 0.24389 0.0
C347 C 0.58419 0.47263 0.21602 0.0
C348 C 0.54884 0.46462 0.1621 0.0
C349 C 0.51516 0.44855 0.16177 0.0
C350 C 0.49962 0.46454 0.15457 0.0
C351 C 0.5175 0.49712 0.14726 0.0
C352 C 0.55145 0.51337 0.14782 0.0
C353 C 0.56701 0.49731 0.15529 0.0
C354 C 0.44443 0.56344 0.09158 0.0
C355 C 0.41401 0.54939 0.07917 0.0
C356 C 0.41064 0.55946 0.05332 0.0
C357 C 0.43771 0.58415 0.03971 0.0
C358 C 0.46847 0.59706 0.0514 0.0
C359 C 0.47187 0.58653 0.0771 0.0
C360 C 0.44514 0.57901 0.1388 0.0
C361 C 0.46936 0.61182 0.13886 0.0
C362 C 0.46426 0.63409 0.15218 0.0
C363 C 0.43485 0.62393 0.16544 0.0
C364 C 0.41145 0.59111 0.16679 0.0
C365 C 0.41662 0.56884 0.15356 0.0
C366 C 0.46562 0.54335 0.12633 0.0
C367 C 0.45433 0.5118 0.11799 0.0
C368 C 0.47157 0.49724 0.12411 0.0
C369 C 0.50049 0.51373 0.1392 0.0
C370 C 0.51229 0.5457 0.14707 0.0
C371 C 0.49516 0.56047 0.14056 0.0
Co372 Co 0.63499 0.38413 0.3967 0.0
O373 O 0.66067 0.3805 0.36842 0.0
O374 O 0.67821 0.4214 0.39747 0.0
C375 C 0.61346 0.33363 0.41236 0.0
O376 O 0.61731 0.39647 0.42919 0.0
Co377 Co 0.56103 0.34316 0.39729 0.0
O378 O 0.56435 0.36089 0.43468 0.0
C379 C 0.59366 0.39865 0.35993 0.0
C380 C 0.68435 0.40779 0.37741 0.0
C381 C 0.59087 0.38515 0.44274 0.0
O382 O 0.62092 0.40598 0.37035 0.0
O383 O 0.56737 0.37268 0.36616 0.0
O384 O 0.64172 0.35649 0.42055 0.0
O385 O 0.5997 0.34128 0.39383 0.0
Co386 Co 0.2791 0.64901 0.55703 0.0
O387 O 0.31228 0.65458 0.58202 0.0
O388 O 0.28257 0.61159 0.55589 0.0
C389 C 0.30846 0.69822 0.5382 0.0
O390 O 0.24397 0.63449 0.528 0.0
Co391 Co 0.24847 0.68991 0.56041 0.0
O392 O 0.22762 0.66941 0.52494 0.0
C393 C 0.23103 0.63971 0.60141 0.0
C394 C 0.30553 0.62647 0.57389 0.0
C395 C 0.2276 0.64486 0.51633 0.0
O396 O 0.24621 0.62948 0.58739 0.0
O397 O 0.23088 0.66494 0.5954 0.0
O398 O 0.31153 0.67489 0.52955 0.0
O399 O 0.28941 0.69191 0.55899 0.0
Co400 Co 0.63806 0.28374 0.72239 0.0
O401 O 0.64327 0.31704 0.69807 0.0
O402 O 0.60018 0.28679 0.72395 0.0
C403 C 0.68767 0.31342 0.74135 0.0
O404 O 0.62356 0.24851 0.75097 0.0
Co405 Co 0.68024 0.2543 0.71998 0.0
O406 O 0.65982 0.23385 0.7554 0.0
C407 C 0.63027 0.23689 0.67773 0.0
C408 C 0.61509 0.3102 0.70662 0.0
C409 C 0.63447 0.23302 0.76325 0.0
O410 O 0.61913 0.25158 0.6913 0.0
O411 O 0.65551 0.23685 0.68475 0.0
O412 O 0.66391 0.3158 0.7503 0.0
O413 O 0.68142 0.2945 0.72054 0.0
Co414 Co 0.37706 0.64426 0.89911 0.0
O415 O 0.3499 0.6478 0.87247 0.0
O416 O 0.33478 0.60564 0.89912 0.0
C417 C 0.39703 0.69351 0.91743 0.0
O418 O 0.39668 0.63144 0.92946 0.0
Co419 Co 0.45123 0.68829 0.89917 0.0
O420 O 0.44944 0.66812 0.93486 0.0
C421 C 0.41885 0.63868 0.85639 0.0
C422 C 0.32749 0.61928 0.88014 0.0
C423 C 0.42355 0.64282 0.94235 0.0
O424 O 0.3922 0.62605 0.86983 0.0
O425 O 0.44444 0.66494 0.86334 0.0
O426 O 0.36936 0.66955 0.92552 0.0
O427 O 0.41101 0.68757 0.89772 0.0
Co428 Co 0.74219 0.38106 0.05489 0.0
O429 O 0.70973 0.37503 0.08107 0.0
O430 O 0.73897 0.41861 0.05587 0.0
C431 C 0.71194 0.33226 0.03507 0.0
O432 O 0.77659 0.3963 0.02506 0.0
Co433 Co 0.77237 0.33949 0.05399 0.0
O434 O 0.79169 0.36073 0.01852 0.0
C435 C 0.79 0.38754 0.09782 0.0
C436 C 0.71641 0.40337 0.07407 0.0
C437 C 0.792 0.38586 0.01163 0.0
O438 O 0.77569 0.39931 0.08486 0.0
O439 O 0.78938 0.36226 0.09017 0.0
O440 O 0.70883 0.35586 0.02765 0.0
O441 O 0.73183 0.33819 0.05503 0.0
Co442 Co 0.3742 0.73666 0.22342 0.0
O443 O 0.36776 0.70355 0.19791 0.0
O444 O 0.41138 0.73241 0.22369 0.0
C445 C 0.32469 0.70751 0.24259 0.0
O446 O 0.38984 0.7715 0.25288 0.0
Co447 Co 0.33327 0.76764 0.22337 0.0
O448 O 0.35418 0.78671 0.25911 0.0
C449 C 0.38367 0.78604 0.18115 0.0
C450 C 0.39579 0.70945 0.20587 0.0
C451 C 0.37952 0.78711 0.2661 0.0
O452 O 0.39362 0.7696 0.19327 0.0
O453 O 0.35902 0.78686 0.1889 0.0
O454 O 0.3481 0.70419 0.25072 0.0
O455 O 0.33123 0.72708 0.22244 0.0
C456 C 0.25239 0.66961 0.29114 0.0
C457 C 0.22946 0.6434 0.27481 0.0
C458 C 0.26748 0.66186 0.23611 0.0
C459 C 0.29135 0.68664 0.25318 0.0
N460 N 0.30755 0.71392 0.29691 0.0
N461 N 0.21457 0.61297 0.23265 0.0
C462 C 0.28401 0.6905 0.28068 0.0
C463 C 0.23675 0.63924 0.24743 0.0
N464 N 0.24372 0.67466 0.31659 0.0
N465 N 0.27429 0.65987 0.20911 0.0
H466 H 0.19137 0.59679 0.23987 0.0
H467 H 0.21936 0.60609 0.21386 0.0
H468 H 0.29707 0.6744 0.20045 0.0
H469 H 0.2571 0.64493 0.19469 0.0
H470 H 0.25784 0.69513 0.32843 0.0
H471 H 0.22126 0.65917 0.32546 0.0
H472 H 0.30552 0.71571 0.31806 0.0
H473 H 0.33002 0.73114 0.28927 0.0
C474 C 0.58715 0.24538 0.41051 0.0
C475 C 0.58484 0.23897 0.43908 0.0
C476 C 0.59346 0.29185 0.44904 0.0
C477 C 0.60036 0.3 0.42089 0.0
N478 N 0.6075 0.28574 0.37491 0.0
N479 N 0.59004 0.25748 0.48604 0.0
C480 C 0.59788 0.277 0.40152 0.0
C481 C 0.58898 0.26251 0.45852 0.0
N482 N 0.57882 0.22117 0.39202 0.0
N483 N 0.59018 0.31174 0.46659 0.0
H484 H 0.5868 0.23631 0.49399 0.0
H485 H 0.59679 0.2753 0.50088 0.0
H486 H 0.59199 0.33268 0.45988 0.0
H487 H 0.58218 0.30581 0.48681 0.0
H488 H 0.57682 0.22349 0.37096 0.0
H489 H 0.57112 0.19783 0.39802 0.0
H490 H 0.60978 0.27107 0.36073 0.0
H491 H 0.61573 0.30863 0.36743 0.0
C492 C 0.33933 0.59348 0.62524 0.0
C493 C 0.36374 0.5938 0.609 0.0
C494 C 0.34528 0.6091 0.5683 0.0
C495 C 0.32321 0.6121 0.58522 0.0
N496 N 0.29786 0.60658 0.62916 0.0
N497 N 0.39085 0.60182 0.56562 0.0
C498 C 0.3197 0.60388 0.6135 0.0
C499 C 0.3667 0.6012 0.58056 0.0
N500 N 0.33495 0.58306 0.65186 0.0
N501 N 0.34587 0.61403 0.54058 0.0
H502 H 0.4059 0.59469 0.57365 0.0
H503 H 0.39708 0.61061 0.5457 0.0
H504 H 0.33173 0.62139 0.53108 0.0
H505 H 0.35888 0.60912 0.52658 0.0
H506 H 0.31584 0.57927 0.66424 0.0
H507 H 0.34951 0.5762 0.66136 0.0
H508 H 0.29652 0.60492 0.65048 0.0
H509 H 0.28129 0.61149 0.62075 0.0
C510 C 0.75992 0.35592 0.78944 0.0
C511 C 0.78373 0.37896 0.77147 0.0
C512 C 0.74434 0.35967 0.73391 0.0
C513 C 0.72112 0.33515 0.75137 0.0
N514 N 0.70863 0.30599 0.79387 0.0
N515 N 0.80072 0.39987 0.72577 0.0
C516 C 0.72942 0.3322 0.77864 0.0
C517 C 0.77657 0.37992 0.7434 0.0
N518 N 0.76618 0.35723 0.81699 0.0
N519 N 0.73524 0.36463 0.70877 0.0
H520 H 0.82446 0.41544 0.7322 0.0
H521 H 0.79785 0.39919 0.70452 0.0
H522 H 0.71188 0.35054 0.70105 0.0
H523 H 0.7501 0.38431 0.69646 0.0
H524 H 0.74859 0.34353 0.83156 0.0
H525 H 0.78847 0.37379 0.82568 0.0
H526 H 0.71451 0.30066 0.81283 0.0
H527 H 0.68653 0.28784 0.78624 0.0
C528 C 0.42214 0.78131 0.91776 0.0
C529 C 0.42724 0.78827 0.94626 0.0
C530 C 0.41828 0.73509 0.95486 0.0
C531 C 0.40914 0.72668 0.92699 0.0
N532 N 0.39808 0.74032 0.88241 0.0
N533 N 0.42594 0.77062 0.99277 0.0
C534 C 0.41014 0.74946 0.90846 0.0
C535 C 0.42424 0.76487 0.96508 0.0
N536 N 0.42918 0.80526 0.89957 0.0
N537 N 0.42247 0.71514 0.9713 0.0
H538 H 0.43057 0.79224 0.00118 0.0
H539 H 0.42019 0.75307 0.00749 0.0
H540 H 0.41954 0.69382 0.964 0.0
H541 H 0.4321 0.72124 0.99106 0.0
H542 H 0.42922 0.80249 0.87832 0.0
H543 H 0.43777 0.8288 0.90579 0.0
H544 H 0.39483 0.7549 0.86907 0.0
H545 H 0.38867 0.71717 0.87478 0.0
C546 C 0.66314 0.43836 0.08234 0.0
C547 C 0.6588 0.4362 0.11127 0.0
C548 C 0.69834 0.42006 0.11554 0.0
C549 C 0.6988 0.41741 0.08652 0.0
N550 N 0.67871 0.42048 0.04201 0.0
N551 N 0.66911 0.42103 0.15545 0.0
C552 C 0.6807 0.42594 0.06975 0.0
C553 C 0.67571 0.42618 0.12795 0.0
N554 N 0.65073 0.45259 0.06697 0.0
N555 N 0.7202 0.41767 0.1312 0.0
H556 H 0.6526 0.42504 0.16545 0.0
H557 H 0.678 0.41023 0.16791 0.0
H558 H 0.73789 0.41439 0.12261 0.0
H559 H 0.72304 0.42235 0.15226 0.0
H560 H 0.65581 0.45779 0.04616 0.0
H561 H 0.63778 0.46194 0.07563 0.0
H562 H 0.66298 0.42285 0.02925 0.0
H563 H 0.69072 0.41095 0.03194 0.0
C564 C 0.37731 0.78567 0.5348 0.0
C565 C 0.37606 0.79198 0.50659 0.0
C566 C 0.32671 0.73926 0.5009 0.0
C567 C 0.33018 0.73137 0.52814 0.0
N568 N 0.36075 0.74564 0.57041 0.0
N569 N 0.3519 0.774 0.4617 0.0
C570 C 0.35585 0.75429 0.54507 0.0
C571 C 0.35132 0.7686 0.48933 0.0
N572 N 0.39882 0.80979 0.55178 0.0
N573 N 0.29933 0.71917 0.4864 0.0
H574 H 0.36904 0.79549 0.45246 0.0
H575 H 0.33685 0.75639 0.44759 0.0
H576 H 0.28054 0.69805 0.49469 0.0
H577 H 0.29377 0.72489 0.46747 0.0
H578 H 0.3987 0.80773 0.57308 0.0
H579 H 0.41519 0.83288 0.54474 0.0
H580 H 0.38116 0.76006 0.58233 0.0
H581 H 0.34561 0.723 0.5788 0.0
C582 C 0.58547 0.36817 0.70809 0.0
C583 C 0.58337 0.37224 0.67951 0.0
C584 C 0.59492 0.33027 0.6695 0.0
C585 C 0.60141 0.32942 0.69776 0.0
N586 N 0.60617 0.34978 0.74399 0.0
N587 N 0.58903 0.35968 0.63253 0.0
C588 C 0.59722 0.34869 0.71718 0.0
C589 C 0.58868 0.35381 0.66004 0.0
N590 N 0.57597 0.38276 0.7265 0.0
N591 N 0.59383 0.30793 0.65186 0.0
H592 H 0.58407 0.37635 0.62468 0.0
H593 H 0.59653 0.34972 0.61756 0.0
H594 H 0.59744 0.28986 0.65838 0.0
H595 H 0.58624 0.3053 0.63149 0.0
H596 H 0.57376 0.37818 0.74753 0.0
H597 H 0.56756 0.39743 0.72044 0.0
H598 H 0.60724 0.36612 0.75835 0.0
H599 H 0.61498 0.33601 0.75153 0.0
C600 C 0.26233 0.58219 0.82538 0.0
C601 C 0.23458 0.5745 0.84108 0.0
C602 C 0.26787 0.59683 0.88253 0.0
C603 C 0.29524 0.60274 0.86712 0.0
N604 N 0.31771 0.59535 0.82557 0.0
N605 N 0.20948 0.56989 0.88497 0.0
C606 C 0.29226 0.59387 0.83898 0.0
C607 C 0.23691 0.58041 0.86982 0.0
N608 N 0.2602 0.57901 0.79736 0.0
N609 N 0.27168 0.6081 0.90891 0.0
H610 H 0.18652 0.55847 0.87618 0.0
H611 H 0.20913 0.57031 0.90638 0.0
H612 H 0.29393 0.62008 0.91893 0.0
H613 H 0.25334 0.60775 0.92023 0.0
H614 H 0.28021 0.58779 0.78452 0.0
H615 H 0.23854 0.5697 0.78663 0.0
H616 H 0.31615 0.5862 0.80588 0.0
H617 H 0.33974 0.60303 0.83512 0.0
C618 C 0.67107 0.26017 0.98655 0.0
C619 C 0.64447 0.23815 0.00296 0.0
C620 C 0.66478 0.27618 0.04167 0.0
C621 C 0.68994 0.29923 0.02451 0.0
N622 N 0.71718 0.31414 0.98079 0.0
N623 N 0.61449 0.22461 0.04531 0.0
C624 C 0.69318 0.29141 0.99701 0.0
C625 C 0.64107 0.2459 0.0304 0.0
N626 N 0.6753 0.25096 0.96105 0.0
N627 N 0.6635 0.28331 0.06872 0.0
H628 H 0.59752 0.20167 0.03817 0.0
H629 H 0.60817 0.22991 0.06415 0.0
H630 H 0.67893 0.30582 0.07738 0.0
H631 H 0.64829 0.26657 0.08319 0.0
H632 H 0.69584 0.26433 0.94907 0.0
H633 H 0.65898 0.22875 0.95226 0.0
H634 H 0.71879 0.31185 0.95966 0.0
H635 H 0.7352 0.33622 0.98845 0.0
C636 C 0.41911 0.66434 0.15707 0.0
C637 C 0.4273 0.64773 0.17591 0.0
C638 C 0.41472 0.67153 0.21462 0.0
C639 C 0.40861 0.68976 0.1958 0.0
N640 N 0.41176 0.70885 0.14966 0.0
N641 N 0.43897 0.63994 0.22228 0.0
C642 C 0.41279 0.68772 0.16715 0.0
C643 C 0.42702 0.65275 0.20462 0.0
N644 N 0.41615 0.65691 0.12965 0.0
N645 N 0.4071 0.67068 0.24182 0.0
H646 H 0.44793 0.62586 0.21562 0.0
H647 H 0.4426 0.64553 0.24317 0.0
H648 H 0.39752 0.68358 0.25002 0.0
H649 H 0.4076 0.65503 0.25588 0.0
H650 H 0.40672 0.66559 0.11541 0.0
H651 H 0.42059 0.63996 0.12135 0.0
H652 H 0.4178 0.71068 0.1289 0.0
H653 H 0.40798 0.72681 0.15645 0.0
C654 C 0.75212 0.43585 0.32533 0.0
C655 C 0.77807 0.44181 0.34271 0.0
C656 C 0.7431 0.42715 0.38315 0.0
C657 C 0.71724 0.42188 0.36588 0.0
N658 N 0.69851 0.4272 0.32156 0.0
N659 N 0.80075 0.4501 0.38809 0.0
C660 C 0.7222 0.42808 0.33724 0.0
C661 C 0.77434 0.43984 0.37165 0.0
N662 N 0.75575 0.43642 0.29738 0.0
N663 N 0.73742 0.418 0.41012 0.0
H664 H 0.82388 0.45907 0.38019 0.0
H665 H 0.8003 0.45242 0.40936 0.0
H666 H 0.71481 0.40788 0.41934 0.0
H667 H 0.75445 0.41781 0.42284 0.0
H668 H 0.7367 0.42841 0.28357 0.0
H669 H 0.77764 0.4432 0.28788 0.0
H670 H 0.70184 0.43495 0.30126 0.0
H671 H 0.67614 0.42115 0.32953 0.0
C672 C 0.20327 0.60839 0.44428 0.0
C673 C 0.17081 0.60056 0.44352 0.0
C674 C 0.17426 0.61633 0.4919 0.0
C675 C 0.20775 0.62762 0.4918 0.0
N676 N 0.25511 0.63691 0.46713 0.0
N677 N 0.12568 0.59914 0.46535 0.0
C678 C 0.22248 0.624 0.46789 0.0
C679 C 0.15635 0.60509 0.46701 0.0
N680 N 0.21573 0.60073 0.4224 0.0
N681 N 0.15928 0.61507 0.51611 0.0
H682 H 0.11134 0.58954 0.44782 0.0
H683 H 0.11514 0.60562 0.48063 0.0
H684 H 0.17142 0.62234 0.53487 0.0
H685 H 0.13439 0.60406 0.51815 0.0
H686 H 0.23767 0.60192 0.423 0.0
H687 H 0.20317 0.59096 0.40408 0.0
H688 H 0.26782 0.63907 0.44921 0.0
H689 H 0.2702 0.64757 0.48401 0.0
C690 C 0.60362 0.21906 0.60297 0.0
C691 C 0.59261 0.18597 0.60188 0.0
C692 C 0.59782 0.18535 0.65195 0.0
C693 C 0.6136 0.21922 0.65234 0.0
N694 N 0.63384 0.26907 0.62825 0.0
N695 N 0.58018 0.13732 0.62473 0.0
C696 C 0.61672 0.23631 0.62793 0.0
C697 C 0.58957 0.16889 0.62627 0.0
N698 N 0.60143 0.23387 0.5801 0.0
N699 N 0.59042 0.16902 0.67621 0.0
H700 H 0.57322 0.1243 0.60635 0.0
H701 H 0.58115 0.12452 0.64128 0.0
H702 H 0.59598 0.18055 0.6953 0.0
H703 H 0.5763 0.14416 0.67755 0.0
H704 H 0.60606 0.25713 0.58023 0.0
H705 H 0.59211 0.22187 0.56145 0.0
H706 H 0.64016 0.28297 0.61057 0.0
H707 H 0.64372 0.28258 0.64614 0.0
C708 C 0.43345 0.58889 0.80503 0.0
C709 C 0.42773 0.59991 0.78009 0.0
C710 C 0.41048 0.6315 0.80572 0.0
C711 C 0.41957 0.62325 0.8305 0.0
N712 N 0.44046 0.59531 0.85462 0.0
N713 N 0.41242 0.63264 0.75586 0.0
C714 C 0.43105 0.60206 0.83044 0.0
C715 C 0.41636 0.62124 0.7802 0.0
N716 N 0.44079 0.56559 0.80429 0.0
N717 N 0.39607 0.64902 0.80667 0.0
H718 H 0.41527 0.62479 0.73669 0.0
H719 H 0.40812 0.6512 0.75445 0.0
H720 H 0.39239 0.65789 0.82494 0.0
H721 H 0.38549 0.65279 0.78974 0.0
H722 H 0.44233 0.55421 0.82166 0.0
H723 H 0.44315 0.55588 0.78594 0.0
H724 H 0.45238 0.58295 0.85588 0.0
H725 H 0.4377 0.60352 0.87365 0.0
C726 C 0.81598 0.42381 0.94037 0.0
C727 C 0.84773 0.42973 0.93867 0.0
C728 C 0.84498 0.41439 0.98693 0.0
C729 C 0.81176 0.4041 0.98746 0.0
N730 N 0.76491 0.39813 0.96452 0.0
N731 N 0.89252 0.42972 0.9594 0.0
C732 C 0.79715 0.40903 0.9643 0.0
C733 C 0.86233 0.42492 0.96176 0.0
N734 N 0.80384 0.43238 0.91906 0.0
N735 N 0.86019 0.41524 0.01079 0.0
H736 H 0.90655 0.4389 0.94169 0.0
H737 H 0.90296 0.42288 0.97433 0.0
H738 H 0.84842 0.40865 0.02976 0.0
H739 H 0.88501 0.42537 0.0124 0.0
H740 H 0.78253 0.43238 0.92024 0.0
H741 H 0.81623 0.44183 0.90065 0.0
H742 H 0.75191 0.39671 0.94706 0.0
H743 H 0.75037 0.38869 0.98183 0.0
C744 C 0.41054 0.80897 0.10702 0.0
C745 C 0.42521 0.84271 0.10897 0.0
C746 C 0.42032 0.83903 0.15916 0.0
C747 C 0.40135 0.80518 0.15678 0.0
N748 N 0.37684 0.75732 0.12883 0.0
N749 N 0.44361 0.89037 0.13628 0.0
C750 C 0.39641 0.78991 0.13084 0.0
C751 C 0.4303 0.85796 0.13493 0.0
N752 N 0.41025 0.79527 0.08235 0.0
N753 N 0.42916 0.8529 0.18464 0.0
H754 H 0.45217 0.90505 0.11899 0.0
H755 H 0.44454 0.90253 0.15421 0.0
H756 H 0.42256 0.83946 0.20266 0.0
H757 H 0.44532 0.87728 0.18791 0.0
H758 H 0.40289 0.77127 0.08007 0.0
H759 H 0.41994 0.80851 0.0644 0.0
H760 H 0.36917 0.74497 0.11021 0.0
H761 H 0.36654 0.74256 0.1459 0.0
C762 C 0.55783 0.42204 0.30284 0.0
C763 C 0.58454 0.43613 0.28452 0.0
C764 C 0.62001 0.44019 0.32194 0.0
C765 C 0.59241 0.41929 0.33786 0.0
N766 N 0.53892 0.40613 0.34973 0.0
N767 N 0.64133 0.45817 0.27624 0.0
C768 C 0.56226 0.41486 0.33018 0.0
C769 C 0.61583 0.44557 0.29405 0.0
N770 N 0.52815 0.41465 0.29377 0.0
N771 N 0.64977 0.45708 0.3339 0.0
H772 H 0.63946 0.46263 0.25561 0.0
H773 H 0.66373 0.4618 0.2815 0.0
H774 H 0.65303 0.45769 0.35511 0.0
H775 H 0.67032 0.47436 0.3235 0.0
H776 H 0.50689 0.4007 0.30477 0.0
H777 H 0.52453 0.42151 0.27452 0.0
H778 H 0.51701 0.40441 0.34628 0.0
H779 H 0.54323 0.40439 0.37048 0.0
C780 C 0.4195 0.81319 0.33681 0.0
C781 C 0.42644 0.84513 0.33769 0.0
C782 C 0.40899 0.84056 0.28976 0.0
C783 C 0.39836 0.80749 0.28992 0.0
N784 N 0.39252 0.76162 0.31371 0.0
N785 N 0.42666 0.88923 0.31604 0.0
C786 C 0.4038 0.79369 0.31332 0.0
C787 C 0.42096 0.85886 0.3144 0.0
N788 N 0.42794 0.80146 0.3585 0.0
N789 N 0.40888 0.85476 0.26568 0.0
H790 H 0.43714 0.90402 0.3332 0.0
H791 H 0.41934 0.89919 0.30111 0.0
H792 H 0.40097 0.84229 0.24709 0.0
H793 H 0.41935 0.87936 0.26343 0.0
H794 H 0.42752 0.78006 0.35784 0.0
H795 H 0.43744 0.81405 0.37685 0.0
H796 H 0.39137 0.74919 0.33137 0.0
H797 H 0.38259 0.74665 0.29667 0.0
C798 C 0.57209 0.43199 0.49407 0.0
C799 C 0.58425 0.42665 0.51858 0.0
C800 C 0.60669 0.40025 0.49214 0.0
C801 C 0.59078 0.40165 0.46828 0.0
N802 N 0.55739 0.41788 0.44619 0.0
N803 N 0.60837 0.40108 0.54189 0.0
C804 C 0.57312 0.4172 0.46917 0.0
C805 C 0.60039 0.40963 0.51788 0.0
N806 N 0.56066 0.45213 0.49446 0.0
N807 N 0.62813 0.39039 0.49029 0.0
H808 H 0.60373 0.407 0.56127 0.0
H809 H 0.61682 0.38555 0.5427 0.0
H810 H 0.63375 0.38353 0.47186 0.0
H811 H 0.64279 0.39205 0.50656 0.0
H812 H 0.55454 0.45969 0.47683 0.0
H813 H 0.55978 0.46354 0.51231 0.0
H814 H 0.5408 0.42512 0.44638 0.0
H815 H 0.55973 0.40975 0.42697 0.0
C816 C 0.21172 0.61098 0.67534 0.0
C817 C 0.17868 0.5864 0.67285 0.0
C818 C 0.17951 0.59815 0.62379 0.0
C819 C 0.21298 0.62141 0.62597 0.0
N820 N 0.26216 0.64804 0.65241 0.0
N821 N 0.13164 0.55372 0.64486 0.0
C822 C 0.22945 0.62728 0.65137 0.0
C823 C 0.16268 0.57919 0.64709 0.0
N824 N 0.22587 0.61918 0.70077 0.0
N825 N 0.16381 0.59464 0.59954 0.0
H826 H 0.11833 0.53992 0.66166 0.0
H827 H 0.11963 0.54487 0.62623 0.0
H828 H 0.17566 0.60731 0.58182 0.0
H829 H 0.13887 0.58074 0.59725 0.0
H830 H 0.24867 0.63917 0.70454 0.0
H831 H 0.21397 0.60714 0.71871 0.0
H832 H 0.27629 0.65064 0.6694 0.0
H833 H 0.27577 0.66129 0.63549 0.0
C834 C 0.59484 0.16211 0.81203 0.0
C835 C 0.59029 0.17632 0.83567 0.0
C836 C 0.6127 0.22746 0.81138 0.0
C837 C 0.61681 0.21308 0.7875 0.0
N838 N 0.60497 0.16529 0.76292 0.0
N839 N 0.59006 0.22064 0.85713 0.0
C840 C 0.60594 0.17996 0.78722 0.0
C841 C 0.59761 0.20839 0.83504 0.0
N842 N 0.58906 0.13172 0.81346 0.0
N843 N 0.62469 0.25968 0.81204 0.0
H844 H 0.58102 0.20838 0.87559 0.0
H845 H 0.59072 0.24216 0.8567 0.0
H846 H 0.63449 0.27449 0.79501 0.0
H847 H 0.62676 0.27239 0.82992 0.0
H848 H 0.5956 0.12136 0.7981 0.0
H849 H 0.57943 0.11739 0.83087 0.0
H850 H 0.59434 0.14064 0.76069 0.0
H851 H 0.61211 0.17744 0.74424 0.0
C852 C 0.41723 0.61519 0.016 0.0
C853 C 0.43338 0.5982 0.01435 0.0
C854 C 0.44302 0.61028 0.96514 0.0
C855 C 0.42488 0.62533 0.96654 0.0
N856 N 0.38768 0.63456 0.99176 0.0
N857 N 0.45635 0.57424 0.98669 0.0
C858 C 0.40968 0.62533 0.99146 0.0
C859 C 0.44485 0.59425 0.98871 0.0
N860 N 0.4104 0.62299 0.04109 0.0
N861 N 0.45844 0.61127 0.94129 0.0
H862 H 0.45776 0.56192 0.00349 0.0
H863 H 0.46193 0.56768 0.96808 0.0
H864 H 0.45581 0.62072 0.92304 0.0
H865 H 0.47516 0.60425 0.93993 0.0
H866 H 0.40185 0.63833 0.04351 0.0
H867 H 0.41631 0.61684 0.05969 0.0
H868 H 0.37361 0.63195 0.00888 0.0
H869 H 0.38095 0.64167 0.97422 0.0
C870 C 0.80483 0.40479 0.17422 0.0
C871 C 0.83861 0.42744 0.17441 0.0
C872 C 0.84027 0.42543 0.12404 0.0
C873 C 0.80654 0.40287 0.12389 0.0
N874 N 0.75554 0.37421 0.14761 0.0
N875 N 0.8879 0.46324 0.1503 0.0
C876 C 0.78845 0.39357 0.14866 0.0
C877 C 0.85616 0.43904 0.1495 0.0
N878 N 0.78866 0.39339 0.19857 0.0
N879 N 0.85712 0.43307 0.09986 0.0
H880 H 0.90038 0.47307 0.16865 0.0
H881 H 0.90144 0.47511 0.13297 0.0
H882 H 0.84597 0.42446 0.08081 0.0
H883 H 0.88217 0.44661 0.09859 0.0
H884 H 0.76506 0.37402 0.20011 0.0
H885 H 0.79936 0.40235 0.21772 0.0
H886 H 0.74045 0.36931 0.16445 0.0
H887 H 0.74281 0.36459 0.12932 0.0
loop_
_geom_bond_atom_site_label_1
_geom_bond_atom_site_label_2
_geom_bond_distance
_geom_bond_site_symmetry_2
_ccdc_geom_bond_type
H0 C27 0.929 . S
N1 C26 1.433 . S
N1 C32 1.435 . S
N1 C38 1.423 . S
H2 C28 0.930 . S
H3 C31 0.931 . S
H4 C30 0.929 . S
H5 C33 0.930 . S
H6 C34 0.932 . S
H7 C37 0.929 . S
H8 C36 0.931 . S
H9 C39 0.929 . S
H10 C43 0.932 . S
H11 C40 0.931 . S
H12 C42 0.929 . S
H13 C45 0.929 . S
H14 C46 0.930 . S
H15 C48 0.929 . S
H16 C49 0.931 . S
H17 C51 0.930 . S
H18 C52 0.932 . S
H19 C54 0.931 . S
H20 C55 0.929 . S
H21 C57 0.929 . S
H22 C58 0.931 . S
H23 C60 0.929 . S
N24 C44 1.433 . S
N24 C50 1.435 . S
N24 C56 1.423 . S
H25 C61 0.932 . S
C26 N1 1.433 . S
C26 C27 1.363 . S
C26 C31 1.370 . S
C27 H0 0.929 . S
C27 C26 1.363 . S
C27 C28 1.385 . S
C28 H2 0.930 . S
C28 C27 1.385 . S
C28 C29 1.357 . S
C29 C28 1.357 . S
C29 C30 1.406 . S
C30 H4 0.929 . S
C30 C29 1.406 . S
C30 C31 1.391 . S
C31 H3 0.931 . S
C31 C26 1.370 . S
C31 C30 1.391 . S
C32 N1 1.435 . S
C32 C33 1.358 . S
C32 C37 1.371 . S
C33 H5 0.930 . S
C33 C32 1.358 . S
C33 C34 1.405 . S
C34 H6 0.932 . S
C34 C33 1.405 . S
C34 C35 1.383 . S
C35 C34 1.383 . S
C35 C36 1.393 . S
C36 H8 0.931 . S
C36 C35 1.393 . S
C36 C37 1.382 . S
C37 H7 0.929 . S
C37 C32 1.371 . S
C37 C36 1.382 . S
C38 N1 1.423 . S
C38 C39 1.362 . S
C38 C43 1.388 . S
C39 H9 0.929 . S
C39 C38 1.362 . S
C39 C40 1.376 . S
C40 H11 0.931 . S
C40 C39 1.376 . S
C40 C41 1.396 . S
C41 C40 1.396 . S
C41 C42 1.348 . S
C41 C59 1.472 1_455 S
C42 H12 0.929 . S
C42 C41 1.348 . S
C42 C43 1.443 . S
C43 H10 0.932 . S
C43 C38 1.388 . S
C43 C42 1.443 . S
C44 N24 1.433 . S
C44 C45 1.363 . S
C44 C49 1.370 . S
C45 H13 0.929 . S
C45 C44 1.363 . S
C45 C46 1.385 . S
C46 H14 0.930 . S
C46 C45 1.385 . S
C46 C47 1.357 . S
C47 C46 1.357 . S
C47 C48 1.406 . S
C48 H15 0.929 . S
C48 C47 1.406 . S
C48 C49 1.391 . S
C49 H16 0.931 . S
C49 C44 1.370 . S
C49 C48 1.391 . S
C50 N24 1.435 . S
C50 C51 1.358 . S
C50 C55 1.371 . S
C51 H17 0.930 . S
C51 C50 1.358 . S
C51 C52 1.405 . S
C52 H18 0.932 . S
C52 C51 1.405 . S
C52 C53 1.383 . S
C53 C52 1.383 . S
C53 C54 1.393 . S
C54 H19 0.931 . S
C54 C53 1.393 . S
C54 C55 1.382 . S
C55 H20 0.929 . S
C55 C50 1.371 . S
C55 C54 1.382 . S
C56 N24 1.423 . S
C56 C57 1.362 . S
C56 C61 1.388 . S
C57 H21 0.929 . S
C57 C56 1.362 . S
C57 C58 1.376 . S
C58 H22 0.931 . S
C58 C57 1.376 . S
C58 C59 1.396 . S
C59 C41 1.472 1_655 S
C59 C58 1.396 . S
C59 C60 1.348 . S
C60 H23 0.929 . S
C60 C59 1.348 . S
C60 C61 1.443 . S
C61 H25 0.932 . S
C61 C56 1.388 . S
C61 C60 1.443 . S
H62 C89 0.929 . S
N63 C88 1.433 . S
N63 C94 1.435 . S
N63 C100 1.423 . S
H64 C90 0.930 . S
H65 C93 0.931 . S
H66 C92 0.929 . S
H67 C95 0.930 . S
H68 C96 0.932 . S
H69 C99 0.929 . S
H70 C98 0.931 . S
H71 C101 0.929 . S
H72 C105 0.932 . S
H73 C102 0.931 . S
H74 C104 0.929 1_545 S
H75 C107 0.929 . S
H76 C108 0.930 . S
H77 C110 0.929 . S
H78 C111 0.931 . S
H79 C113 0.930 . S
H80 C114 0.932 . S
H81 C116 0.931 . S
H82 C117 0.929 . S
H83 C119 0.929 . S
H84 C120 0.931 . S
H85 C122 0.929 . S
N86 C106 1.433 . S
N86 C112 1.435 . S
N86 C118 1.423 . S
H87 C123 0.932 . S
C88 N63 1.433 . S
C88 C89 1.363 . S
C88 C93 1.370 . S
C89 H62 0.929 . S
C89 C88 1.363 . S
C89 C90 1.385 . S
C90 H64 0.930 . S
C90 C89 1.385 . S
C90 C91 1.357 . S
C91 C90 1.357 . S
C91 C92 1.406 . S
C92 H66 0.929 . S
C92 C91 1.406 . S
C92 C93 1.391 . S
C93 H65 0.931 . S
C93 C88 1.370 . S
C93 C92 1.391 . S
C94 N63 1.435 . S
C94 C95 1.358 . S
C94 C99 1.371 . S
C95 H67 0.930 . S
C95 C94 1.358 . S
C95 C96 1.405 . S
C96 H68 0.932 . S
C96 C95 1.405 . S
C96 C97 1.383 . S
C97 C96 1.383 . S
C97 C98 1.393 . S
C98 H70 0.931 . S
C98 C97 1.393 . S
C98 C99 1.382 . S
C99 H69 0.929 . S
C99 C94 1.371 . S
C99 C98 1.382 . S
C100 N63 1.423 . S
C100 C101 1.362 . S
C100 C105 1.388 . S
C101 H71 0.929 . S
C101 C100 1.362 . S
C101 C102 1.376 . S
C102 H73 0.931 . S
C102 C101 1.376 . S
C102 C103 1.396 1_565 S
C103 C102 1.396 1_545 S
C103 C104 1.348 1_545 S
C103 C121 1.472 . S
C104 H74 0.929 1_565 S
C104 C103 1.348 1_565 S
C104 C105 1.443 . S
C105 H72 0.932 . S
C105 C100 1.388 . S
C105 C104 1.443 . S
C106 N86 1.433 . S
C106 C107 1.363 . S
C106 C111 1.370 . S
C107 H75 0.929 . S
C107 C106 1.363 . S
C107 C108 1.385 . S
C108 H76 0.930 . S
C108 C107 1.385 . S
C108 C109 1.357 . S
C109 C108 1.357 . S
C109 C110 1.406 . S
C110 H77 0.929 . S
C110 C109 1.406 . S
C110 C111 1.391 . S
C111 H78 0.931 . S
C111 C106 1.370 . S
C111 C110 1.391 . S
C112 N86 1.435 . S
C112 C113 1.358 . S
C112 C117 1.371 . S
C113 H79 0.930 . S
C113 C112 1.358 . S
C113 C114 1.405 . S
C114 H80 0.932 . S
C114 C113 1.405 . S
C114 C115 1.383 . S
C115 C114 1.383 . S
C115 C116 1.393 . S
C116 H81 0.931 . S
C116 C115 1.393 . S
C116 C117 1.382 . S
C117 H82 0.929 . S
C117 C112 1.371 . S
C117 C116 1.382 . S
C118 N86 1.423 . S
C118 C119 1.362 . S
C118 C123 1.388 . S
C119 H83 0.929 . S
C119 C118 1.362 . S
C119 C120 1.376 . S
C120 H84 0.931 . S
C120 C119 1.376 . S
C120 C121 1.396 . S
C121 C103 1.472 . S
C121 C120 1.396 . S
C121 C122 1.348 . S
C122 H85 0.929 . S
C122 C121 1.348 . S
C122 C123 1.443 . S
C123 H87 0.932 . S
C123 C118 1.388 . S
C123 C122 1.443 . S
H124 C151 0.929 . S
N125 C150 1.433 . S
N125 C156 1.435 . S
N125 C162 1.423 . S
H126 C152 0.930 . S
H127 C155 0.931 . S
H128 C154 0.929 . S
H129 C157 0.930 . S
H130 C158 0.932 . S
H131 C161 0.929 . S
H132 C160 0.931 . S
H133 C163 0.929 . S
H134 C167 0.932 . S
H135 C164 0.931 . S
H136 C166 0.929 . S
H137 C169 0.929 . S
H138 C170 0.930 . S
H139 C172 0.929 . S
H140 C173 0.931 . S
H141 C175 0.930 . S
H142 C176 0.932 . S
H143 C178 0.931 . S
H144 C179 0.929 . S
H145 C181 0.929 . S
H146 C182 0.931 . S
H147 C184 0.929 . S
N148 C168 1.433 . S
N148 C174 1.435 . S
N148 C180 1.423 . S
H149 C185 0.932 . S
C150 N125 1.433 . S
C150 C151 1.363 . S
C150 C155 1.370 . S
C151 H124 0.929 . S
C151 C150 1.363 . S
C151 C152 1.385 . S
C152 H126 0.930 . S
C152 C151 1.385 . S
C152 C153 1.357 . S
C153 C152 1.357 . S
C153 C154 1.406 . S
C154 H128 0.929 . S
C154 C153 1.406 . S
C154 C155 1.391 . S
C155 H127 0.931 . S
C155 C150 1.370 . S
C155 C154 1.391 . S
C156 N125 1.435 . S
C156 C157 1.358 . S
C156 C161 1.371 . S
C157 H129 0.930 . S
C157 C156 1.358 . S
C157 C158 1.405 . S
C158 H130 0.932 . S
C158 C157 1.405 . S
C158 C159 1.383 . S
C159 C158 1.383 . S
C159 C160 1.393 . S
C160 H132 0.931 . S
C160 C159 1.393 . S
C160 C161 1.382 . S
C161 H131 0.929 . S
C161 C156 1.371 . S
C161 C160 1.382 . S
C162 N125 1.423 . S
C162 C163 1.362 . S
C162 C167 1.388 . S
C163 H133 0.929 . S
C163 C162 1.362 . S
C163 C164 1.376 . S
C164 H135 0.931 . S
C164 C163 1.376 . S
C164 C165 1.396 . S
C165 C164 1.396 . S
C165 C166 1.348 . S
C165 C183 1.472 . S
C166 H136 0.929 . S
C166 C165 1.348 . S
C166 C167 1.443 . S
C167 H134 0.932 . S
C167 C162 1.388 . S
C167 C166 1.443 . S
C168 N148 1.433 . S
C168 C169 1.363 . S
C168 C173 1.370 . S
C169 H137 0.929 . S
C169 C168 1.363 . S
C169 C170 1.385 . S
C170 H138 0.930 . S
C170 C169 1.385 . S
C170 C171 1.357 . S
C171 C170 1.357 . S
C171 C172 1.406 . S
C172 H139 0.929 . S
C172 C171 1.406 . S
C172 C173 1.391 . S
C173 H140 0.931 . S
C173 C168 1.370 . S
C173 C172 1.391 . S
C174 N148 1.435 . S
C174 C175 1.358 . S
C174 C179 1.371 . S
C175 H141 0.930 . S
C175 C174 1.358 . S
C175 C176 1.405 . S
C176 H142 0.932 . S
C176 C175 1.405 . S
C176 C177 1.383 . S
C177 C176 1.383 . S
C177 C178 1.393 . S
C178 H143 0.931 . S
C178 C177 1.393 . S
C178 C179 1.382 . S
C179 H144 0.929 . S
C179 C174 1.371 . S
C179 C178 1.382 . S
C180 N148 1.423 . S
C180 C181 1.362 . S
C180 C185 1.388 . S
C181 H145 0.929 . S
C181 C180 1.362 . S
C181 C182 1.376 . S
C182 H146 0.931 . S
C182 C181 1.376 . S
C182 C183 1.396 . S
C183 C165 1.472 . S
C183 C182 1.396 . S
C183 C184 1.348 . S
C184 H147 0.929 . S
C184 C183 1.348 . S
C184 C185 1.443 . S
C185 H149 0.932 . S
C185 C180 1.388 . S
C185 C184 1.443 . S
H186 C213 0.929 . S
N187 C212 1.433 . S
N187 C218 1.435 . S
N187 C224 1.423 . S
H188 C214 0.930 . S
H189 C217 0.931 . S
H190 C216 0.929 . S
H191 C219 0.930 . S
H192 C220 0.932 . S
H193 C223 0.929 . S
H194 C222 0.931 . S
H195 C225 0.929 . S
H196 C229 0.932 . S
H197 C226 0.931 . S
H198 C228 0.929 . S
H199 C231 0.929 . S
H200 C232 0.930 . S
H201 C234 0.929 . S
H202 C235 0.931 . S
H203 C237 0.930 . S
H204 C238 0.932 . S
H205 C240 0.931 . S
H206 C241 0.929 . S
H207 C243 0.929 . S
H208 C244 0.931 . S
H209 C246 0.929 . S
N210 C230 1.433 . S
N210 C236 1.435 . S
N210 C242 1.423 . S
H211 C247 0.932 . S
C212 N187 1.433 . S
C212 C213 1.363 . S
C212 C217 1.370 . S
C213 H186 0.929 . S
C213 C212 1.363 . S
C213 C214 1.385 . S
C214 H188 0.930 . S
C214 C213 1.385 . S
C214 C215 1.357 . S
C215 C214 1.357 . S
C215 C216 1.406 . S
C216 H190 0.929 . S
C216 C215 1.406 . S
C216 C217 1.391 . S
C217 H189 0.931 . S
C217 C212 1.370 . S
C217 C216 1.391 . S
C218 N187 1.435 . S
C218 C219 1.358 . S
C218 C223 1.371 . S
C219 H191 0.930 . S
C219 C218 1.358 . S
C219 C220 1.405 . S
C220 H192 0.932 . S
C220 C219 1.405 . S
C220 C221 1.383 . S
C221 C220 1.383 . S
C221 C222 1.393 . S
C222 H194 0.931 . S
C222 C221 1.393 . S
C222 C223 1.382 . S
C223 H193 0.929 . S
C223 C218 1.371 . S
C223 C222 1.382 . S
C224 N187 1.423 . S
C224 C225 1.362 . S
C224 C229 1.388 . S
C225 H195 0.929 . S
C225 C224 1.362 . S
C225 C226 1.376 . S
C226 H197 0.931 . S
C226 C225 1.376 . S
C226 C227 1.396 . S
C227 C226 1.396 . S
C227 C228 1.348 . S
C227 C245 1.472 1_455 S
C228 H198 0.929 . S
C228 C227 1.348 . S
C228 C229 1.443 . S
C229 H196 0.932 . S
C229 C224 1.388 . S
C229 C228 1.443 . S
C230 N210 1.433 . S
C230 C231 1.363 . S
C230 C235 1.370 . S
C231 H199 0.929 . S
C231 C230 1.363 . S
C231 C232 1.385 . S
C232 H200 0.930 . S
C232 C231 1.385 . S
C232 C233 1.357 . S
C233 C232 1.357 . S
C233 C234 1.406 . S
C234 H201 0.929 . S
C234 C233 1.406 . S
C234 C235 1.391 . S
C235 H202 0.931 . S
C235 C230 1.370 . S
C235 C234 1.391 . S
C236 N210 1.435 . S
C236 C237 1.358 . S
C236 C241 1.371 . S
C237 H203 0.930 . S
C237 C236 1.358 . S
C237 C238 1.405 . S
C238 H204 0.932 . S
C238 C237 1.405 . S
C238 C239 1.383 . S
C239 C238 1.383 . S
C239 C240 1.393 . S
C240 H205 0.931 . S
C240 C239 1.393 . S
C240 C241 1.382 . S
C241 H206 0.929 . S
C241 C236 1.371 . S
C241 C240 1.382 . S
C242 N210 1.423 . S
C242 C243 1.362 . S
C242 C247 1.388 . S
C243 H207 0.929 . S
C243 C242 1.362 . S
C243 C244 1.376 . S
C244 H208 0.931 . S
C244 C243 1.376 . S
C244 C245 1.396 . S
C245 C227 1.472 1_655 S
C245 C244 1.396 . S
C245 C246 1.348 . S
C246 H209 0.929 . S
C246 C245 1.348 . S
C246 C247 1.443 . S
C247 H211 0.932 . S
C247 C242 1.388 . S
C247 C246 1.443 . S
H248 C275 0.929 . S
N249 C274 1.433 . S
N249 C280 1.435 . S
N249 C286 1.423 . S
H250 C276 0.930 . S
H251 C279 0.931 . S
H252 C278 0.929 . S
H253 C281 0.930 . S
H254 C282 0.932 . S
H255 C285 0.929 . S
H256 C284 0.931 . S
H257 C287 0.929 . S
H258 C291 0.932 . S
H259 C288 0.931 . S
H260 C290 0.929 . S
H261 C293 0.929 . S
H262 C294 0.930 . S
H263 C296 0.929 . S
H264 C297 0.931 . S
H265 C299 0.905 1_554 S
H266 C300 0.932 . S
H267 C302 0.931 . S
H268 C303 0.929 . S
H269 C305 0.929 . S
H270 C306 0.931 1_554 S
H271 C308 0.929 . S
N272 C292 1.433 . S
N272 C298 1.435 1_554 S
N272 C304 1.423 1_554 S
H273 C309 0.932 . S
C274 N249 1.433 . S
C274 C275 1.363 . S
C274 C279 1.370 . S
C275 H248 0.929 . S
C275 C274 1.363 . S
C275 C276 1.385 . S
C276 H250 0.930 . S
C276 C275 1.385 . S
C276 C277 1.357 1_556 S
C277 C276 1.357 1_554 S
C277 C278 1.406 . S
C278 H252 0.929 . S
C278 C277 1.406 . S
C278 C279 1.391 1_554 S
C279 H251 0.931 . S
C279 C274 1.370 . S
C279 C278 1.391 1_556 S
C280 N249 1.435 . S
C280 C281 1.358 . S
C280 C285 1.371 . S
C281 H253 0.930 . S
C281 C280 1.358 . S
C281 C282 1.405 . S
C282 H254 0.932 . S
C282 C281 1.405 . S
C282 C283 1.383 . S
C283 C282 1.383 . S
C283 C284 1.393 . S
C284 H256 0.931 . S
C284 C283 1.393 . S
C284 C285 1.382 . S
C285 H255 0.929 . S
C285 C280 1.371 . S
C285 C284 1.382 . S
C286 N249 1.423 . S
C286 C287 1.362 . S
C286 C291 1.388 . S
C287 H257 0.929 . S
C287 C286 1.362 . S
C287 C288 1.376 . S
C288 H259 0.931 . S
C288 C287 1.376 . S
C288 C289 1.396 . S
C289 C288 1.396 . S
C289 C290 1.348 . S
C289 C307 1.472 1_545 S
C290 H260 0.929 . S
C290 C289 1.348 . S
C290 C291 1.443 . S
C291 H258 0.932 . S
C291 C286 1.388 . S
C291 C290 1.443 . S
C292 N272 1.433 . S
C292 C293 1.363 . S
C292 C297 1.370 . S
C293 H261 0.929 . S
C293 C292 1.363 . S
C293 C294 1.385 . S
C294 H262 0.930 . S
C294 C293 1.385 . S
C294 C295 1.357 . S
C295 C294 1.357 . S
C295 C296 1.406 . S
C296 H263 0.929 . S
C296 C295 1.406 . S
C296 C297 1.391 . S
C297 H264 0.931 . S
C297 C292 1.370 . S
C297 C296 1.391 . S
C298 N272 1.435 1_556 S
C298 C299 1.367 . S
C298 C303 1.371 . S
C299 H265 0.905 1_556 S
C299 C298 1.367 . S
C299 C300 1.423 . S
C300 H266 0.932 . S
C300 C299 1.423 . S
C300 C301 1.383 . S
C301 C300 1.383 . S
C301 C302 1.393 . S
C302 H267 0.931 . S
C302 C301 1.393 . S
C302 C303 1.382 . S
C303 H268 0.929 . S
C303 C298 1.371 . S
C303 C302 1.382 . S
C304 N272 1.423 1_556 S
C304 C305 1.362 1_556 S
C304 C309 1.388 . S
C305 H269 0.929 . S
C305 C304 1.362 1_554 S
C305 C306 1.376 1_554 S
C306 H270 0.931 1_556 S
C306 C305 1.376 1_556 S
C306 C307 1.396 . S
C307 C289 1.472 1_565 S
C307 C306 1.396 . S
C307 C308 1.348 . S
C308 H271 0.929 . S
C308 C307 1.348 . S
C308 C309 1.443 . S
C309 H273 0.932 . S
C309 C304 1.388 . S
C309 C308 1.443 . S
H310 C337 0.929 . S
N311 C336 1.433 . S
N311 C342 1.435 . S
N311 C348 1.423 . S
H312 C338 0.930 . S
H313 C341 0.931 . S
H314 C340 0.929 . S
H315 C343 0.930 . S
H316 C344 0.932 . S
H317 C347 0.929 . S
H318 C346 0.931 . S
H319 C349 0.929 . S
H320 C353 0.932 . S
H321 C350 0.931 . S
H322 C352 0.929 . S
H323 C355 0.929 . S
H324 C356 0.930 . S
H325 C358 0.929 . S
H326 C359 0.931 . S
H327 C361 0.930 . S
H328 C362 0.932 . S
H329 C364 0.931 . S
H330 C365 0.929 . S
H331 C367 0.929 . S
H332 C368 0.931 . S
H333 C370 0.929 . S
N334 C354 1.433 . S
N334 C360 1.435 . S
N334 C366 1.423 . S
H335 C371 0.932 . S
C336 N311 1.433 . S
C336 C337 1.363 . S
C336 C341 1.370 . S
C337 H310 0.929 . S
C337 C336 1.363 . S
C337 C338 1.385 . S
C338 H312 0.930 . S
C338 C337 1.385 . S
C338 C339 1.357 . S
C339 C338 1.357 . S
C339 C340 1.406 . S
C340 H314 0.929 . S
C340 C339 1.406 . S
C340 C341 1.391 . S
C341 H313 0.931 . S
C341 C336 1.370 . S
C341 C340 1.391 . S
C342 N311 1.435 . S
C342 C343 1.358 . S
C342 C347 1.371 . S
C343 H315 0.930 . S
C343 C342 1.358 . S
C343 C344 1.405 . S
C344 H316 0.932 . S
C344 C343 1.405 . S
C344 C345 1.383 . S
C345 C344 1.383 . S
C345 C346 1.393 . S
C346 H318 0.931 . S
C346 C345 1.393 . S
C346 C347 1.382 . S
C347 H317 0.929 . S
C347 C342 1.371 . S
C347 C346 1.382 . S
C348 N311 1.423 . S
C348 C349 1.362 . S
C348 C353 1.388 . S
C349 H319 0.929 . S
C349 C348 1.362 . S
C349 C350 1.376 . S
C350 H321 0.931 . S
C350 C349 1.376 . S
C350 C351 1.396 . S
C351 C350 1.396 . S
C351 C352 1.348 . S
C351 C369 1.472 . S
C352 H322 0.929 . S
C352 C351 1.348 . S
C352 C353 1.443 . S
C353 H320 0.932 . S
C353 C348 1.388 . S
C353 C352 1.443 . S
C354 N334 1.433 . S
C354 C355 1.363 . S
C354 C359 1.370 . S
C355 H323 0.929 . S
C355 C354 1.363 . S
C355 C356 1.385 . S
C356 H324 0.930 . S
C356 C355 1.385 . S
C356 C357 1.357 . S
C357 C356 1.357 . S
C357 C358 1.406 . S
C358 H325 0.929 . S
C358 C357 1.406 . S
C358 C359 1.391 . S
C359 H326 0.931 . S
C359 C354 1.370 . S
C359 C358 1.391 . S
C360 N334 1.435 . S
C360 C361 1.358 . S
C360 C365 1.371 . S
C361 H327 0.930 . S
C361 C360 1.358 . S
C361 C362 1.405 . S
C362 H328 0.932 . S
C362 C361 1.405 . S
C362 C363 1.383 . S
C363 C362 1.383 . S
C363 C364 1.393 . S
C364 H329 0.931 . S
C364 C363 1.393 . S
C364 C365 1.382 . S
C365 H330 0.929 . S
C365 C360 1.371 . S
C365 C364 1.382 . S
C366 N334 1.423 . S
C366 C367 1.362 . S
C366 C371 1.388 . S
C367 H331 0.929 . S
C367 C366 1.362 . S
C367 C368 1.376 . S
C368 H332 0.931 . S
C368 C367 1.376 . S
C368 C369 1.396 . S
C369 C351 1.472 . S
C369 C368 1.396 . S
C369 C370 1.348 . S
C370 H333 0.929 . S
C370 C369 1.348 . S
C370 C371 1.443 . S
C371 H335 0.932 . S
C371 C366 1.388 . S
C371 C370 1.443 . S
Co372 O373 2.216 . S
Co372 O374 2.091 . S
Co372 O376 2.004 . S
Co372 O382 2.021 . S
Co372 O384 2.137 . S
Co372 O385 2.244 . S
O373 Co372 2.216 . S
O373 C380 1.247 . S
O374 Co372 2.091 . S
O374 C380 1.261 . S
C375 O384 1.247 . S
C375 O385 1.272 . S
O376 Co372 2.004 . S
O376 C381 1.259 . S
Co377 O378 2.061 . S
Co377 O383 2.052 . S
Co377 O385 2.135 . S
O378 Co377 2.061 . S
O378 C381 1.235 . S
C379 O382 1.238 . S
C379 O383 1.241 . S
C380 O373 1.247 . S
C380 O374 1.261 . S
C381 O376 1.259 . S
C381 O378 1.235 . S
O382 Co372 2.021 . S
O382 C379 1.238 . S
O383 Co377 2.052 . S
O383 C379 1.241 . S
O384 Co372 2.137 . S
O384 C375 1.247 . S
O385 Co372 2.244 . S
O385 C375 1.272 . S
O385 Co377 2.135 . S
Co386 O387 2.216 . S
Co386 O388 2.091 . S
Co386 O390 2.004 . S
Co386 O396 2.021 . S
Co386 O398 2.137 . S
Co386 O399 2.244 . S
O387 Co386 2.216 . S
O387 C394 1.247 . S
O388 Co386 2.091 . S
O388 C394 1.261 . S
C389 O398 1.247 . S
C389 O399 1.272 . S
O390 Co386 2.004 . S
O390 C395 1.259 . S
Co391 O392 2.061 . S
Co391 O397 2.052 . S
Co391 O399 2.135 . S
O392 Co391 2.061 . S
O392 C395 1.235 . S
C393 O396 1.238 . S
C393 O397 1.241 . S
C394 O387 1.247 . S
C394 O388 1.261 . S
C395 O390 1.259 . S
C395 O392 1.235 . S
O396 Co386 2.021 . S
O396 C393 1.238 . S
O397 Co391 2.052 . S
O397 C393 1.241 . S
O398 Co386 2.137 . S
O398 C389 1.247 . S
O399 Co386 2.244 . S
O399 C389 1.272 . S
O399 Co391 2.135 . S
Co400 O401 2.216 . S
Co400 O402 2.091 . S
Co400 O404 2.004 . S
Co400 O410 2.021 . S
Co400 O412 2.137 . S
Co400 O413 2.244 . S
O401 Co400 2.216 . S
O401 C408 1.247 . S
O402 Co400 2.091 . S
O402 C408 1.261 . S
C403 O412 1.247 . S
C403 O413 1.272 . S
O404 Co400 2.004 . S
O404 C409 1.259 . S
Co405 O406 2.061 . S
Co405 O411 2.052 . S
Co405 O413 2.135 . S
O406 Co405 2.061 . S
O406 C409 1.235 . S
C407 O410 1.238 . S
C407 O411 1.241 . S
C408 O401 1.247 . S
C408 O402 1.261 . S
C409 O404 1.259 . S
C409 O406 1.235 . S
O410 Co400 2.021 . S
O410 C407 1.238 . S
O411 Co405 2.052 . S
O411 C407 1.241 . S
O412 Co400 2.137 . S
O412 C403 1.247 . S
O413 Co400 2.244 . S
O413 C403 1.272 . S
O413 Co405 2.135 . S
Co414 O415 2.216 . S
Co414 O416 2.091 . S
Co414 O418 2.004 . S
Co414 O424 2.021 . S
Co414 O426 2.137 . S
Co414 O427 2.244 . S
O415 Co414 2.216 . S
O415 C422 1.247 . S
O416 Co414 2.091 . S
O416 C422 1.261 . S
C417 O426 1.247 . S
C417 O427 1.272 . S
O418 Co414 2.004 . S
O418 C423 1.259 . S
Co419 O420 2.061 . S
Co419 O425 2.052 . S
Co419 O427 2.135 . S
O420 Co419 2.061 . S
O420 C423 1.235 . S
C421 O424 1.238 . S
C421 O425 1.241 . S
C422 O415 1.247 . S
C422 O416 1.261 . S
C423 O418 1.259 . S
C423 O420 1.235 . S
O424 Co414 2.021 . S
O424 C421 1.238 . S
O425 Co419 2.052 . S
O425 C421 1.241 . S
O426 Co414 2.137 . S
O426 C417 1.247 . S
O427 Co414 2.244 . S
O427 C417 1.272 . S
O427 Co419 2.135 . S
Co428 O429 2.216 . S
Co428 O430 2.091 . S
Co428 O432 2.004 . S
Co428 O438 2.021 . S
Co428 O440 2.137 . S
Co428 O441 2.244 . S
O429 Co428 2.216 . S
O429 C436 1.247 . S
O430 Co428 2.091 . S
O430 C436 1.261 . S
C431 O440 1.247 . S
C431 O441 1.272 . S
O432 Co428 2.004 . S
O432 C437 1.259 . S
Co433 O434 2.061 . S
Co433 O439 2.052 . S
Co433 O441 2.135 . S
O434 Co433 2.061 . S
O434 C437 1.235 . S
C435 O438 1.238 . S
C435 O439 1.241 . S
C436 O429 1.247 . S
C436 O430 1.261 . S
C437 O432 1.259 . S
C437 O434 1.235 . S
O438 Co428 2.021 . S
O438 C435 1.238 . S
O439 Co433 2.052 . S
O439 C435 1.241 . S
O440 Co428 2.137 . S
O440 C431 1.247 . S
O441 Co428 2.244 . S
O441 C431 1.272 . S
O441 Co433 2.135 . S
Co442 O443 2.216 . S
Co442 O444 2.091 . S
Co442 O446 2.004 . S
Co442 O452 2.021 . S
Co442 O454 2.137 . S
Co442 O455 2.244 . S
O443 Co442 2.216 . S
O443 C450 1.247 . S
O444 Co442 2.091 . S
O444 C450 1.261 . S
C445 O454 1.247 . S
C445 O455 1.272 . S
O446 Co442 2.004 . S
O446 C451 1.259 . S
Co447 O448 2.061 . S
Co447 O453 2.052 . S
Co447 O455 2.135 . S
O448 Co447 2.061 . S
O448 C451 1.235 . S
C449 O452 1.238 . S
C449 O453 1.241 . S
C450 O443 1.247 . S
C450 O444 1.261 . S
C451 O446 1.259 . S
C451 O448 1.235 . S
O452 Co442 2.021 . S
O452 C449 1.238 . S
O453 Co447 2.052 . S
O453 C449 1.241 . S
O454 Co442 2.137 . S
O454 C445 1.247 . S
O455 Co442 2.244 . S
O455 C445 1.272 . S
O455 Co447 2.135 . S
C456 C457 1.363 . S
C456 C462 1.379 . S
C456 N464 1.356 . S
C457 C456 1.363 . S
C457 C463 1.363 . S
C458 C459 1.363 . S
C458 C463 1.379 . S
C458 N465 1.356 . S
C459 C458 1.363 . S
C459 C462 1.363 . S
N460 C462 1.356 . S
N460 H472 0.984 . S
N460 H473 0.985 . S
N461 C463 1.356 . S
N461 H466 0.984 . S
N461 H467 0.985 . S
C462 C456 1.379 . S
C462 C459 1.363 . S
C462 N460 1.356 . S
C463 C457 1.363 . S
C463 C458 1.379 . S
C463 N461 1.356 . S
N464 C456 1.356 . S
N464 H470 0.984 . S
N464 H471 0.984 . S
N465 C458 1.356 . S
N465 H468 0.984 . S
N465 H469 0.985 . S
H466 N461 0.984 . S
H467 N461 0.985 . S
H468 N465 0.984 . S
H469 N465 0.985 . S
H470 N464 0.984 . S
H471 N464 0.984 . S
H472 N460 0.984 . S
H473 N460 0.985 . S
C474 C475 1.363 . S
C474 C480 1.379 . S
C474 N482 1.356 . S
C475 C474 1.363 . S
C475 C481 1.363 . S
C476 C477 1.363 . S
C476 C481 1.379 . S
C476 N483 1.356 . S
C477 C476 1.363 . S
C477 C480 1.363 . S
N478 C480 1.356 . S
N478 H490 0.984 . S
N478 H491 0.985 . S
N479 C481 1.356 . S
N479 H484 0.984 . S
N479 H485 0.985 . S
C480 C474 1.379 . S
C480 C477 1.363 . S
C480 N478 1.356 . S
C481 C475 1.363 . S
C481 C476 1.379 . S
C481 N479 1.356 . S
N482 C474 1.356 . S
N482 H488 0.984 . S
N482 H489 0.984 . S
N483 C476 1.356 . S
N483 H486 0.984 . S
N483 H487 0.985 . S
H484 N479 0.984 . S
H485 N479 0.985 . S
H486 N483 0.984 . S
H487 N483 0.985 . S
H488 N482 0.984 . S
H489 N482 0.984 . S
H490 N478 0.984 . S
H491 N478 0.985 . S
C492 C493 1.363 . S
C492 C498 1.379 . S
C492 N500 1.356 . S
C493 C492 1.363 . S
C493 C499 1.363 . S
C494 C495 1.363 . S
C494 C499 1.379 . S
C494 N501 1.356 . S
C495 C494 1.363 . S
C495 C498 1.363 . S
N496 C498 1.356 . S
N496 H508 0.984 . S
N496 H509 0.985 . S
N497 C499 1.356 . S
N497 H502 0.984 . S
N497 H503 0.985 . S
C498 C492 1.379 . S
C498 C495 1.363 . S
C498 N496 1.356 . S
C499 C493 1.363 . S
C499 C494 1.379 . S
C499 N497 1.356 . S
N500 C492 1.356 . S
N500 H506 0.984 . S
N500 H507 0.984 . S
N501 C494 1.356 . S
N501 H504 0.984 . S
N501 H505 0.985 . S
H502 N497 0.984 . S
H503 N497 0.985 . S
H504 N501 0.984 . S
H505 N501 0.985 . S
H506 N500 0.984 . S
H507 N500 0.984 . S
H508 N496 0.984 . S
H509 N496 0.985 . S
C510 C511 1.363 . S
C510 C516 1.379 . S
C510 N518 1.356 . S
C511 C510 1.363 . S
C511 C517 1.363 . S
C512 C513 1.363 . S
C512 C517 1.379 . S
C512 N519 1.356 . S
C513 C512 1.363 . S
C513 C516 1.363 . S
N514 C516 1.356 . S
N514 H526 0.984 . S
N514 H527 0.985 . S
N515 C517 1.356 . S
N515 H520 0.984 . S
N515 H521 0.985 . S
C516 C510 1.379 . S
C516 C513 1.363 . S
C516 N514 1.356 . S
C517 C511 1.363 . S
C517 C512 1.379 . S
C517 N515 1.356 . S
N518 C510 1.356 . S
N518 H524 0.984 . S
N518 H525 0.984 . S
N519 C512 1.356 . S
N519 H522 0.984 . S
N519 H523 0.985 . S
H520 N515 0.984 . S
H521 N515 0.985 . S
H522 N519 0.984 . S
H523 N519 0.985 . S
H524 N518 0.984 . S
H525 N518 0.984 . S
H526 N514 0.984 . S
H527 N514 0.985 . S
C528 C529 1.363 . S
C528 C534 1.379 . S
C528 N536 1.356 . S
C529 C528 1.363 . S
C529 C535 1.363 . S
C530 C531 1.363 . S
C530 C535 1.379 . S
C530 N537 1.356 . S
C531 C530 1.363 . S
C531 C534 1.363 . S
N532 C534 1.356 . S
N532 H544 0.984 . S
N532 H545 0.985 . S
N533 C535 1.356 . S
N533 H538 0.984 . S
N533 H539 0.985 1_556 S
C534 C528 1.379 . S
C534 C531 1.363 . S
C534 N532 1.356 . S
C535 C529 1.363 . S
C535 C530 1.379 . S
C535 N533 1.356 . S
N536 C528 1.356 . S
N536 H542 0.984 . S
N536 H543 0.984 . S
N537 C530 1.356 . S
N537 H540 0.984 . S
N537 H541 0.985 . S
H538 N533 0.984 . S
H539 N533 0.985 1_554 S
H540 N537 0.984 . S
H541 N537 0.985 . S
H542 N536 0.984 . S
H543 N536 0.984 . S
H544 N532 0.984 . S
H545 N532 0.985 . S
C546 C547 1.363 . S
C546 C552 1.379 . S
C546 N554 1.356 . S
C547 C546 1.363 . S
C547 C553 1.363 . S
C548 C549 1.363 . S
C548 C553 1.379 . S
C548 N555 1.356 . S
C549 C548 1.363 . S
C549 C552 1.363 . S
N550 C552 1.356 . S
N550 H562 0.984 . S
N550 H563 0.985 . S
N551 C553 1.356 . S
N551 H556 0.984 . S
N551 H557 0.985 . S
C552 C546 1.379 . S
C552 C549 1.363 . S
C552 N550 1.356 . S
C553 C547 1.363 . S
C553 C548 1.379 . S
C553 N551 1.356 . S
N554 C546 1.356 . S
N554 H560 0.984 . S
N554 H561 0.984 . S
N555 C548 1.356 . S
N555 H558 0.984 . S
N555 H559 0.985 . S
H556 N551 0.984 . S
H557 N551 0.985 . S
H558 N555 0.984 . S
H559 N555 0.985 . S
H560 N554 0.984 . S
H561 N554 0.984 . S
H562 N550 0.984 . S
H563 N550 0.985 . S
C564 C565 1.363 . S
C564 C570 1.379 . S
C564 N572 1.356 . S
C565 C564 1.363 . S
C565 C571 1.363 . S
C566 C567 1.363 . S
C566 C571 1.379 . S
C566 N573 1.356 . S
C567 C566 1.363 . S
C567 C570 1.363 . S
N568 C570 1.356 . S
N568 H580 0.984 . S
N568 H581 0.985 . S
N569 C571 1.356 . S
N569 H574 0.984 . S
N569 H575 0.985 . S
C570 C564 1.379 . S
C570 C567 1.363 . S
C570 N568 1.356 . S
C571 C565 1.363 . S
C571 C566 1.379 . S
C571 N569 1.356 . S
N572 C564 1.356 . S
N572 H578 0.984 . S
N572 H579 0.984 . S
N573 C566 1.356 . S
N573 H576 0.984 . S
N573 H577 0.985 . S
H574 N569 0.984 . S
H575 N569 0.985 . S
H576 N573 0.984 . S
H577 N573 0.985 . S
H578 N572 0.984 . S
H579 N572 0.984 . S
H580 N568 0.984 . S
H581 N568 0.985 . S
C582 C583 1.363 . S
C582 C588 1.379 . S
C582 N590 1.356 . S
C583 C582 1.363 . S
C583 C589 1.363 . S
C584 C585 1.363 . S
C584 C589 1.379 . S
C584 N591 1.356 . S
C585 C584 1.363 . S
C585 C588 1.363 . S
N586 C588 1.356 . S
N586 H598 0.984 . S
N586 H599 0.985 . S
N587 C589 1.356 . S
N587 H592 0.984 . S
N587 H593 0.985 . S
C588 C582 1.379 . S
C588 C585 1.363 . S
C588 N586 1.356 . S
C589 C583 1.363 . S
C589 C584 1.379 . S
C589 N587 1.356 . S
N590 C582 1.356 . S
N590 H596 0.984 . S
N590 H597 0.984 . S
N591 C584 1.356 . S
N591 H594 0.984 . S
N591 H595 0.985 . S
H592 N587 0.984 . S
H593 N587 0.985 . S
H594 N591 0.984 . S
H595 N591 0.985 . S
H596 N590 0.984 . S
H597 N590 0.984 . S
H598 N586 0.984 . S
H599 N586 0.985 . S
C600 C601 1.363 . S
C600 C606 1.379 . S
C600 N608 1.356 . S
C601 C600 1.363 . S
C601 C607 1.363 . S
C602 C603 1.363 . S
C602 C607 1.379 . S
C602 N609 1.356 . S
C603 C602 1.363 . S
C603 C606 1.363 . S
N604 C606 1.356 . S
N604 H616 0.984 . S
N604 H617 0.985 . S
N605 C607 1.356 . S
N605 H610 0.984 . S
N605 H611 0.985 . S
C606 C600 1.379 . S
C606 C603 1.363 . S
C606 N604 1.356 . S
C607 C601 1.363 . S
C607 C602 1.379 . S
C607 N605 1.356 . S
N608 C600 1.356 . S
N608 H614 0.984 . S
N608 H615 0.984 . S
N609 C602 1.356 . S
N609 H612 0.984 . S
N609 H613 0.985 . S
H610 N605 0.984 . S
H611 N605 0.985 . S
H612 N609 0.984 . S
H613 N609 0.985 . S
H614 N608 0.984 . S
H615 N608 0.984 . S
H616 N604 0.984 . S
H617 N604 0.985 . S
C618 C619 1.363 . S
C618 C624 1.379 . S
C618 N626 1.356 1_554 S
C619 C618 1.363 . S
C619 C625 1.363 . S
C620 C621 1.363 . S
C620 C625 1.379 . S
C620 N627 1.356 . S
C621 C620 1.363 . S
C621 C624 1.363 . S
N622 C624 1.356 . S
N622 H634 0.984 1_554 S
N622 H635 0.985 . S
N623 C625 1.356 . S
N623 H628 0.984 . S
N623 H629 0.985 . S
C624 C618 1.379 . S
C624 C621 1.363 . S
C624 N622 1.356 . S
C625 C619 1.363 . S
C625 C620 1.379 . S
C625 N623 1.356 . S
N626 C618 1.356 1_556 S
N626 H632 0.984 . S
N626 H633 0.989 . S
N627 C620 1.356 . S
N627 H630 0.984 . S
N627 H631 0.985 . S
H628 N623 0.984 . S
H629 N623 0.985 . S
H630 N627 0.984 . S
H631 N627 0.985 . S
H632 N626 0.984 . S
H633 N626 0.989 . S
H634 N622 0.984 1_556 S
H635 N622 0.985 . S
C636 C637 1.363 . S
C636 C642 1.379 . S
C636 N644 1.356 . S
C637 C636 1.363 . S
C637 C643 1.363 . S
C638 C639 1.363 . S
C638 C643 1.379 . S
C638 N645 1.356 . S
C639 C638 1.363 . S
C639 C642 1.363 . S
N640 C642 1.356 . S
N640 H652 0.984 . S
N640 H653 0.985 . S
N641 C643 1.356 . S
N641 H646 0.984 . S
N641 H647 0.985 . S
C642 C636 1.379 . S
C642 C639 1.363 . S
C642 N640 1.356 . S
C643 C637 1.363 . S
C643 C638 1.379 . S
C643 N641 1.356 . S
N644 C636 1.356 . S
N644 H650 0.984 . S
N644 H651 0.984 . S
N645 C638 1.356 . S
N645 H648 0.984 . S
N645 H649 0.985 . S
H646 N641 0.984 . S
H647 N641 0.985 . S
H648 N645 0.984 . S
H649 N645 0.985 . S
H650 N644 0.984 . S
H651 N644 0.984 . S
H652 N640 0.984 . S
H653 N640 0.985 . S
C654 C655 1.363 . S
C654 C660 1.379 . S
C654 N662 1.356 . S
C655 C654 1.363 . S
C655 C661 1.363 . S
C656 C657 1.363 . S
C656 C661 1.379 . S
C656 N663 1.356 . S
C657 C656 1.363 . S
C657 C660 1.363 . S
N658 C660 1.356 . S
N658 H670 0.984 . S
N658 H671 0.985 . S
N659 C661 1.356 . S
N659 H664 0.984 . S
N659 H665 0.985 . S
C660 C654 1.379 . S
C660 C657 1.363 . S
C660 N658 1.356 . S
C661 C655 1.363 . S
C661 C656 1.379 . S
C661 N659 1.356 . S
N662 C654 1.356 . S
N662 H668 0.984 . S
N662 H669 0.984 . S
N663 C656 1.356 . S
N663 H666 0.984 . S
N663 H667 0.985 . S
H664 N659 0.984 . S
H665 N659 0.985 . S
H666 N663 0.984 . S
H667 N663 0.985 . S
H668 N662 0.984 . S
H669 N662 0.984 . S
H670 N658 0.984 . S
H671 N658 0.985 . S
C672 C673 1.363 . S
C672 C678 1.379 . S
C672 N680 1.356 . S
C673 C672 1.363 . S
C673 C679 1.363 . S
C674 C675 1.363 . S
C674 C679 1.379 . S
C674 N681 1.356 . S
C675 C674 1.363 . S
C675 C678 1.363 . S
N676 C678 1.356 . S
N676 H688 0.984 . S
N676 H689 0.985 . S
N677 C679 1.356 . S
N677 H682 0.984 . S
N677 H683 0.985 . S
C678 C672 1.379 . S
C678 C675 1.363 . S
C678 N676 1.356 . S
C679 C673 1.363 . S
C679 C674 1.379 . S
C679 N677 1.356 . S
N680 C672 1.356 . S
N680 H686 0.984 . S
N680 H687 0.984 . S
N681 C674 1.356 . S
N681 H684 0.984 . S
N681 H685 0.985 . S
H682 N677 0.984 . S
H683 N677 0.985 . S
H684 N681 0.984 . S
H685 N681 0.985 . S
H686 N680 0.984 . S
H687 N680 0.984 . S
H688 N676 0.984 . S
H689 N676 0.985 . S
C690 C691 1.363 . S
C690 C696 1.379 . S
C690 N698 1.356 . S
C691 C690 1.363 . S
C691 C697 1.363 . S
C692 C693 1.363 . S
C692 C697 1.379 . S
C692 N699 1.356 . S
C693 C692 1.363 . S
C693 C696 1.363 . S
N694 C696 1.356 . S
N694 H706 0.984 . S
N694 H707 0.985 . S
N695 C697 1.356 . S
N695 H700 0.984 . S
N695 H701 0.985 . S
C696 C690 1.379 . S
C696 C693 1.363 . S
C696 N694 1.356 . S
C697 C691 1.363 . S
C697 C692 1.379 . S
C697 N695 1.356 . S
N698 C690 1.356 . S
N698 H704 0.984 . S
N698 H705 0.984 . S
N699 C692 1.356 . S
N699 H702 0.984 . S
N699 H703 0.985 . S
H700 N695 0.984 . S
H701 N695 0.985 . S
H702 N699 0.984 . S
H703 N699 0.985 . S
H704 N698 0.984 . S
H705 N698 0.984 . S
H706 N694 0.984 . S
H707 N694 0.985 . S
C708 C709 1.363 . S
C708 C714 1.379 . S
C708 N716 1.356 . S
C709 C708 1.363 . S
C709 C715 1.363 . S
C710 C711 1.363 . S
C710 C715 1.379 . S
C710 N717 1.356 . S
C711 C710 1.363 . S
C711 C714 1.363 . S
N712 C714 1.356 . S
N712 H724 0.984 . S
N712 H725 0.985 . S
N713 C715 1.356 . S
N713 H718 0.984 . S
N713 H719 0.985 . S
C714 C708 1.379 . S
C714 C711 1.363 . S
C714 N712 1.356 . S
C715 C709 1.363 . S
C715 C710 1.379 . S
C715 N713 1.356 . S
N716 C708 1.356 . S
N716 H722 0.984 . S
N716 H723 0.984 . S
N717 C710 1.356 . S
N717 H720 0.984 . S
N717 H721 0.985 . S
H718 N713 0.984 . S
H719 N713 0.985 . S
H720 N717 0.984 . S
H721 N717 0.985 . S
H722 N716 0.984 . S
H723 N716 0.984 . S
H724 N712 0.984 . S
H725 N712 0.985 . S
C726 C727 1.363 . S
C726 C732 1.379 . S
C726 N734 1.356 . S
C727 C726 1.363 . S
C727 C733 1.363 . S
C728 C729 1.363 . S
C728 C733 1.379 . S
C728 N735 1.356 1_556 S
C729 C728 1.363 . S
C729 C732 1.363 . S
N730 C732 1.356 . S
N730 H742 0.984 . S
N730 H743 0.985 . S
N731 C733 1.356 . S
N731 H736 0.984 . S
N731 H737 0.985 . S
C732 C726 1.379 . S
C732 C729 1.363 . S
C732 N730 1.356 . S
C733 C727 1.363 . S
C733 C728 1.379 . S
C733 N731 1.356 . S
N734 C726 1.356 . S
N734 H740 0.984 . S
N734 H741 0.984 . S
N735 C728 1.356 1_554 S
N735 H738 0.984 . S
N735 H739 0.985 . S
H736 N731 0.984 . S
H737 N731 0.985 . S
H738 N735 0.984 . S
H739 N735 0.985 . S
H740 N734 0.984 . S
H741 N734 0.984 . S
H742 N730 0.984 . S
H743 N730 0.985 . S
C744 C745 1.363 . S
C744 C750 1.379 . S
C744 N752 1.356 . S
C745 C744 1.363 . S
C745 C751 1.363 . S
C746 C747 1.363 . S
C746 C751 1.379 . S
C746 N753 1.356 . S
C747 C746 1.363 . S
C747 C750 1.363 . S
N748 C750 1.356 . S
N748 H760 0.984 . S
N748 H761 0.985 . S
N749 C751 1.356 . S
N749 H754 0.984 . S
N749 H755 0.985 . S
C750 C744 1.379 . S
C750 C747 1.363 . S
C750 N748 1.356 . S
C751 C745 1.363 . S
C751 C746 1.379 . S
C751 N749 1.356 . S
N752 C744 1.356 . S
N752 H758 0.984 . S
N752 H759 0.984 . S
N753 C746 1.356 . S
N753 H756 0.984 . S
N753 H757 0.985 . S
H754 N749 0.984 . S
H755 N749 0.985 . S
H756 N753 0.984 . S
H757 N753 0.985 . S
H758 N752 0.984 . S
H759 N752 0.984 . S
H760 N748 0.984 . S
H761 N748 0.985 . S
C762 C763 1.363 . S
C762 C768 1.379 . S
C762 N770 1.356 . S
C763 C762 1.363 . S
C763 C769 1.363 . S
C764 C765 1.363 . S
C764 C769 1.379 . S
C764 N771 1.356 . S
C765 C764 1.363 . S
C765 C768 1.363 . S
N766 C768 1.356 . S
N766 H778 0.984 . S
N766 H779 0.985 . S
N767 C769 1.356 . S
N767 H772 0.984 . S
N767 H773 0.985 . S
C768 C762 1.379 . S
C768 C765 1.363 . S
C768 N766 1.356 . S
C769 C763 1.363 . S
C769 C764 1.379 . S
C769 N767 1.356 . S
N770 C762 1.356 . S
N770 H776 0.984 . S
N770 H777 0.984 . S
N771 C764 1.356 . S
N771 H774 0.984 . S
N771 H775 0.985 . S
H772 N767 0.984 . S
H773 N767 0.985 . S
H774 N771 0.984 . S
H775 N771 0.985 . S
H776 N770 0.984 . S
H777 N770 0.984 . S
H778 N766 0.984 . S
H779 N766 0.985 . S
C780 C781 1.363 . S
C780 C786 1.379 . S
C780 N788 1.356 . S
C781 C780 1.363 . S
C781 C787 1.363 . S
C782 C783 1.363 . S
C782 C787 1.379 . S
C782 N789 1.356 . S
C783 C782 1.363 . S
C783 C786 1.363 . S
N784 C786 1.356 . S
N784 H796 0.984 . S
N784 H797 0.985 . S
N785 C787 1.356 . S
N785 H790 0.984 . S
N785 H791 0.985 . S
C786 C780 1.379 . S
C786 C783 1.363 . S
C786 N784 1.356 . S
C787 C781 1.363 . S
C787 C782 1.379 . S
C787 N785 1.356 . S
N788 C780 1.356 . S
N788 H794 0.984 . S
N788 H795 0.984 . S
N789 C782 1.356 . S
N789 H792 0.984 . S
N789 H793 0.985 . S
H790 N785 0.984 . S
H791 N785 0.985 . S
H792 N789 0.984 . S
H793 N789 0.985 . S
H794 N788 0.984 . S
H795 N788 0.984 . S
H796 N784 0.984 . S
H797 N784 0.985 . S
C798 C799 1.363 . S
C798 C804 1.379 . S
C798 N806 1.356 . S
C799 C798 1.363 . S
C799 C805 1.363 . S
C800 C801 1.363 . S
C800 C805 1.379 . S
C800 N807 1.356 . S
C801 C800 1.363 . S
C801 C804 1.363 . S
N802 C804 1.356 . S
N802 H814 0.984 . S
N802 H815 0.985 . S
N803 C805 1.356 . S
N803 H808 0.984 . S
N803 H809 0.985 . S
C804 C798 1.379 . S
C804 C801 1.363 . S
C804 N802 1.356 . S
C805 C799 1.363 . S
C805 C800 1.379 . S
C805 N803 1.356 . S
N806 C798 1.356 . S
N806 H812 0.984 . S
N806 H813 0.984 . S
N807 C800 1.356 . S
N807 H810 0.984 . S
N807 H811 0.985 . S
H808 N803 0.984 . S
H809 N803 0.985 . S
H810 N807 0.984 . S
H811 N807 0.985 . S
H812 N806 0.984 . S
H813 N806 0.984 . S
H814 N802 0.984 . S
H815 N802 0.985 . S
C816 C817 1.363 . S
C816 C822 1.379 . S
C816 N824 1.356 . S
C817 C816 1.363 . S
C817 C823 1.363 . S
C818 C819 1.363 . S
C818 C823 1.379 . S
C818 N825 1.356 . S
C819 C818 1.363 . S
C819 C822 1.363 . S
N820 C822 1.356 . S
N820 H832 0.984 . S
N820 H833 0.985 . S
N821 C823 1.356 . S
N821 H826 0.984 . S
N821 H827 0.985 . S
C822 C816 1.379 . S
C822 C819 1.363 . S
C822 N820 1.356 . S
C823 C817 1.363 . S
C823 C818 1.379 . S
C823 N821 1.356 . S
N824 C816 1.356 . S
N824 H830 0.984 . S
N824 H831 0.984 . S
N825 C818 1.356 . S
N825 H828 0.984 . S
N825 H829 0.985 . S
H826 N821 0.984 . S
H827 N821 0.985 . S
H828 N825 0.984 . S
H829 N825 0.985 . S
H830 N824 0.984 . S
H831 N824 0.984 . S
H832 N820 0.984 . S
H833 N820 0.985 . S
C834 C835 1.363 . S
C834 C840 1.379 . S
C834 N842 1.356 . S
C835 C834 1.363 . S
C835 C841 1.363 . S
C836 C837 1.363 . S
C836 C841 1.379 . S
C836 N843 1.356 . S
C837 C836 1.363 . S
C837 C840 1.363 . S
N838 C840 1.356 . S
N838 H850 0.984 . S
N838 H851 0.985 . S
N839 C841 1.356 . S
N839 H844 0.984 . S
N839 H845 0.985 . S
C840 C834 1.379 . S
C840 C837 1.363 . S
C840 N838 1.356 . S
C841 C835 1.363 . S
C841 C836 1.379 . S
C841 N839 1.356 . S
N842 C834 1.356 . S
N842 H848 0.984 . S
N842 H849 0.984 . S
N843 C836 1.356 . S
N843 H846 0.984 . S
N843 H847 0.985 . S
H844 N839 0.984 . S
H845 N839 0.985 . S
H846 N843 0.984 . S
H847 N843 0.985 . S
H848 N842 0.984 . S
H849 N842 0.984 . S
H850 N838 0.984 . S
H851 N838 0.985 . S
C852 C853 1.363 . S
C852 C858 1.379 1_554 S
C852 N860 1.356 . S
C853 C852 1.363 . S
C853 C859 1.363 1_554 S
C854 C855 1.363 . S
C854 C859 1.379 . S
C854 N861 1.356 . S
C855 C854 1.363 . S
C855 C858 1.363 . S
N856 C858 1.356 . S
N856 H868 0.984 1_556 S
N856 H869 0.985 . S
N857 C859 1.356 . S
N857 H862 0.984 . S
N857 H863 0.985 . S
C858 C852 1.379 1_556 S
C858 C855 1.363 . S
C858 N856 1.356 . S
C859 C853 1.363 1_556 S
C859 C854 1.379 . S
C859 N857 1.356 . S
N860 C852 1.356 . S
N860 H866 0.984 . S
N860 H867 0.984 . S
N861 C854 1.356 . S
N861 H864 0.984 . S
N861 H865 0.985 . S
H862 N857 0.984 . S
H863 N857 0.985 . S
H864 N861 0.984 . S
H865 N861 0.985 . S
H866 N860 0.984 . S
H867 N860 0.984 . S
H868 N856 0.984 1_554 S
H869 N856 0.985 . S
C870 C871 1.363 . S
C870 C876 1.379 . S
C870 N878 1.356 . S
C871 C870 1.363 . S
C871 C877 1.363 . S
C872 C873 1.363 . S
C872 C877 1.379 . S
C872 N879 1.356 . S
C873 C872 1.363 . S
C873 C876 1.363 . S
N874 C876 1.356 . S
N874 H886 0.984 . S
N874 H887 0.985 . S
N875 C877 1.356 . S
N875 H880 0.984 . S
N875 H881 0.985 . S
C876 C870 1.379 . S
C876 C873 1.363 . S
C876 N874 1.356 . S
C877 C871 1.363 . S
C877 C872 1.379 . S
C877 N875 1.356 . S
N878 C870 1.356 . S
N878 H884 0.984 . S
N878 H885 0.984 . S
N879 C872 1.356 . S
N879 H882 0.984 . S
N879 H883 0.985 . S
H880 N875 0.984 . S
H881 N875 0.985 . S
H882 N879 0.984 . S
H883 N879 0.985 . S
H884 N878 0.984 . S
H885 N878 0.984 . S
H886 N874 0.984 . S
H887 N874 0.985 . S
C459 C445 1.692 . S
C457 C29 1.588 . S
C475 C115 1.581 . S
C477 C375 1.579 . S
C493 C153 1.599 . S
C495 C394 1.705 . S
C511 C239 1.572 . S
C513 C403 1.578 . S
C531 C417 1.620 . S
C529 C301 1.610 . S
C547 C339 1.819 . S
C549 C436 1.944 . S
C565 C91 1.552 . S
C567 C389 1.664 . S
C583 C177 1.583 . S
C585 C408 1.603 . S
C601 C215 1.597 . S
C603 C422 1.688 . S
C621 C431 1.903 . S
C619 C277 1.772 . S
C639 C450 1.641 . S
C637 C363 1.612 . S
C657 C380 1.606 . S
C655 C53 1.591 . S
C673 C35 1.555 . S
C675 C395 1.560 . S
C691 C109 1.393 . S
C693 C407 1.490 . S
C711 C421 1.462 . S
C709 C159 1.486 . S
C727 C233 1.586 . S
C729 C437 1.690 1_556 S
C747 C449 1.543 . S
C745 C295 1.401 . S
C765 C379 1.434 . S
C763 C345 1.438 . S
C783 C451 1.486 . S
C781 C97 1.485 . S
C799 C171 1.413 . S
C801 C381 1.525 . S
C819 C393 1.571 . S
C817 C221 1.561 . S
C835 C283 1.451 . S
C837 C409 1.442 . S
C853 C357 1.408 . S
C855 C423 1.549 . S
C871 C47 1.589 . S
C873 C435 1.694 . S
