# Generated by pormake.
# Topology anh, (6,3)-cn, num edge types: 1
# Building blocks:
#     Node 0, Type 0, BuildingBlock: MIFKUJ_clean_sbu_0, # of connection points: 6
#     Node 1, Type 0, BuildingBlock: MIFKUJ_clean_sbu_0, # of connection points: 6
#     Node 2, Type 0, BuildingBlock: MIFKUJ_clean_sbu_0, # of connection points: 6
#     Node 3, Type 1, BuildingBlock: BETDAH_clean_linker_0, # of connection points: 3
#     Node 4, Type 1, BuildingBlock: BETDAH_clean_linker_0, # of connection points: 3
#     Node 5, Type 1, BuildingBlock: BETDAH_clean_linker_0, # of connection points: 3
#     Node 6, Type 1, BuildingBlock: BETDAH_clean_linker_0, # of connection points: 3
#     Node 7, Type 1, BuildingBlock: BETDAH_clean_linker_0, # of connection points: 3
#     Node 8, Type 1, BuildingBlock: BETDAH_clean_linker_0, # of connection points: 3
#     Edge 9, Type (0, 1), BuildingBlock: MIFKUJ_clean_linker_0, # of connection points: 2
#     Edge 10, Type (0, 1), BuildingBlock: MIFKUJ_clean_linker_0, # of connection points: 2
#     Edge 11, Type (0, 1), BuildingBlock: MIFKUJ_clean_linker_0, # of connection points: 2
#     Edge 12, Type (0, 1), BuildingBlock: MIFKUJ_clean_linker_0, # of connection points: 2
#     Edge 13, Type (0, 1), BuildingBlock: MIFKUJ_clean_linker_0, # of connection points: 2
#     Edge 14, Type (0, 1), BuildingBlock: MIFKUJ_clean_linker_0, # of connection points: 2
#     Edge 15, Type (0, 1), BuildingBlock: MIFKUJ_clean_linker_0, # of connection points: 2
#     Edge 16, Type (0, 1), BuildingBlock: MIFKUJ_clean_linker_0, # of connection points: 2
#     Edge 17, Type (0, 1), BuildingBlock: MIFKUJ_clean_linker_0, # of connection points: 2
#     Edge 18, Type (0, 1), BuildingBlock: MIFKUJ_clean_linker_0, # of connection points: 2
#     Edge 19, Type (0, 1), BuildingBlock: MIFKUJ_clean_linker_0, # of connection points: 2
#     Edge 20, Type (0, 1), BuildingBlock: MIFKUJ_clean_linker_0, # of connection points: 2
#     Edge 21, Type (0, 1), BuildingBlock: MIFKUJ_clean_linker_0, # of connection points: 2
#     Edge 22, Type (0, 1), BuildingBlock: MIFKUJ_clean_linker_0, # of connection points: 2
#     Edge 23, Type (0, 1), BuildingBlock: MIFKUJ_clean_linker_0, # of connection points: 2
#     Edge 24, Type (0, 1), BuildingBlock: MIFKUJ_clean_linker_0, # of connection points: 2
#     Edge 25, Type (0, 1), BuildingBlock: MIFKUJ_clean_linker_0, # of connection points: 2
#     Edge 26, Type (0, 1), BuildingBlock: MIFKUJ_clean_linker_0, # of connection points: 2
# Relax obj value: 0.070
# Max RMSD: 0.134
# Mean RMSD: 0.095
data_MOF--net-anh--node1-MIFKUJ_clean_sbu_0--node2-BETDAH_clean_linker_0--edge1-MIFKUJ_clean_linker_0
_symmetry_space_group_name_H-M    P1
_symmetry_Int_Tables_number       1
_symmetry_cell_setting            triclinic
loop_
_symmetry_equiv_pos_as_xyz
'x, y, z'
_cell_length_a     40.558522
_cell_length_b     40.544083
_cell_length_c     61.727247
_cell_angle_alpha  96.489388
_cell_angle_beta   93.316356
_cell_angle_gamma 119.9106
loop_
_atom_site_label
_atom_site_type_symbol
_atom_site_fract_x
_atom_site_fract_y
_atom_site_fract_z
_atom_type_partial_charge
Zn0 Zn 0.05625 0.57155 0.15912 0.0
Zn1 Zn 0.95922 0.4857 0.15323 0.0
C2 C 0.12499 0.57088 0.16485 0.0
O3 O 0.12866 0.59521 0.18211 0.0
C4 C 0.90272 0.5 0.13457 0.0
O5 O 0.89781 0.47142 0.11977 0.0
O6 O 0.0871 0.62907 0.16156 0.0
O7 O 0.01354 0.55159 0.13411 0.0
O8 O 0.98788 0.48898 0.12732 0.0
C9 C 0.10885 0.64204 0.14688 0.0
O10 O 0.10693 0.61769 0.13019 0.0
O11 O 0.09379 0.55394 0.1517 0.0
C12 C 0.90032 0.42651 0.16975 0.0
O13 O 0.90741 0.45722 0.18348 0.0
O14 O 0.91947 0.43078 0.15363 0.0
O15 O 0.98854 0.50262 0.18336 0.0
O16 O 0.04275 0.55921 0.18931 0.0
O17 O 0.9296 0.51329 0.1505 0.0
C18 C 0.00675 0.52157 0.12125 0.0
C19 C 0.01716 0.52972 0.19619 0.0
Zn20 Zn 0.54488 0.07198 0.50837 0.0
Zn21 Zn 0.52763 0.9706 0.50862 0.0
C22 C 0.61904 0.13475 0.51197 0.0
O23 O 0.60389 0.14524 0.52762 0.0
C24 C 0.45807 0.90102 0.4892 0.0
O25 O 0.48192 0.89643 0.47745 0.0
O26 O 0.52599 0.10859 0.50455 0.0
O27 O 0.51144 0.02358 0.48684 0.0
O28 O 0.54388 0.99442 0.48142 0.0
C29 C 0.53407 0.12377 0.48723 0.0
O30 O 0.55022 0.11198 0.4729 0.0
O31 O 0.59951 0.10066 0.50118 0.0
C32 C 0.54491 0.91928 0.52739 0.0
O33 O 0.51722 0.91577 0.53875 0.0
O34 O 0.55486 0.94182 0.51326 0.0
O35 O 0.53773 0.00529 0.53737 0.0
O36 O 0.54615 0.06416 0.53998 0.0
O37 O 0.47097 0.93144 0.50332 0.0
C38 C 0.52981 0.01358 0.47445 0.0
C39 C 0.54374 0.03633 0.54887 0.0
Zn40 Zn 0.58729 0.5552 0.83482 0.0
Zn41 Zn 0.50281 0.56412 0.82541 0.0
C42 C 0.57513 0.48945 0.85376 0.0
O43 O 0.6013 0.51715 0.86897 0.0
C44 C 0.5086 0.6333 0.81708 0.0
O45 O 0.48376 0.60786 0.80055 0.0
O46 O 0.64327 0.57285 0.83976 0.0
O47 O 0.57546 0.55903 0.80356 0.0
O48 O 0.51869 0.55405 0.7962 0.0
C49 C 0.66936 0.59495 0.82921 0.0
O50 O 0.66079 0.61023 0.81374 0.0
O51 O 0.56186 0.49854 0.83774 0.0
C52 C 0.43315 0.54825 0.83929 0.0
O53 O 0.45816 0.57293 0.856 0.0
O54 O 0.44539 0.53877 0.82259 0.0
O55 O 0.51587 0.54593 0.85193 0.0
O56 O 0.57787 0.58537 0.85927 0.0
O57 O 0.52283 0.62178 0.83128 0.0
C58 C 0.549 0.55621 0.79002 0.0
C59 C 0.54495 0.57019 0.86552 0.0
H60 H 0.46157 0.98731 0.24767 0.0
H61 H 0.58084 0.05031 0.23879 0.0
H62 H 0.49638 0.97171 0.18468 0.0
C63 C 0.48381 0.99533 0.23703 0.0
C64 C 0.47411 0.97705 0.21503 0.0
C65 C 0.52226 0.02161 0.24583 0.0
C66 C 0.55109 0.03036 0.23212 0.0
C67 C 0.54155 0.01225 0.21002 0.0
C68 C 0.5033 0.98558 0.20172 0.0
N69 N 0.56982 0.01911 0.1959 0.0
C70 C 0.60421 0.05378 0.19815 0.0
H71 H 0.6062 0.49531 0.56774 0.0
H72 H 0.64778 0.61343 0.56121 0.0
H73 H 0.63716 0.53299 0.50566 0.0
C74 C 0.61669 0.51783 0.55764 0.0
C75 C 0.6199 0.50916 0.53546 0.0
C76 C 0.62643 0.55523 0.56695 0.0
C77 C 0.63998 0.58447 0.55396 0.0
C78 C 0.64449 0.57646 0.53188 0.0
C79 C 0.63457 0.53898 0.52283 0.0
N80 N 0.65859 0.60535 0.51831 0.0
C81 C 0.65792 0.63926 0.52294 0.0
H82 H 0.98773 0.55676 0.89581 0.0
H83 H 0.04228 0.49066 0.8808 0.0
H84 H 0.97898 0.50693 0.82897 0.0
C85 C 0.99553 0.54095 0.88387 0.0
C86 C 0.98171 0.53468 0.86155 0.0
C87 C 0.01702 0.5248 0.89106 0.0
C88 C 0.02568 0.50317 0.87543 0.0
C89 C 0.01208 0.49692 0.85297 0.0
C90 C 0.98968 0.51216 0.84625 0.0
N91 N 0.01982 0.47485 0.8368 0.0
C92 C 0.05155 0.47048 0.83948 0.0
H93 H 0.08386 0.59073 0.42938 0.0
H94 H 0.9858 0.48075 0.4345 0.0
H95 H 0.0666 0.55245 0.49186 0.0
C96 C 0.06621 0.56947 0.4392 0.0
C97 C 0.07826 0.57607 0.46177 0.0
C98 C 0.03305 0.53515 0.42905 0.0
C99 C 0.01153 0.50723 0.44206 0.0
C100 C 0.02361 0.51354 0.4648 0.0
C101 C 0.05718 0.54775 0.47442 0.0
N102 N 0.00331 0.48613 0.47857 0.0
C103 C 0.96693 0.45371 0.47262 0.0
H104 H 0.55814 0.13446 0.7804 0.0
H105 H 0.56949 0.03823 0.79326 0.0
H106 H 0.5585 0.10934 0.84619 0.0
C107 C 0.55983 0.11679 0.79184 0.0
C108 C 0.55784 0.12591 0.81417 0.0
C109 C 0.56425 0.08542 0.78409 0.0
C110 C 0.56588 0.06233 0.79903 0.0
C111 C 0.56382 0.07098 0.82149 0.0
C112 C 0.56016 0.1029 0.8289 0.0
N113 N 0.5656 0.04855 0.83716 0.0
C114 C 0.56606 0.01443 0.83213 0.0
H115 H 0.59621 0.57209 0.08913 0.0
H116 H 0.49441 0.57054 0.1063 0.0
H117 H 0.56148 0.54792 0.15267 0.0
C118 C 0.57649 0.56866 0.101 0.0
C119 C 0.58266 0.55938 0.12145 0.0
C120 C 0.54496 0.57292 0.09547 0.0
C121 C 0.51896 0.5676 0.11067 0.0
C122 C 0.52506 0.5589 0.13149 0.0
C123 C 0.55709 0.55512 0.13678 0.0
N124 N 0.49947 0.55332 0.14736 0.0
C125 C 0.46648 0.55565 0.14414 0.0
H126 H 0.19666 0.60975 0.1876 0.0
H127 H 0.25277 0.6059 0.17925 0.0
H128 H 0.18495 0.51798 0.12312 0.0
H129 H 0.1284 0.52213 0.13131 0.0
H130 H 0.23178 0.50063 0.14866 0.0
H131 H 0.24264 0.60526 0.11588 0.0
H132 H 0.24492 0.66658 0.11352 0.0
H133 H 0.34777 0.72723 0.15985 0.0
H134 H 0.34496 0.66609 0.1635 0.0
H135 H 0.40213 0.51043 0.11522 0.0
H136 H 0.34193 0.5115 0.11406 0.0
H137 H 0.39309 0.60601 0.16851 0.0
H138 H 0.45321 0.60513 0.16941 0.0
H139 H 0.35161 0.61746 0.13795 0.0
H140 H 0.33299 0.5126 0.17594 0.0
H141 H 0.33072 0.45162 0.17977 0.0
H142 H 0.24407 0.39307 0.12354 0.0
H143 H 0.24619 0.45387 0.11922 0.0
C144 C 0.19359 0.58959 0.17348 0.0
C145 C 0.1581 0.56641 0.16008 0.0
C146 C 0.22576 0.58749 0.16868 0.0
C147 C 0.22317 0.56199 0.15041 0.0
C148 C 0.18758 0.53799 0.13726 0.0
C149 C 0.15533 0.5404 0.14194 0.0
C150 C 0.25783 0.56052 0.14534 0.0
C151 C 0.25777 0.52599 0.14589 0.0
C152 C 0.29192 0.59385 0.14207 0.0
C153 C 0.29332 0.6308 0.14015 0.0
C154 C 0.26537 0.63152 0.1259 0.0
C155 C 0.26672 0.66631 0.12435 0.0
C156 C 0.29635 0.70077 0.13661 0.0
C157 C 0.32468 0.70049 0.15045 0.0
C158 C 0.32309 0.66573 0.15236 0.0
C159 C 0.4004 0.53156 0.12676 0.0
C160 C 0.43191 0.55769 0.14242 0.0
C161 C 0.36607 0.53208 0.12617 0.0
C162 C 0.36281 0.55858 0.14136 0.0
C163 C 0.39488 0.58534 0.15662 0.0
C164 C 0.42913 0.58481 0.15718 0.0
C165 C 0.32585 0.55794 0.14194 0.0
C166 C 0.32546 0.59205 0.14048 0.0
C167 C 0.29141 0.52437 0.1445 0.0
C168 C 0.29009 0.48784 0.1471 0.0
C169 C 0.31369 0.48678 0.16429 0.0
C170 C 0.31238 0.45225 0.16657 0.0
C171 C 0.28736 0.41852 0.15186 0.0
C172 C 0.2635 0.41924 0.13489 0.0
C173 C 0.26472 0.45371 0.13252 0.0
H174 H 0.28638 0.39181 0.15366 0.0
H175 H 0.29744 0.7277 0.13534 0.0
H176 H 0.66147 0.12418 0.48157 0.0
H177 H 0.71944 0.17444 0.46917 0.0
H178 H 0.71543 0.26158 0.51405 0.0
H179 H 0.6583 0.21203 0.52663 0.0
H180 H 0.72522 0.27856 0.47114 0.0
H181 H 0.77788 0.23582 0.52703 0.0
H182 H 0.78615 0.18716 0.54331 0.0
H183 H 0.82775 0.1622 0.48492 0.0
H184 H 0.81922 0.2104 0.46818 0.0
H185 H 0.90584 0.44888 0.48983 0.0
H186 H 0.84421 0.39023 0.49014 0.0
H187 H 0.88173 0.32362 0.45044 0.0
H188 H 0.94393 0.38258 0.45059 0.0
H189 H 0.8525 0.28964 0.4837 0.0
H190 H 0.81027 0.33932 0.42994 0.0
H191 H 0.80111 0.38642 0.4125 0.0
H192 H 0.73809 0.39617 0.46391 0.0
H193 H 0.74758 0.34975 0.482 0.0
C194 C 0.6732 0.15403 0.48891 0.0
C195 C 0.65537 0.16405 0.50518 0.0
C196 C 0.70621 0.18267 0.48179 0.0
C197 C 0.72162 0.22172 0.49067 0.0
C198 C 0.70391 0.23165 0.50691 0.0
C199 C 0.67135 0.20317 0.51419 0.0
C200 C 0.75623 0.2527 0.48328 0.0
C201 C 0.75316 0.28121 0.47395 0.0
C202 C 0.79227 0.2552 0.48618 0.0
C203 C 0.79746 0.22633 0.49626 0.0
C204 C 0.78845 0.21969 0.51759 0.0
C205 C 0.79326 0.19226 0.52692 0.0
C206 C 0.80734 0.1715 0.51513 0.0
C207 C 0.81676 0.17824 0.49401 0.0
C208 C 0.81196 0.20561 0.48461 0.0
C209 C 0.9005 0.42177 0.48082 0.0
C210 C 0.92911 0.41995 0.47003 0.0
C211 C 0.86528 0.38829 0.48092 0.0
C212 C 0.85802 0.35242 0.47009 0.0
C213 C 0.88655 0.3509 0.45884 0.0
C214 C 0.9219 0.38449 0.45881 0.0
C215 C 0.82192 0.31647 0.4721 0.0
C216 C 0.8246 0.28691 0.48045 0.0
C217 C 0.7854 0.31287 0.46809 0.0
C218 C 0.77998 0.34125 0.45746 0.0
C219 C 0.79483 0.35181 0.43769 0.0
C220 C 0.78953 0.37837 0.42767 0.0
C221 C 0.76916 0.39438 0.43715 0.0
C222 C 0.75399 0.38383 0.45665 0.0
C223 C 0.75931 0.35738 0.4668 0.0
H224 H 0.76502 0.41488 0.42934 0.0
H225 H 0.81105 0.15028 0.52238 0.0
H226 H 0.4771 0.66353 0.79141 0.0
H227 H 0.49281 0.73025 0.79413 0.0
H228 H 0.57922 0.76318 0.84936 0.0
H229 H 0.5629 0.69574 0.84705 0.0
H230 H 0.53881 0.79734 0.85714 0.0
H231 H 0.60363 0.78437 0.79773 0.0
H232 H 0.61068 0.75432 0.76265 0.0
H233 H 0.5257 0.77041 0.7286 0.0
H234 H 0.51772 0.80006 0.76354 0.0
H235 H 0.61135 0.99704 0.85589 0.0
H236 H 0.60753 0.9343 0.85316 0.0
H237 H 0.51527 0.88779 0.79954 0.0
H238 H 0.51958 0.95084 0.80213 0.0
H239 H 0.56505 0.86295 0.79171 0.0
H240 H 0.4975 0.87154 0.85205 0.0
H241 H 0.49068 0.90116 0.88738 0.0
H242 H 0.58265 0.89356 0.91982 0.0
H243 H 0.59033 0.86434 0.88461 0.0
C244 C 0.49958 0.68487 0.80413 0.0
C245 C 0.51889 0.67425 0.81895 0.0
C246 C 0.50869 0.72318 0.80558 0.0
C247 C 0.53772 0.752 0.82168 0.0
C248 C 0.55685 0.7415 0.8367 0.0
C249 C 0.54755 0.70297 0.83535 0.0
C250 C 0.54713 0.79278 0.82303 0.0
C251 C 0.54529 0.81192 0.84293 0.0
C252 C 0.55493 0.81171 0.80441 0.0
C253 C 0.55988 0.7942 0.7833 0.0
C254 C 0.58626 0.78128 0.78279 0.0
C255 C 0.59045 0.76434 0.76292 0.0
C256 C 0.5686 0.76039 0.74342 0.0
C257 C 0.54259 0.77347 0.74373 0.0
C258 C 0.53826 0.79039 0.76356 0.0
C259 C 0.5906 0.97343 0.84339 0.0
C260 C 0.56574 0.9784 0.8292 0.0
C261 C 0.58826 0.9376 0.84191 0.0
C262 C 0.56074 0.90611 0.82634 0.0
C263 C 0.53668 0.91159 0.8117 0.0
C264 C 0.53908 0.94749 0.81318 0.0
C265 C 0.55621 0.86721 0.82572 0.0
C266 C 0.55896 0.84845 0.80595 0.0
C267 C 0.54944 0.8487 0.84449 0.0
C268 C 0.54476 0.86615 0.86566 0.0
C269 C 0.51646 0.87647 0.86669 0.0
C270 C 0.5124 0.89313 0.8867 0.0
C271 C 0.53629 0.89935 0.90582 0.0
C272 C 0.56421 0.8888 0.90499 0.0
C273 C 0.56841 0.87216 0.88502 0.0
H274 H 0.5331 0.91225 0.92129 0.0
H275 H 0.57187 0.74725 0.72805 0.0
H276 H 0.84322 0.478 0.1025 0.0
H277 H 0.79319 0.49464 0.10295 0.0
H278 H 0.84773 0.56806 0.16574 0.0
H279 H 0.89786 0.55106 0.16557 0.0
H280 H 0.7715 0.52213 0.16587 0.0
H281 H 0.85119 0.60701 0.11948 0.0
H282 H 0.88945 0.62563 0.08872 0.0
H283 H 0.7887 0.54963 0.04253 0.0
H284 H 0.74992 0.53001 0.07302 0.0
H285 H 0.63715 0.59021 0.15794 0.0
H286 H 0.69536 0.58583 0.16299 0.0
H287 H 0.66017 0.51102 0.10026 0.0
H288 H 0.60256 0.51556 0.09514 0.0
H289 H 0.73276 0.56738 0.10315 0.0
H290 H 0.65516 0.47735 0.14968 0.0
H291 H 0.61686 0.45764 0.18036 0.0
H292 H 0.71394 0.54355 0.22617 0.0
H293 H 0.75269 0.56412 0.1957 0.0
C294 C 0.84489 0.49801 0.11633 0.0
C295 C 0.8746 0.51321 0.13399 0.0
C296 C 0.81627 0.50761 0.11653 0.0
C297 C 0.81684 0.53286 0.1343 0.0
C298 C 0.84674 0.54856 0.15184 0.0
C299 C 0.87548 0.53897 0.15166 0.0
C300 C 0.78528 0.5415 0.13476 0.0
C301 C 0.76346 0.53276 0.15236 0.0
C302 C 0.77447 0.55487 0.11701 0.0
C303 C 0.79767 0.56685 0.09858 0.0
C304 C 0.83722 0.59405 0.10278 0.0
C305 C 0.85901 0.60481 0.08538 0.0
C306 C 0.84152 0.5888 0.06369 0.0
C307 C 0.8022 0.56201 0.05934 0.0
C308 C 0.7803 0.55109 0.07668 0.0
C309 C 0.64166 0.57237 0.14544 0.0
C310 C 0.61553 0.55347 0.12608 0.0
C311 C 0.67492 0.56995 0.1483 0.0
C312 C 0.68225 0.54821 0.13194 0.0
C313 C 0.6554 0.5283 0.11299 0.0
C314 C 0.62245 0.53086 0.1101 0.0
C315 C 0.71828 0.54689 0.13392 0.0
C316 C 0.74106 0.55719 0.11679 0.0
C317 C 0.72993 0.53496 0.15209 0.0
C318 C 0.70667 0.52258 0.17039 0.0
C319 C 0.66824 0.49226 0.16627 0.0
C320 C 0.64647 0.48089 0.18363 0.0
C321 C 0.66292 0.49942 0.20519 0.0
C322 C 0.70121 0.52928 0.20945 0.0
C323 C 0.72309 0.54079 0.19215 0.0
H324 H 0.64602 0.49056 0.2186 0.0
H325 H 0.85842 0.5972 0.05025 0.0
H326 H 0.40215 0.89937 0.51273 0.0
H327 H 0.33608 0.84627 0.51079 0.0
H328 H 0.35596 0.77901 0.45962 0.0
H329 H 0.42188 0.83207 0.46124 0.0
H330 H 0.28736 0.77221 0.45023 0.0
H331 H 0.35756 0.76291 0.5123 0.0
H332 H 0.39982 0.78693 0.54769 0.0
H333 H 0.31887 0.80856 0.57873 0.0
H334 H 0.27636 0.78517 0.54342 0.0
H335 H 0.14176 0.58354 0.48476 0.0
H336 H 0.20524 0.64222 0.49367 0.0
H337 H 0.15846 0.70828 0.46962 0.0
H338 H 0.09541 0.64954 0.4601 0.0
H339 H 0.24071 0.7153 0.51713 0.0
H340 H 0.22046 0.76668 0.4364 0.0
H341 H 0.17676 0.73908 0.40142 0.0
H342 H 0.15916 0.62704 0.40723 0.0
H343 H 0.20434 0.65429 0.44147 0.0
C344 C 0.39242 0.87338 0.50095 0.0
C345 C 0.41738 0.8699 0.4872 0.0
C346 C 0.35468 0.84299 0.49994 0.0
C347 C 0.34123 0.80849 0.48526 0.0
C348 C 0.36575 0.80535 0.4711 0.0
C349 C 0.40347 0.8357 0.47209 0.0
C350 C 0.30182 0.77536 0.48484 0.0
C351 C 0.27716 0.75989 0.46488 0.0
C352 C 0.28862 0.75891 0.50389 0.0
C353 C 0.31396 0.77265 0.52517 0.0
C354 C 0.3489 0.77305 0.52664 0.0
C355 C 0.37288 0.78651 0.54669 0.0
C356 C 0.36209 0.79935 0.56544 0.0
C357 C 0.32722 0.79865 0.56419 0.0
C358 C 0.30316 0.78527 0.54416 0.0
C359 C 0.14494 0.61081 0.48194 0.0
C360 C 0.11402 0.61212 0.47151 0.0
C361 C 0.18113 0.64429 0.48706 0.0
C362 C 0.18671 0.67945 0.48189 0.0
C363 C 0.15492 0.68133 0.47339 0.0
C364 C 0.11898 0.64784 0.46797 0.0
C365 C 0.22617 0.71263 0.48263 0.0
C366 C 0.25086 0.72793 0.50257 0.0
C367 C 0.23969 0.72851 0.46346 0.0
C368 C 0.2154 0.71249 0.4417 0.0
C369 C 0.20779 0.73629 0.43 0.0
C370 C 0.18283 0.7207 0.41024 0.0
C371 C 0.16522 0.68133 0.40206 0.0
C372 C 0.17305 0.65758 0.41342 0.0
C373 C 0.19849 0.67313 0.43295 0.0
H374 H 0.14544 0.66922 0.38695 0.0
H375 H 0.38069 0.80977 0.58095 0.0
H376 H 0.52568 0.42512 0.82358 0.0
H377 H 0.51785 0.36082 0.82084 0.0
H378 H 0.59702 0.39829 0.88028 0.0
H379 H 0.60503 0.46253 0.88317 0.0
H380 H 0.6161 0.36371 0.84713 0.0
H381 H 0.503 0.3353 0.88024 0.0
H382 H 0.44167 0.33272 0.88428 0.0
H383 H 0.3926 0.26057 0.82112 0.0
H384 H 0.45383 0.26317 0.81655 0.0
H385 H 0.59571 0.18067 0.85112 0.0
H386 H 0.59365 0.2396 0.86174 0.0
H387 H 0.5107 0.20789 0.80484 0.0
H388 H 0.51159 0.14838 0.79459 0.0
H389 H 0.4932 0.23935 0.83931 0.0
H390 H 0.60623 0.27159 0.8046 0.0
H391 H 0.66736 0.27442 0.79939 0.0
H392 H 0.71638 0.34001 0.86423 0.0
H393 H 0.6553 0.33708 0.86994 0.0
C394 C 0.54094 0.41952 0.83628 0.0
C395 C 0.56612 0.4491 0.85354 0.0
C396 C 0.53638 0.38269 0.83471 0.0
C397 C 0.55685 0.37468 0.85037 0.0
C398 C 0.58102 0.4038 0.86798 0.0
C399 C 0.58544 0.44052 0.86963 0.0
C400 C 0.55507 0.33685 0.84758 0.0
C401 C 0.58929 0.33654 0.84584 0.0
C402 C 0.52001 0.30134 0.84529 0.0
C403 C 0.48314 0.29974 0.84797 0.0
C404 C 0.47925 0.31916 0.86712 0.0
C405 C 0.44447 0.31764 0.86953 0.0
C406 C 0.41329 0.29657 0.85295 0.0
C407 C 0.41679 0.27691 0.83394 0.0
C408 C 0.45152 0.27837 0.83145 0.0
C409 C 0.57649 0.18588 0.8411 0.0
C410 C 0.55414 0.15999 0.82186 0.0
C411 C 0.5756 0.21977 0.84708 0.0
C412 C 0.55252 0.22857 0.83388 0.0
C413 C 0.5289 0.20191 0.81523 0.0
C414 C 0.52972 0.16804 0.80928 0.0
C415 C 0.55421 0.26625 0.83882 0.0
C416 C 0.52003 0.26654 0.84085 0.0
C417 C 0.58928 0.30182 0.84121 0.0
C418 C 0.62607 0.30374 0.83779 0.0
C419 C 0.62995 0.28635 0.81781 0.0
C420 C 0.6646 0.28801 0.81476 0.0
C421 C 0.6957 0.30728 0.83149 0.0
C422 C 0.69224 0.32502 0.8513 0.0
C423 C 0.65762 0.32339 0.85445 0.0
H424 H 0.72251 0.30855 0.8291 0.0
H425 H 0.38639 0.29541 0.85484 0.0
H426 H 0.5244 0.86191 0.55219 0.0
H427 H 0.55137 0.82016 0.55452 0.0
H428 H 0.63313 0.88199 0.51136 0.0
H429 H 0.60584 0.92336 0.50858 0.0
H430 H 0.5985 0.80681 0.49801 0.0
H431 H 0.66093 0.89131 0.56655 0.0
H432 H 0.66494 0.92667 0.60276 0.0
H433 H 0.59335 0.8196 0.62515 0.0
H434 H 0.58845 0.78358 0.58896 0.0
H435 H 0.69719 0.70563 0.50707 0.0
H436 H 0.68561 0.75987 0.51118 0.0
H437 H 0.59725 0.70084 0.55165 0.0
H438 H 0.60926 0.64694 0.54774 0.0
H439 H 0.64036 0.77842 0.56711 0.0
H440 H 0.57325 0.69486 0.49799 0.0
H441 H 0.56765 0.65885 0.46166 0.0
H442 H 0.64721 0.76449 0.44047 0.0
H443 H 0.65366 0.80108 0.4768 0.0
C444 C 0.54837 0.86688 0.54337 0.0
C445 C 0.56289 0.89582 0.53013 0.0
C446 C 0.5639 0.84313 0.54482 0.0
C447 C 0.5945 0.84821 0.53327 0.0
C448 C 0.60955 0.87761 0.52041 0.0
C449 C 0.59392 0.90122 0.51886 0.0
C450 C 0.60904 0.8212 0.53338 0.0
C451 C 0.60839 0.80121 0.51312 0.0
C452 C 0.62099 0.81318 0.55312 0.0
C453 C 0.62407 0.83475 0.57496 0.0
C454 C 0.6458 0.8753 0.57914 0.0
C455 C 0.64828 0.89546 0.59967 0.0
C456 C 0.62934 0.8754 0.61623 0.0
C457 C 0.60798 0.83511 0.6123 0.0
C458 C 0.60538 0.8148 0.59179 0.0
C459 C 0.67576 0.70474 0.51709 0.0
C460 C 0.65396 0.67257 0.52708 0.0
C461 C 0.6691 0.7355 0.51939 0.0
C462 C 0.64027 0.7341 0.53152 0.0
C463 C 0.61963 0.70247 0.54226 0.0
C464 C 0.62637 0.67176 0.53998 0.0
C465 C 0.62976 0.76421 0.53177 0.0
C466 C 0.63096 0.78454 0.55205 0.0
C467 C 0.61821 0.77257 0.51205 0.0
C468 C 0.61426 0.75063 0.49018 0.0
C469 C 0.58978 0.71036 0.48564 0.0
C470 C 0.58641 0.68986 0.46504 0.0
C471 C 0.60715 0.70935 0.44879 0.0
C472 C 0.63122 0.74942 0.45309 0.0
C473 C 0.63473 0.77005 0.47367 0.0
H474 H 0.6045 0.69343 0.43285 0.0
H475 H 0.63129 0.89106 0.63211 0.0
H476 H 0.73276 0.63841 0.80933 0.0
H477 H 0.79461 0.64116 0.81374 0.0
H478 H 0.75422 0.56425 0.86146 0.0
H479 H 0.69329 0.56223 0.85767 0.0
H480 H 0.82563 0.61675 0.87421 0.0
H481 H 0.75097 0.53197 0.80606 0.0
H482 H 0.71564 0.51626 0.76895 0.0
H483 H 0.81694 0.60324 0.74693 0.0
H484 H 0.85274 0.61975 0.78402 0.0
H485 H 0.91282 0.49541 0.83539 0.0
H486 H 0.86822 0.51788 0.8277 0.0
H487 H 0.95038 0.63056 0.86399 0.0
H488 H 0.99475 0.60778 0.8722 0.0
H489 H 0.86545 0.57122 0.80826 0.0
H490 H 0.9024 0.66517 0.89312 0.0
H491 H 0.93191 0.67194 0.9307 0.0
H492 H 0.89601 0.55159 0.9201 0.0
H493 H 0.86585 0.54403 0.8826 0.0
C494 C 0.73732 0.62252 0.82096 0.0
C495 C 0.70801 0.59987 0.83302 0.0
C496 C 0.7726 0.62401 0.8234 0.0
C497 C 0.77887 0.60252 0.83773 0.0
C498 C 0.75012 0.58114 0.85035 0.0
C499 C 0.71515 0.57989 0.84807 0.0
C500 C 0.81422 0.60014 0.83895 0.0
C501 C 0.83464 0.6073 0.85974 0.0
C502 C 0.82578 0.58741 0.82013 0.0
C503 C 0.80436 0.57741 0.79784 0.0
C504 C 0.76561 0.54791 0.79333 0.0
C505 C 0.74552 0.53884 0.77231 0.0
C506 C 0.764 0.55883 0.75561 0.0
C507 C 0.80264 0.58785 0.75989 0.0
C508 C 0.82284 0.59707 0.78091 0.0
C509 C 0.9216 0.52516 0.84138 0.0
C510 C 0.95698 0.54978 0.85458 0.0
C511 C 0.89616 0.53801 0.83695 0.0
C512 C 0.90575 0.57574 0.84553 0.0
C513 C 0.94212 0.60113 0.85754 0.0
C514 C 0.96739 0.58812 0.86223 0.0
C515 C 0.87623 0.587 0.84355 0.0
C516 C 0.85704 0.58163 0.82264 0.0
C517 C 0.86495 0.60018 0.86234 0.0
C518 C 0.88234 0.6042 0.88499 0.0
C519 C 0.90073 0.64016 0.89886 0.0
C520 C 0.91756 0.64413 0.92013 0.0
C521 C 0.91597 0.61225 0.92775 0.0
C522 C 0.89735 0.57629 0.91415 0.0
C523 C 0.88039 0.57215 0.89289 0.0
H524 H 0.92909 0.6154 0.94421 0.0
H525 H 0.7484 0.55178 0.73934 0.0
H526 H 0.17653 0.67011 0.13016 0.0
H527 H 0.23438 0.733 0.142 0.0
H528 H 0.17293 0.76752 0.1849 0.0
H529 H 0.11479 0.7039 0.17358 0.0
H530 H 0.23121 0.82619 0.15672 0.0
H531 H 0.21456 0.74388 0.2106 0.0
H532 H 0.20247 0.68451 0.22424 0.0
H533 H 0.30052 0.69172 0.19712 0.0
H534 H 0.3128 0.75091 0.183 0.0
H535 H 0.40854 0.97871 0.22132 0.0
H536 H 0.34205 0.92673 0.20919 0.0
H537 H 0.38277 0.85624 0.17714 0.0
H538 H 0.44889 0.90732 0.18968 0.0
H539 H 0.33016 0.81865 0.20354 0.0
H540 H 0.34462 0.89773 0.14767 0.0
H541 H 0.3583 0.95765 0.13411 0.0
H542 H 0.26631 0.95751 0.1653 0.0
H543 H 0.25242 0.89783 0.17931 0.0
C544 C 0.17498 0.69132 0.14173 0.0
C545 C 0.14123 0.68211 0.15106 0.0
C546 C 0.20807 0.72716 0.14849 0.0
C547 C 0.20773 0.75455 0.16435 0.0
C548 C 0.17349 0.74657 0.1726 0.0
C549 C 0.14047 0.71032 0.16618 0.0
C550 C 0.24421 0.78971 0.17373 0.0
C551 C 0.25272 0.82488 0.16728 0.0
C552 C 0.27213 0.78752 0.18727 0.0
C553 C 0.26414 0.75139 0.19532 0.0
C554 C 0.23312 0.73244 0.20716 0.0
C555 C 0.22638 0.69896 0.21512 0.0
C556 C 0.25073 0.68438 0.21154 0.0
C557 C 0.28168 0.70305 0.19985 0.0
C558 C 0.2885 0.73652 0.19185 0.0
C559 C 0.40322 0.95212 0.21165 0.0
C560 C 0.4339 0.94706 0.20645 0.0
C561 C 0.3653 0.92265 0.20459 0.0
C562 C 0.35759 0.88778 0.19221 0.0
C563 C 0.38818 0.88301 0.18667 0.0
C564 C 0.42595 0.91234 0.19369 0.0
C565 C 0.31784 0.85511 0.18604 0.0
C566 C 0.30862 0.82026 0.19318 0.0
C567 C 0.28944 0.85773 0.17317 0.0
C568 C 0.29779 0.89358 0.16476 0.0
C569 C 0.32754 0.91067 0.15181 0.0
C570 C 0.33528 0.94455 0.14401 0.0
C571 C 0.31327 0.96145 0.1489 0.0
C572 C 0.28339 0.94444 0.16156 0.0
C573 C 0.27555 0.91057 0.16942 0.0
H574 H 0.3193 0.98767 0.14283 0.0
H575 H 0.24572 0.65869 0.21791 0.0
H576 H 0.49909 0.1545 0.51205 0.0
H577 H 0.50722 0.21871 0.51287 0.0
H578 H 0.57588 0.23767 0.45974 0.0
H579 H 0.56745 0.17351 0.4585 0.0
H580 H 0.61198 0.29229 0.49979 0.0
H581 H 0.49668 0.23351 0.44867 0.0
H582 H 0.42882 0.18615 0.43487 0.0
H583 H 0.39419 0.2257 0.4918 0.0
H584 H 0.46191 0.27294 0.50612 0.0
H585 H 0.65319 0.48405 0.50532 0.0
H586 H 0.63294 0.41749 0.49015 0.0
H587 H 0.53894 0.37667 0.52884 0.0
H588 H 0.55728 0.44291 0.54281 0.0
H589 H 0.51564 0.33277 0.49105 0.0
H590 H 0.6261 0.383 0.54512 0.0
H591 H 0.69265 0.42763 0.56264 0.0
H592 H 0.7351 0.40121 0.50509 0.0
H593 H 0.66872 0.35684 0.48701 0.0
C594 C 0.51512 0.17198 0.5002 0.0
C595 C 0.5329 0.15912 0.48536 0.0
C596 C 0.51963 0.20854 0.50064 0.0
C597 C 0.54219 0.23274 0.48638 0.0
C598 C 0.55832 0.21925 0.47082 0.0
C599 C 0.55339 0.18256 0.47015 0.0
C600 C 0.55282 0.2736 0.48956 0.0
C601 C 0.59115 0.30137 0.49743 0.0
C602 C 0.52522 0.2849 0.48715 0.0
C603 C 0.48444 0.25657 0.47855 0.0
C604 C 0.47464 0.23189 0.45835 0.0
C605 C 0.43617 0.20511 0.45041 0.0
C606 C 0.40721 0.20286 0.46247 0.0
C607 C 0.41666 0.22746 0.48248 0.0
C608 C 0.45508 0.25427 0.4905 0.0
C609 C 0.62778 0.46094 0.51029 0.0
C610 C 0.6072 0.46888 0.52555 0.0
C611 C 0.61646 0.42288 0.50176 0.0
C612 C 0.58486 0.39207 0.50869 0.0
C613 C 0.56354 0.39993 0.52333 0.0
C614 C 0.57444 0.43789 0.53157 0.0
C615 C 0.57488 0.35166 0.50159 0.0
C616 C 0.53668 0.32391 0.49307 0.0
C617 C 0.60245 0.34014 0.5039 0.0
C618 C 0.64242 0.36705 0.51459 0.0
C619 C 0.64961 0.38701 0.5361 0.0
C620 C 0.6873 0.41221 0.54613 0.0
C621 C 0.71806 0.41737 0.53492 0.0
C622 C 0.7112 0.39726 0.51367 0.0
C623 C 0.67356 0.37211 0.50352 0.0
H624 H 0.74723 0.43684 0.54273 0.0
H625 H 0.37745 0.18211 0.4563 0.0
H626 H 0.3729 0.49148 0.80978 0.0
H627 H 0.30453 0.46802 0.81056 0.0
H628 H 0.33166 0.54734 0.87068 0.0
H629 H 0.3997 0.57006 0.87036 0.0
H630 H 0.26982 0.48057 0.87277 0.0
H631 H 0.31376 0.56774 0.81993 0.0
H632 H 0.34379 0.59153 0.78708 0.0
H633 H 0.25897 0.48524 0.74658 0.0
H634 H 0.22873 0.46062 0.77927 0.0
H635 H 0.11254 0.51207 0.8706 0.0
H636 H 0.17448 0.51501 0.87132 0.0
H637 H 0.13029 0.42889 0.81271 0.0
H638 H 0.06844 0.42642 0.8119 0.0
H639 H 0.19754 0.49048 0.80866 0.0
H640 H 0.14903 0.40727 0.86233 0.0
H641 H 0.11915 0.38664 0.89571 0.0
H642 H 0.21245 0.48861 0.93532 0.0
H643 H 0.24272 0.5101 0.90214 0.0
C644 C 0.36425 0.50375 0.82322 0.0
C645 C 0.39171 0.53286 0.8399 0.0
C646 C 0.32519 0.49036 0.82363 0.0
C647 C 0.31302 0.5063 0.84053 0.0
C648 C 0.34036 0.53459 0.8575 0.0
C649 C 0.37929 0.5477 0.85721 0.0
C650 C 0.27211 0.49503 0.84014 0.0
C651 C 0.25404 0.4829 0.85881 0.0
C652 C 0.25128 0.49733 0.82174 0.0
C653 C 0.26926 0.51219 0.80206 0.0
C654 C 0.30168 0.54935 0.80404 0.0
C655 C 0.31871 0.56299 0.78545 0.0
C656 C 0.30336 0.53987 0.76476 0.0
C657 C 0.27087 0.50309 0.76262 0.0
C658 C 0.25377 0.48928 0.78117 0.0
C659 C 0.11603 0.49334 0.85816 0.0
C660 C 0.08616 0.46888 0.84128 0.0
C661 C 0.15124 0.49489 0.8586 0.0
C662 C 0.15686 0.47186 0.84218 0.0
C663 C 0.12648 0.44675 0.82556 0.0
C664 C 0.09127 0.44525 0.82514 0.0
C665 C 0.19534 0.47643 0.84138 0.0
C666 C 0.21303 0.48747 0.8225 0.0
C667 C 0.21586 0.47348 0.85966 0.0
C668 C 0.19803 0.4604 0.87971 0.0
C669 C 0.16308 0.42541 0.87814 0.0
C670 C 0.1461 0.41354 0.89703 0.0
C671 C 0.16387 0.43632 0.91761 0.0
C672 C 0.19873 0.47098 0.91936 0.0
C673 C 0.21586 0.48299 0.90052 0.0
H674 H 0.15065 0.42707 0.93221 0.0
H675 H 0.31659 0.55048 0.75038 0.0
H676 H 0.85936 0.40844 0.20441 0.0
H677 H 0.81141 0.34451 0.21086 0.0
H678 H 0.82779 0.29318 0.15038 0.0
H679 H 0.87562 0.35719 0.14365 0.0
H680 H 0.75239 0.26471 0.15446 0.0
H681 H 0.86584 0.28997 0.19945 0.0
H682 H 0.92184 0.32777 0.22804 0.0
H683 H 0.84733 0.31799 0.27668 0.0
H684 H 0.79087 0.28094 0.24828 0.0
H685 H 0.65246 0.07065 0.16794 0.0
H686 H 0.70617 0.13458 0.16505 0.0
H687 H 0.68499 0.18279 0.22495 0.0
H688 H 0.63125 0.11855 0.22787 0.0
H689 H 0.76294 0.21326 0.22215 0.0
H690 H 0.65071 0.19166 0.17828 0.0
H691 H 0.59357 0.15625 0.15028 0.0
H692 H 0.66475 0.16101 0.10045 0.0
H693 H 0.72231 0.19597 0.12824 0.0
C694 C 0.85277 0.38357 0.19246 0.0
C695 C 0.87125 0.38781 0.1735 0.0
C696 C 0.82552 0.34706 0.19625 0.0
C697 C 0.81641 0.31416 0.18121 0.0
C698 C 0.83456 0.31829 0.16219 0.0
C699 C 0.86189 0.35482 0.1584 0.0
C700 C 0.78722 0.27544 0.18502 0.0
C701 C 0.75499 0.25321 0.16909 0.0
C702 C 0.79015 0.26112 0.2045 0.0
C703 C 0.8241 0.28299 0.22166 0.0
C704 C 0.86138 0.29617 0.2162 0.0
C705 C 0.89322 0.31746 0.23238 0.0
C706 C 0.88816 0.32539 0.25415 0.0
C707 C 0.85121 0.31187 0.2598 0.0
C708 C 0.81928 0.29078 0.24366 0.0
C709 C 0.65983 0.09489 0.18063 0.0
C710 C 0.63824 0.09023 0.19811 0.0
C711 C 0.69027 0.13126 0.17895 0.0
C712 C 0.69917 0.16338 0.19466 0.0
C713 C 0.67851 0.15831 0.21269 0.0
C714 C 0.64796 0.12183 0.21434 0.0
C715 C 0.72846 0.20246 0.19143 0.0
C716 C 0.76053 0.22478 0.20749 0.0
C717 C 0.72533 0.21712 0.17216 0.0
C718 C 0.69078 0.19606 0.15539 0.0
C719 C 0.65415 0.18485 0.16139 0.0
C720 C 0.62169 0.16492 0.14555 0.0
C721 C 0.62551 0.15629 0.1236 0.0
C722 C 0.66183 0.16766 0.11746 0.0
C723 C 0.69438 0.18755 0.13325 0.0
H724 H 0.60035 0.14088 0.11136 0.0
H725 H 0.91284 0.34195 0.26665 0.0
H726 H 0.03784 0.58562 0.10142 0.0
H727 H 0.04875 0.58907 0.06306 0.0
H728 H 0.00691 0.46693 0.05079 0.0
H729 H 0.99634 0.46323 0.08932 0.0
H730 H 0.0703 0.50892 0.02947 0.0
H731 H 0.94796 0.49756 0.03794 0.0
H732 H 0.90456 0.51589 0.05485 0.0
H733 H 0.96709 0.628 0.03622 0.0
H734 H 0.01129 0.61054 0.01951 0.0
H735 H 0.01103 0.46819 0.91364 0.0
H736 H 0.01917 0.4715 0.95351 0.0
H737 H 0.05359 0.59198 0.96257 0.0
H738 H 0.0456 0.58888 0.92268 0.0
H739 H 0.99747 0.55335 0.98609 0.0
H740 H 0.1176 0.56336 0.97535 0.0
H741 H 0.16113 0.54505 0.95862 0.0
H742 H 0.10322 0.43584 0.98106 0.0
H743 H 0.05893 0.45325 0.99766 0.0
C744 C 0.03137 0.55953 0.09067 0.0
C745 C 0.01588 0.52406 0.0984 0.0
C746 C 0.03756 0.56156 0.06873 0.0
C747 C 0.02821 0.52818 0.05404 0.0
C748 C 0.01427 0.49302 0.06187 0.0
C749 C 0.00804 0.49094 0.08385 0.0
C750 C 0.03061 0.52954 0.03026 0.0
C751 C 0.05416 0.51828 0.01988 0.0
C752 C 0.01008 0.54251 0.01793 0.0
C753 C 0.98319 0.55288 0.02768 0.0
C754 C 0.95263 0.52622 0.03759 0.0
C755 C 0.92787 0.53643 0.04712 0.0
C756 C 0.93314 0.57312 0.04667 0.0
C757 C 0.96309 0.59961 0.0366 0.0
C758 C 0.988 0.58957 0.02708 0.0
C759 C 0.02132 0.49564 0.9241 0.0
C760 C 0.02749 0.52823 0.91501 0.0
C761 C 0.0259 0.49748 0.94691 0.0
C762 C 0.03704 0.53201 0.96104 0.0
C763 C 0.04481 0.56499 0.95198 0.0
C764 C 0.04018 0.56317 0.9292 0.0
C765 C 0.03734 0.53286 0.98515 0.0
C766 C 0.01401 0.54433 0.99562 0.0
C767 C 0.05805 0.52006 0.99749 0.0
C768 C 0.08471 0.5095 0.98759 0.0
C769 C 0.11393 0.53531 0.97657 0.0
C770 C 0.13878 0.52512 0.96714 0.0
C771 C 0.1349 0.48928 0.96875 0.0
C772 C 0.10618 0.46358 0.97982 0.0
C773 C 0.08121 0.47362 0.98926 0.0
H774 H 0.15422 0.48149 0.96147 0.0
H775 H 0.91399 0.581 0.0541 0.0
H776 H 0.48994 0.03882 0.45117 0.0
H777 H 0.49497 0.05247 0.41358 0.0
H778 H 0.58331 0.02316 0.40918 0.0
H779 H 0.57917 0.01041 0.44706 0.0
H780 H 0.59922 0.08597 0.38946 0.0
H781 H 0.49223 0.95771 0.38841 0.0
H782 H 0.4313 0.90924 0.39941 0.0
H783 H 0.37539 0.96705 0.37586 0.0
H784 H 0.43618 0.01621 0.365 0.0
H785 H 0.57864 0.02498 0.27404 0.0
H786 H 0.58635 0.03708 0.3142 0.0
H787 H 0.49483 0.06238 0.31205 0.0
H788 H 0.48696 0.05022 0.27183 0.0
H789 H 0.48105 0.00755 0.33588 0.0
H790 H 0.58725 0.13219 0.33302 0.0
H791 H 0.64828 0.1798 0.32173 0.0
H792 H 0.70597 0.12871 0.35191 0.0
H793 H 0.64516 0.08041 0.36311 0.0
C794 C 0.51081 0.03576 0.44232 0.0
C795 C 0.53414 0.0235 0.45207 0.0
C796 C 0.51356 0.04346 0.42081 0.0
C797 C 0.53924 0.03845 0.40853 0.0
C798 C 0.56334 0.02725 0.4184 0.0
C799 C 0.56072 0.01969 0.43997 0.0
C800 C 0.53924 0.04249 0.38496 0.0
C801 C 0.57351 0.06868 0.37766 0.0
C802 C 0.50545 0.02052 0.36972 0.0
C803 C 0.46883 0.99086 0.37612 0.0
C804 C 0.46701 0.96025 0.38574 0.0
C805 C 0.4325 0.93263 0.39192 0.0
C806 C 0.39952 0.93512 0.38839 0.0
C807 C 0.40097 0.96519 0.37861 0.0
C808 C 0.43544 0.99293 0.37243 0.0
C809 C 0.561 0.03434 0.28212 0.0
C810 C 0.53199 0.03637 0.26981 0.0
C811 C 0.56542 0.04124 0.30509 0.0
C812 C 0.54114 0.05062 0.31614 0.0
C813 C 0.51376 0.05501 0.30386 0.0
C814 C 0.50926 0.04802 0.28091 0.0
C815 C 0.54109 0.05105 0.3402 0.0
C816 C 0.50674 0.02539 0.34763 0.0
C817 C 0.57485 0.07344 0.35546 0.0
C818 C 0.61153 0.10245 0.34875 0.0
C819 C 0.61287 0.13088 0.33709 0.0
C820 C 0.64745 0.15805 0.33074 0.0
C821 C 0.68096 0.15723 0.33606 0.0
C822 C 0.67998 0.12929 0.34779 0.0
C823 C 0.64546 0.10204 0.35417 0.0
H824 H 0.70771 0.17829 0.33113 0.0
H825 H 0.37283 0.91371 0.39319 0.0
H826 H 0.51184 0.57206 0.75795 0.0
H827 H 0.52481 0.5774 0.71988 0.0
H828 H 0.61123 0.54645 0.73106 0.0
H829 H 0.59936 0.54237 0.76919 0.0
H830 H 0.63789 0.60456 0.71022 0.0
H831 H 0.51978 0.48251 0.70128 0.0
H832 H 0.45203 0.43841 0.70523 0.0
H833 H 0.41819 0.50434 0.66982 0.0
H834 H 0.48584 0.54913 0.66589 0.0
H835 H 0.65329 0.53737 0.60246 0.0
H836 H 0.64042 0.54446 0.64043 0.0
H837 H 0.57523 0.59678 0.6218 0.0
H838 H 0.58828 0.58991 0.58364 0.0
H839 H 0.53691 0.5348 0.64579 0.0
H840 H 0.65728 0.65256 0.6516 0.0
H841 H 0.72541 0.693 0.64704 0.0
H842 H 0.75537 0.63055 0.688 0.0
H843 H 0.68733 0.58933 0.69253 0.0
C844 C 0.53336 0.56606 0.75221 0.0
C845 C 0.55454 0.55673 0.76657 0.0
C846 C 0.54071 0.56907 0.73044 0.0
C847 C 0.56882 0.56206 0.72253 0.0
C848 C 0.58954 0.5522 0.73679 0.0
C849 C 0.58261 0.54971 0.75858 0.0
C850 C 0.57746 0.5657 0.69958 0.0
C851 C 0.6158 0.58901 0.69615 0.0
C852 C 0.54856 0.5463 0.68118 0.0
C853 C 0.50789 0.51942 0.68352 0.0
C854 C 0.49791 0.48778 0.6945 0.0
C855 C 0.45953 0.46263 0.6967 0.0
C856 C 0.43084 0.46864 0.68785 0.0
C857 C 0.44046 0.49976 0.67671 0.0
C858 C 0.47881 0.52502 0.67448 0.0
C859 C 0.63654 0.55073 0.60654 0.0
C860 C 0.62171 0.56307 0.59021 0.0
C861 C 0.62933 0.55488 0.6282 0.0
C862 C 0.60698 0.57123 0.63388 0.0
C863 C 0.5926 0.58416 0.61769 0.0
C864 C 0.60024 0.58046 0.59601 0.0
C865 C 0.59731 0.57291 0.65656 0.0
C866 C 0.55883 0.55067 0.65992 0.0
C867 C 0.62612 0.5928 0.67489 0.0
C868 C 0.66712 0.61766 0.67227 0.0
C869 C 0.67834 0.64724 0.65949 0.0
C870 C 0.71696 0.67034 0.65694 0.0
C871 C 0.74469 0.6643 0.66719 0.0
C872 C 0.73386 0.63519 0.68005 0.0
C873 C 0.69527 0.61197 0.68264 0.0
H874 H 0.77457 0.68223 0.66519 0.0
H875 H 0.40114 0.44914 0.68957 0.0
H876 H 0.57306 0.10171 0.57972 0.0
H877 H 0.57946 0.10631 0.61983 0.0
H878 H 0.52885 0.98295 0.61298 0.0
H879 H 0.52267 0.97803 0.57296 0.0
H880 H 0.49735 0.01378 0.64329 0.0
H881 H 0.62012 0.03461 0.62733 0.0
H882 H 0.68034 0.06557 0.61095 0.0
H883 H 0.71154 0.17522 0.64841 0.0
H884 H 0.6512 0.14499 0.66478 0.0
H885 H 0.53173 0.01495 0.75721 0.0
H886 H 0.53196 0.00259 0.7175 0.0
H887 H 0.6013 0.12498 0.71739 0.0
H888 H 0.60323 0.13733 0.7571 0.0
H889 H 0.62376 0.08978 0.69 0.0
H890 H 0.50051 0.07229 0.70343 0.0
H891 H 0.43956 0.04386 0.71924 0.0
H892 H 0.40838 0.93131 0.68611 0.0
H893 H 0.46942 0.95904 0.67033 0.0
C894 C 0.56327 0.07555 0.58675 0.0
C895 C 0.54741 0.03951 0.57314 0.0
C896 C 0.5671 0.07827 0.60965 0.0
C897 C 0.55482 0.04498 0.61932 0.0
C898 C 0.53855 0.00896 0.60581 0.0
C899 C 0.53517 0.00625 0.58294 0.0
C900 C 0.5585 0.04771 0.64356 0.0
C901 C 0.525 0.02988 0.65353 0.0
C902 C 0.59454 0.06936 0.65684 0.0
C903 C 0.63096 0.08758 0.64713 0.0
C904 C 0.63967 0.06538 0.63194 0.0
C905 C 0.67386 0.08279 0.62268 0.0
C906 C 0.69971 0.12236 0.62859 0.0
C907 C 0.69147 0.14458 0.64382 0.0
C908 C 0.65729 0.12731 0.65312 0.0
C909 C 0.54768 0.03917 0.7488 0.0
C910 C 0.5669 0.07719 0.76032 0.0
C911 C 0.54742 0.0321 0.72604 0.0
C912 C 0.56587 0.06291 0.71433 0.0
C913 C 0.58657 0.1007 0.72597 0.0
C914 C 0.58724 0.10775 0.74869 0.0
C915 C 0.56249 0.05629 0.6899 0.0
C916 C 0.59607 0.0734 0.67983 0.0
C917 C 0.52644 0.03436 0.67651 0.0
C918 C 0.4897 0.01767 0.68591 0.0
C919 C 0.48077 0.04144 0.69965 0.0
C920 C 0.4462 0.02546 0.70859 0.0
C921 C 0.42017 0.98579 0.70374 0.0
C922 C 0.42861 0.96203 0.68989 0.0
C923 C 0.46318 0.97786 0.68094 0.0
H924 H 0.39341 0.97347 0.71067 0.0
H925 H 0.72616 0.13579 0.62141 0.0
H926 H 0.60092 0.62066 0.89893 0.0
H927 H 0.5961 0.62634 0.93827 0.0
H928 H 0.47645 0.53778 0.92511 0.0
H929 H 0.48077 0.5324 0.88565 0.0
H930 H 0.48849 0.5942 0.95826 0.0
H931 H 0.54182 0.51471 0.93973 0.0
H932 H 0.58635 0.49767 0.92318 0.0
H933 H 0.68157 0.59356 0.96559 0.0
H934 H 0.63767 0.61162 0.98212 0.0
H935 H 0.47968 0.53549 0.06568 0.0
H936 H 0.47486 0.54101 0.02657 0.0
H937 H 0.59279 0.63386 0.03615 0.0
H938 H 0.59765 0.62857 0.07509 0.0
H939 H 0.57876 0.57369 0.00452 0.0
H940 H 0.52182 0.65101 0.02371 0.0
H941 H 0.4748 0.6647 0.03978 0.0
H942 H 0.38299 0.56745 0.99625 0.0
H943 H 0.42944 0.55284 0.98013 0.0
C944 C 0.5735 0.6026 0.90436 0.0
C945 C 0.54139 0.57569 0.88918 0.0
C946 C 0.57078 0.60587 0.92685 0.0
C947 C 0.53607 0.58201 0.93461 0.0
C948 C 0.50351 0.55638 0.91946 0.0
C949 C 0.50614 0.55324 0.89693 0.0
C950 C 0.53455 0.5821 0.95854 0.0
C951 C 0.50794 0.58936 0.96838 0.0
C952 C 0.56001 0.57583 0.9717 0.0
C953 C 0.58648 0.56474 0.96202 0.0
C954 C 0.57229 0.53233 0.94542 0.0
C955 C 0.59741 0.52247 0.93605 0.0
C956 C 0.63677 0.54457 0.9433 0.0
C957 C 0.65108 0.57651 0.95997 0.0
C958 C 0.62608 0.58656 0.96936 0.0
C959 C 0.50413 0.55782 0.05953 0.0
C960 C 0.53917 0.58131 0.07329 0.0
C961 C 0.5014 0.5609 0.03721 0.0
C962 C 0.53359 0.58766 0.02847 0.0
C963 C 0.56773 0.61284 0.04255 0.0
C964 C 0.57046 0.60979 0.06476 0.0
C965 C 0.53333 0.58671 0.00441 0.0
C966 C 0.55943 0.57881 0.99447 0.0
C967 C 0.50702 0.59178 0.99122 0.0
C968 C 0.47909 0.6006 0.00087 0.0
C969 C 0.49158 0.63233 0.0177 0.0
C970 C 0.46503 0.64031 0.02679 0.0
C971 C 0.42592 0.6169 0.01908 0.0
C972 C 0.41329 0.58552 0.00223 0.0
C973 C 0.43972 0.57741 0.99309 0.0
H974 H 0.40542 0.62312 0.02614 0.0
H975 H 0.65618 0.5369 0.93602 0.0
H976 H 0.98355 0.46466 0.21479 0.0
H977 H 0.98387 0.45992 0.25383 0.0
H978 H 0.05389 0.58392 0.27019 0.0
H979 H 0.05524 0.58865 0.23104 0.0
H980 H 0.07798 0.55332 0.29647 0.0
H981 H 0.95205 0.53008 0.27124 0.0
H982 H 0.89016 0.49655 0.24703 0.0
H983 H 0.86356 0.3897 0.26819 0.0
H984 H 0.92565 0.42239 0.29222 0.0
H985 H 0.03778 0.58757 0.4032 0.0
H986 H 0.03256 0.58016 0.36319 0.0
H987 H 0.99854 0.46037 0.35937 0.0
H988 H 0.00563 0.46789 0.39968 0.0
H989 H 0.9552 0.48223 0.32693 0.0
H990 H 0.08011 0.50684 0.35348 0.0
H991 H 0.14373 0.53983 0.37579 0.0
H992 H 0.17237 0.64468 0.35133 0.0
H993 H 0.10854 0.61255 0.32923 0.0
C994 C 0.9992 0.49092 0.22671 0.0
C995 C 0.01921 0.52708 0.21987 0.0
C996 C 0.99912 0.48818 0.24905 0.0
C997 C 0.01809 0.52161 0.26501 0.0
C998 C 0.03886 0.5577 0.2582 0.0
C999 C 0.03963 0.5604 0.23583 0.0
C1000 C 0.01645 0.51915 0.28881 0.0
C1001 C 0.05106 0.53817 0.30311 0.0
C1002 C 0.98137 0.49822 0.29745 0.0
C1003 C 0.94365 0.47865 0.28339 0.0
C1004 C 0.93309 0.49938 0.27065 0.0
C1005 C 0.898 0.48051 0.25694 0.0
C1006 C 0.87303 0.44097 0.25602 0.0
C1007 C 0.88303 0.42026 0.26887 0.0
C1008 C 0.91814 0.43896 0.28255 0.0
C1009 C 0.02918 0.55957 0.39394 0.0
C1010 C 0.02286 0.5285 0.40474 0.0
C1011 C 0.026 0.55538 0.37106 0.0
C1012 C 0.01566 0.51989 0.35844 0.0
C1013 C 0.00666 0.48803 0.36893 0.0
C1014 C 0.01049 0.49234 0.39195 0.0
C1015 C 0.01664 0.51721 0.33442 0.0
C1016 C 0.982 0.49723 0.32016 0.0
C1017 C 0.05164 0.53741 0.32576 0.0
C1018 C 0.08934 0.55736 0.33987 0.0
C1019 C 0.0997 0.5371 0.35313 0.0
C1020 C 0.13589 0.55559 0.36565 0.0
C1021 C 0.16212 0.59427 0.36489 0.0
C1022 C 0.15206 0.61467 0.35182 0.0
C1023 C 0.11586 0.59635 0.33933 0.0
H1024 H 0.1902 0.60848 0.37451 0.0
H1025 H 0.84588 0.42639 0.24539 0.0
loop_
_geom_bond_atom_site_label_1
_geom_bond_atom_site_label_2
_geom_bond_distance
_geom_bond_site_symmetry_2
_ccdc_geom_bond_type
Zn0 O6 1.969 . S
Zn0 O7 1.965 . S
Zn0 O11 2.024 . S
Zn0 O16 1.969 . S
Zn1 O8 1.969 . S
Zn1 O14 1.969 . S
Zn1 O15 1.965 1_655 S
Zn1 O17 2.024 . S
C2 O3 1.229 . S
C2 O11 1.058 . S
O3 C2 1.229 . S
C4 O5 1.229 . S
C4 O17 1.058 . S
O5 C4 1.229 . S
O6 Zn0 1.969 . S
O6 C9 1.267 . S
O7 Zn0 1.965 . S
O7 C18 1.260 . S
O8 Zn1 1.969 . S
O8 C18 1.258 1_655 S
C9 O6 1.267 . S
C9 O10 1.228 . S
O10 C9 1.228 . S
O11 Zn0 2.024 . S
O11 C2 1.058 . S
C12 O13 1.228 . S
C12 O14 1.267 . S
O13 C12 1.228 . S
O14 Zn1 1.969 . S
O14 C12 1.267 . S
O15 Zn1 1.965 1_455 S
O15 C19 1.260 . S
O16 Zn0 1.969 . S
O16 C19 1.258 . S
O17 Zn1 2.024 . S
O17 C4 1.058 . S
C18 O7 1.260 . S
C18 O8 1.258 1_455 S
C19 O15 1.260 . S
C19 O16 1.258 . S
Zn20 O26 1.969 . S
Zn20 O27 1.965 . S
Zn20 O31 2.024 . S
Zn20 O36 1.969 . S
Zn21 O28 1.969 . S
Zn21 O34 1.969 . S
Zn21 O35 1.965 1_565 S
Zn21 O37 2.024 . S
C22 O23 1.229 . S
C22 O31 1.058 . S
O23 C22 1.229 . S
C24 O25 1.229 . S
C24 O37 1.058 . S
O25 C24 1.229 . S
O26 Zn20 1.969 . S
O26 C29 1.267 . S
O27 Zn20 1.965 . S
O27 C38 1.260 . S
O28 Zn21 1.969 . S
O28 C38 1.258 1_565 S
C29 O26 1.267 . S
C29 O30 1.228 . S
O30 C29 1.228 . S
O31 Zn20 2.024 . S
O31 C22 1.058 . S
C32 O33 1.228 . S
C32 O34 1.267 . S
O33 C32 1.228 . S
O34 Zn21 1.969 . S
O34 C32 1.267 . S
O35 Zn21 1.965 1_545 S
O35 C39 1.260 . S
O36 Zn20 1.969 . S
O36 C39 1.258 . S
O37 Zn21 2.024 . S
O37 C24 1.058 . S
C38 O27 1.260 . S
C38 O28 1.258 1_545 S
C39 O35 1.260 . S
C39 O36 1.258 . S
Zn40 O46 1.969 . S
Zn40 O47 1.965 . S
Zn40 O51 2.024 . S
Zn40 O56 1.969 . S
Zn41 O48 1.969 . S
Zn41 O54 1.969 . S
Zn41 O55 1.965 . S
Zn41 O57 2.024 . S
C42 O43 1.229 . S
C42 O51 1.058 . S
O43 C42 1.229 . S
C44 O45 1.229 . S
C44 O57 1.058 . S
O45 C44 1.229 . S
O46 Zn40 1.969 . S
O46 C49 1.267 . S
O47 Zn40 1.965 . S
O47 C58 1.260 . S
O48 Zn41 1.969 . S
O48 C58 1.258 . S
C49 O46 1.267 . S
C49 O50 1.228 . S
O50 C49 1.228 . S
O51 Zn40 2.024 . S
O51 C42 1.058 . S
C52 O53 1.228 . S
C52 O54 1.267 . S
O53 C52 1.228 . S
O54 Zn41 1.969 . S
O54 C52 1.267 . S
O55 Zn41 1.965 . S
O55 C59 1.260 . S
O56 Zn40 1.969 . S
O56 C59 1.258 . S
O57 Zn41 2.024 . S
O57 C44 1.058 . S
C58 O47 1.260 . S
C58 O48 1.258 . S
C59 O55 1.260 . S
C59 O56 1.258 . S
H60 C63 0.929 . S
H61 C66 0.929 . S
H62 C68 0.930 . S
C63 H60 0.929 . S
C63 C64 1.398 . S
C63 C65 1.396 . S
C64 C63 1.398 . S
C64 C68 1.407 . S
C65 C63 1.396 . S
C65 C66 1.394 . S
C66 H61 0.929 . S
C66 C65 1.394 . S
C66 C67 1.382 . S
C67 C66 1.382 . S
C67 C68 1.392 . S
C67 N69 1.420 . S
C68 H62 0.930 . S
C68 C64 1.407 . S
C68 C67 1.392 . S
N69 C67 1.420 . S
N69 C70 1.244 . S
C70 N69 1.244 . S
H71 C74 0.929 . S
H72 C77 0.929 . S
H73 C79 0.930 . S
C74 H71 0.929 . S
C74 C75 1.398 . S
C74 C76 1.396 . S
C75 C74 1.398 . S
C75 C79 1.407 . S
C76 C74 1.396 . S
C76 C77 1.394 . S
C77 H72 0.929 . S
C77 C76 1.394 . S
C77 C78 1.382 . S
C78 C77 1.382 . S
C78 C79 1.392 . S
C78 N80 1.420 . S
C79 H73 0.930 . S
C79 C75 1.407 . S
C79 C78 1.392 . S
N80 C78 1.420 . S
N80 C81 1.244 . S
C81 N80 1.244 . S
H82 C85 0.929 . S
H83 C88 0.929 . S
H84 C90 0.930 . S
C85 H82 0.929 . S
C85 C86 1.398 . S
C85 C87 1.396 . S
C86 C85 1.398 . S
C86 C90 1.407 . S
C87 C85 1.396 . S
C87 C88 1.394 . S
C88 H83 0.929 . S
C88 C87 1.394 . S
C88 C89 1.382 . S
C89 C88 1.382 . S
C89 C90 1.392 . S
C89 N91 1.420 . S
C90 H84 0.930 . S
C90 C86 1.407 . S
C90 C89 1.392 . S
N91 C89 1.420 . S
N91 C92 1.244 . S
C92 N91 1.244 . S
H93 C96 0.929 . S
H94 C99 0.929 1_655 S
H95 C101 0.930 . S
C96 H93 0.929 . S
C96 C97 1.398 . S
C96 C98 1.396 . S
C97 C96 1.398 . S
C97 C101 1.407 . S
C98 C96 1.396 . S
C98 C99 1.394 . S
C99 H94 0.929 1_455 S
C99 C98 1.394 . S
C99 C100 1.382 . S
C100 C99 1.382 . S
C100 C101 1.392 . S
C100 N102 1.415 1_455 S
C101 H95 0.930 . S
C101 C97 1.407 . S
C101 C100 1.392 . S
N102 C100 1.415 1_655 S
N102 C103 1.264 . S
C103 N102 1.264 . S
H104 C107 0.929 . S
H105 C110 0.922 1_565 S
H106 C112 0.930 . S
C107 H104 0.929 . S
C107 C108 1.398 . S
C107 C109 1.396 . S
C108 C107 1.398 . S
C108 C112 1.407 . S
C109 C107 1.396 . S
C109 C110 1.394 . S
C110 H105 0.922 1_545 S
C110 C109 1.394 . S
C110 C111 1.382 . S
C111 C110 1.382 . S
C111 C112 1.392 . S
C111 N113 1.420 . S
C112 H106 0.930 . S
C112 C108 1.407 . S
C112 C111 1.392 . S
N113 C111 1.420 . S
N113 C114 1.244 1_545 S
C114 N113 1.244 1_565 S
H115 C118 0.929 . S
H116 C121 0.929 . S
H117 C123 0.930 . S
C118 H115 0.929 . S
C118 C119 1.398 . S
C118 C120 1.396 . S
C119 C118 1.398 . S
C119 C123 1.407 . S
C120 C118 1.396 . S
C120 C121 1.394 . S
C121 H116 0.929 . S
C121 C120 1.394 . S
C121 C122 1.382 . S
C122 C121 1.382 . S
C122 C123 1.392 . S
C122 N124 1.420 . S
C123 H117 0.930 . S
C123 C119 1.407 . S
C123 C122 1.392 . S
N124 C122 1.420 . S
N124 C125 1.244 . S
C125 N124 1.244 . S
H126 C144 0.951 . S
H127 C146 0.951 . S
H128 C148 0.950 . S
H129 C149 0.950 . S
H130 C151 0.950 . S
H131 C154 0.950 . S
H132 C155 0.950 . S
H133 C157 0.950 . S
H134 C158 0.950 . S
H135 C159 0.951 . S
H136 C161 0.951 . S
H137 C163 0.950 . S
H138 C164 0.950 . S
H139 C166 0.950 . S
H140 C169 0.950 . S
H141 C170 0.950 . S
H142 C172 0.950 . S
H143 C173 0.950 . S
C144 H126 0.951 . S
C144 C145 1.366 . S
C144 C146 1.388 . S
C145 C144 1.366 . S
C145 C149 1.385 . S
C146 H127 0.951 . S
C146 C144 1.388 . S
C146 C147 1.366 . S
C147 C146 1.366 . S
C147 C148 1.414 . S
C147 C150 1.499 . S
C148 H128 0.950 . S
C148 C147 1.414 . S
C148 C149 1.374 . S
C149 H129 0.950 . S
C149 C145 1.385 . S
C149 C148 1.374 . S
C150 C147 1.499 . S
C150 C151 1.373 . S
C150 C152 1.389 . S
C151 H130 0.950 . S
C151 C150 1.373 . S
C151 C167 1.377 . S
C152 C150 1.389 . S
C152 C153 1.524 . S
C152 C166 1.377 . S
C153 C152 1.524 . S
C153 C154 1.397 . S
C153 C158 1.363 . S
C154 H131 0.950 . S
C154 C153 1.397 . S
C154 C155 1.334 . S
C155 H132 0.950 . S
C155 C154 1.334 . S
C155 C156 1.287 . S
C156 C155 1.287 . S
C156 C157 1.524 . S
C156 H175 0.913 . S
C157 H133 0.950 . S
C157 C156 1.524 . S
C157 C158 1.415 . S
C158 H134 0.950 . S
C158 C153 1.363 . S
C158 C157 1.415 . S
C159 H135 0.951 . S
C159 C160 1.366 . S
C159 C161 1.388 . S
C160 C159 1.366 . S
C160 C164 1.385 . S
C161 H136 0.951 . S
C161 C159 1.388 . S
C161 C162 1.366 . S
C162 C161 1.366 . S
C162 C163 1.414 . S
C162 C165 1.499 . S
C163 H137 0.950 . S
C163 C162 1.414 . S
C163 C164 1.374 . S
C164 H138 0.950 . S
C164 C160 1.385 . S
C164 C163 1.374 . S
C165 C162 1.499 . S
C165 C166 1.373 . S
C165 C167 1.389 . S
C166 H139 0.950 . S
C166 C152 1.377 . S
C166 C165 1.373 . S
C167 C151 1.377 . S
C167 C165 1.389 . S
C167 C168 1.524 . S
C168 C167 1.524 . S
C168 C169 1.397 . S
C168 C173 1.363 . S
C169 H140 0.950 . S
C169 C168 1.397 . S
C169 C170 1.334 . S
C170 H141 0.950 . S
C170 C169 1.334 . S
C170 C171 1.287 . S
C171 C170 1.287 . S
C171 C172 1.524 . S
C171 H174 0.999 . S
C172 H142 0.950 . S
C172 C171 1.524 . S
C172 C173 1.415 . S
C173 H143 0.950 . S
C173 C168 1.363 . S
C173 C172 1.415 . S
H174 C171 0.999 . S
H175 C156 0.913 . S
H176 C194 0.951 . S
H177 C196 0.951 . S
H178 C198 0.950 . S
H179 C199 0.950 . S
H180 C201 0.950 . S
H181 C204 0.950 . S
H182 C205 0.950 . S
H183 C207 0.950 . S
H184 C208 0.950 . S
H185 C209 0.951 . S
H186 C211 0.951 . S
H187 C213 0.950 . S
H188 C214 0.950 . S
H189 C216 0.950 . S
H190 C219 0.950 . S
H191 C220 0.950 . S
H192 C222 0.950 . S
H193 C223 0.950 . S
C194 H176 0.951 . S
C194 C195 1.366 . S
C194 C196 1.388 . S
C195 C194 1.366 . S
C195 C199 1.385 . S
C196 H177 0.951 . S
C196 C194 1.388 . S
C196 C197 1.366 . S
C197 C196 1.366 . S
C197 C198 1.414 . S
C197 C200 1.499 . S
C198 H178 0.950 . S
C198 C197 1.414 . S
C198 C199 1.374 . S
C199 H179 0.950 . S
C199 C195 1.385 . S
C199 C198 1.374 . S
C200 C197 1.499 . S
C200 C201 1.373 . S
C200 C202 1.389 . S
C201 H180 0.950 . S
C201 C200 1.373 . S
C201 C217 1.377 . S
C202 C200 1.389 . S
C202 C203 1.524 . S
C202 C216 1.377 . S
C203 C202 1.524 . S
C203 C204 1.397 . S
C203 C208 1.363 . S
C204 H181 0.950 . S
C204 C203 1.397 . S
C204 C205 1.334 . S
C205 H182 0.950 . S
C205 C204 1.334 . S
C205 C206 1.287 . S
C206 C205 1.287 . S
C206 C207 1.524 . S
C206 H225 0.913 . S
C207 H183 0.950 . S
C207 C206 1.524 . S
C207 C208 1.415 . S
C208 H184 0.950 . S
C208 C203 1.363 . S
C208 C207 1.415 . S
C209 H185 0.951 . S
C209 C210 1.366 . S
C209 C211 1.388 . S
C210 C209 1.366 . S
C210 C214 1.385 . S
C211 H186 0.951 . S
C211 C209 1.388 . S
C211 C212 1.366 . S
C212 C211 1.366 . S
C212 C213 1.414 . S
C212 C215 1.499 . S
C213 H187 0.950 . S
C213 C212 1.414 . S
C213 C214 1.374 . S
C214 H188 0.950 . S
C214 C210 1.385 . S
C214 C213 1.374 . S
C215 C212 1.499 . S
C215 C216 1.373 . S
C215 C217 1.389 . S
C216 H189 0.950 . S
C216 C202 1.377 . S
C216 C215 1.373 . S
C217 C201 1.377 . S
C217 C215 1.389 . S
C217 C218 1.524 . S
C218 C217 1.524 . S
C218 C219 1.397 . S
C218 C223 1.363 . S
C219 H190 0.950 . S
C219 C218 1.397 . S
C219 C220 1.334 . S
C220 H191 0.950 . S
C220 C219 1.334 . S
C220 C221 1.287 . S
C221 C220 1.287 . S
C221 C222 1.524 . S
C221 H224 0.999 . S
C222 H192 0.950 . S
C222 C221 1.524 . S
C222 C223 1.415 . S
C223 H193 0.950 . S
C223 C218 1.363 . S
C223 C222 1.415 . S
H224 C221 0.999 . S
H225 C206 0.913 . S
H226 C244 0.951 . S
H227 C246 0.951 . S
H228 C248 0.950 . S
H229 C249 0.950 . S
H230 C251 0.950 . S
H231 C254 0.950 . S
H232 C255 0.950 . S
H233 C257 0.950 . S
H234 C258 0.950 . S
H235 C259 0.951 . S
H236 C261 0.951 . S
H237 C263 0.950 . S
H238 C264 0.950 . S
H239 C266 0.950 . S
H240 C269 0.950 . S
H241 C270 0.950 . S
H242 C272 0.950 . S
H243 C273 0.950 . S
C244 H226 0.951 . S
C244 C245 1.366 . S
C244 C246 1.388 . S
C245 C244 1.366 . S
C245 C249 1.385 . S
C246 H227 0.951 . S
C246 C244 1.388 . S
C246 C247 1.366 . S
C247 C246 1.366 . S
C247 C248 1.414 . S
C247 C250 1.499 . S
C248 H228 0.950 . S
C248 C247 1.414 . S
C248 C249 1.374 . S
C249 H229 0.950 . S
C249 C245 1.385 . S
C249 C248 1.374 . S
C250 C247 1.499 . S
C250 C251 1.373 . S
C250 C252 1.389 . S
C251 H230 0.950 . S
C251 C250 1.373 . S
C251 C267 1.377 . S
C252 C250 1.389 . S
C252 C253 1.524 . S
C252 C266 1.377 . S
C253 C252 1.524 . S
C253 C254 1.397 . S
C253 C258 1.363 . S
C254 H231 0.950 . S
C254 C253 1.397 . S
C254 C255 1.334 . S
C255 H232 0.950 . S
C255 C254 1.334 . S
C255 C256 1.287 . S
C256 C255 1.287 . S
C256 C257 1.524 . S
C256 H275 0.913 . S
C257 H233 0.950 . S
C257 C256 1.524 . S
C257 C258 1.415 . S
C258 H234 0.950 . S
C258 C253 1.363 . S
C258 C257 1.415 . S
C259 H235 0.951 . S
C259 C260 1.366 . S
C259 C261 1.388 . S
C260 C259 1.366 . S
C260 C264 1.385 . S
C261 H236 0.951 . S
C261 C259 1.388 . S
C261 C262 1.366 . S
C262 C261 1.366 . S
C262 C263 1.414 . S
C262 C265 1.499 . S
C263 H237 0.950 . S
C263 C262 1.414 . S
C263 C264 1.374 . S
C264 H238 0.950 . S
C264 C260 1.385 . S
C264 C263 1.374 . S
C265 C262 1.499 . S
C265 C266 1.373 . S
C265 C267 1.389 . S
C266 H239 0.950 . S
C266 C252 1.377 . S
C266 C265 1.373 . S
C267 C251 1.377 . S
C267 C265 1.389 . S
C267 C268 1.524 . S
C268 C267 1.524 . S
C268 C269 1.397 . S
C268 C273 1.363 . S
C269 H240 0.950 . S
C269 C268 1.397 . S
C269 C270 1.334 . S
C270 H241 0.950 . S
C270 C269 1.334 . S
C270 C271 1.287 . S
C271 C270 1.287 . S
C271 C272 1.524 . S
C271 H274 0.999 . S
C272 H242 0.950 . S
C272 C271 1.524 . S
C272 C273 1.415 . S
C273 H243 0.950 . S
C273 C268 1.363 . S
C273 C272 1.415 . S
H274 C271 0.999 . S
H275 C256 0.913 . S
H276 C294 0.951 . S
H277 C296 0.951 . S
H278 C298 0.950 . S
H279 C299 0.950 . S
H280 C301 0.950 . S
H281 C304 0.950 . S
H282 C305 0.950 . S
H283 C307 0.950 . S
H284 C308 0.950 . S
H285 C309 0.951 . S
H286 C311 0.951 . S
H287 C313 0.950 . S
H288 C314 0.950 . S
H289 C316 0.950 . S
H290 C319 0.950 . S
H291 C320 0.950 . S
H292 C322 0.950 . S
H293 C323 0.950 . S
C294 H276 0.951 . S
C294 C295 1.366 . S
C294 C296 1.388 . S
C295 C294 1.366 . S
C295 C299 1.385 . S
C296 H277 0.951 . S
C296 C294 1.388 . S
C296 C297 1.366 . S
C297 C296 1.366 . S
C297 C298 1.414 . S
C297 C300 1.499 . S
C298 H278 0.950 . S
C298 C297 1.414 . S
C298 C299 1.374 . S
C299 H279 0.950 . S
C299 C295 1.385 . S
C299 C298 1.374 . S
C300 C297 1.499 . S
C300 C301 1.373 . S
C300 C302 1.389 . S
C301 H280 0.950 . S
C301 C300 1.373 . S
C301 C317 1.377 . S
C302 C300 1.389 . S
C302 C303 1.524 . S
C302 C316 1.377 . S
C303 C302 1.524 . S
C303 C304 1.397 . S
C303 C308 1.363 . S
C304 H281 0.950 . S
C304 C303 1.397 . S
C304 C305 1.334 . S
C305 H282 0.950 . S
C305 C304 1.334 . S
C305 C306 1.287 . S
C306 C305 1.287 . S
C306 C307 1.524 . S
C306 H325 0.913 . S
C307 H283 0.950 . S
C307 C306 1.524 . S
C307 C308 1.415 . S
C308 H284 0.950 . S
C308 C303 1.363 . S
C308 C307 1.415 . S
C309 H285 0.951 . S
C309 C310 1.366 . S
C309 C311 1.388 . S
C310 C309 1.366 . S
C310 C314 1.385 . S
C311 H286 0.951 . S
C311 C309 1.388 . S
C311 C312 1.366 . S
C312 C311 1.366 . S
C312 C313 1.414 . S
C312 C315 1.499 . S
C313 H287 0.950 . S
C313 C312 1.414 . S
C313 C314 1.374 . S
C314 H288 0.950 . S
C314 C310 1.385 . S
C314 C313 1.374 . S
C315 C312 1.499 . S
C315 C316 1.373 . S
C315 C317 1.389 . S
C316 H289 0.950 . S
C316 C302 1.377 . S
C316 C315 1.373 . S
C317 C301 1.377 . S
C317 C315 1.389 . S
C317 C318 1.524 . S
C318 C317 1.524 . S
C318 C319 1.397 . S
C318 C323 1.363 . S
C319 H290 0.950 . S
C319 C318 1.397 . S
C319 C320 1.334 . S
C320 H291 0.950 . S
C320 C319 1.334 . S
C320 C321 1.287 . S
C321 C320 1.287 . S
C321 C322 1.524 . S
C321 H324 0.999 . S
C322 H292 0.950 . S
C322 C321 1.524 . S
C322 C323 1.415 . S
C323 H293 0.950 . S
C323 C318 1.363 . S
C323 C322 1.415 . S
H324 C321 0.999 . S
H325 C306 0.913 . S
H326 C344 0.951 . S
H327 C346 0.951 . S
H328 C348 0.950 . S
H329 C349 0.950 . S
H330 C351 0.950 . S
H331 C354 0.950 . S
H332 C355 0.950 . S
H333 C357 0.950 . S
H334 C358 0.950 . S
H335 C359 0.951 . S
H336 C361 0.951 . S
H337 C363 0.950 . S
H338 C364 0.950 . S
H339 C366 0.950 . S
H340 C369 0.950 . S
H341 C370 0.950 . S
H342 C372 0.950 . S
H343 C373 0.950 . S
C344 H326 0.951 . S
C344 C345 1.366 . S
C344 C346 1.388 . S
C345 C344 1.366 . S
C345 C349 1.385 . S
C346 H327 0.951 . S
C346 C344 1.388 . S
C346 C347 1.366 . S
C347 C346 1.366 . S
C347 C348 1.414 . S
C347 C350 1.499 . S
C348 H328 0.950 . S
C348 C347 1.414 . S
C348 C349 1.374 . S
C349 H329 0.950 . S
C349 C345 1.385 . S
C349 C348 1.374 . S
C350 C347 1.499 . S
C350 C351 1.373 . S
C350 C352 1.389 . S
C351 H330 0.950 . S
C351 C350 1.373 . S
C351 C367 1.377 . S
C352 C350 1.389 . S
C352 C353 1.524 . S
C352 C366 1.377 . S
C353 C352 1.524 . S
C353 C354 1.397 . S
C353 C358 1.363 . S
C354 H331 0.950 . S
C354 C353 1.397 . S
C354 C355 1.334 . S
C355 H332 0.950 . S
C355 C354 1.334 . S
C355 C356 1.287 . S
C356 C355 1.287 . S
C356 C357 1.524 . S
C356 H375 0.913 . S
C357 H333 0.950 . S
C357 C356 1.524 . S
C357 C358 1.415 . S
C358 H334 0.950 . S
C358 C353 1.363 . S
C358 C357 1.415 . S
C359 H335 0.951 . S
C359 C360 1.366 . S
C359 C361 1.388 . S
C360 C359 1.366 . S
C360 C364 1.385 . S
C361 H336 0.951 . S
C361 C359 1.388 . S
C361 C362 1.366 . S
C362 C361 1.366 . S
C362 C363 1.414 . S
C362 C365 1.499 . S
C363 H337 0.950 . S
C363 C362 1.414 . S
C363 C364 1.374 . S
C364 H338 0.950 . S
C364 C360 1.385 . S
C364 C363 1.374 . S
C365 C362 1.499 . S
C365 C366 1.373 . S
C365 C367 1.389 . S
C366 H339 0.950 . S
C366 C352 1.377 . S
C366 C365 1.373 . S
C367 C351 1.377 . S
C367 C365 1.389 . S
C367 C368 1.524 . S
C368 C367 1.524 . S
C368 C369 1.397 . S
C368 C373 1.363 . S
C369 H340 0.950 . S
C369 C368 1.397 . S
C369 C370 1.334 . S
C370 H341 0.950 . S
C370 C369 1.334 . S
C370 C371 1.287 . S
C371 C370 1.287 . S
C371 C372 1.524 . S
C371 H374 0.999 . S
C372 H342 0.950 . S
C372 C371 1.524 . S
C372 C373 1.415 . S
C373 H343 0.950 . S
C373 C368 1.363 . S
C373 C372 1.415 . S
H374 C371 0.999 . S
H375 C356 0.913 . S
H376 C394 0.951 . S
H377 C396 0.951 . S
H378 C398 0.950 . S
H379 C399 0.950 . S
H380 C401 0.950 . S
H381 C404 0.950 . S
H382 C405 0.950 . S
H383 C407 0.950 . S
H384 C408 0.950 . S
H385 C409 0.951 . S
H386 C411 0.951 . S
H387 C413 0.950 . S
H388 C414 0.950 . S
H389 C416 0.950 . S
H390 C419 0.950 . S
H391 C420 0.950 . S
H392 C422 0.950 . S
H393 C423 0.950 . S
C394 H376 0.951 . S
C394 C395 1.366 . S
C394 C396 1.388 . S
C395 C394 1.366 . S
C395 C399 1.385 . S
C396 H377 0.951 . S
C396 C394 1.388 . S
C396 C397 1.366 . S
C397 C396 1.366 . S
C397 C398 1.414 . S
C397 C400 1.499 . S
C398 H378 0.950 . S
C398 C397 1.414 . S
C398 C399 1.374 . S
C399 H379 0.950 . S
C399 C395 1.385 . S
C399 C398 1.374 . S
C400 C397 1.499 . S
C400 C401 1.373 . S
C400 C402 1.389 . S
C401 H380 0.950 . S
C401 C400 1.373 . S
C401 C417 1.377 . S
C402 C400 1.389 . S
C402 C403 1.524 . S
C402 C416 1.377 . S
C403 C402 1.524 . S
C403 C404 1.397 . S
C403 C408 1.363 . S
C404 H381 0.950 . S
C404 C403 1.397 . S
C404 C405 1.334 . S
C405 H382 0.950 . S
C405 C404 1.334 . S
C405 C406 1.287 . S
C406 C405 1.287 . S
C406 C407 1.524 . S
C406 H425 0.913 . S
C407 H383 0.950 . S
C407 C406 1.524 . S
C407 C408 1.415 . S
C408 H384 0.950 . S
C408 C403 1.363 . S
C408 C407 1.415 . S
C409 H385 0.951 . S
C409 C410 1.366 . S
C409 C411 1.388 . S
C410 C409 1.366 . S
C410 C414 1.385 . S
C411 H386 0.951 . S
C411 C409 1.388 . S
C411 C412 1.366 . S
C412 C411 1.366 . S
C412 C413 1.414 . S
C412 C415 1.499 . S
C413 H387 0.950 . S
C413 C412 1.414 . S
C413 C414 1.374 . S
C414 H388 0.950 . S
C414 C410 1.385 . S
C414 C413 1.374 . S
C415 C412 1.499 . S
C415 C416 1.373 . S
C415 C417 1.389 . S
C416 H389 0.950 . S
C416 C402 1.377 . S
C416 C415 1.373 . S
C417 C401 1.377 . S
C417 C415 1.389 . S
C417 C418 1.524 . S
C418 C417 1.524 . S
C418 C419 1.397 . S
C418 C423 1.363 . S
C419 H390 0.950 . S
C419 C418 1.397 . S
C419 C420 1.334 . S
C420 H391 0.950 . S
C420 C419 1.334 . S
C420 C421 1.287 . S
C421 C420 1.287 . S
C421 C422 1.524 . S
C421 H424 0.999 . S
C422 H392 0.950 . S
C422 C421 1.524 . S
C422 C423 1.415 . S
C423 H393 0.950 . S
C423 C418 1.363 . S
C423 C422 1.415 . S
H424 C421 0.999 . S
H425 C406 0.913 . S
H426 C444 0.951 . S
H427 C446 0.951 . S
H428 C448 0.950 . S
H429 C449 0.950 . S
H430 C451 0.950 . S
H431 C454 0.950 . S
H432 C455 0.950 . S
H433 C457 0.950 . S
H434 C458 0.950 . S
H435 C459 0.951 . S
H436 C461 0.951 . S
H437 C463 0.950 . S
H438 C464 0.950 . S
H439 C466 0.950 . S
H440 C469 0.950 . S
H441 C470 0.950 . S
H442 C472 0.950 . S
H443 C473 0.950 . S
C444 H426 0.951 . S
C444 C445 1.366 . S
C444 C446 1.388 . S
C445 C444 1.366 . S
C445 C449 1.385 . S
C446 H427 0.951 . S
C446 C444 1.388 . S
C446 C447 1.366 . S
C447 C446 1.366 . S
C447 C448 1.414 . S
C447 C450 1.499 . S
C448 H428 0.950 . S
C448 C447 1.414 . S
C448 C449 1.374 . S
C449 H429 0.950 . S
C449 C445 1.385 . S
C449 C448 1.374 . S
C450 C447 1.499 . S
C450 C451 1.373 . S
C450 C452 1.389 . S
C451 H430 0.950 . S
C451 C450 1.373 . S
C451 C467 1.377 . S
C452 C450 1.389 . S
C452 C453 1.524 . S
C452 C466 1.377 . S
C453 C452 1.524 . S
C453 C454 1.397 . S
C453 C458 1.363 . S
C454 H431 0.950 . S
C454 C453 1.397 . S
C454 C455 1.334 . S
C455 H432 0.950 . S
C455 C454 1.334 . S
C455 C456 1.287 . S
C456 C455 1.287 . S
C456 C457 1.524 . S
C456 H475 0.913 . S
C457 H433 0.950 . S
C457 C456 1.524 . S
C457 C458 1.415 . S
C458 H434 0.950 . S
C458 C453 1.363 . S
C458 C457 1.415 . S
C459 H435 0.951 . S
C459 C460 1.366 . S
C459 C461 1.388 . S
C460 C459 1.366 . S
C460 C464 1.385 . S
C461 H436 0.951 . S
C461 C459 1.388 . S
C461 C462 1.366 . S
C462 C461 1.366 . S
C462 C463 1.414 . S
C462 C465 1.499 . S
C463 H437 0.950 . S
C463 C462 1.414 . S
C463 C464 1.374 . S
C464 H438 0.950 . S
C464 C460 1.385 . S
C464 C463 1.374 . S
C465 C462 1.499 . S
C465 C466 1.373 . S
C465 C467 1.389 . S
C466 H439 0.950 . S
C466 C452 1.377 . S
C466 C465 1.373 . S
C467 C451 1.377 . S
C467 C465 1.389 . S
C467 C468 1.524 . S
C468 C467 1.524 . S
C468 C469 1.397 . S
C468 C473 1.363 . S
C469 H440 0.950 . S
C469 C468 1.397 . S
C469 C470 1.334 . S
C470 H441 0.950 . S
C470 C469 1.334 . S
C470 C471 1.287 . S
C471 C470 1.287 . S
C471 C472 1.524 . S
C471 H474 0.999 . S
C472 H442 0.950 . S
C472 C471 1.524 . S
C472 C473 1.415 . S
C473 H443 0.950 . S
C473 C468 1.363 . S
C473 C472 1.415 . S
H474 C471 0.999 . S
H475 C456 0.913 . S
H476 C494 0.951 . S
H477 C496 0.951 . S
H478 C498 0.950 . S
H479 C499 0.950 . S
H480 C501 0.950 . S
H481 C504 0.950 . S
H482 C505 0.950 . S
H483 C507 0.950 . S
H484 C508 0.950 . S
H485 C509 0.951 . S
H486 C511 0.951 . S
H487 C513 0.950 . S
H488 C514 0.950 1_455 S
H489 C516 0.950 . S
H490 C519 0.950 . S
H491 C520 0.950 . S
H492 C522 0.950 . S
H493 C523 0.950 . S
C494 H476 0.951 . S
C494 C495 1.366 . S
C494 C496 1.388 . S
C495 C494 1.366 . S
C495 C499 1.385 . S
C496 H477 0.951 . S
C496 C494 1.388 . S
C496 C497 1.366 . S
C497 C496 1.366 . S
C497 C498 1.414 . S
C497 C500 1.499 . S
C498 H478 0.950 . S
C498 C497 1.414 . S
C498 C499 1.374 . S
C499 H479 0.950 . S
C499 C495 1.385 . S
C499 C498 1.374 . S
C500 C497 1.499 . S
C500 C501 1.373 . S
C500 C502 1.389 . S
C501 H480 0.950 . S
C501 C500 1.373 . S
C501 C517 1.377 . S
C502 C500 1.389 . S
C502 C503 1.524 . S
C502 C516 1.377 . S
C503 C502 1.524 . S
C503 C504 1.397 . S
C503 C508 1.363 . S
C504 H481 0.950 . S
C504 C503 1.397 . S
C504 C505 1.334 . S
C505 H482 0.950 . S
C505 C504 1.334 . S
C505 C506 1.287 . S
C506 C505 1.287 . S
C506 C507 1.524 . S
C506 H525 0.913 . S
C507 H483 0.950 . S
C507 C506 1.524 . S
C507 C508 1.415 . S
C508 H484 0.950 . S
C508 C503 1.363 . S
C508 C507 1.415 . S
C509 H485 0.951 . S
C509 C510 1.366 . S
C509 C511 1.388 . S
C510 C509 1.366 . S
C510 C514 1.385 . S
C511 H486 0.951 . S
C511 C509 1.388 . S
C511 C512 1.366 . S
C512 C511 1.366 . S
C512 C513 1.414 . S
C512 C515 1.499 . S
C513 H487 0.950 . S
C513 C512 1.414 . S
C513 C514 1.374 . S
C514 H488 0.950 1_655 S
C514 C510 1.385 . S
C514 C513 1.374 . S
C515 C512 1.499 . S
C515 C516 1.373 . S
C515 C517 1.389 . S
C516 H489 0.950 . S
C516 C502 1.377 . S
C516 C515 1.373 . S
C517 C501 1.377 . S
C517 C515 1.389 . S
C517 C518 1.524 . S
C518 C517 1.524 . S
C518 C519 1.397 . S
C518 C523 1.363 . S
C519 H490 0.950 . S
C519 C518 1.397 . S
C519 C520 1.334 . S
C520 H491 0.950 . S
C520 C519 1.334 . S
C520 C521 1.287 . S
C521 C520 1.287 . S
C521 C522 1.524 . S
C521 H524 0.999 . S
C522 H492 0.950 . S
C522 C521 1.524 . S
C522 C523 1.415 . S
C523 H493 0.950 . S
C523 C518 1.363 . S
C523 C522 1.415 . S
H524 C521 0.999 . S
H525 C506 0.913 . S
H526 C544 0.951 . S
H527 C546 0.951 . S
H528 C548 0.950 . S
H529 C549 0.950 . S
H530 C551 0.950 . S
H531 C554 0.950 . S
H532 C555 0.950 . S
H533 C557 0.950 . S
H534 C558 0.950 . S
H535 C559 0.951 1_545 S
H536 C561 0.951 . S
H537 C563 0.950 . S
H538 C564 0.950 . S
H539 C566 0.950 . S
H540 C569 0.950 . S
H541 C570 0.950 . S
H542 C572 0.950 . S
H543 C573 0.950 . S
C544 H526 0.951 . S
C544 C545 1.366 . S
C544 C546 1.388 . S
C545 C544 1.366 . S
C545 C549 1.385 . S
C546 H527 0.951 . S
C546 C544 1.388 . S
C546 C547 1.366 . S
C547 C546 1.366 . S
C547 C548 1.414 . S
C547 C550 1.499 . S
C548 H528 0.950 . S
C548 C547 1.414 . S
C548 C549 1.374 . S
C549 H529 0.950 . S
C549 C545 1.385 . S
C549 C548 1.374 . S
C550 C547 1.499 . S
C550 C551 1.373 . S
C550 C552 1.389 . S
C551 H530 0.950 . S
C551 C550 1.373 . S
C551 C567 1.377 . S
C552 C550 1.389 . S
C552 C553 1.524 . S
C552 C566 1.377 . S
C553 C552 1.524 . S
C553 C554 1.397 . S
C553 C558 1.363 . S
C554 H531 0.950 . S
C554 C553 1.397 . S
C554 C555 1.334 . S
C555 H532 0.950 . S
C555 C554 1.334 . S
C555 C556 1.287 . S
C556 C555 1.287 . S
C556 C557 1.524 . S
C556 H575 0.913 . S
C557 H533 0.950 . S
C557 C556 1.524 . S
C557 C558 1.415 . S
C558 H534 0.950 . S
C558 C553 1.363 . S
C558 C557 1.415 . S
C559 H535 0.951 1_565 S
C559 C560 1.366 . S
C559 C561 1.388 . S
C560 C559 1.366 . S
C560 C564 1.385 . S
C561 H536 0.951 . S
C561 C559 1.388 . S
C561 C562 1.366 . S
C562 C561 1.366 . S
C562 C563 1.414 . S
C562 C565 1.499 . S
C563 H537 0.950 . S
C563 C562 1.414 . S
C563 C564 1.374 . S
C564 H538 0.950 . S
C564 C560 1.385 . S
C564 C563 1.374 . S
C565 C562 1.499 . S
C565 C566 1.373 . S
C565 C567 1.389 . S
C566 H539 0.950 . S
C566 C552 1.377 . S
C566 C565 1.373 . S
C567 C551 1.377 . S
C567 C565 1.389 . S
C567 C568 1.524 . S
C568 C567 1.524 . S
C568 C569 1.397 . S
C568 C573 1.363 . S
C569 H540 0.950 . S
C569 C568 1.397 . S
C569 C570 1.334 . S
C570 H541 0.950 . S
C570 C569 1.334 . S
C570 C571 1.287 . S
C571 C570 1.287 . S
C571 C572 1.524 . S
C571 H574 0.999 . S
C572 H542 0.950 . S
C572 C571 1.524 . S
C572 C573 1.415 . S
C573 H543 0.950 . S
C573 C568 1.363 . S
C573 C572 1.415 . S
H574 C571 0.999 . S
H575 C556 0.913 . S
H576 C594 0.951 . S
H577 C596 0.951 . S
H578 C598 0.950 . S
H579 C599 0.950 . S
H580 C601 0.950 . S
H581 C604 0.950 . S
H582 C605 0.950 . S
H583 C607 0.950 . S
H584 C608 0.950 . S
H585 C609 0.951 . S
H586 C611 0.951 . S
H587 C613 0.950 . S
H588 C614 0.950 . S
H589 C616 0.950 . S
H590 C619 0.950 . S
H591 C620 0.950 . S
H592 C622 0.950 . S
H593 C623 0.950 . S
C594 H576 0.951 . S
C594 C595 1.366 . S
C594 C596 1.388 . S
C595 C594 1.366 . S
C595 C599 1.385 . S
C596 H577 0.951 . S
C596 C594 1.388 . S
C596 C597 1.366 . S
C597 C596 1.366 . S
C597 C598 1.414 . S
C597 C600 1.499 . S
C598 H578 0.950 . S
C598 C597 1.414 . S
C598 C599 1.374 . S
C599 H579 0.950 . S
C599 C595 1.385 . S
C599 C598 1.374 . S
C600 C597 1.499 . S
C600 C601 1.373 . S
C600 C602 1.389 . S
C601 H580 0.950 . S
C601 C600 1.373 . S
C601 C617 1.377 . S
C602 C600 1.389 . S
C602 C603 1.524 . S
C602 C616 1.377 . S
C603 C602 1.524 . S
C603 C604 1.397 . S
C603 C608 1.363 . S
C604 H581 0.950 . S
C604 C603 1.397 . S
C604 C605 1.334 . S
C605 H582 0.950 . S
C605 C604 1.334 . S
C605 C606 1.287 . S
C606 C605 1.287 . S
C606 C607 1.524 . S
C606 H625 0.913 . S
C607 H583 0.950 . S
C607 C606 1.524 . S
C607 C608 1.415 . S
C608 H584 0.950 . S
C608 C603 1.363 . S
C608 C607 1.415 . S
C609 H585 0.951 . S
C609 C610 1.366 . S
C609 C611 1.388 . S
C610 C609 1.366 . S
C610 C614 1.385 . S
C611 H586 0.951 . S
C611 C609 1.388 . S
C611 C612 1.366 . S
C612 C611 1.366 . S
C612 C613 1.414 . S
C612 C615 1.499 . S
C613 H587 0.950 . S
C613 C612 1.414 . S
C613 C614 1.374 . S
C614 H588 0.950 . S
C614 C610 1.385 . S
C614 C613 1.374 . S
C615 C612 1.499 . S
C615 C616 1.373 . S
C615 C617 1.389 . S
C616 H589 0.950 . S
C616 C602 1.377 . S
C616 C615 1.373 . S
C617 C601 1.377 . S
C617 C615 1.389 . S
C617 C618 1.524 . S
C618 C617 1.524 . S
C618 C619 1.397 . S
C618 C623 1.363 . S
C619 H590 0.950 . S
C619 C618 1.397 . S
C619 C620 1.334 . S
C620 H591 0.950 . S
C620 C619 1.334 . S
C620 C621 1.287 . S
C621 C620 1.287 . S
C621 C622 1.524 . S
C621 H624 0.999 . S
C622 H592 0.950 . S
C622 C621 1.524 . S
C622 C623 1.415 . S
C623 H593 0.950 . S
C623 C618 1.363 . S
C623 C622 1.415 . S
H624 C621 0.999 . S
H625 C606 0.913 . S
H626 C644 0.951 . S
H627 C646 0.951 . S
H628 C648 0.950 . S
H629 C649 0.950 . S
H630 C651 0.950 . S
H631 C654 0.950 . S
H632 C655 0.950 . S
H633 C657 0.950 . S
H634 C658 0.950 . S
H635 C659 0.951 . S
H636 C661 0.951 . S
H637 C663 0.950 . S
H638 C664 0.950 . S
H639 C666 0.950 . S
H640 C669 0.950 . S
H641 C670 0.950 . S
H642 C672 0.950 . S
H643 C673 0.950 . S
C644 H626 0.951 . S
C644 C645 1.366 . S
C644 C646 1.388 . S
C645 C644 1.366 . S
C645 C649 1.385 . S
C646 H627 0.951 . S
C646 C644 1.388 . S
C646 C647 1.366 . S
C647 C646 1.366 . S
C647 C648 1.414 . S
C647 C650 1.499 . S
C648 H628 0.950 . S
C648 C647 1.414 . S
C648 C649 1.374 . S
C649 H629 0.950 . S
C649 C645 1.385 . S
C649 C648 1.374 . S
C650 C647 1.499 . S
C650 C651 1.373 . S
C650 C652 1.389 . S
C651 H630 0.950 . S
C651 C650 1.373 . S
C651 C667 1.377 . S
C652 C650 1.389 . S
C652 C653 1.524 . S
C652 C666 1.377 . S
C653 C652 1.524 . S
C653 C654 1.397 . S
C653 C658 1.363 . S
C654 H631 0.950 . S
C654 C653 1.397 . S
C654 C655 1.334 . S
C655 H632 0.950 . S
C655 C654 1.334 . S
C655 C656 1.287 . S
C656 C655 1.287 . S
C656 C657 1.524 . S
C656 H675 0.913 . S
C657 H633 0.950 . S
C657 C656 1.524 . S
C657 C658 1.415 . S
C658 H634 0.950 . S
C658 C653 1.363 . S
C658 C657 1.415 . S
C659 H635 0.951 . S
C659 C660 1.366 . S
C659 C661 1.388 . S
C660 C659 1.366 . S
C660 C664 1.385 . S
C661 H636 0.951 . S
C661 C659 1.388 . S
C661 C662 1.366 . S
C662 C661 1.366 . S
C662 C663 1.414 . S
C662 C665 1.499 . S
C663 H637 0.950 . S
C663 C662 1.414 . S
C663 C664 1.374 . S
C664 H638 0.950 . S
C664 C660 1.385 . S
C664 C663 1.374 . S
C665 C662 1.499 . S
C665 C666 1.373 . S
C665 C667 1.389 . S
C666 H639 0.950 . S
C666 C652 1.377 . S
C666 C665 1.373 . S
C667 C651 1.377 . S
C667 C665 1.389 . S
C667 C668 1.524 . S
C668 C667 1.524 . S
C668 C669 1.397 . S
C668 C673 1.363 . S
C669 H640 0.950 . S
C669 C668 1.397 . S
C669 C670 1.334 . S
C670 H641 0.950 . S
C670 C669 1.334 . S
C670 C671 1.287 . S
C671 C670 1.287 . S
C671 C672 1.524 . S
C671 H674 0.999 . S
C672 H642 0.950 . S
C672 C671 1.524 . S
C672 C673 1.415 . S
C673 H643 0.950 . S
C673 C668 1.363 . S
C673 C672 1.415 . S
H674 C671 0.999 . S
H675 C656 0.913 . S
H676 C694 0.951 . S
H677 C696 0.951 . S
H678 C698 0.950 . S
H679 C699 0.950 . S
H680 C701 0.950 . S
H681 C704 0.950 . S
H682 C705 0.950 . S
H683 C707 0.950 . S
H684 C708 0.950 . S
H685 C709 0.951 . S
H686 C711 0.951 . S
H687 C713 0.950 . S
H688 C714 0.950 . S
H689 C716 0.950 . S
H690 C719 0.950 . S
H691 C720 0.950 . S
H692 C722 0.950 . S
H693 C723 0.950 . S
C694 H676 0.951 . S
C694 C695 1.366 . S
C694 C696 1.388 . S
C695 C694 1.366 . S
C695 C699 1.385 . S
C696 H677 0.951 . S
C696 C694 1.388 . S
C696 C697 1.366 . S
C697 C696 1.366 . S
C697 C698 1.414 . S
C697 C700 1.499 . S
C698 H678 0.950 . S
C698 C697 1.414 . S
C698 C699 1.374 . S
C699 H679 0.950 . S
C699 C695 1.385 . S
C699 C698 1.374 . S
C700 C697 1.499 . S
C700 C701 1.373 . S
C700 C702 1.389 . S
C701 H680 0.950 . S
C701 C700 1.373 . S
C701 C717 1.377 . S
C702 C700 1.389 . S
C702 C703 1.524 . S
C702 C716 1.377 . S
C703 C702 1.524 . S
C703 C704 1.397 . S
C703 C708 1.363 . S
C704 H681 0.950 . S
C704 C703 1.397 . S
C704 C705 1.334 . S
C705 H682 0.950 . S
C705 C704 1.334 . S
C705 C706 1.287 . S
C706 C705 1.287 . S
C706 C707 1.524 . S
C706 H725 0.913 . S
C707 H683 0.950 . S
C707 C706 1.524 . S
C707 C708 1.415 . S
C708 H684 0.950 . S
C708 C703 1.363 . S
C708 C707 1.415 . S
C709 H685 0.951 . S
C709 C710 1.366 . S
C709 C711 1.388 . S
C710 C709 1.366 . S
C710 C714 1.385 . S
C711 H686 0.951 . S
C711 C709 1.388 . S
C711 C712 1.366 . S
C712 C711 1.366 . S
C712 C713 1.414 . S
C712 C715 1.499 . S
C713 H687 0.950 . S
C713 C712 1.414 . S
C713 C714 1.374 . S
C714 H688 0.950 . S
C714 C710 1.385 . S
C714 C713 1.374 . S
C715 C712 1.499 . S
C715 C716 1.373 . S
C715 C717 1.389 . S
C716 H689 0.950 . S
C716 C702 1.377 . S
C716 C715 1.373 . S
C717 C701 1.377 . S
C717 C715 1.389 . S
C717 C718 1.524 . S
C718 C717 1.524 . S
C718 C719 1.397 . S
C718 C723 1.363 . S
C719 H690 0.950 . S
C719 C718 1.397 . S
C719 C720 1.334 . S
C720 H691 0.950 . S
C720 C719 1.334 . S
C720 C721 1.287 . S
C721 C720 1.287 . S
C721 C722 1.524 . S
C721 H724 0.999 . S
C722 H692 0.950 . S
C722 C721 1.524 . S
C722 C723 1.415 . S
C723 H693 0.950 . S
C723 C718 1.363 . S
C723 C722 1.415 . S
H724 C721 0.999 . S
H725 C706 0.913 . S
H726 C744 0.951 . S
H727 C746 0.951 . S
H728 C748 0.950 . S
H729 C749 0.950 . S
H730 C751 0.950 . S
H731 C754 0.950 . S
H732 C755 0.950 . S
H733 C757 0.950 . S
H734 C758 0.950 . S
H735 C759 0.951 . S
H736 C761 0.951 . S
H737 C763 0.950 . S
H738 C764 0.950 . S
H739 C766 0.950 1_656 S
H740 C769 0.950 . S
H741 C770 0.950 . S
H742 C772 0.950 . S
H743 C773 0.950 . S
C744 H726 0.951 . S
C744 C745 1.366 . S
C744 C746 1.388 . S
C745 C744 1.366 . S
C745 C749 1.385 . S
C746 H727 0.951 . S
C746 C744 1.388 . S
C746 C747 1.366 . S
C747 C746 1.366 . S
C747 C748 1.414 . S
C747 C750 1.499 . S
C748 H728 0.950 . S
C748 C747 1.414 . S
C748 C749 1.374 . S
C749 H729 0.950 . S
C749 C745 1.385 . S
C749 C748 1.374 . S
C750 C747 1.499 . S
C750 C751 1.373 . S
C750 C752 1.389 . S
C751 H730 0.950 . S
C751 C750 1.373 . S
C751 C767 1.377 . S
C752 C750 1.389 . S
C752 C753 1.524 1_455 S
C752 C766 1.377 . S
C753 C752 1.524 1_655 S
C753 C754 1.397 . S
C753 C758 1.363 . S
C754 H731 0.950 . S
C754 C753 1.397 . S
C754 C755 1.334 . S
C755 H732 0.950 . S
C755 C754 1.334 . S
C755 C756 1.287 . S
C756 C755 1.287 . S
C756 C757 1.524 . S
C756 H775 0.913 . S
C757 H733 0.950 . S
C757 C756 1.524 . S
C757 C758 1.415 . S
C758 H734 0.950 . S
C758 C753 1.363 . S
C758 C757 1.415 . S
C759 H735 0.951 . S
C759 C760 1.366 . S
C759 C761 1.388 . S
C760 C759 1.366 . S
C760 C764 1.385 . S
C761 H736 0.951 . S
C761 C759 1.388 . S
C761 C762 1.366 . S
C762 C761 1.366 . S
C762 C763 1.414 . S
C762 C765 1.499 . S
C763 H737 0.950 . S
C763 C762 1.414 . S
C763 C764 1.374 . S
C764 H738 0.950 . S
C764 C760 1.385 . S
C764 C763 1.374 . S
C765 C762 1.499 . S
C765 C766 1.373 1_556 S
C765 C767 1.389 1_556 S
C766 H739 0.950 1_454 S
C766 C752 1.377 . S
C766 C765 1.373 1_554 S
C767 C751 1.377 . S
C767 C765 1.389 1_554 S
C767 C768 1.524 . S
C768 C767 1.524 . S
C768 C769 1.397 1_554 S
C768 C773 1.363 . S
C769 H740 0.950 . S
C769 C768 1.397 1_556 S
C769 C770 1.334 . S
C770 H741 0.950 . S
C770 C769 1.334 . S
C770 C771 1.287 . S
C771 C770 1.287 . S
C771 C772 1.524 1_556 S
C771 H774 0.999 . S
C772 H742 0.950 . S
C772 C771 1.524 1_554 S
C772 C773 1.415 . S
C773 H743 0.950 . S
C773 C768 1.363 . S
C773 C772 1.415 . S
H774 C771 0.999 . S
H775 C756 0.913 . S
H776 C794 0.951 . S
H777 C796 0.951 . S
H778 C798 0.950 . S
H779 C799 0.950 . S
H780 C801 0.950 . S
H781 C804 0.950 . S
H782 C805 0.950 . S
H783 C807 0.950 . S
H784 C808 0.950 . S
H785 C809 0.951 . S
H786 C811 0.951 . S
H787 C813 0.950 . S
H788 C814 0.950 . S
H789 C816 0.950 1_565 S
H790 C819 0.950 . S
H791 C820 0.950 . S
H792 C822 0.950 . S
H793 C823 0.950 . S
C794 H776 0.951 . S
C794 C795 1.366 . S
C794 C796 1.388 . S
C795 C794 1.366 . S
C795 C799 1.385 . S
C796 H777 0.951 . S
C796 C794 1.388 . S
C796 C797 1.366 . S
C797 C796 1.366 . S
C797 C798 1.414 . S
C797 C800 1.499 . S
C798 H778 0.950 . S
C798 C797 1.414 . S
C798 C799 1.374 . S
C799 H779 0.950 . S
C799 C795 1.385 . S
C799 C798 1.374 . S
C800 C797 1.499 . S
C800 C801 1.373 . S
C800 C802 1.389 . S
C801 H780 0.950 . S
C801 C800 1.373 . S
C801 C817 1.377 . S
C802 C800 1.389 . S
C802 C803 1.524 1_545 S
C802 C816 1.377 . S
C803 C802 1.524 1_565 S
C803 C804 1.397 . S
C803 C808 1.363 . S
C804 H781 0.950 . S
C804 C803 1.397 . S
C804 C805 1.334 . S
C805 H782 0.950 . S
C805 C804 1.334 . S
C805 C806 1.287 . S
C806 C805 1.287 . S
C806 C807 1.524 . S
C806 H825 0.913 . S
C807 H783 0.950 . S
C807 C806 1.524 . S
C807 C808 1.415 . S
C808 H784 0.950 . S
C808 C803 1.363 . S
C808 C807 1.415 . S
C809 H785 0.951 . S
C809 C810 1.366 . S
C809 C811 1.388 . S
C810 C809 1.366 . S
C810 C814 1.385 . S
C811 H786 0.951 . S
C811 C809 1.388 . S
C811 C812 1.366 . S
C812 C811 1.366 . S
C812 C813 1.414 . S
C812 C815 1.499 . S
C813 H787 0.950 . S
C813 C812 1.414 . S
C813 C814 1.374 . S
C814 H788 0.950 . S
C814 C810 1.385 . S
C814 C813 1.374 . S
C815 C812 1.499 . S
C815 C816 1.373 . S
C815 C817 1.389 . S
C816 H789 0.950 1_545 S
C816 C802 1.377 . S
C816 C815 1.373 . S
C817 C801 1.377 . S
C817 C815 1.389 . S
C817 C818 1.524 . S
C818 C817 1.524 . S
C818 C819 1.397 . S
C818 C823 1.363 . S
C819 H790 0.950 . S
C819 C818 1.397 . S
C819 C820 1.334 . S
C820 H791 0.950 . S
C820 C819 1.334 . S
C820 C821 1.287 . S
C821 C820 1.287 . S
C821 C822 1.524 . S
C821 H824 0.999 . S
C822 H792 0.950 . S
C822 C821 1.524 . S
C822 C823 1.415 . S
C823 H793 0.950 . S
C823 C818 1.363 . S
C823 C822 1.415 . S
H824 C821 0.999 . S
H825 C806 0.913 . S
H826 C844 0.951 . S
H827 C846 0.951 . S
H828 C848 0.950 . S
H829 C849 0.950 . S
H830 C851 0.950 . S
H831 C854 0.950 . S
H832 C855 0.950 . S
H833 C857 0.950 . S
H834 C858 0.950 . S
H835 C859 0.951 . S
H836 C861 0.951 . S
H837 C863 0.950 . S
H838 C864 0.950 . S
H839 C866 0.950 . S
H840 C869 0.950 . S
H841 C870 0.950 . S
H842 C872 0.950 . S
H843 C873 0.950 . S
C844 H826 0.951 . S
C844 C845 1.366 . S
C844 C846 1.388 . S
C845 C844 1.366 . S
C845 C849 1.385 . S
C846 H827 0.951 . S
C846 C844 1.388 . S
C846 C847 1.366 . S
C847 C846 1.366 . S
C847 C848 1.414 . S
C847 C850 1.499 . S
C848 H828 0.950 . S
C848 C847 1.414 . S
C848 C849 1.374 . S
C849 H829 0.950 . S
C849 C845 1.385 . S
C849 C848 1.374 . S
C850 C847 1.499 . S
C850 C851 1.373 . S
C850 C852 1.389 . S
C851 H830 0.950 . S
C851 C850 1.373 . S
C851 C867 1.377 . S
C852 C850 1.389 . S
C852 C853 1.524 . S
C852 C866 1.377 . S
C853 C852 1.524 . S
C853 C854 1.397 . S
C853 C858 1.363 . S
C854 H831 0.950 . S
C854 C853 1.397 . S
C854 C855 1.334 . S
C855 H832 0.950 . S
C855 C854 1.334 . S
C855 C856 1.287 . S
C856 C855 1.287 . S
C856 C857 1.524 . S
C856 H875 0.913 . S
C857 H833 0.950 . S
C857 C856 1.524 . S
C857 C858 1.415 . S
C858 H834 0.950 . S
C858 C853 1.363 . S
C858 C857 1.415 . S
C859 H835 0.951 . S
C859 C860 1.366 . S
C859 C861 1.388 . S
C860 C859 1.366 . S
C860 C864 1.385 . S
C861 H836 0.951 . S
C861 C859 1.388 . S
C861 C862 1.366 . S
C862 C861 1.366 . S
C862 C863 1.414 . S
C862 C865 1.499 . S
C863 H837 0.950 . S
C863 C862 1.414 . S
C863 C864 1.374 . S
C864 H838 0.950 . S
C864 C860 1.385 . S
C864 C863 1.374 . S
C865 C862 1.499 . S
C865 C866 1.373 . S
C865 C867 1.389 . S
C866 H839 0.950 . S
C866 C852 1.377 . S
C866 C865 1.373 . S
C867 C851 1.377 . S
C867 C865 1.389 . S
C867 C868 1.524 . S
C868 C867 1.524 . S
C868 C869 1.397 . S
C868 C873 1.363 . S
C869 H840 0.950 . S
C869 C868 1.397 . S
C869 C870 1.334 . S
C870 H841 0.950 . S
C870 C869 1.334 . S
C870 C871 1.287 . S
C871 C870 1.287 . S
C871 C872 1.524 . S
C871 H874 0.999 . S
C872 H842 0.950 . S
C872 C871 1.524 . S
C872 C873 1.415 . S
C873 H843 0.950 . S
C873 C868 1.363 . S
C873 C872 1.415 . S
H874 C871 0.999 . S
H875 C856 0.913 . S
H876 C894 0.951 . S
H877 C896 0.951 . S
H878 C898 0.950 1_565 S
H879 C899 0.950 1_565 S
H880 C901 0.950 1_565 S
H881 C904 0.950 . S
H882 C905 0.950 . S
H883 C907 0.950 . S
H884 C908 0.950 . S
H885 C909 0.951 1_565 S
H886 C911 0.951 1_565 S
H887 C913 0.950 . S
H888 C914 0.950 . S
H889 C916 0.950 . S
H890 C919 0.959 . S
H891 C920 0.950 . S
H892 C922 0.950 . S
H893 C923 0.950 . S
C894 H876 0.951 . S
C894 C895 1.366 . S
C894 C896 1.388 . S
C895 C894 1.366 . S
C895 C899 1.385 . S
C896 H877 0.951 . S
C896 C894 1.388 . S
C896 C897 1.366 . S
C897 C896 1.366 . S
C897 C898 1.414 . S
C897 C900 1.499 . S
C898 H878 0.950 1_545 S
C898 C897 1.414 . S
C898 C899 1.374 . S
C899 H879 0.950 1_545 S
C899 C895 1.385 . S
C899 C898 1.374 . S
C900 C897 1.499 . S
C900 C901 1.373 . S
C900 C902 1.389 . S
C901 H880 0.950 1_545 S
C901 C900 1.373 . S
C901 C917 1.377 . S
C902 C900 1.389 . S
C902 C903 1.524 . S
C902 C916 1.377 . S
C903 C902 1.524 . S
C903 C904 1.397 . S
C903 C908 1.363 . S
C904 H881 0.950 . S
C904 C903 1.397 . S
C904 C905 1.334 . S
C905 H882 0.950 . S
C905 C904 1.334 . S
C905 C906 1.287 . S
C906 C905 1.287 . S
C906 C907 1.524 . S
C906 H925 0.913 . S
C907 H883 0.950 . S
C907 C906 1.524 . S
C907 C908 1.415 . S
C908 H884 0.950 . S
C908 C903 1.363 . S
C908 C907 1.415 . S
C909 H885 0.951 1_545 S
C909 C910 1.366 . S
C909 C911 1.388 . S
C910 C909 1.366 . S
C910 C914 1.385 . S
C911 H886 0.951 1_545 S
C911 C909 1.388 . S
C911 C912 1.366 . S
C912 C911 1.366 . S
C912 C913 1.414 . S
C912 C915 1.499 . S
C913 H887 0.950 . S
C913 C912 1.414 . S
C913 C914 1.374 . S
C914 H888 0.950 . S
C914 C910 1.385 . S
C914 C913 1.374 . S
C915 C912 1.499 . S
C915 C916 1.373 . S
C915 C917 1.389 . S
C916 H889 0.950 . S
C916 C902 1.377 . S
C916 C915 1.373 . S
C917 C901 1.377 . S
C917 C915 1.389 . S
C917 C918 1.524 1_545 S
C918 C917 1.524 1_565 S
C918 C919 1.390 1_565 S
C918 C923 1.363 . S
C919 H890 0.959 . S
C919 C918 1.390 1_545 S
C919 C920 1.332 1_545 S
C920 H891 0.950 . S
C920 C919 1.332 1_565 S
C920 C921 1.287 . S
C921 C920 1.287 . S
C921 C922 1.524 . S
C921 H924 0.999 . S
C922 H892 0.950 . S
C922 C921 1.524 . S
C922 C923 1.415 . S
C923 H893 0.950 . S
C923 C918 1.363 . S
C923 C922 1.415 . S
H924 C921 0.999 . S
H925 C906 0.913 . S
H926 C944 0.951 . S
H927 C946 0.951 . S
H928 C948 0.950 . S
H929 C949 0.950 . S
H930 C951 0.950 . S
H931 C954 0.950 . S
H932 C955 0.950 . S
H933 C957 0.950 . S
H934 C958 0.950 . S
H935 C959 0.951 . S
H936 C961 0.951 . S
H937 C963 0.950 . S
H938 C964 0.950 . S
H939 C966 0.950 1_554 S
H940 C969 0.950 . S
H941 C970 0.950 . S
H942 C972 0.950 . S
H943 C973 0.950 . S
C944 H926 0.951 . S
C944 C945 1.366 . S
C944 C946 1.388 . S
C945 C944 1.366 . S
C945 C949 1.385 . S
C946 H927 0.951 . S
C946 C944 1.388 . S
C946 C947 1.366 . S
C947 C946 1.366 . S
C947 C948 1.414 . S
C947 C950 1.499 . S
C948 H928 0.950 . S
C948 C947 1.414 . S
C948 C949 1.374 . S
C949 H929 0.950 . S
C949 C945 1.385 . S
C949 C948 1.374 . S
C950 C947 1.499 . S
C950 C951 1.373 . S
C950 C952 1.389 . S
C951 H930 0.950 . S
C951 C950 1.373 . S
C951 C967 1.377 . S
C952 C950 1.389 . S
C952 C953 1.524 . S
C952 C966 1.377 . S
C953 C952 1.524 . S
C953 C954 1.397 . S
C953 C958 1.363 . S
C954 H931 0.950 . S
C954 C953 1.397 . S
C954 C955 1.334 . S
C955 H932 0.950 . S
C955 C954 1.334 . S
C955 C956 1.287 . S
C956 C955 1.287 . S
C956 C957 1.524 . S
C956 H975 0.913 . S
C957 H933 0.950 . S
C957 C956 1.524 . S
C957 C958 1.415 . S
C958 H934 0.950 . S
C958 C953 1.363 . S
C958 C957 1.415 . S
C959 H935 0.951 . S
C959 C960 1.366 . S
C959 C961 1.388 . S
C960 C959 1.366 . S
C960 C964 1.385 . S
C961 H936 0.951 . S
C961 C959 1.388 . S
C961 C962 1.366 . S
C962 C961 1.366 . S
C962 C963 1.414 . S
C962 C965 1.499 . S
C963 H937 0.950 . S
C963 C962 1.414 . S
C963 C964 1.374 . S
C964 H938 0.950 . S
C964 C960 1.385 . S
C964 C963 1.374 . S
C965 C962 1.499 . S
C965 C966 1.373 1_554 S
C965 C967 1.389 1_554 S
C966 H939 0.950 1_556 S
C966 C952 1.377 . S
C966 C965 1.373 1_556 S
C967 C951 1.377 . S
C967 C965 1.389 1_556 S
C967 C968 1.524 . S
C968 C967 1.524 . S
C968 C969 1.397 1_556 S
C968 C973 1.363 . S
C969 H940 0.950 . S
C969 C968 1.397 1_554 S
C969 C970 1.334 . S
C970 H941 0.950 . S
C970 C969 1.334 . S
C970 C971 1.287 . S
C971 C970 1.287 . S
C971 C972 1.524 1_554 S
C971 H974 0.999 . S
C972 H942 0.950 . S
C972 C971 1.524 1_556 S
C972 C973 1.415 . S
C973 H943 0.950 . S
C973 C968 1.363 . S
C973 C972 1.415 . S
H974 C971 0.999 . S
H975 C956 0.913 . S
H976 C994 0.953 . S
H977 C996 0.951 . S
H978 C998 0.950 . S
H979 C999 0.950 . S
H980 C1001 0.950 . S
H981 C1004 0.950 . S
H982 C1005 0.950 . S
H983 C1007 0.950 . S
H984 C1008 0.950 . S
H985 C1009 0.951 . S
H986 C1011 0.951 . S
H987 C1013 0.950 1_655 S
H988 C1014 0.950 1_655 S
H989 C1016 0.950 . S
H990 C1019 0.950 . S
H991 C1020 0.950 . S
H992 C1022 0.950 . S
H993 C1023 0.950 . S
C994 H976 0.953 . S
C994 C995 1.364 1_655 S
C994 C996 1.388 . S
C995 C994 1.364 1_455 S
C995 C999 1.385 . S
C996 H977 0.951 . S
C996 C994 1.388 . S
C996 C997 1.365 1_655 S
C997 C996 1.365 1_455 S
C997 C998 1.414 . S
C997 C1000 1.499 . S
C998 H978 0.950 . S
C998 C997 1.414 . S
C998 C999 1.374 . S
C999 H979 0.950 . S
C999 C995 1.385 . S
C999 C998 1.374 . S
C1000 C997 1.499 . S
C1000 C1001 1.373 . S
C1000 C1002 1.389 1_455 S
C1001 H980 0.950 . S
C1001 C1000 1.373 . S
C1001 C1017 1.377 . S
C1002 C1000 1.389 1_655 S
C1002 C1003 1.524 . S
C1002 C1016 1.377 . S
C1003 C1002 1.524 . S
C1003 C1004 1.397 . S
C1003 C1008 1.363 . S
C1004 H981 0.950 . S
C1004 C1003 1.397 . S
C1004 C1005 1.334 . S
C1005 H982 0.950 . S
C1005 C1004 1.334 . S
C1005 C1006 1.287 . S
C1006 C1005 1.287 . S
C1006 C1007 1.524 . S
C1006 H1025 0.913 . S
C1007 H983 0.950 . S
C1007 C1006 1.524 . S
C1007 C1008 1.415 . S
C1008 H984 0.950 . S
C1008 C1003 1.363 . S
C1008 C1007 1.415 . S
C1009 H985 0.951 . S
C1009 C1010 1.366 . S
C1009 C1011 1.388 . S
C1010 C1009 1.366 . S
C1010 C1014 1.385 . S
C1011 H986 0.951 . S
C1011 C1009 1.388 . S
C1011 C1012 1.366 . S
C1012 C1011 1.366 . S
C1012 C1013 1.414 . S
C1012 C1015 1.499 . S
C1013 H987 0.950 1_455 S
C1013 C1012 1.414 . S
C1013 C1014 1.374 . S
C1014 H988 0.950 1_455 S
C1014 C1010 1.385 . S
C1014 C1013 1.374 . S
C1015 C1012 1.499 . S
C1015 C1016 1.373 1_455 S
C1015 C1017 1.389 . S
C1016 H989 0.950 . S
C1016 C1002 1.377 . S
C1016 C1015 1.373 1_655 S
C1017 C1001 1.377 . S
C1017 C1015 1.389 . S
C1017 C1018 1.524 . S
C1018 C1017 1.524 . S
C1018 C1019 1.397 . S
C1018 C1023 1.363 . S
C1019 H990 0.950 . S
C1019 C1018 1.397 . S
C1019 C1020 1.334 . S
C1020 H991 0.950 . S
C1020 C1019 1.334 . S
C1020 C1021 1.287 . S
C1021 C1020 1.287 . S
C1021 C1022 1.524 . S
C1021 H1024 0.999 . S
C1022 H992 0.950 . S
C1022 C1021 1.524 . S
C1022 C1023 1.415 . S
C1023 H993 0.950 . S
C1023 C1018 1.363 . S
C1023 C1022 1.415 . S
H1024 C1021 0.999 . S
H1025 C1006 0.913 . S
C145 C2 1.406 . S
C160 C125 1.456 . S
C195 C22 1.390 . S
C210 C103 1.450 . S
C245 C44 1.409 . S
C260 C114 1.470 . S
C295 C4 1.391 . S
C310 C119 1.477 . S
C360 C97 1.484 . S
C345 C24 1.409 . S
C410 C108 1.445 . S
C395 C42 1.367 . S
C445 C32 1.394 . S
C460 C81 1.386 . S
C495 C49 1.105 . S
C510 C86 1.117 1_655 S
C545 C9 1.088 . S
C560 C64 1.104 1_565 S
C610 C75 1.114 . S
C595 C29 1.082 . S
C660 C92 1.306 . S
C645 C52 1.281 . S
C695 C12 1.293 . S
C710 C70 1.310 . S
C760 C87 1.499 . S
C745 C18 1.504 . S
C795 C38 1.472 . S
C810 C65 1.470 . S
C845 C58 1.467 . S
C860 C76 1.499 . S
C910 C109 1.514 . S
C895 C39 1.505 . S
C960 C120 1.526 . S
C945 C59 1.520 . S
C995 C19 1.515 . S
C1010 C98 1.537 . S
