# Generated by pormake.
# Topology zzz, (3,6)-cn, num edge types: 1
# Building blocks:
#     Node 0, Type 0, BuildingBlock: BELTOD_clean_linker_0, # of connection points: 3
#     Node 1, Type 0, BuildingBlock: BELTOD_clean_linker_0, # of connection points: 3
#     Node 2, Type 0, BuildingBlock: BELTOD_clean_linker_0, # of connection points: 3
#     Node 3, Type 0, BuildingBlock: BELTOD_clean_linker_0, # of connection points: 3
#     Node 4, Type 0, BuildingBlock: BELTOD_clean_linker_0, # of connection points: 3
#     Node 5, Type 0, BuildingBlock: BELTOD_clean_linker_0, # of connection points: 3
#     Node 6, Type 0, BuildingBlock: BELTOD_clean_linker_0, # of connection points: 3
#     Node 7, Type 0, BuildingBlock: BELTOD_clean_linker_0, # of connection points: 3
#     Node 8, Type 1, BuildingBlock: FUNLAD_clean_sbu_0, # of connection points: 6
#     Node 9, Type 1, BuildingBlock: FUNLAD_clean_sbu_0, # of connection points: 6
#     Node 10, Type 1, BuildingBlock: FUNLAD_clean_sbu_0, # of connection points: 6
#     Node 11, Type 1, BuildingBlock: FUNLAD_clean_sbu_0, # of connection points: 6
#     Edge 12, Type (0, 1), BuildingBlock: UVAHIK_clean_linker_0, # of connection points: 2
#     Edge 13, Type (0, 1), BuildingBlock: UVAHIK_clean_linker_0, # of connection points: 2
#     Edge 14, Type (0, 1), BuildingBlock: UVAHIK_clean_linker_0, # of connection points: 2
#     Edge 15, Type (0, 1), BuildingBlock: UVAHIK_clean_linker_0, # of connection points: 2
#     Edge 16, Type (0, 1), BuildingBlock: UVAHIK_clean_linker_0, # of connection points: 2
#     Edge 17, Type (0, 1), BuildingBlock: UVAHIK_clean_linker_0, # of connection points: 2
#     Edge 18, Type (0, 1), BuildingBlock: UVAHIK_clean_linker_0, # of connection points: 2
#     Edge 19, Type (0, 1), BuildingBlock: UVAHIK_clean_linker_0, # of connection points: 2
#     Edge 20, Type (0, 1), BuildingBlock: UVAHIK_clean_linker_0, # of connection points: 2
#     Edge 21, Type (0, 1), BuildingBlock: UVAHIK_clean_linker_0, # of connection points: 2
#     Edge 22, Type (0, 1), BuildingBlock: UVAHIK_clean_linker_0, # of connection points: 2
#     Edge 23, Type (0, 1), BuildingBlock: UVAHIK_clean_linker_0, # of connection points: 2
#     Edge 24, Type (0, 1), BuildingBlock: UVAHIK_clean_linker_0, # of connection points: 2
#     Edge 25, Type (0, 1), BuildingBlock: UVAHIK_clean_linker_0, # of connection points: 2
#     Edge 26, Type (0, 1), BuildingBlock: UVAHIK_clean_linker_0, # of connection points: 2
#     Edge 27, Type (0, 1), BuildingBlock: UVAHIK_clean_linker_0, # of connection points: 2
#     Edge 28, Type (0, 1), BuildingBlock: UVAHIK_clean_linker_0, # of connection points: 2
#     Edge 29, Type (0, 1), BuildingBlock: UVAHIK_clean_linker_0, # of connection points: 2
#     Edge 30, Type (0, 1), BuildingBlock: UVAHIK_clean_linker_0, # of connection points: 2
#     Edge 31, Type (0, 1), BuildingBlock: UVAHIK_clean_linker_0, # of connection points: 2
#     Edge 32, Type (0, 1), BuildingBlock: UVAHIK_clean_linker_0, # of connection points: 2
#     Edge 33, Type (0, 1), BuildingBlock: UVAHIK_clean_linker_0, # of connection points: 2
#     Edge 34, Type (0, 1), BuildingBlock: UVAHIK_clean_linker_0, # of connection points: 2
#     Edge 35, Type (0, 1), BuildingBlock: UVAHIK_clean_linker_0, # of connection points: 2
# Relax obj value: 0.262
# Max RMSD: 0.207
# Mean RMSD: 0.180
data_MOF--net-zzz--node1-FUNLAD_clean_sbu_0--node2-BELTOD_clean_linker_0--edge1-UVAHIK_clean_linker_0
_symmetry_space_group_name_H-M    P1
_symmetry_Int_Tables_number       1
_symmetry_cell_setting            triclinic
loop_
_symmetry_equiv_pos_as_xyz
'x, y, z'
_cell_length_a     67.893248
_cell_length_b     72.334253
_cell_length_c     26.212161
_cell_angle_alpha  87.248037
_cell_angle_beta   87.84184
_cell_angle_gamma 92.013271
loop_
_atom_site_label
_atom_site_type_symbol
_atom_site_fract_x
_atom_site_fract_y
_atom_site_fract_z
_atom_type_partial_charge
P0 P 0.79516 0.38541 0.21831 0.0
H1 H 0.79222 0.38045 0.33013 0.0
H2 H 0.80727 0.39782 0.39743 0.0
H3 H 0.82939 0.43956 0.28421 0.0
H4 H 0.81437 0.42217 0.21731 0.0
H5 H 0.76673 0.36628 0.15772 0.0
H6 H 0.74104 0.37724 0.1021 0.0
H7 H 0.75201 0.43301 0.1488 0.0
H8 H 0.77763 0.42198 0.20433 0.0
H9 H 0.83326 0.36827 0.22364 0.0
H10 H 0.80348 0.40373 0.11679 0.0
O11 O 0.79051 0.36381 0.24207 0.0
H12 H 0.86334 0.37146 0.16875 0.0
H13 H 0.8333 0.40717 0.06258 0.0
C14 C 0.80232 0.39996 0.26874 0.0
C15 C 0.79994 0.39353 0.31994 0.0
C16 C 0.80858 0.40344 0.35834 0.0
C17 C 0.81961 0.41999 0.34603 0.0
C18 C 0.82082 0.42698 0.295 0.0
C19 C 0.81231 0.41699 0.25667 0.0
C20 C 0.7739 0.39323 0.18576 0.0
C21 C 0.76326 0.38079 0.15695 0.0
C22 C 0.74861 0.38707 0.12512 0.0
C23 C 0.74456 0.406 0.12101 0.0
C24 C 0.75495 0.41838 0.15088 0.0
C25 C 0.7695 0.41204 0.18299 0.0
C26 C 0.81602 0.38545 0.17391 0.0
C27 C 0.83308 0.37643 0.18792 0.0
C28 C 0.85028 0.3784 0.15678 0.0
C29 C 0.85069 0.38952 0.1112 0.0
C30 C 0.8334 0.39821 0.09688 0.0
C31 C 0.81627 0.39627 0.12805 0.0
P32 P 0.97134 0.76078 0.17304 0.0
H33 H 0.97767 0.76916 0.27847 0.0
H34 H 0.96162 0.79036 0.3341 0.0
H35 H 0.91504 0.79656 0.22725 0.0
H36 H 0.93153 0.77526 0.17109 0.0
H37 H 0.97967 0.75101 0.06878 0.0
H38 H 0.9665 0.72724 0.01622 0.0
H39 H 0.92519 0.7087 0.139 0.0
H40 H 0.93843 0.73313 0.19196 0.0
H41 H 0.00876 0.78271 0.16792 0.0
H42 H 0.95356 0.78231 0.09167 0.0
O43 O 0.99013 0.7505 0.2006 0.0
H44 H 0.02074 0.80944 0.11268 0.0
H45 H 0.9653 0.80893 0.03692 0.0
C46 C 0.95572 0.77049 0.22086 0.0
C47 C 0.9636 0.77445 0.26786 0.0
C48 C 0.95434 0.78665 0.29979 0.0
C49 C 0.93707 0.79532 0.28505 0.0
C50 C 0.92844 0.79029 0.23947 0.0
C51 C 0.93773 0.77798 0.20757 0.0
C52 C 0.95959 0.74426 0.13372 0.0
C53 C 0.96737 0.74227 0.08412 0.0
C54 C 0.9598 0.72862 0.05395 0.0
C55 C 0.94456 0.71629 0.07309 0.0
C56 C 0.93682 0.71814 0.12311 0.0
C57 C 0.9443 0.73209 0.15326 0.0
C58 C 0.98048 0.7803 0.13293 0.0
C59 C 0.99928 0.78831 0.13916 0.0
C60 C 0.00605 0.80363 0.10786 0.0
C61 C 0.99405 0.81109 0.07004 0.0
C62 C 0.97505 0.80323 0.06494 0.0
C63 C 0.96829 0.78807 0.09634 0.0
P64 P 0.76272 0.05576 0.16267 0.0
H65 H 0.75432 0.06621 0.26731 0.0
H66 H 0.73275 0.05151 0.33505 0.0
H67 H 0.72819 0.00204 0.24986 0.0
H68 H 0.7499 0.01681 0.18205 0.0
H69 H 0.8045 0.0669 0.15685 0.0
H70 H 0.83247 0.05656 0.10652 0.0
H71 H 0.79579 0.01223 0.05161 0.0
H72 H 0.76758 0.02323 0.10082 0.0
H73 H 0.71986 0.05481 0.18032 0.0
H74 H 0.76113 0.06064 0.05068 0.0
O75 O 0.76868 0.07738 0.17748 0.0
H76 H 0.6925 0.05427 0.12302 0.0
H77 H 0.73358 0.06005 0.99288 0.0
C78 C 0.7538 0.04261 0.21956 0.0
C79 C 0.74937 0.05195 0.26395 0.0
C80 C 0.73689 0.04358 0.30256 0.0
C81 C 0.72856 0.02574 0.29734 0.0
C82 C 0.73448 0.01576 0.25506 0.0
C83 C 0.74697 0.02418 0.2163 0.0
C84 C 0.78391 0.04594 0.13229 0.0
C85 C 0.80249 0.05483 0.13447 0.0
C86 C 0.81857 0.04879 0.10581 0.0
C87 C 0.81643 0.03359 0.07464 0.0
C88 C 0.79792 0.02416 0.0745 0.0
C89 C 0.78181 0.03029 0.10311 0.0
C90 C 0.74262 0.05694 0.11978 0.0
C91 C 0.7231 0.05585 0.13953 0.0
C92 C 0.70742 0.05559 0.10673 0.0
C93 C 0.71093 0.05677 0.05352 0.0
C94 C 0.73046 0.05904 0.03377 0.0
C95 C 0.7462 0.05919 0.06675 0.0
P96 P 0.54508 0.71656 0.22197 0.0
H97 H 0.54959 0.71628 0.33242 0.0
H98 H 0.56984 0.69762 0.38771 0.0
H99 H 0.60359 0.68105 0.25551 0.0
H100 H 0.58282 0.69952 0.20016 0.0
H101 H 0.52087 0.74799 0.19994 0.0
H102 H 0.52638 0.77638 0.14723 0.0
H103 H 0.58657 0.7617 0.11468 0.0
H104 H 0.58075 0.7329 0.16728 0.0
H105 H 0.53992 0.6767 0.23752 0.0
H106 H 0.53965 0.71689 0.11043 0.0
O107 O 0.52455 0.71818 0.25833 0.0
H108 H 0.5352 0.65169 0.17925 0.0
H109 H 0.53493 0.6919 0.05198 0.0
C110 C 0.56445 0.70898 0.26218 0.0
C111 C 0.56174 0.70914 0.31536 0.0
C112 C 0.57347 0.69849 0.34707 0.0
C113 C 0.58813 0.68751 0.32599 0.0
C114 C 0.59219 0.68906 0.27287 0.0
C115 C 0.58043 0.69974 0.2412 0.0
C116 C 0.55052 0.73853 0.18847 0.0
C117 C 0.53538 0.751 0.18236 0.0
C118 C 0.53858 0.7673 0.15219 0.0
C119 C 0.55698 0.77143 0.12708 0.0
C120 C 0.57221 0.7589 0.13342 0.0
C121 C 0.56898 0.74254 0.16384 0.0
C122 C 0.54049 0.69861 0.17825 0.0
C123 C 0.53885 0.68014 0.19706 0.0
C124 C 0.53623 0.66587 0.16375 0.0
C125 C 0.53488 0.66985 0.11105 0.0
C126 C 0.53587 0.68844 0.09246 0.0
C127 C 0.53867 0.70273 0.12585 0.0
P128 P 0.24094 0.50934 0.1789 0.0
H129 H 0.24114 0.4931 0.07884 0.0
H130 H 0.22447 0.50234 0.00144 0.0
H131 H 0.21358 0.55558 0.06253 0.0
H132 H 0.23043 0.54634 0.13979 0.0
H133 H 0.26522 0.49067 0.25142 0.0
H134 H 0.29302 0.50081 0.30001 0.0
H135 H 0.29352 0.55453 0.22026 0.0
H136 H 0.26577 0.54396 0.17016 0.0
H137 H 0.20358 0.49037 0.21155 0.0
H138 H 0.23333 0.54282 0.23419 0.0
O139 O 0.24047 0.48627 0.17722 0.0
H140 H 0.17494 0.49991 0.26111 0.0
H141 H 0.20435 0.55298 0.28093 0.0
C142 C 0.2366 0.51884 0.11574 0.0
C143 C 0.23585 0.50702 0.07493 0.0
C144 C 0.22635 0.51235 0.03049 0.0
C145 C 0.21737 0.52954 0.02649 0.0
C146 C 0.22011 0.54213 0.06503 0.0
C147 C 0.22979 0.53685 0.10923 0.0
C148 C 0.26361 0.51646 0.20668 0.0
C149 C 0.27155 0.5045 0.24342 0.0
C150 C 0.2873 0.51042 0.27175 0.0
C151 C 0.29527 0.52858 0.26461 0.0
C152 C 0.28773 0.54043 0.22649 0.0
C153 C 0.27191 0.53441 0.19782 0.0
C154 C 0.22069 0.51576 0.21979 0.0
C155 C 0.20399 0.50392 0.22743 0.0
C156 C 0.18748 0.50954 0.25518 0.0
C157 C 0.18717 0.52733 0.2748 0.0
C158 C 0.20408 0.5391 0.26721 0.0
C159 C 0.2207 0.53332 0.24022 0.0
P160 P 0.15085 0.22925 0.25846 0.0
H161 H 0.16985 0.22494 0.15711 0.0
H162 H 0.15981 0.20634 0.08595 0.0
H163 H 0.10246 0.19594 0.16053 0.0
H164 H 0.11238 0.21452 0.23099 0.0
H165 H 0.16996 0.26052 0.3056 0.0
H166 H 0.15715 0.28892 0.33901 0.0
H167 H 0.10018 0.27551 0.2799 0.0
H168 H 0.11315 0.24734 0.24552 0.0
H169 H 0.15791 0.19015 0.274 0.0
H170 H 0.12228 0.23042 0.34643 0.0
O171 O 0.17546 0.22936 0.25674 0.0
H172 H 0.13907 0.1652 0.32202 0.0
H173 H 0.10322 0.20566 0.39338 0.0
C174 C 0.14192 0.22102 0.1995 0.0
C175 C 0.15491 0.21917 0.15733 0.0
C176 C 0.14919 0.20854 0.11675 0.0
C177 C 0.13048 0.19952 0.11834 0.0
C178 C 0.11703 0.2026 0.15874 0.0
C179 C 0.12266 0.21336 0.19881 0.0
C180 C 0.14259 0.2519 0.27255 0.0
C181 C 0.15488 0.26395 0.29843 0.0
C182 C 0.14756 0.28015 0.3176 0.0
C183 C 0.12768 0.28432 0.31215 0.0
C184 C 0.11555 0.27255 0.28473 0.0
C185 C 0.123 0.25652 0.26477 0.0
C186 C 0.1415 0.21215 0.30633 0.0
C187 C 0.14644 0.19366 0.30134 0.0
C188 C 0.13549 0.17941 0.32827 0.0
C189 C 0.11943 0.18346 0.36075 0.0
C190 C 0.11553 0.20208 0.36872 0.0
C191 C 0.12645 0.21631 0.34163 0.0
P192 P 0.28825 0.03718 0.22805 0.0
H193 H 0.28692 0.05334 0.124 0.0
H194 H 0.30604 0.04763 0.04574 0.0
H195 H 0.33011 0.99952 0.12144 0.0
H196 H 0.31042 0.00479 0.19782 0.0
H197 H 0.25868 0.05816 0.27979 0.0
H198 H 0.2254 0.05038 0.31304 0.0
H199 H 0.2277 0.99713 0.24556 0.0
H200 H 0.26134 0.00521 0.21153 0.0
H201 H 0.32274 0.05032 0.28092 0.0
H202 H 0.28525 0.00084 0.28362 0.0
O203 O 0.29226 0.0601 0.22757 0.0
H204 H 0.34418 0.03512 0.3415 0.0
H205 H 0.30685 0.9855 0.34367 0.0
C206 C 0.2975 0.02975 0.16722 0.0
C207 C 0.29588 0.04126 0.12314 0.0
C208 C 0.30703 0.03809 0.07857 0.0
C209 C 0.32005 0.02336 0.07743 0.0
C210 C 0.32027 0.01097 0.12049 0.0
C211 C 0.30902 0.01408 0.16476 0.0
C212 C 0.26239 0.03238 0.24254 0.0
C213 C 0.25189 0.04501 0.27075 0.0
C214 C 0.2328 0.04054 0.28982 0.0
C215 C 0.22385 0.02316 0.28182 0.0
C216 C 0.23423 0.01061 0.25244 0.0
C217 C 0.25336 0.01525 0.2327 0.0
C218 C 0.30222 0.02684 0.27829 0.0
C219 C 0.31887 0.03634 0.29532 0.0
C220 C 0.33112 0.02764 0.32993 0.0
C221 C 0.32711 0.00916 0.34727 0.0
C222 C 0.31024 -0.00025 0.33083 0.0
C223 C 0.29782 0.00858 0.29683 0.0
P224 P 0.41535 0.28858 0.23112 0.0
H225 H 0.39556 0.29957 0.13726 0.0
H226 H 0.40636 0.32042 0.06446 0.0
H227 H 0.46554 0.32175 0.11935 0.0
H228 H 0.4547 0.30109 0.19201 0.0
H229 H 0.39476 0.25805 0.28869 0.0
H230 H 0.40508 0.22784 0.31984 0.0
H231 H 0.46102 0.23727 0.23657 0.0
H232 H 0.45003 0.2671 0.2032 0.0
H233 H 0.40421 0.32375 0.27114 0.0
H234 H 0.4506 0.28521 0.29269 0.0
O235 O 0.39085 0.28994 0.2355 0.0
H236 H 0.42125 0.34557 0.32447 0.0
H237 H 0.46759 0.30686 0.3458 0.0
C238 C 0.42429 0.29889 0.17035 0.0
C239 C 0.41098 0.30393 0.1329 0.0
C240 C 0.41715 0.31585 0.09125 0.0
C241 C 0.43671 0.32296 0.08679 0.0
C242 C 0.4503 0.31673 0.12233 0.0
C243 C 0.44414 0.30477 0.16367 0.0
C244 C 0.42155 0.26481 0.24337 0.0
C245 C 0.40901 0.2534 0.27585 0.0
C246 C 0.41508 0.23619 0.29429 0.0
C247 C 0.43407 0.23021 0.28166 0.0
C248 C 0.44625 0.24131 0.24692 0.0
C249 C 0.44 0.25845 0.22779 0.0
C250 C 0.42589 0.3027 0.2786 0.0
C251 C 0.41776 0.31976 0.28843 0.0
C252 C 0.42753 0.33222 0.31882 0.0
C253 C 0.44578 0.32791 0.33918 0.0
C254 C 0.45363 0.3106 0.3303 0.0
C255 C 0.44378 0.29812 0.30025 0.0
C256 C 0.0248 0.97372 0.74011 0.0
N257 N 0.99502 0.9792 0.60345 0.0
C258 C 0.003 0.96259 0.59487 0.0
C259 C 0.99267 0.94929 0.56867 0.0
C260 C 0.97397 0.9531 0.55068 0.0
C261 C 0.96634 0.97061 0.55828 0.0
C262 C 0.97714 0.9835 0.58525 0.0
Zn263 Zn 0.00997 0.99649 0.64937 0.0
C264 C 0.98409 0.00967 0.73335 0.0
N265 N 0.04181 0.02965 0.751 0.0
C266 C 0.0594 0.02532 0.77095 0.0
C267 C 0.03375 0.04631 0.75859 0.0
C268 C 0.04371 0.05964 0.78544 0.0
C269 C 0.06201 0.05571 0.80558 0.0
C270 C 0.06974 0.0382 0.79902 0.0
Zn271 Zn 0.02714 0.01224 0.70485 0.0
O272 O 0.01507 0.97341 0.69965 0.0
C273 C 0.05313 0.99934 0.62096 0.0
O274 O 0.03243 0.98896 0.75327 0.0
H275 H 0.01968 0.04945 0.74293 0.0
H276 H 0.01725 0.95943 0.60947 0.0
H277 H 0.06557 0.01202 0.76429 0.0
O278 O 0.03678 0.99239 0.60742 0.0
O279 O 0.05354 0.00834 0.66144 0.0
H280 H 0.97103 0.99676 0.59272 0.0
O281 O 0.02166 0.03524 0.65568 0.0
O282 O 0.00542 0.01983 0.5996 0.0
O283 O 0.00067 0.01589 0.74725 0.0
O284 O 0.98329 0.00104 0.69226 0.0
C285 C 0.01271 0.03504 0.61406 0.0
H286 H 0.99922 0.93608 0.56283 0.0
H287 H 0.95193 0.97404 0.54503 0.0
H288 H 0.03718 0.07292 0.79041 0.0
H289 H 0.08385 0.03474 0.81414 0.0
C290 C 0.49577 0.98469 0.6109 0.0
N291 N 0.51599 0.03982 0.61788 0.0
C292 C 0.51538 0.03991 0.56604 0.0
C293 C 0.51089 0.05597 0.53795 0.0
C294 C 0.50709 0.07224 0.56324 0.0
C295 C 0.50839 0.07189 0.61673 0.0
C296 C 0.51282 0.05544 0.64343 0.0
Zn297 Zn 0.52032 0.01514 0.65666 0.0
C298 C 0.4905 0.007 0.74099 0.0
N299 N 0.52785 0.96221 0.73112 0.0
C300 C 0.53088 0.94628 0.70683 0.0
C301 C 0.52812 0.96256 0.78292 0.0
C302 C 0.53178 0.94661 0.81237 0.0
C303 C 0.53498 0.92991 0.78862 0.0
C304 C 0.53443 0.92987 0.735 0.0
Zn305 Zn 0.52362 0.98681 0.69188 0.0
O306 O 0.5004 0.00189 0.60878 0.0
C307 C 0.5532 0.99514 0.60689 0.0
O308 O 0.50358 0.97397 0.64353 0.0
H309 H 0.52573 0.97534 0.80158 0.0
H310 H 0.51791 0.02735 0.5464 0.0
H311 H 0.53062 0.94632 0.66559 0.0
O312 O 0.54395 0.01011 0.60572 0.0
O313 O 0.54789 0.98224 0.63981 0.0
H314 H 0.51339 0.05507 0.68465 0.0
O315 O 0.54341 8e-05 0.74001 0.0
O316 O 0.54049 0.02796 0.70497 0.0
O317 O 0.49937 0.9918 0.74263 0.0
O318 O 0.49645 0.01983 0.70861 0.0
C319 C 0.54816 0.01725 0.7379 0.0
H320 H 0.50977 0.05542 0.49695 0.0
H321 H 0.50588 0.08414 0.63785 0.0
H322 H 0.53245 0.9475 0.85338 0.0
H323 H 0.5366 0.9173 0.71501 0.0
C324 C 0.5323 0.47527 0.60352 0.0
N325 N 0.48988 0.51417 0.6336 0.0
C326 C 0.49108 0.51745 0.58202 0.0
C327 C 0.47504 0.52409 0.55618 0.0
C328 C 0.45749 0.52759 0.5835 0.0
C329 C 0.45663 0.52415 0.63685 0.0
C330 C 0.47309 0.5174 0.66128 0.0
Zn331 Zn 0.51452 0.50462 0.66708 0.0
C332 C 0.50762 0.47246 0.73789 0.0
N333 N 0.56801 0.48548 0.72704 0.0
C334 C 0.58509 0.48295 0.69977 0.0
C335 C 0.56644 0.48142 0.77828 0.0
C336 C 0.5822 0.47414 0.80394 0.0
C337 C 0.59991 0.47116 0.77686 0.0
C338 C 0.6014 0.47587 0.7242 0.0
Zn339 Zn 0.54336 0.49494 0.69352 0.0
O340 O 0.51804 0.48602 0.60838 0.0
C341 C 0.55048 0.52704 0.62309 0.0
O342 O 0.54613 0.47574 0.63485 0.0
H343 H 0.55283 0.48369 0.79942 0.0
H344 H 0.50454 0.51484 0.56064 0.0
H345 H 0.58599 0.48628 0.65906 0.0
O346 O 0.53177 0.52531 0.62414 0.0
O347 O 0.56024 0.51547 0.6489 0.0
H348 H 0.47249 0.51477 0.70229 0.0
O349 O 0.53993 0.51417 0.75238 0.0
O350 O 0.51133 0.52305 0.72584 0.0
O351 O 0.52627 0.47459 0.73693 0.0
O352 O 0.49759 0.48367 0.71153 0.0
C353 C 0.52509 0.52429 0.75711 0.0
H354 H 0.47631 0.52613 0.51497 0.0
H355 H 0.44345 0.52677 0.65952 0.0
H356 H 0.58059 0.47098 0.84474 0.0
H357 H 0.61485 0.47373 0.70208 0.0
C358 C 0.02657 0.51784 0.60517 0.0
N359 N 0.03015 0.46113 0.64222 0.0
C360 C 0.02908 0.46002 0.59069 0.0
C361 C 0.03786 0.44566 0.56577 0.0
C362 C 0.04751 0.43207 0.59418 0.0
C363 C 0.04798 0.43316 0.64744 0.0
C364 C 0.0393 0.44802 0.67082 0.0
Zn365 Zn 0.01815 0.48356 0.6747 0.0
C366 C 0.04615 0.50375 0.73689 0.0
N367 N 0.99294 0.53178 0.73395 0.0
C368 C 0.98117 0.54324 0.70708 0.0
C369 C 0.99698 0.53475 0.78342 0.0
C370 C 0.98947 0.54993 0.8074 0.0
C371 C 0.97739 0.56201 0.7806 0.0
C372 C 0.97304 0.55846 0.73 0.0
Zn373 Zn 0.00499 0.50935 0.70171 0.0
O374 O 0.02903 0.50057 0.61142 0.0
C375 C 0.97731 0.48885 0.63862 0.0
O376 O 0.01661 0.52614 0.63844 0.0
H377 H 0.00609 0.52534 0.80443 0.0
H378 H 0.02152 0.4704 0.56864 0.0
H379 H 0.97814 0.54062 0.66781 0.0
O380 O 0.99182 0.47824 0.6378 0.0
O381 O 0.97852 0.5037 0.66262 0.0
H382 H 0.04003 0.44919 0.7117 0.0
O383 O 0.99363 0.49217 0.76524 0.0
O384 O 0.00696 0.46705 0.73811 0.0
O385 O 0.03181 0.51457 0.73899 0.0
O386 O 0.04449 0.48904 0.71252 0.0
C387 C 0.99649 0.47492 0.77124 0.0
H388 H 0.037 0.4451 0.52468 0.0
H389 H 0.05536 0.42289 0.67049 0.0
H390 H 0.99297 0.55215 0.84668 0.0
H391 H 0.96384 0.56758 0.70813 0.0
C392 C 0.2015 0.00077 0.33499 0.0
C393 C 0.20446 0.01792 0.30769 0.0
C394 C 0.18443 0.99706 0.36599 0.0
C395 C 0.14715 0.02213 0.43784 0.0
H396 H 0.11961 0.97425 0.45572 0.0
C397 C 0.07047 0.98965 0.54079 0.0
C398 C 0.07117 0.99829 0.58767 0.0
C399 C 0.08692 0.99044 0.50683 0.0
C400 C 0.12711 0.98772 0.45099 0.0
H401 H 0.19119 0.04404 0.28851 0.0
H402 H 0.16139 0.03753 0.34208 0.0
H403 H 0.14695 0.97877 0.39225 0.0
H404 H 0.09004 0.01384 0.63655 0.0
H405 H 0.11873 0.01505 0.57764 0.0
H406 H 0.12728 0.03121 0.49584 0.0
C407 C 0.17245 0.02712 0.34061 0.0
C408 C 0.14285 0.99027 0.41491 0.0
C409 C 0.18949 0.03083 0.30976 0.0
C410 C 0.08893 0.00712 0.60066 0.0
C411 C 0.10535 0.00793 0.56672 0.0
C412 C 0.13152 0.01957 0.47391 0.0
C413 C 0.16997 0.01042 0.37026 0.0
C414 C 0.15301 0.00754 0.40781 0.0
C415 C 0.10443 -7e-05 0.51896 0.0
C416 C 0.12131 0.00234 0.48102 0.0
H417 H 0.21285 0.99061 0.33457 0.0
H418 H 0.18304 0.9841 0.38851 0.0
H419 H 0.15482 0.03553 0.43396 0.0
H420 H 0.05702 0.98273 0.52955 0.0
H421 H 0.08567 0.98424 0.47025 0.0
C422 C 0.45426 0.2015 0.28194 0.0
C423 C 0.44156 0.21323 0.30769 0.0
C424 C 0.4617 0.18596 0.30757 0.0
C425 C 0.45168 0.15376 0.41914 0.0
H426 H 0.50762 0.14473 0.40932 0.0
C427 C 0.48629 0.10021 0.55443 0.0
C428 C 0.50095 0.08912 0.53407 0.0
C429 C 0.47958 0.11536 0.52583 0.0
C430 C 0.49192 0.14688 0.41197 0.0
H431 H 0.4272 0.21791 0.38122 0.0
H432 H 0.4397 0.19069 0.42506 0.0
H433 H 0.49452 0.17056 0.35934 0.0
H434 H 0.52052 0.08576 0.46801 0.0
H435 H 0.50836 0.11177 0.41755 0.0
H436 H 0.4489 0.13007 0.47114 0.0
C437 C 0.44372 0.1934 0.38494 0.0
C438 C 0.48444 0.16169 0.38333 0.0
C439 C 0.43647 0.20897 0.3596 0.0
C440 C 0.509 0.09382 0.48469 0.0
C441 C 0.50219 0.1089 0.45593 0.0
C442 C 0.45911 0.13889 0.44739 0.0
C443 C 0.45644 0.18174 0.35931 0.0
C444 C 0.46428 0.1654 0.38709 0.0
C445 C 0.48724 0.11975 0.47592 0.0
C446 C 0.47936 0.13537 0.44467 0.0
H447 H 0.45836 0.20423 0.2419 0.0
H448 H 0.47137 0.17712 0.28678 0.0
H449 H 0.43602 0.15612 0.42221 0.0
H450 H 0.47957 0.09694 0.59205 0.0
H451 H 0.46831 0.1236 0.54289 0.0
C452 C 0.32755 0.54549 0.27869 0.0
C453 C 0.31091 0.53503 0.29841 0.0
C454 C 0.34299 0.54994 0.31044 0.0
C455 C 0.3565 0.54987 0.44758 0.0
H456 H 0.40886 0.54095 0.39219 0.0
C457 C 0.42103 0.52696 0.56961 0.0
C458 C 0.44012 0.5341 0.55574 0.0
C459 C 0.40505 0.53152 0.53995 0.0
C460 C 0.39439 0.54382 0.40805 0.0
H461 H 0.2968 0.52217 0.36749 0.0
H462 H 0.32378 0.52931 0.42208 0.0
H463 H 0.38118 0.54126 0.3359 0.0
H464 H 0.45707 0.55267 0.50179 0.0
H465 H 0.42922 0.56025 0.44952 0.0
H466 H 0.36972 0.55144 0.52032 0.0
C467 C 0.32499 0.53429 0.38242 0.0
C468 C 0.3785 0.54406 0.37572 0.0
C469 C 0.30961 0.52992 0.35087 0.0
C470 C 0.44266 0.54657 0.51289 0.0
C471 C 0.42671 0.55098 0.48304 0.0
C472 C 0.37238 0.54944 0.47999 0.0
C473 C 0.34206 0.54405 0.36251 0.0
C474 C 0.35927 0.54662 0.39531 0.0
C475 C 0.40783 0.54321 0.49567 0.0
C476 C 0.3914 0.546 0.46072 0.0
H477 H 0.32895 0.54966 0.23844 0.0
H478 H 0.35581 0.5577 0.29399 0.0
H479 H 0.34196 0.55228 0.46378 0.0
H480 H 0.41855 0.51719 0.602 0.0
H481 H 0.39068 0.52516 0.55033 0.0
C482 C 0.1024 0.29711 0.37109 0.0
C483 C 0.11928 0.30003 0.33863 0.0
C484 C 0.09514 0.31152 0.39904 0.0
C485 C 0.09289 0.36152 0.40089 0.0
H486 H 0.08418 0.3535 0.54748 0.0
C487 C 0.07036 0.42109 0.52613 0.0
C488 C 0.05711 0.41695 0.56781 0.0
C489 C 0.07874 0.4069 0.49936 0.0
C490 C 0.08621 0.35593 0.50652 0.0
H491 H 0.14158 0.3203 0.30905 0.0
H492 H 0.12848 0.34578 0.35707 0.0
H493 H 0.09659 0.3286 0.49712 0.0
H494 H 0.04221 0.39486 0.6145 0.0
H495 H 0.05617 0.36998 0.56667 0.0
H496 H 0.08186 0.38852 0.40941 0.0
C497 C 0.12104 0.33226 0.36111 0.0
C498 C 0.09343 0.34167 0.47778 0.0
C499 C 0.12854 0.31773 0.33383 0.0
C500 C 0.05254 0.39837 0.58271 0.0
C501 C 0.06064 0.38414 0.55535 0.0
C502 C 0.08535 0.37568 0.42942 0.0
C503 C 0.10442 0.32921 0.39441 0.0
C504 C 0.09686 0.34436 0.42476 0.0
C505 C 0.07377 0.38821 0.51305 0.0
C506 C 0.08194 0.37311 0.48271 0.0
H507 H 0.09513 0.28353 0.37585 0.0
H508 H 0.08223 0.30887 0.42425 0.0
H509 H 0.09524 0.36384 0.35993 0.0
H510 H 0.07427 0.43535 0.51431 0.0
H511 H 0.08915 0.41064 0.46795 0.0
C512 C 0.85268 0.0298 0.05628 0.0
C513 C 0.83315 0.02842 0.04034 0.0
C514 C 0.8685 0.02686 0.02237 0.0
C515 C 0.88284 0.00576 0.90226 0.0
H516 H 0.92514 0.04333 0.896 0.0
C517 C 0.94731 0.00683 0.74991 0.0
C518 C 0.96615 0.01195 0.76611 0.0
C519 C 0.93057 0.00869 0.78194 0.0
C520 C 0.91362 0.03255 0.89763 0.0
H521 H 0.81505 0.02227 0.97629 0.0
H522 H 0.84272 0.01671 0.91756 0.0
H523 H 0.89723 0.0458 0.95593 0.0
H524 H 0.98218 0.02282 0.82891 0.0
H525 H 0.95328 0.0256 0.8848 0.0
H526 H 0.89941 0.99229 0.84462 0.0
C527 C 0.8457 0.02011 0.95639 0.0
C528 C 0.8976 0.03401 0.93198 0.0
C529 C 0.82985 0.02323 0.99019 0.0
C530 C 0.96788 0.01891 0.81495 0.0
C531 C 0.95124 0.02061 0.847 0.0
C532 C 0.89901 0.00418 0.86816 0.0
C533 C 0.8652 0.02228 0.97183 0.0
C534 C 0.88209 0.02059 0.93492 0.0
C535 C 0.93233 0.01559 0.83097 0.0
C536 C 0.91469 0.01751 0.86566 0.0
H537 H 0.85579 0.03337 0.09488 0.0
H538 H 0.88338 0.0283 0.0356 0.0
H539 H 0.87112 0.99516 0.90388 0.0
H540 H 0.94548 0.00145 0.71246 0.0
H541 H 0.91624 0.00489 0.76804 0.0
C542 C 0.55129 0.805 0.10683 0.0
C543 C 0.55974 0.78842 0.09295 0.0
C544 C 0.55188 0.82043 0.07274 0.0
C545 C 0.55677 0.83302 0.93454 0.0
H546 H 0.55822 0.88287 0.98286 0.0
C547 C 0.55287 0.9002 0.803 0.0
C548 C 0.53906 0.91286 0.82003 0.0
C549 C 0.55745 0.88482 0.83425 0.0
C550 C 0.55779 0.86901 0.96886 0.0
H551 H 0.57617 0.77533 0.03289 0.0
H552 H 0.57774 0.80254 0.97378 0.0
H553 H 0.56406 0.85678 0.042 0.0
H554 H 0.51857 0.91861 0.88244 0.0
H555 H 0.52698 0.89216 0.93707 0.0
H556 H 0.55052 0.84546 0.86121 0.0
C557 C 0.57028 0.80344 0.01076 0.0
C558 C 0.56107 0.85405 0.00273 0.0
C559 C 0.5696 0.78792 0.0449 0.0
C560 C 0.52965 0.90948 0.8685 0.0
C561 C 0.53441 0.89429 0.89984 0.0
C562 C 0.55371 0.84805 0.90047 0.0
C563 C 0.5611 0.81979 0.02393 0.0
C564 C 0.5601 0.83582 0.98637 0.0
C565 C 0.54849 0.88192 0.88329 0.0
C566 C 0.55371 0.86613 0.91767 0.0
H567 H 0.54383 0.80594 0.14382 0.0
H568 H 0.54445 0.83267 0.08415 0.0
H569 H 0.5557 0.81918 0.92066 0.0
H570 H 0.56055 0.90244 0.76616 0.0
H571 H 0.56838 0.87547 0.82065 0.0
C572 C 0.71214 0.40337 0.07861 0.0
C573 C 0.7303 0.41287 0.08372 0.0
C574 C 0.69907 0.40946 0.04201 0.0
C575 C 0.68743 0.45045 0.95993 0.0
H576 H 0.65741 0.41418 0.88745 0.0
C577 C 0.63559 0.47144 0.79866 0.0
C578 C 0.61656 0.46315 0.80413 0.0
C579 C 0.65077 0.46483 0.82843 0.0
C580 C 0.66567 0.42446 0.90748 0.0
H581 H 0.74913 0.43606 0.05414 0.0
H582 H 0.72644 0.4466 0.98993 0.0
H583 H 0.68124 0.40382 0.949 0.0
H584 H 0.59868 0.44096 0.8429 0.0
H585 H 0.62513 0.4294 0.89463 0.0
H586 H 0.67179 0.47108 0.9183 0.0
C587 C 0.72209 0.43466 0.01483 0.0
C588 C 0.67925 0.41854 0.94293 0.0
C589 C 0.73509 0.42863 0.05164 0.0
C590 C 0.61318 0.44771 0.83829 0.0
C591 C 0.62836 0.441 0.86758 0.0
C592 C 0.67394 0.45637 0.92421 0.0
C593 C 0.70394 0.42511 0.00943 0.0
C594 C 0.69011 0.43145 0.97011 0.0
C595 C 0.64722 0.44968 0.86362 0.0
C596 C 0.66274 0.44343 0.89812 0.0
H597 H 0.70797 0.39129 0.10317 0.0
H598 H 0.68506 0.40198 0.03962 0.0
H599 H 0.69535 0.46078 0.98059 0.0
H600 H 0.63855 0.48341 0.77273 0.0
H601 H 0.66523 0.47168 0.82433 0.0
C602 C 0.93598 0.70386 0.98896 0.0
C603 C 0.93831 0.70075 0.0417 0.0
C604 C 0.93471 0.68902 0.95701 0.0
C605 C 0.92914 0.638 0.95161 0.0
H606 H 0.96963 0.64495 0.84323 0.0
C607 C 0.94968 0.58209 0.80667 0.0
C608 C 0.96989 0.57847 0.80532 0.0
C609 C 0.94272 0.59729 0.83221 0.0
C610 C 0.95816 0.64287 0.87303 0.0
H611 H 0.93938 0.67963 0.10292 0.0
H612 H 0.93704 0.65361 0.04702 0.0
H613 H 0.96109 0.67089 0.89466 0.0
H614 H 0.9987 0.58797 0.82824 0.0
H615 H 0.98662 0.61471 0.87175 0.0
H616 H 0.92672 0.60971 0.9304 0.0
C617 C 0.93619 0.66755 0.03043 0.0
C618 C 0.95314 0.65774 0.90222 0.0
C619 C 0.93751 0.68245 0.06247 0.0
C620 C 0.98304 0.59044 0.82896 0.0
C621 C 0.97615 0.60575 0.85357 0.0
C622 C 0.934 0.62313 0.92181 0.0
C623 C 0.93567 0.67074 0.97715 0.0
C624 C 0.93886 0.6554 0.9425 0.0
C625 C 0.95593 0.60927 0.85572 0.0
C626 C 0.9489 0.62536 0.88309 0.0
H627 H 0.9362 0.71783 0.97203 0.0
H628 H 0.93394 0.69187 0.91619 0.0
H629 H 0.91806 0.63583 0.98234 0.0
H630 H 0.93927 0.57298 0.7889 0.0
H631 H 0.92707 0.59976 0.83329 0.0
C632 C 0.09778 0.16883 0.43259 0.0
C633 C 0.10569 0.16843 0.38238 0.0
C634 C 0.08395 0.15521 0.45157 0.0
C635 C 0.06587 0.10766 0.43071 0.0
H636 H 0.02233 0.1206 0.52056 0.0
C637 C 0.0146 0.05089 0.52701 0.0
C638 C 0.01371 0.05199 0.58038 0.0
C639 C 0.02108 0.06632 0.49577 0.0
C640 C 0.03436 0.11679 0.49532 0.0
H641 H 0.10501 0.15362 0.31239 0.0
H642 H 0.08098 0.12984 0.34556 0.0
H643 H 0.04431 0.14502 0.48063 0.0
H644 H 0.01682 0.07042 0.64265 0.0
H645 H 0.02791 0.09722 0.58848 0.0
H646 H 0.05633 0.07943 0.44655 0.0
C647 C 0.08567 0.1405 0.37054 0.0
C648 C 0.04702 0.13075 0.47273 0.0
C649 C 0.09952 0.15409 0.35163 0.0
C650 C 0.01748 0.06917 0.60158 0.0
C651 C 0.02376 0.08457 0.57046 0.0
C652 C 0.05321 0.09371 0.45324 0.0
C653 C 0.07767 0.14093 0.42067 0.0
C654 C 0.06319 0.12631 0.44112 0.0
C655 C 0.02652 0.08309 0.51745 0.0
C656 C 0.03759 0.09808 0.48674 0.0
H657 H 0.10236 0.17963 0.4573 0.0
H658 H 0.07835 0.15574 0.49069 0.0
H659 H 0.07828 0.10373 0.40696 0.0
H660 H 0.01183 0.0378 0.50968 0.0
H661 H 0.02281 0.06486 0.45493 0.0
C662 C 0.34859 0.98243 0.36559 0.0
C663 C 0.34128 0.99947 0.37964 0.0
C664 C 0.36379 0.97439 0.39238 0.0
C665 C 0.39084 0.97548 0.51176 0.0
H666 H 0.43714 0.96724 0.42568 0.0
C667 C 0.46644 0.9639 0.59736 0.0
C668 C 0.47999 0.97796 0.57872 0.0
C669 C 0.44914 0.96037 0.57145 0.0
C670 C 0.42423 0.96915 0.45016 0.0
H671 H 0.34325 0.02097 0.43411 0.0
H672 H 0.36968 0.00685 0.48133 0.0
H673 H 0.40563 0.97283 0.38658 0.0
H674 H 0.48705 0.99829 0.51674 0.0
H675 H 0.45722 0.99182 0.47093 0.0
H676 H 0.40969 0.97275 0.57516 0.0
C677 C 0.3637 -0.00029 0.44964 0.0
C678 C 0.4062 0.97227 0.42787 0.0
C679 C 0.34872 0.00787 0.42244 0.0
C680 C 0.47679 0.98739 0.5319 0.0
C681 C 0.45977 0.98362 0.50557 0.0
C682 C 0.40882 0.97213 0.53409 0.0
C683 C 0.3717 0.98312 0.43413 0.0
C684 C 0.38953 0.97616 0.45837 0.0
C685 C 0.44545 0.97056 0.52602 0.0
C686 C 0.42583 0.96965 0.50334 0.0
H687 H 0.34318 0.97575 0.33247 0.0
H688 H 0.3697 0.96159 0.37973 0.0
H689 H 0.37816 0.97832 0.53609 0.0
H690 H 0.46853 0.95652 0.6336 0.0
H691 H 0.43831 0.95022 0.5879 0.0
C692 C 0.47732 0.34533 0.35518 0.0
C693 C 0.45711 0.34186 0.36692 0.0
C694 C 0.48778 0.35933 0.37872 0.0
C695 C 0.47948 0.40245 0.44487 0.0
H696 H 0.53379 0.39781 0.48314 0.0
C697 C 0.52058 0.46439 0.52122 0.0
C698 C 0.53093 0.4609 0.56577 0.0
C699 C 0.51476 0.44988 0.49138 0.0
C700 C 0.51861 0.3993 0.47279 0.0
H701 H 0.43219 0.3498 0.41393 0.0
H702 H 0.45047 0.37401 0.45584 0.0
H703 H 0.51645 0.37174 0.44641 0.0
H704 H 0.54455 0.43977 0.61235 0.0
H705 H 0.53392 0.41421 0.56098 0.0
H706 H 0.48122 0.4296 0.47289 0.0
C707 C 0.45816 0.36624 0.42748 0.0
C708 C 0.50872 0.38442 0.45134 0.0
C709 C 0.44769 0.35234 0.40366 0.0
C710 C 0.5367 0.44282 0.57789 0.0
C711 C 0.53057 0.42819 0.54845 0.0
C712 C 0.48929 0.41722 0.46645 0.0
C713 C 0.47826 0.37011 0.4147 0.0
C714 C 0.48899 0.38581 0.43739 0.0
C715 C 0.5188 0.43149 0.50609 0.0
C716 C 0.50898 0.41588 0.48071 0.0
H717 H 0.48492 0.33762 0.3265 0.0
H718 H 0.50315 0.36207 0.36749 0.0
H719 H 0.46442 0.40415 0.43383 0.0
H720 H 0.5161 0.47827 0.51083 0.0
H721 H 0.50627 0.453 0.4581 0.0
C722 C 0.15033 0.52786 0.28805 0.0
C723 C 0.16923 0.53358 0.30253 0.0
C724 C 0.13352 0.53277 0.31571 0.0
C725 C 0.11845 0.54729 0.44432 0.0
H726 H 0.06724 0.54847 0.38368 0.0
C727 C 0.03973 0.51947 0.51552 0.0
C728 C 0.03712 0.52805 0.56205 0.0
C729 C 0.0534 0.52683 0.47834 0.0
C730 C 0.08149 0.54849 0.40096 0.0
H731 H 0.18507 0.54971 0.35668 0.0
H732 H 0.15575 0.55907 0.40315 0.0
H733 H 0.09709 0.54928 0.32849 0.0
H734 H 0.04578 0.55154 0.6054 0.0
H735 H 0.07037 0.56415 0.54067 0.0
H736 H 0.10272 0.54621 0.51674 0.0
C737 C 0.15393 0.55027 0.37128 0.0
C738 C 0.09859 0.54872 0.3695 0.0
C739 C 0.1708 0.54508 0.3441 0.0
C740 C 0.04743 0.5448 0.56953 0.0
C741 C 0.06151 0.55195 0.53274 0.0
C742 C 0.10138 0.54742 0.47567 0.0
C743 C 0.13507 0.54386 0.35814 0.0
C744 C 0.11725 0.54729 0.39081 0.0
C745 C 0.06503 0.54266 0.48759 0.0
C746 C 0.08274 0.54728 0.45431 0.0
H747 H 0.14845 0.51938 0.25552 0.0
H748 H 0.11935 0.52729 0.30466 0.0
H749 H 0.13243 0.54596 0.4624 0.0
H750 H 0.03195 0.5065 0.50907 0.0
H751 H 0.05597 0.5193 0.44411 0.0
C752 C 0.9976 0.82697 0.98329 0.0
C753 C 0.0011 0.82702 0.03574 0.0
C754 C 0.00266 0.84248 0.95127 0.0
C755 C 0.03222 0.88646 0.93969 0.0
H756 H 0.99214 0.90046 0.84511 0.0
C757 C 0.03269 0.95702 0.82266 0.0
C758 C 0.02606 0.95655 0.77255 0.0
C759 C 0.03175 0.94095 0.85475 0.0
C760 C 0.00362 0.89662 0.87077 0.0
H761 H 0.01328 0.84309 0.09555 0.0
H762 H 0.02206 0.87039 0.0394 0.0
H763 H 0.98672 0.87291 0.90117 0.0
H764 H 0.01442 0.93868 0.71578 0.0
H765 H 0.01308 0.91075 0.77127 0.0
H766 H 0.04903 0.91042 0.90916 0.0
C767 C 0.01553 0.85825 0.02307 0.0
C768 C 0.0005 0.88082 0.90294 0.0
C769 C 0.0105 0.84265 0.0552 0.0
C770 C 0.01939 0.93957 0.75441 0.0
C771 C 0.01853 0.92356 0.78629 0.0
C772 C 0.03536 0.90235 0.90733 0.0
C773 C 0.01128 0.85844 0.97096 0.0
C774 C 0.01481 0.87545 0.93747 0.0
C775 C 0.02421 0.92415 0.83719 0.0
C776 C 0.02113 0.90749 0.87223 0.0
H777 H 0.99075 0.81497 0.96704 0.0
H778 H 0.99962 0.84204 0.91107 0.0
H779 H 0.04355 0.88261 0.96578 0.0
H780 H 0.03792 0.96991 0.83769 0.0
H781 H 0.03617 0.94184 0.89385 0.0
C782 C 0.69256 0.06641 0.97553 0.0
C783 C 0.69427 0.05456 0.01913 0.0
C784 C 0.67681 0.06394 0.94324 0.0
C785 C 0.6419 0.0281 0.9044 0.0
H786 H 0.60904 0.06837 0.86173 0.0
C787 C 0.56836 0.01306 0.81457 0.0
C788 C 0.56337 0.02413 0.77186 0.0
C789 C 0.58414 0.01824 0.84387 0.0
C790 C 0.61824 0.05704 0.87279 0.0
H791 H 0.68106 0.03076 0.06276 0.0
H792 H 0.65371 0.02645 0.00654 0.0
H793 H 0.63772 0.07467 0.91315 0.0
H794 H 0.57048 0.04971 0.72748 0.0
H795 H 0.59846 0.05867 0.77845 0.0
H796 H 0.62276 0.01044 0.86416 0.0
C797 C 0.66446 0.03765 0.99732 0.0
C798 C 0.63462 0.06065 0.90218 0.0
C799 C 0.68001 0.04022 0.02974 0.0
C800 C 0.574 0.04092 0.76027 0.0
C801 C 0.58998 0.04605 0.78948 0.0
C802 C 0.6257 0.02452 0.87488 0.0
C803 C 0.66273 0.04941 0.95366 0.0
C804 C 0.64636 0.04613 0.91904 0.0
C805 C 0.5955 0.03452 0.8309 0.0
C806 C 0.61341 0.03885 0.8596 0.0
H807 H 0.70332 0.07763 0.96665 0.0
H808 H 0.67583 0.07315 0.90968 0.0
H809 H 0.65094 0.0167 0.91603 0.0
H810 H 0.56028 0.00015 0.82494 0.0
H811 H 0.58761 0.0093 0.87638 0.0
C812 C 0.51913 0.65537 0.0369 0.0
C813 C 0.53285 0.6546 0.07564 0.0
C814 C 0.51721 0.64087 0.00384 0.0
C815 C 0.52901 0.59151 0.99086 0.0
H816 H 0.52087 0.60277 0.84723 0.0
C817 C 0.53856 0.53843 0.83453 0.0
C818 C 0.52431 0.53804 0.797 0.0
C819 C 0.53849 0.55214 0.87032 0.0
C820 C 0.52292 0.5994 0.88736 0.0
H821 H 0.55563 0.63832 0.1095 0.0
H822 H 0.55258 0.6132 0.05133 0.0
H823 H 0.5231 0.62789 0.9057 0.0
H824 H 0.49861 0.55151 0.76822 0.0
H825 H 0.49859 0.57547 0.83062 0.0
H826 H 0.52927 0.56302 0.97201 0.0
C827 C 0.5429 0.62472 0.04721 0.0
C828 C 0.52416 0.61379 0.92091 0.0
C829 C 0.54471 0.63914 0.08046 0.0
C830 C 0.5098 0.55143 0.79661 0.0
C831 C 0.50984 0.56522 0.83212 0.0
C832 C 0.52792 0.57714 0.9572 0.0
C833 C 0.5291 0.62537 0.00856 0.0
C834 C 0.52729 0.61003 0.97306 0.0
C835 C 0.52429 0.56581 0.86903 0.0
C836 C 0.52491 0.58095 0.9051 0.0
H837 H 0.50966 0.66704 0.03268 0.0
H838 H 0.50622 0.64171 0.975 0.0
H839 H 0.53106 0.58807 0.03092 0.0
H840 H 0.54992 0.5283 0.83587 0.0
H841 H 0.54989 0.55234 0.89813 0.0
C842 C 0.88709 0.39705 0.10402 0.0
C843 C 0.86931 0.39316 0.08021 0.0
C844 C 0.90409 0.40271 0.07486 0.0
C845 C 0.92592 0.40625 0.9422 0.0
H846 H 0.9536 0.44963 0.98935 0.0
C847 C 0.98805 0.44461 0.8189 0.0
C848 C 0.98648 0.46395 0.81438 0.0
C849 C 0.97688 0.43408 0.85644 0.0
C850 C 0.94605 0.4375 0.97569 0.0
H851 H 0.85572 0.39107 0.00707 0.0
H852 H 0.88518 0.40131 0.9563 0.0
H853 H 0.92788 0.43381 0.04403 0.0
H854 H 0.9726 0.48746 0.84714 0.0
H855 H 0.95301 0.46913 0.91197 0.0
H856 H 0.94336 0.41055 0.87273 0.0
C857 C 0.88611 0.39986 0.99744 0.0
C858 C 0.93146 0.42828 0.00729 0.0
C859 C 0.86913 0.3942 0.02657 0.0
C860 C 0.97415 0.47259 0.84951 0.0
C861 C 0.963 0.46207 0.88698 0.0
C862 C 0.94049 0.41549 0.91055 0.0
C863 C 0.90367 0.40458 0.02128 0.0
C864 C 0.9209 0.41281 0.99043 0.0
C865 C 0.96394 0.44267 0.89028 0.0
C866 C 0.95039 0.43149 0.92646 0.0
H867 H 0.88769 0.39651 0.14529 0.0
H868 H 0.91746 0.40602 0.09435 0.0
H869 H 0.91824 0.39422 0.92836 0.0
H870 H 0.9975 0.43753 0.79257 0.0
H871 H 0.97813 0.41918 0.85844 0.0
C872 C 0.11937 0.16743 0.10017 0.0
C873 C 0.12573 0.18527 0.08164 0.0
C874 C 0.11509 0.15364 0.06645 0.0
C875 C 0.09787 0.14633 0.94025 0.0
H876 H 0.11881 0.09739 0.95964 0.0
C877 C 0.07614 0.0879 0.80963 0.0
C878 C 0.07288 0.07009 0.83266 0.0
C879 C 0.08505 0.10198 0.83629 0.0
C880 C 0.11263 0.1109 0.95398 0.0
H881 H 0.13274 0.20275 0.01356 0.0
H882 H 0.12463 0.17859 0.95398 0.0
H883 H 0.12956 0.12216 0.01335 0.0
H884 H 0.07659 0.05283 0.90106 0.0
H885 H 0.09149 0.07754 0.94869 0.0
H886 H 0.08016 0.13505 0.88291 0.0
C887 C 0.12315 0.17534 0.99475 0.0
C888 C 0.11892 0.1251 0.98454 0.0
C889 C 0.1278 0.18909 0.02865 0.0
C890 C 0.0791 0.06644 0.88242 0.0
C891 C 0.08772 0.08062 0.90951 0.0
C892 C 0.09133 0.13207 0.91023 0.0
C893 C 0.11683 0.15748 0.01346 0.0
C894 C 0.11145 0.14289 0.97826 0.0
C895 C 0.09059 0.09866 0.88701 0.0
C896 C 0.09848 0.11409 0.91699 0.0
H897 H 0.11789 0.16408 0.14091 0.0
H898 H 0.11009 0.14004 0.08182 0.0
H899 H 0.09172 0.15988 0.93511 0.0
H900 H 0.07166 0.09096 0.77097 0.0
H901 H 0.08744 0.11552 0.81715 0.0
C902 C 0.34111 0.00463 0.01928 0.0
C903 C 0.3348 0.02196 0.0342 0.0
C904 C 0.3569 0.00343 0.98384 0.0
C905 C 0.40058 0.03117 0.93013 0.0
H906 H 0.40432 0.99114 0.83747 0.0
C907 C 0.46432 0.02669 0.77792 0.0
C908 C 0.47281 0.00932 0.77463 0.0
C909 C 0.44711 0.02863 0.80802 0.0
C910 C 0.40351 0.00233 0.86338 0.0
H911 H 0.33985 0.05167 0.02145 0.0
H912 H 0.36657 0.04957 0.95809 0.0
H913 H 0.37421 0.99396 0.8899 0.0
H914 H 0.4699 0.98037 0.80054 0.0
H915 H 0.43983 0.98377 0.85267 0.0
H916 H 0.42984 0.03962 0.90297 0.0
C917 C 0.35971 0.03685 0.9749 0.0
C918 C 0.38627 0.00394 0.89355 0.0
C919 C 0.34407 0.03805 0.01071 0.0
C920 C 0.46377 0.99396 0.80231 0.0
C921 C 0.44646 0.99586 0.83187 0.0
C922 C 0.41772 0.02966 0.89954 0.0
C923 C 0.36668 0.01954 0.96193 0.0
C924 C 0.38462 0.0183 0.92769 0.0
C925 C 0.4379 0.0132 0.83494 0.0
C926 C 0.41944 0.01514 0.86619 0.0
H927 H 0.33416 0.99192 0.03586 0.0
H928 H 0.36186 0.98983 0.97515 0.0
H929 H 0.40008 0.04218 0.95662 0.0
H930 H 0.47089 0.0388 0.75704 0.0
H931 H 0.44079 0.04215 0.80946 0.0
C932 C 0.4372 0.33762 0.99748 0.0
C933 C 0.4425 0.33821 0.04871 0.0
C934 C 0.44279 0.35224 0.96231 0.0
C935 C 0.47933 0.39151 0.94462 0.0
H936 H 0.44592 0.40827 0.8362 0.0
C937 C 0.50996 0.44213 0.78558 0.0
C938 C 0.49825 0.45671 0.76902 0.0
C939 C 0.50192 0.42751 0.81703 0.0
C940 C 0.45533 0.40385 0.86656 0.0
H941 H 0.45685 0.35496 0.10385 0.0
H942 H 0.46628 0.38045 0.04322 0.0
H943 H 0.43393 0.38335 0.89724 0.0
H944 H 0.4687 0.46709 0.7712 0.0
H945 H 0.45461 0.44158 0.82782 0.0
H946 H 0.50047 0.41221 0.91542 0.0
C947 C 0.45842 0.3685 0.02949 0.0
C948 C 0.44857 0.38941 0.90114 0.0
C949 C 0.45302 0.35388 0.06432 0.0
C950 C 0.47808 0.45607 0.78352 0.0
C951 C 0.47002 0.44142 0.8157 0.0
C952 C 0.48599 0.40592 0.91045 0.0
C953 C 0.45363 0.36781 0.97787 0.0
C954 C 0.46052 0.38307 0.9406 0.0
C955 C 0.48198 0.42714 0.83353 0.0
C956 C 0.4742 0.41219 0.87067 0.0
H957 H 0.42905 0.32571 0.98447 0.0
H958 H 0.439 0.35117 0.92278 0.0
H959 H 0.48908 0.38686 0.97396 0.0
H960 H 0.52548 0.44199 0.77439 0.0
H961 H 0.51146 0.41652 0.82871 0.0
C962 C 0.20581 0.52837 0.93656 0.0
C963 C 0.20238 0.53275 0.98766 0.0
C964 C 0.1904 0.52852 0.90251 0.0
C965 C 0.13757 0.54149 0.89039 0.0
H966 H 0.13648 0.50111 0.79856 0.0
C967 C 0.06988 0.52711 0.7696 0.0
C968 C 0.0648 0.50857 0.76111 0.0
C969 C 0.08777 0.53179 0.79126 0.0
C970 C 0.13639 0.51234 0.82439 0.0
H971 H 0.18026 0.54103 0.04297 0.0
H972 H 0.15346 0.54076 0.98478 0.0
H973 H 0.16558 0.50686 0.84698 0.0
H974 H 0.07426 0.48033 0.76908 0.0
H975 H 0.10489 0.48827 0.80953 0.0
H976 H 0.10786 0.54605 0.87098 0.0
C977 C 0.16805 0.53781 0.9699 0.0
C978 C 0.15333 0.51591 0.85151 0.0
C979 C 0.18347 0.53795 0.00353 0.0
C980 C 0.07786 0.49476 0.77498 0.0
C981 C 0.09555 0.49938 0.79771 0.0
C982 C 0.12049 0.53768 0.86411 0.0
C983 C 0.17115 0.53271 0.91917 0.0
C984 C 0.15405 0.53033 0.88564 0.0
C985 C 0.10082 0.51798 0.80604 0.0
C986 C 0.11952 0.52285 0.83132 0.0
H987 H 0.22028 0.52436 0.92332 0.0
H988 H 0.1935 0.52491 0.86349 0.0
H989 H 0.13765 0.55298 0.91536 0.0
H990 H 0.06019 0.53808 0.75862 0.0
H991 H 0.09138 0.54629 0.79592 0.0
C992 C 0.93108 0.81132 0.36697 0.0
C993 C 0.93002 0.8113 0.31351 0.0
C994 C 0.92882 0.82768 0.3925 0.0
C995 C 0.93709 0.87767 0.36566 0.0
H996 H 0.92007 0.88006 0.50794 0.0
C997 C 0.9534 0.94259 0.47895 0.0
C998 C 0.9625 0.9386 0.52526 0.0
C999 C 0.94413 0.9284 0.4531 0.0
C1000 C 0.92481 0.87963 0.46811 0.0
H1001 H 0.92406 0.82821 0.24557 0.0
H1002 H 0.91942 0.85653 0.29031 0.0
H1003 H 0.91213 0.85233 0.46206 0.0
H1004 H 0.96801 0.91692 0.58237 0.0
H1005 H 0.952 0.89222 0.53735 0.0
H1006 H 0.95029 0.9047 0.37213 0.0
C1007 C 0.92254 0.844 0.31237 0.0
C1008 C 0.9203 0.86373 0.44184 0.0
C1009 C 0.92492 0.82766 0.28678 0.0
C1010 C 0.96135 0.92035 0.54638 0.0
C1011 C 0.95196 0.90624 0.52088 0.0
C1012 C 0.9415 0.89358 0.39183 0.0
C1013 C 0.9253 0.84439 0.36522 0.0
C1014 C 0.92693 0.86232 0.39072 0.0
C1015 C 0.94358 0.91002 0.47347 0.0
C1016 C 0.93595 0.89451 0.44377 0.0
H1017 H 0.93467 0.79889 0.38883 0.0
H1018 H 0.93112 0.82741 0.43318 0.0
H1019 H 0.94271 0.87703 0.3266 0.0
H1020 H 0.95408 0.95653 0.46181 0.0
H1021 H 0.93769 0.93174 0.41676 0.0
C1022 C 0.71008 0.0006 0.35192 0.0
C1023 C 0.71157 0.01892 0.3312 0.0
C1024 C 0.69315 0.99422 0.38082 0.0
C1025 C 0.64066 0.0024 0.39418 0.0
H1026 H 0.64204 0.98373 0.53509 0.0
C1027 C 0.57475 0.00734 0.53287 0.0
C1028 C 0.57045 0.99342 0.57129 0.0
C1029 C 0.59161 0.00678 0.50111 0.0
C1030 C 0.64138 0.98852 0.49544 0.0
H1031 H 0.69646 0.04479 0.32384 0.0
H1032 H 0.66706 0.03364 0.37352 0.0
H1033 H 0.67295 0.98943 0.48446 0.0
H1034 H 0.58036 0.96769 0.60574 0.0
H1035 H 0.61001 0.96665 0.54959 0.0
H1036 H 0.6093 0.00182 0.40473 0.0
C1037 C 0.67898 0.02427 0.36794 0.0
C1038 C 0.65908 0.99182 0.46659 0.0
C1039 C 0.6959 0.0307 0.33999 0.0
C1040 C 0.58326 0.97863 0.57645 0.0
C1041 C 0.60028 0.97809 0.54453 0.0
C1042 C 0.62305 0.99895 0.42267 0.0
C1043 C 0.67733 0.00595 0.38825 0.0
C1044 C 0.65885 0.99941 0.41629 0.0
C1045 C 0.60469 0.99224 0.50666 0.0
C1046 C 0.6232 0.99264 0.47424 0.0
H1047 H 0.72193 0.99123 0.34556 0.0
H1048 H 0.69219 0.98003 0.39618 0.0
H1049 H 0.6401 0.00798 0.35516 0.0
H1050 H 0.56525 0.01896 0.52775 0.0
H1051 H 0.59468 0.01811 0.47311 0.0
C1052 C 0.60037 0.67474 0.40958 0.0
C1053 C 0.59635 0.67232 0.35804 0.0
C1054 C 0.60311 0.6594 0.4428 0.0
C1055 C 0.60735 0.60787 0.45032 0.0
H1056 H 0.57017 0.61066 0.56541 0.0
C1057 C 0.54896 0.55734 0.57429 0.0
C1058 C 0.56039 0.54314 0.59458 0.0
C1059 C 0.55794 0.57322 0.55027 0.0
C1060 C 0.58076 0.60971 0.53376 0.0
H1061 H 0.59381 0.65196 0.30019 0.0
H1062 H 0.59859 0.62543 0.35773 0.0
H1063 H 0.58 0.63865 0.51452 0.0
H1064 H 0.59027 0.53427 0.60427 0.0
H1065 H 0.60605 0.56214 0.56083 0.0
H1066 H 0.60709 0.57858 0.46846 0.0
C1067 C 0.59979 0.63912 0.37264 0.0
C1068 C 0.5866 0.62579 0.50488 0.0
C1069 C 0.59705 0.65441 0.33948 0.0
C1070 C 0.58108 0.545 0.5891 0.0
C1071 C 0.5901 0.56089 0.5643 0.0
C1072 C 0.60156 0.59173 0.47956 0.0
C1073 C 0.60188 0.64135 0.42514 0.0
C1074 C 0.5994 0.62499 0.46168 0.0
C1075 C 0.57857 0.57526 0.54544 0.0
C1076 C 0.58762 0.59245 0.52031 0.0
H1077 H 0.6003 0.68838 0.42486 0.0
H1078 H 0.60509 0.66161 0.4829 0.0
H1079 H 0.61738 0.60683 0.41755 0.0
H1080 H 0.533 0.5564 0.5777 0.0
H1081 H 0.54868 0.58393 0.53523 0.0
C1082 C 0.83363 0.448 0.38742 0.0
C1083 C 0.83194 0.42863 0.38456 0.0
C1084 C 0.84754 0.45603 0.41859 0.0
C1085 C 0.89592 0.44703 0.46315 0.0
H1086 H 0.88721 0.483 0.56594 0.0
C1087 C 0.95646 0.46509 0.59853 0.0
C1088 C 0.95927 0.48348 0.61229 0.0
C1089 C 0.93995 0.45971 0.57225 0.0
C1090 C 0.88992 0.47319 0.53679 0.0
H1091 H 0.84305 0.40253 0.41326 0.0
H1092 H 0.86731 0.41656 0.4672 0.0
H1093 H 0.85934 0.4713 0.51822 0.0
H1094 H 0.94675 0.51065 0.61017 0.0
H1095 H 0.91794 0.50132 0.56252 0.0
H1096 H 0.92635 0.44904 0.48006 0.0
C1097 C 0.85782 0.42548 0.44557 0.0
C1098 C 0.87397 0.46646 0.50975 0.0
C1099 C 0.84382 0.41747 0.41505 0.0
C1100 C 0.94496 0.49637 0.59997 0.0
C1101 C 0.92844 0.491 0.57291 0.0
C1102 C 0.91181 0.4539 0.48945 0.0
C1103 C 0.86014 0.44481 0.44666 0.0
C1104 C 0.87683 0.45302 0.47353 0.0
C1105 C 0.9259 0.47263 0.55817 0.0
C1106 C 0.90899 0.46672 0.5275 0.0
H1107 H 0.82459 0.45691 0.36446 0.0
H1108 H 0.8491 0.47098 0.41881 0.0
H1109 H 0.89856 0.43698 0.43454 0.0
H1110 H 0.96704 0.45473 0.60817 0.0
H1111 H 0.93823 0.44532 0.56299 0.0
loop_
_geom_bond_atom_site_label_1
_geom_bond_atom_site_label_2
_geom_bond_distance
_geom_bond_site_symmetry_2
_ccdc_geom_bond_type
P0 O11 1.490 . S
P0 C14 1.812 . S
P0 C20 1.803 . S
P0 C26 1.819 . S
H1 C15 0.941 . S
H2 C16 0.939 . S
H3 C18 0.940 . S
H4 C19 0.940 . S
H5 C21 0.939 . S
H6 C22 0.942 . S
H7 C24 0.940 . S
H8 C25 0.939 . S
H9 C27 0.941 . S
H10 C31 0.939 . S
O11 P0 1.490 . S
H12 C28 0.939 . S
H13 C30 0.940 1_556 S
C14 P0 1.812 . S
C14 C15 1.389 . S
C14 C19 1.391 . S
C15 H1 0.941 . S
C15 C14 1.389 . S
C15 C16 1.397 . S
C16 H2 0.939 . S
C16 C15 1.397 . S
C16 C17 1.378 . S
C17 C16 1.378 . S
C17 C18 1.378 . S
C18 H3 0.940 . S
C18 C17 1.378 . S
C18 C19 1.396 . S
C19 H4 0.940 . S
C19 C14 1.391 . S
C19 C18 1.396 . S
C20 P0 1.803 . S
C20 C21 1.378 . S
C20 C25 1.400 . S
C21 H5 0.939 . S
C21 C20 1.378 . S
C21 C22 1.361 . S
C22 H6 0.942 . S
C22 C21 1.361 . S
C22 C23 1.369 . S
C23 C22 1.369 . S
C23 C24 1.404 . S
C24 H7 0.940 . S
C24 C23 1.404 . S
C24 C25 1.389 . S
C25 H8 0.939 . S
C25 C20 1.400 . S
C25 C24 1.389 . S
C26 P0 1.819 . S
C26 C27 1.391 . S
C26 C31 1.391 . S
C27 H9 0.941 . S
C27 C26 1.391 . S
C27 C28 1.396 . S
C28 H12 0.939 . S
C28 C27 1.396 . S
C28 C29 1.397 . S
C29 C28 1.397 . S
C29 C30 1.385 . S
C30 H13 0.940 1_554 S
C30 C29 1.385 . S
C30 C31 1.388 . S
C31 H10 0.939 . S
C31 C26 1.391 . S
C31 C30 1.388 . S
P32 O43 1.490 . S
P32 C46 1.812 . S
P32 C52 1.803 1_554 S
P32 C58 1.819 1_554 S
H33 C47 0.941 . S
H34 C48 0.939 . S
H35 C50 0.940 . S
H36 C51 0.940 . S
H37 C53 0.939 . S
H38 C54 0.942 . S
H39 C56 0.940 1_554 S
H40 C57 0.939 . S
H41 C59 0.941 . S
H42 C63 0.939 . S
O43 P32 1.490 . S
H44 C60 0.939 . S
H45 C62 0.940 . S
C46 P32 1.812 . S
C46 C47 1.389 . S
C46 C51 1.391 . S
C47 H33 0.941 . S
C47 C46 1.389 . S
C47 C48 1.397 . S
C48 H34 0.939 . S
C48 C47 1.397 . S
C48 C49 1.378 . S
C49 C48 1.378 . S
C49 C50 1.378 . S
C50 H35 0.940 . S
C50 C49 1.378 . S
C50 C51 1.396 . S
C51 H36 0.940 . S
C51 C46 1.391 . S
C51 C50 1.396 . S
C52 P32 1.803 1_556 S
C52 C53 1.378 . S
C52 C57 1.400 1_556 S
C53 H37 0.939 . S
C53 C52 1.378 . S
C53 C54 1.361 . S
C54 H38 0.942 . S
C54 C53 1.361 . S
C54 C55 1.369 . S
C55 C54 1.369 . S
C55 C56 1.404 . S
C56 H39 0.940 1_556 S
C56 C55 1.404 . S
C56 C57 1.389 1_556 S
C57 H40 0.939 . S
C57 C52 1.400 1_554 S
C57 C56 1.389 1_554 S
C58 P32 1.819 1_556 S
C58 C59 1.391 . S
C58 C63 1.391 . S
C59 H41 0.941 . S
C59 C58 1.391 . S
C59 C60 1.396 . S
C60 H44 0.939 . S
C60 C59 1.396 . S
C60 C61 1.397 . S
C61 C60 1.397 . S
C61 C62 1.385 . S
C62 H45 0.940 . S
C62 C61 1.385 . S
C62 C63 1.388 . S
C63 H42 0.939 . S
C63 C58 1.391 . S
C63 C62 1.388 . S
P64 O75 1.490 . S
P64 C78 1.812 . S
P64 C84 1.803 . S
P64 C90 1.819 . S
H65 C79 0.941 . S
H66 C80 0.939 . S
H67 C82 0.940 . S
H68 C83 0.951 . S
H69 C85 0.939 . S
H70 C86 0.942 1_556 S
H71 C88 0.940 . S
H72 C89 0.958 . S
H73 C91 0.941 . S
H74 C95 0.928 1_565 S
O75 P64 1.490 . S
H76 C92 0.939 . S
H77 C94 0.940 . S
C78 P64 1.812 . S
C78 C79 1.389 . S
C78 C83 1.375 1_545 S
C79 H65 0.941 . S
C79 C78 1.389 . S
C79 C80 1.397 . S
C80 H66 0.939 . S
C80 C79 1.397 . S
C80 C81 1.378 . S
C81 C80 1.378 . S
C81 C82 1.378 1_545 S
C82 H67 0.940 . S
C82 C81 1.378 1_565 S
C82 C83 1.402 . S
C83 H68 0.951 . S
C83 C78 1.375 1_565 S
C83 C82 1.402 . S
C84 P64 1.803 . S
C84 C85 1.378 . S
C84 C89 1.368 1_545 S
C85 H69 0.939 . S
C85 C84 1.378 . S
C85 C86 1.361 . S
C86 H70 0.942 1_554 S
C86 C85 1.361 . S
C86 C87 1.369 . S
C87 C86 1.369 . S
C87 C88 1.404 1_545 S
C88 H71 0.940 . S
C88 C87 1.404 1_565 S
C88 C89 1.403 . S
C89 H72 0.958 . S
C89 C84 1.368 1_565 S
C89 C88 1.403 . S
C90 P64 1.819 . S
C90 C91 1.391 . S
C90 C95 1.391 1_554 S
C91 H73 0.941 . S
C91 C90 1.391 . S
C91 C92 1.396 1_554 S
C92 H76 0.939 . S
C92 C91 1.396 1_556 S
C92 C93 1.397 . S
C93 C92 1.397 . S
C93 C94 1.385 1_545 S
C94 H77 0.940 . S
C94 C93 1.385 1_565 S
C94 C95 1.388 1_565 S
C95 H74 0.928 1_545 S
C95 C90 1.391 1_556 S
C95 C94 1.388 1_545 S
P96 O107 1.490 . S
P96 C110 1.812 . S
P96 C116 1.803 . S
P96 C122 1.819 . S
H97 C111 0.941 . S
H98 C112 0.939 . S
H99 C114 0.940 . S
H100 C115 0.940 . S
H101 C117 0.939 . S
H102 C118 0.942 . S
H103 C120 0.940 . S
H104 C121 0.939 . S
H105 C123 0.941 . S
H106 C127 0.939 1_556 S
O107 P96 1.490 . S
H108 C124 0.939 . S
H109 C126 0.940 . S
C110 P96 1.812 . S
C110 C111 1.389 . S
C110 C115 1.391 . S
C111 H97 0.941 . S
C111 C110 1.389 . S
C111 C112 1.397 . S
C112 H98 0.939 . S
C112 C111 1.397 . S
C112 C113 1.378 . S
C113 C112 1.378 . S
C113 C114 1.378 . S
C114 H99 0.940 . S
C114 C113 1.378 . S
C114 C115 1.396 . S
C115 H100 0.940 . S
C115 C110 1.391 . S
C115 C114 1.396 . S
C116 P96 1.803 . S
C116 C117 1.378 . S
C116 C121 1.400 . S
C117 H101 0.939 . S
C117 C116 1.378 . S
C117 C118 1.361 . S
C118 H102 0.942 . S
C118 C117 1.361 . S
C118 C119 1.369 . S
C119 C118 1.369 . S
C119 C120 1.404 . S
C120 H103 0.940 . S
C120 C119 1.404 . S
C120 C121 1.389 . S
C121 H104 0.939 . S
C121 C116 1.400 . S
C121 C120 1.389 . S
C122 P96 1.819 . S
C122 C123 1.391 . S
C122 C127 1.391 . S
C123 H105 0.941 . S
C123 C122 1.391 . S
C123 C124 1.396 . S
C124 H108 0.939 . S
C124 C123 1.396 . S
C124 C125 1.397 1_554 S
C125 C124 1.397 1_556 S
C125 C126 1.385 . S
C126 H109 0.940 . S
C126 C125 1.385 . S
C126 C127 1.388 1_556 S
C127 H106 0.939 1_554 S
C127 C122 1.391 . S
C127 C126 1.388 1_554 S
P128 O139 1.490 . S
P128 C142 1.812 . S
P128 C148 1.803 . S
P128 C154 1.819 . S
H129 C143 0.941 . S
H130 C144 0.939 . S
H131 C146 0.940 . S
H132 C147 0.940 . S
H133 C149 0.939 . S
H134 C150 0.942 . S
H135 C152 0.940 . S
H136 C153 0.939 . S
H137 C155 0.941 . S
H138 C159 0.939 . S
O139 P128 1.490 . S
H140 C156 0.939 . S
H141 C158 0.940 . S
C142 P128 1.812 . S
C142 C143 1.389 . S
C142 C147 1.391 . S
C143 H129 0.941 . S
C143 C142 1.389 . S
C143 C144 1.397 . S
C144 H130 0.939 . S
C144 C143 1.397 . S
C144 C145 1.378 . S
C145 C144 1.378 . S
C145 C146 1.378 . S
C146 H131 0.940 . S
C146 C145 1.378 . S
C146 C147 1.396 . S
C147 H132 0.940 . S
C147 C142 1.391 . S
C147 C146 1.396 . S
C148 P128 1.803 . S
C148 C149 1.378 . S
C148 C153 1.400 . S
C149 H133 0.939 . S
C149 C148 1.378 . S
C149 C150 1.361 . S
C150 H134 0.942 . S
C150 C149 1.361 . S
C150 C151 1.369 . S
C151 C150 1.369 . S
C151 C152 1.404 . S
C152 H135 0.940 . S
C152 C151 1.404 . S
C152 C153 1.389 . S
C153 H136 0.939 . S
C153 C148 1.400 . S
C153 C152 1.389 . S
C154 P128 1.819 . S
C154 C155 1.391 . S
C154 C159 1.391 . S
C155 H137 0.941 . S
C155 C154 1.391 . S
C155 C156 1.396 . S
C156 H140 0.939 . S
C156 C155 1.396 . S
C156 C157 1.397 . S
C157 C156 1.397 . S
C157 C158 1.385 . S
C158 H141 0.940 . S
C158 C157 1.385 . S
C158 C159 1.388 . S
C159 H138 0.939 . S
C159 C154 1.391 . S
C159 C158 1.388 . S
P160 O171 1.490 . S
P160 C174 1.812 . S
P160 C180 1.803 . S
P160 C186 1.819 . S
H161 C175 0.941 . S
H162 C176 0.939 . S
H163 C178 0.940 . S
H164 C179 0.940 . S
H165 C181 0.939 . S
H166 C182 0.942 . S
H167 C184 0.940 . S
H168 C185 0.939 . S
H169 C187 0.941 . S
H170 C191 0.939 . S
O171 P160 1.490 . S
H172 C188 0.939 . S
H173 C190 0.940 . S
C174 P160 1.812 . S
C174 C175 1.389 . S
C174 C179 1.391 . S
C175 H161 0.941 . S
C175 C174 1.389 . S
C175 C176 1.397 . S
C176 H162 0.939 . S
C176 C175 1.397 . S
C176 C177 1.378 . S
C177 C176 1.378 . S
C177 C178 1.378 . S
C178 H163 0.940 . S
C178 C177 1.378 . S
C178 C179 1.396 . S
C179 H164 0.940 . S
C179 C174 1.391 . S
C179 C178 1.396 . S
C180 P160 1.803 . S
C180 C181 1.378 . S
C180 C185 1.400 . S
C181 H165 0.939 . S
C181 C180 1.378 . S
C181 C182 1.361 . S
C182 H166 0.942 . S
C182 C181 1.361 . S
C182 C183 1.369 . S
C183 C182 1.369 . S
C183 C184 1.404 . S
C184 H167 0.940 . S
C184 C183 1.404 . S
C184 C185 1.389 . S
C185 H168 0.939 . S
C185 C180 1.400 . S
C185 C184 1.389 . S
C186 P160 1.819 . S
C186 C187 1.391 . S
C186 C191 1.391 . S
C187 H169 0.941 . S
C187 C186 1.391 . S
C187 C188 1.396 . S
C188 H172 0.939 . S
C188 C187 1.396 . S
C188 C189 1.397 . S
C189 C188 1.397 . S
C189 C190 1.385 . S
C190 H173 0.940 . S
C190 C189 1.385 . S
C190 C191 1.388 . S
C191 H170 0.939 . S
C191 C186 1.391 . S
C191 C190 1.388 . S
P192 O203 1.490 . S
P192 C206 1.812 . S
P192 C212 1.803 . S
P192 C218 1.819 . S
H193 C207 0.941 . S
H194 C208 0.939 . S
H195 C210 0.940 . S
H196 C211 0.942 . S
H197 C213 0.939 . S
H198 C214 0.942 . S
H199 C216 0.940 . S
H200 C217 0.952 . S
H201 C219 0.941 . S
H202 C223 0.934 1_565 S
O203 P192 1.490 . S
H204 C220 0.939 . S
H205 C222 0.940 . S
C206 P192 1.812 . S
C206 C207 1.389 . S
C206 C211 1.388 1_545 S
C207 H193 0.941 . S
C207 C206 1.389 . S
C207 C208 1.397 . S
C208 H194 0.939 . S
C208 C207 1.397 . S
C208 C209 1.378 . S
C209 C208 1.378 . S
C209 C210 1.378 1_545 S
C210 H195 0.940 . S
C210 C209 1.378 1_565 S
C210 C211 1.398 . S
C211 H196 0.942 . S
C211 C206 1.388 1_565 S
C211 C210 1.398 . S
C212 P192 1.803 . S
C212 C213 1.378 . S
C212 C217 1.382 1_545 S
C213 H197 0.939 . S
C213 C212 1.378 . S
C213 C214 1.361 . S
C214 H198 0.942 . S
C214 C213 1.361 . S
C214 C215 1.369 . S
C215 C214 1.369 . S
C215 C216 1.404 1_545 S
C216 H199 0.940 . S
C216 C215 1.404 1_565 S
C216 C217 1.395 . S
C217 H200 0.952 . S
C217 C212 1.382 1_565 S
C217 C216 1.395 . S
C218 P192 1.819 . S
C218 C219 1.391 . S
C218 C223 1.391 . S
C219 H201 0.941 . S
C219 C218 1.391 . S
C219 C220 1.396 . S
C220 H204 0.939 . S
C220 C219 1.396 . S
C220 C221 1.397 . S
C221 C220 1.397 . S
C221 C222 1.385 1_545 S
C222 H205 0.940 . S
C222 C221 1.385 1_565 S
C222 C223 1.388 1_565 S
C223 H202 0.934 1_545 S
C223 C218 1.391 . S
C223 C222 1.388 1_545 S
P224 O235 1.490 . S
P224 C238 1.812 . S
P224 C244 1.803 . S
P224 C250 1.819 . S
H225 C239 0.941 . S
H226 C240 0.939 . S
H227 C242 0.940 . S
H228 C243 0.940 . S
H229 C245 0.939 . S
H230 C246 0.942 . S
H231 C248 0.940 . S
H232 C249 0.939 . S
H233 C251 0.941 . S
H234 C255 0.939 . S
O235 P224 1.490 . S
H236 C252 0.939 . S
H237 C254 0.940 . S
C238 P224 1.812 . S
C238 C239 1.389 . S
C238 C243 1.391 . S
C239 H225 0.941 . S
C239 C238 1.389 . S
C239 C240 1.397 . S
C240 H226 0.939 . S
C240 C239 1.397 . S
C240 C241 1.378 . S
C241 C240 1.378 . S
C241 C242 1.378 . S
C242 H227 0.940 . S
C242 C241 1.378 . S
C242 C243 1.396 . S
C243 H228 0.940 . S
C243 C238 1.391 . S
C243 C242 1.396 . S
C244 P224 1.803 . S
C244 C245 1.378 . S
C244 C249 1.400 . S
C245 H229 0.939 . S
C245 C244 1.378 . S
C245 C246 1.361 . S
C246 H230 0.942 . S
C246 C245 1.361 . S
C246 C247 1.369 . S
C247 C246 1.369 . S
C247 C248 1.404 . S
C248 H231 0.940 . S
C248 C247 1.404 . S
C248 C249 1.389 . S
C249 H232 0.939 . S
C249 C244 1.400 . S
C249 C248 1.389 . S
C250 P224 1.819 . S
C250 C251 1.391 . S
C250 C255 1.391 . S
C251 H233 0.941 . S
C251 C250 1.391 . S
C251 C252 1.396 . S
C252 H236 0.939 . S
C252 C251 1.396 . S
C252 C253 1.397 . S
C253 C252 1.397 . S
C253 C254 1.385 . S
C254 H237 0.940 . S
C254 C253 1.385 . S
C254 C255 1.388 . S
C255 H234 0.939 . S
C255 C250 1.391 . S
C255 C254 1.388 . S
C256 O272 1.251 . S
C256 O274 1.254 . S
N257 C258 1.333 . S
N257 C262 1.307 1_455 S
N257 Zn263 2.020 . S
C258 N257 1.333 . S
C258 C259 1.379 . S
C258 H276 0.952 . S
C259 C258 1.379 . S
C259 C260 1.390 1_455 S
C259 H286 0.949 . S
C260 C259 1.390 1_655 S
C260 C261 1.357 . S
C261 C260 1.357 . S
C261 C262 1.370 . S
C261 H287 0.950 . S
C262 N257 1.307 1_655 S
C262 C261 1.370 . S
C262 H280 0.948 . S
Zn263 N257 2.020 . S
Zn263 O272 2.039 . S
Zn263 O278 2.034 . S
Zn263 O282 2.025 1_565 S
Zn263 O284 2.024 1_455 S
C264 O283 1.246 . S
C264 O284 1.249 1_545 S
N265 C266 1.307 . S
N265 C267 1.333 . S
N265 Zn271 2.020 . S
C266 N265 1.307 . S
C266 C270 1.370 . S
C266 H277 0.948 . S
C267 N265 1.333 . S
C267 C268 1.379 . S
C267 H275 0.952 . S
C268 C267 1.379 . S
C268 C269 1.390 . S
C268 H288 0.949 . S
C269 C268 1.390 . S
C269 C270 1.357 . S
C270 C266 1.370 . S
C270 C269 1.357 . S
C270 H289 0.950 . S
Zn271 N265 2.020 . S
Zn271 O274 2.025 1_545 S
Zn271 O279 2.024 . S
Zn271 O281 2.039 . S
Zn271 O283 2.034 1_455 S
O272 C256 1.251 . S
O272 Zn263 2.039 . S
C273 O278 1.246 . S
C273 O279 1.249 1_565 S
O274 C256 1.254 . S
O274 Zn271 2.025 1_565 S
H275 C267 0.952 . S
H276 C258 0.952 . S
H277 C266 0.948 . S
O278 Zn263 2.034 . S
O278 C273 1.246 . S
O279 Zn271 2.024 . S
O279 C273 1.249 1_545 S
H280 C262 0.948 . S
O281 Zn271 2.039 . S
O281 C285 1.251 . S
O282 Zn263 2.025 1_545 S
O282 C285 1.254 . S
O283 C264 1.246 . S
O283 Zn271 2.034 1_655 S
O284 Zn263 2.024 1_655 S
O284 C264 1.249 1_565 S
C285 O281 1.251 . S
C285 O282 1.254 . S
H286 C259 0.949 . S
H287 C261 0.950 . S
H288 C268 0.949 . S
H289 C270 0.950 . S
C290 O306 1.251 1_565 S
C290 O308 1.254 . S
N291 C292 1.333 . S
N291 C296 1.307 . S
N291 Zn297 2.020 . S
C292 N291 1.333 . S
C292 C293 1.379 . S
C292 H310 0.952 . S
C293 C292 1.379 . S
C293 C294 1.390 . S
C293 H320 0.949 . S
C294 C293 1.390 . S
C294 C295 1.357 . S
C295 C294 1.357 . S
C295 C296 1.370 . S
C295 H321 0.950 . S
C296 N291 1.307 . S
C296 C295 1.370 . S
C296 H314 0.948 . S
Zn297 N291 2.020 . S
Zn297 O306 2.039 . S
Zn297 O312 2.034 . S
Zn297 O316 2.025 . S
Zn297 O318 2.024 . S
C298 O317 1.246 1_545 S
C298 O318 1.249 . S
N299 C300 1.307 . S
N299 C301 1.333 . S
N299 Zn305 2.020 . S
C300 N299 1.307 . S
C300 C304 1.370 . S
C300 H311 0.948 . S
C301 N299 1.333 . S
C301 C302 1.379 . S
C301 H309 0.952 . S
C302 C301 1.379 . S
C302 C303 1.390 . S
C302 H322 0.949 . S
C303 C302 1.390 . S
C303 C304 1.357 . S
C304 C300 1.370 . S
C304 C303 1.357 . S
C304 H323 0.950 . S
Zn305 N299 2.020 . S
Zn305 O308 2.025 . S
Zn305 O313 2.024 . S
Zn305 O315 2.039 . S
Zn305 O317 2.034 . S
O306 C290 1.251 1_545 S
O306 Zn297 2.039 . S
C307 O312 1.246 1_565 S
C307 O313 1.249 . S
O308 C290 1.254 . S
O308 Zn305 2.025 . S
H309 C301 0.952 . S
H310 C292 0.952 . S
H311 C300 0.948 . S
O312 Zn297 2.034 . S
O312 C307 1.246 1_545 S
O313 Zn305 2.024 . S
O313 C307 1.249 . S
H314 C296 0.948 . S
O315 Zn305 2.039 . S
O315 C319 1.251 1_565 S
O316 Zn297 2.025 . S
O316 C319 1.254 . S
O317 C298 1.246 1_565 S
O317 Zn305 2.034 . S
O318 Zn297 2.024 . S
O318 C298 1.249 . S
C319 O315 1.251 1_545 S
C319 O316 1.254 . S
H320 C293 0.949 . S
H321 C295 0.950 . S
H322 C302 0.949 . S
H323 C304 0.950 . S
C324 O340 1.251 . S
C324 O342 1.254 . S
N325 C326 1.333 . S
N325 C330 1.307 . S
N325 Zn331 2.020 . S
C326 N325 1.333 . S
C326 C327 1.379 . S
C326 H344 0.952 . S
C327 C326 1.379 . S
C327 C328 1.390 . S
C327 H354 0.949 . S
C328 C327 1.390 . S
C328 C329 1.357 . S
C329 C328 1.357 . S
C329 C330 1.370 . S
C329 H355 0.950 . S
C330 N325 1.307 . S
C330 C329 1.370 . S
C330 H348 0.948 . S
Zn331 N325 2.020 . S
Zn331 O340 2.039 . S
Zn331 O346 2.034 . S
Zn331 O350 2.025 . S
Zn331 O352 2.024 . S
C332 O351 1.246 . S
C332 O352 1.249 . S
N333 C334 1.307 . S
N333 C335 1.333 . S
N333 Zn339 2.020 . S
C334 N333 1.307 . S
C334 C338 1.370 . S
C334 H345 0.948 . S
C335 N333 1.333 . S
C335 C336 1.379 . S
C335 H343 0.952 . S
C336 C335 1.379 . S
C336 C337 1.390 . S
C336 H356 0.949 . S
C337 C336 1.390 . S
C337 C338 1.357 . S
C338 C334 1.370 . S
C338 C337 1.357 . S
C338 H357 0.950 . S
Zn339 N333 2.020 . S
Zn339 O342 2.025 . S
Zn339 O347 2.024 . S
Zn339 O349 2.039 . S
Zn339 O351 2.034 . S
O340 C324 1.251 . S
O340 Zn331 2.039 . S
C341 O346 1.246 . S
C341 O347 1.249 . S
O342 C324 1.254 . S
O342 Zn339 2.025 . S
H343 C335 0.952 . S
H344 C326 0.952 . S
H345 C334 0.948 . S
O346 Zn331 2.034 . S
O346 C341 1.246 . S
O347 Zn339 2.024 . S
O347 C341 1.249 . S
H348 C330 0.948 . S
O349 Zn339 2.039 . S
O349 C353 1.251 . S
O350 Zn331 2.025 . S
O350 C353 1.254 . S
O351 C332 1.246 . S
O351 Zn339 2.034 . S
O352 Zn331 2.024 . S
O352 C332 1.249 . S
C353 O349 1.251 . S
C353 O350 1.254 . S
H354 C327 0.949 . S
H355 C329 0.950 . S
H356 C336 0.949 . S
H357 C338 0.950 . S
C358 O374 1.251 . S
C358 O376 1.254 . S
N359 C360 1.333 . S
N359 C364 1.307 . S
N359 Zn365 2.020 . S
C360 N359 1.333 . S
C360 C361 1.379 . S
C360 H378 0.952 . S
C361 C360 1.379 . S
C361 C362 1.390 . S
C361 H388 0.949 . S
C362 C361 1.390 . S
C362 C363 1.357 . S
C363 C362 1.357 . S
C363 C364 1.370 . S
C363 H389 0.950 . S
C364 N359 1.307 . S
C364 C363 1.370 . S
C364 H382 0.948 . S
Zn365 N359 2.020 . S
Zn365 O374 2.039 . S
Zn365 O380 2.034 . S
Zn365 O384 2.025 . S
Zn365 O386 2.024 . S
C366 O385 1.246 . S
C366 O386 1.249 . S
N367 C368 1.307 . S
N367 C369 1.353 . S
N367 Zn373 2.020 . S
C368 N367 1.307 . S
C368 C372 1.370 . S
C368 H379 0.948 . S
C369 N367 1.353 . S
C369 C370 1.368 1_455 S
C369 H377 0.945 1_455 S
C370 C369 1.368 1_655 S
C370 C371 1.395 . S
C370 H390 0.949 . S
C371 C370 1.395 . S
C371 C372 1.346 1_655 S
C372 C368 1.370 . S
C372 C371 1.346 1_455 S
C372 H391 0.950 . S
Zn373 N367 2.020 . S
Zn373 O376 2.025 . S
Zn373 O381 2.024 1_455 S
Zn373 O383 2.039 1_455 S
Zn373 O385 2.034 . S
O374 C358 1.251 . S
O374 Zn365 2.039 . S
C375 O380 1.246 1_655 S
C375 O381 1.249 . S
O376 C358 1.254 . S
O376 Zn373 2.025 . S
H377 C369 0.945 1_655 S
H378 C360 0.952 . S
H379 C368 0.948 . S
O380 Zn365 2.034 . S
O380 C375 1.246 1_455 S
O381 Zn373 2.024 1_655 S
O381 C375 1.249 . S
H382 C364 0.948 . S
O383 Zn373 2.039 1_655 S
O383 C387 1.251 . S
O384 Zn365 2.025 . S
O384 C387 1.254 1_455 S
O385 C366 1.246 . S
O385 Zn373 2.034 . S
O386 Zn365 2.024 . S
O386 C366 1.249 . S
C387 O383 1.251 . S
C387 O384 1.254 1_655 S
H388 C361 0.949 . S
H389 C363 0.950 . S
H390 C370 0.949 . S
H391 C372 0.950 . S
C392 C393 1.366 . S
C392 C394 1.327 . S
C392 H417 0.950 . S
C393 C392 1.366 . S
C393 C409 1.332 1_565 S
C394 C392 1.327 . S
C394 C413 1.429 . S
C394 H418 0.950 . S
C395 C412 1.574 . S
C395 C414 1.368 1_545 S
C395 H419 0.949 . S
H396 C400 0.949 . S
C397 C398 1.349 1_545 S
C397 C399 1.327 . S
C397 H420 0.950 . S
C398 C397 1.349 1_565 S
C398 C410 1.349 . S
C399 C397 1.327 . S
C399 C415 1.429 1_545 S
C399 H421 0.950 . S
C400 H396 0.949 . S
C400 C408 1.574 . S
C400 C416 1.368 . S
H401 C409 0.950 . S
H402 C407 0.950 . S
H403 C408 0.949 . S
H404 C410 0.950 . S
H405 C411 0.950 . S
H406 C412 0.949 . S
C407 H402 0.950 . S
C407 C409 1.327 . S
C407 C413 1.429 1_545 S
C408 C400 1.574 . S
C408 H403 0.949 . S
C408 C414 1.368 . S
C409 C393 1.332 1_545 S
C409 H401 0.950 . S
C409 C407 1.327 . S
C410 C398 1.349 . S
C410 H404 0.950 . S
C410 C411 1.327 . S
C411 H405 0.950 . S
C411 C410 1.327 . S
C411 C415 1.429 . S
C412 C395 1.574 . S
C412 H406 0.949 . S
C412 C416 1.368 1_545 S
C413 C394 1.429 . S
C413 C407 1.429 1_565 S
C413 C414 1.523 . S
C414 C395 1.368 1_565 S
C414 C408 1.368 . S
C414 C413 1.523 . S
C415 C399 1.429 1_565 S
C415 C411 1.429 . S
C415 C416 1.523 . S
C416 C400 1.368 . S
C416 C412 1.368 1_565 S
C416 C415 1.523 . S
H417 C392 0.950 . S
H418 C394 0.950 . S
H419 C395 0.949 . S
H420 C397 0.950 . S
H421 C399 0.950 . S
C422 C423 1.349 . S
C422 C424 1.327 . S
C422 H447 0.950 . S
C423 C422 1.349 . S
C423 C439 1.349 . S
C424 C422 1.327 . S
C424 C443 1.429 . S
C424 H448 0.950 . S
C425 C442 1.574 . S
C425 C444 1.368 . S
C425 H449 0.949 . S
H426 C430 0.949 . S
C427 C428 1.349 . S
C427 C429 1.327 . S
C427 H450 0.950 . S
C428 C427 1.349 . S
C428 C440 1.349 . S
C429 C427 1.327 . S
C429 C445 1.429 . S
C429 H451 0.950 . S
C430 H426 0.949 . S
C430 C438 1.574 . S
C430 C446 1.368 . S
H431 C439 0.950 . S
H432 C437 0.950 . S
H433 C438 0.949 . S
H434 C440 0.950 . S
H435 C441 0.950 . S
H436 C442 0.949 . S
C437 H432 0.950 . S
C437 C439 1.327 . S
C437 C443 1.429 . S
C438 C430 1.574 . S
C438 H433 0.949 . S
C438 C444 1.368 . S
C439 C423 1.349 . S
C439 H431 0.950 . S
C439 C437 1.327 . S
C440 C428 1.349 . S
C440 H434 0.950 . S
C440 C441 1.327 . S
C441 H435 0.950 . S
C441 C440 1.327 . S
C441 C445 1.429 . S
C442 C425 1.574 . S
C442 H436 0.949 . S
C442 C446 1.368 . S
C443 C424 1.429 . S
C443 C437 1.429 . S
C443 C444 1.523 . S
C444 C425 1.368 . S
C444 C438 1.368 . S
C444 C443 1.523 . S
C445 C429 1.429 . S
C445 C441 1.429 . S
C445 C446 1.523 . S
C446 C430 1.368 . S
C446 C442 1.368 . S
C446 C445 1.523 . S
H447 C422 0.950 . S
H448 C424 0.950 . S
H449 C425 0.949 . S
H450 C427 0.950 . S
H451 C429 0.950 . S
C452 C453 1.349 . S
C452 C454 1.327 . S
C452 H477 0.950 . S
C453 C452 1.349 . S
C453 C469 1.349 . S
C454 C452 1.327 . S
C454 C473 1.429 . S
C454 H478 0.950 . S
C455 C472 1.574 . S
C455 C474 1.368 . S
C455 H479 0.949 . S
H456 C460 0.949 . S
C457 C458 1.349 . S
C457 C459 1.327 . S
C457 H480 0.950 . S
C458 C457 1.349 . S
C458 C470 1.349 . S
C459 C457 1.327 . S
C459 C475 1.429 . S
C459 H481 0.950 . S
C460 H456 0.949 . S
C460 C468 1.574 . S
C460 C476 1.368 . S
H461 C469 0.950 . S
H462 C467 0.950 . S
H463 C468 0.949 . S
H464 C470 0.950 . S
H465 C471 0.950 . S
H466 C472 0.949 . S
C467 H462 0.950 . S
C467 C469 1.327 . S
C467 C473 1.429 . S
C468 C460 1.574 . S
C468 H463 0.949 . S
C468 C474 1.368 . S
C469 C453 1.349 . S
C469 H461 0.950 . S
C469 C467 1.327 . S
C470 C458 1.349 . S
C470 H464 0.950 . S
C470 C471 1.327 . S
C471 H465 0.950 . S
C471 C470 1.327 . S
C471 C475 1.429 . S
C472 C455 1.574 . S
C472 H466 0.949 . S
C472 C476 1.368 . S
C473 C454 1.429 . S
C473 C467 1.429 . S
C473 C474 1.523 . S
C474 C455 1.368 . S
C474 C468 1.368 . S
C474 C473 1.523 . S
C475 C459 1.429 . S
C475 C471 1.429 . S
C475 C476 1.523 . S
C476 C460 1.368 . S
C476 C472 1.368 . S
C476 C475 1.523 . S
H477 C452 0.950 . S
H478 C454 0.950 . S
H479 C455 0.949 . S
H480 C457 0.950 . S
H481 C459 0.950 . S
C482 C483 1.349 . S
C482 C484 1.327 . S
C482 H507 0.950 . S
C483 C482 1.349 . S
C483 C499 1.349 . S
C484 C482 1.327 . S
C484 C503 1.429 . S
C484 H508 0.950 . S
C485 C502 1.574 . S
C485 C504 1.368 . S
C485 H509 0.949 . S
H486 C490 0.949 . S
C487 C488 1.349 . S
C487 C489 1.327 . S
C487 H510 0.950 . S
C488 C487 1.349 . S
C488 C500 1.349 . S
C489 C487 1.327 . S
C489 C505 1.429 . S
C489 H511 0.950 . S
C490 H486 0.949 . S
C490 C498 1.574 . S
C490 C506 1.368 . S
H491 C499 0.950 . S
H492 C497 0.950 . S
H493 C498 0.949 . S
H494 C500 0.950 . S
H495 C501 0.950 . S
H496 C502 0.949 . S
C497 H492 0.950 . S
C497 C499 1.327 . S
C497 C503 1.429 . S
C498 C490 1.574 . S
C498 H493 0.949 . S
C498 C504 1.368 . S
C499 C483 1.349 . S
C499 H491 0.950 . S
C499 C497 1.327 . S
C500 C488 1.349 . S
C500 H494 0.950 . S
C500 C501 1.327 . S
C501 H495 0.950 . S
C501 C500 1.327 . S
C501 C505 1.429 . S
C502 C485 1.574 . S
C502 H496 0.949 . S
C502 C506 1.368 . S
C503 C484 1.429 . S
C503 C497 1.429 . S
C503 C504 1.523 . S
C504 C485 1.368 . S
C504 C498 1.368 . S
C504 C503 1.523 . S
C505 C489 1.429 . S
C505 C501 1.429 . S
C505 C506 1.523 . S
C506 C490 1.368 . S
C506 C502 1.368 . S
C506 C505 1.523 . S
H507 C482 0.950 . S
H508 C484 0.950 . S
H509 C485 0.949 . S
H510 C487 0.950 . S
H511 C489 0.950 . S
C512 C513 1.372 1_554 S
C512 C514 1.327 1_554 S
C512 H537 0.950 . S
C513 C512 1.372 1_556 S
C513 C529 1.338 1_545 S
C514 C512 1.327 1_556 S
C514 C533 1.429 . S
C514 H538 0.950 . S
C515 C532 1.574 . S
C515 C534 1.368 1_565 S
C515 H539 0.949 . S
H516 C520 0.949 . S
C517 C518 1.349 1_565 S
C517 C519 1.327 . S
C517 H540 0.950 . S
C518 C517 1.349 1_545 S
C518 C530 1.349 . S
C519 C517 1.327 . S
C519 C535 1.429 1_565 S
C519 H541 0.950 . S
C520 H516 0.949 . S
C520 C528 1.574 . S
C520 C536 1.368 . S
H521 C529 0.950 . S
H522 C527 0.950 . S
H523 C528 0.949 . S
H524 C530 0.950 . S
H525 C531 0.950 . S
H526 C532 0.949 . S
C527 H522 0.950 . S
C527 C529 1.327 . S
C527 C533 1.429 1_565 S
C528 C520 1.574 . S
C528 H523 0.949 . S
C528 C534 1.368 . S
C529 C513 1.338 1_565 S
C529 H521 0.950 . S
C529 C527 1.327 . S
C530 C518 1.349 . S
C530 H524 0.950 . S
C530 C531 1.327 . S
C531 H525 0.950 . S
C531 C530 1.327 . S
C531 C535 1.429 . S
C532 C515 1.574 . S
C532 H526 0.949 . S
C532 C536 1.368 1_565 S
C533 C514 1.429 . S
C533 C527 1.429 1_545 S
C533 C534 1.523 . S
C534 C515 1.368 1_545 S
C534 C528 1.368 . S
C534 C533 1.523 . S
C535 C519 1.429 1_545 S
C535 C531 1.429 . S
C535 C536 1.523 . S
C536 C520 1.368 . S
C536 C532 1.368 1_545 S
C536 C535 1.523 . S
H537 C512 0.950 . S
H538 C514 0.950 . S
H539 C515 0.949 . S
H540 C517 0.950 . S
H541 C519 0.950 . S
C542 C543 1.349 . S
C542 C544 1.327 . S
C542 H567 0.950 . S
C543 C542 1.349 . S
C543 C559 1.349 1_554 S
C544 C542 1.327 . S
C544 C563 1.429 1_554 S
C544 H568 0.950 . S
C545 C562 1.574 . S
C545 C564 1.368 . S
C545 H569 0.949 . S
H546 C550 0.949 . S
C547 C548 1.349 . S
C547 C549 1.327 . S
C547 H570 0.950 . S
C548 C547 1.349 . S
C548 C560 1.349 . S
C549 C547 1.327 . S
C549 C565 1.429 . S
C549 H571 0.950 . S
C550 H546 0.949 . S
C550 C558 1.574 . S
C550 C566 1.368 . S
H551 C559 0.950 . S
H552 C557 0.950 . S
H553 C558 0.949 . S
H554 C560 0.950 . S
H555 C561 0.950 . S
H556 C562 0.949 . S
C557 H552 0.950 . S
C557 C559 1.327 . S
C557 C563 1.429 . S
C558 C550 1.574 . S
C558 H553 0.949 . S
C558 C564 1.368 . S
C559 C543 1.349 1_556 S
C559 H551 0.950 . S
C559 C557 1.327 . S
C560 C548 1.349 . S
C560 H554 0.950 . S
C560 C561 1.327 . S
C561 H555 0.950 . S
C561 C560 1.327 . S
C561 C565 1.429 . S
C562 C545 1.574 . S
C562 H556 0.949 . S
C562 C566 1.368 . S
C563 C544 1.429 1_556 S
C563 C557 1.429 . S
C563 C564 1.523 . S
C564 C545 1.368 . S
C564 C558 1.368 . S
C564 C563 1.523 . S
C565 C549 1.429 . S
C565 C561 1.429 . S
C565 C566 1.523 . S
C566 C550 1.368 . S
C566 C562 1.368 . S
C566 C565 1.523 . S
H567 C542 0.950 . S
H568 C544 0.950 . S
H569 C545 0.949 . S
H570 C547 0.950 . S
H571 C549 0.950 . S
C572 C573 1.349 . S
C572 C574 1.327 . S
C572 H597 0.950 . S
C573 C572 1.349 . S
C573 C589 1.349 . S
C574 C572 1.327 . S
C574 C593 1.429 1_554 S
C574 H598 0.950 . S
C575 C592 1.574 . S
C575 C594 1.368 . S
C575 H599 0.949 . S
H576 C580 0.949 . S
C577 C578 1.349 . S
C577 C579 1.327 . S
C577 H600 0.950 . S
C578 C577 1.349 . S
C578 C590 1.349 . S
C579 C577 1.327 . S
C579 C595 1.429 . S
C579 H601 0.950 . S
C580 H576 0.949 . S
C580 C588 1.574 . S
C580 C596 1.368 . S
H581 C589 0.950 . S
H582 C587 0.950 1_556 S
H583 C588 0.949 . S
H584 C590 0.950 . S
H585 C591 0.950 . S
H586 C592 0.949 . S
C587 H582 0.950 1_554 S
C587 C589 1.327 . S
C587 C593 1.429 1_554 S
C588 C580 1.574 . S
C588 H583 0.949 . S
C588 C594 1.368 . S
C589 C573 1.349 . S
C589 H581 0.950 . S
C589 C587 1.327 . S
C590 C578 1.349 . S
C590 H584 0.950 . S
C590 C591 1.327 . S
C591 H585 0.950 . S
C591 C590 1.327 . S
C591 C595 1.429 . S
C592 C575 1.574 . S
C592 H586 0.949 . S
C592 C596 1.368 . S
C593 C574 1.429 1_556 S
C593 C587 1.429 1_556 S
C593 C594 1.523 . S
C594 C575 1.368 . S
C594 C588 1.368 . S
C594 C593 1.523 . S
C595 C579 1.429 . S
C595 C591 1.429 . S
C595 C596 1.523 . S
C596 C580 1.368 . S
C596 C592 1.368 . S
C596 C595 1.523 . S
H597 C572 0.950 . S
H598 C574 0.950 . S
H599 C575 0.949 . S
H600 C577 0.950 . S
H601 C579 0.950 . S
C602 C603 1.349 . S
C602 C604 1.327 . S
C602 H627 0.950 . S
C603 C602 1.349 . S
C603 C619 1.349 . S
C604 C602 1.327 . S
C604 C623 1.429 . S
C604 H628 0.950 . S
C605 C622 1.574 . S
C605 C624 1.368 . S
C605 H629 0.949 . S
H606 C610 0.949 . S
C607 C608 1.349 . S
C607 C609 1.327 . S
C607 H630 0.950 . S
C608 C607 1.349 . S
C608 C620 1.349 1_655 S
C609 C607 1.327 . S
C609 C625 1.429 . S
C609 H631 0.950 . S
C610 H606 0.949 . S
C610 C618 1.574 . S
C610 C626 1.368 . S
H611 C619 0.950 . S
H612 C617 0.950 . S
H613 C618 0.949 . S
H614 C620 0.950 . S
H615 C621 0.950 1_455 S
H616 C622 0.949 . S
C617 H612 0.950 . S
C617 C619 1.327 . S
C617 C623 1.429 . S
C618 C610 1.574 . S
C618 H613 0.949 . S
C618 C624 1.368 . S
C619 C603 1.349 . S
C619 H611 0.950 . S
C619 C617 1.327 . S
C620 C608 1.349 1_455 S
C620 H614 0.950 . S
C620 C621 1.327 1_455 S
C621 H615 0.950 1_655 S
C621 C620 1.327 1_655 S
C621 C625 1.429 . S
C622 C605 1.574 . S
C622 H616 0.949 . S
C622 C626 1.368 . S
C623 C604 1.429 . S
C623 C617 1.429 . S
C623 C624 1.523 . S
C624 C605 1.368 . S
C624 C618 1.368 . S
C624 C623 1.523 . S
C625 C609 1.429 . S
C625 C621 1.429 . S
C625 C626 1.523 . S
C626 C610 1.368 . S
C626 C622 1.368 . S
C626 C625 1.523 . S
H627 C602 0.950 . S
H628 C604 0.950 . S
H629 C605 0.949 . S
H630 C607 0.950 . S
H631 C609 0.950 . S
C632 C633 1.349 . S
C632 C634 1.327 . S
C632 H657 0.950 . S
C633 C632 1.349 . S
C633 C649 1.349 . S
C634 C632 1.327 . S
C634 C653 1.429 . S
C634 H658 0.950 . S
C635 C652 1.574 . S
C635 C654 1.368 . S
C635 H659 0.949 . S
H636 C640 0.949 . S
C637 C638 1.349 . S
C637 C639 1.327 . S
C637 H660 0.950 . S
C638 C637 1.349 . S
C638 C650 1.349 . S
C639 C637 1.327 . S
C639 C655 1.429 . S
C639 H661 0.950 . S
C640 H636 0.949 . S
C640 C648 1.574 . S
C640 C656 1.368 . S
H641 C649 0.950 . S
H642 C647 0.950 . S
H643 C648 0.949 . S
H644 C650 0.950 . S
H645 C651 0.950 . S
H646 C652 0.949 . S
C647 H642 0.950 . S
C647 C649 1.327 . S
C647 C653 1.429 . S
C648 C640 1.574 . S
C648 H643 0.949 . S
C648 C654 1.368 . S
C649 C633 1.349 . S
C649 H641 0.950 . S
C649 C647 1.327 . S
C650 C638 1.349 . S
C650 H644 0.950 . S
C650 C651 1.327 . S
C651 H645 0.950 . S
C651 C650 1.327 . S
C651 C655 1.429 . S
C652 C635 1.574 . S
C652 H646 0.949 . S
C652 C656 1.368 . S
C653 C634 1.429 . S
C653 C647 1.429 . S
C653 C654 1.523 . S
C654 C635 1.368 . S
C654 C648 1.368 . S
C654 C653 1.523 . S
C655 C639 1.429 . S
C655 C651 1.429 . S
C655 C656 1.523 . S
C656 C640 1.368 . S
C656 C652 1.368 . S
C656 C655 1.523 . S
H657 C632 0.950 . S
H658 C634 0.950 . S
H659 C635 0.949 . S
H660 C637 0.950 . S
H661 C639 0.950 . S
C662 C663 1.329 1_565 S
C662 C664 1.327 . S
C662 H687 0.950 . S
C663 C662 1.329 1_545 S
C663 C679 1.367 . S
C664 C662 1.327 . S
C664 C683 1.429 . S
C664 H688 0.950 . S
C665 C682 1.574 . S
C665 C684 1.368 1_545 S
C665 H689 0.949 . S
H666 C670 0.949 . S
C667 C668 1.349 1_545 S
C667 C669 1.327 . S
C667 H690 0.950 . S
C668 C667 1.349 1_565 S
C668 C680 1.349 . S
C669 C667 1.327 . S
C669 C685 1.429 1_545 S
C669 H691 0.950 . S
C670 H666 0.949 . S
C670 C678 1.574 . S
C670 C686 1.368 . S
H671 C679 0.950 . S
H672 C677 0.950 . S
H673 C678 0.949 . S
H674 C680 0.950 . S
H675 C681 0.950 . S
H676 C682 0.949 . S
C677 H672 0.950 . S
C677 C679 1.327 . S
C677 C683 1.429 1_545 S
C678 C670 1.574 . S
C678 H673 0.949 . S
C678 C684 1.368 . S
C679 C663 1.367 . S
C679 H671 0.950 . S
C679 C677 1.327 . S
C680 C668 1.349 . S
C680 H674 0.950 . S
C680 C681 1.327 . S
C681 H675 0.950 . S
C681 C680 1.327 . S
C681 C685 1.429 . S
C682 C665 1.574 . S
C682 H676 0.949 . S
C682 C686 1.368 1_545 S
C683 C664 1.429 . S
C683 C677 1.429 1_565 S
C683 C684 1.523 . S
C684 C665 1.368 1_565 S
C684 C678 1.368 . S
C684 C683 1.523 . S
C685 C669 1.429 1_565 S
C685 C681 1.429 . S
C685 C686 1.523 . S
C686 C670 1.368 . S
C686 C682 1.368 1_565 S
C686 C685 1.523 . S
H687 C662 0.950 . S
H688 C664 0.950 . S
H689 C665 0.949 . S
H690 C667 0.950 . S
H691 C669 0.950 . S
C692 C693 1.349 . S
C692 C694 1.327 . S
C692 H717 0.950 . S
C693 C692 1.349 . S
C693 C709 1.349 . S
C694 C692 1.327 . S
C694 C713 1.429 . S
C694 H718 0.950 . S
C695 C712 1.574 . S
C695 C714 1.368 . S
C695 H719 0.949 . S
H696 C700 0.949 . S
C697 C698 1.349 . S
C697 C699 1.327 . S
C697 H720 0.950 . S
C698 C697 1.349 . S
C698 C710 1.349 . S
C699 C697 1.327 . S
C699 C715 1.429 . S
C699 H721 0.950 . S
C700 H696 0.949 . S
C700 C708 1.574 . S
C700 C716 1.368 . S
H701 C709 0.950 . S
H702 C707 0.950 . S
H703 C708 0.949 . S
H704 C710 0.950 . S
H705 C711 0.950 . S
H706 C712 0.949 . S
C707 H702 0.950 . S
C707 C709 1.327 . S
C707 C713 1.429 . S
C708 C700 1.574 . S
C708 H703 0.949 . S
C708 C714 1.368 . S
C709 C693 1.349 . S
C709 H701 0.950 . S
C709 C707 1.327 . S
C710 C698 1.349 . S
C710 H704 0.950 . S
C710 C711 1.327 . S
C711 H705 0.950 . S
C711 C710 1.327 . S
C711 C715 1.429 . S
C712 C695 1.574 . S
C712 H706 0.949 . S
C712 C716 1.368 . S
C713 C694 1.429 . S
C713 C707 1.429 . S
C713 C714 1.523 . S
C714 C695 1.368 . S
C714 C708 1.368 . S
C714 C713 1.523 . S
C715 C699 1.429 . S
C715 C711 1.429 . S
C715 C716 1.523 . S
C716 C700 1.368 . S
C716 C712 1.368 . S
C716 C715 1.523 . S
H717 C692 0.950 . S
H718 C694 0.950 . S
H719 C695 0.949 . S
H720 C697 0.950 . S
H721 C699 0.950 . S
C722 C723 1.349 . S
C722 C724 1.327 . S
C722 H747 0.950 . S
C723 C722 1.349 . S
C723 C739 1.349 . S
C724 C722 1.327 . S
C724 C743 1.429 . S
C724 H748 0.950 . S
C725 C742 1.574 . S
C725 C744 1.368 . S
C725 H749 0.949 . S
H726 C730 0.949 . S
C727 C728 1.349 . S
C727 C729 1.327 . S
C727 H750 0.950 . S
C728 C727 1.349 . S
C728 C740 1.349 . S
C729 C727 1.327 . S
C729 C745 1.429 . S
C729 H751 0.950 . S
C730 H726 0.949 . S
C730 C738 1.574 . S
C730 C746 1.368 . S
H731 C739 0.950 . S
H732 C737 0.950 . S
H733 C738 0.949 . S
H734 C740 0.950 . S
H735 C741 0.950 . S
H736 C742 0.949 . S
C737 H732 0.950 . S
C737 C739 1.327 . S
C737 C743 1.429 . S
C738 C730 1.574 . S
C738 H733 0.949 . S
C738 C744 1.368 . S
C739 C723 1.349 . S
C739 H731 0.950 . S
C739 C737 1.327 . S
C740 C728 1.349 . S
C740 H734 0.950 . S
C740 C741 1.327 . S
C741 H735 0.950 . S
C741 C740 1.327 . S
C741 C745 1.429 . S
C742 C725 1.574 . S
C742 H736 0.949 . S
C742 C746 1.368 . S
C743 C724 1.429 . S
C743 C737 1.429 . S
C743 C744 1.523 . S
C744 C725 1.368 . S
C744 C738 1.368 . S
C744 C743 1.523 . S
C745 C729 1.429 . S
C745 C741 1.429 . S
C745 C746 1.523 . S
C746 C730 1.368 . S
C746 C742 1.368 . S
C746 C745 1.523 . S
H747 C722 0.950 . S
H748 C724 0.950 . S
H749 C725 0.949 . S
H750 C727 0.950 . S
H751 C729 0.950 . S
C752 C753 1.349 . S
C752 C754 1.327 . S
C752 H777 0.950 . S
C753 C752 1.349 . S
C753 C769 1.349 . S
C754 C752 1.327 . S
C754 C773 1.429 . S
C754 H778 0.950 . S
C755 C772 1.574 . S
C755 C774 1.368 . S
C755 H779 0.949 . S
H756 C760 0.949 . S
C757 C758 1.349 . S
C757 C759 1.327 . S
C757 H780 0.950 . S
C758 C757 1.349 . S
C758 C770 1.349 . S
C759 C757 1.327 . S
C759 C775 1.429 1_455 S
C759 H781 0.950 . S
C760 H756 0.949 . S
C760 C768 1.574 . S
C760 C776 1.368 . S
H761 C769 0.950 . S
H762 C767 0.950 . S
H763 C768 0.949 . S
H764 C770 0.950 . S
H765 C771 0.950 1_655 S
H766 C772 0.949 . S
C767 H762 0.950 . S
C767 C769 1.327 . S
C767 C773 1.429 . S
C768 C760 1.574 . S
C768 H763 0.949 . S
C768 C774 1.368 . S
C769 C753 1.349 . S
C769 H761 0.950 . S
C769 C767 1.327 . S
C770 C758 1.349 . S
C770 H764 0.950 . S
C770 C771 1.327 . S
C771 H765 0.950 1_455 S
C771 C770 1.327 . S
C771 C775 1.429 1_455 S
C772 C755 1.574 . S
C772 H766 0.949 . S
C772 C776 1.368 . S
C773 C754 1.429 . S
C773 C767 1.429 . S
C773 C774 1.523 . S
C774 C755 1.368 . S
C774 C768 1.368 . S
C774 C773 1.523 . S
C775 C759 1.429 1_655 S
C775 C771 1.429 1_655 S
C775 C776 1.523 . S
C776 C760 1.368 . S
C776 C772 1.368 . S
C776 C775 1.523 . S
H777 C752 0.950 . S
H778 C754 0.950 . S
H779 C755 0.949 . S
H780 C757 0.950 . S
H781 C759 0.950 . S
C782 C783 1.333 1_545 S
C782 C784 1.327 . S
C782 H807 0.950 . S
C783 C782 1.333 1_565 S
C783 C799 1.364 . S
C784 C782 1.327 . S
C784 C803 1.429 . S
C784 H808 0.950 . S
C785 C802 1.574 . S
C785 C804 1.368 1_565 S
C785 H809 0.949 . S
H786 C790 0.949 . S
C787 C788 1.349 1_565 S
C787 C789 1.327 . S
C787 H810 0.950 . S
C788 C787 1.349 1_545 S
C788 C800 1.349 . S
C789 C787 1.327 . S
C789 C805 1.429 1_565 S
C789 H811 0.950 . S
C790 H786 0.949 . S
C790 C798 1.574 . S
C790 C806 1.368 . S
H791 C799 0.950 . S
H792 C797 0.950 . S
H793 C798 0.949 . S
H794 C800 0.950 . S
H795 C801 0.950 . S
H796 C802 0.949 . S
C797 H792 0.950 . S
C797 C799 1.327 . S
C797 C803 1.429 1_565 S
C798 C790 1.574 . S
C798 H793 0.949 . S
C798 C804 1.368 . S
C799 C783 1.364 . S
C799 H791 0.950 . S
C799 C797 1.327 . S
C800 C788 1.349 . S
C800 H794 0.950 . S
C800 C801 1.327 . S
C801 H795 0.950 . S
C801 C800 1.327 . S
C801 C805 1.429 . S
C802 C785 1.574 . S
C802 H796 0.949 . S
C802 C806 1.368 1_565 S
C803 C784 1.429 . S
C803 C797 1.429 1_545 S
C803 C804 1.523 . S
C804 C785 1.368 1_545 S
C804 C798 1.368 . S
C804 C803 1.523 . S
C805 C789 1.429 1_545 S
C805 C801 1.429 . S
C805 C806 1.523 . S
C806 C790 1.368 . S
C806 C802 1.368 1_545 S
C806 C805 1.523 . S
H807 C782 0.950 . S
H808 C784 0.950 . S
H809 C785 0.949 . S
H810 C787 0.950 . S
H811 C789 0.950 . S
C812 C813 1.349 . S
C812 C814 1.327 . S
C812 H837 0.950 . S
C813 C812 1.349 . S
C813 C829 1.349 . S
C814 C812 1.327 . S
C814 C833 1.429 . S
C814 H838 0.950 . S
C815 C832 1.574 . S
C815 C834 1.368 . S
C815 H839 0.949 . S
H816 C820 0.949 . S
C817 C818 1.349 . S
C817 C819 1.327 . S
C817 H840 0.950 . S
C818 C817 1.349 . S
C818 C830 1.349 . S
C819 C817 1.327 . S
C819 C835 1.429 . S
C819 H841 0.950 . S
C820 H816 0.949 . S
C820 C828 1.574 . S
C820 C836 1.368 . S
H821 C829 0.950 1_554 S
H822 C827 0.950 . S
H823 C828 0.949 . S
H824 C830 0.950 . S
H825 C831 0.950 . S
H826 C832 0.949 . S
C827 H822 0.950 . S
C827 C829 1.327 . S
C827 C833 1.429 . S
C828 C820 1.574 . S
C828 H823 0.949 . S
C828 C834 1.368 . S
C829 C813 1.349 . S
C829 H821 0.950 1_556 S
C829 C827 1.327 . S
C830 C818 1.349 . S
C830 H824 0.950 . S
C830 C831 1.327 . S
C831 H825 0.950 . S
C831 C830 1.327 . S
C831 C835 1.429 . S
C832 C815 1.574 . S
C832 H826 0.949 . S
C832 C836 1.368 . S
C833 C814 1.429 . S
C833 C827 1.429 . S
C833 C834 1.523 . S
C834 C815 1.368 . S
C834 C828 1.368 . S
C834 C833 1.523 . S
C835 C819 1.429 . S
C835 C831 1.429 . S
C835 C836 1.523 . S
C836 C820 1.368 . S
C836 C832 1.368 . S
C836 C835 1.523 . S
H837 C812 0.950 . S
H838 C814 0.950 . S
H839 C815 0.949 . S
H840 C817 0.950 . S
H841 C819 0.950 . S
C842 C843 1.349 . S
C842 C844 1.327 1_554 S
C842 H867 0.950 . S
C843 C842 1.349 . S
C843 C859 1.349 1_554 S
C844 C842 1.327 1_556 S
C844 C863 1.429 . S
C844 H868 0.950 1_556 S
C845 C862 1.574 . S
C845 C864 1.368 . S
C845 H869 0.949 . S
H846 C850 0.949 . S
C847 C848 1.349 . S
C847 C849 1.327 . S
C847 H870 0.950 . S
C848 C847 1.349 . S
C848 C860 1.349 . S
C849 C847 1.327 . S
C849 C865 1.429 . S
C849 H871 0.950 . S
C850 H846 0.949 . S
C850 C858 1.574 . S
C850 C866 1.368 . S
H851 C859 0.950 . S
H852 C857 0.950 . S
H853 C858 0.949 . S
H854 C860 0.950 1_455 S
H855 C861 0.950 . S
H856 C862 0.949 . S
C857 H852 0.950 . S
C857 C859 1.327 . S
C857 C863 1.429 . S
C858 C850 1.574 . S
C858 H853 0.949 . S
C858 C864 1.368 . S
C859 C843 1.349 1_556 S
C859 H851 0.950 . S
C859 C857 1.327 . S
C860 C848 1.349 . S
C860 H854 0.950 1_655 S
C860 C861 1.327 . S
C861 H855 0.950 . S
C861 C860 1.327 . S
C861 C865 1.429 . S
C862 C845 1.574 . S
C862 H856 0.949 . S
C862 C866 1.368 . S
C863 C844 1.429 . S
C863 C857 1.429 . S
C863 C864 1.523 . S
C864 C845 1.368 . S
C864 C858 1.368 . S
C864 C863 1.523 . S
C865 C849 1.429 . S
C865 C861 1.429 . S
C865 C866 1.523 . S
C866 C850 1.368 . S
C866 C862 1.368 . S
C866 C865 1.523 . S
H867 C842 0.950 . S
H868 C844 0.950 1_554 S
H869 C845 0.949 . S
H870 C847 0.950 . S
H871 C849 0.950 . S
C872 C873 1.349 . S
C872 C874 1.327 . S
C872 H897 0.950 . S
C873 C872 1.349 . S
C873 C889 1.349 . S
C874 C872 1.327 . S
C874 C893 1.429 . S
C874 H898 0.950 . S
C875 C892 1.574 1_554 S
C875 C894 1.368 . S
C875 H899 0.949 . S
H876 C880 0.949 . S
C877 C878 1.349 . S
C877 C879 1.327 . S
C877 H900 0.950 . S
C878 C877 1.349 . S
C878 C890 1.349 . S
C879 C877 1.327 . S
C879 C895 1.429 . S
C879 H901 0.950 . S
C880 H876 0.949 . S
C880 C888 1.574 . S
C880 C896 1.368 . S
H881 C889 0.950 . S
H882 C887 0.950 . S
H883 C888 0.949 . S
H884 C890 0.950 . S
H885 C891 0.950 1_554 S
H886 C892 0.949 . S
C887 H882 0.950 . S
C887 C889 1.327 . S
C887 C893 1.429 . S
C888 C880 1.574 . S
C888 H883 0.949 . S
C888 C894 1.368 . S
C889 C873 1.349 . S
C889 H881 0.950 . S
C889 C887 1.327 . S
C890 C878 1.349 . S
C890 H884 0.950 . S
C890 C891 1.327 . S
C891 H885 0.950 1_556 S
C891 C890 1.327 . S
C891 C895 1.429 . S
C892 C875 1.574 1_556 S
C892 H886 0.949 . S
C892 C896 1.368 1_556 S
C893 C874 1.429 . S
C893 C887 1.429 . S
C893 C894 1.523 . S
C894 C875 1.368 . S
C894 C888 1.368 . S
C894 C893 1.523 . S
C895 C879 1.429 . S
C895 C891 1.429 . S
C895 C896 1.523 1_556 S
C896 C880 1.368 . S
C896 C892 1.368 1_554 S
C896 C895 1.523 1_554 S
H897 C872 0.950 . S
H898 C874 0.950 . S
H899 C875 0.949 . S
H900 C877 0.950 . S
H901 C879 0.950 . S
C902 C903 1.333 1_565 S
C902 C904 1.327 . S
C902 H927 0.950 . S
C903 C902 1.333 1_545 S
C903 C919 1.364 . S
C904 C902 1.327 . S
C904 C923 1.429 1_565 S
C904 H928 0.950 . S
C905 C922 1.574 . S
C905 C924 1.368 . S
C905 H929 0.949 1_556 S
H906 C910 0.949 . S
C907 C908 1.349 . S
C907 C909 1.327 . S
C907 H930 0.950 . S
C908 C907 1.349 . S
C908 C920 1.349 1_545 S
C909 C907 1.327 . S
C909 C925 1.429 . S
C909 H931 0.950 . S
C910 H906 0.949 . S
C910 C918 1.574 . S
C910 C926 1.368 1_565 S
H911 C919 0.950 . S
H912 C917 0.950 . S
H913 C918 0.949 . S
H914 C920 0.950 . S
H915 C921 0.950 . S
H916 C922 0.949 . S
C917 H912 0.950 . S
C917 C919 1.327 . S
C917 C923 1.429 . S
C918 C910 1.574 . S
C918 H913 0.949 . S
C918 C924 1.368 1_565 S
C919 C903 1.364 . S
C919 H911 0.950 . S
C919 C917 1.327 . S
C920 C908 1.349 1_565 S
C920 H914 0.950 . S
C920 C921 1.327 . S
C921 H915 0.950 . S
C921 C920 1.327 . S
C921 C925 1.429 1_565 S
C922 C905 1.574 . S
C922 H916 0.949 . S
C922 C926 1.368 . S
C923 C904 1.429 1_545 S
C923 C917 1.429 . S
C923 C924 1.523 1_554 S
C924 C905 1.368 . S
C924 C918 1.368 1_545 S
C924 C923 1.523 1_556 S
C925 C909 1.429 . S
C925 C921 1.429 1_545 S
C925 C926 1.523 . S
C926 C910 1.368 1_545 S
C926 C922 1.368 . S
C926 C925 1.523 . S
H927 C902 0.950 . S
H928 C904 0.950 . S
H929 C905 0.949 1_554 S
H930 C907 0.950 . S
H931 C909 0.950 . S
C932 C933 1.349 . S
C932 C934 1.327 . S
C932 H957 0.950 . S
C933 C932 1.349 . S
C933 C949 1.349 . S
C934 C932 1.327 . S
C934 C953 1.429 . S
C934 H958 0.950 1_554 S
C935 C952 1.574 1_554 S
C935 C954 1.368 1_554 S
C935 H959 0.949 . S
H936 C940 0.949 . S
C937 C938 1.349 . S
C937 C939 1.327 . S
C937 H960 0.950 . S
C938 C937 1.349 . S
C938 C950 1.349 . S
C939 C937 1.327 . S
C939 C955 1.429 . S
C939 H961 0.950 . S
C940 H936 0.949 . S
C940 C948 1.574 . S
C940 C956 1.368 . S
H941 C949 0.950 . S
H942 C947 0.950 . S
H943 C948 0.949 . S
H944 C950 0.950 . S
H945 C951 0.950 . S
H946 C952 0.949 . S
C947 H942 0.950 . S
C947 C949 1.327 . S
C947 C953 1.429 . S
C948 C940 1.574 . S
C948 H943 0.949 . S
C948 C954 1.368 . S
C949 C933 1.349 . S
C949 H941 0.950 . S
C949 C947 1.327 . S
C950 C938 1.349 . S
C950 H944 0.950 . S
C950 C951 1.327 . S
C951 H945 0.950 . S
C951 C950 1.327 . S
C951 C955 1.429 . S
C952 C935 1.574 1_556 S
C952 H946 0.949 . S
C952 C956 1.368 . S
C953 C934 1.429 . S
C953 C947 1.429 . S
C953 C954 1.523 1_554 S
C954 C935 1.368 1_556 S
C954 C948 1.368 . S
C954 C953 1.523 1_556 S
C955 C939 1.429 . S
C955 C951 1.429 . S
C955 C956 1.523 . S
C956 C940 1.368 . S
C956 C952 1.368 . S
C956 C955 1.523 . S
H957 C932 0.950 . S
H958 C934 0.950 1_556 S
H959 C935 0.949 . S
H960 C937 0.950 . S
H961 C939 0.950 . S
C962 C963 1.349 . S
C962 C964 1.327 1_554 S
C962 H987 0.946 1_554 S
C963 C962 1.349 . S
C963 C979 1.349 . S
C964 C962 1.327 1_556 S
C964 C983 1.429 . S
C964 H988 0.950 . S
C965 C982 1.574 . S
C965 C984 1.368 . S
C965 H989 0.949 1_556 S
H966 C970 0.949 . S
C967 C968 1.349 . S
C967 C969 1.327 . S
C967 H990 0.950 . S
C968 C967 1.349 . S
C968 C980 1.349 . S
C969 C967 1.327 . S
C969 C985 1.429 . S
C969 H991 0.950 . S
C970 H966 0.949 . S
C970 C978 1.574 . S
C970 C986 1.368 . S
H971 C979 0.950 . S
H972 C977 0.950 . S
H973 C978 0.949 . S
H974 C980 0.950 . S
H975 C981 0.950 . S
H976 C982 0.949 . S
C977 H972 0.950 . S
C977 C979 1.327 . S
C977 C983 1.429 1_554 S
C978 C970 1.574 . S
C978 H973 0.949 . S
C978 C984 1.368 . S
C979 C963 1.349 . S
C979 H971 0.950 . S
C979 C977 1.327 . S
C980 C968 1.349 . S
C980 H974 0.950 . S
C980 C981 1.327 . S
C981 H975 0.950 . S
C981 C980 1.327 . S
C981 C985 1.429 . S
C982 C965 1.574 . S
C982 H976 0.949 . S
C982 C986 1.368 . S
C983 C964 1.429 . S
C983 C977 1.429 1_556 S
C983 C984 1.523 . S
C984 C965 1.368 . S
C984 C978 1.368 . S
C984 C983 1.523 . S
C985 C969 1.429 . S
C985 C981 1.429 . S
C985 C986 1.523 . S
C986 C970 1.368 . S
C986 C982 1.368 . S
C986 C985 1.523 . S
H987 C962 0.946 1_556 S
H988 C964 0.950 . S
H989 C965 0.949 1_554 S
H990 C967 0.950 . S
H991 C969 0.950 . S
C992 C993 1.349 . S
C992 C994 1.327 . S
C992 H1017 0.950 . S
C993 C992 1.349 . S
C993 C1009 1.349 . S
C994 C992 1.327 . S
C994 C1013 1.429 . S
C994 H1018 0.950 . S
C995 C1012 1.574 . S
C995 C1014 1.368 . S
C995 H1019 0.949 . S
H996 C1000 0.949 . S
C997 C998 1.349 . S
C997 C999 1.327 . S
C997 H1020 0.950 1_655 S
C998 C997 1.349 . S
C998 C1010 1.349 . S
C999 C997 1.327 . S
C999 C1015 1.429 . S
C999 H1021 0.950 . S
C1000 H996 0.949 . S
C1000 C1008 1.574 . S
C1000 C1016 1.368 . S
H1001 C1009 0.950 . S
H1002 C1007 0.950 . S
H1003 C1008 0.949 . S
H1004 C1010 0.950 . S
H1005 C1011 0.950 . S
H1006 C1012 0.949 . S
C1007 H1002 0.950 . S
C1007 C1009 1.327 . S
C1007 C1013 1.429 . S
C1008 C1000 1.574 . S
C1008 H1003 0.949 . S
C1008 C1014 1.368 . S
C1009 C993 1.349 . S
C1009 H1001 0.950 . S
C1009 C1007 1.327 . S
C1010 C998 1.349 . S
C1010 H1004 0.950 . S
C1010 C1011 1.327 . S
C1011 H1005 0.950 . S
C1011 C1010 1.327 . S
C1011 C1015 1.429 . S
C1012 C995 1.574 . S
C1012 H1006 0.949 . S
C1012 C1016 1.368 . S
C1013 C994 1.429 . S
C1013 C1007 1.429 . S
C1013 C1014 1.523 . S
C1014 C995 1.368 . S
C1014 C1008 1.368 . S
C1014 C1013 1.523 . S
C1015 C999 1.429 . S
C1015 C1011 1.429 . S
C1015 C1016 1.523 . S
C1016 C1000 1.368 . S
C1016 C1012 1.368 . S
C1016 C1015 1.523 . S
H1017 C992 0.950 . S
H1018 C994 0.950 . S
H1019 C995 0.949 . S
H1020 C997 0.950 1_455 S
H1021 C999 0.950 . S
C1022 C1023 1.354 . S
C1022 C1024 1.327 . S
C1022 H1047 0.950 . S
C1023 C1022 1.354 . S
C1023 C1039 1.344 1_565 S
C1024 C1022 1.327 . S
C1024 C1043 1.469 . S
C1024 H1048 0.950 . S
C1025 C1042 1.574 . S
C1025 C1044 1.368 1_545 S
C1025 H1049 0.949 . S
H1026 C1030 0.949 . S
C1027 C1028 1.349 1_545 S
C1027 C1029 1.327 . S
C1027 H1050 0.950 . S
C1028 C1027 1.349 1_565 S
C1028 C1040 1.349 . S
C1029 C1027 1.327 . S
C1029 C1045 1.429 1_545 S
C1029 H1051 0.950 . S
C1030 H1026 0.949 . S
C1030 C1038 1.574 . S
C1030 C1046 1.368 . S
H1031 C1039 0.950 . S
H1032 C1037 0.950 . S
H1033 C1038 0.949 . S
H1034 C1040 0.950 . S
H1035 C1041 0.950 . S
H1036 C1042 0.949 . S
C1037 H1032 0.950 . S
C1037 C1039 1.327 . S
C1037 C1043 1.392 1_545 S
C1038 C1030 1.574 . S
C1038 H1033 0.949 . S
C1038 C1044 1.368 . S
C1039 C1023 1.344 1_545 S
C1039 H1031 0.950 . S
C1039 C1037 1.327 . S
C1040 C1028 1.349 . S
C1040 H1034 0.950 . S
C1040 C1041 1.327 . S
C1041 H1035 0.950 . S
C1041 C1040 1.327 . S
C1041 C1045 1.429 . S
C1042 C1025 1.574 . S
C1042 H1036 0.949 . S
C1042 C1046 1.368 1_545 S
C1043 C1024 1.469 . S
C1043 C1037 1.392 1_565 S
C1043 C1044 1.522 . S
C1044 C1025 1.368 1_565 S
C1044 C1038 1.368 . S
C1044 C1043 1.522 . S
C1045 C1029 1.429 1_565 S
C1045 C1041 1.429 . S
C1045 C1046 1.523 . S
C1046 C1030 1.368 . S
C1046 C1042 1.368 1_565 S
C1046 C1045 1.523 . S
H1047 C1022 0.950 . S
H1048 C1024 0.950 . S
H1049 C1025 0.949 . S
H1050 C1027 0.950 . S
H1051 C1029 0.950 . S
C1052 C1053 1.349 . S
C1052 C1054 1.327 . S
C1052 H1077 0.950 . S
C1053 C1052 1.349 . S
C1053 C1069 1.349 . S
C1054 C1052 1.327 . S
C1054 C1073 1.429 . S
C1054 H1078 0.950 . S
C1055 C1072 1.574 . S
C1055 C1074 1.368 . S
C1055 H1079 0.949 . S
H1056 C1060 0.949 . S
C1057 C1058 1.349 . S
C1057 C1059 1.327 . S
C1057 H1080 0.950 . S
C1058 C1057 1.349 . S
C1058 C1070 1.349 . S
C1059 C1057 1.327 . S
C1059 C1075 1.429 . S
C1059 H1081 0.950 . S
C1060 H1056 0.949 . S
C1060 C1068 1.574 . S
C1060 C1076 1.368 . S
H1061 C1069 0.950 . S
H1062 C1067 0.950 . S
H1063 C1068 0.949 . S
H1064 C1070 0.950 . S
H1065 C1071 0.950 . S
H1066 C1072 0.949 . S
C1067 H1062 0.950 . S
C1067 C1069 1.327 . S
C1067 C1073 1.429 . S
C1068 C1060 1.574 . S
C1068 H1063 0.949 . S
C1068 C1074 1.368 . S
C1069 C1053 1.349 . S
C1069 H1061 0.950 . S
C1069 C1067 1.327 . S
C1070 C1058 1.349 . S
C1070 H1064 0.950 . S
C1070 C1071 1.327 . S
C1071 H1065 0.950 . S
C1071 C1070 1.327 . S
C1071 C1075 1.429 . S
C1072 C1055 1.574 . S
C1072 H1066 0.949 . S
C1072 C1076 1.368 . S
C1073 C1054 1.429 . S
C1073 C1067 1.429 . S
C1073 C1074 1.523 . S
C1074 C1055 1.368 . S
C1074 C1068 1.368 . S
C1074 C1073 1.523 . S
C1075 C1059 1.429 . S
C1075 C1071 1.429 . S
C1075 C1076 1.523 . S
C1076 C1060 1.368 . S
C1076 C1072 1.368 . S
C1076 C1075 1.523 . S
H1077 C1052 0.950 . S
H1078 C1054 0.950 . S
H1079 C1055 0.949 . S
H1080 C1057 0.950 . S
H1081 C1059 0.950 . S
C1082 C1083 1.349 . S
C1082 C1084 1.327 . S
C1082 H1107 0.950 . S
C1083 C1082 1.349 . S
C1083 C1099 1.349 . S
C1084 C1082 1.327 . S
C1084 C1103 1.429 . S
C1084 H1108 0.950 . S
C1085 C1102 1.574 . S
C1085 C1104 1.368 . S
C1085 H1109 0.949 . S
H1086 C1090 0.949 . S
C1087 C1088 1.349 . S
C1087 C1089 1.327 . S
C1087 H1110 0.950 . S
C1088 C1087 1.349 . S
C1088 C1100 1.349 . S
C1089 C1087 1.327 . S
C1089 C1105 1.429 . S
C1089 H1111 0.950 . S
C1090 H1086 0.949 . S
C1090 C1098 1.574 . S
C1090 C1106 1.368 . S
H1091 C1099 0.950 . S
H1092 C1097 0.950 . S
H1093 C1098 0.949 . S
H1094 C1100 0.950 . S
H1095 C1101 0.950 . S
H1096 C1102 0.949 . S
C1097 H1092 0.950 . S
C1097 C1099 1.327 . S
C1097 C1103 1.429 . S
C1098 C1090 1.574 . S
C1098 H1093 0.949 . S
C1098 C1104 1.368 . S
C1099 C1083 1.349 . S
C1099 H1091 0.950 . S
C1099 C1097 1.327 . S
C1100 C1088 1.349 . S
C1100 H1094 0.950 . S
C1100 C1101 1.327 . S
C1101 H1095 0.950 . S
C1101 C1100 1.327 . S
C1101 C1105 1.429 . S
C1102 C1085 1.574 . S
C1102 H1096 0.949 . S
C1102 C1106 1.368 . S
C1103 C1084 1.429 . S
C1103 C1097 1.429 . S
C1103 C1104 1.523 . S
C1104 C1085 1.368 . S
C1104 C1098 1.368 . S
C1104 C1103 1.523 . S
C1105 C1089 1.429 . S
C1105 C1101 1.429 . S
C1105 C1106 1.523 . S
C1106 C1090 1.368 . S
C1106 C1102 1.368 . S
C1106 C1105 1.523 . S
H1107 C1082 0.950 . S
H1108 C1084 0.950 . S
H1109 C1085 0.949 . S
H1110 C1087 0.950 . S
H1111 C1089 0.950 . S
C393 C215 1.771 1_565 S
C398 C273 1.803 . S
C428 C294 1.615 . S
C423 C247 1.608 . S
C458 C328 1.365 . S
C453 C151 1.314 . S
C488 C362 1.609 . S
C483 C183 1.612 . S
C518 C264 1.804 . S
C513 C87 1.757 1_556 S
C543 C119 1.533 . S
C548 C303 1.621 . S
C573 C23 1.358 . S
C578 C337 1.366 . S
C603 C55 1.517 . S
C608 C371 1.620 . S
C638 C285 0.405 . S
C633 C189 0.337 . S
C668 C290 0.222 . S
C663 C221 0.338 . S
C698 C324 0.323 . S
C693 C253 0.278 . S
C723 C157 0.555 . S
C728 C358 0.152 . S
C753 C61 0.833 . S
C758 C256 0.404 . S
C788 C319 0.222 . S
C783 C93 0.338 1_565 S
C818 C353 0.323 . S
C813 C125 0.541 . S
C843 C29 0.202 . S
C848 C387 0.152 . S
C873 C177 1.508 . S
C878 C269 1.531 . S
C903 C209 1.874 . S
C908 C298 1.948 . S
C938 C332 1.689 . S
C933 C241 1.651 . S
C968 C366 1.701 . S
C963 C145 1.587 . S
C993 C49 1.431 . S
C998 C260 1.540 . S
C1028 C307 1.948 . S
C1023 C81 1.874 1_565 S
C1058 C341 1.689 . S
C1053 C113 1.585 . S
C1083 C17 1.659 . S
C1088 C375 1.701 . S
