# Generated by pormake.
# Topology rtl, (3,6)-cn, num edge types: 1
# Building blocks:
#     Node 0, Type 0, BuildingBlock: PAMTOO_clean_linker_0, # of connection points: 3
#     Node 1, Type 0, BuildingBlock: PAMTOO_clean_linker_0, # of connection points: 3
#     Node 2, Type 0, BuildingBlock: PAMTOO_clean_linker_0, # of connection points: 3
#     Node 3, Type 0, BuildingBlock: PAMTOO_clean_linker_0, # of connection points: 3
#     Node 4, Type 1, BuildingBlock: KUMBUR_clean_sbu_1, # of connection points: 6
#     Node 5, Type 1, BuildingBlock: KUMBUR_clean_sbu_1, # of connection points: 6
#     Edge 6, Type (0, 1), BuildingBlock: KIFKEQ_clean_linker_1, # of connection points: 2
#     Edge 7, Type (0, 1), BuildingBlock: KIFKEQ_clean_linker_1, # of connection points: 2
#     Edge 8, Type (0, 1), BuildingBlock: KIFKEQ_clean_linker_1, # of connection points: 2
#     Edge 9, Type (0, 1), BuildingBlock: KIFKEQ_clean_linker_1, # of connection points: 2
#     Edge 10, Type (0, 1), BuildingBlock: KIFKEQ_clean_linker_1, # of connection points: 2
#     Edge 11, Type (0, 1), BuildingBlock: KIFKEQ_clean_linker_1, # of connection points: 2
#     Edge 12, Type (0, 1), BuildingBlock: KIFKEQ_clean_linker_1, # of connection points: 2
#     Edge 13, Type (0, 1), BuildingBlock: KIFKEQ_clean_linker_1, # of connection points: 2
#     Edge 14, Type (0, 1), BuildingBlock: KIFKEQ_clean_linker_1, # of connection points: 2
#     Edge 15, Type (0, 1), BuildingBlock: KIFKEQ_clean_linker_1, # of connection points: 2
#     Edge 16, Type (0, 1), BuildingBlock: KIFKEQ_clean_linker_1, # of connection points: 2
#     Edge 17, Type (0, 1), BuildingBlock: KIFKEQ_clean_linker_1, # of connection points: 2
# Relax obj value: 0.051
# Max RMSD: 0.217
# Mean RMSD: 0.163
data_MOF--net-rtl--node1-KUMBUR_clean_sbu_1--node2-PAMTOO_clean_linker_0--edge1-KIFKEQ_clean_linker_1
_symmetry_space_group_name_H-M    P1
_symmetry_Int_Tables_number       1
_symmetry_cell_setting            triclinic
loop_
_symmetry_equiv_pos_as_xyz
'x, y, z'
_cell_length_a     35.48655
_cell_length_b     35.832253
_cell_length_c     27.255225
_cell_angle_alpha  79.364921
_cell_angle_beta   98.931842
_cell_angle_gamma 91.469671
loop_
_atom_site_label
_atom_site_type_symbol
_atom_site_fract_x
_atom_site_fract_y
_atom_site_fract_z
_atom_type_partial_charge
H0 H 0.161 0.89138 0.01351 0.0
H1 H 0.2457 0.81243 0.10224 0.0
H2 H 0.23261 0.83044 0.94069 0.0
H3 H 0.2414 0.75223 0.98645 0.0
C4 C 0.25897 0.75425 0.0234 0.0
O5 O 0.26881 0.79168 0.02457 0.0
H6 H 0.2416 0.74377 0.05383 0.0
C7 C 0.1839 0.87144 0.01562 0.0
C8 C 0.19449 0.86355 0.97086 0.0
C9 C 0.20241 0.85352 0.06325 0.0
C10 C 0.23161 0.8271 0.06591 0.0
C11 C 0.24195 0.81848 0.0217 0.0
C12 C 0.22383 0.83702 0.97446 0.0
H13 H 0.64753 0.64484 0.64555 0.0
H14 H 0.72203 0.72572 0.57133 0.0
H15 H 0.71072 0.72483 0.72609 0.0
H16 H 0.72181 0.80367 0.6638 0.0
C17 C 0.73668 0.79446 0.63498 0.0
O18 O 0.74578 0.75635 0.65021 0.0
H19 H 0.71698 0.79903 0.5984 0.0
C20 C 0.66717 0.66848 0.64611 0.0
C21 C 0.67679 0.68298 0.69098 0.0
C22 C 0.68288 0.68372 0.60234 0.0
C23 C 0.70927 0.7136 0.60431 0.0
C24 C 0.71916 0.72854 0.64866 0.0
C25 C 0.70259 0.7135 0.69176 0.0
H26 H 0.88121 0.14569 0.09578 0.0
H27 H 0.80221 0.22398 0.99388 0.0
H28 H 0.80048 0.20647 0.15385 0.0
H29 H 0.72509 0.20974 0.08813 0.0
C30 C 0.73109 0.23349 0.05775 0.0
O31 O 0.76913 0.24319 0.06532 0.0
H32 H 0.72398 0.22364 0.02101 0.0
C33 C 0.85814 0.16614 0.08921 0.0
C34 C 0.84303 0.17419 0.13063 0.0
C35 C 0.84411 0.18403 0.03968 0.0
C36 C 0.81329 0.20946 0.03168 0.0
C37 C 0.79739 0.21721 0.07288 0.0
C38 C 0.81224 0.19955 0.12223 0.0
H39 H 0.38384 0.38079 0.43623 0.0
H40 H 0.30926 0.30618 0.51969 0.0
H41 H 0.31234 0.30179 0.36372 0.0
H42 H 0.23515 0.28507 0.39153 0.0
C43 C 0.24325 0.27758 0.43323 0.0
O44 O 0.28224 0.27179 0.44483 0.0
H45 H 0.23499 0.30187 0.44966 0.0
C46 C 0.36279 0.35828 0.43816 0.0
C47 C 0.34988 0.34297 0.39483 0.0
C48 C 0.34825 0.34555 0.48344 0.0
C49 C 0.32047 0.31677 0.48497 0.0
C50 C 0.30763 0.30081 0.44201 0.0
C51 C 0.32222 0.31413 0.39684 0.0
Tb52 Tb 0.03738 0.97315 0.52079 0.0
C53 C 0.95477 0.12483 0.50303 0.0
N54 N 0.98898 0.11409 0.53157 0.0
C55 C 0.0158 0.17434 0.50054 0.0
C56 C 0.95002 0.16059 0.47096 0.0
C57 C 0.0192 0.13844 0.53146 0.0
C58 C 0.98112 0.18541 0.46992 0.0
C59 C 0.88925 0.10882 0.47469 0.0
C60 C 0.925 0.099 0.50447 0.0
C61 C 0.88441 0.14428 0.44226 0.0
C62 C 0.91471 0.1701 0.44041 0.0
Tb63 Tb 0.99199 0.05431 0.5789 0.0
N64 N 0.93108 0.06443 0.53526 0.0
C65 C 0.85924 0.08299 0.47907 0.0
C66 C 0.90076 0.04099 0.54325 0.0
C67 C 0.86482 0.0493 0.51434 0.0
H68 H 0.04573 0.13044 0.55593 0.0
H69 H 0.84123 0.03008 0.52011 0.0
H70 H 0.98635 0.89675 0.55356 0.0
H71 H 0.18872 1.00198 0.56587 0.0
H72 H 0.90328 0.01656 0.57304 0.0
H73 H 0.83132 0.08943 0.45691 0.0
H74 H 0.12483 0.01262 0.51698 0.0
H75 H 0.03991 0.19347 0.50041 0.0
H76 H 0.85724 0.15213 0.41877 0.0
H77 H 0.91056 0.19734 0.41523 0.0
H78 H 0.99556 0.83535 0.61256 0.0
H79 H 0.97865 0.21313 0.44574 0.0
H80 H 0.20195 0.94532 0.63313 0.0
N81 N 0.04305 0.91541 0.57331 0.0
C82 C 0.07821 0.90637 0.60026 0.0
C83 C 0.01897 0.8552 0.60971 0.0
C84 C 0.08484 0.87164 0.63427 0.0
C85 C 0.0137 0.89014 0.5767 0.0
C86 C 0.05461 0.84599 0.63888 0.0
N87 N 0.09952 0.96587 0.56094 0.0
C88 C 0.12894 0.98936 0.54852 0.0
C89 C 0.14403 0.92452 0.62195 0.0
C90 C 0.10722 0.93271 0.59441 0.0
C91 C 0.17326 0.95055 0.61283 0.0
C92 C 0.16584 0.98271 0.57519 0.0
H93 H 0.05853 0.81899 0.66462 0.0
H94 H 0.12677 0.8375 0.68953 0.0
H95 H 0.17869 0.88369 0.67852 0.0
O96 O 0.06804 0.97268 0.46026 0.0
O97 O 0.03433 0.96504 0.60219 0.0
O98 O 0.0423 0.02401 0.62373 0.0
O99 O 0.02557 0.93075 0.47662 0.0
O100 O 0.06017 0.03166 0.50643 0.0
O101 O 0.0536 0.05788 0.57653 0.0
O102 O 0.96241 0.0491 0.64114 0.0
O103 O 0.99462 0.06302 0.49806 0.0
O104 O 0.98845 1.00488 0.47346 0.0
O105 O 0.99731 0.09766 0.6219 0.0
O106 O 0.96807 0.99632 0.59151 0.0
O107 O 0.97585 0.96885 0.52286 0.0
C108 C 0.04791 0.98714 0.63407 0.0
C109 C 0.07808 0.91142 0.44336 0.0
C110 C 0.1164 0.88488 0.39041 0.0
C111 C 0.12452 0.85314 0.42945 0.0
C112 C 0.08658 0.87927 0.48135 0.0
C113 C 0.10986 0.85055 0.47452 0.0
C114 C 0.09319 0.91416 0.39798 0.0
C115 C 0.07039 0.05623 0.53695 0.0
C116 C 0.05231 0.94142 0.44964 0.0
C117 C 0.12117 0.86388 0.66281 0.0
C118 C 0.15068 0.89027 0.6567 0.0
C119 C 0.98129 0.0415 0.46553 0.0
C120 C 0.99179 0.07858 0.70754 0.0
C121 C 0.98369 0.09121 0.79034 0.0
C122 C 0.02124 0.07815 0.80908 0.0
C123 C 0.02902 0.06563 0.72697 0.0
C124 C 0.96918 0.09103 0.73927 0.0
C125 C 0.04356 0.06527 0.77761 0.0
C126 C 0.95834 0.9714 0.56144 0.0
C127 C 0.97637 0.08041 0.654 0.0
H128 H 0.14141 0.82966 0.4248 0.0
H129 H 0.07471 0.87581 0.51597 0.0
H130 H 0.116 0.82578 0.50397 0.0
H131 H 0.08667 0.93898 0.36865 0.0
H132 H 0.03374 0.07851 0.84784 0.0
H133 H 0.04694 0.05629 0.7029 0.0
H134 H 0.94025 0.10049 0.724 0.0
H135 H 0.0724 0.05544 0.79238 0.0
Tb136 Tb 0.47792 0.49286 0.99605 0.0
C137 C 0.61415 0.58985 0.0547 0.0
N138 N 0.60971 0.55216 0.07107 0.0
C139 C 0.67218 0.53997 0.05442 0.0
C140 C 0.64711 0.60406 0.03493 0.0
C141 C 0.63875 0.52727 0.07344 0.0
C142 C 0.67612 0.57845 0.03425 0.0
C143 C 0.59012 0.65367 0.0455 0.0
C144 C 0.58605 0.6141 0.05983 0.0
C145 C 0.62186 0.66808 0.02304 0.0
C146 C 0.65035 0.64329 0.01781 0.0
Tb147 Tb 0.55374 0.53382 0.0994 0.0
N148 N 0.55629 0.59898 0.0826 0.0
C149 C 0.56308 0.67751 0.05621 0.0
C150 C 0.53208 0.62228 0.09751 0.0
C151 C 0.5344 0.66174 0.08331 0.0
H152 H 0.63566 0.49756 0.08896 0.0
H153 H 0.51443 0.67997 0.094 0.0
H154 H 0.4063 0.5563 0.96424 0.0
H155 H 0.4716 0.34147 0.05827 0.0
H156 H 0.5111 0.61064 0.12082 0.0
H157 H 0.56512 0.7081 0.04584 0.0
H158 H 0.49937 0.40184 0.01936 0.0
H159 H 0.6948 0.52009 0.05515 0.0
H160 H 0.62527 0.69838 0.01118 0.0
H161 H 0.67522 0.65482 1.00182 0.0
H162 H 0.34315 0.56334 0.98847 0.0
H163 H 0.70197 0.58821 0.01942 0.0
H164 H 0.40998 0.34207 0.09015 0.0
N165 N 0.41688 0.50163 0.01016 0.0
C166 C 0.40047 0.47077 0.03542 0.0
C167 C 0.35928 0.53735 1.00287 0.0
C168 C 0.36362 0.47262 0.04808 0.0
C169 C 0.39562 0.53367 0.99037 0.0
C170 C 0.34355 0.50696 0.03292 0.0
N171 N 0.45448 0.43586 0.03078 0.0
C172 C 0.47253 0.40217 0.03331 0.0
C173 C 0.40262 0.40296 0.06746 0.0
C174 C 0.41952 0.43645 0.04492 0.0
C175 C 0.42199 0.3685 0.07305 0.0
C176 C 0.45683 0.36805 0.05516 0.0
H177 H 0.31517 0.50965 0.04193 0.0
H178 H 0.31933 0.44075 0.08396 0.0
H179 H 0.35359 0.37966 0.10103 0.0
O180 O 0.49466 0.4715 0.9357 0.0
O181 O 0.49054 0.46483 0.07602 0.0
O182 O 0.49899 0.51289 0.12088 0.0
O183 O 0.43688 0.4885 0.93274 0.0
O184 O 0.53529 0.46794 1.00931 0.0
O185 O 0.56453 0.4754 0.08994 0.0
O186 O 0.57738 0.55574 0.16508 0.0
O187 O 0.56543 0.5342 0.0222 0.0
O188 O 0.50809 0.54543 0.97016 0.0
O189 O 0.57821 0.49531 0.16327 0.0
O190 O 0.49452 0.55485 0.08506 0.0
O191 O 0.47273 0.5533 1.00097 0.0
C192 C 0.48458 0.47971 0.11463 0.0
C193 C 0.45954 0.49373 0.85525 0.0
C194 C 0.44392 0.48875 0.76605 0.0
C195 C 0.45492 0.52692 0.75301 0.0
C196 C 0.47038 0.53163 0.84146 0.0
C197 C 0.46812 0.54807 0.79049 0.0
C198 C 0.44649 0.47241 0.81763 0.0
C199 C 0.56072 0.45816 0.05042 0.0
C200 C 0.46108 0.47594 0.90855 0.0
C201 C 0.34741 0.43979 0.0733 0.0
C202 C 0.36685 0.40497 0.08285 0.0
C203 C 0.54517 0.55057 0.97952 0.0
C204 C 0.60712 0.51337 0.24222 0.0
C205 C 0.62795 0.53125 0.32459 0.0
C206 C 0.64175 0.49414 0.34346 0.0
C207 C 0.62136 0.47654 0.2621 0.0
C208 C 0.611 0.54095 0.27355 0.0
C209 C 0.63867 0.46712 0.31229 0.0
C210 C 0.47293 0.56828 0.04177 0.0
C211 C 0.58722 0.5219 0.18953 0.0
H212 H 0.45282 0.54069 0.71382 0.0
H213 H 0.48037 0.54846 0.87002 0.0
H214 H 0.4764 0.57739 0.77997 0.0
H215 H 0.43869 0.44296 0.82873 0.0
H216 H 0.65515 0.4861 0.38243 0.0
H217 H 0.61897 0.45481 0.23891 0.0
H218 H 0.59991 0.56939 0.25887 0.0
H219 H 0.64949 0.43865 0.32721 0.0
H220 H 0.19863 0.26635 0.50866 0.0
H221 H 0.2395 0.20916 0.40115 0.0
H222 H 0.15974 0.2113 0.53482 0.0
H223 H 0.2014 0.15328 0.42817 0.0
H224 H 0.09194 0.08205 0.44445 0.0
H225 H 0.13623 0.13326 0.4219 0.0
H226 H 0.16002 0.14709 0.57787 0.0
H227 H 0.11508 0.09639 0.60004 0.0
C228 C 0.19966 0.2417 0.49112 0.0
C229 C 0.22195 0.24209 0.45268 0.0
C230 C 0.17751 0.20997 0.50629 0.0
C231 C 0.17717 0.17765 0.48359 0.0
C232 C 0.20037 0.17777 0.446 0.0
C233 C 0.22247 0.20961 0.43076 0.0
C234 C 0.10693 0.09578 0.47401 0.0
C235 C 0.09971 0.08531 0.52398 0.0
C236 C 0.13249 0.12513 0.46112 0.0
C237 C 0.15172 0.14468 0.49793 0.0
C238 C 0.14529 0.13331 0.54824 0.0
C239 C 0.11964 0.10405 0.56107 0.0
H240 H 0.32225 0.76785 0.97586 0.0
H241 H 0.27315 0.6843 0.08289 0.0
H242 H 0.37661 0.72562 0.98186 0.0
H243 H 0.32647 0.64159 0.08785 0.0
H244 H 0.44108 0.58424 0.12035 0.0
H245 H 0.39273 0.63176 0.11811 0.0
H246 H 0.39194 0.66744 0.95755 0.0
H247 H 0.44172 0.62086 0.96047 0.0
C248 C 0.32339 0.74061 1.0011 0.0
C249 C 0.29398 0.7297 0.02982 0.0
C250 C 0.35426 0.71622 1.00416 0.0
C251 C 0.35613 0.68017 0.03555 0.0
C252 C 0.32654 0.66939 0.06415 0.0
C253 C 0.29586 0.69381 0.06122 0.0
C254 C 0.43099 0.60262 0.08471 0.0
C255 C 0.44504 0.59867 0.04051 0.0
C256 C 0.40293 0.62962 0.08329 0.0
C257 C 0.38803 0.6533 0.03756 0.0
C258 C 0.4029 0.64999 0.99355 0.0
C259 C 0.43119 0.62308 0.99507 0.0
H260 H 0.75848 0.85968 0.67082 0.0
H261 H 0.79335 0.78383 0.58042 0.0
H262 H 0.81216 0.90118 0.65333 0.0
H263 H 0.84807 0.82473 0.56387 0.0
H264 H 0.9159 0.92886 0.49885 0.0
H265 H 0.86409 0.88504 0.51794 0.0
H266 H 0.87941 0.90729 0.67028 0.0
H267 H 0.93042 0.95165 0.65074 0.0
C268 C 0.77813 0.85154 0.64794 0.0
C269 C 0.77209 0.81814 0.62775 0.0
C270 C 0.80906 0.87529 0.63796 0.0
C271 C 0.83481 0.86641 0.60729 0.0
C272 C 0.82875 0.83281 0.58722 0.0
C273 C 0.79767 0.80909 0.59713 0.0
C274 C 0.90824 0.9243 0.53645 0.0
C275 C 0.92724 0.94398 0.57313 0.0
C276 C 0.87862 0.89896 0.54755 0.0
C277 C 0.86727 0.89251 0.59571 0.0
C278 C 0.88672 0.91191 0.63251 0.0
C279 C 0.91618 0.93732 0.62135 0.0
H280 H 0.71129 0.293 0.98013 0.0
H281 H 0.69783 0.25101 0.13513 0.0
H282 H 0.67181 0.34827 0.97881 0.0
H283 H 0.65755 0.30567 0.13385 0.0
H284 H 0.61611 0.42648 0.12793 0.0
H285 H 0.65857 0.37364 0.12996 0.0
H286 H 0.60603 0.36325 0.97914 0.0
H287 H 0.56434 0.41654 0.97646 0.0
C288 C 0.69959 0.2956 0.01377 0.0
C289 C 0.70692 0.26753 0.05739 0.0
C290 C 0.67688 0.32709 0.01305 0.0
C291 C 0.66117 0.33131 0.0561 0.0
C292 C 0.66936 0.30353 0.10015 0.0
C293 C 0.69214 0.27207 0.10083 0.0
C294 C 0.61366 0.41306 0.09509 0.0
C295 C 0.58672 0.42594 0.05201 0.0
C296 C 0.6379 0.38255 0.0964 0.0
C297 C 0.6358 0.36414 0.0547 0.0
C298 C 0.60889 0.37708 0.01166 0.0
C299 C 0.58473 0.40757 0.0103 0.0
H300 H 0.13022 0.85395 0.08596 0.0
H301 H 0.24775 0.8715 0.14612 0.0
H302 H 0.11059 0.86521 0.16376 0.0
H303 H 0.22827 0.8845 0.22333 0.0
H304 H 0.18566 0.8602 0.37569 0.0
H305 H 0.20623 0.85459 0.29664 0.0
H306 H 0.10216 0.90942 0.21447 0.0
H307 H 0.08026 0.91231 0.29399 0.0
C308 C 0.1518 0.8608 0.11568 0.0
C309 C 0.19051 0.86169 0.11011 0.0
C310 C 0.14057 0.86753 0.16026 0.0
C311 C 0.16775 0.87585 0.20022 0.0
C312 C 0.20649 0.87746 0.19401 0.0
C313 C 0.21774 0.87016 0.14968 0.0
C314 C 0.16694 0.87083 0.34083 0.0
C315 C 0.13096 0.88618 0.34154 0.0
C316 C 0.17906 0.86814 0.2952 0.0
C317 C 0.15584 0.88128 0.24874 0.0
C318 C 0.12057 0.89823 0.24937 0.0
C319 C 0.10822 0.90048 0.29513 0.0
H320 H 0.67455 0.6077 0.73156 0.0
H321 H 0.64121 0.7177 0.75338 0.0
H322 H 0.64339 0.57722 0.80227 0.0
H323 H 0.60981 0.68705 0.82466 0.0
H324 H 0.61676 0.53754 0.96208 0.0
H325 H 0.65044 0.57155 0.89588 0.0
H326 H 0.55217 0.64391 0.83727 0.0
H327 H 0.51862 0.61004 0.90447 0.0
C328 C 0.66068 0.62538 0.75171 0.0
C329 C 0.66026 0.66511 0.73679 0.0
C330 C 0.64299 0.60792 0.79242 0.0
C331 C 0.624 0.62967 0.81909 0.0
C332 C 0.62393 0.66949 0.80462 0.0
C333 C 0.64217 0.68705 0.76416 0.0
C334 C 0.60251 0.56102 0.9355 0.0
C335 C 0.56517 0.5713 0.93875 0.0
C336 C 0.62169 0.58031 0.89726 0.0
C337 C 0.60404 0.6105 0.86124 0.0
C338 C 0.56673 0.62104 0.86472 0.0
C339 C 0.54739 0.60145 0.90286 0.0
H340 H 0.80921 0.13663 0.20977 0.0
H341 H 0.91841 0.17319 0.16739 0.0
H342 H 0.84153 0.10421 0.29254 0.0
H343 H 0.95047 0.14061 0.2488 0.0
H344 H 0.99363 0.11214 0.41563 0.0
H345 H 0.95726 0.1461 0.33795 0.0
H346 H 0.88596 0.04759 0.32636 0.0
H347 H 0.92207 0.01374 0.40571 0.0
C348 C 0.84001 0.138 0.21839 0.0
C349 C 0.86138 0.15721 0.18226 0.0
C350 C 0.85848 0.11918 0.26536 0.0
C351 C 0.89852 0.11978 0.27701 0.0
C352 C 0.9196 0.13987 0.24117 0.0
C353 C 0.90127 0.15833 0.19443 0.0
C354 C 0.97011 0.09774 0.39659 0.0
C355 C 0.96062 0.06034 0.41649 0.0
C356 C 0.94939 0.11714 0.352 0.0
C357 C 0.9188 0.09949 0.326 0.0
C358 C 0.90919 0.06199 0.34589 0.0
C359 C 0.93012 0.04246 0.39074 0.0
H360 H 0.30623 0.37042 0.54746 0.0
H361 H 0.42196 0.35979 0.5211 0.0
H362 H 0.32914 0.40384 0.61678 0.0
H363 H 0.44505 0.3923 0.59087 0.0
H364 H 0.46975 0.48997 0.67598 0.0
H365 H 0.44606 0.45429 0.60995 0.0
H366 H 0.36377 0.3988 0.70031 0.0
H367 H 0.38607 0.43619 0.76524 0.0
C368 C 0.33662 0.37469 0.55706 0.0
C369 C 0.36225 0.36277 0.52856 0.0
C370 C 0.34981 0.39382 0.59683 0.0
C371 C 0.38899 0.40121 0.60925 0.0
C372 C 0.41463 0.38803 0.58171 0.0
C373 C 0.40143 0.3692 0.54181 0.0
C374 C 0.44629 0.47053 0.68161 0.0
C375 C 0.42984 0.46613 0.72607 0.0
C376 C 0.43303 0.44957 0.64396 0.0
C377 C 0.40307 0.42339 0.64974 0.0
C378 C 0.38663 0.41891 0.69424 0.0
C379 C 0.3998 0.44003 0.73185 0.0
H380 H 0.72901 0.67057 0.53486 0.0
H381 H 0.61233 0.66019 0.56304 0.0
H382 H 0.71219 0.63898 0.46233 0.0
H383 H 0.59593 0.62786 0.49141 0.0
H384 H 0.60304 0.52231 0.41522 0.0
H385 H 0.61396 0.56393 0.47744 0.0
H386 H 0.67147 0.64401 0.3754 0.0
H387 H 0.66025 0.60203 0.31269 0.0
C388 C 0.69967 0.66215 0.52521 0.0
C389 C 0.67217 0.66754 0.55536 0.0
C390 C 0.69006 0.64403 0.4836 0.0
C391 C 0.65281 0.63065 0.47142 0.0
C392 C 0.62501 0.63733 0.50032 0.0
C393 C 0.63451 0.65569 0.54156 0.0
C394 C 0.61758 0.54904 0.40586 0.0
C395 C 0.63088 0.55897 0.35927 0.0
C396 C 0.62368 0.57297 0.44135 0.0
C397 C 0.64365 0.60723 0.43138 0.0
C398 C 0.65619 0.61766 0.38422 0.0
C399 C 0.64954 0.59387 0.34825 0.0
H400 H 0.81066 0.17183 0.94573 0.0
H401 H 0.92029 0.17864 0.03817 0.0
H402 H 0.84249 0.15082 0.88158 0.0
H403 H 0.95147 0.15658 0.97532 0.0
H404 H 0.98122 0.06414 0.89065 0.0
H405 H 0.94613 0.09005 0.94676 0.0
H406 H 0.89602 0.17542 0.8223 0.0
H407 H 0.93245 0.15073 0.76604 0.0
C408 C 0.84146 0.16936 0.95206 0.0
C409 C 0.86287 0.17615 0.99749 0.0
C410 C 0.85959 0.15721 0.91552 0.0
C411 C 0.89928 0.15142 0.92416 0.0
C412 C 0.92074 0.16006 0.9683 0.0
C413 C 0.90282 0.17258 1.00429 0.0
C414 C 0.96313 0.08869 0.87511 0.0
C415 C 0.96014 0.10553 0.82378 0.0
C416 C 0.94284 0.10334 0.90726 0.0
C417 C 0.91861 0.13483 0.8888 0.0
C418 C 0.91439 0.15097 0.8373 0.0
C419 C 0.93518 0.13666 0.80515 0.0
H420 H 0.41916 0.32694 0.37345 0.0
H421 H 0.31771 0.39381 0.31299 0.0
H422 H 0.45022 0.35853 0.30278 0.0
H423 H 0.3486 0.42569 0.24196 0.0
H424 H 0.43715 0.5075 0.16896 0.0
H425 H 0.4018 0.4717 0.23255 0.0
H426 H 0.4486 0.36706 0.2103 0.0
H427 H 0.4844 0.40307 0.14748 0.0
C428 C 0.4033 0.34785 0.34425 0.0
C429 C 0.36599 0.35769 0.34808 0.0
C430 C 0.42101 0.36597 0.30382 0.0
C431 C 0.40197 0.39479 0.26676 0.0
C432 C 0.36418 0.40389 0.27008 0.0
C433 C 0.34633 0.38543 0.31031 0.0
C434 C 0.43989 0.47686 0.17786 0.0
C435 C 0.46338 0.45801 0.15325 0.0
C436 C 0.41934 0.4563 0.21382 0.0
C437 C 0.42223 0.41645 0.22644 0.0
C438 C 0.44588 0.3977 0.20176 0.0
C439 C 0.4662 0.41826 0.16556 0.0
H440 H 0.17191 0.83192 0.88678 0.0
H441 H 0.17126 0.93779 0.94107 0.0
H442 H 0.13796 0.8624 0.80508 0.0
H443 H 0.13574 0.9678 0.86014 0.0
H444 H 0.1054 0.01867 0.69151 0.0
H445 H 0.14213 0.98917 0.77219 0.0
H446 H 0.075 0.88705 0.76875 0.0
H447 H 0.03842 0.91669 0.68832 0.0
C448 C 0.16468 0.86173 0.88127 0.0
C449 C 0.17432 0.88236 0.92062 0.0
C450 C 0.14477 0.8791 0.83459 0.0
C451 C 0.1339 0.91751 0.82609 0.0
C452 C 0.14393 0.93826 0.86521 0.0
C453 C 0.1639 0.92091 0.91186 0.0
C454 C 0.09837 0.99004 0.70834 0.0
C455 C 0.06924 0.96986 0.68364 0.0
C456 C 0.11939 0.97312 0.7545 0.0
C457 C 0.11165 0.93565 0.77692 0.0
C458 C 0.08221 0.91568 0.7522 0.0
C459 C 0.06118 0.93266 0.70618 0.0
loop_
_geom_bond_atom_site_label_1
_geom_bond_atom_site_label_2
_geom_bond_distance
_geom_bond_site_symmetry_2
_ccdc_geom_bond_type
H0 C7 0.929 . S
H1 C10 0.930 . S
H2 C12 0.929 . S
H3 C4 0.969 . S
C4 H3 0.969 . S
C4 O5 1.550 . S
C4 H6 0.973 . S
O5 C4 1.550 . S
O5 C11 1.412 . S
H6 C4 0.973 . S
C7 H0 0.929 . S
C7 C8 1.400 1_554 S
C7 C9 1.364 . S
C8 C7 1.400 1_556 S
C8 C12 1.377 . S
C9 C7 1.364 . S
C9 C10 1.374 . S
C10 H1 0.930 . S
C10 C9 1.374 . S
C10 C11 1.383 . S
C11 O5 1.412 . S
C11 C10 1.383 . S
C11 C12 1.394 1_554 S
C12 H2 0.929 . S
C12 C8 1.377 . S
C12 C11 1.394 1_556 S
H13 C20 0.929 . S
H14 C23 0.930 . S
H15 C25 0.929 . S
H16 C17 0.969 . S
C17 H16 0.969 . S
C17 O18 1.550 . S
C17 H19 0.973 . S
O18 C17 1.550 . S
O18 C24 1.412 . S
H19 C17 0.973 . S
C20 H13 0.929 . S
C20 C21 1.400 . S
C20 C22 1.364 . S
C21 C20 1.400 . S
C21 C25 1.377 . S
C22 C20 1.364 . S
C22 C23 1.374 . S
C23 H14 0.930 . S
C23 C22 1.374 . S
C23 C24 1.383 . S
C24 O18 1.412 . S
C24 C23 1.383 . S
C24 C25 1.394 . S
C25 H15 0.929 . S
C25 C21 1.377 . S
C25 C24 1.394 . S
H26 C33 0.929 . S
H27 C36 0.930 1_556 S
H28 C38 0.929 . S
H29 C30 0.969 . S
C30 H29 0.969 . S
C30 O31 1.550 . S
C30 H32 0.973 1_554 S
O31 C30 1.550 . S
O31 C37 1.412 . S
H32 C30 0.973 1_556 S
C33 H26 0.929 . S
C33 C34 1.400 . S
C33 C35 1.364 . S
C34 C33 1.400 . S
C34 C38 1.377 . S
C35 C33 1.364 . S
C35 C36 1.374 . S
C36 H27 0.930 1_554 S
C36 C35 1.374 . S
C36 C37 1.383 . S
C37 O31 1.412 . S
C37 C36 1.383 . S
C37 C38 1.394 . S
C38 H28 0.929 . S
C38 C34 1.377 . S
C38 C37 1.394 . S
H39 C46 0.929 . S
H40 C49 0.930 . S
H41 C51 0.929 . S
H42 C43 0.969 . S
C43 H42 0.969 . S
C43 O44 1.550 . S
C43 H45 0.973 . S
O44 C43 1.550 . S
O44 C50 1.412 . S
H45 C43 0.973 . S
C46 H39 0.929 . S
C46 C47 1.400 . S
C46 C48 1.364 . S
C47 C46 1.400 . S
C47 C51 1.377 . S
C48 C46 1.364 . S
C48 C49 1.374 . S
C49 H40 0.930 . S
C49 C48 1.374 . S
C49 C50 1.383 . S
C50 O44 1.412 . S
C50 C49 1.383 . S
C50 C51 1.394 . S
C51 H41 0.929 . S
C51 C47 1.377 . S
C51 C50 1.394 . S
Tb52 N81 2.617 . S
Tb52 N87 2.572 . S
Tb52 O96 2.465 . S
Tb52 O97 2.387 . S
Tb52 O99 2.428 . S
Tb52 O100 2.308 1_565 S
Tb52 O104 2.349 1_465 S
Tb52 O107 2.393 1_455 S
Tb52 C116 2.802 . S
C53 N54 1.379 . S
C53 C56 1.416 . S
C53 C60 1.424 . S
N54 C53 1.379 . S
N54 C57 1.334 1_655 S
N54 Tb63 2.617 . S
C55 C57 1.390 . S
C55 C58 1.339 1_455 S
C55 H75 0.930 . S
C56 C53 1.416 . S
C56 C58 1.416 . S
C56 C62 1.448 . S
C57 N54 1.334 1_455 S
C57 C55 1.390 . S
C57 H68 0.930 . S
C58 C55 1.339 1_655 S
C58 C56 1.416 . S
C58 H79 0.930 . S
C59 C60 1.413 . S
C59 C61 1.427 . S
C59 C65 1.416 . S
C60 C53 1.424 . S
C60 C59 1.413 . S
C60 N64 1.361 . S
C61 C59 1.427 . S
C61 C62 1.328 . S
C61 H76 0.929 . S
C62 C56 1.448 . S
C62 C61 1.328 . S
C62 H77 0.930 . S
Tb63 N54 2.617 . S
Tb63 N64 2.572 . S
Tb63 O98 2.349 1_655 S
Tb63 O101 2.393 1_655 S
Tb63 O102 2.465 . S
Tb63 O103 2.387 . S
Tb63 O105 2.428 . S
Tb63 O106 2.308 1_545 S
Tb63 C127 2.802 . S
N64 C60 1.361 . S
N64 Tb63 2.572 . S
N64 C66 1.340 . S
C65 C59 1.416 . S
C65 C67 1.332 . S
C65 H73 0.931 . S
C66 N64 1.340 . S
C66 C67 1.407 . S
C66 H72 0.930 . S
C67 C65 1.332 . S
C67 C66 1.407 . S
C67 H69 0.929 . S
H68 C57 0.930 . S
H69 C67 0.929 . S
H70 C85 0.930 1_655 S
H71 C92 0.929 . S
H72 C66 0.930 . S
H73 C65 0.931 . S
H74 C88 0.930 . S
H75 C55 0.930 . S
H76 C61 0.929 . S
H77 C62 0.930 . S
H78 C83 0.930 1_655 S
H79 C58 0.930 . S
H80 C91 0.931 . S
N81 Tb52 2.617 . S
N81 C82 1.379 . S
N81 C85 1.334 . S
C82 N81 1.379 . S
C82 C84 1.416 . S
C82 C90 1.424 . S
C83 H78 0.930 1_455 S
C83 C85 1.390 . S
C83 C86 1.339 . S
C84 C82 1.416 . S
C84 C86 1.416 . S
C84 C117 1.448 . S
C85 H70 0.930 1_455 S
C85 N81 1.334 . S
C85 C83 1.390 . S
C86 C83 1.339 . S
C86 C84 1.416 . S
C86 H93 0.930 . S
N87 Tb52 2.572 . S
N87 C88 1.340 . S
N87 C90 1.361 . S
C88 H74 0.930 . S
C88 N87 1.340 . S
C88 C92 1.407 . S
C89 C90 1.413 . S
C89 C91 1.416 . S
C89 C118 1.427 . S
C90 C82 1.424 . S
C90 N87 1.361 . S
C90 C89 1.413 . S
C91 H80 0.931 . S
C91 C89 1.416 . S
C91 C92 1.332 . S
C92 H71 0.929 . S
C92 C88 1.407 . S
C92 C91 1.332 . S
H93 C86 0.930 . S
H94 C117 0.930 . S
H95 C118 0.929 . S
O96 Tb52 2.465 . S
O96 C116 1.264 . S
O97 Tb52 2.387 . S
O97 C108 1.264 . S
O98 Tb63 2.349 1_455 S
O98 C108 1.243 1_545 S
O99 Tb52 2.428 . S
O99 C116 1.256 . S
O100 Tb52 2.308 1_545 S
O100 C115 1.266 . S
O101 Tb63 2.393 1_455 S
O101 C115 1.248 . S
O102 Tb63 2.465 . S
O102 C127 1.264 . S
O103 Tb63 2.387 . S
O103 C119 1.264 . S
O104 Tb52 2.349 1_645 S
O104 C119 1.243 . S
O105 Tb63 2.428 . S
O105 C127 1.256 . S
O106 Tb63 2.308 1_565 S
O106 C126 1.266 . S
O107 Tb52 2.393 1_655 S
O107 C126 1.248 . S
C108 O97 1.264 . S
C108 O98 1.243 1_565 S
C109 C112 1.399 . S
C109 C114 1.383 . S
C109 C116 1.496 . S
C110 C111 1.399 . S
C110 C114 1.389 . S
C111 C110 1.399 . S
C111 C113 1.380 . S
C111 H128 0.929 . S
C112 C109 1.399 . S
C112 C113 1.392 . S
C112 H129 0.929 . S
C113 C111 1.380 . S
C113 C112 1.392 . S
C113 H130 0.929 . S
C114 C109 1.383 . S
C114 C110 1.389 . S
C114 H131 0.931 . S
C115 O100 1.266 . S
C115 O101 1.248 . S
C116 Tb52 2.802 . S
C116 O96 1.264 . S
C116 O99 1.256 . S
C116 C109 1.496 . S
C117 C84 1.448 . S
C117 H94 0.930 . S
C117 C118 1.328 . S
C118 C89 1.427 . S
C118 H95 0.929 . S
C118 C117 1.328 . S
C119 O103 1.264 . S
C119 O104 1.243 . S
C120 C123 1.399 . S
C120 C124 1.383 . S
C120 C127 1.496 . S
C121 C122 1.399 . S
C121 C124 1.389 . S
C122 C121 1.399 . S
C122 C125 1.380 . S
C122 H132 0.929 . S
C123 C120 1.399 . S
C123 C125 1.392 . S
C123 H133 0.929 . S
C124 C120 1.383 . S
C124 C121 1.389 . S
C124 H134 0.931 . S
C125 C122 1.380 . S
C125 C123 1.392 . S
C125 H135 0.929 . S
C126 O106 1.266 . S
C126 O107 1.248 . S
C127 Tb63 2.802 . S
C127 O102 1.264 . S
C127 O105 1.256 . S
C127 C120 1.496 . S
H128 C111 0.929 . S
H129 C112 0.929 . S
H130 C113 0.929 . S
H131 C114 0.931 . S
H132 C122 0.929 . S
H133 C123 0.929 . S
H134 C124 0.931 . S
H135 C125 0.929 . S
Tb136 N165 2.617 . S
Tb136 N171 2.572 1_556 S
Tb136 O180 2.465 . S
Tb136 O181 2.387 1_556 S
Tb136 O183 2.428 . S
Tb136 O184 2.308 1_556 S
Tb136 O188 2.349 . S
Tb136 O191 2.393 1_556 S
Tb136 C200 2.802 . S
C137 N138 1.379 . S
C137 C140 1.416 . S
C137 C144 1.424 . S
N138 C137 1.379 . S
N138 C141 1.334 . S
N138 Tb147 2.617 . S
C139 C141 1.390 . S
C139 C142 1.339 . S
C139 H159 0.930 . S
C140 C137 1.416 . S
C140 C142 1.416 . S
C140 C146 1.448 . S
C141 N138 1.334 . S
C141 C139 1.390 . S
C141 H152 0.930 . S
C142 C139 1.339 . S
C142 C140 1.416 . S
C142 H163 0.930 . S
C143 C144 1.413 . S
C143 C145 1.427 . S
C143 C149 1.416 . S
C144 C137 1.424 . S
C144 C143 1.413 . S
C144 N148 1.361 . S
C145 C143 1.427 . S
C145 C146 1.328 . S
C145 H160 0.929 . S
C146 C140 1.448 . S
C146 C145 1.328 . S
C146 H161 0.930 . S
Tb147 N138 2.617 . S
Tb147 N148 2.572 . S
Tb147 O182 2.349 . S
Tb147 O185 2.393 . S
Tb147 O186 2.465 . S
Tb147 O187 2.387 . S
Tb147 O189 2.428 . S
Tb147 O190 2.308 . S
Tb147 C211 2.802 . S
N148 C144 1.361 . S
N148 Tb147 2.572 . S
N148 C150 1.340 . S
C149 C143 1.416 . S
C149 C151 1.332 . S
C149 H157 0.931 . S
C150 N148 1.340 . S
C150 C151 1.407 . S
C150 H156 0.930 . S
C151 C149 1.332 . S
C151 C150 1.407 . S
C151 H153 0.929 . S
H152 C141 0.930 . S
H153 C151 0.929 . S
H154 C169 0.930 . S
H155 C176 0.929 . S
H156 C150 0.930 . S
H157 C149 0.931 . S
H158 C172 0.930 . S
H159 C139 0.930 . S
H160 C145 0.929 . S
H161 C146 0.930 . S
H162 C167 0.930 . S
H163 C142 0.930 . S
H164 C175 0.931 . S
N165 Tb136 2.617 . S
N165 C166 1.379 1_556 S
N165 C169 1.334 . S
C166 N165 1.379 1_554 S
C166 C168 1.416 . S
C166 C174 1.424 . S
C167 H162 0.930 . S
C167 C169 1.390 . S
C167 C170 1.339 1_556 S
C168 C166 1.416 . S
C168 C170 1.416 . S
C168 C201 1.448 . S
C169 H154 0.930 . S
C169 N165 1.334 . S
C169 C167 1.390 . S
C170 C167 1.339 1_554 S
C170 C168 1.416 . S
C170 H177 0.930 . S
N171 Tb136 2.572 1_554 S
N171 C172 1.340 . S
N171 C174 1.361 . S
C172 H158 0.930 . S
C172 N171 1.340 . S
C172 C176 1.407 . S
C173 C174 1.413 . S
C173 C175 1.416 . S
C173 C202 1.427 . S
C174 C166 1.424 . S
C174 N171 1.361 . S
C174 C173 1.413 . S
C175 H164 0.931 . S
C175 C173 1.416 . S
C175 C176 1.332 . S
C176 H155 0.929 . S
C176 C172 1.407 . S
C176 C175 1.332 . S
H177 C170 0.930 . S
H178 C201 0.930 . S
H179 C202 0.929 . S
O180 Tb136 2.465 . S
O180 C200 1.264 . S
O181 Tb136 2.387 1_554 S
O181 C192 1.264 . S
O182 Tb147 2.349 . S
O182 C192 1.243 . S
O183 Tb136 2.428 . S
O183 C200 1.256 . S
O184 Tb136 2.308 1_554 S
O184 C199 1.266 . S
O185 Tb147 2.393 . S
O185 C199 1.248 . S
O186 Tb147 2.465 . S
O186 C211 1.264 . S
O187 Tb147 2.387 . S
O187 C203 1.264 1_554 S
O188 Tb136 2.349 . S
O188 C203 1.243 . S
O189 Tb147 2.428 . S
O189 C211 1.256 . S
O190 Tb147 2.308 . S
O190 C210 1.266 . S
O191 Tb136 2.393 1_554 S
O191 C210 1.248 . S
C192 O181 1.264 . S
C192 O182 1.243 . S
C193 C196 1.399 . S
C193 C198 1.383 . S
C193 C200 1.496 . S
C194 C195 1.399 . S
C194 C198 1.389 . S
C195 C194 1.399 . S
C195 C197 1.380 . S
C195 H212 0.929 . S
C196 C193 1.399 . S
C196 C197 1.392 . S
C196 H213 0.929 . S
C197 C195 1.380 . S
C197 C196 1.392 . S
C197 H214 0.929 . S
C198 C193 1.383 . S
C198 C194 1.389 . S
C198 H215 0.931 . S
C199 O184 1.266 . S
C199 O185 1.248 . S
C200 Tb136 2.802 . S
C200 O180 1.264 . S
C200 O183 1.256 . S
C200 C193 1.496 . S
C201 C168 1.448 . S
C201 H178 0.930 . S
C201 C202 1.328 . S
C202 C173 1.427 . S
C202 H179 0.929 . S
C202 C201 1.328 . S
C203 O187 1.264 1_556 S
C203 O188 1.243 . S
C204 C207 1.399 . S
C204 C208 1.383 . S
C204 C211 1.496 . S
C205 C206 1.399 . S
C205 C208 1.389 . S
C206 C205 1.399 . S
C206 C209 1.380 . S
C206 H216 0.929 . S
C207 C204 1.399 . S
C207 C209 1.392 . S
C207 H217 0.929 . S
C208 C204 1.383 . S
C208 C205 1.389 . S
C208 H218 0.931 . S
C209 C206 1.380 . S
C209 C207 1.392 . S
C209 H219 0.929 . S
C210 O190 1.266 . S
C210 O191 1.248 . S
C211 Tb147 2.802 . S
C211 O186 1.264 . S
C211 O189 1.256 . S
C211 C204 1.496 . S
H212 C195 0.929 . S
H213 C196 0.929 . S
H214 C197 0.929 . S
H215 C198 0.931 . S
H216 C206 0.929 . S
H217 C207 0.929 . S
H218 C208 0.931 . S
H219 C209 0.929 . S
H220 C228 0.950 . S
H221 C233 0.950 . S
H222 C230 0.950 . S
H223 C232 0.950 . S
H224 C234 0.950 . S
H225 C236 0.950 . S
H226 C238 0.950 . S
H227 C239 0.950 . S
C228 H220 0.950 . S
C228 C229 1.386 . S
C228 C230 1.391 . S
C229 C228 1.386 . S
C229 C233 1.393 . S
C230 H222 0.950 . S
C230 C228 1.391 . S
C230 C231 1.400 . S
C231 C230 1.400 . S
C231 C232 1.398 . S
C231 C237 1.491 . S
C232 H223 0.950 . S
C232 C231 1.398 . S
C232 C233 1.391 . S
C233 H221 0.950 . S
C233 C229 1.393 . S
C233 C232 1.391 . S
C234 H224 0.950 . S
C234 C235 1.386 . S
C234 C236 1.391 . S
C235 C234 1.386 . S
C235 C239 1.393 . S
C236 H225 0.950 . S
C236 C234 1.391 . S
C236 C237 1.400 . S
C237 C231 1.491 . S
C237 C236 1.400 . S
C237 C238 1.398 . S
C238 H226 0.950 . S
C238 C237 1.398 . S
C238 C239 1.391 . S
C239 H227 0.950 . S
C239 C235 1.393 . S
C239 C238 1.391 . S
H240 C248 0.950 . S
H241 C253 0.950 . S
H242 C250 0.950 . S
H243 C252 0.950 . S
H244 C254 0.950 . S
H245 C256 0.950 . S
H246 C258 0.950 . S
H247 C259 0.950 . S
C248 H240 0.950 . S
C248 C249 1.386 . S
C248 C250 1.391 . S
C249 C248 1.386 . S
C249 C253 1.393 . S
C250 H242 0.950 . S
C250 C248 1.391 . S
C250 C251 1.400 . S
C251 C250 1.400 . S
C251 C252 1.398 . S
C251 C257 1.491 . S
C252 H243 0.950 . S
C252 C251 1.398 . S
C252 C253 1.391 . S
C253 H241 0.950 . S
C253 C249 1.393 . S
C253 C252 1.391 . S
C254 H244 0.950 . S
C254 C255 1.386 . S
C254 C256 1.391 . S
C255 C254 1.386 . S
C255 C259 1.393 . S
C256 H245 0.950 . S
C256 C254 1.391 . S
C256 C257 1.400 . S
C257 C251 1.491 . S
C257 C256 1.400 . S
C257 C258 1.398 . S
C258 H246 0.950 . S
C258 C257 1.398 . S
C258 C259 1.391 . S
C259 H247 0.950 . S
C259 C255 1.393 . S
C259 C258 1.391 . S
H260 C268 0.950 . S
H261 C273 0.950 . S
H262 C270 0.950 . S
H263 C272 0.950 . S
H264 C274 0.950 . S
H265 C276 0.950 . S
H266 C278 0.950 . S
H267 C279 0.950 . S
C268 H260 0.950 . S
C268 C269 1.386 . S
C268 C270 1.391 . S
C269 C268 1.386 . S
C269 C273 1.393 . S
C270 H262 0.950 . S
C270 C268 1.391 . S
C270 C271 1.400 . S
C271 C270 1.400 . S
C271 C272 1.398 . S
C271 C277 1.491 . S
C272 H263 0.950 . S
C272 C271 1.398 . S
C272 C273 1.391 . S
C273 H261 0.950 . S
C273 C269 1.393 . S
C273 C272 1.391 . S
C274 H264 0.950 . S
C274 C275 1.386 . S
C274 C276 1.391 . S
C275 C274 1.386 . S
C275 C279 1.393 . S
C276 H265 0.950 . S
C276 C274 1.391 . S
C276 C277 1.400 . S
C277 C271 1.491 . S
C277 C276 1.400 . S
C277 C278 1.398 . S
C278 H266 0.950 . S
C278 C277 1.398 . S
C278 C279 1.391 . S
C279 H267 0.950 . S
C279 C275 1.393 . S
C279 C278 1.391 . S
H280 C288 0.950 . S
H281 C293 0.950 . S
H282 C290 0.950 . S
H283 C292 0.950 . S
H284 C294 0.950 . S
H285 C296 0.950 . S
H286 C298 0.950 . S
H287 C299 0.950 . S
C288 H280 0.950 . S
C288 C289 1.386 1_556 S
C288 C290 1.391 . S
C289 C288 1.386 1_554 S
C289 C293 1.393 . S
C290 H282 0.950 . S
C290 C288 1.391 . S
C290 C291 1.400 1_556 S
C291 C290 1.400 1_554 S
C291 C292 1.398 . S
C291 C297 1.491 . S
C292 H283 0.950 . S
C292 C291 1.398 . S
C292 C293 1.391 . S
C293 H281 0.950 . S
C293 C289 1.393 . S
C293 C292 1.391 . S
C294 H284 0.950 . S
C294 C295 1.386 . S
C294 C296 1.391 . S
C295 C294 1.386 . S
C295 C299 1.393 1_554 S
C296 H285 0.950 . S
C296 C294 1.391 . S
C296 C297 1.400 . S
C297 C291 1.491 . S
C297 C296 1.400 . S
C297 C298 1.398 1_554 S
C298 H286 0.950 . S
C298 C297 1.398 1_556 S
C298 C299 1.391 . S
C299 H287 0.950 . S
C299 C295 1.393 1_556 S
C299 C298 1.391 . S
H300 C308 0.950 . S
H301 C313 0.950 . S
H302 C310 0.950 . S
H303 C312 0.950 . S
H304 C314 0.950 . S
H305 C316 0.950 . S
H306 C318 0.950 . S
H307 C319 0.950 . S
C308 H300 0.950 . S
C308 C309 1.386 . S
C308 C310 1.391 . S
C309 C308 1.386 . S
C309 C313 1.393 . S
C310 H302 0.950 . S
C310 C308 1.391 . S
C310 C311 1.400 . S
C311 C310 1.400 . S
C311 C312 1.398 . S
C311 C317 1.491 . S
C312 H303 0.950 . S
C312 C311 1.398 . S
C312 C313 1.391 . S
C313 H301 0.950 . S
C313 C309 1.393 . S
C313 C312 1.391 . S
C314 H304 0.950 . S
C314 C315 1.386 . S
C314 C316 1.391 . S
C315 C314 1.386 . S
C315 C319 1.393 . S
C316 H305 0.950 . S
C316 C314 1.391 . S
C316 C317 1.400 . S
C317 C311 1.491 . S
C317 C316 1.400 . S
C317 C318 1.398 . S
C318 H306 0.950 . S
C318 C317 1.398 . S
C318 C319 1.391 . S
C319 H307 0.950 . S
C319 C315 1.393 . S
C319 C318 1.391 . S
H320 C328 0.950 . S
H321 C333 0.950 . S
H322 C330 0.950 . S
H323 C332 0.950 . S
H324 C334 0.950 . S
H325 C336 0.950 . S
H326 C338 0.950 . S
H327 C339 0.950 . S
C328 H320 0.950 . S
C328 C329 1.386 . S
C328 C330 1.391 . S
C329 C328 1.386 . S
C329 C333 1.393 . S
C330 H322 0.950 . S
C330 C328 1.391 . S
C330 C331 1.400 . S
C331 C330 1.400 . S
C331 C332 1.398 . S
C331 C337 1.491 . S
C332 H323 0.950 . S
C332 C331 1.398 . S
C332 C333 1.391 . S
C333 H321 0.950 . S
C333 C329 1.393 . S
C333 C332 1.391 . S
C334 H324 0.950 . S
C334 C335 1.386 . S
C334 C336 1.391 . S
C335 C334 1.386 . S
C335 C339 1.393 . S
C336 H325 0.950 . S
C336 C334 1.391 . S
C336 C337 1.400 . S
C337 C331 1.491 . S
C337 C336 1.400 . S
C337 C338 1.398 . S
C338 H326 0.950 . S
C338 C337 1.398 . S
C338 C339 1.391 . S
C339 H327 0.950 . S
C339 C335 1.393 . S
C339 C338 1.391 . S
H340 C348 0.950 . S
H341 C353 0.950 . S
H342 C350 0.950 . S
H343 C352 0.950 . S
H344 C354 0.950 . S
H345 C356 0.950 . S
H346 C358 0.950 . S
H347 C359 0.950 . S
C348 H340 0.950 . S
C348 C349 1.386 . S
C348 C350 1.391 . S
C349 C348 1.386 . S
C349 C353 1.393 . S
C350 H342 0.950 . S
C350 C348 1.391 . S
C350 C351 1.400 . S
C351 C350 1.400 . S
C351 C352 1.398 . S
C351 C357 1.491 . S
C352 H343 0.950 . S
C352 C351 1.398 . S
C352 C353 1.391 . S
C353 H341 0.950 . S
C353 C349 1.393 . S
C353 C352 1.391 . S
C354 H344 0.950 . S
C354 C355 1.386 . S
C354 C356 1.391 . S
C355 C354 1.386 . S
C355 C359 1.393 . S
C356 H345 0.950 . S
C356 C354 1.391 . S
C356 C357 1.400 . S
C357 C351 1.491 . S
C357 C356 1.400 . S
C357 C358 1.398 . S
C358 H346 0.950 . S
C358 C357 1.398 . S
C358 C359 1.391 . S
C359 H347 0.950 . S
C359 C355 1.393 . S
C359 C358 1.391 . S
H360 C368 0.950 . S
H361 C373 0.950 . S
H362 C370 0.950 . S
H363 C372 0.950 . S
H364 C374 0.950 . S
H365 C376 0.950 . S
H366 C378 0.950 . S
H367 C379 0.950 . S
C368 H360 0.950 . S
C368 C369 1.386 . S
C368 C370 1.391 . S
C369 C368 1.386 . S
C369 C373 1.393 . S
C370 H362 0.950 . S
C370 C368 1.391 . S
C370 C371 1.400 . S
C371 C370 1.400 . S
C371 C372 1.398 . S
C371 C377 1.491 . S
C372 H363 0.950 . S
C372 C371 1.398 . S
C372 C373 1.391 . S
C373 H361 0.950 . S
C373 C369 1.393 . S
C373 C372 1.391 . S
C374 H364 0.950 . S
C374 C375 1.386 . S
C374 C376 1.391 . S
C375 C374 1.386 . S
C375 C379 1.393 . S
C376 H365 0.950 . S
C376 C374 1.391 . S
C376 C377 1.400 . S
C377 C371 1.491 . S
C377 C376 1.400 . S
C377 C378 1.398 . S
C378 H366 0.950 . S
C378 C377 1.398 . S
C378 C379 1.391 . S
C379 H367 0.950 . S
C379 C375 1.393 . S
C379 C378 1.391 . S
H380 C388 0.950 . S
H381 C393 0.950 . S
H382 C390 0.950 . S
H383 C392 0.950 . S
H384 C394 0.950 . S
H385 C396 0.950 . S
H386 C398 0.950 . S
H387 C399 0.950 . S
C388 H380 0.950 . S
C388 C389 1.386 . S
C388 C390 1.391 . S
C389 C388 1.386 . S
C389 C393 1.393 . S
C390 H382 0.950 . S
C390 C388 1.391 . S
C390 C391 1.400 . S
C391 C390 1.400 . S
C391 C392 1.398 . S
C391 C397 1.491 . S
C392 H383 0.950 . S
C392 C391 1.398 . S
C392 C393 1.391 . S
C393 H381 0.950 . S
C393 C389 1.393 . S
C393 C392 1.391 . S
C394 H384 0.950 . S
C394 C395 1.386 . S
C394 C396 1.391 . S
C395 C394 1.386 . S
C395 C399 1.393 . S
C396 H385 0.950 . S
C396 C394 1.391 . S
C396 C397 1.400 . S
C397 C391 1.491 . S
C397 C396 1.400 . S
C397 C398 1.398 . S
C398 H386 0.950 . S
C398 C397 1.398 . S
C398 C399 1.391 . S
C399 H387 0.950 . S
C399 C395 1.393 . S
C399 C398 1.391 . S
H400 C408 0.950 . S
H401 C413 0.950 1_554 S
H402 C410 0.950 . S
H403 C412 0.950 . S
H404 C414 0.950 . S
H405 C416 0.950 . S
H406 C418 0.950 . S
H407 C419 0.950 . S
C408 H400 0.950 . S
C408 C409 1.386 . S
C408 C410 1.391 . S
C409 C408 1.386 . S
C409 C413 1.393 . S
C410 H402 0.950 . S
C410 C408 1.391 . S
C410 C411 1.400 . S
C411 C410 1.400 . S
C411 C412 1.398 . S
C411 C417 1.491 . S
C412 H403 0.950 . S
C412 C411 1.398 . S
C412 C413 1.391 . S
C413 H401 0.950 1_556 S
C413 C409 1.393 . S
C413 C412 1.391 . S
C414 H404 0.950 . S
C414 C415 1.386 . S
C414 C416 1.391 . S
C415 C414 1.386 . S
C415 C419 1.393 . S
C416 H405 0.950 . S
C416 C414 1.391 . S
C416 C417 1.400 . S
C417 C411 1.491 . S
C417 C416 1.400 . S
C417 C418 1.398 . S
C418 H406 0.950 . S
C418 C417 1.398 . S
C418 C419 1.391 . S
C419 H407 0.950 . S
C419 C415 1.393 . S
C419 C418 1.391 . S
H420 C428 0.950 . S
H421 C433 0.950 . S
H422 C430 0.950 . S
H423 C432 0.950 . S
H424 C434 0.950 . S
H425 C436 0.950 . S
H426 C438 0.950 . S
H427 C439 0.950 . S
C428 H420 0.950 . S
C428 C429 1.386 . S
C428 C430 1.391 . S
C429 C428 1.386 . S
C429 C433 1.393 . S
C430 H422 0.950 . S
C430 C428 1.391 . S
C430 C431 1.400 . S
C431 C430 1.400 . S
C431 C432 1.398 . S
C431 C437 1.491 . S
C432 H423 0.950 . S
C432 C431 1.398 . S
C432 C433 1.391 . S
C433 H421 0.950 . S
C433 C429 1.393 . S
C433 C432 1.391 . S
C434 H424 0.950 . S
C434 C435 1.386 . S
C434 C436 1.391 . S
C435 C434 1.386 . S
C435 C439 1.393 . S
C436 H425 0.950 . S
C436 C434 1.391 . S
C436 C437 1.400 . S
C437 C431 1.491 . S
C437 C436 1.400 . S
C437 C438 1.398 . S
C438 H426 0.950 . S
C438 C437 1.398 . S
C438 C439 1.391 . S
C439 H427 0.950 . S
C439 C435 1.393 . S
C439 C438 1.391 . S
H440 C448 0.950 . S
H441 C453 0.950 . S
H442 C450 0.950 . S
H443 C452 0.950 . S
H444 C454 0.950 1_545 S
H445 C456 0.950 . S
H446 C458 0.950 . S
H447 C459 0.950 . S
C448 H440 0.950 . S
C448 C449 1.386 . S
C448 C450 1.391 . S
C449 C448 1.386 . S
C449 C453 1.393 . S
C450 H442 0.950 . S
C450 C448 1.391 . S
C450 C451 1.400 . S
C451 C450 1.400 . S
C451 C452 1.398 . S
C451 C457 1.491 . S
C452 H443 0.950 . S
C452 C451 1.398 . S
C452 C453 1.391 . S
C453 H441 0.950 . S
C453 C449 1.393 . S
C453 C452 1.391 . S
C454 H444 0.950 1_565 S
C454 C455 1.386 . S
C454 C456 1.391 . S
C455 C454 1.386 . S
C455 C459 1.393 . S
C456 H445 0.950 . S
C456 C454 1.391 . S
C456 C457 1.400 . S
C457 C451 1.491 . S
C457 C456 1.400 . S
C457 C458 1.398 . S
C458 H446 0.950 . S
C458 C457 1.398 . S
C458 C459 1.391 . S
C459 H447 0.950 . S
C459 C455 1.393 . S
C459 C458 1.391 . S
C235 C115 1.650 . S
C229 C43 1.567 . S
C249 C4 1.600 . S
C255 C210 1.633 . S
C269 C17 1.615 . S
C275 C126 1.646 . S
C289 C30 1.641 . S
C295 C199 1.639 . S
C315 C110 1.413 . S
C309 C9 1.583 . S
C335 C203 1.673 . S
C329 C21 1.665 . S
C349 C34 1.623 . S
C355 C119 1.626 . S
C369 C48 1.585 . S
C375 C194 1.394 . S
C395 C205 1.424 . S
C389 C22 1.579 . S
C415 C121 1.431 . S
C409 C35 1.578 1_556 S
C435 C192 1.673 . S
C429 C47 1.660 . S
C449 C8 1.615 . S
C455 C108 1.627 . S
