# Generated by pormake.
# Topology ptr, (4,4)-cn, num edge types: 1
# Building blocks:
#     Node 0, Type 0, BuildingBlock: AZAVOO_clean_sbu_0, # of connection points: 4
#     Node 1, Type 0, BuildingBlock: AZAVOO_clean_sbu_0, # of connection points: 4
#     Node 2, Type 0, BuildingBlock: AZAVOO_clean_sbu_0, # of connection points: 4
#     Node 3, Type 0, BuildingBlock: AZAVOO_clean_sbu_0, # of connection points: 4
#     Node 4, Type 0, BuildingBlock: AZAVOO_clean_sbu_0, # of connection points: 4
#     Node 5, Type 0, BuildingBlock: AZAVOO_clean_sbu_0, # of connection points: 4
#     Node 6, Type 0, BuildingBlock: AZAVOO_clean_sbu_0, # of connection points: 4
#     Node 7, Type 0, BuildingBlock: AZAVOO_clean_sbu_0, # of connection points: 4
#     Node 8, Type 0, BuildingBlock: AZAVOO_clean_sbu_0, # of connection points: 4
#     Node 9, Type 0, BuildingBlock: AZAVOO_clean_sbu_0, # of connection points: 4
#     Node 10, Type 0, BuildingBlock: AZAVOO_clean_sbu_0, # of connection points: 4
#     Node 11, Type 0, BuildingBlock: AZAVOO_clean_sbu_0, # of connection points: 4
#     Node 12, Type 0, BuildingBlock: AZAVOO_clean_sbu_0, # of connection points: 4
#     Node 13, Type 0, BuildingBlock: AZAVOO_clean_sbu_0, # of connection points: 4
#     Node 14, Type 0, BuildingBlock: AZAVOO_clean_sbu_0, # of connection points: 4
#     Node 15, Type 0, BuildingBlock: AZAVOO_clean_sbu_0, # of connection points: 4
#     Node 16, Type 0, BuildingBlock: AZAVOO_clean_sbu_0, # of connection points: 4
#     Node 17, Type 0, BuildingBlock: AZAVOO_clean_sbu_0, # of connection points: 4
#     Node 18, Type 1, BuildingBlock: KUFVIS_clean_linker_0, # of connection points: 4
#     Node 19, Type 1, BuildingBlock: KUFVIS_clean_linker_0, # of connection points: 4
#     Node 20, Type 1, BuildingBlock: KUFVIS_clean_linker_0, # of connection points: 4
#     Node 21, Type 1, BuildingBlock: KUFVIS_clean_linker_0, # of connection points: 4
#     Node 22, Type 1, BuildingBlock: KUFVIS_clean_linker_0, # of connection points: 4
#     Node 23, Type 1, BuildingBlock: KUFVIS_clean_linker_0, # of connection points: 4
#     Node 24, Type 1, BuildingBlock: KUFVIS_clean_linker_0, # of connection points: 4
#     Node 25, Type 1, BuildingBlock: KUFVIS_clean_linker_0, # of connection points: 4
#     Node 26, Type 1, BuildingBlock: KUFVIS_clean_linker_0, # of connection points: 4
#     Node 27, Type 1, BuildingBlock: KUFVIS_clean_linker_0, # of connection points: 4
#     Node 28, Type 1, BuildingBlock: KUFVIS_clean_linker_0, # of connection points: 4
#     Node 29, Type 1, BuildingBlock: KUFVIS_clean_linker_0, # of connection points: 4
#     Node 30, Type 1, BuildingBlock: KUFVIS_clean_linker_0, # of connection points: 4
#     Node 31, Type 1, BuildingBlock: KUFVIS_clean_linker_0, # of connection points: 4
#     Node 32, Type 1, BuildingBlock: KUFVIS_clean_linker_0, # of connection points: 4
#     Node 33, Type 1, BuildingBlock: KUFVIS_clean_linker_0, # of connection points: 4
#     Node 34, Type 1, BuildingBlock: KUFVIS_clean_linker_0, # of connection points: 4
#     Node 35, Type 1, BuildingBlock: KUFVIS_clean_linker_0, # of connection points: 4
#     Edge 36, Type (0, 1), BuildingBlock: CIFDUS_clean_linker_0, # of connection points: 2
#     Edge 37, Type (0, 1), BuildingBlock: CIFDUS_clean_linker_0, # of connection points: 2
#     Edge 38, Type (0, 1), BuildingBlock: CIFDUS_clean_linker_0, # of connection points: 2
#     Edge 39, Type (0, 1), BuildingBlock: CIFDUS_clean_linker_0, # of connection points: 2
#     Edge 40, Type (0, 1), BuildingBlock: CIFDUS_clean_linker_0, # of connection points: 2
#     Edge 41, Type (0, 1), BuildingBlock: CIFDUS_clean_linker_0, # of connection points: 2
#     Edge 42, Type (0, 1), BuildingBlock: CIFDUS_clean_linker_0, # of connection points: 2
#     Edge 43, Type (0, 1), BuildingBlock: CIFDUS_clean_linker_0, # of connection points: 2
#     Edge 44, Type (0, 1), BuildingBlock: CIFDUS_clean_linker_0, # of connection points: 2
#     Edge 45, Type (0, 1), BuildingBlock: CIFDUS_clean_linker_0, # of connection points: 2
#     Edge 46, Type (0, 1), BuildingBlock: CIFDUS_clean_linker_0, # of connection points: 2
#     Edge 47, Type (0, 1), BuildingBlock: CIFDUS_clean_linker_0, # of connection points: 2
#     Edge 48, Type (0, 1), BuildingBlock: CIFDUS_clean_linker_0, # of connection points: 2
#     Edge 49, Type (0, 1), BuildingBlock: CIFDUS_clean_linker_0, # of connection points: 2
#     Edge 50, Type (0, 1), BuildingBlock: CIFDUS_clean_linker_0, # of connection points: 2
#     Edge 51, Type (0, 1), BuildingBlock: CIFDUS_clean_linker_0, # of connection points: 2
#     Edge 52, Type (0, 1), BuildingBlock: CIFDUS_clean_linker_0, # of connection points: 2
#     Edge 53, Type (0, 1), BuildingBlock: CIFDUS_clean_linker_0, # of connection points: 2
#     Edge 54, Type (0, 1), BuildingBlock: CIFDUS_clean_linker_0, # of connection points: 2
#     Edge 55, Type (0, 1), BuildingBlock: CIFDUS_clean_linker_0, # of connection points: 2
#     Edge 56, Type (0, 1), BuildingBlock: CIFDUS_clean_linker_0, # of connection points: 2
#     Edge 57, Type (0, 1), BuildingBlock: CIFDUS_clean_linker_0, # of connection points: 2
#     Edge 58, Type (0, 1), BuildingBlock: CIFDUS_clean_linker_0, # of connection points: 2
#     Edge 59, Type (0, 1), BuildingBlock: CIFDUS_clean_linker_0, # of connection points: 2
#     Edge 60, Type (0, 1), BuildingBlock: CIFDUS_clean_linker_0, # of connection points: 2
#     Edge 61, Type (0, 1), BuildingBlock: CIFDUS_clean_linker_0, # of connection points: 2
#     Edge 62, Type (0, 1), BuildingBlock: CIFDUS_clean_linker_0, # of connection points: 2
#     Edge 63, Type (0, 1), BuildingBlock: CIFDUS_clean_linker_0, # of connection points: 2
#     Edge 64, Type (0, 1), BuildingBlock: CIFDUS_clean_linker_0, # of connection points: 2
#     Edge 65, Type (0, 1), BuildingBlock: CIFDUS_clean_linker_0, # of connection points: 2
#     Edge 66, Type (0, 1), BuildingBlock: CIFDUS_clean_linker_0, # of connection points: 2
#     Edge 67, Type (0, 1), BuildingBlock: CIFDUS_clean_linker_0, # of connection points: 2
#     Edge 68, Type (0, 1), BuildingBlock: CIFDUS_clean_linker_0, # of connection points: 2
#     Edge 69, Type (0, 1), BuildingBlock: CIFDUS_clean_linker_0, # of connection points: 2
#     Edge 70, Type (0, 1), BuildingBlock: CIFDUS_clean_linker_0, # of connection points: 2
#     Edge 71, Type (0, 1), BuildingBlock: CIFDUS_clean_linker_0, # of connection points: 2
#     Edge 72, Type (0, 1), BuildingBlock: CIFDUS_clean_linker_0, # of connection points: 2
#     Edge 73, Type (0, 1), BuildingBlock: CIFDUS_clean_linker_0, # of connection points: 2
#     Edge 74, Type (0, 1), BuildingBlock: CIFDUS_clean_linker_0, # of connection points: 2
#     Edge 75, Type (0, 1), BuildingBlock: CIFDUS_clean_linker_0, # of connection points: 2
#     Edge 76, Type (0, 1), BuildingBlock: CIFDUS_clean_linker_0, # of connection points: 2
#     Edge 77, Type (0, 1), BuildingBlock: CIFDUS_clean_linker_0, # of connection points: 2
#     Edge 78, Type (0, 1), BuildingBlock: CIFDUS_clean_linker_0, # of connection points: 2
#     Edge 79, Type (0, 1), BuildingBlock: CIFDUS_clean_linker_0, # of connection points: 2
#     Edge 80, Type (0, 1), BuildingBlock: CIFDUS_clean_linker_0, # of connection points: 2
#     Edge 81, Type (0, 1), BuildingBlock: CIFDUS_clean_linker_0, # of connection points: 2
#     Edge 82, Type (0, 1), BuildingBlock: CIFDUS_clean_linker_0, # of connection points: 2
#     Edge 83, Type (0, 1), BuildingBlock: CIFDUS_clean_linker_0, # of connection points: 2
#     Edge 84, Type (0, 1), BuildingBlock: CIFDUS_clean_linker_0, # of connection points: 2
#     Edge 85, Type (0, 1), BuildingBlock: CIFDUS_clean_linker_0, # of connection points: 2
#     Edge 86, Type (0, 1), BuildingBlock: CIFDUS_clean_linker_0, # of connection points: 2
#     Edge 87, Type (0, 1), BuildingBlock: CIFDUS_clean_linker_0, # of connection points: 2
#     Edge 88, Type (0, 1), BuildingBlock: CIFDUS_clean_linker_0, # of connection points: 2
#     Edge 89, Type (0, 1), BuildingBlock: CIFDUS_clean_linker_0, # of connection points: 2
#     Edge 90, Type (0, 1), BuildingBlock: CIFDUS_clean_linker_0, # of connection points: 2
#     Edge 91, Type (0, 1), BuildingBlock: CIFDUS_clean_linker_0, # of connection points: 2
#     Edge 92, Type (0, 1), BuildingBlock: CIFDUS_clean_linker_0, # of connection points: 2
#     Edge 93, Type (0, 1), BuildingBlock: CIFDUS_clean_linker_0, # of connection points: 2
#     Edge 94, Type (0, 1), BuildingBlock: CIFDUS_clean_linker_0, # of connection points: 2
#     Edge 95, Type (0, 1), BuildingBlock: CIFDUS_clean_linker_0, # of connection points: 2
#     Edge 96, Type (0, 1), BuildingBlock: CIFDUS_clean_linker_0, # of connection points: 2
#     Edge 97, Type (0, 1), BuildingBlock: CIFDUS_clean_linker_0, # of connection points: 2
#     Edge 98, Type (0, 1), BuildingBlock: CIFDUS_clean_linker_0, # of connection points: 2
#     Edge 99, Type (0, 1), BuildingBlock: CIFDUS_clean_linker_0, # of connection points: 2
#     Edge 100, Type (0, 1), BuildingBlock: CIFDUS_clean_linker_0, # of connection points: 2
#     Edge 101, Type (0, 1), BuildingBlock: CIFDUS_clean_linker_0, # of connection points: 2
#     Edge 102, Type (0, 1), BuildingBlock: CIFDUS_clean_linker_0, # of connection points: 2
#     Edge 103, Type (0, 1), BuildingBlock: CIFDUS_clean_linker_0, # of connection points: 2
#     Edge 104, Type (0, 1), BuildingBlock: CIFDUS_clean_linker_0, # of connection points: 2
#     Edge 105, Type (0, 1), BuildingBlock: CIFDUS_clean_linker_0, # of connection points: 2
#     Edge 106, Type (0, 1), BuildingBlock: CIFDUS_clean_linker_0, # of connection points: 2
#     Edge 107, Type (0, 1), BuildingBlock: CIFDUS_clean_linker_0, # of connection points: 2
# Relax obj value: 0.077
# Max RMSD: 0.242
# Mean RMSD: 0.132
data_MOF--net-ptr--node1-AZAVOO_clean_sbu_0--node2-KUFVIS_clean_linker_0--edge1-CIFDUS_clean_linker_0
_symmetry_space_group_name_H-M    P1
_symmetry_Int_Tables_number       1
_symmetry_cell_setting            triclinic
loop_
_symmetry_equiv_pos_as_xyz
'x, y, z'
_cell_length_a     70.268193
_cell_length_b     69.16684
_cell_length_c     41.372344
_cell_angle_alpha  91.461976
_cell_angle_beta   91.634224
_cell_angle_gamma 120.12536
loop_
_atom_site_label
_atom_site_type_symbol
_atom_site_fract_x
_atom_site_fract_y
_atom_site_fract_z
_atom_type_partial_charge
Mg0 Mg 0.01269 0.36232 0.96558 0.0
O1 O 1.00688 0.37844 0.01162 0.0
O2 O 0.97976 0.38504 -0.00302 0.0
Mg3 Mg 0.96776 0.37307 0.94485 0.0
C4 C 0.99397 0.386 0.01792 0.0
C5 C 0.0524 0.35519 0.98337 0.0
O6 O 0.06004 0.36747 0.95806 0.0
O7 O 0.98112 0.32886 0.97354 0.0
O8 O 0.95509 0.33688 0.95912 0.0
O9 O 0.03678 0.39662 0.94903 0.0
O10 O 1.00096 0.37904 0.93754 0.0
C11 C 0.96085 0.32315 0.96908 0.0
C12 C 0.01986 0.39701 0.9367 0.0
O13 O 0.03371 0.35083 -0.00665 0.0
Mg14 Mg 0.645 0.64888 0.02549 0.0
O15 O 0.62189 0.63452 0.98013 0.0
O16 O 0.58952 0.63114 -0.0082 0.0
Mg17 Mg 0.59185 0.64287 0.04464 0.0
C18 C 0.60207 0.62905 0.97203 0.0
C19 C 0.68984 0.65357 0.00651 0.0
O20 O 0.68786 0.64445 0.0346 0.0
O21 O 0.6491 0.68307 0.01781 0.0
O22 O 0.61708 0.67918 0.03255 0.0
O23 O 0.63324 0.61445 0.04145 0.0
O24 O 0.61802 0.6347 0.05437 0.0
C25 C 0.63658 0.69116 0.0228 0.0
C26 C 0.61769 0.61592 0.05532 0.0
O27 O 0.67478 0.65721 -0.00401 0.0
Mg28 Mg 0.36457 0.98897 0.96574 0.0
O29 O 0.38422 0.99946 0.0149 0.0
O30 O 0.4148 0.03235 0.00878 0.0
Mg31 Mg 0.41431 0.04357 0.95782 0.0
C32 C 0.40266 0.01589 0.02593 0.0
C33 C 0.33276 0.94357 -0.00251 0.0
O34 O 0.35021 0.94134 -0.00414 0.0
O35 O 0.35301 0.01406 0.97409 0.0
O36 O 0.38379 0.04655 0.96746 0.0
O37 O 0.38362 0.97275 0.95023 0.0
O38 O 0.39377 0.00804 0.94242 0.0
C39 C 0.36331 0.03536 0.97304 0.0
C40 C 0.39818 0.99209 0.94047 0.0
O41 O 0.33377 0.96139 0.98802 0.0
Mg42 Mg 0.9992 0.65585 0.04409 0.0
O43 O 1.00282 0.63754 -0.00073 0.0
O44 O 0.03006 0.63049 0.01091 0.0
Mg45 Mg 0.04616 0.64725 0.05992 0.0
C46 C 0.01463 0.62892 -0.00794 0.0
C47 C 0.95607 0.64462 0.0053 0.0
O48 O 0.95381 0.62471 0.00823 0.0
O49 O 0.02917 0.68932 0.03 0.0
O50 O 0.0561 0.6819 0.04124 0.0
O51 O 0.97834 0.62274 0.0668 0.0
O52 O 0.01444 0.64293 0.07362 0.0
C53 C 0.04961 0.69512 0.03148 0.0
C54 C 0.99649 0.62474 0.07869 0.0
O55 O 0.97379 0.66173 0.0164 0.0
Mg56 Mg 0.36833 0.35519 0.96695 0.0
O57 O 0.38996 0.37144 0.01379 0.0
O58 O 0.42374 0.37787 0.00383 0.0
Mg59 Mg 0.42402 0.36612 0.952 0.0
C60 C 0.41013 0.37879 0.02271 0.0
C61 C 0.32469 0.35354 0.9867 0.0
O62 O 0.33181 0.36997 0.96672 0.0
O63 O 0.36679 0.32199 0.97625 0.0
O64 O 0.4005 0.3295 0.96391 0.0
O65 O 0.37807 0.38894 0.94921 0.0
O66 O 0.39622 0.37115 0.93979 0.0
C67 C 0.38104 0.3159 0.9725 0.0
C68 C 0.39482 0.38891 0.93705 0.0
O69 O 0.33635 0.34457 -0.00725 0.0
Mg70 Mg 0.65638 0.02322 0.03712 0.0
O71 O 0.63685 0.01186 0.98824 0.0
O72 O 0.60613 0.97912 -0.00599 0.0
Mg73 Mg 0.60662 0.96888 0.04579 0.0
C74 C 0.6186 0.99543 0.97686 0.0
C75 C 0.685 0.06442 -0.00397 0.0
O76 O 0.66578 0.0631 -0.00833 0.0
O77 O 0.66802 0.99814 0.03024 0.0
O78 O 0.63725 0.96574 0.03745 0.0
O79 O 0.63729 0.03958 0.05137 0.0
O80 O 0.62738 1.00453 0.06082 0.0
C81 C 0.65777 0.97689 0.03205 0.0
C82 C 0.62293 0.02046 0.06206 0.0
O83 O 0.68648 0.05024 0.01326 0.0
Mg84 Mg 0.69174 0.69406 0.30093 0.0
O85 O 0.68661 0.70981 0.34744 0.0
O86 O 0.65557 0.71088 0.33932 0.0
Mg87 Mg 0.64052 0.69552 0.28924 0.0
C88 C 0.67249 0.71498 0.35696 0.0
C89 C 0.73602 0.70676 0.33911 0.0
O90 O 0.73754 0.72648 0.3392 0.0
O91 O 0.66459 0.65874 0.31301 0.0
O92 O 0.63428 0.66096 0.30351 0.0
O93 O 0.70964 0.72798 0.28009 0.0
O94 O 0.67375 0.70503 0.27394 0.0
C95 C 0.64361 0.64987 0.31147 0.0
C96 C 0.6906 0.7243 0.2692 0.0
O97 O 0.71883 0.68989 0.32627 0.0
Mg98 Mg 0.31849 0.9836 0.36093 0.0
O99 O 0.29392 0.96745 0.31664 0.0
O100 O 0.26216 0.96428 0.33198 0.0
Mg101 Mg 0.26565 0.97639 0.38468 0.0
C102 C 0.2737 0.96174 0.31081 0.0
C103 C 0.36667 0.00922 0.34185 0.0
O104 O 0.36674 0.02253 0.36513 0.0
O105 O 0.32122 0.01737 0.35278 0.0
O106 O 0.28965 0.01266 0.3711 0.0
O107 O 0.3094 0.95016 0.37807 0.0
O108 O 0.29225 0.96862 0.39079 0.0
C109 C 0.30852 0.02497 0.35954 0.0
C110 C 0.2934 0.9506 0.39211 0.0
O111 O 0.34859 0.99203 0.33228 0.0
Mg112 Mg 0.03404 0.33925 0.3041 0.0
O113 O 0.05495 0.34451 0.35091 0.0
O114 O 0.08677 0.37675 0.34723 0.0
Mg115 Mg 0.0865 0.39194 0.29906 0.0
C116 C 0.07407 0.35932 0.36223 0.0
C117 C 0.99634 0.29136 0.32376 0.0
O118 O 0.00824 0.28468 0.3083 0.0
O119 O 0.02627 0.3663 0.32029 0.0
O120 O 0.05832 0.39758 0.3138 0.0
O121 O 0.05027 0.3222 0.27947 0.0
O122 O 0.0623 0.35838 0.27928 0.0
C123 C 0.03808 0.38763 0.32087 0.0
C124 C 0.06493 0.34191 0.27099 0.0
O125 O 1.00296 0.31217 0.32662 0.0
Mg126 Mg 0.66871 0.98348 0.3744 0.0
O127 O 0.67501 0.96609 0.33121 0.0
O128 O 0.70415 0.96263 0.34496 0.0
Mg129 Mg 0.71689 0.97812 0.39574 0.0
C130 C 0.68868 0.9596 0.32481 0.0
C131 C 0.63392 0.99816 0.35213 0.0
O132 O 0.63989 0.00976 0.37988 0.0
O133 O 0.69808 0.01718 0.36173 0.0
O134 O 0.72638 0.01287 0.37735 0.0
O135 O 0.64737 0.95048 0.39504 0.0
O136 O 0.6833 0.97057 0.4056 0.0
C137 C 0.7188 0.02472 0.36567 0.0
C138 C 0.66501 0.95209 0.40839 0.0
O139 O 0.64368 0.98772 0.34328 0.0
Mg140 Mg 0.03236 0.6946 0.30328 0.0
O141 O 0.05508 0.71165 0.34867 0.0
O142 O 0.08698 0.71305 0.33986 0.0
Mg143 Mg 0.08472 0.69671 0.29022 0.0
C144 C 0.07483 0.71731 0.35758 0.0
C145 C 0.99275 0.70063 0.32297 0.0
O146 O 1.00096 0.71573 0.30096 0.0
O147 O 0.02642 0.66046 0.3174 0.0
O148 O 0.05807 0.66206 0.30619 0.0
O149 O 0.04614 0.72789 0.28137 0.0
O150 O 0.05979 0.70547 0.27523 0.0
C151 C 0.03834 0.65137 0.31556 0.0
C152 C 0.06134 0.72451 0.27031 0.0
O153 O 1.00223 0.6896 0.32991 0.0
Mg154 Mg 0.31935 0.35567 0.36378 0.0
O155 O 0.29795 0.34849 0.31675 0.0
O156 O 0.26366 0.32223 0.3277 0.0
Mg157 Mg 0.26265 0.31309 0.38014 0.0
C158 C 0.27764 0.33536 0.30816 0.0
C159 C 0.36746 0.37219 0.34472 0.0
O160 O 0.36504 0.35689 0.365 0.0
O161 O 0.31843 0.32244 0.35503 0.0
O162 O 0.28401 0.2978 0.36744 0.0
O163 O 0.312 0.38214 0.38046 0.0
O164 O 0.29169 0.34616 0.38984 0.0
C165 C 0.30301 0.30236 0.35845 0.0
C166 C 0.29435 0.36597 0.39174 0.0
O167 O 0.35132 0.37507 0.33803 0.0
Mg168 Mg 0.36109 0.04035 0.63266 0.0
O169 O 0.3509 0.05755 0.67215 0.0
O170 O 0.3232 0.06025 0.64879 0.0
Mg171 Mg 0.31638 0.04653 0.59659 0.0
C172 C 0.33626 0.06344 0.67306 0.0
C173 C 0.39845 0.03322 0.65824 0.0
O174 O 0.40504 0.04108 0.62959 0.0
O175 O 0.32998 0.00704 0.6394 0.0
O176 O 0.3035 0.01073 0.61434 0.0
O177 O 0.38583 0.0735 0.61504 0.0
O178 O 0.35078 0.05439 0.59788 0.0
C179 C 0.3099 0.99905 0.62975 0.0
C180 C 0.36968 0.07245 0.59771 0.0
O181 O 0.38067 0.0315 0.66804 0.0
Mg182 Mg 0.99308 0.32122 0.70658 0.0
O183 O 0.97182 0.30348 0.66036 0.0
O184 O 0.93743 0.29509 0.67011 0.0
Mg185 Mg 0.93665 0.30689 0.72185 0.0
C186 C 0.95151 0.2949 0.65144 0.0
C187 C 0.03904 0.3292 0.68726 0.0
O188 O 0.03607 0.31658 0.71197 0.0
O189 O 0.99181 0.35257 0.69638 0.0
O190 O 0.95794 0.34404 0.70933 0.0
O191 O 0.98648 0.2886 0.72435 0.0
O192 O 0.96569 0.3036 0.73398 0.0
C193 C 0.9771 0.35799 0.70004 0.0
C194 C 0.96885 0.28684 0.73625 0.0
O195 O 0.02426 0.33384 0.67907 0.0
Mg196 Mg 0.68644 0.64342 0.6265 0.0
O197 O 0.70762 0.64725 0.67249 0.0
O198 O 0.74275 0.67181 0.66261 0.0
Mg199 Mg 0.74392 0.68474 0.61205 0.0
C200 C 0.72812 0.65821 0.68097 0.0
C201 C 0.65083 0.60593 0.66604 0.0
O202 O 0.66587 0.59997 0.66562 0.0
O203 O 0.68913 0.67708 0.63914 0.0
O204 O 0.72376 0.70133 0.62707 0.0
O205 O 0.69208 0.61682 0.60476 0.0
O206 O 0.71367 0.65313 0.599 0.0
C207 C 0.7049 0.69713 0.6364 0.0
C208 C 0.70985 0.63304 0.59385 0.0
O209 O 0.65461 0.62386 0.65286 0.0
Mg210 Mg 0.3328 0.3149 0.70076 0.0
O211 O 0.3402 0.29771 0.65776 0.0
O212 O 0.36977 0.29589 0.6748 0.0
Mg213 Mg 0.38159 0.31164 0.72538 0.0
C214 C 0.35464 0.29186 0.65338 0.0
C215 C 0.29027 0.30527 0.65872 0.0
O216 O 0.2854 0.28443 0.66158 0.0
O217 O 0.36193 0.34951 0.68982 0.0
O218 O 0.39042 0.34603 0.70697 0.0
O219 O 0.3117 0.28127 0.72103 0.0
O220 O 0.34732 0.3026 0.73271 0.0
C221 C 0.38264 0.35759 0.69488 0.0
C222 C 0.32948 0.28368 0.73516 0.0
O223 O 0.30872 0.32102 0.67034 0.0
Mg224 Mg 0.6997 0.0282 0.62784 0.0
O225 O 0.72074 0.04439 0.67481 0.0
O226 O 0.75323 0.04639 0.66963 0.0
Mg227 Mg 0.75304 0.03163 0.6196 0.0
C228 C 0.74003 0.04989 0.68597 0.0
C229 C 0.66954 0.04106 0.6641 0.0
O230 O 0.68771 0.06052 0.66293 0.0
O231 O 0.69339 0.99363 0.64147 0.0
O232 O 0.72604 0.99657 0.63355 0.0
O233 O 0.71355 0.06171 0.60697 0.0
O234 O 0.72832 0.04019 0.60206 0.0
C235 C 0.70592 0.98517 0.64102 0.0
C236 C 0.72943 0.05906 0.59705 0.0
O237 O 0.66908 0.02367 0.65223 0.0
Mg238 Mg 0.99874 0.69963 0.71827 0.0
O239 O 0.97536 0.69294 0.67431 0.0
O240 O 0.94136 0.66681 0.68592 0.0
Mg241 Mg 0.94307 0.65698 0.7378 0.0
C242 C 0.95491 0.68049 0.66645 0.0
C243 C 0.04757 0.7283 0.69418 0.0
O244 O 0.05401 0.72693 0.72373 0.0
O245 O 0.9979 0.66665 0.70784 0.0
O246 O 0.96425 0.64167 0.72273 0.0
O247 O 0.99215 0.72591 0.7377 0.0
O248 O 0.97269 0.68998 0.74826 0.0
C249 C 0.98303 0.64649 0.71231 0.0
C250 C 0.97536 0.7098 0.7508 0.0
O251 O 0.02716 0.7185 0.68615 0.0
H252 H 0.24296 0.32776 0.11363 0.0
H253 H 0.19751 0.33979 0.05848 0.0
H254 H 0.18463 0.31741 0.15662 0.0
H255 H 0.16928 0.33656 0.16113 0.0
H256 H 0.11585 0.33793 0.11374 0.0
H257 H 0.1619 0.33048 0.05598 0.0
C258 C 0.22751 0.32772 0.11157 0.0
C259 C 0.21486 0.32311 0.13859 0.0
C260 C 0.22086 0.33266 0.08218 0.0
C261 C 0.20169 0.33449 0.08061 0.0
C262 C 0.18832 0.32957 0.10778 0.0
C263 C 0.19474 0.32258 0.13589 0.0
C264 C 0.16835 0.33243 0.10827 0.0
C265 C 0.16055 0.33502 0.13843 0.0
C266 C 0.1414 0.33619 0.14017 0.0
C267 C 0.13039 0.33635 0.11188 0.0
C268 C 0.1377 0.33448 0.08145 0.0
C269 C 0.15671 0.33247 0.07958 0.0
H270 H 0.69381 0.92297 0.139 0.0
H271 H 0.69052 0.87036 0.07802 0.0
H272 H 0.69211 0.86675 0.18235 0.0
H273 H 0.70693 0.8461 0.1737 0.0
H274 H 0.68406 0.78404 0.1207 0.0
H275 H 0.67272 0.83359 0.07954 0.0
C276 C 0.69359 0.90721 0.13646 0.0
C277 C 0.69403 0.89626 0.16415 0.0
C278 C 0.69176 0.8976 0.10552 0.0
C279 C 0.69144 0.87719 0.10219 0.0
C280 C 0.69209 0.86582 0.12977 0.0
C281 C 0.69304 0.87554 0.16068 0.0
C282 C 0.69076 0.84349 0.12653 0.0
C283 C 0.69889 0.83581 0.15196 0.0
C284 C 0.69576 0.81416 0.15022 0.0
C285 C 0.68646 0.80083 0.12196 0.0
C286 C 0.67872 0.80807 0.09625 0.0
C287 C 0.68024 0.82904 0.09882 0.0
H288 H 0.25219 0.90333 0.11846 0.0
H289 H 0.19457 0.85178 0.06656 0.0
H290 H 0.19159 0.87109 0.16617 0.0
H291 H 0.16679 0.83652 0.1698 0.0
H292 H 0.10409 0.79376 0.12308 0.0
H293 H 0.15824 0.83554 0.06521 0.0
C294 C 0.23484 0.89072 0.11808 0.0
C295 C 0.22314 0.88783 0.14588 0.0
C296 C 0.22449 0.87816 0.08946 0.0
C297 C 0.20198 0.86183 0.08868 0.0
C298 C 0.1896 0.85832 0.11665 0.0
C299 C 0.20047 0.8723 0.14472 0.0
C300 C 0.16577 0.84004 0.11749 0.0
C301 C 0.15669 0.83144 0.14758 0.0
C302 C 0.13444 0.81548 0.14944 0.0
C303 C 0.12107 0.80701 0.12132 0.0
C304 C 0.12968 0.81362 0.09093 0.0
C305 C 0.15198 0.83037 0.08891 0.0
H306 H 0.34233 0.09732 0.87094 0.0
H307 H 0.32512 0.13875 0.92665 0.0
H308 H 0.33469 0.14739 0.82367 0.0
H309 H 0.31267 0.16077 0.82595 0.0
H310 H 0.31178 0.2136 0.87992 0.0
H311 H 0.33518 0.17472 0.92717 0.0
C312 C 0.33856 0.11074 0.87203 0.0
C313 C 0.33848 0.12135 0.84385 0.0
C314 C 0.3341 0.11726 0.90176 0.0
C315 C 0.32901 0.13442 0.90343 0.0
C316 C 0.32871 0.14552 0.87527 0.0
C317 C 0.33376 0.13882 0.84557 0.0
C318 C 0.3234 0.16406 0.87691 0.0
C319 C 0.31536 0.16969 0.849 0.0
C320 C 0.3115 0.18767 0.85017 0.0
C321 C 0.31406 0.19918 0.87956 0.0
C322 C 0.32238 0.19443 0.9074 0.0
C323 C 0.32743 0.17718 0.90595 0.0
H324 H 0.77083 0.10143 0.87387 0.0
H325 H 0.82067 0.15944 0.92809 0.0
H326 H 0.83378 0.14103 0.83402 0.0
H327 H 0.85276 0.17749 0.82999 0.0
H328 H 0.91187 0.22563 0.88153 0.0
H329 H 0.85795 0.17789 0.93482 0.0
C330 C 0.78733 0.11588 0.8757 0.0
C331 C 0.80131 0.12011 0.8502 0.0
C332 C 0.79437 0.12977 0.90385 0.0
C333 C 0.81578 0.14844 0.90663 0.0
C334 C 0.83029 0.15316 0.88117 0.0
C335 C 0.82291 0.13829 0.85354 0.0
C336 C 0.85272 0.17378 0.88221 0.0
C337 C 0.86209 0.18359 0.85289 0.0
C338 C 0.88357 0.20164 0.85268 0.0
C339 C 0.89559 0.21086 0.88182 0.0
C340 C 0.88623 0.2029 0.9114 0.0
C341 C 0.86486 0.18415 0.91175 0.0
H342 H 0.75832 0.64612 0.87026 0.0
H343 H 0.8164 0.67179 0.93263 0.0
H344 H 0.8196 0.66181 0.82992 0.0
H345 H 0.85271 0.69032 0.83884 0.0
H346 H 0.90756 0.69382 0.89154 0.0
H347 H 0.84438 0.66221 0.93339 0.0
C348 C 0.77586 0.65242 0.87311 0.0
C349 C 0.78797 0.65446 0.84584 0.0
C350 C 0.78603 0.65914 0.90417 0.0
C351 C 0.80852 0.66617 0.90868 0.0
C352 C 0.82097 0.66707 0.88195 0.0
C353 C 0.81033 0.66098 0.85071 0.0
C354 C 0.84523 0.67551 0.88595 0.0
C355 C 0.85911 0.68675 0.86056 0.0
C356 C 0.88136 0.69291 0.86218 0.0
C357 C 0.89044 0.6896 0.89048 0.0
C358 C 0.87733 0.67889 0.91629 0.0
C359 C 0.85462 0.67151 0.91396 0.0
H360 H 0.91934 0.67272 0.47593 0.0
H361 H 0.86774 0.66552 0.40977 0.0
H362 H 0.86385 0.6743 0.51274 0.0
H363 H 0.82921 0.64824 0.50227 0.0
H364 H 0.7798 0.65509 0.45018 0.0
H365 H 0.84291 0.67913 0.40944 0.0
C366 C 0.90377 0.67219 0.47178 0.0
C367 C 0.89224 0.67321 0.49813 0.0
C368 C 0.89532 0.67008 0.43998 0.0
C369 C 0.87458 0.6682 0.43435 0.0
C370 C 0.86242 0.66871 0.46066 0.0
C371 C 0.87209 0.67236 0.49226 0.0
C372 C 0.83925 0.66419 0.4562 0.0
C373 C 0.82439 0.65382 0.48096 0.0
C374 C 0.80322 0.6509 0.47914 0.0
C375 C 0.79608 0.6569 0.4514 0.0
C376 C 0.81016 0.66678 0.42614 0.0
C377 C 0.83185 0.67063 0.42851 0.0
H378 H 0.33389 0.24841 0.45852 0.0
H379 H 0.3441 0.20134 0.40344 0.0
H380 H 0.33563 0.19541 0.50687 0.0
H381 H 0.3577 0.18151 0.50331 0.0
H382 H 0.35039 0.12322 0.45349 0.0
H383 H 0.32841 0.16323 0.40565 0.0
C384 C 0.33545 0.23356 0.45759 0.0
C385 C 0.33475 0.22292 0.48603 0.0
C386 C 0.33863 0.22569 0.42796 0.0
C387 C 0.34117 0.20685 0.42653 0.0
C388 C 0.34034 0.1956 0.455 0.0
C389 C 0.33691 0.20383 0.48466 0.0
C390 C 0.34346 0.17569 0.45404 0.0
C391 C 0.35257 0.17086 0.48147 0.0
C392 C 0.35488 0.15192 0.48127 0.0
C393 C 0.34925 0.1383 0.45313 0.0
C394 C 0.33987 0.14236 0.42577 0.0
C395 C 0.33666 0.16086 0.42636 0.0
H396 H 0.91618 0.25178 0.46196 0.0
H397 H 0.86535 0.19968 0.40034 0.0
H398 H 0.86306 0.19616 0.50472 0.0
H399 H 0.82848 0.17863 0.49809 0.0
H400 H 0.78024 0.11987 0.44589 0.0
H401 H 0.83991 0.1637 0.40005 0.0
C402 C 0.90092 0.23585 0.4594 0.0
C403 C 0.88986 0.22536 0.48686 0.0
C404 C 0.89248 0.22616 0.42844 0.0
C405 C 0.87202 0.20618 0.42461 0.0
C406 C 0.86028 0.19527 0.45205 0.0
C407 C 0.87026 0.2047 0.48301 0.0
C408 C 0.83764 0.17462 0.44915 0.0
C409 C 0.82376 0.1685 0.47583 0.0
C410 C 0.80357 0.14857 0.47477 0.0
C411 C 0.79582 0.13553 0.44619 0.0
C412 C 0.80853 0.14124 0.41893 0.0
C413 C 0.82973 0.1604 0.42062 0.0
H414 H 0.98376 0.4201 0.20296 0.0
H415 H 0.98335 0.47056 0.26456 0.0
H416 H 0.98974 0.47877 0.1613 0.0
H417 H 0.97318 0.49815 0.16792 0.0
H418 H 0.99019 0.55748 0.2246 0.0
H419 H 1.00158 0.50791 0.26582 0.0
C420 C 0.98432 0.43602 0.20571 0.0
C421 C 0.98618 0.44825 0.17842 0.0
C422 C 0.98379 0.44428 0.23672 0.0
C423 C 0.98428 0.46476 0.24044 0.0
C424 C 0.98581 0.47738 0.21326 0.0
C425 C 0.98721 0.469 0.18241 0.0
C426 C 0.98635 0.49934 0.21692 0.0
C427 C 0.9794 0.50759 0.19077 0.0
C428 C 0.98137 0.52875 0.19341 0.0
C429 C 0.98843 0.54096 0.22289 0.0
C430 C 0.99532 0.53334 0.24916 0.0
C431 C 0.99482 0.51283 0.24597 0.0
H432 H 0.44729 0.42349 0.2124 0.0
H433 H 0.48915 0.48546 0.26564 0.0
H434 H 0.503 0.47529 0.16737 0.0
H435 H 0.51435 0.51141 0.16642 0.0
H436 H 0.56785 0.56781 0.21733 0.0
H437 H 0.52683 0.50922 0.2693 0.0
C438 C 0.46186 0.44002 0.21368 0.0
C439 C 0.47412 0.4482 0.18623 0.0
C440 C 0.46742 0.45323 0.24236 0.0
C441 C 0.48571 0.47502 0.24383 0.0
C442 C 0.49904 0.48334 0.21695 0.0
C443 C 0.49319 0.46943 0.18842 0.0
C444 C 0.51818 0.50683 0.21768 0.0
C445 C 0.52394 0.51871 0.18888 0.0
C446 C 0.54184 0.54048 0.18886 0.0
C447 C 0.55404 0.55081 0.21754 0.0
C448 C 0.54865 0.53973 0.24652 0.0
C449 C 0.53071 0.51772 0.24675 0.0
H450 H 0.44231 0.02052 0.21649 0.0
H451 H 0.48328 1.00112 0.26836 0.0
H452 H 0.49654 0.0225 0.16979 0.0
H453 H 0.5076 0.99873 0.16627 0.0
H454 H 0.55942 0.99388 0.21338 0.0
H455 H 0.51948 0.01107 0.27043 0.0
C456 C 0.45659 0.01837 0.21738 0.0
C457 C 0.46833 0.02128 0.18962 0.0
C458 C 0.46232 0.01175 0.2459 0.0
C459 C 0.47997 0.00759 0.24669 0.0
C460 C 0.49275 0.0113 0.21921 0.0
C461 C 0.48705 0.01901 0.19116 0.0
C462 C 0.51101 0.00592 0.21856 0.0
C463 C 0.51663 1.00017 0.18865 0.0
C464 C 0.53406 0.99604 0.18699 0.0
C465 C 0.54547 0.99646 0.21525 0.0
C466 C 0.54 1.00119 0.24554 0.0
C467 C 0.52306 0.00649 0.24714 0.0
H468 H 0.58208 0.9967 0.78463 0.0
H469 H 0.54152 0.01874 0.73806 0.0
H470 H 0.52794 0.99302 0.83425 0.0
H471 H 0.51734 0.01715 0.84139 0.0
H472 H 0.46735 0.02647 0.79714 0.0
H473 H 0.50501 0.00793 0.73707 0.0
C474 C 0.5679 0.99901 0.78498 0.0
C475 C 0.55597 0.99466 0.81289 0.0
C476 C 0.56236 0.0071 0.75787 0.0
C477 C 0.54472 0.01122 0.7586 0.0
C478 C 0.53198 0.0064 0.78629 0.0
C479 C 0.53745 0.9973 0.81284 0.0
C480 C 0.51398 0.01203 0.78868 0.0
C481 C 0.50852 0.01688 0.81938 0.0
C482 C 0.49155 0.02167 0.82223 0.0
C483 C 0.48038 0.02253 0.79452 0.0
C484 C 0.48491 0.01741 0.7638 0.0
C485 C 0.50187 0.01232 0.76082 0.0
H486 H 0.987 0.56991 0.81062 0.0
H487 H 1.00149 0.5289 0.74934 0.0
H488 H 0.00861 0.52802 0.85348 0.0
H489 H 0.02969 0.51451 0.8431 0.0
H490 H 0.02255 0.45787 0.78864 0.0
H491 H 0.99095 0.49249 0.75216 0.0
C492 C 0.99261 0.55795 0.80838 0.0
C493 C 0.999 0.55095 0.83602 0.0
C494 C 0.99368 0.55017 0.77742 0.0
C495 C 1.0002 0.53419 0.77362 0.0
C496 C 1.0051 0.52534 0.80103 0.0
C497 C 1.00459 0.53412 0.83214 0.0
C498 C 0.01062 0.50704 0.79718 0.0
C499 C 0.02327 0.50374 0.82143 0.0
C500 C 0.02739 0.48593 0.8184 0.0
C501 C 0.02004 0.47212 0.79032 0.0
C502 C 1.00705 0.47453 0.76637 0.0
C503 C 1.00207 0.49171 0.77002 0.0
H504 H 0.5631 0.5839 0.7818 0.0
H505 H 0.51286 0.52389 0.7323 0.0
H506 H 0.50231 0.54387 0.82714 0.0
H507 H 0.48381 0.50791 0.8329 0.0
H508 H 0.42474 0.45629 0.78568 0.0
H509 H 0.4757 0.50408 0.72812 0.0
C510 C 0.54668 0.56933 0.78128 0.0
C511 C 0.53384 0.56504 0.80821 0.0
C512 C 0.539 0.55477 0.7539 0.0
C513 C 0.51801 0.53552 0.75307 0.0
C514 C 0.50433 0.53108 0.77958 0.0
C515 C 0.51238 0.54653 0.8066 0.0
C516 C 0.4823 0.51001 0.78041 0.0
C517 C 0.47399 0.50092 0.81055 0.0
C518 C 0.45307 0.48216 0.8123 0.0
C519 C 0.4405 0.47156 0.78403 0.0
C520 C 0.44883 0.47895 0.75369 0.0
C521 C 0.46962 0.49836 0.75176 0.0
H522 H 0.68708 0.76478 0.5421 0.0
H523 H 0.69903 0.82323 0.5972 0.0
H524 H 0.67294 0.81139 0.49763 0.0
H525 H 0.68623 0.84659 0.497 0.0
H526 H 0.67968 0.89566 0.55154 0.0
H527 H 0.68627 0.84599 0.60218 0.0
C528 C 0.68678 0.78032 0.54349 0.0
C529 C 0.6804 0.78739 0.51611 0.0
C530 C 0.69294 0.79293 0.57271 0.0
C531 C 0.69315 0.81335 0.5747 0.0
C532 C 0.68589 0.82066 0.54769 0.0
C533 C 0.6791 0.80698 0.51868 0.0
C534 C 0.68518 0.84218 0.54932 0.0
C535 C 0.68448 0.85258 0.52046 0.0
C536 C 0.68162 0.8712 0.52142 0.0
C537 C 0.68081 0.88055 0.55109 0.0
C538 C 0.68323 0.87199 0.58012 0.0
C539 C 0.68507 0.85263 0.57935 0.0
H540 H 0.11857 0.76686 0.54119 0.0
H541 H 0.17143 0.81971 0.59943 0.0
H542 H 0.17338 0.81847 0.49494 0.0
H543 H 0.20847 0.83394 0.50391 0.0
H544 H 0.25606 0.89606 0.55012 0.0
H545 H 0.1945 0.85663 0.59425 0.0
C546 C 0.13427 0.78236 0.54282 0.0
C547 C 0.14531 0.79122 0.51465 0.0
C548 C 0.14319 0.79308 0.57321 0.0
C549 C 0.16433 0.81214 0.57569 0.0
C550 C 0.17596 0.82145 0.54762 0.0
C551 C 0.16575 0.81109 0.51714 0.0
C552 C 0.19858 0.84177 0.54971 0.0
C553 C 0.21306 0.84562 0.52449 0.0
C554 C 0.2334 0.86531 0.52443 0.0
C555 C 0.24053 0.88044 0.55097 0.0
C556 C 0.22671 0.87726 0.5764 0.0
C557 C 0.20554 0.85815 0.57551 0.0
H558 H 0.1062 0.33614 0.54241 0.0
H559 H 0.16348 0.35055 0.60111 0.0
H560 H 0.16478 0.3483 0.49662 0.0
H561 H 0.19918 0.37508 0.50775 0.0
H562 H 0.25271 0.37252 0.55494 0.0
H563 H 0.18903 0.33846 0.5951 0.0
C564 C 0.12324 0.34016 0.5442 0.0
C565 C 0.13458 0.34281 0.51595 0.0
C566 C 0.13354 0.34302 0.57482 0.0
C567 C 0.15541 0.34764 0.57733 0.0
C568 C 0.16711 0.34973 0.54921 0.0
C569 C 0.15625 0.34683 0.51858 0.0
C570 C 0.19095 0.35635 0.55164 0.0
C571 C 0.20518 0.36947 0.52773 0.0
C572 C 0.22728 0.37505 0.52863 0.0
C573 C 0.23574 0.36878 0.55467 0.0
C574 C 0.22211 0.35576 0.5787 0.0
C575 C 0.19964 0.34928 0.57706 0.0
H576 H 0.97406 0.4094 0.0351 0.0
H577 H 0.0179 0.38775 0.07291 0.0
H578 H 0.02008 0.40593 0.12557 0.0
H579 H 0.00898 0.42745 0.16095 0.0
H580 H 0.96468 0.44832 0.12254 0.0
H581 H 0.96364 0.43127 0.06967 0.0
C582 C 0.98409 0.40853 0.05479 0.0
C583 C 0.99566 0.397 0.05002 0.0
C584 C 0.98531 0.41904 0.08482 0.0
C585 C 0.00875 0.3964 0.07586 0.0
C586 C 0.01001 0.40681 0.10598 0.0
C587 C 0.99901 0.42818 0.14104 0.0
C588 C 0.98683 0.43909 0.14578 0.0
C589 C 0.99826 0.41807 0.11076 0.0
C590 C 0.97438 0.44026 0.11953 0.0
C591 C 0.97363 0.43035 0.08935 0.0
H592 H 0.58548 0.61549 0.0905 0.0
H593 H 0.61199 0.57402 0.05972 0.0
H594 H 0.58756 0.54482 0.09496 0.0
H595 H 0.5624 0.5334 0.13998 0.0
H596 H 0.53793 0.57605 0.17295 0.0
H597 H 0.55739 0.60229 0.1309 0.0
C598 C 0.58564 0.59991 0.09098 0.0
C599 C 0.60071 0.59705 0.07278 0.0
C600 C 0.57188 0.58341 0.11176 0.0
C601 C 0.60067 0.57673 0.07372 0.0
C602 C 0.58672 0.56002 0.09389 0.0
C603 C 0.56084 0.54811 0.13711 0.0
C604 C 0.54873 0.55287 0.15904 0.0
C605 C 0.57276 0.56347 0.11375 0.0
C606 C 0.54705 0.57211 0.1559 0.0
C607 C 0.55832 0.58715 0.13213 0.0
H608 H 0.44424 0.04235 0.05186 0.0
H609 H 0.38028 0.98768 0.0738 0.0
H610 H 0.39505 0.9852 0.12671 0.0
H611 H 0.42632 0.99746 0.1656 0.0
H612 H 0.49047 0.05137 0.14339 0.0
H613 H 0.47541 0.05509 0.09127 0.0
C614 C 0.43343 0.03001 0.06828 0.0
C615 C 0.41113 0.01524 0.05884 0.0
C616 C 0.4421 0.02843 0.09841 0.0
C617 C 0.39748 0.99923 0.08039 0.0
C618 C 0.40592 0.99778 0.11063 0.0
C619 C 0.43695 0.01025 0.14954 0.0
C620 C 0.45944 0.02427 0.15838 0.0
C621 C 0.42822 0.01215 0.11972 0.0
C622 C 0.47314 0.04037 0.13703 0.0
C623 C 0.46451 0.04253 0.10735 0.0
H624 H 0.43184 0.03092 0.91991 0.0
H625 H 0.411 0.9612 0.93 0.0
H626 H 0.44219 0.96579 0.8996 0.0
H627 H 0.47138 0.98808 0.86249 0.0
H628 H 0.49051 0.05704 0.85018 0.0
H629 H 0.46456 0.05462 0.89027 0.0
C630 C 0.43434 0.01682 0.91621 0.0
C631 C 0.41889 0.99568 0.92682 0.0
C632 C 0.45212 0.01952 0.89839 0.0
C633 C 0.4225 0.97762 0.92177 0.0
C634 C 0.44035 0.98022 0.90439 0.0
C635 C 0.47049 1.00278 0.86974 0.0
C636 C 0.48277 0.02273 0.85373 0.0
C637 C 0.45477 1.0009 0.89157 0.0
C638 C 0.48128 0.04162 0.86259 0.0
C639 C 0.46624 0.04012 0.88511 0.0
H640 H 0.05229 0.42705 0.9003 0.0
H641 H 0.9919 0.41308 0.94371 0.0
H642 H 0.99187 0.44361 0.91565 0.0
H643 H 1.00582 0.47026 0.87251 0.0
H644 H 0.06403 0.48191 0.82473 0.0
H645 H 0.0687 0.4571 0.86131 0.0
C646 C 0.03939 0.43103 0.90399 0.0
C647 C 0.02182 0.41751 0.92337 0.0
C648 C 0.03921 0.44834 0.88705 0.0
C649 C 1.0052 0.42277 0.92808 0.0
C650 C 1.00528 0.44038 0.91226 0.0
C651 C 0.02003 0.46807 0.8711 0.0
C652 C 0.03474 0.47806 0.8464 0.0
C653 C 0.02176 0.45275 0.8908 0.0
C654 C 0.05274 0.47463 0.844 0.0
C655 C 0.05519 0.46019 0.86458 0.0
H656 H 0.56167 0.61736 0.94465 0.0
H657 H 0.62198 0.61769 0.92549 0.0
H658 H 0.60627 0.59859 0.87302 0.0
H659 H 0.575 0.58006 0.83404 0.0
H660 H 0.51483 0.58022 0.85182 0.0
H661 H 0.53088 0.60057 0.90378 0.0
C662 C 0.57146 0.61338 0.92896 0.0
C663 C 0.59297 0.61888 0.93921 0.0
C664 C 0.56231 0.60232 0.89873 0.0
C665 C 0.60539 0.61367 0.91837 0.0
C666 C 0.59641 0.60269 0.88834 0.0
C667 C 0.56548 0.58493 0.84888 0.0
C668 C 0.54374 0.57865 0.83891 0.0
C669 C 0.57484 0.59674 0.87846 0.0
C670 C 0.53152 0.58462 0.859 0.0
C671 C 0.54072 0.59635 0.88864 0.0
H672 H 1.00471 0.58613 0.98143 0.0
H673 H 0.01611 0.64511 0.93277 0.0
H674 H 0.01321 0.62639 0.88024 0.0
H675 H 0.00938 0.59425 0.84907 0.0
H676 H 0.9924 0.53301 0.89667 0.0
H677 H 0.99641 0.55199 0.949 0.0
C678 C 1.00633 0.5947 0.95919 0.0
C679 C 0.01069 0.61689 0.96063 0.0
C680 C 1.00403 0.58362 0.92915 0.0
C681 C 0.01264 0.62796 0.93196 0.0
C682 C 0.0111 0.61731 0.90207 0.0
C683 C 1.00581 0.58461 0.87056 0.0
C684 C 1.00053 0.56202 0.86838 0.0
C685 C 1.00696 0.59521 0.90045 0.0
C686 C 0.99696 0.55047 0.89718 0.0
C687 C 0.99899 0.56125 0.92725 0.0
H688 H 0.39385 0.4265 0.92259 0.0
H689 H 0.43243 0.39425 0.91117 0.0
H690 H 0.45654 0.42316 0.87565 0.0
H691 H 0.46352 0.45453 0.84186 0.0
H692 H 0.42321 0.48489 0.84937 0.0
H693 H 0.4031 0.46012 0.89272 0.0
C694 C 0.40776 0.42601 0.91279 0.0
C695 C 0.41121 0.40812 0.91941 0.0
C696 C 0.42121 0.44237 0.89155 0.0
C697 C 0.42932 0.40775 0.9065 0.0
C698 C 0.44312 0.42426 0.88604 0.0
C699 C 0.45078 0.45609 0.85383 0.0
C700 C 0.44489 0.47151 0.84308 0.0
C701 C 0.4388 0.44123 0.87762 0.0
C702 C 0.42808 0.47324 0.85787 0.0
C703 C 0.4165 0.45898 0.88233 0.0
H704 H 0.57749 0.9691 0.94896 0.0
H705 H 0.64217 0.02372 0.92992 0.0
H706 H 0.62856 0.0272 0.87676 0.0
H707 H 0.59793 0.0165 0.83737 0.0
H708 H 0.53297 0.96277 0.85658 0.0
H709 H 0.54707 0.95728 0.90831 0.0
C710 C 0.5887 0.9816 0.93307 0.0
C711 C 0.61083 0.99615 0.94351 0.0
C712 C 0.58068 0.9838 0.90275 0.0
C713 C 0.62506 0.01235 0.92261 0.0
C714 C 0.61729 0.01438 0.8922 0.0
C715 C 0.58693 1.00329 0.85259 0.0
C716 C 0.56447 0.98997 0.84313 0.0
C717 C 0.59508 1.00043 0.88227 0.0
C718 C 0.5503 0.97329 0.86345 0.0
C719 C 0.55837 0.97013 0.89293 0.0
H720 H 0.59101 0.9828 0.08769 0.0
H721 H 0.60938 0.05104 0.0695 0.0
H722 H 0.57942 0.04764 0.10193 0.0
H723 H 0.55233 0.02733 0.14277 0.0
H724 H 0.53609 0.96019 0.16352 0.0
H725 H 0.56039 0.96074 0.12191 0.0
C726 C 0.58819 0.99679 0.09012 0.0
C727 C 0.60263 0.01724 0.0766 0.0
C728 C 0.57127 0.99485 0.1093 0.0
C729 C 0.59866 0.03517 0.07998 0.0
C730 C 0.58154 0.03325 0.09855 0.0
C731 C 0.55352 0.01257 0.13716 0.0
C732 C 0.54253 0.99372 0.15585 0.0
C733 C 0.5683 0.01346 0.11433 0.0
C734 C 0.54438 0.97477 0.14908 0.0
C735 C 0.55843 0.97521 0.12562 0.0
H736 H 0.96197 0.58321 0.09116 0.0
H737 H 0.03228 0.62606 0.10781 0.0
H738 H 0.03384 0.59811 0.14 0.0
H739 H 0.01517 0.5634 0.16806 0.0
H740 H 0.9448 0.52109 0.15651 0.0
H741 H 0.94325 0.54656 0.11731 0.0
C742 C 0.97763 0.5863 0.10159 0.0
C743 C 0.997 0.60674 0.09675 0.0
C744 C 0.97839 0.57021 0.12101 0.0
C745 C 0.01715 0.61047 0.11057 0.0
C746 C 0.01808 0.5945 0.12922 0.0
C747 C 0.99956 0.55955 0.15633 0.0
C748 C 0.98015 0.54052 0.16483 0.0
C749 C 0.99881 0.57456 0.13508 0.0
C750 C 0.95995 0.53561 0.14991 0.0
C751 C 0.95909 0.55029 0.12785 0.0
H752 H 0.45223 0.39839 0.04835 0.0
H753 H 0.38687 0.38429 0.07055 0.0
H754 H 0.40103 0.40425 0.12302 0.0
H755 H 0.432 0.42677 0.1616 0.0
H756 H 0.49734 0.44083 0.13995 0.0
H757 H 0.48312 0.42007 0.08779 0.0
C758 C 0.44099 0.39953 0.06467 0.0
C759 C 0.41846 0.38981 0.05536 0.0
C760 C 0.44926 0.41118 0.09474 0.0
C761 C 0.40425 0.39156 0.07696 0.0
C762 C 0.41235 0.40302 0.10697 0.0
C763 C 0.44312 0.42501 0.14573 0.0
C764 C 0.4657 0.43522 0.15478 0.0
C765 C 0.43482 0.41301 0.11598 0.0
C766 C 0.47993 0.43326 0.1335 0.0
C767 C 0.47178 0.4213 0.10377 0.0
H768 H 0.64829 0.73207 0.38218 0.0
H769 H 0.70581 0.72623 0.40269 0.0
H770 H 0.71333 0.7484 0.45321 0.0
H771 H 0.70411 0.77002 0.49088 0.0
H772 H 0.64647 0.77559 0.47098 0.0
H773 H 0.63877 0.75331 0.42034 0.0
C774 C 0.66242 0.73549 0.39773 0.0
C775 C 0.67642 0.72738 0.38855 0.0
C776 C 0.66678 0.74841 0.42663 0.0
C777 C 0.69471 0.73216 0.40907 0.0
C778 C 0.69907 0.74491 0.43794 0.0
C779 C 0.68972 0.76618 0.47564 0.0
C780 C 0.67582 0.77439 0.48481 0.0
C781 C 0.68528 0.75318 0.44686 0.0
C782 C 0.65754 0.76968 0.46439 0.0
C783 C 0.65305 0.75679 0.43556 0.0
H784 H 0.30123 0.92144 0.42339 0.0
H785 H 0.25013 0.93675 0.40035 0.0
H786 H 0.22513 0.90735 0.43489 0.0
H787 H 0.21972 0.88119 0.47717 0.0
H788 H 0.27235 0.86959 0.50607 0.0
H789 H 0.2948 0.89311 0.46305 0.0
C790 C 0.28448 0.91802 0.42554 0.0
C791 C 0.27752 0.93132 0.40975 0.0
C792 C 0.27055 0.9017 0.44638 0.0
C793 C 0.2559 0.92695 0.41278 0.0
C794 C 0.24161 0.91009 0.43237 0.0
C795 C 0.23582 0.88324 0.47314 0.0
C796 C 0.24438 0.8735 0.494 0.0
C797 C 0.24899 0.89787 0.45002 0.0
C798 C 0.26545 0.87667 0.48966 0.0
C799 C 0.2783 0.89031 0.46542 0.0
H800 H 0.09691 0.33812 0.37287 0.0
H801 H 0.06998 0.37438 0.42095 0.0
H802 H 0.0864 0.37237 0.47292 0.0
H803 H 0.10964 0.36185 0.5038 0.0
H804 H 0.1362 0.32475 0.45662 0.0
H805 H 0.11915 0.32598 0.40484 0.0
C806 C 0.0945 0.34529 0.39492 0.0
C807 C 0.08219 0.35619 0.39354 0.0
C808 C 0.10413 0.34419 0.42456 0.0
C809 C 0.07926 0.36574 0.42183 0.0
C810 C 0.08872 0.36468 0.45138 0.0
C811 C 0.1114 0.35362 0.48237 0.0
C812 C 0.12409 0.34306 0.48425 0.0
C813 C 0.10133 0.35412 0.45294 0.0
C814 C 0.1267 0.33314 0.4559 0.0
C815 C 0.11683 0.33371 0.42633 0.0
H816 H 0.07944 0.31282 0.25628 0.0
H817 H 0.09206 0.37965 0.24053 0.0
H818 H 0.11926 0.38491 0.20152 0.0
H819 H 0.13608 0.36898 0.1668 0.0
H820 H 0.12426 0.30258 0.18198 0.0
H821 H 0.10048 0.29877 0.22656 0.0
C822 C 0.0884 0.32862 0.24464 0.0
C823 C 0.0835 0.34567 0.25103 0.0
C824 C 0.10414 0.3316 0.22204 0.0
C825 C 0.09542 0.36618 0.23604 0.0
C826 C 0.11097 0.36923 0.21358 0.0
C827 C 0.12872 0.35395 0.18054 0.0
C828 C 0.13174 0.33608 0.17138 0.0
C829 C 0.11499 0.35185 0.20572 0.0
C830 C 0.12219 0.31659 0.18901 0.0
C831 C 0.10846 0.31434 0.21421 0.0
H832 H 0.72296 0.76581 0.25282 0.0
H833 H 0.65253 0.72091 0.24524 0.0
H834 H 0.64806 0.74677 0.21185 0.0
H835 H 0.66414 0.77991 0.17989 0.0
H836 H 0.73437 0.82428 0.1834 0.0
H837 H 0.73901 0.80117 0.22367 0.0
C838 C 0.70662 0.76185 0.2442 0.0
C839 C 0.68811 0.74135 0.25162 0.0
C840 C 0.70416 0.77669 0.22417 0.0
C841 C 0.66707 0.7365 0.2402 0.0
C842 C 0.66447 0.75128 0.2209 0.0
C843 C 0.68042 0.7847 0.19001 0.0
C844 C 0.69891 0.80357 0.17885 0.0
C845 C 0.68289 0.77109 0.21213 0.0
C846 C 0.71995 0.80981 0.19192 0.0
C847 C 0.72256 0.7965 0.21465 0.0
H848 H 0.2866 0.94094 0.26718 0.0
H849 H 0.23525 0.95638 0.28427 0.0
H850 H 0.21489 0.93472 0.23516 0.0
H851 H 0.21119 0.91063 0.18772 0.0
H852 H 0.2621 0.89444 0.17165 0.0
H853 H 0.28301 0.91708 0.21982 0.0
C854 C 0.27109 0.93979 0.25997 0.0
C855 C 0.26253 0.95031 0.2794 0.0
C856 C 0.25924 0.92699 0.23194 0.0
C857 C 0.24224 0.94841 0.26984 0.0
C858 C 0.23053 0.93597 0.24176 0.0
C859 C 0.22676 0.91192 0.19497 0.0
C860 C 0.23509 0.90091 0.1761 0.0
C861 C 0.23873 0.92497 0.22281 0.0
C862 C 0.25543 0.90295 0.18559 0.0
C863 C 0.2674 0.91587 0.21316 0.0
H864 H 0.711 0.93883 0.30608 0.0
H865 H 0.66138 0.95399 0.27239 0.0
H866 H 0.65825 0.93515 0.22015 0.0
H867 H 0.66993 0.91483 0.18385 0.0
H868 H 0.7197 0.89996 0.21738 0.0
H869 H 0.72216 0.91796 0.27022 0.0
C870 C 0.6995 0.93808 0.28735 0.0
C871 C 0.68654 0.94796 0.29318 0.0
C872 C 0.69773 0.92717 0.25742 0.0
C873 C 0.6716 0.94659 0.26863 0.0
C874 C 0.66979 0.93581 0.23872 0.0
C875 C 0.68142 0.91566 0.20267 0.0
C876 C 0.69475 0.90624 0.19666 0.0
C877 C 0.68285 0.92615 0.23282 0.0
C878 C 0.70919 0.90698 0.22149 0.0
C879 C 0.71069 0.91738 0.25161 0.0
H880 H 0.06967 0.76647 0.25805 0.0
H881 H 0.09414 0.72107 0.24186 0.0
H882 H 0.12193 0.74758 0.20725 0.0
H883 H 0.13612 0.78142 0.17596 0.0
H884 H 0.11018 0.82561 0.18886 0.0
H885 H 0.08642 0.80216 0.23079 0.0
C886 C 0.08128 0.76251 0.24731 0.0
C887 C 0.07969 0.74173 0.2524 0.0
C888 C 0.097 0.77769 0.22684 0.0
C889 C 0.09493 0.73691 0.2384 0.0
C890 C 0.11083 0.75205 0.21848 0.0
C891 C 0.12578 0.78621 0.18886 0.0
C892 C 0.125 0.80523 0.18001 0.0
C893 C 0.11163 0.7722 0.21185 0.0
C894 C 0.1112 0.81117 0.19595 0.0
C895 C 0.09749 0.79765 0.21956 0.0
H896 H 0.23734 0.30652 0.28006 0.0
H897 H 0.30018 0.36391 0.26061 0.0
H898 H 0.28639 0.36437 0.20594 0.0
H899 H 0.25607 0.34961 0.16479 0.0
H900 H 0.19339 0.29212 0.18404 0.0
H901 H 0.20759 0.29073 0.23809 0.0
C902 C 0.24809 0.31915 0.26393 0.0
C903 C 0.26974 0.33526 0.27458 0.0
C904 C 0.24008 0.31935 0.23261 0.0
C905 C 0.28344 0.35134 0.25313 0.0
C906 C 0.27557 0.35164 0.22187 0.0
C907 C 0.24563 0.33651 0.18058 0.0
C908 C 0.22371 0.32096 0.17043 0.0
C909 C 0.25388 0.33584 0.2115 0.0
C910 C 0.21024 0.30439 0.19142 0.0
C911 C 0.21837 0.30356 0.22224 0.0
H912 H 0.30237 0.39946 0.43468 0.0
H913 H 0.24988 0.34096 0.38369 0.0
H914 H 0.22294 0.34234 0.41825 0.0
H915 H 0.21568 0.35555 0.46914 0.0
H916 H 0.2687 0.41107 0.52439 0.0
H917 H 0.29405 0.41607 0.4817 0.0
C918 C 0.28495 0.38746 0.43067 0.0
C919 C 0.27802 0.36991 0.40725 0.0
C920 C 0.26973 0.3878 0.45158 0.0
C921 C 0.25551 0.35431 0.40215 0.0
C922 C 0.24014 0.35513 0.42182 0.0
C923 C 0.23258 0.36931 0.47116 0.0
C924 C 0.24042 0.38293 0.49967 0.0
C925 C 0.24721 0.37114 0.44757 0.0
C926 C 0.26241 0.40045 0.50247 0.0
C927 C 0.2769 0.40314 0.47826 0.0
H928 H 0.6978 0.9423 0.41959 0.0
H929 H 0.62944 0.91908 0.436 0.0
H930 H 0.62761 0.88943 0.4688 0.0
H931 H 0.64652 0.8728 0.49767 0.0
H932 H 0.71469 0.89564 0.48155 0.0
H933 H 0.7155 0.92248 0.44314 0.0
C934 C 0.68251 0.93074 0.43022 0.0
C935 C 0.66392 0.9332 0.42589 0.0
C936 C 0.68152 0.91356 0.44886 0.0
C937 C 0.64404 0.91767 0.43917 0.0
C938 C 0.64297 0.9007 0.45794 0.0
C939 C 0.6613 0.8832 0.48486 0.0
C940 C 0.68046 0.88227 0.49202 0.0
C941 C 0.66171 0.8988 0.4635 0.0
C942 C 0.69969 0.89592 0.47586 0.0
C943 C 0.70021 0.91144 0.45431 0.0
H944 H 0.11782 0.7386 0.37892 0.0
H945 H 0.05369 0.72576 0.40583 0.0
H946 H 0.07 0.74826 0.45609 0.0
H947 H 0.10244 0.77151 0.49238 0.0
H948 H 0.16639 0.7839 0.46553 0.0
H949 H 0.15018 0.76206 0.41478 0.0
C950 C 0.10733 0.74058 0.39579 0.0
C951 C 0.08451 0.73034 0.38862 0.0
C952 C 0.11682 0.75368 0.42448 0.0
C953 C 0.07128 0.73337 0.41071 0.0
C954 C 0.0806 0.74628 0.43945 0.0
C955 C 0.11282 0.76934 0.47549 0.0
C956 C 0.1356 0.77928 0.48281 0.0
C957 C 0.10334 0.7565 0.44657 0.0
C958 C 0.14887 0.77666 0.46036 0.0
C959 C 0.13958 0.764 0.43146 0.0
H960 H 0.36355 0.07862 0.7278 0.0
H961 H 0.30468 0.07428 0.68484 0.0
H962 H 0.30127 0.09339 0.7325 0.0
H963 H 0.31404 0.1102 0.78742 0.0
H964 H 0.37242 0.11423 0.83109 0.0
H965 H 0.37707 0.09668 0.7822 0.0
C966 C 0.34996 0.08181 0.72887 0.0
C967 C 0.33438 0.07485 0.70269 0.0
C968 C 0.34803 0.09292 0.75649 0.0
C969 C 0.31695 0.07934 0.70453 0.0
C970 C 0.31496 0.09034 0.73182 0.0
C971 C 0.32798 0.10758 0.78594 0.0
C972 C 0.34284 0.11348 0.81274 0.0
C973 C 0.33034 0.09714 0.75799 0.0
C974 C 0.36069 0.10971 0.81075 0.0
C975 C 0.36332 0.09963 0.78285 0.0
H976 H 0.92563 0.27172 0.74706 0.0
H977 H 0.97748 0.2563 0.76234 0.0
H978 H 0.95397 0.22573 0.7963 0.0
H979 H 0.92065 0.2069 0.82742 0.0
H980 H 0.86879 0.22216 0.8124 0.0
H981 H 0.8901 0.24902 0.77193 0.0
C982 C 0.9317 0.26155 0.75754 0.0
C983 C 0.9534 0.26657 0.75279 0.0
C984 C 0.91807 0.24397 0.777 0.0
C985 C 0.96087 0.25288 0.76588 0.0
C986 C 0.94747 0.23542 0.78536 0.0
C987 C 0.91384 0.21568 0.8145 0.0
C988 C 0.89335 0.21277 0.8227 0.0
C989 C 0.92632 0.23129 0.79185 0.0
C990 C 0.88451 0.22412 0.80611 0.0
C991 C 0.89679 0.23962 0.78332 0.0
H992 H 0.75883 0.64701 0.69708 0.0
H993 H 0.71346 0.66461 0.73769 0.0
H994 H 0.72802 0.665 0.79235 0.0
H995 H 0.75523 0.66304 0.82752 0.0
H996 H 0.79731 0.64017 0.78818 0.0
H997 H 0.78283 0.63978 0.73382 0.0
C998 C 0.75205 0.65067 0.71804 0.0
C999 C 0.73528 0.65594 0.71367 0.0
C1000 C 0.76009 0.65025 0.74937 0.0
C1001 C 0.72635 0.66046 0.74072 0.0
C1002 C 0.73474 0.66078 0.77185 0.0
C1003 C 0.76088 0.65717 0.80748 0.0
C1004 C 0.77763 0.65178 0.81256 0.0
C1005 C 0.75178 0.65596 0.77639 0.0
C1006 C 0.78495 0.64503 0.78546 0.0
C1007 C 0.77649 0.64456 0.75421 0.0
H1008 H 0.75425 0.65516 0.59991 0.0
H1009 H 0.69885 0.60174 0.54524 0.0
H1010 H 0.72361 0.60023 0.50603 0.0
H1011 H 0.76046 0.61829 0.4833 0.0
H1012 H 0.81578 0.67128 0.53884 0.0
H1013 H 0.79174 0.66859 0.58211 0.0
C1014 C 0.74771 0.64298 0.57966 0.0
C1015 C 0.72488 0.6289 0.57488 0.0
C1016 C 0.76201 0.64223 0.5574 0.0
C1017 C 0.71646 0.61277 0.54917 0.0
C1018 C 0.73057 0.61201 0.52669 0.0
C1019 C 0.76725 0.62878 0.5053 0.0
C1020 C 0.78972 0.64508 0.50789 0.0
C1021 C 0.7533 0.62725 0.52994 0.0
C1022 C 0.79851 0.65855 0.53647 0.0
C1023 C 0.78475 0.65717 0.56105 0.0
H1024 H 0.34396 0.09119 0.59574 0.0
H1025 H 0.40256 0.09601 0.55771 0.0
H1026 H 0.40535 0.12426 0.52057 0.0
H1027 H 0.38813 0.14374 0.49439 0.0
H1028 H 0.33052 0.14018 0.53419 0.0
H1029 H 0.3306 0.11579 0.57592 0.0
C1030 C 0.35744 0.09867 0.57953 0.0
C1031 C 0.37277 0.09136 0.57873 0.0
C1032 C 0.35916 0.11518 0.55883 0.0
C1033 C 0.39051 0.1014 0.55835 0.0
C1034 C 0.39208 0.11749 0.53717 0.0
C1035 C 0.3761 0.13821 0.51295 0.0
C1036 C 0.35934 0.14362 0.51139 0.0
C1037 C 0.37615 0.12404 0.5366 0.0
C1038 C 0.3437 0.13635 0.53528 0.0
C1039 C 0.34356 0.12217 0.55882 0.0
H1040 H 0.90928 0.27117 0.62695 0.0
H1041 H 0.97621 0.29239 0.60307 0.0
H1042 H 0.96304 0.27223 0.55049 0.0
H1043 H 0.93246 0.24834 0.51144 0.0
H1044 H 0.86575 0.22789 0.5355 0.0
H1045 H 0.87896 0.24761 0.58819 0.0
C1046 C 0.92106 0.27152 0.61027 0.0
C1047 C 0.94373 0.28338 0.61902 0.0
C1048 C 0.91341 0.2598 0.58021 0.0
C1049 C 0.95867 0.28345 0.59703 0.0
C1050 C 0.95116 0.27188 0.56695 0.0
C1051 C 0.92082 0.2483 0.52815 0.0
C1052 C 0.89813 0.23656 0.51951 0.0
C1053 C 0.92855 0.25997 0.55831 0.0
C1054 C 0.88326 0.23644 0.54168 0.0
C1055 C 0.89081 0.2479 0.57173 0.0
H1056 H 0.32338 0.27595 0.60321 0.0
H1057 H 0.38322 0.27796 0.63663 0.0
H1058 H 0.38106 0.25513 0.58962 0.0
H1059 H 0.36296 0.2353 0.53809 0.0
H1060 H 0.30417 0.23423 0.50277 0.0
H1061 H 0.30495 0.25561 0.55146 0.0
C1062 C 0.33599 0.27147 0.60015 0.0
C1063 C 0.35344 0.27881 0.62355 0.0
C1064 C 0.33473 0.25826 0.57281 0.0
C1065 C 0.36958 0.27269 0.61913 0.0
C1066 C 0.36836 0.25951 0.59223 0.0
C1067 C 0.35011 0.23941 0.54143 0.0
C1068 C 0.33343 0.23306 0.51721 0.0
C1069 C 0.35104 0.2522 0.56894 0.0
C1070 C 0.31711 0.23888 0.52133 0.0
C1071 C 0.31763 0.25119 0.54903 0.0
H1072 H 0.73354 0.09819 0.57737 0.0
H1073 H 0.76651 0.05969 0.57746 0.0
H1074 H 0.79465 0.08669 0.54381 0.0
H1075 H 0.80732 0.11852 0.50894 0.0
H1076 H 0.77317 0.15555 0.50468 0.0
H1077 H 0.74822 0.13216 0.5458 0.0
C1078 C 0.74707 0.09589 0.57043 0.0
C1079 C 0.74782 0.07683 0.57984 0.0
C1080 C 0.76295 0.11124 0.55029 0.0
C1081 C 0.76544 0.07411 0.57059 0.0
C1082 C 0.78156 0.08955 0.55125 0.0
C1083 C 0.79477 0.1218 0.51783 0.0
C1084 C 0.79207 0.13873 0.50441 0.0
C1085 C 0.78013 0.1078 0.54028 0.0
C1086 C 0.77561 0.14275 0.51527 0.0
C1087 C 0.76127 0.12924 0.53844 0.0
H1088 H 0.9124 0.65908 0.64248 0.0
H1089 H 0.97883 0.70585 0.61703 0.0
H1090 H 0.96524 0.70848 0.56336 0.0
H1091 H 0.93457 0.69713 0.5233 0.0
H1092 H 0.86835 0.64962 0.54852 0.0
H1093 H 0.8818 0.6481 0.60282 0.0
C1094 C 0.92395 0.66985 0.62525 0.0
C1095 C 0.94662 0.68215 0.63386 0.0
C1096 C 0.91606 0.67133 0.59441 0.0
C1097 C 0.96128 0.69612 0.61114 0.0
C1098 C 0.95354 0.69768 0.5804 0.0
C1099 C 0.92309 0.68639 0.54064 0.0
C1100 C 0.90048 0.67355 0.53178 0.0
C1101 C 0.93097 0.68528 0.57172 0.0
C1102 C 0.8858 0.65997 0.55477 0.0
C1103 C 0.89349 0.65891 0.58577 0.0
H1104 H 0.93101 0.6857 0.74511 0.0
H1105 H 0.98511 0.74314 0.79554 0.0
H1106 H 0.95963 0.74568 0.83231 0.0
H1107 H 0.92284 0.72755 0.85505 0.0
H1108 H 0.8689 0.67012 0.80409 0.0
H1109 H 0.89325 0.67193 0.76194 0.0
C1110 C 0.93709 0.69892 0.7639 0.0
C1111 C 0.95978 0.71387 0.76836 0.0
C1112 C 0.92238 0.70028 0.78472 0.0
C1113 C 0.96762 0.73138 0.79202 0.0
C1114 C 0.95309 0.73276 0.81305 0.0
C1115 C 0.91636 0.7159 0.83416 0.0
C1116 C 0.89425 0.6986 0.83278 0.0
C1117 C 0.93056 0.71676 0.81037 0.0
C1118 C 0.88587 0.68365 0.80557 0.0
C1119 C 0.89984 0.68449 0.78168 0.0
H1120 H 0.29398 0.24383 0.74999 0.0
H1121 H 0.365 0.28196 0.76003 0.0
H1122 H 0.36534 0.25283 0.79087 0.0
H1123 H 0.34561 0.21868 0.82032 0.0
H1124 H 0.27477 0.1823 0.81681 0.0
H1125 H 0.27405 0.20811 0.7776 0.0
C1126 C 0.30954 0.24563 0.75861 0.0
C1127 C 0.32947 0.26515 0.75246 0.0
C1128 C 0.30959 0.22898 0.77744 0.0
C1129 C 0.34943 0.26723 0.76405 0.0
C1130 C 0.34966 0.25052 0.78184 0.0
C1131 C 0.33005 0.21604 0.81003 0.0
C1132 C 0.31028 0.19849 0.82061 0.0
C1133 C 0.32987 0.23159 0.78921 0.0
C1134 C 0.29014 0.19547 0.80823 0.0
C1135 C 0.28979 0.21039 0.78624 0.0
H1136 H 0.77933 0.06322 0.71831 0.0
H1137 H 0.71823 0.0634 0.72615 0.0
H1138 H 0.7318 0.08483 0.77761 0.0
H1139 H 0.76142 0.10476 0.81918 0.0
H1140 H 0.82226 0.10406 0.81225 0.0
H1141 H 0.80846 0.08191 0.76119 0.0
C1142 C 0.7689 0.06783 0.73129 0.0
C1143 C 0.74778 0.06171 0.7182 0.0
C1144 C 0.77682 0.08024 0.76086 0.0
C1145 C 0.73453 0.06783 0.73554 0.0
C1146 C 0.7423 0.08015 0.76497 0.0
C1147 C 0.77157 0.09948 0.8068 0.0
C1148 C 0.79286 0.10608 0.8196 0.0
C1149 C 0.76347 0.08659 0.7777 0.0
C1150 C 0.80593 0.09948 0.80279 0.0
C1151 C 0.79799 0.08668 0.7737 0.0
H1152 H 0.09607 0.36887 0.97859 0.0
H1153 H 0.03735 0.32093 0.02439 0.0
H1154 H 0.05829 0.30679 0.05315 0.0
H1155 H 0.09365 0.31065 0.06976 0.0
H1156 H 0.15331 0.36133 0.02965 0.0
H1157 H 0.13161 0.37099 -0.00713 0.0
C1158 C 0.08784 0.35521 -0.00533 0.0
C1159 C 0.06519 0.34616 -0.00037 0.0
C1160 C 0.10014 0.34746 0.0118 0.0
C1161 C 0.05478 0.32843 0.02048 0.0
C1162 C 0.06672 0.32022 0.0368 0.0
C1163 C 0.10188 0.32353 0.05248 0.0
C1164 C 0.12506 0.33545 0.05267 0.0
C1165 C 0.08946 0.32995 0.03321 0.0
C1166 C 0.13551 0.35184 0.02988 0.0
C1167 C 0.12309 0.35761 0.00928 0.0
H1168 H 0.61621 0.71522 0.03502 0.0
H1169 H 0.67849 0.7226 0.0086 0.0
H1170 H 0.69667 0.76264 0.02142 0.0
H1171 H 0.69626 0.7932 0.05221 0.0
H1172 H 0.63472 0.78545 0.08197 0.0
H1173 H 0.61474 0.74822 0.05488 0.0
C1174 C 0.63365 0.72564 0.03126 0.0
C1175 C 0.64606 0.71573 0.02191 0.0
C1176 C 0.64417 0.74866 0.03945 0.0
C1177 C 0.66857 0.72962 0.01647 0.0
C1178 C 0.67904 0.75259 0.02385 0.0
C1179 C 0.67839 0.78373 0.05128 0.0
C1180 C 0.66689 0.79182 0.06899 0.0
C1181 C 0.66723 0.762 0.03709 0.0
C1182 C 0.6438 0.77952 0.06816 0.0
C1183 C 0.63245 0.75809 0.05316 0.0
H1184 H 0.29114 0.93675 0.98986 0.0
H1185 H 0.32876 0.91058 0.03619 0.0
H1186 H 0.2963 0.88393 0.06396 0.0
H1187 H 0.25895 0.87203 0.08104 0.0
H1188 H 0.22144 0.89854 0.03598 0.0
H1189 H 0.25178 0.92048 0.00079 0.0
C1190 C 0.29216 0.92505 0.00579 0.0
C1191 C 0.31245 0.92596 0.01149 0.0
C1192 C 0.27337 0.90968 0.02161 0.0
C1193 C 0.31341 0.91039 0.03164 0.0
C1194 C 0.29484 0.89512 0.04751 0.0
C1195 C 0.25714 0.8819 0.0625 0.0
C1196 C 0.23806 0.88365 0.06083 0.0
C1197 C 0.27494 0.89506 0.04339 0.0
C1198 C 0.23588 0.89671 0.03723 0.0
C1199 C 0.25338 0.90955 0.01758 0.0
H1200 H 0.37866 0.07946 0.98717 0.0
H1201 H 0.31968 0.01793 0.95648 0.0
H1202 H 0.30241 0.03898 0.93815 0.0
H1203 H 0.30796 0.07474 0.91867 0.0
H1204 H 0.36733 0.1361 0.94748 0.0
H1205 H 0.38038 0.11542 0.9795 0.0
C1206 C 0.36178 0.07065 0.97739 0.0
C1207 C 0.35072 0.04724 0.97231 0.0
C1208 C 0.35211 0.08289 0.96627 0.0
C1209 C 0.32868 0.03597 0.96031 0.0
C1210 C 0.31883 0.04802 0.94957 0.0
C1211 C 0.32322 0.08358 0.93332 0.0
C1212 C 0.33679 0.10677 0.93076 0.0
C1213 C 0.3309 0.07148 0.95066 0.0
C1214 C 0.35663 0.11824 0.94942 0.0
C1215 C 0.36421 0.10637 0.96729 0.0
H1216 H 0.96512 0.28593 0.97269 0.0
H1217 H 0.91674 0.30697 0.97219 0.0
H1218 H 0.88724 0.26829 0.96392 0.0
H1219 H 0.87619 0.23025 0.94404 0.0
H1220 H 0.9245 0.20956 0.9402 0.0
H1221 H 0.95271 0.24578 0.96436 0.0
C1222 C 0.94811 0.28201 0.97169 0.0
C1223 C 0.94326 0.29946 0.9721 0.0
C1224 C 0.93109 0.25962 0.96613 0.0
C1225 C 0.92105 0.29397 0.97113 0.0
C1226 C 0.90409 0.2718 0.96645 0.0
C1227 C 0.89259 0.23326 0.9503 0.0
C1228 C 0.89831 0.21736 0.94037 0.0
C1229 C 0.909 0.25464 0.96216 0.0
C1230 C 0.91971 0.22152 0.94799 0.0
C1231 C 0.93595 0.24244 0.96113 0.0
H1232 H 0.72145 0.64204 0.01648 0.0
H1233 H 0.70153 0.67774 0.95244 0.0
H1234 H 0.73164 0.6851 0.91775 0.0
H1235 H 0.76154 0.67892 0.90312 0.0
H1236 H 0.78072 0.64151 0.96432 0.0
H1237 H 0.75344 0.63788 0.00327 0.0
C1238 C 0.72382 0.65158 -0.00492 0.0
C1239 C 0.70907 0.6591 0.98689 0.0
C1240 C 0.74107 0.65552 0.97486 0.0
C1241 C 0.71244 0.67152 0.95914 0.0
C1242 C 0.7297 0.67582 0.93931 0.0
C1243 C 0.75986 0.67013 0.92517 0.0
C1244 C 0.77282 0.6602 0.93073 0.0
C1245 C 0.74378 0.66751 0.94659 0.0
C1246 C 0.77088 0.64926 0.95959 0.0
C1247 C 0.75516 0.64702 0.98162 0.0
H1248 H 0.94949 0.68036 0.0092 0.0
H1249 H 0.92147 0.61333 0.96717 0.0
H1250 H 0.89189 0.61657 0.94037 0.0
H1251 H 0.87596 0.63976 0.92456 0.0
H1252 H 0.90429 0.70695 0.9652 0.0
H1253 H 0.93126 0.70219 -0.00237 0.0
C1254 C 0.93688 0.66645 -0.00575 0.0
C1255 C 0.93792 0.64675 0.98985 0.0
C1256 C 0.91972 0.66834 0.97905 0.0
C1257 C 0.92121 0.62875 0.97081 0.0
C1258 C 0.90421 0.63055 0.95552 0.0
C1259 C 0.88749 0.65296 0.94157 0.0
C1260 C 0.88789 0.67347 0.94319 0.0
C1261 C 0.90346 0.65036 0.95909 0.0
C1262 C 0.90337 0.69083 0.96432 0.0
C1263 C 0.91901 0.68822 0.98239 0.0
H1264 H 0.33972 0.28052 0.98003 0.0
H1265 H 0.40675 0.2968 0.9661 0.0
H1266 H 0.39424 0.2577 0.95226 0.0
H1267 H 0.3638 0.22109 0.93206 0.0
H1268 H 0.29683 0.2054 0.94267 0.0
H1269 H 0.3097 0.24167 0.97077 0.0
C1270 C 0.35168 0.27546 0.97485 0.0
C1271 C 0.37407 0.29177 0.97313 0.0
C1272 C 0.34432 0.25294 0.96607 0.0
C1273 C 0.38934 0.28476 0.9669 0.0
C1274 C 0.3822 0.26234 0.9589 0.0
C1275 C 0.35209 0.22522 0.94197 0.0
C1276 C 0.32945 0.21077 0.93523 0.0
C1277 C 0.35965 0.24654 0.95666 0.0
C1278 C 0.31435 0.21635 0.94773 0.0
C1279 C 0.32172 0.2372 0.96337 0.0
H1280 H 0.72822 0.07832 0.00987 0.0
H1281 H 0.68517 0.08833 0.94466 0.0
H1282 H 0.71645 0.11289 0.91309 0.0
H1283 H 0.75507 0.12758 0.90019 0.0
H1284 H 0.79823 0.11746 0.96452 0.0
H1285 H 0.76805 0.09739 0.00089 0.0
C1286 C 0.72574 0.08607 0.98894 0.0
C1287 C 0.70435 0.0812 0.97928 0.0
C1288 C 0.74384 0.10024 0.97089 0.0
C1289 C 0.70143 0.09166 0.95247 0.0
C1290 C 0.71931 0.10571 0.93438 0.0
C1291 C 0.75795 0.12155 0.92272 0.0
C1292 C 0.77868 0.12389 0.92986 0.0
C1293 C 0.74045 0.10961 0.94288 0.0
C1294 C 0.78239 0.11599 0.95887 0.0
C1295 C 0.76508 0.10428 0.97936 0.0
H1296 H 0.64239 0.93237 0.02201 0.0
H1297 H 0.70177 0.99508 0.04667 0.0
H1298 H 0.71994 0.97506 0.06572 0.0
H1299 H 0.71586 0.94021 0.08658 0.0
H1300 H 0.65616 0.87769 0.06356 0.0
H1301 H 0.64143 0.89701 0.0319 0.0
C1302 C 0.65951 0.94165 0.03072 0.0
C1303 C 0.67049 0.96516 0.03378 0.0
C1304 C 0.66973 0.93002 0.04224 0.0
C1305 C 0.69282 0.97697 0.0444 0.0
C1306 C 0.7032 0.96552 0.05554 0.0
C1307 C 0.69998 0.93079 0.07355 0.0
C1308 C 0.68693 0.90769 0.07768 0.0
C1309 C 0.69139 0.94212 0.05626 0.0
C1310 C 0.66647 0.8955 0.06064 0.0
C1311 C 0.65793 0.90659 0.0429 0.0
H1312 H 0.04612 0.73296 0.03343 0.0
H1313 H 0.09252 0.71034 0.01888 0.0
H1314 H 0.12309 0.74847 0.02728 0.0
H1315 H 0.13635 0.78593 0.05216 0.0
H1316 H 0.09029 0.80839 0.06933 0.0
H1317 H 0.06016 0.77321 0.04533 0.0
C1318 C 0.06287 0.73648 0.03096 0.0
C1319 C 0.06697 0.71865 0.02651 0.0
C1320 C 0.08058 0.75856 0.03657 0.0
C1321 C 0.08884 0.72362 0.0231 0.0
C1322 C 0.10642 0.74548 0.02793 0.0
C1323 C 0.11994 0.7836 0.04892 0.0
C1324 C 0.1155 0.7996 0.06273 0.0
C1325 C 0.10252 0.76285 0.03661 0.0
C1326 C 0.09409 0.7963 0.05874 0.0
C1327 C 0.07677 0.77598 0.04558 0.0
H1328 H 0.30031 0.37422 -0.00907 0.0
H1329 H 0.30031 0.31381 0.01488 0.0
H1330 H 0.26534 0.30014 0.04064 0.0
H1331 H 0.23679 0.30675 0.06089 0.0
H1332 H 0.23833 0.3686 0.04295 0.0
H1333 H 0.27 0.37987 0.00892 0.0
C1334 C 0.29255 0.358 0.00159 0.0
C1335 C 0.30306 0.34516 0.0013 0.0
C1336 C 0.27258 0.35041 0.01706 0.0
C1337 C 0.29278 0.32417 0.01516 0.0
C1338 C 0.2727 0.31627 0.02973 0.0
C1339 C 0.24384 0.32255 0.04903 0.0
C1340 C 0.23541 0.33694 0.05465 0.0
C1341 C 0.26272 0.32943 0.03139 0.0
C1342 C 0.24445 0.3572 0.03886 0.0
C1343 C 0.26276 0.36377 0.01985 0.0
H1344 H 0.7441 0.67242 0.32937 0.0
H1345 H 0.76875 0.73575 0.38208 0.0
H1346 H 0.79716 0.73085 0.40953 0.0
H1347 H 0.81217 0.70651 0.42321 0.0
H1348 H 0.78714 0.64294 0.37168 0.0
H1349 H 0.7622 0.65021 0.33835 0.0
C1350 C 0.75578 0.68521 0.34671 0.0
C1351 C 0.75405 0.70425 0.35406 0.0
C1352 C 0.77221 0.68235 0.36229 0.0
C1353 C 0.76957 0.72085 0.37616 0.0
C1354 C 0.78587 0.71809 0.39184 0.0
C1355 C 0.8019 0.69475 0.4037 0.0
C1356 C 0.80173 0.67446 0.3993 0.0
C1357 C 0.78707 0.69871 0.38559 0.0
C1358 C 0.78788 0.65891 0.3748 0.0
C1359 C 0.77338 0.66292 0.35619 0.0
H1360 H 0.2855 0.04696 0.36521 0.0
H1361 H 0.35095 0.05814 0.35182 0.0
H1362 H 0.36645 0.09804 0.36388 0.0
H1363 H 0.36199 0.12787 0.38957 0.0
H1364 H 0.29694 0.11651 0.40542 0.0
H1365 H 0.28065 0.07886 0.3801 0.0
C1366 C 0.30311 0.05818 0.36418 0.0
C1367 C 0.31706 0.04941 0.35851 0.0
C1368 C 0.31201 0.08114 0.37171 0.0
C1369 C 0.3398 0.0643 0.35657 0.0
C1370 C 0.34873 0.08717 0.36359 0.0
C1371 C 0.34424 0.11744 0.38611 0.0
C1372 C 0.33064 0.12477 0.39944 0.0
C1373 C 0.3351 0.09555 0.37279 0.0
C1374 C 0.30769 0.11123 0.39509 0.0
C1375 C 0.29841 0.08957 0.38111 0.0
H1376 H 0.96345 0.29797 0.34383 0.0
H1377 H 0.98237 0.24763 0.33555 0.0
H1378 H 0.94938 0.2213 0.36279 0.0
H1379 H 0.91728 0.21405 0.39431 0.0
H1380 H 0.89909 0.26475 0.40359 0.0
H1381 H 0.92927 0.28929 0.36992 0.0
C1382 C 0.96029 0.28119 0.3478 0.0
C1383 C 0.97555 0.27491 0.33814 0.0
C1384 C 0.94127 0.26613 0.36339 0.0
C1385 C 0.971 0.25297 0.34296 0.0
C1386 C 0.95212 0.23788 0.35852 0.0
C1387 C 0.91952 0.23015 0.38787 0.0
C1388 C 0.90591 0.23756 0.40084 0.0
C1389 C 0.93736 0.24442 0.36943 0.0
C1390 C 0.90921 0.25866 0.39326 0.0
C1391 C 0.92662 0.27276 0.37442 0.0
H1392 H 0.99478 0.37373 0.30852 0.0
H1393 H 0.05727 0.43245 0.33558 0.0
H1394 H 0.04297 0.45642 0.31857 0.0
H1395 H 0.01637 0.46009 0.28313 0.0
H1396 H 0.95548 0.40121 0.25131 0.0
H1397 H 0.96513 0.37797 0.28357 0.0
C1398 C 1.00501 0.39176 0.31189 0.0
C1399 C 0.02725 0.40128 0.32247 0.0
C1400 C 0.99701 0.40545 0.30056 0.0
C1401 C 0.04022 0.42469 0.3269 0.0
C1402 C 0.03208 0.43843 0.31696 0.0
C1403 C 1.00483 0.44232 0.28452 0.0
C1404 C 0.9854 0.43226 0.26476 0.0
C1405 C 0.01104 0.42896 0.30177 0.0
C1406 C 0.97058 0.40921 0.26634 0.0
C1407 C 0.97621 0.39592 0.28452 0.0
H1408 H 0.60074 0.62655 0.32736 0.0
H1409 H 0.65433 0.6178 0.29734 0.0
H1410 H 0.6284 0.57865 0.28172 0.0
H1411 H 0.59025 0.55055 0.26401 0.0
H1412 H 0.53679 0.55989 0.29202 0.0
H1413 H 0.56275 0.59477 0.32193 0.0
C1414 C 0.60681 0.61587 0.3184 0.0
C1415 C 0.62937 0.62523 0.31276 0.0
C1416 C 0.59173 0.59346 0.30885 0.0
C1417 C 0.63705 0.6111 0.30169 0.0
C1418 C 0.62218 0.58871 0.29248 0.0
C1419 C 0.58427 0.55964 0.27822 0.0
C1420 C 0.56171 0.55277 0.2759 0.0
C1421 C 0.59942 0.58014 0.29418 0.0
C1422 C 0.55405 0.56476 0.29385 0.0
C1423 C 0.56896 0.58493 0.31043 0.0
H1424 H 0.37688 0.97829 0.32055 0.0
H1425 H 0.40359 0.04941 0.33508 0.0
H1426 H 0.43802 0.05653 0.3118 0.0
H1427 H 0.45874 0.04248 0.28194 0.0
H1428 H 0.43232 0.97152 0.26768 0.0
H1429 H 0.39984 0.96421 0.29739 0.0
C1430 C 0.39029 0.99533 0.31863 0.0
C1431 C 0.38761 0.01335 0.32873 0.0
C1432 C 0.41016 0.99924 0.30586 0.0
C1433 C 0.40524 0.03532 0.32703 0.0
C1434 C 0.42493 0.03938 0.31387 0.0
C1435 C 0.44624 0.02546 0.28658 0.0
C1436 C 0.44787 0.00753 0.27311 0.0
C1437 C 0.42741 0.02148 0.30269 0.0
C1438 C 0.4315 0.9855 0.2785 0.0
C1439 C 0.41279 0.98137 0.29491 0.0
H1440 H 0.61516 0.02474 0.3523 0.0
H1441 H 0.60816 0.96376 0.30946 0.0
H1442 H 0.57564 0.95732 0.27782 0.0
H1443 H 0.55088 0.97004 0.25921 0.0
H1444 H 0.55978 0.03311 0.29564 0.0
H1445 H 0.58903 0.03717 0.33408 0.0
C1446 C 0.60645 0.01005 0.33607 0.0
C1447 C 0.61427 0.99489 0.33301 0.0
C1448 C 0.58789 0.00665 0.31718 0.0
C1449 C 0.60277 0.97589 0.31195 0.0
C1450 C 0.58403 0.97207 0.294 0.0
C1451 C 0.55906 0.9846 0.27582 0.0
C1452 C 0.55336 1.00138 0.27429 0.0
C1453 C 0.57668 0.98749 0.29605 0.0
C1454 C 0.56378 0.01991 0.29639 0.0
C1455 C 0.58074 0.02238 0.31799 0.0
H1456 H 0.0576 0.62558 0.31123 0.0
H1457 H 0.99527 0.62163 0.32709 0.0
H1458 H 0.97615 0.58129 0.31635 0.0
H1459 H 0.97654 0.54952 0.28923 0.0
H1460 H 0.0384 0.554 0.26945 0.0
H1461 H 0.05833 0.59138 0.29599 0.0
C1462 C 0.03989 0.61586 0.31323 0.0
C1463 C 0.02786 0.62681 0.31886 0.0
C1464 C 0.02888 0.59266 0.30611 0.0
C1465 C 1.00497 0.6138 0.32211 0.0
C1466 C 0.99396 0.59067 0.31586 0.0
C1467 C 0.99437 0.55829 0.29227 0.0
C1468 C 1.00605 0.54925 0.27726 0.0
C1469 C 1.00563 0.5802 0.30594 0.0
C1470 C 0.02912 0.56065 0.28103 0.0
C1471 C 0.04049 0.5822 0.29567 0.0
H1472 H 0.38436 0.41464 0.32534 0.0
H1473 H 0.39857 0.36098 0.33219 0.0
H1474 H 0.43294 0.38301 0.30489 0.0
H1475 H 0.45691 0.41597 0.2743 0.0
H1476 H 0.44321 0.4699 0.26818 0.0
H1477 H 0.41096 0.44968 0.30087 0.0
C1478 C 0.39507 0.40786 0.32095 0.0
C1479 C 0.38881 0.38609 0.33012 0.0
C1480 C 0.41494 0.42075 0.30574 0.0
C1481 C 0.403 0.37763 0.32506 0.0
C1482 C 0.42263 0.39022 0.3095 0.0
C1483 C 0.44717 0.42349 0.28101 0.0
C1484 C 0.45228 0.4443 0.26906 0.0
C1485 C 0.42854 0.4116 0.2992 0.0
C1486 C 0.43963 0.45399 0.27755 0.0
C1487 C 0.42107 0.4423 0.29581 0.0
H1488 H 0.34309 0.30508 0.36212 0.0
H1489 H 0.27339 0.25782 0.34978 0.0
H1490 H 0.27983 0.22719 0.36144 0.0
H1491 H 0.30382 0.21576 0.38858 0.0
H1492 H 0.37272 0.26343 0.40613 0.0
H1493 H 0.36836 0.29175 0.37798 0.0
C1494 C 0.3294 0.28801 0.36094 0.0
C1495 C 0.30774 0.28381 0.35609 0.0
C1496 C 0.33314 0.27051 0.36884 0.0
C1497 C 0.29019 0.26156 0.35429 0.0
C1498 C 0.29385 0.244 0.36097 0.0
C1499 C 0.31803 0.23199 0.38457 0.0
C1500 C 0.33852 0.23764 0.39916 0.0
C1501 C 0.31505 0.24848 0.37022 0.0
C1502 C 0.35686 0.25877 0.39463 0.0
C1503 C 0.35426 0.27505 0.37907 0.0
H1504 H 0.7636 0.04543 0.36538 0.0
H1505 H 0.70963 0.05823 0.35494 0.0
H1506 H 0.73543 0.0984 0.36077 0.0
H1507 H 0.77162 0.12851 0.38194 0.0
H1508 H 0.82477 0.11525 0.39724 0.0
H1509 H 0.80137 0.07695 0.37502 0.0
C1510 C 0.75749 0.057 0.36362 0.0
C1511 C 0.7346 0.04873 0.36072 0.0
C1512 C 0.77238 0.0801 0.36786 0.0
C1513 C 0.72708 0.06403 0.3577 0.0
C1514 C 0.74185 0.08706 0.36112 0.0
C1515 C 0.77836 0.11753 0.37873 0.0
C1516 C 0.79976 0.12453 0.39142 0.0
C1517 C 0.76434 0.09516 0.36799 0.0
C1518 C 0.8084 0.11026 0.38744 0.0
C1519 C 0.79483 0.0882 0.37539 0.0
H1520 H 0.96621 0.665 0.35804 0.0
H1521 H 0.97419 0.72715 0.32475 0.0
H1522 H 0.94242 0.7216 0.35458 0.0
H1523 H 0.91441 0.70068 0.39433 0.0
H1524 H 0.9071 0.63899 0.42798 0.0
H1525 H 0.93615 0.64242 0.3933 0.0
C1526 C 0.96095 0.67729 0.35719 0.0
C1527 C 0.97276 0.69661 0.33959 0.0
C1528 C 0.94263 0.67395 0.37428 0.0
C1529 C 0.96549 0.71219 0.33831 0.0
C1530 C 0.9473 0.70902 0.35534 0.0
C1531 C 0.9188 0.68772 0.39321 0.0
C1532 C 0.90866 0.66955 0.41338 0.0
C1533 C 0.93596 0.69015 0.37386 0.0
C1534 C 0.91466 0.65301 0.41236 0.0
C1535 C 0.93138 0.65509 0.39281 0.0
H1536 H 0.44082 0.04296 0.65133 0.0
H1537 H 0.38466 0.00669 0.70988 0.0
H1538 H 0.40573 0.99512 0.74394 0.0
H1539 H 0.44062 0.99773 0.75971 0.0
H1540 H 0.4982 0.03716 0.70556 0.0
H1541 H 0.47582 0.04416 0.66608 0.0
C1542 C 0.43317 0.03242 0.67143 0.0
C1543 C 0.41125 0.02589 0.67827 0.0
C1544 C 0.44556 0.02618 0.69139 0.0
C1545 C 0.40157 0.0122 0.70436 0.0
C1546 C 0.41356 1.00546 0.72372 0.0
C1547 C 0.44826 0.00771 0.73908 0.0
C1548 C 0.47109 0.01724 0.7358 0.0
C1549 C 0.43564 0.01269 0.71781 0.0
C1550 C 0.48066 0.02964 0.70857 0.0
C1551 C 0.46792 0.03388 0.6863 0.0
H1552 H 0.95235 0.37744 0.71289 0.0
H1553 H 0.01664 0.39263 0.68297 0.0
H1554 H 0.03054 0.43235 0.69359 0.0
H1555 H 0.02655 0.46134 0.72278 0.0
H1556 H 0.96312 0.4461 0.75567 0.0
H1557 H 0.94659 0.40812 0.73152 0.0
C1558 C 0.96925 0.38945 0.70788 0.0
C1559 C 0.98358 0.38192 0.69813 0.0
C1560 C 0.97734 0.41235 0.71475 0.0
C1561 C 1.00532 0.39782 0.69118 0.0
C1562 C 0.01334 0.42062 0.69728 0.0
C1563 C 0.00893 0.44994 0.72333 0.0
C1564 C 0.99607 0.4563 0.74112 0.0
C1565 C 0.99982 0.4279 0.71073 0.0
C1566 C 0.97328 0.44154 0.74191 0.0
C1567 C 0.96392 0.41971 0.72856 0.0
H1568 H 0.61231 0.60596 0.65696 0.0
H1569 H 0.64213 0.57413 0.70981 0.0
H1570 H 0.60822 0.55232 0.73805 0.0
H1571 H 0.57153 0.54527 0.75183 0.0
H1572 H 0.5418 0.5773 0.69994 0.0
H1573 H 0.57394 0.59562 0.66647 0.0
C1574 C 0.61133 0.59416 0.67454 0.0
C1575 C 0.62982 0.59194 0.68168 0.0
C1576 C 0.5917 0.58153 0.69053 0.0
C1577 C 0.62819 0.57629 0.70407 0.0
C1578 C 0.60879 0.56377 0.72019 0.0
C1579 C 0.57184 0.55561 0.73232 0.0
C1580 C 0.55435 0.55972 0.72775 0.0
C1581 C 0.59061 0.56655 0.71405 0.0
C1582 C 0.55497 0.57359 0.70319 0.0
C1583 C 0.57346 0.5843 0.68448 0.0
H1584 H 0.73398 0.7419 0.63311 0.0
H1585 H 0.66519 0.69457 0.64501 0.0
H1586 H 0.65595 0.72343 0.63429 0.0
H1587 H 0.66638 0.75907 0.60926 0.0
H1588 H 0.73459 0.80545 0.59388 0.0
H1589 H 0.74521 0.7804 0.61912 0.0
C1590 C 0.71702 0.738 0.63419 0.0
C1591 C 0.70025 0.71585 0.63892 0.0
C1592 C 0.71171 0.75458 0.62721 0.0
C1593 C 0.67844 0.71131 0.64088 0.0
C1594 C 0.67309 0.72782 0.63463 0.0
C1595 C 0.68364 0.76413 0.61304 0.0
C1596 C 0.69973 0.78402 0.59996 0.0
C1597 C 0.68943 0.74912 0.62605 0.0
C1598 C 0.72201 0.79035 0.60426 0.0
C1599 C 0.72801 0.77582 0.61814 0.0
H1600 H 0.26528 0.97619 0.61714 0.0
H1601 H 0.31914 0.96716 0.64975 0.0
H1602 H 0.29537 0.92673 0.64376 0.0
H1603 H 0.26192 0.89477 0.61852 0.0
H1604 H 0.20861 0.90363 0.58373 0.0
H1605 H 0.22912 0.94306 0.60236 0.0
C1606 C 0.27171 0.96539 0.6236 0.0
C1607 C 0.29418 0.97481 0.63301 0.0
C1608 C 0.25798 0.94204 0.61971 0.0
C1609 C 0.30205 0.96049 0.64193 0.0
C1610 C 0.28846 0.93729 0.63848 0.0
C1611 C 0.25443 0.90514 0.61651 0.0
C1612 C 0.23388 0.89645 0.59978 0.0
C1613 C 0.26674 0.92796 0.62594 0.0
C1614 C 0.22431 0.90995 0.59687 0.0
C1615 C 0.23624 0.9326 0.60698 0.0
H1616 H 0.06923 0.31537 0.68904 0.0
H1617 H 0.05321 0.36088 0.64225 0.0
H1618 H 0.08359 0.37164 0.60661 0.0
H1619 H 0.11205 0.3654 0.58507 0.0
H1620 H 0.12699 0.3183 0.62847 0.0
H1621 H 0.10018 0.31139 0.66989 0.0
C1622 C 0.07257 0.32783 0.6713 0.0
C1623 C 0.05879 0.33708 0.66801 0.0
C1624 C 0.08988 0.33368 0.65038 0.0
C1625 C 0.06336 0.35327 0.645 0.0
C1626 C 0.08077 0.3595 0.62465 0.0
C1627 C 0.1096 0.35381 0.60388 0.0
C1628 C 0.12113 0.3421 0.60359 0.0
C1629 C 0.09372 0.34939 0.62659 0.0
C1630 C 0.11823 0.32747 0.62831 0.0
C1631 C 0.10277 0.32338 0.65172 0.0
H1632 H 0.28882 0.34365 0.66633 0.0
H1633 H 0.25462 0.27806 0.61841 0.0
H1634 H 0.22804 0.2867 0.59307 0.0
H1635 H 0.21642 0.31419 0.58095 0.0
H1636 H 0.25107 0.37978 0.6283 0.0
H1637 H 0.2752 0.36972 0.65818 0.0
C1638 C 0.27554 0.33123 0.65036 0.0
C1639 C 0.27392 0.31037 0.64387 0.0
C1640 C 0.26019 0.33622 0.63617 0.0
C1641 C 0.25635 0.29431 0.62361 0.0
C1642 C 0.2411 0.29922 0.60918 0.0
C1643 C 0.22876 0.32591 0.59872 0.0
C1644 C 0.23179 0.34751 0.60302 0.0
C1645 C 0.24301 0.32022 0.61496 0.0
C1646 C 0.24823 0.36291 0.62525 0.0
C1647 C 0.26219 0.35726 0.64193 0.0
H1648 H 0.72756 0.96227 0.65196 0.0
H1649 H 0.66235 0.95275 0.63618 0.0
H1650 H 0.64759 0.91285 0.62486 0.0
H1651 H 0.6551 0.88341 0.60604 0.0
H1652 H 0.72058 0.89359 0.61838 0.0
H1653 H 0.73316 0.93001 0.64576 0.0
C1654 C 0.71001 0.95137 0.64693 0.0
C1655 C 0.69622 0.96065 0.64395 0.0
C1656 C 0.70168 0.92846 0.63972 0.0
C1657 C 0.67344 0.94619 0.63817 0.0
C1658 C 0.66497 0.92332 0.63153 0.0
C1659 C 0.67182 0.89312 0.61636 0.0
C1660 C 0.68699 0.88604 0.60988 0.0
C1661 C 0.67916 0.91458 0.63037 0.0
C1662 C 0.70861 0.89868 0.62318 0.0
C1663 C 0.7159 0.91974 0.63823 0.0
H1664 H 0.09233 0.74595 0.6972 0.0
H1665 H 0.03868 0.7416 0.63754 0.0
H1666 H 0.06412 0.76322 0.59685 0.0
H1667 H 0.10088 0.78173 0.57676 0.0
H1668 H 0.15491 0.78482 0.63323 0.0
H1669 H 0.1302 0.76595 0.67712 0.0
C1670 C 0.08629 0.74984 0.67535 0.0
C1671 C 0.06361 0.74198 0.67033 0.0
C1672 C 0.10105 0.76215 0.6516 0.0
C1673 C 0.05599 0.74719 0.64192 0.0
C1674 C 0.07053 0.75965 0.61863 0.0
C1675 C 0.10727 0.77825 0.59869 0.0
C1676 C 0.12953 0.78429 0.60165 0.0
C1677 C 0.09296 0.76692 0.62303 0.0
C1678 C 0.13777 0.78028 0.63047 0.0
C1679 C 0.12362 0.76935 0.65538 0.0
H1680 H 0.95492 0.60146 0.71079 0.0
H1681 H 0.02402 0.65111 0.71042 0.0
H1682 H 0.03372 0.6228 0.72307 0.0
H1683 H 0.02244 0.58638 0.74651 0.0
H1684 H 0.95353 0.53761 0.74998 0.0
H1685 H 0.94382 0.56279 0.72307 0.0
C1686 C 0.97211 0.60599 0.71264 0.0
C1687 C 0.9887 0.62852 0.71057 0.0
C1688 C 0.97759 0.58972 0.72068 0.0
C1689 C 0.01088 0.63398 0.71233 0.0
C1690 C 0.01647 0.61779 0.71975 0.0
C1691 C 1.00538 0.58093 0.73979 0.0
C1692 C 0.98868 0.56024 0.74988 0.0
C1693 C 0.99997 0.59592 0.7257 0.0
C1694 C 0.96658 0.55338 0.7419 0.0
C1695 C 0.96106 0.56792 0.72702 0.0
H1696 H 0.3737 0.3918 0.69288 0.0
H1697 H 0.42697 0.37786 0.68867 0.0
H1698 H 0.45376 0.41751 0.69756 0.0
H1699 H 0.4614 0.45413 0.71951 0.0
H1700 H 0.40823 0.46759 0.72814 0.0
H1701 H 0.38226 0.43068 0.70336 0.0
C1702 C 0.39117 0.39752 0.69284 0.0
C1703 C 0.39826 0.38177 0.69096 0.0
C1704 C 0.40659 0.42041 0.69896 0.0
C1705 C 0.421 0.38954 0.69077 0.0
C1706 C 0.43639 0.41226 0.69588 0.0
C1707 C 0.44435 0.44941 0.71426 0.0
C1708 C 0.43669 0.46346 0.7256 0.0
C1709 C 0.42934 0.42765 0.70184 0.0
C1710 C 0.41448 0.45706 0.71929 0.0
C1711 C 0.39957 0.43577 0.7057 0.0
H1712 H 0.62718 0.00638 0.6593 0.0
H1713 H 0.66837 0.07249 0.70362 0.0
H1714 H 0.6372 0.0693 0.73247 0.0
H1715 H 0.59938 0.04603 0.7499 0.0
H1716 H 0.55842 0.97971 0.70703 0.0
H1717 H 0.58806 0.9848 0.67209 0.0
C1718 C 0.62928 0.02014 0.6751 0.0
C1719 C 0.65015 0.03949 0.6797 0.0
C1720 C 0.61124 0.01822 0.69158 0.0
C1721 C 0.65253 0.05733 0.69984 0.0
C1722 C 0.6347 0.05554 0.71633 0.0
C1723 C 0.59677 0.0331 0.73195 0.0
C1724 C 0.57678 0.01272 0.73039 0.0
C1725 C 0.61411 0.03591 0.71291 0.0
C1726 C 0.57359 0.99571 0.70791 0.0
C1727 C 0.59063 0.99851 0.68838 0.0
loop_
_geom_bond_atom_site_label_1
_geom_bond_atom_site_label_2
_geom_bond_distance
_geom_bond_site_symmetry_2
_ccdc_geom_bond_type
Mg0 O1 2.028 1_556 S
Mg0 O7 1.986 1_455 S
Mg0 O9 2.114 . S
Mg0 O10 2.251 1_455 S
Mg0 O13 2.010 1_556 S
O1 Mg0 2.028 1_554 S
O1 C4 1.250 1_455 S
O2 Mg3 2.028 1_554 S
O2 C4 1.248 . S
Mg3 O2 2.028 1_556 S
Mg3 O8 2.032 . S
Mg3 O10 2.079 . S
C4 O1 1.250 1_655 S
C4 O2 1.248 . S
C5 O6 1.264 1_554 S
C5 O13 1.249 . S
O6 C5 1.264 1_556 S
O7 Mg0 1.986 1_655 S
O7 C11 1.246 . S
O8 Mg3 2.032 . S
O8 C11 1.259 . S
O9 Mg0 2.114 . S
O9 C12 1.252 . S
O10 Mg0 2.251 1_655 S
O10 Mg3 2.079 . S
O10 C12 1.273 1_655 S
C11 O7 1.246 . S
C11 O8 1.259 . S
C12 O9 1.252 . S
C12 O10 1.273 1_455 S
O13 Mg0 2.010 1_554 S
O13 C5 1.249 . S
Mg14 O15 2.028 1_554 S
Mg14 O21 1.986 . S
Mg14 O23 2.114 . S
Mg14 O24 2.251 . S
Mg14 O27 2.010 . S
O15 Mg14 2.028 1_556 S
O15 C18 1.250 . S
O16 Mg17 2.028 1_556 S
O16 C18 1.248 . S
Mg17 O16 2.028 1_554 S
Mg17 O22 2.032 . S
Mg17 O24 2.079 . S
C18 O15 1.250 . S
C18 O16 1.248 . S
C19 O20 1.264 . S
C19 O27 1.249 . S
O20 C19 1.264 . S
O21 Mg14 1.986 . S
O21 C25 1.246 . S
O22 Mg17 2.032 . S
O22 C25 1.259 . S
O23 Mg14 2.114 . S
O23 C26 1.252 . S
O24 Mg14 2.251 . S
O24 Mg17 2.079 . S
O24 C26 1.273 . S
C25 O21 1.246 . S
C25 O22 1.259 . S
C26 O23 1.252 . S
C26 O24 1.273 . S
O27 Mg14 2.010 . S
O27 C19 1.249 . S
Mg28 O29 2.023 1_556 S
Mg28 O35 1.986 1_565 S
Mg28 O37 2.114 . S
Mg28 O38 2.251 1_565 S
Mg28 O41 2.010 1_556 S
O29 Mg28 2.023 1_554 S
O29 C32 1.244 1_565 S
O30 Mg31 2.028 1_554 S
O30 C32 1.248 . S
Mg31 O30 2.028 1_556 S
Mg31 O36 2.032 . S
Mg31 O38 2.079 . S
C32 O29 1.244 1_545 S
C32 O30 1.248 . S
C33 O34 1.264 1_554 S
C33 O41 1.249 . S
O34 C33 1.264 1_556 S
O35 Mg28 1.986 1_545 S
O35 C39 1.246 . S
O36 Mg31 2.032 . S
O36 C39 1.259 . S
O37 Mg28 2.114 . S
O37 C40 1.252 . S
O38 Mg28 2.251 1_545 S
O38 Mg31 2.079 . S
O38 C40 1.273 1_545 S
C39 O35 1.246 . S
C39 O36 1.259 . S
C40 O37 1.252 . S
C40 O38 1.273 1_565 S
O41 Mg28 2.010 1_554 S
O41 C33 1.249 . S
Mg42 O43 2.028 1_554 S
Mg42 O49 1.986 1_655 S
Mg42 O51 2.114 . S
Mg42 O52 2.251 1_655 S
Mg42 O55 2.010 . S
O43 Mg42 2.028 1_556 S
O43 C46 1.250 1_655 S
O44 Mg45 2.028 1_556 S
O44 C46 1.248 . S
Mg45 O44 2.028 1_554 S
Mg45 O50 2.032 . S
Mg45 O52 2.079 . S
C46 O43 1.250 1_455 S
C46 O44 1.248 . S
C47 O48 1.264 . S
C47 O55 1.249 . S
O48 C47 1.264 . S
O49 Mg42 1.986 1_455 S
O49 C53 1.246 . S
O50 Mg45 2.032 . S
O50 C53 1.259 . S
O51 Mg42 2.114 . S
O51 C54 1.252 . S
O52 Mg42 2.251 1_455 S
O52 Mg45 2.079 . S
O52 C54 1.273 1_455 S
C53 O49 1.246 . S
C53 O50 1.259 . S
C54 O51 1.252 . S
C54 O52 1.273 1_655 S
O55 Mg42 2.010 . S
O55 C47 1.249 . S
Mg56 O57 2.028 1_556 S
Mg56 O63 1.986 . S
Mg56 O65 2.114 . S
Mg56 O66 2.251 . S
Mg56 O69 2.010 1_556 S
O57 Mg56 2.028 1_554 S
O57 C60 1.250 . S
O58 Mg59 2.028 1_554 S
O58 C60 1.248 . S
Mg59 O58 2.028 1_556 S
Mg59 O64 2.032 . S
Mg59 O66 2.079 . S
C60 O57 1.250 . S
C60 O58 1.248 . S
C61 O62 1.264 . S
C61 O69 1.249 . S
O62 C61 1.264 . S
O63 Mg56 1.986 . S
O63 C67 1.246 . S
O64 Mg59 2.032 . S
O64 C67 1.259 . S
O65 Mg56 2.114 . S
O65 C68 1.252 . S
O66 Mg56 2.251 . S
O66 Mg59 2.079 . S
O66 C68 1.273 . S
C67 O63 1.246 . S
C67 O64 1.259 . S
C68 O65 1.252 . S
C68 O66 1.273 . S
O69 Mg56 2.010 1_554 S
O69 C61 1.249 . S
Mg70 O71 2.028 1_554 S
Mg70 O77 1.986 1_545 S
Mg70 O79 2.114 . S
Mg70 O80 2.251 1_545 S
Mg70 O83 2.010 . S
O71 Mg70 2.028 1_556 S
O71 C74 1.250 1_545 S
O72 Mg73 2.028 1_556 S
O72 C74 1.248 . S
Mg73 O72 2.028 1_554 S
Mg73 O78 2.032 . S
Mg73 O80 2.079 . S
C74 O71 1.250 1_565 S
C74 O72 1.248 . S
C75 O76 1.264 . S
C75 O83 1.249 . S
O76 C75 1.264 . S
O77 Mg70 1.986 1_565 S
O77 C81 1.246 . S
O78 Mg73 2.032 . S
O78 C81 1.259 . S
O79 Mg70 2.114 . S
O79 C82 1.252 . S
O80 Mg70 2.251 1_565 S
O80 Mg73 2.079 . S
O80 C82 1.273 1_565 S
C81 O77 1.246 . S
C81 O78 1.259 . S
C82 O79 1.252 . S
C82 O80 1.273 1_545 S
O83 Mg70 2.010 . S
O83 C75 1.249 . S
Mg84 O85 2.028 . S
Mg84 O91 1.986 . S
Mg84 O93 2.114 . S
Mg84 O94 2.251 . S
Mg84 O97 2.010 . S
O85 Mg84 2.028 . S
O85 C88 1.250 . S
O86 Mg87 2.028 . S
O86 C88 1.248 . S
Mg87 O86 2.028 . S
Mg87 O92 2.032 . S
Mg87 O94 2.079 . S
C88 O85 1.250 . S
C88 O86 1.248 . S
C89 O90 1.264 . S
C89 O97 1.249 . S
O90 C89 1.264 . S
O91 Mg84 1.986 . S
O91 C95 1.246 . S
O92 Mg87 2.032 . S
O92 C95 1.259 . S
O93 Mg84 2.114 . S
O93 C96 1.252 . S
O94 Mg84 2.251 . S
O94 Mg87 2.079 . S
O94 C96 1.273 . S
C95 O91 1.246 . S
C95 O92 1.259 . S
C96 O93 1.252 . S
C96 O94 1.273 . S
O97 Mg84 2.010 . S
O97 C89 1.249 . S
Mg98 O99 2.028 . S
Mg98 O105 1.986 1_565 S
Mg98 O107 2.114 . S
Mg98 O108 2.251 . S
Mg98 O111 2.010 . S
O99 Mg98 2.028 . S
O99 C102 1.250 . S
O100 Mg101 2.028 . S
O100 C102 1.248 . S
Mg101 O100 2.028 . S
Mg101 O106 2.032 1_565 S
Mg101 O108 2.079 . S
C102 O99 1.250 . S
C102 O100 1.248 . S
C103 O104 1.264 . S
C103 O111 1.249 . S
O104 C103 1.264 . S
O105 Mg98 1.986 1_545 S
O105 C109 1.246 . S
O106 Mg101 2.032 1_545 S
O106 C109 1.259 . S
O107 Mg98 2.114 . S
O107 C110 1.252 . S
O108 Mg98 2.251 . S
O108 Mg101 2.079 . S
O108 C110 1.273 . S
C109 O105 1.246 . S
C109 O106 1.259 . S
C110 O107 1.252 . S
C110 O108 1.273 . S
O111 Mg98 2.010 . S
O111 C103 1.249 . S
Mg112 O113 2.028 . S
Mg112 O119 1.986 . S
Mg112 O121 2.114 . S
Mg112 O122 2.251 . S
Mg112 O125 2.010 1_455 S
O113 Mg112 2.028 . S
O113 C116 1.250 . S
O114 Mg115 2.028 . S
O114 C116 1.248 . S
Mg115 O114 2.028 . S
Mg115 O120 2.032 . S
Mg115 O122 2.079 . S
C116 O113 1.250 . S
C116 O114 1.248 . S
C117 O118 1.264 . S
C117 O125 1.249 . S
O118 C117 1.264 . S
O119 Mg112 1.986 . S
O119 C123 1.246 . S
O120 Mg115 2.032 . S
O120 C123 1.259 . S
O121 Mg112 2.114 . S
O121 C124 1.252 . S
O122 Mg112 2.251 . S
O122 Mg115 2.079 . S
O122 C124 1.273 . S
C123 O119 1.246 . S
C123 O120 1.259 . S
C124 O121 1.252 . S
C124 O122 1.273 . S
O125 Mg112 2.010 1_655 S
O125 C117 1.249 . S
Mg126 O127 2.028 . S
Mg126 O133 1.986 1_565 S
Mg126 O135 2.114 . S
Mg126 O136 2.251 . S
Mg126 O139 2.010 . S
O127 Mg126 2.028 . S
O127 C130 1.250 . S
O128 Mg129 2.028 . S
O128 C130 1.248 . S
Mg129 O128 2.028 . S
Mg129 O134 2.032 1_565 S
Mg129 O136 2.079 . S
C130 O127 1.250 . S
C130 O128 1.248 . S
C131 O132 1.264 . S
C131 O139 1.249 . S
O132 C131 1.264 . S
O133 Mg126 1.986 1_545 S
O133 C137 1.246 . S
O134 Mg129 2.032 1_545 S
O134 C137 1.259 . S
O135 Mg126 2.114 . S
O135 C138 1.252 . S
O136 Mg126 2.251 . S
O136 Mg129 2.079 . S
O136 C138 1.273 . S
C137 O133 1.246 . S
C137 O134 1.259 . S
C138 O135 1.252 . S
C138 O136 1.273 . S
O139 Mg126 2.010 . S
O139 C131 1.249 . S
Mg140 O141 2.028 . S
Mg140 O147 1.986 . S
Mg140 O149 2.114 . S
Mg140 O150 2.251 . S
Mg140 O153 2.010 1_455 S
O141 Mg140 2.028 . S
O141 C144 1.250 . S
O142 Mg143 2.028 . S
O142 C144 1.248 . S
Mg143 O142 2.028 . S
Mg143 O148 2.032 . S
Mg143 O150 2.079 . S
C144 O141 1.250 . S
C144 O142 1.248 . S
C145 O146 1.264 . S
C145 O153 1.249 . S
O146 C145 1.264 . S
O147 Mg140 1.986 . S
O147 C151 1.246 . S
O148 Mg143 2.032 . S
O148 C151 1.259 . S
O149 Mg140 2.114 . S
O149 C152 1.252 . S
O150 Mg140 2.251 . S
O150 Mg143 2.079 . S
O150 C152 1.273 . S
C151 O147 1.246 . S
C151 O148 1.259 . S
C152 O149 1.252 . S
C152 O150 1.273 . S
O153 Mg140 2.010 1_655 S
O153 C145 1.249 . S
Mg154 O155 2.028 . S
Mg154 O161 1.986 . S
Mg154 O163 2.114 . S
Mg154 O164 2.251 . S
Mg154 O167 2.010 . S
O155 Mg154 2.028 . S
O155 C158 1.250 . S
O156 Mg157 2.028 . S
O156 C158 1.248 . S
Mg157 O156 2.028 . S
Mg157 O162 2.032 . S
Mg157 O164 2.079 . S
C158 O155 1.250 . S
C158 O156 1.248 . S
C159 O160 1.264 . S
C159 O167 1.249 . S
O160 C159 1.264 . S
O161 Mg154 1.986 . S
O161 C165 1.246 . S
O162 Mg157 2.032 . S
O162 C165 1.259 . S
O163 Mg154 2.114 . S
O163 C166 1.252 . S
O164 Mg154 2.251 . S
O164 Mg157 2.079 . S
O164 C166 1.273 . S
C165 O161 1.246 . S
C165 O162 1.259 . S
C166 O163 1.252 . S
C166 O164 1.273 . S
O167 Mg154 2.010 . S
O167 C159 1.249 . S
Mg168 O169 2.028 . S
Mg168 O175 1.986 1_545 S
Mg168 O177 2.114 . S
Mg168 O178 2.251 . S
Mg168 O181 2.010 . S
O169 Mg168 2.028 . S
O169 C172 1.250 . S
O170 Mg171 2.028 . S
O170 C172 1.248 . S
Mg171 O170 2.028 . S
Mg171 O176 2.032 1_545 S
Mg171 O178 2.079 . S
C172 O169 1.250 . S
C172 O170 1.248 . S
C173 O174 1.264 . S
C173 O181 1.249 . S
O174 C173 1.264 . S
O175 Mg168 1.986 1_565 S
O175 C179 1.246 . S
O176 Mg171 2.032 1_565 S
O176 C179 1.259 . S
O177 Mg168 2.114 . S
O177 C180 1.252 . S
O178 Mg168 2.251 . S
O178 Mg171 2.079 . S
O178 C180 1.273 . S
C179 O175 1.246 . S
C179 O176 1.259 . S
C180 O177 1.252 . S
C180 O178 1.273 . S
O181 Mg168 2.010 . S
O181 C173 1.249 . S
Mg182 O183 2.028 . S
Mg182 O189 1.986 . S
Mg182 O191 2.114 . S
Mg182 O192 2.251 . S
Mg182 O195 2.010 1_655 S
O183 Mg182 2.028 . S
O183 C186 1.250 . S
O184 Mg185 2.028 . S
O184 C186 1.248 . S
Mg185 O184 2.028 . S
Mg185 O190 2.032 . S
Mg185 O192 2.079 . S
C186 O183 1.250 . S
C186 O184 1.248 . S
C187 O188 1.264 . S
C187 O195 1.249 . S
O188 C187 1.264 . S
O189 Mg182 1.986 . S
O189 C193 1.246 . S
O190 Mg185 2.032 . S
O190 C193 1.259 . S
O191 Mg182 2.114 . S
O191 C194 1.252 . S
O192 Mg182 2.251 . S
O192 Mg185 2.079 . S
O192 C194 1.273 . S
C193 O189 1.246 . S
C193 O190 1.259 . S
C194 O191 1.252 . S
C194 O192 1.273 . S
O195 Mg182 2.010 1_455 S
O195 C187 1.249 . S
Mg196 O197 2.028 . S
Mg196 O203 1.986 . S
Mg196 O205 2.114 . S
Mg196 O206 2.251 . S
Mg196 O209 2.010 . S
O197 Mg196 2.028 . S
O197 C200 1.250 . S
O198 Mg199 2.028 . S
O198 C200 1.248 . S
Mg199 O198 2.028 . S
Mg199 O204 2.032 . S
Mg199 O206 2.079 . S
C200 O197 1.250 . S
C200 O198 1.248 . S
C201 O202 1.264 . S
C201 O209 1.249 . S
O202 C201 1.264 . S
O203 Mg196 1.986 . S
O203 C207 1.246 . S
O204 Mg199 2.032 . S
O204 C207 1.259 . S
O205 Mg196 2.114 . S
O205 C208 1.252 . S
O206 Mg196 2.251 . S
O206 Mg199 2.079 . S
O206 C208 1.273 . S
C207 O203 1.246 . S
C207 O204 1.259 . S
C208 O205 1.252 . S
C208 O206 1.273 . S
O209 Mg196 2.010 . S
O209 C201 1.249 . S
Mg210 O211 2.028 . S
Mg210 O217 1.986 . S
Mg210 O219 2.114 . S
Mg210 O220 2.251 . S
Mg210 O223 2.010 . S
O211 Mg210 2.028 . S
O211 C214 1.250 . S
O212 Mg213 2.028 . S
O212 C214 1.248 . S
Mg213 O212 2.028 . S
Mg213 O218 2.032 . S
Mg213 O220 2.079 . S
C214 O211 1.250 . S
C214 O212 1.248 . S
C215 O216 1.264 . S
C215 O223 1.249 . S
O216 C215 1.264 . S
O217 Mg210 1.986 . S
O217 C221 1.246 . S
O218 Mg213 2.032 . S
O218 C221 1.259 . S
O219 Mg210 2.114 . S
O219 C222 1.252 . S
O220 Mg210 2.251 . S
O220 Mg213 2.079 . S
O220 C222 1.273 . S
C221 O217 1.246 . S
C221 O218 1.259 . S
C222 O219 1.252 . S
C222 O220 1.273 . S
O223 Mg210 2.010 . S
O223 C215 1.249 . S
Mg224 O225 2.028 . S
Mg224 O231 1.986 1_545 S
Mg224 O233 2.114 . S
Mg224 O234 2.251 . S
Mg224 O237 2.010 . S
O225 Mg224 2.028 . S
O225 C228 1.250 . S
O226 Mg227 2.028 . S
O226 C228 1.248 . S
Mg227 O226 2.028 . S
Mg227 O232 2.032 1_545 S
Mg227 O234 2.079 . S
C228 O225 1.250 . S
C228 O226 1.248 . S
C229 O230 1.264 . S
C229 O237 1.249 . S
O230 C229 1.264 . S
O231 Mg224 1.986 1_565 S
O231 C235 1.246 . S
O232 Mg227 2.032 1_565 S
O232 C235 1.259 . S
O233 Mg224 2.114 . S
O233 C236 1.252 . S
O234 Mg224 2.251 . S
O234 Mg227 2.079 . S
O234 C236 1.273 . S
C235 O231 1.246 . S
C235 O232 1.259 . S
C236 O233 1.252 . S
C236 O234 1.273 . S
O237 Mg224 2.010 . S
O237 C229 1.249 . S
Mg238 O239 2.028 . S
Mg238 O245 1.986 . S
Mg238 O247 2.114 . S
Mg238 O248 2.251 . S
Mg238 O251 2.010 1_655 S
O239 Mg238 2.028 . S
O239 C242 1.250 . S
O240 Mg241 2.028 . S
O240 C242 1.248 . S
Mg241 O240 2.028 . S
Mg241 O246 2.032 . S
Mg241 O248 2.079 . S
C242 O239 1.250 . S
C242 O240 1.248 . S
C243 O244 1.264 . S
C243 O251 1.249 . S
O244 C243 1.264 . S
O245 Mg238 1.986 . S
O245 C249 1.246 . S
O246 Mg241 2.032 . S
O246 C249 1.259 . S
O247 Mg238 2.114 . S
O247 C250 1.252 . S
O248 Mg238 2.251 . S
O248 Mg241 2.079 . S
O248 C250 1.273 . S
C249 O245 1.246 . S
C249 O246 1.259 . S
C250 O247 1.252 . S
C250 O248 1.273 . S
O251 Mg238 2.010 1_455 S
O251 C243 1.249 . S
H252 C258 0.930 . S
H253 C261 0.931 . S
H254 C263 0.931 . S
H255 C265 0.930 . S
H256 C267 0.930 . S
H257 C269 0.931 . S
C258 H252 0.930 . S
C258 C259 1.380 . S
C258 C260 1.394 . S
C259 C258 1.380 . S
C259 C263 1.382 . S
C260 C258 1.394 . S
C260 C261 1.400 . S
C261 H253 0.931 . S
C261 C260 1.400 . S
C261 C262 1.375 . S
C262 C261 1.375 . S
C262 C263 1.415 . S
C262 C264 1.501 . S
C263 H254 0.931 . S
C263 C259 1.382 . S
C263 C262 1.415 . S
C264 C262 1.501 . S
C264 C265 1.384 . S
C264 C269 1.408 . S
C265 H255 0.930 . S
C265 C264 1.384 . S
C265 C266 1.389 . S
C266 C265 1.389 . S
C266 C267 1.405 . S
C267 H256 0.930 . S
C267 C266 1.405 . S
C267 C268 1.364 . S
C268 C267 1.364 . S
C268 C269 1.400 . S
C269 H257 0.931 . S
C269 C264 1.408 . S
C269 C268 1.400 . S
H270 C276 0.930 . S
H271 C279 0.931 . S
H272 C281 0.931 . S
H273 C283 0.930 . S
H274 C285 0.930 . S
H275 C287 0.931 . S
C276 H270 0.930 . S
C276 C277 1.380 . S
C276 C278 1.394 . S
C277 C276 1.380 . S
C277 C281 1.382 . S
C278 C276 1.394 . S
C278 C279 1.400 . S
C279 H271 0.931 . S
C279 C278 1.400 . S
C279 C280 1.375 . S
C280 C279 1.375 . S
C280 C281 1.415 . S
C280 C282 1.501 . S
C281 H272 0.931 . S
C281 C277 1.382 . S
C281 C280 1.415 . S
C282 C280 1.501 . S
C282 C283 1.384 . S
C282 C287 1.408 . S
C283 H273 0.930 . S
C283 C282 1.384 . S
C283 C284 1.389 . S
C284 C283 1.389 . S
C284 C285 1.405 . S
C285 H274 0.930 . S
C285 C284 1.405 . S
C285 C286 1.364 . S
C286 C285 1.364 . S
C286 C287 1.400 . S
C287 H275 0.931 . S
C287 C282 1.408 . S
C287 C286 1.400 . S
H288 C294 0.930 . S
H289 C297 0.931 . S
H290 C299 0.931 . S
H291 C301 0.930 . S
H292 C303 0.930 . S
H293 C305 0.931 . S
C294 H288 0.930 . S
C294 C295 1.380 . S
C294 C296 1.394 . S
C295 C294 1.380 . S
C295 C299 1.382 . S
C296 C294 1.394 . S
C296 C297 1.400 . S
C297 H289 0.931 . S
C297 C296 1.400 . S
C297 C298 1.375 . S
C298 C297 1.375 . S
C298 C299 1.415 . S
C298 C300 1.501 . S
C299 H290 0.931 . S
C299 C295 1.382 . S
C299 C298 1.415 . S
C300 C298 1.501 . S
C300 C301 1.384 . S
C300 C305 1.408 . S
C301 H291 0.930 . S
C301 C300 1.384 . S
C301 C302 1.389 . S
C302 C301 1.389 . S
C302 C303 1.405 . S
C303 H292 0.930 . S
C303 C302 1.405 . S
C303 C304 1.364 . S
C304 C303 1.364 . S
C304 C305 1.400 . S
C305 H293 0.931 . S
C305 C300 1.408 . S
C305 C304 1.400 . S
H306 C312 0.930 . S
H307 C315 0.931 . S
H308 C317 0.931 . S
H309 C319 0.930 . S
H310 C321 0.930 . S
H311 C323 0.931 . S
C312 H306 0.930 . S
C312 C313 1.380 . S
C312 C314 1.394 . S
C313 C312 1.380 . S
C313 C317 1.382 . S
C314 C312 1.394 . S
C314 C315 1.400 . S
C315 H307 0.931 . S
C315 C314 1.400 . S
C315 C316 1.375 . S
C316 C315 1.375 . S
C316 C317 1.415 . S
C316 C318 1.501 . S
C317 H308 0.931 . S
C317 C313 1.382 . S
C317 C316 1.415 . S
C318 C316 1.501 . S
C318 C319 1.384 . S
C318 C323 1.408 . S
C319 H309 0.930 . S
C319 C318 1.384 . S
C319 C320 1.389 . S
C320 C319 1.389 . S
C320 C321 1.405 . S
C321 H310 0.930 . S
C321 C320 1.405 . S
C321 C322 1.364 . S
C322 C321 1.364 . S
C322 C323 1.400 . S
C323 H311 0.931 . S
C323 C318 1.408 . S
C323 C322 1.400 . S
H324 C330 0.930 . S
H325 C333 0.931 . S
H326 C335 0.931 . S
H327 C337 0.930 . S
H328 C339 0.930 . S
H329 C341 0.931 . S
C330 H324 0.930 . S
C330 C331 1.380 . S
C330 C332 1.394 . S
C331 C330 1.380 . S
C331 C335 1.382 . S
C332 C330 1.394 . S
C332 C333 1.400 . S
C333 H325 0.931 . S
C333 C332 1.400 . S
C333 C334 1.375 . S
C334 C333 1.375 . S
C334 C335 1.415 . S
C334 C336 1.501 . S
C335 H326 0.931 . S
C335 C331 1.382 . S
C335 C334 1.415 . S
C336 C334 1.501 . S
C336 C337 1.384 . S
C336 C341 1.408 . S
C337 H327 0.930 . S
C337 C336 1.384 . S
C337 C338 1.389 . S
C338 C337 1.389 . S
C338 C339 1.405 . S
C339 H328 0.930 . S
C339 C338 1.405 . S
C339 C340 1.364 . S
C340 C339 1.364 . S
C340 C341 1.400 . S
C341 H329 0.931 . S
C341 C336 1.408 . S
C341 C340 1.400 . S
H342 C348 0.930 . S
H343 C351 0.931 . S
H344 C353 0.931 . S
H345 C355 0.930 . S
H346 C357 0.930 . S
H347 C359 0.931 . S
C348 H342 0.930 . S
C348 C349 1.380 . S
C348 C350 1.394 . S
C349 C348 1.380 . S
C349 C353 1.382 . S
C350 C348 1.394 . S
C350 C351 1.400 . S
C351 H343 0.931 . S
C351 C350 1.400 . S
C351 C352 1.375 . S
C352 C351 1.375 . S
C352 C353 1.415 . S
C352 C354 1.501 . S
C353 H344 0.931 . S
C353 C349 1.382 . S
C353 C352 1.415 . S
C354 C352 1.501 . S
C354 C355 1.384 . S
C354 C359 1.408 . S
C355 H345 0.930 . S
C355 C354 1.384 . S
C355 C356 1.389 . S
C356 C355 1.389 . S
C356 C357 1.405 . S
C357 H346 0.930 . S
C357 C356 1.405 . S
C357 C358 1.364 . S
C358 C357 1.364 . S
C358 C359 1.400 . S
C359 H347 0.931 . S
C359 C354 1.408 . S
C359 C358 1.400 . S
H360 C366 0.930 . S
H361 C369 0.931 . S
H362 C371 0.931 . S
H363 C373 0.930 . S
H364 C375 0.930 . S
H365 C377 0.931 . S
C366 H360 0.930 . S
C366 C367 1.380 . S
C366 C368 1.394 . S
C367 C366 1.380 . S
C367 C371 1.382 . S
C368 C366 1.394 . S
C368 C369 1.400 . S
C369 H361 0.931 . S
C369 C368 1.400 . S
C369 C370 1.375 . S
C370 C369 1.375 . S
C370 C371 1.415 . S
C370 C372 1.501 . S
C371 H362 0.931 . S
C371 C367 1.382 . S
C371 C370 1.415 . S
C372 C370 1.501 . S
C372 C373 1.384 . S
C372 C377 1.408 . S
C373 H363 0.930 . S
C373 C372 1.384 . S
C373 C374 1.389 . S
C374 C373 1.389 . S
C374 C375 1.405 . S
C375 H364 0.930 . S
C375 C374 1.405 . S
C375 C376 1.364 . S
C376 C375 1.364 . S
C376 C377 1.400 . S
C377 H365 0.931 . S
C377 C372 1.408 . S
C377 C376 1.400 . S
H378 C384 0.930 . S
H379 C387 0.931 . S
H380 C389 0.931 . S
H381 C391 0.930 . S
H382 C393 0.930 . S
H383 C395 0.931 . S
C384 H378 0.930 . S
C384 C385 1.380 . S
C384 C386 1.394 . S
C385 C384 1.380 . S
C385 C389 1.382 . S
C386 C384 1.394 . S
C386 C387 1.400 . S
C387 H379 0.931 . S
C387 C386 1.400 . S
C387 C388 1.375 . S
C388 C387 1.375 . S
C388 C389 1.415 . S
C388 C390 1.501 . S
C389 H380 0.931 . S
C389 C385 1.382 . S
C389 C388 1.415 . S
C390 C388 1.501 . S
C390 C391 1.384 . S
C390 C395 1.408 . S
C391 H381 0.930 . S
C391 C390 1.384 . S
C391 C392 1.389 . S
C392 C391 1.389 . S
C392 C393 1.405 . S
C393 H382 0.930 . S
C393 C392 1.405 . S
C393 C394 1.364 . S
C394 C393 1.364 . S
C394 C395 1.400 . S
C395 H383 0.931 . S
C395 C390 1.408 . S
C395 C394 1.400 . S
H396 C402 0.930 . S
H397 C405 0.931 . S
H398 C407 0.931 . S
H399 C409 0.930 . S
H400 C411 0.930 . S
H401 C413 0.931 . S
C402 H396 0.930 . S
C402 C403 1.380 . S
C402 C404 1.394 . S
C403 C402 1.380 . S
C403 C407 1.382 . S
C404 C402 1.394 . S
C404 C405 1.400 . S
C405 H397 0.931 . S
C405 C404 1.400 . S
C405 C406 1.375 . S
C406 C405 1.375 . S
C406 C407 1.415 . S
C406 C408 1.501 . S
C407 H398 0.931 . S
C407 C403 1.382 . S
C407 C406 1.415 . S
C408 C406 1.501 . S
C408 C409 1.384 . S
C408 C413 1.408 . S
C409 H399 0.930 . S
C409 C408 1.384 . S
C409 C410 1.389 . S
C410 C409 1.389 . S
C410 C411 1.405 . S
C411 H400 0.930 . S
C411 C410 1.405 . S
C411 C412 1.364 . S
C412 C411 1.364 . S
C412 C413 1.400 . S
C413 H401 0.931 . S
C413 C408 1.408 . S
C413 C412 1.400 . S
H414 C420 0.924 . S
H415 C423 0.931 . S
H416 C425 0.931 . S
H417 C427 0.930 . S
H418 C429 0.930 . S
H419 C431 0.940 . S
C420 H414 0.924 . S
C420 C421 1.385 . S
C420 C422 1.395 1_655 S
C421 C420 1.385 . S
C421 C425 1.382 . S
C422 C420 1.395 1_455 S
C422 C423 1.400 . S
C423 H415 0.931 . S
C423 C422 1.400 . S
C423 C424 1.375 . S
C424 C423 1.375 . S
C424 C425 1.415 1_455 S
C424 C426 1.501 . S
C425 H416 0.931 . S
C425 C421 1.382 . S
C425 C424 1.415 1_655 S
C426 C424 1.501 . S
C426 C427 1.384 . S
C426 C431 1.423 . S
C427 H417 0.930 . S
C427 C426 1.384 . S
C427 C428 1.389 . S
C428 C427 1.389 . S
C428 C429 1.405 . S
C429 H418 0.930 . S
C429 C428 1.405 . S
C429 C430 1.359 . S
C430 C429 1.359 . S
C430 C431 1.391 . S
C431 H419 0.940 . S
C431 C426 1.423 . S
C431 C430 1.391 . S
H432 C438 0.930 . S
H433 C441 0.931 . S
H434 C443 0.931 . S
H435 C445 0.930 . S
H436 C447 0.930 . S
H437 C449 0.931 . S
C438 H432 0.930 . S
C438 C439 1.380 . S
C438 C440 1.394 . S
C439 C438 1.380 . S
C439 C443 1.382 . S
C440 C438 1.394 . S
C440 C441 1.400 . S
C441 H433 0.931 . S
C441 C440 1.400 . S
C441 C442 1.375 . S
C442 C441 1.375 . S
C442 C443 1.415 . S
C442 C444 1.501 . S
C443 H434 0.931 . S
C443 C439 1.382 . S
C443 C442 1.415 . S
C444 C442 1.501 . S
C444 C445 1.384 . S
C444 C449 1.408 . S
C445 H435 0.930 . S
C445 C444 1.384 . S
C445 C446 1.389 . S
C446 C445 1.389 . S
C446 C447 1.405 . S
C447 H436 0.930 . S
C447 C446 1.405 . S
C447 C448 1.364 . S
C448 C447 1.364 . S
C448 C449 1.400 . S
C449 H437 0.931 . S
C449 C444 1.408 . S
C449 C448 1.400 . S
H450 C456 0.940 . S
H451 C459 0.931 . S
H452 C461 0.931 . S
H453 C463 0.930 . S
H454 C465 0.930 . S
H455 C467 0.921 . S
C456 H450 0.940 . S
C456 C457 1.378 . S
C456 C458 1.386 1_545 S
C457 C456 1.378 . S
C457 C461 1.382 . S
C458 C456 1.386 1_565 S
C458 C459 1.400 . S
C459 H451 0.931 . S
C459 C458 1.400 . S
C459 C460 1.375 . S
C460 C459 1.375 . S
C460 C461 1.415 1_565 S
C460 C462 1.501 . S
C461 H452 0.931 . S
C461 C457 1.382 . S
C461 C460 1.415 1_545 S
C462 C460 1.501 . S
C462 C463 1.384 . S
C462 C467 1.395 . S
C463 H453 0.930 . S
C463 C462 1.384 . S
C463 C464 1.389 . S
C464 C463 1.389 . S
C464 C465 1.405 . S
C465 H454 0.930 . S
C465 C464 1.405 . S
C465 C466 1.376 . S
C466 C465 1.376 . S
C466 C467 1.408 . S
C467 H455 0.921 . S
C467 C462 1.395 . S
C467 C466 1.408 . S
H468 C474 0.910 . S
H469 C477 0.931 . S
H470 C479 0.927 . S
H471 C481 0.930 . S
H472 C483 0.930 . S
H473 C485 0.931 . S
C474 H468 0.910 . S
C474 C475 1.386 . S
C474 C476 1.415 1_545 S
C475 C474 1.386 . S
C475 C479 1.404 1_545 S
C476 C474 1.415 1_565 S
C476 C477 1.384 . S
C477 H469 0.931 . S
C477 C476 1.384 . S
C477 C478 1.375 . S
C478 C477 1.375 . S
C478 C479 1.410 . S
C478 C480 1.501 . S
C479 H470 0.927 . S
C479 C475 1.404 1_565 S
C479 C478 1.410 . S
C480 C478 1.501 . S
C480 C481 1.384 . S
C480 C485 1.408 1_565 S
C481 H471 0.930 . S
C481 C480 1.384 . S
C481 C482 1.389 . S
C482 C481 1.389 . S
C482 C483 1.405 . S
C483 H472 0.930 . S
C483 C482 1.405 . S
C483 C484 1.364 1_565 S
C484 C483 1.364 1_545 S
C484 C485 1.400 . S
C485 H473 0.931 . S
C485 C480 1.408 1_545 S
C485 C484 1.400 . S
H486 C492 0.961 . S
H487 C495 0.931 . S
H488 C497 0.933 . S
H489 C499 0.930 . S
H490 C501 0.930 . S
H491 C503 0.931 . S
C492 H486 0.961 . S
C492 C493 1.372 . S
C492 C494 1.372 1_655 S
C493 C492 1.372 . S
C493 C497 1.358 1_655 S
C494 C492 1.372 1_455 S
C494 C495 1.414 . S
C495 H487 0.931 . S
C495 C494 1.414 . S
C495 C496 1.375 . S
C496 C495 1.375 . S
C496 C497 1.424 . S
C496 C498 1.501 . S
C497 H488 0.933 . S
C497 C493 1.358 1_455 S
C497 C496 1.424 . S
C498 C496 1.501 . S
C498 C499 1.384 . S
C498 C503 1.408 1_455 S
C499 H489 0.930 . S
C499 C498 1.384 . S
C499 C500 1.389 . S
C500 C499 1.389 . S
C500 C501 1.405 . S
C501 H490 0.930 . S
C501 C500 1.405 . S
C501 C502 1.364 1_455 S
C502 C501 1.364 1_655 S
C502 C503 1.400 . S
C503 H491 0.931 . S
C503 C498 1.408 1_655 S
C503 C502 1.400 . S
H504 C510 0.930 . S
H505 C513 0.931 . S
H506 C515 0.931 . S
H507 C517 0.930 . S
H508 C519 0.930 . S
H509 C521 0.931 . S
C510 H504 0.930 . S
C510 C511 1.380 . S
C510 C512 1.394 . S
C511 C510 1.380 . S
C511 C515 1.382 . S
C512 C510 1.394 . S
C512 C513 1.400 . S
C513 H505 0.931 . S
C513 C512 1.400 . S
C513 C514 1.375 . S
C514 C513 1.375 . S
C514 C515 1.415 . S
C514 C516 1.501 . S
C515 H506 0.931 . S
C515 C511 1.382 . S
C515 C514 1.415 . S
C516 C514 1.501 . S
C516 C517 1.384 . S
C516 C521 1.408 . S
C517 H507 0.930 . S
C517 C516 1.384 . S
C517 C518 1.389 . S
C518 C517 1.389 . S
C518 C519 1.405 . S
C519 H508 0.930 . S
C519 C518 1.405 . S
C519 C520 1.364 . S
C520 C519 1.364 . S
C520 C521 1.400 . S
C521 H509 0.931 . S
C521 C516 1.408 . S
C521 C520 1.400 . S
H522 C528 0.930 . S
H523 C531 0.931 . S
H524 C533 0.931 . S
H525 C535 0.930 . S
H526 C537 0.930 . S
H527 C539 0.931 . S
C528 H522 0.930 . S
C528 C529 1.380 . S
C528 C530 1.394 . S
C529 C528 1.380 . S
C529 C533 1.382 . S
C530 C528 1.394 . S
C530 C531 1.400 . S
C531 H523 0.931 . S
C531 C530 1.400 . S
C531 C532 1.375 . S
C532 C531 1.375 . S
C532 C533 1.415 . S
C532 C534 1.501 . S
C533 H524 0.931 . S
C533 C529 1.382 . S
C533 C532 1.415 . S
C534 C532 1.501 . S
C534 C535 1.384 . S
C534 C539 1.408 . S
C535 H525 0.930 . S
C535 C534 1.384 . S
C535 C536 1.389 . S
C536 C535 1.389 . S
C536 C537 1.405 . S
C537 H526 0.930 . S
C537 C536 1.405 . S
C537 C538 1.364 . S
C538 C537 1.364 . S
C538 C539 1.400 . S
C539 H527 0.931 . S
C539 C534 1.408 . S
C539 C538 1.400 . S
H540 C546 0.930 . S
H541 C549 0.931 . S
H542 C551 0.931 . S
H543 C553 0.930 . S
H544 C555 0.930 . S
H545 C557 0.931 . S
C546 H540 0.930 . S
C546 C547 1.380 . S
C546 C548 1.394 . S
C547 C546 1.380 . S
C547 C551 1.382 . S
C548 C546 1.394 . S
C548 C549 1.400 . S
C549 H541 0.931 . S
C549 C548 1.400 . S
C549 C550 1.375 . S
C550 C549 1.375 . S
C550 C551 1.415 . S
C550 C552 1.501 . S
C551 H542 0.931 . S
C551 C547 1.382 . S
C551 C550 1.415 . S
C552 C550 1.501 . S
C552 C553 1.384 . S
C552 C557 1.408 . S
C553 H543 0.930 . S
C553 C552 1.384 . S
C553 C554 1.389 . S
C554 C553 1.389 . S
C554 C555 1.405 . S
C555 H544 0.930 . S
C555 C554 1.405 . S
C555 C556 1.364 . S
C556 C555 1.364 . S
C556 C557 1.400 . S
C557 H545 0.931 . S
C557 C552 1.408 . S
C557 C556 1.400 . S
H558 C564 0.930 . S
H559 C567 0.931 . S
H560 C569 0.931 . S
H561 C571 0.930 . S
H562 C573 0.930 . S
H563 C575 0.931 . S
C564 H558 0.930 . S
C564 C565 1.380 . S
C564 C566 1.394 . S
C565 C564 1.380 . S
C565 C569 1.382 . S
C566 C564 1.394 . S
C566 C567 1.400 . S
C567 H559 0.931 . S
C567 C566 1.400 . S
C567 C568 1.375 . S
C568 C567 1.375 . S
C568 C569 1.415 . S
C568 C570 1.501 . S
C569 H560 0.931 . S
C569 C565 1.382 . S
C569 C568 1.415 . S
C570 C568 1.501 . S
C570 C571 1.384 . S
C570 C575 1.408 . S
C571 H561 0.930 . S
C571 C570 1.384 . S
C571 C572 1.389 . S
C572 C571 1.389 . S
C572 C573 1.405 . S
C573 H562 0.930 . S
C573 C572 1.405 . S
C573 C574 1.364 . S
C574 C573 1.364 . S
C574 C575 1.400 . S
C575 H563 0.931 . S
C575 C570 1.408 . S
C575 C574 1.400 . S
H576 C582 0.930 . S
H577 C585 0.930 . S
H578 C586 0.930 . S
H579 C587 0.930 . S
H580 C590 0.930 . S
H581 C591 0.930 . S
C582 H576 0.930 . S
C582 C583 1.355 . S
C582 C584 1.415 . S
C583 C582 1.355 . S
C583 C585 1.419 1_655 S
C584 C582 1.415 . S
C584 C589 1.425 1_655 S
C584 C591 1.409 . S
C585 H577 0.930 . S
C585 C583 1.419 1_455 S
C585 C586 1.362 . S
C586 H578 0.930 . S
C586 C585 1.362 . S
C586 C589 1.409 . S
C587 H579 0.930 . S
C587 C588 1.355 1_455 S
C587 C589 1.415 . S
C588 C587 1.355 1_655 S
C588 C590 1.419 . S
C589 C584 1.425 1_455 S
C589 C586 1.409 . S
C589 C587 1.415 . S
C590 H580 0.930 . S
C590 C588 1.419 . S
C590 C591 1.362 . S
C591 H581 0.930 . S
C591 C584 1.409 . S
C591 C590 1.362 . S
H592 C598 0.930 . S
H593 C601 0.930 . S
H594 C602 0.930 . S
H595 C603 0.930 . S
H596 C606 0.930 . S
H597 C607 0.930 . S
C598 H592 0.930 . S
C598 C599 1.355 . S
C598 C600 1.415 . S
C599 C598 1.355 . S
C599 C601 1.419 . S
C600 C598 1.415 . S
C600 C605 1.425 . S
C600 C607 1.409 . S
C601 H593 0.930 . S
C601 C599 1.419 . S
C601 C602 1.362 . S
C602 H594 0.930 . S
C602 C601 1.362 . S
C602 C605 1.409 . S
C603 H595 0.930 . S
C603 C604 1.355 . S
C603 C605 1.415 . S
C604 C603 1.355 . S
C604 C606 1.419 . S
C605 C600 1.425 . S
C605 C602 1.409 . S
C605 C603 1.415 . S
C606 H596 0.930 . S
C606 C604 1.419 . S
C606 C607 1.362 . S
C607 H597 0.930 . S
C607 C600 1.409 . S
C607 C606 1.362 . S
H608 C614 0.930 . S
H609 C617 0.930 . S
H610 C618 0.930 . S
H611 C619 0.930 . S
H612 C622 0.930 . S
H613 C623 0.930 . S
C614 H608 0.930 . S
C614 C615 1.355 . S
C614 C616 1.415 . S
C615 C614 1.355 . S
C615 C617 1.419 1_545 S
C616 C614 1.415 . S
C616 C621 1.425 . S
C616 C623 1.409 . S
C617 H609 0.930 . S
C617 C615 1.419 1_565 S
C617 C618 1.362 . S
C618 H610 0.930 . S
C618 C617 1.362 . S
C618 C621 1.409 1_565 S
C619 H611 0.930 . S
C619 C620 1.355 1_565 S
C619 C621 1.415 1_565 S
C620 C619 1.355 1_545 S
C620 C622 1.419 . S
C621 C616 1.425 . S
C621 C618 1.409 1_545 S
C621 C619 1.415 1_545 S
C622 H612 0.930 . S
C622 C620 1.419 . S
C622 C623 1.362 . S
C623 H613 0.930 . S
C623 C616 1.409 . S
C623 C622 1.362 . S
H624 C630 0.901 1_545 S
H625 C633 0.930 . S
H626 C634 0.930 . S
H627 C635 0.930 . S
H628 C638 0.930 . S
H629 C639 0.930 . S
C630 H624 0.901 1_565 S
C630 C631 1.355 . S
C630 C632 1.415 . S
C631 C630 1.355 . S
C631 C633 1.419 . S
C632 C630 1.415 . S
C632 C637 1.425 . S
C632 C639 1.409 1_565 S
C633 H625 0.930 . S
C633 C631 1.419 . S
C633 C634 1.362 . S
C634 H626 0.930 . S
C634 C633 1.362 . S
C634 C637 1.409 . S
C635 H627 0.930 . S
C635 C636 1.355 . S
C635 C637 1.415 . S
C636 C635 1.355 . S
C636 C638 1.419 1_565 S
C637 C632 1.425 . S
C637 C634 1.409 . S
C637 C635 1.415 . S
C638 H628 0.930 . S
C638 C636 1.419 1_545 S
C638 C639 1.362 . S
C639 H629 0.930 . S
C639 C632 1.409 1_545 S
C639 C638 1.362 . S
H640 C646 0.930 . S
H641 C649 0.930 . S
H642 C650 0.930 . S
H643 C651 0.930 . S
H644 C654 0.930 . S
H645 C655 0.930 . S
C646 H640 0.930 . S
C646 C647 1.355 . S
C646 C648 1.415 . S
C647 C646 1.355 . S
C647 C649 1.419 1_455 S
C648 C646 1.415 . S
C648 C653 1.410 1_455 S
C648 C655 1.409 . S
C649 H641 0.930 . S
C649 C647 1.419 1_655 S
C649 C650 1.362 . S
C650 H642 0.930 . S
C650 C649 1.362 . S
C650 C653 1.415 . S
C651 H643 0.930 . S
C651 C652 1.355 1_655 S
C651 C653 1.424 . S
C652 C651 1.355 1_455 S
C652 C654 1.419 . S
C653 C648 1.410 1_655 S
C653 C650 1.415 . S
C653 C651 1.424 . S
C654 H644 0.930 . S
C654 C652 1.419 . S
C654 C655 1.362 . S
C655 H645 0.930 . S
C655 C648 1.409 . S
C655 C654 1.362 . S
H656 C662 0.930 . S
H657 C665 0.930 . S
H658 C666 0.930 . S
H659 C667 0.930 . S
H660 C670 0.930 . S
H661 C671 0.930 . S
C662 H656 0.930 . S
C662 C663 1.355 . S
C662 C664 1.415 . S
C663 C662 1.355 . S
C663 C665 1.419 . S
C664 C662 1.415 . S
C664 C669 1.425 . S
C664 C671 1.409 . S
C665 H657 0.930 . S
C665 C663 1.419 . S
C665 C666 1.362 . S
C666 H658 0.930 . S
C666 C665 1.362 . S
C666 C669 1.409 . S
C667 H659 0.930 . S
C667 C668 1.355 . S
C667 C669 1.415 . S
C668 C667 1.355 . S
C668 C670 1.419 . S
C669 C664 1.425 . S
C669 C666 1.409 . S
C669 C667 1.415 . S
C670 H660 0.930 . S
C670 C668 1.419 . S
C670 C671 1.362 . S
C671 H661 0.930 . S
C671 C664 1.409 . S
C671 C670 1.362 . S
H672 C678 0.930 . S
H673 C681 0.930 . S
H674 C682 0.930 . S
H675 C683 0.930 . S
H676 C686 0.930 . S
H677 C687 0.930 . S
C678 H672 0.930 . S
C678 C679 1.355 1_655 S
C678 C680 1.415 . S
C679 C678 1.355 1_455 S
C679 C681 1.419 . S
C680 C678 1.415 . S
C680 C685 1.425 1_655 S
C680 C687 1.409 . S
C681 H673 0.930 . S
C681 C679 1.419 . S
C681 C682 1.362 . S
C682 H674 0.930 . S
C682 C681 1.362 . S
C682 C685 1.409 . S
C683 H675 0.930 . S
C683 C684 1.355 1_455 S
C683 C685 1.415 . S
C684 C683 1.355 1_655 S
C684 C686 1.419 . S
C685 C680 1.425 1_455 S
C685 C682 1.409 . S
C685 C683 1.415 . S
C686 H676 0.930 . S
C686 C684 1.419 . S
C686 C687 1.362 . S
C687 H677 0.930 . S
C687 C680 1.409 . S
C687 C686 1.362 . S
H688 C694 0.930 . S
H689 C697 0.930 . S
H690 C698 0.930 . S
H691 C699 0.930 . S
H692 C702 0.930 . S
H693 C703 0.930 . S
C694 H688 0.930 . S
C694 C695 1.355 . S
C694 C696 1.415 . S
C695 C694 1.355 . S
C695 C697 1.419 . S
C696 C694 1.415 . S
C696 C701 1.425 . S
C696 C703 1.409 . S
C697 H689 0.930 . S
C697 C695 1.419 . S
C697 C698 1.362 . S
C698 H690 0.930 . S
C698 C697 1.362 . S
C698 C701 1.409 . S
C699 H691 0.930 . S
C699 C700 1.355 . S
C699 C701 1.415 . S
C700 C699 1.355 . S
C700 C702 1.419 . S
C701 C696 1.425 . S
C701 C698 1.409 . S
C701 C699 1.415 . S
C702 H692 0.930 . S
C702 C700 1.419 . S
C702 C703 1.362 . S
C703 H693 0.930 . S
C703 C696 1.409 . S
C703 C702 1.362 . S
H704 C710 0.930 . S
H705 C713 0.930 . S
H706 C714 0.930 . S
H707 C715 0.930 . S
H708 C718 0.930 . S
H709 C719 0.930 . S
C710 H704 0.930 . S
C710 C711 1.355 . S
C710 C712 1.415 . S
C711 C710 1.355 . S
C711 C713 1.419 . S
C712 C710 1.415 . S
C712 C717 1.425 . S
C712 C719 1.409 . S
C713 H705 0.930 . S
C713 C711 1.419 . S
C713 C714 1.362 . S
C714 H706 0.930 . S
C714 C713 1.362 . S
C714 C717 1.409 . S
C715 H707 0.930 . S
C715 C716 1.361 . S
C715 C717 1.415 . S
C716 C715 1.361 . S
C716 C718 1.447 . S
C717 C712 1.425 . S
C717 C714 1.409 . S
C717 C715 1.415 . S
C718 H708 0.930 . S
C718 C716 1.447 . S
C718 C719 1.362 . S
C719 H709 0.930 . S
C719 C712 1.409 . S
C719 C718 1.362 . S
H720 C726 0.930 . S
H721 C729 0.930 . S
H722 C730 0.930 . S
H723 C731 0.930 . S
H724 C734 0.930 . S
H725 C735 0.930 . S
C726 H720 0.930 . S
C726 C727 1.355 1_565 S
C726 C728 1.415 . S
C727 C726 1.355 1_545 S
C727 C729 1.419 . S
C728 C726 1.415 . S
C728 C733 1.425 1_565 S
C728 C735 1.409 . S
C729 H721 0.930 . S
C729 C727 1.419 . S
C729 C730 1.362 . S
C730 H722 0.930 . S
C730 C729 1.362 . S
C730 C733 1.409 . S
C731 H723 0.930 . S
C731 C732 1.337 1_545 S
C731 C733 1.415 . S
C732 C731 1.337 1_565 S
C732 C734 1.455 . S
C733 C728 1.425 1_545 S
C733 C730 1.409 . S
C733 C731 1.415 . S
C734 H724 0.930 . S
C734 C732 1.455 . S
C734 C735 1.362 . S
C735 H725 0.930 . S
C735 C728 1.409 . S
C735 C734 1.362 . S
H736 C742 0.930 . S
H737 C745 0.930 . S
H738 C746 0.930 . S
H739 C747 0.930 . S
H740 C750 0.930 . S
H741 C751 0.930 . S
C742 H736 0.930 . S
C742 C743 1.355 . S
C742 C744 1.415 . S
C743 C742 1.355 . S
C743 C745 1.419 1_655 S
C744 C742 1.415 . S
C744 C749 1.425 1_655 S
C744 C751 1.409 . S
C745 H737 0.930 . S
C745 C743 1.419 1_455 S
C745 C746 1.362 . S
C746 H738 0.930 . S
C746 C745 1.362 . S
C746 C749 1.409 . S
C747 H739 0.930 . S
C747 C748 1.355 1_455 S
C747 C749 1.415 . S
C748 C747 1.355 1_655 S
C748 C750 1.419 . S
C749 C744 1.425 1_455 S
C749 C746 1.409 . S
C749 C747 1.415 . S
C750 H740 0.930 . S
C750 C748 1.419 . S
C750 C751 1.362 . S
C751 H741 0.930 . S
C751 C744 1.409 . S
C751 C750 1.362 . S
H752 C758 0.930 . S
H753 C761 0.930 . S
H754 C762 0.930 . S
H755 C763 0.930 . S
H756 C766 0.930 . S
H757 C767 0.930 . S
C758 H752 0.930 . S
C758 C759 1.355 . S
C758 C760 1.415 . S
C759 C758 1.355 . S
C759 C761 1.419 . S
C760 C758 1.415 . S
C760 C765 1.425 . S
C760 C767 1.409 . S
C761 H753 0.930 . S
C761 C759 1.419 . S
C761 C762 1.362 . S
C762 H754 0.930 . S
C762 C761 1.362 . S
C762 C765 1.409 . S
C763 H755 0.930 . S
C763 C764 1.355 . S
C763 C765 1.415 . S
C764 C763 1.355 . S
C764 C766 1.419 . S
C765 C760 1.425 . S
C765 C762 1.409 . S
C765 C763 1.415 . S
C766 H756 0.930 . S
C766 C764 1.419 . S
C766 C767 1.362 . S
C767 H757 0.930 . S
C767 C760 1.409 . S
C767 C766 1.362 . S
H768 C774 0.930 . S
H769 C777 0.930 . S
H770 C778 0.930 . S
H771 C779 0.930 . S
H772 C782 0.930 . S
H773 C783 0.930 . S
C774 H768 0.930 . S
C774 C775 1.355 . S
C774 C776 1.415 . S
C775 C774 1.355 . S
C775 C777 1.419 . S
C776 C774 1.415 . S
C776 C781 1.425 . S
C776 C783 1.409 . S
C777 H769 0.930 . S
C777 C775 1.419 . S
C777 C778 1.362 . S
C778 H770 0.930 . S
C778 C777 1.362 . S
C778 C781 1.409 . S
C779 H771 0.930 . S
C779 C780 1.355 . S
C779 C781 1.415 . S
C780 C779 1.355 . S
C780 C782 1.419 . S
C781 C776 1.425 . S
C781 C778 1.409 . S
C781 C779 1.415 . S
C782 H772 0.930 . S
C782 C780 1.419 . S
C782 C783 1.362 . S
C783 H773 0.930 . S
C783 C776 1.409 . S
C783 C782 1.362 . S
H784 C790 0.930 . S
H785 C793 0.930 . S
H786 C794 0.930 . S
H787 C795 0.930 . S
H788 C798 0.930 . S
H789 C799 0.930 . S
C790 H784 0.930 . S
C790 C791 1.355 . S
C790 C792 1.415 . S
C791 C790 1.355 . S
C791 C793 1.419 . S
C792 C790 1.415 . S
C792 C797 1.425 . S
C792 C799 1.409 . S
C793 H785 0.930 . S
C793 C791 1.419 . S
C793 C794 1.362 . S
C794 H786 0.930 . S
C794 C793 1.362 . S
C794 C797 1.409 . S
C795 H787 0.930 . S
C795 C796 1.355 . S
C795 C797 1.415 . S
C796 C795 1.355 . S
C796 C798 1.419 . S
C797 C792 1.425 . S
C797 C794 1.409 . S
C797 C795 1.415 . S
C798 H788 0.930 . S
C798 C796 1.419 . S
C798 C799 1.362 . S
C799 H789 0.930 . S
C799 C792 1.409 . S
C799 C798 1.362 . S
H800 C806 0.930 . S
H801 C809 0.930 . S
H802 C810 0.930 . S
H803 C811 0.930 . S
H804 C814 0.930 . S
H805 C815 0.930 . S
C806 H800 0.930 . S
C806 C807 1.355 . S
C806 C808 1.415 . S
C807 C806 1.355 . S
C807 C809 1.419 . S
C808 C806 1.415 . S
C808 C813 1.425 . S
C808 C815 1.409 . S
C809 H801 0.930 . S
C809 C807 1.419 . S
C809 C810 1.362 . S
C810 H802 0.930 . S
C810 C809 1.362 . S
C810 C813 1.409 . S
C811 H803 0.930 . S
C811 C812 1.355 . S
C811 C813 1.415 . S
C812 C811 1.355 . S
C812 C814 1.419 . S
C813 C808 1.425 . S
C813 C810 1.409 . S
C813 C811 1.415 . S
C814 H804 0.930 . S
C814 C812 1.419 . S
C814 C815 1.362 . S
C815 H805 0.930 . S
C815 C808 1.409 . S
C815 C814 1.362 . S
H816 C822 0.930 . S
H817 C825 0.930 . S
H818 C826 0.930 . S
H819 C827 0.930 . S
H820 C830 0.930 . S
H821 C831 0.930 . S
C822 H816 0.930 . S
C822 C823 1.355 . S
C822 C824 1.415 . S
C823 C822 1.355 . S
C823 C825 1.419 . S
C824 C822 1.415 . S
C824 C829 1.425 . S
C824 C831 1.409 . S
C825 H817 0.930 . S
C825 C823 1.419 . S
C825 C826 1.362 . S
C826 H818 0.930 . S
C826 C825 1.362 . S
C826 C829 1.409 . S
C827 H819 0.930 . S
C827 C828 1.355 . S
C827 C829 1.415 . S
C828 C827 1.355 . S
C828 C830 1.419 . S
C829 C824 1.425 . S
C829 C826 1.409 . S
C829 C827 1.415 . S
C830 H820 0.930 . S
C830 C828 1.419 . S
C830 C831 1.362 . S
C831 H821 0.930 . S
C831 C824 1.409 . S
C831 C830 1.362 . S
H832 C838 0.930 . S
H833 C841 0.930 . S
H834 C842 0.930 . S
H835 C843 0.930 . S
H836 C846 0.930 . S
H837 C847 0.930 . S
C838 H832 0.930 . S
C838 C839 1.355 . S
C838 C840 1.415 . S
C839 C838 1.355 . S
C839 C841 1.419 . S
C840 C838 1.415 . S
C840 C845 1.425 . S
C840 C847 1.409 . S
C841 H833 0.930 . S
C841 C839 1.419 . S
C841 C842 1.362 . S
C842 H834 0.930 . S
C842 C841 1.362 . S
C842 C845 1.409 . S
C843 H835 0.930 . S
C843 C844 1.355 . S
C843 C845 1.415 . S
C844 C843 1.355 . S
C844 C846 1.419 . S
C845 C840 1.425 . S
C845 C842 1.409 . S
C845 C843 1.415 . S
C846 H836 0.930 . S
C846 C844 1.419 . S
C846 C847 1.362 . S
C847 H837 0.930 . S
C847 C840 1.409 . S
C847 C846 1.362 . S
H848 C854 0.930 . S
H849 C857 0.930 . S
H850 C858 0.930 . S
H851 C859 0.930 . S
H852 C862 0.930 . S
H853 C863 0.930 . S
C854 H848 0.930 . S
C854 C855 1.355 . S
C854 C856 1.415 . S
C855 C854 1.355 . S
C855 C857 1.419 . S
C856 C854 1.415 . S
C856 C861 1.425 . S
C856 C863 1.409 . S
C857 H849 0.930 . S
C857 C855 1.419 . S
C857 C858 1.362 . S
C858 H850 0.930 . S
C858 C857 1.362 . S
C858 C861 1.409 . S
C859 H851 0.930 . S
C859 C860 1.355 . S
C859 C861 1.415 . S
C860 C859 1.355 . S
C860 C862 1.419 . S
C861 C856 1.425 . S
C861 C858 1.409 . S
C861 C859 1.415 . S
C862 H852 0.930 . S
C862 C860 1.419 . S
C862 C863 1.362 . S
C863 H853 0.930 . S
C863 C856 1.409 . S
C863 C862 1.362 . S
H864 C870 0.930 . S
H865 C873 0.930 . S
H866 C874 0.930 . S
H867 C875 0.930 . S
H868 C878 0.930 . S
H869 C879 0.930 . S
C870 H864 0.930 . S
C870 C871 1.355 . S
C870 C872 1.415 . S
C871 C870 1.355 . S
C871 C873 1.419 . S
C872 C870 1.415 . S
C872 C877 1.425 . S
C872 C879 1.409 . S
C873 H865 0.930 . S
C873 C871 1.419 . S
C873 C874 1.362 . S
C874 H866 0.930 . S
C874 C873 1.362 . S
C874 C877 1.409 . S
C875 H867 0.930 . S
C875 C876 1.355 . S
C875 C877 1.415 . S
C876 C875 1.355 . S
C876 C878 1.419 . S
C877 C872 1.425 . S
C877 C874 1.409 . S
C877 C875 1.415 . S
C878 H868 0.930 . S
C878 C876 1.419 . S
C878 C879 1.362 . S
C879 H869 0.930 . S
C879 C872 1.409 . S
C879 C878 1.362 . S
H880 C886 0.930 . S
H881 C889 0.930 . S
H882 C890 0.930 . S
H883 C891 0.930 . S
H884 C894 0.930 . S
H885 C895 0.930 . S
C886 H880 0.930 . S
C886 C887 1.355 . S
C886 C888 1.415 . S
C887 C886 1.355 . S
C887 C889 1.419 . S
C888 C886 1.415 . S
C888 C893 1.425 . S
C888 C895 1.409 . S
C889 H881 0.930 . S
C889 C887 1.419 . S
C889 C890 1.362 . S
C890 H882 0.930 . S
C890 C889 1.362 . S
C890 C893 1.409 . S
C891 H883 0.930 . S
C891 C892 1.355 . S
C891 C893 1.415 . S
C892 C891 1.355 . S
C892 C894 1.419 . S
C893 C888 1.425 . S
C893 C890 1.409 . S
C893 C891 1.415 . S
C894 H884 0.930 . S
C894 C892 1.419 . S
C894 C895 1.362 . S
C895 H885 0.930 . S
C895 C888 1.409 . S
C895 C894 1.362 . S
H896 C902 0.930 . S
H897 C905 0.930 . S
H898 C906 0.930 . S
H899 C907 0.930 . S
H900 C910 0.930 . S
H901 C911 0.930 . S
C902 H896 0.930 . S
C902 C903 1.355 . S
C902 C904 1.415 . S
C903 C902 1.355 . S
C903 C905 1.419 . S
C904 C902 1.415 . S
C904 C909 1.425 . S
C904 C911 1.409 . S
C905 H897 0.930 . S
C905 C903 1.419 . S
C905 C906 1.362 . S
C906 H898 0.930 . S
C906 C905 1.362 . S
C906 C909 1.409 . S
C907 H899 0.930 . S
C907 C908 1.355 . S
C907 C909 1.415 . S
C908 C907 1.355 . S
C908 C910 1.419 . S
C909 C904 1.425 . S
C909 C906 1.409 . S
C909 C907 1.415 . S
C910 H900 0.930 . S
C910 C908 1.419 . S
C910 C911 1.362 . S
C911 H901 0.930 . S
C911 C904 1.409 . S
C911 C910 1.362 . S
H912 C918 0.930 . S
H913 C921 0.930 . S
H914 C922 0.930 . S
H915 C923 0.930 . S
H916 C926 0.930 . S
H917 C927 0.930 . S
C918 H912 0.930 . S
C918 C919 1.355 . S
C918 C920 1.415 . S
C919 C918 1.355 . S
C919 C921 1.419 . S
C920 C918 1.415 . S
C920 C925 1.425 . S
C920 C927 1.409 . S
C921 H913 0.930 . S
C921 C919 1.419 . S
C921 C922 1.362 . S
C922 H914 0.930 . S
C922 C921 1.362 . S
C922 C925 1.409 . S
C923 H915 0.930 . S
C923 C924 1.355 . S
C923 C925 1.415 . S
C924 C923 1.355 . S
C924 C926 1.419 . S
C925 C920 1.425 . S
C925 C922 1.409 . S
C925 C923 1.415 . S
C926 H916 0.930 . S
C926 C924 1.419 . S
C926 C927 1.362 . S
C927 H917 0.930 . S
C927 C920 1.409 . S
C927 C926 1.362 . S
H928 C934 0.930 . S
H929 C937 0.930 . S
H930 C938 0.930 . S
H931 C939 0.930 . S
H932 C942 0.930 . S
H933 C943 0.930 . S
C934 H928 0.930 . S
C934 C935 1.355 . S
C934 C936 1.415 . S
C935 C934 1.355 . S
C935 C937 1.419 . S
C936 C934 1.415 . S
C936 C941 1.425 . S
C936 C943 1.409 . S
C937 H929 0.930 . S
C937 C935 1.419 . S
C937 C938 1.362 . S
C938 H930 0.930 . S
C938 C937 1.362 . S
C938 C941 1.409 . S
C939 H931 0.930 . S
C939 C940 1.355 . S
C939 C941 1.415 . S
C940 C939 1.355 . S
C940 C942 1.419 . S
C941 C936 1.425 . S
C941 C938 1.409 . S
C941 C939 1.415 . S
C942 H932 0.930 . S
C942 C940 1.419 . S
C942 C943 1.362 . S
C943 H933 0.930 . S
C943 C936 1.409 . S
C943 C942 1.362 . S
H944 C950 0.930 . S
H945 C953 0.930 . S
H946 C954 0.930 . S
H947 C955 0.930 . S
H948 C958 0.930 . S
H949 C959 0.930 . S
C950 H944 0.930 . S
C950 C951 1.355 . S
C950 C952 1.415 . S
C951 C950 1.355 . S
C951 C953 1.419 . S
C952 C950 1.415 . S
C952 C957 1.425 . S
C952 C959 1.409 . S
C953 H945 0.930 . S
C953 C951 1.419 . S
C953 C954 1.362 . S
C954 H946 0.930 . S
C954 C953 1.362 . S
C954 C957 1.409 . S
C955 H947 0.930 . S
C955 C956 1.355 . S
C955 C957 1.415 . S
C956 C955 1.355 . S
C956 C958 1.419 . S
C957 C952 1.425 . S
C957 C954 1.409 . S
C957 C955 1.415 . S
C958 H948 0.930 . S
C958 C956 1.419 . S
C958 C959 1.362 . S
C959 H949 0.930 . S
C959 C952 1.409 . S
C959 C958 1.362 . S
H960 C966 0.930 . S
H961 C969 0.930 . S
H962 C970 0.930 . S
H963 C971 0.930 . S
H964 C974 0.930 . S
H965 C975 0.930 . S
C966 H960 0.930 . S
C966 C967 1.355 . S
C966 C968 1.415 . S
C967 C966 1.355 . S
C967 C969 1.419 . S
C968 C966 1.415 . S
C968 C973 1.425 . S
C968 C975 1.409 . S
C969 H961 0.930 . S
C969 C967 1.419 . S
C969 C970 1.362 . S
C970 H962 0.930 . S
C970 C969 1.362 . S
C970 C973 1.409 . S
C971 H963 0.930 . S
C971 C972 1.355 . S
C971 C973 1.415 . S
C972 C971 1.355 . S
C972 C974 1.419 . S
C973 C968 1.425 . S
C973 C970 1.409 . S
C973 C971 1.415 . S
C974 H964 0.930 . S
C974 C972 1.419 . S
C974 C975 1.362 . S
C975 H965 0.930 . S
C975 C968 1.409 . S
C975 C974 1.362 . S
H976 C982 0.930 . S
H977 C985 0.930 . S
H978 C986 0.930 . S
H979 C987 0.930 . S
H980 C990 0.930 . S
H981 C991 0.930 . S
C982 H976 0.930 . S
C982 C983 1.355 . S
C982 C984 1.415 . S
C983 C982 1.355 . S
C983 C985 1.419 . S
C984 C982 1.415 . S
C984 C989 1.425 . S
C984 C991 1.409 . S
C985 H977 0.930 . S
C985 C983 1.419 . S
C985 C986 1.362 . S
C986 H978 0.930 . S
C986 C985 1.362 . S
C986 C989 1.409 . S
C987 H979 0.930 . S
C987 C988 1.355 . S
C987 C989 1.415 . S
C988 C987 1.355 . S
C988 C990 1.419 . S
C989 C984 1.425 . S
C989 C986 1.409 . S
C989 C987 1.415 . S
C990 H980 0.930 . S
C990 C988 1.419 . S
C990 C991 1.362 . S
C991 H981 0.930 . S
C991 C984 1.409 . S
C991 C990 1.362 . S
H992 C998 0.930 . S
H993 C1001 0.930 . S
H994 C1002 0.930 . S
H995 C1003 0.930 . S
H996 C1006 0.930 . S
H997 C1007 0.930 . S
C998 H992 0.930 . S
C998 C999 1.355 . S
C998 C1000 1.415 . S
C999 C998 1.355 . S
C999 C1001 1.419 . S
C1000 C998 1.415 . S
C1000 C1005 1.425 . S
C1000 C1007 1.409 . S
C1001 H993 0.930 . S
C1001 C999 1.419 . S
C1001 C1002 1.362 . S
C1002 H994 0.930 . S
C1002 C1001 1.362 . S
C1002 C1005 1.409 . S
C1003 H995 0.930 . S
C1003 C1004 1.355 . S
C1003 C1005 1.415 . S
C1004 C1003 1.355 . S
C1004 C1006 1.419 . S
C1005 C1000 1.425 . S
C1005 C1002 1.409 . S
C1005 C1003 1.415 . S
C1006 H996 0.930 . S
C1006 C1004 1.419 . S
C1006 C1007 1.362 . S
C1007 H997 0.930 . S
C1007 C1000 1.409 . S
C1007 C1006 1.362 . S
H1008 C1014 0.930 . S
H1009 C1017 0.930 . S
H1010 C1018 0.930 . S
H1011 C1019 0.930 . S
H1012 C1022 0.930 . S
H1013 C1023 0.930 . S
C1014 H1008 0.930 . S
C1014 C1015 1.355 . S
C1014 C1016 1.415 . S
C1015 C1014 1.355 . S
C1015 C1017 1.419 . S
C1016 C1014 1.415 . S
C1016 C1021 1.425 . S
C1016 C1023 1.409 . S
C1017 H1009 0.930 . S
C1017 C1015 1.419 . S
C1017 C1018 1.362 . S
C1018 H1010 0.930 . S
C1018 C1017 1.362 . S
C1018 C1021 1.409 . S
C1019 H1011 0.930 . S
C1019 C1020 1.355 . S
C1019 C1021 1.415 . S
C1020 C1019 1.355 . S
C1020 C1022 1.419 . S
C1021 C1016 1.425 . S
C1021 C1018 1.409 . S
C1021 C1019 1.415 . S
C1022 H1012 0.930 . S
C1022 C1020 1.419 . S
C1022 C1023 1.362 . S
C1023 H1013 0.930 . S
C1023 C1016 1.409 . S
C1023 C1022 1.362 . S
H1024 C1030 0.930 . S
H1025 C1033 0.930 . S
H1026 C1034 0.930 . S
H1027 C1035 0.930 . S
H1028 C1038 0.930 . S
H1029 C1039 0.930 . S
C1030 H1024 0.930 . S
C1030 C1031 1.355 . S
C1030 C1032 1.415 . S
C1031 C1030 1.355 . S
C1031 C1033 1.419 . S
C1032 C1030 1.415 . S
C1032 C1037 1.425 . S
C1032 C1039 1.409 . S
C1033 H1025 0.930 . S
C1033 C1031 1.419 . S
C1033 C1034 1.362 . S
C1034 H1026 0.930 . S
C1034 C1033 1.362 . S
C1034 C1037 1.409 . S
C1035 H1027 0.930 . S
C1035 C1036 1.355 . S
C1035 C1037 1.415 . S
C1036 C1035 1.355 . S
C1036 C1038 1.419 . S
C1037 C1032 1.425 . S
C1037 C1034 1.409 . S
C1037 C1035 1.415 . S
C1038 H1028 0.930 . S
C1038 C1036 1.419 . S
C1038 C1039 1.362 . S
C1039 H1029 0.930 . S
C1039 C1032 1.409 . S
C1039 C1038 1.362 . S
H1040 C1046 0.930 . S
H1041 C1049 0.930 . S
H1042 C1050 0.930 . S
H1043 C1051 0.930 . S
H1044 C1054 0.930 . S
H1045 C1055 0.930 . S
C1046 H1040 0.930 . S
C1046 C1047 1.355 . S
C1046 C1048 1.415 . S
C1047 C1046 1.355 . S
C1047 C1049 1.419 . S
C1048 C1046 1.415 . S
C1048 C1053 1.425 . S
C1048 C1055 1.409 . S
C1049 H1041 0.930 . S
C1049 C1047 1.419 . S
C1049 C1050 1.362 . S
C1050 H1042 0.930 . S
C1050 C1049 1.362 . S
C1050 C1053 1.409 . S
C1051 H1043 0.930 . S
C1051 C1052 1.355 . S
C1051 C1053 1.415 . S
C1052 C1051 1.355 . S
C1052 C1054 1.419 . S
C1053 C1048 1.425 . S
C1053 C1050 1.409 . S
C1053 C1051 1.415 . S
C1054 H1044 0.930 . S
C1054 C1052 1.419 . S
C1054 C1055 1.362 . S
C1055 H1045 0.930 . S
C1055 C1048 1.409 . S
C1055 C1054 1.362 . S
H1056 C1062 0.930 . S
H1057 C1065 0.930 . S
H1058 C1066 0.930 . S
H1059 C1067 0.930 . S
H1060 C1070 0.930 . S
H1061 C1071 0.930 . S
C1062 H1056 0.930 . S
C1062 C1063 1.355 . S
C1062 C1064 1.415 . S
C1063 C1062 1.355 . S
C1063 C1065 1.419 . S
C1064 C1062 1.415 . S
C1064 C1069 1.425 . S
C1064 C1071 1.409 . S
C1065 H1057 0.930 . S
C1065 C1063 1.419 . S
C1065 C1066 1.362 . S
C1066 H1058 0.930 . S
C1066 C1065 1.362 . S
C1066 C1069 1.409 . S
C1067 H1059 0.930 . S
C1067 C1068 1.355 . S
C1067 C1069 1.415 . S
C1068 C1067 1.355 . S
C1068 C1070 1.419 . S
C1069 C1064 1.425 . S
C1069 C1066 1.409 . S
C1069 C1067 1.415 . S
C1070 H1060 0.930 . S
C1070 C1068 1.419 . S
C1070 C1071 1.362 . S
C1071 H1061 0.930 . S
C1071 C1064 1.409 . S
C1071 C1070 1.362 . S
H1072 C1078 0.930 . S
H1073 C1081 0.930 . S
H1074 C1082 0.930 . S
H1075 C1083 0.930 . S
H1076 C1086 0.930 . S
H1077 C1087 0.930 . S
C1078 H1072 0.930 . S
C1078 C1079 1.355 . S
C1078 C1080 1.415 . S
C1079 C1078 1.355 . S
C1079 C1081 1.419 . S
C1080 C1078 1.415 . S
C1080 C1085 1.425 . S
C1080 C1087 1.409 . S
C1081 H1073 0.930 . S
C1081 C1079 1.419 . S
C1081 C1082 1.362 . S
C1082 H1074 0.930 . S
C1082 C1081 1.362 . S
C1082 C1085 1.409 . S
C1083 H1075 0.930 . S
C1083 C1084 1.355 . S
C1083 C1085 1.415 . S
C1084 C1083 1.355 . S
C1084 C1086 1.419 . S
C1085 C1080 1.425 . S
C1085 C1082 1.409 . S
C1085 C1083 1.415 . S
C1086 H1076 0.930 . S
C1086 C1084 1.419 . S
C1086 C1087 1.362 . S
C1087 H1077 0.930 . S
C1087 C1080 1.409 . S
C1087 C1086 1.362 . S
H1088 C1094 0.930 . S
H1089 C1097 0.930 . S
H1090 C1098 0.930 . S
H1091 C1099 0.930 . S
H1092 C1102 0.930 . S
H1093 C1103 0.930 . S
C1094 H1088 0.930 . S
C1094 C1095 1.355 . S
C1094 C1096 1.415 . S
C1095 C1094 1.355 . S
C1095 C1097 1.419 . S
C1096 C1094 1.415 . S
C1096 C1101 1.425 . S
C1096 C1103 1.409 . S
C1097 H1089 0.930 . S
C1097 C1095 1.419 . S
C1097 C1098 1.362 . S
C1098 H1090 0.930 . S
C1098 C1097 1.362 . S
C1098 C1101 1.409 . S
C1099 H1091 0.930 . S
C1099 C1100 1.355 . S
C1099 C1101 1.415 . S
C1100 C1099 1.355 . S
C1100 C1102 1.419 . S
C1101 C1096 1.425 . S
C1101 C1098 1.409 . S
C1101 C1099 1.415 . S
C1102 H1092 0.930 . S
C1102 C1100 1.419 . S
C1102 C1103 1.362 . S
C1103 H1093 0.930 . S
C1103 C1096 1.409 . S
C1103 C1102 1.362 . S
H1104 C1110 0.930 . S
H1105 C1113 0.930 . S
H1106 C1114 0.930 . S
H1107 C1115 0.930 . S
H1108 C1118 0.930 . S
H1109 C1119 0.930 . S
C1110 H1104 0.930 . S
C1110 C1111 1.355 . S
C1110 C1112 1.415 . S
C1111 C1110 1.355 . S
C1111 C1113 1.419 . S
C1112 C1110 1.415 . S
C1112 C1117 1.425 . S
C1112 C1119 1.409 . S
C1113 H1105 0.930 . S
C1113 C1111 1.419 . S
C1113 C1114 1.362 . S
C1114 H1106 0.930 . S
C1114 C1113 1.362 . S
C1114 C1117 1.409 . S
C1115 H1107 0.930 . S
C1115 C1116 1.355 . S
C1115 C1117 1.415 . S
C1116 C1115 1.355 . S
C1116 C1118 1.419 . S
C1117 C1112 1.425 . S
C1117 C1114 1.409 . S
C1117 C1115 1.415 . S
C1118 H1108 0.930 . S
C1118 C1116 1.419 . S
C1118 C1119 1.362 . S
C1119 H1109 0.930 . S
C1119 C1112 1.409 . S
C1119 C1118 1.362 . S
H1120 C1126 0.930 . S
H1121 C1129 0.930 . S
H1122 C1130 0.930 . S
H1123 C1131 0.930 . S
H1124 C1134 0.930 . S
H1125 C1135 0.930 . S
C1126 H1120 0.930 . S
C1126 C1127 1.355 . S
C1126 C1128 1.415 . S
C1127 C1126 1.355 . S
C1127 C1129 1.419 . S
C1128 C1126 1.415 . S
C1128 C1133 1.425 . S
C1128 C1135 1.409 . S
C1129 H1121 0.930 . S
C1129 C1127 1.419 . S
C1129 C1130 1.362 . S
C1130 H1122 0.930 . S
C1130 C1129 1.362 . S
C1130 C1133 1.409 . S
C1131 H1123 0.930 . S
C1131 C1132 1.355 . S
C1131 C1133 1.415 . S
C1132 C1131 1.355 . S
C1132 C1134 1.419 . S
C1133 C1128 1.425 . S
C1133 C1130 1.409 . S
C1133 C1131 1.415 . S
C1134 H1124 0.930 . S
C1134 C1132 1.419 . S
C1134 C1135 1.362 . S
C1135 H1125 0.930 . S
C1135 C1128 1.409 . S
C1135 C1134 1.362 . S
H1136 C1142 0.930 . S
H1137 C1145 0.930 . S
H1138 C1146 0.930 . S
H1139 C1147 0.930 . S
H1140 C1150 0.930 . S
H1141 C1151 0.930 . S
C1142 H1136 0.930 . S
C1142 C1143 1.355 . S
C1142 C1144 1.415 . S
C1143 C1142 1.355 . S
C1143 C1145 1.419 . S
C1144 C1142 1.415 . S
C1144 C1149 1.425 . S
C1144 C1151 1.409 . S
C1145 H1137 0.930 . S
C1145 C1143 1.419 . S
C1145 C1146 1.362 . S
C1146 H1138 0.930 . S
C1146 C1145 1.362 . S
C1146 C1149 1.409 . S
C1147 H1139 0.930 . S
C1147 C1148 1.355 . S
C1147 C1149 1.415 . S
C1148 C1147 1.355 . S
C1148 C1150 1.419 . S
C1149 C1144 1.425 . S
C1149 C1146 1.409 . S
C1149 C1147 1.415 . S
C1150 H1140 0.930 . S
C1150 C1148 1.419 . S
C1150 C1151 1.362 . S
C1151 H1141 0.930 . S
C1151 C1144 1.409 . S
C1151 C1150 1.362 . S
H1152 C1158 0.930 . S
H1153 C1161 0.930 . S
H1154 C1162 0.930 . S
H1155 C1163 0.930 . S
H1156 C1166 0.930 . S
H1157 C1167 0.930 . S
C1158 H1152 0.930 . S
C1158 C1159 1.355 . S
C1158 C1160 1.415 . S
C1159 C1158 1.355 . S
C1159 C1161 1.419 . S
C1160 C1158 1.415 . S
C1160 C1165 1.425 . S
C1160 C1167 1.409 . S
C1161 H1153 0.930 . S
C1161 C1159 1.419 . S
C1161 C1162 1.362 . S
C1162 H1154 0.930 . S
C1162 C1161 1.362 . S
C1162 C1165 1.409 . S
C1163 H1155 0.930 . S
C1163 C1164 1.355 . S
C1163 C1165 1.415 . S
C1164 C1163 1.355 . S
C1164 C1166 1.419 . S
C1165 C1160 1.425 . S
C1165 C1162 1.409 . S
C1165 C1163 1.415 . S
C1166 H1156 0.930 . S
C1166 C1164 1.419 . S
C1166 C1167 1.362 . S
C1167 H1157 0.930 . S
C1167 C1160 1.409 . S
C1167 C1166 1.362 . S
H1168 C1174 0.930 . S
H1169 C1177 0.930 1_556 S
H1170 C1178 0.958 . S
H1171 C1179 0.930 . S
H1172 C1182 0.930 . S
H1173 C1183 0.930 . S
C1174 H1168 0.930 . S
C1174 C1175 1.355 . S
C1174 C1176 1.415 . S
C1175 C1174 1.355 . S
C1175 C1177 1.419 . S
C1176 C1174 1.415 . S
C1176 C1181 1.425 . S
C1176 C1183 1.409 . S
C1177 H1169 0.930 1_554 S
C1177 C1175 1.419 . S
C1177 C1178 1.362 . S
C1178 H1170 0.958 . S
C1178 C1177 1.362 . S
C1178 C1181 1.409 . S
C1179 H1171 0.930 . S
C1179 C1180 1.355 . S
C1179 C1181 1.415 . S
C1180 C1179 1.355 . S
C1180 C1182 1.419 . S
C1181 C1176 1.425 . S
C1181 C1178 1.409 . S
C1181 C1179 1.415 . S
C1182 H1172 0.930 . S
C1182 C1180 1.419 . S
C1182 C1183 1.362 . S
C1183 H1173 0.930 . S
C1183 C1176 1.409 . S
C1183 C1182 1.362 . S
H1184 C1190 0.930 . S
H1185 C1193 0.930 . S
H1186 C1194 0.930 . S
H1187 C1195 0.930 . S
H1188 C1198 0.930 . S
H1189 C1199 0.930 . S
C1190 H1184 0.930 . S
C1190 C1191 1.355 . S
C1190 C1192 1.415 . S
C1191 C1190 1.355 . S
C1191 C1193 1.419 . S
C1192 C1190 1.415 . S
C1192 C1197 1.425 . S
C1192 C1199 1.409 . S
C1193 H1185 0.930 . S
C1193 C1191 1.419 . S
C1193 C1194 1.362 . S
C1194 H1186 0.930 . S
C1194 C1193 1.362 . S
C1194 C1197 1.409 . S
C1195 H1187 0.930 . S
C1195 C1196 1.355 . S
C1195 C1197 1.415 . S
C1196 C1195 1.355 . S
C1196 C1198 1.419 . S
C1197 C1192 1.425 . S
C1197 C1194 1.409 . S
C1197 C1195 1.415 . S
C1198 H1188 0.930 . S
C1198 C1196 1.419 . S
C1198 C1199 1.362 . S
C1199 H1189 0.930 . S
C1199 C1192 1.409 . S
C1199 C1198 1.362 . S
H1200 C1206 0.930 . S
H1201 C1209 0.930 . S
H1202 C1210 0.930 . S
H1203 C1211 0.930 . S
H1204 C1214 0.930 . S
H1205 C1215 0.930 . S
C1206 H1200 0.930 . S
C1206 C1207 1.355 . S
C1206 C1208 1.415 . S
C1207 C1206 1.355 . S
C1207 C1209 1.419 . S
C1208 C1206 1.415 . S
C1208 C1213 1.425 . S
C1208 C1215 1.409 . S
C1209 H1201 0.930 . S
C1209 C1207 1.419 . S
C1209 C1210 1.362 . S
C1210 H1202 0.930 . S
C1210 C1209 1.362 . S
C1210 C1213 1.409 . S
C1211 H1203 0.930 . S
C1211 C1212 1.355 . S
C1211 C1213 1.415 . S
C1212 C1211 1.355 . S
C1212 C1214 1.419 . S
C1213 C1208 1.425 . S
C1213 C1210 1.409 . S
C1213 C1211 1.415 . S
C1214 H1204 0.930 . S
C1214 C1212 1.419 . S
C1214 C1215 1.362 . S
C1215 H1205 0.930 . S
C1215 C1208 1.409 . S
C1215 C1214 1.362 . S
H1216 C1222 0.930 . S
H1217 C1225 0.930 1_554 S
H1218 C1226 0.930 . S
H1219 C1227 0.930 . S
H1220 C1230 0.930 . S
H1221 C1231 0.930 . S
C1222 H1216 0.930 . S
C1222 C1223 1.355 . S
C1222 C1224 1.415 . S
C1223 C1222 1.355 . S
C1223 C1225 1.419 . S
C1224 C1222 1.415 . S
C1224 C1229 1.425 . S
C1224 C1231 1.409 . S
C1225 H1217 0.930 1_556 S
C1225 C1223 1.419 . S
C1225 C1226 1.362 . S
C1226 H1218 0.930 . S
C1226 C1225 1.362 . S
C1226 C1229 1.409 . S
C1227 H1219 0.930 . S
C1227 C1228 1.355 . S
C1227 C1229 1.415 . S
C1228 C1227 1.355 . S
C1228 C1230 1.419 . S
C1229 C1224 1.425 . S
C1229 C1226 1.409 . S
C1229 C1227 1.415 . S
C1230 H1220 0.930 . S
C1230 C1228 1.419 . S
C1230 C1231 1.362 . S
C1231 H1221 0.930 . S
C1231 C1224 1.409 . S
C1231 C1230 1.362 . S
H1232 C1238 0.930 . S
H1233 C1241 0.930 . S
H1234 C1242 0.930 . S
H1235 C1243 0.930 . S
H1236 C1246 0.930 . S
H1237 C1247 0.930 . S
C1238 H1232 0.930 . S
C1238 C1239 1.355 . S
C1238 C1240 1.415 . S
C1239 C1238 1.355 . S
C1239 C1241 1.419 . S
C1240 C1238 1.415 . S
C1240 C1245 1.425 . S
C1240 C1247 1.409 . S
C1241 H1233 0.930 . S
C1241 C1239 1.419 . S
C1241 C1242 1.362 . S
C1242 H1234 0.930 . S
C1242 C1241 1.362 . S
C1242 C1245 1.409 . S
C1243 H1235 0.930 . S
C1243 C1244 1.355 . S
C1243 C1245 1.415 . S
C1244 C1243 1.355 . S
C1244 C1246 1.419 . S
C1245 C1240 1.425 . S
C1245 C1242 1.409 . S
C1245 C1243 1.415 . S
C1246 H1236 0.930 . S
C1246 C1244 1.419 . S
C1246 C1247 1.362 . S
C1247 H1237 0.930 . S
C1247 C1240 1.409 . S
C1247 C1246 1.362 . S
H1248 C1254 0.930 . S
H1249 C1257 0.930 . S
H1250 C1258 0.930 . S
H1251 C1259 0.930 . S
H1252 C1262 0.930 . S
H1253 C1263 0.930 . S
C1254 H1248 0.930 . S
C1254 C1255 1.355 . S
C1254 C1256 1.415 . S
C1255 C1254 1.355 . S
C1255 C1257 1.419 . S
C1256 C1254 1.415 . S
C1256 C1261 1.425 . S
C1256 C1263 1.409 . S
C1257 H1249 0.930 . S
C1257 C1255 1.419 . S
C1257 C1258 1.362 . S
C1258 H1250 0.930 . S
C1258 C1257 1.362 . S
C1258 C1261 1.409 . S
C1259 H1251 0.930 . S
C1259 C1260 1.355 . S
C1259 C1261 1.415 . S
C1260 C1259 1.355 . S
C1260 C1262 1.419 . S
C1261 C1256 1.425 . S
C1261 C1258 1.409 . S
C1261 C1259 1.415 . S
C1262 H1252 0.930 . S
C1262 C1260 1.419 . S
C1262 C1263 1.362 . S
C1263 H1253 0.930 . S
C1263 C1256 1.409 . S
C1263 C1262 1.362 . S
H1264 C1270 0.930 . S
H1265 C1273 0.930 . S
H1266 C1274 0.930 . S
H1267 C1275 0.930 . S
H1268 C1278 0.930 . S
H1269 C1279 0.930 . S
C1270 H1264 0.930 . S
C1270 C1271 1.355 . S
C1270 C1272 1.415 . S
C1271 C1270 1.355 . S
C1271 C1273 1.419 . S
C1272 C1270 1.415 . S
C1272 C1277 1.425 . S
C1272 C1279 1.409 . S
C1273 H1265 0.930 . S
C1273 C1271 1.419 . S
C1273 C1274 1.362 . S
C1274 H1266 0.930 . S
C1274 C1273 1.362 . S
C1274 C1277 1.409 . S
C1275 H1267 0.930 . S
C1275 C1276 1.355 . S
C1275 C1277 1.415 . S
C1276 C1275 1.355 . S
C1276 C1278 1.419 . S
C1277 C1272 1.425 . S
C1277 C1274 1.409 . S
C1277 C1275 1.415 . S
C1278 H1268 0.930 . S
C1278 C1276 1.419 . S
C1278 C1279 1.362 . S
C1279 H1269 0.930 . S
C1279 C1272 1.409 . S
C1279 C1278 1.362 . S
H1280 C1286 0.930 . S
H1281 C1289 0.930 . S
H1282 C1290 0.930 . S
H1283 C1291 0.930 . S
H1284 C1294 0.930 . S
H1285 C1295 0.930 . S
C1286 H1280 0.930 . S
C1286 C1287 1.355 . S
C1286 C1288 1.415 . S
C1287 C1286 1.355 . S
C1287 C1289 1.419 . S
C1288 C1286 1.415 . S
C1288 C1293 1.425 . S
C1288 C1295 1.409 . S
C1289 H1281 0.930 . S
C1289 C1287 1.419 . S
C1289 C1290 1.362 . S
C1290 H1282 0.930 . S
C1290 C1289 1.362 . S
C1290 C1293 1.409 . S
C1291 H1283 0.930 . S
C1291 C1292 1.355 . S
C1291 C1293 1.415 . S
C1292 C1291 1.355 . S
C1292 C1294 1.419 . S
C1293 C1288 1.425 . S
C1293 C1290 1.409 . S
C1293 C1291 1.415 . S
C1294 H1284 0.930 . S
C1294 C1292 1.419 . S
C1294 C1295 1.362 . S
C1295 H1285 0.930 . S
C1295 C1288 1.409 . S
C1295 C1294 1.362 . S
H1296 C1302 0.930 . S
H1297 C1305 0.930 . S
H1298 C1306 0.930 . S
H1299 C1307 0.930 . S
H1300 C1310 0.930 . S
H1301 C1311 0.930 . S
C1302 H1296 0.930 . S
C1302 C1303 1.355 . S
C1302 C1304 1.415 . S
C1303 C1302 1.355 . S
C1303 C1305 1.419 . S
C1304 C1302 1.415 . S
C1304 C1309 1.425 . S
C1304 C1311 1.409 . S
C1305 H1297 0.930 . S
C1305 C1303 1.419 . S
C1305 C1306 1.362 . S
C1306 H1298 0.930 . S
C1306 C1305 1.362 . S
C1306 C1309 1.409 . S
C1307 H1299 0.930 . S
C1307 C1308 1.355 . S
C1307 C1309 1.415 . S
C1308 C1307 1.355 . S
C1308 C1310 1.419 . S
C1309 C1304 1.425 . S
C1309 C1306 1.409 . S
C1309 C1307 1.415 . S
C1310 H1300 0.930 . S
C1310 C1308 1.419 . S
C1310 C1311 1.362 . S
C1311 H1301 0.930 . S
C1311 C1304 1.409 . S
C1311 C1310 1.362 . S
H1312 C1318 0.930 . S
H1313 C1321 0.930 . S
H1314 C1322 0.930 . S
H1315 C1323 0.930 . S
H1316 C1326 0.930 . S
H1317 C1327 0.930 . S
C1318 H1312 0.930 . S
C1318 C1319 1.355 . S
C1318 C1320 1.415 . S
C1319 C1318 1.355 . S
C1319 C1321 1.419 . S
C1320 C1318 1.415 . S
C1320 C1325 1.425 . S
C1320 C1327 1.409 . S
C1321 H1313 0.930 . S
C1321 C1319 1.419 . S
C1321 C1322 1.362 . S
C1322 H1314 0.930 . S
C1322 C1321 1.362 . S
C1322 C1325 1.409 . S
C1323 H1315 0.930 . S
C1323 C1324 1.355 . S
C1323 C1325 1.415 . S
C1324 C1323 1.355 . S
C1324 C1326 1.419 . S
C1325 C1320 1.425 . S
C1325 C1322 1.409 . S
C1325 C1323 1.415 . S
C1326 H1316 0.930 . S
C1326 C1324 1.419 . S
C1326 C1327 1.362 . S
C1327 H1317 0.930 . S
C1327 C1320 1.409 . S
C1327 C1326 1.362 . S
H1328 C1334 0.930 . S
H1329 C1337 0.930 . S
H1330 C1338 0.930 . S
H1331 C1339 0.930 . S
H1332 C1342 0.930 . S
H1333 C1343 0.930 . S
C1334 H1328 0.930 . S
C1334 C1335 1.355 . S
C1334 C1336 1.415 . S
C1335 C1334 1.355 . S
C1335 C1337 1.419 . S
C1336 C1334 1.415 . S
C1336 C1341 1.425 . S
C1336 C1343 1.409 . S
C1337 H1329 0.930 . S
C1337 C1335 1.419 . S
C1337 C1338 1.362 . S
C1338 H1330 0.930 . S
C1338 C1337 1.362 . S
C1338 C1341 1.409 . S
C1339 H1331 0.930 . S
C1339 C1340 1.355 . S
C1339 C1341 1.415 . S
C1340 C1339 1.355 . S
C1340 C1342 1.419 . S
C1341 C1336 1.425 . S
C1341 C1338 1.409 . S
C1341 C1339 1.415 . S
C1342 H1332 0.930 . S
C1342 C1340 1.419 . S
C1342 C1343 1.362 . S
C1343 H1333 0.930 . S
C1343 C1336 1.409 . S
C1343 C1342 1.362 . S
H1344 C1350 0.930 . S
H1345 C1353 0.930 . S
H1346 C1354 0.930 . S
H1347 C1355 0.930 . S
H1348 C1358 0.930 . S
H1349 C1359 0.930 . S
C1350 H1344 0.930 . S
C1350 C1351 1.355 . S
C1350 C1352 1.415 . S
C1351 C1350 1.355 . S
C1351 C1353 1.419 . S
C1352 C1350 1.415 . S
C1352 C1357 1.425 . S
C1352 C1359 1.409 . S
C1353 H1345 0.930 . S
C1353 C1351 1.419 . S
C1353 C1354 1.362 . S
C1354 H1346 0.930 . S
C1354 C1353 1.362 . S
C1354 C1357 1.409 . S
C1355 H1347 0.930 . S
C1355 C1356 1.355 . S
C1355 C1357 1.415 . S
C1356 C1355 1.355 . S
C1356 C1358 1.419 . S
C1357 C1352 1.425 . S
C1357 C1354 1.409 . S
C1357 C1355 1.415 . S
C1358 H1348 0.930 . S
C1358 C1356 1.419 . S
C1358 C1359 1.362 . S
C1359 H1349 0.930 . S
C1359 C1352 1.409 . S
C1359 C1358 1.362 . S
H1360 C1366 0.930 . S
H1361 C1369 0.930 . S
H1362 C1370 0.930 . S
H1363 C1371 0.930 . S
H1364 C1374 0.930 . S
H1365 C1375 0.930 . S
C1366 H1360 0.930 . S
C1366 C1367 1.355 . S
C1366 C1368 1.415 . S
C1367 C1366 1.355 . S
C1367 C1369 1.419 . S
C1368 C1366 1.415 . S
C1368 C1373 1.425 . S
C1368 C1375 1.409 . S
C1369 H1361 0.930 . S
C1369 C1367 1.419 . S
C1369 C1370 1.362 . S
C1370 H1362 0.930 . S
C1370 C1369 1.362 . S
C1370 C1373 1.409 . S
C1371 H1363 0.930 . S
C1371 C1372 1.355 . S
C1371 C1373 1.415 . S
C1372 C1371 1.355 . S
C1372 C1374 1.419 . S
C1373 C1368 1.425 . S
C1373 C1370 1.409 . S
C1373 C1371 1.415 . S
C1374 H1364 0.930 . S
C1374 C1372 1.419 . S
C1374 C1375 1.362 . S
C1375 H1365 0.930 . S
C1375 C1368 1.409 . S
C1375 C1374 1.362 . S
H1376 C1382 0.930 . S
H1377 C1385 0.930 . S
H1378 C1386 0.930 . S
H1379 C1387 0.930 . S
H1380 C1390 0.930 . S
H1381 C1391 0.930 . S
C1382 H1376 0.930 . S
C1382 C1383 1.355 . S
C1382 C1384 1.415 . S
C1383 C1382 1.355 . S
C1383 C1385 1.419 . S
C1384 C1382 1.415 . S
C1384 C1389 1.425 . S
C1384 C1391 1.409 . S
C1385 H1377 0.930 . S
C1385 C1383 1.419 . S
C1385 C1386 1.362 . S
C1386 H1378 0.930 . S
C1386 C1385 1.362 . S
C1386 C1389 1.409 . S
C1387 H1379 0.930 . S
C1387 C1388 1.355 . S
C1387 C1389 1.415 . S
C1388 C1387 1.355 . S
C1388 C1390 1.419 . S
C1389 C1384 1.425 . S
C1389 C1386 1.409 . S
C1389 C1387 1.415 . S
C1390 H1380 0.930 . S
C1390 C1388 1.419 . S
C1390 C1391 1.362 . S
C1391 H1381 0.930 . S
C1391 C1384 1.409 . S
C1391 C1390 1.362 . S
H1392 C1398 0.934 . S
H1393 C1401 0.930 . S
H1394 C1402 0.930 . S
H1395 C1403 0.930 . S
H1396 C1406 0.930 . S
H1397 C1407 0.930 . S
C1398 H1392 0.934 . S
C1398 C1399 1.355 . S
C1398 C1400 1.415 . S
C1399 C1398 1.355 . S
C1399 C1401 1.419 . S
C1400 C1398 1.415 . S
C1400 C1405 1.425 . S
C1400 C1407 1.409 1_455 S
C1401 H1393 0.930 . S
C1401 C1399 1.419 . S
C1401 C1402 1.362 . S
C1402 H1394 0.930 . S
C1402 C1401 1.362 . S
C1402 C1405 1.409 . S
C1403 H1395 0.930 . S
C1403 C1404 1.355 . S
C1403 C1405 1.415 . S
C1404 C1403 1.355 . S
C1404 C1406 1.419 1_455 S
C1405 C1400 1.425 . S
C1405 C1402 1.409 . S
C1405 C1403 1.415 . S
C1406 H1396 0.930 . S
C1406 C1404 1.419 1_655 S
C1406 C1407 1.362 . S
C1407 H1397 0.930 . S
C1407 C1400 1.409 1_655 S
C1407 C1406 1.362 . S
H1408 C1414 0.930 . S
H1409 C1417 0.930 . S
H1410 C1418 0.930 . S
H1411 C1419 0.930 . S
H1412 C1422 0.930 . S
H1413 C1423 0.930 . S
C1414 H1408 0.930 . S
C1414 C1415 1.355 . S
C1414 C1416 1.415 . S
C1415 C1414 1.355 . S
C1415 C1417 1.419 . S
C1416 C1414 1.415 . S
C1416 C1421 1.425 . S
C1416 C1423 1.409 . S
C1417 H1409 0.930 . S
C1417 C1415 1.419 . S
C1417 C1418 1.362 . S
C1418 H1410 0.930 . S
C1418 C1417 1.362 . S
C1418 C1421 1.409 . S
C1419 H1411 0.930 . S
C1419 C1420 1.355 . S
C1419 C1421 1.415 . S
C1420 C1419 1.355 . S
C1420 C1422 1.419 . S
C1421 C1416 1.425 . S
C1421 C1418 1.409 . S
C1421 C1419 1.415 . S
C1422 H1412 0.930 . S
C1422 C1420 1.419 . S
C1422 C1423 1.362 . S
C1423 H1413 0.930 . S
C1423 C1416 1.409 . S
C1423 C1422 1.362 . S
H1424 C1430 0.930 . S
H1425 C1433 0.930 . S
H1426 C1434 0.930 . S
H1427 C1435 0.930 . S
H1428 C1438 0.930 . S
H1429 C1439 0.930 . S
C1430 H1424 0.930 . S
C1430 C1431 1.355 . S
C1430 C1432 1.415 . S
C1431 C1430 1.355 . S
C1431 C1433 1.419 1_565 S
C1432 C1430 1.415 . S
C1432 C1437 1.425 . S
C1432 C1439 1.409 . S
C1433 H1425 0.930 . S
C1433 C1431 1.419 1_545 S
C1433 C1434 1.362 . S
C1434 H1426 0.930 . S
C1434 C1433 1.362 . S
C1434 C1437 1.409 1_545 S
C1435 H1427 0.930 . S
C1435 C1436 1.355 1_545 S
C1435 C1437 1.415 1_545 S
C1436 C1435 1.355 1_565 S
C1436 C1438 1.419 . S
C1437 C1432 1.425 . S
C1437 C1434 1.409 1_565 S
C1437 C1435 1.415 1_565 S
C1438 H1428 0.930 . S
C1438 C1436 1.419 . S
C1438 C1439 1.362 . S
C1439 H1429 0.930 . S
C1439 C1432 1.409 . S
C1439 C1438 1.362 . S
H1440 C1446 0.930 1_545 S
H1441 C1449 0.930 . S
H1442 C1450 0.930 . S
H1443 C1451 0.930 . S
H1444 C1454 0.930 . S
H1445 C1455 0.930 . S
C1446 H1440 0.930 1_565 S
C1446 C1447 1.355 . S
C1446 C1448 1.415 . S
C1447 C1446 1.355 . S
C1447 C1449 1.419 . S
C1448 C1446 1.415 . S
C1448 C1453 1.425 . S
C1448 C1455 1.409 1_565 S
C1449 H1441 0.930 . S
C1449 C1447 1.419 . S
C1449 C1450 1.362 . S
C1450 H1442 0.930 . S
C1450 C1449 1.362 . S
C1450 C1453 1.409 . S
C1451 H1443 0.930 . S
C1451 C1452 1.330 1_565 S
C1451 C1453 1.415 . S
C1452 C1451 1.330 1_545 S
C1452 C1454 1.430 . S
C1453 C1448 1.425 . S
C1453 C1450 1.409 . S
C1453 C1451 1.415 . S
C1454 H1444 0.930 . S
C1454 C1452 1.430 . S
C1454 C1455 1.362 . S
C1455 H1445 0.930 . S
C1455 C1448 1.409 1_545 S
C1455 C1454 1.362 . S
H1456 C1462 0.930 . S
H1457 C1465 0.930 . S
H1458 C1466 0.930 . S
H1459 C1467 0.930 . S
H1460 C1470 0.930 . S
H1461 C1471 0.930 . S
C1462 H1456 0.930 . S
C1462 C1463 1.355 . S
C1462 C1464 1.415 . S
C1463 C1462 1.355 . S
C1463 C1465 1.419 1_455 S
C1464 C1462 1.415 . S
C1464 C1469 1.394 1_455 S
C1464 C1471 1.409 . S
C1465 H1457 0.930 . S
C1465 C1463 1.419 1_655 S
C1465 C1466 1.362 . S
C1466 H1458 0.930 . S
C1466 C1465 1.362 . S
C1466 C1469 1.445 . S
C1467 H1459 0.930 . S
C1467 C1468 1.355 1_655 S
C1467 C1469 1.410 . S
C1468 C1467 1.355 1_455 S
C1468 C1470 1.419 . S
C1469 C1464 1.394 1_655 S
C1469 C1466 1.445 . S
C1469 C1467 1.410 . S
C1470 H1460 0.930 . S
C1470 C1468 1.419 . S
C1470 C1471 1.362 . S
C1471 H1461 0.930 . S
C1471 C1464 1.409 . S
C1471 C1470 1.362 . S
H1472 C1478 0.930 . S
H1473 C1481 0.930 . S
H1474 C1482 0.930 . S
H1475 C1483 0.930 . S
H1476 C1486 0.930 . S
H1477 C1487 0.930 . S
C1478 H1472 0.930 . S
C1478 C1479 1.355 . S
C1478 C1480 1.415 . S
C1479 C1478 1.355 . S
C1479 C1481 1.419 . S
C1480 C1478 1.415 . S
C1480 C1485 1.425 . S
C1480 C1487 1.409 . S
C1481 H1473 0.930 . S
C1481 C1479 1.419 . S
C1481 C1482 1.362 . S
C1482 H1474 0.930 . S
C1482 C1481 1.362 . S
C1482 C1485 1.409 . S
C1483 H1475 0.930 . S
C1483 C1484 1.355 . S
C1483 C1485 1.415 . S
C1484 C1483 1.355 . S
C1484 C1486 1.419 . S
C1485 C1480 1.425 . S
C1485 C1482 1.409 . S
C1485 C1483 1.415 . S
C1486 H1476 0.930 . S
C1486 C1484 1.419 . S
C1486 C1487 1.362 . S
C1487 H1477 0.930 . S
C1487 C1480 1.409 . S
C1487 C1486 1.362 . S
H1488 C1494 0.930 . S
H1489 C1497 0.930 . S
H1490 C1498 0.930 . S
H1491 C1499 0.930 . S
H1492 C1502 0.930 . S
H1493 C1503 0.930 . S
C1494 H1488 0.930 . S
C1494 C1495 1.355 . S
C1494 C1496 1.415 . S
C1495 C1494 1.355 . S
C1495 C1497 1.419 . S
C1496 C1494 1.415 . S
C1496 C1501 1.425 . S
C1496 C1503 1.409 . S
C1497 H1489 0.930 . S
C1497 C1495 1.419 . S
C1497 C1498 1.362 . S
C1498 H1490 0.930 . S
C1498 C1497 1.362 . S
C1498 C1501 1.409 . S
C1499 H1491 0.930 . S
C1499 C1500 1.355 . S
C1499 C1501 1.415 . S
C1500 C1499 1.355 . S
C1500 C1502 1.419 . S
C1501 C1496 1.425 . S
C1501 C1498 1.409 . S
C1501 C1499 1.415 . S
C1502 H1492 0.930 . S
C1502 C1500 1.419 . S
C1502 C1503 1.362 . S
C1503 H1493 0.930 . S
C1503 C1496 1.409 . S
C1503 C1502 1.362 . S
H1504 C1510 0.930 . S
H1505 C1513 0.930 . S
H1506 C1514 0.930 . S
H1507 C1515 0.930 . S
H1508 C1518 0.930 . S
H1509 C1519 0.930 . S
C1510 H1504 0.930 . S
C1510 C1511 1.355 . S
C1510 C1512 1.415 . S
C1511 C1510 1.355 . S
C1511 C1513 1.419 . S
C1512 C1510 1.415 . S
C1512 C1517 1.425 . S
C1512 C1519 1.409 . S
C1513 H1505 0.930 . S
C1513 C1511 1.419 . S
C1513 C1514 1.362 . S
C1514 H1506 0.930 . S
C1514 C1513 1.362 . S
C1514 C1517 1.409 . S
C1515 H1507 0.930 . S
C1515 C1516 1.355 . S
C1515 C1517 1.415 . S
C1516 C1515 1.355 . S
C1516 C1518 1.419 . S
C1517 C1512 1.425 . S
C1517 C1514 1.409 . S
C1517 C1515 1.415 . S
C1518 H1508 0.930 . S
C1518 C1516 1.419 . S
C1518 C1519 1.362 . S
C1519 H1509 0.930 . S
C1519 C1512 1.409 . S
C1519 C1518 1.362 . S
H1520 C1526 0.930 . S
H1521 C1529 0.930 . S
H1522 C1530 0.930 . S
H1523 C1531 0.930 . S
H1524 C1534 0.930 . S
H1525 C1535 0.930 . S
C1526 H1520 0.930 . S
C1526 C1527 1.355 . S
C1526 C1528 1.415 . S
C1527 C1526 1.355 . S
C1527 C1529 1.419 . S
C1528 C1526 1.415 . S
C1528 C1533 1.425 . S
C1528 C1535 1.409 . S
C1529 H1521 0.930 . S
C1529 C1527 1.419 . S
C1529 C1530 1.362 . S
C1530 H1522 0.930 . S
C1530 C1529 1.362 . S
C1530 C1533 1.409 . S
C1531 H1523 0.930 . S
C1531 C1532 1.355 . S
C1531 C1533 1.415 . S
C1532 C1531 1.355 . S
C1532 C1534 1.419 . S
C1533 C1528 1.425 . S
C1533 C1530 1.409 . S
C1533 C1531 1.415 . S
C1534 H1524 0.930 . S
C1534 C1532 1.419 . S
C1534 C1535 1.362 . S
C1535 H1525 0.930 . S
C1535 C1528 1.409 . S
C1535 C1534 1.362 . S
H1536 C1542 0.930 . S
H1537 C1545 0.930 . S
H1538 C1546 0.930 . S
H1539 C1547 0.930 . S
H1540 C1550 0.930 . S
H1541 C1551 0.930 . S
C1542 H1536 0.930 . S
C1542 C1543 1.355 . S
C1542 C1544 1.415 . S
C1543 C1542 1.355 . S
C1543 C1545 1.419 1_545 S
C1544 C1542 1.415 . S
C1544 C1549 1.425 . S
C1544 C1551 1.409 . S
C1545 H1537 0.930 . S
C1545 C1543 1.419 1_565 S
C1545 C1546 1.362 . S
C1546 H1538 0.930 . S
C1546 C1545 1.362 . S
C1546 C1549 1.409 1_565 S
C1547 H1539 0.930 . S
C1547 C1548 1.355 1_565 S
C1547 C1549 1.415 1_565 S
C1548 C1547 1.355 1_545 S
C1548 C1550 1.419 . S
C1549 C1544 1.425 . S
C1549 C1546 1.409 1_545 S
C1549 C1547 1.415 1_545 S
C1550 H1540 0.930 . S
C1550 C1548 1.419 . S
C1550 C1551 1.362 . S
C1551 H1541 0.930 . S
C1551 C1544 1.409 . S
C1551 C1550 1.362 . S
H1552 C1558 0.930 . S
H1553 C1561 0.930 . S
H1554 C1562 0.930 1_455 S
H1555 C1563 0.930 1_455 S
H1556 C1566 0.930 . S
H1557 C1567 0.930 . S
C1558 H1552 0.930 . S
C1558 C1559 1.355 . S
C1558 C1560 1.415 . S
C1559 C1558 1.355 . S
C1559 C1561 1.419 . S
C1560 C1558 1.415 . S
C1560 C1565 1.425 . S
C1560 C1567 1.409 . S
C1561 H1553 0.930 . S
C1561 C1559 1.419 . S
C1561 C1562 1.362 . S
C1562 H1554 0.930 1_655 S
C1562 C1561 1.362 . S
C1562 C1565 1.409 . S
C1563 H1555 0.930 1_655 S
C1563 C1564 1.355 . S
C1563 C1565 1.415 . S
C1564 C1563 1.355 . S
C1564 C1566 1.419 . S
C1565 C1560 1.425 . S
C1565 C1562 1.409 . S
C1565 C1563 1.415 . S
C1566 H1556 0.930 . S
C1566 C1564 1.419 . S
C1566 C1567 1.362 . S
C1567 H1557 0.930 . S
C1567 C1560 1.409 . S
C1567 C1566 1.362 . S
H1568 C1574 0.930 . S
H1569 C1577 0.930 . S
H1570 C1578 0.930 . S
H1571 C1579 0.930 . S
H1572 C1582 0.930 . S
H1573 C1583 0.930 . S
C1574 H1568 0.930 . S
C1574 C1575 1.355 . S
C1574 C1576 1.415 . S
C1575 C1574 1.355 . S
C1575 C1577 1.419 . S
C1576 C1574 1.415 . S
C1576 C1581 1.425 . S
C1576 C1583 1.409 . S
C1577 H1569 0.930 . S
C1577 C1575 1.419 . S
C1577 C1578 1.362 . S
C1578 H1570 0.930 . S
C1578 C1577 1.362 . S
C1578 C1581 1.409 . S
C1579 H1571 0.930 . S
C1579 C1580 1.355 . S
C1579 C1581 1.415 . S
C1580 C1579 1.355 . S
C1580 C1582 1.419 . S
C1581 C1576 1.425 . S
C1581 C1578 1.409 . S
C1581 C1579 1.415 . S
C1582 H1572 0.930 . S
C1582 C1580 1.419 . S
C1582 C1583 1.362 . S
C1583 H1573 0.930 . S
C1583 C1576 1.409 . S
C1583 C1582 1.362 . S
H1584 C1590 0.930 . S
H1585 C1593 0.930 . S
H1586 C1594 0.930 . S
H1587 C1595 0.930 . S
H1588 C1598 0.930 . S
H1589 C1599 0.930 . S
C1590 H1584 0.930 . S
C1590 C1591 1.355 . S
C1590 C1592 1.415 . S
C1591 C1590 1.355 . S
C1591 C1593 1.419 . S
C1592 C1590 1.415 . S
C1592 C1597 1.425 . S
C1592 C1599 1.409 . S
C1593 H1585 0.930 . S
C1593 C1591 1.419 . S
C1593 C1594 1.362 . S
C1594 H1586 0.930 . S
C1594 C1593 1.362 . S
C1594 C1597 1.409 . S
C1595 H1587 0.930 . S
C1595 C1596 1.355 . S
C1595 C1597 1.415 . S
C1596 C1595 1.355 . S
C1596 C1598 1.419 . S
C1597 C1592 1.425 . S
C1597 C1594 1.409 . S
C1597 C1595 1.415 . S
C1598 H1588 0.930 . S
C1598 C1596 1.419 . S
C1598 C1599 1.362 . S
C1599 H1589 0.930 . S
C1599 C1592 1.409 . S
C1599 C1598 1.362 . S
H1600 C1606 0.930 . S
H1601 C1609 0.930 . S
H1602 C1610 0.930 . S
H1603 C1611 0.930 . S
H1604 C1614 0.930 . S
H1605 C1615 0.930 . S
C1606 H1600 0.930 . S
C1606 C1607 1.355 . S
C1606 C1608 1.415 . S
C1607 C1606 1.355 . S
C1607 C1609 1.419 . S
C1608 C1606 1.415 . S
C1608 C1613 1.425 . S
C1608 C1615 1.409 . S
C1609 H1601 0.930 . S
C1609 C1607 1.419 . S
C1609 C1610 1.362 . S
C1610 H1602 0.930 . S
C1610 C1609 1.362 . S
C1610 C1613 1.409 . S
C1611 H1603 0.930 . S
C1611 C1612 1.355 . S
C1611 C1613 1.415 . S
C1612 C1611 1.355 . S
C1612 C1614 1.419 . S
C1613 C1608 1.425 . S
C1613 C1610 1.409 . S
C1613 C1611 1.415 . S
C1614 H1604 0.930 . S
C1614 C1612 1.419 . S
C1614 C1615 1.362 . S
C1615 H1605 0.930 . S
C1615 C1608 1.409 . S
C1615 C1614 1.362 . S
H1616 C1622 0.930 . S
H1617 C1625 0.930 . S
H1618 C1626 0.930 . S
H1619 C1627 0.930 . S
H1620 C1630 0.930 . S
H1621 C1631 0.930 . S
C1622 H1616 0.930 . S
C1622 C1623 1.355 . S
C1622 C1624 1.415 . S
C1623 C1622 1.355 . S
C1623 C1625 1.419 . S
C1624 C1622 1.415 . S
C1624 C1629 1.425 . S
C1624 C1631 1.409 . S
C1625 H1617 0.930 . S
C1625 C1623 1.419 . S
C1625 C1626 1.362 . S
C1626 H1618 0.930 . S
C1626 C1625 1.362 . S
C1626 C1629 1.409 . S
C1627 H1619 0.930 . S
C1627 C1628 1.355 . S
C1627 C1629 1.415 . S
C1628 C1627 1.355 . S
C1628 C1630 1.419 . S
C1629 C1624 1.425 . S
C1629 C1626 1.409 . S
C1629 C1627 1.415 . S
C1630 H1620 0.930 . S
C1630 C1628 1.419 . S
C1630 C1631 1.362 . S
C1631 H1621 0.930 . S
C1631 C1624 1.409 . S
C1631 C1630 1.362 . S
H1632 C1638 0.930 . S
H1633 C1641 0.930 . S
H1634 C1642 0.930 . S
H1635 C1643 0.930 . S
H1636 C1646 0.930 . S
H1637 C1647 0.930 . S
C1638 H1632 0.930 . S
C1638 C1639 1.355 . S
C1638 C1640 1.415 . S
C1639 C1638 1.355 . S
C1639 C1641 1.419 . S
C1640 C1638 1.415 . S
C1640 C1645 1.425 . S
C1640 C1647 1.409 . S
C1641 H1633 0.930 . S
C1641 C1639 1.419 . S
C1641 C1642 1.362 . S
C1642 H1634 0.930 . S
C1642 C1641 1.362 . S
C1642 C1645 1.409 . S
C1643 H1635 0.930 . S
C1643 C1644 1.355 . S
C1643 C1645 1.415 . S
C1644 C1643 1.355 . S
C1644 C1646 1.419 . S
C1645 C1640 1.425 . S
C1645 C1642 1.409 . S
C1645 C1643 1.415 . S
C1646 H1636 0.930 . S
C1646 C1644 1.419 . S
C1646 C1647 1.362 . S
C1647 H1637 0.930 . S
C1647 C1640 1.409 . S
C1647 C1646 1.362 . S
H1648 C1654 0.930 . S
H1649 C1657 0.930 . S
H1650 C1658 0.930 . S
H1651 C1659 0.930 . S
H1652 C1662 0.930 . S
H1653 C1663 0.930 . S
C1654 H1648 0.930 . S
C1654 C1655 1.355 . S
C1654 C1656 1.415 . S
C1655 C1654 1.355 . S
C1655 C1657 1.419 . S
C1656 C1654 1.415 . S
C1656 C1661 1.425 . S
C1656 C1663 1.409 . S
C1657 H1649 0.930 . S
C1657 C1655 1.419 . S
C1657 C1658 1.362 . S
C1658 H1650 0.930 . S
C1658 C1657 1.362 . S
C1658 C1661 1.409 . S
C1659 H1651 0.930 . S
C1659 C1660 1.355 . S
C1659 C1661 1.415 . S
C1660 C1659 1.355 . S
C1660 C1662 1.419 . S
C1661 C1656 1.425 . S
C1661 C1658 1.409 . S
C1661 C1659 1.415 . S
C1662 H1652 0.930 . S
C1662 C1660 1.419 . S
C1662 C1663 1.362 . S
C1663 H1653 0.930 . S
C1663 C1656 1.409 . S
C1663 C1662 1.362 . S
H1664 C1670 0.930 . S
H1665 C1673 0.930 . S
H1666 C1674 0.930 . S
H1667 C1675 0.930 . S
H1668 C1678 0.930 . S
H1669 C1679 0.930 . S
C1670 H1664 0.930 . S
C1670 C1671 1.355 . S
C1670 C1672 1.415 . S
C1671 C1670 1.355 . S
C1671 C1673 1.419 . S
C1672 C1670 1.415 . S
C1672 C1677 1.425 . S
C1672 C1679 1.409 . S
C1673 H1665 0.930 . S
C1673 C1671 1.419 . S
C1673 C1674 1.362 . S
C1674 H1666 0.930 . S
C1674 C1673 1.362 . S
C1674 C1677 1.409 . S
C1675 H1667 0.930 . S
C1675 C1676 1.355 . S
C1675 C1677 1.415 . S
C1676 C1675 1.355 . S
C1676 C1678 1.419 . S
C1677 C1672 1.425 . S
C1677 C1674 1.409 . S
C1677 C1675 1.415 . S
C1678 H1668 0.930 . S
C1678 C1676 1.419 . S
C1678 C1679 1.362 . S
C1679 H1669 0.930 . S
C1679 C1672 1.409 . S
C1679 C1678 1.362 . S
H1680 C1686 0.930 . S
H1681 C1689 0.930 . S
H1682 C1690 0.930 . S
H1683 C1691 0.930 . S
H1684 C1694 0.930 . S
H1685 C1695 0.930 . S
C1686 H1680 0.930 . S
C1686 C1687 1.355 . S
C1686 C1688 1.415 . S
C1687 C1686 1.355 . S
C1687 C1689 1.419 1_655 S
C1688 C1686 1.415 . S
C1688 C1693 1.432 . S
C1688 C1695 1.409 . S
C1689 H1681 0.930 . S
C1689 C1687 1.419 1_455 S
C1689 C1690 1.362 . S
C1690 H1682 0.930 . S
C1690 C1689 1.362 . S
C1690 C1693 1.411 1_455 S
C1691 H1683 0.930 . S
C1691 C1692 1.355 1_455 S
C1691 C1693 1.406 1_455 S
C1692 C1691 1.355 1_655 S
C1692 C1694 1.419 . S
C1693 C1688 1.432 . S
C1693 C1690 1.411 1_655 S
C1693 C1691 1.406 1_655 S
C1694 H1684 0.930 . S
C1694 C1692 1.419 . S
C1694 C1695 1.362 . S
C1695 H1685 0.930 . S
C1695 C1688 1.409 . S
C1695 C1694 1.362 . S
H1696 C1702 0.930 . S
H1697 C1705 0.930 . S
H1698 C1706 0.930 . S
H1699 C1707 0.930 . S
H1700 C1710 0.930 . S
H1701 C1711 0.930 . S
C1702 H1696 0.930 . S
C1702 C1703 1.355 . S
C1702 C1704 1.415 . S
C1703 C1702 1.355 . S
C1703 C1705 1.419 . S
C1704 C1702 1.415 . S
C1704 C1709 1.425 . S
C1704 C1711 1.409 . S
C1705 H1697 0.930 . S
C1705 C1703 1.419 . S
C1705 C1706 1.362 . S
C1706 H1698 0.930 . S
C1706 C1705 1.362 . S
C1706 C1709 1.409 . S
C1707 H1699 0.930 . S
C1707 C1708 1.355 . S
C1707 C1709 1.415 . S
C1708 C1707 1.355 . S
C1708 C1710 1.419 . S
C1709 C1704 1.425 . S
C1709 C1706 1.409 . S
C1709 C1707 1.415 . S
C1710 H1700 0.930 . S
C1710 C1708 1.419 . S
C1710 C1711 1.362 . S
C1711 H1701 0.930 . S
C1711 C1704 1.409 . S
C1711 C1710 1.362 . S
H1712 C1718 0.930 . S
H1713 C1721 0.930 . S
H1714 C1722 0.930 . S
H1715 C1723 0.930 . S
H1716 C1726 0.930 . S
H1717 C1727 0.930 . S
C1718 H1712 0.930 . S
C1718 C1719 1.355 . S
C1718 C1720 1.415 . S
C1719 C1718 1.355 . S
C1719 C1721 1.419 . S
C1720 C1718 1.415 . S
C1720 C1725 1.425 . S
C1720 C1727 1.409 1_545 S
C1721 H1713 0.930 . S
C1721 C1719 1.419 . S
C1721 C1722 1.362 . S
C1722 H1714 0.930 . S
C1722 C1721 1.362 . S
C1722 C1725 1.409 . S
C1723 H1715 0.930 . S
C1723 C1724 1.355 . S
C1723 C1725 1.415 . S
C1724 C1723 1.355 . S
C1724 C1726 1.419 1_545 S
C1725 C1720 1.425 . S
C1725 C1722 1.409 . S
C1725 C1723 1.415 . S
C1726 H1716 0.930 . S
C1726 C1724 1.419 1_565 S
C1726 C1727 1.362 . S
C1727 H1717 0.930 . S
C1727 C1720 1.409 1_565 S
C1727 C1726 1.362 . S
C583 C4 1.512 . S
C588 C421 1.546 . S
C599 C26 1.567 . S
C604 C446 1.518 . S
C620 C457 1.535 . S
C615 C32 1.517 . S
C631 C40 1.505 . S
C636 C482 1.467 . S
C647 C12 1.523 . S
C652 C500 1.511 . S
C663 C18 1.480 . S
C668 C511 1.518 . S
C679 C46 1.518 . S
C684 C493 1.559 . S
C700 C518 1.540 . S
C695 C68 1.538 . S
C716 C475 1.460 1_565 S
C711 C74 1.464 . S
C727 C82 1.521 . S
C732 C464 1.479 . S
C748 C428 1.548 1_655 S
C743 C54 1.542 . S
C759 C60 1.530 . S
C764 C439 1.549 . S
C775 C88 1.539 . S
C780 C529 1.575 . S
C791 C110 1.579 . S
C796 C554 1.531 . S
C812 C565 1.587 . S
C807 C116 1.573 . S
C823 C124 1.512 . S
C828 C266 1.502 . S
C839 C96 1.548 . S
C844 C284 1.527 . S
C855 C102 1.489 . S
C860 C295 1.516 . S
C871 C130 1.527 . S
C876 C277 1.552 . S
C887 C152 1.583 . S
C892 C302 1.570 . S
C908 C259 1.527 . S
C903 C158 1.489 . S
C924 C572 1.479 . S
C919 C166 1.508 . S
C940 C536 1.498 . S
C935 C138 1.536 . S
C956 C547 1.573 . S
C951 C144 1.552 . S
C967 C172 1.532 . S
C972 C313 1.555 . S
C983 C194 1.602 . S
C988 C338 1.564 . S
C999 C200 1.556 . S
C1004 C349 1.567 . S
C1015 C208 1.550 . S
C1020 C374 1.544 . S
C1036 C392 1.564 . S
C1031 C180 1.575 . S
C1052 C403 1.575 . S
C1047 C186 1.546 . S
C1068 C385 1.565 . S
C1063 C214 1.522 . S
C1084 C410 1.528 . S
C1079 C236 1.547 . S
C1095 C242 1.518 . S
C1100 C367 1.544 . S
C1116 C356 1.508 . S
C1111 C250 1.519 . S
C1127 C222 1.564 . S
C1132 C320 1.553 . S
C1148 C331 1.522 . S
C1143 C228 1.491 . S
C1164 C268 1.348 . S
C1159 C5 1.173 . S
C1175 C25 1.360 . S
C1180 C286 1.233 . S
C1196 C296 1.353 . S
C1191 C33 1.254 . S
C1212 C314 1.281 . S
C1207 C39 1.330 . S
C1228 C340 1.284 . S
C1223 C11 1.353 . S
C1244 C350 1.311 . S
C1239 C19 1.156 1_556 S
C1255 C47 1.234 1_556 S
C1260 C358 1.362 . S
C1271 C67 1.382 . S
C1276 C322 1.321 . S
C1287 C75 1.252 1_556 S
C1292 C332 1.373 . S
C1303 C81 1.389 . S
C1308 C278 1.291 . S
C1324 C304 1.328 . S
C1319 C53 1.385 . S
C1335 C61 1.131 . S
C1340 C260 1.303 . S
C1356 C376 1.299 . S
C1351 C89 1.169 . S
C1367 C109 1.392 . S
C1372 C394 1.274 . S
C1383 C117 1.245 . S
C1388 C404 1.353 . S
C1404 C422 1.295 . S
C1399 C123 1.273 . S
C1415 C95 1.359 . S
C1420 C448 1.306 . S
C1431 C103 1.070 . S
C1436 C458 1.231 . S
C1447 C131 1.220 . S
C1452 C466 1.334 1_545 S
C1463 C151 1.348 . S
C1468 C430 1.286 . S
C1484 C440 1.296 . S
C1479 C159 1.124 . S
C1495 C165 1.372 . S
C1500 C386 1.286 . S
C1511 C137 1.440 . S
C1516 C412 1.274 . S
C1532 C368 1.323 . S
C1527 C145 1.164 . S
C1548 C484 1.291 . S
C1543 C173 1.128 . S
C1559 C193 1.320 . S
C1564 C502 1.201 . S
C1575 C201 1.207 . S
C1580 C512 1.316 . S
C1596 C530 1.294 . S
C1591 C207 1.330 . S
C1612 C556 1.345 . S
C1607 C179 1.402 . S
C1623 C187 1.213 . S
C1628 C566 1.357 . S
C1639 C215 1.163 . S
C1644 C574 1.310 . S
C1655 C235 1.442 . S
C1660 C538 1.289 . S
C1676 C548 1.397 . S
C1671 C243 1.283 . S
C1692 C494 1.282 1_655 S
C1687 C249 1.292 . S
C1708 C520 1.268 . S
C1703 C221 1.395 . S
C1719 C229 1.081 . S
C1724 C476 1.250 1_545 S
