# Generated by pormake.
# Topology ptr, (4,4)-cn, num edge types: 1
# Building blocks:
#     Node 0, Type 0, BuildingBlock: KUFVIS_clean_sbu_0, # of connection points: 4
#     Node 1, Type 0, BuildingBlock: KUFVIS_clean_sbu_0, # of connection points: 4
#     Node 2, Type 0, BuildingBlock: KUFVIS_clean_sbu_0, # of connection points: 4
#     Node 3, Type 0, BuildingBlock: KUFVIS_clean_sbu_0, # of connection points: 4
#     Node 4, Type 0, BuildingBlock: KUFVIS_clean_sbu_0, # of connection points: 4
#     Node 5, Type 0, BuildingBlock: KUFVIS_clean_sbu_0, # of connection points: 4
#     Node 6, Type 0, BuildingBlock: KUFVIS_clean_sbu_0, # of connection points: 4
#     Node 7, Type 0, BuildingBlock: KUFVIS_clean_sbu_0, # of connection points: 4
#     Node 8, Type 0, BuildingBlock: KUFVIS_clean_sbu_0, # of connection points: 4
#     Node 9, Type 0, BuildingBlock: KUFVIS_clean_sbu_0, # of connection points: 4
#     Node 10, Type 0, BuildingBlock: KUFVIS_clean_sbu_0, # of connection points: 4
#     Node 11, Type 0, BuildingBlock: KUFVIS_clean_sbu_0, # of connection points: 4
#     Node 12, Type 0, BuildingBlock: KUFVIS_clean_sbu_0, # of connection points: 4
#     Node 13, Type 0, BuildingBlock: KUFVIS_clean_sbu_0, # of connection points: 4
#     Node 14, Type 0, BuildingBlock: KUFVIS_clean_sbu_0, # of connection points: 4
#     Node 15, Type 0, BuildingBlock: KUFVIS_clean_sbu_0, # of connection points: 4
#     Node 16, Type 0, BuildingBlock: KUFVIS_clean_sbu_0, # of connection points: 4
#     Node 17, Type 0, BuildingBlock: KUFVIS_clean_sbu_0, # of connection points: 4
#     Node 18, Type 1, BuildingBlock: MIFKUJ_clean_linker_1, # of connection points: 4
#     Node 19, Type 1, BuildingBlock: MIFKUJ_clean_linker_1, # of connection points: 4
#     Node 20, Type 1, BuildingBlock: MIFKUJ_clean_linker_1, # of connection points: 4
#     Node 21, Type 1, BuildingBlock: MIFKUJ_clean_linker_1, # of connection points: 4
#     Node 22, Type 1, BuildingBlock: MIFKUJ_clean_linker_1, # of connection points: 4
#     Node 23, Type 1, BuildingBlock: MIFKUJ_clean_linker_1, # of connection points: 4
#     Node 24, Type 1, BuildingBlock: MIFKUJ_clean_linker_1, # of connection points: 4
#     Node 25, Type 1, BuildingBlock: MIFKUJ_clean_linker_1, # of connection points: 4
#     Node 26, Type 1, BuildingBlock: MIFKUJ_clean_linker_1, # of connection points: 4
#     Node 27, Type 1, BuildingBlock: MIFKUJ_clean_linker_1, # of connection points: 4
#     Node 28, Type 1, BuildingBlock: MIFKUJ_clean_linker_1, # of connection points: 4
#     Node 29, Type 1, BuildingBlock: MIFKUJ_clean_linker_1, # of connection points: 4
#     Node 30, Type 1, BuildingBlock: MIFKUJ_clean_linker_1, # of connection points: 4
#     Node 31, Type 1, BuildingBlock: MIFKUJ_clean_linker_1, # of connection points: 4
#     Node 32, Type 1, BuildingBlock: MIFKUJ_clean_linker_1, # of connection points: 4
#     Node 33, Type 1, BuildingBlock: MIFKUJ_clean_linker_1, # of connection points: 4
#     Node 34, Type 1, BuildingBlock: MIFKUJ_clean_linker_1, # of connection points: 4
#     Node 35, Type 1, BuildingBlock: MIFKUJ_clean_linker_1, # of connection points: 4
#     Edge 36, Type (0, 1), BuildingBlock: XUDNAN_clean_linker_2, # of connection points: 2
#     Edge 37, Type (0, 1), BuildingBlock: XUDNAN_clean_linker_2, # of connection points: 2
#     Edge 38, Type (0, 1), BuildingBlock: XUDNAN_clean_linker_2, # of connection points: 2
#     Edge 39, Type (0, 1), BuildingBlock: XUDNAN_clean_linker_2, # of connection points: 2
#     Edge 40, Type (0, 1), BuildingBlock: XUDNAN_clean_linker_2, # of connection points: 2
#     Edge 41, Type (0, 1), BuildingBlock: XUDNAN_clean_linker_2, # of connection points: 2
#     Edge 42, Type (0, 1), BuildingBlock: XUDNAN_clean_linker_2, # of connection points: 2
#     Edge 43, Type (0, 1), BuildingBlock: XUDNAN_clean_linker_2, # of connection points: 2
#     Edge 44, Type (0, 1), BuildingBlock: XUDNAN_clean_linker_2, # of connection points: 2
#     Edge 45, Type (0, 1), BuildingBlock: XUDNAN_clean_linker_2, # of connection points: 2
#     Edge 46, Type (0, 1), BuildingBlock: XUDNAN_clean_linker_2, # of connection points: 2
#     Edge 47, Type (0, 1), BuildingBlock: XUDNAN_clean_linker_2, # of connection points: 2
#     Edge 48, Type (0, 1), BuildingBlock: XUDNAN_clean_linker_2, # of connection points: 2
#     Edge 49, Type (0, 1), BuildingBlock: XUDNAN_clean_linker_2, # of connection points: 2
#     Edge 50, Type (0, 1), BuildingBlock: XUDNAN_clean_linker_2, # of connection points: 2
#     Edge 51, Type (0, 1), BuildingBlock: XUDNAN_clean_linker_2, # of connection points: 2
#     Edge 52, Type (0, 1), BuildingBlock: XUDNAN_clean_linker_2, # of connection points: 2
#     Edge 53, Type (0, 1), BuildingBlock: XUDNAN_clean_linker_2, # of connection points: 2
#     Edge 54, Type (0, 1), BuildingBlock: XUDNAN_clean_linker_2, # of connection points: 2
#     Edge 55, Type (0, 1), BuildingBlock: XUDNAN_clean_linker_2, # of connection points: 2
#     Edge 56, Type (0, 1), BuildingBlock: XUDNAN_clean_linker_2, # of connection points: 2
#     Edge 57, Type (0, 1), BuildingBlock: XUDNAN_clean_linker_2, # of connection points: 2
#     Edge 58, Type (0, 1), BuildingBlock: XUDNAN_clean_linker_2, # of connection points: 2
#     Edge 59, Type (0, 1), BuildingBlock: XUDNAN_clean_linker_2, # of connection points: 2
#     Edge 60, Type (0, 1), BuildingBlock: XUDNAN_clean_linker_2, # of connection points: 2
#     Edge 61, Type (0, 1), BuildingBlock: XUDNAN_clean_linker_2, # of connection points: 2
#     Edge 62, Type (0, 1), BuildingBlock: XUDNAN_clean_linker_2, # of connection points: 2
#     Edge 63, Type (0, 1), BuildingBlock: XUDNAN_clean_linker_2, # of connection points: 2
#     Edge 64, Type (0, 1), BuildingBlock: XUDNAN_clean_linker_2, # of connection points: 2
#     Edge 65, Type (0, 1), BuildingBlock: XUDNAN_clean_linker_2, # of connection points: 2
#     Edge 66, Type (0, 1), BuildingBlock: XUDNAN_clean_linker_2, # of connection points: 2
#     Edge 67, Type (0, 1), BuildingBlock: XUDNAN_clean_linker_2, # of connection points: 2
#     Edge 68, Type (0, 1), BuildingBlock: XUDNAN_clean_linker_2, # of connection points: 2
#     Edge 69, Type (0, 1), BuildingBlock: XUDNAN_clean_linker_2, # of connection points: 2
#     Edge 70, Type (0, 1), BuildingBlock: XUDNAN_clean_linker_2, # of connection points: 2
#     Edge 71, Type (0, 1), BuildingBlock: XUDNAN_clean_linker_2, # of connection points: 2
#     Edge 72, Type (0, 1), BuildingBlock: XUDNAN_clean_linker_2, # of connection points: 2
#     Edge 73, Type (0, 1), BuildingBlock: XUDNAN_clean_linker_2, # of connection points: 2
#     Edge 74, Type (0, 1), BuildingBlock: XUDNAN_clean_linker_2, # of connection points: 2
#     Edge 75, Type (0, 1), BuildingBlock: XUDNAN_clean_linker_2, # of connection points: 2
#     Edge 76, Type (0, 1), BuildingBlock: XUDNAN_clean_linker_2, # of connection points: 2
#     Edge 77, Type (0, 1), BuildingBlock: XUDNAN_clean_linker_2, # of connection points: 2
#     Edge 78, Type (0, 1), BuildingBlock: XUDNAN_clean_linker_2, # of connection points: 2
#     Edge 79, Type (0, 1), BuildingBlock: XUDNAN_clean_linker_2, # of connection points: 2
#     Edge 80, Type (0, 1), BuildingBlock: XUDNAN_clean_linker_2, # of connection points: 2
#     Edge 81, Type (0, 1), BuildingBlock: XUDNAN_clean_linker_2, # of connection points: 2
#     Edge 82, Type (0, 1), BuildingBlock: XUDNAN_clean_linker_2, # of connection points: 2
#     Edge 83, Type (0, 1), BuildingBlock: XUDNAN_clean_linker_2, # of connection points: 2
#     Edge 84, Type (0, 1), BuildingBlock: XUDNAN_clean_linker_2, # of connection points: 2
#     Edge 85, Type (0, 1), BuildingBlock: XUDNAN_clean_linker_2, # of connection points: 2
#     Edge 86, Type (0, 1), BuildingBlock: XUDNAN_clean_linker_2, # of connection points: 2
#     Edge 87, Type (0, 1), BuildingBlock: XUDNAN_clean_linker_2, # of connection points: 2
#     Edge 88, Type (0, 1), BuildingBlock: XUDNAN_clean_linker_2, # of connection points: 2
#     Edge 89, Type (0, 1), BuildingBlock: XUDNAN_clean_linker_2, # of connection points: 2
#     Edge 90, Type (0, 1), BuildingBlock: XUDNAN_clean_linker_2, # of connection points: 2
#     Edge 91, Type (0, 1), BuildingBlock: XUDNAN_clean_linker_2, # of connection points: 2
#     Edge 92, Type (0, 1), BuildingBlock: XUDNAN_clean_linker_2, # of connection points: 2
#     Edge 93, Type (0, 1), BuildingBlock: XUDNAN_clean_linker_2, # of connection points: 2
#     Edge 94, Type (0, 1), BuildingBlock: XUDNAN_clean_linker_2, # of connection points: 2
#     Edge 95, Type (0, 1), BuildingBlock: XUDNAN_clean_linker_2, # of connection points: 2
#     Edge 96, Type (0, 1), BuildingBlock: XUDNAN_clean_linker_2, # of connection points: 2
#     Edge 97, Type (0, 1), BuildingBlock: XUDNAN_clean_linker_2, # of connection points: 2
#     Edge 98, Type (0, 1), BuildingBlock: XUDNAN_clean_linker_2, # of connection points: 2
#     Edge 99, Type (0, 1), BuildingBlock: XUDNAN_clean_linker_2, # of connection points: 2
#     Edge 100, Type (0, 1), BuildingBlock: XUDNAN_clean_linker_2, # of connection points: 2
#     Edge 101, Type (0, 1), BuildingBlock: XUDNAN_clean_linker_2, # of connection points: 2
#     Edge 102, Type (0, 1), BuildingBlock: XUDNAN_clean_linker_2, # of connection points: 2
#     Edge 103, Type (0, 1), BuildingBlock: XUDNAN_clean_linker_2, # of connection points: 2
#     Edge 104, Type (0, 1), BuildingBlock: XUDNAN_clean_linker_2, # of connection points: 2
#     Edge 105, Type (0, 1), BuildingBlock: XUDNAN_clean_linker_2, # of connection points: 2
#     Edge 106, Type (0, 1), BuildingBlock: XUDNAN_clean_linker_2, # of connection points: 2
#     Edge 107, Type (0, 1), BuildingBlock: XUDNAN_clean_linker_2, # of connection points: 2
# Relax obj value: 0.041
# Max RMSD: 0.153
# Mean RMSD: 0.069
data_MOF--net-ptr--node1-KUFVIS_clean_sbu_0--node2-MIFKUJ_clean_linker_1--edge1-XUDNAN_clean_linker_2
_symmetry_space_group_name_H-M    P1
_symmetry_Int_Tables_number       1
_symmetry_cell_setting            triclinic
loop_
_symmetry_equiv_pos_as_xyz
'x, y, z'
_cell_length_a     89.308166
_cell_length_b     88.83881
_cell_length_c     61.866165
_cell_angle_alpha  89.820223
_cell_angle_beta   90.603899
_cell_angle_gamma 119.47114
loop_
_atom_site_label
_atom_site_type_symbol
_atom_site_fract_x
_atom_site_fract_y
_atom_site_fract_z
_atom_type_partial_charge
Mn0 Mn 0.9943 0.34865 0.01084 0.0
Mn1 Mn 0.03192 0.38635 0.00871 0.0
C2 C 0.99624 0.37099 0.98981 0.0
C3 C 0.97565 0.3203 0.99963 0.0
C4 C 0.00676 0.37768 0.04507 0.0
O5 O 0.01127 0.34198 0.02355 0.0
O6 O 0.03523 0.36789 0.0224 0.0
C7 C 0.04858 0.37439 0.97722 0.0
N8 N 0.04341 0.38588 0.98306 0.0
C9 C 0.05654 0.40337 0.95173 0.0
C10 C 0.06203 0.39175 0.94538 0.0
C11 C 0.05791 0.37712 0.9581 0.0
C12 C 0.04685 0.39971 0.97061 0.0
H13 H 0.04567 0.36327 0.98711 0.0
C14 C 0.02725 0.35183 0.02727 0.0
O15 O 0.97474 0.32578 0.01872 0.0
O16 O 0.98775 0.33119 0.98712 0.0
N17 N 0.03155 0.40583 0.99603 0.0
C18 C 0.02619 0.41633 0.00505 0.0
C19 C 0.02922 0.43149 0.99427 0.0
C20 C 0.03842 0.43612 0.97486 0.0
C21 C 0.04459 0.42559 0.96648 0.0
C22 C 0.04075 0.41038 0.9776 0.0
H23 H 0.01954 0.4131 0.02028 0.0
O24 O 0.98143 0.3586 0.99595 0.0
O25 O 0.00972 0.36971 0.99534 0.0
O26 O 0.99611 0.3625 0.03827 0.0
O27 O 0.02059 0.3879 0.03516 0.0
C28 C 0.05481 0.42984 0.94784 0.0
C29 C 0.06057 0.41861 0.94029 0.0
H30 H 0.06947 0.39396 0.93083 0.0
H31 H 0.0621 0.36808 0.95333 0.0
H32 H 0.02469 0.43972 1.00107 0.0
H33 H 0.04094 0.44795 0.96674 0.0
H34 H 0.05816 0.44162 0.93905 0.0
H35 H 0.0682 0.4219 0.92576 0.0
Mn36 Mn 0.64948 0.64629 0.01086 0.0
Mn37 Mn 0.65869 0.61388 0.01758 0.0
C38 C 0.6328 0.62368 0.03373 0.0
C39 C 0.65477 0.67403 0.02014 0.0
C40 C 0.63854 0.61599 0.97904 0.0
O41 O 0.6732 0.65607 0.99748 0.0
O42 O 0.67838 0.63421 0.00408 0.0
C43 C 0.68581 0.63157 0.0509 0.0
N44 N 0.67064 0.61772 0.04456 0.0
C45 C 0.66835 0.60309 0.07816 0.0
C46 C 0.68397 0.61716 0.08505 0.0
C47 C 0.69269 0.63152 0.07141 0.0
C48 C 0.66191 0.60408 0.05778 0.0
H49 H 0.69262 0.64255 0.04038 0.0
C50 C 0.68277 0.6492 0.9965 0.0
O51 O 0.64816 0.66714 1.00149 0.0
O52 O 0.65853 0.66491 0.03321 0.0
N53 N 0.64132 0.59294 0.03025 0.0
C54 C 0.62735 0.57972 0.02032 0.0
C55 C 0.61735 0.56425 0.03159 0.0
C56 C 0.6222 0.56225 0.05259 0.0
C57 C 0.63721 0.57561 0.06196 0.0
C58 C 0.64651 0.59085 0.05009 0.0
H59 H 0.62379 0.58101 0.00397 0.0
O60 O 0.62738 0.63391 0.02665 0.0
O61 O 0.64831 0.62748 0.02814 0.0
O62 O 0.63862 0.6299 0.98469 0.0
O63 O 0.6459 0.60914 0.98997 0.0
C64 C 0.64363 0.57418 0.08229 0.0
C65 C 0.65906 0.588 0.09053 0.0
H66 H 0.68943 0.61706 0.10073 0.0
H67 H 0.70475 0.64244 0.07661 0.0
H68 H 0.606 0.55384 0.02403 0.0
H69 H 0.61453 0.55024 0.06117 0.0
H70 H 0.63676 0.56251 0.09179 0.0
H71 H 0.66377 0.5868 0.10628 0.0
Mn72 Mn 0.34805 0.99884 0.02161 0.0
Mn73 Mn 0.38352 0.03844 0.02133 0.0
C74 C 0.37041 0.00529 0.04575 0.0
C75 C 0.3205 0.97842 0.0327 0.0
C76 C 0.37703 0.01082 0.98832 0.0
O77 O 0.33976 0.01328 0.00487 0.0
O78 O 0.36411 0.03908 0.00616 0.0
C79 C 0.37063 0.05636 0.04951 0.0
N80 N 0.38261 0.05156 0.04519 0.0
C81 C 0.39905 0.0662 0.07698 0.0
C82 C 0.38693 0.07138 0.08172 0.0
C83 C 0.37264 0.0664 0.06794 0.0
C84 C 0.39638 0.05624 0.05836 0.0
H85 H 0.35961 0.05254 0.03899 0.0
C86 C 0.34836 0.0294 1.00045 0.0
O87 O 0.32686 0.97698 0.01459 0.0
O88 O 0.32975 0.99235 0.04399 0.0
N89 N 0.40332 0.03988 0.03551 0.0
C90 C 0.41356 0.03341 0.02896 0.0
C91 C 0.42836 0.03709 0.04106 0.0
C92 C 0.43249 0.04737 0.05974 0.0
C93 C 0.4219 0.05409 0.06599 0.0
C94 C 0.40745 0.0502 0.05311 0.0
H95 H 0.41046 0.0255 0.01461 0.0
O96 O 0.35968 0.98939 0.04055 0.0
O97 O 0.36776 0.01706 0.03676 0.0
O98 O 0.36267 0.99955 0.99603 0.0
O99 O 0.38599 0.0259 0.99644 0.0
C100 C 0.42497 0.0643 0.08465 0.0
C101 C 0.41353 0.07031 0.09017 0.0
H102 H 0.3884 0.07907 0.09596 0.0
H103 H 0.3632 0.07029 0.07154 0.0
H104 H 0.43654 0.03198 0.03599 0.0
H105 H 0.44381 0.05001 0.06918 0.0
H106 H 0.43599 0.06744 0.09499 0.0
H107 H 0.41593 0.07799 0.10468 0.0
Mn108 Mn 0.99688 0.65291 0.00645 0.0
Mn109 Mn 0.0351 0.65373 0.00844 0.0
C110 C 0.00227 0.63632 0.98237 0.0
C111 C 0.97947 0.66418 0.99496 0.0
C112 C 0.00653 0.63386 0.04039 0.0
O113 O 0.01201 0.6745 0.02424 0.0
O114 O 0.03731 0.67472 0.02306 0.0
C115 C 0.05499 0.68395 0.98018 0.0
N116 N 0.04899 0.66695 0.98481 0.0
C117 C 0.06322 0.66351 0.95394 0.0
C118 C 0.06963 0.68101 0.94892 0.0
C119 C 0.06547 0.69126 0.96207 0.0
C120 C 0.05291 0.65697 0.97225 0.0
H121 H 0.05178 0.69186 0.99023 0.0
C122 C 0.02802 0.68135 0.02874 0.0
O123 O 0.97632 0.65522 0.01258 0.0
O124 O 0.99289 0.66682 0.98405 0.0
N125 N 0.03501 0.63437 0.99486 0.0
C126 C 0.02704 0.61754 1.00129 0.0
C127 C 0.02954 0.60547 0.98956 0.0
C128 C 0.04023 0.61083 0.97139 0.0
C129 C 0.04842 0.62825 0.96521 0.0
C130 C 0.0456 0.63973 0.97767 0.0
H131 H 0.0188 0.61333 0.01523 0.0
O132 O 0.98659 0.6325 0.98662 0.0
O133 O 0.01438 0.64988 0.99219 0.0
O134 O 0.99571 0.63755 0.03179 0.0
O135 O 0.02172 0.6395 0.03321 0.0
C136 C 0.05901 0.63461 0.94693 0.0
C137 C 0.06638 0.65223 0.94128 0.0
H138 H 0.07765 0.68668 0.9349 0.0
H139 H 0.0703 0.70476 0.95824 0.0
H140 H 0.0232 0.59205 0.99447 0.0
H141 H 0.04198 0.60144 0.96224 0.0
H142 H 0.06137 0.62602 0.93692 0.0
H143 H 0.0743 0.65691 0.92702 0.0
Mn144 Mn 0.35403 0.36025 0.01718 0.0
Mn145 Mn 0.39133 0.3601 0.00953 0.0
C146 C 0.3787 0.3802 0.03499 0.0
C147 C 0.32834 0.35019 0.03615 0.0
C148 C 0.37711 0.37609 0.97772 0.0
O149 O 0.3461 0.33693 0.00279 0.0
O150 O 0.37156 0.33775 0.99974 0.0
C151 C 0.38624 0.33307 0.04134 0.0
N152 N 0.39576 0.34951 0.03384 0.0
C153 C 0.41813 0.35581 0.06011 0.0
C154 C 0.40859 0.33894 0.06811 0.0
C155 C 0.39252 0.32755 0.05877 0.0
C156 C 0.41105 0.36069 0.04302 0.0
H157 H 0.37399 0.32421 0.034 0.0
C158 C 0.35518 0.33014 0.99728 0.0
O159 O 0.33003 0.35668 0.01688 0.0
O160 O 0.34124 0.34893 0.0438 0.0
N161 N 0.4117 0.38072 0.01817 0.0
C162 C 0.41939 0.3965 0.00841 0.0
C163 C 0.43536 0.40954 0.0162 0.0
C164 C 0.44351 0.40605 0.03349 0.0
C165 C 0.43561 0.38955 0.0428 0.0
C166 C 0.41953 0.37718 0.03466 0.0
H167 H 0.41333 0.39917 0.99487 0.0
O168 O 0.36569 0.38277 0.03268 0.0
O169 O 0.37675 0.36567 0.02742 0.0
O170 O 0.36354 0.37275 0.9882 0.0
O171 O 0.38798 0.3716 0.98419 0.0
C172 C 0.4432 0.3848 0.05962 0.0
C173 C 0.43445 0.36795 0.0683 0.0
H174 H 0.41348 0.33458 0.0814 0.0
H175 H 0.38507 0.31451 0.06486 0.0
H176 H 0.44145 0.42219 0.00876 0.0
H177 H 0.4559 0.41609 0.03932 0.0
H178 H 0.45569 0.39404 0.06615 0.0
H179 H 0.44033 0.36452 0.08141 0.0
Mn180 Mn 0.65056 0.00357 0.00331 0.0
Mn181 Mn 0.61651 0.96309 0.00357 0.0
C182 C 0.62754 0.99614 0.98006 0.0
C183 C 0.67721 0.02504 0.99145 0.0
C184 C 0.62213 0.98977 0.03747 0.0
O185 O 0.6604 0.99006 0.01886 0.0
O186 O 0.63671 0.96369 0.01824 0.0
C187 C 0.63082 0.94694 0.97461 0.0
N188 N 0.6182 0.95076 0.9793 0.0
C189 C 0.60226 0.93627 0.94716 0.0
C190 C 0.61505 0.93209 0.94204 0.0
C191 C 0.6294 0.93748 0.95582 0.0
C192 C 0.60435 0.94568 0.96613 0.0
H193 H 0.6419 0.9511 0.98511 0.0
C194 C 0.65247 0.97395 0.0234 0.0
O195 O 0.67113 0.02607 0.00998 0.0
O196 O 0.66829 0.01103 0.98019 0.0
N197 N 0.59612 0.96054 0.98978 0.0
C198 C 0.58514 0.96595 0.99679 0.0
C199 C 0.57013 0.96168 0.9848 0.0
C200 C 0.56657 0.95188 0.96575 0.0
C201 C 0.57796 0.94627 0.95901 0.0
C202 C 0.59257 0.9507 0.9718 0.0
H203 H 0.58781 0.97351 0.0114 0.0
O204 O 0.63757 0.01215 0.98549 0.0
O205 O 0.63121 0.98487 0.98839 0.0
O206 O 0.6362 0.00155 0.02971 0.0
O207 O 0.61339 0.97484 0.02886 0.0
C208 C 0.57547 0.93662 0.93997 0.0
C209 C 0.58764 0.93166 0.93402 0.0
H210 H 0.61403 0.92486 0.92752 0.0
H211 H 0.63936 0.93437 0.95194 0.0
H212 H 0.56136 0.96597 0.9902 0.0
H213 H 0.55507 0.94875 0.95642 0.0
H214 H 0.56434 0.93309 0.92968 0.0
H215 H 0.58569 0.9244 0.91923 0.0
Mn216 Mn 0.66682 0.68677 0.33489 0.0
Mn217 Mn 0.703 0.72496 0.34298 0.0
C218 C 0.67055 0.71086 0.31631 0.0
C219 C 0.65282 0.66025 0.31691 0.0
C220 C 0.67295 0.71034 0.37389 0.0
O221 O 0.6826 0.67989 0.35053 0.0
O222 O 0.70666 0.70573 0.35324 0.0
C223 C 0.72546 0.72046 0.31189 0.0
N224 N 0.71797 0.72965 0.31902 0.0
C225 C 0.73296 0.75192 0.29268 0.0
C226 C 0.74088 0.74273 0.28506 0.0
C227 C 0.73702 0.72687 0.29461 0.0
C228 C 0.72129 0.74471 0.30963 0.0
H229 H 0.72268 0.70837 0.31939 0.0
C230 C 0.6983 0.68933 0.35606 0.0
O231 O 0.64749 0.66239 0.33553 0.0
O232 O 0.66633 0.6734 0.30904 0.0
N233 N 0.70168 0.74489 0.33395 0.0
C234 C 0.69312 0.75227 0.34337 0.0
C235 C 0.69523 0.76799 0.33535 0.0
C236 C 0.70651 0.77622 0.31816 0.0
C237 C 0.71561 0.76868 0.30921 0.0
C238 C 0.71274 0.75283 0.3176 0.0
H239 H 0.68466 0.74616 0.35683 0.0
O240 O 0.65539 0.69744 0.31812 0.0
O241 O 0.68332 0.70958 0.32469 0.0
O242 O 0.6631 0.69665 0.36312 0.0
O243 O 0.68814 0.72135 0.36796 0.0
C244 C 0.72762 0.77639 0.29251 0.0
C245 C 0.73628 0.768 0.28423 0.0
H246 H 0.74994 0.74772 0.27189 0.0
H247 H 0.74306 0.71969 0.28882 0.0
H248 H 0.6883 0.77382 0.34251 0.0
H249 H 0.70821 0.78842 0.31213 0.0
H250 H 0.73021 0.7887 0.28579 0.0
H251 H 0.74535 0.77397 0.27122 0.0
Mn252 Mn 0.31764 0.98048 0.35519 0.0
Mn253 Mn 0.32597 0.9477 0.36252 0.0
C254 C 0.30386 0.96059 0.38234 0.0
C255 C 0.32576 0.00919 0.3632 0.0
C256 C 0.30313 0.94858 0.3261 0.0
O257 O 0.33931 0.98782 0.33761 0.0
O258 O 0.34533 0.96681 0.34681 0.0
C259 C 0.3557 0.96489 0.39255 0.0
N260 N 0.33963 0.95163 0.38805 0.0
C261 C 0.33832 0.93828 0.4224 0.0
C262 C 0.3549 0.95173 0.42736 0.0
C263 C 0.3636 0.96511 0.41239 0.0
C264 C 0.33112 0.93872 0.40236 0.0
H265 H 0.3624 0.97521 0.3811 0.0
C266 C 0.34895 0.98095 0.33713 0.0
O267 O 0.31637 0.00162 0.34621 0.0
O268 O 0.33046 1.00022 0.37511 0.0
N269 N 0.30841 0.92829 0.37758 0.0
C270 C 0.29228 0.91662 0.37062 0.0
C271 C 0.28178 0.9025 0.38381 0.0
C272 C 0.28798 0.90051 0.40397 0.0
C273 C 0.30467 0.9126 0.4107 0.0
C274 C 0.31464 0.92627 0.39673 0.0
H275 H 0.28746 0.91806 0.35512 0.0
O276 O 0.29778 0.97031 0.37541 0.0
O277 O 0.31806 0.96312 0.37353 0.0
O278 O 0.30326 0.96253 0.33165 0.0
O279 O 0.31155 0.94251 0.33626 0.0
C280 C 0.31175 0.91175 0.43083 0.0
C281 C 0.32854 0.9246 0.4367 0.0
H282 H 0.36101 0.952 0.44268 0.0
H283 H 0.37637 0.97558 0.41614 0.0
H284 H 0.26892 0.89319 0.37847 0.0
H285 H 0.27979 0.88968 0.41418 0.0
H286 H 0.30431 0.90137 0.44201 0.0
H287 H 0.33376 0.92392 0.45232 0.0
Mn288 Mn 0.01342 0.32764 0.34885 0.0
Mn289 Mn 0.05037 0.36596 0.35174 0.0
C290 C 0.03581 0.3302 0.37034 0.0
C291 C 0.98528 0.30839 0.35931 0.0
C292 C 0.04268 0.34054 0.31549 0.0
O293 O 0.00627 0.34419 0.33583 0.0
O294 O 0.03182 0.36851 0.33702 0.0
C295 C 0.03709 0.38215 0.38221 0.0
N296 N 0.04903 0.37745 0.3771 0.0
C297 C 0.06546 0.39092 0.40931 0.0
C298 C 0.05337 0.39594 0.4149 0.0
C299 C 0.03905 0.39142 0.40135 0.0
C300 C 0.06257 0.38129 0.39033 0.0
H301 H 0.02617 0.3789 0.37172 0.0
C302 C 0.01585 0.36019 0.33188 0.0
O303 O 0.99097 0.3076 0.34038 0.0
O304 O 0.99585 0.32072 0.3721 0.0
N305 N 0.06993 0.36647 0.36543 0.0
C306 C 0.08107 0.36179 0.35697 0.0
C307 C 0.09609 0.36538 0.36853 0.0
C308 C 0.09992 0.37449 0.38815 0.0
C309 C 0.08877 0.38005 0.39594 0.0
C310 C 0.07375 0.37567 0.38402 0.0
H311 H 0.07845 0.35522 0.34158 0.0
O312 O 0.02369 0.31517 0.364 0.0
O313 O 0.03419 0.34353 0.36481 0.0
O314 O 0.02752 0.32977 0.32179 0.0
O315 O 0.05267 0.3545 0.32568 0.0
C316 C 0.0922 0.39019 0.41474 0.0
C317 C 0.08043 0.39539 0.42161 0.0
H318 H 0.05499 0.40333 0.42948 0.0
H319 H 0.02966 0.39524 0.40554 0.0
H320 H 0.1048 0.36134 0.36217 0.0
H321 H 0.11162 0.37743 0.39689 0.0
H322 H 0.10381 0.39394 0.42415 0.0
H323 H 0.08312 0.40299 0.43625 0.0
Mn324 Mn 0.67148 0.98089 0.33205 0.0
Mn325 Mn 0.71332 0.99287 0.32505 0.0
C326 C 0.67914 0.96767 0.30551 0.0
C327 C 0.6477 0.98444 0.32478 0.0
C328 C 0.69179 0.96964 0.36164 0.0
O329 O 0.68411 0.00359 0.34897 0.0
O330 O 0.71148 0.01142 0.34062 0.0
C331 C 0.72232 0.02185 0.29475 0.0
N332 N 0.72142 0.00644 0.29941 0.0
C333 C 0.73349 0.0059 0.26502 0.0
C334 C 0.73464 0.02182 0.25989 0.0
C335 C 0.72899 0.02981 0.27481 0.0
C336 C 0.72674 0.99861 0.28514 0.0
H337 H 0.71794 0.02799 0.30615 0.0
C338 C 0.70028 0.01419 0.34983 0.0
O339 O 0.64863 0.97666 0.34211 0.0
O340 O 0.66088 0.99081 0.31208 0.0
N341 N 0.71722 0.97628 0.31022 0.0
C342 C 0.71498 0.96083 0.31754 0.0
C343 C 0.72001 0.95118 0.30458 0.0
C344 C 0.72729 0.95751 0.28425 0.0
C345 C 0.72969 0.97355 0.27719 0.0
C346 C 0.7247 0.98272 0.29098 0.0
H347 H 0.70942 0.95591 0.33317 0.0
O348 O 0.66353 0.96037 0.31264 0.0
O349 O 0.68973 0.98277 0.31369 0.0
O350 O 0.67758 0.96865 0.3558 0.0
O351 O 0.70591 0.97863 0.3516 0.0
C352 C 0.73671 0.98073 0.25696 0.0
C353 C 0.73855 0.99687 0.25084 0.0
H354 H 0.73973 0.02798 0.2445 0.0
H355 H 0.72977 0.04206 0.27093 0.0
H356 H 0.71825 0.93889 0.31024 0.0
H357 H 0.731 0.94995 0.2742 0.0
H358 H 0.74059 0.97389 0.2459 0.0
H359 H 0.7438 0.00218 0.23516 0.0
Mn360 Mn 0.02195 0.69041 0.35534 0.0
Mn361 Mn 0.0557 0.68392 0.36473 0.0
C362 C 0.04414 0.70939 0.37774 0.0
C363 C 0.9939 0.68377 0.36386 0.0
C364 C 0.05111 0.69997 0.32343 0.0
O365 O 0.01375 0.6661 0.3436 0.0
O366 O 0.03544 0.66195 0.35517 0.0
C367 C 0.04181 0.66081 0.40255 0.0
N368 N 0.05443 0.67554 0.39349 0.0
C369 C 0.07187 0.68251 0.42572 0.0
C370 C 0.05911 0.66737 0.43539 0.0
C371 C 0.04395 0.65655 0.42381 0.0
C372 C 0.0688 0.68633 0.40472 0.0
H373 H 0.03024 0.65236 0.39359 0.0
C374 C 0.02072 0.65668 0.34623 0.0
O375 O 1.00031 0.68957 0.34492 0.0
O376 O 0.00363 0.68149 0.37765 0.0
N377 N 0.07656 0.70373 0.37408 0.0
C378 C 0.08813 0.71721 0.36194 0.0
C379 C 0.10397 0.72931 0.37115 0.0
C380 C 0.10804 0.72707 0.39247 0.0
C381 C 0.09632 0.71262 0.40428 0.0
C382 C 0.0806 0.70117 0.39438 0.0
H383 H 0.08528 0.7188 0.34536 0.0
O384 O 0.03319 0.71353 0.36973 0.0
O385 O 0.04131 0.69388 0.37329 0.0
O386 O 0.03774 0.70068 0.32912 0.0
O387 O 0.05811 0.6931 0.33501 0.0
C388 C 0.09985 0.70885 0.42522 0.0
C389 C 0.08761 0.69384 0.43597 0.0
H390 H 0.06084 0.66392 0.45167 0.0
H391 H 0.03403 0.64486 0.43117 0.0
H392 H 0.11309 0.74024 0.36177 0.0
H393 H 0.12033 0.73634 0.39947 0.0
H394 H 0.11193 0.71744 0.43325 0.0
H395 H 0.09042 0.69115 0.45214 0.0
Mn396 Mn 0.3244 0.34526 0.34307 0.0
Mn397 Mn 0.28831 0.30626 0.34049 0.0
C398 C 0.30381 0.3401 0.31673 0.0
C399 C 0.35306 0.36402 0.33433 0.0
C400 C 0.29466 0.33335 0.3746 0.0
O401 O 0.33054 0.32973 0.36119 0.0
O402 O 0.30694 0.30383 0.35501 0.0
C403 C 0.29975 0.28794 0.31078 0.0
N404 N 0.28838 0.29338 0.31587 0.0
C405 C 0.27095 0.27933 0.28448 0.0
C406 C 0.28238 0.27342 0.27902 0.0
C407 C 0.29687 0.27781 0.29219 0.0
C408 C 0.27442 0.28929 0.30327 0.0
H409 H 0.31094 0.29136 0.32081 0.0
C410 C 0.32207 0.31327 0.36295 0.0
O411 O 0.34618 0.36619 0.35156 0.0
O412 O 0.34344 0.35056 0.32247 0.0
N413 N 0.26928 0.3067 0.3266 0.0
C414 C 0.26038 0.31466 0.33313 0.0
C415 C 0.24594 0.31229 0.32115 0.0
C416 C 0.24076 0.30172 0.30265 0.0
C417 C 0.25006 0.29358 0.29632 0.0
C418 C 0.26427 0.29632 0.309 0.0
H419 H 0.26428 0.32278 0.34735 0.0
O420 O 0.31481 0.35581 0.32245 0.0
O421 O 0.30522 0.32786 0.32651 0.0
O422 O 0.3088 0.34517 0.36702 0.0
O423 O 0.28638 0.31823 0.36638 0.0
C424 C 0.24606 0.28322 0.27764 0.0
C425 C 0.2565 0.27611 0.27171 0.0
H426 H 0.28027 0.26571 0.26461 0.0
H427 H 0.30582 0.27341 0.288 0.0
H428 H 0.23884 0.31862 0.32614 0.0
H429 H 0.22972 0.30007 0.29332 0.0
H430 H 0.23518 0.28093 0.26747 0.0
H431 H 0.25348 0.26844 0.25708 0.0
Mn432 Mn 0.33344 0.02217 0.67277 0.0
Mn433 Mn 0.36454 0.06381 0.66664 0.0
C434 C 0.32842 0.04059 0.65115 0.0
C435 C 0.31953 0.99295 0.66341 0.0
C436 C 0.34207 0.05084 0.70619 0.0
O437 O 0.35488 0.02175 0.68377 0.0
O438 O 0.3744 0.0496 0.67792 0.0
C439 C 0.3838 0.05854 0.63159 0.0
N440 N 0.37518 0.06646 0.63923 0.0
C441 C 0.38288 0.08507 0.6082 0.0
C442 C 0.39186 0.07713 0.59998 0.0
C443 C 0.39218 0.06369 0.61163 0.0
C444 C 0.37431 0.079 0.62782 0.0
H445 H 0.38439 0.04846 0.64074 0.0
C446 C 0.37029 0.03431 0.68418 0.0
O447 O 0.31848 0.99807 0.68265 0.0
O448 O 0.32924 0.00478 0.64971 0.0
N449 N 0.35734 0.07946 0.65582 0.0
C450 C 0.34868 0.08624 0.66636 0.0
C451 C 0.3468 0.09952 0.65661 0.0
C452 C 0.35444 0.10618 0.63656 0.0
C453 C 0.36394 0.09953 0.62647 0.0
C454 C 0.36494 0.08595 0.63664 0.0
H455 H 0.34316 0.0815 0.68205 0.0
O456 O 0.31574 0.02665 0.659 0.0
O457 O 0.34382 0.04328 0.65566 0.0
O458 O 0.33331 0.03517 0.69995 0.0
O459 O 0.35418 0.06257 0.69509 0.0
C460 C 0.37287 0.10618 0.60703 0.0
C461 C 0.38233 0.09895 0.59789 0.0
H462 H 0.3986 0.08129 0.58478 0.0
H463 H 0.39909 0.0575 0.60541 0.0
H464 H 0.33968 0.10478 0.66468 0.0
H465 H 0.35319 0.1166 0.62923 0.0
H466 H 0.37246 0.11679 0.59888 0.0
H467 H 0.389 0.10406 0.58282 0.0
Mn468 Mn 0.98195 0.31897 0.68705 0.0
Mn469 Mn 0.9811 0.28062 0.68283 0.0
C470 C 0.96612 0.29694 0.71121 0.0
C471 C 0.99445 0.34706 0.70095 0.0
C472 C 0.96079 0.29139 0.65304 0.0
O473 O 0.00246 0.32471 0.66761 0.0
O474 O 1.00159 0.29892 0.66793 0.0
C475 C 0.01203 0.28863 0.70913 0.0
N476 N 0.99487 0.27852 0.7052 0.0
C477 C 0.99206 0.25971 0.73481 0.0
C478 C 0.00973 0.26987 0.73912 0.0
C479 C 0.01974 0.28441 0.72624 0.0
C480 C 0.98511 0.26451 0.71749 0.0
H481 H 0.01976 0.29982 0.69928 0.0
C482 C 0.00853 0.31486 0.66242 0.0
O483 O 0.98471 0.34262 0.68378 0.0
O484 O 0.99741 0.33543 0.7095 0.0
N485 N 0.96203 0.26173 0.69666 0.0
C486 C 0.94504 0.25383 0.69105 0.0
C487 C 0.9332 0.23925 0.70263 0.0
C488 C 0.93894 0.23293 0.71979 0.0
C489 C 0.95649 0.24119 0.72515 0.0
C490 C 0.96772 0.25554 0.71287 0.0
H491 H 0.94056 0.25861 0.67785 0.0
O492 O 0.96264 0.30934 0.70814 0.0
O493 O 0.97882 0.29782 0.70014 0.0
O494 O 0.9652 0.30593 0.66201 0.0
O495 O 0.96629 0.28127 0.6594 0.0
C496 C 0.96325 0.23593 0.74243 0.0
C497 C 0.98102 0.24521 0.74728 0.0
H498 H 0.01571 0.26671 0.75237 0.0
H499 H 0.03337 0.29235 0.72952 0.0
H500 H 0.91968 0.23293 0.69835 0.0
H501 H 0.92974 0.22179 0.72883 0.0
H502 H 0.95486 0.22493 0.75228 0.0
H503 H 0.98602 0.24119 0.76079 0.0
Mn504 Mn 0.68165 0.66543 0.67892 0.0
Mn505 Mn 0.71853 0.70327 0.67272 0.0
C506 C 0.70408 0.67314 0.70333 0.0
C507 C 0.65381 0.64989 0.69242 0.0
C508 C 0.70876 0.67148 0.64506 0.0
O509 O 0.6747 0.6789 0.65824 0.0
O510 O 0.69929 0.7045 0.65783 0.0
C511 C 0.71025 0.72657 0.69766 0.0
N512 N 0.7207 0.71972 0.69409 0.0
C513 C 0.74028 0.7372 0.72227 0.0
C514 C 0.72978 0.74452 0.72618 0.0
C515 C 0.71468 0.73915 0.71385 0.0
C516 C 0.73527 0.72481 0.70582 0.0
H517 H 0.69864 0.72247 0.68821 0.0
C518 C 0.68343 0.69475 0.65264 0.0
O519 O 0.65866 0.64419 0.67615 0.0
O520 O 0.66498 0.66468 0.70059 0.0
N521 N 0.73814 0.70395 0.68651 0.0
C522 C 0.7461 0.69464 0.68185 0.0
C523 C 0.76102 0.69789 0.69338 0.0
C524 C 0.76766 0.71073 0.70948 0.0
C525 C 0.75932 0.72024 0.71386 0.0
C526 C 0.74455 0.7165 0.70175 0.0
H527 H 0.74106 0.68475 0.66952 0.0
O528 O 0.69222 0.6571 0.70117 0.0
O529 O 0.70242 0.68427 0.69124 0.0
O530 O 0.69487 0.66126 0.65479 0.0
O531 O 0.71801 0.6874 0.65014 0.0
C532 C 0.76482 0.73295 0.73017 0.0
C533 C 0.7553 0.74142 0.73438 0.0
H534 H 0.73308 0.75414 0.73875 0.0
H535 H 0.70647 0.74468 0.71684 0.0
H536 H 0.76737 0.69048 0.68991 0.0
H537 H 0.77906 0.71306 0.71851 0.0
H538 H 0.77616 0.73607 0.73986 0.0
H539 H 0.75949 0.75096 0.7472 0.0
Mn540 Mn 0.33282 0.31416 0.67189 0.0
Mn541 Mn 0.37356 0.32326 0.66248 0.0
C542 C 0.33804 0.29864 0.64601 0.0
C543 C 0.31039 0.31988 0.66471 0.0
C544 C 0.35295 0.30235 0.70111 0.0
O545 O 0.3472 0.33748 0.68666 0.0
O546 O 0.37382 0.34322 0.67748 0.0
C547 C 0.38275 0.35138 0.63072 0.0
N548 N 0.38104 0.3357 0.63593 0.0
C549 C 0.39067 0.33286 0.60079 0.0
C550 C 0.39265 0.34902 0.59508 0.0
C551 C 0.38864 0.3583 0.61011 0.0
C552 C 0.3848 0.32664 0.62158 0.0
H553 H 0.37961 0.35851 0.64219 0.0
C554 C 0.36349 0.34728 0.68665 0.0
O555 O 0.31109 0.31268 0.68273 0.0
O556 O 0.32286 0.32409 0.65129 0.0
N557 N 0.37546 0.30529 0.648 0.0
C558 C 0.37248 0.28973 0.65589 0.0
C559 C 0.37579 0.27882 0.64284 0.0
C560 C 0.38216 0.28402 0.62187 0.0
C561 C 0.38531 0.30017 0.6142 0.0
C562 C 0.38201 0.31061 0.62805 0.0
H563 H 0.36761 0.28567 0.672 0.0
O564 O 0.32285 0.29254 0.65423 0.0
O565 O 0.34964 0.31386 0.65285 0.0
O566 O 0.33898 0.30235 0.69633 0.0
O567 O 0.36659 0.31004 0.68978 0.0
C568 C 0.39143 0.30625 0.59328 0.0
C569 C 0.39407 0.32256 0.58656 0.0
H570 H 0.39713 0.35438 0.57917 0.0
H571 H 0.39006 0.37075 0.60579 0.0
H572 H 0.3734 0.2664 0.64892 0.0
H573 H 0.38456 0.27551 0.61178 0.0
H574 H 0.394 0.29842 0.58217 0.0
H575 H 0.39861 0.32702 0.57036 0.0
Mn576 Mn 0.67886 0.01974 0.6845 0.0
Mn577 Mn 0.71608 0.01845 0.68384 0.0
C578 C 0.70042 0.03578 0.7094 0.0
C579 C 0.65036 0.00905 0.69493 0.0
C580 C 0.70767 0.03912 0.65179 0.0
O581 O 0.67268 0.99826 0.66645 0.0
O582 O 0.69773 0.99796 0.66832 0.0
C583 C 0.70555 0.98756 0.7113 0.0
N584 N 0.71651 0.00458 0.70725 0.0
C585 C 0.73387 0.00698 0.73846 0.0
C586 C 0.72282 0.98944 0.7429 0.0
C587 C 0.70857 0.97971 0.72929 0.0
C588 C 0.73022 0.01408 0.72027 0.0
H589 H 0.69458 0.98004 0.70088 0.0
C590 C 0.68201 0.99146 0.66211 0.0
O591 O 0.65635 0.01807 0.67746 0.0
O592 O 0.66083 0.0059 0.70628 0.0
N593 N 0.73504 0.0373 0.69829 0.0
C594 C 0.74404 0.0542 0.69221 0.0
C595 C 0.75858 0.06575 0.70427 0.0
C596 C 0.76372 0.05984 0.72244 0.0
C597 C 0.75437 0.04235 0.72823 0.0
C598 C 0.74013 0.03138 0.7154 0.0
H599 H 0.74018 0.05883 0.67824 0.0
O600 O 0.68872 0.03994 0.70472 0.0
O601 O 0.6991 0.02225 0.69951 0.0
O602 O 0.69308 0.03523 0.65966 0.0
O603 O 0.71723 0.03337 0.65939 0.0
C604 C 0.75847 0.03542 0.74641 0.0
C605 C 0.7482 0.01776 0.75155 0.0
H606 H 0.72507 0.98336 0.75681 0.0
H607 H 0.69995 0.96619 0.73267 0.0
H608 H 0.76579 0.0792 0.69957 0.0
H609 H 0.77483 0.06884 0.73186 0.0
H610 H 0.76935 0.04361 0.7567 0.0
H611 H 0.75133 0.01263 0.76573 0.0
Mn612 Mn 0.98852 0.67221 0.6692 0.0
Mn613 Mn 0.95024 0.63583 0.67521 0.0
C614 C 0.96639 0.66586 0.64486 0.0
C615 C 0.01618 0.68634 0.65487 0.0
C616 C 0.96167 0.668 0.70265 0.0
O617 O 0.99442 0.65781 0.68947 0.0
O618 O 0.96853 0.63368 0.69136 0.0
C619 C 0.95761 0.6112 0.65186 0.0
N620 N 0.94773 0.61882 0.6545 0.0
C621 C 0.92846 0.60168 0.62586 0.0
C622 C 0.93838 0.59358 0.62292 0.0
C623 C 0.95303 0.59839 0.63595 0.0
C624 C 0.93358 0.61426 0.64208 0.0
H625 H 0.96889 0.61488 0.66183 0.0
C626 C 0.98461 0.64243 0.69608 0.0
O627 O 0.0123 0.69245 0.67165 0.0
O628 O 0.00419 0.67185 0.64698 0.0
N629 N 0.93145 0.63601 0.66026 0.0
C630 C 0.9242 0.64614 0.66386 0.0
C631 C 0.90977 0.64345 0.65161 0.0
C632 C 0.90296 0.63042 0.63577 0.0
C633 C 0.91064 0.62016 0.63235 0.0
C634 C 0.9249 0.62331 0.64522 0.0
H635 H 0.92951 0.65632 0.67579 0.0
O636 O 0.97876 0.68164 0.64732 0.0
O637 O 0.96724 0.65423 0.65684 0.0
O638 O 0.97627 0.67726 0.69385 0.0
O639 O 0.95122 0.65247 0.69692 0.0
C640 C 0.90503 0.60727 0.61625 0.0
C641 C 0.91394 0.59804 0.61301 0.0
H642 H 0.93496 0.58377 0.61057 0.0
H643 H 0.96079 0.59225 0.63371 0.0
H644 H 0.90397 0.65148 0.65429 0.0
H645 H 0.89197 0.62855 0.62614 0.0
H646 H 0.89408 0.60459 0.606 0.0
H647 H 0.90968 0.58838 0.60034 0.0
H648 H 0.14229 0.35235 0.16769 0.0
H649 H 0.1195 0.35177 0.19012 0.0
H650 H 0.10504 0.29987 0.21043 0.0
H651 H 0.12799 0.30061 0.18825 0.0
H652 H 0.16304 0.32419 0.19261 0.0
H653 H 0.15434 0.35325 0.11124 0.0
H654 H 0.13091 0.35241 0.08966 0.0
H655 H 0.09504 0.30457 0.12076 0.0
H656 H 0.11868 0.30488 0.14105 0.0
H657 H 0.18367 0.31617 0.10655 0.0
H658 H 0.20986 0.31963 0.08955 0.0
H659 H 0.24076 0.36002 0.13517 0.0
H660 H 0.2146 0.35712 0.15156 0.0
H661 H 0.16879 0.33457 0.11357 0.0
H662 H 0.19793 0.31228 0.15723 0.0
H663 H 0.22132 0.31336 0.17827 0.0
H664 H 0.21256 0.34264 0.22771 0.0
H665 H 0.19156 0.34417 0.20462 0.0
C666 C 0.13675 0.32648 0.17626 0.0
C667 C 0.13411 0.34081 0.17685 0.0
C668 C 0.12119 0.3405 0.18972 0.0
C669 C 0.11053 0.32578 0.20197 0.0
C670 C 0.11298 0.31133 0.20101 0.0
C671 C 0.1261 0.31175 0.18844 0.0
C672 C 0.15125 0.3273 0.16385 0.0
C673 C 0.16447 0.32658 0.17535 0.0
C674 C 0.15259 0.3298 0.14123 0.0
C675 C 0.1383 0.32928 0.12806 0.0
C676 C 0.14145 0.3425 0.11326 0.0
C677 C 0.12797 0.34209 0.10108 0.0
C678 C 0.11098 0.32848 0.10353 0.0
C679 C 0.10792 0.31516 0.11821 0.0
C680 C 0.12144 0.31547 0.13014 0.0
C681 C 0.19714 0.33612 0.13067 0.0
C682 C 0.19606 0.32606 0.11259 0.0
C683 C 0.21101 0.32802 0.10289 0.0
C684 C 0.22725 0.33994 0.11125 0.0
C685 C 0.22834 0.35061 0.12859 0.0
C686 C 0.21342 0.34892 0.13799 0.0
C687 C 0.18131 0.33252 0.14255 0.0
C688 C 0.16765 0.33245 0.1309 0.0
C689 C 0.17957 0.32921 0.16516 0.0
C690 C 0.19319 0.32862 0.17881 0.0
C691 C 0.20149 0.31948 0.17226 0.0
C692 C 0.21473 0.31973 0.18482 0.0
C693 C 0.21933 0.32817 0.20511 0.0
C694 C 0.21026 0.33652 0.21205 0.0
C695 C 0.19774 0.33707 0.19892 0.0
H696 H 0.70924 0.8724 0.18661 0.0
H697 H 0.70928 0.89486 0.20964 0.0
H698 H 0.667 0.89235 0.17253 0.0
H699 H 0.66618 0.86917 0.15028 0.0
H700 H 0.68716 0.84071 0.18144 0.0
H701 H 0.71079 0.88907 0.13264 0.0
H702 H 0.7103 0.91328 0.11438 0.0
H703 H 0.66415 0.87726 0.07976 0.0
H704 H 0.66412 0.85332 0.099 0.0
H705 H 0.65639 0.80767 0.10143 0.0
H706 H 0.65089 0.78281 0.07915 0.0
H707 H 0.69559 0.78312 0.10711 0.0
H708 H 0.70097 0.80801 0.12948 0.0
H709 H 0.68319 0.83959 0.10145 0.0
H710 H 0.65386 0.79802 0.16284 0.0
H711 H 0.64901 0.77656 0.19095 0.0
H712 H 0.70386 0.79927 0.20042 0.0
H713 H 0.70862 0.82098 0.17269 0.0
C714 C 0.68793 0.86923 0.16635 0.0
C715 C 0.69992 0.8766 0.18341 0.0
C716 C 0.69998 0.88942 0.19654 0.0
C717 C 0.68822 0.8953 0.19265 0.0
C718 C 0.67628 0.88808 0.17562 0.0
C719 C 0.67594 0.87496 0.16281 0.0
C720 C 0.6874 0.85497 0.15308 0.0
C721 C 0.68671 0.84074 0.1639 0.0
C722 C 0.68642 0.85468 0.13016 0.0
C723 C 0.68731 0.86936 0.11753 0.0
C724 C 0.70053 0.88642 0.12117 0.0
C725 C 0.70034 0.90025 0.11054 0.0
C726 C 0.68705 0.89727 0.0958 0.0
C727 C 0.67434 0.8801 0.09141 0.0
C728 C 0.67442 0.86634 0.10221 0.0
C729 C 0.67904 0.80969 0.11726 0.0
C730 C 0.665 0.80237 0.10282 0.0
C731 C 0.66191 0.78818 0.09 0.0
C732 C 0.67286 0.78099 0.09121 0.0
C733 C 0.68678 0.78818 0.10594 0.0
C734 C 0.68987 0.80241 0.11878 0.0
C735 C 0.68263 0.82535 0.12994 0.0
C736 C 0.68402 0.83986 0.11896 0.0
C737 C 0.68424 0.82598 0.15268 0.0
C738 C 0.68159 0.81093 0.16567 0.0
C739 C 0.66482 0.79803 0.17054 0.0
C740 C 0.66207 0.78588 0.18661 0.0
C741 C 0.67607 0.78635 0.19778 0.0
C742 C 0.69288 0.79857 0.19186 0.0
C743 C 0.69561 0.81094 0.17608 0.0
H744 H 0.12982 0.82585 0.20691 0.0
H745 H 0.11256 0.80056 0.22936 0.0
H746 H 0.11963 0.76829 0.18303 0.0
H747 H 0.13776 0.79373 0.16154 0.0
H748 H 0.16262 0.83934 0.19801 0.0
H749 H 0.11049 0.81399 0.15417 0.0
H750 H 0.08716 0.78989 0.1345 0.0
H751 H 0.12421 0.78891 0.09094 0.0
H752 H 0.14744 0.81228 0.11133 0.0
H753 H 0.18454 0.84898 0.10898 0.0
H754 H 0.20809 0.86844 0.08678 0.0
H755 H 0.2205 0.9099 0.1324 0.0
H756 H 0.19496 0.89074 0.15299 0.0
H757 H 0.15688 0.84386 0.11891 0.0
H758 H 0.20771 0.86074 0.16361 0.0
H759 H 0.23289 0.87819 0.18625 0.0
H760 H 0.20174 0.89005 0.22842 0.0
H761 H 0.17688 0.8735 0.2048 0.0
C762 C 0.13496 0.81174 0.18236 0.0
C763 C 0.12757 0.8133 0.20155 0.0
C764 C 0.11755 0.79877 0.21429 0.0
C765 C 0.11468 0.78231 0.20809 0.0
C766 C 0.12174 0.78075 0.18855 0.0
C767 C 0.13193 0.7953 0.176 0.0
C768 C 0.14689 0.82739 0.16987 0.0
C769 C 0.16125 0.84054 0.18074 0.0
C770 C 0.14528 0.82867 0.14723 0.0
C771 C 0.13079 0.8149 0.13443 0.0
C772 C 0.11358 0.80853 0.14045 0.0
C773 C 0.10023 0.79482 0.12903 0.0
C774 C 0.10377 0.78731 0.11117 0.0
C775 C 0.12098 0.79409 0.10484 0.0
C776 C 0.1343 0.80766 0.11634 0.0
C777 C 0.18793 0.8681 0.13313 0.0
C778 C 0.19198 0.86235 0.11409 0.0
C779 C 0.20592 0.87355 0.10154 0.0
C780 C 0.21691 0.89077 0.10804 0.0
C781 C 0.21254 0.89677 0.12673 0.0
C782 C 0.19802 0.88566 0.13886 0.0
C783 C 0.17342 0.85534 0.14676 0.0
C784 C 0.1583 0.84286 0.13621 0.0
C785 C 0.17473 0.85425 0.16956 0.0
C786 C 0.19042 0.86598 0.18228 0.0
C787 C 0.2064 0.86747 0.17739 0.0
C788 C 0.22077 0.87729 0.19059 0.0
C789 C 0.2194 0.88546 0.20938 0.0
C790 C 0.20342 0.8842 0.21399 0.0
C791 C 0.18912 0.87459 0.20058 0.0
H792 H 0.3036 0.18001 0.82725 0.0
H793 H 0.31184 0.20441 0.80278 0.0
H794 H 0.35526 0.23621 0.84434 0.0
H795 H 0.3475 0.21154 0.86804 0.0
H796 H 0.32093 0.16417 0.83435 0.0
H797 H 0.30049 0.19335 0.87994 0.0
H798 H 0.30209 0.21788 0.8997 0.0
H799 H 0.34275 0.21966 0.94004 0.0
H800 H 0.34161 0.19565 0.91959 0.0
H801 H 0.34015 0.15174 0.91891 0.0
H802 H 0.3401 0.12814 0.93921 0.0
H803 H 0.29635 0.09123 0.90154 0.0
H804 H 0.29582 0.11498 0.88229 0.0
H805 H 0.31878 0.16369 0.91441 0.0
H806 H 0.34491 0.14201 0.86188 0.0
H807 H 0.34646 0.12019 0.83914 0.0
H808 H 0.29582 0.10486 0.81343 0.0
H809 H 0.29448 0.1269 0.83583 0.0
C810 C 0.32485 0.19389 0.8496 0.0
C811 C 0.31481 0.1923 0.8312 0.0
C812 C 0.31946 0.20633 0.81729 0.0
C813 C 0.3343 0.2223 0.82147 0.0
C814 C 0.34392 0.22405 0.84041 0.0
C815 C 0.33934 0.20998 0.85419 0.0
C816 C 0.32125 0.17839 0.86269 0.0
C817 C 0.32007 0.16398 0.85184 0.0
C818 C 0.32058 0.17822 0.88559 0.0
C819 C 0.32106 0.19275 0.89808 0.0
C820 C 0.30985 0.19911 0.89292 0.0
C821 C 0.31065 0.21304 0.90441 0.0
C822 C 0.32259 0.22081 0.92145 0.0
C823 C 0.33359 0.21419 0.92681 0.0
C824 C 0.33283 0.20033 0.91526 0.0
C825 C 0.31817 0.13519 0.89878 0.0
C826 C 0.33042 0.13857 0.91518 0.0
C827 C 0.33049 0.12501 0.92661 0.0
C828 C 0.31836 0.10768 0.92187 0.0
C829 C 0.30584 0.10436 0.90578 0.0
C830 C 0.30567 0.11796 0.8945 0.0
C831 C 0.31875 0.14971 0.886 0.0
C832 C 0.31937 0.16388 0.8969 0.0
C833 C 0.31903 0.14981 0.86315 0.0
C834 C 0.31955 0.13596 0.85054 0.0
C835 C 0.33412 0.13385 0.85145 0.0
C836 C 0.33501 0.12147 0.83845 0.0
C837 C 0.32124 0.11086 0.82463 0.0
C838 C 0.30653 0.11278 0.82411 0.0
C839 C 0.30578 0.12537 0.83678 0.0
H840 H 0.82662 0.12171 0.83596 0.0
H841 H 0.80348 0.09922 0.81387 0.0
H842 H 0.77173 0.1224 0.82586 0.0
H843 H 0.79479 0.14468 0.84839 0.0
H844 H 0.8426 0.15944 0.83009 0.0
H845 H 0.80577 0.11358 0.87841 0.0
H846 H 0.77903 0.09455 0.8965 0.0
H847 H 0.78222 0.13873 0.9302 0.0
H848 H 0.80722 0.15769 0.90958 0.0
H849 H 0.84691 0.19618 0.90896 0.0
H850 H 0.86759 0.21908 0.93262 0.0
H851 H 0.90847 0.21196 0.90707 0.0
H852 H 0.8876 0.18852 0.88385 0.0
H853 H 0.83667 0.16392 0.90901 0.0
H854 H 0.86093 0.20725 0.85192 0.0
H855 H 0.88395 0.22955 0.82997 0.0
H856 H 0.90292 0.1943 0.8164 0.0
H857 H 0.87965 0.17192 0.83799 0.0
C858 C 0.81233 0.13473 0.84392 0.0
C859 C 0.81467 0.12193 0.83383 0.0
C860 C 0.80146 0.10909 0.82132 0.0
C861 C 0.78585 0.1091 0.81826 0.0
C862 C 0.78367 0.12216 0.82795 0.0
C863 C 0.79677 0.13482 0.84084 0.0
C864 C 0.82623 0.14805 0.85758 0.0
C865 C 0.84134 0.16031 0.8474 0.0
C866 C 0.82435 0.14937 0.8801 0.0
C867 C 0.80841 0.13726 0.89197 0.0
C868 C 0.80036 0.11924 0.88907 0.0
C869 C 0.78516 0.10824 0.89997 0.0
C870 C 0.77802 0.1149 0.91484 0.0
C871 C 0.78665 0.13291 0.91837 0.0
C872 C 0.80135 0.14389 0.90682 0.0
C873 C 0.86562 0.19057 0.8945 0.0
C874 C 0.86031 0.19948 0.9084 0.0
C875 C 0.87213 0.21259 0.92191 0.0
C876 C 0.88961 0.21724 0.92172 0.0
C877 C 0.89508 0.20872 0.9074 0.0
C878 C 0.88317 0.19537 0.89406 0.0
C879 C 0.85257 0.1758 0.88136 0.0
C880 C 0.83778 0.16306 0.89167 0.0
C881 C 0.8543 0.17436 0.8589 0.0
C882 C 0.8687 0.18802 0.8466 0.0
C883 C 0.87011 0.20439 0.84429 0.0
C884 C 0.88318 0.21705 0.83173 0.0
C885 C 0.89516 0.21359 0.82158 0.0
C886 C 0.89389 0.19729 0.82421 0.0
C887 C 0.88062 0.18452 0.83644 0.0
H888 H 0.81737 0.6721 0.81742 0.0
H889 H 0.79623 0.67281 0.79372 0.0
H890 H 0.7911 0.70763 0.83818 0.0
H891 H 0.81456 0.70926 0.85953 0.0
H892 H 0.8465 0.69198 0.82595 0.0
H893 H 0.79864 0.66441 0.87538 0.0
H894 H 0.77405 0.66143 0.89602 0.0
H895 H 0.80708 0.70994 0.9282 0.0
H896 H 0.83158 0.71289 0.90741 0.0
H897 H 0.87921 0.71507 0.90958 0.0
H898 H 0.90088 0.71395 0.93309 0.0
H899 H 0.89393 0.66853 0.89914 0.0
H900 H 0.87192 0.66934 0.8762 0.0
H901 H 0.84589 0.69182 0.90602 0.0
H902 H 0.89222 0.71901 0.84749 0.0
H903 H 0.91406 0.71907 0.82381 0.0
H904 H 0.88069 0.66445 0.81158 0.0
H905 H 0.85868 0.66498 0.83389 0.0
C906 C 0.81762 0.69044 0.84065 0.0
C907 C 0.81193 0.68017 0.82191 0.0
C908 C 0.79935 0.68031 0.80844 0.0
C909 C 0.79138 0.69013 0.81372 0.0
C910 C 0.79689 0.70012 0.83286 0.0
C911 C 0.81013 0.70067 0.84571 0.0
C912 C 0.83189 0.69096 0.85411 0.0
C913 C 0.84609 0.69168 0.84346 0.0
C914 C 0.83183 0.69091 0.87707 0.0
C915 C 0.81691 0.68894 0.88972 0.0
C916 C 0.80056 0.67441 0.88684 0.0
C917 C 0.78656 0.67268 0.89874 0.0
C918 C 0.78862 0.68548 0.9137 0.0
C919 C 0.80504 0.69996 0.91663 0.0
C920 C 0.81906 0.70161 0.90488 0.0
C921 C 0.87412 0.69249 0.89081 0.0
C922 C 0.88244 0.70494 0.90709 0.0
C923 C 0.8948 0.70429 0.92052 0.0
C924 C 0.89915 0.69121 0.91785 0.0
C925 C 0.89106 0.67894 0.90131 0.0
C926 C 0.87854 0.67946 0.88808 0.0
C927 C 0.86005 0.69247 0.87773 0.0
C928 C 0.84605 0.69204 0.88849 0.0
C929 C 0.85995 0.69216 0.85491 0.0
C930 C 0.87388 0.69201 0.84235 0.0
C931 C 0.88973 0.7071 0.83967 0.0
C932 C 0.90224 0.70704 0.82622 0.0
C933 C 0.89918 0.6918 0.81544 0.0
C934 C 0.88343 0.67659 0.81894 0.0
C935 C 0.87084 0.67678 0.83192 0.0
H936 H 0.80305 0.67551 0.49634 0.0
H937 H 0.78052 0.67448 0.51948 0.0
H938 H 0.77056 0.62482 0.54398 0.0
H939 H 0.79279 0.62574 0.52039 0.0
H940 H 0.82631 0.64842 0.52141 0.0
H941 H 0.81829 0.67955 0.44268 0.0
H942 H 0.79585 0.681 0.42158 0.0
H943 H 0.75772 0.63299 0.45017 0.0
H944 H 0.78042 0.63107 0.47018 0.0
H945 H 0.84304 0.63855 0.43457 0.0
H946 H 0.86739 0.64328 0.41226 0.0
H947 H 0.90184 0.68448 0.45492 0.0
H948 H 0.87732 0.68001 0.47699 0.0
H949 H 0.83025 0.65863 0.44241 0.0
H950 H 0.86003 0.63578 0.48522 0.0
H951 H 0.8833 0.63644 0.50655 0.0
H952 H 0.87651 0.66802 0.55447 0.0
H953 H 0.85537 0.66948 0.53146 0.0
C954 C 0.79953 0.65063 0.50648 0.0
C955 C 0.79583 0.66428 0.50644 0.0
C956 C 0.78305 0.66374 0.51985 0.0
C957 C 0.77374 0.64958 0.53364 0.0
C958 C 0.77732 0.63582 0.53339 0.0
C959 C 0.79012 0.63639 0.52002 0.0
C960 C 0.81388 0.65166 0.49335 0.0
C961 C 0.82729 0.65072 0.50412 0.0
C962 C 0.81492 0.65447 0.47076 0.0
C963 C 0.80106 0.6553 0.45822 0.0
C964 C 0.80511 0.66926 0.44429 0.0
C965 C 0.79221 0.67017 0.4324 0.0
C966 C 0.77491 0.65718 0.43426 0.0
C967 C 0.7709 0.64314 0.44814 0.0
C968 C 0.78386 0.64214 0.45985 0.0
C969 C 0.8583 0.65881 0.4576 0.0
C970 C 0.85581 0.64866 0.43913 0.0
C971 C 0.86974 0.65137 0.42637 0.0
C972 C 0.88652 0.66425 0.43184 0.0
C973 C 0.88907 0.67434 0.45044 0.0
C974 C 0.87507 0.67178 0.46306 0.0
C975 C 0.84318 0.65603 0.47058 0.0
C976 C 0.82948 0.65649 0.45973 0.0
C977 C 0.84208 0.65314 0.49324 0.0
C978 C 0.85609 0.65291 0.50634 0.0
C979 C 0.86398 0.64334 0.49996 0.0
C980 C 0.87712 0.64341 0.51258 0.0
C981 C 0.88213 0.65235 0.53249 0.0
C982 C 0.87372 0.66144 0.53906 0.0
C983 C 0.8612 0.662 0.526 0.0
H984 H 0.34737 0.19038 0.529 0.0
H985 H 0.35002 0.21386 0.55216 0.0
H986 H 0.31607 0.22173 0.50935 0.0
H987 H 0.31253 0.19752 0.48684 0.0
H988 H 0.32169 0.16056 0.51913 0.0
H989 H 0.36012 0.21177 0.47268 0.0
H990 H 0.36472 0.23839 0.455 0.0
H991 H 0.3147 0.20984 0.42406 0.0
H992 H 0.31088 0.18335 0.44068 0.0
H993 H 0.30389 0.11601 0.46279 0.0
H994 H 0.3071 0.0941 0.44256 0.0
H995 H 0.35783 0.1332 0.42294 0.0
H996 H 0.35483 0.15478 0.44376 0.0
H997 H 0.33404 0.16761 0.44069 0.0
H998 H 0.29399 0.12635 0.50953 0.0
H999 H 0.28905 0.10378 0.53574 0.0
H1000 H 0.34072 0.11301 0.52582 0.0
H1001 H 0.3454 0.13534 0.49915 0.0
C1002 C 0.33 0.19231 0.50586 0.0
C1003 C 0.34035 0.19702 0.52463 0.0
C1004 C 0.34189 0.21044 0.53785 0.0
C1005 C 0.33334 0.21963 0.5324 0.0
C1006 C 0.32295 0.21495 0.51371 0.0
C1007 C 0.32106 0.20122 0.50075 0.0
C1008 C 0.32853 0.1779 0.49206 0.0
C1009 C 0.32438 0.16211 0.50195 0.0
C1010 C 0.3317 0.17972 0.46958 0.0
C1011 C 0.33519 0.19565 0.4579 0.0
C1012 C 0.35033 0.21131 0.46177 0.0
C1013 C 0.35283 0.22654 0.45181 0.0
C1014 C 0.34009 0.22642 0.43804 0.0
C1015 C 0.32503 0.21054 0.43407 0.0
C1016 C 0.32273 0.19532 0.44368 0.0
C1017 C 0.32923 0.13703 0.45513 0.0
C1018 C 0.31575 0.11982 0.45428 0.0
C1019 C 0.31752 0.10734 0.44247 0.0
C1020 C 0.33278 0.11186 0.43123 0.0
C1021 C 0.34602 0.12919 0.43168 0.0
C1022 C 0.34427 0.1416 0.44347 0.0
C1023 C 0.32789 0.15044 0.468 0.0
C1024 C 0.33136 0.16602 0.45786 0.0
C1025 C 0.32394 0.14837 0.49027 0.0
C1026 C 0.32006 0.13251 0.50247 0.0
C1027 C 0.30408 0.12317 0.51259 0.0
C1028 C 0.30132 0.11037 0.52766 0.0
C1029 C 0.31458 0.10679 0.53314 0.0
C1030 C 0.3302 0.11536 0.52187 0.0
C1031 C 0.33292 0.12815 0.50665 0.0
H1032 H 0.78877 0.16549 0.52281 0.0
H1033 H 0.76689 0.14405 0.54661 0.0
H1034 H 0.78044 0.10601 0.52555 0.0
H1035 H 0.80244 0.12757 0.502 0.0
H1036 H 0.82333 0.17767 0.52491 0.0
H1037 H 0.77867 0.15071 0.47095 0.0
H1038 H 0.75576 0.12661 0.45089 0.0
H1039 H 0.79186 0.10998 0.43199 0.0
H1040 H 0.81478 0.13455 0.45139 0.0
H1041 H 0.85976 0.17917 0.44703 0.0
H1042 H 0.88303 0.19925 0.4238 0.0
H1043 H 0.87735 0.24156 0.44841 0.0
H1044 H 0.85367 0.22134 0.47126 0.0
H1045 H 0.82762 0.16978 0.44636 0.0
H1046 H 0.87256 0.19736 0.50083 0.0
H1047 H 0.89442 0.21996 0.52401 0.0
H1048 H 0.85706 0.23433 0.54454 0.0
H1049 H 0.83542 0.21199 0.52103 0.0
C1050 C 0.79713 0.1481 0.51051 0.0
C1051 C 0.78693 0.1525 0.52322 0.0
C1052 C 0.77438 0.14021 0.53671 0.0
C1053 C 0.77195 0.12334 0.53794 0.0
C1054 C 0.7821 0.11893 0.52506 0.0
C1055 C 0.79456 0.13119 0.51145 0.0
C1056 C 0.81116 0.16142 0.49723 0.0
C1057 C 0.82417 0.17614 0.50764 0.0
C1058 C 0.81236 0.15917 0.47484 0.0
C1059 C 0.79843 0.1444 0.46273 0.0
C1060 C 0.78161 0.14185 0.46247 0.0
C1061 C 0.76849 0.12796 0.45106 0.0
C1062 C 0.77185 0.11622 0.43975 0.0
C1063 C 0.78877 0.11887 0.4401 0.0
C1064 C 0.80191 0.13287 0.45132 0.0
C1065 C 0.85496 0.19869 0.46104 0.0
C1066 C 0.86348 0.19276 0.44746 0.0
C1067 C 0.87678 0.20424 0.43418 0.0
C1068 C 0.88196 0.22196 0.43426 0.0
C1069 C 0.87373 0.228 0.44818 0.0
C1070 C 0.86023 0.21644 0.4613 0.0
C1071 C 0.84009 0.1861 0.47408 0.0
C1072 C 0.82685 0.17145 0.4636 0.0
C1073 C 0.83867 0.18847 0.49646 0.0
C1074 C 0.85237 0.20305 0.50907 0.0
C1075 C 0.86918 0.20558 0.51003 0.0
C1076 C 0.88161 0.2184 0.52344 0.0
C1077 C 0.87748 0.22893 0.53617 0.0
C1078 C 0.86074 0.2266 0.53477 0.0
C1079 C 0.84832 0.21375 0.52145 0.0
H1080 H 0.97094 0.52779 0.20136 0.0
H1081 H 0.97073 0.55017 0.17857 0.0
H1082 H 0.01355 0.55348 0.14262 0.0
H1083 H 0.0145 0.53223 0.16648 0.0
H1084 H 0.99214 0.50037 0.16946 0.0
H1085 H 0.96935 0.5097 0.25252 0.0
H1086 H 0.97012 0.53184 0.27652 0.0
H1087 H 0.01596 0.57049 0.24498 0.0
H1088 H 0.01522 0.54819 0.22102 0.0
H1089 H 0.01344 0.48693 0.25256 0.0
H1090 H 0.01294 0.46298 0.27259 0.0
H1091 H 0.96862 0.42684 0.23509 0.0
H1092 H 0.96858 0.45092 0.21615 0.0
H1093 H 0.99165 0.49869 0.24954 0.0
H1094 H 0.01684 0.47687 0.19547 0.0
H1095 H 0.01691 0.45426 0.17272 0.0
H1096 H 0.96688 0.44165 0.14723 0.0
H1097 H 0.96699 0.46437 0.16969 0.0
C1098 C 0.99284 0.52838 0.18583 0.0
C1099 C 0.98058 0.5337 0.18896 0.0
C1100 C 0.98032 0.54634 0.17563 0.0
C1101 C 0.99207 0.55368 0.15856 0.0
C1102 C 0.00448 0.54847 0.15575 0.0
C1103 C 0.00491 0.53609 0.16928 0.0
C1104 C 0.99243 0.51392 0.1985 0.0
C1105 C 0.99213 0.50014 0.187 0.0
C1106 C 0.99212 0.51335 0.22142 0.0
C1107 C 0.9922 0.52724 0.2349 0.0
C1108 C 0.97955 0.52294 0.2507 0.0
C1109 C 0.98001 0.53561 0.26444 0.0
C1110 C 0.99314 0.55291 0.26272 0.0
C1111 C 0.00558 0.55731 0.24655 0.0
C1112 C 0.00517 0.54457 0.23286 0.0
C1113 C 0.99122 0.47077 0.23259 0.0
C1114 C 0.00354 0.47385 0.24877 0.0
C1115 C 0.00334 0.46009 0.26006 0.0
C1116 C 0.99082 0.44289 0.25538 0.0
C1117 C 0.97836 0.43987 0.23932 0.0
C1118 C 0.97847 0.45366 0.22821 0.0
C1119 C 0.99168 0.48548 0.22044 0.0
C1120 C 0.99181 0.49914 0.23201 0.0
C1121 C 0.99183 0.48603 0.19761 0.0
C1122 C 0.99188 0.47222 0.18428 0.0
C1123 C 0.0059 0.46919 0.18499 0.0
C1124 C 0.00595 0.45636 0.17198 0.0
C1125 C 0.99187 0.44619 0.15832 0.0
C1126 C 0.97781 0.44918 0.15778 0.0
C1127 C 0.9779 0.4622 0.17049 0.0
H1128 H 0.49296 0.45189 0.17463 0.0
H1129 H 0.47034 0.43461 0.14807 0.0
H1130 H 0.44593 0.46521 0.1605 0.0
H1131 H 0.46826 0.48211 0.18754 0.0
H1132 H 0.51121 0.49047 0.16513 0.0
H1133 H 0.48252 0.44833 0.21989 0.0
H1134 H 0.45938 0.42901 0.24388 0.0
H1135 H 0.45779 0.47296 0.27097 0.0
H1136 H 0.48086 0.4922 0.24688 0.0
H1137 H 0.52666 0.53423 0.23947 0.0
H1138 H 0.55143 0.55924 0.25568 0.0
H1139 H 0.58492 0.54126 0.23068 0.0
H1140 H 0.5601 0.51651 0.21408 0.0
H1141 H 0.51283 0.49958 0.24429 0.0
H1142 H 0.53967 0.54154 0.18841 0.0
H1143 H 0.55875 0.56051 0.16018 0.0
H1144 H 0.56156 0.51741 0.13272 0.0
H1145 H 0.54306 0.4986 0.16132 0.0
C1146 C 0.48215 0.46814 0.18311 0.0
C1147 C 0.48236 0.45441 0.17222 0.0
C1148 C 0.46948 0.44458 0.15711 0.0
C1149 C 0.4565 0.44867 0.15232 0.0
C1150 C 0.4558 0.46182 0.16405 0.0
C1151 C 0.46848 0.4714 0.1795 0.0
C1152 C 0.49764 0.48102 0.19492 0.0
C1153 C 0.51183 0.49226 0.18253 0.0
C1154 C 0.4979 0.48359 0.21745 0.0
C1155 C 0.48337 0.47174 0.23141 0.0
C1156 C 0.47701 0.45379 0.23073 0.0
C1157 C 0.46379 0.44275 0.24449 0.0
C1158 C 0.45678 0.44945 0.25939 0.0
C1159 C 0.46308 0.4674 0.25991 0.0
C1160 C 0.47624 0.47842 0.2461 0.0
C1161 C 0.54156 0.52362 0.22538 0.0
C1162 C 0.53934 0.53562 0.23764 0.0
C1163 C 0.55352 0.54988 0.24699 0.0
C1164 C 0.57022 0.55234 0.24441 0.0
C1165 C 0.5723 0.53997 0.23264 0.0
C1166 C 0.55812 0.52577 0.22321 0.0
C1167 C 0.5266 0.50908 0.21445 0.0
C1168 C 0.51243 0.49764 0.22695 0.0
C1169 C 0.52626 0.50639 0.19187 0.0
C1170 C 0.53995 0.5186 0.17711 0.0
C1171 C 0.54488 0.53628 0.17682 0.0
C1172 C 0.55571 0.54711 0.16063 0.0
C1173 C 0.56148 0.54035 0.14425 0.0
C1174 C 0.55718 0.52288 0.14511 0.0
C1175 C 0.54661 0.51215 0.16143 0.0
H1176 H 0.54286 0.03202 0.16937 0.0
H1177 H 0.56449 0.03089 0.14662 0.0
H1178 H 0.54623 0.97795 0.16586 0.0
H1179 H 0.52451 0.97919 0.1888 0.0
H1180 H 0.5068 0.00991 0.16524 0.0
H1181 H 0.55368 0.02107 0.21411 0.0
H1182 H 0.57303 0.01414 0.2338 0.0
H1183 H 0.53025 0.97726 0.27214 0.0
H1184 H 0.51079 0.98219 0.24993 0.0
H1185 H 0.46413 0.98058 0.23223 0.0
H1186 H 0.44022 0.98028 0.25154 0.0
H1187 H 0.46534 0.03603 0.24716 0.0
H1188 H 0.48901 0.03608 0.22743 0.0
H1189 H 0.50414 0.00509 0.24514 0.0
H1190 H 0.46569 0.9834 0.17352 0.0
H1191 H 0.44346 0.98495 0.15166 0.0
H1192 H 0.46832 0.04005 0.16308 0.0
H1193 H 0.49038 0.03828 0.18511 0.0
C1194 C 0.53221 0.00574 0.18087 0.0
C1195 C 0.54357 0.0202 0.16878 0.0
C1196 C 0.55597 0.01956 0.15589 0.0
C1197 C 0.55708 0.00436 0.15458 0.0
C1198 C 0.5456 0.9898 0.16656 0.0
C1199 C 0.53329 0.99052 0.17972 0.0
C1200 C 0.51886 0.0066 0.19391 0.0
C1201 C 0.50639 0.00896 0.18274 0.0
C1202 C 0.51812 0.00498 0.2168 0.0
C1203 C 0.53051 0.00176 0.22979 0.0
C1204 C 0.54833 0.01097 0.22615 0.0
C1205 C 0.55958 0.00728 0.23803 0.0
C1206 C 0.55348 0.99487 0.25474 0.0
C1207 C 0.53569 0.98636 0.25901 0.0
C1208 C 0.52441 0.98949 0.24649 0.0
C1209 C 0.47824 0.00833 0.22844 0.0
C1210 C 0.46445 0.99271 0.23552 0.0
C1211 C 0.45086 0.9926 0.24664 0.0
C1212 C 0.45087 0.00815 0.25098 0.0
C1213 C 0.4648 0.02381 0.24387 0.0
C1214 C 0.47838 0.02389 0.2327 0.0
C1215 C 0.4924 0.00829 0.21636 0.0
C1216 C 0.50486 0.00604 0.22767 0.0
C1217 C 0.49311 0.00964 0.19368 0.0
C1218 C 0.47957 0.01071 0.18095 0.0
C1219 C 0.46628 0.99578 0.17132 0.0
C1220 C 0.45366 0.99672 0.15876 0.0
C1221 C 0.45412 0.01263 0.15559 0.0
C1222 C 0.46745 0.02756 0.16542 0.0
C1223 C 0.4801 0.02661 0.17794 0.0
H1224 H 0.48675 0.01689 0.86463 0.0
H1225 H 0.46542 0.01676 0.88886 0.0
H1226 H 0.42483 0.97822 0.84862 0.0
H1227 H 0.44629 0.97738 0.8255 0.0
H1228 H 0.4948 0.99419 0.85833 0.0
H1229 H 0.47841 0.02471 0.80898 0.0
H1230 H 0.46081 0.03252 0.78602 0.0
H1231 H 0.43942 0.98315 0.75365 0.0
H1232 H 0.45726 0.9754 0.77657 0.0
H1233 H 0.50197 0.96916 0.77441 0.0
H1234 H 0.52397 0.96841 0.75186 0.0
H1235 H 0.56347 0.01208 0.787 0.0
H1236 H 0.54147 0.01306 0.80912 0.0
H1237 H 0.49317 0.99347 0.77821 0.0
H1238 H 0.51366 0.96559 0.83136 0.0
H1239 H 0.53512 0.96334 0.85396 0.0
H1240 H 0.55273 0.01513 0.87798 0.0
H1241 H 0.53073 0.01684 0.85618 0.0
C1242 C 0.46823 0.99716 0.84312 0.0
C1243 C 0.47325 0.00839 0.86099 0.0
C1244 C 0.46097 0.00846 0.87475 0.0
C1245 C 0.4433 0.99743 0.87086 0.0
C1246 C 0.43829 0.98667 0.85245 0.0
C1247 C 0.4506 0.9864 0.83891 0.0
C1248 C 0.48143 0.99582 0.82996 0.0
C1249 C 0.4945 0.99426 0.8408 0.0
C1250 C 0.48101 0.99556 0.80707 0.0
C1251 C 0.46911 0.99947 0.7945 0.0
C1252 C 0.46976 0.01546 0.79717 0.0
C1253 C 0.45976 0.01993 0.78401 0.0
C1254 C 0.44881 0.00843 0.76808 0.0
C1255 C 0.44768 0.99217 0.76592 0.0
C1256 C 0.45791 0.98779 0.77889 0.0
C1257 C 0.52002 0.991 0.79372 0.0
C1258 C 0.51537 0.97854 0.77732 0.0
C1259 C 0.52794 0.97812 0.76444 0.0
C1260 C 0.54545 0.99013 0.76773 0.0
C1261 C 0.55011 0.00246 0.78432 0.0
C1262 C 0.53752 0.003 0.79703 0.0
C1263 C 0.50652 0.99194 0.80664 0.0
C1264 C 0.49333 0.99328 0.79575 0.0
C1265 C 0.50709 0.99252 0.82949 0.0
C1266 C 0.52062 0.99136 0.84218 0.0
C1267 C 0.52221 0.97643 0.8415 0.0
C1268 C 0.53456 0.97523 0.85435 0.0
C1269 C 0.54566 0.98902 0.86796 0.0
C1270 C 0.54419 0.00409 0.86815 0.0
C1271 C 0.5317 0.00516 0.85557 0.0
H1272 H 0.03459 0.5458 0.85219 0.0
H1273 H 0.03581 0.56941 0.87396 0.0
H1274 H 0.98078 0.54713 0.86726 0.0
H1275 H 0.97972 0.52376 0.84485 0.0
H1276 H 1.0011 0.50313 0.86252 0.0
H1277 H 0.03426 0.55376 0.81294 0.0
H1278 H 0.03449 0.57797 0.79389 0.0
H1279 H 0.98767 0.54227 0.76014 0.0
H1280 H 0.98693 0.51834 0.78047 0.0
H1281 H 0.98072 0.45749 0.806 0.0
H1282 H 0.98245 0.43429 0.78666 0.0
H1283 H 0.03568 0.46959 0.77219 0.0
H1284 H 0.03386 0.4927 0.79139 0.0
H1285 H 0.01136 0.50651 0.78356 0.0
H1286 H 0.97396 0.46937 0.85657 0.0
H1287 H 0.96943 0.44725 0.88325 0.0
H1288 H 0.01966 0.45391 0.8694 0.0
H1289 H 0.02401 0.47595 0.84242 0.0
C1290 C 0.00712 0.53329 0.84657 0.0
C1291 C 0.02283 0.54616 0.85514 0.0
C1292 C 0.02351 0.5596 0.86757 0.0
C1293 C 0.00839 0.56011 0.87218 0.0
C1294 C 0.9926 0.54701 0.86393 0.0
C1295 C 0.99199 0.53375 0.85109 0.0
C1296 C 0.00652 0.51881 0.83408 0.0
C1297 C 0.00328 0.50381 0.84523 0.0
C1298 C 0.0091 0.51969 0.81151 0.0
C1299 C 0.01032 0.53431 0.79858 0.0
C1300 C 0.0239 0.55121 0.80172 0.0
C1301 C 0.02415 0.56503 0.79051 0.0
C1302 C 0.01099 0.56216 0.7756 0.0
C1303 C 0.99779 0.54507 0.77188 0.0
C1304 C 0.99744 0.53132 0.7833 0.0
C1305 C 0.0072 0.47679 0.80024 0.0
C1306 C 0.99274 0.46021 0.79863 0.0
C1307 C 0.99371 0.44702 0.78747 0.0
C1308 C 0.00921 0.45013 0.77796 0.0
C1309 C 0.02361 0.46678 0.7795 0.0
C1310 C 0.02257 0.48 0.79038 0.0
C1311 C 0.00644 0.49087 0.81217 0.0
C1312 C 0.00924 0.50579 0.80086 0.0
C1313 C 0.003 0.48974 0.83455 0.0
C1314 C 0.99933 0.47433 0.84761 0.0
C1315 C 0.98384 0.4658 0.85896 0.0
C1316 C 0.98132 0.45323 0.87426 0.0
C1317 C 0.9943 0.44903 0.87866 0.0
C1318 C 0.00938 0.4568 0.86629 0.0
C1319 C 0.0119 0.4694 0.85089 0.0
H1320 H 0.45944 0.50171 0.85205 0.0
H1321 H 0.43644 0.48005 0.87439 0.0
H1322 H 0.44426 0.44012 0.84593 0.0
H1323 H 0.46754 0.46193 0.82402 0.0
H1324 H 0.49417 0.50895 0.85264 0.0
H1325 H 0.44658 0.48982 0.79665 0.0
H1326 H 0.42315 0.46579 0.777 0.0
H1327 H 0.45818 0.44769 0.7584 0.0
H1328 H 0.48158 0.4723 0.77698 0.0
H1329 H 0.5241 0.52173 0.76457 0.0
H1330 H 0.54628 0.54564 0.74413 0.0
H1331 H 0.54611 0.58169 0.79089 0.0
H1332 H 0.52282 0.55792 0.80986 0.0
H1333 H 0.4935 0.51043 0.77251 0.0
H1334 H 0.5414 0.52952 0.81736 0.0
H1335 H 0.56682 0.54675 0.83956 0.0
H1336 H 0.53601 0.55696 0.88432 0.0
H1337 H 0.5108 0.54069 0.86112 0.0
C1338 C 0.46512 0.48343 0.83626 0.0
C1339 C 0.45611 0.48826 0.85054 0.0
C1340 C 0.44287 0.47585 0.86316 0.0
C1341 C 0.43847 0.45834 0.8619 0.0
C1342 C 0.4474 0.45351 0.84738 0.0
C1343 C 0.46062 0.46594 0.83471 0.0
C1344 C 0.47971 0.49685 0.82376 0.0
C1345 C 0.49399 0.50959 0.83513 0.0
C1346 C 0.47988 0.49682 0.80093 0.0
C1347 C 0.46579 0.48283 0.78819 0.0
C1348 C 0.44918 0.48075 0.78806 0.0
C1349 C 0.43576 0.46687 0.77698 0.0
C1350 C 0.43862 0.45461 0.76607 0.0
C1351 C 0.45542 0.45695 0.76614 0.0
C1352 C 0.46886 0.47099 0.77688 0.0
C1353 C 0.52182 0.53788 0.78901 0.0
C1354 C 0.52866 0.53481 0.77026 0.0
C1355 C 0.5416 0.54856 0.75871 0.0
C1356 C 0.54821 0.56577 0.76577 0.0
C1357 C 0.54127 0.56876 0.78456 0.0
C1358 C 0.52808 0.55505 0.79578 0.0
C1359 C 0.508 0.52326 0.80138 0.0
C1360 C 0.49385 0.51015 0.79003 0.0
C1361 C 0.5084 0.52248 0.82432 0.0
C1362 C 0.52411 0.53388 0.83736 0.0
C1363 C 0.54015 0.53582 0.83164 0.0
C1364 C 0.55469 0.5455 0.8446 0.0
C1365 C 0.55352 0.55315 0.86395 0.0
C1366 C 0.53751 0.55146 0.86946 0.0
C1367 C 0.52299 0.54196 0.8563 0.0
H1368 H 0.63957 0.86271 0.51412 0.0
H1369 H 0.64897 0.88818 0.49077 0.0
H1370 H 0.69458 0.8855 0.47465 0.0
H1371 H 0.68538 0.86055 0.49819 0.0
H1372 H 0.65648 0.82935 0.49386 0.0
H1373 H 0.62867 0.84433 0.5679 0.0
H1374 H 0.6297 0.86875 0.5873 0.0
H1375 H 0.68168 0.90157 0.56538 0.0
H1376 H 0.68073 0.87691 0.54659 0.0
H1377 H 0.67023 0.81638 0.57946 0.0
H1378 H 0.67046 0.79267 0.59911 0.0
H1379 H 0.62677 0.75595 0.56119 0.0
H1380 H 0.62598 0.77982 0.54256 0.0
H1381 H 0.64891 0.82892 0.57319 0.0
H1382 H 0.67334 0.80134 0.52647 0.0
H1383 H 0.67252 0.77752 0.50562 0.0
H1384 H 0.62726 0.77101 0.47145 0.0
H1385 H 0.62804 0.79465 0.49254 0.0
C1386 C 0.66183 0.85979 0.50798 0.0
C1387 C 0.65167 0.86777 0.50571 0.0
C1388 C 0.65699 0.88222 0.49226 0.0
C1389 C 0.67258 0.88893 0.48094 0.0
C1390 C 0.68267 0.8809 0.4834 0.0
C1391 C 0.67735 0.86652 0.49673 0.0
C1392 C 0.6563 0.84407 0.52136 0.0
C1393 C 0.65468 0.82923 0.51119 0.0
C1394 C 0.65368 0.8438 0.54392 0.0
C1395 C 0.65454 0.85881 0.55558 0.0
C1396 C 0.64031 0.85678 0.56732 0.0
C1397 C 0.64086 0.8708 0.57826 0.0
C1398 C 0.65573 0.88717 0.5778 0.0
C1399 C 0.67007 0.88913 0.56622 0.0
C1400 C 0.66949 0.87508 0.55527 0.0
C1401 C 0.64826 0.79992 0.55926 0.0
C1402 C 0.66047 0.80323 0.57568 0.0
C1403 C 0.66073 0.78961 0.5867 0.0
C1404 C 0.64886 0.77232 0.58147 0.0
C1405 C 0.6361 0.76906 0.56573 0.0
C1406 C 0.63572 0.78272 0.55489 0.0
C1407 C 0.64968 0.81443 0.54573 0.0
C1408 C 0.65044 0.82898 0.55581 0.0
C1409 C 0.65143 0.81447 0.52302 0.0
C1410 C 0.65069 0.79967 0.5111 0.0
C1411 C 0.66315 0.79464 0.51464 0.0
C1412 C 0.66271 0.7811 0.50266 0.0
C1413 C 0.64979 0.77236 0.48693 0.0
C1414 C 0.63721 0.7773 0.48366 0.0
C1415 C 0.63772 0.79089 0.49555 0.0
H1416 H 0.17045 0.80283 0.50069 0.0
H1417 H 0.15026 0.78469 0.47259 0.0
H1418 H 0.10915 0.78775 0.50463 0.0
H1419 H 0.12955 0.80637 0.53261 0.0
H1420 H 0.17888 0.83519 0.50651 0.0
H1421 H 0.15793 0.78493 0.5548 0.0
H1422 H 0.13448 0.75936 0.57147 0.0
H1423 H 0.1145 0.79105 0.59749 0.0
H1424 H 0.1386 0.81664 0.58169 0.0
H1425 H 0.20135 0.8802 0.56005 0.0
H1426 H 0.22474 0.90265 0.58156 0.0
H1427 H 0.23368 0.86382 0.61179 0.0
H1428 H 0.21027 0.84141 0.59013 0.0
H1429 H 0.17615 0.82995 0.5864 0.0
H1430 H 0.18984 0.87067 0.51018 0.0
H1431 H 0.21302 0.89295 0.48881 0.0
H1432 H 0.24821 0.87716 0.51515 0.0
H1433 H 0.22501 0.85532 0.53706 0.0
C1434 C 0.15156 0.80604 0.51876 0.0
C1435 C 0.15705 0.79943 0.50189 0.0
C1436 C 0.14553 0.78909 0.48584 0.0
C1437 C 0.12822 0.785 0.48638 0.0
C1438 C 0.12243 0.79068 0.50394 0.0
C1439 C 0.13406 0.80126 0.51995 0.0
C1440 C 0.16459 0.81938 0.53342 0.0
C1441 C 0.17824 0.834 0.52399 0.0
C1442 C 0.1638 0.81795 0.5562 0.0
C1443 C 0.14991 0.80261 0.56697 0.0
C1444 C 0.14855 0.78632 0.56427 0.0
C1445 C 0.13502 0.7717 0.57369 0.0
C1446 C 0.12241 0.77301 0.58573 0.0
C1447 C 0.12405 0.78949 0.58866 0.0
C1448 C 0.13776 0.80415 0.57952 0.0
C1449 C 0.20415 0.85913 0.57331 0.0
C1450 C 0.2084 0.87653 0.57122 0.0
C1451 C 0.22182 0.88936 0.58348 0.0
C1452 C 0.23118 0.88504 0.59826 0.0
C1453 C 0.22666 0.86756 0.60065 0.0
C1454 C 0.21327 0.85473 0.5883 0.0
C1455 C 0.19059 0.84561 0.55936 0.0
C1456 C 0.17676 0.8311 0.56893 0.0
C1457 C 0.19127 0.847 0.53658 0.0
C1458 C 0.20574 0.86141 0.5252 0.0
C1459 C 0.20261 0.87218 0.51151 0.0
C1460 C 0.21586 0.88482 0.49919 0.0
C1461 C 0.23247 0.88674 0.50004 0.0
C1462 C 0.23565 0.87619 0.51425 0.0
C1463 C 0.2224 0.86365 0.52674 0.0
H1464 H 0.13356 0.30471 0.50016 0.0
H1465 H 0.11288 0.30227 0.47238 0.0
H1466 H 0.11994 0.3522 0.49102 0.0
H1467 H 0.1406 0.35448 0.5191 0.0
H1468 H 0.16735 0.33085 0.49942 0.0
H1469 H 0.11863 0.30994 0.54781 0.0
H1470 H 0.09492 0.31125 0.5654 0.0
H1471 H 0.13088 0.36108 0.59256 0.0
H1472 H 0.15449 0.3599 0.57438 0.0
H1473 H 0.19739 0.35574 0.58652 0.0
H1474 H 0.21835 0.35424 0.61102 0.0
H1475 H 0.21404 0.31068 0.57514 0.0
H1476 H 0.19254 0.31164 0.55129 0.0
H1477 H 0.16598 0.33645 0.57891 0.0
H1478 H 0.21519 0.35674 0.53441 0.0
H1479 H 0.23906 0.35938 0.51281 0.0
H1480 H 0.20346 0.315 0.4749 0.0
H1481 H 0.18005 0.31161 0.49765 0.0
C1482 C 0.13867 0.3298 0.51162 0.0
C1483 C 0.13048 0.31503 0.49848 0.0
C1484 C 0.11872 0.31369 0.48256 0.0
C1485 C 0.11497 0.32715 0.47931 0.0
C1486 C 0.12251 0.34157 0.49322 0.0
C1487 C 0.13432 0.34291 0.50924 0.0
C1488 C 0.15289 0.33197 0.52622 0.0
C1489 C 0.16701 0.33178 0.51687 0.0
C1490 C 0.15277 0.33425 0.54879 0.0
C1491 C 0.13833 0.3349 0.55959 0.0
C1492 C 0.12139 0.32123 0.55737 0.0
C1493 C 0.10787 0.32193 0.56761 0.0
C1494 C 0.111 0.33629 0.58039 0.0
C1495 C 0.12799 0.34995 0.58261 0.0
C1496 C 0.14151 0.34922 0.57239 0.0
C1497 C 0.19351 0.33398 0.56674 0.0
C1498 C 0.20086 0.34579 0.58395 0.0
C1499 C 0.21284 0.34495 0.59795 0.0
C1500 C 0.21788 0.33243 0.59485 0.0
C1501 C 0.21056 0.32063 0.57768 0.0
C1502 C 0.19834 0.32125 0.56397 0.0
C1503 C 0.18037 0.33454 0.5522 0.0
C1504 C 0.16649 0.33546 0.56149 0.0
C1505 C 0.18085 0.33319 0.52939 0.0
C1506 C 0.19575 0.33393 0.51778 0.0
C1507 C 0.21261 0.34727 0.52186 0.0
C1508 C 0.22624 0.34893 0.5092 0.0
C1509 C 0.22329 0.33753 0.49183 0.0
C1510 C 0.20643 0.32391 0.48823 0.0
C1511 C 0.1929 0.32207 0.50113 0.0
H1512 H 0.02566 0.4095 0.06458 0.0
H1513 H 0.97788 0.36083 0.07007 0.0
H1514 H 0.96967 0.37256 0.10101 0.0
H1515 H 0.03286 0.41874 0.12263 0.0
H1516 H 0.04131 0.44163 0.11886 0.0
H1517 H 0.04398 0.42898 0.0981 0.0
H1518 H 0.02944 0.43964 0.07018 0.0
H1519 H 0.02669 0.45227 0.09084 0.0
H1520 H 0.00833 0.43658 0.07558 0.0
H1521 H 0.96554 0.39034 0.12941 0.0
H1522 H 0.9664 0.41261 0.15411 0.0
H1523 H 0.01704 0.44938 0.13068 0.0
C1524 C 0.01357 0.40117 0.07244 0.0
C1525 C 0.00245 0.38419 0.06482 0.0
C1526 C 0.98668 0.37385 0.07557 0.0
C1527 C 0.98188 0.38039 0.09319 0.0
C1528 C 0.99302 0.39726 0.10001 0.0
C1529 C 0.0086 0.40746 0.09008 0.0
C1530 C 0.01794 0.42538 0.10002 0.0
C1531 C 0.03504 0.42888 0.11053 0.0
C1532 C 0.02076 0.43928 0.08315 0.0
C1533 C 0.00506 0.42375 0.11689 0.0
C1534 C 0.99077 0.40742 0.11662 0.0
C1535 C 0.97674 0.4031 0.12994 0.0
C1536 C 0.97731 0.41582 0.14383 0.0
C1537 C 0.99183 0.43262 0.14438 0.0
C1538 C 0.00592 0.43654 0.13085 0.0
H1539 H 0.63487 0.61942 0.07733 0.0
H1540 H 0.60368 0.5958 0.02019 0.0
H1541 H 0.58256 0.57148 0.04227 0.0
H1542 H 0.62518 0.58058 0.11084 0.0
H1543 H 0.62435 0.59192 0.13426 0.0
H1544 H 0.63758 0.60391 0.1118 0.0
H1545 H 0.62006 0.62089 0.11385 0.0
H1546 H 0.60591 0.60632 0.13406 0.0
H1547 H 0.59716 0.6091 0.10895 0.0
H1548 H 0.56596 0.54911 0.06985 0.0
H1549 H 0.55176 0.53212 0.10241 0.0
H1550 H 0.59103 0.57214 0.14289 0.0
C1551 C 0.62382 0.60881 0.06953 0.0
C1552 C 0.62129 0.60874 0.04695 0.0
C1553 C 0.60608 0.59552 0.03736 0.0
C1554 C 0.59405 0.58174 0.04975 0.0
C1555 C 0.59703 0.58188 0.07191 0.0
C1556 C 0.61126 0.59527 0.08189 0.0
C1557 C 0.60992 0.59346 0.10634 0.0
C1558 C 0.62521 0.59245 0.11634 0.0
C1559 C 0.60815 0.60832 0.11639 0.0
C1560 C 0.59334 0.57637 0.10837 0.0
C1561 C 0.58621 0.56994 0.08825 0.0
C1562 C 0.57129 0.55407 0.08572 0.0
C1563 C 0.5634 0.54447 0.10425 0.0
C1564 C 0.57033 0.55084 0.12506 0.0
C1565 C 0.58543 0.56707 0.12715 0.0
H1566 H 0.39238 0.99256 0.05227 0.0
H1567 H 0.3741 0.02477 0.08124 0.0
H1568 H 0.39371 0.03046 0.11254 0.0
H1569 H 0.39501 0.97326 0.10251 0.0
H1570 H 0.41384 0.97204 0.09509 0.0
H1571 H 0.39899 0.97108 0.07449 0.0
H1572 H 0.42368 0.99774 0.05452 0.0
H1573 H 0.43815 0.99717 0.0746 0.0
H1574 H 0.43745 0.01681 0.07021 0.0
H1575 H 0.41604 0.03334 0.14002 0.0
H1576 H 0.43775 0.03137 0.16315 0.0
H1577 H 0.44065 0.99633 0.11679 0.0
C1578 C 0.39271 1.00096 0.06514 0.0
C1579 C 0.38242 0.00893 0.06403 0.0
C1580 C 0.38253 0.01922 0.08148 0.0
C1581 C 0.39349 0.02239 0.09935 0.0
C1582 C 0.40397 0.01484 0.09966 0.0
C1583 C 0.40353 0.00418 0.08313 0.0
C1584 C 0.41544 0.99696 0.08796 0.0
C1585 C 0.40521 0.97716 0.09015 0.0
C1586 C 0.42949 0.0025 0.07077 0.0
C1587 C 0.42294 0.00554 0.10951 0.0
C1588 C 0.41618 0.01583 0.11597 0.0
C1589 C 0.42139 0.02528 0.13516 0.0
C1590 C 0.4338 0.02417 0.14812 0.0
C1591 C 0.44089 0.01367 0.14184 0.0
C1592 C 0.43531 0.00426 0.12224 0.0
H1593 H 0.40611 0.03142 0.96462 0.0
H1594 H 0.36342 0.97891 0.96922 0.0
H1595 H 0.37509 0.97021 0.93884 0.0
H1596 H 0.40885 0.03231 0.90574 0.0
H1597 H 0.43199 0.04487 0.90586 0.0
H1598 H 0.41998 0.04721 0.92755 0.0
H1599 H 0.43749 0.04012 0.95539 0.0
H1600 H 0.44952 0.03771 0.9338 0.0
H1601 H 0.43825 0.02031 0.95266 0.0
H1602 H 0.39217 0.96667 0.90952 0.0
H1603 H 0.41313 0.96869 0.8826 0.0
H1604 H 0.44399 0.02382 0.89539 0.0
C1605 C 0.39912 0.01811 0.95917 0.0
C1606 C 0.38381 0.00588 0.9694 0.0
C1607 C 0.37514 0.98858 0.9617 0.0
C1608 C 0.38166 0.98348 0.94442 0.0
C1609 C 0.39681 0.99582 0.93483 0.0
C1610 C 0.40539 0.0128 0.94181 0.0
C1611 C 0.42159 0.0234 0.92886 0.0
C1612 C 0.42053 0.0378 0.91625 0.0
C1613 C 0.43766 0.03082 0.94356 0.0
C1614 C 0.42089 0.00965 0.91377 0.0
C1615 C 0.40648 0.99385 0.91749 0.0
C1616 C 0.40337 0.97904 0.90621 0.0
C1617 C 0.41533 0.98038 0.89077 0.0
C1618 C 0.43024 0.99646 0.88654 0.0
C1619 C 0.43286 0.01128 0.8982 0.0
H1620 H 0.00697 0.37948 0.94799 0.0
H1621 H 0.98473 0.39253 1.0017 0.0
H1622 H 0.98206 0.41407 0.97905 0.0
H1623 H 0.0296 0.42231 0.9194 0.0
H1624 H 0.02301 0.41098 0.89416 0.0
H1625 H 0.02605 0.40046 0.91739 0.0
H1626 H 0.99417 0.37577 0.90831 0.0
H1627 H 0.99173 0.38874 0.8876 0.0
H1628 H 0.97702 0.3809 0.90989 0.0
H1629 H 0.98203 0.43414 0.95118 0.0
H1630 H 0.98312 0.45082 0.91882 0.0
H1631 H 0.00261 0.42294 0.88151 0.0
C1632 C 0.00205 0.38731 0.95502 0.0
C1633 C 0.99677 0.38507 0.97678 0.0
C1634 C 0.98931 0.39457 0.98522 0.0
C1635 C 0.98772 0.40676 0.97249 0.0
C1636 C 0.99302 0.40875 0.95109 0.0
C1637 C 0.99984 0.39918 0.94224 0.0
C1638 C 0.00257 0.40246 0.9181 0.0
C1639 C 0.02145 0.40943 0.91196 0.0
C1640 C 0.99066 0.38598 0.90522 0.0
C1641 C 0.99725 0.41613 0.91516 0.0
C1642 C 0.99164 0.4194 0.93439 0.0
C1643 C 0.98627 0.43162 0.93597 0.0
C1644 C 0.98685 0.44096 0.91746 0.0
C1645 C 0.9928 0.43808 0.89758 0.0
C1646 C 0.998 0.42542 0.89646 0.0
H1647 H 0.61304 0.619 0.95689 0.0
H1648 H 0.64188 0.59137 0.95678 0.0
H1649 H 0.62434 0.57366 0.92619 0.0
H1650 H 0.5725 0.58273 0.9462 0.0
H1651 H 0.56477 0.5938 0.9288 0.0
H1652 H 0.58055 0.60561 0.9495 0.0
H1653 H 0.60097 0.62685 0.92075 0.0
H1654 H 0.58519 0.61518 0.89996 0.0
H1655 H 0.60671 0.6185 0.89765 0.0
H1656 H 0.60251 0.55735 0.89783 0.0
H1657 H 0.57796 0.54375 0.87263 0.0
H1658 H 0.56325 0.58208 0.88976 0.0
C1659 C 0.61589 0.60947 0.95014 0.0
C1660 C 0.62892 0.60666 0.95926 0.0
C1661 C 0.63199 0.5938 0.95016 0.0
C1662 C 0.62211 0.58367 0.93272 0.0
C1663 C 0.60918 0.5865 0.92442 0.0
C1664 C 0.60606 0.59912 0.93268 0.0
C1665 C 0.59075 0.59883 0.92134 0.0
C1666 C 0.57629 0.59501 0.93742 0.0
C1667 C 0.59624 0.61585 0.9092 0.0
C1668 C 0.58562 0.58388 0.90574 0.0
C1669 C 0.59652 0.57706 0.90776 0.0
C1670 C 0.59406 0.56276 0.89581 0.0
C1671 C 0.58009 0.55519 0.88138 0.0
C1672 C 0.56869 0.56192 0.87885 0.0
C1673 C 0.57163 0.57654 0.89125 0.0
H1674 H 0.98729 0.60165 0.97404 0.0
H1675 H 0.02318 0.65197 0.94834 0.0
H1676 H 0.02863 0.63801 0.91713 0.0
H1677 H 0.00893 0.57802 0.95733 0.0
H1678 H 0.98895 0.55899 0.95073 0.0
H1679 H 0.98954 0.57365 0.97121 0.0
H1680 H 0.96524 0.57554 0.94939 0.0
H1681 H 0.96585 0.56169 0.9286 0.0
H1682 H 0.96909 0.58281 0.92173 0.0
H1683 H 0.03153 0.61849 0.89013 0.0
H1684 H 0.02928 0.59482 0.86686 0.0
H1685 H 0.98967 0.55718 0.90839 0.0
C1686 C 0.99642 0.60965 0.9619 0.0
C1687 C 0.00556 0.62782 0.96404 0.0
C1688 C 0.01677 0.63799 0.94744 0.0
C1689 C 0.01979 0.63018 0.9296 0.0
C1690 C 0.01111 0.61219 0.92835 0.0
C1691 C 0.99943 0.60204 0.94385 0.0
C1692 C 0.99112 0.58301 0.93802 0.0
C1693 C 0.99486 0.57284 0.95537 0.0
C1694 C 0.97167 0.57531 0.93421 0.0
C1695 C 1.0003 0.58404 0.91713 0.0
C1696 C 0.01185 0.60099 0.91192 0.0
C1697 C 0.02238 0.60518 0.89389 0.0
C1698 C 0.02107 0.59168 0.88084 0.0
C1699 C 0.00921 0.57424 0.88575 0.0
C1700 C 0.99863 0.57043 0.90407 0.0
H1701 H 0.40418 0.38451 0.95079 0.0
H1702 H 0.36041 0.39246 0.95989 0.0
H1703 H 0.37013 0.41293 0.92918 0.0
H1704 H 0.43404 0.4274 0.94052 0.0
H1705 H 0.44582 0.42265 0.92075 0.0
H1706 H 0.43431 0.40725 0.94166 0.0
H1707 H 0.41743 0.3837 0.91271 0.0
H1708 H 0.42897 0.39901 0.89166 0.0
H1709 H 0.40579 0.38779 0.89167 0.0
H1710 H 0.3864 0.43467 0.8994 0.0
H1711 H 0.40721 0.455 0.87299 0.0
H1712 H 0.4402 0.43266 0.88445 0.0
C1713 C 0.39638 0.39026 0.94618 0.0
C1714 C 0.38145 0.38678 0.95781 0.0
C1715 C 0.37181 0.39479 0.9512 0.0
C1716 C 0.37725 0.40646 0.93378 0.0
C1717 C 0.39228 0.40988 0.92306 0.0
C1718 C 0.40161 0.40188 0.92897 0.0
C1719 C 0.41785 0.40845 0.91589 0.0
C1720 C 0.43395 0.41694 0.93058 0.0
C1721 C 0.41748 0.39387 0.90216 0.0
C1722 C 0.41644 0.42167 0.90188 0.0
C1723 C 0.40157 0.42228 0.90612 0.0
C1724 C 0.39798 0.43415 0.89583 0.0
C1725 C 0.40992 0.44572 0.88096 0.0
C1726 C 0.4253 0.44536 0.87654 0.0
C1727 C 0.42842 0.43303 0.88708 0.0
H1728 H 0.60351 0.00631 0.97441 0.0
H1729 H 0.62583 0.97827 0.9438 0.0
H1730 H 0.6068 0.97264 0.91191 0.0
H1731 H 0.55899 0.97982 0.95403 0.0
H1732 H 0.55668 0.9987 0.95106 0.0
H1733 H 0.57107 0.99831 0.9714 0.0
H1734 H 0.59514 0.02694 0.95416 0.0
H1735 H 0.58056 0.02596 0.93318 0.0
H1736 H 0.6005 0.02684 0.92616 0.0
H1737 H 0.58575 0.9707 0.88313 0.0
H1738 H 0.56469 0.97302 0.85922 0.0
H1739 H 0.55582 0.00199 0.90911 0.0
C1740 C 0.60415 0.99878 0.96107 0.0
C1741 C 0.61555 0.99209 0.96174 0.0
C1742 C 0.61663 0.98288 0.94379 0.0
C1743 C 0.60598 0.97974 0.92561 0.0
C1744 C 0.59453 0.98614 0.9256 0.0
C1745 C 0.59356 0.9955 0.94285 0.0
C1746 C 0.58076 0.00165 0.93833 0.0
C1747 C 0.56602 0.99417 0.9547 0.0
C1748 C 0.58979 0.02153 0.93793 0.0
C1749 C 0.57452 0.99409 0.91601 0.0
C1750 C 0.58264 0.98525 0.90891 0.0
C1751 C 0.5792 0.97747 0.88859 0.0
C1752 C 0.5671 0.97876 0.87518 0.0
C1753 C 0.55849 0.98765 0.8822 0.0
C1754 C 0.56229 0.99532 0.90299 0.0
H1755 H 0.59006 0.97114 0.05581 0.0
H1756 H 0.6395 0.01778 0.06406 0.0
H1757 H 0.62871 0.02537 0.09631 0.0
H1758 H 0.56462 0.98992 0.07024 0.0
H1759 H 0.5486 0.97115 0.08426 0.0
H1760 H 0.56053 0.96864 0.06263 0.0
H1761 H 0.57025 0.95189 0.08829 0.0
H1762 H 0.55838 0.95439 0.11004 0.0
H1763 H 0.581 0.96171 0.1134 0.0
H1764 H 0.61237 0.0289 0.12633 0.0
H1765 H 0.59113 0.02826 0.15208 0.0
H1766 H 0.55221 0.97949 0.12473 0.0
C1767 C 0.59869 0.98284 0.06454 0.0
C1768 C 0.61566 0.99383 0.05735 0.0
C1769 C 0.62645 0.00914 0.06914 0.0
C1770 C 0.62047 0.01355 0.08757 0.0
C1771 C 0.60368 0.00253 0.09409 0.0
C1772 C 0.59292 0.9875 0.08298 0.0
C1773 C 0.57516 0.97838 0.09289 0.0
C1774 C 0.56142 0.97695 0.07653 0.0
C1775 C 0.57096 0.96054 0.10168 0.0
C1776 C 0.57759 0.9908 0.11109 0.0
C1777 C 0.59418 0.00458 0.11154 0.0
C1778 C 0.59937 0.01812 0.12626 0.0
C1779 C 0.58723 0.01768 0.14075 0.0
C1780 C 0.57008 0.00382 0.14041 0.0
C1781 C 0.56531 0.9901 0.12557 0.0
H1782 H 0.02681 0.62675 0.06761 0.0
H1783 H 0.97384 0.61409 0.05588 0.0
H1784 H 0.96456 0.59347 0.08623 0.0
H1785 H 0.0184 0.58459 0.08033 0.0
H1786 H 0.03462 0.59128 0.10128 0.0
H1787 H 0.03722 0.60572 0.07937 0.0
H1788 H 0.04054 0.62919 0.10681 0.0
H1789 H 0.03797 0.61481 0.12883 0.0
H1790 H 0.02404 0.62408 0.12659 0.0
H1791 H 0.9608 0.57262 0.11608 0.0
H1792 H 0.96289 0.55367 0.14363 0.0
H1793 H 0.01853 0.58131 0.13751 0.0
C1794 C 0.01327 0.61976 0.07149 0.0
C1795 C 1.00107 0.62207 0.05929 0.0
C1796 C 0.98346 0.61263 0.06499 0.0
C1797 C 0.97805 0.60087 0.08222 0.0
C1798 C 0.9904 0.59882 0.09378 0.0
C1799 C 0.00766 0.6081 0.08877 0.0
C1800 C 0.01827 0.60322 0.10343 0.0
C1801 C 0.02768 0.59576 0.09032 0.0
C1802 C 0.03095 0.61875 0.11724 0.0
C1803 C 0.00424 0.58947 0.11716 0.0
C1804 C 0.98827 0.58714 0.11138 0.0
C1805 C 0.97328 0.57453 0.12101 0.0
C1806 C 0.97463 0.56389 0.13683 0.0
C1807 C 0.99089 0.56596 0.14301 0.0
C1808 C 0.00587 0.57918 0.13315 0.0
H1809 H 0.39029 0.37374 0.07304 0.0
H1810 H 0.39856 0.41431 0.02773 0.0
H1811 H 0.41988 0.43617 0.05274 0.0
H1812 H 0.39064 0.39811 0.11838 0.0
H1813 H 0.40053 0.38984 0.13693 0.0
H1814 H 0.38781 0.37675 0.1145 0.0
H1815 H 0.41372 0.37365 0.10011 0.0
H1816 H 0.42501 0.38516 0.12417 0.0
H1817 H 0.43449 0.39303 0.09825 0.0
H1818 H 0.43853 0.45369 0.08323 0.0
H1819 H 0.45471 0.46596 0.11726 0.0
H1820 H 0.4338 0.41439 0.1439 0.0
C1821 C 0.39715 0.38718 0.06816 0.0
C1822 C 0.39344 0.39242 0.04818 0.0
C1823 C 0.40172 0.41014 0.04274 0.0
C1824 C 0.41376 0.42259 0.05685 0.0
C1825 C 0.41695 0.41712 0.07662 0.0
C1826 C 0.40894 0.39985 0.08236 0.0
C1827 C 0.41329 0.39774 0.10559 0.0
C1828 C 0.3971 0.39016 0.11968 0.0
C1829 C 0.42214 0.38671 0.10705 0.0
C1830 C 0.42557 0.41641 0.11156 0.0
C1831 C 0.42725 0.42737 0.0947 0.0
C1832 C 0.43743 0.44524 0.09649 0.0
C1833 C 0.44647 0.45209 0.11587 0.0
C1834 C 0.44542 0.44108 0.13305 0.0
C1835 C 0.43479 0.42303 0.13091 0.0
H1836 H 0.69096 0.73708 0.40204 0.0
H1837 H 0.63988 0.69377 0.38977 0.0
H1838 H 0.62865 0.70347 0.4199 0.0
H1839 H 0.68776 0.73815 0.46127 0.0
H1840 H 0.69975 0.76144 0.46196 0.0
H1841 H 0.70395 0.74981 0.44127 0.0
H1842 H 0.69836 0.76731 0.41177 0.0
H1843 H 0.69407 0.77892 0.43231 0.0
H1844 H 0.67824 0.76744 0.41148 0.0
H1845 H 0.62259 0.71991 0.44893 0.0
H1846 H 0.62242 0.74109 0.47468 0.0
H1847 H 0.67752 0.77342 0.46718 0.0
C1848 C 0.67745 0.72936 0.40587 0.0
C1849 C 0.66632 0.7146 0.3935 0.0
C1850 C 0.64871 0.70505 0.39906 0.0
C1851 C 0.64221 0.71047 0.41615 0.0
C1852 C 0.65351 0.72537 0.4276 0.0
C1853 C 0.67079 0.73457 0.42276 0.0
C1854 C 0.68011 0.75077 0.43639 0.0
C1855 C 0.69369 0.74998 0.4511 0.0
C1856 C 0.68816 0.76706 0.42214 0.0
C1857 C 0.6653 0.74952 0.44936 0.0
C1858 C 0.65007 0.73474 0.44422 0.0
C1859 C 0.63449 0.73139 0.45326 0.0
C1860 C 0.6345 0.74354 0.46776 0.0
C1861 C 0.64998 0.75884 0.47305 0.0
C1862 C 0.66555 0.76167 0.46386 0.0
H1863 H 0.27043 0.9366 0.38899 0.0
H1864 H 0.32061 0.96239 0.41993 0.0
H1865 H 0.30803 0.94603 0.45362 0.0
H1866 H 0.2476 0.93766 0.43554 0.0
H1867 H 0.22884 0.91702 0.43023 0.0
H1868 H 0.2419 0.92988 0.40815 0.0
H1869 H 0.24669 0.90449 0.39521 0.0
H1870 H 0.23243 0.89176 0.4165 0.0
H1871 H 0.2535 0.89399 0.41488 0.0
H1872 H 0.28972 0.92694 0.48393 0.0
H1873 H 0.26707 0.90723 0.5089 0.0
H1874 H 0.22887 0.89417 0.45784 0.0
C1875 C 0.27874 0.93852 0.40281 0.0
C1876 C 0.29656 0.95007 0.40177 0.0
C1877 C 0.30704 0.95297 0.4203 0.0
C1878 C 0.29998 0.94386 0.43948 0.0
C1879 C 0.28238 0.93219 0.43987 0.0
C1880 C 0.27188 0.92956 0.42204 0.0
C1881 C 0.25325 0.91702 0.42703 0.0
C1882 C 0.24225 0.92593 0.42513 0.0
C1883 C 0.24607 0.90088 0.41252 0.0
C1884 C 0.25495 0.91273 0.45029 0.0
C1885 C 0.27181 0.92164 0.45745 0.0
C1886 C 0.27647 0.91983 0.47847 0.0
C1887 C 0.26352 0.90852 0.49249 0.0
C1888 C 0.24614 0.89912 0.48541 0.0
C1889 C 0.24193 0.90134 0.46397 0.0
H1890 H 0.04486 0.34073 0.41242 0.0
H1891 H 0.05767 0.31961 0.35714 0.0
H1892 H 0.07984 0.31733 0.37887 0.0
H1893 H 0.08813 0.36399 0.44032 0.0
H1894 H 0.07758 0.35705 0.46583 0.0
H1895 H 0.06635 0.36007 0.44333 0.0
H1896 H 0.04225 0.32787 0.45152 0.0
H1897 H 0.0556 0.32544 0.47169 0.0
H1898 H 0.04758 0.31084 0.44898 0.0
H1899 H 0.10038 0.3173 0.40609 0.0
H1900 H 0.1171 0.31762 0.43815 0.0
H1901 H 0.08929 0.33598 0.47738 0.0
C1902 C 0.05277 0.33616 0.40486 0.0
C1903 C 0.05026 0.33109 0.38291 0.0
C1904 C 0.05991 0.32405 0.37376 0.0
C1905 C 0.07247 0.3227 0.38597 0.0
C1906 C 0.07473 0.32782 0.40755 0.0
C1907 C 0.06505 0.33421 0.41708 0.0
C1908 C 0.06869 0.33671 0.44125 0.0
C1909 C 0.07556 0.3556 0.44804 0.0
C1910 C 0.05257 0.32449 0.45411 0.0
C1911 C 0.08251 0.33157 0.44349 0.0
C1912 C 0.0857 0.32643 0.42383 0.0
C1913 C 0.09795 0.32121 0.42162 0.0
C1914 C 0.10731 0.32135 0.43996 0.0
C1915 C 0.10441 0.32668 0.46032 0.0
C1916 C 0.09182 0.33187 0.46204 0.0
H1917 H 0.07506 0.35869 0.29812 0.0
H1918 H 0.02552 0.3124 0.28869 0.0
H1919 H 0.03716 0.30423 0.25768 0.0
H1920 H 0.08583 0.36767 0.24118 0.0
H1921 H 0.10831 0.37485 0.24585 0.0
H1922 H 0.09581 0.37752 0.26663 0.0
H1923 H 0.10458 0.36073 0.29355 0.0
H1924 H 0.11707 0.35799 0.27286 0.0
H1925 H 0.10052 0.33936 0.28652 0.0
H1926 H 0.05471 0.30007 0.22917 0.0
H1927 H 0.0767 0.30091 0.2044 0.0
H1928 H 0.1145 0.35008 0.23197 0.0
C1929 C 0.06655 0.34693 0.28942 0.0
C1930 C 0.04932 0.33622 0.29592 0.0
C1931 C 0.03874 0.32087 0.28409 0.0
C1932 C 0.04523 0.3161 0.26642 0.0
C1933 C 0.06231 0.32683 0.26067 0.0
C1934 C 0.0728 0.34198 0.27174 0.0
C1935 C 0.09084 0.35095 0.26272 0.0
C1936 C 0.09546 0.3688 0.25354 0.0
C1937 C 0.10402 0.35233 0.27994 0.0
C1938 C 0.08889 0.33843 0.24491 0.0
C1939 C 0.07234 0.32457 0.24404 0.0
C1940 C 0.06765 0.31094 0.22956 0.0
C1941 C 0.08021 0.31148 0.21563 0.0
C1942 C 0.0972 0.32561 0.21619 0.0
C1943 C 0.10151 0.33928 0.23095 0.0
H1944 H 0.68813 0.72239 0.27855 0.0
H1945 H 0.65545 0.73023 0.32301 0.0
H1946 H 0.65399 0.75107 0.2977 0.0
H1947 H 0.71137 0.76656 0.25306 0.0
H1948 H 0.70993 0.75671 0.22731 0.0
H1949 H 0.7108 0.74593 0.2516 0.0
H1950 H 0.68247 0.71919 0.2371 0.0
H1951 H 0.6814 0.73142 0.21444 0.0
H1952 H 0.66363 0.72138 0.23281 0.0
H1953 H 0.65433 0.76925 0.26697 0.0
H1954 H 0.65733 0.78481 0.23271 0.0
H1955 H 0.68867 0.76433 0.20697 0.0
C1956 C 0.68127 0.72907 0.28318 0.0
C1957 C 0.67248 0.7254 0.30302 0.0
C1958 C 0.66266 0.7334 0.30813 0.0
C1959 C 0.66173 0.74516 0.29385 0.0
C1960 C 0.67026 0.74833 0.27423 0.0
C1961 C 0.67986 0.74056 0.2688 0.0
C1962 C 0.68602 0.74468 0.24563 0.0
C1963 C 0.70572 0.75401 0.24439 0.0
C1964 C 0.67789 0.72818 0.23168 0.0
C1965 C 0.67904 0.75656 0.23932 0.0
C1966 C 0.66979 0.75826 0.25597 0.0
C1967 C 0.66164 0.76812 0.25385 0.0
C1968 C 0.66331 0.77681 0.23433 0.0
C1969 C 0.6732 0.7757 0.21732 0.0
C1970 C 0.68109 0.76539 0.21982 0.0
H1971 H 0.2777 0.95158 0.30322 0.0
H1972 H 0.30515 0.92253 0.30572 0.0
H1973 H 0.28772 0.90456 0.27542 0.0
H1974 H 0.23643 0.91552 0.29162 0.0
H1975 H 0.22973 0.92693 0.27328 0.0
H1976 H 0.24502 0.93852 0.29455 0.0
H1977 H 0.26659 0.95925 0.26634 0.0
H1978 H 0.25134 0.94775 0.24497 0.0
H1979 H 0.27268 0.95044 0.24406 0.0
H1980 H 0.26668 0.88856 0.24654 0.0
H1981 H 0.24299 0.87539 0.22012 0.0
H1982 H 0.22906 0.91478 0.2345 0.0
C1983 C 0.28016 0.94157 0.29722 0.0
C1984 C 0.29285 0.93854 0.307 0.0
C1985 C 0.29551 0.92516 0.29872 0.0
C1986 C 0.2857 0.91486 0.28139 0.0
C1987 C 0.27321 0.91801 0.27233 0.0
C1988 C 0.27038 0.93103 0.27982 0.0
C1989 C 0.25565 0.93113 0.26742 0.0
C1990 C 0.24083 0.92783 0.28263 0.0
C1991 C 0.26195 0.94816 0.25496 0.0
C1992 C 0.25059 0.916 0.2521 0.0
C1993 C 0.26099 0.90873 0.25522 0.0
C1994 C 0.25858 0.89428 0.24367 0.0
C1995 C 0.24512 0.88697 0.22851 0.0
C1996 C 0.23419 0.89411 0.22485 0.0
C1997 C 0.2371 0.90892 0.23685 0.0
H1998 H 0.67366 0.93482 0.3011 0.0
H1999 H 0.69182 0.98324 0.26696 0.0
H2000 H 0.69653 0.97014 0.23423 0.0
H2001 H 0.70244 0.9208 0.27656 0.0
H2002 H 0.68546 0.89871 0.27645 0.0
H2003 H 0.68577 0.91343 0.29663 0.0
H2004 H 0.65433 0.90434 0.28373 0.0
H2005 H 0.65542 0.89101 0.26261 0.0
H2006 H 0.65067 0.908 0.25596 0.0
H2007 H 0.69844 0.95141 0.20498 0.0
H2008 H 0.69777 0.92846 0.1815 0.0
H2009 H 0.67868 0.89237 0.23486 0.0
C2010 C 0.6789 0.94268 0.28679 0.0
C2011 C 0.68308 0.9602 0.28665 0.0
C2012 C 0.68922 0.96998 0.2675 0.0
C2013 C 0.69179 0.96261 0.24885 0.0
C2014 C 0.68792 0.94537 0.24961 0.0
C2015 C 0.68162 0.93552 0.26809 0.0
C2016 C 0.67773 0.91708 0.26435 0.0
C2017 C 0.6885 0.91225 0.27942 0.0
C2018 C 0.65839 0.90436 0.2668 0.0
C2019 C 0.68322 0.9182 0.24106 0.0
C2020 C 0.68888 0.93458 0.23276 0.0
C2021 C 0.69415 0.93858 0.21135 0.0
C2022 C 0.69371 0.92553 0.19815 0.0
C2023 C 0.6883 0.90883 0.20654 0.0
C2024 C 0.68301 0.90514 0.22822 0.0
H2025 H 0.04897 0.72568 0.30087 0.0
H2026 H 0.07358 0.69397 0.30044 0.0
H2027 H 0.09088 0.71028 0.2692 0.0
H2028 H 0.04851 0.73137 0.24139 0.0
H2029 H 0.0532 0.75348 0.24389 0.0
H2030 H 0.04128 0.73805 0.26469 0.0
H2031 H 0.06354 0.75803 0.29331 0.0
H2032 H 0.07561 0.77343 0.27262 0.0
H2033 H 0.08598 0.76477 0.28977 0.0
H2034 H 0.10745 0.73154 0.24055 0.0
H2035 H 0.12195 0.75614 0.21575 0.0
H2036 H 0.08646 0.77408 0.2338 0.0
C2037 C 0.05767 0.72187 0.29385 0.0
C2038 C 0.05982 0.70844 0.30305 0.0
C2039 C 0.07167 0.70417 0.29369 0.0
C2040 C 0.08154 0.71334 0.27589 0.0
C2041 C 0.07944 0.72676 0.26755 0.0
C2042 C 0.06774 0.73098 0.2761 0.0
C2043 C 0.06887 0.74675 0.26495 0.0
C2044 C 0.05196 0.74213 0.25302 0.0
C2045 C 0.0738 0.76162 0.28113 0.0
C2046 C 0.08329 0.75092 0.24917 0.0
C2047 C 0.08907 0.73912 0.25086 0.0
C2048 C 0.10282 0.74069 0.23878 0.0
C2049 C 0.11092 0.7547 0.22459 0.0
C2050 C 0.10528 0.76704 0.2225 0.0
C2051 C 0.09116 0.76496 0.23496 0.0
H2052 H 0.28489 0.35565 0.30583 0.0
H2053 H 0.3001 0.31922 0.28282 0.0
H2054 H 0.28052 0.31234 0.25125 0.0
H2055 H 0.24086 0.33432 0.28949 0.0
H2056 H 0.24146 0.3539 0.28064 0.0
H2057 H 0.2561 0.35476 0.30146 0.0
H2058 H 0.28136 0.37728 0.27778 0.0
H2059 H 0.26633 0.37544 0.25689 0.0
H2060 H 0.28373 0.37144 0.25066 0.0
H2061 H 0.25538 0.30582 0.2264 0.0
H2062 H 0.23232 0.3053 0.20422 0.0
H2063 H 0.23839 0.35075 0.2387 0.0
C2064 C 0.28399 0.34618 0.29413 0.0
C2065 C 0.29295 0.33698 0.29737 0.0
C2066 C 0.29236 0.32548 0.28121 0.0
C2067 C 0.28146 0.32166 0.26317 0.0
C2068 C 0.27183 0.33005 0.26115 0.0
C2069 C 0.27351 0.34258 0.2757 0.0
C2070 C 0.26272 0.35064 0.26879 0.0
C2071 C 0.24952 0.34826 0.28615 0.0
C2072 C 0.27422 0.36984 0.26319 0.0
C2073 C 0.25399 0.33999 0.24878 0.0
C2074 C 0.25924 0.32804 0.24485 0.0
C2075 C 0.25166 0.3156 0.22871 0.0
C2076 C 0.23854 0.31556 0.21598 0.0
C2077 C 0.23334 0.3282 0.21895 0.0
C2078 C 0.2415 0.34065 0.23564 0.0
H2079 H 0.26824 0.31067 0.40043 0.0
H2080 H 0.30413 0.36535 0.39157 0.0
H2081 H 0.29094 0.37227 0.42206 0.0
H2082 H 0.23194 0.31474 0.41288 0.0
H2083 H 0.22377 0.29793 0.43301 0.0
H2084 H 0.2366 0.2972 0.41122 0.0
H2085 H 0.25779 0.29564 0.43889 0.0
H2086 H 0.24499 0.29633 0.46079 0.0
H2087 H 0.26755 0.31205 0.45951 0.0
H2088 H 0.27238 0.37336 0.45165 0.0
H2089 H 0.25042 0.36856 0.47862 0.0
H2090 H 0.22792 0.31303 0.46994 0.0
C2091 C 0.27344 0.32411 0.40497 0.0
C2092 C 0.28724 0.33746 0.39354 0.0
C2093 C 0.29363 0.35486 0.40009 0.0
C2094 C 0.28621 0.35894 0.4174 0.0
C2095 C 0.27256 0.34547 0.42819 0.0
C2096 C 0.26633 0.3284 0.42235 0.0
C2097 C 0.25131 0.31638 0.43632 0.0
C2098 C 0.23494 0.30595 0.42253 0.0
C2099 C 0.25568 0.3044 0.44967 0.0
C2100 C 0.24982 0.32939 0.4506 0.0
C2101 C 0.26221 0.34608 0.44568 0.0
C2102 C 0.26281 0.36032 0.45591 0.0
C2103 C 0.25031 0.35742 0.4714 0.0
C2104 C 0.23738 0.34038 0.47671 0.0
C2105 C 0.23744 0.32624 0.46628 0.0
H2106 H 0.66437 0.94243 0.38167 0.0
H2107 H 0.71986 0.97503 0.38573 0.0
H2108 H 0.72055 0.95917 0.41814 0.0
H2109 H 0.65627 0.93778 0.43956 0.0
H2110 H 0.63978 0.91543 0.43748 0.0
H2111 H 0.64339 0.92996 0.41526 0.0
H2112 H 0.64787 0.90955 0.38958 0.0
H2113 H 0.64418 0.89493 0.41167 0.0
H2114 H 0.66375 0.90334 0.39641 0.0
H2115 H 0.71545 0.93959 0.44958 0.0
H2116 H 0.70514 0.91626 0.47663 0.0
H2117 H 0.65308 0.89553 0.4516 0.0
C2118 C 0.67665 0.94634 0.38949 0.0
C2119 C 0.69206 0.96006 0.38118 0.0
C2120 C 0.70788 0.96457 0.39173 0.0
C2121 C 0.70841 0.9557 0.41024 0.0
C2122 C 0.69301 0.94227 0.41798 0.0
C2123 C 0.67744 0.9375 0.40788 0.0
C2124 C 0.6629 0.92197 0.41887 0.0
C2125 C 0.64981 0.92657 0.42836 0.0
C2126 C 0.65417 0.90654 0.4032 0.0
C2127 C 0.67278 0.91867 0.43659 0.0
C2128 C 0.69011 0.93066 0.43589 0.0
C2129 C 0.70192 0.93011 0.45027 0.0
C2130 C 0.69594 0.91676 0.46552 0.0
C2131 C 0.67832 0.90399 0.46618 0.0
C2132 C 0.66658 0.90519 0.4517 0.0
H2133 H 0.04867 0.70924 0.4216 0.0
H2134 H 0.07076 0.73905 0.36355 0.0
H2135 H 0.09457 0.76173 0.38521 0.0
H2136 H 0.05817 0.74846 0.4517 0.0
H2137 H 0.06143 0.74069 0.47727 0.0
H2138 H 0.04683 0.72562 0.45748 0.0
H2139 H 0.06433 0.70839 0.45633 0.0
H2140 H 0.07583 0.7224 0.47873 0.0
H2141 H 0.08752 0.72141 0.45601 0.0
H2142 H 0.11697 0.77966 0.41236 0.0
H2143 H 0.13476 0.79454 0.44441 0.0
H2144 H 0.09625 0.75568 0.48601 0.0
C2145 C 0.05882 0.72039 0.41356 0.0
C2146 C 0.05864 0.72209 0.39085 0.0
C2147 C 0.07123 0.73733 0.38085 0.0
C2148 C 0.08471 0.75025 0.393 0.0
C2149 C 0.08483 0.74809 0.4153 0.0
C2150 C 0.072 0.73381 0.42564 0.0
C2151 C 0.07408 0.73597 0.45005 0.0
C2152 C 0.05925 0.73779 0.45968 0.0
C2153 C 0.07547 0.72111 0.46084 0.0
C2154 C 0.09093 0.75288 0.45164 0.0
C2155 C 0.09679 0.75964 0.43134 0.0
C2156 C 0.11244 0.77464 0.42837 0.0
C2157 C 0.12249 0.78292 0.44662 0.0
C2158 C 0.11685 0.77624 0.46759 0.0
C2159 C 0.10074 0.76115 0.47015 0.0
H2160 H 0.35893 0.08228 0.72692 0.0
H2161 H 0.31424 0.03105 0.73179 0.0
H2162 H 0.30499 0.04033 0.76413 0.0
H2163 H 0.36657 0.09009 0.78536 0.0
H2164 H 0.37298 0.11267 0.78281 0.0
H2165 H 0.37675 0.1016 0.76099 0.0
H2166 H 0.35999 0.11088 0.73471 0.0
H2167 H 0.35612 0.12193 0.75643 0.0
H2168 H 0.33829 0.10559 0.74106 0.0
H2169 H 0.2991 0.05597 0.79377 0.0
H2170 H 0.29795 0.07655 0.81973 0.0
H2171 H 0.34688 0.11712 0.7963 0.0
C2172 C 0.34732 0.0729 0.73494 0.0
C2173 C 0.33734 0.05591 0.72675 0.0
C2174 C 0.32218 0.04411 0.73774 0.0
C2175 C 0.3168 0.04926 0.75614 0.0
C2176 C 0.32679 0.06618 0.76352 0.0
C2177 C 0.34183 0.07777 0.7534 0.0
C2178 C 0.3499 0.09538 0.7641 0.0
C2179 C 0.3676 0.10021 0.7739 0.0
C2180 C 0.35114 0.10926 0.74812 0.0
C2181 C 0.33686 0.092 0.78154 0.0
C2182 C 0.32362 0.07507 0.78095 0.0
C2183 C 0.30953 0.06918 0.79462 0.0
C2184 C 0.30894 0.08093 0.80921 0.0
C2185 C 0.32242 0.09829 0.81011 0.0
C2186 C 0.3366 0.1038 0.79623 0.0
H2187 H 0.93219 0.27866 0.72195 0.0
H2188 H 0.98318 0.29031 0.74297 0.0
H2189 H 0.97067 0.27034 0.77389 0.0
H2190 H 0.91683 0.27744 0.77667 0.0
H2191 H 0.89523 0.2606 0.77062 0.0
H2192 H 0.90809 0.27538 0.74975 0.0
H2193 H 0.90412 0.24958 0.72529 0.0
H2194 H 0.89037 0.23535 0.74601 0.0
H2195 H 0.90841 0.23343 0.73697 0.0
H2196 H 0.95234 0.24715 0.8004 0.0
H2197 H 0.92973 0.22547 0.82403 0.0
H2198 H 0.89094 0.23106 0.78781 0.0
C2199 C 0.94063 0.27683 0.73302 0.0
C2200 C 0.95852 0.28515 0.72958 0.0
C2201 C 0.96935 0.28325 0.74485 0.0
C2202 C 0.96238 0.27209 0.76251 0.0
C2203 C 0.94459 0.2634 0.76495 0.0
C2204 C 0.93388 0.26592 0.75091 0.0
C2205 C 0.91531 0.25578 0.75796 0.0
C2206 C 0.90847 0.26803 0.76412 0.0
C2207 C 0.90391 0.24278 0.7405 0.0
C2208 C 0.9172 0.24666 0.77765 0.0
C2209 C 0.93419 0.25116 0.78134 0.0
C2210 C 0.93902 0.24371 0.79791 0.0
C2211 C 0.92614 0.23139 0.81115 0.0
C2212 C 0.90871 0.22681 0.80781 0.0
C2213 C 0.90423 0.23461 0.79091 0.0
H2214 H 0.72244 0.65756 0.71628 0.0
H2215 H 0.71165 0.69855 0.73283 0.0
H2216 H 0.73295 0.7077 0.76283 0.0
H2217 H 0.72547 0.64688 0.77269 0.0
H2218 H 0.74173 0.64099 0.76734 0.0
H2219 H 0.72626 0.63828 0.74663 0.0
H2220 H 0.7511 0.65739 0.72028 0.0
H2221 H 0.7663 0.65945 0.74103 0.0
H2222 H 0.76749 0.67852 0.72914 0.0
H2223 H 0.75836 0.71455 0.78745 0.0
H2224 H 0.78098 0.71498 0.81048 0.0
H2225 H 0.77052 0.66562 0.78282 0.0
C2226 C 0.72473 0.66856 0.72615 0.0
C2227 C 0.71642 0.6782 0.72146 0.0
C2228 C 0.71885 0.69181 0.7354 0.0
C2229 C 0.73074 0.69695 0.75257 0.0
C2230 C 0.73952 0.68782 0.75604 0.0
C2231 C 0.73622 0.67355 0.7437 0.0
C2232 C 0.74635 0.66513 0.75196 0.0
C2233 C 0.73423 0.64673 0.76014 0.0
C2234 C 0.75852 0.66513 0.73455 0.0
C2235 C 0.75629 0.67724 0.77041 0.0
C2236 C 0.7524 0.69041 0.77221 0.0
C2237 C 0.76108 0.70396 0.78675 0.0
C2238 C 0.7739 0.70394 0.80003 0.0
C2239 C 0.7777 0.69014 0.79927 0.0
C2240 C 0.76848 0.67659 0.78415 0.0
H2241 H 0.73869 0.68909 0.62235 0.0
H2242 H 0.69318 0.63851 0.6278 0.0
H2243 H 0.70437 0.62747 0.5991 0.0
H2244 H 0.74322 0.68859 0.56452 0.0
H2245 H 0.76639 0.69954 0.56589 0.0
H2246 H 0.75448 0.70345 0.58632 0.0
H2247 H 0.76948 0.69486 0.61612 0.0
H2248 H 0.78146 0.69095 0.59579 0.0
H2249 H 0.7685 0.67413 0.61464 0.0
H2250 H 0.7212 0.62188 0.57021 0.0
H2251 H 0.74202 0.62227 0.54384 0.0
H2252 H 0.77635 0.67651 0.55809 0.0
C2253 C 0.73093 0.6757 0.61748 0.0
C2254 C 0.71497 0.6647 0.62737 0.0
C2255 C 0.7054 0.64723 0.62049 0.0
C2256 C 0.71166 0.64084 0.60418 0.0
C2257 C 0.72748 0.65206 0.5949 0.0
C2258 C 0.73695 0.66913 0.60132 0.0
C2259 C 0.75374 0.6785 0.58924 0.0
C2260 C 0.75449 0.6934 0.57569 0.0
C2261 C 0.7692 0.68499 0.60488 0.0
C2262 C 0.75232 0.66404 0.575 0.0
C2263 C 0.73709 0.64888 0.57844 0.0
C2264 C 0.73314 0.6337 0.56738 0.0
C2265 C 0.74509 0.63403 0.55251 0.0
C2266 C 0.76082 0.64943 0.54881 0.0
C2267 C 0.76434 0.6646 0.56022 0.0
H2268 H 0.33669 0.04672 0.60837 0.0
H2269 H 0.31056 0.05701 0.66 0.0
H2270 H 0.30299 0.07401 0.63486 0.0
H2271 H 0.35261 0.08619 0.5747 0.0
H2272 H 0.34679 0.07271 0.55127 0.0
H2273 H 0.35202 0.06555 0.57604 0.0
H2274 H 0.32122 0.03766 0.56857 0.0
H2275 H 0.31658 0.04815 0.54659 0.0
H2276 H 0.30241 0.0402 0.56941 0.0
H2277 H 0.30038 0.0916 0.60524 0.0
H2278 H 0.30071 0.10706 0.57206 0.0
H2279 H 0.32526 0.08252 0.5379 0.0
C2280 C 0.32967 0.05288 0.61433 0.0
C2281 C 0.32484 0.05137 0.63624 0.0
C2282 C 0.31475 0.05857 0.64337 0.0
C2283 C 0.31037 0.06815 0.62922 0.0
C2284 C 0.31545 0.06963 0.60775 0.0
C2285 C 0.32456 0.06191 0.60014 0.0
C2286 C 0.32674 0.06402 0.57579 0.0
C2287 C 0.34569 0.07259 0.56915 0.0
C2288 C 0.3161 0.04646 0.56442 0.0
C2289 C 0.31918 0.07575 0.57144 0.0
C2290 C 0.31239 0.07845 0.59005 0.0
C2291 C 0.30537 0.08937 0.59046 0.0
C2292 C 0.30556 0.09805 0.57146 0.0
C2293 C 0.31284 0.09588 0.55226 0.0
C2294 C 0.31954 0.08439 0.55227 0.0
H2295 H 0.94753 0.26066 0.63101 0.0
H2296 H 0.94603 0.30878 0.63295 0.0
H2297 H 0.92529 0.29854 0.60236 0.0
H2298 H 0.94487 0.25554 0.57306 0.0
H2299 H 0.93146 0.23238 0.57428 0.0
H2300 H 0.94647 0.24374 0.59591 0.0
H2301 H 0.92168 0.23048 0.62357 0.0
H2302 H 0.90661 0.21904 0.60206 0.0
H2303 H 0.9031 0.23316 0.61958 0.0
H2304 H 0.904 0.28248 0.57189 0.0
H2305 H 0.88398 0.262 0.54455 0.0
H2306 H 0.89963 0.22461 0.56317 0.0
C2307 C 0.94297 0.26917 0.62501 0.0
C2308 C 0.94851 0.28559 0.63445 0.0
C2309 C 0.94204 0.29617 0.62604 0.0
C2310 C 0.93026 0.29047 0.60863 0.0
C2311 C 0.92509 0.27419 0.59978 0.0
C2312 C 0.93126 0.26371 0.60772 0.0
C2313 C 0.92347 0.24663 0.59576 0.0
C2314 C 0.9374 0.24446 0.58406 0.0
C2315 C 0.9131 0.23143 0.61116 0.0
C2316 C 0.91184 0.24904 0.57987 0.0
C2317 C 0.91295 0.26502 0.58238 0.0
C2318 C 0.90307 0.26996 0.56978 0.0
C2319 C 0.89169 0.25822 0.55436 0.0
C2320 C 0.89026 0.24171 0.55164 0.0
C2321 C 0.90062 0.23722 0.56454 0.0
H2322 H 0.33038 0.26504 0.64235 0.0
H2323 H 0.34908 0.31273 0.60639 0.0
H2324 H 0.35038 0.29786 0.57324 0.0
H2325 H 0.35543 0.24791 0.61456 0.0
H2326 H 0.33771 0.22622 0.61612 0.0
H2327 H 0.34033 0.24185 0.63642 0.0
H2328 H 0.30872 0.23451 0.62747 0.0
H2329 H 0.30717 0.21997 0.60625 0.0
H2330 H 0.30332 0.23765 0.60029 0.0
H2331 H 0.34824 0.27733 0.54372 0.0
H2332 H 0.34395 0.25291 0.52027 0.0
H2333 H 0.32712 0.21872 0.57567 0.0
C2334 C 0.33505 0.27235 0.62753 0.0
C2335 C 0.34028 0.29013 0.62693 0.0
C2336 C 0.34567 0.29923 0.60721 0.0
C2337 C 0.34631 0.29086 0.58833 0.0
C2338 C 0.34132 0.27334 0.58948 0.0
C2339 C 0.33587 0.26419 0.6086 0.0
C2340 C 0.33051 0.2453 0.60527 0.0
C2341 C 0.34167 0.24004 0.61893 0.0
C2342 C 0.31129 0.23368 0.6101 0.0
C2343 C 0.33403 0.24531 0.58139 0.0
C2344 C 0.34008 0.26156 0.57251 0.0
C2345 C 0.34365 0.26459 0.55053 0.0
C2346 C 0.34112 0.25068 0.53734 0.0
C2347 C 0.33533 0.23406 0.54626 0.0
C2348 C 0.33174 0.23138 0.56854 0.0
H2349 H 0.73899 0.05251 0.63162 0.0
H2350 H 0.69081 0.05347 0.63002 0.0
H2351 H 0.70167 0.0744 0.60006 0.0
H2352 H 0.76624 0.09734 0.62154 0.0
H2353 H 0.78097 0.09427 0.60489 0.0
H2354 H 0.76916 0.07885 0.62569 0.0
H2355 H 0.75707 0.05417 0.59728 0.0
H2356 H 0.76884 0.06953 0.57637 0.0
H2357 H 0.7459 0.05578 0.57372 0.0
H2358 H 0.71814 0.09606 0.5711 0.0
H2359 H 0.73897 0.11658 0.54494 0.0
H2360 H 0.77628 0.10143 0.56539 0.0
C2361 C 0.73063 0.05698 0.6249 0.0
C2362 C 0.714 0.05126 0.63324 0.0
C2363 C 0.70359 0.0576 0.62398 0.0
C2364 C 0.70963 0.0695 0.60691 0.0
C2365 C 0.72611 0.07493 0.59921 0.0
C2366 C 0.73645 0.06885 0.60785 0.0
C2367 C 0.75379 0.07704 0.59694 0.0
C2368 C 0.7684 0.0875 0.61324 0.0
C2369 C 0.75655 0.06331 0.58539 0.0
C2370 C 0.75162 0.08875 0.58089 0.0
C2371 C 0.73556 0.08734 0.58245 0.0
C2372 C 0.73073 0.09722 0.56967 0.0
C2373 C 0.74266 0.10889 0.55494 0.0
C2374 C 0.75921 0.11056 0.55308 0.0
C2375 C 0.76364 0.10025 0.5662 0.0
H2376 H 0.94984 0.68293 0.63057 0.0
H2377 H 0.95838 0.64019 0.61564 0.0
H2378 H 0.93802 0.63202 0.5847 0.0
H2379 H 0.90528 0.66385 0.61612 0.0
H2380 H 0.90776 0.68337 0.60402 0.0
H2381 H 0.92221 0.68459 0.62534 0.0
H2382 H 0.94783 0.70292 0.59951 0.0
H2383 H 0.933 0.70084 0.57823 0.0
H2384 H 0.94866 0.694 0.5737 0.0
H2385 H 0.91373 0.62649 0.55874 0.0
H2386 H 0.89173 0.62701 0.53513 0.0
H2387 H 0.90353 0.67675 0.56268 0.0
C2388 C 0.94729 0.67179 0.62081 0.0
C2389 C 0.95466 0.66142 0.62617 0.0
C2390 C 0.9519 0.64756 0.61247 0.0
C2391 C 0.94055 0.64298 0.59477 0.0
C2392 C 0.93268 0.65288 0.59058 0.0
C2393 C 0.93632 0.66732 0.60279 0.0
C2394 C 0.92703 0.67642 0.59398 0.0
C2395 C 0.91486 0.6771 0.61089 0.0
C2396 C 0.9399 0.69462 0.58587 0.0
C2397 C 0.91709 0.66447 0.57543 0.0
C2398 C 0.92033 0.65086 0.57391 0.0
C2399 C 0.91147 0.63739 0.55928 0.0
C2400 C 0.89903 0.63792 0.54574 0.0
C2401 C 0.89575 0.65203 0.54654 0.0
C2402 C 0.90525 0.66556 0.56153 0.0
H2403 H 0.92877 0.65784 0.7146 0.0
H2404 H 0.98185 0.69467 0.73067 0.0
H2405 H 0.97191 0.70544 0.76125 0.0
H2406 H 0.91181 0.68659 0.72623 0.0
H2407 H 0.89189 0.66928 0.73639 0.0
H2408 H 0.90347 0.66493 0.71593 0.0
H2409 H 0.90396 0.64146 0.74045 0.0
H2410 H 0.89255 0.64584 0.76107 0.0
H2411 H 0.9129 0.64714 0.76739 0.0
H2412 H 0.95559 0.71049 0.79186 0.0
H2413 H 0.93479 0.71092 0.81752 0.0
H2414 H 0.89276 0.67251 0.77828 0.0
C2415 C 0.93837 0.66827 0.72438 0.0
C2416 C 0.95611 0.67538 0.72027 0.0
C2417 C 0.96819 0.68906 0.73349 0.0
C2418 C 0.96266 0.69521 0.75091 0.0
C2419 C 0.94502 0.68775 0.75459 0.0
C2420 C 0.9331 0.67475 0.74142 0.0
C2421 C 0.91489 0.66895 0.74839 0.0
C2422 C 0.90493 0.67267 0.73068 0.0
C2423 C 0.90554 0.64971 0.7547 0.0
C2424 C 0.91835 0.68044 0.76788 0.0
C2425 C 0.93577 0.69115 0.77135 0.0
C2426 C 0.94192 0.70233 0.78906 0.0
C2427 C 0.92996 0.70255 0.80351 0.0
C2428 C 0.912 0.69175 0.8001 0.0
C2429 C 0.9063 0.68073 0.78181 0.0
H2430 H 0.32582 0.27904 0.72602 0.0
H2431 H 0.38137 0.30361 0.72001 0.0
H2432 H 0.38257 0.28693 0.75112 0.0
H2433 H 0.32473 0.27687 0.78512 0.0
H2434 H 0.3056 0.25596 0.78561 0.0
H2435 H 0.30906 0.27057 0.76354 0.0
H2436 H 0.30573 0.24701 0.73628 0.0
H2437 H 0.30231 0.23235 0.75825 0.0
H2438 H 0.31921 0.23726 0.73916 0.0
H2439 H 0.37789 0.26682 0.78164 0.0
H2440 H 0.36752 0.24413 0.80943 0.0
H2441 H 0.31501 0.23256 0.79647 0.0
C2442 C 0.33826 0.28107 0.73139 0.0
C2443 C 0.3535 0.29273 0.72051 0.0
C2444 C 0.36949 0.29479 0.72797 0.0
C2445 C 0.37033 0.2854 0.74571 0.0
C2446 C 0.3551 0.27394 0.7559 0.0
C2447 C 0.33936 0.27172 0.74908 0.0
C2448 C 0.32488 0.25802 0.76244 0.0
C2449 C 0.31552 0.26582 0.77492 0.0
C2450 C 0.3123 0.24276 0.74818 0.0
C2451 C 0.33496 0.25278 0.77763 0.0
C2452 C 0.35238 0.26224 0.77364 0.0
C2453 C 0.36429 0.25946 0.7851 0.0
C2454 C 0.35826 0.2466 0.80101 0.0
C2455 C 0.34044 0.23661 0.8054 0.0
C2456 C 0.3287 0.23989 0.79353 0.0
H2457 H 0.71988 0.07032 0.71863 0.0
H2458 H 0.70551 0.01935 0.74327 0.0
H2459 H 0.72533 0.03251 0.77443 0.0
H2460 H 0.76488 0.09298 0.73457 0.0
H2461 H 0.76397 0.11207 0.74176 0.0
H2462 H 0.74944 0.09761 0.72148 0.0
H2463 H 0.72449 0.09642 0.74494 0.0
H2464 H 0.73964 0.10974 0.76551 0.0
H2465 H 0.72208 0.08875 0.77239 0.0
H2466 H 0.74902 0.0512 0.80043 0.0
H2467 H 0.77179 0.07424 0.82297 0.0
H2468 H 0.7688 0.11316 0.78362 0.0
C2469 C 0.72104 0.06201 0.73059 0.0
C2470 C 0.71198 0.04386 0.7281 0.0
C2471 C 0.71308 0.0333 0.74446 0.0
C2472 C 0.72415 0.04066 0.76226 0.0
C2473 C 0.73362 0.05861 0.76374 0.0
C2474 C 0.7319 0.06918 0.74864 0.0
C2475 C 0.74292 0.08809 0.75472 0.0
C2476 C 0.75605 0.09826 0.73705 0.0
C2477 C 0.7316 0.09623 0.75969 0.0
C2478 C 0.7517 0.0865 0.775 0.0
C2479 C 0.74618 0.06938 0.77987 0.0
C2480 C 0.75322 0.06465 0.79704 0.0
C2481 C 0.76618 0.07778 0.80965 0.0
C2482 C 0.77187 0.09539 0.80511 0.0
C2483 C 0.76443 0.09977 0.78764 0.0
H2484 H 0.05859 0.36965 0.04747 0.0
H2485 H 0.0186 0.31762 0.0311 0.0
H2486 H 0.0358 0.30588 0.04836 0.0
H2487 H 0.09474 0.36342 0.03875 0.0
H2488 H 0.10693 0.37677 0.06132 0.0
H2489 H 0.09156 0.38099 0.04743 0.0
H2490 H 0.07607 0.37845 0.08358 0.0
H2491 H 0.09143 0.37429 0.09759 0.0
H2492 H 0.06876 0.35918 0.09967 0.0
H2493 H 0.05794 0.30002 0.06678 0.0
H2494 H 0.08229 0.30032 0.08636 0.0
H2495 H 0.10675 0.3562 0.09229 0.0
C2496 C 0.05343 0.35577 0.0474 0.0
C2497 C 0.03727 0.34455 0.0378 0.0
C2498 C 0.03094 0.32647 0.03836 0.0
C2499 C 0.04064 0.31969 0.04807 0.0
C2500 C 0.05655 0.33115 0.05731 0.0
C2501 C 0.06282 0.3488 0.05719 0.0
C2502 C 0.08006 0.35836 0.06867 0.0
C2503 C 0.09415 0.37061 0.05311 0.0
C2504 C 0.07901 0.36814 0.08856 0.0
C2505 C 0.0826 0.34334 0.07519 0.0
C2506 C 0.06897 0.32776 0.06841 0.0
C2507 C 0.0686 0.31214 0.07234 0.0
C2508 C 0.08247 0.31245 0.08363 0.0
C2509 C 0.09649 0.32828 0.09106 0.0
C2510 C 0.09643 0.34388 0.08666 0.0
H2511 H 0.66573 0.69025 0.0595 0.0
H2512 H 0.64966 0.69672 0.9953 0.0
H2513 H 0.65318 0.72502 0.00626 0.0
H2514 H 0.64414 0.70861 0.08836 0.0
H2515 H 0.66086 0.719 0.10851 0.0
H2516 H 0.65773 0.69958 0.09539 0.0
H2517 H 0.68958 0.71536 0.0835 0.0
H2518 H 0.69282 0.73484 0.0966 0.0
H2519 H 0.69778 0.73519 0.06837 0.0
H2520 H 0.65787 0.75233 0.02444 0.0
H2521 H 0.66335 0.77668 0.04841 0.0
H2522 H 0.67584 0.75223 0.1011 0.0
C2523 C 0.66307 0.69767 0.04768 0.0
C2524 C 0.65746 0.69128 0.02649 0.0
C2525 C 0.65399 0.70135 0.01159 0.0
C2526 C 0.65597 0.71744 0.01767 0.0
C2527 C 0.6614 0.7233 0.03872 0.0
C2528 C 0.66492 0.71374 0.0535 0.0
C2529 C 0.6702 0.72281 0.07525 0.0
C2530 C 0.65747 0.71184 0.09292 0.0
C2531 C 0.6887 0.72732 0.08128 0.0
C2532 C 0.66904 0.73895 0.07042 0.0
C2533 C 0.66397 0.73898 0.04925 0.0
C2534 C 0.66181 0.75242 0.04106 0.0
C2535 C 0.66484 0.76615 0.05487 0.0
C2536 C 0.66994 0.76638 0.07672 0.0
C2537 C 0.67213 0.75256 0.08446 0.0
H2538 H 0.29633 0.9784 0.06069 0.0
H2539 H 0.30933 0.94479 0.02426 0.0
H2540 H 0.28483 0.91928 0.04014 0.0
H2541 H 0.28172 0.95289 0.10879 0.0
H2542 H 0.26375 0.95641 0.11314 0.0
H2543 H 0.28248 0.97245 0.09923 0.0
H2544 H 0.26349 0.97101 0.06651 0.0
H2545 H 0.24468 0.95509 0.08042 0.0
H2546 H 0.24955 0.95043 0.05389 0.0
H2547 H 0.26128 0.89774 0.06227 0.0
H2548 H 0.23641 0.88038 0.08487 0.0
H2549 H 0.23492 0.92686 0.10351 0.0
C2550 C 0.29388 0.96565 0.056 0.0
C2551 C 0.30475 0.96356 0.04128 0.0
C2552 C 0.30112 0.9467 0.03538 0.0
C2553 C 0.28729 0.93211 0.04442 0.0
C2554 C 0.27693 0.93454 0.05901 0.0
C2555 C 0.2797 0.95079 0.06444 0.0
C2556 C 0.26594 0.94945 0.07986 0.0
C2557 C 0.27396 0.95833 0.10154 0.0
C2558 C 0.25528 0.95694 0.06955 0.0
C2559 C 0.25528 0.92994 0.08246 0.0
C2560 C 0.26212 0.92173 0.07051 0.0
C2561 C 0.25542 0.90394 0.07117 0.0
C2562 C 0.24103 0.89413 0.08396 0.0
C2563 C 0.23296 0.90195 0.09554 0.0
C2564 C 0.24047 0.92025 0.09488 0.0
H2565 H 0.36418 0.06092 0.9806 0.0
H2566 H 0.31372 0.01692 0.99255 0.0
H2567 H 0.3003 0.03188 0.97333 0.0
H2568 H 0.35311 0.09372 0.98826 0.0
H2569 H 0.3668 0.10734 0.96705 0.0
H2570 H 0.37225 0.09294 0.98122 0.0
H2571 H 0.37318 0.07898 0.94488 0.0
H2572 H 0.36782 0.09341 0.93057 0.0
H2573 H 0.35473 0.07036 0.927 0.0
H2574 H 0.29255 0.05264 0.95388 0.0
H2575 H 0.29121 0.07652 0.93504 0.0
H2576 H 0.34702 0.10597 0.9349 0.0
C2577 C 0.35028 0.05433 0.9792 0.0
C2578 C 0.34 0.03773 0.98821 0.0
C2579 C 0.32188 0.02961 0.98577 0.0
C2580 C 0.31415 0.03803 0.97492 0.0
C2581 C 0.32472 0.05448 0.96644 0.0
C2582 C 0.34241 0.06244 0.96834 0.0
C2583 C 0.35101 0.0801 0.95788 0.0
C2584 C 0.3614 0.09436 0.9746 0.0
C2585 C 0.36235 0.08074 0.93896 0.0
C2586 C 0.3354 0.081 0.94996 0.0
C2587 C 0.32034 0.06614 0.95503 0.0
C2588 C 0.3043 0.06425 0.94968 0.0
C2589 C 0.30367 0.07788 0.93885 0.0
C2590 C 0.319 0.09321 0.9334 0.0
C2591 C 0.33502 0.09461 0.93904 0.0
H2592 H 0.97155 0.30613 0.95892 0.0
H2593 H 0.95023 0.29494 0.0235 0.0
H2594 H 0.92701 0.26668 0.01089 0.0
H2595 H 0.93203 0.28805 0.93078 0.0
H2596 H 0.93842 0.27912 0.90895 0.0
H2597 H 0.95433 0.2979 0.92328 0.0
H2598 H 0.97152 0.28213 0.93207 0.0
H2599 H 0.95568 0.2633 0.91766 0.0
H2600 H 0.96095 0.26143 0.94538 0.0
H2601 H 0.90483 0.24091 0.99098 0.0
H2602 H 0.88549 0.21852 0.96505 0.0
H2603 H 0.92105 0.24573 0.91323 0.0
C2604 C 0.96217 0.29759 0.97048 0.0
C2605 C 0.96275 0.30274 0.99223 0.0
C2606 C 0.95009 0.29129 0.00679 0.0
C2607 C 0.93684 0.27518 0.99978 0.0
C2608 C 0.93645 0.27063 0.97818 0.0
C2609 C 0.94882 0.2814 0.96374 0.0
C2610 C 0.94491 0.27362 0.94119 0.0
C2611 C 0.94226 0.28537 0.92511 0.0
C2612 C 0.95911 0.2699 0.93363 0.0
C2613 C 0.92823 0.25699 0.94516 0.0
C2614 C 0.92364 0.25554 0.96665 0.0
C2615 C 0.90837 0.24179 0.97416 0.0
C2616 C 0.89742 0.22921 0.95931 0.0
C2617 C 0.9018 0.2304 0.9372 0.0
C2618 C 0.91751 0.24439 0.93011 0.0
H2619 H 0.70317 0.636 0.98324 0.0
H2620 H 0.70009 0.68328 0.98355 0.0
H2621 H 0.72726 0.69802 0.96313 0.0
H2622 H 0.74941 0.65581 0.98891 0.0
H2623 H 0.75071 0.64053 0.97103 0.0
H2624 H 0.73157 0.63412 0.98656 0.0
H2625 H 0.71323 0.62478 0.95133 0.0
H2626 H 0.73232 0.63124 0.93568 0.0
H2627 H 0.71846 0.64015 0.92968 0.0
H2628 H 0.75472 0.70738 0.94203 0.0
H2629 H 0.77961 0.71036 0.92136 0.0
H2630 H 0.76399 0.65664 0.93437 0.0
C2631 C 0.70825 0.64952 0.97928 0.0
C2632 C 0.69949 0.6585 0.98517 0.0
C2633 C 0.70655 0.67612 0.97929 0.0
C2634 C 0.72199 0.6846 0.96771 0.0
C2635 C 0.73017 0.67527 0.96201 0.0
C2636 C 0.7235 0.6581 0.96759 0.0
C2637 C 0.73436 0.65075 0.9589 0.0
C2638 C 0.74197 0.64497 0.97746 0.0
C2639 C 0.72397 0.63585 0.94295 0.0
C2640 C 0.7482 0.66644 0.94746 0.0
C2641 C 0.74565 0.68051 0.94955 0.0
C2642 C 0.75684 0.69645 0.94034 0.0
C2643 C 0.77097 0.69804 0.92871 0.0
C2644 C 0.77372 0.68373 0.92622 0.0
C2645 C 0.76213 0.66776 0.93578 0.0
H2646 H 0.97375 0.67093 0.95335 0.0
H2647 H 0.95867 0.67133 0.01966 0.0
H2648 H 0.93796 0.68043 0.00719 0.0
H2649 H 0.96908 0.70745 0.93359 0.0
H2650 H 0.96023 0.69731 0.90788 0.0
H2651 H 0.97515 0.69261 0.92215 0.0
H2652 H 0.95294 0.6599 0.92076 0.0
H2653 H 0.93796 0.66449 0.90655 0.0
H2654 H 0.93171 0.65236 0.93139 0.0
H2655 H 0.91821 0.68842 0.98754 0.0
H2656 H 0.89935 0.69286 0.96189 0.0
H2657 H 0.92611 0.68579 0.90814 0.0
C2658 C 0.96631 0.67326 0.96524 0.0
C2659 C 0.96791 0.67064 0.98748 0.0
C2660 C 0.95766 0.67335 0.00255 0.0
C2661 C 0.94592 0.67858 0.99563 0.0
C2662 C 0.94447 0.68084 0.97357 0.0
C2663 C 0.95429 0.67816 0.95856 0.0
C2664 C 0.94924 0.68016 0.9357 0.0
C2665 C 0.96432 0.69529 0.92415 0.0
C2666 C 0.94256 0.66322 0.92285 0.0
C2667 C 0.93493 0.68419 0.9402 0.0
C2668 C 0.93258 0.68479 0.96216 0.0
C2669 C 0.91998 0.68807 0.97031 0.0
C2670 C 0.90939 0.69065 0.95563 0.0
C2671 C 0.91131 0.68971 0.93306 0.0
C2672 C 0.92433 0.68653 0.92532 0.0
H2673 H 0.37049 0.31262 0.98033 0.0
H2674 H 0.32046 0.30816 0.99099 0.0
H2675 H 0.30653 0.27949 0.97322 0.0
H2676 H 0.36109 0.29336 0.92795 0.0
H2677 H 0.37349 0.28255 0.93201 0.0
H2678 H 0.37937 0.30242 0.94612 0.0
H2679 H 0.37744 0.28731 0.98272 0.0
H2680 H 0.37156 0.26738 0.96871 0.0
H2681 H 0.35786 0.26791 0.98955 0.0
H2682 H 0.29816 0.25127 0.95373 0.0
H2683 H 0.29608 0.22605 0.93425 0.0
H2684 H 0.35174 0.24975 0.93575 0.0
C2685 C 0.35658 0.30564 0.97908 0.0
C2686 C 0.34659 0.31271 0.98714 0.0
C2687 C 0.32843 0.30307 0.98498 0.0
C2688 C 0.32039 0.28676 0.97492 0.0
C2689 C 0.33068 0.28027 0.96706 0.0
C2690 C 0.34838 0.28943 0.96904 0.0
C2691 C 0.35659 0.2798 0.95894 0.0
C2692 C 0.36832 0.29015 0.94014 0.0
C2693 C 0.36644 0.27534 0.976 0.0
C2694 C 0.34074 0.26375 0.9509 0.0
C2695 C 0.32591 0.26421 0.95576 0.0
C2696 C 0.30971 0.25081 0.94981 0.0
C2697 C 0.30866 0.23658 0.93863 0.0
C2698 C 0.32374 0.23587 0.93343 0.0
C2699 C 0.33995 0.24972 0.93972 0.0
H2700 H 0.7046 0.02699 0.96875 0.0
H2701 H 0.68264 0.05757 0.99302 0.0
H2702 H 0.70548 0.08347 0.97521 0.0
H2703 H 0.7493 0.06114 0.97743 0.0
H2704 H 0.75709 0.05546 0.95379 0.0
H2705 H 0.73869 0.03909 0.96789 0.0
H2706 H 0.72088 0.03127 0.93229 0.0
H2707 H 0.73917 0.04775 0.91814 0.0
H2708 H 0.71906 0.0479 0.91768 0.0
H2709 H 0.72856 0.10505 0.95204 0.0
H2710 H 0.75389 0.12296 0.93028 0.0
H2711 H 0.76432 0.08005 0.92579 0.0
C2712 C 0.70475 0.03919 0.97035 0.0
C2713 C 0.6919 0.04038 0.98213 0.0
C2714 C 0.69247 0.05651 0.98414 0.0
C2715 C 0.7053 0.07123 0.97397 0.0
C2716 C 0.71771 0.06969 0.96231 0.0
C2717 C 0.71788 0.05425 0.96089 0.0
C2718 C 0.73338 0.05656 0.94832 0.0
C2719 C 0.74532 0.05284 0.96272 0.0
C2720 C 0.72778 0.04519 0.9279 0.0
C2721 C 0.74164 0.07561 0.94264 0.0
C2722 C 0.73216 0.08277 0.95055 0.0
C2723 C 0.73645 0.09978 0.94631 0.0
C2724 C 0.7511 0.10995 0.93406 0.0
C2725 C 0.76177 0.10334 0.92669 0.0
C2726 C 0.75671 0.08577 0.93099 0.0
H2727 H 0.63815 0.94367 0.04569 0.0
H2728 H 0.6875 0.9868 0.02749 0.0
H2729 H 0.70221 0.97248 0.04524 0.0
H2730 H 0.65172 0.93596 0.09816 0.0
H2731 H 0.63818 0.91286 0.09595 0.0
H2732 H 0.63195 0.92706 0.08273 0.0
H2733 H 0.62968 0.91186 0.04614 0.0
H2734 H 0.63603 0.89771 0.0592 0.0
H2735 H 0.648 0.91059 0.03646 0.0
H2736 H 0.71115 0.952 0.0632 0.0
H2737 H 0.71351 0.92813 0.08064 0.0
H2738 H 0.65804 0.89957 0.08786 0.0
C2739 C 0.65207 0.95021 0.04548 0.0
C2740 C 0.66168 0.96632 0.0351 0.0
C2741 C 0.67988 0.97447 0.03541 0.0
C2742 C 0.68833 0.96642 0.04541 0.0
C2743 C 0.67837 0.95036 0.0552 0.0
C2744 C 0.66063 0.94249 0.05547 0.0
C2745 C 0.65273 0.92518 0.0667 0.0
C2746 C 0.64308 0.92528 0.08709 0.0
C2747 C 0.64092 0.91047 0.05119 0.0
C2748 C 0.66876 0.9243 0.07239 0.0
C2749 C 0.68346 0.9389 0.06571 0.0
C2750 C 0.69972 0.9406 0.06869 0.0
C2751 C 0.70094 0.927 0.07869 0.0
C2752 C 0.68596 0.9119 0.08558 0.0
C2753 C 0.66974 0.91076 0.0825 0.0
H2754 H 0.06084 0.69814 0.0457 0.0
H2755 H 0.01431 0.70198 0.04004 0.0
H2756 H 0.02845 0.72939 0.06061 0.0
H2757 H 0.07179 0.71459 0.09999 0.0
H2758 H 0.09461 0.72604 0.09512 0.0
H2759 H 0.0808 0.7068 0.07987 0.0
H2760 H 0.09215 0.72383 0.04415 0.0
H2761 H 0.10597 0.74313 0.05928 0.0
H2762 H 0.09086 0.74324 0.03983 0.0
H2763 H 0.04804 0.75681 0.08153 0.0
H2764 H 0.07121 0.7816 0.10126 0.0
H2765 H 0.10435 0.75901 0.09413 0.0
C2766 C 0.05357 0.7047 0.04872 0.0
C2767 C 0.03642 0.69783 0.04117 0.0
C2768 C 0.02743 0.7069 0.04564 0.0
C2769 C 0.03537 0.72252 0.05731 0.0
C2770 C 0.05227 0.72888 0.0645 0.0
C2771 C 0.06123 0.72021 0.06042 0.0
C2772 C 0.07921 0.7297 0.07002 0.0
C2773 C 0.08174 0.71862 0.08728 0.0
C2774 C 0.09285 0.73531 0.05226 0.0
C2775 C 0.07903 0.74512 0.08005 0.0
C2776 C 0.0634 0.74445 0.0767 0.0
C2777 C 0.0603 0.7574 0.08434 0.0
C2778 C 0.07352 0.7714 0.09567 0.0
C2779 C 0.08968 0.77235 0.09932 0.0
C2780 C 0.0923 0.7589 0.0914 0.0
H2781 H 0.29847 0.35074 0.02527 0.0
H2782 H 0.32426 0.34023 0.07827 0.0
H2783 H 0.30092 0.3359 0.10268 0.0
H2784 H 0.28332 0.37418 0.05541 0.0
H2785 H 0.26276 0.36536 0.04182 0.0
H2786 H 0.28098 0.36675 0.02785 0.0
H2787 H 0.26394 0.3339 0.01975 0.0
H2788 H 0.2456 0.33243 0.03354 0.0
H2789 H 0.25441 0.31887 0.04172 0.0
H2790 H 0.27646 0.33526 0.1222 0.0
H2791 H 0.25048 0.33555 0.13498 0.0
H2792 H 0.23925 0.34488 0.06952 0.0
C2793 C 0.29905 0.34727 0.04192 0.0
C2794 C 0.31323 0.34584 0.04983 0.0
C2795 C 0.31355 0.34137 0.07177 0.0
C2796 C 0.30035 0.33891 0.08582 0.0
C2797 C 0.28677 0.34076 0.07769 0.0
C2798 C 0.28583 0.34457 0.0562 0.0
C2799 C 0.26979 0.34597 0.05181 0.0
C2800 C 0.2745 0.36415 0.04375 0.0
C2801 C 0.25772 0.33195 0.03576 0.0
C2802 C 0.26212 0.34268 0.07426 0.0
C2803 C 0.27221 0.3398 0.08892 0.0
C2804 C 0.26833 0.33729 0.11084 0.0
C2805 C 0.25364 0.33758 0.11797 0.0
C2806 C 0.24293 0.34021 0.10322 0.0
C2807 C 0.24719 0.3427 0.08106 0.0
H2808 H 0.72879 0.70504 0.3787 0.0
H2809 H 0.68828 0.65474 0.35715 0.0
H2810 H 0.70342 0.64095 0.37474 0.0
H2811 H 0.76413 0.6971 0.37182 0.0
H2812 H 0.77541 0.70895 0.39574 0.0
H2813 H 0.76147 0.71483 0.38121 0.0
H2814 H 0.74431 0.71125 0.4162 0.0
H2815 H 0.75821 0.70539 0.43085 0.0
H2816 H 0.73527 0.69109 0.43074 0.0
H2817 H 0.72335 0.63275 0.39428 0.0
H2818 H 0.74608 0.63071 0.41494 0.0
H2819 H 0.77259 0.6863 0.42511 0.0
C2820 C 0.72311 0.69113 0.37756 0.0
C2821 C 0.70736 0.68099 0.36646 0.0
C2822 C 0.70031 0.66279 0.36559 0.0
C2823 C 0.70883 0.65484 0.3755 0.0
C2824 C 0.72431 0.66524 0.38634 0.0
C2825 C 0.73132 0.68298 0.38751 0.0
C2826 C 0.74793 0.69121 0.40049 0.0
C2827 C 0.76313 0.70376 0.38647 0.0
C2828 C 0.74633 0.70026 0.42077 0.0
C2829 C 0.74923 0.67534 0.40632 0.0
C2830 C 0.73553 0.66049 0.39797 0.0
C2831 C 0.73409 0.64429 0.40103 0.0
C2832 C 0.74701 0.64325 0.41294 0.0
C2833 C 0.76116 0.65832 0.42177 0.0
C2834 C 0.76213 0.67453 0.41839 0.0
H2835 H 0.30588 0.025 0.36364 0.0
H2836 H 0.35682 0.03302 0.37862 0.0
H2837 H 0.36473 0.06126 0.39507 0.0
H2838 H 0.31859 0.07135 0.35357 0.0
H2839 H 0.29973 0.06928 0.36665 0.0
H2840 H 0.29885 0.05095 0.35301 0.0
H2841 H 0.28803 0.03302 0.38816 0.0
H2842 H 0.28909 0.05132 0.40198 0.0
H2843 H 0.3006 0.04099 0.41268 0.0
H2844 H 0.36635 0.08688 0.41296 0.0
H2845 H 0.36177 0.10884 0.43119 0.0
H2846 H 0.30947 0.08447 0.40592 0.0
C2847 C 0.31885 0.03304 0.36973 0.0
C2848 C 0.33089 0.02708 0.36954 0.0
C2849 C 0.34753 0.03753 0.37841 0.0
C2850 C 0.35213 0.05356 0.38778 0.0
C2851 C 0.33986 0.0589 0.38836 0.0
C2852 C 0.32357 0.04904 0.37954 0.0
C2853 C 0.31241 0.05714 0.38419 0.0
C2854 C 0.30708 0.0625 0.3631 0.0
C2855 C 0.2966 0.04489 0.39755 0.0
C2856 C 0.32487 0.07284 0.39734 0.0
C2857 C 0.34068 0.07366 0.39928 0.0
C2858 C 0.35411 0.08655 0.41129 0.0
C2859 C 0.35139 0.09902 0.42153 0.0
C2860 C 0.33532 0.09854 0.41984 0.0
C2861 C 0.3219 0.08521 0.40755 0.0
H2862 H 0.9706 0.3044 0.39942 0.0
H2863 H 0.96078 0.28213 0.33496 0.0
H2864 H 0.93276 0.25849 0.34682 0.0
H2865 H 0.95283 0.26494 0.4279 0.0
H2866 H 0.94341 0.27144 0.44898 0.0
H2867 H 0.9622 0.28744 0.43519 0.0
H2868 H 0.94621 0.30416 0.42493 0.0
H2869 H 0.92737 0.28824 0.43879 0.0
H2870 H 0.92585 0.29308 0.41081 0.0
H2871 H 0.90694 0.23618 0.36602 0.0
H2872 H 0.88421 0.21706 0.39122 0.0
H2873 H 0.9102 0.25365 0.44332 0.0
C2874 C 0.96243 0.2947 0.38772 0.0
C2875 C 0.96788 0.29515 0.36623 0.0
C2876 C 0.95689 0.2821 0.35149 0.0
C2877 C 0.94093 0.2686 0.35806 0.0
C2878 C 0.93606 0.26836 0.37942 0.0
C2879 C 0.94639 0.2811 0.39402 0.0
C2880 C 0.93829 0.27737 0.41624 0.0
C2881 C 0.94987 0.27516 0.43306 0.0
C2882 C 0.93419 0.29156 0.42309 0.0
C2883 C 0.92198 0.2604 0.41189 0.0
C2884 C 0.92097 0.25548 0.39052 0.0
C2885 C 0.9075 0.23996 0.38275 0.0
C2886 C 0.89472 0.22914 0.3972 0.0
C2887 C 0.89545 0.23388 0.41919 0.0
C2888 C 0.90921 0.24981 0.42654 0.0
H2889 H 0.03317 0.39239 0.31368 0.0
H2890 H 0.98164 0.34991 0.32483 0.0
H2891 H 0.9695 0.36641 0.3066 0.0
H2892 H 0.02406 0.42686 0.32228 0.0
H2893 H 0.03815 0.44025 0.30122 0.0
H2894 H 0.04267 0.4251 0.31521 0.0
H2895 H 0.04299 0.41106 0.27868 0.0
H2896 H 0.03852 0.42619 0.26456 0.0
H2897 H 0.02463 0.40328 0.26074 0.0
H2898 H 0.9631 0.38805 0.28768 0.0
H2899 H 0.96293 0.41247 0.26874 0.0
H2900 H 0.01879 0.43995 0.26871 0.0
C2901 C 0.01931 0.38652 0.31238 0.0
C2902 C 0.00836 0.36985 0.3208 0.0
C2903 C 0.99031 0.36264 0.31852 0.0
C2904 C 0.98329 0.37193 0.30822 0.0
C2905 C 0.9945 0.38834 0.30016 0.0
C2906 C 0.01212 0.39551 0.30203 0.0
C2907 C 0.02141 0.41323 0.29175 0.0
C2908 C 0.03221 0.42718 0.30862 0.0
C2909 C 0.03254 0.41344 0.27281 0.0
C2910 C 0.00626 0.41501 0.28389 0.0
C2911 C 0.99084 0.40056 0.28893 0.0
C2912 C 0.97511 0.39937 0.28351 0.0
C2913 C 0.97516 0.41328 0.2726 0.0
C2914 C 0.99084 0.4282 0.2671 0.0
C2915 C 0.00656 0.42892 0.27287 0.0
H2916 H 0.62139 0.63189 0.32566 0.0
H2917 H 0.6634 0.65184 0.27998 0.0
H2918 H 0.6475 0.62562 0.25767 0.0
H2919 H 0.60974 0.58609 0.3209 0.0
H2920 H 0.58702 0.57857 0.32281 0.0
H2921 H 0.60226 0.59831 0.33617 0.0
H2922 H 0.58918 0.6148 0.31599 0.0
H2923 H 0.57398 0.59516 0.30249 0.0
H2924 H 0.58789 0.61401 0.28687 0.0
H2925 H 0.62642 0.59841 0.239 0.0
H2926 H 0.60154 0.57173 0.22528 0.0
H2927 H 0.57323 0.56888 0.28324 0.0
C2928 C 0.62734 0.6306 0.31115 0.0
C2929 C 0.64366 0.64389 0.3046 0.0
C2930 C 0.65092 0.64183 0.28534 0.0
C2931 C 0.64201 0.62697 0.27256 0.0
C2932 C 0.62585 0.61424 0.27926 0.0
C2933 C 0.61858 0.61583 0.29813 0.0
C2934 C 0.60068 0.60058 0.30107 0.0
C2935 C 0.59988 0.59028 0.32145 0.0
C2936 C 0.58714 0.6065 0.30163 0.0
C2937 C 0.59893 0.59036 0.28071 0.0
C2938 C 0.61365 0.59843 0.26845 0.0
C2939 C 0.61491 0.59183 0.24859 0.0
C2940 C 0.60072 0.57658 0.24099 0.0
C2941 C 0.58543 0.56806 0.25322 0.0
C2942 C 0.58466 0.57508 0.27343 0.0
H2943 H 0.37444 0.9723 0.33561 0.0
H2944 H 0.35938 0.00817 0.30874 0.0
H2945 H 0.3847 0.02016 0.28493 0.0
H2946 H 0.42089 0.00167 0.33431 0.0
H2947 H 0.42536 0.98461 0.32724 0.0
H2948 H 0.40677 0.97985 0.34316 0.0
H2949 H 0.38726 0.95663 0.31513 0.0
H2950 H 0.40575 0.9614 0.29905 0.0
H2951 H 0.38788 0.96264 0.28716 0.0
H2952 H 0.41064 0.02671 0.26213 0.0
H2953 H 0.4353 0.02774 0.24302 0.0
H2954 H 0.43343 0.98797 0.28567 0.0
C2955 C 0.3765 0.9828 0.32491 0.0
C2956 C 0.36484 0.98926 0.32407 0.0
C2957 C 0.36812 0.00303 0.30978 0.0
C2958 C 0.38247 0.00992 0.29616 0.0
C2959 C 0.39349 0.003 0.29715 0.0
C2960 C 0.39073 0.98984 0.31131 0.0
C2961 C 0.40412 0.98424 0.30881 0.0
C2962 C 0.41493 0.98781 0.32962 0.0
C2963 C 0.39575 0.9651 0.30213 0.0
C2964 C 0.41465 0.99604 0.29068 0.0
C2965 C 0.40842 0.00684 0.28423 0.0
C2966 C 0.41576 0.01846 0.26723 0.0
C2967 C 0.42981 0.019 0.25654 0.0
C2968 C 0.43636 0.00797 0.26284 0.0
C2969 C 0.42867 0.99646 0.28028 0.0
H2970 H 0.64398 0.00869 0.30109 0.0
H2971 H 0.61515 0.95952 0.33386 0.0
H2972 H 0.588 0.95701 0.3199 0.0
H2973 H 0.61237 0.02323 0.31203 0.0
H2974 H 0.616 0.03421 0.28646 0.0
H2975 H 0.63314 0.0323 0.29946 0.0
H2976 H 0.63662 0.018 0.26486 0.0
H2977 H 0.61935 0.01966 0.25187 0.0
H2978 H 0.61831 0.99893 0.25404 0.0
H2979 H 0.56461 0.95804 0.29848 0.0
H2980 H 0.54568 0.96447 0.27631 0.0
H2981 H 0.58895 0.01532 0.26201 0.0
C2982 C 0.63191 0.99754 0.30554 0.0
C2983 C 0.63161 0.98426 0.3185 0.0
C2984 C 0.61563 0.96987 0.32408 0.0
C2985 C 0.60016 0.96829 0.31613 0.0
C2986 C 0.60088 0.98143 0.30307 0.0
C2987 C 0.61628 0.99601 0.29828 0.0
C2988 C 0.61332 0.0084 0.28431 0.0
C2989 C 0.61904 0.02555 0.29629 0.0
C2990 C 0.62245 0.01142 0.26248 0.0
C2991 C 0.59392 0.99826 0.28151 0.0
C2992 C 0.58707 0.98267 0.29223 0.0
C2993 C 0.56971 0.97048 0.29062 0.0
C2994 C 0.55897 0.97443 0.27805 0.0
C2995 C 0.56539 0.99072 0.2676 0.0
C2996 C 0.58327 0.00272 0.2695 0.0
H2997 H 0.01444 0.64683 0.304 0.0
H2998 H 0.00915 0.62702 0.36916 0.0
H2999 H 0.99904 0.5976 0.35463 0.0
H3000 H 0.97792 0.60776 0.27866 0.0
H3001 H 0.98973 0.61016 0.25424 0.0
H3002 H 0.99383 0.62898 0.26975 0.0
H3003 H 0.02613 0.63795 0.27214 0.0
H3004 H 0.02212 0.61909 0.25689 0.0
H3005 H 0.03235 0.62298 0.28312 0.0
H3006 H 0.99197 0.57108 0.33319 0.0
H3007 H 0.98907 0.54925 0.30646 0.0
H3008 H 1.00026 0.58639 0.25486 0.0
C3009 C 0.01052 0.63612 0.31511 0.0
C3010 C 0.01204 0.63893 0.33766 0.0
C3011 C 0.00766 0.62491 0.35185 0.0
C3012 C 0.00195 0.60822 0.34373 0.0
C3013 C 1.00094 0.60586 0.32137 0.0
C3014 C 0.00511 0.61941 0.30723 0.0
C3015 C 0.00461 0.61374 0.284 0.0
C3016 C 0.99069 0.61525 0.27089 0.0
C3017 C 0.02236 0.62406 0.27343 0.0
C3018 C 0.99982 0.59498 0.28732 0.0
C3019 C 0.99752 0.59067 0.30898 0.0
C3020 C 0.99353 0.57425 0.31617 0.0
C3021 C 0.99186 0.56191 0.30084 0.0
C3022 C 0.99432 0.56605 0.27854 0.0
C3023 C 0.99832 0.58284 0.27177 0.0
H3024 H 0.36838 0.36724 0.29501 0.0
H3025 H 0.37719 0.39063 0.3587 0.0
H3026 H 0.40537 0.41417 0.34694 0.0
H3027 H 0.41336 0.37889 0.2844 0.0
H3028 H 0.41184 0.38325 0.25623 0.0
H3029 H 0.39306 0.36737 0.27023 0.0
H3030 H 0.37673 0.38356 0.25902 0.0
H3031 H 0.39547 0.39954 0.24512 0.0
H3032 H 0.38578 0.40613 0.26577 0.0
H3033 H 0.43158 0.43618 0.32771 0.0
H3034 H 0.4544 0.45495 0.30242 0.0
H3035 H 0.42844 0.4177 0.2509 0.0
C3036 C 0.3764 0.37713 0.3066 0.0
C3037 C 0.37064 0.37705 0.32782 0.0
C3038 C 0.38136 0.39039 0.34239 0.0
C3039 C 0.3974 0.40382 0.33587 0.0
C3040 C 0.40255 0.40372 0.31472 0.0
C3041 C 0.39243 0.3907 0.30031 0.0
C3042 C 0.40059 0.39419 0.27817 0.0
C3043 C 0.40498 0.38009 0.27189 0.0
C3044 C 0.38895 0.39596 0.26102 0.0
C3045 C 0.41673 0.41134 0.28231 0.0
C3046 C 0.41764 0.41654 0.30353 0.0
C3047 C 0.43106 0.4322 0.31107 0.0
C3048 C 0.44388 0.44284 0.29654 0.0
C3049 C 0.44321 0.43784 0.27466 0.0
C3050 C 0.42946 0.42179 0.26758 0.0
H3051 H 0.31646 0.28066 0.356 0.0
H3052 H 0.34456 0.32542 0.39749 0.0
H3053 H 0.35437 0.30876 0.42009 0.0
H3054 H 0.30137 0.24935 0.39572 0.0
H3055 H 0.30381 0.23346 0.38045 0.0
H3056 H 0.30045 0.24939 0.36659 0.0
H3057 H 0.32839 0.25919 0.34487 0.0
H3058 H 0.33178 0.24314 0.35852 0.0
H3059 H 0.34834 0.26552 0.35909 0.0
H3060 H 0.35771 0.28568 0.44065 0.0
H3061 H 0.3562 0.25927 0.45576 0.0
H3062 H 0.32813 0.23069 0.3985 0.0
C3063 C 0.32492 0.28708 0.36963 0.0
C3064 C 0.32973 0.30431 0.37506 0.0
C3065 C 0.34083 0.31225 0.39299 0.0
C3066 C 0.34642 0.30288 0.40592 0.0
C3067 C 0.34109 0.28574 0.40036 0.0
C3068 C 0.33085 0.27806 0.38237 0.0
C3069 C 0.32645 0.25938 0.38012 0.0
C3070 C 0.30686 0.24719 0.38077 0.0
C3071 C 0.33421 0.25665 0.35942 0.0
C3072 C 0.33526 0.25749 0.40011 0.0
C3073 C 0.34366 0.2728 0.4116 0.0
C3074 C 0.35153 0.27374 0.4315 0.0
C3075 C 0.35068 0.25863 0.4399 0.0
C3076 C 0.34212 0.24275 0.42836 0.0
C3077 C 0.33463 0.24244 0.40798 0.0
H3078 H 0.7324 0.04272 0.34908 0.0
H3079 H 0.68332 0.02136 0.38162 0.0
H3080 H 0.6958 0.04605 0.40714 0.0
H3081 H 0.75845 0.05656 0.3951 0.0
H3082 H 0.77522 0.07613 0.38332 0.0
H3083 H 0.76201 0.05781 0.36636 0.0
H3084 H 0.75349 0.07664 0.34281 0.0
H3085 H 0.76686 0.09512 0.35955 0.0
H3086 H 0.74446 0.08858 0.35549 0.0
H3087 H 0.71474 0.07155 0.43147 0.0
H3088 H 0.73776 0.09649 0.45102 0.0
H3089 H 0.77401 0.10167 0.40135 0.0
C3090 C 0.72414 0.04333 0.36133 0.0
C3091 C 0.70684 0.03004 0.36332 0.0
C3092 C 0.69655 0.03141 0.37964 0.0
C3093 C 0.70356 0.04536 0.39427 0.0
C3094 C 0.72081 0.05795 0.39219 0.0
C3095 C 0.73087 0.05717 0.37591 0.0
C3096 C 0.74919 0.07196 0.37757 0.0
C3097 C 0.76196 0.0652 0.38078 0.0
C3098 C 0.75377 0.08378 0.35767 0.0
C3099 C 0.74802 0.08097 0.39768 0.0
C3100 C 0.73155 0.07275 0.40586 0.0
C3101 C 0.7276 0.07826 0.42496 0.0
C3102 C 0.7408 0.09254 0.43591 0.0
C3103 C 0.7578 0.10126 0.42776 0.0
C3104 C 0.76128 0.09533 0.40825 0.0
H3105 H 0.98005 0.67851 0.4044 0.0
H3106 H 0.96854 0.68186 0.33682 0.0
H3107 H 0.93979 0.67706 0.34684 0.0
H3108 H 0.93753 0.64537 0.41978 0.0
H3109 H 0.93856 0.65482 0.44588 0.0
H3110 H 0.95799 0.65798 0.43328 0.0
H3111 H 0.97096 0.69117 0.43656 0.0
H3112 H 0.95155 0.68811 0.44909 0.0
H3113 H 0.95942 0.70126 0.42518 0.0
H3114 H 0.91221 0.6717 0.36426 0.0
H3115 H 0.88814 0.66707 0.38783 0.0
H3116 H 0.91796 0.66822 0.44423 0.0
C3117 C 0.97144 0.67811 0.39169 0.0
C3118 C 0.97649 0.68045 0.36979 0.0
C3119 C 0.96493 0.68007 0.35368 0.0
C3120 C 0.94857 0.67734 0.35922 0.0
C3121 C 0.94402 0.67516 0.38097 0.0
C3122 C 0.95514 0.67559 0.39696 0.0
C3123 C 0.94728 0.67336 0.41917 0.0
C3124 C 0.94521 0.6569 0.43017 0.0
C3125 C 0.95794 0.68943 0.43333 0.0
C3126 C 0.92998 0.67156 0.41318 0.0
C3127 C 0.92832 0.67253 0.39104 0.0
C3128 C 0.91338 0.67094 0.3816 0.0
C3129 C 0.89976 0.66826 0.39511 0.0
C3130 C 0.90119 0.6673 0.41785 0.0
C3131 C 0.91657 0.66907 0.42693 0.0
H3132 H 0.36798 0.00689 0.70834 0.0
H3133 H 0.40471 0.056 0.67982 0.0
H3134 H 0.42847 0.05369 0.6967 0.0
H3135 H 0.3893 0.01337 0.75849 0.0
H3136 H 0.38485 0.99138 0.76176 0.0
H3137 H 0.37044 0.99588 0.74602 0.0
H3138 H 0.37392 0.97987 0.7132 0.0
H3139 H 0.38827 0.97521 0.7289 0.0
H3140 H 0.39516 0.98624 0.70339 0.0
H3141 H 0.44811 0.04785 0.71892 0.0
H3142 H 0.46287 0.03767 0.74403 0.0
H3143 H 0.41422 0.99189 0.75783 0.0
C3144 C 0.38103 0.01698 0.70533 0.0
C3145 C 0.3844 0.03166 0.69278 0.0
C3146 C 0.4017 0.04467 0.68946 0.0
C3147 C 0.41535 0.04348 0.69893 0.0
C3148 C 0.4116 0.02913 0.7116 0.0
C3149 C 0.39492 0.016 0.71469 0.0
C3150 C 0.39459 0.00233 0.72982 0.0
C3151 C 0.38418 1.00065 0.75023 0.0
C3152 C 0.38757 0.98488 0.71812 0.0
C3153 C 0.41362 0.01009 0.73505 0.0
C3154 C 0.42315 0.02555 0.72429 0.0
C3155 C 0.44085 0.03567 0.72726 0.0
C3156 C 0.4491 0.02985 0.74162 0.0
C3157 C 0.43967 0.01403 0.75277 0.0
C3158 C 0.42172 0.00394 0.74928 0.0
H3159 H 0.97958 0.36772 0.70082 0.0
H3160 H 0.02334 0.36429 0.72581 0.0
H3161 H 0.03272 0.39121 0.74665 0.0
H3162 H 1.00042 0.41522 0.69771 0.0
H3163 H 0.98152 0.41567 0.70672 0.0
H3164 H 0.97935 0.39727 0.69187 0.0
H3165 H 0.9613 0.37708 0.72295 0.0
H3166 H 0.96353 0.39541 0.73796 0.0
H3167 H 0.97013 0.38108 0.75001 0.0
H3168 H 0.03667 0.41773 0.76596 0.0
H3169 H 0.03436 0.44144 0.78352 0.0
H3170 H 0.98712 0.42686 0.74776 0.0
C3171 C 0.99136 0.3729 0.71027 0.0
C3172 C 1.00092 0.36411 0.71147 0.0
C3173 C 0.01594 0.37093 0.72455 0.0
C3174 C 0.02136 0.38621 0.73642 0.0
C3175 C 0.01149 0.3944 0.73525 0.0
C3176 C 0.99676 0.38797 0.72258 0.0
C3177 C 0.98777 0.39854 0.72552 0.0
C3178 C 0.98724 0.40719 0.70419 0.0
C3179 C 0.96961 0.38736 0.73465 0.0
C3180 C 0.99965 0.41179 0.74194 0.0
C3181 C 0.01337 0.4093 0.74711 0.0
C3182 C 0.02602 0.41985 0.76197 0.0
C3183 C 0.02463 0.4333 0.77182 0.0
C3184 C 0.01058 0.43599 0.767 0.0
C3185 C 0.99794 0.42504 0.75185 0.0
H3186 H 0.63535 0.61486 0.69789 0.0
H3187 H 0.63392 0.66226 0.70913 0.0
H3188 H 0.6057 0.64558 0.72692 0.0
H3189 H 0.58924 0.58589 0.68929 0.0
H3190 H 0.58917 0.56833 0.70404 0.0
H3191 H 0.60826 0.5837 0.69011 0.0
H3192 H 0.62587 0.59019 0.72577 0.0
H3193 H 0.60685 0.57485 0.73979 0.0
H3194 H 0.61888 0.59685 0.74933 0.0
H3195 H 0.57781 0.62374 0.74363 0.0
H3196 H 0.55359 0.59899 0.76113 0.0
H3197 H 0.57497 0.56624 0.74284 0.0
C3198 C 0.62889 0.62163 0.70374 0.0
C3199 C 0.63657 0.63977 0.70186 0.0
C3200 C 0.6281 0.64834 0.7103 0.0
C3201 C 0.61208 0.63897 0.72034 0.0
C3202 C 0.6049 0.62109 0.72217 0.0
C3203 C 0.61311 0.61253 0.71435 0.0
C3204 C 0.60338 0.59349 0.72013 0.0
C3205 C 0.59714 0.58219 0.69967 0.0
C3206 C 0.6144 0.58856 0.73462 0.0
C3207 C 0.58843 0.59271 0.73246 0.0
C3208 C 0.58941 0.6087 0.73312 0.0
C3209 C 0.57701 0.61119 0.74342 0.0
C3210 C 0.56335 0.59701 0.75355 0.0
C3211 C 0.56232 0.58053 0.7538 0.0
C3212 C 0.57508 0.57848 0.74288 0.0
H3213 H 0.69834 0.72654 0.63313 0.0
H3214 H 0.6487 0.68131 0.64505 0.0
H3215 H 0.63429 0.69587 0.62746 0.0
H3216 H 0.6861 0.75786 0.64389 0.0
H3217 H 0.69908 0.77246 0.62293 0.0
H3218 H 0.70547 0.75812 0.63536 0.0
H3219 H 0.70615 0.74564 0.59779 0.0
H3220 H 0.69992 0.76007 0.58521 0.0
H3221 H 0.68735 0.73711 0.58051 0.0
H3222 H 0.62531 0.71637 0.61039 0.0
H3223 H 0.62265 0.74034 0.59393 0.0
H3224 H 0.67834 0.77142 0.59227 0.0
C3225 C 0.68444 0.71956 0.6319 0.0
C3226 C 0.67468 0.70274 0.64051 0.0
C3227 C 0.6565 0.69416 0.63849 0.0
C3228 C 0.64818 0.70235 0.62858 0.0
C3229 C 0.65822 0.71906 0.62061 0.0
C3230 C 0.67596 0.72747 0.62198 0.0
C3231 C 0.68385 0.74546 0.61249 0.0
C3232 C 0.69423 0.75929 0.6297 0.0
C3233 C 0.69497 0.74716 0.59283 0.0
C3234 C 0.66777 0.74599 0.60582 0.0
C3235 C 0.6531 0.73066 0.61061 0.0
C3236 C 0.63674 0.72835 0.60637 0.0
C3237 C 0.63536 0.74204 0.59692 0.0
C3238 C 0.65027 0.75785 0.59176 0.0
C3239 C 0.66664 0.75968 0.59627 0.0
H3240 H 0.30881 0.97993 0.6226 0.0
H3241 H 0.30512 0.96488 0.68994 0.0
H3242 H 0.28385 0.93485 0.68002 0.0
H3243 H 0.2651 0.95589 0.61123 0.0
H3244 H 0.26722 0.94983 0.58413 0.0
H3245 H 0.28406 0.96949 0.59582 0.0
H3246 H 0.30623 0.95934 0.58862 0.0
H3247 H 0.28947 0.93968 0.57668 0.0
H3248 H 0.30229 0.93866 0.59873 0.0
H3249 H 0.26106 0.90723 0.6634 0.0
H3250 H 0.23822 0.88405 0.6413 0.0
H3251 H 0.2562 0.91712 0.58481 0.0
C3252 C 0.30391 0.97019 0.63515 0.0
C3253 C 0.30876 0.97465 0.65701 0.0
C3254 C 0.30166 0.96168 0.67308 0.0
C3255 C 0.28959 0.9446 0.66759 0.0
C3256 C 0.2847 0.9407 0.64598 0.0
C3257 C 0.29167 0.9531 0.62997 0.0
C3258 C 0.28308 0.94589 0.60829 0.0
C3259 C 0.27435 0.95587 0.59936 0.0
C3260 C 0.29604 0.94589 0.59212 0.0
C3261 C 0.26994 0.92765 0.61471 0.0
C3262 C 0.27125 0.92484 0.63645 0.0
C3263 C 0.26006 0.9092 0.64629 0.0
C3264 C 0.24716 0.89608 0.63359 0.0
C3265 C 0.24543 0.89873 0.61132 0.0
C3266 C 0.25711 0.91472 0.60181 0.0
H3267 H 0.02504 0.2976 0.64886 0.0
H3268 H 0.02833 0.34803 0.64664 0.0
H3269 H 0.05498 0.3592 0.62523 0.0
H3270 H 0.07002 0.31273 0.65473 0.0
H3271 H 0.06944 0.29581 0.63812 0.0
H3272 H 0.0507 0.292 0.65307 0.0
H3273 H 0.0326 0.28321 0.61764 0.0
H3274 H 0.05128 0.28703 0.60257 0.0
H3275 H 0.03952 0.29795 0.59512 0.0
H3276 H 0.08159 0.36469 0.60399 0.0
H3277 H 0.1054 0.36394 0.58481 0.0
H3278 H 0.08415 0.30984 0.60171 0.0
C3279 C 0.03126 0.31101 0.64391 0.0
C3280 C 0.02449 0.32192 0.64947 0.0
C3281 C 0.03321 0.33939 0.6426 0.0
C3282 C 0.04835 0.34585 0.63043 0.0
C3283 C 0.05461 0.33468 0.62527 0.0
C3284 C 0.04628 0.31763 0.63183 0.0
C3285 C 0.05552 0.30819 0.62434 0.0
C3286 C 0.06179 0.30181 0.64372 0.0
C3287 C 0.04404 0.29321 0.609 0.0
C3288 C 0.0704 0.32258 0.61247 0.0
C3289 C 0.06972 0.33779 0.61317 0.0
C3290 C 0.08223 0.35285 0.60338 0.0
C3291 C 0.09575 0.35232 0.59262 0.0
C3292 C 0.09664 0.33683 0.5917 0.0
C3293 C 0.08374 0.32182 0.60182 0.0
H3294 H 0.30092 0.32476 0.62445 0.0
H3295 H 0.28651 0.32047 0.69186 0.0
H3296 H 0.26169 0.32434 0.68157 0.0
H3297 H 0.28899 0.35661 0.6085 0.0
H3298 H 0.28081 0.3468 0.58245 0.0
H3299 H 0.29784 0.34467 0.59539 0.0
H3300 H 0.27957 0.31131 0.59245 0.0
H3301 H 0.26249 0.31332 0.57952 0.0
H3302 H 0.25824 0.30043 0.6036 0.0
H3303 H 0.23848 0.32891 0.66349 0.0
H3304 H 0.21772 0.3316 0.63909 0.0
H3305 H 0.24677 0.33119 0.58362 0.0
C3306 C 0.29266 0.32482 0.63711 0.0
C3307 C 0.29571 0.3225 0.65899 0.0
C3308 C 0.28441 0.3223 0.67501 0.0
C3309 C 0.27033 0.32452 0.66931 0.0
C3310 C 0.26767 0.32673 0.64752 0.0
C3311 C 0.27846 0.32673 0.63168 0.0
C3312 C 0.27238 0.32844 0.60934 0.0
C3313 C 0.2858 0.34512 0.59827 0.0
C3314 C 0.2679 0.31242 0.59542 0.0
C3315 C 0.25644 0.3294 0.61503 0.0
C3316 C 0.25403 0.32861 0.63713 0.0
C3317 C 0.24024 0.32949 0.64617 0.0
C3318 C 0.22856 0.33108 0.63223 0.0
C3319 C 0.23064 0.33152 0.60953 0.0
C3320 C 0.2448 0.33072 0.60092 0.0
H3321 H 0.69753 0.97261 0.6506 0.0
H3322 H 0.64953 0.97357 0.64402 0.0
H3323 H 0.63752 0.94699 0.62184 0.0
H3324 H 0.6982 0.9582 0.59696 0.0
H3325 H 0.70709 0.94469 0.60507 0.0
H3326 H 0.71176 0.9636 0.6207 0.0
H3327 H 0.7002 0.94477 0.65509 0.0
H3328 H 0.69555 0.9258 0.6396 0.0
H3329 H 0.67876 0.92642 0.65482 0.0
H3330 H 0.63093 0.92036 0.59987 0.0
H3331 H 0.63021 0.89584 0.58022 0.0
H3332 H 0.68246 0.91234 0.6017 0.0
C3333 C 0.68447 0.96728 0.64456 0.0
C3334 C 0.67451 0.97528 0.6491 0.0
C3335 C 0.65745 0.96774 0.64083 0.0
C3336 C 0.65052 0.95263 0.62819 0.0
C3337 C 0.66076 0.94518 0.62397 0.0
C3338 C 0.67736 0.95225 0.63196 0.0
C3339 C 0.68574 0.94181 0.62507 0.0
C3340 C 0.70164 0.95273 0.61112 0.0
C3341 C 0.69033 0.93425 0.64482 0.0
C3342 C 0.67129 0.92777 0.61185 0.0
C3343 C 0.65698 0.92991 0.61142 0.0
C3344 C 0.64205 0.91853 0.60019 0.0
C3345 C 0.64173 0.90458 0.58916 0.0
C3346 C 0.65626 0.9021 0.58942 0.0
C3347 C 0.67121 0.91394 0.60094 0.0
H3348 H 0.04288 0.71895 0.66427 0.0
H3349 H 0.02721 0.67561 0.62035 0.0
H3350 H 0.05358 0.6925 0.59933 0.0
H3351 H 0.05949 0.75145 0.62506 0.0
H3352 H 0.07746 0.7669 0.64107 0.0
H3353 H 0.05823 0.75095 0.65414 0.0
H3354 H 0.07602 0.7404 0.67642 0.0
H3355 H 0.09536 0.75645 0.66356 0.0
H3356 H 0.08967 0.73398 0.66262 0.0
H3357 H 0.0798 0.71482 0.58088 0.0
H3358 H 0.10513 0.74074 0.56717 0.0
H3359 H 0.10496 0.76946 0.62384 0.0
C3360 C 0.04518 0.7129 0.6505 0.0
C3361 C 0.03299 0.69594 0.64399 0.0
C3362 C 0.03636 0.68856 0.62569 0.0
C3363 C 0.05132 0.69805 0.61363 0.0
C3364 C 0.06287 0.71486 0.62014 0.0
C3365 C 0.06012 0.7222 0.63827 0.0
C3366 C 0.07426 0.7408 0.64111 0.0
C3367 C 0.06691 0.75325 0.64029 0.0
C3368 C 0.08443 0.74303 0.66218 0.0
C3369 C 0.0851 0.74287 0.62145 0.0
C3370 C 0.07832 0.72772 0.60965 0.0
C3371 C 0.08547 0.72667 0.59022 0.0
C3372 C 0.09997 0.74149 0.58263 0.0
C3373 C 0.10732 0.75722 0.59448 0.0
C3374 C 0.09973 0.75776 0.61426 0.0
H3375 H 0.96763 0.61212 0.71875 0.0
H3376 H 0.01889 0.65301 0.70259 0.0
H3377 H 0.03139 0.6374 0.72206 0.0
H3378 H 0.97854 0.60363 0.77269 0.0
H3379 H 0.96408 0.58068 0.77056 0.0
H3380 H 0.95935 0.59554 0.7562 0.0
H3381 H 0.9574 0.5797 0.72027 0.0
H3382 H 0.96225 0.56488 0.73448 0.0
H3383 H 0.97535 0.57717 0.71207 0.0
H3384 H 0.03813 0.6162 0.74129 0.0
H3385 H 0.03862 0.59191 0.76014 0.0
H3386 H 0.98294 0.5658 0.76502 0.0
C3387 C 0.9815 0.61791 0.71943 0.0
C3388 C 0.99226 0.63381 0.70909 0.0
C3389 C 0.01036 0.6409 0.71045 0.0
C3390 C 0.01758 0.6321 0.72143 0.0
C3391 C 0.00656 0.61634 0.73114 0.0
C3392 C 0.98891 0.60941 0.73043 0.0
C3393 C 0.97986 0.59217 0.7419 0.0
C3394 C 0.96987 0.59307 0.7615 0.0
C3395 C 0.96802 0.57763 0.72624 0.0
C3396 C 0.99515 0.59032 0.74888 0.0
C3397 C 0.01045 0.60437 0.74254 0.0
C3398 C 0.02624 0.60524 0.74658 0.0
C3399 C 0.02638 0.59139 0.75741 0.0
C3400 C 0.01083 0.57688 0.76419 0.0
C3401 C 0.99507 0.57652 0.75988 0.0
H3402 H 0.39624 0.37489 0.68374 0.0
H3403 H 0.34801 0.35709 0.71741 0.0
H3404 H 0.3615 0.38341 0.74008 0.0
H3405 H 0.42361 0.39213 0.7287 0.0
H3406 H 0.44017 0.41056 0.71474 0.0
H3407 H 0.42642 0.39101 0.70004 0.0
H3408 H 0.41759 0.4081 0.67373 0.0
H3409 H 0.43144 0.42777 0.68824 0.0
H3410 H 0.409 0.42112 0.68439 0.0
H3411 H 0.38113 0.41023 0.76155 0.0
H3412 H 0.40471 0.43621 0.77859 0.0
H3413 H 0.4396 0.43754 0.72921 0.0
C3414 C 0.38842 0.37659 0.69569 0.0
C3415 C 0.37105 0.36386 0.69879 0.0
C3416 C 0.36131 0.36667 0.71462 0.0
C3417 C 0.36887 0.38157 0.72763 0.0
C3418 C 0.38612 0.39368 0.72443 0.0
C3419 C 0.3957 0.39147 0.70864 0.0
C3420 C 0.41409 0.40621 0.70881 0.0
C3421 C 0.42682 0.39957 0.71335 0.0
C3422 C 0.41827 0.4164 0.68753 0.0
C3423 C 0.41349 0.41683 0.72755 0.0
C3424 C 0.39725 0.4094 0.73632 0.0
C3425 C 0.39382 0.41635 0.75453 0.0
C3426 C 0.40734 0.43124 0.76402 0.0
C3427 C 0.42414 0.4392 0.75525 0.0
C3428 C 0.42706 0.43185 0.73658 0.0
H3429 H 0.6379 0.00335 0.73628 0.0
H3430 H 0.62297 0.0027 0.66921 0.0
H3431 H 0.59378 0.99558 0.68058 0.0
H3432 H 0.59614 0.96882 0.75594 0.0
H3433 H 0.59795 0.97979 0.78111 0.0
H3434 H 0.61704 0.98282 0.76765 0.0
H3435 H 0.62899 0.01595 0.76774 0.0
H3436 H 0.60993 0.01302 0.78109 0.0
H3437 H 0.61631 0.02462 0.75588 0.0
H3438 H 0.56677 0.99 0.69912 0.0
H3439 H 0.54418 0.98784 0.72367 0.0
H3440 H 0.57688 0.99344 0.77892 0.0
C3441 C 0.62834 1.00132 0.72401 0.0
C3442 C 0.63258 0.00334 0.70185 0.0
C3443 C 0.61993 1.0011 0.68626 0.0
C3444 C 0.60331 0.99701 0.69255 0.0
C3445 C 0.5996 0.99539 0.71454 0.0
C3446 C 0.61176 0.99754 0.73006 0.0
C3447 C 0.60485 0.9965 0.75264 0.0
C3448 C 0.60394 0.98106 0.76506 0.0
C3449 C 0.61566 0.01354 0.76506 0.0
C3450 C 0.58702 0.99365 0.74736 0.0
C3451 C 0.58418 0.99279 0.72529 0.0
C3452 C 0.5688 0.99053 0.71644 0.0
C3453 C 0.55601 0.98924 0.73051 0.0
C3454 C 0.55874 0.99041 0.75319 0.0
C3455 C 0.57445 0.99256 0.76165 0.0
loop_
_geom_bond_atom_site_label_1
_geom_bond_atom_site_label_2
_geom_bond_distance
_geom_bond_site_symmetry_2
_ccdc_geom_bond_type
Mn0 O5 2.095 1_655 S
Mn0 O15 2.162 . S
Mn0 O16 2.297 1_554 S
Mn0 O24 2.385 1_554 S
Mn0 O25 2.209 1_654 S
Mn0 O26 2.094 . S
Mn1 O6 2.121 . S
Mn1 N8 2.257 1_554 S
Mn1 N17 2.282 . S
Mn1 O25 2.215 1_554 S
Mn1 O27 2.117 . S
C2 O24 1.234 1_455 S
C2 O25 1.283 . S
C3 O15 1.281 1_556 S
C3 O16 1.236 . S
C4 O26 1.251 . S
C4 O27 1.238 1_655 S
O5 Mn0 2.095 1_455 S
O5 C14 1.250 . S
O6 Mn1 2.121 . S
O6 C14 1.258 . S
C7 N8 1.326 . S
C7 C11 1.460 . S
C7 H13 0.929 . S
N8 Mn1 2.257 1_556 S
N8 C7 1.326 . S
N8 C12 1.362 . S
C9 C10 1.258 . S
C9 C12 1.431 . S
C9 C29 1.449 . S
C10 C9 1.258 . S
C10 C11 1.477 . S
C10 H30 0.931 . S
C11 C7 1.460 . S
C11 C10 1.477 . S
C11 H31 0.930 . S
C12 N8 1.362 . S
C12 C9 1.431 . S
C12 C22 1.476 . S
H13 C7 0.929 . S
C14 O5 1.250 . S
C14 O6 1.258 . S
O15 Mn0 2.162 . S
O15 C3 1.281 1_554 S
O16 Mn0 2.297 1_556 S
O16 C3 1.236 . S
N17 Mn1 2.282 . S
N17 C18 1.328 . S
N17 C22 1.318 1_554 S
C18 N17 1.328 . S
C18 C19 1.457 1_554 S
C18 H23 0.929 . S
C19 C18 1.457 1_556 S
C19 C20 1.291 . S
C19 H32 0.929 . S
C20 C19 1.291 . S
C20 C21 1.373 . S
C20 H33 0.929 . S
C21 C20 1.373 . S
C21 C22 1.396 . S
C21 C28 1.403 . S
C22 C12 1.476 . S
C22 N17 1.318 1_556 S
C22 C21 1.396 . S
H23 C18 0.929 . S
O24 Mn0 2.385 1_556 S
O24 C2 1.234 1_655 S
O25 Mn0 2.209 1_456 S
O25 Mn1 2.215 1_556 S
O25 C2 1.283 . S
O26 Mn0 2.094 . S
O26 C4 1.251 . S
O27 Mn1 2.117 . S
O27 C4 1.238 1_455 S
C28 C21 1.403 . S
C28 C29 1.399 . S
C28 H34 0.929 . S
C29 C9 1.449 . S
C29 C28 1.399 . S
C29 H35 0.930 . S
H30 C10 0.931 . S
H31 C11 0.930 . S
H32 C19 0.929 . S
H33 C20 0.929 . S
H34 C28 0.929 . S
H35 C29 0.930 . S
Mn36 O41 2.095 1_554 S
Mn36 O51 2.162 . S
Mn36 O52 2.297 . S
Mn36 O60 2.385 . S
Mn36 O61 2.209 . S
Mn36 O62 2.094 1_554 S
Mn37 O42 2.121 . S
Mn37 N44 2.257 1_556 S
Mn37 N53 2.282 1_556 S
Mn37 O61 2.215 1_556 S
Mn37 O63 2.117 . S
C38 O60 1.234 . S
C38 O61 1.283 . S
C39 O51 1.281 . S
C39 O52 1.236 . S
C40 O62 1.240 . S
C40 O63 1.264 . S
O41 Mn36 2.095 1_556 S
O41 C50 1.250 . S
O42 Mn37 2.121 . S
O42 C50 1.258 . S
C43 N44 1.326 . S
C43 C47 1.460 . S
C43 H49 0.929 . S
N44 Mn37 2.257 1_554 S
N44 C43 1.326 . S
N44 C48 1.362 . S
C45 C46 1.258 . S
C45 C48 1.431 . S
C45 C65 1.449 . S
C46 C45 1.258 . S
C46 C47 1.477 . S
C46 H66 0.931 . S
C47 C43 1.460 . S
C47 C46 1.477 . S
C47 H67 0.930 . S
C48 N44 1.362 . S
C48 C45 1.431 . S
C48 C58 1.476 . S
H49 C43 0.929 . S
C50 O41 1.250 . S
C50 O42 1.258 . S
O51 Mn36 2.162 . S
O51 C39 1.281 . S
O52 Mn36 2.297 . S
O52 C39 1.236 . S
N53 Mn37 2.282 1_554 S
N53 C54 1.328 . S
N53 C58 1.318 . S
C54 N53 1.328 . S
C54 C55 1.457 . S
C54 H59 0.917 1_554 S
C55 C54 1.457 . S
C55 C56 1.291 . S
C55 H68 0.931 . S
C56 C55 1.291 . S
C56 C57 1.373 . S
C56 H69 0.929 . S
C57 C56 1.373 . S
C57 C58 1.396 . S
C57 C64 1.403 . S
C58 C48 1.476 . S
C58 N53 1.318 . S
C58 C57 1.396 . S
H59 C54 0.917 1_556 S
O60 Mn36 2.385 . S
O60 C38 1.234 . S
O61 Mn36 2.209 . S
O61 Mn37 2.215 1_554 S
O61 C38 1.283 . S
O62 Mn36 2.094 1_556 S
O62 C40 1.240 . S
O63 Mn37 2.117 . S
O63 C40 1.264 . S
C64 C57 1.403 . S
C64 C65 1.399 . S
C64 H70 0.929 . S
C65 C45 1.449 . S
C65 C64 1.399 . S
C65 H71 0.930 . S
H66 C46 0.931 . S
H67 C47 0.930 . S
H68 C55 0.931 . S
H69 C56 0.929 . S
H70 C64 0.929 . S
H71 C65 0.930 . S
Mn72 O77 2.095 1_564 S
Mn72 O87 2.162 . S
Mn72 O88 2.297 . S
Mn72 O96 2.385 . S
Mn72 O97 2.209 1_565 S
Mn72 O98 2.094 1_554 S
Mn73 O78 2.121 1_554 S
Mn73 N80 2.257 . S
Mn73 N89 2.282 . S
Mn73 O97 2.215 . S
Mn73 O99 2.117 1_554 S
C74 O96 1.234 1_545 S
C74 O97 1.283 . S
C75 O87 1.281 . S
C75 O88 1.236 . S
C76 O98 1.240 . S
C76 O99 1.264 1_565 S
O77 Mn72 2.095 1_546 S
O77 C86 1.250 . S
O78 Mn73 2.121 1_556 S
O78 C86 1.258 . S
C79 N80 1.326 . S
C79 C83 1.460 . S
C79 H85 0.929 . S
N80 Mn73 2.257 . S
N80 C79 1.326 . S
N80 C84 1.362 . S
C81 C82 1.258 . S
C81 C84 1.431 . S
C81 C101 1.449 . S
C82 C81 1.258 . S
C82 C83 1.477 . S
C82 H102 0.931 . S
C83 C79 1.460 . S
C83 C82 1.477 . S
C83 H103 0.930 . S
C84 N80 1.362 . S
C84 C81 1.431 . S
C84 C94 1.476 . S
H85 C79 0.929 . S
C86 O77 1.250 . S
C86 O78 1.258 . S
O87 Mn72 2.162 . S
O87 C75 1.281 . S
O88 Mn72 2.297 . S
O88 C75 1.236 . S
N89 Mn73 2.282 . S
N89 C90 1.328 . S
N89 C94 1.318 . S
C90 N89 1.328 . S
C90 C91 1.457 . S
C90 H95 0.929 . S
C91 C90 1.457 . S
C91 C92 1.291 . S
C91 H104 0.931 . S
C92 C91 1.291 . S
C92 C93 1.373 . S
C92 H105 0.929 . S
C93 C92 1.373 . S
C93 C94 1.396 . S
C93 C100 1.403 . S
C94 C84 1.476 . S
C94 N89 1.318 . S
C94 C93 1.396 . S
H95 C90 0.929 . S
O96 Mn72 2.385 . S
O96 C74 1.234 1_565 S
O97 Mn72 2.209 1_545 S
O97 Mn73 2.215 . S
O97 C74 1.283 . S
O98 Mn72 2.094 1_556 S
O98 C76 1.240 . S
O99 Mn73 2.117 1_556 S
O99 C76 1.264 1_545 S
C100 C93 1.403 . S
C100 C101 1.399 . S
C100 H106 0.929 . S
C101 C81 1.449 . S
C101 C100 1.399 . S
C101 H107 0.930 . S
H102 C82 0.931 . S
H103 C83 0.930 . S
H104 C91 0.931 . S
H105 C92 0.929 . S
H106 C100 0.929 . S
H107 C101 0.930 . S
Mn108 O113 2.095 1_655 S
Mn108 O123 2.162 . S
Mn108 O124 2.297 1_554 S
Mn108 O132 2.385 1_554 S
Mn108 O133 2.209 1_654 S
Mn108 O134 2.094 . S
Mn109 O114 2.121 . S
Mn109 N116 2.257 1_554 S
Mn109 N125 2.282 . S
Mn109 O133 2.215 1_554 S
Mn109 O135 2.117 . S
C110 O132 1.234 1_455 S
C110 O133 1.283 . S
C111 O123 1.281 1_556 S
C111 O124 1.236 . S
C112 O134 1.240 . S
C112 O135 1.264 1_655 S
O113 Mn108 2.095 1_455 S
O113 C122 1.250 . S
O114 Mn109 2.121 . S
O114 C122 1.258 . S
C115 N116 1.326 . S
C115 C119 1.460 . S
C115 H121 0.929 . S
N116 Mn109 2.257 1_556 S
N116 C115 1.326 . S
N116 C120 1.362 . S
C117 C118 1.258 . S
C117 C120 1.431 . S
C117 C137 1.449 . S
C118 C117 1.258 . S
C118 C119 1.477 . S
C118 H138 0.931 . S
C119 C115 1.460 . S
C119 C118 1.477 . S
C119 H139 0.930 . S
C120 N116 1.362 . S
C120 C117 1.431 . S
C120 C130 1.476 . S
H121 C115 0.929 . S
C122 O113 1.250 . S
C122 O114 1.258 . S
O123 Mn108 2.162 . S
O123 C111 1.281 1_554 S
O124 Mn108 2.297 1_556 S
O124 C111 1.236 . S
N125 Mn109 2.282 . S
N125 C126 1.328 . S
N125 C130 1.318 1_554 S
C126 N125 1.328 . S
C126 C127 1.457 1_554 S
C126 H131 0.929 . S
C127 C126 1.457 1_556 S
C127 C128 1.291 . S
C127 H140 0.930 1_556 S
C128 C127 1.291 . S
C128 C129 1.373 . S
C128 H141 0.929 . S
C129 C128 1.373 . S
C129 C130 1.396 . S
C129 C136 1.403 . S
C130 C120 1.476 . S
C130 N125 1.318 1_556 S
C130 C129 1.396 . S
H131 C126 0.929 . S
O132 Mn108 2.385 1_556 S
O132 C110 1.234 1_655 S
O133 Mn108 2.209 1_456 S
O133 Mn109 2.215 1_556 S
O133 C110 1.283 . S
O134 Mn108 2.094 . S
O134 C112 1.240 . S
O135 Mn109 2.117 . S
O135 C112 1.264 1_455 S
C136 C129 1.403 . S
C136 C137 1.399 . S
C136 H142 0.929 . S
C137 C117 1.449 . S
C137 C136 1.399 . S
C137 H143 0.930 . S
H138 C118 0.931 . S
H139 C119 0.930 . S
H140 C127 0.930 1_554 S
H141 C128 0.929 . S
H142 C136 0.929 . S
H143 C137 0.930 . S
Mn144 O149 2.095 1_554 S
Mn144 O159 2.162 . S
Mn144 O160 2.297 . S
Mn144 O168 2.385 . S
Mn144 O169 2.209 . S
Mn144 O170 2.094 1_554 S
Mn145 O150 2.121 1_554 S
Mn145 N152 2.256 . S
Mn145 N161 2.282 . S
Mn145 O169 2.214 . S
Mn145 O171 2.118 1_554 S
C146 O168 1.234 . S
C146 O169 1.283 . S
C147 O159 1.281 . S
C147 O160 1.236 . S
C148 O170 1.240 . S
C148 O171 1.264 . S
O149 Mn144 2.095 1_556 S
O149 C158 1.250 . S
O150 Mn145 2.121 1_556 S
O150 C158 1.258 . S
C151 N152 1.326 . S
C151 C155 1.460 . S
C151 H157 0.929 . S
N152 Mn145 2.256 . S
N152 C151 1.326 . S
N152 C156 1.362 . S
C153 C154 1.258 . S
C153 C156 1.431 . S
C153 C173 1.449 . S
C154 C153 1.258 . S
C154 C155 1.477 . S
C154 H174 0.931 . S
C155 C151 1.460 . S
C155 C154 1.477 . S
C155 H175 0.930 . S
C156 N152 1.362 . S
C156 C153 1.431 . S
C156 C166 1.476 . S
H157 C151 0.929 . S
C158 O149 1.250 . S
C158 O150 1.258 . S
O159 Mn144 2.162 . S
O159 C147 1.281 . S
O160 Mn144 2.297 . S
O160 C147 1.236 . S
N161 Mn145 2.282 . S
N161 C162 1.328 . S
N161 C166 1.318 . S
C162 N161 1.328 . S
C162 C163 1.457 . S
C162 H167 0.959 . S
C163 C162 1.457 . S
C163 C164 1.291 . S
C163 H176 0.931 . S
C164 C163 1.291 . S
C164 C165 1.373 . S
C164 H177 0.929 . S
C165 C164 1.373 . S
C165 C166 1.396 . S
C165 C172 1.403 . S
C166 C156 1.476 . S
C166 N161 1.318 . S
C166 C165 1.396 . S
H167 C162 0.959 . S
O168 Mn144 2.385 . S
O168 C146 1.234 . S
O169 Mn144 2.209 . S
O169 Mn145 2.214 . S
O169 C146 1.283 . S
O170 Mn144 2.094 1_556 S
O170 C148 1.240 . S
O171 Mn145 2.118 1_556 S
O171 C148 1.264 . S
C172 C165 1.403 . S
C172 C173 1.399 . S
C172 H178 0.929 . S
C173 C153 1.449 . S
C173 C172 1.399 . S
C173 H179 0.930 . S
H174 C154 0.931 . S
H175 C155 0.930 . S
H176 C163 0.931 . S
H177 C164 0.929 . S
H178 C172 0.929 . S
H179 C173 0.930 . S
Mn180 O185 2.095 1_545 S
Mn180 O195 2.162 . S
Mn180 O196 2.297 1_554 S
Mn180 O204 2.385 1_554 S
Mn180 O205 2.209 1_544 S
Mn180 O206 2.094 . S
Mn181 O186 2.121 . S
Mn181 N188 2.257 1_554 S
Mn181 N197 2.282 . S
Mn181 O205 2.215 1_554 S
Mn181 O207 2.117 . S
C182 O204 1.212 1_565 S
C182 O205 1.304 . S
C183 O195 1.281 1_556 S
C183 O196 1.236 . S
C184 O206 1.240 . S
C184 O207 1.264 1_545 S
O185 Mn180 2.095 1_565 S
O185 C194 1.250 . S
O186 Mn181 2.121 . S
O186 C194 1.258 . S
C187 N188 1.326 . S
C187 C191 1.460 . S
C187 H193 0.929 . S
N188 Mn181 2.257 1_556 S
N188 C187 1.326 . S
N188 C192 1.362 . S
C189 C190 1.258 . S
C189 C192 1.431 . S
C189 C209 1.449 . S
C190 C189 1.258 . S
C190 C191 1.477 . S
C190 H210 0.931 . S
C191 C187 1.460 . S
C191 C190 1.477 . S
C191 H211 0.930 . S
C192 N188 1.362 . S
C192 C189 1.431 . S
C192 C202 1.476 . S
H193 C187 0.929 . S
C194 O185 1.250 . S
C194 O186 1.258 . S
O195 Mn180 2.162 . S
O195 C183 1.281 1_554 S
O196 Mn180 2.297 1_556 S
O196 C183 1.236 . S
N197 Mn181 2.282 . S
N197 C198 1.328 . S
N197 C202 1.318 1_554 S
C198 N197 1.328 . S
C198 C199 1.457 1_554 S
C198 H203 0.929 . S
C199 C198 1.457 1_556 S
C199 C200 1.291 . S
C199 H212 0.932 . S
C200 C199 1.291 . S
C200 C201 1.373 . S
C200 H213 0.929 . S
C201 C200 1.373 . S
C201 C202 1.396 . S
C201 C208 1.403 . S
C202 C192 1.476 . S
C202 N197 1.318 1_556 S
C202 C201 1.396 . S
H203 C198 0.929 . S
O204 Mn180 2.385 1_556 S
O204 C182 1.212 1_545 S
O205 Mn180 2.209 1_566 S
O205 Mn181 2.215 1_556 S
O205 C182 1.304 . S
O206 Mn180 2.094 . S
O206 C184 1.240 . S
O207 Mn181 2.117 . S
O207 C184 1.264 1_565 S
C208 C201 1.403 . S
C208 C209 1.399 . S
C208 H214 0.929 . S
C209 C189 1.449 . S
C209 C208 1.399 . S
C209 H215 0.930 . S
H210 C190 0.931 . S
H211 C191 0.930 . S
H212 C199 0.932 . S
H213 C200 0.929 . S
H214 C208 0.929 . S
H215 C209 0.930 . S
Mn216 O221 2.095 . S
Mn216 O231 2.162 . S
Mn216 O232 2.297 . S
Mn216 O240 2.385 . S
Mn216 O241 2.209 . S
Mn216 O242 2.094 . S
Mn217 O222 2.121 . S
Mn217 N224 2.257 . S
Mn217 N233 2.282 . S
Mn217 O241 2.215 . S
Mn217 O243 2.117 . S
C218 O240 1.234 . S
C218 O241 1.283 . S
C219 O231 1.281 . S
C219 O232 1.236 . S
C220 O242 1.240 . S
C220 O243 1.264 . S
O221 Mn216 2.095 . S
O221 C230 1.250 . S
O222 Mn217 2.121 . S
O222 C230 1.258 . S
C223 N224 1.326 . S
C223 C227 1.460 . S
C223 H229 0.929 . S
N224 Mn217 2.257 . S
N224 C223 1.326 . S
N224 C228 1.362 . S
C225 C226 1.258 . S
C225 C228 1.431 . S
C225 C245 1.449 . S
C226 C225 1.258 . S
C226 C227 1.477 . S
C226 H246 0.931 . S
C227 C223 1.460 . S
C227 C226 1.477 . S
C227 H247 0.930 . S
C228 N224 1.362 . S
C228 C225 1.431 . S
C228 C238 1.476 . S
H229 C223 0.929 . S
C230 O221 1.250 . S
C230 O222 1.258 . S
O231 Mn216 2.162 . S
O231 C219 1.281 . S
O232 Mn216 2.297 . S
O232 C219 1.236 . S
N233 Mn217 2.282 . S
N233 C234 1.328 . S
N233 C238 1.318 . S
C234 N233 1.328 . S
C234 C235 1.457 . S
C234 H239 0.929 . S
C235 C234 1.457 . S
C235 C236 1.291 . S
C235 H248 0.931 . S
C236 C235 1.291 . S
C236 C237 1.373 . S
C236 H249 0.929 . S
C237 C236 1.373 . S
C237 C238 1.396 . S
C237 C244 1.403 . S
C238 C228 1.476 . S
C238 N233 1.318 . S
C238 C237 1.396 . S
H239 C234 0.929 . S
O240 Mn216 2.385 . S
O240 C218 1.234 . S
O241 Mn216 2.209 . S
O241 Mn217 2.215 . S
O241 C218 1.283 . S
O242 Mn216 2.094 . S
O242 C220 1.240 . S
O243 Mn217 2.117 . S
O243 C220 1.264 . S
C244 C237 1.403 . S
C244 C245 1.399 . S
C244 H250 0.929 . S
C245 C225 1.449 . S
C245 C244 1.399 . S
C245 H251 0.930 . S
H246 C226 0.931 . S
H247 C227 0.930 . S
H248 C235 0.931 . S
H249 C236 0.929 . S
H250 C244 0.929 . S
H251 C245 0.930 . S
Mn252 O257 2.095 . S
Mn252 O267 2.162 1_565 S
Mn252 O268 2.297 1_565 S
Mn252 O276 2.385 . S
Mn252 O277 2.209 . S
Mn252 O278 2.094 . S
Mn253 O258 2.121 . S
Mn253 N260 2.257 . S
Mn253 N269 2.282 . S
Mn253 O277 2.215 . S
Mn253 O279 2.117 . S
C254 O276 1.234 . S
C254 O277 1.283 . S
C255 O267 1.281 . S
C255 O268 1.236 . S
C256 O278 1.240 . S
C256 O279 1.264 . S
O257 Mn252 2.095 . S
O257 C266 1.250 . S
O258 Mn253 2.121 . S
O258 C266 1.258 . S
C259 N260 1.326 . S
C259 C263 1.460 . S
C259 H265 0.929 . S
N260 Mn253 2.257 . S
N260 C259 1.326 . S
N260 C264 1.362 . S
C261 C262 1.258 . S
C261 C264 1.431 . S
C261 C281 1.449 . S
C262 C261 1.258 . S
C262 C263 1.477 . S
C262 H282 0.931 . S
C263 C259 1.460 . S
C263 C262 1.477 . S
C263 H283 0.930 . S
C264 N260 1.362 . S
C264 C261 1.431 . S
C264 C274 1.476 . S
H265 C259 0.929 . S
C266 O257 1.250 . S
C266 O258 1.258 . S
O267 Mn252 2.162 1_545 S
O267 C255 1.281 . S
O268 Mn252 2.297 1_545 S
O268 C255 1.236 . S
N269 Mn253 2.282 . S
N269 C270 1.328 . S
N269 C274 1.318 . S
C270 N269 1.328 . S
C270 C271 1.457 . S
C270 H275 0.929 . S
C271 C270 1.457 . S
C271 C272 1.291 . S
C271 H284 0.931 . S
C272 C271 1.291 . S
C272 C273 1.373 . S
C272 H285 0.929 . S
C273 C272 1.373 . S
C273 C274 1.396 . S
C273 C280 1.403 . S
C274 C264 1.476 . S
C274 N269 1.318 . S
C274 C273 1.396 . S
H275 C270 0.929 . S
O276 Mn252 2.385 . S
O276 C254 1.234 . S
O277 Mn252 2.209 . S
O277 Mn253 2.215 . S
O277 C254 1.283 . S
O278 Mn252 2.094 . S
O278 C256 1.240 . S
O279 Mn253 2.117 . S
O279 C256 1.264 . S
C280 C273 1.403 . S
C280 C281 1.399 . S
C280 H286 0.929 . S
C281 C261 1.449 . S
C281 C280 1.399 . S
C281 H287 0.930 . S
H282 C262 0.931 . S
H283 C263 0.930 . S
H284 C271 0.931 . S
H285 C272 0.929 . S
H286 C280 0.929 . S
H287 C281 0.930 . S
Mn288 O293 2.095 . S
Mn288 O303 2.162 1_455 S
Mn288 O304 2.297 1_455 S
Mn288 O312 2.385 . S
Mn288 O313 2.209 . S
Mn288 O314 2.094 . S
Mn289 O294 2.121 . S
Mn289 N296 2.257 . S
Mn289 N305 2.282 . S
Mn289 O313 2.215 . S
Mn289 O315 2.117 . S
C290 O312 1.234 . S
C290 O313 1.283 . S
C291 O303 1.281 . S
C291 O304 1.236 . S
C292 O314 1.240 . S
C292 O315 1.264 . S
O293 Mn288 2.095 . S
O293 C302 1.250 . S
O294 Mn289 2.121 . S
O294 C302 1.258 . S
C295 N296 1.326 . S
C295 C299 1.460 . S
C295 H301 0.929 . S
N296 Mn289 2.257 . S
N296 C295 1.326 . S
N296 C300 1.362 . S
C297 C298 1.258 . S
C297 C300 1.431 . S
C297 C317 1.449 . S
C298 C297 1.258 . S
C298 C299 1.477 . S
C298 H318 0.931 . S
C299 C295 1.460 . S
C299 C298 1.477 . S
C299 H319 0.930 . S
C300 N296 1.362 . S
C300 C297 1.431 . S
C300 C310 1.476 . S
H301 C295 0.929 . S
C302 O293 1.250 . S
C302 O294 1.258 . S
O303 Mn288 2.162 1_655 S
O303 C291 1.281 . S
O304 Mn288 2.297 1_655 S
O304 C291 1.236 . S
N305 Mn289 2.282 . S
N305 C306 1.328 . S
N305 C310 1.318 . S
C306 N305 1.328 . S
C306 C307 1.457 . S
C306 H311 0.929 . S
C307 C306 1.457 . S
C307 C308 1.291 . S
C307 H320 0.931 . S
C308 C307 1.291 . S
C308 C309 1.373 . S
C308 H321 0.929 . S
C309 C308 1.373 . S
C309 C310 1.396 . S
C309 C316 1.403 . S
C310 C300 1.476 . S
C310 N305 1.318 . S
C310 C309 1.396 . S
H311 C306 0.929 . S
O312 Mn288 2.385 . S
O312 C290 1.234 . S
O313 Mn288 2.209 . S
O313 Mn289 2.215 . S
O313 C290 1.283 . S
O314 Mn288 2.094 . S
O314 C292 1.240 . S
O315 Mn289 2.117 . S
O315 C292 1.264 . S
C316 C309 1.403 . S
C316 C317 1.399 . S
C316 H322 0.929 . S
C317 C297 1.449 . S
C317 C316 1.399 . S
C317 H323 0.930 . S
H318 C298 0.931 . S
H319 C299 0.930 . S
H320 C307 0.931 . S
H321 C308 0.929 . S
H322 C316 0.929 . S
H323 C317 0.930 . S
Mn324 O329 2.102 . S
Mn324 O339 2.162 . S
Mn324 O340 2.297 . S
Mn324 O348 2.385 . S
Mn324 O349 2.209 . S
Mn324 O350 2.094 . S
Mn325 O330 2.121 1_565 S
Mn325 N332 2.257 . S
Mn325 N341 2.282 . S
Mn325 O349 2.215 . S
Mn325 O351 2.117 . S
C326 O348 1.234 . S
C326 O349 1.283 . S
C327 O339 1.281 . S
C327 O340 1.236 . S
C328 O350 1.240 . S
C328 O351 1.264 . S
O329 Mn324 2.102 . S
O329 C338 1.247 1_565 S
O330 Mn325 2.121 1_545 S
O330 C338 1.258 . S
C331 N332 1.326 1_545 S
C331 C335 1.460 . S
C331 H337 0.929 . S
N332 Mn325 2.257 . S
N332 C331 1.326 1_565 S
N332 C336 1.362 . S
C333 C334 1.294 . S
C333 C336 1.431 . S
C333 C353 1.449 . S
C334 C333 1.294 . S
C334 C335 1.431 1_565 S
C334 H354 0.942 1_565 S
C335 C331 1.460 . S
C335 C334 1.431 1_545 S
C335 H355 0.930 . S
C336 N332 1.362 . S
C336 C333 1.431 . S
C336 C346 1.476 . S
H337 C331 0.929 . S
C338 O329 1.247 1_545 S
C338 O330 1.258 . S
O339 Mn324 2.162 . S
O339 C327 1.281 . S
O340 Mn324 2.297 . S
O340 C327 1.236 . S
N341 Mn325 2.282 . S
N341 C342 1.328 . S
N341 C346 1.318 . S
C342 N341 1.328 . S
C342 C343 1.457 . S
C342 H347 0.929 . S
C343 C342 1.457 . S
C343 C344 1.291 . S
C343 H356 0.931 . S
C344 C343 1.291 . S
C344 C345 1.373 . S
C344 H357 0.929 . S
C345 C344 1.373 . S
C345 C346 1.396 . S
C345 C352 1.403 . S
C346 C336 1.476 . S
C346 N341 1.318 . S
C346 C345 1.396 . S
H347 C342 0.929 . S
O348 Mn324 2.385 . S
O348 C326 1.234 . S
O349 Mn324 2.209 . S
O349 Mn325 2.215 . S
O349 C326 1.283 . S
O350 Mn324 2.094 . S
O350 C328 1.240 . S
O351 Mn325 2.117 . S
O351 C328 1.264 . S
C352 C345 1.403 . S
C352 C353 1.399 . S
C352 H358 0.929 . S
C353 C333 1.449 . S
C353 C352 1.399 . S
C353 H359 0.930 . S
H354 C334 0.942 1_545 S
H355 C335 0.930 . S
H356 C343 0.931 . S
H357 C344 0.929 . S
H358 C352 0.929 . S
H359 C353 0.930 . S
Mn360 O365 2.095 . S
Mn360 O375 2.162 1_455 S
Mn360 O376 2.297 1_455 S
Mn360 O384 2.385 . S
Mn360 O385 2.209 . S
Mn360 O386 2.094 . S
Mn361 O366 2.121 . S
Mn361 N368 2.257 . S
Mn361 N377 2.282 . S
Mn361 O385 2.215 . S
Mn361 O387 2.117 . S
C362 O384 1.234 . S
C362 O385 1.283 . S
C363 O375 1.281 . S
C363 O376 1.236 . S
C364 O386 1.240 . S
C364 O387 1.264 . S
O365 Mn360 2.095 . S
O365 C374 1.250 . S
O366 Mn361 2.121 . S
O366 C374 1.258 . S
C367 N368 1.326 . S
C367 C371 1.460 . S
C367 H373 0.929 . S
N368 Mn361 2.257 . S
N368 C367 1.326 . S
N368 C372 1.362 . S
C369 C370 1.258 . S
C369 C372 1.431 . S
C369 C389 1.449 . S
C370 C369 1.258 . S
C370 C371 1.477 . S
C370 H390 0.931 . S
C371 C367 1.460 . S
C371 C370 1.477 . S
C371 H391 0.930 . S
C372 N368 1.362 . S
C372 C369 1.431 . S
C372 C382 1.476 . S
H373 C367 0.929 . S
C374 O365 1.250 . S
C374 O366 1.258 . S
O375 Mn360 2.162 1_655 S
O375 C363 1.281 . S
O376 Mn360 2.297 1_655 S
O376 C363 1.236 . S
N377 Mn361 2.282 . S
N377 C378 1.328 . S
N377 C382 1.318 . S
C378 N377 1.328 . S
C378 C379 1.457 . S
C378 H383 0.929 . S
C379 C378 1.457 . S
C379 C380 1.291 . S
C379 H392 0.931 . S
C380 C379 1.291 . S
C380 C381 1.373 . S
C380 H393 0.929 . S
C381 C380 1.373 . S
C381 C382 1.396 . S
C381 C388 1.403 . S
C382 C372 1.476 . S
C382 N377 1.318 . S
C382 C381 1.396 . S
H383 C378 0.929 . S
O384 Mn360 2.385 . S
O384 C362 1.234 . S
O385 Mn360 2.209 . S
O385 Mn361 2.215 . S
O385 C362 1.283 . S
O386 Mn360 2.094 . S
O386 C364 1.240 . S
O387 Mn361 2.117 . S
O387 C364 1.264 . S
C388 C381 1.403 . S
C388 C389 1.399 . S
C388 H394 0.929 . S
C389 C369 1.449 . S
C389 C388 1.399 . S
C389 H395 0.930 . S
H390 C370 0.931 . S
H391 C371 0.930 . S
H392 C379 0.931 . S
H393 C380 0.929 . S
H394 C388 0.929 . S
H395 C389 0.930 . S
Mn396 O401 2.095 . S
Mn396 O411 2.162 . S
Mn396 O412 2.297 . S
Mn396 O420 2.385 . S
Mn396 O421 2.209 . S
Mn396 O422 2.094 . S
Mn397 O402 2.121 . S
Mn397 N404 2.257 . S
Mn397 N413 2.282 . S
Mn397 O421 2.215 . S
Mn397 O423 2.117 . S
C398 O420 1.234 . S
C398 O421 1.283 . S
C399 O411 1.281 . S
C399 O412 1.236 . S
C400 O422 1.240 . S
C400 O423 1.264 . S
O401 Mn396 2.095 . S
O401 C410 1.250 . S
O402 Mn397 2.121 . S
O402 C410 1.258 . S
C403 N404 1.326 . S
C403 C407 1.460 . S
C403 H409 0.929 . S
N404 Mn397 2.257 . S
N404 C403 1.326 . S
N404 C408 1.362 . S
C405 C406 1.258 . S
C405 C408 1.431 . S
C405 C425 1.449 . S
C406 C405 1.258 . S
C406 C407 1.477 . S
C406 H426 0.931 . S
C407 C403 1.460 . S
C407 C406 1.477 . S
C407 H427 0.930 . S
C408 N404 1.362 . S
C408 C405 1.431 . S
C408 C418 1.476 . S
H409 C403 0.929 . S
C410 O401 1.250 . S
C410 O402 1.258 . S
O411 Mn396 2.162 . S
O411 C399 1.281 . S
O412 Mn396 2.297 . S
O412 C399 1.236 . S
N413 Mn397 2.282 . S
N413 C414 1.328 . S
N413 C418 1.318 . S
C414 N413 1.328 . S
C414 C415 1.457 . S
C414 H419 0.929 . S
C415 C414 1.457 . S
C415 C416 1.291 . S
C415 H428 0.931 . S
C416 C415 1.291 . S
C416 C417 1.373 . S
C416 H429 0.929 . S
C417 C416 1.373 . S
C417 C418 1.396 . S
C417 C424 1.403 . S
C418 C408 1.476 . S
C418 N413 1.318 . S
C418 C417 1.396 . S
H419 C414 0.929 . S
O420 Mn396 2.385 . S
O420 C398 1.234 . S
O421 Mn396 2.209 . S
O421 Mn397 2.215 . S
O421 C398 1.283 . S
O422 Mn396 2.094 . S
O422 C400 1.240 . S
O423 Mn397 2.117 . S
O423 C400 1.264 . S
C424 C417 1.403 . S
C424 C425 1.399 . S
C424 H430 0.929 . S
C425 C405 1.449 . S
C425 C424 1.399 . S
C425 H431 0.930 . S
H426 C406 0.931 . S
H427 C407 0.930 . S
H428 C415 0.931 . S
H429 C416 0.929 . S
H430 C424 0.929 . S
H431 C425 0.930 . S
Mn432 O437 2.095 . S
Mn432 O447 2.162 1_545 S
Mn432 O448 2.297 1_545 S
Mn432 O456 2.385 . S
Mn432 O457 2.209 . S
Mn432 O458 2.094 . S
Mn433 O438 2.121 . S
Mn433 N440 2.257 . S
Mn433 N449 2.282 . S
Mn433 O457 2.215 . S
Mn433 O459 2.117 . S
C434 O456 1.234 . S
C434 O457 1.283 . S
C435 O447 1.281 . S
C435 O448 1.236 . S
C436 O458 1.240 . S
C436 O459 1.264 . S
O437 Mn432 2.095 . S
O437 C446 1.250 . S
O438 Mn433 2.121 . S
O438 C446 1.258 . S
C439 N440 1.326 . S
C439 C443 1.460 . S
C439 H445 0.929 . S
N440 Mn433 2.257 . S
N440 C439 1.326 . S
N440 C444 1.362 . S
C441 C442 1.258 . S
C441 C444 1.431 . S
C441 C461 1.449 . S
C442 C441 1.258 . S
C442 C443 1.477 . S
C442 H462 0.931 . S
C443 C439 1.460 . S
C443 C442 1.477 . S
C443 H463 0.930 . S
C444 N440 1.362 . S
C444 C441 1.431 . S
C444 C454 1.476 . S
H445 C439 0.929 . S
C446 O437 1.250 . S
C446 O438 1.258 . S
O447 Mn432 2.162 1_565 S
O447 C435 1.281 . S
O448 Mn432 2.297 1_565 S
O448 C435 1.236 . S
N449 Mn433 2.282 . S
N449 C450 1.328 . S
N449 C454 1.318 . S
C450 N449 1.328 . S
C450 C451 1.457 . S
C450 H455 0.929 . S
C451 C450 1.457 . S
C451 C452 1.291 . S
C451 H464 0.931 . S
C452 C451 1.291 . S
C452 C453 1.373 . S
C452 H465 0.929 . S
C453 C452 1.373 . S
C453 C454 1.396 . S
C453 C460 1.403 . S
C454 C444 1.476 . S
C454 N449 1.318 . S
C454 C453 1.396 . S
H455 C450 0.929 . S
O456 Mn432 2.385 . S
O456 C434 1.234 . S
O457 Mn432 2.209 . S
O457 Mn433 2.215 . S
O457 C434 1.283 . S
O458 Mn432 2.094 . S
O458 C436 1.240 . S
O459 Mn433 2.117 . S
O459 C436 1.264 . S
C460 C453 1.403 . S
C460 C461 1.399 . S
C460 H466 0.929 . S
C461 C441 1.449 . S
C461 C460 1.399 . S
C461 H467 0.930 . S
H462 C442 0.931 . S
H463 C443 0.930 . S
H464 C451 0.931 . S
H465 C452 0.929 . S
H466 C460 0.929 . S
H467 C461 0.930 . S
Mn468 O473 2.095 . S
Mn468 O483 2.162 . S
Mn468 O484 2.297 . S
Mn468 O492 2.385 . S
Mn468 O493 2.209 . S
Mn468 O494 2.094 . S
Mn469 O474 2.121 1_655 S
Mn469 N476 2.257 . S
Mn469 N485 2.282 . S
Mn469 O493 2.215 . S
Mn469 O495 2.117 . S
C470 O492 1.234 . S
C470 O493 1.283 . S
C471 O483 1.281 . S
C471 O484 1.236 . S
C472 O494 1.240 . S
C472 O495 1.264 . S
O473 Mn468 2.095 . S
O473 C482 1.250 1_655 S
O474 Mn469 2.121 1_455 S
O474 C482 1.258 . S
C475 N476 1.326 1_455 S
C475 C479 1.460 . S
C475 H481 0.929 . S
N476 Mn469 2.257 . S
N476 C475 1.326 1_655 S
N476 C480 1.362 . S
C477 C478 1.323 . S
C477 C480 1.431 . S
C477 C497 1.449 . S
C478 C477 1.323 . S
C478 C479 1.456 1_655 S
C478 H498 0.890 1_655 S
C479 C475 1.460 . S
C479 C478 1.456 1_455 S
C479 H499 0.930 . S
C480 N476 1.362 . S
C480 C477 1.431 . S
C480 C490 1.476 . S
H481 C475 0.929 . S
C482 O473 1.250 1_455 S
C482 O474 1.258 . S
O483 Mn468 2.162 . S
O483 C471 1.281 . S
O484 Mn468 2.297 . S
O484 C471 1.236 . S
N485 Mn469 2.282 . S
N485 C486 1.328 . S
N485 C490 1.318 . S
C486 N485 1.328 . S
C486 C487 1.457 . S
C486 H491 0.929 . S
C487 C486 1.457 . S
C487 C488 1.291 . S
C487 H500 0.931 . S
C488 C487 1.291 . S
C488 C489 1.373 . S
C488 H501 0.929 . S
C489 C488 1.373 . S
C489 C490 1.396 . S
C489 C496 1.403 . S
C490 C480 1.476 . S
C490 N485 1.318 . S
C490 C489 1.396 . S
H491 C486 0.929 . S
O492 Mn468 2.385 . S
O492 C470 1.234 . S
O493 Mn468 2.209 . S
O493 Mn469 2.215 . S
O493 C470 1.283 . S
O494 Mn468 2.094 . S
O494 C472 1.240 . S
O495 Mn469 2.117 . S
O495 C472 1.264 . S
C496 C489 1.403 . S
C496 C497 1.399 . S
C496 H502 0.929 . S
C497 C477 1.449 . S
C497 C496 1.399 . S
C497 H503 0.930 . S
H498 C478 0.890 1_455 S
H499 C479 0.930 . S
H500 C487 0.931 . S
H501 C488 0.929 . S
H502 C496 0.929 . S
H503 C497 0.930 . S
Mn504 O509 2.095 . S
Mn504 O519 2.162 . S
Mn504 O520 2.297 . S
Mn504 O528 2.385 . S
Mn504 O529 2.209 . S
Mn504 O530 2.094 . S
Mn505 O510 2.121 . S
Mn505 N512 2.257 . S
Mn505 N521 2.282 . S
Mn505 O529 2.215 . S
Mn505 O531 2.117 . S
C506 O528 1.234 . S
C506 O529 1.283 . S
C507 O519 1.281 . S
C507 O520 1.236 . S
C508 O530 1.240 . S
C508 O531 1.264 . S
O509 Mn504 2.095 . S
O509 C518 1.250 . S
O510 Mn505 2.121 . S
O510 C518 1.258 . S
C511 N512 1.326 . S
C511 C515 1.460 . S
C511 H517 0.929 . S
N512 Mn505 2.257 . S
N512 C511 1.326 . S
N512 C516 1.362 . S
C513 C514 1.258 . S
C513 C516 1.431 . S
C513 C533 1.449 . S
C514 C513 1.258 . S
C514 C515 1.477 . S
C514 H534 0.931 . S
C515 C511 1.460 . S
C515 C514 1.477 . S
C515 H535 0.930 . S
C516 N512 1.362 . S
C516 C513 1.431 . S
C516 C526 1.476 . S
H517 C511 0.929 . S
C518 O509 1.250 . S
C518 O510 1.258 . S
O519 Mn504 2.162 . S
O519 C507 1.281 . S
O520 Mn504 2.297 . S
O520 C507 1.236 . S
N521 Mn505 2.282 . S
N521 C522 1.328 . S
N521 C526 1.318 . S
C522 N521 1.328 . S
C522 C523 1.457 . S
C522 H527 0.929 . S
C523 C522 1.457 . S
C523 C524 1.291 . S
C523 H536 0.931 . S
C524 C523 1.291 . S
C524 C525 1.373 . S
C524 H537 0.929 . S
C525 C524 1.373 . S
C525 C526 1.396 . S
C525 C532 1.403 . S
C526 C516 1.476 . S
C526 N521 1.318 . S
C526 C525 1.396 . S
H527 C522 0.929 . S
O528 Mn504 2.385 . S
O528 C506 1.234 . S
O529 Mn504 2.209 . S
O529 Mn505 2.215 . S
O529 C506 1.283 . S
O530 Mn504 2.094 . S
O530 C508 1.240 . S
O531 Mn505 2.117 . S
O531 C508 1.264 . S
C532 C525 1.403 . S
C532 C533 1.399 . S
C532 H538 0.929 . S
C533 C513 1.449 . S
C533 C532 1.399 . S
C533 H539 0.930 . S
H534 C514 0.931 . S
H535 C515 0.930 . S
H536 C523 0.931 . S
H537 C524 0.929 . S
H538 C532 0.929 . S
H539 C533 0.930 . S
Mn540 O545 2.095 . S
Mn540 O555 2.162 . S
Mn540 O556 2.297 . S
Mn540 O564 2.385 . S
Mn540 O565 2.209 . S
Mn540 O566 2.094 . S
Mn541 O546 2.121 . S
Mn541 N548 2.257 . S
Mn541 N557 2.282 . S
Mn541 O565 2.215 . S
Mn541 O567 2.117 . S
C542 O564 1.234 . S
C542 O565 1.283 . S
C543 O555 1.281 . S
C543 O556 1.236 . S
C544 O566 1.240 . S
C544 O567 1.264 . S
O545 Mn540 2.095 . S
O545 C554 1.250 . S
O546 Mn541 2.121 . S
O546 C554 1.258 . S
C547 N548 1.326 . S
C547 C551 1.460 . S
C547 H553 0.929 . S
N548 Mn541 2.257 . S
N548 C547 1.326 . S
N548 C552 1.362 . S
C549 C550 1.258 . S
C549 C552 1.431 . S
C549 C569 1.449 . S
C550 C549 1.258 . S
C550 C551 1.477 . S
C550 H570 0.931 . S
C551 C547 1.460 . S
C551 C550 1.477 . S
C551 H571 0.930 . S
C552 N548 1.362 . S
C552 C549 1.431 . S
C552 C562 1.476 . S
H553 C547 0.929 . S
C554 O545 1.250 . S
C554 O546 1.258 . S
O555 Mn540 2.162 . S
O555 C543 1.281 . S
O556 Mn540 2.297 . S
O556 C543 1.236 . S
N557 Mn541 2.282 . S
N557 C558 1.328 . S
N557 C562 1.318 . S
C558 N557 1.328 . S
C558 C559 1.457 . S
C558 H563 0.929 . S
C559 C558 1.457 . S
C559 C560 1.291 . S
C559 H572 0.931 . S
C560 C559 1.291 . S
C560 C561 1.373 . S
C560 H573 0.929 . S
C561 C560 1.373 . S
C561 C562 1.396 . S
C561 C568 1.403 . S
C562 C552 1.476 . S
C562 N557 1.318 . S
C562 C561 1.396 . S
H563 C558 0.929 . S
O564 Mn540 2.385 . S
O564 C542 1.234 . S
O565 Mn540 2.209 . S
O565 Mn541 2.215 . S
O565 C542 1.283 . S
O566 Mn540 2.094 . S
O566 C544 1.240 . S
O567 Mn541 2.117 . S
O567 C544 1.264 . S
C568 C561 1.403 . S
C568 C569 1.399 . S
C568 H574 0.929 . S
C569 C549 1.449 . S
C569 C568 1.399 . S
C569 H575 0.930 . S
H570 C550 0.931 . S
H571 C551 0.930 . S
H572 C559 0.931 . S
H573 C560 0.929 . S
H574 C568 0.929 . S
H575 C569 0.930 . S
Mn576 O581 2.067 1_545 S
Mn576 O591 2.162 . S
Mn576 O592 2.297 . S
Mn576 O600 2.385 . S
Mn576 O601 2.209 . S
Mn576 O602 2.094 . S
Mn577 O582 2.121 1_545 S
Mn577 N584 2.257 . S
Mn577 N593 2.282 . S
Mn577 O601 2.215 . S
Mn577 O603 2.117 . S
C578 O600 1.234 . S
C578 O601 1.283 . S
C579 O591 1.281 . S
C579 O592 1.236 . S
C580 O602 1.240 . S
C580 O603 1.264 . S
O581 Mn576 2.067 1_565 S
O581 C590 1.284 . S
O582 Mn577 2.121 1_565 S
O582 C590 1.258 . S
C583 N584 1.326 1_565 S
C583 C587 1.460 . S
C583 H589 0.929 . S
N584 Mn577 2.257 . S
N584 C583 1.326 1_545 S
N584 C588 1.362 . S
C585 C586 1.231 1_545 S
C585 C588 1.431 . S
C585 C605 1.449 . S
C586 C585 1.231 1_565 S
C586 C587 1.487 . S
C586 H606 0.947 . S
C587 C583 1.460 . S
C587 C586 1.487 . S
C587 H607 0.930 . S
C588 N584 1.362 . S
C588 C585 1.431 . S
C588 C598 1.476 . S
H589 C583 0.929 . S
C590 O581 1.284 . S
C590 O582 1.258 . S
O591 Mn576 2.162 . S
O591 C579 1.281 . S
O592 Mn576 2.297 . S
O592 C579 1.236 . S
N593 Mn577 2.282 . S
N593 C594 1.328 . S
N593 C598 1.318 . S
C594 N593 1.328 . S
C594 C595 1.457 . S
C594 H599 0.929 . S
C595 C594 1.457 . S
C595 C596 1.291 . S
C595 H608 0.931 . S
C596 C595 1.291 . S
C596 C597 1.373 . S
C596 H609 0.929 . S
C597 C596 1.373 . S
C597 C598 1.396 . S
C597 C604 1.403 . S
C598 C588 1.476 . S
C598 N593 1.318 . S
C598 C597 1.396 . S
H599 C594 0.929 . S
O600 Mn576 2.385 . S
O600 C578 1.234 . S
O601 Mn576 2.209 . S
O601 Mn577 2.215 . S
O601 C578 1.283 . S
O602 Mn576 2.094 . S
O602 C580 1.240 . S
O603 Mn577 2.117 . S
O603 C580 1.264 . S
C604 C597 1.403 . S
C604 C605 1.399 . S
C604 H610 0.929 . S
C605 C585 1.449 . S
C605 C604 1.399 . S
C605 H611 0.930 . S
H606 C586 0.947 . S
H607 C587 0.930 . S
H608 C595 0.931 . S
H609 C596 0.929 . S
H610 C604 0.929 . S
H611 C605 0.930 . S
Mn612 O617 2.095 . S
Mn612 O627 2.162 1_655 S
Mn612 O628 2.297 1_655 S
Mn612 O636 2.385 . S
Mn612 O637 2.209 . S
Mn612 O638 2.094 . S
Mn613 O618 2.121 . S
Mn613 N620 2.257 . S
Mn613 N629 2.282 . S
Mn613 O637 2.215 . S
Mn613 O639 2.117 . S
C614 O636 1.234 . S
C614 O637 1.283 . S
C615 O627 1.281 . S
C615 O628 1.236 . S
C616 O638 1.240 . S
C616 O639 1.264 . S
O617 Mn612 2.095 . S
O617 C626 1.250 . S
O618 Mn613 2.121 . S
O618 C626 1.258 . S
C619 N620 1.326 . S
C619 C623 1.460 . S
C619 H625 0.929 . S
N620 Mn613 2.257 . S
N620 C619 1.326 . S
N620 C624 1.362 . S
C621 C622 1.258 . S
C621 C624 1.431 . S
C621 C641 1.449 . S
C622 C621 1.258 . S
C622 C623 1.477 . S
C622 H642 0.931 . S
C623 C619 1.460 . S
C623 C622 1.477 . S
C623 H643 0.930 . S
C624 N620 1.362 . S
C624 C621 1.431 . S
C624 C634 1.476 . S
H625 C619 0.929 . S
C626 O617 1.250 . S
C626 O618 1.258 . S
O627 Mn612 2.162 1_455 S
O627 C615 1.281 . S
O628 Mn612 2.297 1_455 S
O628 C615 1.236 . S
N629 Mn613 2.282 . S
N629 C630 1.328 . S
N629 C634 1.318 . S
C630 N629 1.328 . S
C630 C631 1.457 . S
C630 H635 0.929 . S
C631 C630 1.457 . S
C631 C632 1.291 . S
C631 H644 0.931 . S
C632 C631 1.291 . S
C632 C633 1.373 . S
C632 H645 0.929 . S
C633 C632 1.373 . S
C633 C634 1.396 . S
C633 C640 1.403 . S
C634 C624 1.476 . S
C634 N629 1.318 . S
C634 C633 1.396 . S
H635 C630 0.929 . S
O636 Mn612 2.385 . S
O636 C614 1.234 . S
O637 Mn612 2.209 . S
O637 Mn613 2.215 . S
O637 C614 1.283 . S
O638 Mn612 2.094 . S
O638 C616 1.240 . S
O639 Mn613 2.117 . S
O639 C616 1.264 . S
C640 C633 1.403 . S
C640 C641 1.399 . S
C640 H646 0.929 . S
C641 C621 1.449 . S
C641 C640 1.399 . S
C641 H647 0.930 . S
H642 C622 0.931 . S
H643 C623 0.930 . S
H644 C631 0.931 . S
H645 C632 0.929 . S
H646 C640 0.929 . S
H647 C641 0.930 . S
H648 C667 0.949 . S
H649 C668 0.950 . S
H650 C670 0.950 . S
H651 C671 0.950 . S
H652 C673 0.950 . S
H653 C676 0.950 . S
H654 C677 0.950 . S
H655 C679 0.951 . S
H656 C680 0.949 . S
H657 C682 0.949 . S
H658 C683 0.950 . S
H659 C685 0.950 . S
H660 C686 0.950 . S
H661 C688 0.950 . S
H662 C691 0.950 . S
H663 C692 0.950 . S
H664 C694 0.951 . S
H665 C695 0.949 . S
C666 C667 1.376 . S
C666 C671 1.386 . S
C666 C672 1.483 . S
C667 H648 0.949 . S
C667 C666 1.376 . S
C667 C668 1.397 . S
C668 H649 0.950 . S
C668 C667 1.397 . S
C668 C669 1.391 . S
C669 C668 1.391 . S
C669 C670 1.405 . S
C670 H650 0.950 . S
C670 C669 1.405 . S
C670 C671 1.367 . S
C671 H651 0.950 . S
C671 C666 1.386 . S
C671 C670 1.367 . S
C672 C666 1.483 . S
C672 C673 1.382 . S
C672 C674 1.403 . S
C673 H652 0.950 . S
C673 C672 1.382 . S
C673 C689 1.411 . S
C674 C672 1.403 . S
C674 C675 1.489 . S
C674 C688 1.411 . S
C675 C674 1.489 . S
C675 C676 1.383 . S
C675 C680 1.382 . S
C676 H653 0.950 . S
C676 C675 1.383 . S
C676 C677 1.395 . S
C677 H654 0.950 . S
C677 C676 1.395 . S
C677 C678 1.288 . S
C678 C677 1.288 . S
C678 C679 1.392 . S
C679 H655 0.951 . S
C679 C678 1.392 . S
C679 C680 1.392 . S
C680 H656 0.949 . S
C680 C675 1.382 . S
C680 C679 1.392 . S
C681 C682 1.376 . S
C681 C686 1.386 . S
C681 C687 1.483 . S
C682 H657 0.949 . S
C682 C681 1.376 . S
C682 C683 1.397 . S
C683 H658 0.950 . S
C683 C682 1.397 . S
C683 C684 1.391 . S
C684 C683 1.391 . S
C684 C685 1.405 . S
C685 H659 0.950 . S
C685 C684 1.405 . S
C685 C686 1.367 . S
C686 H660 0.950 . S
C686 C681 1.386 . S
C686 C685 1.367 . S
C687 C681 1.483 . S
C687 C688 1.382 . S
C687 C689 1.403 . S
C688 H661 0.950 . S
C688 C674 1.411 . S
C688 C687 1.382 . S
C689 C673 1.411 . S
C689 C687 1.403 . S
C689 C690 1.489 . S
C690 C689 1.489 . S
C690 C691 1.383 . S
C690 C695 1.382 . S
C691 H662 0.950 . S
C691 C690 1.383 . S
C691 C692 1.395 . S
C692 H663 0.950 . S
C692 C691 1.395 . S
C692 C693 1.288 . S
C693 C692 1.288 . S
C693 C694 1.392 . S
C694 H664 0.951 . S
C694 C693 1.392 . S
C694 C695 1.392 . S
C695 H665 0.949 . S
C695 C690 1.382 . S
C695 C694 1.392 . S
H696 C715 0.949 . S
H697 C716 0.950 . S
H698 C718 0.950 . S
H699 C719 0.950 . S
H700 C721 0.950 . S
H701 C724 0.950 . S
H702 C725 0.950 . S
H703 C727 0.951 . S
H704 C728 0.949 . S
H705 C730 0.949 . S
H706 C731 0.950 . S
H707 C733 0.950 . S
H708 C734 0.950 . S
H709 C736 0.950 . S
H710 C739 0.950 . S
H711 C740 0.950 . S
H712 C742 0.951 . S
H713 C743 0.949 . S
C714 C715 1.376 . S
C714 C719 1.386 . S
C714 C720 1.483 . S
C715 H696 0.949 . S
C715 C714 1.376 . S
C715 C716 1.397 . S
C716 H697 0.950 . S
C716 C715 1.397 . S
C716 C717 1.391 . S
C717 C716 1.391 . S
C717 C718 1.405 . S
C718 H698 0.950 . S
C718 C717 1.405 . S
C718 C719 1.367 . S
C719 H699 0.950 . S
C719 C714 1.386 . S
C719 C718 1.367 . S
C720 C714 1.483 . S
C720 C721 1.382 . S
C720 C722 1.403 . S
C721 H700 0.950 . S
C721 C720 1.382 . S
C721 C737 1.411 . S
C722 C720 1.403 . S
C722 C723 1.489 . S
C722 C736 1.411 . S
C723 C722 1.489 . S
C723 C724 1.383 . S
C723 C728 1.382 . S
C724 H701 0.950 . S
C724 C723 1.383 . S
C724 C725 1.395 . S
C725 H702 0.950 . S
C725 C724 1.395 . S
C725 C726 1.288 . S
C726 C725 1.288 . S
C726 C727 1.392 . S
C727 H703 0.951 . S
C727 C726 1.392 . S
C727 C728 1.392 . S
C728 H704 0.949 . S
C728 C723 1.382 . S
C728 C727 1.392 . S
C729 C730 1.376 . S
C729 C734 1.386 . S
C729 C735 1.483 . S
C730 H705 0.949 . S
C730 C729 1.376 . S
C730 C731 1.397 . S
C731 H706 0.950 . S
C731 C730 1.397 . S
C731 C732 1.391 . S
C732 C731 1.391 . S
C732 C733 1.405 . S
C733 H707 0.950 . S
C733 C732 1.405 . S
C733 C734 1.367 . S
C734 H708 0.950 . S
C734 C729 1.386 . S
C734 C733 1.367 . S
C735 C729 1.483 . S
C735 C736 1.382 . S
C735 C737 1.403 . S
C736 H709 0.950 . S
C736 C722 1.411 . S
C736 C735 1.382 . S
C737 C721 1.411 . S
C737 C735 1.403 . S
C737 C738 1.489 . S
C738 C737 1.489 . S
C738 C739 1.383 . S
C738 C743 1.382 . S
C739 H710 0.950 . S
C739 C738 1.383 . S
C739 C740 1.395 . S
C740 H711 0.950 . S
C740 C739 1.395 . S
C740 C741 1.288 . S
C741 C740 1.288 . S
C741 C742 1.392 . S
C742 H712 0.951 . S
C742 C741 1.392 . S
C742 C743 1.392 . S
C743 H713 0.949 . S
C743 C738 1.382 . S
C743 C742 1.392 . S
H744 C763 0.949 . S
H745 C764 0.950 . S
H746 C766 0.950 . S
H747 C767 0.950 . S
H748 C769 0.950 . S
H749 C772 0.950 . S
H750 C773 0.950 . S
H751 C775 0.951 . S
H752 C776 0.949 . S
H753 C778 0.949 . S
H754 C779 0.950 . S
H755 C781 0.950 . S
H756 C782 0.950 . S
H757 C784 0.950 . S
H758 C787 0.950 . S
H759 C788 0.950 . S
H760 C790 0.951 . S
H761 C791 0.949 . S
C762 C763 1.376 . S
C762 C767 1.386 . S
C762 C768 1.483 . S
C763 H744 0.949 . S
C763 C762 1.376 . S
C763 C764 1.397 . S
C764 H745 0.950 . S
C764 C763 1.397 . S
C764 C765 1.391 . S
C765 C764 1.391 . S
C765 C766 1.405 . S
C766 H746 0.950 . S
C766 C765 1.405 . S
C766 C767 1.367 . S
C767 H747 0.950 . S
C767 C762 1.386 . S
C767 C766 1.367 . S
C768 C762 1.483 . S
C768 C769 1.382 . S
C768 C770 1.403 . S
C769 H748 0.950 . S
C769 C768 1.382 . S
C769 C785 1.411 . S
C770 C768 1.403 . S
C770 C771 1.489 . S
C770 C784 1.411 . S
C771 C770 1.489 . S
C771 C772 1.383 . S
C771 C776 1.382 . S
C772 H749 0.950 . S
C772 C771 1.383 . S
C772 C773 1.395 . S
C773 H750 0.950 . S
C773 C772 1.395 . S
C773 C774 1.288 . S
C774 C773 1.288 . S
C774 C775 1.392 . S
C775 H751 0.951 . S
C775 C774 1.392 . S
C775 C776 1.392 . S
C776 H752 0.949 . S
C776 C771 1.382 . S
C776 C775 1.392 . S
C777 C778 1.376 . S
C777 C782 1.386 . S
C777 C783 1.483 . S
C778 H753 0.949 . S
C778 C777 1.376 . S
C778 C779 1.397 . S
C779 H754 0.950 . S
C779 C778 1.397 . S
C779 C780 1.391 . S
C780 C779 1.391 . S
C780 C781 1.405 . S
C781 H755 0.950 . S
C781 C780 1.405 . S
C781 C782 1.367 . S
C782 H756 0.950 . S
C782 C777 1.386 . S
C782 C781 1.367 . S
C783 C777 1.483 . S
C783 C784 1.382 . S
C783 C785 1.403 . S
C784 H757 0.950 . S
C784 C770 1.411 . S
C784 C783 1.382 . S
C785 C769 1.411 . S
C785 C783 1.403 . S
C785 C786 1.489 . S
C786 C785 1.489 . S
C786 C787 1.383 . S
C786 C791 1.382 . S
C787 H758 0.950 . S
C787 C786 1.383 . S
C787 C788 1.395 . S
C788 H759 0.950 . S
C788 C787 1.395 . S
C788 C789 1.288 . S
C789 C788 1.288 . S
C789 C790 1.392 . S
C790 H760 0.951 . S
C790 C789 1.392 . S
C790 C791 1.392 . S
C791 H761 0.949 . S
C791 C786 1.382 . S
C791 C790 1.392 . S
H792 C811 0.949 . S
H793 C812 0.950 . S
H794 C814 0.950 . S
H795 C815 0.950 . S
H796 C817 0.950 . S
H797 C820 0.950 . S
H798 C821 0.950 . S
H799 C823 0.951 . S
H800 C824 0.949 . S
H801 C826 0.949 . S
H802 C827 0.950 . S
H803 C829 0.950 . S
H804 C830 0.950 . S
H805 C832 0.950 . S
H806 C835 0.950 . S
H807 C836 0.950 . S
H808 C838 0.951 . S
H809 C839 0.949 . S
C810 C811 1.376 . S
C810 C815 1.386 . S
C810 C816 1.483 . S
C811 H792 0.949 . S
C811 C810 1.376 . S
C811 C812 1.397 . S
C812 H793 0.950 . S
C812 C811 1.397 . S
C812 C813 1.391 . S
C813 C812 1.391 . S
C813 C814 1.405 . S
C814 H794 0.950 . S
C814 C813 1.405 . S
C814 C815 1.367 . S
C815 H795 0.950 . S
C815 C810 1.386 . S
C815 C814 1.367 . S
C816 C810 1.483 . S
C816 C817 1.382 . S
C816 C818 1.403 . S
C817 H796 0.950 . S
C817 C816 1.382 . S
C817 C833 1.411 . S
C818 C816 1.403 . S
C818 C819 1.489 . S
C818 C832 1.411 . S
C819 C818 1.489 . S
C819 C820 1.383 . S
C819 C824 1.382 . S
C820 H797 0.950 . S
C820 C819 1.383 . S
C820 C821 1.395 . S
C821 H798 0.950 . S
C821 C820 1.395 . S
C821 C822 1.288 . S
C822 C821 1.288 . S
C822 C823 1.392 . S
C823 H799 0.951 . S
C823 C822 1.392 . S
C823 C824 1.392 . S
C824 H800 0.949 . S
C824 C819 1.382 . S
C824 C823 1.392 . S
C825 C826 1.376 . S
C825 C830 1.386 . S
C825 C831 1.483 . S
C826 H801 0.949 . S
C826 C825 1.376 . S
C826 C827 1.397 . S
C827 H802 0.950 . S
C827 C826 1.397 . S
C827 C828 1.391 . S
C828 C827 1.391 . S
C828 C829 1.405 . S
C829 H803 0.950 . S
C829 C828 1.405 . S
C829 C830 1.367 . S
C830 H804 0.950 . S
C830 C825 1.386 . S
C830 C829 1.367 . S
C831 C825 1.483 . S
C831 C832 1.382 . S
C831 C833 1.403 . S
C832 H805 0.950 . S
C832 C818 1.411 . S
C832 C831 1.382 . S
C833 C817 1.411 . S
C833 C831 1.403 . S
C833 C834 1.489 . S
C834 C833 1.489 . S
C834 C835 1.383 . S
C834 C839 1.382 . S
C835 H806 0.950 . S
C835 C834 1.383 . S
C835 C836 1.395 . S
C836 H807 0.950 . S
C836 C835 1.395 . S
C836 C837 1.288 . S
C837 C836 1.288 . S
C837 C838 1.392 . S
C838 H808 0.951 . S
C838 C837 1.392 . S
C838 C839 1.392 . S
C839 H809 0.949 . S
C839 C834 1.382 . S
C839 C838 1.392 . S
H840 C859 0.949 . S
H841 C860 0.950 . S
H842 C862 0.950 . S
H843 C863 0.950 . S
H844 C865 0.950 . S
H845 C868 0.950 . S
H846 C869 0.950 . S
H847 C871 0.951 . S
H848 C872 0.949 . S
H849 C874 0.949 . S
H850 C875 0.950 . S
H851 C877 0.950 . S
H852 C878 0.950 . S
H853 C880 0.950 . S
H854 C883 0.950 . S
H855 C884 0.950 . S
H856 C886 0.951 . S
H857 C887 0.949 . S
C858 C859 1.376 . S
C858 C863 1.386 . S
C858 C864 1.483 . S
C859 H840 0.949 . S
C859 C858 1.376 . S
C859 C860 1.397 . S
C860 H841 0.950 . S
C860 C859 1.397 . S
C860 C861 1.391 . S
C861 C860 1.391 . S
C861 C862 1.405 . S
C862 H842 0.950 . S
C862 C861 1.405 . S
C862 C863 1.367 . S
C863 H843 0.950 . S
C863 C858 1.386 . S
C863 C862 1.367 . S
C864 C858 1.483 . S
C864 C865 1.382 . S
C864 C866 1.403 . S
C865 H844 0.950 . S
C865 C864 1.382 . S
C865 C881 1.411 . S
C866 C864 1.403 . S
C866 C867 1.489 . S
C866 C880 1.411 . S
C867 C866 1.489 . S
C867 C868 1.383 . S
C867 C872 1.382 . S
C868 H845 0.950 . S
C868 C867 1.383 . S
C868 C869 1.395 . S
C869 H846 0.950 . S
C869 C868 1.395 . S
C869 C870 1.288 . S
C870 C869 1.288 . S
C870 C871 1.392 . S
C871 H847 0.951 . S
C871 C870 1.392 . S
C871 C872 1.392 . S
C872 H848 0.949 . S
C872 C867 1.382 . S
C872 C871 1.392 . S
C873 C874 1.376 . S
C873 C878 1.386 . S
C873 C879 1.483 . S
C874 H849 0.949 . S
C874 C873 1.376 . S
C874 C875 1.397 . S
C875 H850 0.950 . S
C875 C874 1.397 . S
C875 C876 1.391 . S
C876 C875 1.391 . S
C876 C877 1.405 . S
C877 H851 0.950 . S
C877 C876 1.405 . S
C877 C878 1.367 . S
C878 H852 0.950 . S
C878 C873 1.386 . S
C878 C877 1.367 . S
C879 C873 1.483 . S
C879 C880 1.382 . S
C879 C881 1.403 . S
C880 H853 0.950 . S
C880 C866 1.411 . S
C880 C879 1.382 . S
C881 C865 1.411 . S
C881 C879 1.403 . S
C881 C882 1.489 . S
C882 C881 1.489 . S
C882 C883 1.383 . S
C882 C887 1.382 . S
C883 H854 0.950 . S
C883 C882 1.383 . S
C883 C884 1.395 . S
C884 H855 0.950 . S
C884 C883 1.395 . S
C884 C885 1.288 . S
C885 C884 1.288 . S
C885 C886 1.392 . S
C886 H856 0.951 . S
C886 C885 1.392 . S
C886 C887 1.392 . S
C887 H857 0.949 . S
C887 C882 1.382 . S
C887 C886 1.392 . S
H888 C907 0.949 . S
H889 C908 0.950 . S
H890 C910 0.950 . S
H891 C911 0.950 . S
H892 C913 0.950 . S
H893 C916 0.950 . S
H894 C917 0.950 . S
H895 C919 0.951 . S
H896 C920 0.949 . S
H897 C922 0.949 . S
H898 C923 0.950 . S
H899 C925 0.950 . S
H900 C926 0.950 . S
H901 C928 0.950 . S
H902 C931 0.950 . S
H903 C932 0.950 . S
H904 C934 0.951 . S
H905 C935 0.949 . S
C906 C907 1.376 . S
C906 C911 1.386 . S
C906 C912 1.483 . S
C907 H888 0.949 . S
C907 C906 1.376 . S
C907 C908 1.397 . S
C908 H889 0.950 . S
C908 C907 1.397 . S
C908 C909 1.391 . S
C909 C908 1.391 . S
C909 C910 1.405 . S
C910 H890 0.950 . S
C910 C909 1.405 . S
C910 C911 1.367 . S
C911 H891 0.950 . S
C911 C906 1.386 . S
C911 C910 1.367 . S
C912 C906 1.483 . S
C912 C913 1.382 . S
C912 C914 1.403 . S
C913 H892 0.950 . S
C913 C912 1.382 . S
C913 C929 1.411 . S
C914 C912 1.403 . S
C914 C915 1.489 . S
C914 C928 1.411 . S
C915 C914 1.489 . S
C915 C916 1.383 . S
C915 C920 1.382 . S
C916 H893 0.950 . S
C916 C915 1.383 . S
C916 C917 1.395 . S
C917 H894 0.950 . S
C917 C916 1.395 . S
C917 C918 1.288 . S
C918 C917 1.288 . S
C918 C919 1.392 . S
C919 H895 0.951 . S
C919 C918 1.392 . S
C919 C920 1.392 . S
C920 H896 0.949 . S
C920 C915 1.382 . S
C920 C919 1.392 . S
C921 C922 1.376 . S
C921 C926 1.386 . S
C921 C927 1.483 . S
C922 H897 0.949 . S
C922 C921 1.376 . S
C922 C923 1.397 . S
C923 H898 0.950 . S
C923 C922 1.397 . S
C923 C924 1.391 . S
C924 C923 1.391 . S
C924 C925 1.405 . S
C925 H899 0.950 . S
C925 C924 1.405 . S
C925 C926 1.367 . S
C926 H900 0.950 . S
C926 C921 1.386 . S
C926 C925 1.367 . S
C927 C921 1.483 . S
C927 C928 1.382 . S
C927 C929 1.403 . S
C928 H901 0.950 . S
C928 C914 1.411 . S
C928 C927 1.382 . S
C929 C913 1.411 . S
C929 C927 1.403 . S
C929 C930 1.489 . S
C930 C929 1.489 . S
C930 C931 1.383 . S
C930 C935 1.382 . S
C931 H902 0.950 . S
C931 C930 1.383 . S
C931 C932 1.395 . S
C932 H903 0.950 . S
C932 C931 1.395 . S
C932 C933 1.288 . S
C933 C932 1.288 . S
C933 C934 1.392 . S
C934 H904 0.951 . S
C934 C933 1.392 . S
C934 C935 1.392 . S
C935 H905 0.949 . S
C935 C930 1.382 . S
C935 C934 1.392 . S
H936 C955 0.949 . S
H937 C956 0.950 . S
H938 C958 0.950 . S
H939 C959 0.950 . S
H940 C961 0.950 . S
H941 C964 0.950 . S
H942 C965 0.950 . S
H943 C967 0.951 . S
H944 C968 0.949 . S
H945 C970 0.949 . S
H946 C971 0.950 . S
H947 C973 0.950 . S
H948 C974 0.950 . S
H949 C976 0.950 . S
H950 C979 0.950 . S
H951 C980 0.950 . S
H952 C982 0.951 . S
H953 C983 0.949 . S
C954 C955 1.376 . S
C954 C959 1.386 . S
C954 C960 1.483 . S
C955 H936 0.949 . S
C955 C954 1.376 . S
C955 C956 1.397 . S
C956 H937 0.950 . S
C956 C955 1.397 . S
C956 C957 1.391 . S
C957 C956 1.391 . S
C957 C958 1.405 . S
C958 H938 0.950 . S
C958 C957 1.405 . S
C958 C959 1.367 . S
C959 H939 0.950 . S
C959 C954 1.386 . S
C959 C958 1.367 . S
C960 C954 1.483 . S
C960 C961 1.382 . S
C960 C962 1.403 . S
C961 H940 0.950 . S
C961 C960 1.382 . S
C961 C977 1.411 . S
C962 C960 1.403 . S
C962 C963 1.489 . S
C962 C976 1.411 . S
C963 C962 1.489 . S
C963 C964 1.383 . S
C963 C968 1.382 . S
C964 H941 0.950 . S
C964 C963 1.383 . S
C964 C965 1.395 . S
C965 H942 0.950 . S
C965 C964 1.395 . S
C965 C966 1.288 . S
C966 C965 1.288 . S
C966 C967 1.392 . S
C967 H943 0.951 . S
C967 C966 1.392 . S
C967 C968 1.392 . S
C968 H944 0.949 . S
C968 C963 1.382 . S
C968 C967 1.392 . S
C969 C970 1.376 . S
C969 C974 1.386 . S
C969 C975 1.483 . S
C970 H945 0.949 . S
C970 C969 1.376 . S
C970 C971 1.397 . S
C971 H946 0.950 . S
C971 C970 1.397 . S
C971 C972 1.391 . S
C972 C971 1.391 . S
C972 C973 1.405 . S
C973 H947 0.950 . S
C973 C972 1.405 . S
C973 C974 1.367 . S
C974 H948 0.950 . S
C974 C969 1.386 . S
C974 C973 1.367 . S
C975 C969 1.483 . S
C975 C976 1.382 . S
C975 C977 1.403 . S
C976 H949 0.950 . S
C976 C962 1.411 . S
C976 C975 1.382 . S
C977 C961 1.411 . S
C977 C975 1.403 . S
C977 C978 1.489 . S
C978 C977 1.489 . S
C978 C979 1.383 . S
C978 C983 1.382 . S
C979 H950 0.950 . S
C979 C978 1.383 . S
C979 C980 1.395 . S
C980 H951 0.950 . S
C980 C979 1.395 . S
C980 C981 1.288 . S
C981 C980 1.288 . S
C981 C982 1.392 . S
C982 H952 0.951 . S
C982 C981 1.392 . S
C982 C983 1.392 . S
C983 H953 0.949 . S
C983 C978 1.382 . S
C983 C982 1.392 . S
H984 C1003 0.949 . S
H985 C1004 0.950 . S
H986 C1006 0.950 . S
H987 C1007 0.950 . S
H988 C1009 0.950 . S
H989 C1012 0.950 . S
H990 C1013 0.950 . S
H991 C1015 0.951 . S
H992 C1016 0.949 . S
H993 C1018 0.949 . S
H994 C1019 0.950 . S
H995 C1021 0.950 . S
H996 C1022 0.950 . S
H997 C1024 0.950 . S
H998 C1027 0.950 . S
H999 C1028 0.950 . S
H1000 C1030 0.951 . S
H1001 C1031 0.949 . S
C1002 C1003 1.376 . S
C1002 C1007 1.386 . S
C1002 C1008 1.483 . S
C1003 H984 0.949 . S
C1003 C1002 1.376 . S
C1003 C1004 1.397 . S
C1004 H985 0.950 . S
C1004 C1003 1.397 . S
C1004 C1005 1.391 . S
C1005 C1004 1.391 . S
C1005 C1006 1.405 . S
C1006 H986 0.950 . S
C1006 C1005 1.405 . S
C1006 C1007 1.367 . S
C1007 H987 0.950 . S
C1007 C1002 1.386 . S
C1007 C1006 1.367 . S
C1008 C1002 1.483 . S
C1008 C1009 1.382 . S
C1008 C1010 1.403 . S
C1009 H988 0.950 . S
C1009 C1008 1.382 . S
C1009 C1025 1.411 . S
C1010 C1008 1.403 . S
C1010 C1011 1.489 . S
C1010 C1024 1.411 . S
C1011 C1010 1.489 . S
C1011 C1012 1.383 . S
C1011 C1016 1.382 . S
C1012 H989 0.950 . S
C1012 C1011 1.383 . S
C1012 C1013 1.395 . S
C1013 H990 0.950 . S
C1013 C1012 1.395 . S
C1013 C1014 1.288 . S
C1014 C1013 1.288 . S
C1014 C1015 1.392 . S
C1015 H991 0.951 . S
C1015 C1014 1.392 . S
C1015 C1016 1.392 . S
C1016 H992 0.949 . S
C1016 C1011 1.382 . S
C1016 C1015 1.392 . S
C1017 C1018 1.376 . S
C1017 C1022 1.386 . S
C1017 C1023 1.483 . S
C1018 H993 0.949 . S
C1018 C1017 1.376 . S
C1018 C1019 1.397 . S
C1019 H994 0.950 . S
C1019 C1018 1.397 . S
C1019 C1020 1.391 . S
C1020 C1019 1.391 . S
C1020 C1021 1.405 . S
C1021 H995 0.950 . S
C1021 C1020 1.405 . S
C1021 C1022 1.367 . S
C1022 H996 0.950 . S
C1022 C1017 1.386 . S
C1022 C1021 1.367 . S
C1023 C1017 1.483 . S
C1023 C1024 1.382 . S
C1023 C1025 1.403 . S
C1024 H997 0.950 . S
C1024 C1010 1.411 . S
C1024 C1023 1.382 . S
C1025 C1009 1.411 . S
C1025 C1023 1.403 . S
C1025 C1026 1.489 . S
C1026 C1025 1.489 . S
C1026 C1027 1.383 . S
C1026 C1031 1.382 . S
C1027 H998 0.950 . S
C1027 C1026 1.383 . S
C1027 C1028 1.395 . S
C1028 H999 0.950 . S
C1028 C1027 1.395 . S
C1028 C1029 1.288 . S
C1029 C1028 1.288 . S
C1029 C1030 1.392 . S
C1030 H1000 0.951 . S
C1030 C1029 1.392 . S
C1030 C1031 1.392 . S
C1031 H1001 0.949 . S
C1031 C1026 1.382 . S
C1031 C1030 1.392 . S
H1032 C1051 0.949 . S
H1033 C1052 0.950 . S
H1034 C1054 0.950 . S
H1035 C1055 0.950 . S
H1036 C1057 0.950 . S
H1037 C1060 0.950 . S
H1038 C1061 0.950 . S
H1039 C1063 0.951 . S
H1040 C1064 0.949 . S
H1041 C1066 0.949 . S
H1042 C1067 0.950 . S
H1043 C1069 0.950 . S
H1044 C1070 0.950 . S
H1045 C1072 0.950 . S
H1046 C1075 0.950 . S
H1047 C1076 0.950 . S
H1048 C1078 0.951 . S
H1049 C1079 0.949 . S
C1050 C1051 1.376 . S
C1050 C1055 1.386 . S
C1050 C1056 1.483 . S
C1051 H1032 0.949 . S
C1051 C1050 1.376 . S
C1051 C1052 1.397 . S
C1052 H1033 0.950 . S
C1052 C1051 1.397 . S
C1052 C1053 1.391 . S
C1053 C1052 1.391 . S
C1053 C1054 1.405 . S
C1054 H1034 0.950 . S
C1054 C1053 1.405 . S
C1054 C1055 1.367 . S
C1055 H1035 0.950 . S
C1055 C1050 1.386 . S
C1055 C1054 1.367 . S
C1056 C1050 1.483 . S
C1056 C1057 1.382 . S
C1056 C1058 1.403 . S
C1057 H1036 0.950 . S
C1057 C1056 1.382 . S
C1057 C1073 1.411 . S
C1058 C1056 1.403 . S
C1058 C1059 1.489 . S
C1058 C1072 1.411 . S
C1059 C1058 1.489 . S
C1059 C1060 1.383 . S
C1059 C1064 1.382 . S
C1060 H1037 0.950 . S
C1060 C1059 1.383 . S
C1060 C1061 1.395 . S
C1061 H1038 0.950 . S
C1061 C1060 1.395 . S
C1061 C1062 1.288 . S
C1062 C1061 1.288 . S
C1062 C1063 1.392 . S
C1063 H1039 0.951 . S
C1063 C1062 1.392 . S
C1063 C1064 1.392 . S
C1064 H1040 0.949 . S
C1064 C1059 1.382 . S
C1064 C1063 1.392 . S
C1065 C1066 1.376 . S
C1065 C1070 1.386 . S
C1065 C1071 1.483 . S
C1066 H1041 0.949 . S
C1066 C1065 1.376 . S
C1066 C1067 1.397 . S
C1067 H1042 0.950 . S
C1067 C1066 1.397 . S
C1067 C1068 1.391 . S
C1068 C1067 1.391 . S
C1068 C1069 1.405 . S
C1069 H1043 0.950 . S
C1069 C1068 1.405 . S
C1069 C1070 1.367 . S
C1070 H1044 0.950 . S
C1070 C1065 1.386 . S
C1070 C1069 1.367 . S
C1071 C1065 1.483 . S
C1071 C1072 1.382 . S
C1071 C1073 1.403 . S
C1072 H1045 0.950 . S
C1072 C1058 1.411 . S
C1072 C1071 1.382 . S
C1073 C1057 1.411 . S
C1073 C1071 1.403 . S
C1073 C1074 1.489 . S
C1074 C1073 1.489 . S
C1074 C1075 1.383 . S
C1074 C1079 1.382 . S
C1075 H1046 0.950 . S
C1075 C1074 1.383 . S
C1075 C1076 1.395 . S
C1076 H1047 0.950 . S
C1076 C1075 1.395 . S
C1076 C1077 1.288 . S
C1077 C1076 1.288 . S
C1077 C1078 1.392 . S
C1078 H1048 0.951 . S
C1078 C1077 1.392 . S
C1078 C1079 1.392 . S
C1079 H1049 0.949 . S
C1079 C1074 1.382 . S
C1079 C1078 1.392 . S
H1080 C1099 0.949 . S
H1081 C1100 0.950 . S
H1082 C1102 0.950 . S
H1083 C1103 0.950 . S
H1084 C1105 0.950 . S
H1085 C1108 0.950 . S
H1086 C1109 0.950 . S
H1087 C1111 0.951 . S
H1088 C1112 0.949 . S
H1089 C1114 0.949 . S
H1090 C1115 0.950 . S
H1091 C1117 0.950 . S
H1092 C1118 0.950 . S
H1093 C1120 0.950 . S
H1094 C1123 0.950 . S
H1095 C1124 0.950 . S
H1096 C1126 0.951 . S
H1097 C1127 0.949 . S
C1098 C1099 1.376 . S
C1098 C1103 1.386 1_655 S
C1098 C1104 1.483 . S
C1099 H1080 0.949 . S
C1099 C1098 1.376 . S
C1099 C1100 1.397 . S
C1100 H1081 0.950 . S
C1100 C1099 1.397 . S
C1100 C1101 1.391 . S
C1101 C1100 1.391 . S
C1101 C1102 1.405 1_655 S
C1102 H1082 0.950 . S
C1102 C1101 1.405 1_455 S
C1102 C1103 1.367 . S
C1103 H1083 0.950 . S
C1103 C1098 1.386 1_455 S
C1103 C1102 1.367 . S
C1104 C1098 1.483 . S
C1104 C1105 1.382 . S
C1104 C1106 1.403 1_655 S
C1105 H1084 0.950 . S
C1105 C1104 1.382 . S
C1105 C1121 1.411 . S
C1106 C1104 1.403 1_455 S
C1106 C1107 1.489 . S
C1106 C1120 1.411 . S
C1107 C1106 1.489 . S
C1107 C1108 1.383 1_455 S
C1107 C1112 1.382 . S
C1108 H1085 0.950 . S
C1108 C1107 1.383 1_655 S
C1108 C1109 1.395 . S
C1109 H1086 0.950 . S
C1109 C1108 1.395 . S
C1109 C1110 1.288 1_655 S
C1110 C1109 1.288 1_455 S
C1110 C1111 1.392 . S
C1111 H1087 0.951 . S
C1111 C1110 1.392 . S
C1111 C1112 1.392 . S
C1112 H1088 0.949 . S
C1112 C1107 1.382 . S
C1112 C1111 1.392 . S
C1113 C1114 1.376 . S
C1113 C1118 1.386 1_455 S
C1113 C1119 1.483 . S
C1114 H1089 0.949 . S
C1114 C1113 1.376 . S
C1114 C1115 1.397 . S
C1115 H1090 0.950 . S
C1115 C1114 1.397 . S
C1115 C1116 1.391 . S
C1116 C1115 1.391 . S
C1116 C1117 1.405 1_455 S
C1117 H1091 0.950 . S
C1117 C1116 1.405 1_655 S
C1117 C1118 1.367 . S
C1118 H1092 0.950 . S
C1118 C1113 1.386 1_655 S
C1118 C1117 1.367 . S
C1119 C1113 1.483 . S
C1119 C1120 1.382 . S
C1119 C1121 1.403 1_455 S
C1120 H1093 0.950 . S
C1120 C1106 1.411 . S
C1120 C1119 1.382 . S
C1121 C1105 1.411 . S
C1121 C1119 1.403 1_655 S
C1121 C1122 1.489 . S
C1122 C1121 1.489 . S
C1122 C1123 1.383 1_655 S
C1122 C1127 1.382 . S
C1123 H1094 0.950 . S
C1123 C1122 1.383 1_455 S
C1123 C1124 1.395 . S
C1124 H1095 0.950 . S
C1124 C1123 1.395 . S
C1124 C1125 1.288 1_455 S
C1125 C1124 1.288 1_655 S
C1125 C1126 1.392 . S
C1126 H1096 0.951 . S
C1126 C1125 1.392 . S
C1126 C1127 1.392 . S
C1127 H1097 0.949 . S
C1127 C1122 1.382 . S
C1127 C1126 1.392 . S
H1128 C1147 0.949 . S
H1129 C1148 0.950 . S
H1130 C1150 0.950 . S
H1131 C1151 0.950 . S
H1132 C1153 0.950 . S
H1133 C1156 0.950 . S
H1134 C1157 0.950 . S
H1135 C1159 0.951 . S
H1136 C1160 0.949 . S
H1137 C1162 0.949 . S
H1138 C1163 0.950 . S
H1139 C1165 0.950 . S
H1140 C1166 0.950 . S
H1141 C1168 0.950 . S
H1142 C1171 0.950 . S
H1143 C1172 0.950 . S
H1144 C1174 0.951 . S
H1145 C1175 0.949 . S
C1146 C1147 1.376 . S
C1146 C1151 1.386 . S
C1146 C1152 1.483 . S
C1147 H1128 0.949 . S
C1147 C1146 1.376 . S
C1147 C1148 1.397 . S
C1148 H1129 0.950 . S
C1148 C1147 1.397 . S
C1148 C1149 1.391 . S
C1149 C1148 1.391 . S
C1149 C1150 1.405 . S
C1150 H1130 0.950 . S
C1150 C1149 1.405 . S
C1150 C1151 1.367 . S
C1151 H1131 0.950 . S
C1151 C1146 1.386 . S
C1151 C1150 1.367 . S
C1152 C1146 1.483 . S
C1152 C1153 1.382 . S
C1152 C1154 1.403 . S
C1153 H1132 0.950 . S
C1153 C1152 1.382 . S
C1153 C1169 1.411 . S
C1154 C1152 1.403 . S
C1154 C1155 1.489 . S
C1154 C1168 1.411 . S
C1155 C1154 1.489 . S
C1155 C1156 1.383 . S
C1155 C1160 1.382 . S
C1156 H1133 0.950 . S
C1156 C1155 1.383 . S
C1156 C1157 1.395 . S
C1157 H1134 0.950 . S
C1157 C1156 1.395 . S
C1157 C1158 1.288 . S
C1158 C1157 1.288 . S
C1158 C1159 1.392 . S
C1159 H1135 0.951 . S
C1159 C1158 1.392 . S
C1159 C1160 1.392 . S
C1160 H1136 0.949 . S
C1160 C1155 1.382 . S
C1160 C1159 1.392 . S
C1161 C1162 1.376 . S
C1161 C1166 1.386 . S
C1161 C1167 1.483 . S
C1162 H1137 0.949 . S
C1162 C1161 1.376 . S
C1162 C1163 1.397 . S
C1163 H1138 0.950 . S
C1163 C1162 1.397 . S
C1163 C1164 1.391 . S
C1164 C1163 1.391 . S
C1164 C1165 1.405 . S
C1165 H1139 0.950 . S
C1165 C1164 1.405 . S
C1165 C1166 1.367 . S
C1166 H1140 0.950 . S
C1166 C1161 1.386 . S
C1166 C1165 1.367 . S
C1167 C1161 1.483 . S
C1167 C1168 1.382 . S
C1167 C1169 1.403 . S
C1168 H1141 0.950 . S
C1168 C1154 1.411 . S
C1168 C1167 1.382 . S
C1169 C1153 1.411 . S
C1169 C1167 1.403 . S
C1169 C1170 1.489 . S
C1170 C1169 1.489 . S
C1170 C1171 1.383 . S
C1170 C1175 1.382 . S
C1171 H1142 0.950 . S
C1171 C1170 1.383 . S
C1171 C1172 1.395 . S
C1172 H1143 0.950 . S
C1172 C1171 1.395 . S
C1172 C1173 1.288 . S
C1173 C1172 1.288 . S
C1173 C1174 1.392 . S
C1174 H1144 0.951 . S
C1174 C1173 1.392 . S
C1174 C1175 1.392 . S
C1175 H1145 0.949 . S
C1175 C1170 1.382 . S
C1175 C1174 1.392 . S
H1176 C1195 0.949 . S
H1177 C1196 0.950 . S
H1178 C1198 0.950 . S
H1179 C1199 0.950 . S
H1180 C1201 0.950 . S
H1181 C1204 0.950 . S
H1182 C1205 0.950 . S
H1183 C1207 0.951 . S
H1184 C1208 0.949 . S
H1185 C1210 0.949 . S
H1186 C1211 0.950 . S
H1187 C1213 0.950 . S
H1188 C1214 0.950 . S
H1189 C1216 0.950 . S
H1190 C1219 0.950 . S
H1191 C1220 0.950 . S
H1192 C1222 0.951 . S
H1193 C1223 0.949 . S
C1194 C1195 1.376 . S
C1194 C1199 1.386 1_545 S
C1194 C1200 1.483 . S
C1195 H1176 0.949 . S
C1195 C1194 1.376 . S
C1195 C1196 1.397 . S
C1196 H1177 0.950 . S
C1196 C1195 1.397 . S
C1196 C1197 1.391 . S
C1197 C1196 1.391 . S
C1197 C1198 1.405 1_545 S
C1198 H1178 0.950 . S
C1198 C1197 1.405 1_565 S
C1198 C1199 1.367 . S
C1199 H1179 0.950 . S
C1199 C1194 1.386 1_565 S
C1199 C1198 1.367 . S
C1200 C1194 1.483 . S
C1200 C1201 1.382 . S
C1200 C1202 1.403 1_545 S
C1201 H1180 0.950 . S
C1201 C1200 1.382 . S
C1201 C1217 1.411 . S
C1202 C1200 1.403 1_565 S
C1202 C1203 1.489 . S
C1202 C1216 1.411 . S
C1203 C1202 1.489 . S
C1203 C1204 1.383 1_565 S
C1203 C1208 1.382 . S
C1204 H1181 0.950 . S
C1204 C1203 1.383 1_545 S
C1204 C1205 1.395 . S
C1205 H1182 0.950 . S
C1205 C1204 1.395 . S
C1205 C1206 1.288 1_545 S
C1206 C1205 1.288 1_565 S
C1206 C1207 1.392 . S
C1207 H1183 0.951 . S
C1207 C1206 1.392 . S
C1207 C1208 1.392 . S
C1208 H1184 0.949 . S
C1208 C1203 1.382 . S
C1208 C1207 1.392 . S
C1209 C1210 1.376 . S
C1209 C1214 1.386 1_565 S
C1209 C1215 1.483 . S
C1210 H1185 0.949 . S
C1210 C1209 1.376 . S
C1210 C1211 1.397 . S
C1211 H1186 0.950 . S
C1211 C1210 1.397 . S
C1211 C1212 1.391 . S
C1212 C1211 1.391 . S
C1212 C1213 1.405 1_565 S
C1213 H1187 0.950 . S
C1213 C1212 1.405 1_545 S
C1213 C1214 1.367 . S
C1214 H1188 0.950 . S
C1214 C1209 1.386 1_545 S
C1214 C1213 1.367 . S
C1215 C1209 1.483 . S
C1215 C1216 1.382 . S
C1215 C1217 1.403 1_565 S
C1216 H1189 0.950 . S
C1216 C1202 1.411 . S
C1216 C1215 1.382 . S
C1217 C1201 1.411 . S
C1217 C1215 1.403 1_545 S
C1217 C1218 1.489 . S
C1218 C1217 1.489 . S
C1218 C1219 1.383 1_545 S
C1218 C1223 1.382 . S
C1219 H1190 0.950 . S
C1219 C1218 1.383 1_565 S
C1219 C1220 1.395 . S
C1220 H1191 0.950 . S
C1220 C1219 1.395 . S
C1220 C1221 1.288 1_565 S
C1221 C1220 1.288 1_545 S
C1221 C1222 1.392 . S
C1222 H1192 0.951 . S
C1222 C1221 1.392 . S
C1222 C1223 1.392 . S
C1223 H1193 0.949 . S
C1223 C1218 1.382 . S
C1223 C1222 1.392 . S
H1224 C1243 0.949 . S
H1225 C1244 0.950 . S
H1226 C1246 0.950 . S
H1227 C1247 0.950 . S
H1228 C1249 0.950 . S
H1229 C1252 0.950 . S
H1230 C1253 0.950 . S
H1231 C1255 0.951 . S
H1232 C1256 0.949 . S
H1233 C1258 0.949 . S
H1234 C1259 0.950 . S
H1235 C1261 0.950 . S
H1236 C1262 0.950 . S
H1237 C1264 0.950 . S
H1238 C1267 0.950 . S
H1239 C1268 0.950 . S
H1240 C1270 0.951 . S
H1241 C1271 0.949 . S
C1242 C1243 1.379 . S
C1242 C1247 1.385 1_545 S
C1242 C1248 1.505 . S
C1243 H1224 0.949 . S
C1243 C1242 1.379 . S
C1243 C1244 1.397 . S
C1244 H1225 0.950 . S
C1244 C1243 1.397 . S
C1244 C1245 1.391 1_545 S
C1245 C1244 1.391 1_565 S
C1245 C1246 1.405 . S
C1246 H1226 0.950 . S
C1246 C1245 1.405 . S
C1246 C1247 1.367 . S
C1247 H1227 0.950 . S
C1247 C1242 1.385 1_565 S
C1247 C1246 1.367 . S
C1248 C1242 1.505 . S
C1248 C1249 1.360 . S
C1248 C1250 1.398 1_545 S
C1249 H1228 0.950 . S
C1249 C1248 1.360 . S
C1249 C1265 1.446 . S
C1250 C1248 1.398 1_565 S
C1250 C1251 1.486 . S
C1250 C1264 1.437 . S
C1251 C1250 1.486 . S
C1251 C1252 1.341 1_565 S
C1251 C1256 1.405 . S
C1252 H1229 0.950 . S
C1252 C1251 1.341 1_545 S
C1252 C1253 1.395 . S
C1253 H1230 0.950 . S
C1253 C1252 1.395 . S
C1253 C1254 1.288 . S
C1254 C1253 1.288 . S
C1254 C1255 1.392 1_545 S
C1255 H1231 0.951 . S
C1255 C1254 1.392 1_565 S
C1255 C1256 1.392 . S
C1256 H1232 0.949 . S
C1256 C1251 1.405 . S
C1256 C1255 1.392 . S
C1257 C1258 1.379 1_545 S
C1257 C1262 1.385 . S
C1257 C1263 1.498 1_545 S
C1258 H1233 0.949 . S
C1258 C1257 1.379 1_565 S
C1258 C1259 1.397 . S
C1259 H1234 0.950 . S
C1259 C1258 1.397 . S
C1259 C1260 1.391 1_565 S
C1260 C1259 1.391 1_545 S
C1260 C1261 1.405 . S
C1261 H1235 0.950 . S
C1261 C1260 1.405 . S
C1261 C1262 1.367 . S
C1262 H1236 0.950 . S
C1262 C1257 1.385 . S
C1262 C1261 1.367 . S
C1263 C1257 1.498 1_565 S
C1263 C1264 1.367 . S
C1263 C1265 1.398 1_565 S
C1264 H1237 0.950 . S
C1264 C1250 1.437 . S
C1264 C1263 1.367 . S
C1265 C1249 1.446 . S
C1265 C1263 1.398 1_545 S
C1265 C1266 1.486 . S
C1266 C1265 1.486 . S
C1266 C1267 1.324 1_545 S
C1266 C1271 1.415 . S
C1267 H1238 0.950 . S
C1267 C1266 1.324 1_565 S
C1267 C1268 1.395 . S
C1268 H1239 0.950 . S
C1268 C1267 1.395 . S
C1268 C1269 1.324 . S
C1269 C1268 1.324 . S
C1269 C1270 1.323 1_565 S
C1270 H1240 0.951 . S
C1270 C1269 1.323 1_545 S
C1270 C1271 1.392 . S
C1271 H1241 0.949 . S
C1271 C1266 1.415 . S
C1271 C1270 1.392 . S
H1272 C1291 0.949 . S
H1273 C1292 0.950 . S
H1274 C1294 0.950 . S
H1275 C1295 0.950 . S
H1276 C1297 0.950 . S
H1277 C1300 0.950 . S
H1278 C1301 0.950 . S
H1279 C1303 0.951 . S
H1280 C1304 0.949 . S
H1281 C1306 0.949 . S
H1282 C1307 0.950 . S
H1283 C1309 0.950 . S
H1284 C1310 0.950 . S
H1285 C1312 0.950 . S
H1286 C1315 0.950 . S
H1287 C1316 0.950 . S
H1288 C1318 0.951 . S
H1289 C1319 0.949 . S
C1290 C1291 1.376 . S
C1290 C1295 1.386 1_455 S
C1290 C1296 1.483 . S
C1291 H1272 0.949 . S
C1291 C1290 1.376 . S
C1291 C1292 1.397 . S
C1292 H1273 0.950 . S
C1292 C1291 1.397 . S
C1292 C1293 1.391 . S
C1293 C1292 1.391 . S
C1293 C1294 1.405 1_455 S
C1294 H1274 0.950 . S
C1294 C1293 1.405 1_655 S
C1294 C1295 1.367 . S
C1295 H1275 0.950 . S
C1295 C1290 1.386 1_655 S
C1295 C1294 1.367 . S
C1296 C1290 1.483 . S
C1296 C1297 1.382 . S
C1296 C1298 1.403 1_455 S
C1297 H1276 0.950 . S
C1297 C1296 1.382 . S
C1297 C1313 1.411 . S
C1298 C1296 1.403 1_655 S
C1298 C1299 1.489 . S
C1298 C1312 1.411 . S
C1299 C1298 1.489 . S
C1299 C1300 1.383 1_655 S
C1299 C1304 1.382 . S
C1300 H1277 0.950 . S
C1300 C1299 1.383 1_455 S
C1300 C1301 1.395 . S
C1301 H1278 0.950 . S
C1301 C1300 1.395 . S
C1301 C1302 1.288 1_455 S
C1302 C1301 1.288 1_655 S
C1302 C1303 1.392 . S
C1303 H1279 0.951 . S
C1303 C1302 1.392 . S
C1303 C1304 1.392 . S
C1304 H1280 0.949 . S
C1304 C1299 1.382 . S
C1304 C1303 1.392 . S
C1305 C1306 1.376 . S
C1305 C1310 1.386 1_655 S
C1305 C1311 1.483 . S
C1306 H1281 0.949 . S
C1306 C1305 1.376 . S
C1306 C1307 1.397 . S
C1307 H1282 0.950 . S
C1307 C1306 1.397 . S
C1307 C1308 1.391 . S
C1308 C1307 1.391 . S
C1308 C1309 1.405 1_655 S
C1309 H1283 0.950 . S
C1309 C1308 1.405 1_455 S
C1309 C1310 1.367 . S
C1310 H1284 0.950 . S
C1310 C1305 1.386 1_455 S
C1310 C1309 1.367 . S
C1311 C1305 1.483 . S
C1311 C1312 1.382 . S
C1311 C1313 1.403 1_655 S
C1312 H1285 0.950 . S
C1312 C1298 1.411 . S
C1312 C1311 1.382 . S
C1313 C1297 1.411 . S
C1313 C1311 1.403 1_455 S
C1313 C1314 1.489 . S
C1314 C1313 1.489 . S
C1314 C1315 1.383 1_455 S
C1314 C1319 1.382 . S
C1315 H1286 0.950 . S
C1315 C1314 1.383 1_655 S
C1315 C1316 1.395 . S
C1316 H1287 0.950 . S
C1316 C1315 1.395 . S
C1316 C1317 1.288 1_655 S
C1317 C1316 1.288 1_455 S
C1317 C1318 1.392 . S
C1318 H1288 0.951 . S
C1318 C1317 1.392 . S
C1318 C1319 1.392 . S
C1319 H1289 0.949 . S
C1319 C1314 1.382 . S
C1319 C1318 1.392 . S
H1320 C1339 0.949 . S
H1321 C1340 0.950 . S
H1322 C1342 0.950 . S
H1323 C1343 0.950 . S
H1324 C1345 0.950 . S
H1325 C1348 0.950 . S
H1326 C1349 0.950 . S
H1327 C1351 0.951 . S
H1328 C1352 0.949 . S
H1329 C1354 0.949 . S
H1330 C1355 0.950 . S
H1331 C1357 0.950 . S
H1332 C1358 0.950 . S
H1333 C1360 0.950 . S
H1334 C1363 0.950 . S
H1335 C1364 0.950 . S
H1336 C1366 0.951 . S
H1337 C1367 0.949 . S
C1338 C1339 1.376 . S
C1338 C1343 1.386 . S
C1338 C1344 1.483 . S
C1339 H1320 0.949 . S
C1339 C1338 1.376 . S
C1339 C1340 1.397 . S
C1340 H1321 0.950 . S
C1340 C1339 1.397 . S
C1340 C1341 1.391 . S
C1341 C1340 1.391 . S
C1341 C1342 1.405 . S
C1342 H1322 0.950 . S
C1342 C1341 1.405 . S
C1342 C1343 1.367 . S
C1343 H1323 0.950 . S
C1343 C1338 1.386 . S
C1343 C1342 1.367 . S
C1344 C1338 1.483 . S
C1344 C1345 1.382 . S
C1344 C1346 1.403 . S
C1345 H1324 0.950 . S
C1345 C1344 1.382 . S
C1345 C1361 1.411 . S
C1346 C1344 1.403 . S
C1346 C1347 1.489 . S
C1346 C1360 1.411 . S
C1347 C1346 1.489 . S
C1347 C1348 1.383 . S
C1347 C1352 1.382 . S
C1348 H1325 0.950 . S
C1348 C1347 1.383 . S
C1348 C1349 1.395 . S
C1349 H1326 0.950 . S
C1349 C1348 1.395 . S
C1349 C1350 1.288 . S
C1350 C1349 1.288 . S
C1350 C1351 1.392 . S
C1351 H1327 0.951 . S
C1351 C1350 1.392 . S
C1351 C1352 1.392 . S
C1352 H1328 0.949 . S
C1352 C1347 1.382 . S
C1352 C1351 1.392 . S
C1353 C1354 1.376 . S
C1353 C1358 1.386 . S
C1353 C1359 1.483 . S
C1354 H1329 0.949 . S
C1354 C1353 1.376 . S
C1354 C1355 1.397 . S
C1355 H1330 0.950 . S
C1355 C1354 1.397 . S
C1355 C1356 1.391 . S
C1356 C1355 1.391 . S
C1356 C1357 1.405 . S
C1357 H1331 0.950 . S
C1357 C1356 1.405 . S
C1357 C1358 1.367 . S
C1358 H1332 0.950 . S
C1358 C1353 1.386 . S
C1358 C1357 1.367 . S
C1359 C1353 1.483 . S
C1359 C1360 1.382 . S
C1359 C1361 1.403 . S
C1360 H1333 0.950 . S
C1360 C1346 1.411 . S
C1360 C1359 1.382 . S
C1361 C1345 1.411 . S
C1361 C1359 1.403 . S
C1361 C1362 1.489 . S
C1362 C1361 1.489 . S
C1362 C1363 1.383 . S
C1362 C1367 1.382 . S
C1363 H1334 0.950 . S
C1363 C1362 1.383 . S
C1363 C1364 1.395 . S
C1364 H1335 0.950 . S
C1364 C1363 1.395 . S
C1364 C1365 1.288 . S
C1365 C1364 1.288 . S
C1365 C1366 1.392 . S
C1366 H1336 0.951 . S
C1366 C1365 1.392 . S
C1366 C1367 1.392 . S
C1367 H1337 0.949 . S
C1367 C1362 1.382 . S
C1367 C1366 1.392 . S
H1368 C1387 0.949 . S
H1369 C1388 0.950 . S
H1370 C1390 0.950 . S
H1371 C1391 0.950 . S
H1372 C1393 0.950 . S
H1373 C1396 0.950 . S
H1374 C1397 0.950 . S
H1375 C1399 0.951 . S
H1376 C1400 0.949 . S
H1377 C1402 0.949 . S
H1378 C1403 0.950 . S
H1379 C1405 0.950 . S
H1380 C1406 0.950 . S
H1381 C1408 0.950 . S
H1382 C1411 0.950 . S
H1383 C1412 0.950 . S
H1384 C1414 0.951 . S
H1385 C1415 0.949 . S
C1386 C1387 1.376 . S
C1386 C1391 1.386 . S
C1386 C1392 1.483 . S
C1387 H1368 0.949 . S
C1387 C1386 1.376 . S
C1387 C1388 1.397 . S
C1388 H1369 0.950 . S
C1388 C1387 1.397 . S
C1388 C1389 1.391 . S
C1389 C1388 1.391 . S
C1389 C1390 1.405 . S
C1390 H1370 0.950 . S
C1390 C1389 1.405 . S
C1390 C1391 1.367 . S
C1391 H1371 0.950 . S
C1391 C1386 1.386 . S
C1391 C1390 1.367 . S
C1392 C1386 1.483 . S
C1392 C1393 1.382 . S
C1392 C1394 1.403 . S
C1393 H1372 0.950 . S
C1393 C1392 1.382 . S
C1393 C1409 1.411 . S
C1394 C1392 1.403 . S
C1394 C1395 1.489 . S
C1394 C1408 1.411 . S
C1395 C1394 1.489 . S
C1395 C1396 1.383 . S
C1395 C1400 1.382 . S
C1396 H1373 0.950 . S
C1396 C1395 1.383 . S
C1396 C1397 1.395 . S
C1397 H1374 0.950 . S
C1397 C1396 1.395 . S
C1397 C1398 1.288 . S
C1398 C1397 1.288 . S
C1398 C1399 1.392 . S
C1399 H1375 0.951 . S
C1399 C1398 1.392 . S
C1399 C1400 1.392 . S
C1400 H1376 0.949 . S
C1400 C1395 1.382 . S
C1400 C1399 1.392 . S
C1401 C1402 1.376 . S
C1401 C1406 1.386 . S
C1401 C1407 1.483 . S
C1402 H1377 0.949 . S
C1402 C1401 1.376 . S
C1402 C1403 1.397 . S
C1403 H1378 0.950 . S
C1403 C1402 1.397 . S
C1403 C1404 1.391 . S
C1404 C1403 1.391 . S
C1404 C1405 1.405 . S
C1405 H1379 0.950 . S
C1405 C1404 1.405 . S
C1405 C1406 1.367 . S
C1406 H1380 0.950 . S
C1406 C1401 1.386 . S
C1406 C1405 1.367 . S
C1407 C1401 1.483 . S
C1407 C1408 1.382 . S
C1407 C1409 1.403 . S
C1408 H1381 0.950 . S
C1408 C1394 1.411 . S
C1408 C1407 1.382 . S
C1409 C1393 1.411 . S
C1409 C1407 1.403 . S
C1409 C1410 1.489 . S
C1410 C1409 1.489 . S
C1410 C1411 1.383 . S
C1410 C1415 1.382 . S
C1411 H1382 0.950 . S
C1411 C1410 1.383 . S
C1411 C1412 1.395 . S
C1412 H1383 0.950 . S
C1412 C1411 1.395 . S
C1412 C1413 1.288 . S
C1413 C1412 1.288 . S
C1413 C1414 1.392 . S
C1414 H1384 0.951 . S
C1414 C1413 1.392 . S
C1414 C1415 1.392 . S
C1415 H1385 0.949 . S
C1415 C1410 1.382 . S
C1415 C1414 1.392 . S
H1416 C1435 0.949 . S
H1417 C1436 0.950 . S
H1418 C1438 0.950 . S
H1419 C1439 0.950 . S
H1420 C1441 0.950 . S
H1421 C1444 0.950 . S
H1422 C1445 0.950 . S
H1423 C1447 0.951 . S
H1424 C1448 0.949 . S
H1425 C1450 0.949 . S
H1426 C1451 0.950 . S
H1427 C1453 0.950 . S
H1428 C1454 0.950 . S
H1429 C1456 0.950 . S
H1430 C1459 0.950 . S
H1431 C1460 0.950 . S
H1432 C1462 0.951 . S
H1433 C1463 0.949 . S
C1434 C1435 1.376 . S
C1434 C1439 1.386 . S
C1434 C1440 1.483 . S
C1435 H1416 0.949 . S
C1435 C1434 1.376 . S
C1435 C1436 1.397 . S
C1436 H1417 0.950 . S
C1436 C1435 1.397 . S
C1436 C1437 1.391 . S
C1437 C1436 1.391 . S
C1437 C1438 1.405 . S
C1438 H1418 0.950 . S
C1438 C1437 1.405 . S
C1438 C1439 1.367 . S
C1439 H1419 0.950 . S
C1439 C1434 1.386 . S
C1439 C1438 1.367 . S
C1440 C1434 1.483 . S
C1440 C1441 1.382 . S
C1440 C1442 1.403 . S
C1441 H1420 0.950 . S
C1441 C1440 1.382 . S
C1441 C1457 1.411 . S
C1442 C1440 1.403 . S
C1442 C1443 1.489 . S
C1442 C1456 1.411 . S
C1443 C1442 1.489 . S
C1443 C1444 1.383 . S
C1443 C1448 1.382 . S
C1444 H1421 0.950 . S
C1444 C1443 1.383 . S
C1444 C1445 1.395 . S
C1445 H1422 0.950 . S
C1445 C1444 1.395 . S
C1445 C1446 1.288 . S
C1446 C1445 1.288 . S
C1446 C1447 1.392 . S
C1447 H1423 0.951 . S
C1447 C1446 1.392 . S
C1447 C1448 1.392 . S
C1448 H1424 0.949 . S
C1448 C1443 1.382 . S
C1448 C1447 1.392 . S
C1449 C1450 1.376 . S
C1449 C1454 1.386 . S
C1449 C1455 1.483 . S
C1450 H1425 0.949 . S
C1450 C1449 1.376 . S
C1450 C1451 1.397 . S
C1451 H1426 0.950 . S
C1451 C1450 1.397 . S
C1451 C1452 1.391 . S
C1452 C1451 1.391 . S
C1452 C1453 1.405 . S
C1453 H1427 0.950 . S
C1453 C1452 1.405 . S
C1453 C1454 1.367 . S
C1454 H1428 0.950 . S
C1454 C1449 1.386 . S
C1454 C1453 1.367 . S
C1455 C1449 1.483 . S
C1455 C1456 1.382 . S
C1455 C1457 1.403 . S
C1456 H1429 0.950 . S
C1456 C1442 1.411 . S
C1456 C1455 1.382 . S
C1457 C1441 1.411 . S
C1457 C1455 1.403 . S
C1457 C1458 1.489 . S
C1458 C1457 1.489 . S
C1458 C1459 1.383 . S
C1458 C1463 1.382 . S
C1459 H1430 0.950 . S
C1459 C1458 1.383 . S
C1459 C1460 1.395 . S
C1460 H1431 0.950 . S
C1460 C1459 1.395 . S
C1460 C1461 1.288 . S
C1461 C1460 1.288 . S
C1461 C1462 1.392 . S
C1462 H1432 0.951 . S
C1462 C1461 1.392 . S
C1462 C1463 1.392 . S
C1463 H1433 0.949 . S
C1463 C1458 1.382 . S
C1463 C1462 1.392 . S
H1464 C1483 0.949 . S
H1465 C1484 0.950 . S
H1466 C1486 0.950 . S
H1467 C1487 0.950 . S
H1468 C1489 0.950 . S
H1469 C1492 0.950 . S
H1470 C1493 0.950 . S
H1471 C1495 0.951 . S
H1472 C1496 0.949 . S
H1473 C1498 0.949 . S
H1474 C1499 0.950 . S
H1475 C1501 0.950 . S
H1476 C1502 0.950 . S
H1477 C1504 0.950 . S
H1478 C1507 0.950 . S
H1479 C1508 0.950 . S
H1480 C1510 0.951 . S
H1481 C1511 0.949 . S
C1482 C1483 1.376 . S
C1482 C1487 1.386 . S
C1482 C1488 1.483 . S
C1483 H1464 0.949 . S
C1483 C1482 1.376 . S
C1483 C1484 1.397 . S
C1484 H1465 0.950 . S
C1484 C1483 1.397 . S
C1484 C1485 1.391 . S
C1485 C1484 1.391 . S
C1485 C1486 1.405 . S
C1486 H1466 0.950 . S
C1486 C1485 1.405 . S
C1486 C1487 1.367 . S
C1487 H1467 0.950 . S
C1487 C1482 1.386 . S
C1487 C1486 1.367 . S
C1488 C1482 1.483 . S
C1488 C1489 1.382 . S
C1488 C1490 1.403 . S
C1489 H1468 0.950 . S
C1489 C1488 1.382 . S
C1489 C1505 1.411 . S
C1490 C1488 1.403 . S
C1490 C1491 1.489 . S
C1490 C1504 1.411 . S
C1491 C1490 1.489 . S
C1491 C1492 1.383 . S
C1491 C1496 1.382 . S
C1492 H1469 0.950 . S
C1492 C1491 1.383 . S
C1492 C1493 1.395 . S
C1493 H1470 0.950 . S
C1493 C1492 1.395 . S
C1493 C1494 1.288 . S
C1494 C1493 1.288 . S
C1494 C1495 1.392 . S
C1495 H1471 0.951 . S
C1495 C1494 1.392 . S
C1495 C1496 1.392 . S
C1496 H1472 0.949 . S
C1496 C1491 1.382 . S
C1496 C1495 1.392 . S
C1497 C1498 1.376 . S
C1497 C1502 1.386 . S
C1497 C1503 1.483 . S
C1498 H1473 0.949 . S
C1498 C1497 1.376 . S
C1498 C1499 1.397 . S
C1499 H1474 0.950 . S
C1499 C1498 1.397 . S
C1499 C1500 1.391 . S
C1500 C1499 1.391 . S
C1500 C1501 1.405 . S
C1501 H1475 0.950 . S
C1501 C1500 1.405 . S
C1501 C1502 1.367 . S
C1502 H1476 0.950 . S
C1502 C1497 1.386 . S
C1502 C1501 1.367 . S
C1503 C1497 1.483 . S
C1503 C1504 1.382 . S
C1503 C1505 1.403 . S
C1504 H1477 0.950 . S
C1504 C1490 1.411 . S
C1504 C1503 1.382 . S
C1505 C1489 1.411 . S
C1505 C1503 1.403 . S
C1505 C1506 1.489 . S
C1506 C1505 1.489 . S
C1506 C1507 1.383 . S
C1506 C1511 1.382 . S
C1507 H1478 0.950 . S
C1507 C1506 1.383 . S
C1507 C1508 1.395 . S
C1508 H1479 0.950 . S
C1508 C1507 1.395 . S
C1508 C1509 1.288 . S
C1509 C1508 1.288 . S
C1509 C1510 1.392 . S
C1510 H1480 0.951 . S
C1510 C1509 1.392 . S
C1510 C1511 1.392 . S
C1511 H1481 0.949 . S
C1511 C1506 1.382 . S
C1511 C1510 1.392 . S
H1512 C1524 0.931 1_455 S
H1513 C1526 0.930 . S
H1514 C1527 0.930 . S
H1515 C1531 0.959 . S
H1516 C1531 0.959 . S
H1517 C1531 0.961 . S
H1518 C1532 0.960 . S
H1519 C1532 0.961 . S
H1520 C1532 0.959 . S
H1521 C1535 0.929 . S
H1522 C1536 0.931 . S
H1523 C1538 0.928 . S
C1524 H1512 0.931 1_655 S
C1524 C1525 1.399 . S
C1524 C1529 1.399 . S
C1525 C1524 1.399 . S
C1525 C1526 1.376 . S
C1526 H1513 0.930 . S
C1526 C1525 1.376 . S
C1526 C1527 1.388 . S
C1527 H1514 0.930 . S
C1527 C1526 1.388 . S
C1527 C1528 1.390 . S
C1528 C1527 1.390 . S
C1528 C1529 1.394 . S
C1528 C1534 1.465 . S
C1529 C1524 1.399 . S
C1529 C1528 1.394 . S
C1529 C1530 1.516 . S
C1530 C1529 1.516 . S
C1530 C1531 1.502 1_655 S
C1530 C1532 1.561 . S
C1530 C1533 1.526 . S
C1531 H1515 0.959 . S
C1531 H1516 0.959 . S
C1531 H1517 0.961 . S
C1531 C1530 1.502 1_455 S
C1532 H1518 0.960 . S
C1532 H1519 0.961 . S
C1532 H1520 0.959 . S
C1532 C1530 1.561 . S
C1533 C1530 1.526 . S
C1533 C1534 1.396 . S
C1533 C1538 1.390 . S
C1534 C1528 1.465 . S
C1534 C1533 1.396 . S
C1534 C1535 1.399 . S
C1535 H1521 0.929 . S
C1535 C1534 1.399 . S
C1535 C1536 1.385 . S
C1536 H1522 0.931 . S
C1536 C1535 1.385 . S
C1536 C1537 1.389 . S
C1537 C1536 1.389 . S
C1537 C1538 1.387 . S
C1538 H1523 0.928 . S
C1538 C1533 1.390 . S
C1538 C1537 1.387 . S
H1539 C1551 0.930 . S
H1540 C1553 0.930 . S
H1541 C1554 0.930 . S
H1542 C1558 0.959 . S
H1543 C1558 0.959 . S
H1544 C1558 0.961 . S
H1545 C1559 0.960 . S
H1546 C1559 0.961 . S
H1547 C1559 0.959 . S
H1548 C1562 0.929 . S
H1549 C1563 0.931 . S
H1550 C1565 0.930 . S
C1551 H1539 0.930 . S
C1551 C1552 1.399 . S
C1551 C1556 1.399 . S
C1552 C1551 1.399 . S
C1552 C1553 1.376 . S
C1553 H1540 0.930 . S
C1553 C1552 1.376 . S
C1553 C1554 1.388 . S
C1554 H1541 0.930 . S
C1554 C1553 1.388 . S
C1554 C1555 1.390 . S
C1555 C1554 1.390 . S
C1555 C1556 1.394 . S
C1555 C1561 1.465 . S
C1556 C1551 1.399 . S
C1556 C1555 1.394 . S
C1556 C1557 1.516 . S
C1557 C1556 1.516 . S
C1557 C1558 1.502 . S
C1557 C1559 1.561 . S
C1557 C1560 1.526 . S
C1558 H1542 0.959 . S
C1558 H1543 0.959 . S
C1558 H1544 0.961 . S
C1558 C1557 1.502 . S
C1559 H1545 0.960 . S
C1559 H1546 0.961 . S
C1559 H1547 0.959 . S
C1559 C1557 1.561 . S
C1560 C1557 1.526 . S
C1560 C1561 1.396 . S
C1560 C1565 1.390 . S
C1561 C1555 1.465 . S
C1561 C1560 1.396 . S
C1561 C1562 1.399 . S
C1562 H1548 0.929 . S
C1562 C1561 1.399 . S
C1562 C1563 1.385 . S
C1563 H1549 0.931 . S
C1563 C1562 1.385 . S
C1563 C1564 1.389 . S
C1564 C1563 1.389 . S
C1564 C1565 1.387 . S
C1565 H1550 0.930 . S
C1565 C1560 1.390 . S
C1565 C1564 1.387 . S
H1566 C1578 0.930 . S
H1567 C1580 0.930 . S
H1568 C1581 0.930 . S
H1569 C1585 0.959 . S
H1570 C1585 0.959 . S
H1571 C1585 0.961 . S
H1572 C1586 0.960 . S
H1573 C1586 0.961 . S
H1574 C1586 0.959 . S
H1575 C1589 0.929 . S
H1576 C1590 0.931 . S
H1577 C1592 0.930 . S
C1578 H1566 0.930 . S
C1578 C1579 1.399 . S
C1578 C1583 1.399 . S
C1579 C1578 1.399 . S
C1579 C1580 1.376 1_545 S
C1580 H1567 0.930 . S
C1580 C1579 1.376 1_565 S
C1580 C1581 1.388 . S
C1581 H1568 0.930 . S
C1581 C1580 1.388 . S
C1581 C1582 1.390 . S
C1582 C1581 1.390 . S
C1582 C1583 1.394 1_565 S
C1582 C1588 1.465 . S
C1583 C1578 1.399 . S
C1583 C1582 1.394 1_545 S
C1583 C1584 1.516 . S
C1584 C1583 1.516 . S
C1584 C1585 1.502 . S
C1584 C1586 1.561 . S
C1584 C1587 1.526 . S
C1585 H1569 0.959 . S
C1585 H1570 0.959 . S
C1585 H1571 0.961 . S
C1585 C1584 1.502 . S
C1586 H1572 0.960 . S
C1586 H1573 0.961 . S
C1586 H1574 0.959 . S
C1586 C1584 1.561 . S
C1587 C1584 1.526 . S
C1587 C1588 1.396 1_545 S
C1587 C1592 1.390 . S
C1588 C1582 1.465 . S
C1588 C1587 1.396 1_565 S
C1588 C1589 1.399 . S
C1589 H1575 0.929 . S
C1589 C1588 1.399 . S
C1589 C1590 1.385 . S
C1590 H1576 0.931 . S
C1590 C1589 1.385 . S
C1590 C1591 1.389 1_565 S
C1591 C1590 1.389 1_545 S
C1591 C1592 1.387 . S
C1592 H1577 0.930 . S
C1592 C1587 1.390 . S
C1592 C1591 1.387 . S
H1593 C1605 0.930 . S
H1594 C1607 0.930 . S
H1595 C1608 0.930 . S
H1596 C1612 0.959 . S
H1597 C1612 0.959 . S
H1598 C1612 0.961 . S
H1599 C1613 0.960 . S
H1600 C1613 0.961 . S
H1601 C1613 0.959 . S
H1602 C1616 0.929 . S
H1603 C1617 0.931 . S
H1604 C1619 0.930 . S
C1605 H1593 0.930 . S
C1605 C1606 1.399 1_545 S
C1605 C1610 1.399 . S
C1606 C1605 1.399 1_565 S
C1606 C1607 1.376 . S
C1607 H1594 0.930 . S
C1607 C1606 1.376 . S
C1607 C1608 1.388 . S
C1608 H1595 0.930 . S
C1608 C1607 1.388 . S
C1608 C1609 1.390 . S
C1609 C1608 1.390 . S
C1609 C1610 1.394 1_565 S
C1609 C1615 1.465 . S
C1610 C1605 1.399 . S
C1610 C1609 1.394 1_545 S
C1610 C1611 1.516 . S
C1611 C1610 1.516 . S
C1611 C1612 1.502 . S
C1611 C1613 1.561 . S
C1611 C1614 1.526 . S
C1612 H1596 0.959 . S
C1612 H1597 0.959 . S
C1612 H1598 0.961 . S
C1612 C1611 1.502 . S
C1613 H1599 0.960 . S
C1613 H1600 0.961 . S
C1613 H1601 0.959 . S
C1613 C1611 1.561 . S
C1614 C1611 1.526 . S
C1614 C1615 1.396 1_545 S
C1614 C1619 1.390 . S
C1615 C1609 1.465 . S
C1615 C1614 1.396 1_565 S
C1615 C1616 1.399 . S
C1616 H1602 0.929 . S
C1616 C1615 1.399 . S
C1616 C1617 1.385 . S
C1617 H1603 0.931 . S
C1617 C1616 1.385 . S
C1617 C1618 1.389 . S
C1618 C1617 1.389 . S
C1618 C1619 1.387 1_565 S
C1619 H1604 0.930 . S
C1619 C1614 1.390 . S
C1619 C1618 1.387 1_545 S
H1620 C1632 0.930 . S
H1621 C1634 0.930 . S
H1622 C1635 0.930 . S
H1623 C1639 0.959 . S
H1624 C1639 0.959 . S
H1625 C1639 0.961 . S
H1626 C1640 0.960 . S
H1627 C1640 0.961 . S
H1628 C1640 0.959 1_655 S
H1629 C1643 0.929 . S
H1630 C1644 0.931 . S
H1631 C1646 0.930 . S
C1632 H1620 0.930 . S
C1632 C1633 1.399 . S
C1632 C1637 1.399 . S
C1633 C1632 1.399 . S
C1633 C1634 1.376 1_455 S
C1634 H1621 0.930 . S
C1634 C1633 1.376 1_655 S
C1634 C1635 1.388 . S
C1635 H1622 0.930 . S
C1635 C1634 1.388 . S
C1635 C1636 1.390 . S
C1636 C1635 1.390 . S
C1636 C1637 1.394 1_655 S
C1636 C1642 1.465 . S
C1637 C1632 1.399 . S
C1637 C1636 1.394 1_455 S
C1637 C1638 1.516 . S
C1638 C1637 1.516 . S
C1638 C1639 1.502 . S
C1638 C1640 1.561 . S
C1638 C1641 1.526 . S
C1639 H1623 0.959 . S
C1639 H1624 0.959 . S
C1639 H1625 0.961 . S
C1639 C1638 1.502 . S
C1640 H1626 0.960 . S
C1640 H1627 0.961 . S
C1640 H1628 0.959 1_455 S
C1640 C1638 1.561 . S
C1641 C1638 1.526 . S
C1641 C1642 1.396 1_455 S
C1641 C1646 1.390 . S
C1642 C1636 1.465 . S
C1642 C1641 1.396 1_655 S
C1642 C1643 1.399 . S
C1643 H1629 0.929 . S
C1643 C1642 1.399 . S
C1643 C1644 1.385 . S
C1644 H1630 0.931 . S
C1644 C1643 1.385 . S
C1644 C1645 1.389 1_655 S
C1645 C1644 1.389 1_455 S
C1645 C1646 1.387 . S
C1646 H1631 0.930 . S
C1646 C1641 1.390 . S
C1646 C1645 1.387 . S
H1647 C1659 0.930 . S
H1648 C1661 0.930 . S
H1649 C1662 0.930 . S
H1650 C1666 0.959 . S
H1651 C1666 0.959 . S
H1652 C1666 0.961 . S
H1653 C1667 0.960 . S
H1654 C1667 0.961 . S
H1655 C1667 0.959 . S
H1656 C1670 0.929 . S
H1657 C1671 0.931 . S
H1658 C1673 0.930 . S
C1659 H1647 0.930 . S
C1659 C1660 1.399 . S
C1659 C1664 1.399 . S
C1660 C1659 1.399 . S
C1660 C1661 1.376 . S
C1661 H1648 0.930 . S
C1661 C1660 1.376 . S
C1661 C1662 1.388 . S
C1662 H1649 0.930 . S
C1662 C1661 1.388 . S
C1662 C1663 1.390 . S
C1663 C1662 1.390 . S
C1663 C1664 1.394 . S
C1663 C1669 1.465 . S
C1664 C1659 1.399 . S
C1664 C1663 1.394 . S
C1664 C1665 1.516 . S
C1665 C1664 1.516 . S
C1665 C1666 1.502 . S
C1665 C1667 1.561 . S
C1665 C1668 1.526 . S
C1666 H1650 0.959 . S
C1666 H1651 0.959 . S
C1666 H1652 0.961 . S
C1666 C1665 1.502 . S
C1667 H1653 0.960 . S
C1667 H1654 0.961 . S
C1667 H1655 0.959 . S
C1667 C1665 1.561 . S
C1668 C1665 1.526 . S
C1668 C1669 1.396 . S
C1668 C1673 1.390 . S
C1669 C1663 1.465 . S
C1669 C1668 1.396 . S
C1669 C1670 1.399 . S
C1670 H1656 0.929 . S
C1670 C1669 1.399 . S
C1670 C1671 1.385 . S
C1671 H1657 0.931 . S
C1671 C1670 1.385 . S
C1671 C1672 1.389 . S
C1672 C1671 1.389 . S
C1672 C1673 1.387 . S
C1673 H1658 0.930 . S
C1673 C1668 1.390 . S
C1673 C1672 1.387 . S
H1674 C1686 0.930 . S
H1675 C1688 0.930 . S
H1676 C1689 0.930 . S
H1677 C1693 0.959 . S
H1678 C1693 0.959 . S
H1679 C1693 0.961 . S
H1680 C1694 0.960 . S
H1681 C1694 0.961 . S
H1682 C1694 0.959 1_455 S
H1683 C1697 0.929 . S
H1684 C1698 0.931 . S
H1685 C1700 0.930 . S
C1686 H1674 0.930 . S
C1686 C1687 1.399 1_655 S
C1686 C1691 1.402 . S
C1687 C1686 1.399 1_455 S
C1687 C1688 1.376 . S
C1688 H1675 0.930 . S
C1688 C1687 1.376 . S
C1688 C1689 1.388 . S
C1689 H1676 0.930 . S
C1689 C1688 1.388 . S
C1689 C1690 1.390 . S
C1690 C1689 1.390 . S
C1690 C1691 1.389 1_455 S
C1690 C1696 1.465 . S
C1691 C1686 1.402 . S
C1691 C1690 1.389 1_655 S
C1691 C1692 1.518 . S
C1692 C1691 1.518 . S
C1692 C1693 1.502 . S
C1692 C1694 1.561 . S
C1692 C1695 1.569 . S
C1693 H1677 0.959 . S
C1693 H1678 0.959 . S
C1693 H1679 0.961 . S
C1693 C1692 1.502 . S
C1694 H1680 0.960 . S
C1694 H1681 0.961 . S
C1694 H1682 0.959 1_655 S
C1694 C1692 1.561 . S
C1695 C1692 1.569 . S
C1695 C1696 1.359 1_655 S
C1695 C1700 1.382 . S
C1696 C1690 1.465 . S
C1696 C1695 1.359 1_455 S
C1696 C1697 1.399 . S
C1697 H1683 0.929 . S
C1697 C1696 1.399 . S
C1697 C1698 1.385 . S
C1698 H1684 0.931 . S
C1698 C1697 1.385 . S
C1698 C1699 1.389 . S
C1699 C1698 1.389 . S
C1699 C1700 1.387 1_455 S
C1700 H1685 0.930 . S
C1700 C1695 1.382 . S
C1700 C1699 1.387 1_655 S
H1701 C1713 0.930 . S
H1702 C1715 0.930 . S
H1703 C1716 0.930 . S
H1704 C1720 0.959 . S
H1705 C1720 0.959 . S
H1706 C1720 0.961 . S
H1707 C1721 0.960 . S
H1708 C1721 0.961 . S
H1709 C1721 0.959 . S
H1710 C1724 0.929 . S
H1711 C1725 0.931 . S
H1712 C1727 0.930 . S
C1713 H1701 0.930 . S
C1713 C1714 1.399 . S
C1713 C1718 1.399 . S
C1714 C1713 1.399 . S
C1714 C1715 1.376 . S
C1715 H1702 0.930 . S
C1715 C1714 1.376 . S
C1715 C1716 1.388 . S
C1716 H1703 0.930 . S
C1716 C1715 1.388 . S
C1716 C1717 1.390 . S
C1717 C1716 1.390 . S
C1717 C1718 1.394 . S
C1717 C1723 1.465 . S
C1718 C1713 1.399 . S
C1718 C1717 1.394 . S
C1718 C1719 1.516 . S
C1719 C1718 1.516 . S
C1719 C1720 1.502 . S
C1719 C1721 1.561 . S
C1719 C1722 1.526 . S
C1720 H1704 0.959 . S
C1720 H1705 0.959 . S
C1720 H1706 0.961 . S
C1720 C1719 1.502 . S
C1721 H1707 0.960 . S
C1721 H1708 0.961 . S
C1721 H1709 0.959 . S
C1721 C1719 1.561 . S
C1722 C1719 1.526 . S
C1722 C1723 1.396 . S
C1722 C1727 1.390 . S
C1723 C1717 1.465 . S
C1723 C1722 1.396 . S
C1723 C1724 1.399 . S
C1724 H1710 0.929 . S
C1724 C1723 1.399 . S
C1724 C1725 1.385 . S
C1725 H1711 0.931 . S
C1725 C1724 1.385 . S
C1725 C1726 1.389 . S
C1726 C1725 1.389 . S
C1726 C1727 1.387 . S
C1727 H1712 0.930 . S
C1727 C1722 1.390 . S
C1727 C1726 1.387 . S
H1728 C1740 0.930 . S
H1729 C1742 0.930 . S
H1730 C1743 0.930 . S
H1731 C1747 0.959 . S
H1732 C1747 0.959 . S
H1733 C1747 0.961 . S
H1734 C1748 0.960 . S
H1735 C1748 0.961 . S
H1736 C1748 0.959 . S
H1737 C1751 0.929 . S
H1738 C1752 0.931 . S
H1739 C1754 0.930 . S
C1740 H1728 0.930 . S
C1740 C1741 1.399 1_545 S
C1740 C1745 1.399 . S
C1741 C1740 1.399 1_565 S
C1741 C1742 1.376 . S
C1742 H1729 0.930 . S
C1742 C1741 1.376 . S
C1742 C1743 1.388 . S
C1743 H1730 0.930 . S
C1743 C1742 1.388 . S
C1743 C1744 1.390 . S
C1744 C1743 1.390 . S
C1744 C1745 1.394 1_565 S
C1744 C1750 1.465 . S
C1745 C1740 1.399 . S
C1745 C1744 1.394 1_545 S
C1745 C1746 1.516 . S
C1746 C1745 1.516 . S
C1746 C1747 1.502 . S
C1746 C1748 1.561 . S
C1746 C1749 1.526 . S
C1747 H1731 0.959 . S
C1747 H1732 0.959 . S
C1747 H1733 0.961 . S
C1747 C1746 1.502 . S
C1748 H1734 0.960 . S
C1748 H1735 0.961 . S
C1748 H1736 0.959 . S
C1748 C1746 1.561 . S
C1749 C1746 1.526 . S
C1749 C1750 1.396 1_545 S
C1749 C1754 1.390 . S
C1750 C1744 1.465 . S
C1750 C1749 1.396 1_565 S
C1750 C1751 1.399 . S
C1751 H1737 0.929 . S
C1751 C1750 1.399 . S
C1751 C1752 1.385 . S
C1752 H1738 0.931 . S
C1752 C1751 1.385 . S
C1752 C1753 1.389 . S
C1753 C1752 1.389 . S
C1753 C1754 1.387 1_565 S
C1754 H1739 0.930 . S
C1754 C1749 1.390 . S
C1754 C1753 1.387 1_545 S
H1755 C1767 0.943 . S
H1756 C1769 0.930 . S
H1757 C1770 0.930 . S
H1758 C1774 0.959 1_545 S
H1759 C1774 0.959 . S
H1760 C1774 0.961 . S
H1761 C1775 0.960 . S
H1762 C1775 0.961 . S
H1763 C1775 0.959 . S
H1764 C1778 0.929 . S
H1765 C1779 0.931 . S
H1766 C1781 0.930 . S
C1767 H1755 0.943 . S
C1767 C1768 1.403 1_565 S
C1767 C1772 1.386 1_565 S
C1768 C1767 1.403 1_545 S
C1768 C1769 1.376 . S
C1769 H1756 0.930 . S
C1769 C1768 1.376 . S
C1769 C1770 1.388 . S
C1770 H1757 0.930 . S
C1770 C1769 1.388 . S
C1770 C1771 1.390 . S
C1771 C1770 1.390 . S
C1771 C1772 1.392 . S
C1771 C1777 1.465 . S
C1772 C1767 1.386 1_545 S
C1772 C1771 1.392 . S
C1772 C1773 1.516 1_545 S
C1773 C1772 1.516 1_565 S
C1773 C1774 1.502 . S
C1773 C1775 1.561 . S
C1773 C1776 1.526 . S
C1774 H1758 0.959 1_565 S
C1774 H1759 0.959 . S
C1774 H1760 0.961 . S
C1774 C1773 1.502 . S
C1775 H1761 0.960 . S
C1775 H1762 0.961 . S
C1775 H1763 0.959 . S
C1775 C1773 1.561 . S
C1776 C1773 1.526 . S
C1776 C1777 1.396 1_565 S
C1776 C1781 1.390 . S
C1777 C1771 1.465 . S
C1777 C1776 1.396 1_545 S
C1777 C1778 1.399 . S
C1778 H1764 0.929 . S
C1778 C1777 1.399 . S
C1778 C1779 1.385 . S
C1779 H1765 0.931 . S
C1779 C1778 1.385 . S
C1779 C1780 1.389 . S
C1780 C1779 1.389 . S
C1780 C1781 1.387 1_545 S
C1781 H1766 0.930 . S
C1781 C1776 1.390 . S
C1781 C1780 1.387 1_565 S
H1782 C1794 0.930 . S
H1783 C1796 0.930 . S
H1784 C1797 0.930 . S
H1785 C1801 0.959 . S
H1786 C1801 0.959 . S
H1787 C1801 0.961 . S
H1788 C1802 0.960 . S
H1789 C1802 0.961 . S
H1790 C1802 0.963 1_655 S
H1791 C1805 0.929 . S
H1792 C1806 0.931 . S
H1793 C1808 0.930 . S
C1794 H1782 0.930 . S
C1794 C1795 1.399 1_455 S
C1794 C1799 1.399 . S
C1795 C1794 1.399 1_655 S
C1795 C1796 1.376 . S
C1796 H1783 0.930 . S
C1796 C1795 1.376 . S
C1796 C1797 1.388 . S
C1797 H1784 0.930 . S
C1797 C1796 1.388 . S
C1797 C1798 1.390 . S
C1798 C1797 1.390 . S
C1798 C1799 1.394 1_655 S
C1798 C1804 1.465 . S
C1799 C1794 1.399 . S
C1799 C1798 1.394 1_455 S
C1799 C1800 1.516 . S
C1800 C1799 1.516 . S
C1800 C1801 1.502 . S
C1800 C1802 1.561 . S
C1800 C1803 1.526 . S
C1801 H1785 0.959 . S
C1801 H1786 0.959 . S
C1801 H1787 0.961 . S
C1801 C1800 1.502 . S
C1802 H1788 0.960 . S
C1802 H1789 0.961 . S
C1802 H1790 0.963 1_455 S
C1802 C1800 1.561 . S
C1803 C1800 1.526 . S
C1803 C1804 1.396 1_455 S
C1803 C1808 1.390 . S
C1804 C1798 1.465 . S
C1804 C1803 1.396 1_655 S
C1804 C1805 1.399 . S
C1805 H1791 0.929 . S
C1805 C1804 1.399 . S
C1805 C1806 1.385 . S
C1806 H1792 0.931 . S
C1806 C1805 1.385 . S
C1806 C1807 1.389 . S
C1807 C1806 1.389 . S
C1807 C1808 1.387 1_655 S
C1808 H1793 0.930 . S
C1808 C1803 1.390 . S
C1808 C1807 1.387 1_455 S
H1809 C1821 0.930 . S
H1810 C1823 0.930 . S
H1811 C1824 0.930 . S
H1812 C1828 0.959 . S
H1813 C1828 0.959 . S
H1814 C1828 0.961 . S
H1815 C1829 0.960 . S
H1816 C1829 0.961 . S
H1817 C1829 0.959 . S
H1818 C1832 0.929 . S
H1819 C1833 0.931 . S
H1820 C1835 0.930 . S
C1821 H1809 0.930 . S
C1821 C1822 1.399 . S
C1821 C1826 1.399 . S
C1822 C1821 1.399 . S
C1822 C1823 1.376 . S
C1823 H1810 0.930 . S
C1823 C1822 1.376 . S
C1823 C1824 1.388 . S
C1824 H1811 0.930 . S
C1824 C1823 1.388 . S
C1824 C1825 1.390 . S
C1825 C1824 1.390 . S
C1825 C1826 1.394 . S
C1825 C1831 1.465 . S
C1826 C1821 1.399 . S
C1826 C1825 1.394 . S
C1826 C1827 1.516 . S
C1827 C1826 1.516 . S
C1827 C1828 1.502 . S
C1827 C1829 1.561 . S
C1827 C1830 1.526 . S
C1828 H1812 0.959 . S
C1828 H1813 0.959 . S
C1828 H1814 0.961 . S
C1828 C1827 1.502 . S
C1829 H1815 0.960 . S
C1829 H1816 0.961 . S
C1829 H1817 0.959 . S
C1829 C1827 1.561 . S
C1830 C1827 1.526 . S
C1830 C1831 1.396 . S
C1830 C1835 1.390 . S
C1831 C1825 1.465 . S
C1831 C1830 1.396 . S
C1831 C1832 1.399 . S
C1832 H1818 0.929 . S
C1832 C1831 1.399 . S
C1832 C1833 1.385 . S
C1833 H1819 0.931 . S
C1833 C1832 1.385 . S
C1833 C1834 1.389 . S
C1834 C1833 1.389 . S
C1834 C1835 1.387 . S
C1835 H1820 0.930 . S
C1835 C1830 1.390 . S
C1835 C1834 1.387 . S
H1836 C1848 0.930 . S
H1837 C1850 0.930 . S
H1838 C1851 0.930 . S
H1839 C1855 0.959 . S
H1840 C1855 0.959 . S
H1841 C1855 0.961 . S
H1842 C1856 0.960 . S
H1843 C1856 0.961 . S
H1844 C1856 0.959 . S
H1845 C1859 0.929 . S
H1846 C1860 0.931 . S
H1847 C1862 0.930 . S
C1848 H1836 0.930 . S
C1848 C1849 1.399 . S
C1848 C1853 1.399 . S
C1849 C1848 1.399 . S
C1849 C1850 1.376 . S
C1850 H1837 0.930 . S
C1850 C1849 1.376 . S
C1850 C1851 1.388 . S
C1851 H1838 0.930 . S
C1851 C1850 1.388 . S
C1851 C1852 1.390 . S
C1852 C1851 1.390 . S
C1852 C1853 1.394 . S
C1852 C1858 1.465 . S
C1853 C1848 1.399 . S
C1853 C1852 1.394 . S
C1853 C1854 1.516 . S
C1854 C1853 1.516 . S
C1854 C1855 1.502 . S
C1854 C1856 1.561 . S
C1854 C1857 1.526 . S
C1855 H1839 0.959 . S
C1855 H1840 0.959 . S
C1855 H1841 0.961 . S
C1855 C1854 1.502 . S
C1856 H1842 0.960 . S
C1856 H1843 0.961 . S
C1856 H1844 0.959 . S
C1856 C1854 1.561 . S
C1857 C1854 1.526 . S
C1857 C1858 1.396 . S
C1857 C1862 1.390 . S
C1858 C1852 1.465 . S
C1858 C1857 1.396 . S
C1858 C1859 1.399 . S
C1859 H1845 0.929 . S
C1859 C1858 1.399 . S
C1859 C1860 1.385 . S
C1860 H1846 0.931 . S
C1860 C1859 1.385 . S
C1860 C1861 1.389 . S
C1861 C1860 1.389 . S
C1861 C1862 1.387 . S
C1862 H1847 0.930 . S
C1862 C1857 1.390 . S
C1862 C1861 1.387 . S
H1863 C1875 0.930 . S
H1864 C1877 0.930 . S
H1865 C1878 0.930 . S
H1866 C1882 0.959 . S
H1867 C1882 0.959 . S
H1868 C1882 0.961 . S
H1869 C1883 0.960 . S
H1870 C1883 0.961 . S
H1871 C1883 0.959 . S
H1872 C1886 0.929 . S
H1873 C1887 0.931 . S
H1874 C1889 0.930 . S
C1875 H1863 0.930 . S
C1875 C1876 1.399 . S
C1875 C1880 1.399 . S
C1876 C1875 1.399 . S
C1876 C1877 1.376 . S
C1877 H1864 0.930 . S
C1877 C1876 1.376 . S
C1877 C1878 1.388 . S
C1878 H1865 0.930 . S
C1878 C1877 1.388 . S
C1878 C1879 1.390 . S
C1879 C1878 1.390 . S
C1879 C1880 1.394 . S
C1879 C1885 1.465 . S
C1880 C1875 1.399 . S
C1880 C1879 1.394 . S
C1880 C1881 1.516 . S
C1881 C1880 1.516 . S
C1881 C1882 1.502 . S
C1881 C1883 1.561 . S
C1881 C1884 1.526 . S
C1882 H1866 0.959 . S
C1882 H1867 0.959 . S
C1882 H1868 0.961 . S
C1882 C1881 1.502 . S
C1883 H1869 0.960 . S
C1883 H1870 0.961 . S
C1883 H1871 0.959 . S
C1883 C1881 1.561 . S
C1884 C1881 1.526 . S
C1884 C1885 1.396 . S
C1884 C1889 1.390 . S
C1885 C1879 1.465 . S
C1885 C1884 1.396 . S
C1885 C1886 1.399 . S
C1886 H1872 0.929 . S
C1886 C1885 1.399 . S
C1886 C1887 1.385 . S
C1887 H1873 0.931 . S
C1887 C1886 1.385 . S
C1887 C1888 1.389 . S
C1888 C1887 1.389 . S
C1888 C1889 1.387 . S
C1889 H1874 0.930 . S
C1889 C1884 1.390 . S
C1889 C1888 1.387 . S
H1890 C1902 0.930 . S
H1891 C1904 0.930 . S
H1892 C1905 0.930 . S
H1893 C1909 0.959 . S
H1894 C1909 0.959 . S
H1895 C1909 0.961 . S
H1896 C1910 0.960 . S
H1897 C1910 0.961 . S
H1898 C1910 0.959 . S
H1899 C1913 0.929 . S
H1900 C1914 0.931 . S
H1901 C1916 0.930 . S
C1902 H1890 0.930 . S
C1902 C1903 1.399 . S
C1902 C1907 1.399 . S
C1903 C1902 1.399 . S
C1903 C1904 1.376 . S
C1904 H1891 0.930 . S
C1904 C1903 1.376 . S
C1904 C1905 1.388 . S
C1905 H1892 0.930 . S
C1905 C1904 1.388 . S
C1905 C1906 1.390 . S
C1906 C1905 1.390 . S
C1906 C1907 1.394 . S
C1906 C1912 1.465 . S
C1907 C1902 1.399 . S
C1907 C1906 1.394 . S
C1907 C1908 1.516 . S
C1908 C1907 1.516 . S
C1908 C1909 1.502 . S
C1908 C1910 1.561 . S
C1908 C1911 1.526 . S
C1909 H1893 0.959 . S
C1909 H1894 0.959 . S
C1909 H1895 0.961 . S
C1909 C1908 1.502 . S
C1910 H1896 0.960 . S
C1910 H1897 0.961 . S
C1910 H1898 0.959 . S
C1910 C1908 1.561 . S
C1911 C1908 1.526 . S
C1911 C1912 1.396 . S
C1911 C1916 1.390 . S
C1912 C1906 1.465 . S
C1912 C1911 1.396 . S
C1912 C1913 1.399 . S
C1913 H1899 0.929 . S
C1913 C1912 1.399 . S
C1913 C1914 1.385 . S
C1914 H1900 0.931 . S
C1914 C1913 1.385 . S
C1914 C1915 1.389 . S
C1915 C1914 1.389 . S
C1915 C1916 1.387 . S
C1916 H1901 0.930 . S
C1916 C1911 1.390 . S
C1916 C1915 1.387 . S
H1917 C1929 0.930 . S
H1918 C1931 0.930 . S
H1919 C1932 0.930 . S
H1920 C1936 0.959 . S
H1921 C1936 0.959 . S
H1922 C1936 0.961 . S
H1923 C1937 0.960 . S
H1924 C1937 0.961 . S
H1925 C1937 0.959 . S
H1926 C1940 0.929 . S
H1927 C1941 0.931 . S
H1928 C1943 0.930 . S
C1929 H1917 0.930 . S
C1929 C1930 1.399 . S
C1929 C1934 1.399 . S
C1930 C1929 1.399 . S
C1930 C1931 1.376 . S
C1931 H1918 0.930 . S
C1931 C1930 1.376 . S
C1931 C1932 1.388 . S
C1932 H1919 0.930 . S
C1932 C1931 1.388 . S
C1932 C1933 1.390 . S
C1933 C1932 1.390 . S
C1933 C1934 1.394 . S
C1933 C1939 1.465 . S
C1934 C1929 1.399 . S
C1934 C1933 1.394 . S
C1934 C1935 1.516 . S
C1935 C1934 1.516 . S
C1935 C1936 1.502 . S
C1935 C1937 1.561 . S
C1935 C1938 1.526 . S
C1936 H1920 0.959 . S
C1936 H1921 0.959 . S
C1936 H1922 0.961 . S
C1936 C1935 1.502 . S
C1937 H1923 0.960 . S
C1937 H1924 0.961 . S
C1937 H1925 0.959 . S
C1937 C1935 1.561 . S
C1938 C1935 1.526 . S
C1938 C1939 1.396 . S
C1938 C1943 1.390 . S
C1939 C1933 1.465 . S
C1939 C1938 1.396 . S
C1939 C1940 1.399 . S
C1940 H1926 0.929 . S
C1940 C1939 1.399 . S
C1940 C1941 1.385 . S
C1941 H1927 0.931 . S
C1941 C1940 1.385 . S
C1941 C1942 1.389 . S
C1942 C1941 1.389 . S
C1942 C1943 1.387 . S
C1943 H1928 0.930 . S
C1943 C1938 1.390 . S
C1943 C1942 1.387 . S
H1944 C1956 0.930 . S
H1945 C1958 0.930 . S
H1946 C1959 0.930 . S
H1947 C1963 0.959 . S
H1948 C1963 0.959 . S
H1949 C1963 0.961 . S
H1950 C1964 0.960 . S
H1951 C1964 0.961 . S
H1952 C1964 0.959 . S
H1953 C1967 0.929 . S
H1954 C1968 0.931 . S
H1955 C1970 0.930 . S
C1956 H1944 0.930 . S
C1956 C1957 1.399 . S
C1956 C1961 1.399 . S
C1957 C1956 1.399 . S
C1957 C1958 1.376 . S
C1958 H1945 0.930 . S
C1958 C1957 1.376 . S
C1958 C1959 1.388 . S
C1959 H1946 0.930 . S
C1959 C1958 1.388 . S
C1959 C1960 1.390 . S
C1960 C1959 1.390 . S
C1960 C1961 1.394 . S
C1960 C1966 1.465 . S
C1961 C1956 1.399 . S
C1961 C1960 1.394 . S
C1961 C1962 1.516 . S
C1962 C1961 1.516 . S
C1962 C1963 1.502 . S
C1962 C1964 1.561 . S
C1962 C1965 1.526 . S
C1963 H1947 0.959 . S
C1963 H1948 0.959 . S
C1963 H1949 0.961 . S
C1963 C1962 1.502 . S
C1964 H1950 0.960 . S
C1964 H1951 0.961 . S
C1964 H1952 0.959 . S
C1964 C1962 1.561 . S
C1965 C1962 1.526 . S
C1965 C1966 1.396 . S
C1965 C1970 1.390 . S
C1966 C1960 1.465 . S
C1966 C1965 1.396 . S
C1966 C1967 1.399 . S
C1967 H1953 0.929 . S
C1967 C1966 1.399 . S
C1967 C1968 1.385 . S
C1968 H1954 0.931 . S
C1968 C1967 1.385 . S
C1968 C1969 1.389 . S
C1969 C1968 1.389 . S
C1969 C1970 1.387 . S
C1970 H1955 0.930 . S
C1970 C1965 1.390 . S
C1970 C1969 1.387 . S
H1971 C1983 0.930 . S
H1972 C1985 0.930 . S
H1973 C1986 0.930 . S
H1974 C1990 0.959 . S
H1975 C1990 0.959 . S
H1976 C1990 0.961 . S
H1977 C1991 0.960 . S
H1978 C1991 0.961 . S
H1979 C1991 0.959 . S
H1980 C1994 0.929 . S
H1981 C1995 0.931 . S
H1982 C1997 0.930 . S
C1983 H1971 0.930 . S
C1983 C1984 1.399 . S
C1983 C1988 1.399 . S
C1984 C1983 1.399 . S
C1984 C1985 1.376 . S
C1985 H1972 0.930 . S
C1985 C1984 1.376 . S
C1985 C1986 1.388 . S
C1986 H1973 0.930 . S
C1986 C1985 1.388 . S
C1986 C1987 1.390 . S
C1987 C1986 1.390 . S
C1987 C1988 1.394 . S
C1987 C1993 1.465 . S
C1988 C1983 1.399 . S
C1988 C1987 1.394 . S
C1988 C1989 1.516 . S
C1989 C1988 1.516 . S
C1989 C1990 1.502 . S
C1989 C1991 1.561 . S
C1989 C1992 1.526 . S
C1990 H1974 0.959 . S
C1990 H1975 0.959 . S
C1990 H1976 0.961 . S
C1990 C1989 1.502 . S
C1991 H1977 0.960 . S
C1991 H1978 0.961 . S
C1991 H1979 0.959 . S
C1991 C1989 1.561 . S
C1992 C1989 1.526 . S
C1992 C1993 1.396 . S
C1992 C1997 1.390 . S
C1993 C1987 1.465 . S
C1993 C1992 1.396 . S
C1993 C1994 1.399 . S
C1994 H1980 0.929 . S
C1994 C1993 1.399 . S
C1994 C1995 1.385 . S
C1995 H1981 0.931 . S
C1995 C1994 1.385 . S
C1995 C1996 1.389 . S
C1996 C1995 1.389 . S
C1996 C1997 1.387 . S
C1997 H1982 0.930 . S
C1997 C1992 1.390 . S
C1997 C1996 1.387 . S
H1998 C2010 0.930 . S
H1999 C2012 0.930 . S
H2000 C2013 0.930 . S
H2001 C2017 0.959 . S
H2002 C2017 0.959 . S
H2003 C2017 0.961 . S
H2004 C2018 0.960 . S
H2005 C2018 0.961 . S
H2006 C2018 0.959 . S
H2007 C2021 0.929 . S
H2008 C2022 0.931 . S
H2009 C2024 0.930 . S
C2010 H1998 0.930 . S
C2010 C2011 1.399 . S
C2010 C2015 1.399 . S
C2011 C2010 1.399 . S
C2011 C2012 1.376 . S
C2012 H1999 0.930 . S
C2012 C2011 1.376 . S
C2012 C2013 1.388 . S
C2013 H2000 0.930 . S
C2013 C2012 1.388 . S
C2013 C2014 1.390 . S
C2014 C2013 1.390 . S
C2014 C2015 1.394 . S
C2014 C2020 1.465 . S
C2015 C2010 1.399 . S
C2015 C2014 1.394 . S
C2015 C2016 1.516 . S
C2016 C2015 1.516 . S
C2016 C2017 1.502 . S
C2016 C2018 1.561 . S
C2016 C2019 1.526 . S
C2017 H2001 0.959 . S
C2017 H2002 0.959 . S
C2017 H2003 0.961 . S
C2017 C2016 1.502 . S
C2018 H2004 0.960 . S
C2018 H2005 0.961 . S
C2018 H2006 0.959 . S
C2018 C2016 1.561 . S
C2019 C2016 1.526 . S
C2019 C2020 1.396 . S
C2019 C2024 1.390 . S
C2020 C2014 1.465 . S
C2020 C2019 1.396 . S
C2020 C2021 1.399 . S
C2021 H2007 0.929 . S
C2021 C2020 1.399 . S
C2021 C2022 1.385 . S
C2022 H2008 0.931 . S
C2022 C2021 1.385 . S
C2022 C2023 1.389 . S
C2023 C2022 1.389 . S
C2023 C2024 1.387 . S
C2024 H2009 0.930 . S
C2024 C2019 1.390 . S
C2024 C2023 1.387 . S
H2025 C2037 0.930 . S
H2026 C2039 0.930 . S
H2027 C2040 0.930 . S
H2028 C2044 0.959 . S
H2029 C2044 0.959 . S
H2030 C2044 0.961 . S
H2031 C2045 0.960 . S
H2032 C2045 0.961 . S
H2033 C2045 0.959 . S
H2034 C2048 0.929 . S
H2035 C2049 0.931 . S
H2036 C2051 0.930 . S
C2037 H2025 0.930 . S
C2037 C2038 1.399 . S
C2037 C2042 1.399 . S
C2038 C2037 1.399 . S
C2038 C2039 1.376 . S
C2039 H2026 0.930 . S
C2039 C2038 1.376 . S
C2039 C2040 1.388 . S
C2040 H2027 0.930 . S
C2040 C2039 1.388 . S
C2040 C2041 1.390 . S
C2041 C2040 1.390 . S
C2041 C2042 1.394 . S
C2041 C2047 1.465 . S
C2042 C2037 1.399 . S
C2042 C2041 1.394 . S
C2042 C2043 1.516 . S
C2043 C2042 1.516 . S
C2043 C2044 1.502 . S
C2043 C2045 1.561 . S
C2043 C2046 1.526 . S
C2044 H2028 0.959 . S
C2044 H2029 0.959 . S
C2044 H2030 0.961 . S
C2044 C2043 1.502 . S
C2045 H2031 0.960 . S
C2045 H2032 0.961 . S
C2045 H2033 0.959 . S
C2045 C2043 1.561 . S
C2046 C2043 1.526 . S
C2046 C2047 1.396 . S
C2046 C2051 1.390 . S
C2047 C2041 1.465 . S
C2047 C2046 1.396 . S
C2047 C2048 1.399 . S
C2048 H2034 0.929 . S
C2048 C2047 1.399 . S
C2048 C2049 1.385 . S
C2049 H2035 0.931 . S
C2049 C2048 1.385 . S
C2049 C2050 1.389 . S
C2050 C2049 1.389 . S
C2050 C2051 1.387 . S
C2051 H2036 0.930 . S
C2051 C2046 1.390 . S
C2051 C2050 1.387 . S
H2052 C2064 0.930 . S
H2053 C2066 0.930 . S
H2054 C2067 0.930 . S
H2055 C2071 0.959 . S
H2056 C2071 0.959 . S
H2057 C2071 0.961 . S
H2058 C2072 0.960 . S
H2059 C2072 0.961 . S
H2060 C2072 0.959 . S
H2061 C2075 0.929 . S
H2062 C2076 0.931 . S
H2063 C2078 0.930 . S
C2064 H2052 0.930 . S
C2064 C2065 1.399 . S
C2064 C2069 1.399 . S
C2065 C2064 1.399 . S
C2065 C2066 1.376 . S
C2066 H2053 0.930 . S
C2066 C2065 1.376 . S
C2066 C2067 1.388 . S
C2067 H2054 0.930 . S
C2067 C2066 1.388 . S
C2067 C2068 1.390 . S
C2068 C2067 1.390 . S
C2068 C2069 1.394 . S
C2068 C2074 1.465 . S
C2069 C2064 1.399 . S
C2069 C2068 1.394 . S
C2069 C2070 1.516 . S
C2070 C2069 1.516 . S
C2070 C2071 1.502 . S
C2070 C2072 1.561 . S
C2070 C2073 1.526 . S
C2071 H2055 0.959 . S
C2071 H2056 0.959 . S
C2071 H2057 0.961 . S
C2071 C2070 1.502 . S
C2072 H2058 0.960 . S
C2072 H2059 0.961 . S
C2072 H2060 0.959 . S
C2072 C2070 1.561 . S
C2073 C2070 1.526 . S
C2073 C2074 1.396 . S
C2073 C2078 1.390 . S
C2074 C2068 1.465 . S
C2074 C2073 1.396 . S
C2074 C2075 1.399 . S
C2075 H2061 0.929 . S
C2075 C2074 1.399 . S
C2075 C2076 1.385 . S
C2076 H2062 0.931 . S
C2076 C2075 1.385 . S
C2076 C2077 1.389 . S
C2077 C2076 1.389 . S
C2077 C2078 1.387 . S
C2078 H2063 0.930 . S
C2078 C2073 1.390 . S
C2078 C2077 1.387 . S
H2079 C2091 0.930 . S
H2080 C2093 0.930 . S
H2081 C2094 0.930 . S
H2082 C2098 0.959 . S
H2083 C2098 0.959 . S
H2084 C2098 0.961 . S
H2085 C2099 0.960 . S
H2086 C2099 0.961 . S
H2087 C2099 0.959 . S
H2088 C2102 0.929 . S
H2089 C2103 0.931 . S
H2090 C2105 0.930 . S
C2091 H2079 0.930 . S
C2091 C2092 1.399 . S
C2091 C2096 1.399 . S
C2092 C2091 1.399 . S
C2092 C2093 1.376 . S
C2093 H2080 0.930 . S
C2093 C2092 1.376 . S
C2093 C2094 1.388 . S
C2094 H2081 0.930 . S
C2094 C2093 1.388 . S
C2094 C2095 1.390 . S
C2095 C2094 1.390 . S
C2095 C2096 1.394 . S
C2095 C2101 1.465 . S
C2096 C2091 1.399 . S
C2096 C2095 1.394 . S
C2096 C2097 1.516 . S
C2097 C2096 1.516 . S
C2097 C2098 1.502 . S
C2097 C2099 1.561 . S
C2097 C2100 1.526 . S
C2098 H2082 0.959 . S
C2098 H2083 0.959 . S
C2098 H2084 0.961 . S
C2098 C2097 1.502 . S
C2099 H2085 0.960 . S
C2099 H2086 0.961 . S
C2099 H2087 0.959 . S
C2099 C2097 1.561 . S
C2100 C2097 1.526 . S
C2100 C2101 1.396 . S
C2100 C2105 1.390 . S
C2101 C2095 1.465 . S
C2101 C2100 1.396 . S
C2101 C2102 1.399 . S
C2102 H2088 0.929 . S
C2102 C2101 1.399 . S
C2102 C2103 1.385 . S
C2103 H2089 0.931 . S
C2103 C2102 1.385 . S
C2103 C2104 1.389 . S
C2104 C2103 1.389 . S
C2104 C2105 1.387 . S
C2105 H2090 0.930 . S
C2105 C2100 1.390 . S
C2105 C2104 1.387 . S
H2106 C2118 0.930 . S
H2107 C2120 0.930 . S
H2108 C2121 0.930 . S
H2109 C2125 0.959 . S
H2110 C2125 0.959 . S
H2111 C2125 0.961 . S
H2112 C2126 0.960 . S
H2113 C2126 0.961 . S
H2114 C2126 0.959 . S
H2115 C2129 0.929 . S
H2116 C2130 0.931 . S
H2117 C2132 0.930 . S
C2118 H2106 0.930 . S
C2118 C2119 1.399 . S
C2118 C2123 1.399 . S
C2119 C2118 1.399 . S
C2119 C2120 1.376 . S
C2120 H2107 0.930 . S
C2120 C2119 1.376 . S
C2120 C2121 1.388 . S
C2121 H2108 0.930 . S
C2121 C2120 1.388 . S
C2121 C2122 1.390 . S
C2122 C2121 1.390 . S
C2122 C2123 1.394 . S
C2122 C2128 1.465 . S
C2123 C2118 1.399 . S
C2123 C2122 1.394 . S
C2123 C2124 1.516 . S
C2124 C2123 1.516 . S
C2124 C2125 1.502 . S
C2124 C2126 1.561 . S
C2124 C2127 1.526 . S
C2125 H2109 0.959 . S
C2125 H2110 0.959 . S
C2125 H2111 0.961 . S
C2125 C2124 1.502 . S
C2126 H2112 0.960 . S
C2126 H2113 0.961 . S
C2126 H2114 0.959 . S
C2126 C2124 1.561 . S
C2127 C2124 1.526 . S
C2127 C2128 1.396 . S
C2127 C2132 1.390 . S
C2128 C2122 1.465 . S
C2128 C2127 1.396 . S
C2128 C2129 1.399 . S
C2129 H2115 0.929 . S
C2129 C2128 1.399 . S
C2129 C2130 1.385 . S
C2130 H2116 0.931 . S
C2130 C2129 1.385 . S
C2130 C2131 1.389 . S
C2131 C2130 1.389 . S
C2131 C2132 1.387 . S
C2132 H2117 0.930 . S
C2132 C2127 1.390 . S
C2132 C2131 1.387 . S
H2133 C2145 0.930 . S
H2134 C2147 0.930 . S
H2135 C2148 0.930 . S
H2136 C2152 0.959 . S
H2137 C2152 0.959 . S
H2138 C2152 0.961 . S
H2139 C2153 0.960 . S
H2140 C2153 0.961 . S
H2141 C2153 0.959 . S
H2142 C2156 0.929 . S
H2143 C2157 0.931 . S
H2144 C2159 0.930 . S
C2145 H2133 0.930 . S
C2145 C2146 1.399 . S
C2145 C2150 1.399 . S
C2146 C2145 1.399 . S
C2146 C2147 1.376 . S
C2147 H2134 0.930 . S
C2147 C2146 1.376 . S
C2147 C2148 1.388 . S
C2148 H2135 0.930 . S
C2148 C2147 1.388 . S
C2148 C2149 1.390 . S
C2149 C2148 1.390 . S
C2149 C2150 1.394 . S
C2149 C2155 1.465 . S
C2150 C2145 1.399 . S
C2150 C2149 1.394 . S
C2150 C2151 1.516 . S
C2151 C2150 1.516 . S
C2151 C2152 1.502 . S
C2151 C2153 1.561 . S
C2151 C2154 1.526 . S
C2152 H2136 0.959 . S
C2152 H2137 0.959 . S
C2152 H2138 0.961 . S
C2152 C2151 1.502 . S
C2153 H2139 0.960 . S
C2153 H2140 0.961 . S
C2153 H2141 0.959 . S
C2153 C2151 1.561 . S
C2154 C2151 1.526 . S
C2154 C2155 1.396 . S
C2154 C2159 1.390 . S
C2155 C2149 1.465 . S
C2155 C2154 1.396 . S
C2155 C2156 1.399 . S
C2156 H2142 0.929 . S
C2156 C2155 1.399 . S
C2156 C2157 1.385 . S
C2157 H2143 0.931 . S
C2157 C2156 1.385 . S
C2157 C2158 1.389 . S
C2158 C2157 1.389 . S
C2158 C2159 1.387 . S
C2159 H2144 0.930 . S
C2159 C2154 1.390 . S
C2159 C2158 1.387 . S
H2160 C2172 0.930 . S
H2161 C2174 0.930 . S
H2162 C2175 0.930 . S
H2163 C2179 0.959 . S
H2164 C2179 0.959 . S
H2165 C2179 0.961 . S
H2166 C2180 0.960 . S
H2167 C2180 0.961 . S
H2168 C2180 0.959 . S
H2169 C2183 0.929 . S
H2170 C2184 0.931 . S
H2171 C2186 0.930 . S
C2172 H2160 0.930 . S
C2172 C2173 1.399 . S
C2172 C2177 1.399 . S
C2173 C2172 1.399 . S
C2173 C2174 1.376 . S
C2174 H2161 0.930 . S
C2174 C2173 1.376 . S
C2174 C2175 1.388 . S
C2175 H2162 0.930 . S
C2175 C2174 1.388 . S
C2175 C2176 1.390 . S
C2176 C2175 1.390 . S
C2176 C2177 1.394 . S
C2176 C2182 1.465 . S
C2177 C2172 1.399 . S
C2177 C2176 1.394 . S
C2177 C2178 1.516 . S
C2178 C2177 1.516 . S
C2178 C2179 1.502 . S
C2178 C2180 1.561 . S
C2178 C2181 1.526 . S
C2179 H2163 0.959 . S
C2179 H2164 0.959 . S
C2179 H2165 0.961 . S
C2179 C2178 1.502 . S
C2180 H2166 0.960 . S
C2180 H2167 0.961 . S
C2180 H2168 0.959 . S
C2180 C2178 1.561 . S
C2181 C2178 1.526 . S
C2181 C2182 1.396 . S
C2181 C2186 1.390 . S
C2182 C2176 1.465 . S
C2182 C2181 1.396 . S
C2182 C2183 1.399 . S
C2183 H2169 0.929 . S
C2183 C2182 1.399 . S
C2183 C2184 1.385 . S
C2184 H2170 0.931 . S
C2184 C2183 1.385 . S
C2184 C2185 1.389 . S
C2185 C2184 1.389 . S
C2185 C2186 1.387 . S
C2186 H2171 0.930 . S
C2186 C2181 1.390 . S
C2186 C2185 1.387 . S
H2187 C2199 0.930 . S
H2188 C2201 0.930 . S
H2189 C2202 0.930 . S
H2190 C2206 0.959 . S
H2191 C2206 0.959 . S
H2192 C2206 0.961 . S
H2193 C2207 0.960 . S
H2194 C2207 0.961 . S
H2195 C2207 0.959 . S
H2196 C2210 0.929 . S
H2197 C2211 0.931 . S
H2198 C2213 0.930 . S
C2199 H2187 0.930 . S
C2199 C2200 1.399 . S
C2199 C2204 1.399 . S
C2200 C2199 1.399 . S
C2200 C2201 1.376 . S
C2201 H2188 0.930 . S
C2201 C2200 1.376 . S
C2201 C2202 1.388 . S
C2202 H2189 0.930 . S
C2202 C2201 1.388 . S
C2202 C2203 1.390 . S
C2203 C2202 1.390 . S
C2203 C2204 1.394 . S
C2203 C2209 1.465 . S
C2204 C2199 1.399 . S
C2204 C2203 1.394 . S
C2204 C2205 1.516 . S
C2205 C2204 1.516 . S
C2205 C2206 1.502 . S
C2205 C2207 1.561 . S
C2205 C2208 1.526 . S
C2206 H2190 0.959 . S
C2206 H2191 0.959 . S
C2206 H2192 0.961 . S
C2206 C2205 1.502 . S
C2207 H2193 0.960 . S
C2207 H2194 0.961 . S
C2207 H2195 0.959 . S
C2207 C2205 1.561 . S
C2208 C2205 1.526 . S
C2208 C2209 1.396 . S
C2208 C2213 1.390 . S
C2209 C2203 1.465 . S
C2209 C2208 1.396 . S
C2209 C2210 1.399 . S
C2210 H2196 0.929 . S
C2210 C2209 1.399 . S
C2210 C2211 1.385 . S
C2211 H2197 0.931 . S
C2211 C2210 1.385 . S
C2211 C2212 1.389 . S
C2212 C2211 1.389 . S
C2212 C2213 1.387 . S
C2213 H2198 0.930 . S
C2213 C2208 1.390 . S
C2213 C2212 1.387 . S
H2214 C2226 0.930 . S
H2215 C2228 0.930 . S
H2216 C2229 0.930 . S
H2217 C2233 0.959 . S
H2218 C2233 0.959 . S
H2219 C2233 0.961 . S
H2220 C2234 0.960 . S
H2221 C2234 0.961 . S
H2222 C2234 0.959 . S
H2223 C2237 0.929 . S
H2224 C2238 0.931 . S
H2225 C2240 0.930 . S
C2226 H2214 0.930 . S
C2226 C2227 1.399 . S
C2226 C2231 1.399 . S
C2227 C2226 1.399 . S
C2227 C2228 1.376 . S
C2228 H2215 0.930 . S
C2228 C2227 1.376 . S
C2228 C2229 1.388 . S
C2229 H2216 0.930 . S
C2229 C2228 1.388 . S
C2229 C2230 1.390 . S
C2230 C2229 1.390 . S
C2230 C2231 1.394 . S
C2230 C2236 1.465 . S
C2231 C2226 1.399 . S
C2231 C2230 1.394 . S
C2231 C2232 1.516 . S
C2232 C2231 1.516 . S
C2232 C2233 1.502 . S
C2232 C2234 1.561 . S
C2232 C2235 1.526 . S
C2233 H2217 0.959 . S
C2233 H2218 0.959 . S
C2233 H2219 0.961 . S
C2233 C2232 1.502 . S
C2234 H2220 0.960 . S
C2234 H2221 0.961 . S
C2234 H2222 0.959 . S
C2234 C2232 1.561 . S
C2235 C2232 1.526 . S
C2235 C2236 1.396 . S
C2235 C2240 1.390 . S
C2236 C2230 1.465 . S
C2236 C2235 1.396 . S
C2236 C2237 1.399 . S
C2237 H2223 0.929 . S
C2237 C2236 1.399 . S
C2237 C2238 1.385 . S
C2238 H2224 0.931 . S
C2238 C2237 1.385 . S
C2238 C2239 1.389 . S
C2239 C2238 1.389 . S
C2239 C2240 1.387 . S
C2240 H2225 0.930 . S
C2240 C2235 1.390 . S
C2240 C2239 1.387 . S
H2241 C2253 0.930 . S
H2242 C2255 0.930 . S
H2243 C2256 0.930 . S
H2244 C2260 0.959 . S
H2245 C2260 0.959 . S
H2246 C2260 0.961 . S
H2247 C2261 0.960 . S
H2248 C2261 0.961 . S
H2249 C2261 0.959 . S
H2250 C2264 0.929 . S
H2251 C2265 0.931 . S
H2252 C2267 0.930 . S
C2253 H2241 0.930 . S
C2253 C2254 1.399 . S
C2253 C2258 1.399 . S
C2254 C2253 1.399 . S
C2254 C2255 1.376 . S
C2255 H2242 0.930 . S
C2255 C2254 1.376 . S
C2255 C2256 1.388 . S
C2256 H2243 0.930 . S
C2256 C2255 1.388 . S
C2256 C2257 1.390 . S
C2257 C2256 1.390 . S
C2257 C2258 1.394 . S
C2257 C2263 1.465 . S
C2258 C2253 1.399 . S
C2258 C2257 1.394 . S
C2258 C2259 1.516 . S
C2259 C2258 1.516 . S
C2259 C2260 1.502 . S
C2259 C2261 1.561 . S
C2259 C2262 1.526 . S
C2260 H2244 0.959 . S
C2260 H2245 0.959 . S
C2260 H2246 0.961 . S
C2260 C2259 1.502 . S
C2261 H2247 0.960 . S
C2261 H2248 0.961 . S
C2261 H2249 0.959 . S
C2261 C2259 1.561 . S
C2262 C2259 1.526 . S
C2262 C2263 1.396 . S
C2262 C2267 1.390 . S
C2263 C2257 1.465 . S
C2263 C2262 1.396 . S
C2263 C2264 1.399 . S
C2264 H2250 0.929 . S
C2264 C2263 1.399 . S
C2264 C2265 1.385 . S
C2265 H2251 0.931 . S
C2265 C2264 1.385 . S
C2265 C2266 1.389 . S
C2266 C2265 1.389 . S
C2266 C2267 1.387 . S
C2267 H2252 0.930 . S
C2267 C2262 1.390 . S
C2267 C2266 1.387 . S
H2268 C2280 0.930 . S
H2269 C2282 0.930 . S
H2270 C2283 0.930 . S
H2271 C2287 0.959 . S
H2272 C2287 0.959 . S
H2273 C2287 0.961 . S
H2274 C2288 0.960 . S
H2275 C2288 0.961 . S
H2276 C2288 0.959 . S
H2277 C2291 0.929 . S
H2278 C2292 0.931 . S
H2279 C2294 0.930 . S
C2280 H2268 0.930 . S
C2280 C2281 1.399 . S
C2280 C2285 1.399 . S
C2281 C2280 1.399 . S
C2281 C2282 1.376 . S
C2282 H2269 0.930 . S
C2282 C2281 1.376 . S
C2282 C2283 1.388 . S
C2283 H2270 0.930 . S
C2283 C2282 1.388 . S
C2283 C2284 1.390 . S
C2284 C2283 1.390 . S
C2284 C2285 1.394 . S
C2284 C2290 1.465 . S
C2285 C2280 1.399 . S
C2285 C2284 1.394 . S
C2285 C2286 1.516 . S
C2286 C2285 1.516 . S
C2286 C2287 1.502 . S
C2286 C2288 1.561 . S
C2286 C2289 1.526 . S
C2287 H2271 0.959 . S
C2287 H2272 0.959 . S
C2287 H2273 0.961 . S
C2287 C2286 1.502 . S
C2288 H2274 0.960 . S
C2288 H2275 0.961 . S
C2288 H2276 0.959 . S
C2288 C2286 1.561 . S
C2289 C2286 1.526 . S
C2289 C2290 1.396 . S
C2289 C2294 1.390 . S
C2290 C2284 1.465 . S
C2290 C2289 1.396 . S
C2290 C2291 1.399 . S
C2291 H2277 0.929 . S
C2291 C2290 1.399 . S
C2291 C2292 1.385 . S
C2292 H2278 0.931 . S
C2292 C2291 1.385 . S
C2292 C2293 1.389 . S
C2293 C2292 1.389 . S
C2293 C2294 1.387 . S
C2294 H2279 0.930 . S
C2294 C2289 1.390 . S
C2294 C2293 1.387 . S
H2295 C2307 0.930 . S
H2296 C2309 0.930 . S
H2297 C2310 0.930 . S
H2298 C2314 0.959 . S
H2299 C2314 0.959 . S
H2300 C2314 0.961 . S
H2301 C2315 0.960 . S
H2302 C2315 0.961 . S
H2303 C2315 0.959 . S
H2304 C2318 0.929 . S
H2305 C2319 0.931 . S
H2306 C2321 0.930 . S
C2307 H2295 0.930 . S
C2307 C2308 1.399 . S
C2307 C2312 1.399 . S
C2308 C2307 1.399 . S
C2308 C2309 1.376 . S
C2309 H2296 0.930 . S
C2309 C2308 1.376 . S
C2309 C2310 1.388 . S
C2310 H2297 0.930 . S
C2310 C2309 1.388 . S
C2310 C2311 1.390 . S
C2311 C2310 1.390 . S
C2311 C2312 1.394 . S
C2311 C2317 1.465 . S
C2312 C2307 1.399 . S
C2312 C2311 1.394 . S
C2312 C2313 1.516 . S
C2313 C2312 1.516 . S
C2313 C2314 1.502 . S
C2313 C2315 1.561 . S
C2313 C2316 1.526 . S
C2314 H2298 0.959 . S
C2314 H2299 0.959 . S
C2314 H2300 0.961 . S
C2314 C2313 1.502 . S
C2315 H2301 0.960 . S
C2315 H2302 0.961 . S
C2315 H2303 0.959 . S
C2315 C2313 1.561 . S
C2316 C2313 1.526 . S
C2316 C2317 1.396 . S
C2316 C2321 1.390 . S
C2317 C2311 1.465 . S
C2317 C2316 1.396 . S
C2317 C2318 1.399 . S
C2318 H2304 0.929 . S
C2318 C2317 1.399 . S
C2318 C2319 1.385 . S
C2319 H2305 0.931 . S
C2319 C2318 1.385 . S
C2319 C2320 1.389 . S
C2320 C2319 1.389 . S
C2320 C2321 1.387 . S
C2321 H2306 0.930 . S
C2321 C2316 1.390 . S
C2321 C2320 1.387 . S
H2322 C2334 0.930 . S
H2323 C2336 0.930 . S
H2324 C2337 0.930 . S
H2325 C2341 0.959 . S
H2326 C2341 0.959 . S
H2327 C2341 0.961 . S
H2328 C2342 0.960 . S
H2329 C2342 0.961 . S
H2330 C2342 0.959 . S
H2331 C2345 0.929 . S
H2332 C2346 0.931 . S
H2333 C2348 0.930 . S
C2334 H2322 0.930 . S
C2334 C2335 1.399 . S
C2334 C2339 1.399 . S
C2335 C2334 1.399 . S
C2335 C2336 1.376 . S
C2336 H2323 0.930 . S
C2336 C2335 1.376 . S
C2336 C2337 1.388 . S
C2337 H2324 0.930 . S
C2337 C2336 1.388 . S
C2337 C2338 1.390 . S
C2338 C2337 1.390 . S
C2338 C2339 1.394 . S
C2338 C2344 1.465 . S
C2339 C2334 1.399 . S
C2339 C2338 1.394 . S
C2339 C2340 1.516 . S
C2340 C2339 1.516 . S
C2340 C2341 1.502 . S
C2340 C2342 1.561 . S
C2340 C2343 1.526 . S
C2341 H2325 0.959 . S
C2341 H2326 0.959 . S
C2341 H2327 0.961 . S
C2341 C2340 1.502 . S
C2342 H2328 0.960 . S
C2342 H2329 0.961 . S
C2342 H2330 0.959 . S
C2342 C2340 1.561 . S
C2343 C2340 1.526 . S
C2343 C2344 1.396 . S
C2343 C2348 1.390 . S
C2344 C2338 1.465 . S
C2344 C2343 1.396 . S
C2344 C2345 1.399 . S
C2345 H2331 0.929 . S
C2345 C2344 1.399 . S
C2345 C2346 1.385 . S
C2346 H2332 0.931 . S
C2346 C2345 1.385 . S
C2346 C2347 1.389 . S
C2347 C2346 1.389 . S
C2347 C2348 1.387 . S
C2348 H2333 0.930 . S
C2348 C2343 1.390 . S
C2348 C2347 1.387 . S
H2349 C2361 0.930 . S
H2350 C2363 0.930 . S
H2351 C2364 0.930 . S
H2352 C2368 0.959 . S
H2353 C2368 0.959 . S
H2354 C2368 0.961 . S
H2355 C2369 0.960 . S
H2356 C2369 0.961 . S
H2357 C2369 0.959 . S
H2358 C2372 0.929 . S
H2359 C2373 0.931 . S
H2360 C2375 0.930 . S
C2361 H2349 0.930 . S
C2361 C2362 1.399 . S
C2361 C2366 1.399 . S
C2362 C2361 1.399 . S
C2362 C2363 1.376 . S
C2363 H2350 0.930 . S
C2363 C2362 1.376 . S
C2363 C2364 1.388 . S
C2364 H2351 0.930 . S
C2364 C2363 1.388 . S
C2364 C2365 1.390 . S
C2365 C2364 1.390 . S
C2365 C2366 1.394 . S
C2365 C2371 1.465 . S
C2366 C2361 1.399 . S
C2366 C2365 1.394 . S
C2366 C2367 1.516 . S
C2367 C2366 1.516 . S
C2367 C2368 1.502 . S
C2367 C2369 1.561 . S
C2367 C2370 1.526 . S
C2368 H2352 0.959 . S
C2368 H2353 0.959 . S
C2368 H2354 0.961 . S
C2368 C2367 1.502 . S
C2369 H2355 0.960 . S
C2369 H2356 0.961 . S
C2369 H2357 0.959 . S
C2369 C2367 1.561 . S
C2370 C2367 1.526 . S
C2370 C2371 1.396 . S
C2370 C2375 1.390 . S
C2371 C2365 1.465 . S
C2371 C2370 1.396 . S
C2371 C2372 1.399 . S
C2372 H2358 0.929 . S
C2372 C2371 1.399 . S
C2372 C2373 1.385 . S
C2373 H2359 0.931 . S
C2373 C2372 1.385 . S
C2373 C2374 1.389 . S
C2374 C2373 1.389 . S
C2374 C2375 1.387 . S
C2375 H2360 0.930 . S
C2375 C2370 1.390 . S
C2375 C2374 1.387 . S
H2376 C2388 0.930 . S
H2377 C2390 0.930 . S
H2378 C2391 0.930 . S
H2379 C2395 0.959 . S
H2380 C2395 0.959 . S
H2381 C2395 0.961 . S
H2382 C2396 0.960 . S
H2383 C2396 0.961 . S
H2384 C2396 0.959 . S
H2385 C2399 0.929 . S
H2386 C2400 0.931 . S
H2387 C2402 0.930 . S
C2388 H2376 0.930 . S
C2388 C2389 1.399 . S
C2388 C2393 1.399 . S
C2389 C2388 1.399 . S
C2389 C2390 1.376 . S
C2390 H2377 0.930 . S
C2390 C2389 1.376 . S
C2390 C2391 1.388 . S
C2391 H2378 0.930 . S
C2391 C2390 1.388 . S
C2391 C2392 1.390 . S
C2392 C2391 1.390 . S
C2392 C2393 1.394 . S
C2392 C2398 1.465 . S
C2393 C2388 1.399 . S
C2393 C2392 1.394 . S
C2393 C2394 1.516 . S
C2394 C2393 1.516 . S
C2394 C2395 1.502 . S
C2394 C2396 1.561 . S
C2394 C2397 1.526 . S
C2395 H2379 0.959 . S
C2395 H2380 0.959 . S
C2395 H2381 0.961 . S
C2395 C2394 1.502 . S
C2396 H2382 0.960 . S
C2396 H2383 0.961 . S
C2396 H2384 0.959 . S
C2396 C2394 1.561 . S
C2397 C2394 1.526 . S
C2397 C2398 1.396 . S
C2397 C2402 1.390 . S
C2398 C2392 1.465 . S
C2398 C2397 1.396 . S
C2398 C2399 1.399 . S
C2399 H2385 0.929 . S
C2399 C2398 1.399 . S
C2399 C2400 1.385 . S
C2400 H2386 0.931 . S
C2400 C2399 1.385 . S
C2400 C2401 1.389 . S
C2401 C2400 1.389 . S
C2401 C2402 1.387 . S
C2402 H2387 0.930 . S
C2402 C2397 1.390 . S
C2402 C2401 1.387 . S
H2403 C2415 0.930 . S
H2404 C2417 0.930 . S
H2405 C2418 0.930 . S
H2406 C2422 0.959 . S
H2407 C2422 0.959 . S
H2408 C2422 0.961 . S
H2409 C2423 0.960 . S
H2410 C2423 0.961 . S
H2411 C2423 0.959 . S
H2412 C2426 0.929 . S
H2413 C2427 0.931 . S
H2414 C2429 0.930 . S
C2415 H2403 0.930 . S
C2415 C2416 1.399 . S
C2415 C2420 1.399 . S
C2416 C2415 1.399 . S
C2416 C2417 1.376 . S
C2417 H2404 0.930 . S
C2417 C2416 1.376 . S
C2417 C2418 1.388 . S
C2418 H2405 0.930 . S
C2418 C2417 1.388 . S
C2418 C2419 1.390 . S
C2419 C2418 1.390 . S
C2419 C2420 1.394 . S
C2419 C2425 1.465 . S
C2420 C2415 1.399 . S
C2420 C2419 1.394 . S
C2420 C2421 1.516 . S
C2421 C2420 1.516 . S
C2421 C2422 1.502 . S
C2421 C2423 1.561 . S
C2421 C2424 1.526 . S
C2422 H2406 0.959 . S
C2422 H2407 0.959 . S
C2422 H2408 0.961 . S
C2422 C2421 1.502 . S
C2423 H2409 0.960 . S
C2423 H2410 0.961 . S
C2423 H2411 0.959 . S
C2423 C2421 1.561 . S
C2424 C2421 1.526 . S
C2424 C2425 1.396 . S
C2424 C2429 1.390 . S
C2425 C2419 1.465 . S
C2425 C2424 1.396 . S
C2425 C2426 1.399 . S
C2426 H2412 0.929 . S
C2426 C2425 1.399 . S
C2426 C2427 1.385 . S
C2427 H2413 0.931 . S
C2427 C2426 1.385 . S
C2427 C2428 1.389 . S
C2428 C2427 1.389 . S
C2428 C2429 1.387 . S
C2429 H2414 0.930 . S
C2429 C2424 1.390 . S
C2429 C2428 1.387 . S
H2430 C2442 0.930 . S
H2431 C2444 0.930 . S
H2432 C2445 0.930 . S
H2433 C2449 0.959 . S
H2434 C2449 0.959 . S
H2435 C2449 0.961 . S
H2436 C2450 0.960 . S
H2437 C2450 0.961 . S
H2438 C2450 0.959 . S
H2439 C2453 0.929 . S
H2440 C2454 0.931 . S
H2441 C2456 0.930 . S
C2442 H2430 0.930 . S
C2442 C2443 1.399 . S
C2442 C2447 1.399 . S
C2443 C2442 1.399 . S
C2443 C2444 1.376 . S
C2444 H2431 0.930 . S
C2444 C2443 1.376 . S
C2444 C2445 1.388 . S
C2445 H2432 0.930 . S
C2445 C2444 1.388 . S
C2445 C2446 1.390 . S
C2446 C2445 1.390 . S
C2446 C2447 1.394 . S
C2446 C2452 1.465 . S
C2447 C2442 1.399 . S
C2447 C2446 1.394 . S
C2447 C2448 1.516 . S
C2448 C2447 1.516 . S
C2448 C2449 1.502 . S
C2448 C2450 1.561 . S
C2448 C2451 1.526 . S
C2449 H2433 0.959 . S
C2449 H2434 0.959 . S
C2449 H2435 0.961 . S
C2449 C2448 1.502 . S
C2450 H2436 0.960 . S
C2450 H2437 0.961 . S
C2450 H2438 0.959 . S
C2450 C2448 1.561 . S
C2451 C2448 1.526 . S
C2451 C2452 1.396 . S
C2451 C2456 1.390 . S
C2452 C2446 1.465 . S
C2452 C2451 1.396 . S
C2452 C2453 1.399 . S
C2453 H2439 0.929 . S
C2453 C2452 1.399 . S
C2453 C2454 1.385 . S
C2454 H2440 0.931 . S
C2454 C2453 1.385 . S
C2454 C2455 1.389 . S
C2455 C2454 1.389 . S
C2455 C2456 1.387 . S
C2456 H2441 0.930 . S
C2456 C2451 1.390 . S
C2456 C2455 1.387 . S
H2457 C2469 0.930 . S
H2458 C2471 0.930 . S
H2459 C2472 0.930 . S
H2460 C2476 0.959 . S
H2461 C2476 0.959 . S
H2462 C2476 0.961 . S
H2463 C2477 0.960 . S
H2464 C2477 0.961 . S
H2465 C2477 0.959 . S
H2466 C2480 0.929 . S
H2467 C2481 0.931 . S
H2468 C2483 0.930 . S
C2469 H2457 0.930 . S
C2469 C2470 1.399 . S
C2469 C2474 1.399 . S
C2470 C2469 1.399 . S
C2470 C2471 1.376 . S
C2471 H2458 0.930 . S
C2471 C2470 1.376 . S
C2471 C2472 1.388 . S
C2472 H2459 0.930 . S
C2472 C2471 1.388 . S
C2472 C2473 1.390 . S
C2473 C2472 1.390 . S
C2473 C2474 1.394 . S
C2473 C2479 1.465 . S
C2474 C2469 1.399 . S
C2474 C2473 1.394 . S
C2474 C2475 1.516 . S
C2475 C2474 1.516 . S
C2475 C2476 1.502 . S
C2475 C2477 1.561 . S
C2475 C2478 1.526 . S
C2476 H2460 0.959 . S
C2476 H2461 0.959 . S
C2476 H2462 0.961 . S
C2476 C2475 1.502 . S
C2477 H2463 0.960 . S
C2477 H2464 0.961 . S
C2477 H2465 0.959 . S
C2477 C2475 1.561 . S
C2478 C2475 1.526 . S
C2478 C2479 1.396 . S
C2478 C2483 1.390 . S
C2479 C2473 1.465 . S
C2479 C2478 1.396 . S
C2479 C2480 1.399 . S
C2480 H2466 0.929 . S
C2480 C2479 1.399 . S
C2480 C2481 1.385 . S
C2481 H2467 0.931 . S
C2481 C2480 1.385 . S
C2481 C2482 1.389 . S
C2482 C2481 1.389 . S
C2482 C2483 1.387 . S
C2483 H2468 0.930 . S
C2483 C2478 1.390 . S
C2483 C2482 1.387 . S
H2484 C2496 0.930 . S
H2485 C2498 0.930 . S
H2486 C2499 0.930 . S
H2487 C2503 0.959 . S
H2488 C2503 0.959 . S
H2489 C2503 0.961 . S
H2490 C2504 0.960 . S
H2491 C2504 0.961 . S
H2492 C2504 0.959 . S
H2493 C2507 0.929 . S
H2494 C2508 0.931 . S
H2495 C2510 0.930 . S
C2496 H2484 0.930 . S
C2496 C2497 1.399 . S
C2496 C2501 1.399 . S
C2497 C2496 1.399 . S
C2497 C2498 1.376 . S
C2498 H2485 0.930 . S
C2498 C2497 1.376 . S
C2498 C2499 1.388 . S
C2499 H2486 0.930 . S
C2499 C2498 1.388 . S
C2499 C2500 1.390 . S
C2500 C2499 1.390 . S
C2500 C2501 1.394 . S
C2500 C2506 1.465 . S
C2501 C2496 1.399 . S
C2501 C2500 1.394 . S
C2501 C2502 1.516 . S
C2502 C2501 1.516 . S
C2502 C2503 1.502 . S
C2502 C2504 1.561 . S
C2502 C2505 1.526 . S
C2503 H2487 0.959 . S
C2503 H2488 0.959 . S
C2503 H2489 0.961 . S
C2503 C2502 1.502 . S
C2504 H2490 0.960 . S
C2504 H2491 0.961 . S
C2504 H2492 0.959 . S
C2504 C2502 1.561 . S
C2505 C2502 1.526 . S
C2505 C2506 1.396 . S
C2505 C2510 1.390 . S
C2506 C2500 1.465 . S
C2506 C2505 1.396 . S
C2506 C2507 1.399 . S
C2507 H2493 0.929 . S
C2507 C2506 1.399 . S
C2507 C2508 1.385 . S
C2508 H2494 0.931 . S
C2508 C2507 1.385 . S
C2508 C2509 1.389 . S
C2509 C2508 1.389 . S
C2509 C2510 1.387 . S
C2510 H2495 0.930 . S
C2510 C2505 1.390 . S
C2510 C2509 1.387 . S
H2511 C2523 0.930 . S
H2512 C2525 0.930 . S
H2513 C2526 0.930 . S
H2514 C2530 0.959 . S
H2515 C2530 0.959 . S
H2516 C2530 0.961 . S
H2517 C2531 0.960 . S
H2518 C2531 0.961 . S
H2519 C2531 0.959 . S
H2520 C2534 0.929 . S
H2521 C2535 0.931 . S
H2522 C2537 0.930 . S
C2523 H2511 0.930 . S
C2523 C2524 1.399 . S
C2523 C2528 1.399 . S
C2524 C2523 1.399 . S
C2524 C2525 1.376 . S
C2525 H2512 0.930 . S
C2525 C2524 1.376 . S
C2525 C2526 1.388 . S
C2526 H2513 0.930 . S
C2526 C2525 1.388 . S
C2526 C2527 1.390 . S
C2527 C2526 1.390 . S
C2527 C2528 1.394 . S
C2527 C2533 1.465 . S
C2528 C2523 1.399 . S
C2528 C2527 1.394 . S
C2528 C2529 1.516 . S
C2529 C2528 1.516 . S
C2529 C2530 1.502 . S
C2529 C2531 1.561 . S
C2529 C2532 1.526 . S
C2530 H2514 0.959 . S
C2530 H2515 0.959 . S
C2530 H2516 0.961 . S
C2530 C2529 1.502 . S
C2531 H2517 0.960 . S
C2531 H2518 0.961 . S
C2531 H2519 0.959 . S
C2531 C2529 1.561 . S
C2532 C2529 1.526 . S
C2532 C2533 1.396 . S
C2532 C2537 1.390 . S
C2533 C2527 1.465 . S
C2533 C2532 1.396 . S
C2533 C2534 1.399 . S
C2534 H2520 0.929 . S
C2534 C2533 1.399 . S
C2534 C2535 1.385 . S
C2535 H2521 0.931 . S
C2535 C2534 1.385 . S
C2535 C2536 1.389 . S
C2536 C2535 1.389 . S
C2536 C2537 1.387 . S
C2537 H2522 0.930 . S
C2537 C2532 1.390 . S
C2537 C2536 1.387 . S
H2538 C2550 0.930 . S
H2539 C2552 0.930 . S
H2540 C2553 0.930 . S
H2541 C2557 0.959 . S
H2542 C2557 0.959 . S
H2543 C2557 0.961 . S
H2544 C2558 0.960 . S
H2545 C2558 0.961 . S
H2546 C2558 0.959 . S
H2547 C2561 0.929 . S
H2548 C2562 0.931 . S
H2549 C2564 0.930 . S
C2550 H2538 0.930 . S
C2550 C2551 1.399 . S
C2550 C2555 1.399 . S
C2551 C2550 1.399 . S
C2551 C2552 1.376 . S
C2552 H2539 0.930 . S
C2552 C2551 1.376 . S
C2552 C2553 1.388 . S
C2553 H2540 0.930 . S
C2553 C2552 1.388 . S
C2553 C2554 1.390 . S
C2554 C2553 1.390 . S
C2554 C2555 1.394 . S
C2554 C2560 1.465 . S
C2555 C2550 1.399 . S
C2555 C2554 1.394 . S
C2555 C2556 1.516 . S
C2556 C2555 1.516 . S
C2556 C2557 1.502 . S
C2556 C2558 1.561 . S
C2556 C2559 1.526 . S
C2557 H2541 0.959 . S
C2557 H2542 0.959 . S
C2557 H2543 0.961 . S
C2557 C2556 1.502 . S
C2558 H2544 0.960 . S
C2558 H2545 0.961 . S
C2558 H2546 0.959 . S
C2558 C2556 1.561 . S
C2559 C2556 1.526 . S
C2559 C2560 1.396 . S
C2559 C2564 1.390 . S
C2560 C2554 1.465 . S
C2560 C2559 1.396 . S
C2560 C2561 1.399 . S
C2561 H2547 0.929 . S
C2561 C2560 1.399 . S
C2561 C2562 1.385 . S
C2562 H2548 0.931 . S
C2562 C2561 1.385 . S
C2562 C2563 1.389 . S
C2563 C2562 1.389 . S
C2563 C2564 1.387 . S
C2564 H2549 0.930 . S
C2564 C2559 1.390 . S
C2564 C2563 1.387 . S
H2565 C2577 0.930 . S
H2566 C2579 0.930 . S
H2567 C2580 0.930 1_554 S
H2568 C2584 0.959 . S
H2569 C2584 0.959 . S
H2570 C2584 0.961 . S
H2571 C2585 0.960 . S
H2572 C2585 0.961 . S
H2573 C2585 0.959 . S
H2574 C2588 0.929 . S
H2575 C2589 0.931 . S
H2576 C2591 0.930 . S
C2577 H2565 0.930 . S
C2577 C2578 1.399 . S
C2577 C2582 1.399 . S
C2578 C2577 1.399 . S
C2578 C2579 1.376 1_556 S
C2579 H2566 0.930 . S
C2579 C2578 1.376 1_554 S
C2579 C2580 1.388 1_554 S
C2580 H2567 0.930 1_556 S
C2580 C2579 1.388 1_556 S
C2580 C2581 1.390 . S
C2581 C2580 1.390 . S
C2581 C2582 1.394 . S
C2581 C2587 1.465 . S
C2582 C2577 1.399 . S
C2582 C2581 1.394 . S
C2582 C2583 1.516 . S
C2583 C2582 1.516 . S
C2583 C2584 1.502 . S
C2583 C2585 1.561 . S
C2583 C2586 1.526 . S
C2584 H2568 0.959 . S
C2584 H2569 0.959 . S
C2584 H2570 0.961 . S
C2584 C2583 1.502 . S
C2585 H2571 0.960 . S
C2585 H2572 0.961 . S
C2585 H2573 0.959 . S
C2585 C2583 1.561 . S
C2586 C2583 1.526 . S
C2586 C2587 1.396 . S
C2586 C2591 1.390 . S
C2587 C2581 1.465 . S
C2587 C2586 1.396 . S
C2587 C2588 1.399 . S
C2588 H2574 0.929 . S
C2588 C2587 1.399 . S
C2588 C2589 1.385 . S
C2589 H2575 0.931 . S
C2589 C2588 1.385 . S
C2589 C2590 1.389 . S
C2590 C2589 1.389 . S
C2590 C2591 1.387 . S
C2591 H2576 0.930 . S
C2591 C2586 1.390 . S
C2591 C2590 1.387 . S
H2592 C2604 0.930 . S
H2593 C2606 0.930 1_554 S
H2594 C2607 0.930 1_554 S
H2595 C2611 0.959 . S
H2596 C2611 0.959 . S
H2597 C2611 0.961 . S
H2598 C2612 0.960 . S
H2599 C2612 0.961 . S
H2600 C2612 0.959 . S
H2601 C2615 0.929 . S
H2602 C2616 0.931 . S
H2603 C2618 0.930 . S
C2604 H2592 0.930 . S
C2604 C2605 1.399 . S
C2604 C2609 1.399 . S
C2605 C2604 1.399 . S
C2605 C2606 1.376 . S
C2606 H2593 0.930 1_556 S
C2606 C2605 1.376 . S
C2606 C2607 1.388 . S
C2607 H2594 0.930 1_556 S
C2607 C2606 1.388 . S
C2607 C2608 1.390 . S
C2608 C2607 1.390 . S
C2608 C2609 1.394 . S
C2608 C2614 1.465 . S
C2609 C2604 1.399 . S
C2609 C2608 1.394 . S
C2609 C2610 1.516 . S
C2610 C2609 1.516 . S
C2610 C2611 1.502 . S
C2610 C2612 1.561 . S
C2610 C2613 1.526 . S
C2611 H2595 0.959 . S
C2611 H2596 0.959 . S
C2611 H2597 0.961 . S
C2611 C2610 1.502 . S
C2612 H2598 0.960 . S
C2612 H2599 0.961 . S
C2612 H2600 0.959 . S
C2612 C2610 1.561 . S
C2613 C2610 1.526 . S
C2613 C2614 1.396 . S
C2613 C2618 1.390 . S
C2614 C2608 1.465 . S
C2614 C2613 1.396 . S
C2614 C2615 1.399 . S
C2615 H2601 0.929 . S
C2615 C2614 1.399 . S
C2615 C2616 1.385 . S
C2616 H2602 0.931 . S
C2616 C2615 1.385 . S
C2616 C2617 1.389 . S
C2617 C2616 1.389 . S
C2617 C2618 1.387 . S
C2618 H2603 0.930 . S
C2618 C2613 1.390 . S
C2618 C2617 1.387 . S
H2619 C2631 0.930 . S
H2620 C2633 0.930 . S
H2621 C2634 0.930 . S
H2622 C2638 0.959 . S
H2623 C2638 0.959 . S
H2624 C2638 0.961 . S
H2625 C2639 0.960 . S
H2626 C2639 0.961 . S
H2627 C2639 0.959 . S
H2628 C2642 0.929 . S
H2629 C2643 0.931 . S
H2630 C2645 0.930 . S
C2631 H2619 0.930 . S
C2631 C2632 1.399 . S
C2631 C2636 1.399 . S
C2632 C2631 1.399 . S
C2632 C2633 1.376 . S
C2633 H2620 0.930 . S
C2633 C2632 1.376 . S
C2633 C2634 1.388 . S
C2634 H2621 0.930 . S
C2634 C2633 1.388 . S
C2634 C2635 1.390 . S
C2635 C2634 1.390 . S
C2635 C2636 1.394 . S
C2635 C2641 1.465 . S
C2636 C2631 1.399 . S
C2636 C2635 1.394 . S
C2636 C2637 1.516 . S
C2637 C2636 1.516 . S
C2637 C2638 1.502 . S
C2637 C2639 1.561 . S
C2637 C2640 1.526 . S
C2638 H2622 0.959 . S
C2638 H2623 0.959 . S
C2638 H2624 0.961 . S
C2638 C2637 1.502 . S
C2639 H2625 0.960 . S
C2639 H2626 0.961 . S
C2639 H2627 0.959 . S
C2639 C2637 1.561 . S
C2640 C2637 1.526 . S
C2640 C2641 1.396 . S
C2640 C2645 1.390 . S
C2641 C2635 1.465 . S
C2641 C2640 1.396 . S
C2641 C2642 1.399 . S
C2642 H2628 0.929 . S
C2642 C2641 1.399 . S
C2642 C2643 1.385 . S
C2643 H2629 0.931 . S
C2643 C2642 1.385 . S
C2643 C2644 1.389 . S
C2644 C2643 1.389 . S
C2644 C2645 1.387 . S
C2645 H2630 0.930 . S
C2645 C2640 1.390 . S
C2645 C2644 1.387 . S
H2646 C2658 0.930 . S
H2647 C2660 0.930 1_554 S
H2648 C2661 0.930 1_554 S
H2649 C2665 0.959 . S
H2650 C2665 0.959 . S
H2651 C2665 0.961 . S
H2652 C2666 0.960 . S
H2653 C2666 0.961 . S
H2654 C2666 0.959 . S
H2655 C2669 0.929 . S
H2656 C2670 0.931 . S
H2657 C2672 0.930 . S
C2658 H2646 0.930 . S
C2658 C2659 1.399 . S
C2658 C2663 1.399 . S
C2659 C2658 1.399 . S
C2659 C2660 1.376 . S
C2660 H2647 0.930 1_556 S
C2660 C2659 1.376 . S
C2660 C2661 1.388 . S
C2661 H2648 0.930 1_556 S
C2661 C2660 1.388 . S
C2661 C2662 1.390 . S
C2662 C2661 1.390 . S
C2662 C2663 1.394 . S
C2662 C2668 1.465 . S
C2663 C2658 1.399 . S
C2663 C2662 1.394 . S
C2663 C2664 1.516 . S
C2664 C2663 1.516 . S
C2664 C2665 1.502 . S
C2664 C2666 1.561 . S
C2664 C2667 1.526 . S
C2665 H2649 0.959 . S
C2665 H2650 0.959 . S
C2665 H2651 0.961 . S
C2665 C2664 1.502 . S
C2666 H2652 0.960 . S
C2666 H2653 0.961 . S
C2666 H2654 0.959 . S
C2666 C2664 1.561 . S
C2667 C2664 1.526 . S
C2667 C2668 1.396 . S
C2667 C2672 1.390 . S
C2668 C2662 1.465 . S
C2668 C2667 1.396 . S
C2668 C2669 1.399 . S
C2669 H2655 0.929 . S
C2669 C2668 1.399 . S
C2669 C2670 1.385 . S
C2670 H2656 0.931 . S
C2670 C2669 1.385 . S
C2670 C2671 1.389 . S
C2671 C2670 1.389 . S
C2671 C2672 1.387 . S
C2672 H2657 0.930 . S
C2672 C2667 1.390 . S
C2672 C2671 1.387 . S
H2673 C2685 0.930 . S
H2674 C2687 0.930 . S
H2675 C2688 0.930 . S
H2676 C2692 0.959 . S
H2677 C2692 0.959 . S
H2678 C2692 0.961 . S
H2679 C2693 0.960 . S
H2680 C2693 0.961 . S
H2681 C2693 0.959 . S
H2682 C2696 0.929 . S
H2683 C2697 0.931 . S
H2684 C2699 0.930 . S
C2685 H2673 0.930 . S
C2685 C2686 1.399 . S
C2685 C2690 1.399 . S
C2686 C2685 1.399 . S
C2686 C2687 1.376 . S
C2687 H2674 0.930 . S
C2687 C2686 1.376 . S
C2687 C2688 1.388 . S
C2688 H2675 0.930 . S
C2688 C2687 1.388 . S
C2688 C2689 1.390 . S
C2689 C2688 1.390 . S
C2689 C2690 1.394 . S
C2689 C2695 1.465 . S
C2690 C2685 1.399 . S
C2690 C2689 1.394 . S
C2690 C2691 1.516 . S
C2691 C2690 1.516 . S
C2691 C2692 1.502 . S
C2691 C2693 1.561 . S
C2691 C2694 1.526 . S
C2692 H2676 0.959 . S
C2692 H2677 0.959 . S
C2692 H2678 0.961 . S
C2692 C2691 1.502 . S
C2693 H2679 0.960 . S
C2693 H2680 0.961 . S
C2693 H2681 0.959 . S
C2693 C2691 1.561 . S
C2694 C2691 1.526 . S
C2694 C2695 1.396 . S
C2694 C2699 1.390 . S
C2695 C2689 1.465 . S
C2695 C2694 1.396 . S
C2695 C2696 1.399 . S
C2696 H2682 0.929 . S
C2696 C2695 1.399 . S
C2696 C2697 1.385 . S
C2697 H2683 0.931 . S
C2697 C2696 1.385 . S
C2697 C2698 1.389 . S
C2698 C2697 1.389 . S
C2698 C2699 1.387 . S
C2699 H2684 0.930 . S
C2699 C2694 1.390 . S
C2699 C2698 1.387 . S
H2700 C2712 0.930 . S
H2701 C2714 0.930 . S
H2702 C2715 0.930 . S
H2703 C2719 0.959 . S
H2704 C2719 0.959 . S
H2705 C2719 0.961 . S
H2706 C2720 0.960 . S
H2707 C2720 0.961 . S
H2708 C2720 0.959 . S
H2709 C2723 0.929 . S
H2710 C2724 0.931 . S
H2711 C2726 0.930 . S
C2712 H2700 0.930 . S
C2712 C2713 1.399 . S
C2712 C2717 1.399 . S
C2713 C2712 1.399 . S
C2713 C2714 1.376 . S
C2714 H2701 0.930 . S
C2714 C2713 1.376 . S
C2714 C2715 1.388 . S
C2715 H2702 0.930 . S
C2715 C2714 1.388 . S
C2715 C2716 1.390 . S
C2716 C2715 1.390 . S
C2716 C2717 1.394 . S
C2716 C2722 1.465 . S
C2717 C2712 1.399 . S
C2717 C2716 1.394 . S
C2717 C2718 1.516 . S
C2718 C2717 1.516 . S
C2718 C2719 1.502 . S
C2718 C2720 1.561 . S
C2718 C2721 1.526 . S
C2719 H2703 0.959 . S
C2719 H2704 0.959 . S
C2719 H2705 0.961 . S
C2719 C2718 1.502 . S
C2720 H2706 0.960 . S
C2720 H2707 0.961 . S
C2720 H2708 0.959 . S
C2720 C2718 1.561 . S
C2721 C2718 1.526 . S
C2721 C2722 1.396 . S
C2721 C2726 1.390 . S
C2722 C2716 1.465 . S
C2722 C2721 1.396 . S
C2722 C2723 1.399 . S
C2723 H2709 0.929 . S
C2723 C2722 1.399 . S
C2723 C2724 1.385 . S
C2724 H2710 0.931 . S
C2724 C2723 1.385 . S
C2724 C2725 1.389 . S
C2725 C2724 1.389 . S
C2725 C2726 1.387 . S
C2726 H2711 0.930 . S
C2726 C2721 1.390 . S
C2726 C2725 1.387 . S
H2727 C2739 0.930 . S
H2728 C2741 0.930 . S
H2729 C2742 0.930 . S
H2730 C2746 0.959 . S
H2731 C2746 0.959 . S
H2732 C2746 0.961 . S
H2733 C2747 0.960 . S
H2734 C2747 0.961 . S
H2735 C2747 0.959 . S
H2736 C2750 0.929 . S
H2737 C2751 0.931 . S
H2738 C2753 0.930 . S
C2739 H2727 0.930 . S
C2739 C2740 1.399 . S
C2739 C2744 1.399 . S
C2740 C2739 1.399 . S
C2740 C2741 1.376 . S
C2741 H2728 0.930 . S
C2741 C2740 1.376 . S
C2741 C2742 1.388 . S
C2742 H2729 0.930 . S
C2742 C2741 1.388 . S
C2742 C2743 1.390 . S
C2743 C2742 1.390 . S
C2743 C2744 1.394 . S
C2743 C2749 1.465 . S
C2744 C2739 1.399 . S
C2744 C2743 1.394 . S
C2744 C2745 1.516 . S
C2745 C2744 1.516 . S
C2745 C2746 1.502 . S
C2745 C2747 1.561 . S
C2745 C2748 1.526 . S
C2746 H2730 0.959 . S
C2746 H2731 0.959 . S
C2746 H2732 0.961 . S
C2746 C2745 1.502 . S
C2747 H2733 0.960 . S
C2747 H2734 0.961 . S
C2747 H2735 0.959 . S
C2747 C2745 1.561 . S
C2748 C2745 1.526 . S
C2748 C2749 1.396 . S
C2748 C2753 1.390 . S
C2749 C2743 1.465 . S
C2749 C2748 1.396 . S
C2749 C2750 1.399 . S
C2750 H2736 0.929 . S
C2750 C2749 1.399 . S
C2750 C2751 1.385 . S
C2751 H2737 0.931 . S
C2751 C2750 1.385 . S
C2751 C2752 1.389 . S
C2752 C2751 1.389 . S
C2752 C2753 1.387 . S
C2753 H2738 0.930 . S
C2753 C2748 1.390 . S
C2753 C2752 1.387 . S
H2754 C2766 0.930 . S
H2755 C2768 0.930 . S
H2756 C2769 0.930 . S
H2757 C2773 0.959 . S
H2758 C2773 0.959 . S
H2759 C2773 0.961 . S
H2760 C2774 0.960 . S
H2761 C2774 0.961 . S
H2762 C2774 0.959 . S
H2763 C2777 0.929 . S
H2764 C2778 0.931 . S
H2765 C2780 0.930 . S
C2766 H2754 0.930 . S
C2766 C2767 1.399 . S
C2766 C2771 1.399 . S
C2767 C2766 1.399 . S
C2767 C2768 1.376 . S
C2768 H2755 0.930 . S
C2768 C2767 1.376 . S
C2768 C2769 1.388 . S
C2769 H2756 0.930 . S
C2769 C2768 1.388 . S
C2769 C2770 1.390 . S
C2770 C2769 1.390 . S
C2770 C2771 1.394 . S
C2770 C2776 1.465 . S
C2771 C2766 1.399 . S
C2771 C2770 1.394 . S
C2771 C2772 1.516 . S
C2772 C2771 1.516 . S
C2772 C2773 1.502 . S
C2772 C2774 1.561 . S
C2772 C2775 1.526 . S
C2773 H2757 0.959 . S
C2773 H2758 0.959 . S
C2773 H2759 0.961 . S
C2773 C2772 1.502 . S
C2774 H2760 0.960 . S
C2774 H2761 0.961 . S
C2774 H2762 0.959 . S
C2774 C2772 1.561 . S
C2775 C2772 1.526 . S
C2775 C2776 1.396 . S
C2775 C2780 1.390 . S
C2776 C2770 1.465 . S
C2776 C2775 1.396 . S
C2776 C2777 1.399 . S
C2777 H2763 0.929 . S
C2777 C2776 1.399 . S
C2777 C2778 1.385 . S
C2778 H2764 0.931 . S
C2778 C2777 1.385 . S
C2778 C2779 1.389 . S
C2779 C2778 1.389 . S
C2779 C2780 1.387 . S
C2780 H2765 0.930 . S
C2780 C2775 1.390 . S
C2780 C2779 1.387 . S
H2781 C2793 0.930 . S
H2782 C2795 0.930 . S
H2783 C2796 0.930 . S
H2784 C2800 0.959 . S
H2785 C2800 0.959 . S
H2786 C2800 0.961 . S
H2787 C2801 0.960 . S
H2788 C2801 0.961 . S
H2789 C2801 0.959 . S
H2790 C2804 0.929 . S
H2791 C2805 0.931 . S
H2792 C2807 0.930 . S
C2793 H2781 0.930 . S
C2793 C2794 1.399 . S
C2793 C2798 1.399 . S
C2794 C2793 1.399 . S
C2794 C2795 1.376 . S
C2795 H2782 0.930 . S
C2795 C2794 1.376 . S
C2795 C2796 1.388 . S
C2796 H2783 0.930 . S
C2796 C2795 1.388 . S
C2796 C2797 1.390 . S
C2797 C2796 1.390 . S
C2797 C2798 1.394 . S
C2797 C2803 1.465 . S
C2798 C2793 1.399 . S
C2798 C2797 1.394 . S
C2798 C2799 1.516 . S
C2799 C2798 1.516 . S
C2799 C2800 1.502 . S
C2799 C2801 1.561 . S
C2799 C2802 1.526 . S
C2800 H2784 0.959 . S
C2800 H2785 0.959 . S
C2800 H2786 0.961 . S
C2800 C2799 1.502 . S
C2801 H2787 0.960 . S
C2801 H2788 0.961 . S
C2801 H2789 0.959 . S
C2801 C2799 1.561 . S
C2802 C2799 1.526 . S
C2802 C2803 1.396 . S
C2802 C2807 1.390 . S
C2803 C2797 1.465 . S
C2803 C2802 1.396 . S
C2803 C2804 1.399 . S
C2804 H2790 0.929 . S
C2804 C2803 1.399 . S
C2804 C2805 1.385 . S
C2805 H2791 0.931 . S
C2805 C2804 1.385 . S
C2805 C2806 1.389 . S
C2806 C2805 1.389 . S
C2806 C2807 1.387 . S
C2807 H2792 0.930 . S
C2807 C2802 1.390 . S
C2807 C2806 1.387 . S
H2808 C2820 0.930 . S
H2809 C2822 0.930 . S
H2810 C2823 0.930 . S
H2811 C2827 0.959 . S
H2812 C2827 0.959 . S
H2813 C2827 0.961 . S
H2814 C2828 0.960 . S
H2815 C2828 0.961 . S
H2816 C2828 0.959 . S
H2817 C2831 0.929 . S
H2818 C2832 0.931 . S
H2819 C2834 0.930 . S
C2820 H2808 0.930 . S
C2820 C2821 1.399 . S
C2820 C2825 1.399 . S
C2821 C2820 1.399 . S
C2821 C2822 1.376 . S
C2822 H2809 0.930 . S
C2822 C2821 1.376 . S
C2822 C2823 1.388 . S
C2823 H2810 0.930 . S
C2823 C2822 1.388 . S
C2823 C2824 1.390 . S
C2824 C2823 1.390 . S
C2824 C2825 1.394 . S
C2824 C2830 1.465 . S
C2825 C2820 1.399 . S
C2825 C2824 1.394 . S
C2825 C2826 1.516 . S
C2826 C2825 1.516 . S
C2826 C2827 1.502 . S
C2826 C2828 1.561 . S
C2826 C2829 1.526 . S
C2827 H2811 0.959 . S
C2827 H2812 0.959 . S
C2827 H2813 0.961 . S
C2827 C2826 1.502 . S
C2828 H2814 0.960 . S
C2828 H2815 0.961 . S
C2828 H2816 0.959 . S
C2828 C2826 1.561 . S
C2829 C2826 1.526 . S
C2829 C2830 1.396 . S
C2829 C2834 1.390 . S
C2830 C2824 1.465 . S
C2830 C2829 1.396 . S
C2830 C2831 1.399 . S
C2831 H2817 0.929 . S
C2831 C2830 1.399 . S
C2831 C2832 1.385 . S
C2832 H2818 0.931 . S
C2832 C2831 1.385 . S
C2832 C2833 1.389 . S
C2833 C2832 1.389 . S
C2833 C2834 1.387 . S
C2834 H2819 0.930 . S
C2834 C2829 1.390 . S
C2834 C2833 1.387 . S
H2835 C2847 0.930 . S
H2836 C2849 0.930 . S
H2837 C2850 0.930 . S
H2838 C2854 0.959 . S
H2839 C2854 0.959 . S
H2840 C2854 0.961 . S
H2841 C2855 0.960 . S
H2842 C2855 0.961 . S
H2843 C2855 0.959 . S
H2844 C2858 0.929 . S
H2845 C2859 0.931 . S
H2846 C2861 0.930 . S
C2847 H2835 0.930 . S
C2847 C2848 1.399 . S
C2847 C2852 1.399 . S
C2848 C2847 1.399 . S
C2848 C2849 1.376 . S
C2849 H2836 0.930 . S
C2849 C2848 1.376 . S
C2849 C2850 1.388 . S
C2850 H2837 0.930 . S
C2850 C2849 1.388 . S
C2850 C2851 1.390 . S
C2851 C2850 1.390 . S
C2851 C2852 1.394 . S
C2851 C2857 1.465 . S
C2852 C2847 1.399 . S
C2852 C2851 1.394 . S
C2852 C2853 1.516 . S
C2853 C2852 1.516 . S
C2853 C2854 1.502 . S
C2853 C2855 1.561 . S
C2853 C2856 1.526 . S
C2854 H2838 0.959 . S
C2854 H2839 0.959 . S
C2854 H2840 0.961 . S
C2854 C2853 1.502 . S
C2855 H2841 0.960 . S
C2855 H2842 0.961 . S
C2855 H2843 0.959 . S
C2855 C2853 1.561 . S
C2856 C2853 1.526 . S
C2856 C2857 1.396 . S
C2856 C2861 1.390 . S
C2857 C2851 1.465 . S
C2857 C2856 1.396 . S
C2857 C2858 1.399 . S
C2858 H2844 0.929 . S
C2858 C2857 1.399 . S
C2858 C2859 1.385 . S
C2859 H2845 0.931 . S
C2859 C2858 1.385 . S
C2859 C2860 1.389 . S
C2860 C2859 1.389 . S
C2860 C2861 1.387 . S
C2861 H2846 0.930 . S
C2861 C2856 1.390 . S
C2861 C2860 1.387 . S
H2862 C2874 0.930 . S
H2863 C2876 0.930 . S
H2864 C2877 0.930 . S
H2865 C2881 0.959 . S
H2866 C2881 0.959 . S
H2867 C2881 0.961 . S
H2868 C2882 0.960 . S
H2869 C2882 0.961 . S
H2870 C2882 0.959 . S
H2871 C2885 0.929 . S
H2872 C2886 0.931 . S
H2873 C2888 0.930 . S
C2874 H2862 0.930 . S
C2874 C2875 1.399 . S
C2874 C2879 1.399 . S
C2875 C2874 1.399 . S
C2875 C2876 1.376 . S
C2876 H2863 0.930 . S
C2876 C2875 1.376 . S
C2876 C2877 1.388 . S
C2877 H2864 0.930 . S
C2877 C2876 1.388 . S
C2877 C2878 1.390 . S
C2878 C2877 1.390 . S
C2878 C2879 1.394 . S
C2878 C2884 1.465 . S
C2879 C2874 1.399 . S
C2879 C2878 1.394 . S
C2879 C2880 1.516 . S
C2880 C2879 1.516 . S
C2880 C2881 1.502 . S
C2880 C2882 1.561 . S
C2880 C2883 1.526 . S
C2881 H2865 0.959 . S
C2881 H2866 0.959 . S
C2881 H2867 0.961 . S
C2881 C2880 1.502 . S
C2882 H2868 0.960 . S
C2882 H2869 0.961 . S
C2882 H2870 0.959 . S
C2882 C2880 1.561 . S
C2883 C2880 1.526 . S
C2883 C2884 1.396 . S
C2883 C2888 1.390 . S
C2884 C2878 1.465 . S
C2884 C2883 1.396 . S
C2884 C2885 1.399 . S
C2885 H2871 0.929 . S
C2885 C2884 1.399 . S
C2885 C2886 1.385 . S
C2886 H2872 0.931 . S
C2886 C2885 1.385 . S
C2886 C2887 1.389 . S
C2887 C2886 1.389 . S
C2887 C2888 1.387 . S
C2888 H2873 0.930 . S
C2888 C2883 1.390 . S
C2888 C2887 1.387 . S
H2889 C2901 0.930 . S
H2890 C2903 0.930 1_655 S
H2891 C2904 0.930 . S
H2892 C2908 0.959 . S
H2893 C2908 0.959 . S
H2894 C2908 0.961 . S
H2895 C2909 0.960 . S
H2896 C2909 0.961 . S
H2897 C2909 0.959 . S
H2898 C2912 0.929 . S
H2899 C2913 0.931 . S
H2900 C2915 0.930 . S
C2901 H2889 0.930 . S
C2901 C2902 1.399 . S
C2901 C2906 1.399 . S
C2902 C2901 1.399 . S
C2902 C2903 1.420 . S
C2903 H2890 0.930 1_455 S
C2903 C2902 1.420 . S
C2903 C2904 1.349 1_455 S
C2904 H2891 0.930 . S
C2904 C2903 1.349 1_655 S
C2904 C2905 1.390 1_655 S
C2905 C2904 1.390 1_455 S
C2905 C2906 1.394 . S
C2905 C2911 1.465 . S
C2906 C2901 1.399 . S
C2906 C2905 1.394 . S
C2906 C2907 1.516 . S
C2907 C2906 1.516 . S
C2907 C2908 1.502 . S
C2907 C2909 1.561 1_455 S
C2907 C2910 1.526 . S
C2908 H2892 0.959 . S
C2908 H2893 0.959 . S
C2908 H2894 0.961 . S
C2908 C2907 1.502 . S
C2909 H2895 0.960 . S
C2909 H2896 0.961 . S
C2909 H2897 0.959 . S
C2909 C2907 1.561 1_655 S
C2910 C2907 1.526 . S
C2910 C2911 1.396 . S
C2910 C2915 1.390 . S
C2911 C2905 1.465 . S
C2911 C2910 1.396 . S
C2911 C2912 1.399 1_455 S
C2912 H2898 0.929 . S
C2912 C2911 1.399 1_655 S
C2912 C2913 1.385 . S
C2913 H2899 0.931 . S
C2913 C2912 1.385 . S
C2913 C2914 1.389 1_655 S
C2914 C2913 1.389 1_455 S
C2914 C2915 1.387 . S
C2915 H2900 0.930 . S
C2915 C2910 1.390 . S
C2915 C2914 1.387 . S
H2916 C2928 0.930 . S
H2917 C2930 0.930 . S
H2918 C2931 0.930 . S
H2919 C2935 0.959 . S
H2920 C2935 0.959 . S
H2921 C2935 0.961 . S
H2922 C2936 0.960 . S
H2923 C2936 0.961 . S
H2924 C2936 0.959 . S
H2925 C2939 0.929 . S
H2926 C2940 0.931 . S
H2927 C2942 0.930 . S
C2928 H2916 0.930 . S
C2928 C2929 1.399 . S
C2928 C2933 1.399 . S
C2929 C2928 1.399 . S
C2929 C2930 1.376 . S
C2930 H2917 0.930 . S
C2930 C2929 1.376 . S
C2930 C2931 1.388 . S
C2931 H2918 0.930 . S
C2931 C2930 1.388 . S
C2931 C2932 1.390 . S
C2932 C2931 1.390 . S
C2932 C2933 1.394 . S
C2932 C2938 1.465 . S
C2933 C2928 1.399 . S
C2933 C2932 1.394 . S
C2933 C2934 1.516 . S
C2934 C2933 1.516 . S
C2934 C2935 1.502 . S
C2934 C2936 1.561 . S
C2934 C2937 1.526 . S
C2935 H2919 0.959 . S
C2935 H2920 0.959 . S
C2935 H2921 0.961 . S
C2935 C2934 1.502 . S
C2936 H2922 0.960 . S
C2936 H2923 0.961 . S
C2936 H2924 0.959 . S
C2936 C2934 1.561 . S
C2937 C2934 1.526 . S
C2937 C2938 1.396 . S
C2937 C2942 1.390 . S
C2938 C2932 1.465 . S
C2938 C2937 1.396 . S
C2938 C2939 1.399 . S
C2939 H2925 0.929 . S
C2939 C2938 1.399 . S
C2939 C2940 1.385 . S
C2940 H2926 0.931 . S
C2940 C2939 1.385 . S
C2940 C2941 1.389 . S
C2941 C2940 1.389 . S
C2941 C2942 1.387 . S
C2942 H2927 0.930 . S
C2942 C2937 1.390 . S
C2942 C2941 1.387 . S
H2943 C2955 0.930 . S
H2944 C2957 0.930 . S
H2945 C2958 0.930 . S
H2946 C2962 0.959 . S
H2947 C2962 0.959 . S
H2948 C2962 0.961 . S
H2949 C2963 0.960 . S
H2950 C2963 0.961 . S
H2951 C2963 0.959 . S
H2952 C2966 0.929 . S
H2953 C2967 0.931 . S
H2954 C2969 0.930 . S
C2955 H2943 0.930 . S
C2955 C2956 1.399 . S
C2955 C2960 1.399 . S
C2956 C2955 1.399 . S
C2956 C2957 1.376 1_565 S
C2957 H2944 0.930 . S
C2957 C2956 1.376 1_545 S
C2957 C2958 1.388 . S
C2958 H2945 0.930 . S
C2958 C2957 1.388 . S
C2958 C2959 1.390 1_545 S
C2959 C2958 1.390 1_565 S
C2959 C2960 1.394 . S
C2959 C2965 1.465 . S
C2960 C2955 1.399 . S
C2960 C2959 1.394 . S
C2960 C2961 1.516 . S
C2961 C2960 1.516 . S
C2961 C2962 1.502 . S
C2961 C2963 1.561 . S
C2961 C2964 1.526 . S
C2962 H2946 0.959 . S
C2962 H2947 0.959 . S
C2962 H2948 0.961 . S
C2962 C2961 1.502 . S
C2963 H2949 0.960 . S
C2963 H2950 0.961 . S
C2963 H2951 0.959 . S
C2963 C2961 1.561 . S
C2964 C2961 1.526 . S
C2964 C2965 1.396 . S
C2964 C2969 1.390 . S
C2965 C2959 1.465 . S
C2965 C2964 1.396 . S
C2965 C2966 1.399 1_565 S
C2966 H2952 0.929 . S
C2966 C2965 1.399 1_545 S
C2966 C2967 1.385 . S
C2967 H2953 0.931 . S
C2967 C2966 1.385 . S
C2967 C2968 1.389 1_545 S
C2968 C2967 1.389 1_565 S
C2968 C2969 1.387 . S
C2969 H2954 0.930 . S
C2969 C2964 1.390 . S
C2969 C2968 1.387 . S
H2970 C2982 0.930 . S
H2971 C2984 0.930 . S
H2972 C2985 0.930 . S
H2973 C2989 0.959 . S
H2974 C2989 0.959 . S
H2975 C2989 0.961 . S
H2976 C2990 0.960 . S
H2977 C2990 0.961 . S
H2978 C2990 0.959 . S
H2979 C2993 0.929 . S
H2980 C2994 0.931 . S
H2981 C2996 0.930 . S
C2982 H2970 0.930 . S
C2982 C2983 1.399 1_545 S
C2982 C2987 1.401 . S
C2983 C2982 1.399 1_565 S
C2983 C2984 1.376 . S
C2984 H2971 0.930 . S
C2984 C2983 1.376 . S
C2984 C2985 1.388 . S
C2985 H2972 0.930 . S
C2985 C2984 1.388 . S
C2985 C2986 1.390 . S
C2986 C2985 1.390 . S
C2986 C2987 1.398 1_565 S
C2986 C2992 1.465 . S
C2987 C2982 1.401 . S
C2987 C2986 1.398 1_545 S
C2987 C2988 1.509 . S
C2988 C2987 1.509 . S
C2988 C2989 1.502 . S
C2988 C2990 1.561 . S
C2988 C2991 1.526 . S
C2989 H2973 0.959 . S
C2989 H2974 0.959 . S
C2989 H2975 0.961 . S
C2989 C2988 1.502 . S
C2990 H2976 0.960 . S
C2990 H2977 0.961 . S
C2990 H2978 0.959 . S
C2990 C2988 1.561 . S
C2991 C2988 1.526 . S
C2991 C2992 1.396 1_545 S
C2991 C2996 1.390 . S
C2992 C2986 1.465 . S
C2992 C2991 1.396 1_565 S
C2992 C2993 1.399 . S
C2993 H2979 0.929 . S
C2993 C2992 1.399 . S
C2993 C2994 1.385 . S
C2994 H2980 0.931 . S
C2994 C2993 1.385 . S
C2994 C2995 1.389 . S
C2995 C2994 1.389 . S
C2995 C2996 1.387 1_565 S
C2996 H2981 0.930 . S
C2996 C2991 1.390 . S
C2996 C2995 1.387 1_545 S
H2997 C3009 0.930 . S
H2998 C3011 0.930 . S
H2999 C3012 0.930 . S
H3000 C3016 0.959 . S
H3001 C3016 0.976 . S
H3002 C3016 0.958 . S
H3003 C3017 0.960 . S
H3004 C3017 0.961 . S
H3005 C3017 0.959 . S
H3006 C3020 0.929 . S
H3007 C3021 0.931 . S
H3008 C3023 0.930 . S
C3009 H2997 0.930 . S
C3009 C3010 1.399 . S
C3009 C3014 1.399 . S
C3010 C3009 1.399 . S
C3010 C3011 1.376 . S
C3011 H2998 0.930 . S
C3011 C3010 1.376 . S
C3011 C3012 1.388 . S
C3012 H2999 0.930 . S
C3012 C3011 1.388 . S
C3012 C3013 1.390 . S
C3013 C3012 1.390 . S
C3013 C3014 1.394 . S
C3013 C3019 1.465 . S
C3014 C3009 1.399 . S
C3014 C3013 1.394 . S
C3014 C3015 1.516 . S
C3015 C3014 1.516 . S
C3015 C3016 1.502 1_455 S
C3015 C3017 1.561 . S
C3015 C3018 1.526 . S
C3016 H3000 0.959 . S
C3016 H3001 0.976 . S
C3016 H3002 0.958 . S
C3016 C3015 1.502 1_655 S
C3017 H3003 0.960 . S
C3017 H3004 0.961 . S
C3017 H3005 0.959 . S
C3017 C3015 1.561 . S
C3018 C3015 1.526 . S
C3018 C3019 1.396 . S
C3018 C3023 1.390 . S
C3019 C3013 1.465 . S
C3019 C3018 1.396 . S
C3019 C3020 1.399 . S
C3020 H3006 0.929 . S
C3020 C3019 1.399 . S
C3020 C3021 1.385 . S
C3021 H3007 0.931 . S
C3021 C3020 1.385 . S
C3021 C3022 1.389 . S
C3022 C3021 1.389 . S
C3022 C3023 1.387 . S
C3023 H3008 0.930 . S
C3023 C3018 1.390 . S
C3023 C3022 1.387 . S
H3024 C3036 0.930 . S
H3025 C3038 0.930 . S
H3026 C3039 0.930 . S
H3027 C3043 0.959 . S
H3028 C3043 0.959 . S
H3029 C3043 0.961 . S
H3030 C3044 0.960 . S
H3031 C3044 0.961 . S
H3032 C3044 0.959 . S
H3033 C3047 0.929 . S
H3034 C3048 0.931 . S
H3035 C3050 0.930 . S
C3036 H3024 0.930 . S
C3036 C3037 1.399 . S
C3036 C3041 1.399 . S
C3037 C3036 1.399 . S
C3037 C3038 1.376 . S
C3038 H3025 0.930 . S
C3038 C3037 1.376 . S
C3038 C3039 1.388 . S
C3039 H3026 0.930 . S
C3039 C3038 1.388 . S
C3039 C3040 1.390 . S
C3040 C3039 1.390 . S
C3040 C3041 1.394 . S
C3040 C3046 1.465 . S
C3041 C3036 1.399 . S
C3041 C3040 1.394 . S
C3041 C3042 1.516 . S
C3042 C3041 1.516 . S
C3042 C3043 1.502 . S
C3042 C3044 1.561 . S
C3042 C3045 1.526 . S
C3043 H3027 0.959 . S
C3043 H3028 0.959 . S
C3043 H3029 0.961 . S
C3043 C3042 1.502 . S
C3044 H3030 0.960 . S
C3044 H3031 0.961 . S
C3044 H3032 0.959 . S
C3044 C3042 1.561 . S
C3045 C3042 1.526 . S
C3045 C3046 1.396 . S
C3045 C3050 1.390 . S
C3046 C3040 1.465 . S
C3046 C3045 1.396 . S
C3046 C3047 1.399 . S
C3047 H3033 0.929 . S
C3047 C3046 1.399 . S
C3047 C3048 1.385 . S
C3048 H3034 0.931 . S
C3048 C3047 1.385 . S
C3048 C3049 1.389 . S
C3049 C3048 1.389 . S
C3049 C3050 1.387 . S
C3050 H3035 0.930 . S
C3050 C3045 1.390 . S
C3050 C3049 1.387 . S
H3051 C3063 0.930 . S
H3052 C3065 0.930 . S
H3053 C3066 0.930 . S
H3054 C3070 0.959 . S
H3055 C3070 0.959 . S
H3056 C3070 0.961 . S
H3057 C3071 0.960 . S
H3058 C3071 0.961 . S
H3059 C3071 0.959 . S
H3060 C3074 0.929 . S
H3061 C3075 0.931 . S
H3062 C3077 0.930 . S
C3063 H3051 0.930 . S
C3063 C3064 1.399 . S
C3063 C3068 1.399 . S
C3064 C3063 1.399 . S
C3064 C3065 1.376 . S
C3065 H3052 0.930 . S
C3065 C3064 1.376 . S
C3065 C3066 1.388 . S
C3066 H3053 0.930 . S
C3066 C3065 1.388 . S
C3066 C3067 1.390 . S
C3067 C3066 1.390 . S
C3067 C3068 1.394 . S
C3067 C3073 1.465 . S
C3068 C3063 1.399 . S
C3068 C3067 1.394 . S
C3068 C3069 1.516 . S
C3069 C3068 1.516 . S
C3069 C3070 1.502 . S
C3069 C3071 1.561 . S
C3069 C3072 1.526 . S
C3070 H3054 0.959 . S
C3070 H3055 0.959 . S
C3070 H3056 0.961 . S
C3070 C3069 1.502 . S
C3071 H3057 0.960 . S
C3071 H3058 0.961 . S
C3071 H3059 0.959 . S
C3071 C3069 1.561 . S
C3072 C3069 1.526 . S
C3072 C3073 1.396 . S
C3072 C3077 1.390 . S
C3073 C3067 1.465 . S
C3073 C3072 1.396 . S
C3073 C3074 1.399 . S
C3074 H3060 0.929 . S
C3074 C3073 1.399 . S
C3074 C3075 1.385 . S
C3075 H3061 0.931 . S
C3075 C3074 1.385 . S
C3075 C3076 1.389 . S
C3076 C3075 1.389 . S
C3076 C3077 1.387 . S
C3077 H3062 0.930 . S
C3077 C3072 1.390 . S
C3077 C3076 1.387 . S
H3078 C3090 0.930 . S
H3079 C3092 0.930 . S
H3080 C3093 0.930 . S
H3081 C3097 0.959 . S
H3082 C3097 0.959 . S
H3083 C3097 0.961 . S
H3084 C3098 0.960 . S
H3085 C3098 0.961 . S
H3086 C3098 0.959 . S
H3087 C3101 0.929 . S
H3088 C3102 0.931 . S
H3089 C3104 0.930 . S
C3090 H3078 0.930 . S
C3090 C3091 1.399 . S
C3090 C3095 1.399 . S
C3091 C3090 1.399 . S
C3091 C3092 1.376 . S
C3092 H3079 0.930 . S
C3092 C3091 1.376 . S
C3092 C3093 1.388 . S
C3093 H3080 0.930 . S
C3093 C3092 1.388 . S
C3093 C3094 1.390 . S
C3094 C3093 1.390 . S
C3094 C3095 1.394 . S
C3094 C3100 1.465 . S
C3095 C3090 1.399 . S
C3095 C3094 1.394 . S
C3095 C3096 1.516 . S
C3096 C3095 1.516 . S
C3096 C3097 1.502 . S
C3096 C3098 1.561 . S
C3096 C3099 1.526 . S
C3097 H3081 0.959 . S
C3097 H3082 0.959 . S
C3097 H3083 0.961 . S
C3097 C3096 1.502 . S
C3098 H3084 0.960 . S
C3098 H3085 0.961 . S
C3098 H3086 0.959 . S
C3098 C3096 1.561 . S
C3099 C3096 1.526 . S
C3099 C3100 1.396 . S
C3099 C3104 1.390 . S
C3100 C3094 1.465 . S
C3100 C3099 1.396 . S
C3100 C3101 1.399 . S
C3101 H3087 0.929 . S
C3101 C3100 1.399 . S
C3101 C3102 1.385 . S
C3102 H3088 0.931 . S
C3102 C3101 1.385 . S
C3102 C3103 1.389 . S
C3103 C3102 1.389 . S
C3103 C3104 1.387 . S
C3104 H3089 0.930 . S
C3104 C3099 1.390 . S
C3104 C3103 1.387 . S
H3105 C3117 0.930 . S
H3106 C3119 0.930 . S
H3107 C3120 0.930 . S
H3108 C3124 0.959 . S
H3109 C3124 0.959 . S
H3110 C3124 0.961 . S
H3111 C3125 0.960 . S
H3112 C3125 0.961 . S
H3113 C3125 0.959 . S
H3114 C3128 0.929 . S
H3115 C3129 0.931 . S
H3116 C3131 0.930 . S
C3117 H3105 0.930 . S
C3117 C3118 1.399 . S
C3117 C3122 1.399 . S
C3118 C3117 1.399 . S
C3118 C3119 1.376 . S
C3119 H3106 0.930 . S
C3119 C3118 1.376 . S
C3119 C3120 1.388 . S
C3120 H3107 0.930 . S
C3120 C3119 1.388 . S
C3120 C3121 1.390 . S
C3121 C3120 1.390 . S
C3121 C3122 1.394 . S
C3121 C3127 1.465 . S
C3122 C3117 1.399 . S
C3122 C3121 1.394 . S
C3122 C3123 1.516 . S
C3123 C3122 1.516 . S
C3123 C3124 1.502 . S
C3123 C3125 1.561 . S
C3123 C3126 1.526 . S
C3124 H3108 0.959 . S
C3124 H3109 0.959 . S
C3124 H3110 0.961 . S
C3124 C3123 1.502 . S
C3125 H3111 0.960 . S
C3125 H3112 0.961 . S
C3125 H3113 0.959 . S
C3125 C3123 1.561 . S
C3126 C3123 1.526 . S
C3126 C3127 1.396 . S
C3126 C3131 1.390 . S
C3127 C3121 1.465 . S
C3127 C3126 1.396 . S
C3127 C3128 1.399 . S
C3128 H3114 0.929 . S
C3128 C3127 1.399 . S
C3128 C3129 1.385 . S
C3129 H3115 0.931 . S
C3129 C3128 1.385 . S
C3129 C3130 1.389 . S
C3130 C3129 1.389 . S
C3130 C3131 1.387 . S
C3131 H3116 0.930 . S
C3131 C3126 1.390 . S
C3131 C3130 1.387 . S
H3132 C3144 0.925 . S
H3133 C3146 0.930 . S
H3134 C3147 0.930 . S
H3135 C3151 0.959 . S
H3136 C3151 0.959 . S
H3137 C3151 0.961 . S
H3138 C3152 0.960 . S
H3139 C3152 0.961 . S
H3140 C3152 1.010 . S
H3141 C3155 0.929 . S
H3142 C3156 0.931 . S
H3143 C3158 0.930 . S
C3144 H3132 0.925 . S
C3144 C3145 1.407 1_565 S
C3144 C3149 1.397 1_565 S
C3145 C3144 1.407 1_545 S
C3145 C3146 1.376 . S
C3146 H3133 0.930 . S
C3146 C3145 1.376 . S
C3146 C3147 1.388 . S
C3147 H3134 0.930 . S
C3147 C3146 1.388 . S
C3147 C3148 1.390 . S
C3148 C3147 1.390 . S
C3148 C3149 1.394 . S
C3148 C3154 1.465 . S
C3149 C3144 1.397 1_545 S
C3149 C3148 1.394 . S
C3149 C3150 1.516 1_545 S
C3150 C3149 1.516 1_565 S
C3150 C3151 1.502 . S
C3150 C3152 1.561 . S
C3150 C3153 1.532 . S
C3151 H3135 0.959 . S
C3151 H3136 0.959 . S
C3151 H3137 0.961 . S
C3151 C3150 1.502 . S
C3152 H3138 0.960 . S
C3152 H3139 0.961 . S
C3152 H3140 1.010 . S
C3152 C3150 1.561 . S
C3153 C3150 1.532 . S
C3153 C3154 1.357 1_565 S
C3153 C3158 1.417 . S
C3154 C3148 1.465 . S
C3154 C3153 1.357 1_545 S
C3154 C3155 1.399 . S
C3155 H3141 0.929 . S
C3155 C3154 1.399 . S
C3155 C3156 1.385 . S
C3156 H3142 0.931 . S
C3156 C3155 1.385 . S
C3156 C3157 1.389 . S
C3157 C3156 1.389 . S
C3157 C3158 1.387 1_545 S
C3158 H3143 0.930 . S
C3158 C3153 1.417 . S
C3158 C3157 1.387 1_565 S
H3159 C3171 0.930 1_455 S
H3160 C3173 0.930 . S
H3161 C3174 0.930 . S
H3162 C3178 0.959 . S
H3163 C3178 0.959 . S
H3164 C3178 0.961 . S
H3165 C3179 0.960 . S
H3166 C3179 0.961 . S
H3167 C3179 0.959 1_655 S
H3168 C3182 0.929 . S
H3169 C3183 0.931 . S
H3170 C3185 0.930 . S
C3171 H3159 0.930 1_655 S
C3171 C3172 1.399 . S
C3171 C3176 1.399 . S
C3172 C3171 1.399 . S
C3172 C3173 1.376 . S
C3173 H3160 0.930 . S
C3173 C3172 1.376 . S
C3173 C3174 1.388 . S
C3174 H3161 0.930 . S
C3174 C3173 1.388 . S
C3174 C3175 1.390 . S
C3175 C3174 1.390 . S
C3175 C3176 1.394 . S
C3175 C3181 1.465 . S
C3176 C3171 1.399 . S
C3176 C3175 1.394 . S
C3176 C3177 1.516 1_655 S
C3177 C3176 1.516 1_455 S
C3177 C3178 1.502 . S
C3177 C3179 1.561 . S
C3177 C3180 1.526 1_455 S
C3178 H3162 0.959 . S
C3178 H3163 0.959 . S
C3178 H3164 0.961 . S
C3178 C3177 1.502 . S
C3179 H3165 0.960 . S
C3179 H3166 0.961 . S
C3179 H3167 0.959 1_455 S
C3179 C3177 1.561 . S
C3180 C3177 1.526 1_655 S
C3180 C3181 1.396 . S
C3180 C3185 1.390 1_655 S
C3181 C3175 1.465 . S
C3181 C3180 1.396 . S
C3181 C3182 1.399 . S
C3182 H3168 0.929 . S
C3182 C3181 1.399 . S
C3182 C3183 1.385 . S
C3183 H3169 0.931 . S
C3183 C3182 1.385 . S
C3183 C3184 1.389 . S
C3184 C3183 1.389 . S
C3184 C3185 1.387 1_655 S
C3185 H3170 0.930 . S
C3185 C3180 1.390 1_455 S
C3185 C3184 1.387 1_455 S
H3186 C3198 0.930 . S
H3187 C3200 0.930 . S
H3188 C3201 0.930 . S
H3189 C3205 0.959 . S
H3190 C3205 0.959 . S
H3191 C3205 0.961 . S
H3192 C3206 0.960 . S
H3193 C3206 0.961 . S
H3194 C3206 0.959 . S
H3195 C3209 0.929 . S
H3196 C3210 0.931 . S
H3197 C3212 0.930 . S
C3198 H3186 0.930 . S
C3198 C3199 1.399 . S
C3198 C3203 1.399 . S
C3199 C3198 1.399 . S
C3199 C3200 1.376 . S
C3200 H3187 0.930 . S
C3200 C3199 1.376 . S
C3200 C3201 1.388 . S
C3201 H3188 0.930 . S
C3201 C3200 1.388 . S
C3201 C3202 1.390 . S
C3202 C3201 1.390 . S
C3202 C3203 1.394 . S
C3202 C3208 1.465 . S
C3203 C3198 1.399 . S
C3203 C3202 1.394 . S
C3203 C3204 1.516 . S
C3204 C3203 1.516 . S
C3204 C3205 1.502 . S
C3204 C3206 1.561 . S
C3204 C3207 1.526 . S
C3205 H3189 0.959 . S
C3205 H3190 0.959 . S
C3205 H3191 0.961 . S
C3205 C3204 1.502 . S
C3206 H3192 0.960 . S
C3206 H3193 0.961 . S
C3206 H3194 0.959 . S
C3206 C3204 1.561 . S
C3207 C3204 1.526 . S
C3207 C3208 1.396 . S
C3207 C3212 1.390 . S
C3208 C3202 1.465 . S
C3208 C3207 1.396 . S
C3208 C3209 1.399 . S
C3209 H3195 0.929 . S
C3209 C3208 1.399 . S
C3209 C3210 1.385 . S
C3210 H3196 0.931 . S
C3210 C3209 1.385 . S
C3210 C3211 1.389 . S
C3211 C3210 1.389 . S
C3211 C3212 1.387 . S
C3212 H3197 0.930 . S
C3212 C3207 1.390 . S
C3212 C3211 1.387 . S
H3213 C3225 0.930 . S
H3214 C3227 0.930 . S
H3215 C3228 0.930 . S
H3216 C3232 0.959 . S
H3217 C3232 0.959 . S
H3218 C3232 0.961 . S
H3219 C3233 0.960 . S
H3220 C3233 0.961 . S
H3221 C3233 0.959 . S
H3222 C3236 0.929 . S
H3223 C3237 0.931 . S
H3224 C3239 0.930 . S
C3225 H3213 0.930 . S
C3225 C3226 1.399 . S
C3225 C3230 1.399 . S
C3226 C3225 1.399 . S
C3226 C3227 1.376 . S
C3227 H3214 0.930 . S
C3227 C3226 1.376 . S
C3227 C3228 1.388 . S
C3228 H3215 0.930 . S
C3228 C3227 1.388 . S
C3228 C3229 1.390 . S
C3229 C3228 1.390 . S
C3229 C3230 1.394 . S
C3229 C3235 1.465 . S
C3230 C3225 1.399 . S
C3230 C3229 1.394 . S
C3230 C3231 1.516 . S
C3231 C3230 1.516 . S
C3231 C3232 1.502 . S
C3231 C3233 1.561 . S
C3231 C3234 1.526 . S
C3232 H3216 0.959 . S
C3232 H3217 0.959 . S
C3232 H3218 0.961 . S
C3232 C3231 1.502 . S
C3233 H3219 0.960 . S
C3233 H3220 0.961 . S
C3233 H3221 0.959 . S
C3233 C3231 1.561 . S
C3234 C3231 1.526 . S
C3234 C3235 1.396 . S
C3234 C3239 1.390 . S
C3235 C3229 1.465 . S
C3235 C3234 1.396 . S
C3235 C3236 1.399 . S
C3236 H3222 0.929 . S
C3236 C3235 1.399 . S
C3236 C3237 1.385 . S
C3237 H3223 0.931 . S
C3237 C3236 1.385 . S
C3237 C3238 1.389 . S
C3238 C3237 1.389 . S
C3238 C3239 1.387 . S
C3239 H3224 0.930 . S
C3239 C3234 1.390 . S
C3239 C3238 1.387 . S
H3240 C3252 0.930 . S
H3241 C3254 0.930 . S
H3242 C3255 0.930 . S
H3243 C3259 0.959 . S
H3244 C3259 0.959 . S
H3245 C3259 0.961 . S
H3246 C3260 0.960 . S
H3247 C3260 0.961 . S
H3248 C3260 0.959 . S
H3249 C3263 0.929 . S
H3250 C3264 0.931 . S
H3251 C3266 0.930 . S
C3252 H3240 0.930 . S
C3252 C3253 1.399 . S
C3252 C3257 1.399 . S
C3253 C3252 1.399 . S
C3253 C3254 1.376 . S
C3254 H3241 0.930 . S
C3254 C3253 1.376 . S
C3254 C3255 1.388 . S
C3255 H3242 0.930 . S
C3255 C3254 1.388 . S
C3255 C3256 1.390 . S
C3256 C3255 1.390 . S
C3256 C3257 1.394 . S
C3256 C3262 1.465 . S
C3257 C3252 1.399 . S
C3257 C3256 1.394 . S
C3257 C3258 1.516 . S
C3258 C3257 1.516 . S
C3258 C3259 1.502 . S
C3258 C3260 1.561 . S
C3258 C3261 1.526 . S
C3259 H3243 0.959 . S
C3259 H3244 0.959 . S
C3259 H3245 0.961 . S
C3259 C3258 1.502 . S
C3260 H3246 0.960 . S
C3260 H3247 0.961 . S
C3260 H3248 0.959 . S
C3260 C3258 1.561 . S
C3261 C3258 1.526 . S
C3261 C3262 1.396 . S
C3261 C3266 1.390 . S
C3262 C3256 1.465 . S
C3262 C3261 1.396 . S
C3262 C3263 1.399 . S
C3263 H3249 0.929 . S
C3263 C3262 1.399 . S
C3263 C3264 1.385 . S
C3264 H3250 0.931 . S
C3264 C3263 1.385 . S
C3264 C3265 1.389 . S
C3265 C3264 1.389 . S
C3265 C3266 1.387 . S
C3266 H3251 0.930 . S
C3266 C3261 1.390 . S
C3266 C3265 1.387 . S
H3267 C3279 0.930 . S
H3268 C3281 0.930 . S
H3269 C3282 0.930 . S
H3270 C3286 0.959 . S
H3271 C3286 0.959 . S
H3272 C3286 0.961 . S
H3273 C3287 0.960 . S
H3274 C3287 0.961 . S
H3275 C3287 0.959 . S
H3276 C3290 0.929 . S
H3277 C3291 0.931 . S
H3278 C3293 0.930 . S
C3279 H3267 0.930 . S
C3279 C3280 1.399 . S
C3279 C3284 1.399 . S
C3280 C3279 1.399 . S
C3280 C3281 1.376 . S
C3281 H3268 0.930 . S
C3281 C3280 1.376 . S
C3281 C3282 1.388 . S
C3282 H3269 0.930 . S
C3282 C3281 1.388 . S
C3282 C3283 1.390 . S
C3283 C3282 1.390 . S
C3283 C3284 1.394 . S
C3283 C3289 1.465 . S
C3284 C3279 1.399 . S
C3284 C3283 1.394 . S
C3284 C3285 1.516 . S
C3285 C3284 1.516 . S
C3285 C3286 1.502 . S
C3285 C3287 1.561 . S
C3285 C3288 1.526 . S
C3286 H3270 0.959 . S
C3286 H3271 0.959 . S
C3286 H3272 0.961 . S
C3286 C3285 1.502 . S
C3287 H3273 0.960 . S
C3287 H3274 0.961 . S
C3287 H3275 0.959 . S
C3287 C3285 1.561 . S
C3288 C3285 1.526 . S
C3288 C3289 1.396 . S
C3288 C3293 1.390 . S
C3289 C3283 1.465 . S
C3289 C3288 1.396 . S
C3289 C3290 1.399 . S
C3290 H3276 0.929 . S
C3290 C3289 1.399 . S
C3290 C3291 1.385 . S
C3291 H3277 0.931 . S
C3291 C3290 1.385 . S
C3291 C3292 1.389 . S
C3292 C3291 1.389 . S
C3292 C3293 1.387 . S
C3293 H3278 0.930 . S
C3293 C3288 1.390 . S
C3293 C3292 1.387 . S
H3294 C3306 0.930 . S
H3295 C3308 0.930 . S
H3296 C3309 0.930 . S
H3297 C3313 0.959 . S
H3298 C3313 0.959 . S
H3299 C3313 0.961 . S
H3300 C3314 0.960 . S
H3301 C3314 0.961 . S
H3302 C3314 0.959 . S
H3303 C3317 0.929 . S
H3304 C3318 0.931 . S
H3305 C3320 0.930 . S
C3306 H3294 0.930 . S
C3306 C3307 1.399 . S
C3306 C3311 1.399 . S
C3307 C3306 1.399 . S
C3307 C3308 1.376 . S
C3308 H3295 0.930 . S
C3308 C3307 1.376 . S
C3308 C3309 1.388 . S
C3309 H3296 0.930 . S
C3309 C3308 1.388 . S
C3309 C3310 1.390 . S
C3310 C3309 1.390 . S
C3310 C3311 1.394 . S
C3310 C3316 1.465 . S
C3311 C3306 1.399 . S
C3311 C3310 1.394 . S
C3311 C3312 1.516 . S
C3312 C3311 1.516 . S
C3312 C3313 1.502 . S
C3312 C3314 1.561 . S
C3312 C3315 1.526 . S
C3313 H3297 0.959 . S
C3313 H3298 0.959 . S
C3313 H3299 0.961 . S
C3313 C3312 1.502 . S
C3314 H3300 0.960 . S
C3314 H3301 0.961 . S
C3314 H3302 0.959 . S
C3314 C3312 1.561 . S
C3315 C3312 1.526 . S
C3315 C3316 1.396 . S
C3315 C3320 1.390 . S
C3316 C3310 1.465 . S
C3316 C3315 1.396 . S
C3316 C3317 1.399 . S
C3317 H3303 0.929 . S
C3317 C3316 1.399 . S
C3317 C3318 1.385 . S
C3318 H3304 0.931 . S
C3318 C3317 1.385 . S
C3318 C3319 1.389 . S
C3319 C3318 1.389 . S
C3319 C3320 1.387 . S
C3320 H3305 0.930 . S
C3320 C3315 1.390 . S
C3320 C3319 1.387 . S
H3321 C3333 0.930 . S
H3322 C3335 0.930 . S
H3323 C3336 0.930 . S
H3324 C3340 0.959 . S
H3325 C3340 0.959 . S
H3326 C3340 0.961 . S
H3327 C3341 0.960 . S
H3328 C3341 0.961 . S
H3329 C3341 0.959 . S
H3330 C3344 0.929 . S
H3331 C3345 0.931 . S
H3332 C3347 0.930 . S
C3333 H3321 0.930 . S
C3333 C3334 1.399 . S
C3333 C3338 1.399 . S
C3334 C3333 1.399 . S
C3334 C3335 1.376 . S
C3335 H3322 0.930 . S
C3335 C3334 1.376 . S
C3335 C3336 1.388 . S
C3336 H3323 0.930 . S
C3336 C3335 1.388 . S
C3336 C3337 1.390 . S
C3337 C3336 1.390 . S
C3337 C3338 1.394 . S
C3337 C3343 1.465 . S
C3338 C3333 1.399 . S
C3338 C3337 1.394 . S
C3338 C3339 1.516 . S
C3339 C3338 1.516 . S
C3339 C3340 1.502 . S
C3339 C3341 1.561 . S
C3339 C3342 1.526 . S
C3340 H3324 0.959 . S
C3340 H3325 0.959 . S
C3340 H3326 0.961 . S
C3340 C3339 1.502 . S
C3341 H3327 0.960 . S
C3341 H3328 0.961 . S
C3341 H3329 0.959 . S
C3341 C3339 1.561 . S
C3342 C3339 1.526 . S
C3342 C3343 1.396 . S
C3342 C3347 1.390 . S
C3343 C3337 1.465 . S
C3343 C3342 1.396 . S
C3343 C3344 1.399 . S
C3344 H3330 0.929 . S
C3344 C3343 1.399 . S
C3344 C3345 1.385 . S
C3345 H3331 0.931 . S
C3345 C3344 1.385 . S
C3345 C3346 1.389 . S
C3346 C3345 1.389 . S
C3346 C3347 1.387 . S
C3347 H3332 0.930 . S
C3347 C3342 1.390 . S
C3347 C3346 1.387 . S
H3348 C3360 0.930 . S
H3349 C3362 0.930 . S
H3350 C3363 0.930 . S
H3351 C3367 0.959 . S
H3352 C3367 0.959 . S
H3353 C3367 0.961 . S
H3354 C3368 0.960 . S
H3355 C3368 0.961 . S
H3356 C3368 0.959 . S
H3357 C3371 0.929 . S
H3358 C3372 0.931 . S
H3359 C3374 0.930 . S
C3360 H3348 0.930 . S
C3360 C3361 1.399 . S
C3360 C3365 1.399 . S
C3361 C3360 1.399 . S
C3361 C3362 1.376 . S
C3362 H3349 0.930 . S
C3362 C3361 1.376 . S
C3362 C3363 1.388 . S
C3363 H3350 0.930 . S
C3363 C3362 1.388 . S
C3363 C3364 1.390 . S
C3364 C3363 1.390 . S
C3364 C3365 1.394 . S
C3364 C3370 1.465 . S
C3365 C3360 1.399 . S
C3365 C3364 1.394 . S
C3365 C3366 1.516 . S
C3366 C3365 1.516 . S
C3366 C3367 1.502 . S
C3366 C3368 1.561 . S
C3366 C3369 1.526 . S
C3367 H3351 0.959 . S
C3367 H3352 0.959 . S
C3367 H3353 0.961 . S
C3367 C3366 1.502 . S
C3368 H3354 0.960 . S
C3368 H3355 0.961 . S
C3368 H3356 0.959 . S
C3368 C3366 1.561 . S
C3369 C3366 1.526 . S
C3369 C3370 1.396 . S
C3369 C3374 1.390 . S
C3370 C3364 1.465 . S
C3370 C3369 1.396 . S
C3370 C3371 1.399 . S
C3371 H3357 0.929 . S
C3371 C3370 1.399 . S
C3371 C3372 1.385 . S
C3372 H3358 0.931 . S
C3372 C3371 1.385 . S
C3372 C3373 1.389 . S
C3373 C3372 1.389 . S
C3373 C3374 1.387 . S
C3374 H3359 0.930 . S
C3374 C3369 1.390 . S
C3374 C3373 1.387 . S
H3375 C3387 0.930 . S
H3376 C3389 0.930 . S
H3377 C3390 0.930 . S
H3378 C3394 0.959 . S
H3379 C3394 0.959 . S
H3380 C3394 0.961 . S
H3381 C3395 0.960 . S
H3382 C3395 0.961 . S
H3383 C3395 0.959 . S
H3384 C3398 0.929 . S
H3385 C3399 0.931 . S
H3386 C3401 0.930 . S
C3387 H3375 0.930 . S
C3387 C3388 1.399 . S
C3387 C3392 1.399 . S
C3388 C3387 1.399 . S
C3388 C3389 1.376 1_655 S
C3389 H3376 0.930 . S
C3389 C3388 1.376 1_455 S
C3389 C3390 1.388 . S
C3390 H3377 0.930 . S
C3390 C3389 1.388 . S
C3390 C3391 1.390 1_455 S
C3391 C3390 1.390 1_655 S
C3391 C3392 1.394 . S
C3391 C3397 1.495 . S
C3392 C3387 1.399 . S
C3392 C3391 1.394 . S
C3392 C3393 1.516 . S
C3393 C3392 1.516 . S
C3393 C3394 1.502 . S
C3393 C3395 1.561 . S
C3393 C3396 1.526 . S
C3394 H3378 0.959 . S
C3394 H3379 0.959 . S
C3394 H3380 0.961 . S
C3394 C3393 1.502 . S
C3395 H3381 0.960 . S
C3395 H3382 0.961 . S
C3395 H3383 0.959 . S
C3395 C3393 1.561 . S
C3396 C3393 1.526 . S
C3396 C3397 1.430 . S
C3396 C3401 1.390 . S
C3397 C3391 1.495 . S
C3397 C3396 1.430 . S
C3397 C3398 1.346 1_655 S
C3398 H3384 0.929 . S
C3398 C3397 1.346 1_455 S
C3398 C3399 1.385 . S
C3399 H3385 0.931 . S
C3399 C3398 1.385 . S
C3399 C3400 1.389 1_455 S
C3400 C3399 1.389 1_655 S
C3400 C3401 1.387 . S
C3401 H3386 0.930 . S
C3401 C3396 1.390 . S
C3401 C3400 1.387 . S
H3402 C3414 0.930 . S
H3403 C3416 0.930 . S
H3404 C3417 0.930 . S
H3405 C3421 0.959 . S
H3406 C3421 0.959 . S
H3407 C3421 0.961 . S
H3408 C3422 0.960 . S
H3409 C3422 0.961 . S
H3410 C3422 0.959 . S
H3411 C3425 0.929 . S
H3412 C3426 0.931 . S
H3413 C3428 0.930 . S
C3414 H3402 0.930 . S
C3414 C3415 1.399 . S
C3414 C3419 1.399 . S
C3415 C3414 1.399 . S
C3415 C3416 1.376 . S
C3416 H3403 0.930 . S
C3416 C3415 1.376 . S
C3416 C3417 1.388 . S
C3417 H3404 0.930 . S
C3417 C3416 1.388 . S
C3417 C3418 1.390 . S
C3418 C3417 1.390 . S
C3418 C3419 1.394 . S
C3418 C3424 1.465 . S
C3419 C3414 1.399 . S
C3419 C3418 1.394 . S
C3419 C3420 1.516 . S
C3420 C3419 1.516 . S
C3420 C3421 1.502 . S
C3420 C3422 1.561 . S
C3420 C3423 1.526 . S
C3421 H3405 0.959 . S
C3421 H3406 0.959 . S
C3421 H3407 0.961 . S
C3421 C3420 1.502 . S
C3422 H3408 0.960 . S
C3422 H3409 0.961 . S
C3422 H3410 0.959 . S
C3422 C3420 1.561 . S
C3423 C3420 1.526 . S
C3423 C3424 1.396 . S
C3423 C3428 1.390 . S
C3424 C3418 1.465 . S
C3424 C3423 1.396 . S
C3424 C3425 1.399 . S
C3425 H3411 0.929 . S
C3425 C3424 1.399 . S
C3425 C3426 1.385 . S
C3426 H3412 0.931 . S
C3426 C3425 1.385 . S
C3426 C3427 1.389 . S
C3427 C3426 1.389 . S
C3427 C3428 1.387 . S
C3428 H3413 0.930 . S
C3428 C3423 1.390 . S
C3428 C3427 1.387 . S
H3429 C3441 0.930 . S
H3430 C3443 0.930 . S
H3431 C3444 0.930 . S
H3432 C3448 0.959 . S
H3433 C3448 0.959 . S
H3434 C3448 0.961 . S
H3435 C3449 0.960 . S
H3436 C3449 0.961 . S
H3437 C3449 0.959 . S
H3438 C3452 0.929 . S
H3439 C3453 0.931 . S
H3440 C3455 0.930 . S
C3441 H3429 0.930 . S
C3441 C3442 1.399 . S
C3441 C3446 1.399 . S
C3442 C3441 1.399 . S
C3442 C3443 1.376 1_545 S
C3443 H3430 0.930 . S
C3443 C3442 1.376 1_565 S
C3443 C3444 1.388 . S
C3444 H3431 0.930 . S
C3444 C3443 1.388 . S
C3444 C3445 1.390 1_565 S
C3445 C3444 1.390 1_545 S
C3445 C3446 1.394 . S
C3445 C3451 1.457 . S
C3446 C3441 1.399 . S
C3446 C3445 1.394 . S
C3446 C3447 1.516 . S
C3447 C3446 1.516 . S
C3447 C3448 1.502 . S
C3447 C3449 1.561 . S
C3447 C3450 1.526 . S
C3448 H3432 0.959 . S
C3448 H3433 0.959 . S
C3448 H3434 0.961 . S
C3448 C3447 1.502 . S
C3449 H3435 0.960 . S
C3449 H3436 0.961 . S
C3449 H3437 0.959 . S
C3449 C3447 1.561 . S
C3450 C3447 1.526 . S
C3450 C3451 1.409 . S
C3450 C3455 1.390 . S
C3451 C3445 1.457 . S
C3451 C3450 1.409 . S
C3451 C3452 1.396 1_545 S
C3452 H3438 0.929 . S
C3452 C3451 1.396 1_565 S
C3452 C3453 1.385 . S
C3453 H3439 0.931 . S
C3453 C3452 1.385 . S
C3453 C3454 1.389 1_565 S
C3454 C3453 1.389 1_545 S
C3454 C3455 1.387 . S
C3455 H3440 0.930 . S
C3455 C3450 1.390 . S
C3455 C3454 1.387 . S
C1525 C4 1.484 . S
C1537 C1125 1.462 . S
C1552 C38 1.685 . S
C1564 C1173 1.695 . S
C1591 C1221 1.486 . S
C1579 C74 1.451 . S
C1606 C76 1.434 . S
C1618 C1245 1.456 . S
C1633 C2 1.505 . S
C1645 C1317 1.570 . S
C1660 C40 1.529 . S
C1672 C1365 1.530 . S
C1687 C110 1.523 . S
C1699 C1293 1.532 . S
C1726 C1341 1.557 . S
C1714 C148 1.557 . S
C1753 C1269 1.587 . S
C1741 C182 1.536 . S
C1768 C184 1.497 . S
C1780 C1197 1.503 . S
C1807 C1101 1.446 . S
C1795 C112 1.448 . S
C1822 C146 1.622 . S
C1834 C1149 1.632 . S
C1849 C220 1.642 . S
C1861 C1413 1.643 . S
C1876 C254 1.787 . S
C1888 C1461 1.786 . S
C1915 C1485 1.607 . S
C1903 C290 1.645 . S
C1930 C292 1.540 . S
C1942 C669 1.509 . S
C1957 C218 1.671 . S
C1969 C741 1.683 . S
C1984 C256 1.558 . S
C1996 C789 1.550 . S
C2011 C326 1.668 . S
C2023 C717 1.668 . S
C2038 C364 1.588 . S
C2050 C765 1.575 . S
C2077 C693 1.677 . S
C2065 C398 1.701 . S
C2104 C1509 1.652 . S
C2092 C400 1.669 . S
C2131 C1389 1.528 . S
C2119 C328 1.533 . S
C2158 C1437 1.698 . S
C2146 C362 1.704 . S
C2173 C436 1.570 . S
C2185 C837 1.571 . S
C2200 C470 1.761 . S
C2212 C885 1.761 . S
C2227 C506 1.655 . S
C2239 C909 1.652 . S
C2254 C508 1.625 . S
C2266 C957 1.598 . S
C2293 C1029 1.673 . S
C2281 C434 1.668 . S
C2320 C1077 1.603 . S
C2308 C472 1.603 . S
C2347 C1005 1.742 . S
C2335 C542 1.741 . S
C2374 C1053 1.606 . S
C2362 C580 1.622 . S
C2389 C614 1.686 . S
C2401 C981 1.660 . S
C2428 C933 1.524 . S
C2416 C616 1.565 . S
C2443 C544 1.522 . S
C2455 C813 1.522 . S
C2482 C861 1.692 . S
C2470 C578 1.692 . S
C2509 C678 1.627 . S
C2497 C14 1.617 . S
C2524 C39 1.522 . S
C2536 C732 1.532 . S
C2563 C780 1.489 . S
C2551 C75 1.561 . S
C2590 C828 1.471 . S
C2578 C86 1.466 . S
C2617 C876 1.584 . S
C2605 C3 1.582 . S
C2644 C918 1.541 . S
C2632 C50 1.521 . S
C2659 C111 1.579 . S
C2671 C924 1.585 . S
C2686 C158 1.439 . S
C2698 C822 1.421 . S
C2713 C183 1.670 . S
C2725 C870 1.586 . S
C2740 C194 1.596 . S
C2752 C726 1.589 . S
C2779 C774 1.508 . S
C2767 C122 1.521 . S
C2794 C147 1.464 . S
C2806 C684 1.424 . S
C2833 C966 1.589 . S
C2821 C230 1.576 . S
C2848 C255 1.650 . S
C2860 C1020 1.590 . S
C2875 C291 1.576 . S
C2887 C1068 1.549 . S
C2914 C1116 1.351 . S
C2902 C302 1.316 . S
C2929 C219 1.571 . S
C2941 C1164 1.516 . S
C2956 C266 1.361 . S
C2968 C1212 1.417 . S
C2983 C327 1.351 . S
C2995 C1206 1.320 . S
C3010 C374 1.324 . S
C3022 C1110 1.383 . S
C3049 C1158 1.576 . S
C3037 C399 1.628 . S
C3064 C410 1.520 . S
C3076 C1014 1.511 . S
C3091 C338 1.558 . S
C3103 C1062 1.542 . S
C3130 C972 1.551 . S
C3118 C363 1.567 . S
C3157 C1254 1.428 . S
C3145 C446 1.318 . S
C3172 C471 1.402 . S
C3184 C1308 1.392 . S
C3199 C507 1.498 . S
C3211 C1356 1.510 . S
C3238 C1404 1.446 . S
C3226 C518 1.449 . S
C3265 C1452 1.640 . S
C3253 C435 1.636 . S
C3280 C482 1.569 . S
C3292 C1494 1.628 . S
C3307 C543 1.533 . S
C3319 C1500 1.491 . S
C3334 C590 1.566 . S
C3346 C1398 1.553 . S
C3373 C1446 1.655 . S
C3361 C615 1.691 . S
C3400 C1302 1.433 . S
C3388 C626 1.384 . S
C3427 C1350 1.489 . S
C3415 C554 1.503 . S
C3442 C579 1.351 . S
C3454 C1260 1.365 . S
