# Generated by pormake.
# Topology eea, (3,6)-cn, num edge types: 1
# Building blocks:
#     Node 0, Type 0, BuildingBlock: BETDAH_clean_linker_0, # of connection points: 3
#     Node 1, Type 0, BuildingBlock: BETDAH_clean_linker_0, # of connection points: 3
#     Node 2, Type 0, BuildingBlock: BETDAH_clean_linker_0, # of connection points: 3
#     Node 3, Type 0, BuildingBlock: BETDAH_clean_linker_0, # of connection points: 3
#     Node 4, Type 0, BuildingBlock: BETDAH_clean_linker_0, # of connection points: 3
#     Node 5, Type 0, BuildingBlock: BETDAH_clean_linker_0, # of connection points: 3
#     Node 6, Type 0, BuildingBlock: BETDAH_clean_linker_0, # of connection points: 3
#     Node 7, Type 0, BuildingBlock: BETDAH_clean_linker_0, # of connection points: 3
#     Node 8, Type 0, BuildingBlock: BETDAH_clean_linker_0, # of connection points: 3
#     Node 9, Type 0, BuildingBlock: BETDAH_clean_linker_0, # of connection points: 3
#     Node 10, Type 0, BuildingBlock: BETDAH_clean_linker_0, # of connection points: 3
#     Node 11, Type 0, BuildingBlock: BETDAH_clean_linker_0, # of connection points: 3
#     Node 12, Type 0, BuildingBlock: BETDAH_clean_linker_0, # of connection points: 3
#     Node 13, Type 0, BuildingBlock: BETDAH_clean_linker_0, # of connection points: 3
#     Node 14, Type 0, BuildingBlock: BETDAH_clean_linker_0, # of connection points: 3
#     Node 15, Type 0, BuildingBlock: BETDAH_clean_linker_0, # of connection points: 3
#     Node 16, Type 0, BuildingBlock: BETDAH_clean_linker_0, # of connection points: 3
#     Node 17, Type 0, BuildingBlock: BETDAH_clean_linker_0, # of connection points: 3
#     Node 18, Type 1, BuildingBlock: CIFDUS_clean_sbu_1, # of connection points: 6
#     Node 19, Type 1, BuildingBlock: CIFDUS_clean_sbu_1, # of connection points: 6
#     Node 20, Type 1, BuildingBlock: CIFDUS_clean_sbu_1, # of connection points: 6
#     Node 21, Type 1, BuildingBlock: CIFDUS_clean_sbu_1, # of connection points: 6
#     Node 22, Type 1, BuildingBlock: CIFDUS_clean_sbu_1, # of connection points: 6
#     Node 23, Type 1, BuildingBlock: CIFDUS_clean_sbu_1, # of connection points: 6
#     Node 24, Type 1, BuildingBlock: CIFDUS_clean_sbu_1, # of connection points: 6
#     Node 25, Type 1, BuildingBlock: CIFDUS_clean_sbu_1, # of connection points: 6
#     Node 26, Type 1, BuildingBlock: CIFDUS_clean_sbu_1, # of connection points: 6
#     Edge 27, Type (0, 1), BuildingBlock: KIFKEQ_clean_linker_1, # of connection points: 2
#     Edge 28, Type (0, 1), BuildingBlock: KIFKEQ_clean_linker_1, # of connection points: 2
#     Edge 29, Type (0, 1), BuildingBlock: KIFKEQ_clean_linker_1, # of connection points: 2
#     Edge 30, Type (0, 1), BuildingBlock: KIFKEQ_clean_linker_1, # of connection points: 2
#     Edge 31, Type (0, 1), BuildingBlock: KIFKEQ_clean_linker_1, # of connection points: 2
#     Edge 32, Type (0, 1), BuildingBlock: KIFKEQ_clean_linker_1, # of connection points: 2
#     Edge 33, Type (0, 1), BuildingBlock: KIFKEQ_clean_linker_1, # of connection points: 2
#     Edge 34, Type (0, 1), BuildingBlock: KIFKEQ_clean_linker_1, # of connection points: 2
#     Edge 35, Type (0, 1), BuildingBlock: KIFKEQ_clean_linker_1, # of connection points: 2
#     Edge 36, Type (0, 1), BuildingBlock: KIFKEQ_clean_linker_1, # of connection points: 2
#     Edge 37, Type (0, 1), BuildingBlock: KIFKEQ_clean_linker_1, # of connection points: 2
#     Edge 38, Type (0, 1), BuildingBlock: KIFKEQ_clean_linker_1, # of connection points: 2
#     Edge 39, Type (0, 1), BuildingBlock: KIFKEQ_clean_linker_1, # of connection points: 2
#     Edge 40, Type (0, 1), BuildingBlock: KIFKEQ_clean_linker_1, # of connection points: 2
#     Edge 41, Type (0, 1), BuildingBlock: KIFKEQ_clean_linker_1, # of connection points: 2
#     Edge 42, Type (0, 1), BuildingBlock: KIFKEQ_clean_linker_1, # of connection points: 2
#     Edge 43, Type (0, 1), BuildingBlock: KIFKEQ_clean_linker_1, # of connection points: 2
#     Edge 44, Type (0, 1), BuildingBlock: KIFKEQ_clean_linker_1, # of connection points: 2
#     Edge 45, Type (0, 1), BuildingBlock: KIFKEQ_clean_linker_1, # of connection points: 2
#     Edge 46, Type (0, 1), BuildingBlock: KIFKEQ_clean_linker_1, # of connection points: 2
#     Edge 47, Type (0, 1), BuildingBlock: KIFKEQ_clean_linker_1, # of connection points: 2
#     Edge 48, Type (0, 1), BuildingBlock: KIFKEQ_clean_linker_1, # of connection points: 2
#     Edge 49, Type (0, 1), BuildingBlock: KIFKEQ_clean_linker_1, # of connection points: 2
#     Edge 50, Type (0, 1), BuildingBlock: KIFKEQ_clean_linker_1, # of connection points: 2
#     Edge 51, Type (0, 1), BuildingBlock: KIFKEQ_clean_linker_1, # of connection points: 2
#     Edge 52, Type (0, 1), BuildingBlock: KIFKEQ_clean_linker_1, # of connection points: 2
#     Edge 53, Type (0, 1), BuildingBlock: KIFKEQ_clean_linker_1, # of connection points: 2
#     Edge 54, Type (0, 1), BuildingBlock: KIFKEQ_clean_linker_1, # of connection points: 2
#     Edge 55, Type (0, 1), BuildingBlock: KIFKEQ_clean_linker_1, # of connection points: 2
#     Edge 56, Type (0, 1), BuildingBlock: KIFKEQ_clean_linker_1, # of connection points: 2
#     Edge 57, Type (0, 1), BuildingBlock: KIFKEQ_clean_linker_1, # of connection points: 2
#     Edge 58, Type (0, 1), BuildingBlock: KIFKEQ_clean_linker_1, # of connection points: 2
#     Edge 59, Type (0, 1), BuildingBlock: KIFKEQ_clean_linker_1, # of connection points: 2
#     Edge 60, Type (0, 1), BuildingBlock: KIFKEQ_clean_linker_1, # of connection points: 2
#     Edge 61, Type (0, 1), BuildingBlock: KIFKEQ_clean_linker_1, # of connection points: 2
#     Edge 62, Type (0, 1), BuildingBlock: KIFKEQ_clean_linker_1, # of connection points: 2
#     Edge 63, Type (0, 1), BuildingBlock: KIFKEQ_clean_linker_1, # of connection points: 2
#     Edge 64, Type (0, 1), BuildingBlock: KIFKEQ_clean_linker_1, # of connection points: 2
#     Edge 65, Type (0, 1), BuildingBlock: KIFKEQ_clean_linker_1, # of connection points: 2
#     Edge 66, Type (0, 1), BuildingBlock: KIFKEQ_clean_linker_1, # of connection points: 2
#     Edge 67, Type (0, 1), BuildingBlock: KIFKEQ_clean_linker_1, # of connection points: 2
#     Edge 68, Type (0, 1), BuildingBlock: KIFKEQ_clean_linker_1, # of connection points: 2
#     Edge 69, Type (0, 1), BuildingBlock: KIFKEQ_clean_linker_1, # of connection points: 2
#     Edge 70, Type (0, 1), BuildingBlock: KIFKEQ_clean_linker_1, # of connection points: 2
#     Edge 71, Type (0, 1), BuildingBlock: KIFKEQ_clean_linker_1, # of connection points: 2
#     Edge 72, Type (0, 1), BuildingBlock: KIFKEQ_clean_linker_1, # of connection points: 2
#     Edge 73, Type (0, 1), BuildingBlock: KIFKEQ_clean_linker_1, # of connection points: 2
#     Edge 74, Type (0, 1), BuildingBlock: KIFKEQ_clean_linker_1, # of connection points: 2
#     Edge 75, Type (0, 1), BuildingBlock: KIFKEQ_clean_linker_1, # of connection points: 2
#     Edge 76, Type (0, 1), BuildingBlock: KIFKEQ_clean_linker_1, # of connection points: 2
#     Edge 77, Type (0, 1), BuildingBlock: KIFKEQ_clean_linker_1, # of connection points: 2
#     Edge 78, Type (0, 1), BuildingBlock: KIFKEQ_clean_linker_1, # of connection points: 2
#     Edge 79, Type (0, 1), BuildingBlock: KIFKEQ_clean_linker_1, # of connection points: 2
#     Edge 80, Type (0, 1), BuildingBlock: KIFKEQ_clean_linker_1, # of connection points: 2
# Relax obj value: 0.086
# Max RMSD: 0.118
# Mean RMSD: 0.100
data_MOF--net-eea--node1-CIFDUS_clean_sbu_1--node2-BETDAH_clean_linker_0--edge1-KIFKEQ_clean_linker_1
_symmetry_space_group_name_H-M    P1
_symmetry_Int_Tables_number       1
_symmetry_cell_setting            triclinic
loop_
_symmetry_equiv_pos_as_xyz
'x, y, z'
_cell_length_a     58.866123
_cell_length_b     57.849619
_cell_length_c     45.063865
_cell_angle_alpha  89.963937
_cell_angle_beta   89.953251
_cell_angle_gamma 119.87749
loop_
_atom_site_label
_atom_site_type_symbol
_atom_site_fract_x
_atom_site_fract_y
_atom_site_fract_z
_atom_type_partial_charge
H0 H 0.1987 0.04701 0.46174 0.0
H1 H 0.18834 0.11516 0.45228 0.0
H2 H 0.14999 0.04916 0.39186 0.0
C3 C 0.18987 0.05704 0.45025 0.0
C4 C 0.17387 0.04488 0.42547 0.0
C5 C 0.19526 0.08233 0.45999 0.0
C6 C 0.18417 0.09562 0.44486 0.0
C7 C 0.1674 0.08342 0.42053 0.0
C8 C 0.16233 0.05811 0.4111 0.0
N9 N 0.15536 0.09587 0.40482 0.0
C10 C 0.16063 0.12203 0.40869 0.0
H11 H 0.95431 0.15875 0.44525 0.0
H12 H 0.8981 0.07574 0.43363 0.0
H13 H 0.96451 0.11372 0.37546 0.0
C14 C 0.94774 0.1403 0.43323 0.0
C15 C 0.96257 0.13946 0.40907 0.0
C16 C 0.92431 0.11749 0.442 0.0
C17 C 0.91587 0.09344 0.42666 0.0
C18 C 0.93075 0.09207 0.40301 0.0
C19 C 0.9538 0.11502 0.39433 0.0
N20 N 0.92331 0.06795 0.38754 0.0
C21 C 0.89905 0.04496 0.39035 0.0
H22 H 0.83614 0.76846 0.42254 0.0
H23 H 0.9095 0.77212 0.40338 0.0
H24 H 0.87146 0.79367 0.33643 0.0
C25 C 0.85196 0.77277 0.40726 0.0
C26 C 0.85118 0.7817 0.37849 0.0
C27 C 0.87269 0.76899 0.41653 0.0
C28 C 0.89331 0.77475 0.39652 0.0
C29 C 0.89289 0.78398 0.36766 0.0
C30 C 0.87179 0.78716 0.3589 0.0
N31 N 0.91298 0.79004 0.34645 0.0
C32 C 0.93625 0.78999 0.35148 0.0
H33 H 0.09072 0.2634 0.60419 0.0
H34 H 0.15504 0.25254 0.63108 0.0
H35 H 0.08486 0.21993 0.68382 0.0
C36 C 0.09946 0.25585 0.6198 0.0
C37 C 0.08489 0.24144 0.64469 0.0
C38 C 0.12479 0.25988 0.61446 0.0
C39 C 0.13544 0.24923 0.63465 0.0
C40 C 0.12097 0.23479 0.65972 0.0
C41 C 0.09579 0.23087 0.66437 0.0
N42 N 0.13104 0.22412 0.68099 0.0
C43 C 0.15575 0.22663 0.67972 0.0
H44 H 0.82321 0.86926 0.56694 0.0
H45 H 0.84377 0.95053 0.58421 0.0
H46 H 0.87909 0.91408 0.63531 0.0
C47 C 0.8344 0.88754 0.57938 0.0
C48 C 0.85154 0.88869 0.60188 0.0
C49 C 0.83139 0.90972 0.57291 0.0
C50 C 0.84577 0.93333 0.58929 0.0
C51 C 0.86316 0.93498 0.61163 0.0
C52 C 0.866 0.91273 0.61765 0.0
N53 N 0.8781 0.95865 0.62848 0.0
C54 C 0.8748 0.98091 0.62764 0.0
H55 H 0.17503 0.9706 0.58143 0.0
H56 H 0.10173 0.89962 0.60085 0.0
H57 H 0.12918 0.96884 0.65647 0.0
C58 C 0.15756 0.96008 0.59498 0.0
C59 C 0.15438 0.97294 0.61964 0.0
C60 C 0.13865 0.93373 0.5878 0.0
C61 C 0.11638 0.91994 0.60613 0.0
C62 C 0.1129 0.93279 0.63085 0.0
C63 C 0.1318 0.95923 0.63716 0.0
N64 N 0.09085 0.92014 0.65006 0.0
C65 C 0.07156 0.89337 0.64962 0.0
H66 H 0.86541 0.3801 0.79357 0.0
H67 H 0.85372 0.44751 0.78508 0.0
H68 H 0.81592 0.3817 0.72432 0.0
C69 C 0.85628 0.38995 0.78233 0.0
C70 C 0.84022 0.37775 0.7576 0.0
C71 C 0.86126 0.41503 0.79234 0.0
C72 C 0.84983 0.42811 0.77746 0.0
C73 C 0.83306 0.41587 0.75315 0.0
C74 C 0.82831 0.39072 0.74351 0.0
N75 N 0.82069 0.4281 0.73768 0.0
C76 C 0.82564 0.45413 0.74172 0.0
H77 H 0.61663 0.49386 0.77076 0.0
H78 H 0.56448 0.40914 0.76641 0.0
H79 H 0.63228 0.44635 0.70963 0.0
C80 C 0.61125 0.47465 0.76107 0.0
C81 C 0.62701 0.47301 0.73866 0.0
C82 C 0.58877 0.45166 0.77134 0.0
C83 C 0.58171 0.42689 0.75843 0.0
C84 C 0.59752 0.42491 0.73625 0.0
C85 C 0.62023 0.44794 0.72681 0.0
N86 N 0.59139 0.40009 0.72329 0.0
C87 C 0.56707 0.37706 0.72566 0.0
H88 H 0.4986 0.0905 0.74755 0.0
H89 H 0.5784 0.10731 0.73892 0.0
H90 H 0.5453 0.13613 0.67358 0.0
C91 C 0.51705 0.09945 0.73565 0.0
C92 C 0.51951 0.11358 0.70945 0.0
C93 C 0.53825 0.09741 0.74701 0.0
C94 C 0.5618 0.10854 0.73055 0.0
C95 C 0.5642 0.12227 0.70379 0.0
C96 C 0.54321 0.12513 0.69385 0.0
N97 N 0.58748 0.13412 0.6865 0.0
C98 C 0.60855 0.12985 0.69013 0.0
H99 H 0.75421 0.58506 0.93366 0.0
H100 H 0.82392 0.58908 0.96958 0.0
H101 H 0.75633 0.56489 0.02506 0.0
C102 C 0.76455 0.58222 0.95193 0.0
C103 C 0.75209 0.574 0.97967 0.0
C104 C 0.79072 0.58822 0.94818 0.0
C105 C 0.80392 0.58484 0.97237 0.0
C106 C 0.79143 0.57622 1.00009 0.0
C107 C 0.76579 0.57129 0.0036 0.0
N108 N 0.80407 0.57258 0.02503 0.0
C109 C 0.82778 0.57285 0.02361 0.0
H110 H 0.49357 0.20416 0.90394 0.0
H111 H 0.5156 0.28648 0.91618 0.0
H112 H 0.55408 0.25288 0.96639 0.0
C113 C 0.50591 0.22325 0.91447 0.0
C114 C 0.52423 0.22556 0.93608 0.0
C115 C 0.50262 0.24511 0.90717 0.0
C116 C 0.5178 0.26951 0.92191 0.0
C117 C 0.53631 0.27228 0.94334 0.0
C118 C 0.53954 0.2504 0.95006 0.0
N119 N 0.55213 0.29679 0.95841 0.0
C120 C 0.54792 0.31846 0.95788 0.0
H121 H 0.83967 0.30876 0.90976 0.0
H122 H 0.76493 0.23912 0.92778 0.0
H123 H 0.79302 0.30856 0.98319 0.0
C124 C 0.82188 0.29869 0.92287 0.0
C125 C 0.81872 0.31181 0.94728 0.0
C126 C 0.80256 0.27258 0.91546 0.0
C127 C 0.77986 0.25929 0.93323 0.0
C128 C 0.77632 0.27252 0.95755 0.0
C129 C 0.79566 0.29872 0.96411 0.0
N130 N 0.75376 0.26055 0.97606 0.0
C131 C 0.73455 0.23376 0.97645 0.0
H132 H 0.53228 0.71469 0.12517 0.0
H133 H 0.51876 0.78078 0.11478 0.0
H134 H 0.48043 0.71295 0.05683 0.0
C135 C 0.52258 0.72388 0.11375 0.0
C136 C 0.50597 0.71064 0.08972 0.0
C137 C 0.52735 0.74912 0.12288 0.0
C138 C 0.51513 0.76132 0.1078 0.0
C139 C 0.49779 0.74802 0.08423 0.0
C140 C 0.49327 0.72274 0.07549 0.0
N141 N 0.48448 0.75922 0.06875 0.0
C142 C 0.48984 0.78554 0.07077 0.0
H143 H 0.28674 0.82576 0.1112 0.0
H144 H 0.23005 0.74282 0.10021 0.0
H145 H 0.29733 0.7796 0.04308 0.0
C146 C 0.28016 0.80714 0.09951 0.0
C147 C 0.29513 0.80584 0.0758 0.0
C148 C 0.25655 0.78453 0.10821 0.0
C149 C 0.24804 0.76029 0.09328 0.0
C150 C 0.26313 0.75848 0.07017 0.0
C151 C 0.28639 0.78121 0.06154 0.0
N152 N 0.25568 0.73414 0.05519 0.0
C153 C 0.23135 0.71126 0.05815 0.0
H154 H 0.16432 0.42485 0.08178 0.0
H155 H 0.24381 0.44102 0.0719 0.0
H156 H 0.21011 0.46945 0.00679 0.0
C157 C 0.18259 0.43356 0.06953 0.0
C158 C 0.18477 0.44744 0.04321 0.0
C159 C 0.20384 0.43144 0.08056 0.0
C160 C 0.22721 0.44237 0.06376 0.0
C161 C 0.22935 0.45589 0.03691 0.0
C162 C 0.20826 0.45868 0.02718 0.0
N163 N 0.25239 0.46746 0.01918 0.0
C164 C 0.27436 0.46489 0.02389 0.0
H165 H 0.4205 0.92159 0.26765 0.0
H166 H 0.49155 0.92834 0.30279 0.0
H167 H 0.4238 0.90121 0.35874 0.0
C168 C 0.43119 0.9191 0.28579 0.0
C169 C 0.41896 0.91044 0.31359 0.0
C170 C 0.45758 0.92604 0.28183 0.0
C171 C 0.47132 0.92316 0.30577 0.0
C172 C 0.45901 0.91387 0.33348 0.0
C173 C 0.4331 0.90805 0.33726 0.0
N174 N 0.47205 0.91042 0.35814 0.0
C175 C 0.49584 0.91086 0.3564 0.0
H176 H 0.15917 0.53856 0.23292 0.0
H177 H 0.1818 0.62039 0.25005 0.0
H178 H 0.21665 0.58284 0.30005 0.0
C179 C 0.17089 0.55684 0.24516 0.0
C180 C 0.18819 0.55766 0.26726 0.0
C181 C 0.16837 0.57933 0.23884 0.0
C182 C 0.18341 0.60294 0.255 0.0
C183 C 0.20102 0.60428 0.2769 0.0
C184 C 0.20339 0.58172 0.28272 0.0
N185 N 0.21669 0.62795 0.29344 0.0
C186 C 0.21336 0.65019 0.29381 0.0
H187 H 0.50611 0.64146 0.24087 0.0
H188 H 0.43226 0.57145 0.26102 0.0
H189 H 0.46007 0.64192 0.31461 0.0
C190 C 0.48854 0.63142 0.25433 0.0
C191 C 0.48542 0.64492 0.27841 0.0
C192 C 0.46946 0.60501 0.24769 0.0
C193 C 0.44703 0.59182 0.26589 0.0
C194 C 0.44356 0.60537 0.28992 0.0
C195 C 0.46266 0.63183 0.29574 0.0
N196 N 0.4213 0.59342 0.3089 0.0
C197 C 0.40215 0.56661 0.30949 0.0
O198 O 0.48188 0.98028 0.01622 0.0
Mn199 Mn 0.52035 0.0128 0.01606 0.0
O200 O 0.45614 0.9947 0.03642 0.0
Mn201 Mn 0.48331 0.02669 0.05045 0.0
O202 O 0.55881 0.04535 0.01608 0.0
O203 O 0.53343 0.98679 0.00947 0.0
Mn204 Mn 0.55727 0.99922 0.98104 0.0
O205 O 0.5184 0.01823 0.97029 0.0
O206 O 0.58438 0.03168 0.99405 0.0
O207 O 0.52206 0.00714 0.06189 0.0
O208 O 0.49919 0.02372 0.0846 0.0
O209 O 0.5549 0.9677 0.99306 0.0
O210 O 0.54072 1.00135 0.94703 0.0
C211 C 0.50384 0.05934 0.02065 0.0
C212 C 0.45929 0.97664 0.02415 0.0
C213 C 0.58134 0.04952 0.00708 0.0
C214 C 0.53745 0.96673 0.0113 0.0
C215 C 0.52645 0.01219 0.94653 0.0
C216 C 0.51346 0.01287 0.08543 0.0
O217 O 0.50748 0.03903 0.0225 0.0
O218 O 0.48655 0.05869 0.03888 0.0
O219 O 0.03397 0.4997 0.01777 0.0
Mn220 Mn 0.01229 0.51918 0.0201 0.0
O221 O 0.02205 0.47339 0.05863 0.0
Mn222 Mn 0.99746 0.4813 0.07469 0.0
O223 O 0.99037 0.53831 0.02293 0.0
O224 O 0.03972 0.54989 0.99702 0.0
Mn225 Mn 0.02668 0.55899 0.96716 0.0
O226 O 0.99187 0.50056 0.98091 0.0
O227 O 1.00278 0.56721 0.98456 0.0
O228 O 0.03315 0.5381 0.05893 0.0
O229 O 0.01182 0.51181 0.09765 0.0
O230 O 0.06244 0.58314 0.96786 0.0
O231 O 0.01145 0.52922 0.94309 0.0
C232 C 0.96247 0.46756 0.04866 0.0
C233 C 0.03571 0.48279 0.03492 0.0
C234 C 0.9886 0.55606 0.00745 0.0
C235 C 0.06228 0.57008 0.99121 0.0
C236 C 0.99465 0.50635 0.95301 0.0
C237 C 0.03002 0.53362 0.08706 0.0
O238 O 0.98464 0.48854 0.04327 0.0
O239 O 0.96205 0.45602 0.0734 0.0
O240 O 0.54909 0.52305 0.00915 0.0
Mn241 Mn 0.50842 0.50681 0.00851 0.0
O242 O 0.56514 0.55516 0.97387 0.0
Mn243 Mn 0.53325 0.54965 0.95907 0.0
O244 O 0.46779 0.49064 0.00766 0.0
O245 O 0.50409 0.47315 0.02664 0.0
Mn246 Mn 0.48252 0.46296 0.0571 0.0
O247 O 0.50869 0.5228 0.05048 0.0
O248 O 0.45089 0.45764 0.04173 0.0
O249 O 0.50803 0.49043 0.96676 0.0
O250 O 0.5173 0.52189 0.93224 0.0
O251 O 0.4928 0.43763 0.05272 0.0
O252 O 0.4976 0.49037 0.08448 0.0
C253 C 0.51165 0.56222 0.98652 0.0
C254 C 0.56822 0.54159 0.99431 0.0
C255 C 0.44826 0.47193 0.02185 0.0
C256 C 0.50594 0.45204 0.03028 0.0
C257 C 0.50503 0.51446 0.07754 0.0
C258 C 0.51068 0.49809 0.93953 0.0
O259 O 0.51269 0.54061 0.99036 0.0
O260 O 0.52386 0.57558 0.96309 0.0
O261 O 0.14894 0.31481 0.35023 0.0
Mn262 Mn 0.18756 0.34684 0.34944 0.0
O263 O 0.12422 0.3297 0.37207 0.0
Mn264 Mn 0.15201 0.36177 0.38514 0.0
O265 O 0.2262 0.37882 0.34872 0.0
O266 O 0.19981 0.32034 0.34234 0.0
Mn267 Mn 0.22331 0.33198 0.3136 0.0
O268 O 0.1851 0.35217 0.3037 0.0
O269 O 0.25097 0.36427 0.3264 0.0
O270 O 0.19011 0.34138 0.39522 0.0
O271 O 0.1688 0.35928 0.41868 0.0
O272 O 0.21972 0.29985 0.32574 0.0
O273 O 0.20662 0.3346 0.27995 0.0
C274 C 0.17193 0.39406 0.3548 0.0
C275 C 0.12671 0.31147 0.35914 0.0
C276 C 0.24845 0.38248 0.33939 0.0
C277 C 0.20284 0.29971 0.34423 0.0
C278 C 0.19274 0.34589 0.27977 0.0
C279 C 0.18269 0.34803 0.41903 0.0
O280 O 0.1754 0.37362 0.35633 0.0
O281 O 0.15524 0.39377 0.3737 0.0
O282 O 0.70165 0.83622 0.34512 0.0
Mn283 Mn 0.6791 0.85454 0.34956 0.0
O284 O 0.68887 0.80596 0.38237 0.0
Mn285 Mn 0.66467 0.81323 0.40075 0.0
O286 O 0.65656 0.87295 0.35416 0.0
O287 O 0.70649 0.88644 0.32796 0.0
Mn288 Mn 0.69347 0.89658 0.29903 0.0
O289 O 0.65916 0.83749 0.30971 0.0
O290 O 0.66963 0.90401 0.31789 0.0
O291 O 0.69936 0.87173 0.38926 0.0
O292 O 0.67923 0.84221 0.42606 0.0
O293 O 0.72923 0.92069 0.30004 0.0
O294 O 0.67825 0.8679 0.27333 0.0
C295 C 0.62941 0.80121 0.37591 0.0
C296 C 0.70303 0.81782 0.35967 0.0
C297 C 0.65511 0.8916 0.34016 0.0
C298 C 0.72908 0.90677 0.32256 0.0
C299 C 0.66176 0.84451 0.2822 0.0
C300 C 0.69649 0.86518 0.41692 0.0
O301 O 0.65155 0.82247 0.37116 0.0
O302 O 0.62927 0.78821 0.39932 0.0
O303 O 0.21492 0.85601 0.34349 0.0
Mn304 Mn 0.17423 0.83992 0.34281 0.0
O305 O 0.23127 0.88899 0.30923 0.0
Mn306 Mn 0.19944 0.88341 0.29427 0.0
O307 O 0.1336 0.82394 0.34191 0.0
O308 O 0.16965 0.80584 0.36002 0.0
Mn309 Mn 0.14811 0.79529 0.3905 0.0
O310 O 0.1746 0.85524 0.38525 0.0
O311 O 0.1166 0.79071 0.3757 0.0
O312 O 0.17378 0.82403 0.30078 0.0
O313 O 0.18397 0.8561 0.26683 0.0
O314 O 0.15748 0.76944 0.38471 0.0
O315 O 0.16375 0.82219 0.41839 0.0
C316 C 0.17766 0.89579 0.32152 0.0
C317 C 0.23419 0.87498 0.32923 0.0
C318 C 0.11403 0.80517 0.35601 0.0
C319 C 0.17082 0.78425 0.36259 0.0
C320 C 0.17123 0.84643 0.41212 0.0
C321 C 0.17696 0.83211 0.2737 0.0
O322 O 0.1786 0.8741 0.32539 0.0
O323 O 0.19005 0.90928 0.29822 0.0
O324 O 0.81212 0.64954 0.68579 0.0
Mn325 Mn 0.85182 0.67922 0.68466 0.0
O326 O 0.79201 0.66599 0.71431 0.0
Mn327 Mn 0.82175 0.69732 0.72557 0.0
O328 O 0.89137 0.709 0.68372 0.0
O329 O 0.86118 0.65094 0.67471 0.0
Mn330 Mn 0.88351 0.66192 0.6448 0.0
O331 O 0.84911 0.68699 0.6396 0.0
O332 O 0.91299 0.69304 0.65725 0.0
O333 O 0.8547 0.67121 0.72968 0.0
O334 O 0.83992 0.69347 0.75679 0.0
O335 O 0.87822 0.62873 0.65507 0.0
O336 O 0.86639 0.66662 0.61293 0.0
C337 C 0.84066 0.72913 0.69444 0.0
C338 C 0.79151 0.64743 0.69844 0.0
C339 C 0.91256 0.7115 0.67234 0.0
C340 C 0.86283 0.62945 0.67509 0.0
C341 C 0.85474 0.68014 0.61467 0.0
C342 C 0.85045 0.67894 0.7548 0.0
O343 O 0.84272 0.70782 0.6945 0.0
O344 O 0.82624 0.73015 0.7155 0.0
O345 O 0.36867 0.16551 0.68499 0.0
Mn346 Mn 0.34684 0.18479 0.68748 0.0
O347 O 0.35666 0.13884 0.72552 0.0
Mn348 Mn 0.33193 0.14655 0.74155 0.0
O349 O 0.32469 0.20368 0.69029 0.0
O350 O 0.37451 0.21588 0.66492 0.0
Mn351 Mn 0.36149 0.22499 0.63501 0.0
O352 O 0.32672 0.16649 0.64806 0.0
O353 O 0.33733 0.23292 0.65223 0.0
O354 O 0.36743 0.20343 0.72657 0.0
O355 O 0.34594 0.17675 0.76493 0.0
O356 O 0.39718 0.24923 0.63575 0.0
O357 O 0.34648 0.19545 0.61056 0.0
C358 C 0.29689 0.13264 0.71574 0.0
C359 C 0.37039 0.14849 0.70192 0.0
C360 C 0.32287 0.22141 0.67485 0.0
C361 C 0.39707 0.23611 0.65904 0.0
C362 C 0.3296 0.17251 0.62023 0.0
C363 C 0.36413 0.1987 0.75464 0.0
O364 O 0.31899 0.15373 0.71015 0.0
O365 O 0.29665 0.12115 0.74045 0.0
O366 O 0.88286 0.19252 0.67549 0.0
Mn367 Mn 0.84195 0.174 0.6764 0.0
O368 O 0.89499 0.22057 0.63621 0.0
Mn369 Mn 0.86197 0.21363 0.62383 0.0
O370 O 0.8012 0.15588 0.67676 0.0
O371 O 0.83978 0.14167 0.69588 0.0
Mn372 Mn 0.81928 0.13225 0.72731 0.0
O373 O 0.84244 0.19125 0.71772 0.0
O374 O 0.78661 0.1251 0.71326 0.0
O375 O 0.84144 0.15627 0.63547 0.0
O376 O 0.84494 0.18433 0.59926 0.0
O377 O 0.83035 0.10753 0.72377 0.0
O378 O 0.83462 0.16077 0.75317 0.0
C379 C 0.84195 0.22737 0.65218 0.0
C380 C 0.90043 0.20981 0.65789 0.0
C381 C 0.78258 0.13767 0.69243 0.0
C382 C 0.84229 0.12099 0.70029 0.0
C383 C 0.84038 0.18419 0.74518 0.0
C384 C 0.84146 0.16185 0.60783 0.0
O385 O 0.84377 0.20628 0.65688 0.0
O386 O 0.85214 0.23925 0.62733 0.0
H387 H 0.30488 0.85745 0.07296 0.0
H388 H 0.34088 0.80953 0.05504 0.0
H389 H 0.34449 0.89694 0.05671 0.0
H390 H 0.37982 0.84877 0.03659 0.0
H391 H 0.45629 0.93052 0.04236 0.0
H392 H 0.41669 0.88827 0.05233 0.0
H393 H 0.37001 0.9201 0.01569 0.0
H394 H 0.40982 0.9626 0.00681 0.0
C395 C 0.3212 0.85525 0.06554 0.0
C396 C 0.31953 0.83013 0.06553 0.0
C397 C 0.34386 0.87794 0.05559 0.0
C398 C 0.36547 0.8762 0.04497 0.0
C399 C 0.36375 0.85106 0.04479 0.0
C400 C 0.34119 0.8284 0.05507 0.0
C401 C 0.43763 0.92804 0.03537 0.0
C402 C 0.43614 0.94962 0.02332 0.0
C403 C 0.4148 0.90387 0.04133 0.0
C404 C 0.38992 0.9007 0.03523 0.0
C405 C 0.38868 0.92191 0.02144 0.0
C406 C 0.4115 0.94617 0.0159 0.0
H407 H 0.13372 0.40918 0.03583 0.0
H408 H 0.18621 0.494 0.0291 0.0
H409 H 0.09648 0.41566 0.02625 0.0
H410 H 0.14897 0.50078 0.02065 0.0
H411 H 0.07729 0.50571 0.99593 0.0
H412 H 0.11273 0.49545 0.99083 0.0
H413 H 0.07477 0.43241 0.05566 0.0
H414 H 0.03935 0.44192 0.05993 0.0
C415 C 0.13723 0.4292 0.03206 0.0
C416 C 0.16273 0.45111 0.03348 0.0
C417 C 0.11595 0.43297 0.0267 0.0
C418 C 0.11963 0.4588 0.02315 0.0
C419 C 0.14536 0.4806 0.02298 0.0
C420 C 0.16671 0.47676 0.02796 0.0
C421 C 0.07629 0.48929 0.00856 0.0
C422 C 0.05553 0.47477 0.02848 0.0
C423 C 0.09671 0.48356 0.00584 0.0
C424 C 0.09672 0.46315 0.02291 0.0
C425 C 0.07534 0.44798 0.04179 0.0
C426 C 0.05504 0.45365 0.04447 0.0
H427 H 0.54431 0.69743 0.08378 0.0
H428 H 0.46137 0.66575 0.0704 0.0
H429 H 0.54066 0.65661 0.06448 0.0
H430 H 0.45766 0.62452 0.05094 0.0
H431 H 0.4754 0.5772 0.97801 0.0
H432 H 0.47074 0.61019 0.00706 0.0
H433 H 0.52448 0.61008 0.07227 0.0
H434 H 0.5296 0.57766 0.04244 0.0
C435 C 0.52514 0.68153 0.07725 0.0
C436 C 0.50312 0.68496 0.07876 0.0
C437 C 0.52302 0.65796 0.06623 0.0
C438 C 0.49881 0.63704 0.0563 0.0
C439 C 0.47666 0.64026 0.05817 0.0
C440 C 0.47879 0.66394 0.06924 0.0
C441 C 0.48532 0.58346 0.99919 0.0
C442 C 0.50227 0.57438 0.00845 0.0
C443 C 0.48275 0.60246 0.01585 0.0
C444 C 0.49746 0.61311 0.04192 0.0
C445 C 0.51317 0.60267 0.05207 0.0
C446 C 0.51573 0.58368 0.03534 0.0
H447 H 0.87052 0.32788 0.95244 0.0
H448 H 0.81531 0.35581 0.96281 0.0
H449 H 0.90532 0.36992 0.97144 0.0
H450 H 0.85043 0.39856 0.98109 0.0
H451 H 0.91066 0.44995 0.0543 0.0
H452 H 0.87568 0.41502 0.02485 0.0
H453 H 0.93347 0.4157 0.96496 0.0
H454 H 0.96823 0.4497 0.99546 0.0
C455 C 0.86598 0.34332 0.95815 0.0
C456 C 0.84018 0.33851 0.95628 0.0
C457 C 0.886 0.36758 0.96892 0.0
C458 C 0.8808 0.38781 0.97785 0.0
C459 C 0.85511 0.38333 0.97488 0.0
C460 C 0.83498 0.35888 0.96438 0.0
C461 C 0.91569 0.44326 0.03417 0.0
C462 C 0.94199 0.45309 0.02648 0.0
C463 C 0.89568 0.42321 0.01725 0.0
C464 C 0.90166 0.41232 0.99251 0.0
C465 C 0.92809 0.42326 0.98409 0.0
C466 C 0.94805 0.44324 1.0011 0.0
H467 H 0.73502 0.59634 0.02082 0.0
H468 H 0.70817 0.53993 0.94861 0.0
H469 H 0.69025 0.58792 0.02836 0.0
H470 H 0.66322 0.531 0.95665 0.0
H471 H 0.58309 0.50446 0.0041 0.0
H472 H 0.62785 0.51159 0.00235 0.0
H473 H 0.65841 0.59617 0.99209 0.0
H474 H 0.61378 0.58902 0.99293 0.0
C475 C 0.71947 0.58202 0.00672 0.0
C476 C 0.72498 0.56883 0.98407 0.0
C477 C 0.69394 0.57723 0.01103 0.0
C478 C 0.67334 0.55869 0.99323 0.0
C479 C 0.67876 0.54519 0.97086 0.0
C480 C 0.70442 0.55044 0.9661 0.0
C481 C 0.59944 0.5246 0.00213 0.0
C482 C 0.59504 0.54622 0.99878 0.0
C483 C 0.62495 0.52863 1.00083 0.0
C484 C 0.64648 0.55441 0.99696 0.0
C485 C 0.64214 0.57613 0.99519 0.0
C486 C 0.61666 0.57204 0.9957 0.0
H487 H 0.53138 0.21126 0.99182 0.0
H488 H 0.52229 0.18583 0.90039 0.0
H489 H 0.53315 0.17189 0.00681 0.0
H490 H 0.52394 0.14609 0.91552 0.0
H491 H 0.48688 0.06318 0.96618 0.0
H492 H 0.49642 0.10486 0.94203 0.0
H493 H 0.55753 0.14875 0.00617 0.0
H494 H 0.54724 0.10692 0.0306 0.0
C495 C 0.53027 0.19755 0.97477 0.0
C496 C 0.52668 0.20189 0.94484 0.0
C497 C 0.53136 0.17488 0.9834 0.0
C498 C 0.52888 0.15573 0.9624 0.0
C499 C 0.52573 0.16024 0.93236 0.0
C500 C 0.52468 0.18302 0.9237 0.0
C501 C 0.50325 0.08168 0.9741 0.0
C502 C 0.51683 0.08179 0.99974 0.0
C503 C 0.50861 0.10567 0.96042 0.0
C504 C 0.52744 0.13034 0.97244 0.0
C505 C 0.54256 0.13021 0.9966 0.0
C506 C 0.53712 0.10621 0.01025 0.0
H507 H 0.69801 0.22012 0.01855 0.0
H508 H 0.72252 0.18815 0.94696 0.0
H509 H 0.66134 0.17564 0.02941 0.0
H510 H 0.6855 0.14351 0.95721 0.0
H511 H 0.6328 0.06383 1.00012 0.0
H512 H 0.67008 0.10845 0.99399 0.0
H513 H 0.61981 0.14185 0.00939 0.0
H514 H 0.58248 0.09703 0.01609 0.0
C515 C 0.69536 0.20345 0.00507 0.0
C516 C 0.71286 0.2073 0.98197 0.0
C517 C 0.67432 0.17802 0.01117 0.0
C518 C 0.67042 0.15592 0.99425 0.0
C519 C 0.68812 0.15999 0.971 0.0
C520 C 0.70918 0.18549 0.96492 0.0
C521 C 0.6297 0.08068 0.00263 0.0
C522 C 0.60453 0.07678 0.00848 0.0
C523 C 0.65109 0.1063 0.99881 0.0
C524 C 0.64794 0.12879 1.00066 0.0
C525 C 0.62302 0.12501 0.00792 0.0
C526 C 0.60158 0.0993 0.01185 0.0
H527 H 0.87697 0.61464 0.02073 0.0
H528 H 0.83217 0.5289 0.0258 0.0
H529 H 0.91775 0.61287 0.02068 0.0
H530 H 0.87268 0.52682 0.02516 0.0
H531 H 0.94916 0.53155 0.04851 0.0
H532 H 0.91109 0.53722 0.05488 0.0
H533 H 0.94135 0.59888 0.98788 0.0
H534 H 0.97961 0.59372 0.98192 0.0
C535 C 0.876 0.59545 0.02176 0.0
C536 C 0.85175 0.5719 0.02321 0.0
C537 C 0.89922 0.59437 0.02166 0.0
C538 C 0.89849 0.56969 0.02305 0.0
C539 C 0.87399 0.54615 0.02461 0.0
C540 C 0.85082 0.54729 0.0247 0.0
C541 C 0.94797 0.54668 0.03551 0.0
C542 C 0.96744 0.56206 0.01456 0.0
C543 C 0.926 0.54974 0.03898 0.0
C544 C 0.92302 0.56828 0.02164 0.0
C545 C 0.94308 0.58454 1.00174 0.0
C546 C 0.96502 0.58147 0.99824 0.0
H547 H 0.58559 0.36992 0.96338 0.0
H548 H 0.50198 0.31817 0.95824 0.0
H549 H 0.57934 0.4081 0.97298 0.0
H550 H 0.49543 0.35597 0.96846 0.0
H551 H 0.48728 0.42748 0.9776 0.0
H552 H 0.49999 0.39801 0.95269 0.0
H553 H 0.56376 0.42214 0.01482 0.0
H554 H 0.55119 0.45181 0.03902 0.0
C555 C 0.56588 0.36689 0.96392 0.0
C556 C 0.54423 0.34132 0.96015 0.0
C557 C 0.56226 0.38866 0.96955 0.0
C558 C 0.53687 0.3852 0.97161 0.0
C559 C 0.51527 0.35957 0.96659 0.0
C560 C 0.51894 0.33784 0.96096 0.0
C561 C 0.50471 0.42728 0.98496 0.0
C562 C 0.51866 0.44228 0.00973 0.0
C563 C 0.51176 0.41011 0.97104 0.0
C564 C 0.53269 0.40734 0.98197 0.0
C565 C 0.54773 0.42389 0.00552 0.0
C566 C 0.54064 0.44102 0.01937 0.0
H567 H 0.18442 0.70847 0.05914 0.0
H568 H 0.22183 0.66069 0.05629 0.0
H569 H 0.14183 0.66865 0.05115 0.0
H570 H 0.17916 0.62048 0.04897 0.0
H571 H 0.10918 0.57349 0.98231 0.0
H572 H 0.15012 0.60483 0.00663 0.0
H573 H 0.10709 0.62592 0.06827 0.0
H574 H 0.06622 0.59476 0.04328 0.0
C575 C 0.1833 0.68923 0.05754 0.0
C576 C 0.20609 0.68738 0.05816 0.0
C577 C 0.15894 0.66638 0.05319 0.0
C578 C 0.15705 0.6413 0.04931 0.0
C579 C 0.17996 0.63948 0.05155 0.0
C580 C 0.20431 0.66239 0.05586 0.0
C581 C 0.1085 0.58401 1.00187 0.0
C582 C 0.0847 0.58142 0.01142 0.0
C583 C 0.13191 0.60202 0.01583 0.0
C584 C 0.13194 0.61811 0.03928 0.0
C585 C 0.10779 0.61411 0.05003 0.0
C586 C 0.08437 0.59602 0.03606 0.0
H587 H 0.28078 0.42232 0.01521 0.0
H588 H 0.32242 0.50674 0.03281 0.0
H589 H 0.32251 0.42265 0.01141 0.0
H590 H 0.36418 0.50726 0.02957 0.0
H591 H 0.43478 0.50524 0.99313 0.0
H592 H 0.39204 0.50248 0.9928 0.0
H593 H 0.35909 0.42856 0.04185 0.0
H594 H 0.40152 0.43096 0.0417 0.0
C595 C 0.29894 0.44084 0.01868 0.0
C596 C 0.29864 0.46445 0.02457 0.0
C597 C 0.32279 0.44109 0.01648 0.0
C598 C 0.34673 0.46503 0.01997 0.0
C599 C 0.34617 0.48858 0.02624 0.0
C600 C 0.32233 0.48827 0.02848 0.0
C601 C 0.41832 0.48812 0.00333 0.0
C602 C 0.42168 0.46837 0.01753 0.0
C603 C 0.39387 0.4867 0.00345 0.0
C604 C 0.37219 0.46546 0.01764 0.0
C605 C 0.37529 0.44512 0.0306 0.0
C606 C 0.39971 0.44657 0.03058 0.0
H607 H 0.47629 0.80432 0.0239 0.0
H608 H 0.51049 0.82605 0.11105 0.0
H609 H 0.48292 0.84902 0.0167 0.0
H610 H 0.5167 0.87103 0.10443 0.0
H611 H 0.48708 0.9262 0.00889 0.0
H612 H 0.47109 0.88154 0.02946 0.0
H613 H 0.54435 0.91009 0.07622 0.0
H614 H 0.5595 0.95461 0.05651 0.0
C615 C 0.48497 0.81872 0.04168 0.0
C616 C 0.49305 0.81197 0.06789 0.0
C617 C 0.4885 0.8443 0.03775 0.0
C618 C 0.50021 0.86381 0.06005 0.0
C619 C 0.50779 0.85667 0.08668 0.0
C620 C 0.50424 0.83096 0.09055 0.0
C621 C 0.49901 0.92315 0.02498 0.0
C622 C 0.52422 0.94392 0.03172 0.0
C623 C 0.49018 0.89743 0.03625 0.0
C624 C 0.50663 0.89191 0.05406 0.0
C625 C 0.53098 0.9134 0.06281 0.0
C626 C 0.53969 0.93904 0.05162 0.0
H627 H 0.97271 0.19133 0.40921 0.0
H628 H 0.00782 0.14365 0.38559 0.0
H629 H 0.01216 0.23114 0.39381 0.0
H630 H 0.04639 0.18328 0.36743 0.0
H631 H 0.12363 0.26392 0.37143 0.0
H632 H 0.08403 0.22165 0.38144 0.0
H633 H 0.03697 0.25638 0.3545 0.0
H634 H 0.07672 0.29894 0.34642 0.0
C635 C 0.98877 0.18921 0.40068 0.0
C636 C 0.98686 0.16402 0.39892 0.0
C637 C 0.01137 0.21216 0.39115 0.0
C638 C 0.03266 0.21068 0.37894 0.0
C639 C 0.03067 0.18546 0.37692 0.0
C640 C 0.00822 0.16253 0.38697 0.0
C641 C 0.10479 0.26221 0.36694 0.0
C642 C 0.10322 0.28465 0.35812 0.0
C643 C 0.08196 0.23795 0.37276 0.0
C644 C 0.05701 0.23548 0.36939 0.0
C645 C 0.05566 0.25758 0.3584 0.0
C646 C 0.07846 0.28193 0.35328 0.0
H647 H 0.85206 0.82048 0.34218 0.0
H648 H 0.79932 0.75091 0.39336 0.0
H649 H 0.81579 0.82738 0.32923 0.0
H650 H 0.76387 0.7593 0.38307 0.0
H651 H 0.69831 0.76892 0.35398 0.0
H652 H 0.73371 0.75871 0.35099 0.0
H653 H 0.79013 0.8432 0.34923 0.0
H654 H 0.7544 0.85297 0.34973 0.0
C655 C 0.83275 0.80657 0.35061 0.0
C656 C 0.82881 0.7853 0.36916 0.0
C657 C 0.81193 0.81078 0.34353 0.0
C658 C 0.78671 0.7941 0.35521 0.0
C659 C 0.78274 0.77244 0.37312 0.0
C660 C 0.80336 0.76792 0.37966 0.0
C661 C 0.71831 0.78517 0.35206 0.0
C662 C 0.72374 0.81166 0.35209 0.0
C663 C 0.73868 0.77942 0.35078 0.0
C664 C 0.76502 0.80009 0.35068 0.0
C665 C 0.77024 0.82664 0.349 0.0
C666 C 0.74976 0.83234 0.34936 0.0
H667 H 0.21118 0.03014 0.42052 0.0
H668 H 0.12914 1.00136 0.40392 0.0
H669 H 0.2067 0.98907 0.4009 0.0
H670 H 0.12459 0.95986 0.3841 0.0
H671 H 0.14265 0.9122 0.31181 0.0
H672 H 0.13823 0.94537 0.34078 0.0
H673 H 0.18886 0.94218 0.40809 0.0
H674 H 0.19384 0.90965 0.37831 0.0
C675 C 0.19201 0.01482 0.41319 0.0
C676 C 0.1705 0.01913 0.41396 0.0
C677 C 0.1894 0.9911 0.40199 0.0
C678 C 0.16521 0.9709 0.39111 0.0
C679 C 0.14357 0.97503 0.39211 0.0
C680 C 0.14619 0.99886 0.40338 0.0
C681 C 0.1519 0.91781 0.33341 0.0
C682 C 0.16798 0.90784 0.34326 0.0
C683 C 0.14947 0.93691 0.35002 0.0
C684 C 0.16344 0.94678 0.37668 0.0
C685 C 0.17815 0.93539 0.38744 0.0
C686 C 0.18058 0.9163 0.37073 0.0
H687 H 0.53769 0.66249 0.28167 0.0
H688 H 0.48111 0.68847 0.29379 0.0
H689 H 0.57227 0.70536 0.299 0.0
H690 H 0.516 0.73198 0.31061 0.0
H691 H 0.57782 0.78401 0.3829 0.0
H692 H 0.54241 0.74921 0.3538 0.0
H693 H 0.59917 0.75143 0.29116 0.0
H694 H 0.63441 0.78535 0.32126 0.0
C695 C 0.53276 0.67765 0.28739 0.0
C696 C 0.50666 0.67206 0.28649 0.0
C697 C 0.55266 0.70239 0.29721 0.0
C698 C 0.54704 0.7223 0.30621 0.0
C699 C 0.52101 0.71702 0.30425 0.0
C700 C 0.50102 0.69212 0.29463 0.0
C701 C 0.5825 0.77778 0.36221 0.0
C702 C 0.60868 0.78789 0.35373 0.0
C703 C 0.56225 0.75778 0.3455 0.0
C704 C 0.56787 0.74724 0.32019 0.0
C705 C 0.5941 0.75871 0.31078 0.0
C706 C 0.61431 0.77862 0.32759 0.0
H707 H 0.40108 0.93073 0.35626 0.0
H708 H 0.37538 0.87683 0.28171 0.0
H709 H 0.35605 0.92132 0.36418 0.0
H710 H 0.33019 0.86699 0.29002 0.0
H711 H 0.2494 0.83783 0.33554 0.0
H712 H 0.29433 0.84551 0.3338 0.0
H713 H 0.32422 0.93039 0.33022 0.0
H714 H 0.27939 0.92267 0.33123 0.0
C715 C 0.38572 0.91673 0.34173 0.0
C716 C 0.39164 0.90454 0.31833 0.0
C717 C 0.36004 0.91139 0.34624 0.0
C718 C 0.33969 0.89332 0.32783 0.0
C719 C 0.34552 0.8808 0.3047 0.0
C720 C 0.37132 0.88657 0.2998 0.0
C721 C 0.26562 0.8581 0.33516 0.0
C722 C 0.261 0.87967 0.33378 0.0
C723 C 0.29125 0.86248 0.33381 0.0
C724 C 0.31267 0.88854 0.33176 0.0
C725 C 0.30806 0.91013 0.33192 0.0
C726 C 0.28246 0.90572 0.33254 0.0
H727 H 0.23171 0.55364 0.28148 0.0
H728 H 0.14785 0.50599 0.27066 0.0
H729 H 0.23333 0.51379 0.29618 0.0
H730 H 0.14948 0.46643 0.2851 0.0
H731 H 0.15533 0.39476 0.29909 0.0
H732 H 0.16297 0.43478 0.2723 0.0
H733 H 0.22022 0.48363 0.33808 0.0
H734 H 0.21294 0.44347 0.36408 0.0
C735 C 0.21361 0.53471 0.28218 0.0
C736 C 0.18963 0.53318 0.27484 0.0
C737 C 0.21457 0.51181 0.29051 0.0
C738 C 0.19158 0.48672 0.29167 0.0
C739 C 0.16772 0.48518 0.2838 0.0
C740 C 0.16676 0.50801 0.27555 0.0
C741 C 0.17058 0.41404 0.3068 0.0
C742 C 0.18407 0.41602 0.33316 0.0
C743 C 0.17459 0.43704 0.29185 0.0
C744 C 0.19182 0.46257 0.30332 0.0
C745 C 0.20693 0.46443 0.32838 0.0
C746 C 0.20295 0.44138 0.34322 0.0
H747 H 0.36686 0.55227 0.35316 0.0
H748 H 0.38909 0.52157 0.27827 0.0
H749 H 0.33016 0.50771 0.36364 0.0
H750 H 0.35204 0.47686 0.28818 0.0
H751 H 0.29956 0.39634 0.32987 0.0
H752 H 0.33704 0.44086 0.32391 0.0
H753 H 0.28801 0.47488 0.3438 0.0
H754 H 0.25045 0.4302 0.35029 0.0
C755 C 0.36372 0.53585 0.3389 0.0
C756 C 0.38058 0.54009 0.31497 0.0
C757 C 0.34267 0.51039 0.34478 0.0
C758 C 0.3381 0.48863 0.3268 0.0
C759 C 0.35518 0.49306 0.30276 0.0
C760 C 0.37627 0.51861 0.2969 0.0
C761 C 0.29677 0.41329 0.33338 0.0
C762 C 0.27188 0.4096 0.34048 0.0
C763 C 0.31827 0.43886 0.32967 0.0
C764 C 0.31553 0.4615 0.3329 0.0
C765 C 0.2909 0.4579 0.34128 0.0
C766 C 0.26934 0.43225 0.34507 0.0
H767 H 0.51675 0.89817 0.40221 0.0
H768 H 0.52865 0.9214 0.31007 0.0
H769 H 0.55713 0.89568 0.40195 0.0
H770 H 0.56869 0.91855 0.30941 0.0
H771 H 0.65055 0.93435 0.32282 0.0
H772 H 0.61298 0.94068 0.32911 0.0
H773 H 0.57381 0.86811 0.38061 0.0
H774 H 0.61166 0.86192 0.37475 0.0
C775 C 0.52814 0.90279 0.38196 0.0
C776 C 0.51991 0.91007 0.3562 0.0
C777 C 0.55111 0.90125 0.38173 0.0
C778 C 0.5662 0.90702 0.3557 0.0
C779 C 0.5578 0.91444 0.32997 0.0
C780 C 0.53483 0.91593 0.33024 0.0
C781 C 0.6341 0.91989 0.33585 0.0
C782 C 0.63407 0.8975 0.34808 0.0
C783 C 0.61247 0.92345 0.33927 0.0
C784 C 0.59023 0.90469 0.35494 0.0
C785 C 0.59069 0.88301 0.36851 0.0
C786 C 0.61241 0.87947 0.36515 0.0
H787 H 0.22979 0.68273 0.3408 0.0
H788 H 0.19181 0.67056 0.25595 0.0
H789 H 0.22397 0.72097 0.3501 0.0
H790 H 0.1864 0.70947 0.26468 0.0
H791 H 0.14596 0.74929 0.31855 0.0
H792 H 0.15991 0.72006 0.29611 0.0
H793 H 0.23567 0.76569 0.33786 0.0
H794 H 0.22103 0.79428 0.36106 0.0
C795 C 0.22052 0.68861 0.32395 0.0
C796 C 0.21112 0.6738 0.2978 0.0
C797 C 0.21742 0.71072 0.32907 0.0
C798 C 0.20484 0.71856 0.30807 0.0
C799 C 0.19601 0.70395 0.28144 0.0
C800 C 0.19912 0.68173 0.27636 0.0
C801 C 0.16597 0.75371 0.3218 0.0
C802 C 0.18263 0.77427 0.34103 0.0
C803 C 0.174 0.7369 0.30902 0.0
C804 C 0.1988 0.74013 0.31556 0.0
C805 C 0.21626 0.76227 0.33278 0.0
C806 C 0.20813 0.77902 0.34563 0.0
H807 H 0.85197 0.04161 0.39494 0.0
H808 H 0.8898 0.99471 0.38426 0.0
H809 H 0.80933 1.00197 0.38647 0.0
H810 H 0.84711 0.95467 0.37638 0.0
H811 H 0.77585 0.91094 0.31047 0.0
H812 H 0.81718 0.94106 0.33484 0.0
H813 H 0.77514 0.95818 0.40197 0.0
H814 H 0.73383 0.92823 0.37695 0.0
C815 C 0.85095 0.02257 0.39153 0.0
C816 C 0.87386 0.02096 0.39008 0.0
C817 C 0.82658 0.99981 0.38689 0.0
C818 C 0.82477 0.97508 0.38064 0.0
C819 C 0.84783 0.97342 0.38082 0.0
C820 C 0.8722 0.99623 0.38544 0.0
C821 C 0.77548 0.92028 0.33116 0.0
C822 C 0.75181 0.91697 0.34226 0.0
C823 C 0.79912 0.93759 0.34516 0.0
C824 C 0.79953 0.95229 0.37025 0.0
C825 C 0.77554 0.94745 0.38248 0.0
C826 C 0.75188 0.93003 0.36847 0.0
H827 H 0.9708 0.80718 0.30685 0.0
H828 H 0.95833 0.77658 0.39619 0.0
H829 H 0.01363 0.80996 0.30566 0.0
H830 H 1.00149 0.77979 0.39553 0.0
H831 H 0.06733 0.76329 0.37437 0.0
H832 H 0.02425 0.75928 0.37253 0.0
H833 H 0.0571 0.83483 0.32673 0.0
H834 H 0.1003 0.83867 0.32809 0.0
C835 C 0.97741 0.80115 0.32628 0.0
C836 C 0.96153 0.79165 0.35159 0.0
C837 C 1.00196 0.80288 0.32569 0.0
C838 C 0.01106 0.79508 0.35047 0.0
C839 C 0.99496 0.7856 0.37589 0.0
C840 C 0.97037 0.78389 0.37642 0.0
C841 C 0.06539 0.77896 0.36361 0.0
C842 C 0.08738 0.80135 0.35142 0.0
C843 C 0.04067 0.77675 0.3628 0.0
C844 C 0.03721 0.79688 0.34984 0.0
C845 C 0.059 0.81885 0.33672 0.0
C846 C 0.0838 0.82105 0.33746 0.0
H847 H 0.20639 0.16876 0.41009 0.0
H848 H 0.1227 0.13509 0.40524 0.0
H849 H 0.21243 0.21334 0.40223 0.0
H850 H 0.12844 0.17969 0.39791 0.0
H851 H 0.15648 0.25471 0.33537 0.0
H852 H 0.14365 0.21151 0.35783 0.0
H853 H 0.20748 0.24983 0.42025 0.0
H854 H 0.22039 0.29293 0.39714 0.0
C855 C 0.18929 0.17108 0.40804 0.0
C856 C 0.16413 0.14868 0.40833 0.0
C857 C 0.19267 0.19662 0.4037 0.0
C858 C 0.17091 0.20026 0.39941 0.0
C859 C 0.14565 0.17771 0.40085 0.0
C860 C 0.14233 0.15219 0.40523 0.0
C861 C 0.16689 0.25399 0.35485 0.0
C862 C 0.1891 0.27716 0.36489 0.0
C863 C 0.15971 0.22917 0.36765 0.0
C864 C 0.17483 0.22699 0.39057 0.0
C865 C 0.19568 0.25062 0.40228 0.0
C866 C 0.20281 0.27541 0.38945 0.0
H867 H 0.67719 0.48233 0.7327 0.0
H868 H 0.62957 0.51891 0.71961 0.0
H869 H 0.71617 0.52387 0.71808 0.0
H870 H 0.66805 0.55998 0.7036 0.0
H871 H 0.74397 0.63758 0.71907 0.0
H872 H 0.70454 0.59519 0.72517 0.0
H873 H 0.7413 0.55585 0.68121 0.0
H874 H 0.78174 0.59877 0.67625 0.0
C875 C 0.67505 0.49917 0.7262 0.0
C876 C 0.65044 0.49755 0.72768 0.0
C877 C 0.69735 0.52297 0.71759 0.0
C878 C 0.69548 0.54557 0.70987 0.0
C879 C 0.67052 0.54336 0.71012 0.0
C880 C 0.64839 0.51977 0.71919 0.0
C881 C 0.74374 0.62003 0.71033 0.0
C882 C 0.76627 0.62174 0.69731 0.0
C883 C 0.72085 0.59553 0.71365 0.0
C884 C 0.7195 0.57183 0.70376 0.0
C885 C 0.74166 0.57358 0.68953 0.0
C886 C 0.7648 0.59825 0.68637 0.0
H887 H 0.46865 0.07524 0.70108 0.0
H888 H 0.52091 0.1602 0.6959 0.0
H889 H 0.43137 0.08166 0.69154 0.0
H890 H 0.48363 0.1669 0.68744 0.0
H891 H 0.41194 0.1718 0.66296 0.0
H892 H 0.44742 0.16166 0.65742 0.0
H893 H 0.40959 0.09806 0.72165 0.0
H894 H 0.37412 0.10748 0.72639 0.0
C895 C 0.47211 0.09527 0.69762 0.0
C896 C 0.49754 0.11724 0.6995 0.0
C897 C 0.4508 0.09901 0.69227 0.0
C898 C 0.45441 0.12484 0.68919 0.0
C899 C 0.48009 0.14672 0.68941 0.0
C900 C 0.50147 0.14292 0.69439 0.0
C901 C 0.41097 0.15529 0.67538 0.0
C902 C 0.39025 0.14058 0.69527 0.0
C903 C 0.43141 0.14962 0.67239 0.0
C904 C 0.43146 0.12909 0.68916 0.0
C905 C 0.41011 0.11373 0.70801 0.0
C906 C 0.3898 0.11934 0.71096 0.0
H907 H 0.79548 0.33357 0.73745 0.0
H908 H 0.87824 0.36423 0.75082 0.0
H909 H 0.79129 0.29234 0.71731 0.0
H910 H 0.87423 0.32353 0.73055 0.0
H911 H 0.86215 0.24424 0.70718 0.0
H912 H 0.85832 0.27733 0.73715 0.0
H913 H 0.8032 0.2773 0.6738 0.0
H914 H 0.80645 0.24349 0.64477 0.0
C915 C 0.81277 0.33154 0.73606 0.0
C916 C 0.83717 0.35222 0.74584 0.0
C917 C 0.81038 0.30788 0.72457 0.0
C918 C 0.83238 0.30439 0.72242 0.0
C919 C 0.85668 0.32505 0.73249 0.0
C920 C 0.85903 0.34856 0.74404 0.0
C921 C 0.84827 0.25038 0.70056 0.0
C922 C 0.83393 0.2407 0.67425 0.0
C923 C 0.84647 0.26981 0.71733 0.0
C924 C 0.83067 0.28036 0.70778 0.0
C925 C 0.81527 0.2695 0.68219 0.0
C926 C 0.81705 0.25004 0.66553 0.0
H927 H 0.14911 0.01578 0.63549 0.0
H928 H 0.20683 0.99143 0.62282 0.0
H929 H 0.18348 0.05964 0.65206 0.0
H930 H 0.24094 0.03462 0.6401 0.0
H931 H 0.30213 0.11554 0.66176 0.0
H932 H 0.2672 0.08059 0.63229 0.0
H933 H 0.21001 0.078 0.69455 0.0
H934 H 0.24505 0.11394 0.72284 0.0
C935 C 0.16916 0.01986 0.63622 0.0
C936 C 0.17528 1.00017 0.62795 0.0
C937 C 0.18887 0.04496 0.64572 0.0
C938 C 0.21509 0.05082 0.64749 0.0
C939 C 0.22116 0.03122 0.63846 0.0
C940 C 0.20154 0.0063 0.62869 0.0
C941 C 0.28197 0.1085 0.66809 0.0
C942 C 0.27613 0.11806 0.69387 0.0
C943 C 0.26194 0.08797 0.65167 0.0
C944 C 0.2357 0.07611 0.66117 0.0
C945 C 0.22985 0.08681 0.68616 0.0
C946 C 0.2499 0.10747 0.70242 0.0
H947 H 0.0399 0.19517 0.65833 0.0
H948 H 0.07018 0.27926 0.64402 0.0
H949 H 0.99598 0.18876 0.66539 0.0
H950 H 0.02663 0.27323 0.65217 0.0
H951 H 0.94257 0.24753 0.62717 0.0
H952 H 0.98682 0.25534 0.62681 0.0
H953 H 0.96663 0.19599 0.69545 0.0
H954 H 0.92145 0.18724 0.69493 0.0
C955 C 0.03717 0.21234 0.65711 0.0
C956 C 0.05837 0.23766 0.65028 0.0
C957 C 0.01203 0.20872 0.66136 0.0
C958 C 0.00758 0.23043 0.65919 0.0
C959 C 0.02909 0.25591 0.65334 0.0
C960 C 0.0541 0.25943 0.64871 0.0
C961 C 0.94744 0.23621 0.64246 0.0
C962 C 0.92824 0.21663 0.66102 0.0
C963 C 0.97307 0.24089 0.6424 0.0
C964 C 0.9805 0.22635 0.66111 0.0
C965 C 0.96156 0.20734 0.68044 0.0
C966 C 0.9357 0.2025 0.68039 0.0
H967 H 0.81213 0.8365 0.60489 0.0
H968 H 0.89567 0.88612 0.61662 0.0
H969 H 0.81485 0.7977 0.62033 0.0
H970 H 0.89841 0.84712 0.63218 0.0
H971 H 0.87999 0.7795 0.70237 0.0
H972 H 0.88581 0.81834 0.67481 0.0
H973 H 0.82949 0.76641 0.60989 0.0
H974 H 0.82338 0.72758 0.63826 0.0
C975 C 0.8312 0.83911 0.61019 0.0
C976 C 0.85365 0.86461 0.60958 0.0
C977 C 0.83279 0.81673 0.619 0.0
C978 C 0.85688 0.8191 0.6275 0.0
C979 C 0.87947 0.8445 0.62613 0.0
C980 C 0.87788 0.86692 0.6173 0.0
C981 C 0.86985 0.77646 0.68143 0.0
C982 C 0.85169 0.75058 0.67208 0.0
C983 C 0.87301 0.79875 0.66565 0.0
C984 C 0.85779 0.79565 0.6403 0.0
C985 C 0.84119 0.76962 0.62962 0.0
C986 C 0.83805 0.74732 0.64549 0.0
H987 H 0.05431 0.85082 0.61267 0.0
H988 H 0.03979 0.87643 0.69682 0.0
H989 H 0.01625 0.80631 0.6206 0.0
H990 H 1.00209 0.83203 0.70523 0.0
H991 H 0.91896 0.75958 0.69122 0.0
H992 H 0.95807 0.80339 0.68652 0.0
H993 H 1.00094 0.76679 0.65155 0.0
H994 H 0.9619 0.72312 0.65582 0.0
C995 C 0.04301 0.84675 0.63292 0.0
C996 C 0.04975 0.86678 0.65416 0.0
C997 C 0.02134 0.82131 0.63761 0.0
C998 C 1.00606 0.81555 0.6636 0.0
C999 C 0.01315 0.8358 0.68484 0.0
C1000 C 0.0348 0.86115 0.68014 0.0
C1001 C 0.93683 0.7608 0.68301 0.0
C1002 C 0.93716 0.73773 0.67384 0.0
C1003 C 0.95929 0.78597 0.68027 0.0
C1004 C 0.98262 0.78868 0.66833 0.0
C1005 C 0.9832 0.76552 0.66026 0.0
C1006 C 0.9608 0.74041 0.66298 0.0
H1007 H 0.20363 0.27071 0.67964 0.0
H1008 H 0.16359 0.18485 0.68202 0.0
H1009 H 0.24597 0.2722 0.68282 0.0
H1010 H 0.20565 0.18603 0.68461 0.0
H1011 H 0.28224 0.19512 0.71408 0.0
H1012 H 0.24257 0.19828 0.71771 0.0
H1013 H 0.27354 0.26137 0.65239 0.0
H1014 H 0.3134 0.25871 0.64917 0.0
C1015 C 0.20404 0.2522 0.68069 0.0
C1016 C 0.18069 0.22768 0.68048 0.0
C1017 C 0.22816 0.253 0.68248 0.0
C1018 C 0.22919 0.22923 0.68417 0.0
C1019 C 0.20557 0.20471 0.68392 0.0
C1020 C 0.18153 0.20396 0.68212 0.0
C1021 C 0.28088 0.21008 0.70095 0.0
C1022 C 0.30099 0.2265 0.68113 0.0
C1023 C 0.25799 0.21169 0.70282 0.0
C1024 C 0.25471 0.22978 0.68499 0.0
C1025 C 0.27545 0.24728 0.66652 0.0
C1026 C 0.29831 0.24566 0.66462 0.0
H1027 H 0.82998 0.98288 0.62927 0.0
H1028 H 0.91406 0.03182 0.63143 0.0
H1029 H 0.82564 0.02207 0.63932 0.0
H1030 H 0.91001 0.07135 0.64086 0.0
H1031 H 0.88656 0.11858 0.70748 0.0
H1032 H 0.89663 0.08713 0.68312 0.0
H1033 H 0.83164 0.06467 0.62321 0.0
H1034 H 0.82145 0.09598 0.6483 0.0
C1035 C 0.84751 1.00222 0.63128 0.0
C1036 C 0.87231 1.00451 0.62971 0.0
C1037 C 0.8451 0.02474 0.63682 0.0
C1038 C 0.8675 0.04999 0.64098 0.0
C1039 C 0.89236 0.05224 0.63811 0.0
C1040 C 0.89471 0.02969 0.63258 0.0
C1041 C 0.87522 0.10777 0.68824 0.0
C1042 C 0.85365 0.11011 0.67928 0.0
C1043 C 0.88087 0.08961 0.67429 0.0
C1044 C 0.86476 0.07304 0.65135 0.0
C1045 C 0.84422 0.07678 0.64108 0.0
C1046 C 0.83862 0.09502 0.65508 0.0
H1047 H 0.55772 0.32662 0.72132 0.0
H1048 H 0.51996 0.3739 0.72805 0.0
H1049 H 0.51508 0.28645 0.71368 0.0
H1050 H 0.47737 0.33411 0.71979 0.0
H1051 H 0.40175 0.25983 0.71207 0.0
H1052 H 0.44301 0.2909 0.73647 0.0
H1053 H 0.48525 0.27132 0.67207 0.0
H1054 H 0.44397 0.24007 0.64835 0.0
C1055 C 0.54015 0.32822 0.72164 0.0
C1056 C 0.54183 0.35308 0.72517 0.0
C1057 C 0.51579 0.30533 0.71715 0.0
C1058 C 0.49276 0.30701 0.71598 0.0
C1059 C 0.49458 0.33193 0.72099 0.0
C1060 C 0.51894 0.35477 0.7255 0.0
C1061 C 0.41983 0.26137 0.7041 0.0
C1062 C 0.41981 0.24722 0.67885 0.0
C1063 C 0.44348 0.27943 0.71773 0.0
C1064 C 0.46751 0.28387 0.70605 0.0
C1065 C 0.46717 0.2682 0.68197 0.0
C1066 C 0.44354 0.25023 0.66836 0.0
H1067 H 0.63323 0.12255 0.73686 0.0
H1068 H 0.63635 0.13271 0.64191 0.0
H1069 H 0.67465 0.12202 0.7354 0.0
H1070 H 0.67743 0.13177 0.64009 0.0
H1071 H 0.766 0.16452 0.65624 0.0
H1072 H 0.7228 0.16046 0.65495 0.0
H1073 H 0.69446 0.09592 0.71832 0.0
H1074 H 0.7377 0.10014 0.72001 0.0
C1075 C 0.64271 0.12433 0.71569 0.0
C1076 C 0.63187 0.12763 0.6895 0.0
C1077 C 0.6663 0.12392 0.71475 0.0
C1078 C 0.6794 0.1269 0.68759 0.0
C1079 C 0.66807 0.12975 0.66138 0.0
C1080 C 0.64451 0.13011 0.66237 0.0
C1081 C 0.7505 0.14916 0.66956 0.0
C1082 C 0.75547 0.13274 0.68831 0.0
C1083 C 0.72567 0.14681 0.66879 0.0
C1084 C 0.70521 0.128 0.68674 0.0
C1085 C 0.7099 0.11092 0.70462 0.0
C1086 C 0.7347 0.11323 0.70538 0.0
H1087 H 0.78703 0.46627 0.74004 0.0
H1088 H 0.87098 0.50133 0.74155 0.0
H1089 H 0.79173 0.51042 0.73253 0.0
H1090 H 0.87597 0.54547 0.73352 0.0
H1091 H 0.88213 0.62434 0.7276 0.0
H1092 H 0.87067 0.58192 0.75156 0.0
H1093 H 0.80537 0.54126 0.69143 0.0
H1094 H 0.81679 0.58374 0.66807 0.0
C1095 C 0.8065 0.48359 0.73928 0.0
C1096 C 0.82866 0.48059 0.74146 0.0
C1097 C 0.80923 0.50884 0.7348 0.0
C1098 C 0.83423 0.53165 0.73233 0.0
C1099 C 0.8564 0.52855 0.73578 0.0
C1100 C 0.85362 0.50326 0.74022 0.0
C1101 C 0.86455 0.60646 0.72062 0.0
C1102 C 0.84998 0.60734 0.69645 0.0
C1103 C 0.85824 0.58206 0.73395 0.0
C1104 C 0.83738 0.55798 0.72312 0.0
C1105 C 0.82145 0.55929 0.7006 0.0
C1106 C 0.82781 0.5837 0.68731 0.0
H1107 H 0.50516 0.97078 0.27336 0.0
H1108 H 0.44043 0.90765 0.22567 0.0
H1109 H 0.52562 0.9922 0.22628 0.0
H1110 H 0.46094 0.92902 0.1786 0.0
H1111 H 0.51108 0.96546 0.0973 0.0
H1112 H 0.50194 0.94323 0.14573 0.0
H1113 H 0.51073 0.01432 0.18762 0.0
H1114 H 0.51936 0.03627 0.13935 0.0
C1115 C 0.49555 0.96123 0.2528 0.0
C1116 C 0.47112 0.9376 0.25319 0.0
C1117 C 0.50722 0.97354 0.22589 0.0
C1118 C 0.49493 0.96226 0.19877 0.0
C1119 C 0.47104 0.93803 0.19913 0.0
C1120 C 0.45917 0.92593 0.22605 0.0
C1121 C 0.51201 0.97663 0.11701 0.0
C1122 C 0.51595 1.00261 0.1146 0.0
C1123 C 0.50647 0.96381 0.14465 0.0
C1124 C 0.50536 0.97696 0.1704 0.0
C1125 C 0.51157 1.00371 0.16823 0.0
C1126 C 0.51655 0.01631 0.14059 0.0
H1127 H 0.16064 0.55679 0.18383 0.0
H1128 H 0.13451 0.59904 0.24069 0.0
H1129 H 0.12893 0.55231 0.14644 0.0
H1130 H 0.10323 0.59535 0.2027 0.0
H1131 H 0.0269 0.54376 0.1457 0.0
H1132 H 0.06244 0.55984 0.18183 0.0
H1133 H 0.11776 0.57608 0.11078 0.0
H1134 H 0.08206 0.55853 0.07515 0.0
C1135 C 0.1482 0.56525 0.18828 0.0
C1136 C 0.14997 0.57806 0.21537 0.0
C1137 C 0.13026 0.56305 0.16663 0.0
C1138 C 0.11358 0.57361 0.17145 0.0
C1139 C 0.11568 0.58689 0.19832 0.0
C1140 C 0.13374 0.58916 0.21999 0.0
C1141 C 0.04679 0.55161 0.13778 0.0
C1142 C 0.05173 0.55046 0.10745 0.0
C1143 C 0.06719 0.56085 0.15848 0.0
C1144 C 0.09295 0.56896 0.14927 0.0
C1145 C 0.09812 0.56965 0.1187 0.0
C1146 C 0.07771 0.56028 0.0981 0.0
H1147 H 0.46355 0.55494 0.24518 0.0
H1148 H 0.4854 0.62508 0.19201 0.0
H1149 H 0.47422 0.53474 0.20363 0.0
H1150 H 0.49663 0.60528 0.15088 0.0
H1151 H 0.4834 0.54604 0.07464 0.0
H1152 H 0.47534 0.56881 0.11524 0.0
H1153 H 0.51312 0.54079 0.17599 0.0
H1154 H 0.52175 0.51854 0.13483 0.0
C1155 C 0.47041 0.56591 0.22455 0.0
C1156 C 0.4737 0.5916 0.22188 0.0
C1157 C 0.47688 0.55454 0.20091 0.0
C1158 C 0.48655 0.56853 0.17405 0.0
C1159 C 0.48918 0.59393 0.1712 0.0
C1160 C 0.48287 0.60533 0.19483 0.0
C1161 C 0.49123 0.54599 0.09634 0.0
C1162 C 0.50426 0.5316 0.10132 0.0
C1163 C 0.48615 0.55858 0.11977 0.0
C1164 C 0.49354 0.55659 0.1489 0.0
C1165 C 0.50695 0.54248 0.15385 0.0
C1166 C 0.51217 0.53002 0.13029 0.0
H1167 H 0.86005 0.39318 0.84645 0.0
H1168 H 0.90361 0.46514 0.79495 0.0
H1169 H 0.89227 0.41259 0.88651 0.0
H1170 H 0.93586 0.48451 0.83491 0.0
H1171 H 1.00299 0.49756 0.8958 0.0
H1172 H 0.96979 0.47438 0.85756 0.0
H1173 H 0.90881 0.45193 0.92314 0.0
H1174 H 0.94201 0.47614 0.961 0.0
C1175 C 0.87645 0.41321 0.84383 0.0
C1176 C 0.87938 0.4277 0.81765 0.0
C1177 C 0.89482 0.42429 0.86672 0.0
C1178 C 0.9167 0.44991 0.86364 0.0
C1179 C 0.91937 0.46456 0.83767 0.0
C1180 C 0.90079 0.45364 0.81498 0.0
C1181 C 0.9825 0.48715 0.90212 0.0
C1182 C 0.97508 0.48787 0.93158 0.0
C1183 C 0.96353 0.4741 0.88023 0.0
C1184 C 0.93674 0.46148 0.88738 0.0
C1185 C 0.92932 0.46124 0.91707 0.0
C1186 C 0.94832 0.47466 0.93887 0.0
H1187 H 0.53573 0.43197 0.77464 0.0
H1188 H 0.60728 0.47533 0.82472 0.0
H1189 H 0.51098 0.43638 0.81612 0.0
H1190 H 0.58272 0.47948 0.86602 0.0
H1191 H 0.5329 0.46706 0.9442 0.0
H1192 H 0.54768 0.44994 0.90362 0.0
H1193 H 0.51089 0.47717 0.84063 0.0
H1194 H 0.49563 0.49387 0.8815 0.0
C1195 C 0.54607 0.44222 0.7946 0.0
C1196 C 0.57342 0.45348 0.79646 0.0
C1197 C 0.53196 0.44476 0.81824 0.0
C1198 C 0.54489 0.45806 0.84437 0.0
C1199 C 0.57215 0.46878 0.84635 0.0
C1200 C 0.58626 0.46667 0.82261 0.0
C1201 C 0.52665 0.468 0.92188 0.0
C1202 C 0.51262 0.48128 0.9161 0.0
C1203 C 0.5356 0.45871 0.89856 0.0
C1204 C 0.53068 0.4625 0.86896 0.0
C1205 C 0.51484 0.47384 0.86323 0.0
C1206 C 0.50608 0.48337 0.8866 0.0
H1207 H 0.55865 0.06585 0.76492 0.0
H1208 H 0.51208 0.09967 0.79629 0.0
H1209 H 0.55363 0.04446 0.81292 0.0
H1210 H 0.5052 0.07657 0.84306 0.0
H1211 H 0.52262 0.05632 0.93527 0.0
H1212 H 0.5251 0.07669 0.88731 0.0
H1213 H 0.52445 0.00973 0.84375 0.0
H1214 H 0.52321 0.99013 0.89204 0.0
C1215 C 0.54726 0.06867 0.78194 0.0
C1216 C 0.53562 0.08437 0.77644 0.0
C1217 C 0.54397 0.05599 0.8094 0.0
C1218 C 0.52874 0.05846 0.83201 0.0
C1219 C 0.51726 0.0743 0.82648 0.0
C1220 C 0.52087 0.08726 0.79929 0.0
C1221 C 0.52232 0.04566 0.91541 0.0
C1222 C 0.52255 0.02157 0.91743 0.0
C1223 C 0.52386 0.05738 0.88778 0.0
C1224 C 0.52527 0.04507 0.86139 0.0
C1225 C 0.52411 0.02021 0.86348 0.0
C1226 C 0.52302 0.00875 0.89116 0.0
H1227 H 0.15595 0.24968 0.57722 0.0
H1228 H 0.12777 0.30495 0.59121 0.0
H1229 H 0.17819 0.27356 0.53193 0.0
H1230 H 0.1485 0.3277 0.54551 0.0
H1231 H 0.19497 0.37506 0.47116 0.0
H1232 H 0.18764 0.35576 0.5207 0.0
H1233 H 0.16775 0.27946 0.48239 0.0
H1234 H 0.17656 0.29937 0.43294 0.0
C1235 C 0.15467 0.26704 0.57081 0.0
C1236 C 0.13984 0.27522 0.5878 0.0
C1237 C 0.16722 0.28058 0.54465 0.0
C1238 C 0.16526 0.30265 0.53487 0.0
C1239 C 0.15098 0.31115 0.55239 0.0
C1240 C 0.13861 0.29776 0.57848 0.0
C1241 C 0.19 0.35442 0.47349 0.0
C1242 C 0.18624 0.33869 0.44827 0.0
C1243 C 0.1854 0.3432 0.50185 0.0
C1244 C 0.17623 0.31578 0.50564 0.0
C1245 C 0.17478 0.30062 0.48048 0.0
C1246 C 0.17992 0.31204 0.45206 0.0
H1247 H 0.79654 0.92816 0.57417 0.0
H1248 H 0.82515 0.88793 0.51763 0.0
H1249 H 0.76595 0.92456 0.53535 0.0
H1250 H 0.79415 0.88362 0.4793 0.0
H1251 H 0.74877 0.89145 0.40672 0.0
H1252 H 0.78351 0.90827 0.44367 0.0
H1253 H 0.72598 0.88861 0.51302 0.0
H1254 H 0.69141 0.87305 0.47567 0.0
C1255 C 0.79644 0.91873 0.55337 0.0
C1256 C 0.8132 0.9082 0.54905 0.0
C1257 C 0.7788 0.91653 0.53121 0.0
C1258 C 0.77763 0.9039 0.50415 0.0
C1259 C 0.79477 0.89385 0.49966 0.0
C1260 C 0.8123 0.89596 0.52182 0.0
C1261 C 0.74374 0.89228 0.42964 0.0
C1262 C 0.71746 0.88169 0.43819 0.0
C1263 C 0.76358 0.90124 0.45096 0.0
C1264 C 0.75751 0.89943 0.48137 0.0
C1265 C 0.73141 0.89049 0.4898 0.0
C1266 C 0.71157 0.88159 0.46843 0.0
H1267 H 0.15447 0.95531 0.53264 0.0
H1268 H 0.13259 0.8837 0.58304 0.0
H1269 H 0.16519 0.93645 0.49016 0.0
H1270 H 0.14267 0.86444 0.54013 0.0
H1271 H 0.18858 0.84901 0.46883 0.0
H1272 H 0.18095 0.87065 0.51133 0.0
H1273 H 0.14342 0.90111 0.45345 0.0
H1274 H 0.15054 0.87896 0.41147 0.0
C1275 C 0.15185 0.93545 0.53458 0.0
C1276 C 0.14281 0.92103 0.56125 0.0
C1277 C 0.15785 0.9246 0.51017 0.0
C1278 C 0.155 0.89903 0.51181 0.0
C1279 C 0.1455 0.88437 0.53831 0.0
C1280 C 0.13937 0.89522 0.56275 0.0
C1281 C 0.17928 0.86089 0.46521 0.0
C1282 C 0.17112 0.86327 0.43665 0.0
C1283 C 0.17463 0.87301 0.48954 0.0
C1284 C 0.16155 0.88759 0.4858 0.0
C1285 C 0.15399 0.89047 0.45706 0.0
C1286 C 0.15852 0.87823 0.43284 0.0
H1287 H 0.56867 0.80002 0.12401 0.0
H1288 H 0.52804 0.72876 0.17731 0.0
H1289 H 0.60139 0.82114 0.16325 0.0
H1290 H 0.56077 0.74982 0.21652 0.0
H1291 H 0.60933 0.81325 0.29012 0.0
H1292 H 0.57619 0.78861 0.25241 0.0
H1293 H 0.63696 0.81426 0.18598 0.0
H1294 H 0.67017 0.83799 0.22412 0.0
C1295 C 0.56661 0.78902 0.14425 0.0
C1296 C 0.54587 0.76278 0.14764 0.0
C1297 C 0.58547 0.80095 0.16654 0.0
C1298 C 0.58376 0.787 0.19279 0.0
C1299 C 0.56258 0.76104 0.19653 0.0
C1300 C 0.54392 0.74899 0.17409 0.0
C1301 C 0.61566 0.81245 0.26778 0.0
C1302 C 0.64236 0.82658 0.26028 0.0
C1303 C 0.59667 0.79877 0.24607 0.0
C1304 C 0.60399 0.79961 0.21623 0.0
C1305 C 0.63075 0.81347 0.20877 0.0
C1306 C 0.64974 0.82683 0.23059 0.0
H1307 H 0.20437 0.76871 0.10859 0.0
H1308 H 0.27341 0.80414 0.16375 0.0
H1309 H 0.17897 0.7733 0.14909 0.0
H1310 H 0.24807 0.80842 0.20424 0.0
H1311 H 0.16642 0.83209 0.21468 0.0
H1312 H 0.18193 0.81504 0.17455 0.0
H1313 H 0.20914 0.77909 0.23894 0.0
H1314 H 0.19365 0.79612 0.27901 0.0
C1315 C 0.21399 0.77719 0.12949 0.0
C1316 C 0.24086 0.78622 0.13304 0.0
C1317 C 0.1995 0.77983 0.15259 0.0
C1318 C 0.2115 0.79101 0.17986 0.0
C1319 C 0.23821 0.79937 0.18361 0.0
C1320 C 0.25278 0.7972 0.16037 0.0
C1321 C 0.17481 0.81969 0.22021 0.0
C1322 C 0.17868 0.81533 0.25001 0.0
C1323 C 0.18373 0.80996 0.19724 0.0
C1324 C 0.19705 0.79606 0.20366 0.0
C1325 C 0.19912 0.78994 0.23338 0.0
C1326 C 0.18986 0.79934 0.25633 0.0
H1327 H 0.17888 0.43457 0.13045 0.0
H1328 H 0.22349 0.39904 0.0977 0.0
H1329 H 0.17232 0.41156 0.17729 0.0
H1330 H 0.21864 0.37751 0.14565 0.0
H1331 H 0.18767 0.32324 0.2252 0.0
H1332 H 0.18891 0.34304 0.17696 0.0
H1333 H 0.1934 0.41163 0.22094 0.0
H1334 H 0.19125 0.39127 0.26881 0.0
C1335 C 0.18731 0.4218 0.13318 0.0
C1336 C 0.20144 0.41844 0.10996 0.0
C1337 C 0.18386 0.40887 0.16037 0.0
C1338 C 0.19484 0.39251 0.16547 0.0
C1339 C 0.20941 0.3895 0.14246 0.0
C1340 C 0.21259 0.40223 0.11503 0.0
C1341 C 0.18831 0.34228 0.22443 0.0
C1342 C 0.18891 0.35553 0.2508 0.0
C1343 C 0.18939 0.35383 0.19679 0.0
C1344 C 0.19156 0.37915 0.19483 0.0
C1345 C 0.19131 0.39195 0.22133 0.0
C1346 C 0.18988 0.38021 0.24892 0.0
H1347 H 0.77257 0.57182 0.89168 0.0
H1348 H 0.8403 0.63019 0.93998 0.0
H1349 H 0.79383 0.59311 0.84498 0.0
H1350 H 0.86173 0.65119 0.89327 0.0
H1351 H 0.8623 0.70126 0.80975 0.0
H1352 H 0.85241 0.67751 0.85686 0.0
H1353 H 0.83131 0.6043 0.81032 0.0
H1354 H 0.84123 0.62822 0.763 0.0
C1355 C 0.79212 0.589 0.8923 0.0
C1356 C 0.80464 0.59941 0.91957 0.0
C1357 C 0.80445 0.60101 0.86552 0.0
C1358 C 0.8295 0.62386 0.8654 0.0
C1359 C 0.84239 0.63369 0.89262 0.0
C1360 C 0.83016 0.62155 0.91937 0.0
C1361 C 0.85648 0.68029 0.80964 0.0
C1362 C 0.85256 0.66662 0.78269 0.0
C1363 C 0.85078 0.66664 0.83666 0.0
C1364 C 0.84071 0.63892 0.83732 0.0
C1365 C 0.83875 0.6256 0.81049 0.0
C1366 C 0.84481 0.63938 0.78342 0.0
H1367 H 0.49357 0.22031 0.85335 0.0
H1368 H 0.46827 0.26421 0.90866 0.0
H1369 H 0.46167 0.21526 0.81584 0.0
H1370 H 0.43676 0.25982 0.87064 0.0
H1371 H 0.36055 0.20862 0.81321 0.0
H1372 H 0.3957 0.22405 0.84982 0.0
H1373 H 0.45155 0.2399 0.77952 0.0
H1374 H 0.41626 0.22323 0.74334 0.0
C1375 C 0.48122 0.22893 0.85747 0.0
C1376 C 0.4834 0.24254 0.88407 0.0
C1377 C 0.46318 0.2264 0.83576 0.0
C1378 C 0.44677 0.23735 0.84009 0.0
C1379 C 0.44905 0.25111 0.86662 0.0
C1380 C 0.46722 0.25376 0.88832 0.0
C1381 C 0.38049 0.21628 0.80556 0.0
C1382 C 0.3857 0.21529 0.77529 0.0
C1383 C 0.40066 0.2251 0.82653 0.0
C1384 C 0.42641 0.23289 0.81765 0.0
C1385 C 0.43188 0.23371 0.78715 0.0
C1386 C 0.41173 0.22483 0.76626 0.0
H1387 H 0.79736 0.2229 0.91216 0.0
H1388 H 0.81809 0.29329 0.85998 0.0
H1389 H 0.80874 0.20359 0.87028 0.0
H1390 H 0.82974 0.27423 0.81834 0.0
H1391 H 0.81702 0.21431 0.74195 0.0
H1392 H 0.8084 0.23685 0.78242 0.0
H1393 H 0.84923 0.21222 0.84292 0.0
H1394 H 0.85861 0.19045 0.80193 0.0
C1395 C 0.80407 0.23408 0.89165 0.0
C1396 C 0.80689 0.25959 0.88934 0.0
C1397 C 0.81091 0.22322 0.86782 0.0
C1398 C 0.82043 0.23754 0.84112 0.0
C1399 C 0.82246 0.2627 0.83857 0.0
C1400 C 0.81587 0.27363 0.86244 0.0
C1401 C 0.82541 0.21502 0.7635 0.0
C1402 C 0.83947 0.20165 0.76849 0.0
C1403 C 0.82001 0.22744 0.78686 0.0
C1404 C 0.82802 0.2262 0.81592 0.0
C1405 C 0.84255 0.21327 0.82083 0.0
C1406 C 0.84819 0.20109 0.79735 0.0
H1407 H 0.19415 0.0605 0.5141 0.0
H1408 H 0.23779 0.13238 0.46249 0.0
H1409 H 0.22668 0.07967 0.55384 0.0
H1410 H 0.27028 0.15159 0.50222 0.0
H1411 H 0.33767 0.16467 0.56252 0.0
H1412 H 0.30427 0.14188 0.52438 0.0
H1413 H 0.24366 0.11819 0.59069 0.0
H1414 H 0.27704 0.1419 0.62847 0.0
C1415 C 0.21063 0.08047 0.51138 0.0
C1416 C 0.21349 0.09498 0.48523 0.0
C1417 C 0.22918 0.09143 0.53411 0.0
C1418 C 0.25116 0.11697 0.53095 0.0
C1419 C 0.25373 0.13168 0.50505 0.0
C1420 C 0.235 0.12086 0.48249 0.0
C1421 C 0.31722 0.15406 0.56901 0.0
C1422 C 0.30997 0.15428 0.59866 0.0
C1423 C 0.29813 0.14125 0.54717 0.0
C1424 C 0.27137 0.12838 0.55455 0.0
C1425 C 0.26413 0.12766 0.5844 0.0
C1426 C 0.28326 0.1408 0.60617 0.0
H1427 H 0.94215 0.14006 0.49636 0.0
H1428 H 0.8713 0.09788 0.44477 0.0
H1429 H 0.91711 0.14406 0.53716 0.0
H1430 H 0.84606 0.10161 0.48589 0.0
H1431 H 0.8261 0.15491 0.54972 0.0
H1432 H 0.84316 0.13912 0.50991 0.0
H1433 H 0.88336 0.11746 0.57467 0.0
H1434 H 0.86714 0.13413 0.61412 0.0
C1435 C 0.92119 0.13155 0.49381 0.0
C1436 C 0.90874 0.1188 0.4673 0.0
C1437 C 0.90676 0.13353 0.51732 0.0
C1438 C 0.87954 0.12299 0.51485 0.0
C1439 C 0.867 0.10995 0.48845 0.0
C1440 C 0.88142 0.10772 0.46499 0.0
C1441 C 0.83781 0.14589 0.55547 0.0
C1442 C 0.84484 0.1453 0.58516 0.0
C1443 C 0.84762 0.13686 0.53267 0.0
C1444 C 0.86489 0.12734 0.53911 0.0
C1445 C 0.87032 0.12494 0.56896 0.0
C1446 C 0.86048 0.1339 0.5917 0.0
H1447 H 0.8858 0.73141 0.43294 0.0
H1448 H 0.85708 0.78133 0.46867 0.0
H1449 H 0.87972 0.71009 0.4812 0.0
H1450 H 0.84927 0.75884 0.51622 0.0
H1451 H 0.86349 0.73038 0.60608 0.0
H1452 H 0.86852 0.75295 0.55888 0.0
H1453 H 0.84628 0.67923 0.51258 0.0
H1454 H 0.84206 0.65706 0.56 0.0
C1455 C 0.87835 0.73797 0.45111 0.0
C1456 C 0.87172 0.75793 0.44674 0.0
C1457 C 0.87437 0.72538 0.47871 0.0
C1458 C 0.86348 0.7323 0.50263 0.0
C1459 C 0.85772 0.75293 0.49848 0.0
C1460 C 0.86196 0.76567 0.47102 0.0
C1461 C 0.85874 0.71883 0.58586 0.0
C1462 C 0.85192 0.69188 0.58674 0.0
C1463 C 0.8619 0.73181 0.55867 0.0
C1464 C 0.85818 0.71807 0.5317 0.0
C1465 C 0.85001 0.69069 0.53278 0.0
C1466 C 0.84717 0.67783 0.55996 0.0
loop_
_geom_bond_atom_site_label_1
_geom_bond_atom_site_label_2
_geom_bond_distance
_geom_bond_site_symmetry_2
_ccdc_geom_bond_type
H0 C3 0.929 . S
H1 C6 0.929 . S
H2 C8 0.930 . S
C3 H0 0.929 . S
C3 C4 1.398 . S
C3 C5 1.396 . S
C4 C3 1.398 . S
C4 C8 1.407 . S
C5 C3 1.396 . S
C5 C6 1.394 . S
C6 H1 0.929 . S
C6 C5 1.394 . S
C6 C7 1.382 . S
C7 C6 1.382 . S
C7 C8 1.392 . S
C7 N9 1.420 . S
C8 H2 0.930 . S
C8 C4 1.407 . S
C8 C7 1.392 . S
N9 C7 1.420 . S
N9 C10 1.244 . S
C10 N9 1.244 . S
H11 C14 0.929 . S
H12 C17 0.929 . S
H13 C19 0.930 . S
C14 H11 0.929 . S
C14 C15 1.398 . S
C14 C16 1.396 . S
C15 C14 1.398 . S
C15 C19 1.407 . S
C16 C14 1.396 . S
C16 C17 1.394 . S
C17 H12 0.929 . S
C17 C16 1.394 . S
C17 C18 1.382 . S
C18 C17 1.382 . S
C18 C19 1.392 . S
C18 N20 1.420 . S
C19 H13 0.930 . S
C19 C15 1.407 . S
C19 C18 1.392 . S
N20 C18 1.420 . S
N20 C21 1.244 . S
C21 N20 1.244 . S
H22 C25 0.929 . S
H23 C28 0.929 . S
H24 C30 0.930 . S
C25 H22 0.929 . S
C25 C26 1.398 . S
C25 C27 1.396 . S
C26 C25 1.398 . S
C26 C30 1.407 . S
C27 C25 1.396 . S
C27 C28 1.394 . S
C28 H23 0.929 . S
C28 C27 1.394 . S
C28 C29 1.382 . S
C29 C28 1.382 . S
C29 C30 1.392 . S
C29 N31 1.420 . S
C30 H24 0.930 . S
C30 C26 1.407 . S
C30 C29 1.392 . S
N31 C29 1.420 . S
N31 C32 1.244 . S
C32 N31 1.244 . S
H33 C36 0.929 . S
H34 C39 0.929 . S
H35 C41 0.930 . S
C36 H33 0.929 . S
C36 C37 1.398 . S
C36 C38 1.396 . S
C37 C36 1.398 . S
C37 C41 1.407 . S
C38 C36 1.396 . S
C38 C39 1.394 . S
C39 H34 0.929 . S
C39 C38 1.394 . S
C39 C40 1.382 . S
C40 C39 1.382 . S
C40 C41 1.392 . S
C40 N42 1.420 . S
C41 H35 0.930 . S
C41 C37 1.407 . S
C41 C40 1.392 . S
N42 C40 1.420 . S
N42 C43 1.244 . S
C43 N42 1.244 . S
H44 C47 0.929 . S
H45 C50 0.929 . S
H46 C52 0.930 . S
C47 H44 0.929 . S
C47 C48 1.398 . S
C47 C49 1.396 . S
C48 C47 1.398 . S
C48 C52 1.407 . S
C49 C47 1.396 . S
C49 C50 1.394 . S
C50 H45 0.929 . S
C50 C49 1.394 . S
C50 C51 1.382 . S
C51 C50 1.382 . S
C51 C52 1.392 . S
C51 N53 1.420 . S
C52 H46 0.930 . S
C52 C48 1.407 . S
C52 C51 1.392 . S
N53 C51 1.420 . S
N53 C54 1.244 . S
C54 N53 1.244 . S
H55 C58 0.929 . S
H56 C61 0.929 . S
H57 C63 0.930 . S
C58 H55 0.929 . S
C58 C59 1.398 . S
C58 C60 1.396 . S
C59 C58 1.398 . S
C59 C63 1.407 . S
C60 C58 1.396 . S
C60 C61 1.394 . S
C61 H56 0.929 . S
C61 C60 1.394 . S
C61 C62 1.382 . S
C62 C61 1.382 . S
C62 C63 1.392 . S
C62 N64 1.420 . S
C63 H57 0.930 . S
C63 C59 1.407 . S
C63 C62 1.392 . S
N64 C62 1.420 . S
N64 C65 1.244 . S
C65 N64 1.244 . S
H66 C69 0.929 . S
H67 C72 0.929 . S
H68 C74 0.930 . S
C69 H66 0.929 . S
C69 C70 1.398 . S
C69 C71 1.396 . S
C70 C69 1.398 . S
C70 C74 1.407 . S
C71 C69 1.396 . S
C71 C72 1.394 . S
C72 H67 0.929 . S
C72 C71 1.394 . S
C72 C73 1.382 . S
C73 C72 1.382 . S
C73 C74 1.392 . S
C73 N75 1.420 . S
C74 H68 0.930 . S
C74 C70 1.407 . S
C74 C73 1.392 . S
N75 C73 1.420 . S
N75 C76 1.244 . S
C76 N75 1.244 . S
H77 C80 0.929 . S
H78 C83 0.929 . S
H79 C85 0.930 . S
C80 H77 0.929 . S
C80 C81 1.398 . S
C80 C82 1.396 . S
C81 C80 1.398 . S
C81 C85 1.407 . S
C82 C80 1.396 . S
C82 C83 1.394 . S
C83 H78 0.929 . S
C83 C82 1.394 . S
C83 C84 1.382 . S
C84 C83 1.382 . S
C84 C85 1.392 . S
C84 N86 1.420 . S
C85 H79 0.930 . S
C85 C81 1.407 . S
C85 C84 1.392 . S
N86 C84 1.420 . S
N86 C87 1.244 . S
C87 N86 1.244 . S
H88 C91 0.929 . S
H89 C94 0.929 . S
H90 C96 0.930 . S
C91 H88 0.929 . S
C91 C92 1.398 . S
C91 C93 1.396 . S
C92 C91 1.398 . S
C92 C96 1.407 . S
C93 C91 1.396 . S
C93 C94 1.394 . S
C94 H89 0.929 . S
C94 C93 1.394 . S
C94 C95 1.382 . S
C95 C94 1.382 . S
C95 C96 1.392 . S
C95 N97 1.420 . S
C96 H90 0.930 . S
C96 C92 1.407 . S
C96 C95 1.392 . S
N97 C95 1.420 . S
N97 C98 1.244 . S
C98 N97 1.244 . S
H99 C102 0.929 . S
H100 C105 0.929 . S
H101 C107 0.930 . S
C102 H99 0.929 . S
C102 C103 1.398 . S
C102 C104 1.396 . S
C103 C102 1.398 . S
C103 C107 1.407 1_556 S
C104 C102 1.396 . S
C104 C105 1.394 . S
C105 H100 0.929 . S
C105 C104 1.394 . S
C105 C106 1.382 1_556 S
C106 C105 1.382 1_554 S
C106 C107 1.392 . S
C106 N108 1.420 . S
C107 H101 0.930 . S
C107 C103 1.407 1_554 S
C107 C106 1.392 . S
N108 C106 1.420 . S
N108 C109 1.244 . S
C109 N108 1.244 . S
H110 C113 0.929 . S
H111 C116 0.929 . S
H112 C118 0.930 . S
C113 H110 0.929 . S
C113 C114 1.374 1_556 S
C113 C115 1.396 . S
C114 C113 1.374 1_554 S
C114 C118 1.421 . S
C115 C113 1.396 . S
C115 C116 1.394 . S
C116 H111 0.929 . S
C116 C115 1.394 . S
C116 C117 1.382 1_556 S
C117 C116 1.382 1_554 S
C117 C118 1.392 . S
C117 N119 1.420 . S
C118 H112 0.930 . S
C118 C114 1.421 . S
C118 C117 1.392 . S
N119 C117 1.420 . S
N119 C120 1.244 . S
C120 N119 1.244 . S
H121 C124 0.929 . S
H122 C127 0.929 . S
H123 C129 0.930 . S
C124 H121 0.929 . S
C124 C125 1.398 . S
C124 C126 1.396 . S
C125 C124 1.398 . S
C125 C129 1.407 1_556 S
C126 C124 1.396 . S
C126 C127 1.394 . S
C127 H122 0.929 . S
C127 C126 1.394 . S
C127 C128 1.382 . S
C128 C127 1.382 . S
C128 C129 1.392 1_556 S
C128 N130 1.420 1_556 S
C129 H123 0.930 . S
C129 C125 1.407 1_554 S
C129 C128 1.392 1_554 S
N130 C128 1.420 1_554 S
N130 C131 1.244 . S
C131 N130 1.244 . S
H132 C135 0.929 . S
H133 C138 0.929 . S
H134 C140 0.930 1_556 S
C135 H132 0.929 . S
C135 C136 1.398 . S
C135 C137 1.396 . S
C136 C135 1.398 . S
C136 C140 1.407 . S
C137 C135 1.396 . S
C137 C138 1.394 . S
C138 H133 0.929 . S
C138 C137 1.394 . S
C138 C139 1.382 . S
C139 C138 1.382 . S
C139 C140 1.392 . S
C139 N141 1.420 . S
C140 H134 0.930 1_554 S
C140 C136 1.407 . S
C140 C139 1.392 . S
N141 C139 1.420 . S
N141 C142 1.244 . S
C142 N141 1.244 . S
H143 C146 0.929 . S
H144 C149 0.929 . S
H145 C151 0.930 1_556 S
C146 H143 0.929 . S
C146 C147 1.398 . S
C146 C148 1.396 . S
C147 C146 1.398 . S
C147 C151 1.407 . S
C148 C146 1.396 . S
C148 C149 1.394 . S
C149 H144 0.929 . S
C149 C148 1.394 . S
C149 C150 1.382 . S
C150 C149 1.382 . S
C150 C151 1.392 . S
C150 N152 1.420 . S
C151 H145 0.930 1_554 S
C151 C147 1.407 . S
C151 C150 1.392 . S
N152 C150 1.420 . S
N152 C153 1.244 . S
C153 N152 1.244 . S
H154 C157 0.929 . S
H155 C160 0.929 . S
H156 C162 0.930 1_556 S
C157 H154 0.929 . S
C157 C158 1.398 . S
C157 C159 1.396 . S
C158 C157 1.398 . S
C158 C162 1.407 . S
C159 C157 1.396 . S
C159 C160 1.394 . S
C160 H155 0.929 . S
C160 C159 1.394 . S
C160 C161 1.382 . S
C161 C160 1.382 . S
C161 C162 1.392 . S
C161 N163 1.420 . S
C162 H156 0.930 1_554 S
C162 C158 1.407 . S
C162 C161 1.392 . S
N163 C161 1.420 . S
N163 C164 1.244 . S
C164 N163 1.244 . S
H165 C168 0.929 . S
H166 C171 0.929 . S
H167 C173 0.930 . S
C168 H165 0.929 . S
C168 C169 1.398 . S
C168 C170 1.396 . S
C169 C168 1.398 . S
C169 C173 1.407 . S
C170 C168 1.396 . S
C170 C171 1.394 . S
C171 H166 0.929 . S
C171 C170 1.394 . S
C171 C172 1.382 . S
C172 C171 1.382 . S
C172 C173 1.392 . S
C172 N174 1.420 . S
C173 H167 0.930 . S
C173 C169 1.407 . S
C173 C172 1.392 . S
N174 C172 1.420 . S
N174 C175 1.244 . S
C175 N174 1.244 . S
H176 C179 0.929 . S
H177 C182 0.929 . S
H178 C184 0.930 . S
C179 H176 0.929 . S
C179 C180 1.398 . S
C179 C181 1.396 . S
C180 C179 1.398 . S
C180 C184 1.407 . S
C181 C179 1.396 . S
C181 C182 1.394 . S
C182 H177 0.929 . S
C182 C181 1.394 . S
C182 C183 1.382 . S
C183 C182 1.382 . S
C183 C184 1.392 . S
C183 N185 1.420 . S
C184 H178 0.930 . S
C184 C180 1.407 . S
C184 C183 1.392 . S
N185 C183 1.420 . S
N185 C186 1.244 . S
C186 N185 1.244 . S
H187 C190 0.929 . S
H188 C193 0.929 . S
H189 C195 0.930 . S
C190 H187 0.929 . S
C190 C191 1.398 . S
C190 C192 1.396 . S
C191 C190 1.398 . S
C191 C195 1.407 . S
C192 C190 1.396 . S
C192 C193 1.394 . S
C193 H188 0.929 . S
C193 C192 1.394 . S
C193 C194 1.382 . S
C194 C193 1.382 . S
C194 C195 1.392 . S
C194 N196 1.420 . S
C195 H189 0.930 . S
C195 C191 1.407 . S
C195 C194 1.392 . S
N196 C194 1.420 . S
N196 C197 1.244 . S
C197 N196 1.244 . S
O198 Mn199 2.163 1_565 S
O198 C212 1.244 . S
Mn199 O198 2.163 1_545 S
Mn199 O202 2.160 . S
Mn199 O203 2.221 1_545 S
Mn199 O205 2.163 1_554 S
Mn199 O207 2.160 . S
Mn199 O217 2.221 . S
O200 Mn201 2.087 1_565 S
O200 C212 1.256 . S
Mn201 O200 2.087 1_545 S
Mn201 O208 2.089 1_545 S
Mn201 O217 2.290 . S
Mn201 O218 2.251 . S
O202 Mn199 2.160 . S
O202 C213 1.239 . S
O203 Mn199 2.221 1_565 S
O203 Mn204 2.290 1_564 S
O203 C214 1.278 1_554 S
Mn204 O203 2.290 1_546 S
Mn204 O206 2.089 . S
Mn204 O209 2.251 1_545 S
Mn204 O210 2.087 . S
O205 Mn199 2.163 1_556 S
O205 C215 1.244 . S
O206 Mn204 2.089 . S
O206 C213 1.256 1_556 S
O207 Mn199 2.160 . S
O207 C216 1.239 1_545 S
O208 Mn201 2.089 1_565 S
O208 C216 1.256 . S
O209 Mn204 2.251 1_565 S
O209 C214 1.241 . S
O210 Mn204 2.087 . S
O210 C215 1.256 . S
C211 O217 1.278 . S
C211 O218 1.241 . S
C212 O198 1.244 . S
C212 O200 1.256 . S
C213 O202 1.239 . S
C213 O206 1.256 1_554 S
C214 O203 1.278 1_556 S
C214 O209 1.241 . S
C215 O205 1.244 . S
C215 O210 1.256 . S
C216 O207 1.239 1_565 S
C216 O208 1.256 . S
O217 Mn199 2.221 . S
O217 Mn201 2.290 . S
O217 C211 1.278 . S
O218 Mn201 2.251 . S
O218 C211 1.241 . S
O219 Mn220 2.163 . S
O219 C233 1.244 . S
Mn220 O219 2.163 . S
Mn220 O223 2.160 1_455 S
Mn220 O224 2.221 . S
Mn220 O226 2.163 1_454 S
Mn220 O228 2.160 . S
Mn220 O238 2.221 1_455 S
O221 Mn222 2.087 . S
O221 C233 1.256 . S
Mn222 O221 2.087 . S
Mn222 O229 2.089 . S
Mn222 O238 2.290 1_455 S
Mn222 O239 2.251 1_455 S
O223 Mn220 2.160 1_655 S
O223 C234 1.239 . S
O224 Mn220 2.221 . S
O224 Mn225 2.290 1_554 S
O224 C235 1.278 1_554 S
Mn225 O224 2.290 1_556 S
Mn225 O227 2.089 1_455 S
Mn225 O230 2.251 . S
Mn225 O231 2.087 . S
O226 Mn220 2.163 1_656 S
O226 C236 1.244 . S
O227 Mn225 2.089 1_655 S
O227 C234 1.256 1_556 S
O228 Mn220 2.160 . S
O228 C237 1.239 . S
O229 Mn222 2.089 . S
O229 C237 1.256 . S
O230 Mn225 2.251 . S
O230 C235 1.241 . S
O231 Mn225 2.087 . S
O231 C236 1.256 1_455 S
C232 O238 1.278 . S
C232 O239 1.241 . S
C233 O219 1.244 . S
C233 O221 1.256 . S
C234 O223 1.239 . S
C234 O227 1.256 1_554 S
C235 O224 1.278 1_556 S
C235 O230 1.241 . S
C236 O226 1.244 . S
C236 O231 1.256 1_655 S
C237 O228 1.239 . S
C237 O229 1.256 . S
O238 Mn220 2.221 1_655 S
O238 Mn222 2.290 1_655 S
O238 C232 1.278 . S
O239 Mn222 2.251 1_655 S
O239 C232 1.241 . S
O240 Mn241 2.163 . S
O240 C254 1.244 . S
Mn241 O240 2.163 . S
Mn241 O244 2.160 . S
Mn241 O245 2.221 . S
Mn241 O247 2.163 . S
Mn241 O249 2.160 1_554 S
Mn241 O259 2.221 1_554 S
O242 Mn243 2.087 . S
O242 C254 1.256 1_556 S
Mn243 O242 2.087 . S
Mn243 O250 2.089 . S
Mn243 O259 2.290 . S
Mn243 O260 2.251 1_556 S
O244 Mn241 2.160 . S
O244 C255 1.239 . S
O245 Mn241 2.221 . S
O245 Mn246 2.290 . S
O245 C256 1.278 . S
Mn246 O245 2.290 . S
Mn246 O248 2.089 . S
Mn246 O251 2.251 . S
Mn246 O252 2.087 . S
O247 Mn241 2.163 . S
O247 C257 1.244 . S
O248 Mn246 2.089 . S
O248 C255 1.256 . S
O249 Mn241 2.160 1_556 S
O249 C258 1.239 . S
O250 Mn243 2.089 . S
O250 C258 1.256 . S
O251 Mn246 2.251 . S
O251 C256 1.241 . S
O252 Mn246 2.087 . S
O252 C257 1.256 . S
C253 O259 1.278 1_554 S
C253 O260 1.241 . S
C254 O240 1.244 . S
C254 O242 1.256 1_554 S
C255 O244 1.239 . S
C255 O248 1.256 . S
C256 O245 1.278 . S
C256 O251 1.241 . S
C257 O247 1.244 . S
C257 O252 1.256 . S
C258 O249 1.239 . S
C258 O250 1.256 . S
O259 Mn241 2.221 1_556 S
O259 Mn243 2.290 . S
O259 C253 1.278 1_556 S
O260 Mn243 2.251 1_554 S
O260 C253 1.241 . S
O261 Mn262 2.163 . S
O261 C275 1.244 . S
Mn262 O261 2.163 . S
Mn262 O265 2.160 . S
Mn262 O266 2.221 . S
Mn262 O268 2.163 . S
Mn262 O270 2.160 . S
Mn262 O280 2.221 . S
O263 Mn264 2.087 . S
O263 C275 1.256 . S
Mn264 O263 2.087 . S
Mn264 O271 2.089 . S
Mn264 O280 2.290 . S
Mn264 O281 2.251 . S
O265 Mn262 2.160 . S
O265 C276 1.239 . S
O266 Mn262 2.221 . S
O266 Mn267 2.290 . S
O266 C277 1.278 . S
Mn267 O266 2.290 . S
Mn267 O269 2.089 . S
Mn267 O272 2.251 . S
Mn267 O273 2.087 . S
O268 Mn262 2.163 . S
O268 C278 1.244 . S
O269 Mn267 2.089 . S
O269 C276 1.256 . S
O270 Mn262 2.160 . S
O270 C279 1.239 . S
O271 Mn264 2.089 . S
O271 C279 1.256 . S
O272 Mn267 2.251 . S
O272 C277 1.241 . S
O273 Mn267 2.087 . S
O273 C278 1.256 . S
C274 O280 1.278 . S
C274 O281 1.241 . S
C275 O261 1.244 . S
C275 O263 1.256 . S
C276 O265 1.239 . S
C276 O269 1.256 . S
C277 O266 1.278 . S
C277 O272 1.241 . S
C278 O268 1.244 . S
C278 O273 1.256 . S
C279 O270 1.239 . S
C279 O271 1.256 . S
O280 Mn262 2.221 . S
O280 Mn264 2.290 . S
O280 C274 1.278 . S
O281 Mn264 2.251 . S
O281 C274 1.241 . S
O282 Mn283 2.163 . S
O282 C296 1.244 . S
Mn283 O282 2.163 . S
Mn283 O286 2.160 . S
Mn283 O287 2.221 . S
Mn283 O289 2.163 . S
Mn283 O291 2.160 . S
Mn283 O301 2.221 . S
O284 Mn285 2.087 . S
O284 C296 1.256 . S
Mn285 O284 2.087 . S
Mn285 O292 2.089 . S
Mn285 O301 2.290 . S
Mn285 O302 2.251 . S
O286 Mn283 2.160 . S
O286 C297 1.239 . S
O287 Mn283 2.221 . S
O287 Mn288 2.290 . S
O287 C298 1.278 . S
Mn288 O287 2.290 . S
Mn288 O290 2.089 . S
Mn288 O293 2.251 . S
Mn288 O294 2.087 . S
O289 Mn283 2.163 . S
O289 C299 1.244 . S
O290 Mn288 2.089 . S
O290 C297 1.256 . S
O291 Mn283 2.160 . S
O291 C300 1.239 . S
O292 Mn285 2.089 . S
O292 C300 1.256 . S
O293 Mn288 2.251 . S
O293 C298 1.241 . S
O294 Mn288 2.087 . S
O294 C299 1.256 . S
C295 O301 1.278 . S
C295 O302 1.241 . S
C296 O282 1.244 . S
C296 O284 1.256 . S
C297 O286 1.239 . S
C297 O290 1.256 . S
C298 O287 1.278 . S
C298 O293 1.241 . S
C299 O289 1.244 . S
C299 O294 1.256 . S
C300 O291 1.239 . S
C300 O292 1.256 . S
O301 Mn283 2.221 . S
O301 Mn285 2.290 . S
O301 C295 1.278 . S
O302 Mn285 2.251 . S
O302 C295 1.241 . S
O303 Mn304 2.163 . S
O303 C317 1.244 . S
Mn304 O303 2.163 . S
Mn304 O307 2.160 . S
Mn304 O308 2.221 . S
Mn304 O310 2.163 . S
Mn304 O312 2.160 . S
Mn304 O322 2.221 . S
O305 Mn306 2.087 . S
O305 C317 1.256 . S
Mn306 O305 2.087 . S
Mn306 O313 2.089 . S
Mn306 O322 2.290 . S
Mn306 O323 2.251 . S
O307 Mn304 2.160 . S
O307 C318 1.239 . S
O308 Mn304 2.221 . S
O308 Mn309 2.290 . S
O308 C319 1.278 . S
Mn309 O308 2.290 . S
Mn309 O311 2.089 . S
Mn309 O314 2.251 . S
Mn309 O315 2.087 . S
O310 Mn304 2.163 . S
O310 C320 1.244 . S
O311 Mn309 2.089 . S
O311 C318 1.256 . S
O312 Mn304 2.160 . S
O312 C321 1.239 . S
O313 Mn306 2.089 . S
O313 C321 1.256 . S
O314 Mn309 2.251 . S
O314 C319 1.241 . S
O315 Mn309 2.087 . S
O315 C320 1.256 . S
C316 O322 1.278 . S
C316 O323 1.241 . S
C317 O303 1.244 . S
C317 O305 1.256 . S
C318 O307 1.239 . S
C318 O311 1.256 . S
C319 O308 1.278 . S
C319 O314 1.241 . S
C320 O310 1.244 . S
C320 O315 1.256 . S
C321 O312 1.239 . S
C321 O313 1.256 . S
O322 Mn304 2.221 . S
O322 Mn306 2.290 . S
O322 C316 1.278 . S
O323 Mn306 2.251 . S
O323 C316 1.241 . S
O324 Mn325 2.163 . S
O324 C338 1.244 . S
Mn325 O324 2.163 . S
Mn325 O328 2.160 . S
Mn325 O329 2.221 . S
Mn325 O331 2.163 . S
Mn325 O333 2.160 . S
Mn325 O343 2.221 . S
O326 Mn327 2.087 . S
O326 C338 1.256 . S
Mn327 O326 2.087 . S
Mn327 O334 2.089 . S
Mn327 O343 2.290 . S
Mn327 O344 2.251 . S
O328 Mn325 2.160 . S
O328 C339 1.239 . S
O329 Mn325 2.221 . S
O329 Mn330 2.290 . S
O329 C340 1.278 . S
Mn330 O329 2.290 . S
Mn330 O332 2.089 . S
Mn330 O335 2.251 . S
Mn330 O336 2.087 . S
O331 Mn325 2.163 . S
O331 C341 1.244 . S
O332 Mn330 2.089 . S
O332 C339 1.256 . S
O333 Mn325 2.160 . S
O333 C342 1.239 . S
O334 Mn327 2.089 . S
O334 C342 1.256 . S
O335 Mn330 2.251 . S
O335 C340 1.241 . S
O336 Mn330 2.087 . S
O336 C341 1.256 . S
C337 O343 1.278 . S
C337 O344 1.241 . S
C338 O324 1.244 . S
C338 O326 1.256 . S
C339 O328 1.239 . S
C339 O332 1.256 . S
C340 O329 1.278 . S
C340 O335 1.241 . S
C341 O331 1.244 . S
C341 O336 1.256 . S
C342 O333 1.239 . S
C342 O334 1.256 . S
O343 Mn325 2.221 . S
O343 Mn327 2.290 . S
O343 C337 1.278 . S
O344 Mn327 2.251 . S
O344 C337 1.241 . S
O345 Mn346 2.163 . S
O345 C359 1.244 . S
Mn346 O345 2.163 . S
Mn346 O349 2.160 . S
Mn346 O350 2.221 . S
Mn346 O352 2.163 . S
Mn346 O354 2.160 . S
Mn346 O364 2.221 . S
O347 Mn348 2.087 . S
O347 C359 1.256 . S
Mn348 O347 2.087 . S
Mn348 O355 2.089 . S
Mn348 O364 2.290 . S
Mn348 O365 2.251 . S
O349 Mn346 2.160 . S
O349 C360 1.239 . S
O350 Mn346 2.221 . S
O350 Mn351 2.290 . S
O350 C361 1.278 . S
Mn351 O350 2.290 . S
Mn351 O353 2.089 . S
Mn351 O356 2.251 . S
Mn351 O357 2.087 . S
O352 Mn346 2.163 . S
O352 C362 1.244 . S
O353 Mn351 2.089 . S
O353 C360 1.256 . S
O354 Mn346 2.160 . S
O354 C363 1.239 . S
O355 Mn348 2.089 . S
O355 C363 1.256 . S
O356 Mn351 2.251 . S
O356 C361 1.241 . S
O357 Mn351 2.087 . S
O357 C362 1.256 . S
C358 O364 1.278 . S
C358 O365 1.241 . S
C359 O345 1.244 . S
C359 O347 1.256 . S
C360 O349 1.239 . S
C360 O353 1.256 . S
C361 O350 1.278 . S
C361 O356 1.241 . S
C362 O352 1.244 . S
C362 O357 1.256 . S
C363 O354 1.239 . S
C363 O355 1.256 . S
O364 Mn346 2.221 . S
O364 Mn348 2.290 . S
O364 C358 1.278 . S
O365 Mn348 2.251 . S
O365 C358 1.241 . S
O366 Mn367 2.163 . S
O366 C380 1.244 . S
Mn367 O366 2.163 . S
Mn367 O370 2.160 . S
Mn367 O371 2.221 . S
Mn367 O373 2.163 . S
Mn367 O375 2.160 . S
Mn367 O385 2.221 . S
O368 Mn369 2.087 . S
O368 C380 1.256 . S
Mn369 O368 2.087 . S
Mn369 O376 2.089 . S
Mn369 O385 2.290 . S
Mn369 O386 2.251 . S
O370 Mn367 2.160 . S
O370 C381 1.239 . S
O371 Mn367 2.221 . S
O371 Mn372 2.290 . S
O371 C382 1.278 . S
Mn372 O371 2.290 . S
Mn372 O374 2.089 . S
Mn372 O377 2.251 . S
Mn372 O378 2.087 . S
O373 Mn367 2.163 . S
O373 C383 1.244 . S
O374 Mn372 2.089 . S
O374 C381 1.256 . S
O375 Mn367 2.160 . S
O375 C384 1.239 . S
O376 Mn369 2.089 . S
O376 C384 1.256 . S
O377 Mn372 2.251 . S
O377 C382 1.241 . S
O378 Mn372 2.087 . S
O378 C383 1.256 . S
C379 O385 1.278 . S
C379 O386 1.241 . S
C380 O366 1.244 . S
C380 O368 1.256 . S
C381 O370 1.239 . S
C381 O374 1.256 . S
C382 O371 1.278 . S
C382 O377 1.241 . S
C383 O373 1.244 . S
C383 O378 1.256 . S
C384 O375 1.239 . S
C384 O376 1.256 . S
O385 Mn367 2.221 . S
O385 Mn369 2.290 . S
O385 C379 1.278 . S
O386 Mn369 2.251 . S
O386 C379 1.241 . S
H387 C395 0.950 . S
H388 C400 0.950 . S
H389 C397 0.950 . S
H390 C399 0.950 . S
H391 C401 0.950 . S
H392 C403 0.950 . S
H393 C405 0.950 . S
H394 C406 0.950 . S
C395 H387 0.950 . S
C395 C396 1.386 . S
C395 C397 1.391 . S
C396 C395 1.386 . S
C396 C400 1.393 . S
C397 H389 0.950 . S
C397 C395 1.391 . S
C397 C398 1.400 . S
C398 C397 1.400 . S
C398 C399 1.398 . S
C398 C404 1.491 . S
C399 H390 0.950 . S
C399 C398 1.398 . S
C399 C400 1.391 . S
C400 H388 0.950 . S
C400 C396 1.393 . S
C400 C399 1.391 . S
C401 H391 0.950 . S
C401 C402 1.386 . S
C401 C403 1.391 . S
C402 C401 1.386 . S
C402 C406 1.393 . S
C403 H392 0.950 . S
C403 C401 1.391 . S
C403 C404 1.400 . S
C404 C398 1.491 . S
C404 C403 1.400 . S
C404 C405 1.398 . S
C405 H393 0.950 . S
C405 C404 1.398 . S
C405 C406 1.391 . S
C406 H394 0.950 . S
C406 C402 1.393 . S
C406 C405 1.391 . S
H407 C415 0.950 . S
H408 C420 0.957 . S
H409 C417 0.950 . S
H410 C419 0.950 . S
H411 C421 0.950 . S
H412 C423 0.950 . S
H413 C425 0.950 . S
H414 C426 0.950 . S
C415 H407 0.950 . S
C415 C416 1.386 . S
C415 C417 1.391 . S
C416 C415 1.386 . S
C416 C420 1.385 1_554 S
C417 H409 0.950 . S
C417 C415 1.391 . S
C417 C418 1.400 . S
C418 C417 1.400 . S
C418 C419 1.398 1_554 S
C418 C424 1.491 . S
C419 H410 0.950 . S
C419 C418 1.398 1_556 S
C419 C420 1.391 . S
C420 H408 0.957 . S
C420 C416 1.385 1_556 S
C420 C419 1.391 . S
C421 H411 0.950 . S
C421 C422 1.386 1_556 S
C421 C423 1.391 . S
C422 C421 1.386 1_554 S
C422 C426 1.393 . S
C423 H412 0.950 . S
C423 C421 1.391 . S
C423 C424 1.400 1_556 S
C424 C418 1.491 . S
C424 C423 1.400 1_554 S
C424 C425 1.398 . S
C425 H413 0.950 . S
C425 C424 1.398 . S
C425 C426 1.391 . S
C426 H414 0.950 . S
C426 C422 1.393 . S
C426 C425 1.391 . S
H427 C435 0.950 . S
H428 C440 0.950 1_556 S
H429 C437 0.950 . S
H430 C439 0.950 1_556 S
H431 C441 0.966 . S
H432 C443 0.942 1_556 S
H433 C445 0.950 . S
H434 C446 0.950 . S
C435 H427 0.950 . S
C435 C436 1.386 . S
C435 C437 1.391 . S
C436 C435 1.386 . S
C436 C440 1.393 . S
C437 H429 0.950 . S
C437 C435 1.391 . S
C437 C438 1.400 . S
C438 C437 1.400 . S
C438 C439 1.398 . S
C438 C444 1.491 . S
C439 H430 0.950 1_554 S
C439 C438 1.398 . S
C439 C440 1.391 . S
C440 H428 0.950 1_554 S
C440 C436 1.393 . S
C440 C439 1.391 . S
C441 H431 0.966 . S
C441 C442 1.371 1_556 S
C441 C443 1.391 1_556 S
C442 C441 1.371 1_554 S
C442 C446 1.393 . S
C443 H432 0.942 1_554 S
C443 C441 1.391 1_554 S
C443 C444 1.408 . S
C444 C438 1.491 . S
C444 C443 1.408 . S
C444 C445 1.398 . S
C445 H433 0.950 . S
C445 C444 1.398 . S
C445 C446 1.391 . S
C446 H434 0.950 . S
C446 C442 1.393 . S
C446 C445 1.391 . S
H447 C455 0.950 . S
H448 C460 0.950 . S
H449 C457 0.950 . S
H450 C459 0.950 . S
H451 C461 0.950 . S
H452 C463 0.950 . S
H453 C465 0.950 . S
H454 C466 0.950 . S
C455 H447 0.950 . S
C455 C456 1.370 1_556 S
C455 C457 1.391 . S
C456 C455 1.370 1_554 S
C456 C460 1.410 . S
C457 H449 0.950 . S
C457 C455 1.391 . S
C457 C458 1.400 1_556 S
C458 C457 1.400 1_554 S
C458 C459 1.398 . S
C458 C464 1.491 . S
C459 H450 0.950 . S
C459 C458 1.398 . S
C459 C460 1.391 . S
C460 H448 0.950 . S
C460 C456 1.410 . S
C460 C459 1.391 . S
C461 H451 0.950 . S
C461 C462 1.386 . S
C461 C463 1.391 . S
C462 C461 1.386 . S
C462 C466 1.393 1_554 S
C463 H452 0.950 . S
C463 C461 1.391 . S
C463 C464 1.400 . S
C464 C458 1.491 . S
C464 C463 1.400 . S
C464 C465 1.398 1_554 S
C465 H453 0.950 . S
C465 C464 1.398 1_556 S
C465 C466 1.391 . S
C466 H454 0.950 . S
C466 C462 1.393 1_556 S
C466 C465 1.391 . S
H467 C475 0.950 . S
H468 C480 0.950 . S
H469 C477 0.950 . S
H470 C479 0.950 . S
H471 C481 0.950 . S
H472 C483 0.950 . S
H473 C485 0.950 . S
H474 C486 0.950 . S
C475 H467 0.950 . S
C475 C476 1.386 . S
C475 C477 1.391 . S
C476 C475 1.386 . S
C476 C480 1.393 1_554 S
C477 H469 0.950 . S
C477 C475 1.391 . S
C477 C478 1.400 . S
C478 C477 1.400 . S
C478 C479 1.398 1_554 S
C478 C484 1.491 . S
C479 H470 0.950 . S
C479 C478 1.398 1_556 S
C479 C480 1.391 . S
C480 H468 0.950 . S
C480 C476 1.393 1_556 S
C480 C479 1.391 . S
C481 H471 0.950 . S
C481 C482 1.386 1_556 S
C481 C483 1.391 . S
C482 C481 1.386 1_554 S
C482 C486 1.393 . S
C483 H472 0.950 . S
C483 C481 1.391 . S
C483 C484 1.400 1_556 S
C484 C478 1.491 . S
C484 C483 1.400 1_554 S
C484 C485 1.398 . S
C485 H473 0.950 . S
C485 C484 1.398 . S
C485 C486 1.391 . S
C486 H474 0.950 . S
C486 C482 1.393 . S
C486 C485 1.391 . S
H487 C495 0.950 . S
H488 C500 0.950 . S
H489 C497 0.950 . S
H490 C499 0.950 . S
H491 C501 0.950 . S
H492 C503 0.950 . S
H493 C505 0.950 . S
H494 C506 0.950 . S
C495 H487 0.950 . S
C495 C496 1.386 . S
C495 C497 1.391 . S
C496 C495 1.386 . S
C496 C500 1.393 1_554 S
C497 H489 0.950 . S
C497 C495 1.391 . S
C497 C498 1.400 . S
C498 C497 1.400 . S
C498 C499 1.398 1_554 S
C498 C504 1.491 . S
C499 H490 0.950 . S
C499 C498 1.398 1_556 S
C499 C500 1.391 . S
C500 H488 0.950 . S
C500 C496 1.393 1_556 S
C500 C499 1.391 . S
C501 H491 0.950 . S
C501 C502 1.386 1_556 S
C501 C503 1.391 . S
C502 C501 1.386 1_554 S
C502 C506 1.393 . S
C503 H492 0.950 . S
C503 C501 1.391 . S
C503 C504 1.400 1_556 S
C504 C498 1.491 . S
C504 C503 1.400 1_554 S
C504 C505 1.398 . S
C505 H493 0.950 . S
C505 C504 1.398 . S
C505 C506 1.391 . S
C506 H494 0.950 . S
C506 C502 1.393 . S
C506 C505 1.391 . S
H507 C515 0.950 . S
H508 C520 0.950 . S
H509 C517 0.950 . S
H510 C519 0.950 . S
H511 C521 0.950 . S
H512 C523 0.950 . S
H513 C525 0.950 . S
H514 C526 0.950 . S
C515 H507 0.950 . S
C515 C516 1.386 . S
C515 C517 1.391 . S
C516 C515 1.386 . S
C516 C520 1.393 . S
C517 H509 0.950 . S
C517 C515 1.391 . S
C517 C518 1.400 . S
C518 C517 1.400 . S
C518 C519 1.398 . S
C518 C524 1.491 . S
C519 H510 0.950 . S
C519 C518 1.398 . S
C519 C520 1.391 . S
C520 H508 0.950 . S
C520 C516 1.393 . S
C520 C519 1.391 . S
C521 H511 0.950 . S
C521 C522 1.386 . S
C521 C523 1.391 . S
C522 C521 1.386 . S
C522 C526 1.393 . S
C523 H512 0.950 . S
C523 C521 1.391 . S
C523 C524 1.400 . S
C524 C518 1.491 . S
C524 C523 1.400 . S
C524 C525 1.398 . S
C525 H513 0.950 . S
C525 C524 1.398 . S
C525 C526 1.391 . S
C526 H514 0.950 . S
C526 C522 1.393 . S
C526 C525 1.391 . S
H527 C535 0.950 . S
H528 C540 0.950 . S
H529 C537 0.950 . S
H530 C539 0.950 . S
H531 C541 0.950 . S
H532 C543 0.950 . S
H533 C545 0.950 . S
H534 C546 0.950 . S
C535 H527 0.950 . S
C535 C536 1.386 1_556 S
C535 C537 1.391 . S
C536 C535 1.386 1_554 S
C536 C540 1.393 . S
C537 H529 0.950 . S
C537 C535 1.391 . S
C537 C538 1.400 1_556 S
C538 C537 1.400 1_554 S
C538 C539 1.398 . S
C538 C544 1.491 . S
C539 H530 0.950 . S
C539 C538 1.398 . S
C539 C540 1.391 . S
C540 H528 0.950 . S
C540 C536 1.393 . S
C540 C539 1.391 . S
C541 H531 0.950 . S
C541 C542 1.386 . S
C541 C543 1.391 . S
C542 C541 1.386 . S
C542 C546 1.393 1_554 S
C543 H532 0.950 . S
C543 C541 1.391 . S
C543 C544 1.400 . S
C544 C538 1.491 . S
C544 C543 1.400 . S
C544 C545 1.398 1_554 S
C545 H533 0.950 . S
C545 C544 1.398 1_556 S
C545 C546 1.391 . S
C546 H534 0.950 . S
C546 C542 1.393 1_556 S
C546 C545 1.391 . S
H547 C555 0.950 1_556 S
H548 C560 0.950 . S
H549 C557 0.950 1_556 S
H550 C559 0.950 . S
H551 C561 0.950 . S
H552 C563 0.950 . S
H553 C565 0.950 1_556 S
H554 C566 0.950 1_556 S
C555 H547 0.950 1_554 S
C555 C556 1.386 . S
C555 C557 1.391 . S
C556 C555 1.386 . S
C556 C560 1.393 . S
C557 H549 0.950 1_554 S
C557 C555 1.391 . S
C557 C558 1.400 . S
C558 C557 1.400 . S
C558 C559 1.398 . S
C558 C564 1.491 . S
C559 H550 0.950 . S
C559 C558 1.398 . S
C559 C560 1.391 . S
C560 H548 0.950 . S
C560 C556 1.393 . S
C560 C559 1.391 . S
C561 H551 0.950 . S
C561 C562 1.386 . S
C561 C563 1.391 . S
C562 C561 1.386 . S
C562 C566 1.393 . S
C563 H552 0.950 . S
C563 C561 1.391 . S
C563 C564 1.400 . S
C564 C558 1.491 . S
C564 C563 1.400 . S
C564 C565 1.398 . S
C565 H553 0.950 1_554 S
C565 C564 1.398 . S
C565 C566 1.391 . S
C566 H554 0.950 1_554 S
C566 C562 1.393 . S
C566 C565 1.391 . S
H567 C575 0.945 1_556 S
H568 C580 0.950 . S
H569 C577 0.950 1_556 S
H570 C579 0.950 . S
H571 C581 0.950 . S
H572 C583 0.950 . S
H573 C585 0.950 . S
H574 C586 0.955 . S
C575 H567 0.945 1_554 S
C575 C576 1.390 . S
C575 C577 1.392 . S
C576 C575 1.390 . S
C576 C580 1.393 . S
C577 H569 0.950 1_554 S
C577 C575 1.392 . S
C577 C578 1.400 . S
C578 C577 1.400 . S
C578 C579 1.398 . S
C578 C584 1.491 . S
C579 H570 0.950 . S
C579 C578 1.398 . S
C579 C580 1.391 . S
C580 H568 0.950 . S
C580 C576 1.393 . S
C580 C579 1.391 . S
C581 H571 0.950 . S
C581 C582 1.386 . S
C581 C583 1.391 . S
C582 C581 1.386 . S
C582 C586 1.393 . S
C583 H572 0.950 . S
C583 C581 1.391 . S
C583 C584 1.400 . S
C584 C578 1.491 . S
C584 C583 1.400 . S
C584 C585 1.398 . S
C585 H573 0.950 . S
C585 C584 1.398 . S
C585 C586 1.391 . S
C586 H574 0.955 . S
C586 C582 1.393 . S
C586 C585 1.391 . S
H587 C595 0.950 . S
H588 C600 0.950 . S
H589 C597 0.950 . S
H590 C599 0.950 . S
H591 C601 0.950 . S
H592 C603 0.950 . S
H593 C605 0.950 . S
H594 C606 0.950 . S
C595 H587 0.950 . S
C595 C596 1.386 . S
C595 C597 1.391 . S
C596 C595 1.386 . S
C596 C600 1.393 1_554 S
C597 H589 0.950 . S
C597 C595 1.391 . S
C597 C598 1.400 . S
C598 C597 1.400 . S
C598 C599 1.398 1_554 S
C598 C604 1.491 . S
C599 H590 0.950 . S
C599 C598 1.398 1_556 S
C599 C600 1.391 . S
C600 H588 0.950 . S
C600 C596 1.393 1_556 S
C600 C599 1.391 . S
C601 H591 0.950 . S
C601 C602 1.386 1_556 S
C601 C603 1.391 . S
C602 C601 1.386 1_554 S
C602 C606 1.393 . S
C603 H592 0.950 . S
C603 C601 1.391 . S
C603 C604 1.400 1_556 S
C604 C598 1.491 . S
C604 C603 1.400 1_554 S
C604 C605 1.398 . S
C605 H593 0.950 . S
C605 C604 1.398 . S
C605 C606 1.391 . S
C606 H594 0.950 . S
C606 C602 1.393 . S
C606 C605 1.391 . S
H607 C615 0.950 . S
H608 C620 0.950 . S
H609 C617 0.950 . S
H610 C619 0.950 . S
H611 C621 0.950 . S
H612 C623 0.950 . S
H613 C625 0.950 . S
H614 C626 0.950 . S
C615 H607 0.950 . S
C615 C616 1.386 1_556 S
C615 C617 1.391 . S
C616 C615 1.386 1_554 S
C616 C620 1.393 . S
C617 H609 0.950 . S
C617 C615 1.391 . S
C617 C618 1.400 1_556 S
C618 C617 1.400 1_554 S
C618 C619 1.398 . S
C618 C624 1.491 . S
C619 H610 0.950 . S
C619 C618 1.398 . S
C619 C620 1.391 . S
C620 H608 0.950 . S
C620 C616 1.393 . S
C620 C619 1.391 . S
C621 H611 0.950 . S
C621 C622 1.386 . S
C621 C623 1.391 . S
C622 C621 1.386 . S
C622 C626 1.393 1_554 S
C623 H612 0.950 . S
C623 C621 1.391 . S
C623 C624 1.400 . S
C624 C618 1.491 . S
C624 C623 1.400 . S
C624 C625 1.398 1_554 S
C625 H613 0.950 . S
C625 C624 1.398 1_556 S
C625 C626 1.391 . S
C626 H614 0.950 . S
C626 C622 1.393 1_556 S
C626 C625 1.391 . S
H627 C635 0.950 . S
H628 C640 0.950 . S
H629 C637 0.950 . S
H630 C639 0.950 1_455 S
H631 C641 0.950 . S
H632 C643 0.950 . S
H633 C645 0.950 . S
H634 C646 0.950 . S
C635 H627 0.950 . S
C635 C636 1.386 . S
C635 C637 1.391 . S
C636 C635 1.386 . S
C636 C640 1.393 . S
C637 H629 0.950 . S
C637 C635 1.391 . S
C637 C638 1.400 . S
C638 C637 1.400 . S
C638 C639 1.398 . S
C638 C644 1.491 1_655 S
C639 H630 0.950 1_655 S
C639 C638 1.398 . S
C639 C640 1.391 . S
C640 H628 0.950 . S
C640 C636 1.393 . S
C640 C639 1.391 . S
C641 H631 0.950 . S
C641 C642 1.386 . S
C641 C643 1.391 . S
C642 C641 1.386 . S
C642 C646 1.393 . S
C643 H632 0.950 . S
C643 C641 1.391 . S
C643 C644 1.400 . S
C644 C638 1.491 1_455 S
C644 C643 1.400 . S
C644 C645 1.398 . S
C645 H633 0.950 . S
C645 C644 1.398 . S
C645 C646 1.391 . S
C646 H634 0.950 . S
C646 C642 1.393 . S
C646 C645 1.391 . S
H647 C655 0.950 . S
H648 C660 0.950 . S
H649 C657 0.950 . S
H650 C659 0.950 . S
H651 C661 0.950 . S
H652 C663 0.950 . S
H653 C665 0.950 . S
H654 C666 0.950 . S
C655 H647 0.950 . S
C655 C656 1.386 . S
C655 C657 1.391 . S
C656 C655 1.386 . S
C656 C660 1.393 . S
C657 H649 0.950 . S
C657 C655 1.391 . S
C657 C658 1.400 . S
C658 C657 1.400 . S
C658 C659 1.398 . S
C658 C664 1.491 . S
C659 H650 0.950 . S
C659 C658 1.398 . S
C659 C660 1.391 . S
C660 H648 0.950 . S
C660 C656 1.393 . S
C660 C659 1.391 . S
C661 H651 0.950 . S
C661 C662 1.386 . S
C661 C663 1.391 . S
C662 C661 1.386 . S
C662 C666 1.393 . S
C663 H652 0.950 . S
C663 C661 1.391 . S
C663 C664 1.400 . S
C664 C658 1.491 . S
C664 C663 1.400 . S
C664 C665 1.398 . S
C665 H653 0.950 . S
C665 C664 1.398 . S
C665 C666 1.391 . S
C666 H654 0.950 . S
C666 C662 1.393 . S
C666 C665 1.391 . S
H667 C675 0.950 . S
H668 C680 0.950 . S
H669 C677 0.950 . S
H670 C679 0.950 . S
H671 C681 0.950 . S
H672 C683 0.950 . S
H673 C685 0.950 . S
H674 C686 0.950 . S
C675 H667 0.950 . S
C675 C676 1.386 . S
C675 C677 1.391 . S
C676 C675 1.386 . S
C676 C680 1.393 . S
C677 H669 0.950 . S
C677 C675 1.391 . S
C677 C678 1.400 . S
C678 C677 1.400 . S
C678 C679 1.398 . S
C678 C684 1.491 1_545 S
C679 H670 0.950 . S
C679 C678 1.398 . S
C679 C680 1.391 . S
C680 H668 0.950 . S
C680 C676 1.393 . S
C680 C679 1.391 . S
C681 H671 0.950 . S
C681 C682 1.386 . S
C681 C683 1.391 . S
C682 C681 1.386 . S
C682 C686 1.393 . S
C683 H672 0.950 . S
C683 C681 1.391 . S
C683 C684 1.400 . S
C684 C678 1.491 1_565 S
C684 C683 1.400 . S
C684 C685 1.398 . S
C685 H673 0.950 . S
C685 C684 1.398 . S
C685 C686 1.391 . S
C686 H674 0.950 . S
C686 C682 1.393 . S
C686 C685 1.391 . S
H687 C695 0.950 . S
H688 C700 0.950 . S
H689 C697 0.950 . S
H690 C699 0.950 . S
H691 C701 0.950 . S
H692 C703 0.950 . S
H693 C705 0.950 . S
H694 C706 0.950 . S
C695 H687 0.950 . S
C695 C696 1.386 . S
C695 C697 1.391 . S
C696 C695 1.386 . S
C696 C700 1.393 . S
C697 H689 0.950 . S
C697 C695 1.391 . S
C697 C698 1.400 . S
C698 C697 1.400 . S
C698 C699 1.398 . S
C698 C704 1.491 . S
C699 H690 0.950 . S
C699 C698 1.398 . S
C699 C700 1.391 . S
C700 H688 0.950 . S
C700 C696 1.393 . S
C700 C699 1.391 . S
C701 H691 0.950 . S
C701 C702 1.386 . S
C701 C703 1.391 . S
C702 C701 1.386 . S
C702 C706 1.393 . S
C703 H692 0.950 . S
C703 C701 1.391 . S
C703 C704 1.400 . S
C704 C698 1.491 . S
C704 C703 1.400 . S
C704 C705 1.398 . S
C705 H693 0.950 . S
C705 C704 1.398 . S
C705 C706 1.391 . S
C706 H694 0.950 . S
C706 C702 1.393 . S
C706 C705 1.391 . S
H707 C715 0.950 . S
H708 C720 0.950 . S
H709 C717 0.950 . S
H710 C719 0.950 . S
H711 C721 0.950 . S
H712 C723 0.950 . S
H713 C725 0.950 . S
H714 C726 0.950 . S
C715 H707 0.950 . S
C715 C716 1.386 . S
C715 C717 1.391 . S
C716 C715 1.386 . S
C716 C720 1.393 . S
C717 H709 0.950 . S
C717 C715 1.391 . S
C717 C718 1.400 . S
C718 C717 1.400 . S
C718 C719 1.398 . S
C718 C724 1.491 . S
C719 H710 0.950 . S
C719 C718 1.398 . S
C719 C720 1.391 . S
C720 H708 0.950 . S
C720 C716 1.393 . S
C720 C719 1.391 . S
C721 H711 0.950 . S
C721 C722 1.386 . S
C721 C723 1.391 . S
C722 C721 1.386 . S
C722 C726 1.393 . S
C723 H712 0.950 . S
C723 C721 1.391 . S
C723 C724 1.400 . S
C724 C718 1.491 . S
C724 C723 1.400 . S
C724 C725 1.398 . S
C725 H713 0.950 . S
C725 C724 1.398 . S
C725 C726 1.391 . S
C726 H714 0.950 . S
C726 C722 1.393 . S
C726 C725 1.391 . S
H727 C735 0.950 . S
H728 C740 0.950 . S
H729 C737 0.950 . S
H730 C739 0.950 . S
H731 C741 0.950 . S
H732 C743 0.950 . S
H733 C745 0.950 . S
H734 C746 0.950 . S
C735 H727 0.950 . S
C735 C736 1.386 . S
C735 C737 1.391 . S
C736 C735 1.386 . S
C736 C740 1.393 . S
C737 H729 0.950 . S
C737 C735 1.391 . S
C737 C738 1.400 . S
C738 C737 1.400 . S
C738 C739 1.398 . S
C738 C744 1.491 . S
C739 H730 0.950 . S
C739 C738 1.398 . S
C739 C740 1.391 . S
C740 H728 0.950 . S
C740 C736 1.393 . S
C740 C739 1.391 . S
C741 H731 0.950 . S
C741 C742 1.386 . S
C741 C743 1.391 . S
C742 C741 1.386 . S
C742 C746 1.393 . S
C743 H732 0.950 . S
C743 C741 1.391 . S
C743 C744 1.400 . S
C744 C738 1.491 . S
C744 C743 1.400 . S
C744 C745 1.398 . S
C745 H733 0.950 . S
C745 C744 1.398 . S
C745 C746 1.391 . S
C746 H734 0.950 . S
C746 C742 1.393 . S
C746 C745 1.391 . S
H747 C755 0.950 . S
H748 C760 0.950 . S
H749 C757 0.950 . S
H750 C759 0.950 . S
H751 C761 0.950 . S
H752 C763 0.950 . S
H753 C765 0.950 . S
H754 C766 0.950 . S
C755 H747 0.950 . S
C755 C756 1.386 . S
C755 C757 1.391 . S
C756 C755 1.386 . S
C756 C760 1.393 . S
C757 H749 0.950 . S
C757 C755 1.391 . S
C757 C758 1.400 . S
C758 C757 1.400 . S
C758 C759 1.398 . S
C758 C764 1.491 . S
C759 H750 0.950 . S
C759 C758 1.398 . S
C759 C760 1.391 . S
C760 H748 0.950 . S
C760 C756 1.393 . S
C760 C759 1.391 . S
C761 H751 0.950 . S
C761 C762 1.386 . S
C761 C763 1.391 . S
C762 C761 1.386 . S
C762 C766 1.393 . S
C763 H752 0.950 . S
C763 C761 1.391 . S
C763 C764 1.400 . S
C764 C758 1.491 . S
C764 C763 1.400 . S
C764 C765 1.398 . S
C765 H753 0.950 . S
C765 C764 1.398 . S
C765 C766 1.391 . S
C766 H754 0.950 . S
C766 C762 1.393 . S
C766 C765 1.391 . S
H767 C775 0.950 . S
H768 C780 0.950 . S
H769 C777 0.950 . S
H770 C779 0.950 . S
H771 C781 0.950 . S
H772 C783 0.950 . S
H773 C785 0.950 . S
H774 C786 0.950 . S
C775 H767 0.950 . S
C775 C776 1.386 . S
C775 C777 1.391 . S
C776 C775 1.386 . S
C776 C780 1.393 . S
C777 H769 0.950 . S
C777 C775 1.391 . S
C777 C778 1.400 . S
C778 C777 1.400 . S
C778 C779 1.398 . S
C778 C784 1.491 . S
C779 H770 0.950 . S
C779 C778 1.398 . S
C779 C780 1.391 . S
C780 H768 0.950 . S
C780 C776 1.393 . S
C780 C779 1.391 . S
C781 H771 0.950 . S
C781 C782 1.386 . S
C781 C783 1.391 . S
C782 C781 1.386 . S
C782 C786 1.393 . S
C783 H772 0.950 . S
C783 C781 1.391 . S
C783 C784 1.400 . S
C784 C778 1.491 . S
C784 C783 1.400 . S
C784 C785 1.398 . S
C785 H773 0.950 . S
C785 C784 1.398 . S
C785 C786 1.391 . S
C786 H774 0.950 . S
C786 C782 1.393 . S
C786 C785 1.391 . S
H787 C795 0.950 . S
H788 C800 0.950 . S
H789 C797 0.950 . S
H790 C799 0.950 . S
H791 C801 0.950 . S
H792 C803 0.950 . S
H793 C805 0.950 . S
H794 C806 0.950 . S
C795 H787 0.950 . S
C795 C796 1.386 . S
C795 C797 1.391 . S
C796 C795 1.386 . S
C796 C800 1.393 . S
C797 H789 0.950 . S
C797 C795 1.391 . S
C797 C798 1.400 . S
C798 C797 1.400 . S
C798 C799 1.398 . S
C798 C804 1.491 . S
C799 H790 0.950 . S
C799 C798 1.398 . S
C799 C800 1.391 . S
C800 H788 0.950 . S
C800 C796 1.393 . S
C800 C799 1.391 . S
C801 H791 0.950 . S
C801 C802 1.386 . S
C801 C803 1.391 . S
C802 C801 1.386 . S
C802 C806 1.393 . S
C803 H792 0.950 . S
C803 C801 1.391 . S
C803 C804 1.400 . S
C804 C798 1.491 . S
C804 C803 1.400 . S
C804 C805 1.398 . S
C805 H793 0.950 . S
C805 C804 1.398 . S
C805 C806 1.391 . S
C806 H794 0.950 . S
C806 C802 1.393 . S
C806 C805 1.391 . S
H807 C815 0.950 . S
H808 C820 0.950 . S
H809 C817 0.950 . S
H810 C819 0.950 . S
H811 C821 0.950 . S
H812 C823 0.950 . S
H813 C825 0.950 . S
H814 C826 0.950 . S
C815 H807 0.950 . S
C815 C816 1.386 . S
C815 C817 1.391 1_545 S
C816 C815 1.386 . S
C816 C820 1.393 . S
C817 H809 0.950 . S
C817 C815 1.391 1_565 S
C817 C818 1.400 . S
C818 C817 1.400 . S
C818 C819 1.398 . S
C818 C824 1.491 . S
C819 H810 0.950 . S
C819 C818 1.398 . S
C819 C820 1.391 1_565 S
C820 H808 0.950 . S
C820 C816 1.393 . S
C820 C819 1.391 1_545 S
C821 H811 0.950 . S
C821 C822 1.386 . S
C821 C823 1.391 . S
C822 C821 1.386 . S
C822 C826 1.393 . S
C823 H812 0.950 . S
C823 C821 1.391 . S
C823 C824 1.400 . S
C824 C818 1.491 . S
C824 C823 1.400 . S
C824 C825 1.398 . S
C825 H813 0.950 . S
C825 C824 1.398 . S
C825 C826 1.391 . S
C826 H814 0.950 . S
C826 C822 1.393 . S
C826 C825 1.391 . S
H827 C835 0.950 . S
H828 C840 0.950 . S
H829 C837 0.950 . S
H830 C839 0.950 . S
H831 C841 0.950 . S
H832 C843 0.950 . S
H833 C845 0.950 . S
H834 C846 0.950 . S
C835 H827 0.950 . S
C835 C836 1.386 . S
C835 C837 1.391 1_655 S
C836 C835 1.386 . S
C836 C840 1.393 . S
C837 H829 0.950 . S
C837 C835 1.391 1_455 S
C837 C838 1.400 . S
C838 C837 1.400 . S
C838 C839 1.398 . S
C838 C844 1.491 . S
C839 H830 0.950 . S
C839 C838 1.398 . S
C839 C840 1.391 1_455 S
C840 H828 0.950 . S
C840 C836 1.393 . S
C840 C839 1.391 1_655 S
C841 H831 0.950 . S
C841 C842 1.386 . S
C841 C843 1.391 . S
C842 C841 1.386 . S
C842 C846 1.393 . S
C843 H832 0.950 . S
C843 C841 1.391 . S
C843 C844 1.400 . S
C844 C838 1.491 . S
C844 C843 1.400 . S
C844 C845 1.398 . S
C845 H833 0.950 . S
C845 C844 1.398 . S
C845 C846 1.391 . S
C846 H834 0.950 . S
C846 C842 1.393 . S
C846 C845 1.391 . S
H847 C855 0.950 . S
H848 C860 0.950 . S
H849 C857 0.950 . S
H850 C859 0.950 . S
H851 C861 0.950 . S
H852 C863 0.950 . S
H853 C865 0.950 . S
H854 C866 0.950 . S
C855 H847 0.950 . S
C855 C856 1.386 . S
C855 C857 1.391 . S
C856 C855 1.386 . S
C856 C860 1.393 . S
C857 H849 0.950 . S
C857 C855 1.391 . S
C857 C858 1.400 . S
C858 C857 1.400 . S
C858 C859 1.398 . S
C858 C864 1.491 . S
C859 H850 0.950 . S
C859 C858 1.398 . S
C859 C860 1.391 . S
C860 H848 0.950 . S
C860 C856 1.393 . S
C860 C859 1.391 . S
C861 H851 0.950 . S
C861 C862 1.386 . S
C861 C863 1.391 . S
C862 C861 1.386 . S
C862 C866 1.393 . S
C863 H852 0.950 . S
C863 C861 1.391 . S
C863 C864 1.400 . S
C864 C858 1.491 . S
C864 C863 1.400 . S
C864 C865 1.398 . S
C865 H853 0.950 . S
C865 C864 1.398 . S
C865 C866 1.391 . S
C866 H854 0.950 . S
C866 C862 1.393 . S
C866 C865 1.391 . S
H867 C875 0.950 . S
H868 C880 0.950 . S
H869 C877 0.950 . S
H870 C879 0.950 . S
H871 C881 0.950 . S
H872 C883 0.950 . S
H873 C885 0.950 . S
H874 C886 0.950 . S
C875 H867 0.950 . S
C875 C876 1.386 . S
C875 C877 1.391 . S
C876 C875 1.386 . S
C876 C880 1.393 . S
C877 H869 0.950 . S
C877 C875 1.391 . S
C877 C878 1.400 . S
C878 C877 1.400 . S
C878 C879 1.398 . S
C878 C884 1.491 . S
C879 H870 0.950 . S
C879 C878 1.398 . S
C879 C880 1.391 . S
C880 H868 0.950 . S
C880 C876 1.393 . S
C880 C879 1.391 . S
C881 H871 0.950 . S
C881 C882 1.386 . S
C881 C883 1.391 . S
C882 C881 1.386 . S
C882 C886 1.393 . S
C883 H872 0.950 . S
C883 C881 1.391 . S
C883 C884 1.400 . S
C884 C878 1.491 . S
C884 C883 1.400 . S
C884 C885 1.398 . S
C885 H873 0.950 . S
C885 C884 1.398 . S
C885 C886 1.391 . S
C886 H874 0.950 . S
C886 C882 1.393 . S
C886 C885 1.391 . S
H887 C895 0.950 . S
H888 C900 0.950 . S
H889 C897 0.950 . S
H890 C899 0.950 . S
H891 C901 0.950 . S
H892 C903 0.950 . S
H893 C905 0.950 . S
H894 C906 0.950 . S
C895 H887 0.950 . S
C895 C896 1.386 . S
C895 C897 1.391 . S
C896 C895 1.386 . S
C896 C900 1.393 . S
C897 H889 0.950 . S
C897 C895 1.391 . S
C897 C898 1.400 . S
C898 C897 1.400 . S
C898 C899 1.398 . S
C898 C904 1.491 . S
C899 H890 0.950 . S
C899 C898 1.398 . S
C899 C900 1.391 . S
C900 H888 0.950 . S
C900 C896 1.393 . S
C900 C899 1.391 . S
C901 H891 0.950 . S
C901 C902 1.386 . S
C901 C903 1.391 . S
C902 C901 1.386 . S
C902 C906 1.393 . S
C903 H892 0.950 . S
C903 C901 1.391 . S
C903 C904 1.400 . S
C904 C898 1.491 . S
C904 C903 1.400 . S
C904 C905 1.398 . S
C905 H893 0.950 . S
C905 C904 1.398 . S
C905 C906 1.391 . S
C906 H894 0.950 . S
C906 C902 1.393 . S
C906 C905 1.391 . S
H907 C915 0.950 . S
H908 C920 0.950 . S
H909 C917 0.950 . S
H910 C919 0.950 . S
H911 C921 0.950 . S
H912 C923 0.950 . S
H913 C925 0.950 . S
H914 C926 0.950 . S
C915 H907 0.950 . S
C915 C916 1.386 . S
C915 C917 1.391 . S
C916 C915 1.386 . S
C916 C920 1.393 . S
C917 H909 0.950 . S
C917 C915 1.391 . S
C917 C918 1.400 . S
C918 C917 1.400 . S
C918 C919 1.398 . S
C918 C924 1.491 . S
C919 H910 0.950 . S
C919 C918 1.398 . S
C919 C920 1.391 . S
C920 H908 0.950 . S
C920 C916 1.393 . S
C920 C919 1.391 . S
C921 H911 0.950 . S
C921 C922 1.386 . S
C921 C923 1.391 . S
C922 C921 1.386 . S
C922 C926 1.393 . S
C923 H912 0.950 . S
C923 C921 1.391 . S
C923 C924 1.400 . S
C924 C918 1.491 . S
C924 C923 1.400 . S
C924 C925 1.398 . S
C925 H913 0.950 . S
C925 C924 1.398 . S
C925 C926 1.391 . S
C926 H914 0.950 . S
C926 C922 1.393 . S
C926 C925 1.391 . S
H927 C935 0.950 . S
H928 C940 0.950 . S
H929 C937 0.950 . S
H930 C939 0.950 . S
H931 C941 0.950 . S
H932 C943 0.950 . S
H933 C945 0.950 . S
H934 C946 0.950 . S
C935 H927 0.950 . S
C935 C936 1.386 . S
C935 C937 1.391 . S
C936 C935 1.386 . S
C936 C940 1.393 . S
C937 H929 0.950 . S
C937 C935 1.391 . S
C937 C938 1.400 . S
C938 C937 1.400 . S
C938 C939 1.398 . S
C938 C944 1.491 1_565 S
C939 H930 0.950 . S
C939 C938 1.398 . S
C939 C940 1.391 . S
C940 H928 0.950 . S
C940 C936 1.393 . S
C940 C939 1.391 . S
C941 H931 0.950 . S
C941 C942 1.386 . S
C941 C943 1.391 . S
C942 C941 1.386 . S
C942 C946 1.393 . S
C943 H932 0.950 . S
C943 C941 1.391 . S
C943 C944 1.400 . S
C944 C938 1.491 1_545 S
C944 C943 1.400 . S
C944 C945 1.398 . S
C945 H933 0.950 . S
C945 C944 1.398 . S
C945 C946 1.391 . S
C946 H934 0.950 . S
C946 C942 1.393 . S
C946 C945 1.391 . S
H947 C955 0.950 . S
H948 C960 0.950 . S
H949 C957 0.950 . S
H950 C959 0.950 . S
H951 C961 0.950 . S
H952 C963 0.950 . S
H953 C965 0.950 . S
H954 C966 0.950 . S
C955 H947 0.950 . S
C955 C956 1.386 . S
C955 C957 1.391 . S
C956 C955 1.386 . S
C956 C960 1.393 . S
C957 H949 0.950 . S
C957 C955 1.391 . S
C957 C958 1.400 . S
C958 C957 1.400 . S
C958 C959 1.398 . S
C958 C964 1.491 1_455 S
C959 H950 0.950 . S
C959 C958 1.398 . S
C959 C960 1.391 . S
C960 H948 0.950 . S
C960 C956 1.393 . S
C960 C959 1.391 . S
C961 H951 0.950 . S
C961 C962 1.386 . S
C961 C963 1.391 . S
C962 C961 1.386 . S
C962 C966 1.393 . S
C963 H952 0.950 . S
C963 C961 1.391 . S
C963 C964 1.400 . S
C964 C958 1.491 1_655 S
C964 C963 1.400 . S
C964 C965 1.398 . S
C965 H953 0.950 . S
C965 C964 1.398 . S
C965 C966 1.391 . S
C966 H954 0.950 . S
C966 C962 1.393 . S
C966 C965 1.391 . S
H967 C975 0.950 . S
H968 C980 0.950 . S
H969 C977 0.950 . S
H970 C979 0.950 . S
H971 C981 0.950 . S
H972 C983 0.950 . S
H973 C985 0.950 . S
H974 C986 0.950 . S
C975 H967 0.950 . S
C975 C976 1.386 . S
C975 C977 1.391 . S
C976 C975 1.386 . S
C976 C980 1.393 . S
C977 H969 0.950 . S
C977 C975 1.391 . S
C977 C978 1.400 . S
C978 C977 1.400 . S
C978 C979 1.398 . S
C978 C984 1.491 . S
C979 H970 0.950 . S
C979 C978 1.398 . S
C979 C980 1.391 . S
C980 H968 0.950 . S
C980 C976 1.393 . S
C980 C979 1.391 . S
C981 H971 0.950 . S
C981 C982 1.386 . S
C981 C983 1.391 . S
C982 C981 1.386 . S
C982 C986 1.393 . S
C983 H972 0.950 . S
C983 C981 1.391 . S
C983 C984 1.400 . S
C984 C978 1.491 . S
C984 C983 1.400 . S
C984 C985 1.398 . S
C985 H973 0.950 . S
C985 C984 1.398 . S
C985 C986 1.391 . S
C986 H974 0.950 . S
C986 C982 1.393 . S
C986 C985 1.391 . S
H987 C995 0.950 . S
H988 C1000 0.950 . S
H989 C997 0.950 1_655 S
H990 C999 0.946 . S
H991 C1001 0.950 . S
H992 C1003 0.950 . S
H993 C1005 0.950 . S
H994 C1006 0.950 . S
C995 H987 0.950 . S
C995 C996 1.386 . S
C995 C997 1.391 . S
C996 C995 1.386 . S
C996 C1000 1.393 . S
C997 H989 0.950 1_455 S
C997 C995 1.391 . S
C997 C998 1.400 1_455 S
C998 C997 1.400 1_655 S
C998 C999 1.398 1_655 S
C998 C1004 1.491 . S
C999 H990 0.946 . S
C999 C998 1.398 1_455 S
C999 C1000 1.391 . S
C1000 H988 0.950 . S
C1000 C996 1.393 . S
C1000 C999 1.391 . S
C1001 H991 0.950 . S
C1001 C1002 1.386 . S
C1001 C1003 1.391 . S
C1002 C1001 1.386 . S
C1002 C1006 1.393 . S
C1003 H992 0.950 . S
C1003 C1001 1.391 . S
C1003 C1004 1.400 . S
C1004 C998 1.491 . S
C1004 C1003 1.400 . S
C1004 C1005 1.398 . S
C1005 H993 0.950 . S
C1005 C1004 1.398 . S
C1005 C1006 1.391 . S
C1006 H994 0.950 . S
C1006 C1002 1.393 . S
C1006 C1005 1.391 . S
H1007 C1015 0.950 . S
H1008 C1020 0.950 . S
H1009 C1017 0.950 . S
H1010 C1019 0.950 . S
H1011 C1021 0.950 . S
H1012 C1023 0.950 . S
H1013 C1025 0.950 . S
H1014 C1026 0.950 . S
C1015 H1007 0.950 . S
C1015 C1016 1.386 . S
C1015 C1017 1.391 . S
C1016 C1015 1.386 . S
C1016 C1020 1.393 . S
C1017 H1009 0.950 . S
C1017 C1015 1.391 . S
C1017 C1018 1.400 . S
C1018 C1017 1.400 . S
C1018 C1019 1.398 . S
C1018 C1024 1.491 . S
C1019 H1010 0.950 . S
C1019 C1018 1.398 . S
C1019 C1020 1.391 . S
C1020 H1008 0.950 . S
C1020 C1016 1.393 . S
C1020 C1019 1.391 . S
C1021 H1011 0.950 . S
C1021 C1022 1.386 . S
C1021 C1023 1.391 . S
C1022 C1021 1.386 . S
C1022 C1026 1.393 . S
C1023 H1012 0.950 . S
C1023 C1021 1.391 . S
C1023 C1024 1.400 . S
C1024 C1018 1.491 . S
C1024 C1023 1.400 . S
C1024 C1025 1.398 . S
C1025 H1013 0.950 . S
C1025 C1024 1.398 . S
C1025 C1026 1.391 . S
C1026 H1014 0.950 . S
C1026 C1022 1.393 . S
C1026 C1025 1.391 . S
H1027 C1035 0.950 . S
H1028 C1040 0.950 . S
H1029 C1037 0.950 . S
H1030 C1039 0.950 . S
H1031 C1041 0.950 . S
H1032 C1043 0.950 . S
H1033 C1045 0.950 . S
H1034 C1046 0.950 . S
C1035 H1027 0.950 . S
C1035 C1036 1.386 . S
C1035 C1037 1.391 1_565 S
C1036 C1035 1.386 . S
C1036 C1040 1.393 . S
C1037 H1029 0.950 . S
C1037 C1035 1.391 1_545 S
C1037 C1038 1.400 . S
C1038 C1037 1.400 . S
C1038 C1039 1.398 . S
C1038 C1044 1.491 . S
C1039 H1030 0.950 . S
C1039 C1038 1.398 . S
C1039 C1040 1.391 1_545 S
C1040 H1028 0.950 . S
C1040 C1036 1.393 . S
C1040 C1039 1.391 1_565 S
C1041 H1031 0.950 . S
C1041 C1042 1.386 . S
C1041 C1043 1.391 . S
C1042 C1041 1.386 . S
C1042 C1046 1.393 . S
C1043 H1032 0.950 . S
C1043 C1041 1.391 . S
C1043 C1044 1.400 . S
C1044 C1038 1.491 . S
C1044 C1043 1.400 . S
C1044 C1045 1.398 . S
C1045 H1033 0.950 . S
C1045 C1044 1.398 . S
C1045 C1046 1.391 . S
C1046 H1034 0.950 . S
C1046 C1042 1.393 . S
C1046 C1045 1.391 . S
H1047 C1055 0.950 . S
H1048 C1060 0.950 . S
H1049 C1057 0.950 . S
H1050 C1059 0.950 . S
H1051 C1061 0.950 . S
H1052 C1063 0.950 . S
H1053 C1065 0.950 . S
H1054 C1066 0.950 . S
C1055 H1047 0.950 . S
C1055 C1056 1.386 . S
C1055 C1057 1.391 . S
C1056 C1055 1.386 . S
C1056 C1060 1.393 . S
C1057 H1049 0.950 . S
C1057 C1055 1.391 . S
C1057 C1058 1.400 . S
C1058 C1057 1.400 . S
C1058 C1059 1.398 . S
C1058 C1064 1.491 . S
C1059 H1050 0.950 . S
C1059 C1058 1.398 . S
C1059 C1060 1.391 . S
C1060 H1048 0.950 . S
C1060 C1056 1.393 . S
C1060 C1059 1.391 . S
C1061 H1051 0.950 . S
C1061 C1062 1.386 . S
C1061 C1063 1.391 . S
C1062 C1061 1.386 . S
C1062 C1066 1.393 . S
C1063 H1052 0.950 . S
C1063 C1061 1.391 . S
C1063 C1064 1.400 . S
C1064 C1058 1.491 . S
C1064 C1063 1.400 . S
C1064 C1065 1.398 . S
C1065 H1053 0.950 . S
C1065 C1064 1.398 . S
C1065 C1066 1.391 . S
C1066 H1054 0.950 . S
C1066 C1062 1.393 . S
C1066 C1065 1.391 . S
H1067 C1075 0.950 . S
H1068 C1080 0.950 . S
H1069 C1077 0.950 . S
H1070 C1079 0.950 . S
H1071 C1081 0.950 . S
H1072 C1083 0.950 . S
H1073 C1085 0.950 . S
H1074 C1086 0.950 . S
C1075 H1067 0.950 . S
C1075 C1076 1.386 . S
C1075 C1077 1.391 . S
C1076 C1075 1.386 . S
C1076 C1080 1.393 . S
C1077 H1069 0.950 . S
C1077 C1075 1.391 . S
C1077 C1078 1.400 . S
C1078 C1077 1.400 . S
C1078 C1079 1.398 . S
C1078 C1084 1.491 . S
C1079 H1070 0.950 . S
C1079 C1078 1.398 . S
C1079 C1080 1.391 . S
C1080 H1068 0.950 . S
C1080 C1076 1.393 . S
C1080 C1079 1.391 . S
C1081 H1071 0.950 . S
C1081 C1082 1.386 . S
C1081 C1083 1.391 . S
C1082 C1081 1.386 . S
C1082 C1086 1.393 . S
C1083 H1072 0.950 . S
C1083 C1081 1.391 . S
C1083 C1084 1.400 . S
C1084 C1078 1.491 . S
C1084 C1083 1.400 . S
C1084 C1085 1.398 . S
C1085 H1073 0.950 . S
C1085 C1084 1.398 . S
C1085 C1086 1.391 . S
C1086 H1074 0.950 . S
C1086 C1082 1.393 . S
C1086 C1085 1.391 . S
H1087 C1095 0.950 . S
H1088 C1100 0.950 . S
H1089 C1097 0.950 . S
H1090 C1099 0.950 . S
H1091 C1101 0.950 . S
H1092 C1103 0.950 . S
H1093 C1105 0.950 . S
H1094 C1106 0.950 . S
C1095 H1087 0.950 . S
C1095 C1096 1.386 . S
C1095 C1097 1.391 . S
C1096 C1095 1.386 . S
C1096 C1100 1.393 . S
C1097 H1089 0.950 . S
C1097 C1095 1.391 . S
C1097 C1098 1.400 . S
C1098 C1097 1.400 . S
C1098 C1099 1.398 . S
C1098 C1104 1.491 . S
C1099 H1090 0.950 . S
C1099 C1098 1.398 . S
C1099 C1100 1.391 . S
C1100 H1088 0.950 . S
C1100 C1096 1.393 . S
C1100 C1099 1.391 . S
C1101 H1091 0.950 . S
C1101 C1102 1.386 . S
C1101 C1103 1.391 . S
C1102 C1101 1.386 . S
C1102 C1106 1.393 . S
C1103 H1092 0.950 . S
C1103 C1101 1.391 . S
C1103 C1104 1.400 . S
C1104 C1098 1.491 . S
C1104 C1103 1.400 . S
C1104 C1105 1.398 . S
C1105 H1093 0.950 . S
C1105 C1104 1.398 . S
C1105 C1106 1.391 . S
C1106 H1094 0.950 . S
C1106 C1102 1.393 . S
C1106 C1105 1.391 . S
H1107 C1115 0.950 . S
H1108 C1120 0.950 . S
H1109 C1117 0.950 . S
H1110 C1119 0.950 . S
H1111 C1121 0.950 . S
H1112 C1123 0.950 . S
H1113 C1125 0.950 1_545 S
H1114 C1126 0.950 . S
C1115 H1107 0.950 . S
C1115 C1116 1.386 . S
C1115 C1117 1.391 . S
C1116 C1115 1.386 . S
C1116 C1120 1.393 . S
C1117 H1109 0.950 . S
C1117 C1115 1.391 . S
C1117 C1118 1.400 . S
C1118 C1117 1.400 . S
C1118 C1119 1.398 . S
C1118 C1124 1.491 . S
C1119 H1110 0.950 . S
C1119 C1118 1.398 . S
C1119 C1120 1.391 . S
C1120 H1108 0.950 . S
C1120 C1116 1.393 . S
C1120 C1119 1.391 . S
C1121 H1111 0.950 . S
C1121 C1122 1.386 . S
C1121 C1123 1.391 . S
C1122 C1121 1.386 . S
C1122 C1126 1.393 1_565 S
C1123 H1112 0.950 . S
C1123 C1121 1.391 . S
C1123 C1124 1.400 . S
C1124 C1118 1.491 . S
C1124 C1123 1.400 . S
C1124 C1125 1.398 . S
C1125 H1113 0.950 1_565 S
C1125 C1124 1.398 . S
C1125 C1126 1.391 1_565 S
C1126 H1114 0.950 . S
C1126 C1122 1.393 1_545 S
C1126 C1125 1.391 1_545 S
H1127 C1135 0.950 . S
H1128 C1140 0.950 . S
H1129 C1137 0.950 . S
H1130 C1139 0.950 . S
H1131 C1141 0.950 . S
H1132 C1143 0.950 . S
H1133 C1145 0.950 . S
H1134 C1146 0.950 . S
C1135 H1127 0.950 . S
C1135 C1136 1.386 . S
C1135 C1137 1.391 . S
C1136 C1135 1.386 . S
C1136 C1140 1.393 . S
C1137 H1129 0.950 . S
C1137 C1135 1.391 . S
C1137 C1138 1.400 . S
C1138 C1137 1.400 . S
C1138 C1139 1.398 . S
C1138 C1144 1.491 . S
C1139 H1130 0.950 . S
C1139 C1138 1.398 . S
C1139 C1140 1.391 . S
C1140 H1128 0.950 . S
C1140 C1136 1.393 . S
C1140 C1139 1.391 . S
C1141 H1131 0.950 . S
C1141 C1142 1.386 . S
C1141 C1143 1.391 . S
C1142 C1141 1.386 . S
C1142 C1146 1.393 . S
C1143 H1132 0.950 . S
C1143 C1141 1.391 . S
C1143 C1144 1.400 . S
C1144 C1138 1.491 . S
C1144 C1143 1.400 . S
C1144 C1145 1.398 . S
C1145 H1133 0.950 . S
C1145 C1144 1.398 . S
C1145 C1146 1.391 . S
C1146 H1134 0.950 . S
C1146 C1142 1.393 . S
C1146 C1145 1.391 . S
H1147 C1155 0.950 . S
H1148 C1160 0.950 . S
H1149 C1157 0.950 . S
H1150 C1159 0.950 . S
H1151 C1161 0.950 . S
H1152 C1163 0.950 . S
H1153 C1165 0.950 . S
H1154 C1166 0.950 . S
C1155 H1147 0.950 . S
C1155 C1156 1.386 . S
C1155 C1157 1.391 . S
C1156 C1155 1.386 . S
C1156 C1160 1.393 . S
C1157 H1149 0.950 . S
C1157 C1155 1.391 . S
C1157 C1158 1.400 . S
C1158 C1157 1.400 . S
C1158 C1159 1.398 . S
C1158 C1164 1.491 . S
C1159 H1150 0.950 . S
C1159 C1158 1.398 . S
C1159 C1160 1.391 . S
C1160 H1148 0.950 . S
C1160 C1156 1.393 . S
C1160 C1159 1.391 . S
C1161 H1151 0.950 . S
C1161 C1162 1.386 . S
C1161 C1163 1.391 . S
C1162 C1161 1.386 . S
C1162 C1166 1.393 . S
C1163 H1152 0.950 . S
C1163 C1161 1.391 . S
C1163 C1164 1.400 . S
C1164 C1158 1.491 . S
C1164 C1163 1.400 . S
C1164 C1165 1.398 . S
C1165 H1153 0.950 . S
C1165 C1164 1.398 . S
C1165 C1166 1.391 . S
C1166 H1154 0.950 . S
C1166 C1162 1.393 . S
C1166 C1165 1.391 . S
H1167 C1175 0.950 . S
H1168 C1180 0.950 . S
H1169 C1177 0.950 . S
H1170 C1179 0.950 . S
H1171 C1181 0.950 1_455 S
H1172 C1183 0.951 . S
H1173 C1185 0.950 . S
H1174 C1186 0.950 . S
C1175 H1167 0.950 . S
C1175 C1176 1.386 . S
C1175 C1177 1.391 . S
C1176 C1175 1.386 . S
C1176 C1180 1.393 . S
C1177 H1169 0.950 . S
C1177 C1175 1.391 . S
C1177 C1178 1.400 . S
C1178 C1177 1.400 . S
C1178 C1179 1.398 . S
C1178 C1184 1.491 . S
C1179 H1170 0.950 . S
C1179 C1178 1.398 . S
C1179 C1180 1.391 . S
C1180 H1168 0.950 . S
C1180 C1176 1.393 . S
C1180 C1179 1.391 . S
C1181 H1171 0.950 1_655 S
C1181 C1182 1.386 . S
C1181 C1183 1.391 . S
C1182 C1181 1.386 . S
C1182 C1186 1.393 . S
C1183 H1172 0.951 . S
C1183 C1181 1.391 . S
C1183 C1184 1.400 . S
C1184 C1178 1.491 . S
C1184 C1183 1.400 . S
C1184 C1185 1.398 . S
C1185 H1173 0.950 . S
C1185 C1184 1.398 . S
C1185 C1186 1.391 . S
C1186 H1174 0.950 . S
C1186 C1182 1.393 . S
C1186 C1185 1.391 . S
H1187 C1195 0.950 . S
H1188 C1200 0.950 . S
H1189 C1197 0.950 . S
H1190 C1199 0.950 . S
H1191 C1201 0.950 . S
H1192 C1203 0.950 . S
H1193 C1205 0.950 . S
H1194 C1206 0.950 . S
C1195 H1187 0.950 . S
C1195 C1196 1.386 . S
C1195 C1197 1.391 . S
C1196 C1195 1.386 . S
C1196 C1200 1.393 . S
C1197 H1189 0.950 . S
C1197 C1195 1.391 . S
C1197 C1198 1.400 . S
C1198 C1197 1.400 . S
C1198 C1199 1.398 . S
C1198 C1204 1.491 . S
C1199 H1190 0.950 . S
C1199 C1198 1.398 . S
C1199 C1200 1.391 . S
C1200 H1188 0.950 . S
C1200 C1196 1.393 . S
C1200 C1199 1.391 . S
C1201 H1191 0.950 . S
C1201 C1202 1.386 . S
C1201 C1203 1.391 . S
C1202 C1201 1.386 . S
C1202 C1206 1.393 . S
C1203 H1192 0.950 . S
C1203 C1201 1.391 . S
C1203 C1204 1.400 . S
C1204 C1198 1.491 . S
C1204 C1203 1.400 . S
C1204 C1205 1.398 . S
C1205 H1193 0.950 . S
C1205 C1204 1.398 . S
C1205 C1206 1.391 . S
C1206 H1194 0.950 . S
C1206 C1202 1.393 . S
C1206 C1205 1.391 . S
H1207 C1215 0.950 . S
H1208 C1220 0.950 . S
H1209 C1217 0.950 . S
H1210 C1219 0.950 . S
H1211 C1221 0.950 . S
H1212 C1223 0.950 . S
H1213 C1225 0.950 . S
H1214 C1226 0.950 1_565 S
C1215 H1207 0.950 . S
C1215 C1216 1.386 . S
C1215 C1217 1.391 . S
C1216 C1215 1.386 . S
C1216 C1220 1.393 . S
C1217 H1209 0.950 . S
C1217 C1215 1.391 . S
C1217 C1218 1.400 . S
C1218 C1217 1.400 . S
C1218 C1219 1.398 . S
C1218 C1224 1.491 . S
C1219 H1210 0.950 . S
C1219 C1218 1.398 . S
C1219 C1220 1.391 . S
C1220 H1208 0.950 . S
C1220 C1216 1.393 . S
C1220 C1219 1.391 . S
C1221 H1211 0.950 . S
C1221 C1222 1.386 . S
C1221 C1223 1.391 . S
C1222 C1221 1.386 . S
C1222 C1226 1.393 . S
C1223 H1212 0.950 . S
C1223 C1221 1.391 . S
C1223 C1224 1.400 . S
C1224 C1218 1.491 . S
C1224 C1223 1.400 . S
C1224 C1225 1.398 . S
C1225 H1213 0.950 . S
C1225 C1224 1.398 . S
C1225 C1226 1.391 . S
C1226 H1214 0.950 1_545 S
C1226 C1222 1.393 . S
C1226 C1225 1.391 . S
H1227 C1235 0.950 . S
H1228 C1240 0.950 . S
H1229 C1237 0.950 . S
H1230 C1239 0.950 . S
H1231 C1241 0.950 . S
H1232 C1243 0.950 . S
H1233 C1245 0.950 . S
H1234 C1246 0.950 . S
C1235 H1227 0.950 . S
C1235 C1236 1.386 . S
C1235 C1237 1.391 . S
C1236 C1235 1.386 . S
C1236 C1240 1.393 . S
C1237 H1229 0.950 . S
C1237 C1235 1.391 . S
C1237 C1238 1.400 . S
C1238 C1237 1.400 . S
C1238 C1239 1.398 . S
C1238 C1244 1.491 . S
C1239 H1230 0.950 . S
C1239 C1238 1.398 . S
C1239 C1240 1.391 . S
C1240 H1228 0.950 . S
C1240 C1236 1.393 . S
C1240 C1239 1.391 . S
C1241 H1231 0.950 . S
C1241 C1242 1.386 . S
C1241 C1243 1.391 . S
C1242 C1241 1.386 . S
C1242 C1246 1.393 . S
C1243 H1232 0.950 . S
C1243 C1241 1.391 . S
C1243 C1244 1.400 . S
C1244 C1238 1.491 . S
C1244 C1243 1.400 . S
C1244 C1245 1.398 . S
C1245 H1233 0.950 . S
C1245 C1244 1.398 . S
C1245 C1246 1.391 . S
C1246 H1234 0.950 . S
C1246 C1242 1.393 . S
C1246 C1245 1.391 . S
H1247 C1255 0.950 . S
H1248 C1260 0.950 . S
H1249 C1257 0.950 . S
H1250 C1259 0.950 . S
H1251 C1261 0.950 . S
H1252 C1263 0.950 . S
H1253 C1265 0.950 . S
H1254 C1266 0.950 . S
C1255 H1247 0.950 . S
C1255 C1256 1.386 . S
C1255 C1257 1.391 . S
C1256 C1255 1.386 . S
C1256 C1260 1.393 . S
C1257 H1249 0.950 . S
C1257 C1255 1.391 . S
C1257 C1258 1.400 . S
C1258 C1257 1.400 . S
C1258 C1259 1.398 . S
C1258 C1264 1.491 . S
C1259 H1250 0.950 . S
C1259 C1258 1.398 . S
C1259 C1260 1.391 . S
C1260 H1248 0.950 . S
C1260 C1256 1.393 . S
C1260 C1259 1.391 . S
C1261 H1251 0.950 . S
C1261 C1262 1.386 . S
C1261 C1263 1.391 . S
C1262 C1261 1.386 . S
C1262 C1266 1.393 . S
C1263 H1252 0.950 . S
C1263 C1261 1.391 . S
C1263 C1264 1.400 . S
C1264 C1258 1.491 . S
C1264 C1263 1.400 . S
C1264 C1265 1.398 . S
C1265 H1253 0.950 . S
C1265 C1264 1.398 . S
C1265 C1266 1.391 . S
C1266 H1254 0.950 . S
C1266 C1262 1.393 . S
C1266 C1265 1.391 . S
H1267 C1275 0.950 . S
H1268 C1280 0.950 . S
H1269 C1277 0.950 . S
H1270 C1279 0.950 . S
H1271 C1281 0.950 . S
H1272 C1283 0.950 . S
H1273 C1285 0.950 . S
H1274 C1286 0.950 . S
C1275 H1267 0.950 . S
C1275 C1276 1.386 . S
C1275 C1277 1.391 . S
C1276 C1275 1.386 . S
C1276 C1280 1.393 . S
C1277 H1269 0.950 . S
C1277 C1275 1.391 . S
C1277 C1278 1.400 . S
C1278 C1277 1.400 . S
C1278 C1279 1.398 . S
C1278 C1284 1.491 . S
C1279 H1270 0.950 . S
C1279 C1278 1.398 . S
C1279 C1280 1.391 . S
C1280 H1268 0.950 . S
C1280 C1276 1.393 . S
C1280 C1279 1.391 . S
C1281 H1271 0.950 . S
C1281 C1282 1.386 . S
C1281 C1283 1.391 . S
C1282 C1281 1.386 . S
C1282 C1286 1.393 . S
C1283 H1272 0.950 . S
C1283 C1281 1.391 . S
C1283 C1284 1.400 . S
C1284 C1278 1.491 . S
C1284 C1283 1.400 . S
C1284 C1285 1.398 . S
C1285 H1273 0.950 . S
C1285 C1284 1.398 . S
C1285 C1286 1.391 . S
C1286 H1274 0.950 . S
C1286 C1282 1.393 . S
C1286 C1285 1.391 . S
H1287 C1295 0.950 . S
H1288 C1300 0.950 . S
H1289 C1297 0.950 . S
H1290 C1299 0.950 . S
H1291 C1301 0.950 . S
H1292 C1303 0.950 . S
H1293 C1305 0.950 . S
H1294 C1306 0.950 . S
C1295 H1287 0.950 . S
C1295 C1296 1.386 . S
C1295 C1297 1.391 . S
C1296 C1295 1.386 . S
C1296 C1300 1.393 . S
C1297 H1289 0.950 . S
C1297 C1295 1.391 . S
C1297 C1298 1.400 . S
C1298 C1297 1.400 . S
C1298 C1299 1.398 . S
C1298 C1304 1.491 . S
C1299 H1290 0.950 . S
C1299 C1298 1.398 . S
C1299 C1300 1.391 . S
C1300 H1288 0.950 . S
C1300 C1296 1.393 . S
C1300 C1299 1.391 . S
C1301 H1291 0.950 . S
C1301 C1302 1.386 . S
C1301 C1303 1.391 . S
C1302 C1301 1.386 . S
C1302 C1306 1.393 . S
C1303 H1292 0.950 . S
C1303 C1301 1.391 . S
C1303 C1304 1.400 . S
C1304 C1298 1.491 . S
C1304 C1303 1.400 . S
C1304 C1305 1.398 . S
C1305 H1293 0.950 . S
C1305 C1304 1.398 . S
C1305 C1306 1.391 . S
C1306 H1294 0.950 . S
C1306 C1302 1.393 . S
C1306 C1305 1.391 . S
H1307 C1315 0.950 . S
H1308 C1320 0.950 . S
H1309 C1317 0.950 . S
H1310 C1319 0.950 . S
H1311 C1321 0.950 . S
H1312 C1323 0.950 . S
H1313 C1325 0.950 . S
H1314 C1326 0.950 . S
C1315 H1307 0.950 . S
C1315 C1316 1.386 . S
C1315 C1317 1.391 . S
C1316 C1315 1.386 . S
C1316 C1320 1.393 . S
C1317 H1309 0.950 . S
C1317 C1315 1.391 . S
C1317 C1318 1.400 . S
C1318 C1317 1.400 . S
C1318 C1319 1.398 . S
C1318 C1324 1.491 . S
C1319 H1310 0.950 . S
C1319 C1318 1.398 . S
C1319 C1320 1.391 . S
C1320 H1308 0.950 . S
C1320 C1316 1.393 . S
C1320 C1319 1.391 . S
C1321 H1311 0.950 . S
C1321 C1322 1.386 . S
C1321 C1323 1.391 . S
C1322 C1321 1.386 . S
C1322 C1326 1.393 . S
C1323 H1312 0.950 . S
C1323 C1321 1.391 . S
C1323 C1324 1.400 . S
C1324 C1318 1.491 . S
C1324 C1323 1.400 . S
C1324 C1325 1.398 . S
C1325 H1313 0.950 . S
C1325 C1324 1.398 . S
C1325 C1326 1.391 . S
C1326 H1314 0.950 . S
C1326 C1322 1.393 . S
C1326 C1325 1.391 . S
H1327 C1335 0.950 . S
H1328 C1340 0.950 . S
H1329 C1337 0.950 . S
H1330 C1339 0.950 . S
H1331 C1341 0.950 . S
H1332 C1343 0.950 . S
H1333 C1345 0.950 . S
H1334 C1346 0.950 . S
C1335 H1327 0.950 . S
C1335 C1336 1.386 . S
C1335 C1337 1.391 . S
C1336 C1335 1.386 . S
C1336 C1340 1.393 . S
C1337 H1329 0.950 . S
C1337 C1335 1.391 . S
C1337 C1338 1.400 . S
C1338 C1337 1.400 . S
C1338 C1339 1.398 . S
C1338 C1344 1.491 . S
C1339 H1330 0.950 . S
C1339 C1338 1.398 . S
C1339 C1340 1.391 . S
C1340 H1328 0.950 . S
C1340 C1336 1.393 . S
C1340 C1339 1.391 . S
C1341 H1331 0.950 . S
C1341 C1342 1.386 . S
C1341 C1343 1.391 . S
C1342 C1341 1.386 . S
C1342 C1346 1.393 . S
C1343 H1332 0.950 . S
C1343 C1341 1.391 . S
C1343 C1344 1.400 . S
C1344 C1338 1.491 . S
C1344 C1343 1.400 . S
C1344 C1345 1.398 . S
C1345 H1333 0.950 . S
C1345 C1344 1.398 . S
C1345 C1346 1.391 . S
C1346 H1334 0.950 . S
C1346 C1342 1.393 . S
C1346 C1345 1.391 . S
H1347 C1355 0.950 . S
H1348 C1360 0.950 . S
H1349 C1357 0.950 . S
H1350 C1359 0.950 . S
H1351 C1361 0.950 . S
H1352 C1363 0.950 . S
H1353 C1365 0.950 . S
H1354 C1366 0.950 . S
C1355 H1347 0.950 . S
C1355 C1356 1.386 . S
C1355 C1357 1.391 . S
C1356 C1355 1.386 . S
C1356 C1360 1.393 . S
C1357 H1349 0.950 . S
C1357 C1355 1.391 . S
C1357 C1358 1.400 . S
C1358 C1357 1.400 . S
C1358 C1359 1.398 . S
C1358 C1364 1.491 . S
C1359 H1350 0.950 . S
C1359 C1358 1.398 . S
C1359 C1360 1.391 . S
C1360 H1348 0.950 . S
C1360 C1356 1.393 . S
C1360 C1359 1.391 . S
C1361 H1351 0.950 . S
C1361 C1362 1.386 . S
C1361 C1363 1.391 . S
C1362 C1361 1.386 . S
C1362 C1366 1.393 . S
C1363 H1352 0.950 . S
C1363 C1361 1.391 . S
C1363 C1364 1.400 . S
C1364 C1358 1.491 . S
C1364 C1363 1.400 . S
C1364 C1365 1.398 . S
C1365 H1353 0.950 . S
C1365 C1364 1.398 . S
C1365 C1366 1.391 . S
C1366 H1354 0.950 . S
C1366 C1362 1.393 . S
C1366 C1365 1.391 . S
H1367 C1375 0.950 . S
H1368 C1380 0.950 . S
H1369 C1377 0.950 . S
H1370 C1379 0.950 . S
H1371 C1381 0.950 . S
H1372 C1383 0.950 . S
H1373 C1385 0.950 . S
H1374 C1386 0.950 . S
C1375 H1367 0.950 . S
C1375 C1376 1.386 . S
C1375 C1377 1.391 . S
C1376 C1375 1.386 . S
C1376 C1380 1.393 . S
C1377 H1369 0.950 . S
C1377 C1375 1.391 . S
C1377 C1378 1.400 . S
C1378 C1377 1.400 . S
C1378 C1379 1.398 . S
C1378 C1384 1.491 . S
C1379 H1370 0.950 . S
C1379 C1378 1.398 . S
C1379 C1380 1.391 . S
C1380 H1368 0.950 . S
C1380 C1376 1.393 . S
C1380 C1379 1.391 . S
C1381 H1371 0.950 . S
C1381 C1382 1.386 . S
C1381 C1383 1.391 . S
C1382 C1381 1.386 . S
C1382 C1386 1.393 . S
C1383 H1372 0.950 . S
C1383 C1381 1.391 . S
C1383 C1384 1.400 . S
C1384 C1378 1.491 . S
C1384 C1383 1.400 . S
C1384 C1385 1.398 . S
C1385 H1373 0.950 . S
C1385 C1384 1.398 . S
C1385 C1386 1.391 . S
C1386 H1374 0.950 . S
C1386 C1382 1.393 . S
C1386 C1385 1.391 . S
H1387 C1395 0.950 . S
H1388 C1400 0.950 . S
H1389 C1397 0.950 . S
H1390 C1399 0.950 . S
H1391 C1401 0.950 . S
H1392 C1403 0.950 . S
H1393 C1405 0.950 . S
H1394 C1406 0.950 . S
C1395 H1387 0.950 . S
C1395 C1396 1.386 . S
C1395 C1397 1.391 . S
C1396 C1395 1.386 . S
C1396 C1400 1.393 . S
C1397 H1389 0.950 . S
C1397 C1395 1.391 . S
C1397 C1398 1.400 . S
C1398 C1397 1.400 . S
C1398 C1399 1.398 . S
C1398 C1404 1.491 . S
C1399 H1390 0.950 . S
C1399 C1398 1.398 . S
C1399 C1400 1.391 . S
C1400 H1388 0.950 . S
C1400 C1396 1.393 . S
C1400 C1399 1.391 . S
C1401 H1391 0.950 . S
C1401 C1402 1.386 . S
C1401 C1403 1.391 . S
C1402 C1401 1.386 . S
C1402 C1406 1.393 . S
C1403 H1392 0.950 . S
C1403 C1401 1.391 . S
C1403 C1404 1.400 . S
C1404 C1398 1.491 . S
C1404 C1403 1.400 . S
C1404 C1405 1.398 . S
C1405 H1393 0.950 . S
C1405 C1404 1.398 . S
C1405 C1406 1.391 . S
C1406 H1394 0.950 . S
C1406 C1402 1.393 . S
C1406 C1405 1.391 . S
H1407 C1415 0.950 . S
H1408 C1420 0.950 . S
H1409 C1417 0.950 . S
H1410 C1419 0.950 . S
H1411 C1421 0.950 . S
H1412 C1423 0.950 . S
H1413 C1425 0.950 . S
H1414 C1426 0.950 . S
C1415 H1407 0.950 . S
C1415 C1416 1.386 . S
C1415 C1417 1.391 . S
C1416 C1415 1.386 . S
C1416 C1420 1.393 . S
C1417 H1409 0.950 . S
C1417 C1415 1.391 . S
C1417 C1418 1.400 . S
C1418 C1417 1.400 . S
C1418 C1419 1.398 . S
C1418 C1424 1.491 . S
C1419 H1410 0.950 . S
C1419 C1418 1.398 . S
C1419 C1420 1.391 . S
C1420 H1408 0.950 . S
C1420 C1416 1.393 . S
C1420 C1419 1.391 . S
C1421 H1411 0.950 . S
C1421 C1422 1.386 . S
C1421 C1423 1.391 . S
C1422 C1421 1.386 . S
C1422 C1426 1.393 . S
C1423 H1412 0.950 . S
C1423 C1421 1.391 . S
C1423 C1424 1.400 . S
C1424 C1418 1.491 . S
C1424 C1423 1.400 . S
C1424 C1425 1.398 . S
C1425 H1413 0.950 . S
C1425 C1424 1.398 . S
C1425 C1426 1.391 . S
C1426 H1414 0.950 . S
C1426 C1422 1.393 . S
C1426 C1425 1.391 . S
H1427 C1435 0.950 . S
H1428 C1440 0.950 . S
H1429 C1437 0.950 . S
H1430 C1439 0.950 . S
H1431 C1441 0.950 . S
H1432 C1443 0.950 . S
H1433 C1445 0.950 . S
H1434 C1446 0.950 . S
C1435 H1427 0.950 . S
C1435 C1436 1.386 . S
C1435 C1437 1.391 . S
C1436 C1435 1.386 . S
C1436 C1440 1.393 . S
C1437 H1429 0.950 . S
C1437 C1435 1.391 . S
C1437 C1438 1.400 . S
C1438 C1437 1.400 . S
C1438 C1439 1.398 . S
C1438 C1444 1.491 . S
C1439 H1430 0.950 . S
C1439 C1438 1.398 . S
C1439 C1440 1.391 . S
C1440 H1428 0.950 . S
C1440 C1436 1.393 . S
C1440 C1439 1.391 . S
C1441 H1431 0.950 . S
C1441 C1442 1.386 . S
C1441 C1443 1.391 . S
C1442 C1441 1.386 . S
C1442 C1446 1.393 . S
C1443 H1432 0.950 . S
C1443 C1441 1.391 . S
C1443 C1444 1.400 . S
C1444 C1438 1.491 . S
C1444 C1443 1.400 . S
C1444 C1445 1.398 . S
C1445 H1433 0.950 . S
C1445 C1444 1.398 . S
C1445 C1446 1.391 . S
C1446 H1434 0.950 . S
C1446 C1442 1.393 . S
C1446 C1445 1.391 . S
H1447 C1455 0.950 . S
H1448 C1460 0.950 . S
H1449 C1457 0.950 . S
H1450 C1459 0.950 . S
H1451 C1461 0.950 . S
H1452 C1463 0.950 . S
H1453 C1465 0.950 . S
H1454 C1466 0.950 . S
C1455 H1447 0.950 . S
C1455 C1456 1.386 . S
C1455 C1457 1.391 . S
C1456 C1455 1.386 . S
C1456 C1460 1.393 . S
C1457 H1449 0.950 . S
C1457 C1455 1.391 . S
C1457 C1458 1.400 . S
C1458 C1457 1.400 . S
C1458 C1459 1.398 . S
C1458 C1464 1.491 . S
C1459 H1450 0.950 . S
C1459 C1458 1.398 . S
C1459 C1460 1.391 . S
C1460 H1448 0.950 . S
C1460 C1456 1.393 . S
C1460 C1459 1.391 . S
C1461 H1451 0.950 . S
C1461 C1462 1.386 . S
C1461 C1463 1.391 . S
C1462 C1461 1.386 . S
C1462 C1466 1.393 . S
C1463 H1452 0.950 . S
C1463 C1461 1.391 . S
C1463 C1464 1.400 . S
C1464 C1458 1.491 . S
C1464 C1463 1.400 . S
C1464 C1465 1.398 . S
C1465 H1453 0.950 . S
C1465 C1464 1.398 . S
C1465 C1466 1.391 . S
C1466 H1454 0.950 . S
C1466 C1462 1.393 . S
C1466 C1465 1.391 . S
C396 C147 1.419 . S
C402 C212 1.411 . S
C416 C158 1.409 . S
C422 C233 1.374 . S
C436 C136 1.365 . S
C442 C253 1.203 . S
C456 C125 1.354 1_554 S
C462 C232 1.192 . S
C482 C254 1.413 . S
C476 C103 1.427 1_554 S
C496 C114 1.394 . S
C502 C211 1.257 . S
C522 C213 1.411 . S
C516 C131 1.430 . S
C542 C234 1.405 . S
C536 C109 1.434 . S
C556 C120 1.482 . S
C562 C256 1.273 . S
C576 C153 1.477 . S
C582 C235 1.269 1_554 S
C596 C164 1.425 . S
C602 C255 1.385 . S
C622 C214 1.259 1_554 S
C616 C142 1.488 . S
C642 C275 1.416 . S
C636 C15 1.419 . S
C656 C26 1.421 . S
C662 C296 1.377 . S
C676 C4 1.369 . S
C682 C316 1.205 . S
C696 C191 1.360 . S
C702 C295 1.192 . S
C716 C169 1.423 . S
C722 C317 1.413 . S
C736 C180 1.389 . S
C742 C274 1.258 . S
C756 C197 1.429 . S
C762 C276 1.401 . S
C776 C175 1.414 . S
C782 C297 1.396 . S
C802 C319 1.245 . S
C796 C186 1.483 . S
C816 C21 1.472 . S
C822 C298 1.251 . S
C842 C318 1.397 . S
C836 C32 1.407 . S
C856 C10 1.494 . S
C862 C277 1.274 . S
C882 C338 1.409 . S
C876 C81 1.437 . S
C896 C92 1.407 . S
C902 C359 1.377 . S
C922 C379 1.251 . S
C916 C70 1.379 . S
C942 C358 1.240 . S
C936 C59 1.376 . S
C962 C380 1.409 . S
C956 C37 1.431 . S
C976 C48 1.378 . S
C982 C337 1.212 . S
C996 C65 1.431 . S
C1002 C339 1.413 . S
C1016 C43 1.437 . S
C1022 C360 1.398 . S
C1042 C382 1.284 . S
C1036 C54 1.503 . S
C1056 C87 1.453 . S
C1062 C361 1.248 . S
C1076 C98 1.428 . S
C1082 C381 1.378 . S
C1096 C76 1.473 . S
C1102 C340 1.256 . S
C1116 C170 1.494 . S
C1122 C216 1.470 . S
C1142 C237 1.517 . S
C1136 C181 1.517 . S
C1156 C192 1.555 . S
C1162 C257 1.510 . S
C1176 C71 1.612 . S
C1182 C236 1.551 . S
C1196 C82 1.560 . S
C1202 C258 1.532 . S
C1222 C215 1.538 . S
C1216 C93 1.583 . S
C1236 C38 1.492 . S
C1242 C279 1.482 . S
C1256 C49 1.525 . S
C1262 C300 1.503 . S
C1276 C60 1.547 . S
C1282 C320 1.487 . S
C1296 C137 1.617 . S
C1302 C299 1.564 . S
C1322 C321 1.537 . S
C1316 C148 1.556 . S
C1336 C159 1.575 . S
C1342 C278 1.516 . S
C1356 C104 1.490 . S
C1362 C342 1.484 . S
C1376 C115 1.519 . S
C1382 C363 1.518 . S
C1402 C383 1.512 . S
C1396 C126 1.557 . S
C1416 C5 1.609 . S
C1422 C362 1.546 . S
C1436 C16 1.553 . S
C1442 C384 1.547 . S
C1456 C27 1.585 . S
C1462 C341 1.535 . S
