# Generated by pormake.
# Topology tsx, (6,3)-cn, num edge types: 1
# Building blocks:
#     Node 0, Type 0, BuildingBlock: VOLQOD_clean_sbu_1, # of connection points: 6
#     Node 1, Type 0, BuildingBlock: VOLQOD_clean_sbu_1, # of connection points: 6
#     Node 2, Type 1, BuildingBlock: CUQRIR_clean_linker_1, # of connection points: 3
#     Node 3, Type 1, BuildingBlock: CUQRIR_clean_linker_1, # of connection points: 3
#     Node 4, Type 1, BuildingBlock: CUQRIR_clean_linker_1, # of connection points: 3
#     Node 5, Type 1, BuildingBlock: CUQRIR_clean_linker_1, # of connection points: 3
#     Edge 6, Type (0, 1), BuildingBlock: KIFKEQ_clean_linker_1, # of connection points: 2
#     Edge 7, Type (0, 1), BuildingBlock: KIFKEQ_clean_linker_1, # of connection points: 2
#     Edge 8, Type (0, 1), BuildingBlock: KIFKEQ_clean_linker_1, # of connection points: 2
#     Edge 9, Type (0, 1), BuildingBlock: KIFKEQ_clean_linker_1, # of connection points: 2
#     Edge 10, Type (0, 1), BuildingBlock: KIFKEQ_clean_linker_1, # of connection points: 2
#     Edge 11, Type (0, 1), BuildingBlock: KIFKEQ_clean_linker_1, # of connection points: 2
#     Edge 12, Type (0, 1), BuildingBlock: KIFKEQ_clean_linker_1, # of connection points: 2
#     Edge 13, Type (0, 1), BuildingBlock: KIFKEQ_clean_linker_1, # of connection points: 2
#     Edge 14, Type (0, 1), BuildingBlock: KIFKEQ_clean_linker_1, # of connection points: 2
#     Edge 15, Type (0, 1), BuildingBlock: KIFKEQ_clean_linker_1, # of connection points: 2
#     Edge 16, Type (0, 1), BuildingBlock: KIFKEQ_clean_linker_1, # of connection points: 2
#     Edge 17, Type (0, 1), BuildingBlock: KIFKEQ_clean_linker_1, # of connection points: 2
# Relax obj value: 0.077
# Max RMSD: 0.142
# Mean RMSD: 0.124
data_MOF--net-tsx--node1-VOLQOD_clean_sbu_1--node2-CUQRIR_clean_linker_1--edge1-KIFKEQ_clean_linker_1
_symmetry_space_group_name_H-M    P1
_symmetry_Int_Tables_number       1
_symmetry_cell_setting            triclinic
loop_
_symmetry_equiv_pos_as_xyz
'x, y, z'
_cell_length_a     19.759158
_cell_length_b     20.453084
_cell_length_c     36.375261
_cell_angle_alpha  79.903528
_cell_angle_beta   89.788116
_cell_angle_gamma 90.108999
loop_
_atom_site_label
_atom_site_type_symbol
_atom_site_fract_x
_atom_site_fract_y
_atom_site_fract_z
_atom_type_partial_charge
O0 O 0.0856 0.97784 0.09459 0.0
Zn1 Zn 0.11047 0.98905 0.03968 0.0
O2 O 0.03102 0.01167 0.00844 0.0
Zn3 Zn 0.01164 0.94113 0.9805 0.0
Zn4 Zn 0.95438 0.02176 0.04019 0.0
Zn5 Zn 0.04482 0.09491 0.97392 0.0
O6 O 0.01365 0.97572 0.92518 0.0
O7 O 0.0565 0.07729 0.92142 0.0
O8 O 0.15639 0.90553 0.02902 0.0
O9 O 0.08466 0.87256 0.98912 0.0
O10 O 0.92458 0.89268 0.99737 0.0
O11 O 0.89404 0.9426 0.0443 0.0
O12 O 0.89817 0.10172 0.01926 0.0
O13 O 0.17675 0.06469 0.03021 0.0
O14 O 0.9615 0.15312 0.97241 0.0
O15 O 0.12805 0.14275 0.98843 0.0
C16 C 0.03468 0.99828 0.11098 0.0
C17 C 0.03767 0.02895 0.906 0.0
C18 C 0.88613 0.89698 0.02505 0.0
C19 C 0.13868 0.8643 0.00829 0.0
C20 C 0.90722 0.14896 0.99179 0.0
C21 C 0.17676 0.12272 0.0105 0.0
O22 O 0.98326 0.02316 0.09267 0.0
O23 O 0.59841 0.50118 0.59055 0.0
Zn24 Zn 0.61912 0.51275 0.53526 0.0
O25 O 0.53512 0.52871 0.50668 0.0
Zn26 Zn 0.5147 0.45394 0.48217 0.0
Zn27 Zn 0.45964 0.54028 0.53948 0.0
Zn28 Zn 0.54622 0.6087 0.46902 0.0
O29 O 0.51451 0.48276 0.42631 0.0
O30 O 0.55478 0.58597 0.41729 0.0
O31 O 0.66821 0.43053 0.5238 0.0
O32 O 0.58932 0.38771 0.49162 0.0
O33 O 0.42716 0.40653 0.50051 0.0
O34 O 0.39203 0.46623 0.54214 0.0
O35 O 0.40746 0.62387 0.51985 0.0
O36 O 0.67961 0.59412 0.52497 0.0
O37 O 0.46399 0.6661 0.46819 0.0
O38 O 0.62615 0.66337 0.48075 0.0
C39 C 0.54693 0.51603 0.60866 0.0
C40 C 0.53591 0.53457 0.40462 0.0
C41 C 0.38461 0.41738 0.52517 0.0
C42 C 0.64735 0.38466 0.50687 0.0
C43 C 0.41404 0.66722 0.49026 0.0
C44 C 0.67493 0.65057 0.5037 0.0
O45 O 0.49199 0.53631 0.59223 0.0
C46 C 0.99973 0.00587 0.44053 0.0
N47 N 0.02771 0.97503 0.41426 0.0
N48 N 0.94349 0.03914 0.42717 0.0
C49 C 0.02585 0.0019 0.4795 0.0
C50 C 0.93809 0.02741 0.39186 0.0
N51 N 0.98896 0.98758 0.38414 0.0
C52 C 0.88625 0.05891 0.36413 0.0
H53 H 0.98282 0.99924 0.49918 0.0
H54 H 0.05584 0.04722 0.48101 0.0
H55 H 0.05838 0.95774 0.48796 0.0
H56 H 0.91011 0.07531 0.33637 0.0
H57 H 0.86145 0.10196 0.3733 0.0
H58 H 0.84684 0.02153 0.36111 0.0
C59 C 0.96917 0.07019 0.57635 0.0
N60 N 0.00787 0.09097 0.60272 0.0
N61 N 0.94129 0.01001 0.58954 0.0
C62 C 0.96037 0.10817 0.53759 0.0
C63 C 0.96364 0.99542 0.6251 0.0
N64 N 0.0045 0.04423 0.63301 0.0
C65 C 0.94299 0.93454 0.65241 0.0
H66 H 0.92525 0.08233 0.52146 0.0
H67 H 0.01021 0.11567 0.52337 0.0
H68 H 0.93938 0.15793 0.53896 0.0
H69 H 0.8958 0.91255 0.6434 0.0
H70 H 0.93511 0.94679 0.68064 0.0
H71 H 0.98386 0.89702 0.65412 0.0
C72 C 0.47479 0.47484 0.93845 0.0
N73 N 0.51638 0.45569 0.91257 0.0
N74 N 0.4437 0.53268 0.92439 0.0
C75 C 0.46332 0.43679 0.97711 0.0
C76 C 0.46681 0.54759 0.88887 0.0
N77 N 0.51128 0.50115 0.88178 0.0
C78 C 0.44229 0.60502 0.86042 0.0
H79 H 0.42237 0.40006 0.97595 0.0
H80 H 0.44714 0.47004 0.99646 0.0
H81 H 0.50919 0.40926 0.98793 0.0
H82 H 0.48082 0.64517 0.85713 0.0
H83 H 0.39371 0.62483 0.86914 0.0
H84 H 0.43544 0.58967 0.83288 0.0
C85 C 0.55685 0.47512 0.07921 0.0
N86 N 0.57792 0.51112 0.10492 0.0
N87 N 0.51348 0.4268 0.09476 0.0
C88 C 0.58066 0.48547 0.03934 0.0
C89 C 0.50964 0.43398 0.13095 0.0
N90 N 0.54921 0.48481 0.13719 0.0
C91 C 0.46453 0.39363 0.15977 0.0
H92 H 0.54354 0.51669 0.02147 0.0
H93 H 0.58546 0.43712 0.02985 0.0
H94 H 0.63054 0.51085 0.03612 0.0
H95 H 0.44631 0.34791 0.15042 0.0
H96 H 0.4203 0.42425 0.16483 0.0
H97 H 0.49178 0.37983 0.1866 0.0
H98 H 0.18726 0.2562 0.98265 0.0
H99 H 0.29363 0.09303 0.04958 0.0
H100 H 0.27463 0.33282 0.99671 0.0
H101 H 0.37973 0.16949 0.06396 0.0
H102 H 0.54841 0.31817 0.06683 0.0
H103 H 0.47175 0.2457 0.03896 0.0
H104 H 0.30436 0.37437 0.05416 0.0
H105 H 0.3817 0.44641 0.0813 0.0
C106 C 0.22953 0.23652 -2e-05 0.0
C107 C 0.23296 0.16855 0.01532 0.0
C108 C 0.27937 0.28046 0.00817 0.0
C109 C 0.33378 0.25724 0.03168 0.0
C110 C 0.33884 0.1889 0.0455 0.0
C111 C 0.28904 0.14511 0.03747 0.0
C112 C 0.49531 0.33078 0.06361 0.0
C113 C 0.47024 0.38717 0.07595 0.0
C114 C 0.45147 0.28952 0.04793 0.0
C115 C 0.38194 0.30426 0.04446 0.0
C116 C 0.35766 0.36205 0.05599 0.0
C117 C 0.40147 0.40296 0.07172 0.0
H118 H 0.26962 0.84142 0.03228 0.0
H119 H 0.10789 0.75847 0.97507 0.0
H120 H 0.34533 0.75383 0.01912 0.0
H121 H 0.18345 0.67213 0.96159 0.0
H122 H 0.32406 0.50011 0.95883 0.0
H123 H 0.25023 0.57381 0.98752 0.0
H124 H 0.39798 0.73141 0.96121 0.0
H125 H 0.47139 0.65703 0.9334 0.0
C126 C 0.24995 0.80413 0.01736 0.0
C127 C 0.1829 0.80743 0.00438 0.0
C128 C 0.29339 0.75416 0.00967 0.0
C129 C 0.27048 0.70626 0.98913 0.0
C130 C 0.20256 0.70779 0.9778 0.0
C131 C 0.15936 0.75777 0.98527 0.0
C132 C 0.34061 0.55027 0.95983 0.0
C133 C 0.40258 0.57362 0.94377 0.0
C134 C 0.29858 0.59247 0.97601 0.0
C135 C 0.31816 0.65858 0.97649 0.0
C136 C 0.38167 0.68068 0.9617 0.0
C137 C 0.42337 0.63858 0.94546 0.0
H138 H 0.82978 0.86358 0.09419 0.0
H139 H 0.82782 0.81228 0.98383 0.0
H140 H 0.75125 0.77262 0.11613 0.0
H141 H 0.74797 0.72202 0.00587 0.0
H142 H 0.54957 0.61817 0.05346 0.0
H143 H 0.62182 0.71562 0.03424 0.0
H144 H 0.7633 0.6397 0.12141 0.0
H145 H 0.69199 0.54052 0.13951 0.0
C146 C 0.81191 0.83346 0.07449 0.0
C147 C 0.83484 0.84507 0.03723 0.0
C148 C 0.7674 0.78126 0.08718 0.0
C149 C 0.74394 0.74065 0.06266 0.0
C150 C 0.76534 0.7531 0.0252 0.0
C151 C 0.811 0.8045 0.01265 0.0
C152 C 0.59614 0.6226 0.06843 0.0
C153 C 0.61607 0.5719 0.09753 0.0
C154 C 0.63722 0.67807 0.05751 0.0
C155 C 0.69815 0.68449 0.07616 0.0
C156 C 0.71633 0.63562 0.1067 0.0
C157 C 0.67566 0.57934 0.11718 0.0
H158 H 0.9004 0.2457 0.92943 0.0
H159 H 0.7863 0.15898 0.02759 0.0
H160 H 0.80487 0.31694 0.90785 0.0
H161 H 0.69138 0.23159 0.00644 0.0
H162 H 0.50873 0.32391 0.94049 0.0
H163 H 0.60421 0.24903 0.95931 0.0
H164 H 0.74343 0.41035 0.92136 0.0
H165 H 0.64793 0.48384 0.90239 0.0
C166 C 0.85531 0.24237 0.94669 0.0
C167 C 0.85125 0.19652 0.98031 0.0
C168 C 0.80042 0.28337 0.9343 0.0
C169 C 0.74011 0.27985 0.95526 0.0
C170 C 0.73648 0.23479 0.9892 0.0
C171 C 0.79128 0.19359 0.00153 0.0
C172 C 0.55994 0.34259 0.93592 0.0
C173 C 0.57144 0.40926 0.92004 0.0
C174 C 0.61457 0.30017 0.94691 0.0
C175 C 0.6817 0.3237 0.94207 0.0
C176 C 0.69269 0.39014 0.9251 0.0
C177 C 0.63815 0.43229 0.91417 0.0
H178 H 0.67613 0.78058 0.46768 0.0
H179 H 0.78157 0.64323 0.55196 0.0
H180 H 0.74602 0.87146 0.48199 0.0
H181 H 0.84976 0.73379 0.56678 0.0
H182 H 0.81615 0.02002 0.55951 0.0
H183 H 0.75664 0.93445 0.53231 0.0
H184 H 0.93659 0.81271 0.54609 0.0
H185 H 0.99418 0.89762 0.57418 0.0
C186 C 0.71466 0.76952 0.48894 0.0
C187 C 0.72292 0.70442 0.50875 0.0
C188 C 0.75437 0.8218 0.49734 0.0
C189 C 0.80336 0.81022 0.52569 0.0
C190 C 0.81326 0.74467 0.54442 0.0
C191 C 0.77374 0.69254 0.53603 0.0
C192 C 0.84267 0.97518 0.5561 0.0
C193 C 0.90913 0.96461 0.56902 0.0
C194 C 0.80902 0.9263 0.54044 0.0
C195 C 0.84151 0.86609 0.53745 0.0
C196 C 0.90944 0.85762 0.5487 0.0
C197 C 0.94262 0.90614 0.56456 0.0
H198 H 0.78192 0.36545 0.52564 0.0
H199 H 0.61346 0.2757 0.47731 0.0
H200 H 0.85588 0.27678 0.51185 0.0
H201 H 0.68699 0.18928 0.46276 0.0
H202 H 0.97569 0.16477 0.43122 0.0
H203 H 0.90496 0.24534 0.45616 0.0
H204 H 0.7524 0.09347 0.48724 0.0
H205 H 0.82292 0.01449 0.46076 0.0
C206 C 0.76052 0.32668 0.51242 0.0
C207 C 0.69183 0.32814 0.50235 0.0
C208 C 0.80295 0.27615 0.50428 0.0
C209 C 0.77747 0.22607 0.48598 0.0
C210 C 0.70831 0.22639 0.47726 0.0
C211 C 0.66612 0.27656 0.48537 0.0
C212 C 0.92713 0.14921 0.4437 0.0
C213 C 0.90412 0.08423 0.44439 0.0
C214 C 0.88685 0.19484 0.45817 0.0
C215 C 0.82291 0.17595 0.47375 0.0
C216 C 0.8009 0.10997 0.47504 0.0
C217 C 0.84103 0.06467 0.46019 0.0
H218 H 0.27398 0.43623 0.56745 0.0
H219 H 0.36389 0.29443 0.50672 0.0
H220 H 0.18175 0.35871 0.58767 0.0
H221 H 0.27125 0.21699 0.52698 0.0
H222 H 0.14112 0.0689 0.60685 0.0
H223 H 0.23185 0.14956 0.58755 0.0
H224 H 0.08289 0.30498 0.56144 0.0
H225 H 0.99246 0.22361 0.58128 0.0
C226 C 0.27397 0.38866 0.55824 0.0
C227 C 0.32659 0.3715 0.53553 0.0
C228 C 0.22087 0.3444 0.56972 0.0
C229 C 0.21943 0.28163 0.55912 0.0
C230 C 0.27146 0.26473 0.536 0.0
C231 C 0.32427 0.30929 0.52418 0.0
C232 C 0.12829 0.12059 0.59752 0.0
C233 C 0.06036 0.14047 0.59545 0.0
C234 C 0.17987 0.16652 0.58605 0.0
C235 C 0.16447 0.23349 0.57256 0.0
C236 C 0.09634 0.25375 0.57174 0.0
C237 C 0.04467 0.20748 0.58294 0.0
H238 H 0.28412 0.66334 0.51657 0.0
H239 H 0.42092 0.78166 0.43875 0.0
H240 H 0.19188 0.7391 0.49425 0.0
H241 H 0.32849 0.85749 0.41669 0.0
H242 H 0.15476 0.01247 0.42601 0.0
H243 H 0.25169 0.93882 0.44364 0.0
H244 H 0.12736 0.76963 0.43216 0.0
H245 H 0.03094 0.84411 0.41425 0.0
C246 C 0.29471 0.70586 0.49503 0.0
C247 C 0.35984 0.71651 0.47943 0.0
C248 C 0.24175 0.74876 0.48199 0.0
C249 C 0.25306 0.80362 0.4535 0.0
C250 C 0.31851 0.8155 0.43868 0.0
C251 C 0.3713 0.77209 0.45132 0.0
C252 C 0.14917 0.95962 0.42658 0.0
C253 C 0.08635 0.93331 0.41882 0.0
C254 C 0.20416 0.91762 0.43665 0.0
C255 C 0.19666 0.84858 0.43959 0.0
C256 C 0.13415 0.82263 0.4305 0.0
C257 C 0.07946 0.86488 0.41993 0.0
H258 H 0.9284 0.0212 0.15488 0.0
H259 H 0.13708 0.95689 0.16063 0.0
H260 H 0.92362 0.00636 0.22245 0.0
H261 H 0.13179 0.94156 0.2289 0.0
H262 H 0.10263 0.01952 0.34415 0.0
H263 H 0.11933 0.01341 0.27802 0.0
H264 H 0.92557 0.91539 0.27702 0.0
H265 H 0.90955 0.92203 0.34305 0.0
C266 C 0.97335 0.00381 0.17053 0.0
C267 C 0.0332 0.99036 0.15225 0.0
C268 C 0.97032 0.99462 0.20936 0.0
C269 C 0.02707 0.97199 0.231 0.0
C270 C 0.08727 0.95903 0.21288 0.0
C271 C 0.09021 0.96779 0.17384 0.0
C272 C 0.06489 0.99492 0.32987 0.0
C273 C 0.00467 0.97167 0.34816 0.0
C274 C 0.07422 0.9915 0.29213 0.0
C275 C 0.02321 0.96492 0.27222 0.0
C276 C 0.96513 0.93734 0.29147 0.0
C277 C 0.95599 0.94075 0.32913 0.0
H278 H 0.01467 0.9322 0.86446 0.0
H279 H 0.07599 0.13763 0.85463 0.0
H280 H 0.0221 0.94121 0.7971 0.0
H281 H 0.08422 0.14623 0.78692 0.0
H282 H 0.08182 0.9562 0.67834 0.0
H283 H 0.10273 0.95576 0.74473 0.0
H284 H 0.00338 0.14603 0.73539 0.0
H285 H 0.98309 0.14581 0.66909 0.0
C286 C 0.03019 0.97921 0.84798 0.0
C287 C 0.04427 0.03431 0.865 0.0
C288 C 0.03517 0.98416 0.80933 0.0
C289 C 0.05418 0.04434 0.78668 0.0
C290 C 0.06916 0.09929 0.80365 0.0
C291 C 0.0645 0.09427 0.84243 0.0
C292 C 0.06577 0.99823 0.69058 0.0
C293 C 0.02986 0.05044 0.66921 0.0
C294 C 0.0774 0.99802 0.72843 0.0
C295 C 0.05348 0.05026 0.74544 0.0
C296 C 0.02259 0.10514 0.72313 0.0
C297 C 0.01097 0.10519 0.68526 0.0
H298 H 0.44188 0.49449 0.65781 0.0
H299 H 0.65909 0.51964 0.65239 0.0
H300 H 0.44592 0.48216 0.72569 0.0
H301 H 0.66267 0.50866 0.72069 0.0
H302 H 0.58927 0.5862 0.83446 0.0
H303 H 0.6079 0.58322 0.76787 0.0
H304 H 0.5011 0.3962 0.78074 0.0
H305 H 0.48359 0.39927 0.84724 0.0
C306 C 0.49047 0.49747 0.67112 0.0
C307 C 0.55015 0.50819 0.64979 0.0
C308 C 0.4928 0.48987 0.70996 0.0
C309 C 0.55466 0.49403 0.72828 0.0
C310 C 0.61444 0.50508 0.7071 0.0
C311 C 0.61232 0.51126 0.66815 0.0
C312 C 0.57172 0.54378 0.82302 0.0
C313 C 0.53484 0.49309 0.84544 0.0
C314 C 0.58234 0.54194 0.78517 0.0
C315 C 0.55527 0.48978 0.76928 0.0
C316 C 0.52205 0.43709 0.79237 0.0
C317 C 0.51246 0.43852 0.83027 0.0
H318 H 0.55815 0.63947 0.34728 0.0
H319 H 0.52576 0.42705 0.37012 0.0
H320 H 0.56925 0.63555 0.28053 0.0
H321 H 0.53685 0.42349 0.30398 0.0
H322 H 0.6278 0.42309 0.19169 0.0
H323 H 0.63038 0.44161 0.2564 0.0
H324 H 0.49413 0.60747 0.22739 0.0
H325 H 0.49254 0.58836 0.16236 0.0
C326 C 0.55341 0.59206 0.33813 0.0
C327 C 0.54116 0.53355 0.36407 0.0
C328 C 0.55958 0.58994 0.29995 0.0
C329 C 0.55465 0.52915 0.28717 0.0
C330 C 0.54204 0.47092 0.31309 0.0
C331 C 0.53513 0.47309 0.35101 0.0
C332 C 0.59996 0.46437 0.19924 0.0
C333 C 0.56007 0.50441 0.17266 0.0
C334 C 0.60086 0.47473 0.23609 0.0
C335 C 0.56166 0.52539 0.247 0.0
C336 C 0.52498 0.56823 0.21971 0.0
C337 C 0.524 0.55754 0.1827 0.0
loop_
_geom_bond_atom_site_label_1
_geom_bond_atom_site_label_2
_geom_bond_distance
_geom_bond_site_symmetry_2
_ccdc_geom_bond_type
O0 Zn1 1.953 . S
O0 C16 1.225 . S
Zn1 O0 1.953 . S
Zn1 O2 1.949 1_565 S
Zn1 O8 1.919 . S
Zn1 O13 1.924 1_565 S
O2 Zn1 1.949 1_545 S
O2 Zn3 1.923 1_544 S
O2 Zn4 1.950 1_455 S
O2 Zn5 1.945 1_554 S
Zn3 O2 1.923 1_566 S
Zn3 O6 1.933 . S
Zn3 O9 1.941 . S
Zn3 O10 1.965 1_455 S
Zn4 O2 1.950 1_655 S
Zn4 O11 1.938 1_545 S
Zn4 O12 1.906 . S
Zn4 O22 1.953 . S
Zn5 O2 1.945 1_556 S
Zn5 O7 1.932 . S
Zn5 O14 1.977 1_455 S
Zn5 O15 1.910 . S
O6 Zn3 1.933 . S
O6 C17 1.226 1_565 S
O7 Zn5 1.932 . S
O7 C17 1.307 . S
O8 Zn1 1.919 . S
O8 C19 1.253 . S
O9 Zn3 1.941 . S
O9 C19 1.283 1_556 S
O10 Zn3 1.965 1_655 S
O10 C18 1.303 1_556 S
O11 Zn4 1.938 1_565 S
O11 C18 1.247 . S
O12 Zn4 1.906 . S
O12 C20 1.304 1_554 S
O13 Zn1 1.924 1_545 S
O13 C21 1.311 . S
O14 Zn5 1.977 1_655 S
O14 C20 1.272 . S
O15 Zn5 1.910 . S
O15 C21 1.231 1_556 S
C16 O0 1.225 . S
C16 O22 1.298 1_465 S
C17 O6 1.226 1_545 S
C17 O7 1.307 . S
C18 O10 1.303 1_554 S
C18 O11 1.247 . S
C19 O8 1.253 . S
C19 O9 1.283 1_554 S
C20 O12 1.304 1_556 S
C20 O14 1.272 . S
C21 O13 1.311 . S
C21 O15 1.231 1_554 S
O22 Zn4 1.953 . S
O22 C16 1.298 1_645 S
O23 Zn24 1.953 . S
O23 C39 1.225 . S
Zn24 O23 1.953 . S
Zn24 O25 1.949 . S
Zn24 O31 1.919 . S
Zn24 O36 1.924 . S
O25 Zn24 1.949 . S
O25 Zn26 1.923 . S
O25 Zn27 1.950 . S
O25 Zn28 1.945 . S
Zn26 O25 1.923 . S
Zn26 O29 1.933 . S
Zn26 O32 1.941 . S
Zn26 O33 1.965 . S
Zn27 O25 1.950 . S
Zn27 O34 1.938 . S
Zn27 O35 1.906 . S
Zn27 O45 1.953 . S
Zn28 O25 1.945 . S
Zn28 O30 1.932 . S
Zn28 O37 1.977 . S
Zn28 O38 1.910 . S
O29 Zn26 1.933 . S
O29 C40 1.226 . S
O30 Zn28 1.932 . S
O30 C40 1.307 . S
O31 Zn24 1.919 . S
O31 C42 1.253 . S
O32 Zn26 1.941 . S
O32 C42 1.283 . S
O33 Zn26 1.965 . S
O33 C41 1.303 . S
O34 Zn27 1.938 . S
O34 C41 1.247 . S
O35 Zn27 1.906 . S
O35 C43 1.304 . S
O36 Zn24 1.924 . S
O36 C44 1.311 . S
O37 Zn28 1.977 . S
O37 C43 1.272 . S
O38 Zn28 1.910 . S
O38 C44 1.231 . S
C39 O23 1.225 . S
C39 O45 1.298 . S
C40 O29 1.226 . S
C40 O30 1.307 . S
C41 O33 1.303 . S
C41 O34 1.247 . S
C42 O31 1.253 . S
C42 O32 1.283 . S
C43 O35 1.304 . S
C43 O37 1.272 . S
C44 O36 1.311 . S
C44 O38 1.231 . S
O45 Zn27 1.953 . S
O45 C39 1.298 . S
C46 N47 1.317 1_545 S
C46 N48 1.348 1_455 S
C46 C49 1.485 1_545 S
N47 C46 1.317 1_565 S
N47 N51 1.370 1_565 S
N48 C46 1.348 1_655 S
N48 C50 1.346 . S
C49 C46 1.485 1_565 S
C49 H53 0.960 1_455 S
C49 H54 0.961 1_565 S
C49 H55 0.960 . S
C50 N48 1.346 . S
C50 N51 1.307 1_655 S
C50 C52 1.486 . S
N51 N47 1.370 1_545 S
N51 C50 1.307 1_455 S
C52 C50 1.486 . S
C52 H56 0.960 . S
C52 H57 0.960 . S
C52 H58 0.959 . S
H53 C49 0.960 1_655 S
H54 C49 0.961 1_545 S
H55 C49 0.960 . S
H56 C52 0.960 . S
H57 C52 0.960 . S
H58 C52 0.959 . S
C59 N60 1.317 . S
C59 N61 1.348 1_445 S
C59 C62 1.485 . S
N60 C59 1.317 . S
N60 N64 1.370 . S
N61 C59 1.348 1_665 S
N61 C63 1.346 . S
C62 C59 1.485 . S
C62 H66 0.960 . S
C62 H67 0.961 1_545 S
C62 H68 0.960 . S
C63 N61 1.346 . S
C63 N64 1.307 1_665 S
C63 C65 1.486 . S
N64 N60 1.370 . S
N64 C63 1.307 1_445 S
C65 C63 1.486 . S
C65 H69 0.960 . S
C65 H70 0.960 . S
C65 H71 0.959 . S
H66 C62 0.960 . S
H67 C62 0.961 1_565 S
H68 C62 0.960 . S
H69 C65 0.960 . S
H70 C65 0.960 . S
H71 C65 0.959 . S
C72 N73 1.317 . S
C72 N74 1.348 . S
C72 C75 1.485 . S
N73 C72 1.317 . S
N73 N77 1.370 . S
N74 C72 1.348 . S
N74 C76 1.346 . S
C75 C72 1.485 . S
C75 H79 0.962 . S
C75 H80 0.961 . S
C75 H81 0.960 . S
C76 N74 1.346 . S
C76 N77 1.307 . S
C76 C78 1.486 . S
N77 N73 1.370 . S
N77 C76 1.307 . S
C78 C76 1.486 . S
C78 H82 0.960 . S
C78 H83 0.960 . S
C78 H84 0.959 . S
H79 C75 0.962 . S
H80 C75 0.961 . S
H81 C75 0.960 . S
H82 C78 0.960 . S
H83 C78 0.960 . S
H84 C78 0.959 . S
C85 N86 1.317 . S
C85 N87 1.348 . S
C85 C88 1.485 . S
N86 C85 1.317 . S
N86 N90 1.370 . S
N87 C85 1.348 . S
N87 C89 1.346 . S
C88 C85 1.485 . S
C88 H92 0.960 . S
C88 H93 0.961 . S
C88 H94 0.960 . S
C89 N87 1.346 . S
C89 N90 1.307 . S
C89 C91 1.486 . S
N90 N86 1.370 . S
N90 C89 1.307 . S
C91 C89 1.486 . S
C91 H95 0.960 . S
C91 H96 0.960 . S
C91 H97 0.959 . S
H92 C88 0.960 . S
H93 C88 0.961 . S
H94 C88 0.960 . S
H95 C91 0.960 . S
H96 C91 0.960 . S
H97 C91 0.959 . S
H98 C106 0.950 . S
H99 C111 0.950 . S
H100 C108 0.950 . S
H101 C110 0.950 . S
H102 C112 0.950 . S
H103 C114 0.950 . S
H104 C116 0.950 . S
H105 C117 0.950 . S
C106 H98 0.950 . S
C106 C107 1.386 . S
C106 C108 1.391 . S
C107 C106 1.386 . S
C107 C111 1.393 . S
C108 H100 0.950 . S
C108 C106 1.391 . S
C108 C109 1.400 . S
C109 C108 1.400 . S
C109 C110 1.398 . S
C109 C115 1.491 . S
C110 H101 0.950 . S
C110 C109 1.398 . S
C110 C111 1.391 . S
C111 H99 0.950 . S
C111 C107 1.393 . S
C111 C110 1.391 . S
C112 H102 0.950 . S
C112 C113 1.386 . S
C112 C114 1.391 . S
C113 C112 1.386 . S
C113 C117 1.393 . S
C114 H103 0.950 . S
C114 C112 1.391 . S
C114 C115 1.400 . S
C115 C109 1.491 . S
C115 C114 1.400 . S
C115 C116 1.398 . S
C116 H104 0.950 . S
C116 C115 1.398 . S
C116 C117 1.391 . S
C117 H105 0.950 . S
C117 C113 1.393 . S
C117 C116 1.391 . S
H118 C126 0.950 . S
H119 C131 0.950 . S
H120 C128 0.950 . S
H121 C130 0.950 . S
H122 C132 0.950 . S
H123 C134 0.950 . S
H124 C136 0.950 . S
H125 C137 0.950 . S
C126 H118 0.950 . S
C126 C127 1.386 . S
C126 C128 1.391 . S
C127 C126 1.386 . S
C127 C131 1.393 . S
C128 H120 0.950 . S
C128 C126 1.391 . S
C128 C129 1.400 . S
C129 C128 1.400 . S
C129 C130 1.398 . S
C129 C135 1.491 . S
C130 H121 0.950 . S
C130 C129 1.398 . S
C130 C131 1.391 . S
C131 H119 0.950 . S
C131 C127 1.393 . S
C131 C130 1.391 . S
C132 H122 0.950 . S
C132 C133 1.386 . S
C132 C134 1.391 . S
C133 C132 1.386 . S
C133 C137 1.393 . S
C134 H123 0.950 . S
C134 C132 1.391 . S
C134 C135 1.400 . S
C135 C129 1.491 . S
C135 C134 1.400 . S
C135 C136 1.398 . S
C136 H124 0.950 . S
C136 C135 1.398 . S
C136 C137 1.391 . S
C137 H125 0.950 . S
C137 C133 1.393 . S
C137 C136 1.391 . S
H138 C146 0.950 . S
H139 C151 0.950 1_556 S
H140 C148 0.950 . S
H141 C150 0.950 . S
H142 C152 0.950 . S
H143 C154 0.950 . S
H144 C156 0.950 . S
H145 C157 0.950 . S
C146 H138 0.950 . S
C146 C147 1.386 . S
C146 C148 1.391 . S
C147 C146 1.386 . S
C147 C151 1.393 . S
C148 H140 0.950 . S
C148 C146 1.391 . S
C148 C149 1.400 . S
C149 C148 1.400 . S
C149 C150 1.398 . S
C149 C155 1.491 . S
C150 H141 0.950 . S
C150 C149 1.398 . S
C150 C151 1.391 . S
C151 H139 0.950 1_554 S
C151 C147 1.393 . S
C151 C150 1.391 . S
C152 H142 0.950 . S
C152 C153 1.386 . S
C152 C154 1.391 . S
C153 C152 1.386 . S
C153 C157 1.393 . S
C154 H143 0.950 . S
C154 C152 1.391 . S
C154 C155 1.400 . S
C155 C149 1.491 . S
C155 C154 1.400 . S
C155 C156 1.398 . S
C156 H144 0.950 . S
C156 C155 1.398 . S
C156 C157 1.391 . S
C157 H145 0.950 . S
C157 C153 1.393 . S
C157 C156 1.391 . S
H158 C166 0.950 . S
H159 C171 0.950 . S
H160 C168 0.950 . S
H161 C170 0.950 1_554 S
H162 C172 0.950 . S
H163 C174 0.950 . S
H164 C176 0.950 . S
H165 C177 0.950 . S
C166 H158 0.950 . S
C166 C167 1.386 . S
C166 C168 1.391 . S
C167 C166 1.386 . S
C167 C171 1.393 1_556 S
C168 H160 0.950 . S
C168 C166 1.391 . S
C168 C169 1.400 . S
C169 C168 1.400 . S
C169 C170 1.398 . S
C169 C175 1.491 . S
C170 H161 0.950 1_556 S
C170 C169 1.398 . S
C170 C171 1.391 1_556 S
C171 H159 0.950 . S
C171 C167 1.393 1_554 S
C171 C170 1.391 1_554 S
C172 H162 0.950 . S
C172 C173 1.386 . S
C172 C174 1.391 . S
C173 C172 1.386 . S
C173 C177 1.393 . S
C174 H163 0.950 . S
C174 C172 1.391 . S
C174 C175 1.400 . S
C175 C169 1.491 . S
C175 C174 1.400 . S
C175 C176 1.398 . S
C176 H164 0.950 . S
C176 C175 1.398 . S
C176 C177 1.391 . S
C177 H165 0.950 . S
C177 C173 1.393 . S
C177 C176 1.391 . S
H178 C186 0.950 . S
H179 C191 0.950 . S
H180 C188 0.950 . S
H181 C190 0.950 . S
H182 C192 0.950 . S
H183 C194 0.950 . S
H184 C196 0.950 . S
H185 C197 0.950 . S
C186 H178 0.950 . S
C186 C187 1.386 . S
C186 C188 1.391 . S
C187 C186 1.386 . S
C187 C191 1.393 . S
C188 H180 0.950 . S
C188 C186 1.391 . S
C188 C189 1.400 . S
C189 C188 1.400 . S
C189 C190 1.398 . S
C189 C195 1.491 . S
C190 H181 0.950 . S
C190 C189 1.398 . S
C190 C191 1.391 . S
C191 H179 0.950 . S
C191 C187 1.393 . S
C191 C190 1.391 . S
C192 H182 0.950 . S
C192 C193 1.386 . S
C192 C194 1.391 . S
C193 C192 1.386 . S
C193 C197 1.393 . S
C194 H183 0.950 . S
C194 C192 1.391 . S
C194 C195 1.400 . S
C195 C189 1.491 . S
C195 C194 1.400 . S
C195 C196 1.398 . S
C196 H184 0.950 . S
C196 C195 1.398 . S
C196 C197 1.391 . S
C197 H185 0.950 . S
C197 C193 1.393 . S
C197 C196 1.391 . S
H198 C206 0.950 . S
H199 C211 0.950 . S
H200 C208 0.950 . S
H201 C210 0.950 . S
H202 C212 0.950 . S
H203 C214 0.950 . S
H204 C216 0.950 . S
H205 C217 0.950 . S
C206 H198 0.950 . S
C206 C207 1.386 . S
C206 C208 1.391 . S
C207 C206 1.386 . S
C207 C211 1.393 . S
C208 H200 0.950 . S
C208 C206 1.391 . S
C208 C209 1.400 . S
C209 C208 1.400 . S
C209 C210 1.398 . S
C209 C215 1.491 . S
C210 H201 0.950 . S
C210 C209 1.398 . S
C210 C211 1.391 . S
C211 H199 0.950 . S
C211 C207 1.393 . S
C211 C210 1.391 . S
C212 H202 0.950 . S
C212 C213 1.386 . S
C212 C214 1.391 . S
C213 C212 1.386 . S
C213 C217 1.393 . S
C214 H203 0.950 . S
C214 C212 1.391 . S
C214 C215 1.400 . S
C215 C209 1.491 . S
C215 C214 1.400 . S
C215 C216 1.398 . S
C216 H204 0.950 . S
C216 C215 1.398 . S
C216 C217 1.391 . S
C217 H205 0.950 . S
C217 C213 1.393 . S
C217 C216 1.391 . S
H218 C226 0.950 . S
H219 C231 0.950 . S
H220 C228 0.950 . S
H221 C230 0.950 . S
H222 C232 0.950 . S
H223 C234 0.950 . S
H224 C236 0.950 . S
H225 C237 0.950 . S
C226 H218 0.950 . S
C226 C227 1.386 . S
C226 C228 1.391 . S
C227 C226 1.386 . S
C227 C231 1.393 . S
C228 H220 0.950 . S
C228 C226 1.391 . S
C228 C229 1.400 . S
C229 C228 1.400 . S
C229 C230 1.398 . S
C229 C235 1.491 . S
C230 H221 0.950 . S
C230 C229 1.398 . S
C230 C231 1.391 . S
C231 H219 0.950 . S
C231 C227 1.393 . S
C231 C230 1.391 . S
C232 H222 0.950 . S
C232 C233 1.386 . S
C232 C234 1.391 . S
C233 C232 1.386 . S
C233 C237 1.393 . S
C234 H223 0.950 . S
C234 C232 1.391 . S
C234 C235 1.400 . S
C235 C229 1.491 . S
C235 C234 1.400 . S
C235 C236 1.398 . S
C236 H224 0.950 . S
C236 C235 1.398 . S
C236 C237 1.391 . S
C237 H225 0.950 . S
C237 C233 1.393 . S
C237 C236 1.391 . S
H238 C246 0.950 . S
H239 C251 0.950 . S
H240 C248 0.950 . S
H241 C250 0.950 . S
H242 C252 0.950 . S
H243 C254 0.950 . S
H244 C256 0.950 . S
H245 C257 0.950 . S
C246 H238 0.950 . S
C246 C247 1.386 . S
C246 C248 1.391 . S
C247 C246 1.386 . S
C247 C251 1.393 . S
C248 H240 0.950 . S
C248 C246 1.391 . S
C248 C249 1.400 . S
C249 C248 1.400 . S
C249 C250 1.398 . S
C249 C255 1.491 . S
C250 H241 0.950 . S
C250 C249 1.398 . S
C250 C251 1.391 . S
C251 H239 0.950 . S
C251 C247 1.393 . S
C251 C250 1.391 . S
C252 H242 0.950 . S
C252 C253 1.386 . S
C252 C254 1.391 . S
C253 C252 1.386 . S
C253 C257 1.393 . S
C254 H243 0.950 . S
C254 C252 1.391 . S
C254 C255 1.400 . S
C255 C249 1.491 . S
C255 C254 1.400 . S
C255 C256 1.398 . S
C256 H244 0.950 . S
C256 C255 1.398 . S
C256 C257 1.391 . S
C257 H245 0.950 . S
C257 C253 1.393 . S
C257 C256 1.391 . S
H258 C266 0.950 . S
H259 C271 0.950 . S
H260 C268 0.950 . S
H261 C270 0.950 . S
H262 C272 0.950 . S
H263 C274 0.950 . S
H264 C276 0.950 . S
H265 C277 0.950 . S
C266 H258 0.950 . S
C266 C267 1.384 1_645 S
C266 C268 1.393 . S
C267 C266 1.384 1_465 S
C267 C271 1.393 . S
C268 H260 0.950 . S
C268 C266 1.393 . S
C268 C269 1.400 1_645 S
C269 C268 1.400 1_465 S
C269 C270 1.398 . S
C269 C275 1.491 . S
C270 H261 0.950 . S
C270 C269 1.398 . S
C270 C271 1.391 . S
C271 H259 0.950 . S
C271 C267 1.393 . S
C271 C270 1.391 . S
C272 H262 0.950 . S
C272 C273 1.386 . S
C272 C274 1.391 . S
C273 C272 1.386 . S
C273 C277 1.393 1_465 S
C274 H263 0.950 . S
C274 C272 1.391 . S
C274 C275 1.400 . S
C275 C269 1.491 . S
C275 C274 1.400 . S
C275 C276 1.398 1_465 S
C276 H264 0.950 . S
C276 C275 1.398 1_645 S
C276 C277 1.391 . S
C277 H265 0.950 . S
C277 C273 1.393 1_645 S
C277 C276 1.391 . S
H278 C286 0.950 . S
H279 C291 0.950 . S
H280 C288 0.950 . S
H281 C290 0.950 . S
H282 C292 0.950 . S
H283 C294 0.950 . S
H284 C296 0.950 . S
H285 C297 0.950 . S
C286 H278 0.950 . S
C286 C287 1.386 1_655 S
C286 C288 1.391 . S
C287 C286 1.386 1_455 S
C287 C291 1.393 . S
C288 H280 0.950 . S
C288 C286 1.391 . S
C288 C289 1.400 1_655 S
C289 C288 1.400 1_455 S
C289 C290 1.398 . S
C289 C295 1.491 . S
C290 H281 0.950 . S
C290 C289 1.398 . S
C290 C291 1.391 . S
C291 H279 0.950 . S
C291 C287 1.393 . S
C291 C290 1.391 . S
C292 H282 0.950 . S
C292 C293 1.386 . S
C292 C294 1.391 . S
C293 C292 1.386 . S
C293 C297 1.393 1_455 S
C294 H283 0.950 . S
C294 C292 1.391 . S
C294 C295 1.400 . S
C295 C289 1.491 . S
C295 C294 1.400 . S
C295 C296 1.398 1_455 S
C296 H284 0.950 . S
C296 C295 1.398 1_655 S
C296 C297 1.391 . S
C297 H285 0.950 . S
C297 C293 1.393 1_655 S
C297 C296 1.391 . S
H298 C306 0.950 . S
H299 C311 0.950 . S
H300 C308 0.950 . S
H301 C310 0.950 . S
H302 C312 0.950 . S
H303 C314 0.950 . S
H304 C316 0.950 . S
H305 C317 0.950 . S
C306 H298 0.950 . S
C306 C307 1.386 . S
C306 C308 1.391 . S
C307 C306 1.386 . S
C307 C311 1.393 . S
C308 H300 0.950 . S
C308 C306 1.391 . S
C308 C309 1.400 . S
C309 C308 1.400 . S
C309 C310 1.398 . S
C309 C315 1.491 . S
C310 H301 0.950 . S
C310 C309 1.398 . S
C310 C311 1.391 . S
C311 H299 0.950 . S
C311 C307 1.393 . S
C311 C310 1.391 . S
C312 H302 0.950 . S
C312 C313 1.386 . S
C312 C314 1.391 . S
C313 C312 1.386 . S
C313 C317 1.393 . S
C314 H303 0.950 . S
C314 C312 1.391 . S
C314 C315 1.400 . S
C315 C309 1.491 . S
C315 C314 1.400 . S
C315 C316 1.398 . S
C316 H304 0.950 . S
C316 C315 1.398 . S
C316 C317 1.391 . S
C317 H305 0.950 . S
C317 C313 1.393 . S
C317 C316 1.391 . S
H318 C326 0.950 . S
H319 C331 0.950 . S
H320 C328 0.950 . S
H321 C330 0.950 . S
H322 C332 0.950 . S
H323 C334 0.950 . S
H324 C336 0.950 . S
H325 C337 0.950 . S
C326 H318 0.950 . S
C326 C327 1.386 . S
C326 C328 1.391 . S
C327 C326 1.386 . S
C327 C331 1.393 . S
C328 H320 0.950 . S
C328 C326 1.391 . S
C328 C329 1.400 . S
C329 C328 1.400 . S
C329 C330 1.398 . S
C329 C335 1.491 . S
C330 H321 0.950 . S
C330 C329 1.398 . S
C330 C331 1.391 . S
C331 H319 0.950 . S
C331 C327 1.393 . S
C331 C330 1.391 . S
C332 H322 0.950 . S
C332 C333 1.386 . S
C332 C334 1.391 . S
C333 C332 1.386 . S
C333 C337 1.393 . S
C334 H323 0.950 . S
C334 C332 1.391 . S
C334 C335 1.400 . S
C335 C329 1.491 . S
C335 C334 1.400 . S
C335 C336 1.398 . S
C336 H324 0.950 . S
C336 C335 1.398 . S
C336 C337 1.391 . S
C337 H325 0.950 . S
C337 C333 1.393 . S
C337 C336 1.391 . S
C113 N87 1.399 . S
C107 C21 1.401 . S
C127 C19 1.388 1_556 S
C133 N74 1.391 . S
C147 C18 1.474 . S
C153 N86 1.504 . S
C167 C20 1.517 . S
C173 N73 1.513 . S
C187 C44 1.397 . S
C193 N61 1.389 . S
C207 C42 1.391 . S
C213 N48 1.398 . S
C233 N60 1.505 . S
C227 C41 1.470 . S
C253 N47 1.521 . S
C247 C43 1.507 . S
C267 C16 1.531 . S
C273 N51 1.505 1_565 S
C287 C17 1.500 . S
C293 N64 1.475 . S
C313 N77 1.505 . S
C307 C39 1.531 . S
C327 C40 1.500 . S
C333 N90 1.475 . S
