# Generated by pormake.
# Topology ctn, (3,4)-cn, num edge types: 1
# Building blocks:
#     Node 0, Type 0, BuildingBlock: KAKCAD_clean_linker_0, # of connection points: 3
#     Node 1, Type 0, BuildingBlock: KAKCAD_clean_linker_0, # of connection points: 3
#     Node 2, Type 0, BuildingBlock: KAKCAD_clean_linker_0, # of connection points: 3
#     Node 3, Type 0, BuildingBlock: KAKCAD_clean_linker_0, # of connection points: 3
#     Node 4, Type 0, BuildingBlock: KAKCAD_clean_linker_0, # of connection points: 3
#     Node 5, Type 0, BuildingBlock: KAKCAD_clean_linker_0, # of connection points: 3
#     Node 6, Type 0, BuildingBlock: KAKCAD_clean_linker_0, # of connection points: 3
#     Node 7, Type 0, BuildingBlock: KAKCAD_clean_linker_0, # of connection points: 3
#     Node 8, Type 0, BuildingBlock: KAKCAD_clean_linker_0, # of connection points: 3
#     Node 9, Type 0, BuildingBlock: KAKCAD_clean_linker_0, # of connection points: 3
#     Node 10, Type 0, BuildingBlock: KAKCAD_clean_linker_0, # of connection points: 3
#     Node 11, Type 0, BuildingBlock: KAKCAD_clean_linker_0, # of connection points: 3
#     Node 12, Type 0, BuildingBlock: KAKCAD_clean_linker_0, # of connection points: 3
#     Node 13, Type 0, BuildingBlock: KAKCAD_clean_linker_0, # of connection points: 3
#     Node 14, Type 0, BuildingBlock: KAKCAD_clean_linker_0, # of connection points: 3
#     Node 15, Type 0, BuildingBlock: KAKCAD_clean_linker_0, # of connection points: 3
#     Node 16, Type 1, BuildingBlock: UXUYUI_clean_sbu_0, # of connection points: 4
#     Node 17, Type 1, BuildingBlock: UXUYUI_clean_sbu_0, # of connection points: 4
#     Node 18, Type 1, BuildingBlock: UXUYUI_clean_sbu_0, # of connection points: 4
#     Node 19, Type 1, BuildingBlock: UXUYUI_clean_sbu_0, # of connection points: 4
#     Node 20, Type 1, BuildingBlock: UXUYUI_clean_sbu_0, # of connection points: 4
#     Node 21, Type 1, BuildingBlock: UXUYUI_clean_sbu_0, # of connection points: 4
#     Node 22, Type 1, BuildingBlock: UXUYUI_clean_sbu_0, # of connection points: 4
#     Node 23, Type 1, BuildingBlock: UXUYUI_clean_sbu_0, # of connection points: 4
#     Node 24, Type 1, BuildingBlock: UXUYUI_clean_sbu_0, # of connection points: 4
#     Node 25, Type 1, BuildingBlock: UXUYUI_clean_sbu_0, # of connection points: 4
#     Node 26, Type 1, BuildingBlock: UXUYUI_clean_sbu_0, # of connection points: 4
#     Node 27, Type 1, BuildingBlock: UXUYUI_clean_sbu_0, # of connection points: 4
#     Edge 28, Type (0, 1), None
#     Edge 29, Type (0, 1), None
#     Edge 30, Type (0, 1), None
#     Edge 31, Type (0, 1), None
#     Edge 32, Type (0, 1), None
#     Edge 33, Type (0, 1), None
#     Edge 34, Type (0, 1), None
#     Edge 35, Type (0, 1), None
#     Edge 36, Type (0, 1), None
#     Edge 37, Type (0, 1), None
#     Edge 38, Type (0, 1), None
#     Edge 39, Type (0, 1), None
#     Edge 40, Type (0, 1), None
#     Edge 41, Type (0, 1), None
#     Edge 42, Type (0, 1), None
#     Edge 43, Type (0, 1), None
#     Edge 44, Type (0, 1), None
#     Edge 45, Type (0, 1), None
#     Edge 46, Type (0, 1), None
#     Edge 47, Type (0, 1), None
#     Edge 48, Type (0, 1), None
#     Edge 49, Type (0, 1), None
#     Edge 50, Type (0, 1), None
#     Edge 51, Type (0, 1), None
#     Edge 52, Type (0, 1), None
#     Edge 53, Type (0, 1), None
#     Edge 54, Type (0, 1), None
#     Edge 55, Type (0, 1), None
#     Edge 56, Type (0, 1), None
#     Edge 57, Type (0, 1), None
#     Edge 58, Type (0, 1), None
#     Edge 59, Type (0, 1), None
#     Edge 60, Type (0, 1), None
#     Edge 61, Type (0, 1), None
#     Edge 62, Type (0, 1), None
#     Edge 63, Type (0, 1), None
#     Edge 64, Type (0, 1), None
#     Edge 65, Type (0, 1), None
#     Edge 66, Type (0, 1), None
#     Edge 67, Type (0, 1), None
#     Edge 68, Type (0, 1), None
#     Edge 69, Type (0, 1), None
#     Edge 70, Type (0, 1), None
#     Edge 71, Type (0, 1), None
#     Edge 72, Type (0, 1), None
#     Edge 73, Type (0, 1), None
#     Edge 74, Type (0, 1), None
#     Edge 75, Type (0, 1), None
# Relax obj value: 0.000
# Max RMSD: 0.005
# Mean RMSD: 0.004
data_MOF--net-ctn--node1-UXUYUI_clean_sbu_0--node2-KAKCAD_clean_linker_0--edge1-none
_symmetry_space_group_name_H-M    P1
_symmetry_Int_Tables_number       1
_symmetry_cell_setting            triclinic
loop_
_symmetry_equiv_pos_as_xyz
'x, y, z'
_cell_length_a     49.737116
_cell_length_b     49.675612
_cell_length_c     49.673043
_cell_angle_alpha  90.108148
_cell_angle_beta   90.376175
_cell_angle_gamma 90.23758
loop_
_atom_site_label
_atom_site_type_symbol
_atom_site_fract_x
_atom_site_fract_y
_atom_site_fract_z
_atom_type_partial_charge
C0 C 0.03844 0.11045 0.9644 0.0
C1 C 0.02936 0.13534 0.97433 0.0
C2 C 0.0419 0.08848 0.98164 0.0
C3 C 0.03667 0.09084 0.00935 0.0
C4 C 0.02764 0.11574 0.01927 0.0
C5 C 0.02388 0.1376 1.002 0.0
C6 C 0.04078 0.06755 0.02787 0.0
C7 C 0.06232 0.04968 0.02404 0.0
C8 C 0.06662 0.02805 0.04172 0.0
C9 C 0.04909 0.02422 0.06344 0.0
C10 C 0.0274 0.04172 0.06757 0.0
C11 C 0.02338 0.06326 0.04971 0.0
C12 C 0.00898 0.03768 0.09063 0.0
C13 C 0.99805 0.01213 0.09605 0.0
C14 C 1.00217 0.05941 0.10737 0.0
C15 C 0.98498 0.05564 0.12921 0.0
C16 C 0.97392 0.03014 0.13456 0.0
C17 C 0.08977 0.00978 0.03772 0.0
C18 C 0.09425 0.9978 0.01251 0.0
C19 C 0.10771 1.00448 0.05901 0.0
C20 C 0.12993 0.9878 0.05505 0.0
C21 C 0.13434 0.9757 0.02988 0.0
C22 C 0.11619 0.9807 0.00869 0.0
C23 C 0.98053 0.00844 0.11768 0.0
H24 H 0.04322 0.10793 0.94332 0.0
H25 H 0.04854 0.06957 0.97314 0.0
H26 H 0.02375 0.11853 0.04051 0.0
H27 H 0.01646 0.15625 0.0104 0.0
H28 H 0.07636 0.053 0.00778 0.0
H29 H 1.00626 0.07636 0.05258 0.0
H30 H 0.05243 0.00764 0.07722 0.0
H31 H 1.00283 0.99507 0.08337 0.0
H32 H 0.01043 0.07928 0.10376 0.0
H33 H 0.9801 0.07276 0.14179 0.0
H34 H 0.08065 1.0015 0.99582 0.0
H35 H 0.10478 0.01361 0.07859 0.0
H36 H 0.97244 0.98853 0.12144 0.0
H37 H 0.11923 0.97173 0.98906 0.0
H38 H 0.14355 0.98415 0.07174 0.0
C39 C 0.3704 0.75794 0.28058 0.0
C40 C 0.387 0.73629 0.28809 0.0
C41 C 0.34836 0.75389 0.26339 0.0
C42 C 0.34224 0.72806 0.25345 0.0
C43 C 0.35872 0.7064 0.261 0.0
C44 C 0.38087 0.71047 0.27803 0.0
C45 C 0.31877 0.72367 0.23525 0.0
C46 C 0.31377 0.7413 0.2137 0.0
C47 C 0.29199 0.73687 0.19604 0.0
C48 C 0.27495 0.71466 0.20033 0.0
C49 C 0.27938 0.697 0.222 0.0
C50 C 0.30142 0.70167 0.23928 0.0
C51 C 0.26093 0.67378 0.22663 0.0
C52 C 0.233 0.67653 0.22296 0.0
C53 C 0.2711 0.64869 0.23481 0.0
C54 C 0.25378 0.62693 0.23926 0.0
C55 C 0.22589 0.62969 0.23549 0.0
C56 C 0.28712 0.75527 0.17296 0.0
C57 C 0.28859 0.78333 0.17641 0.0
C58 C 0.28088 0.74488 0.14731 0.0
C59 C 0.27629 0.76216 0.12558 0.0
C60 C 0.27767 0.79022 0.12904 0.0
C61 C 0.2838 0.80062 0.15472 0.0
C62 C 0.21571 0.65472 0.22725 0.0
H63 H 0.37418 0.77802 0.28827 0.0
H64 H 0.33583 0.77092 0.25819 0.0
H65 H 0.35474 0.68632 0.25337 0.0
H66 H 0.39344 0.6934 0.28292 0.0
H67 H 0.32734 0.75803 0.21017 0.0
H68 H 0.30475 0.68852 0.25636 0.0
H69 H 0.25818 0.71114 0.18673 0.0
H70 H 0.22442 0.69567 0.21713 0.0
H71 H 0.29251 0.64571 0.23741 0.0
H72 H 0.26228 0.60779 0.24521 0.0
H73 H 0.29316 0.79194 0.19597 0.0
H74 H 0.27983 0.72335 0.14395 0.0
H75 H 0.19428 0.65758 0.22452 0.0
H76 H 0.28526 0.82214 0.15797 0.0
H77 H 0.2714 0.75353 0.1061 0.0
C78 C 0.01256 0.48618 0.13943 0.0
C79 C 0.04047 0.48333 0.13618 0.0
C80 C 0.99501 0.4823 0.11766 0.0
C81 C 1.00494 0.47541 0.09214 0.0
C82 C 0.03284 0.47246 0.08891 0.0
C83 C 0.0504 0.4764 0.11066 0.0
C84 C 0.98632 0.47152 0.0689 0.0
C85 C 0.96477 0.48925 0.06469 0.0
C86 C 0.94728 0.48596 0.04259 0.0
C87 C 0.95161 0.46463 0.02451 0.0
C88 C 0.97297 0.44655 0.02843 0.0
C89 C 0.99015 0.45017 0.05076 0.0
C90 C 0.97735 0.42387 0.0093 0.0
C91 C 0.95546 0.40942 0.9984 0.0
C92 C 1.00353 0.4164 1.00191 0.0
C93 C 0.00773 0.39492 0.98425 0.0
C94 C 0.98585 0.38045 0.97332 0.0
C95 C 0.92454 0.50486 0.0384 0.0
C96 C 0.90864 0.51303 0.06022 0.0
C97 C 0.91851 0.51482 0.0126 0.0
C98 C 0.89706 0.53252 0.0087 0.0
C99 C 0.88108 0.54059 0.0305 0.0
C100 C 0.88714 0.53065 0.05631 0.0
C101 C 0.95965 0.38803 0.98058 0.0
H102 H 1.00426 0.49178 0.15874 0.0
H103 H 0.97361 0.48448 0.12088 0.0
H104 H 0.04117 0.46743 0.06945 0.0
H105 H 0.07176 0.4738 0.10753 0.0
H106 H 0.96202 0.50612 0.07826 0.0
H107 H 1.00623 0.43595 0.05441 0.0
H108 H 0.93827 0.46211 0.00735 0.0
H109 H 0.93503 0.41439 1.00386 0.0
H110 H 0.02086 0.42727 0.00964 0.0
H111 H 0.0282 0.38948 0.97944 0.0
H112 H 0.91263 0.50553 0.08031 0.0
H113 H 0.93053 0.50912 0.99542 0.0
H114 H 0.94231 0.37758 0.97234 0.0
H115 H 0.87538 0.53667 0.07357 0.0
H116 H 0.89276 0.53959 0.98852 0.0
C117 C 0.71093 0.73307 0.13693 0.0
C118 C 0.73709 0.72509 0.13006 0.0
C119 C 0.70668 0.75064 0.15848 0.0
C120 C 0.72848 0.76058 0.17375 0.0
C121 C 0.75465 0.75259 0.16687 0.0
C122 C 0.7589 0.73508 0.14526 0.0
C123 C 0.72391 0.77915 0.1968 0.0
C124 C 0.70228 0.77485 0.21435 0.0
C125 C 0.69773 0.79224 0.23616 0.0
C126 C 0.71523 0.81414 0.24044 0.0
C127 C 0.73694 0.81892 0.22304 0.0
C128 C 0.74109 0.80128 0.20129 0.0
C129 C 0.75506 0.8425 0.2273 0.0
C130 C 0.74455 0.86769 0.23461 0.0
C131 C 0.78299 0.84007 0.22383 0.0
C132 C 0.79998 0.8623 0.22755 0.0
C133 C 0.78947 0.88748 0.23488 0.0
C134 C 0.6746 0.7875 0.25435 0.0
C135 C 0.64908 0.78123 0.24368 0.0
C136 C 0.67785 0.78908 0.28244 0.0
C137 C 0.65607 0.78438 0.29949 0.0
C138 C 0.63051 0.77824 0.28881 0.0
C139 C 0.62726 0.77675 0.26072 0.0
C140 C 0.76154 0.88989 0.23836 0.0
H141 H 0.69373 0.7261 0.12536 0.0
H142 H 0.6863 0.75674 0.16294 0.0
H143 H 0.77186 0.75954 0.17845 0.0
H144 H 0.77927 0.72904 0.1407 0.0
H145 H 0.68925 0.75753 0.21142 0.0
H146 H 0.7573 0.80523 0.18736 0.0
H147 H 0.71184 0.82757 0.25729 0.0
H148 H 0.7231 0.87039 0.23698 0.0
H149 H 0.7918 0.82088 0.21857 0.0
H150 H 0.82143 0.85964 0.22509 0.0
H151 H 0.6459 0.78006 0.22212 0.0
H152 H 0.69732 0.79367 0.29124 0.0
H153 H 0.75271 0.90909 0.24357 0.0
H154 H 0.60787 0.77185 0.25189 0.0
H155 H 0.65914 0.7859 0.32105 0.0
C156 C 0.96497 0.97973 0.40312 0.0
C157 C 0.9749 0.98749 0.37785 0.0
C158 C 0.98251 0.9753 0.42476 0.0
C159 C 0.01042 0.97856 0.42164 0.0
C160 C 0.02036 0.9862 0.39634 0.0
C161 C 1.00282 0.99061 0.3747 0.0
C162 C 0.02905 0.97427 0.44478 0.0
C163 C 0.02513 0.95259 0.4625 0.0
C164 C 0.0424 0.94861 0.48467 0.0
C165 C 0.06391 0.96663 0.48885 0.0
C166 C 0.06833 0.98826 0.47121 0.0
C167 C 0.05074 0.99195 0.44929 0.0
C168 C 0.09134 1.00699 0.47563 0.0
C169 C 0.09784 0.01628 0.50163 0.0
C170 C 0.1071 0.01558 0.45385 0.0
C171 C 0.12894 0.03291 0.45798 0.0
C172 C 0.13552 0.04212 0.484 0.0
C173 C 0.03798 0.92564 0.5034 0.0
C174 C 0.01182 0.91802 0.51087 0.0
C175 C 0.05987 0.91118 0.51401 0.0
C176 C 0.0557 0.88975 0.53173 0.0
C177 C 0.02953 0.88209 0.53916 0.0
C178 C 0.00764 0.89648 0.52844 0.0
C179 C 0.11966 0.03367 0.50576 0.0
H180 H 0.94361 0.97685 0.40617 0.0
H181 H 0.97417 0.96968 0.44404 0.0
H182 H 0.04176 0.98862 0.39318 0.0
H183 H 0.01114 0.99682 0.35559 0.0
H184 H 0.00893 0.93843 0.45864 0.0
H185 H 0.05356 0.00907 0.4361 0.0
H186 H 0.07733 0.96381 0.50587 0.0
H187 H 0.08594 0.01027 0.51879 0.0
H188 H 0.10276 0.0086 0.4336 0.0
H189 H 0.14058 0.03925 0.44075 0.0
H190 H 0.99449 0.92886 0.50336 0.0
H191 H 0.08029 0.91624 0.50845 0.0
H192 H 0.12434 0.04016 0.52609 0.0
H193 H 0.98718 0.89095 0.53337 0.0
H194 H 0.07307 0.87937 0.5398 0.0
C195 C 0.13436 0.71213 0.73448 0.0
C196 C 0.12843 0.73806 0.72478 0.0
C197 C 0.15626 0.70796 0.75175 0.0
C198 C 0.17264 0.72963 0.75992 0.0
C199 C 0.16674 0.75555 0.75034 0.0
C200 C 0.14498 0.7597 0.73289 0.0
C201 C 0.19582 0.72519 0.77839 0.0
C202 C 0.21343 0.70361 0.77406 0.0
C203 C 0.23534 0.69903 0.79146 0.0
C204 C 0.2395 0.71653 0.81343 0.0
C205 C 0.22208 0.73829 0.81815 0.0
C206 C 0.20031 0.74242 0.80044 0.0
C207 C 0.22645 0.75653 0.84169 0.0
C208 C 0.23498 0.74622 0.86668 0.0
C209 C 0.22203 0.78441 0.83941 0.0
C210 C 0.22596 0.80148 0.86153 0.0
C211 C 0.23463 0.79114 0.88642 0.0
C212 C 0.2538 0.67595 0.78666 0.0
C213 C 0.24364 0.65095 0.77784 0.0
C214 C 0.28168 0.67868 0.7908 0.0
C215 C 0.29893 0.65698 0.78632 0.0
C216 C 0.28877 0.63199 0.77744 0.0
C217 C 0.26089 0.62931 0.7732 0.0
C218 C 0.23911 0.76332 0.88873 0.0
H219 H 0.12183 0.69505 0.72912 0.0
H220 H 0.16011 0.68781 0.75908 0.0
H221 H 0.17923 0.77258 0.75603 0.0
H222 H 0.14137 0.77986 0.72549 0.0
H223 H 0.21038 0.69073 0.75666 0.0
H224 H 0.18632 0.75864 0.80421 0.0
H225 H 0.25631 0.71316 0.82695 0.0
H226 H 0.23809 0.72483 0.86937 0.0
H227 H 0.21588 0.79315 0.8204 0.0
H228 H 0.22267 0.82287 0.85903 0.0
H229 H 0.22226 0.64797 0.77474 0.0
H230 H 0.29029 0.6977 0.79727 0.0
H231 H 0.24542 0.75468 0.90774 0.0
H232 H 0.25233 0.61052 0.76605 0.0
H233 H 0.32022 0.65974 0.79014 0.0
C234 C 0.99145 0.63918 0.51077 0.0
C235 C 0.98547 0.63719 0.53835 0.0
C236 C 0.98754 0.61722 0.49354 0.0
C237 C 0.97782 0.59254 0.50343 0.0
C238 C 0.97202 0.59048 0.53104 0.0
C239 C 0.97567 0.61253 0.54823 0.0
C240 C 0.97371 0.56909 0.48503 0.0
C241 C 0.99179 0.5641 0.46398 0.0
C242 C 0.98792 0.54228 0.44628 0.0
C243 C 0.96588 0.52492 0.45023 0.0
C244 C 0.94769 0.52935 0.47133 0.0
C245 C 0.95165 0.55165 0.4884 0.0
C246 C 0.92458 0.51071 0.47567 0.0
C247 C 0.90979 0.50023 0.45378 0.0
C248 C 0.91712 0.50327 0.50189 0.0
C249 C 0.8954 0.4859 0.50613 0.0
C250 C 0.8806 0.47538 0.48427 0.0
C251 C 1.00684 0.53781 0.42361 0.0
C252 C 0.01659 0.55971 0.40861 0.0
C253 C 0.01522 0.51171 0.41668 0.0
C254 C 0.03284 0.50762 0.39522 0.0
C255 C 0.04252 0.52954 0.38018 0.0
C256 C 0.03423 0.55564 0.38721 0.0
C257 C 0.88809 0.48277 0.45802 0.0
H258 H 0.9994 0.65767 0.50243 0.0
H259 H 0.99192 0.61972 0.47236 0.0
H260 H 0.96484 0.57172 0.53949 0.0
H261 H 0.97049 0.61027 0.56924 0.0
H262 H 0.00929 0.57691 0.46165 0.0
H263 H 0.93713 0.55577 0.50402 0.0
H264 H 0.96287 0.50794 0.43682 0.0
H265 H 0.91479 0.50575 0.43333 0.0
H266 H 0.92823 0.51069 0.51922 0.0
H267 H 0.89003 0.48097 0.52664 0.0
H268 H 0.01034 0.58006 0.41318 0.0
H269 H 0.00834 0.4944 0.42797 0.0
H270 H 0.87734 0.47485 0.44069 0.0
H271 H 0.04151 0.57302 0.37628 0.0
H272 H 0.03855 0.48722 0.3902 0.0
C273 C 0.80704 0.73265 0.87768 0.0
C274 C 0.78102 0.72408 0.88459 0.0
C275 C 0.81101 0.75001 0.85594 0.0
C276 C 0.78905 0.75916 0.84055 0.0
C277 C 0.76303 0.75053 0.84744 0.0
C278 C 0.75906 0.73322 0.86922 0.0
C279 C 0.7933 0.77765 0.81742 0.0
C280 C 0.81503 0.77379 0.7999 0.0
C281 C 0.81931 0.79119 0.77809 0.0
C282 C 0.80156 0.81273 0.77386 0.0
C283 C 0.77974 0.81698 0.79118 0.0
C284 C 0.77575 0.7993 0.81286 0.0
C285 C 0.76135 0.84011 0.7869 0.0
C286 C 0.77166 0.86575 0.78087 0.0
C287 C 0.73337 0.83675 0.78905 0.0
C288 C 0.71609 0.85856 0.7852 0.0
C289 C 0.72638 0.88428 0.77924 0.0
C290 C 0.84235 0.78683 0.75974 0.0
C291 C 0.86803 0.7811 0.77019 0.0
C292 C 0.83884 0.78829 0.73168 0.0
C293 C 0.86052 0.78401 0.71445 0.0
C294 C 0.88623 0.77843 0.72491 0.0
C295 C 0.88975 0.77705 0.75297 0.0
C296 C 0.7544 0.88759 0.77715 0.0
H297 H 0.82434 0.72633 0.88937 0.0
H298 H 0.83127 0.7566 0.85146 0.0
H299 H 0.74572 0.75687 0.83576 0.0
H300 H 0.7388 0.7267 0.8738 0.0
H301 H 0.82831 0.75679 0.80285 0.0
H302 H 0.75937 0.8029 0.82668 0.0
H303 H 0.80478 0.82626 0.75708 0.0
H304 H 0.79315 0.86907 0.7795 0.0
H305 H 0.72481 0.81716 0.79336 0.0
H306 H 0.69462 0.85515 0.78653 0.0
H307 H 0.87138 0.78005 0.79173 0.0
H308 H 0.81924 0.79245 0.72305 0.0
H309 H 0.76309 0.90717 0.77309 0.0
H310 H 0.90927 0.77258 0.76161 0.0
H311 H 0.85725 0.78543 0.69292 0.0
C312 C 0.30704 0.23265 0.37768 0.0
C313 C 0.28102 0.22408 0.38459 0.0
C314 C 0.31101 0.25001 0.35594 0.0
C315 C 0.28905 0.25916 0.34055 0.0
C316 C 0.26303 0.25053 0.34744 0.0
C317 C 0.25906 0.23322 0.36922 0.0
C318 C 0.2933 0.27765 0.31742 0.0
C319 C 0.31503 0.27379 0.2999 0.0
C320 C 0.31931 0.29119 0.27808 0.0
C321 C 0.30156 0.31273 0.27386 0.0
C322 C 0.27974 0.31698 0.29118 0.0
C323 C 0.27575 0.2993 0.31286 0.0
C324 C 0.26135 0.34011 0.2869 0.0
C325 C 0.27166 0.36575 0.28087 0.0
C326 C 0.23337 0.33675 0.28905 0.0
C327 C 0.21609 0.35856 0.2852 0.0
C328 C 0.22638 0.38428 0.27924 0.0
C329 C 0.34235 0.28683 0.25974 0.0
C330 C 0.36803 0.2811 0.27019 0.0
C331 C 0.33884 0.28829 0.23168 0.0
C332 C 0.36052 0.28401 0.21445 0.0
C333 C 0.38623 0.27843 0.22491 0.0
C334 C 0.38975 0.27705 0.25297 0.0
C335 C 0.2544 0.38759 0.27715 0.0
H336 H 0.32434 0.22633 0.38937 0.0
H337 H 0.33127 0.2566 0.35146 0.0
H338 H 0.24572 0.25687 0.33576 0.0
H339 H 0.2388 0.2267 0.3738 0.0
H340 H 0.32831 0.25679 0.30285 0.0
H341 H 0.25937 0.3029 0.32668 0.0
H342 H 0.30478 0.32626 0.25708 0.0
H343 H 0.29315 0.36907 0.2795 0.0
H344 H 0.22481 0.31716 0.29335 0.0
H345 H 0.19462 0.35515 0.28653 0.0
H346 H 0.37138 0.28005 0.29173 0.0
H347 H 0.31924 0.29245 0.22305 0.0
H348 H 0.26309 0.40717 0.27309 0.0
H349 H 0.40927 0.27257 0.26161 0.0
H350 H 0.35725 0.28543 0.19292 0.0
C351 C 0.51256 0.98618 0.63943 0.0
C352 C 0.54047 0.98333 0.63618 0.0
C353 C 0.49501 0.9823 0.61766 0.0
C354 C 0.50494 0.97541 0.59214 0.0
C355 C 0.53284 0.97246 0.58891 0.0
C356 C 0.5504 0.9764 0.61066 0.0
C357 C 0.48632 0.97152 0.5689 0.0
C358 C 0.46477 0.98925 0.56469 0.0
C359 C 0.44728 0.98596 0.54259 0.0
C360 C 0.45161 0.96463 0.52451 0.0
C361 C 0.47297 0.94655 0.52843 0.0
C362 C 0.49015 0.95017 0.55076 0.0
C363 C 0.47735 0.92387 0.5093 0.0
C364 C 0.45546 0.90942 0.4984 0.0
C365 C 0.50353 0.9164 0.50191 0.0
C366 C 0.50773 0.89492 0.48425 0.0
C367 C 0.48585 0.88045 0.47332 0.0
C368 C 0.42454 1.00486 0.5384 0.0
C369 C 0.40864 0.01303 0.56022 0.0
C370 C 0.41851 0.01482 0.5126 0.0
C371 C 0.39706 0.03252 0.5087 0.0
C372 C 0.38108 0.04059 0.5305 0.0
C373 C 0.38714 0.03065 0.55631 0.0
C374 C 0.45965 0.88803 0.48058 0.0
H375 H 0.50426 0.99178 0.65874 0.0
H376 H 0.47361 0.98448 0.62088 0.0
H377 H 0.54117 0.96743 0.56945 0.0
H378 H 0.57176 0.9738 0.60753 0.0
H379 H 0.46202 1.00612 0.57826 0.0
H380 H 0.50623 0.93595 0.55441 0.0
H381 H 0.43827 0.96211 0.50735 0.0
H382 H 0.43503 0.91439 0.50386 0.0
H383 H 0.52086 0.92727 0.50963 0.0
H384 H 0.5282 0.88948 0.47944 0.0
H385 H 0.41263 1.00553 0.58031 0.0
H386 H 0.43053 0.00912 0.49542 0.0
H387 H 0.44231 0.87758 0.47234 0.0
H388 H 0.37538 0.03667 0.57357 0.0
H389 H 0.39276 0.03959 0.48852 0.0
C390 C 0.21093 0.23307 0.63693 0.0
C391 C 0.23709 0.22509 0.63006 0.0
C392 C 0.20668 0.25064 0.65848 0.0
C393 C 0.22848 0.26058 0.67375 0.0
C394 C 0.25465 0.25259 0.66687 0.0
C395 C 0.2589 0.23508 0.64526 0.0
C396 C 0.22391 0.27915 0.6968 0.0
C397 C 0.20228 0.27485 0.71435 0.0
C398 C 0.19773 0.29224 0.73616 0.0
C399 C 0.21523 0.31414 0.74044 0.0
C400 C 0.23694 0.31892 0.72304 0.0
C401 C 0.24109 0.30128 0.70129 0.0
C402 C 0.25506 0.3425 0.7273 0.0
C403 C 0.24455 0.36769 0.73461 0.0
C404 C 0.28299 0.34007 0.72383 0.0
C405 C 0.29998 0.36229 0.72755 0.0
C406 C 0.28947 0.38747 0.73488 0.0
C407 C 0.1746 0.2875 0.75435 0.0
C408 C 0.14908 0.28123 0.74368 0.0
C409 C 0.17785 0.28908 0.78244 0.0
C410 C 0.15607 0.28438 0.79949 0.0
C411 C 0.13051 0.27824 0.78881 0.0
C412 C 0.12726 0.27675 0.76072 0.0
C413 C 0.26154 0.38989 0.73836 0.0
H414 H 0.19373 0.2261 0.62536 0.0
H415 H 0.1863 0.25674 0.66294 0.0
H416 H 0.27186 0.25954 0.67845 0.0
H417 H 0.27927 0.22904 0.6407 0.0
H418 H 0.18925 0.25753 0.71142 0.0
H419 H 0.2573 0.30523 0.68736 0.0
H420 H 0.21184 0.32757 0.75729 0.0
H421 H 0.2231 0.37039 0.73698 0.0
H422 H 0.2918 0.32088 0.71857 0.0
H423 H 0.32143 0.35964 0.72509 0.0
H424 H 0.1459 0.28006 0.72212 0.0
H425 H 0.19732 0.29367 0.79124 0.0
H426 H 0.25271 0.40909 0.74357 0.0
H427 H 0.10787 0.27185 0.75189 0.0
H428 H 0.15914 0.2859 0.82105 0.0
C429 C 0.8704 0.25794 0.78058 0.0
C430 C 0.887 0.23629 0.78809 0.0
C431 C 0.84836 0.25389 0.76339 0.0
C432 C 0.84224 0.22806 0.75345 0.0
C433 C 0.85872 0.2064 0.761 0.0
C434 C 0.88087 0.21047 0.77803 0.0
C435 C 0.81877 0.22367 0.73525 0.0
C436 C 0.81377 0.2413 0.7137 0.0
C437 C 0.79199 0.23687 0.69604 0.0
C438 C 0.77495 0.21466 0.70033 0.0
C439 C 0.77938 0.197 0.722 0.0
C440 C 0.80142 0.20167 0.73928 0.0
C441 C 0.76093 0.17378 0.72663 0.0
C442 C 0.733 0.17653 0.72296 0.0
C443 C 0.7711 0.14869 0.73481 0.0
C444 C 0.75378 0.12693 0.73926 0.0
C445 C 0.72589 0.12969 0.73549 0.0
C446 C 0.78712 0.25527 0.67296 0.0
C447 C 0.78859 0.28333 0.67641 0.0
C448 C 0.78088 0.24488 0.64731 0.0
C449 C 0.77629 0.26216 0.62558 0.0
C450 C 0.77767 0.29022 0.62904 0.0
C451 C 0.7838 0.30062 0.65472 0.0
C452 C 0.71571 0.15472 0.72725 0.0
H453 H 0.87418 0.27802 0.78827 0.0
H454 H 0.83583 0.27092 0.75819 0.0
H455 H 0.85474 0.18632 0.75337 0.0
H456 H 0.89344 0.1934 0.78292 0.0
H457 H 0.82734 0.25803 0.71017 0.0
H458 H 0.80475 0.18852 0.75636 0.0
H459 H 0.75818 0.21114 0.68673 0.0
H460 H 0.72442 0.19567 0.71713 0.0
H461 H 0.79251 0.14571 0.73741 0.0
H462 H 0.76228 0.10779 0.74521 0.0
H463 H 0.79316 0.29194 0.69597 0.0
H464 H 0.77983 0.22335 0.64395 0.0
H465 H 0.69428 0.15758 0.72452 0.0
H466 H 0.78526 0.32214 0.65797 0.0
H467 H 0.7714 0.25353 0.6061 0.0
C468 C 0.53844 0.61045 0.4644 0.0
C469 C 0.52936 0.63534 0.47433 0.0
C470 C 0.5419 0.58848 0.48164 0.0
C471 C 0.53667 0.59084 0.50935 0.0
C472 C 0.52764 0.61574 0.51927 0.0
C473 C 0.52388 0.6376 0.502 0.0
C474 C 0.54078 0.56755 0.52787 0.0
C475 C 0.56232 0.54968 0.52404 0.0
C476 C 0.56662 0.52805 0.54172 0.0
C477 C 0.54909 0.52422 0.56344 0.0
C478 C 0.5274 0.54172 0.56757 0.0
C479 C 0.52338 0.56326 0.54971 0.0
C480 C 0.50898 0.53768 0.59063 0.0
C481 C 0.49805 0.51213 0.59605 0.0
C482 C 0.50217 0.55941 0.60737 0.0
C483 C 0.48497 0.55564 0.62921 0.0
C484 C 0.47392 0.53014 0.63456 0.0
C485 C 0.58977 0.50978 0.53772 0.0
C486 C 0.59425 0.4978 0.51251 0.0
C487 C 0.60771 0.50448 0.55901 0.0
C488 C 0.62993 0.4878 0.55505 0.0
C489 C 0.63434 0.4757 0.52988 0.0
C490 C 0.61619 0.4807 0.50869 0.0
C491 C 0.48053 0.50844 0.61768 0.0
H492 H 0.54322 0.60793 0.44332 0.0
H493 H 0.54854 0.56957 0.47314 0.0
H494 H 0.52375 0.61853 0.54051 0.0
H495 H 0.51646 0.65625 0.5104 0.0
H496 H 0.57636 0.553 0.50778 0.0
H497 H 0.50626 0.57636 0.55258 0.0
H498 H 0.55243 0.50764 0.57722 0.0
H499 H 0.50283 0.49507 0.58337 0.0
H500 H 0.51043 0.57928 0.60376 0.0
H501 H 0.4801 0.57276 0.64179 0.0
H502 H 0.58064 0.5015 0.49582 0.0
H503 H 0.60478 0.51361 0.57859 0.0
H504 H 0.47244 0.48853 0.62144 0.0
H505 H 0.61923 0.47173 0.48906 0.0
H506 H 0.64355 0.48415 0.57174 0.0
C507 C 0.46497 0.47973 0.90312 0.0
C508 C 0.4749 0.48749 0.87785 0.0
C509 C 0.48251 0.4753 0.92476 0.0
C510 C 0.51042 0.47856 0.92164 0.0
C511 C 0.52036 0.4862 0.89634 0.0
C512 C 0.50282 0.49061 0.8747 0.0
C513 C 0.52905 0.47427 0.94478 0.0
C514 C 0.52513 0.45259 0.9625 0.0
C515 C 0.5424 0.44861 0.98467 0.0
C516 C 0.56391 0.46663 0.98885 0.0
C517 C 0.56833 0.48826 0.97121 0.0
C518 C 0.55074 0.49195 0.9493 0.0
C519 C 0.59134 0.50699 0.97563 0.0
C520 C 0.59784 0.51628 1.00163 0.0
C521 C 0.6071 0.51558 0.95385 0.0
C522 C 0.62894 0.53291 0.95798 0.0
C523 C 0.63552 0.54212 0.984 0.0
C524 C 0.53798 0.42564 1.0034 0.0
C525 C 0.51182 0.41802 0.01087 0.0
C526 C 0.55987 0.41118 0.01401 0.0
C527 C 0.5557 0.38975 0.03173 0.0
C528 C 0.52953 0.38209 0.03916 0.0
C529 C 0.50764 0.39648 0.02844 0.0
C530 C 0.61966 0.53367 1.00576 0.0
H531 H 0.44361 0.47685 0.90617 0.0
H532 H 0.47417 0.46968 0.94404 0.0
H533 H 0.54176 0.48862 0.89318 0.0
H534 H 0.51114 0.49682 0.85559 0.0
H535 H 0.50893 0.43843 0.95864 0.0
H536 H 0.55356 0.50907 0.9361 0.0
H537 H 0.57733 0.46381 1.00588 0.0
H538 H 0.58594 0.51027 0.01879 0.0
H539 H 0.60276 0.5086 0.9336 0.0
H540 H 0.64058 0.53925 0.94075 0.0
H541 H 0.49449 0.42886 1.00336 0.0
H542 H 0.58029 0.41624 0.00845 0.0
H543 H 0.62434 0.54016 0.02609 0.0
H544 H 0.48718 0.39095 0.03337 0.0
H545 H 0.57307 0.37937 0.0398 0.0
C546 C 0.63436 0.21213 0.23448 0.0
C547 C 0.62843 0.23806 0.22478 0.0
C548 C 0.65626 0.20796 0.25175 0.0
C549 C 0.67264 0.22963 0.25992 0.0
C550 C 0.66674 0.25555 0.25034 0.0
C551 C 0.64498 0.2597 0.23289 0.0
C552 C 0.69582 0.22519 0.27839 0.0
C553 C 0.71343 0.20361 0.27406 0.0
C554 C 0.73534 0.19903 0.29146 0.0
C555 C 0.7395 0.21653 0.31343 0.0
C556 C 0.72208 0.23829 0.31815 0.0
C557 C 0.70031 0.24242 0.30044 0.0
C558 C 0.72645 0.25653 0.34169 0.0
C559 C 0.73498 0.24622 0.36668 0.0
C560 C 0.72203 0.28441 0.33941 0.0
C561 C 0.72596 0.30148 0.36153 0.0
C562 C 0.73463 0.29114 0.38642 0.0
C563 C 0.7538 0.17595 0.28666 0.0
C564 C 0.74364 0.15095 0.27784 0.0
C565 C 0.78168 0.17868 0.2908 0.0
C566 C 0.79893 0.15698 0.28632 0.0
C567 C 0.78877 0.13199 0.27744 0.0
C568 C 0.76089 0.12931 0.2732 0.0
C569 C 0.73911 0.26332 0.38873 0.0
H570 H 0.62183 0.19505 0.22912 0.0
H571 H 0.66011 0.18781 0.25908 0.0
H572 H 0.67923 0.27258 0.25603 0.0
H573 H 0.64137 0.27986 0.22549 0.0
H574 H 0.71038 0.19073 0.25666 0.0
H575 H 0.68632 0.25864 0.30421 0.0
H576 H 0.75631 0.21316 0.32695 0.0
H577 H 0.73809 0.22483 0.36937 0.0
H578 H 0.71588 0.29315 0.3204 0.0
H579 H 0.72267 0.32287 0.35903 0.0
H580 H 0.72226 0.14797 0.27474 0.0
H581 H 0.79029 0.1977 0.29727 0.0
H582 H 0.74542 0.25468 0.40774 0.0
H583 H 0.75233 0.11052 0.26605 0.0
H584 H 0.82022 0.15974 0.29014 0.0
C585 C 0.49145 0.13918 0.01077 0.0
C586 C 0.48547 0.13719 0.03835 0.0
C587 C 0.48755 0.11722 0.99354 0.0
C588 C 0.47782 0.09254 1.00343 0.0
C589 C 0.47202 0.09048 0.03104 0.0
C590 C 0.47567 0.11253 0.04823 0.0
C591 C 0.47371 0.06909 0.98503 0.0
C592 C 0.49179 0.06409 0.96398 0.0
C593 C 0.48792 0.04228 0.94628 0.0
C594 C 0.46588 0.02492 0.95023 0.0
C595 C 0.44769 0.02935 0.97133 0.0
C596 C 0.45165 0.05165 0.9884 0.0
C597 C 0.42458 0.01071 0.97567 0.0
C598 C 0.40979 1.00023 0.95378 0.0
C599 C 0.41712 1.00327 1.00189 0.0
C600 C 0.3954 0.9859 1.00613 0.0
C601 C 0.3806 0.97538 0.98427 0.0
C602 C 0.50684 0.03781 0.92361 0.0
C603 C 0.51659 0.05971 0.90861 0.0
C604 C 0.51522 0.01171 0.91668 0.0
C605 C 0.53284 0.00762 0.89522 0.0
C606 C 0.54252 0.02954 0.88018 0.0
C607 C 0.53423 0.05564 0.88721 0.0
C608 C 0.38809 0.98277 0.95802 0.0
H609 H 0.4994 0.15767 1.00243 0.0
H610 H 0.49192 0.11972 0.97236 0.0
H611 H 0.46484 0.07172 0.03949 0.0
H612 H 0.47049 0.11027 0.06924 0.0
H613 H 0.50929 0.07691 0.96165 0.0
H614 H 0.43713 0.05577 1.00402 0.0
H615 H 0.46287 0.00794 0.93682 0.0
H616 H 0.41479 1.00575 0.93333 0.0
H617 H 0.42823 0.01069 0.01922 0.0
H618 H 0.39003 0.98097 0.02664 0.0
H619 H 0.51034 0.08006 0.91318 0.0
H620 H 0.50834 0.9944 0.92797 0.0
H621 H 0.37734 0.97485 0.94069 0.0
H622 H 0.54151 0.07302 0.87628 0.0
H623 H 0.53856 0.98722 0.8902 0.0
Li624 Li 0.28304 0.9001 1.00439 0.0
Li625 Li 0.26146 0.86731 0.03234 0.0
Li626 Li 0.2538 0.86626 0.98415 0.0
Li627 Li 0.23244 0.90216 0.01347 0.0
C628 C 0.31468 0.85779 0.99869 0.0
N629 N 0.36907 0.85346 0.98852 0.0
C630 C 0.3327 0.85225 0.01967 0.0
C631 C 0.32433 0.8609 0.97252 0.0
C632 C 0.36012 0.85018 0.01412 0.0
C633 C 0.35189 0.85872 0.96779 0.0
C634 C 0.26923 0.90982 0.06546 0.0
C635 C 0.25665 0.92368 0.11021 0.0
N636 N 0.28087 0.91517 0.11971 0.0
C637 C 0.29399 0.90124 0.07568 0.0
C638 C 0.25037 0.92112 0.08286 0.0
C639 C 0.29949 0.90408 0.10315 0.0
C640 C 0.31231 0.94134 0.97822 0.0
N641 N 0.31383 0.92282 0.9983 0.0
C642 C 0.3584 0.93755 0.00951 0.0
C643 C 0.33625 0.92083 0.01399 0.0
C644 C 0.35744 0.95688 0.98891 0.0
C645 C 0.33395 0.9586 0.97312 0.0
H646 H 0.29413 0.94298 0.96633 0.0
H647 H 0.33708 0.9063 0.03002 0.0
C648 C 0.28008 0.82098 0.05935 0.0
N649 N 0.26543 0.84374 0.06297 0.0
C650 C 0.2842 0.80311 0.08063 0.0
C651 C 0.25726 0.83183 0.10888 0.0
C652 C 0.2535 0.84903 0.08697 0.0
C653 C 0.27298 0.8086 0.10592 0.0
H654 H 0.28859 0.81667 0.03985 0.0
H655 H 0.2409 0.86652 0.08915 0.0
C656 C 0.24581 0.90959 0.9523 0.0
N657 N 0.23158 0.91524 0.89874 0.0
C658 C 0.21977 0.91747 0.94523 0.0
C659 C 0.26472 0.90495 0.93214 0.0
C660 C 0.21294 0.92014 0.91803 0.0
C661 C 0.25711 0.9078 0.90518 0.0
C662 C 0.21357 0.84483 0.02873 0.0
C663 C 0.21791 0.81732 0.02495 0.0
C664 C 0.19692 0.85359 0.04951 0.0
C665 C 0.20565 0.79894 0.04228 0.0
C666 C 0.185 0.83456 0.06638 0.0
N667 N 0.1896 0.80787 0.06247 0.0
C668 C 0.26569 0.82365 0.94838 0.0
C669 C 0.22501 0.84628 0.93836 0.0
C670 C 0.26184 0.80635 0.92647 0.0
N671 N 0.24756 0.84334 0.95369 0.0
C672 C 0.22049 0.8296 0.91607 0.0
C673 C 0.23907 0.8093 0.90987 0.0
H674 H 0.28309 0.82122 0.96126 0.0
H675 H 0.21043 0.86146 0.94352 0.0
C676 C 0.20579 0.94982 0.02913 0.0
N677 N 0.20213 0.92493 0.01824 0.0
C678 C 0.1838 0.96669 0.03334 0.0
C679 C 0.15483 0.93244 0.01403 0.0
C680 C 0.17732 0.91602 0.01067 0.0
C681 C 0.15793 0.95805 0.0257 0.0
H682 H 0.22581 0.9565 0.03465 0.0
H683 H 0.17505 0.89616 1.00194 0.0
O684 O 0.28774 0.86008 1.00373 0.0
O685 O 0.26345 0.90716 0.03861 0.0
O686 O 0.25277 0.90657 0.97882 0.0
O687 O 0.22599 0.86315 0.01249 0.0
H688 H 0.32571 0.84999 0.0401 0.0
H689 H 0.31069 0.86493 0.95602 0.0
H690 H 0.37429 0.84608 0.03019 0.0
H691 H 0.35962 0.86118 0.94764 0.0
H692 H 0.24222 0.93232 0.1239 0.0
H693 H 0.30853 0.89189 0.06268 0.0
H694 H 0.23097 0.92756 0.07544 0.0
H695 H 0.31851 0.89734 0.11134 0.0
H696 H 0.37615 0.93521 0.02201 0.0
H697 H 0.33205 0.97348 0.95734 0.0
H698 H 0.2964 0.7854 0.07743 0.0
H699 H 0.24768 0.83648 0.12783 0.0
H700 H 0.20493 0.92133 0.96053 0.0
H701 H 0.28505 0.89922 0.93724 0.0
H702 H 0.19281 0.92607 0.91227 0.0
H703 H 0.2715 0.90412 0.88938 0.0
H704 H 0.23085 0.81029 0.00898 0.0
H705 H 0.19357 0.87485 0.0528 0.0
H706 H 0.20894 0.77758 0.03974 0.0
H707 H 0.1722 0.84103 0.08266 0.0
H708 H 0.27669 0.79101 0.92241 0.0
H709 H 0.20241 0.83223 0.90411 0.0
H710 H 0.187 0.98642 0.04214 0.0
H711 H 0.13517 0.92507 0.00797 0.0
Li712 Li 0.11753 0.51154 0.28302 0.0
Li713 Li 0.15124 0.48186 0.26274 0.0
Li714 Li 0.15097 0.53198 0.2538 0.0
Li715 Li 0.11692 0.50222 0.23299 0.0
C716 C 0.16093 0.51715 0.31508 0.0
N717 N 0.16738 0.52669 0.36957 0.0
C718 C 0.16881 0.49634 0.33226 0.0
C719 C 0.15673 0.54291 0.32556 0.0
C720 C 0.17187 0.50154 0.35976 0.0
C721 C 0.15997 0.5473 0.35318 0.0
C722 C 0.10498 0.45022 0.26496 0.0
C723 C 0.09947 0.40684 0.24367 0.0
N724 N 0.09185 0.39618 0.26765 0.0
C725 C 0.09673 0.43891 0.2893 0.0
C726 C 0.10606 0.43414 0.24188 0.0
C727 C 0.09032 0.41152 0.29029 0.0
C728 C 0.07544 0.53593 0.3118 0.0
N729 N 0.09504 0.51702 0.31362 0.0
C730 C 0.08133 0.50573 0.35829 0.0
C731 C 0.09814 0.50188 0.33619 0.0
C732 C 0.06094 0.52523 0.35706 0.0
C733 C 0.05814 0.54041 0.33336 0.0
H734 H 0.07301 0.54734 0.29346 0.0
H735 H 0.11358 0.48666 0.33703 0.0
C736 C 0.19614 0.44902 0.25252 0.0
N737 N 0.17388 0.45128 0.26807 0.0
C738 C 0.21343 0.42716 0.25565 0.0
C739 C 0.18502 0.41066 0.29132 0.0
C740 C 0.16821 0.43279 0.28739 0.0
C741 C 0.20801 0.40756 0.27529 0.0
H742 H 0.20057 0.46427 0.2377 0.0
H743 H 0.15092 0.43546 0.30013 0.0
C744 C 0.10713 0.56323 0.24637 0.0
N745 N 0.0996 0.61684 0.23374 0.0
C746 C 0.09877 0.57059 0.2205 0.0
C747 C 0.11124 0.58311 0.26593 0.0
C748 C 0.09517 0.5978 0.21448 0.0
C749 C 0.10746 0.6101 0.25912 0.0
C750 C 0.16353 0.49413 0.20277 0.0
C751 C 0.17341 0.5132 0.18466 0.0
C752 C 0.1611 0.46725 0.19473 0.0
C753 C 0.18014 0.50516 0.1586 0.0
C754 C 0.16805 0.45999 0.16851 0.0
N755 N 0.1773 0.47894 0.15112 0.0
C756 C 0.19374 0.56762 0.26596 0.0
C757 C 0.16973 0.57868 0.22618 0.0
C758 C 0.21107 0.58949 0.2623 0.0
N759 N 0.1735 0.5627 0.24808 0.0
C760 C 0.18645 0.60088 0.22183 0.0
C761 C 0.20752 0.60649 0.23999 0.0
H762 H 0.19659 0.55441 0.283 0.0
H763 H 0.15396 0.574 0.21186 0.0
C764 C 0.07051 0.48295 0.20652 0.0
N765 N 0.09402 0.49636 0.20248 0.0
C766 C 0.05276 0.47832 0.18509 0.0
C767 C 0.08348 0.50179 0.15577 0.0
C768 C 0.10062 0.50599 0.17778 0.0
C769 C 0.05917 0.48776 0.15926 0.0
H770 H 0.0655 0.47589 0.22645 0.0
H771 H 0.1189 0.51743 0.1752 0.0
O772 O 0.15754 0.51238 0.28814 0.0
O773 O 0.11141 0.47701 0.26366 0.0
O774 O 0.11098 0.53668 0.25256 0.0
O775 O 0.15673 0.5017 0.22834 0.0
H776 H 0.17239 0.47635 0.32448 0.0
H777 H 0.15106 0.55933 0.31251 0.0
H778 H 0.17779 0.48557 0.37331 0.0
H779 H 0.15663 0.56711 0.36157 0.0
H780 H 0.10031 0.39416 0.22597 0.0
H781 H 0.09547 0.45109 0.30729 0.0
H782 H 0.11162 0.44267 0.22272 0.0
H783 H 0.08412 0.40247 0.30905 0.0
H784 H 0.08441 0.4937 0.37619 0.0
H785 H 0.04242 0.55529 0.33126 0.0
H786 H 0.23076 0.42556 0.24267 0.0
H787 H 0.18033 0.39644 0.30711 0.0
H788 H 0.09525 0.55549 0.20518 0.0
H789 H 0.11727 0.57776 0.28614 0.0
H790 H 0.08888 0.60379 0.19449 0.0
H791 H 0.11073 0.6257 0.27402 0.0
H792 H 0.17574 0.53402 0.19059 0.0
H793 H 0.15424 0.45208 0.20866 0.0
H794 H 0.18764 0.51976 0.14433 0.0
H795 H 0.16619 0.43926 0.16202 0.0
H796 H 0.22695 0.59317 0.27688 0.0
H797 H 0.18328 0.61319 0.20413 0.0
H798 H 0.03431 0.46727 0.18869 0.0
H799 H 0.08897 0.50994 0.13635 0.0
Li800 Li 0.73403 0.61609 1.00284 0.0
Li801 Li 0.75485 0.64989 0.03267 0.0
Li802 Li 0.76367 0.64975 0.98255 0.0
Li803 Li 0.78411 0.61591 0.01228 0.0
C804 C 0.70297 0.66089 0.99639 0.0
N805 N 0.64943 0.67046 0.98477 0.0
C806 C 0.68559 0.66946 0.01664 0.0
C807 C 0.69321 0.65767 0.97013 0.0
C808 C 0.65857 0.67407 0.01039 0.0
C809 C 0.66606 0.66247 0.96468 0.0
C810 C 0.75016 0.60473 0.06418 0.0
C811 C 0.76778 0.60233 0.10947 0.0
N812 N 0.74321 0.59431 0.11833 0.0
C813 C 0.72518 0.59611 0.07369 0.0
C814 C 0.77172 0.60756 0.08215 0.0
C815 C 0.72204 0.59107 0.10115 0.0
C816 C 0.70519 0.57288 0.97949 0.0
N817 N 0.70316 0.59377 0.99706 0.0
C818 C 0.65759 0.58185 0.00666 0.0
C819 C 0.68003 0.59839 0.01073 0.0
C820 C 0.65901 0.56024 0.98844 0.0
C821 C 0.68325 0.55586 0.97476 0.0
H822 H 0.72398 0.56922 0.96934 0.0
H823 H 0.67905 0.61474 0.02504 0.0
C824 C 0.76618 0.69386 0.06705 0.0
N825 N 0.74948 0.67241 0.06337 0.0
C826 C 0.76268 0.71119 0.08891 0.0
C827 C 0.72454 0.68434 0.10259 0.0
C828 C 0.72885 0.66749 0.08052 0.0
C829 C 0.74158 0.70657 0.10701 0.0
H830 H 0.78204 0.69774 0.05279 0.0
H831 H 0.71543 0.65073 0.07685 0.0
C832 C 0.76851 0.60495 0.95094 0.0
N833 N 0.77677 0.59537 0.89679 0.0
C834 C 0.79363 0.5964 0.94192 0.0
C835 C 0.74746 0.60815 0.93246 0.0
C836 C 0.79745 0.59179 0.91446 0.0
C837 C 0.75207 0.60335 0.90516 0.0
C838 C 0.81552 0.66106 0.0193 0.0
C839 C 0.83329 0.66949 0.99929 0.0
C840 C 0.82475 0.65841 0.04579 0.0
C841 C 0.86017 0.67451 1.00603 0.0
C842 C 0.85177 0.66362 0.05172 0.0
N843 N 0.86879 0.67145 0.03188 0.0
C844 C 0.75213 0.69309 0.94781 0.0
C845 C 0.79008 0.66757 0.93496 0.0
C846 C 0.75549 0.71019 0.92579 0.0
N847 N 0.76919 0.67215 0.95185 0.0
C848 C 0.79425 0.6842 0.91272 0.0
C849 C 0.7768 0.70586 0.90789 0.0
H850 H 0.73606 0.69673 0.96186 0.0
H851 H 0.80374 0.65118 0.93888 0.0
C852 C 0.81188 0.57189 0.03478 0.0
N853 N 0.81463 0.59332 0.01804 0.0
C854 C 0.83344 0.55453 0.03934 0.0
C855 C 0.86019 0.58128 0.00894 0.0
C856 C 0.83813 0.59817 1.00504 0.0
C857 C 0.85802 0.5591 0.02631 0.0
H858 H 0.79282 0.56805 0.04438 0.0
H859 H 0.83967 0.61492 0.99131 0.0
O860 O 0.72946 0.65605 1.00218 0.0
O861 O 0.75355 0.60995 0.03736 0.0
O862 O 0.76446 0.60978 0.97775 0.0
O863 O 0.78916 0.65587 0.01302 0.0
H864 H 0.69281 0.67239 0.03699 0.0
H865 H 0.70647 0.65172 0.95409 0.0
H866 H 0.64486 0.68051 0.02593 0.0
H867 H 0.65824 0.65993 0.94446 0.0
H868 H 0.78428 0.60456 0.1236 0.0
H869 H 0.70836 0.59348 0.06007 0.0
H870 H 0.79134 0.61349 0.07507 0.0
H871 H 0.70276 0.58459 0.10881 0.0
H872 H 0.63928 0.58607 0.01754 0.0
H873 H 0.68542 0.53914 0.96093 0.0
H874 H 0.776 0.72835 0.09127 0.0
H875 H 0.7081 0.67995 0.1161 0.0
H876 H 0.81006 0.59349 0.95592 0.0
H877 H 0.72774 0.61408 0.93912 0.0
H878 H 0.81685 0.58536 0.90719 0.0
H879 H 0.73598 0.60587 0.89064 0.0
H880 H 0.82648 0.67198 0.97876 0.0
H881 H 0.81117 0.65263 0.06164 0.0
H882 H 0.87418 0.68084 0.9907 0.0
H883 H 0.85918 0.66153 0.07213 0.0
H884 H 0.74186 0.72693 0.92313 0.0
H885 H 0.81086 0.68003 0.89938 0.0
H886 H 0.83071 0.53739 0.05251 0.0
H887 H 0.87879 0.58564 0.99856 0.0
Li888 Li 0.86441 0.03509 0.26017 0.0
Li889 Li 0.89824 1.00681 0.28134 0.0
Li890 Li 0.8991 0.01448 0.23195 0.0
Li891 Li 0.86433 0.98586 0.25251 0.0
C892 C 0.9106 0.06151 0.27963 0.0
N893 N 0.92384 0.10159 0.31612 0.0
C894 C 0.8949 0.06553 0.3025 0.0
C895 C 0.93299 0.07799 0.27526 0.0
C896 C 0.90192 0.08585 0.32072 0.0
C897 C 0.93937 0.09811 0.29395 0.0
C898 C 0.85273 0.99646 0.31161 0.0
C899 C 0.85276 0.96066 0.34434 0.0
N900 N 0.84145 0.97754 0.3626 0.0
C901 C 0.84087 0.01339 0.33063 0.0
C902 C 0.85852 0.96984 0.31845 0.0
C903 C 0.83541 1.00346 0.35633 0.0
C904 C 0.81663 0.06098 0.27498 0.0
N905 N 0.84143 0.06546 0.26458 0.0
C906 C 0.83282 0.11271 0.26177 0.0
C907 C 0.84975 0.09067 0.25789 0.0
C908 C 0.8071 0.10879 0.27278 0.0
C909 C 0.79912 0.08243 0.27938 0.0
H910 H 0.81055 0.04071 0.2801 0.0
H911 H 0.86958 0.09371 0.24961 0.0
C912 C 0.94487 0.98878 0.3075 0.0
N913 N 0.92117 1.00152 0.31199 0.0
C914 C 0.96272 0.98392 0.32874 0.0
C915 C 0.93173 1.00581 0.35886 0.0
C916 C 0.91448 0.01024 0.33703 0.0
C917 C 0.95622 0.99241 0.35489 0.0
H918 H 0.94988 0.98231 0.28735 0.0
H919 H 0.89587 0.02082 0.34016 0.0
C920 C 0.85291 0.03274 0.20535 0.0
N921 N 0.83932 0.06862 0.16512 0.0
C922 C 0.83069 0.02766 0.18873 0.0
C923 C 0.86825 0.05605 0.2015 0.0
C924 C 0.82414 0.04605 0.1685 0.0
C925 C 0.86105 0.07394 0.18106 0.0
C926 C 0.91041 0.95427 0.24785 0.0
C927 C 0.91578 0.94507 0.22184 0.0
C928 C 0.9123 0.93647 0.26953 0.0
C929 C 0.92223 0.91801 0.21785 0.0
C930 C 0.91883 0.90957 0.26473 0.0
N931 N 0.92357 0.90096 0.2392 0.0
C932 C 0.94536 0.03262 0.20497 0.0
C933 C 0.91461 0.00868 0.17711 0.0
C934 C 0.9626 0.03667 0.18325 0.0
N935 N 0.92187 0.01893 0.20151 0.0
C936 C 0.93145 0.01192 0.1549 0.0
C937 C 0.95575 0.02618 0.15783 0.0
H938 H 0.95072 0.04032 0.22464 0.0
H939 H 0.89576 0.99793 0.17494 0.0
C940 C 0.82037 0.95129 0.26371 0.0
N941 N 0.84145 0.9552 0.24684 0.0
C942 C 0.80321 0.92922 0.26023 0.0
C943 C 0.82912 0.916 0.22148 0.0
C944 C 0.84575 0.93839 0.22568 0.0
C945 C 0.80754 0.91111 0.23896 0.0
H946 H 0.81669 0.9654 0.27981 0.0
H947 H 0.86185 0.94255 0.21181 0.0
O948 O 0.90407 0.04173 0.26147 0.0
O949 O 0.85847 1.00592 0.28642 0.0
O950 O 0.85948 0.01491 0.22525 0.0
O951 O 0.90419 0.98075 0.25212 0.0
H952 H 0.87743 0.05315 0.30613 0.0
H953 H 0.94531 0.07532 0.2576 0.0
H954 H 0.88993 0.08912 0.33851 0.0
H955 H 0.95666 0.11099 0.29082 0.0
H956 H 0.8572 0.9401 0.3499 0.0
H957 H 0.83608 0.03403 0.32568 0.0
H958 H 0.86713 0.95635 0.30382 0.0
H959 H 0.82639 0.01638 0.37128 0.0
H960 H 0.83974 0.13254 0.25598 0.0
H961 H 0.7797 0.07839 0.28826 0.0
H962 H 0.98127 0.97333 0.32475 0.0
H963 H 0.9261 0.01317 0.37856 0.0
H964 H 0.81863 0.00969 0.19147 0.0
H965 H 0.88552 0.06032 0.21416 0.0
H966 H 0.80698 0.04239 0.15548 0.0
H967 H 0.87272 0.09206 0.17788 0.0
H968 H 0.91471 0.95859 0.20486 0.0
H969 H 0.90908 0.94336 0.2899 0.0
H970 H 0.92617 0.91058 0.19779 0.0
H971 H 0.92025 0.89556 0.28133 0.0
H972 H 0.98129 0.04753 0.1864 0.0
H973 H 0.92537 1.00371 0.13558 0.0
H974 H 0.78686 0.92627 0.27423 0.0
H975 H 0.83282 0.90295 0.20442 0.0
Li976 Li 0.25485 0.14989 0.53267 0.0
Li977 Li 0.23403 0.11609 0.50284 0.0
Li978 Li 0.28411 0.11591 0.51228 0.0
Li979 Li 0.26367 0.14975 0.48255 0.0
C980 C 0.25016 0.10473 0.56418 0.0
N981 N 0.24321 0.09431 0.61833 0.0
C982 C 0.22518 0.09611 0.57369 0.0
C983 C 0.27172 0.10756 0.58215 0.0
C984 C 0.22204 0.09107 0.60115 0.0
C985 C 0.26778 0.10233 0.60947 0.0
C986 C 0.20297 0.16089 0.49639 0.0
C987 C 0.16606 0.16247 0.46468 0.0
N988 N 0.14943 0.17046 0.48477 0.0
C989 C 0.18559 0.16946 0.51664 0.0
C990 C 0.19321 0.15767 0.47013 0.0
C991 C 0.15857 0.17407 0.51039 0.0
C992 C 0.26618 0.19386 0.56705 0.0
N993 N 0.24948 0.17241 0.56337 0.0
C994 C 0.22454 0.18434 0.60259 0.0
C995 C 0.22885 0.16749 0.58052 0.0
C996 C 0.24158 0.20657 0.60701 0.0
C997 C 0.26268 0.21119 0.58891 0.0
H998 H 0.28204 0.19774 0.55279 0.0
H999 H 0.21543 0.15073 0.57685 0.0
C1000 C 0.20519 0.07288 0.47949 0.0
N1001 N 0.20316 0.09377 0.49706 0.0
C1002 C 0.18325 0.05586 0.47476 0.0
C1003 C 0.15759 0.08185 0.50666 0.0
C1004 C 0.18003 0.09839 0.51073 0.0
C1005 C 0.15901 0.06024 0.48844 0.0
H1006 H 0.22398 0.06922 0.46934 0.0
H1007 H 0.17905 0.11474 0.52504 0.0
C1008 C 0.31552 0.16106 0.5193 0.0
N1009 N 0.36879 0.17145 0.53188 0.0
C1010 C 0.33329 0.16949 0.49929 0.0
C1011 C 0.32475 0.15841 0.54579 0.0
C1012 C 0.36017 0.17451 0.50603 0.0
C1013 C 0.35177 0.16362 0.55172 0.0
C1014 C 0.26851 0.10495 0.45094 0.0
C1015 C 0.29363 0.0964 0.44192 0.0
C1016 C 0.24746 0.10815 0.43246 0.0
C1017 C 0.29745 0.09179 0.41446 0.0
C1018 C 0.25207 0.10335 0.40516 0.0
N1019 N 0.27677 0.09537 0.39679 0.0
C1020 C 0.31188 0.07189 0.53478 0.0
C1021 C 0.33813 0.09817 0.50504 0.0
C1022 C 0.33344 0.05453 0.53934 0.0
N1023 N 0.31463 0.09332 0.51804 0.0
C1024 C 0.36019 0.08128 0.50894 0.0
C1025 C 0.35802 0.0591 0.52631 0.0
H1026 H 0.29282 0.06805 0.54438 0.0
H1027 H 0.33967 0.11492 0.49131 0.0
C1028 C 0.25213 0.19309 0.44781 0.0
N1029 N 0.26919 0.17215 0.45185 0.0
C1030 C 0.25549 0.21019 0.42579 0.0
C1031 C 0.29425 0.1842 0.41272 0.0
C1032 C 0.29008 0.16757 0.43495 0.0
C1033 C 0.2768 0.20586 0.40789 0.0
H1034 H 0.23606 0.19673 0.46186 0.0
H1035 H 0.30374 0.15118 0.43888 0.0
O1036 O 0.25355 0.10995 0.53736 0.0
O1037 O 0.22946 0.15605 0.50218 0.0
O1038 O 0.28916 0.15587 0.51302 0.0
O1039 O 0.26446 0.10978 0.47775 0.0
H1040 H 0.20836 0.09348 0.56006 0.0
H1041 H 0.29134 0.11349 0.57507 0.0
H1042 H 0.20276 0.08459 0.6088 0.0
H1043 H 0.28428 0.10456 0.6236 0.0
H1044 H 0.15824 0.15993 0.44446 0.0
H1045 H 0.19281 0.17239 0.53699 0.0
H1046 H 0.20647 0.15172 0.45409 0.0
H1047 H 0.14486 0.18051 0.52593 0.0
H1048 H 0.2081 0.17995 0.6161 0.0
H1049 H 0.276 0.22835 0.59127 0.0
H1050 H 0.18542 0.03914 0.46093 0.0
H1051 H 0.13928 0.08607 0.51754 0.0
H1052 H 0.32648 0.17198 0.47876 0.0
H1053 H 0.31117 0.15263 0.56164 0.0
H1054 H 0.37418 0.18084 0.4907 0.0
H1055 H 0.35918 0.16153 0.57213 0.0
H1056 H 0.31006 0.09349 0.45592 0.0
H1057 H 0.22774 0.11408 0.43912 0.0
H1058 H 0.31685 0.08536 0.40719 0.0
H1059 H 0.23598 0.10587 0.39064 0.0
H1060 H 0.33071 0.03739 0.55251 0.0
H1061 H 0.37879 0.08564 0.49856 0.0
H1062 H 0.24186 0.22693 0.42313 0.0
H1063 H 0.31086 0.18003 0.39938 0.0
Li1064 Li 0.39824 0.50681 0.78134 0.0
Li1065 Li 0.36441 0.53509 0.76017 0.0
Li1066 Li 0.36433 0.48586 0.75251 0.0
Li1067 Li 0.3991 0.51448 0.73195 0.0
C1068 C 0.35273 0.49646 0.81161 0.0
N1069 N 0.34145 0.47753 0.8626 0.0
C1070 C 0.34087 0.51339 0.83063 0.0
C1071 C 0.35852 0.46984 0.81845 0.0
C1072 C 0.33541 0.50346 0.85633 0.0
C1073 C 0.35276 0.46066 0.84434 0.0
C1074 C 0.4106 0.56151 0.77963 0.0
C1075 C 0.43937 0.59811 0.79395 0.0
N1076 N 0.42384 0.60159 0.81612 0.0
C1077 C 0.3949 0.56553 0.8025 0.0
C1078 C 0.43299 0.57799 0.77526 0.0
C1079 C 0.40192 0.58585 0.82072 0.0
C1080 C 0.44487 0.48878 0.8075 0.0
N1081 N 0.42117 0.50152 0.81199 0.0
C1082 C 0.43173 0.50581 0.85886 0.0
C1083 C 0.41448 0.51024 0.83703 0.0
C1084 C 0.45622 0.49241 0.85489 0.0
C1085 C 0.46272 0.48392 0.82874 0.0
H1086 H 0.44988 0.48231 0.78736 0.0
H1087 H 0.39587 0.52082 0.84016 0.0
C1088 C 0.31663 0.56098 0.77498 0.0
N1089 N 0.34143 0.56546 0.76458 0.0
C1090 C 0.29912 0.58243 0.77938 0.0
C1091 C 0.33282 0.61271 0.76177 0.0
C1092 C 0.34975 0.59067 0.75789 0.0
C1093 C 0.3071 0.60879 0.77278 0.0
H1094 H 0.31055 0.54071 0.7801 0.0
H1095 H 0.36958 0.59371 0.74961 0.0
C1096 C 0.41041 0.45427 0.74785 0.0
N1097 N 0.42357 0.40096 0.7392 0.0
C1098 C 0.41578 0.44507 0.72184 0.0
C1099 C 0.4123 0.43647 0.76953 0.0
C1100 C 0.42223 0.41801 0.71785 0.0
C1101 C 0.41883 0.40957 0.76473 0.0
C1102 C 0.35291 0.53274 0.70535 0.0
C1103 C 0.33069 0.52766 0.68873 0.0
C1104 C 0.36825 0.55605 0.7015 0.0
C1105 C 0.32414 0.54605 0.6685 0.0
C1106 C 0.36105 0.57394 0.68106 0.0
N1107 N 0.33932 0.56862 0.66512 0.0
C1108 C 0.32037 0.45129 0.76371 0.0
C1109 C 0.34575 0.43839 0.72568 0.0
C1110 C 0.30321 0.42922 0.76024 0.0
N1111 N 0.34145 0.4552 0.74684 0.0
C1112 C 0.32912 0.416 0.72148 0.0
C1113 C 0.30754 0.41111 0.73896 0.0
H1114 H 0.31669 0.4654 0.77981 0.0
H1115 H 0.36185 0.44255 0.71181 0.0
C1116 C 0.44536 0.53262 0.70497 0.0
N1117 N 0.42187 0.51893 0.70151 0.0
C1118 C 0.4626 0.53667 0.68325 0.0
C1119 C 0.43145 0.51192 0.6549 0.0
C1120 C 0.41461 0.50868 0.67711 0.0
C1121 C 0.45575 0.52618 0.65783 0.0
H1122 H 0.45072 0.54032 0.72464 0.0
H1123 H 0.39576 0.49793 0.67494 0.0
O1124 O 0.35847 0.50592 0.78642 0.0
O1125 O 0.40407 0.54173 0.76147 0.0
O1126 O 0.40419 0.48075 0.75212 0.0
O1127 O 0.35948 0.51491 0.72525 0.0
H1128 H 0.33608 0.53403 0.82568 0.0
H1129 H 0.36713 0.45635 0.80382 0.0
H1130 H 0.32639 0.51638 0.87128 0.0
H1131 H 0.3572 0.4401 0.8499 0.0
H1132 H 0.45666 0.61099 0.79082 0.0
H1133 H 0.37743 0.55315 0.80613 0.0
H1134 H 0.44531 0.57532 0.7576 0.0
H1135 H 0.38993 0.58912 0.83851 0.0
H1136 H 0.4261 0.51317 0.87856 0.0
H1137 H 0.48127 0.47333 0.82475 0.0
H1138 H 0.2797 0.57839 0.78826 0.0
H1139 H 0.33974 0.63254 0.75598 0.0
H1140 H 0.41471 0.45859 0.70486 0.0
H1141 H 0.40908 0.44336 0.7899 0.0
H1142 H 0.42617 0.41058 0.69779 0.0
H1143 H 0.42025 0.39556 0.78133 0.0
H1144 H 0.31863 0.50969 0.69147 0.0
H1145 H 0.38552 0.56032 0.71416 0.0
H1146 H 0.30698 0.54239 0.65549 0.0
H1147 H 0.37272 0.59206 0.67788 0.0
H1148 H 0.28686 0.42627 0.77423 0.0
H1149 H 0.33282 0.40295 0.70442 0.0
H1150 H 0.48129 0.54753 0.6864 0.0
H1151 H 0.42537 0.50371 0.63558 0.0
Li1152 Li 0.78304 0.4001 0.50439 0.0
Li1153 Li 0.76146 0.36731 0.53234 0.0
Li1154 Li 0.7538 0.36626 0.48415 0.0
Li1155 Li 0.73244 0.40216 0.51347 0.0
C1156 C 0.81468 0.35779 0.49869 0.0
N1157 N 0.86907 0.35347 0.48852 0.0
C1158 C 0.8327 0.35225 0.51967 0.0
C1159 C 0.82433 0.3609 0.47252 0.0
C1160 C 0.86012 0.35018 0.51412 0.0
C1161 C 0.85189 0.35872 0.46779 0.0
C1162 C 0.76923 0.40982 0.56546 0.0
C1163 C 0.75665 0.42368 0.61021 0.0
N1164 N 0.78087 0.41517 0.61971 0.0
C1165 C 0.79399 0.40124 0.57568 0.0
C1166 C 0.75037 0.42112 0.58286 0.0
C1167 C 0.79949 0.40408 0.60316 0.0
C1168 C 0.81231 0.44134 0.47822 0.0
N1169 N 0.81383 0.42282 0.4983 0.0
C1170 C 0.8584 0.43755 0.50951 0.0
C1171 C 0.83625 0.42083 0.51399 0.0
C1172 C 0.85744 0.45688 0.48891 0.0
C1173 C 0.83395 0.4586 0.47312 0.0
H1174 H 0.79413 0.44298 0.46633 0.0
H1175 H 0.83708 0.4063 0.53002 0.0
C1176 C 0.78008 0.32098 0.55935 0.0
N1177 N 0.76543 0.34374 0.56297 0.0
C1178 C 0.7842 0.30311 0.58063 0.0
C1179 C 0.75726 0.33183 0.60887 0.0
C1180 C 0.7535 0.34903 0.58697 0.0
C1181 C 0.77298 0.3086 0.60592 0.0
H1182 H 0.78859 0.31667 0.53985 0.0
H1183 H 0.74089 0.36652 0.58915 0.0
C1184 C 0.74581 0.40959 0.4523 0.0
N1185 N 0.73158 0.41525 0.39874 0.0
C1186 C 0.71977 0.41747 0.44523 0.0
C1187 C 0.76472 0.40495 0.43214 0.0
C1188 C 0.71294 0.42014 0.41803 0.0
C1189 C 0.75711 0.4078 0.40518 0.0
C1190 C 0.71357 0.34483 0.52873 0.0
C1191 C 0.71791 0.31732 0.52495 0.0
C1192 C 0.69692 0.35358 0.54951 0.0
C1193 C 0.70565 0.29893 0.54228 0.0
C1194 C 0.685 0.33456 0.56637 0.0
N1195 N 0.6896 0.30787 0.56246 0.0
C1196 C 0.76569 0.32365 0.44838 0.0
C1197 C 0.72501 0.34628 0.43836 0.0
C1198 C 0.76184 0.30636 0.42647 0.0
N1199 N 0.74756 0.34334 0.45369 0.0
C1200 C 0.72049 0.3296 0.41607 0.0
C1201 C 0.73907 0.3093 0.40987 0.0
H1202 H 0.78309 0.32122 0.46126 0.0
H1203 H 0.71043 0.36146 0.44352 0.0
C1204 C 0.70579 0.44981 0.52913 0.0
N1205 N 0.70213 0.42493 0.51824 0.0
C1206 C 0.6838 0.46669 0.53334 0.0
C1207 C 0.65483 0.43244 0.51403 0.0
C1208 C 0.67732 0.41602 0.51067 0.0
C1209 C 0.65793 0.45805 0.5257 0.0
H1210 H 0.72581 0.4565 0.53465 0.0
H1211 H 0.67505 0.39616 0.50194 0.0
O1212 O 0.78774 0.36008 0.50373 0.0
O1213 O 0.76345 0.40716 0.53861 0.0
O1214 O 0.75277 0.40657 0.47882 0.0
O1215 O 0.72599 0.36315 0.51249 0.0
H1216 H 0.82571 0.34999 0.5401 0.0
H1217 H 0.81069 0.36494 0.45602 0.0
H1218 H 0.87429 0.34608 0.53019 0.0
H1219 H 0.85962 0.36119 0.44764 0.0
H1220 H 0.74221 0.43232 0.6239 0.0
H1221 H 0.80853 0.39189 0.56268 0.0
H1222 H 0.73096 0.42756 0.57544 0.0
H1223 H 0.8185 0.39734 0.61134 0.0
H1224 H 0.87615 0.43521 0.52201 0.0
H1225 H 0.83205 0.47348 0.45734 0.0
H1226 H 0.7964 0.2854 0.57743 0.0
H1227 H 0.74768 0.33648 0.62783 0.0
H1228 H 0.70493 0.42133 0.46053 0.0
H1229 H 0.78505 0.39922 0.43724 0.0
H1230 H 0.69281 0.42607 0.41227 0.0
H1231 H 0.7715 0.40412 0.38938 0.0
H1232 H 0.73085 0.31029 0.50898 0.0
H1233 H 0.69357 0.37485 0.5528 0.0
H1234 H 0.70895 0.27757 0.53974 0.0
H1235 H 0.6722 0.34103 0.58266 0.0
H1236 H 0.77669 0.29101 0.42241 0.0
H1237 H 0.70241 0.33223 0.40411 0.0
H1238 H 0.687 0.48642 0.54214 0.0
H1239 H 0.63517 0.42507 0.50797 0.0
Li1240 Li 0.65124 0.98186 0.76274 0.0
Li1241 Li 0.61753 0.01154 0.78302 0.0
Li1242 Li 0.61692 1.00222 0.73299 0.0
Li1243 Li 0.65097 0.03198 0.7538 0.0
C1244 C 0.60498 0.95022 0.76496 0.0
N1245 N 0.59185 0.89618 0.76765 0.0
C1246 C 0.59673 0.93891 0.7893 0.0
C1247 C 0.60606 0.93414 0.74188 0.0
C1248 C 0.59032 0.91152 0.79029 0.0
C1249 C 0.59947 0.90684 0.74367 0.0
C1250 C 0.66093 0.01715 0.81508 0.0
C1251 C 0.65997 0.0473 0.85318 0.0
N1252 N 0.66738 0.02669 0.86957 0.0
C1253 C 0.66881 0.99634 0.83226 0.0
C1254 C 0.65673 0.04291 0.82556 0.0
C1255 C 0.67187 1.00154 0.85976 0.0
C1256 C 0.69614 0.94902 0.75252 0.0
N1257 N 0.67388 0.95128 0.76807 0.0
C1258 C 0.68502 0.91066 0.79132 0.0
C1259 C 0.66821 0.93279 0.78739 0.0
C1260 C 0.70801 0.90756 0.77529 0.0
C1261 C 0.71343 0.92716 0.75565 0.0
H1262 H 0.70057 0.96427 0.7377 0.0
H1263 H 0.65092 0.93546 0.80013 0.0
C1264 C 0.57544 0.03593 0.8118 0.0
N1265 N 0.59504 0.01702 0.81362 0.0
C1266 C 0.55814 0.04041 0.83336 0.0
C1267 C 0.58133 1.00573 0.85829 0.0
C1268 C 0.59814 1.00188 0.83619 0.0
C1269 C 0.56094 0.02523 0.85706 0.0
H1270 H 0.57301 0.04734 0.79346 0.0
H1271 H 0.61358 0.98666 0.83703 0.0
C1272 C 0.66353 0.99413 0.70277 0.0
N1273 N 0.6773 0.97894 0.65112 0.0
C1274 C 0.67341 0.0132 0.68466 0.0
C1275 C 0.6611 0.96725 0.69473 0.0
C1276 C 0.68014 1.00516 0.6586 0.0
C1277 C 0.66805 0.95999 0.66851 0.0
C1278 C 0.60713 0.06323 0.74637 0.0
C1279 C 0.59877 0.07059 0.7205 0.0
C1280 C 0.61124 0.08311 0.76593 0.0
C1281 C 0.59517 0.0978 0.71448 0.0
C1282 C 0.60746 0.1101 0.75912 0.0
N1283 N 0.5996 0.11684 0.73374 0.0
C1284 C 0.57051 0.98295 0.70652 0.0
C1285 C 0.60062 1.00599 0.67778 0.0
C1286 C 0.55276 0.97832 0.68509 0.0
N1287 N 0.59402 0.99636 0.70248 0.0
C1288 C 0.58348 1.00179 0.65577 0.0
C1289 C 0.55917 0.98776 0.65926 0.0
H1290 H 0.5655 0.97589 0.72645 0.0
H1291 H 0.6189 0.01743 0.6752 0.0
C1292 C 0.69374 0.06762 0.76596 0.0
N1293 N 0.6735 0.0627 0.74807 0.0
C1294 C 0.71107 0.08949 0.7623 0.0
C1295 C 0.68645 0.10088 0.72183 0.0
C1296 C 0.66973 0.07868 0.72618 0.0
C1297 C 0.70752 0.10649 0.73999 0.0
H1298 H 0.69659 0.05441 0.783 0.0
H1299 H 0.65396 0.074 0.71186 0.0
O1300 O 0.61141 0.97701 0.76366 0.0
O1301 O 0.65754 0.01238 0.78813 0.0
O1302 O 0.65673 1.0017 0.72834 0.0
O1303 O 0.61098 0.03668 0.75256 0.0
H1304 H 0.59547 0.95109 0.80729 0.0
H1305 H 0.61162 0.94267 0.72272 0.0
H1306 H 0.58412 0.90247 0.80905 0.0
H1307 H 0.60031 0.89416 0.72597 0.0
H1308 H 0.65663 0.06711 0.86157 0.0
H1309 H 0.67239 0.97635 0.82448 0.0
H1310 H 0.65106 0.05933 0.81251 0.0
H1311 H 0.67779 0.98557 0.87331 0.0
H1312 H 0.68033 0.89644 0.80711 0.0
H1313 H 0.73076 0.92556 0.74267 0.0
H1314 H 0.54242 0.05529 0.83126 0.0
H1315 H 0.58441 0.9937 0.87619 0.0
H1316 H 0.67574 0.03402 0.69059 0.0
H1317 H 0.65424 0.95208 0.70866 0.0
H1318 H 0.68764 0.01976 0.64433 0.0
H1319 H 0.66619 0.93926 0.66202 0.0
H1320 H 0.59525 0.05549 0.70518 0.0
H1321 H 0.61727 0.07776 0.78614 0.0
H1322 H 0.58888 0.10379 0.69449 0.0
H1323 H 0.61073 0.1257 0.77402 0.0
H1324 H 0.53432 0.96727 0.68869 0.0
H1325 H 0.58897 0.00994 0.63635 0.0
H1326 H 0.72695 0.09317 0.77688 0.0
H1327 H 0.68328 0.11319 0.70413 0.0
Li1328 Li 0.03335 0.26228 0.86457 0.0
Li1329 Li 1.00542 0.28367 0.89716 0.0
Li1330 Li 0.01434 0.23307 0.89904 0.0
Li1331 Li 0.98523 0.25491 0.86312 0.0
C1332 C 0.06628 0.26912 0.9077 0.0
N1333 N 0.12053 0.2796 0.91439 0.0
C1334 C 0.07712 0.2937 0.89934 0.0
C1335 C 0.08304 0.24987 0.91948 0.0
C1336 C 0.1046 0.29861 0.90286 0.0
C1337 C 0.11041 0.25556 0.92271 0.0
C1338 C 1.00012 0.31593 0.85564 0.0
C1339 C 0.9697 0.35355 0.85808 0.0
N1340 N 0.99049 0.37063 0.85299 0.0
C1341 C 0.02116 0.33386 0.85033 0.0
C1342 C 0.97416 0.32584 0.85942 0.0
C1343 C 0.01589 0.36144 0.84909 0.0
C1344 C 0.06074 0.28109 0.81872 0.0
N1345 N 0.0641 0.26621 0.84144 0.0
C1346 C 0.10998 0.25775 0.83008 0.0
C1347 C 0.08795 0.25402 0.84698 0.0
C1348 C 0.10729 0.27366 0.8069 0.0
C1349 C 0.08216 0.28515 0.80113 0.0
H1350 H 0.04135 0.28981 0.81422 0.0
H1351 H 0.0899 0.24125 0.86444 0.0
C1352 C 0.97914 0.3128 0.93815 0.0
N1353 N 0.99953 0.31422 0.9201 0.0
C1354 C 0.9742 0.33426 0.95564 0.0
C1355 C 0.01132 0.35833 0.93571 0.0
C1356 C 0.01567 0.33634 0.91879 0.0
C1357 C 0.99041 0.35748 0.95459 0.0
H1358 H 0.96688 0.29484 0.93924 0.0
H1359 H 0.03196 0.33704 0.90462 0.0
C1360 C 0.02876 0.21532 0.84048 0.0
N1361 N 0.06074 0.1931 0.80111 0.0
C1362 C 0.02383 0.22109 0.81339 0.0
C1363 C 0.04978 0.19811 0.8476 0.0
C1364 C 0.04029 0.2097 0.79377 0.0
C1365 C 0.06575 0.18709 0.82737 0.0
C1366 C 0.95342 0.24589 0.9058 0.0
C1367 C 0.94692 0.21948 0.91297 0.0
C1368 C 0.93288 0.26448 0.90123 0.0
C1369 C 0.91991 0.21197 0.91504 0.0
C1370 C 0.90611 0.25619 0.90346 0.0
N1371 N 0.90023 0.23032 0.91024 0.0
C1372 C 0.02757 0.20695 0.94759 0.0
C1373 C 0.01358 0.17763 0.91249 0.0
C1374 C 0.03129 0.1852 0.96498 0.0
N1375 N 0.01903 0.20278 0.92189 0.0
C1376 C 0.01668 0.15529 0.9293 0.0
C1377 C 0.02574 0.15885 0.95599 0.0
H1378 H 0.03167 0.22723 0.95452 0.0
H1379 H 1.00654 0.17496 0.892 0.0
C1380 C 0.94846 0.26787 0.82138 0.0
N1381 N 0.95479 0.24896 0.84009 0.0
C1382 C 0.9264 0.26414 0.80421 0.0
C1383 C 0.918 0.22128 0.82551 0.0
C1384 C 0.94037 0.22575 0.84211 0.0
C1385 C 0.91067 0.24065 0.80621 0.0
H1386 H 0.96073 0.28575 0.81955 0.0
H1387 H 0.94624 0.21068 0.85665 0.0
O1388 O 0.03943 0.2639 0.9044 0.0
O1389 O 1.0049 0.28884 0.85716 0.0
O1390 O 0.01341 0.2269 0.86 0.0
O1391 O 0.97976 0.25353 0.90336 0.0
H1392 H 0.06461 0.30855 0.88965 0.0
H1393 H 0.07508 0.23064 0.92585 0.0
H1394 H 0.11328 0.31747 0.8963 0.0
H1395 H 0.12362 0.24082 0.93174 0.0
H1396 H 0.94972 0.36148 0.86108 0.0
H1397 H 0.04145 0.32668 0.84761 0.0
H1398 H 0.95762 0.31229 0.86341 0.0
H1399 H 0.03201 0.37554 0.84517 0.0
H1400 H 0.12883 0.24798 0.83492 0.0
H1401 H 0.07917 0.2975 0.78343 0.0
H1402 H 0.95817 0.3324 0.97017 0.0
H1403 H 0.02416 0.37588 0.93387 0.0
H1404 H 0.00767 0.23448 0.80763 0.0
H1405 H 0.05393 0.19362 0.86853 0.0
H1406 H 0.03685 0.21412 0.77271 0.0
H1407 H 0.08221 0.17388 0.83256 0.0
H1408 H 0.96253 0.20486 0.91672 0.0
H1409 H 0.93753 0.28506 0.89598 0.0
H1410 H 0.91459 0.19155 0.92042 0.0
H1411 H 0.89001 0.27032 0.89982 0.0
H1412 H 0.03874 0.18904 0.98515 0.0
H1413 H 0.01166 0.13552 0.92152 0.0
H1414 H 0.92201 0.27934 0.78924 0.0
H1415 H 0.90646 0.20293 0.82797 0.0
Li1416 Li 0.53335 0.76228 0.36457 0.0
Li1417 Li 0.50542 0.78367 0.39716 0.0
Li1418 Li 0.51434 0.73307 0.39904 0.0
Li1419 Li 0.48523 0.75491 0.36312 0.0
C1420 C 0.56628 0.76912 0.4077 0.0
N1421 N 0.62053 0.7796 0.41439 0.0
C1422 C 0.57712 0.7937 0.39934 0.0
C1423 C 0.58304 0.74987 0.41948 0.0
C1424 C 0.6046 0.79861 0.40286 0.0
C1425 C 0.61041 0.75556 0.42271 0.0
C1426 C 0.50012 0.81593 0.35564 0.0
C1427 C 0.4697 0.85355 0.35808 0.0
N1428 N 0.49049 0.87063 0.35299 0.0
C1429 C 0.52116 0.83386 0.35033 0.0
C1430 C 0.47416 0.82584 0.35942 0.0
C1431 C 0.51589 0.86144 0.34909 0.0
C1432 C 0.56074 0.78109 0.31872 0.0
N1433 N 0.5641 0.76621 0.34144 0.0
C1434 C 0.60998 0.75775 0.33008 0.0
C1435 C 0.58795 0.75402 0.34698 0.0
C1436 C 0.60729 0.77366 0.3069 0.0
C1437 C 0.58216 0.78515 0.30113 0.0
H1438 H 0.54135 0.78981 0.31422 0.0
H1439 H 0.5899 0.74125 0.36444 0.0
C1440 C 0.47914 0.8128 0.43815 0.0
N1441 N 0.49953 0.81422 0.4201 0.0
C1442 C 0.4742 0.83426 0.45564 0.0
C1443 C 0.51132 0.85833 0.43571 0.0
C1444 C 0.51567 0.83634 0.41879 0.0
C1445 C 0.49041 0.85748 0.45459 0.0
H1446 H 0.46688 0.79484 0.43924 0.0
H1447 H 0.53196 0.83704 0.40462 0.0
C1448 C 0.52876 0.71531 0.34048 0.0
N1449 N 0.56074 0.6931 0.30111 0.0
C1450 C 0.52383 0.72109 0.31339 0.0
C1451 C 0.54978 0.69811 0.3476 0.0
C1452 C 0.54029 0.7097 0.29377 0.0
C1453 C 0.56575 0.68709 0.32737 0.0
C1454 C 0.45342 0.74589 0.4058 0.0
C1455 C 0.44692 0.71948 0.41297 0.0
C1456 C 0.43288 0.76448 0.40123 0.0
C1457 C 0.41991 0.71197 0.41504 0.0
C1458 C 0.40611 0.75619 0.40346 0.0
N1459 N 0.40023 0.73032 0.41024 0.0
C1460 C 0.52757 0.70695 0.44759 0.0
C1461 C 0.51358 0.67763 0.41249 0.0
C1462 C 0.53129 0.6852 0.46498 0.0
N1463 N 0.51903 0.70278 0.42189 0.0
C1464 C 0.51668 0.65529 0.4293 0.0
C1465 C 0.52574 0.65885 0.45599 0.0
H1466 H 0.53167 0.72723 0.45452 0.0
H1467 H 0.50654 0.67496 0.392 0.0
C1468 C 0.44846 0.76787 0.32138 0.0
N1469 N 0.45479 0.74896 0.34009 0.0
C1470 C 0.4264 0.76414 0.30421 0.0
C1471 C 0.418 0.72128 0.32551 0.0
C1472 C 0.44037 0.72575 0.34211 0.0
C1473 C 0.41067 0.74065 0.30621 0.0
H1474 H 0.46073 0.78575 0.31955 0.0
H1475 H 0.44624 0.71068 0.35665 0.0
O1476 O 0.53943 0.7639 0.4044 0.0
O1477 O 0.5049 0.78884 0.35716 0.0
O1478 O 0.51341 0.7269 0.36 0.0
O1479 O 0.47976 0.75353 0.40336 0.0
H1480 H 0.56461 0.80855 0.38965 0.0
H1481 H 0.57508 0.73064 0.42585 0.0
H1482 H 0.61328 0.81746 0.3963 0.0
H1483 H 0.62362 0.74082 0.43174 0.0
H1484 H 0.44972 0.86148 0.36108 0.0
H1485 H 0.54145 0.82668 0.34761 0.0
H1486 H 0.45762 0.81229 0.36341 0.0
H1487 H 0.53201 0.87554 0.34517 0.0
H1488 H 0.62883 0.74798 0.33492 0.0
H1489 H 0.57917 0.7975 0.28343 0.0
H1490 H 0.45817 0.8324 0.47017 0.0
H1491 H 0.52416 0.87588 0.43387 0.0
H1492 H 0.50767 0.73448 0.30763 0.0
H1493 H 0.55393 0.69362 0.36853 0.0
H1494 H 0.53685 0.71412 0.27271 0.0
H1495 H 0.58221 0.67388 0.33256 0.0
H1496 H 0.46253 0.70486 0.41672 0.0
H1497 H 0.43753 0.78506 0.39598 0.0
H1498 H 0.41459 0.69155 0.42042 0.0
H1499 H 0.39001 0.77032 0.39982 0.0
H1500 H 0.53874 0.68904 0.48515 0.0
H1501 H 0.51166 0.63552 0.42152 0.0
H1502 H 0.42201 0.77934 0.28924 0.0
H1503 H 0.40646 0.70293 0.32797 0.0
Li1504 Li 0.01049 0.78558 0.6156 0.0
Li1505 Li 0.98276 0.76405 0.64827 0.0
Li1506 Li 0.03082 0.75694 0.64939 0.0
Li1507 Li 1.00143 0.73501 0.61361 0.0
C1508 C 0.0163 0.81786 0.65716 0.0
N1509 N 0.02637 0.87257 0.65984 0.0
C1510 C 0.99541 0.8358 0.66254 0.0
C1511 C 0.04233 0.82777 0.65333 0.0
C1512 C 1.00091 0.86338 0.66379 0.0
C1513 C 0.04701 0.85549 0.65469 0.0
C1514 C 0.9495 0.77057 0.60551 0.0
C1515 C 0.90526 0.75649 0.59092 0.0
N1516 N 0.89515 0.78042 0.59943 0.0
C1517 C 0.93867 0.79503 0.61406 0.0
C1518 C 0.93268 0.75112 0.59382 0.0
C1519 C 0.91115 0.79961 0.61085 0.0
C1520 C 0.03644 0.8147 0.57443 0.0
N1521 N 0.01623 0.81609 0.59266 0.0
C1522 C 1.0043 0.85999 0.577 0.0
C1523 C 1.0001 0.83808 0.59404 0.0
C1524 C 0.02504 0.85917 0.55794 0.0
C1525 C 0.04123 0.83606 0.55682 0.0
H1526 H 0.04868 0.79682 0.57328 0.0
H1527 H 0.98393 0.83874 0.60835 0.0
C1528 C 0.95562 0.78271 0.6943 0.0
N1529 N 0.95223 0.76767 0.67162 0.0
C1530 C 0.93434 0.78637 0.71211 0.0
C1531 C 0.90659 0.75826 0.68342 0.0
C1532 C 0.92849 0.75496 0.6663 0.0
C1533 C 0.90932 0.7743 0.70659 0.0
H1534 H 0.97495 0.79183 0.69861 0.0
H1535 H 0.92654 0.74209 0.64886 0.0
C1536 C 0.06231 0.74801 0.60647 0.0
N1537 N 0.11536 0.73252 0.60158 0.0
C1538 C 0.06858 0.7216 0.59914 0.0
C1539 C 0.08301 0.76662 0.61096 0.0
C1540 C 0.09553 0.71414 0.59685 0.0
C1541 C 0.1097 0.75838 0.6085 0.0
C1542 C 0.98777 0.71727 0.67255 0.0
C1543 C 0.99326 0.72347 0.69948 0.0
C1544 C 0.96672 0.69965 0.66607 0.0
C1545 C 0.97732 0.7121 0.71957 0.0
C1546 C 0.95128 0.68867 0.68675 0.0
N1547 N 0.95683 0.6951 0.71284 0.0
C1548 C 0.06751 0.7698 0.6913 0.0
C1549 C 0.07558 0.72791 0.67007 0.0
C1550 C 0.08939 0.76597 0.70862 0.0
N1551 N 0.06125 0.75104 0.67229 0.0
C1552 C 0.09779 0.72335 0.6868 0.0
C1553 C 0.10501 0.74255 0.70645 0.0
H1554 H 0.05528 0.78761 0.69328 0.0
H1555 H 0.06973 0.71293 0.65533 0.0
C1556 C 0.98814 0.70887 0.56501 0.0
N1557 N 0.99648 0.70474 0.59076 0.0
C1558 C 0.98423 0.68707 0.5476 0.0
C1559 C 0.9982 0.65723 0.58339 0.0
C1560 C 1.00154 0.6796 0.60019 0.0
C1561 C 0.98934 0.66075 0.55666 0.0
H1562 H 0.98434 0.72914 0.55807 0.0
H1563 H 0.00843 0.67698 0.62072 0.0
O1564 O 0.01131 0.79078 0.65563 0.0
O1565 O 0.97639 0.76564 0.60851 0.0
O1566 O 0.03604 0.7556 0.60912 0.0
O1567 O 1.00261 0.72881 0.65259 0.0
H1568 H 0.97507 0.8286 0.66532 0.0
H1569 H 0.05875 0.81421 0.64931 0.0
H1570 H 0.9849 0.87749 0.66777 0.0
H1571 H 0.06705 0.86341 0.65165 0.0
H1572 H 0.892 0.7416 0.58197 0.0
H1573 H 0.95125 0.81004 0.62364 0.0
H1574 H 0.94063 0.73199 0.58729 0.0
H1575 H 0.90248 0.81838 0.61757 0.0
H1576 H 0.99149 0.87745 0.5789 0.0
H1577 H 0.05712 0.83422 0.54214 0.0
H1578 H 0.93734 0.79883 0.72979 0.0
H1579 H 0.88783 0.74807 0.67878 0.0
H1580 H 0.05285 0.70696 0.59545 0.0
H1581 H 0.07853 0.7872 0.61632 0.0
H1582 H 0.10067 0.69373 0.59134 0.0
H1583 H 0.12592 0.77254 0.61208 0.0
H1584 H 0.00944 0.73718 0.70475 0.0
H1585 H 0.96214 0.69482 0.64528 0.0
H1586 H 0.98119 0.71686 0.7405 0.0
H1587 H 0.9348 0.67514 0.68206 0.0
H1588 H 0.09368 0.78103 0.72385 0.0
H1589 H 0.10925 0.70506 0.6842 0.0
H1590 H 0.97697 0.69086 0.52737 0.0
H1591 H 1.00288 0.63745 0.59119 0.0
Li1592 Li 0.51049 0.28558 0.1156 0.0
Li1593 Li 0.48276 0.26405 0.14827 0.0
Li1594 Li 0.53082 0.25694 0.14939 0.0
Li1595 Li 0.50143 0.23501 0.11361 0.0
C1596 C 0.5163 0.31786 0.15716 0.0
N1597 N 0.52637 0.37257 0.15984 0.0
C1598 C 0.49541 0.3358 0.16254 0.0
C1599 C 0.54233 0.32777 0.15333 0.0
C1600 C 0.50091 0.36338 0.16379 0.0
C1601 C 0.54701 0.35549 0.15469 0.0
C1602 C 0.4495 0.27057 0.10551 0.0
C1603 C 0.40526 0.25649 0.09092 0.0
N1604 N 0.39515 0.28042 0.09943 0.0
C1605 C 0.43867 0.29503 0.11406 0.0
C1606 C 0.43268 0.25112 0.09382 0.0
C1607 C 0.41115 0.29961 0.11085 0.0
C1608 C 0.53644 0.3147 0.07443 0.0
N1609 N 0.51623 0.31609 0.09266 0.0
C1610 C 0.5043 0.35999 0.077 0.0
C1611 C 0.5001 0.33808 0.09404 0.0
C1612 C 0.52504 0.35917 0.05794 0.0
C1613 C 0.54123 0.33606 0.05682 0.0
H1614 H 0.54868 0.29682 0.07328 0.0
H1615 H 0.48393 0.33874 0.10835 0.0
C1616 C 0.45562 0.28271 0.1943 0.0
N1617 N 0.45223 0.26767 0.17162 0.0
C1618 C 0.43434 0.28637 0.21211 0.0
C1619 C 0.40659 0.25826 0.18342 0.0
C1620 C 0.42849 0.25496 0.1663 0.0
C1621 C 0.40932 0.2743 0.20659 0.0
H1622 H 0.47495 0.29183 0.19861 0.0
H1623 H 0.42654 0.24209 0.14886 0.0
C1624 C 0.56231 0.24801 0.10647 0.0
N1625 N 0.61536 0.23252 0.10158 0.0
C1626 C 0.56858 0.2216 0.09914 0.0
C1627 C 0.58301 0.26662 0.11096 0.0
C1628 C 0.59553 0.21414 0.09685 0.0
C1629 C 0.6097 0.25838 0.1085 0.0
C1630 C 0.48777 0.21727 0.17255 0.0
C1631 C 0.49325 0.22347 0.19948 0.0
C1632 C 0.46672 0.19965 0.16607 0.0
C1633 C 0.47732 0.2121 0.21957 0.0
C1634 C 0.45128 0.18867 0.18675 0.0
N1635 N 0.45683 0.1951 0.21284 0.0
C1636 C 0.56751 0.2698 0.1913 0.0
C1637 C 0.57558 0.22791 0.17007 0.0
C1638 C 0.58939 0.26597 0.20862 0.0
N1639 N 0.56125 0.25104 0.17229 0.0
C1640 C 0.59779 0.22335 0.1868 0.0
C1641 C 0.60501 0.24255 0.20645 0.0
H1642 H 0.55528 0.28761 0.19328 0.0
H1643 H 0.56973 0.21293 0.15533 0.0
C1644 C 0.48814 0.20887 0.06501 0.0
N1645 N 0.49648 0.20474 0.09076 0.0
C1646 C 0.48423 0.18707 0.0476 0.0
C1647 C 0.4982 0.15723 0.08339 0.0
C1648 C 0.50154 0.1796 0.10019 0.0
C1649 C 0.48934 0.16075 0.05666 0.0
H1650 H 0.48434 0.22914 0.05807 0.0
H1651 H 0.50843 0.17698 0.12072 0.0
O1652 O 0.51131 0.29078 0.15563 0.0
O1653 O 0.47639 0.26564 0.10851 0.0
O1654 O 0.53604 0.2556 0.10912 0.0
O1655 O 0.50261 0.22881 0.15259 0.0
H1656 H 0.47507 0.3286 0.16532 0.0
H1657 H 0.55875 0.31421 0.14931 0.0
H1658 H 0.4849 0.37749 0.16777 0.0
H1659 H 0.56705 0.36341 0.15165 0.0
H1660 H 0.392 0.2416 0.08197 0.0
H1661 H 0.45125 0.31004 0.12364 0.0
H1662 H 0.44063 0.23199 0.08729 0.0
H1663 H 0.40248 0.31838 0.11757 0.0
H1664 H 0.49149 0.37745 0.0789 0.0
H1665 H 0.55712 0.33422 0.04214 0.0
H1666 H 0.43734 0.29883 0.22979 0.0
H1667 H 0.38783 0.24807 0.17878 0.0
H1668 H 0.55285 0.20696 0.09545 0.0
H1669 H 0.57853 0.2872 0.11633 0.0
H1670 H 0.60067 0.19373 0.09134 0.0
H1671 H 0.62592 0.27254 0.11208 0.0
H1672 H 0.50944 0.23718 0.20475 0.0
H1673 H 0.46214 0.19482 0.14528 0.0
H1674 H 0.48119 0.21686 0.2405 0.0
H1675 H 0.4348 0.17514 0.18205 0.0
H1676 H 0.59368 0.28103 0.22385 0.0
H1677 H 0.60925 0.20506 0.1842 0.0
H1678 H 0.47697 0.19086 0.02737 0.0
H1679 H 0.50288 0.13745 0.09119 0.0
loop_
_geom_bond_atom_site_label_1
_geom_bond_atom_site_label_2
_geom_bond_distance
_geom_bond_site_symmetry_2
_ccdc_geom_bond_type
C0 C1 1.386 . S
C0 C2 1.397 . S
C0 H24 0.931 . S
C1 C0 1.386 . S
C1 C5 1.397 . S
C2 C0 1.397 . S
C2 C3 1.384 . S
C2 H25 0.930 . S
C3 C2 1.384 . S
C3 C4 1.377 1_556 S
C3 C6 1.481 1_556 S
C4 C3 1.377 1_554 S
C4 C5 1.389 1_554 S
C4 H26 0.929 . S
C5 C1 1.397 . S
C5 C4 1.389 1_556 S
C5 H27 0.931 . S
C6 C3 1.481 1_554 S
C6 C7 1.387 . S
C6 C11 1.390 . S
C7 C6 1.387 . S
C7 C8 1.401 . S
C7 H28 0.930 1_554 S
C8 C7 1.401 . S
C8 C9 1.376 . S
C8 C17 1.511 1_545 S
C9 C8 1.376 . S
C9 C10 1.392 . S
C9 H30 0.931 1_545 S
C10 C9 1.392 . S
C10 C11 1.361 . S
C10 C12 1.500 1_455 S
C11 C6 1.390 . S
C11 C10 1.361 . S
C11 H29 0.931 1_455 S
C12 C10 1.500 1_655 S
C12 C13 1.349 1_545 S
C12 C14 1.365 . S
C13 C12 1.349 1_565 S
C13 C23 1.390 . S
C13 H31 0.949 1_655 S
C14 C12 1.365 . S
C14 C15 1.409 . S
C14 H32 0.929 . S
C15 C14 1.409 . S
C15 C16 1.380 . S
C15 H33 0.930 . S
C16 C15 1.380 . S
C16 C23 1.357 1_545 S
C17 C8 1.511 1_565 S
C17 C18 1.325 1_554 S
C17 C19 1.371 . S
C18 C17 1.325 1_556 S
C18 C22 1.397 . S
C18 H34 0.943 1_565 S
C19 C17 1.371 . S
C19 C20 1.392 . S
C19 H35 0.931 . S
C20 C19 1.392 . S
C20 C21 1.331 . S
C20 H38 0.932 . S
C21 C20 1.331 . S
C21 C22 1.336 1_554 S
C22 C18 1.397 . S
C22 C21 1.336 1_556 S
C22 H37 0.929 . S
C23 C13 1.390 . S
C23 C16 1.357 1_565 S
C23 H36 0.928 . S
H24 C0 0.931 . S
H25 C2 0.930 . S
H26 C4 0.929 . S
H27 C5 0.931 . S
H28 C7 0.930 1_556 S
H29 C11 0.931 1_655 S
H30 C9 0.931 1_565 S
H31 C13 0.949 1_455 S
H32 C14 0.929 . S
H33 C15 0.930 . S
H34 C18 0.943 1_545 S
H35 C19 0.931 . S
H36 C23 0.928 . S
H37 C22 0.929 . S
H38 C20 0.932 . S
C39 C40 1.386 . S
C39 C41 1.397 . S
C39 H63 0.931 . S
C40 C39 1.386 . S
C40 C44 1.397 . S
C41 C39 1.397 . S
C41 C42 1.384 . S
C41 H64 0.930 . S
C42 C41 1.384 . S
C42 C43 1.377 . S
C42 C45 1.481 . S
C43 C42 1.377 . S
C43 C44 1.389 . S
C43 H65 0.929 . S
C44 C40 1.397 . S
C44 C43 1.389 . S
C44 H66 0.931 . S
C45 C42 1.481 . S
C45 C46 1.387 . S
C45 C50 1.390 . S
C46 C45 1.387 . S
C46 C47 1.401 . S
C46 H67 0.930 . S
C47 C46 1.401 . S
C47 C48 1.376 . S
C47 C56 1.511 . S
C48 C47 1.376 . S
C48 C49 1.392 . S
C48 H69 0.931 . S
C49 C48 1.392 . S
C49 C50 1.361 . S
C49 C51 1.500 . S
C50 C45 1.390 . S
C50 C49 1.361 . S
C50 H68 0.931 . S
C51 C49 1.500 . S
C51 C52 1.371 . S
C51 C53 1.365 . S
C52 C51 1.371 . S
C52 C62 1.386 . S
C52 H70 0.931 . S
C53 C51 1.365 . S
C53 C54 1.409 . S
C53 H71 0.929 . S
C54 C53 1.409 . S
C54 C55 1.380 . S
C54 H72 0.930 . S
C55 C54 1.380 . S
C55 C62 1.357 . S
C56 C47 1.511 . S
C56 C57 1.341 . S
C56 C58 1.371 . S
C57 C56 1.341 . S
C57 C61 1.394 . S
C57 H73 0.930 . S
C58 C56 1.371 . S
C58 C59 1.392 . S
C58 H74 0.931 . S
C59 C58 1.392 . S
C59 C60 1.331 . S
C59 H77 0.932 . S
C60 C59 1.331 . S
C60 C61 1.336 . S
C61 C57 1.394 . S
C61 C60 1.336 . S
C61 H76 0.929 . S
C62 C52 1.386 . S
C62 C55 1.357 . S
C62 H75 0.928 . S
H63 C39 0.931 . S
H64 C41 0.930 . S
H65 C43 0.929 . S
H66 C44 0.931 . S
H67 C46 0.930 . S
H68 C50 0.931 . S
H69 C48 0.931 . S
H70 C52 0.931 . S
H71 C53 0.929 . S
H72 C54 0.930 . S
H73 C57 0.930 . S
H74 C58 0.931 . S
H75 C62 0.928 . S
H76 C61 0.929 . S
H77 C59 0.932 . S
C78 C79 1.386 . S
C78 C80 1.397 1_455 S
C78 H102 0.931 . S
C79 C78 1.386 . S
C79 C83 1.397 . S
C80 C78 1.397 1_655 S
C80 C81 1.384 1_655 S
C80 H103 0.930 . S
C81 C80 1.384 1_455 S
C81 C82 1.377 . S
C81 C84 1.481 1_455 S
C82 C81 1.377 . S
C82 C83 1.389 . S
C82 H104 0.929 . S
C83 C79 1.397 . S
C83 C82 1.389 . S
C83 H105 0.931 . S
C84 C81 1.481 1_655 S
C84 C85 1.387 . S
C84 C89 1.390 . S
C85 C84 1.387 . S
C85 C86 1.401 . S
C85 H106 0.930 . S
C86 C85 1.401 . S
C86 C87 1.376 . S
C86 C95 1.511 . S
C87 C86 1.376 . S
C87 C88 1.392 . S
C87 H108 0.931 1_554 S
C88 C87 1.392 . S
C88 C89 1.361 . S
C88 C90 1.500 1_554 S
C89 C84 1.390 . S
C89 C88 1.361 . S
C89 H107 0.931 1_655 S
C90 C88 1.500 1_556 S
C90 C91 1.371 . S
C90 C92 1.365 1_655 S
C91 C90 1.371 . S
C91 C101 1.386 . S
C91 H109 0.931 . S
C92 C90 1.365 1_455 S
C92 C93 1.409 . S
C92 H110 0.931 . S
C93 C92 1.409 . S
C93 C94 1.380 1_455 S
C93 H111 0.930 . S
C94 C93 1.380 1_655 S
C94 C101 1.357 . S
C95 C86 1.511 . S
C95 C96 1.341 . S
C95 C97 1.387 . S
C96 C95 1.341 . S
C96 C100 1.394 . S
C96 H112 0.930 . S
C97 C95 1.387 . S
C97 C98 1.390 1_554 S
C97 H113 0.918 1_554 S
C98 C97 1.390 1_556 S
C98 C99 1.331 1_556 S
C98 H116 0.932 . S
C99 C98 1.331 1_554 S
C99 C100 1.336 . S
C100 C96 1.394 . S
C100 C99 1.336 . S
C100 H115 0.929 . S
C101 C91 1.386 . S
C101 C94 1.357 . S
C101 H114 0.928 . S
H102 C78 0.931 . S
H103 C80 0.930 . S
H104 C82 0.929 . S
H105 C83 0.931 . S
H106 C85 0.930 . S
H107 C89 0.931 1_455 S
H108 C87 0.931 1_556 S
H109 C91 0.931 . S
H110 C92 0.931 . S
H111 C93 0.930 . S
H112 C96 0.930 . S
H113 C97 0.918 1_556 S
H114 C101 0.928 . S
H115 C100 0.929 . S
H116 C98 0.932 . S
C117 C118 1.386 . S
C117 C119 1.397 . S
C117 H141 0.931 . S
C118 C117 1.386 . S
C118 C122 1.397 . S
C119 C117 1.397 . S
C119 C120 1.384 . S
C119 H142 0.930 . S
C120 C119 1.384 . S
C120 C121 1.377 . S
C120 C123 1.481 . S
C121 C120 1.377 . S
C121 C122 1.389 . S
C121 H143 0.929 . S
C122 C118 1.397 . S
C122 C121 1.389 . S
C122 H144 0.931 . S
C123 C120 1.481 . S
C123 C124 1.387 . S
C123 C128 1.390 . S
C124 C123 1.387 . S
C124 C125 1.401 . S
C124 H145 0.930 . S
C125 C124 1.401 . S
C125 C126 1.376 . S
C125 C134 1.511 . S
C126 C125 1.376 . S
C126 C127 1.392 . S
C126 H147 0.931 . S
C127 C126 1.392 . S
C127 C128 1.361 . S
C127 C129 1.500 . S
C128 C123 1.390 . S
C128 C127 1.361 . S
C128 H146 0.931 . S
C129 C127 1.500 . S
C129 C130 1.371 . S
C129 C131 1.365 . S
C130 C129 1.371 . S
C130 C140 1.386 . S
C130 H148 0.931 . S
C131 C129 1.365 . S
C131 C132 1.409 . S
C131 H149 0.929 . S
C132 C131 1.409 . S
C132 C133 1.380 . S
C132 H150 0.930 . S
C133 C132 1.380 . S
C133 C140 1.357 . S
C134 C125 1.511 . S
C134 C135 1.341 . S
C134 C136 1.371 . S
C135 C134 1.341 . S
C135 C139 1.394 . S
C135 H151 0.930 . S
C136 C134 1.371 . S
C136 C137 1.392 . S
C136 H152 0.931 . S
C137 C136 1.392 . S
C137 C138 1.331 . S
C137 H155 0.932 . S
C138 C137 1.331 . S
C138 C139 1.336 . S
C139 C135 1.394 . S
C139 C138 1.336 . S
C139 H154 0.929 . S
C140 C130 1.386 . S
C140 C133 1.357 . S
C140 H153 0.928 . S
H141 C117 0.931 . S
H142 C119 0.930 . S
H143 C121 0.929 . S
H144 C122 0.931 . S
H145 C124 0.930 . S
H146 C128 0.931 . S
H147 C126 0.931 . S
H148 C130 0.931 . S
H149 C131 0.929 . S
H150 C132 0.930 . S
H151 C135 0.930 . S
H152 C136 0.931 . S
H153 C140 0.928 . S
H154 C139 0.929 . S
H155 C137 0.932 . S
C156 C157 1.386 . S
C156 C158 1.397 . S
C156 H180 0.931 . S
C157 C156 1.386 . S
C157 C161 1.397 . S
C158 C156 1.397 . S
C158 C159 1.384 . S
C158 H181 0.930 . S
C159 C158 1.384 . S
C159 C160 1.377 1_655 S
C159 C162 1.481 1_655 S
C160 C159 1.377 1_455 S
C160 C161 1.389 1_455 S
C160 H182 0.929 . S
C161 C157 1.397 . S
C161 C160 1.389 1_655 S
C161 H183 0.931 . S
C162 C159 1.481 1_455 S
C162 C163 1.387 . S
C162 C167 1.390 . S
C163 C162 1.387 . S
C163 C164 1.401 . S
C163 H184 0.930 1_455 S
C164 C163 1.401 . S
C164 C165 1.376 . S
C164 C173 1.511 . S
C165 C164 1.376 . S
C165 C166 1.392 . S
C165 H186 0.931 . S
C166 C165 1.392 . S
C166 C167 1.361 . S
C166 C168 1.500 1_565 S
C167 C162 1.390 . S
C167 C166 1.361 . S
C167 H185 0.931 1_565 S
C168 C166 1.500 1_545 S
C168 C169 1.371 . S
C168 C170 1.365 . S
C169 C168 1.371 . S
C169 C179 1.386 . S
C169 H187 0.931 . S
C170 C168 1.365 . S
C170 C171 1.409 . S
C170 H188 0.929 . S
C171 C170 1.409 . S
C171 C172 1.380 . S
C171 H189 0.930 . S
C172 C171 1.380 . S
C172 C179 1.357 . S
C173 C164 1.511 . S
C173 C174 1.338 1_455 S
C173 C175 1.371 . S
C174 C173 1.338 1_655 S
C174 C178 1.394 . S
C174 H190 0.933 . S
C175 C173 1.371 . S
C175 C176 1.392 . S
C175 H191 0.931 . S
C176 C175 1.392 . S
C176 C177 1.331 . S
C176 H194 0.932 . S
C177 C176 1.331 . S
C177 C178 1.336 1_455 S
C178 C174 1.394 . S
C178 C177 1.336 1_655 S
C178 H193 0.929 . S
C179 C169 1.386 . S
C179 C172 1.357 . S
C179 H192 0.928 . S
H180 C156 0.931 . S
H181 C158 0.930 . S
H182 C160 0.929 . S
H183 C161 0.931 . S
H184 C163 0.930 1_655 S
H185 C167 0.931 1_545 S
H186 C165 0.931 . S
H187 C169 0.931 . S
H188 C170 0.929 . S
H189 C171 0.930 . S
H190 C174 0.933 . S
H191 C175 0.931 . S
H192 C179 0.928 . S
H193 C178 0.929 . S
H194 C176 0.932 . S
C195 C196 1.386 . S
C195 C197 1.397 . S
C195 H219 0.931 . S
C196 C195 1.386 . S
C196 C200 1.397 . S
C197 C195 1.397 . S
C197 C198 1.384 . S
C197 H220 0.930 . S
C198 C197 1.384 . S
C198 C199 1.377 . S
C198 C201 1.481 . S
C199 C198 1.377 . S
C199 C200 1.389 . S
C199 H221 0.929 . S
C200 C196 1.397 . S
C200 C199 1.389 . S
C200 H222 0.931 . S
C201 C198 1.481 . S
C201 C202 1.387 . S
C201 C206 1.390 . S
C202 C201 1.387 . S
C202 C203 1.401 . S
C202 H223 0.930 . S
C203 C202 1.401 . S
C203 C204 1.376 . S
C203 C212 1.511 . S
C204 C203 1.376 . S
C204 C205 1.392 . S
C204 H225 0.931 . S
C205 C204 1.392 . S
C205 C206 1.361 . S
C205 C207 1.500 . S
C206 C201 1.390 . S
C206 C205 1.361 . S
C206 H224 0.931 . S
C207 C205 1.500 . S
C207 C208 1.371 . S
C207 C209 1.365 . S
C208 C207 1.371 . S
C208 C218 1.386 . S
C208 H226 0.931 . S
C209 C207 1.365 . S
C209 C210 1.409 . S
C209 H227 0.929 . S
C210 C209 1.409 . S
C210 C211 1.380 . S
C210 H228 0.930 . S
C211 C210 1.380 . S
C211 C218 1.357 . S
C212 C203 1.511 . S
C212 C213 1.341 . S
C212 C214 1.371 . S
C213 C212 1.341 . S
C213 C217 1.394 . S
C213 H229 0.930 . S
C214 C212 1.371 . S
C214 C215 1.392 . S
C214 H230 0.931 . S
C215 C214 1.392 . S
C215 C216 1.331 . S
C215 H233 0.932 . S
C216 C215 1.331 . S
C216 C217 1.336 . S
C217 C213 1.394 . S
C217 C216 1.336 . S
C217 H232 0.929 . S
C218 C208 1.386 . S
C218 C211 1.357 . S
C218 H231 0.928 . S
H219 C195 0.931 . S
H220 C197 0.930 . S
H221 C199 0.929 . S
H222 C200 0.931 . S
H223 C202 0.930 . S
H224 C206 0.931 . S
H225 C204 0.931 . S
H226 C208 0.931 . S
H227 C209 0.929 . S
H228 C210 0.930 . S
H229 C213 0.930 . S
H230 C214 0.931 . S
H231 C218 0.928 . S
H232 C217 0.929 . S
H233 C215 0.932 . S
C234 C235 1.386 . S
C234 C236 1.397 . S
C234 H258 0.931 . S
C235 C234 1.386 . S
C235 C239 1.397 . S
C236 C234 1.397 . S
C236 C237 1.384 . S
C236 H259 0.930 . S
C237 C236 1.384 . S
C237 C238 1.377 . S
C237 C240 1.481 . S
C238 C237 1.377 . S
C238 C239 1.389 . S
C238 H260 0.929 . S
C239 C235 1.397 . S
C239 C238 1.389 . S
C239 H261 0.931 . S
C240 C237 1.481 . S
C240 C241 1.387 . S
C240 C245 1.390 . S
C241 C240 1.387 . S
C241 C242 1.401 . S
C241 H262 0.930 1_655 S
C242 C241 1.401 . S
C242 C243 1.376 . S
C242 C251 1.511 1_655 S
C243 C242 1.376 . S
C243 C244 1.392 . S
C243 H264 0.931 . S
C244 C243 1.392 . S
C244 C245 1.361 . S
C244 C246 1.500 . S
C245 C240 1.390 . S
C245 C244 1.361 . S
C245 H263 0.931 . S
C246 C244 1.500 . S
C246 C247 1.371 . S
C246 C248 1.365 . S
C247 C246 1.371 . S
C247 C257 1.386 . S
C247 H265 0.931 . S
C248 C246 1.365 . S
C248 C249 1.409 . S
C248 H266 0.929 . S
C249 C248 1.409 . S
C249 C250 1.380 . S
C249 H267 0.930 . S
C250 C249 1.380 . S
C250 C257 1.357 . S
C251 C242 1.511 1_455 S
C251 C252 1.341 . S
C251 C253 1.371 . S
C252 C251 1.341 . S
C252 C256 1.394 . S
C252 H268 0.930 . S
C253 C251 1.371 . S
C253 C254 1.392 . S
C253 H269 0.931 1_455 S
C254 C253 1.392 . S
C254 C255 1.331 . S
C254 H272 0.932 . S
C255 C254 1.331 . S
C255 C256 1.336 . S
C256 C252 1.394 . S
C256 C255 1.336 . S
C256 H271 0.929 . S
C257 C247 1.386 . S
C257 C250 1.357 . S
C257 H270 0.928 . S
H258 C234 0.931 . S
H259 C236 0.930 . S
H260 C238 0.929 . S
H261 C239 0.931 . S
H262 C241 0.930 1_455 S
H263 C245 0.931 . S
H264 C243 0.931 . S
H265 C247 0.931 . S
H266 C248 0.929 . S
H267 C249 0.930 . S
H268 C252 0.930 . S
H269 C253 0.931 1_655 S
H270 C257 0.928 . S
H271 C256 0.929 . S
H272 C254 0.932 . S
C273 C274 1.386 . S
C273 C275 1.397 . S
C273 H297 0.931 . S
C274 C273 1.386 . S
C274 C278 1.397 . S
C275 C273 1.397 . S
C275 C276 1.384 . S
C275 H298 0.930 . S
C276 C275 1.384 . S
C276 C277 1.377 . S
C276 C279 1.481 . S
C277 C276 1.377 . S
C277 C278 1.389 . S
C277 H299 0.929 . S
C278 C274 1.397 . S
C278 C277 1.389 . S
C278 H300 0.931 . S
C279 C276 1.481 . S
C279 C280 1.387 . S
C279 C284 1.390 . S
C280 C279 1.387 . S
C280 C281 1.401 . S
C280 H301 0.930 . S
C281 C280 1.401 . S
C281 C282 1.376 . S
C281 C290 1.511 . S
C282 C281 1.376 . S
C282 C283 1.392 . S
C282 H303 0.931 . S
C283 C282 1.392 . S
C283 C284 1.361 . S
C283 C285 1.500 . S
C284 C279 1.390 . S
C284 C283 1.361 . S
C284 H302 0.931 . S
C285 C283 1.500 . S
C285 C286 1.371 . S
C285 C287 1.365 . S
C286 C285 1.371 . S
C286 C296 1.386 . S
C286 H304 0.931 . S
C287 C285 1.365 . S
C287 C288 1.409 . S
C287 H305 0.929 . S
C288 C287 1.409 . S
C288 C289 1.380 . S
C288 H306 0.930 . S
C289 C288 1.380 . S
C289 C296 1.357 . S
C290 C281 1.511 . S
C290 C291 1.341 . S
C290 C292 1.371 . S
C291 C290 1.341 . S
C291 C295 1.394 . S
C291 H307 0.930 . S
C292 C290 1.371 . S
C292 C293 1.392 . S
C292 H308 0.931 . S
C293 C292 1.392 . S
C293 C294 1.331 . S
C293 H311 0.932 . S
C294 C293 1.331 . S
C294 C295 1.336 . S
C295 C291 1.394 . S
C295 C294 1.336 . S
C295 H310 0.929 . S
C296 C286 1.386 . S
C296 C289 1.357 . S
C296 H309 0.928 . S
H297 C273 0.931 . S
H298 C275 0.930 . S
H299 C277 0.929 . S
H300 C278 0.931 . S
H301 C280 0.930 . S
H302 C284 0.931 . S
H303 C282 0.931 . S
H304 C286 0.931 . S
H305 C287 0.929 . S
H306 C288 0.930 . S
H307 C291 0.930 . S
H308 C292 0.931 . S
H309 C296 0.928 . S
H310 C295 0.929 . S
H311 C293 0.932 . S
C312 C313 1.386 . S
C312 C314 1.397 . S
C312 H336 0.931 . S
C313 C312 1.386 . S
C313 C317 1.397 . S
C314 C312 1.397 . S
C314 C315 1.384 . S
C314 H337 0.930 . S
C315 C314 1.384 . S
C315 C316 1.377 . S
C315 C318 1.481 . S
C316 C315 1.377 . S
C316 C317 1.389 . S
C316 H338 0.929 . S
C317 C313 1.397 . S
C317 C316 1.389 . S
C317 H339 0.931 . S
C318 C315 1.481 . S
C318 C319 1.387 . S
C318 C323 1.390 . S
C319 C318 1.387 . S
C319 C320 1.401 . S
C319 H340 0.930 . S
C320 C319 1.401 . S
C320 C321 1.376 . S
C320 C329 1.511 . S
C321 C320 1.376 . S
C321 C322 1.392 . S
C321 H342 0.931 . S
C322 C321 1.392 . S
C322 C323 1.361 . S
C322 C324 1.500 . S
C323 C318 1.390 . S
C323 C322 1.361 . S
C323 H341 0.931 . S
C324 C322 1.500 . S
C324 C325 1.371 . S
C324 C326 1.365 . S
C325 C324 1.371 . S
C325 C335 1.386 . S
C325 H343 0.931 . S
C326 C324 1.365 . S
C326 C327 1.409 . S
C326 H344 0.929 . S
C327 C326 1.409 . S
C327 C328 1.380 . S
C327 H345 0.930 . S
C328 C327 1.380 . S
C328 C335 1.357 . S
C329 C320 1.511 . S
C329 C330 1.341 . S
C329 C331 1.371 . S
C330 C329 1.341 . S
C330 C334 1.394 . S
C330 H346 0.930 . S
C331 C329 1.371 . S
C331 C332 1.392 . S
C331 H347 0.931 . S
C332 C331 1.392 . S
C332 C333 1.331 . S
C332 H350 0.932 . S
C333 C332 1.331 . S
C333 C334 1.336 . S
C334 C330 1.394 . S
C334 C333 1.336 . S
C334 H349 0.929 . S
C335 C325 1.386 . S
C335 C328 1.357 . S
C335 H348 0.928 . S
H336 C312 0.931 . S
H337 C314 0.930 . S
H338 C316 0.929 . S
H339 C317 0.931 . S
H340 C319 0.930 . S
H341 C323 0.931 . S
H342 C321 0.931 . S
H343 C325 0.931 . S
H344 C326 0.929 . S
H345 C327 0.930 . S
H346 C330 0.930 . S
H347 C331 0.931 . S
H348 C335 0.928 . S
H349 C334 0.929 . S
H350 C332 0.932 . S
C351 C352 1.386 . S
C351 C353 1.397 . S
C351 H375 0.931 . S
C352 C351 1.386 . S
C352 C356 1.397 . S
C353 C351 1.397 . S
C353 C354 1.384 . S
C353 H376 0.930 . S
C354 C353 1.384 . S
C354 C355 1.377 . S
C354 C357 1.481 . S
C355 C354 1.377 . S
C355 C356 1.389 . S
C355 H377 0.929 . S
C356 C352 1.397 . S
C356 C355 1.389 . S
C356 H378 0.931 . S
C357 C354 1.481 . S
C357 C358 1.387 . S
C357 C362 1.390 . S
C358 C357 1.387 . S
C358 C359 1.401 . S
C358 H379 0.930 1_565 S
C359 C358 1.401 . S
C359 C360 1.376 . S
C359 C368 1.511 1_565 S
C360 C359 1.376 . S
C360 C361 1.392 . S
C360 H381 0.931 . S
C361 C360 1.392 . S
C361 C362 1.361 . S
C361 C363 1.500 . S
C362 C357 1.390 . S
C362 C361 1.361 . S
C362 H380 0.931 . S
C363 C361 1.500 . S
C363 C364 1.371 . S
C363 C365 1.365 . S
C364 C363 1.371 . S
C364 C374 1.386 . S
C364 H382 0.931 . S
C365 C363 1.365 . S
C365 C366 1.409 . S
C365 H383 0.929 . S
C366 C365 1.409 . S
C366 C367 1.380 . S
C366 H384 0.930 . S
C367 C366 1.380 . S
C367 C374 1.357 . S
C368 C359 1.511 1_545 S
C368 C369 1.341 . S
C368 C370 1.371 . S
C369 C368 1.341 . S
C369 C373 1.394 . S
C369 H385 0.930 . S
C370 C368 1.371 . S
C370 C371 1.392 . S
C370 H386 0.931 1_545 S
C371 C370 1.392 . S
C371 C372 1.331 . S
C371 H389 0.932 . S
C372 C371 1.331 . S
C372 C373 1.336 . S
C373 C369 1.394 . S
C373 C372 1.336 . S
C373 H388 0.929 . S
C374 C364 1.386 . S
C374 C367 1.357 . S
C374 H387 0.928 . S
H375 C351 0.931 . S
H376 C353 0.930 . S
H377 C355 0.929 . S
H378 C356 0.931 . S
H379 C358 0.930 1_545 S
H380 C362 0.931 . S
H381 C360 0.931 . S
H382 C364 0.931 . S
H383 C365 0.929 . S
H384 C366 0.930 . S
H385 C369 0.930 . S
H386 C370 0.931 1_565 S
H387 C374 0.928 . S
H388 C373 0.929 . S
H389 C371 0.932 . S
C390 C391 1.386 . S
C390 C392 1.397 . S
C390 H414 0.931 . S
C391 C390 1.386 . S
C391 C395 1.397 . S
C392 C390 1.397 . S
C392 C393 1.384 . S
C392 H415 0.930 . S
C393 C392 1.384 . S
C393 C394 1.377 . S
C393 C396 1.481 . S
C394 C393 1.377 . S
C394 C395 1.389 . S
C394 H416 0.929 . S
C395 C391 1.397 . S
C395 C394 1.389 . S
C395 H417 0.931 . S
C396 C393 1.481 . S
C396 C397 1.387 . S
C396 C401 1.390 . S
C397 C396 1.387 . S
C397 C398 1.401 . S
C397 H418 0.930 . S
C398 C397 1.401 . S
C398 C399 1.376 . S
C398 C407 1.511 . S
C399 C398 1.376 . S
C399 C400 1.392 . S
C399 H420 0.931 . S
C400 C399 1.392 . S
C400 C401 1.361 . S
C400 C402 1.500 . S
C401 C396 1.390 . S
C401 C400 1.361 . S
C401 H419 0.931 . S
C402 C400 1.500 . S
C402 C403 1.371 . S
C402 C404 1.365 . S
C403 C402 1.371 . S
C403 C413 1.386 . S
C403 H421 0.931 . S
C404 C402 1.365 . S
C404 C405 1.409 . S
C404 H422 0.929 . S
C405 C404 1.409 . S
C405 C406 1.380 . S
C405 H423 0.930 . S
C406 C405 1.380 . S
C406 C413 1.357 . S
C407 C398 1.511 . S
C407 C408 1.341 . S
C407 C409 1.371 . S
C408 C407 1.341 . S
C408 C412 1.394 . S
C408 H424 0.930 . S
C409 C407 1.371 . S
C409 C410 1.392 . S
C409 H425 0.931 . S
C410 C409 1.392 . S
C410 C411 1.331 . S
C410 H428 0.932 . S
C411 C410 1.331 . S
C411 C412 1.336 . S
C412 C408 1.394 . S
C412 C411 1.336 . S
C412 H427 0.929 . S
C413 C403 1.386 . S
C413 C406 1.357 . S
C413 H426 0.928 . S
H414 C390 0.931 . S
H415 C392 0.930 . S
H416 C394 0.929 . S
H417 C395 0.931 . S
H418 C397 0.930 . S
H419 C401 0.931 . S
H420 C399 0.931 . S
H421 C403 0.931 . S
H422 C404 0.929 . S
H423 C405 0.930 . S
H424 C408 0.930 . S
H425 C409 0.931 . S
H426 C413 0.928 . S
H427 C412 0.929 . S
H428 C410 0.932 . S
C429 C430 1.386 . S
C429 C431 1.397 . S
C429 H453 0.931 . S
C430 C429 1.386 . S
C430 C434 1.397 . S
C431 C429 1.397 . S
C431 C432 1.384 . S
C431 H454 0.930 . S
C432 C431 1.384 . S
C432 C433 1.377 . S
C432 C435 1.481 . S
C433 C432 1.377 . S
C433 C434 1.389 . S
C433 H455 0.929 . S
C434 C430 1.397 . S
C434 C433 1.389 . S
C434 H456 0.931 . S
C435 C432 1.481 . S
C435 C436 1.387 . S
C435 C440 1.390 . S
C436 C435 1.387 . S
C436 C437 1.401 . S
C436 H457 0.930 . S
C437 C436 1.401 . S
C437 C438 1.376 . S
C437 C446 1.511 . S
C438 C437 1.376 . S
C438 C439 1.392 . S
C438 H459 0.931 . S
C439 C438 1.392 . S
C439 C440 1.361 . S
C439 C441 1.500 . S
C440 C435 1.390 . S
C440 C439 1.361 . S
C440 H458 0.931 . S
C441 C439 1.500 . S
C441 C442 1.371 . S
C441 C443 1.365 . S
C442 C441 1.371 . S
C442 C452 1.386 . S
C442 H460 0.931 . S
C443 C441 1.365 . S
C443 C444 1.409 . S
C443 H461 0.929 . S
C444 C443 1.409 . S
C444 C445 1.380 . S
C444 H462 0.930 . S
C445 C444 1.380 . S
C445 C452 1.357 . S
C446 C437 1.511 . S
C446 C447 1.341 . S
C446 C448 1.371 . S
C447 C446 1.341 . S
C447 C451 1.394 . S
C447 H463 0.930 . S
C448 C446 1.371 . S
C448 C449 1.392 . S
C448 H464 0.931 . S
C449 C448 1.392 . S
C449 C450 1.331 . S
C449 H467 0.932 . S
C450 C449 1.331 . S
C450 C451 1.336 . S
C451 C447 1.394 . S
C451 C450 1.336 . S
C451 H466 0.929 . S
C452 C442 1.386 . S
C452 C445 1.357 . S
C452 H465 0.928 . S
H453 C429 0.931 . S
H454 C431 0.930 . S
H455 C433 0.929 . S
H456 C434 0.931 . S
H457 C436 0.930 . S
H458 C440 0.931 . S
H459 C438 0.931 . S
H460 C442 0.931 . S
H461 C443 0.929 . S
H462 C444 0.930 . S
H463 C447 0.930 . S
H464 C448 0.931 . S
H465 C452 0.928 . S
H466 C451 0.929 . S
H467 C449 0.932 . S
C468 C469 1.386 . S
C468 C470 1.397 . S
C468 H492 0.931 . S
C469 C468 1.386 . S
C469 C473 1.397 . S
C470 C468 1.397 . S
C470 C471 1.384 . S
C470 H493 0.930 . S
C471 C470 1.384 . S
C471 C472 1.377 . S
C471 C474 1.481 . S
C472 C471 1.377 . S
C472 C473 1.389 . S
C472 H494 0.929 . S
C473 C469 1.397 . S
C473 C472 1.389 . S
C473 H495 0.931 . S
C474 C471 1.481 . S
C474 C475 1.387 . S
C474 C479 1.390 . S
C475 C474 1.387 . S
C475 C476 1.401 . S
C475 H496 0.930 . S
C476 C475 1.401 . S
C476 C477 1.376 . S
C476 C485 1.511 . S
C477 C476 1.376 . S
C477 C478 1.392 . S
C477 H498 0.931 . S
C478 C477 1.392 . S
C478 C479 1.361 . S
C478 C480 1.500 . S
C479 C474 1.390 . S
C479 C478 1.361 . S
C479 H497 0.931 . S
C480 C478 1.500 . S
C480 C481 1.371 . S
C480 C482 1.365 . S
C481 C480 1.371 . S
C481 C491 1.386 . S
C481 H499 0.931 . S
C482 C480 1.365 . S
C482 C483 1.409 . S
C482 H500 0.929 . S
C483 C482 1.409 . S
C483 C484 1.380 . S
C483 H501 0.930 . S
C484 C483 1.380 . S
C484 C491 1.357 . S
C485 C476 1.511 . S
C485 C486 1.341 . S
C485 C487 1.371 . S
C486 C485 1.341 . S
C486 C490 1.394 . S
C486 H502 0.930 . S
C487 C485 1.371 . S
C487 C488 1.392 . S
C487 H503 0.931 . S
C488 C487 1.392 . S
C488 C489 1.331 . S
C488 H506 0.932 . S
C489 C488 1.331 . S
C489 C490 1.336 . S
C490 C486 1.394 . S
C490 C489 1.336 . S
C490 H505 0.929 . S
C491 C481 1.386 . S
C491 C484 1.357 . S
C491 H504 0.928 . S
H492 C468 0.931 . S
H493 C470 0.930 . S
H494 C472 0.929 . S
H495 C473 0.931 . S
H496 C475 0.930 . S
H497 C479 0.931 . S
H498 C477 0.931 . S
H499 C481 0.931 . S
H500 C482 0.929 . S
H501 C483 0.930 . S
H502 C486 0.930 . S
H503 C487 0.931 . S
H504 C491 0.928 . S
H505 C490 0.929 . S
H506 C488 0.932 . S
C507 C508 1.386 . S
C507 C509 1.397 . S
C507 H531 0.931 . S
C508 C507 1.386 . S
C508 C512 1.397 . S
C509 C507 1.397 . S
C509 C510 1.384 . S
C509 H532 0.930 . S
C510 C509 1.384 . S
C510 C511 1.377 . S
C510 C513 1.481 . S
C511 C510 1.377 . S
C511 C512 1.389 . S
C511 H533 0.929 . S
C512 C508 1.397 . S
C512 C511 1.389 . S
C512 H534 0.931 . S
C513 C510 1.481 . S
C513 C514 1.387 . S
C513 C518 1.390 . S
C514 C513 1.387 . S
C514 C515 1.401 . S
C514 H535 0.930 . S
C515 C514 1.401 . S
C515 C516 1.376 . S
C515 C524 1.511 1_556 S
C516 C515 1.376 . S
C516 C517 1.392 . S
C516 H537 0.931 1_556 S
C517 C516 1.392 . S
C517 C518 1.361 . S
C517 C519 1.500 . S
C518 C513 1.390 . S
C518 C517 1.361 . S
C518 H536 0.931 . S
C519 C517 1.500 . S
C519 C520 1.371 1_556 S
C519 C521 1.365 . S
C520 C519 1.371 1_554 S
C520 C530 1.386 . S
C520 H538 0.931 . S
C521 C519 1.365 . S
C521 C522 1.409 . S
C521 H539 0.929 . S
C522 C521 1.409 . S
C522 C523 1.380 . S
C522 H540 0.930 . S
C523 C522 1.380 . S
C523 C530 1.357 1_556 S
C524 C515 1.511 1_554 S
C524 C525 1.341 . S
C524 C526 1.371 . S
C525 C524 1.341 . S
C525 C529 1.394 . S
C525 H541 0.930 1_554 S
C526 C524 1.371 . S
C526 C527 1.392 . S
C526 H542 0.931 . S
C527 C526 1.392 . S
C527 C528 1.331 . S
C527 H545 0.932 . S
C528 C527 1.331 . S
C528 C529 1.336 . S
C529 C525 1.394 . S
C529 C528 1.336 . S
C529 H544 0.929 . S
C530 C520 1.386 . S
C530 C523 1.357 1_554 S
C530 H543 0.928 . S
H531 C507 0.931 . S
H532 C509 0.930 . S
H533 C511 0.929 . S
H534 C512 0.931 . S
H535 C514 0.930 . S
H536 C518 0.931 . S
H537 C516 0.931 1_554 S
H538 C520 0.931 . S
H539 C521 0.929 . S
H540 C522 0.930 . S
H541 C525 0.930 1_556 S
H542 C526 0.931 . S
H543 C530 0.928 . S
H544 C529 0.929 . S
H545 C527 0.932 . S
C546 C547 1.386 . S
C546 C548 1.397 . S
C546 H570 0.931 . S
C547 C546 1.386 . S
C547 C551 1.397 . S
C548 C546 1.397 . S
C548 C549 1.384 . S
C548 H571 0.930 . S
C549 C548 1.384 . S
C549 C550 1.377 . S
C549 C552 1.481 . S
C550 C549 1.377 . S
C550 C551 1.389 . S
C550 H572 0.929 . S
C551 C547 1.397 . S
C551 C550 1.389 . S
C551 H573 0.931 . S
C552 C549 1.481 . S
C552 C553 1.387 . S
C552 C557 1.390 . S
C553 C552 1.387 . S
C553 C554 1.401 . S
C553 H574 0.930 . S
C554 C553 1.401 . S
C554 C555 1.376 . S
C554 C563 1.511 . S
C555 C554 1.376 . S
C555 C556 1.392 . S
C555 H576 0.931 . S
C556 C555 1.392 . S
C556 C557 1.361 . S
C556 C558 1.500 . S
C557 C552 1.390 . S
C557 C556 1.361 . S
C557 H575 0.931 . S
C558 C556 1.500 . S
C558 C559 1.371 . S
C558 C560 1.365 . S
C559 C558 1.371 . S
C559 C569 1.386 . S
C559 H577 0.931 . S
C560 C558 1.365 . S
C560 C561 1.409 . S
C560 H578 0.929 . S
C561 C560 1.409 . S
C561 C562 1.380 . S
C561 H579 0.930 . S
C562 C561 1.380 . S
C562 C569 1.357 . S
C563 C554 1.511 . S
C563 C564 1.341 . S
C563 C565 1.371 . S
C564 C563 1.341 . S
C564 C568 1.394 . S
C564 H580 0.930 . S
C565 C563 1.371 . S
C565 C566 1.392 . S
C565 H581 0.931 . S
C566 C565 1.392 . S
C566 C567 1.331 . S
C566 H584 0.932 . S
C567 C566 1.331 . S
C567 C568 1.336 . S
C568 C564 1.394 . S
C568 C567 1.336 . S
C568 H583 0.929 . S
C569 C559 1.386 . S
C569 C562 1.357 . S
C569 H582 0.928 . S
H570 C546 0.931 . S
H571 C548 0.930 . S
H572 C550 0.929 . S
H573 C551 0.931 . S
H574 C553 0.930 . S
H575 C557 0.931 . S
H576 C555 0.931 . S
H577 C559 0.931 . S
H578 C560 0.929 . S
H579 C561 0.930 . S
H580 C564 0.930 . S
H581 C565 0.931 . S
H582 C569 0.928 . S
H583 C568 0.929 . S
H584 C566 0.932 . S
C585 C586 1.386 . S
C585 C587 1.397 1_554 S
C585 H609 0.931 . S
C586 C585 1.386 . S
C586 C590 1.397 . S
C587 C585 1.397 1_556 S
C587 C588 1.384 1_556 S
C587 H610 0.930 . S
C588 C587 1.384 1_554 S
C588 C589 1.377 . S
C588 C591 1.481 1_554 S
C589 C588 1.377 . S
C589 C590 1.389 . S
C589 H611 0.929 . S
C590 C586 1.397 . S
C590 C589 1.389 . S
C590 H612 0.931 . S
C591 C588 1.481 1_556 S
C591 C592 1.387 . S
C591 C596 1.390 . S
C592 C591 1.387 . S
C592 C593 1.401 . S
C592 H613 0.930 . S
C593 C592 1.401 . S
C593 C594 1.376 . S
C593 C602 1.511 . S
C594 C593 1.376 . S
C594 C595 1.392 . S
C594 H615 0.931 1_545 S
C595 C594 1.392 . S
C595 C596 1.361 . S
C595 C597 1.500 1_545 S
C596 C591 1.390 . S
C596 C595 1.361 . S
C596 H614 0.931 1_556 S
C597 C595 1.500 1_565 S
C597 C598 1.371 . S
C597 C599 1.365 1_556 S
C598 C597 1.371 . S
C598 C608 1.386 . S
C598 H616 0.931 . S
C599 C597 1.365 1_554 S
C599 C600 1.409 . S
C599 H617 0.946 . S
C600 C599 1.409 . S
C600 C601 1.380 1_554 S
C600 H618 0.930 . S
C601 C600 1.380 1_556 S
C601 C608 1.357 . S
C602 C593 1.511 . S
C602 C603 1.341 . S
C602 C604 1.365 1_545 S
C603 C602 1.341 . S
C603 C607 1.394 . S
C603 H619 0.930 . S
C604 C602 1.365 1_565 S
C604 C605 1.394 . S
C604 H620 0.936 . S
C605 C604 1.394 . S
C605 C606 1.331 1_565 S
C605 H623 0.932 . S
C606 C605 1.331 1_545 S
C606 C607 1.336 . S
C607 C603 1.394 . S
C607 C606 1.336 . S
C607 H622 0.929 . S
C608 C598 1.386 . S
C608 C601 1.357 . S
C608 H621 0.928 . S
H609 C585 0.931 . S
H610 C587 0.930 . S
H611 C589 0.929 . S
H612 C590 0.931 . S
H613 C592 0.930 . S
H614 C596 0.931 1_554 S
H615 C594 0.931 1_565 S
H616 C598 0.931 . S
H617 C599 0.946 . S
H618 C600 0.930 . S
H619 C603 0.930 . S
H620 C604 0.936 . S
H621 C608 0.928 . S
H622 C607 0.929 . S
H623 C605 0.932 . S
Li624 N641 1.990 . S
Li624 O684 1.956 . S
Li624 O685 1.970 1_556 S
Li624 O686 1.961 . S
Li625 N649 1.990 . S
Li625 O684 1.970 1_554 S
Li625 O685 1.956 . S
Li625 O687 1.961 . S
Li626 N671 1.990 . S
Li626 O684 1.961 . S
Li626 O686 1.956 . S
Li626 O687 1.970 1_556 S
Li627 N677 1.990 . S
Li627 O685 1.961 . S
Li627 O686 1.970 1_554 S
Li627 O687 1.956 . S
C628 C630 1.348 1_556 S
C628 C631 1.356 . S
C628 O684 1.325 . S
N629 C632 1.314 1_556 S
N629 C633 1.279 . S
C630 C628 1.348 1_554 S
C630 C632 1.353 . S
C630 H688 0.929 . S
C631 C628 1.356 . S
C631 C633 1.358 . S
C631 H689 0.930 . S
C632 N629 1.314 1_554 S
C632 C630 1.353 . S
C632 H690 0.930 . S
C633 N629 1.279 . S
C633 C631 1.358 . S
C633 H691 0.930 . S
C634 C637 1.348 . S
C634 C638 1.356 . S
C634 O685 1.325 . S
C635 N636 1.279 . S
C635 C638 1.358 . S
C635 H692 0.930 . S
N636 C635 1.279 . S
N636 C639 1.314 . S
C637 C634 1.348 . S
C637 C639 1.353 . S
C637 H693 0.929 . S
C638 C634 1.356 . S
C638 C635 1.358 . S
C638 H694 0.930 . S
C639 N636 1.314 . S
C639 C637 1.353 . S
C639 H695 0.930 . S
C640 N641 1.314 . S
C640 C645 1.353 . S
C640 H646 0.930 . S
N641 Li624 1.990 . S
N641 C640 1.314 . S
N641 C643 1.279 . S
C642 C643 1.358 . S
C642 C644 1.356 . S
C642 H696 0.930 . S
C643 N641 1.279 . S
C643 C642 1.358 . S
C643 H647 0.930 . S
C644 C642 1.356 . S
C644 C645 1.348 . S
C645 C640 1.353 . S
C645 C644 1.348 . S
C645 H697 0.929 . S
H646 C640 0.930 . S
H647 C643 0.930 . S
C648 N649 1.314 . S
C648 C650 1.353 . S
C648 H654 0.930 . S
N649 Li625 1.990 . S
N649 C648 1.314 . S
N649 C652 1.279 . S
C650 C648 1.353 . S
C650 C653 1.348 . S
C650 H698 0.929 . S
C651 C652 1.358 . S
C651 C653 1.356 . S
C651 H699 0.930 . S
C652 N649 1.279 . S
C652 C651 1.358 . S
C652 H655 0.930 . S
C653 C650 1.348 . S
C653 C651 1.356 . S
H654 C648 0.930 . S
H655 C652 0.930 . S
C656 C658 1.348 . S
C656 C659 1.356 . S
C656 O686 1.325 . S
N657 C660 1.314 . S
N657 C661 1.279 . S
C658 C656 1.348 . S
C658 C660 1.353 . S
C658 H700 0.929 . S
C659 C656 1.356 . S
C659 C661 1.358 . S
C659 H701 0.930 . S
C660 N657 1.314 . S
C660 C658 1.353 . S
C660 H702 0.930 . S
C661 N657 1.279 . S
C661 C659 1.358 . S
C661 H703 0.930 . S
C662 C663 1.348 1_554 S
C662 C664 1.356 . S
C662 O687 1.325 . S
C663 C662 1.348 1_556 S
C663 C665 1.353 . S
C663 H704 0.929 . S
C664 C662 1.356 . S
C664 C666 1.358 . S
C664 H705 0.930 . S
C665 C663 1.353 . S
C665 N667 1.314 1_556 S
C665 H706 0.930 . S
C666 C664 1.358 . S
C666 N667 1.279 . S
C666 H707 0.930 . S
N667 C665 1.314 1_554 S
N667 C666 1.279 . S
C668 C670 1.353 . S
C668 N671 1.314 . S
C668 H674 0.930 . S
C669 N671 1.279 . S
C669 C672 1.358 . S
C669 H675 0.930 . S
C670 C668 1.353 . S
C670 C673 1.348 . S
C670 H708 0.929 . S
N671 Li626 1.990 . S
N671 C668 1.314 . S
N671 C669 1.279 . S
C672 C669 1.358 . S
C672 C673 1.356 . S
C672 H709 0.930 . S
C673 C670 1.348 . S
C673 C672 1.356 . S
H674 C668 0.930 . S
H675 C669 0.930 . S
C676 N677 1.314 . S
C676 C678 1.353 . S
C676 H682 0.930 . S
N677 Li627 1.990 . S
N677 C676 1.314 . S
N677 C680 1.279 . S
C678 C676 1.353 . S
C678 C681 1.348 . S
C678 H710 0.929 . S
C679 C680 1.358 . S
C679 C681 1.356 . S
C679 H711 0.930 . S
C680 N677 1.279 . S
C680 C679 1.358 . S
C680 H683 0.930 . S
C681 C678 1.348 . S
C681 C679 1.356 . S
H682 C676 0.930 . S
H683 C680 0.930 . S
O684 Li624 1.956 . S
O684 Li625 1.970 1_556 S
O684 Li626 1.961 . S
O684 C628 1.325 . S
O685 Li624 1.970 1_554 S
O685 Li625 1.956 . S
O685 Li627 1.961 . S
O685 C634 1.325 . S
O686 Li624 1.961 . S
O686 Li626 1.956 . S
O686 Li627 1.970 1_556 S
O686 C656 1.325 . S
O687 Li625 1.961 . S
O687 Li626 1.970 1_554 S
O687 Li627 1.956 . S
O687 C662 1.325 . S
H688 C630 0.929 . S
H689 C631 0.930 . S
H690 C632 0.930 . S
H691 C633 0.930 . S
H692 C635 0.930 . S
H693 C637 0.929 . S
H694 C638 0.930 . S
H695 C639 0.930 . S
H696 C642 0.930 . S
H697 C645 0.929 . S
H698 C650 0.929 . S
H699 C651 0.930 . S
H700 C658 0.929 . S
H701 C659 0.930 . S
H702 C660 0.930 . S
H703 C661 0.930 . S
H704 C663 0.929 . S
H705 C664 0.930 . S
H706 C665 0.930 . S
H707 C666 0.930 . S
H708 C670 0.929 . S
H709 C672 0.930 . S
H710 C678 0.929 . S
H711 C679 0.930 . S
Li712 N729 1.990 . S
Li712 O772 1.956 . S
Li712 O773 1.970 . S
Li712 O774 1.961 . S
Li713 N737 1.990 . S
Li713 O772 1.970 . S
Li713 O773 1.956 . S
Li713 O775 1.961 . S
Li714 N759 1.990 . S
Li714 O772 1.961 . S
Li714 O774 1.956 . S
Li714 O775 1.970 . S
Li715 N765 1.990 . S
Li715 O773 1.961 . S
Li715 O774 1.970 . S
Li715 O775 1.956 . S
C716 C718 1.348 . S
C716 C719 1.356 . S
C716 O772 1.325 . S
N717 C720 1.314 . S
N717 C721 1.279 . S
C718 C716 1.348 . S
C718 C720 1.353 . S
C718 H776 0.929 . S
C719 C716 1.356 . S
C719 C721 1.358 . S
C719 H777 0.930 . S
C720 N717 1.314 . S
C720 C718 1.353 . S
C720 H778 0.930 . S
C721 N717 1.279 . S
C721 C719 1.358 . S
C721 H779 0.930 . S
C722 C725 1.348 . S
C722 C726 1.356 . S
C722 O773 1.325 . S
C723 N724 1.279 . S
C723 C726 1.358 . S
C723 H780 0.930 . S
N724 C723 1.279 . S
N724 C727 1.314 . S
C725 C722 1.348 . S
C725 C727 1.353 . S
C725 H781 0.929 . S
C726 C722 1.356 . S
C726 C723 1.358 . S
C726 H782 0.930 . S
C727 N724 1.314 . S
C727 C725 1.353 . S
C727 H783 0.930 . S
C728 N729 1.314 . S
C728 C733 1.353 . S
C728 H734 0.930 . S
N729 Li712 1.990 . S
N729 C728 1.314 . S
N729 C731 1.279 . S
C730 C731 1.358 . S
C730 C732 1.356 . S
C730 H784 0.930 . S
C731 N729 1.279 . S
C731 C730 1.358 . S
C731 H735 0.930 . S
C732 C730 1.356 . S
C732 C733 1.348 . S
C733 C728 1.353 . S
C733 C732 1.348 . S
C733 H785 0.929 . S
H734 C728 0.930 . S
H735 C731 0.930 . S
C736 N737 1.314 . S
C736 C738 1.353 . S
C736 H742 0.930 . S
N737 Li713 1.990 . S
N737 C736 1.314 . S
N737 C740 1.279 . S
C738 C736 1.353 . S
C738 C741 1.348 . S
C738 H786 0.929 . S
C739 C740 1.358 . S
C739 C741 1.356 . S
C739 H787 0.930 . S
C740 N737 1.279 . S
C740 C739 1.358 . S
C740 H743 0.930 . S
C741 C738 1.348 . S
C741 C739 1.356 . S
H742 C736 0.930 . S
H743 C740 0.930 . S
C744 C746 1.348 . S
C744 C747 1.356 . S
C744 O774 1.325 . S
N745 C748 1.314 . S
N745 C749 1.279 . S
C746 C744 1.348 . S
C746 C748 1.353 . S
C746 H788 0.929 . S
C747 C744 1.356 . S
C747 C749 1.358 . S
C747 H789 0.930 . S
C748 N745 1.314 . S
C748 C746 1.353 . S
C748 H790 0.930 . S
C749 N745 1.279 . S
C749 C747 1.358 . S
C749 H791 0.930 . S
C750 C751 1.348 . S
C750 C752 1.356 . S
C750 O775 1.325 . S
C751 C750 1.348 . S
C751 C753 1.353 . S
C751 H792 0.929 . S
C752 C750 1.356 . S
C752 C754 1.358 . S
C752 H793 0.930 . S
C753 C751 1.353 . S
C753 N755 1.314 . S
C753 H794 0.930 . S
C754 C752 1.358 . S
C754 N755 1.279 . S
C754 H795 0.930 . S
N755 C753 1.314 . S
N755 C754 1.279 . S
C756 C758 1.353 . S
C756 N759 1.314 . S
C756 H762 0.930 . S
C757 N759 1.279 . S
C757 C760 1.358 . S
C757 H763 0.930 . S
C758 C756 1.353 . S
C758 C761 1.348 . S
C758 H796 0.929 . S
N759 Li714 1.990 . S
N759 C756 1.314 . S
N759 C757 1.279 . S
C760 C757 1.358 . S
C760 C761 1.356 . S
C760 H797 0.930 . S
C761 C758 1.348 . S
C761 C760 1.356 . S
H762 C756 0.930 . S
H763 C757 0.930 . S
C764 N765 1.314 . S
C764 C766 1.353 . S
C764 H770 0.930 . S
N765 Li715 1.990 . S
N765 C764 1.314 . S
N765 C768 1.279 . S
C766 C764 1.353 . S
C766 C769 1.348 . S
C766 H798 0.929 . S
C767 C768 1.358 . S
C767 C769 1.356 . S
C767 H799 0.930 . S
C768 N765 1.279 . S
C768 C767 1.358 . S
C768 H771 0.930 . S
C769 C766 1.348 . S
C769 C767 1.356 . S
H770 C764 0.930 . S
H771 C768 0.930 . S
O772 Li712 1.956 . S
O772 Li713 1.970 . S
O772 Li714 1.961 . S
O772 C716 1.325 . S
O773 Li712 1.970 . S
O773 Li713 1.956 . S
O773 Li715 1.961 . S
O773 C722 1.325 . S
O774 Li712 1.961 . S
O774 Li714 1.956 . S
O774 Li715 1.970 . S
O774 C744 1.325 . S
O775 Li713 1.961 . S
O775 Li714 1.970 . S
O775 Li715 1.956 . S
O775 C750 1.325 . S
H776 C718 0.929 . S
H777 C719 0.930 . S
H778 C720 0.930 . S
H779 C721 0.930 . S
H780 C723 0.930 . S
H781 C725 0.929 . S
H782 C726 0.930 . S
H783 C727 0.930 . S
H784 C730 0.930 . S
H785 C733 0.929 . S
H786 C738 0.929 . S
H787 C739 0.930 . S
H788 C746 0.929 . S
H789 C747 0.930 . S
H790 C748 0.930 . S
H791 C749 0.930 . S
H792 C751 0.929 . S
H793 C752 0.930 . S
H794 C753 0.930 . S
H795 C754 0.930 . S
H796 C758 0.929 . S
H797 C760 0.930 . S
H798 C766 0.929 . S
H799 C767 0.930 . S
Li800 N817 1.990 . S
Li800 O860 1.956 . S
Li800 O861 1.970 1_556 S
Li800 O862 1.961 . S
Li801 N825 1.990 . S
Li801 O860 1.970 1_554 S
Li801 O861 1.956 . S
Li801 O863 1.961 . S
Li802 N847 1.990 . S
Li802 O860 1.961 . S
Li802 O862 1.956 . S
Li802 O863 1.970 1_556 S
Li803 N853 1.990 . S
Li803 O861 1.961 . S
Li803 O862 1.970 1_554 S
Li803 O863 1.956 . S
C804 C806 1.348 1_556 S
C804 C807 1.356 . S
C804 O860 1.325 . S
N805 C808 1.314 1_556 S
N805 C809 1.279 . S
C806 C804 1.348 1_554 S
C806 C808 1.353 . S
C806 H864 0.929 . S
C807 C804 1.356 . S
C807 C809 1.358 . S
C807 H865 0.930 . S
C808 N805 1.314 1_554 S
C808 C806 1.353 . S
C808 H866 0.930 . S
C809 N805 1.279 . S
C809 C807 1.358 . S
C809 H867 0.930 . S
C810 C813 1.348 . S
C810 C814 1.356 . S
C810 O861 1.325 . S
C811 N812 1.279 . S
C811 C814 1.358 . S
C811 H868 0.930 . S
N812 C811 1.279 . S
N812 C815 1.314 . S
C813 C810 1.348 . S
C813 C815 1.353 . S
C813 H869 0.929 . S
C814 C810 1.356 . S
C814 C811 1.358 . S
C814 H870 0.930 . S
C815 N812 1.314 . S
C815 C813 1.353 . S
C815 H871 0.930 . S
C816 N817 1.314 . S
C816 C821 1.353 . S
C816 H822 0.930 . S
N817 Li800 1.990 . S
N817 C816 1.314 . S
N817 C819 1.279 . S
C818 C819 1.358 . S
C818 C820 1.356 . S
C818 H872 0.930 . S
C819 N817 1.279 . S
C819 C818 1.358 . S
C819 H823 0.930 . S
C820 C818 1.356 . S
C820 C821 1.348 . S
C821 C816 1.353 . S
C821 C820 1.348 . S
C821 H873 0.929 . S
H822 C816 0.930 . S
H823 C819 0.930 . S
C824 N825 1.314 . S
C824 C826 1.353 . S
C824 H830 0.930 . S
N825 Li801 1.990 . S
N825 C824 1.314 . S
N825 C828 1.279 . S
C826 C824 1.353 . S
C826 C829 1.348 . S
C826 H874 0.929 . S
C827 C828 1.358 . S
C827 C829 1.356 . S
C827 H875 0.930 . S
C828 N825 1.279 . S
C828 C827 1.358 . S
C828 H831 0.930 . S
C829 C826 1.348 . S
C829 C827 1.356 . S
H830 C824 0.930 . S
H831 C828 0.930 . S
C832 C834 1.348 . S
C832 C835 1.356 . S
C832 O862 1.325 . S
N833 C836 1.314 . S
N833 C837 1.279 . S
C834 C832 1.348 . S
C834 C836 1.353 . S
C834 H876 0.929 . S
C835 C832 1.356 . S
C835 C837 1.358 . S
C835 H877 0.930 . S
C836 N833 1.314 . S
C836 C834 1.353 . S
C836 H878 0.930 . S
C837 N833 1.279 . S
C837 C835 1.358 . S
C837 H879 0.930 . S
C838 C839 1.348 1_554 S
C838 C840 1.356 . S
C838 O863 1.325 . S
C839 C838 1.348 1_556 S
C839 C841 1.353 . S
C839 H880 0.929 . S
C840 C838 1.356 . S
C840 C842 1.358 . S
C840 H881 0.930 . S
C841 C839 1.353 . S
C841 N843 1.314 1_556 S
C841 H882 0.930 . S
C842 C840 1.358 . S
C842 N843 1.279 . S
C842 H883 0.930 . S
N843 C841 1.314 1_554 S
N843 C842 1.279 . S
C844 C846 1.353 . S
C844 N847 1.314 . S
C844 H850 0.930 . S
C845 N847 1.279 . S
C845 C848 1.358 . S
C845 H851 0.930 . S
C846 C844 1.353 . S
C846 C849 1.348 . S
C846 H884 0.929 . S
N847 Li802 1.990 . S
N847 C844 1.314 . S
N847 C845 1.279 . S
C848 C845 1.358 . S
C848 C849 1.356 . S
C848 H885 0.930 . S
C849 C846 1.348 . S
C849 C848 1.356 . S
H850 C844 0.930 . S
H851 C845 0.930 . S
C852 N853 1.314 . S
C852 C854 1.353 . S
C852 H858 0.930 . S
N853 Li803 1.990 . S
N853 C852 1.314 . S
N853 C856 1.279 . S
C854 C852 1.353 . S
C854 C857 1.348 . S
C854 H886 0.929 . S
C855 C856 1.358 . S
C855 C857 1.356 . S
C855 H887 0.930 . S
C856 N853 1.279 . S
C856 C855 1.358 . S
C856 H859 0.930 . S
C857 C854 1.348 . S
C857 C855 1.356 . S
H858 C852 0.930 . S
H859 C856 0.930 . S
O860 Li800 1.956 . S
O860 Li801 1.970 1_556 S
O860 Li802 1.961 . S
O860 C804 1.325 . S
O861 Li800 1.970 1_554 S
O861 Li801 1.956 . S
O861 Li803 1.961 . S
O861 C810 1.325 . S
O862 Li800 1.961 . S
O862 Li802 1.956 . S
O862 Li803 1.970 1_556 S
O862 C832 1.325 . S
O863 Li801 1.961 . S
O863 Li802 1.970 1_554 S
O863 Li803 1.956 . S
O863 C838 1.325 . S
H864 C806 0.929 . S
H865 C807 0.930 . S
H866 C808 0.930 . S
H867 C809 0.930 . S
H868 C811 0.930 . S
H869 C813 0.929 . S
H870 C814 0.930 . S
H871 C815 0.930 . S
H872 C818 0.930 . S
H873 C821 0.929 . S
H874 C826 0.929 . S
H875 C827 0.930 . S
H876 C834 0.929 . S
H877 C835 0.930 . S
H878 C836 0.930 . S
H879 C837 0.930 . S
H880 C839 0.929 . S
H881 C840 0.930 . S
H882 C841 0.930 . S
H883 C842 0.930 . S
H884 C846 0.929 . S
H885 C848 0.930 . S
H886 C854 0.929 . S
H887 C855 0.930 . S
Li888 N905 1.990 . S
Li888 O948 1.956 . S
Li888 O949 1.970 1_545 S
Li888 O950 1.961 . S
Li889 N913 1.990 . S
Li889 O948 1.970 1_565 S
Li889 O949 1.956 . S
Li889 O951 1.961 . S
Li890 N935 1.990 . S
Li890 O948 1.961 . S
Li890 O950 1.956 . S
Li890 O951 1.970 1_545 S
Li891 N941 1.990 . S
Li891 O949 1.961 . S
Li891 O950 1.970 1_565 S
Li891 O951 1.956 . S
C892 C894 1.348 . S
C892 C895 1.356 . S
C892 O948 1.325 . S
N893 C896 1.314 . S
N893 C897 1.279 . S
C894 C892 1.348 . S
C894 C896 1.353 . S
C894 H952 0.929 . S
C895 C892 1.356 . S
C895 C897 1.358 . S
C895 H953 0.930 . S
C896 N893 1.314 . S
C896 C894 1.353 . S
C896 H954 0.930 . S
C897 N893 1.279 . S
C897 C895 1.358 . S
C897 H955 0.930 . S
C898 C901 1.348 1_565 S
C898 C902 1.356 . S
C898 O949 1.325 . S
C899 N900 1.279 . S
C899 C902 1.358 . S
C899 H956 0.930 . S
N900 C899 1.279 . S
N900 C903 1.314 1_565 S
C901 C898 1.348 1_545 S
C901 C903 1.353 . S
C901 H957 0.929 . S
C902 C898 1.356 . S
C902 C899 1.358 . S
C902 H958 0.930 . S
C903 N900 1.314 1_545 S
C903 C901 1.353 . S
C903 H959 0.930 . S
C904 N905 1.314 . S
C904 C909 1.353 . S
C904 H910 0.930 . S
N905 Li888 1.990 . S
N905 C904 1.314 . S
N905 C907 1.279 . S
C906 C907 1.358 . S
C906 C908 1.356 . S
C906 H960 0.930 . S
C907 N905 1.279 . S
C907 C906 1.358 . S
C907 H911 0.930 . S
C908 C906 1.356 . S
C908 C909 1.348 . S
C909 C904 1.353 . S
C909 C908 1.348 . S
C909 H961 0.929 . S
H910 C904 0.930 . S
H911 C907 0.930 . S
C912 N913 1.314 . S
C912 C914 1.353 . S
C912 H918 0.930 . S
N913 Li889 1.990 . S
N913 C912 1.314 . S
N913 C916 1.279 . S
C914 C912 1.353 . S
C914 C917 1.348 . S
C914 H962 0.929 . S
C915 C916 1.358 . S
C915 C917 1.356 . S
C915 H963 0.930 . S
C916 N913 1.279 . S
C916 C915 1.358 . S
C916 H919 0.930 . S
C917 C914 1.348 . S
C917 C915 1.356 . S
H918 C912 0.930 . S
H919 C916 0.930 . S
C920 C922 1.348 1_545 S
C920 C923 1.356 . S
C920 O950 1.325 . S
N921 C924 1.314 1_545 S
N921 C925 1.279 . S
C922 C920 1.348 1_565 S
C922 C924 1.353 . S
C922 H964 0.929 . S
C923 C920 1.356 . S
C923 C925 1.358 . S
C923 H965 0.930 . S
C924 N921 1.314 1_565 S
C924 C922 1.353 . S
C924 H966 0.930 . S
C925 N921 1.279 . S
C925 C923 1.358 . S
C925 H967 0.930 . S
C926 C927 1.348 . S
C926 C928 1.356 . S
C926 O951 1.325 . S
C927 C926 1.348 . S
C927 C929 1.353 . S
C927 H968 0.929 . S
C928 C926 1.356 . S
C928 C930 1.358 . S
C928 H969 0.930 . S
C929 C927 1.353 . S
C929 N931 1.314 . S
C929 H970 0.930 . S
C930 C928 1.358 . S
C930 N931 1.279 . S
C930 H971 0.930 . S
N931 C929 1.314 . S
N931 C930 1.279 . S
C932 C934 1.353 . S
C932 N935 1.314 . S
C932 H938 0.930 . S
C933 N935 1.279 . S
C933 C936 1.358 . S
C933 H939 0.930 . S
C934 C932 1.353 . S
C934 C937 1.348 . S
C934 H972 0.929 . S
N935 Li890 1.990 . S
N935 C932 1.314 . S
N935 C933 1.279 . S
C936 C933 1.358 . S
C936 C937 1.356 . S
C936 H973 0.930 . S
C937 C934 1.348 . S
C937 C936 1.356 . S
H938 C932 0.930 . S
H939 C933 0.930 . S
C940 N941 1.314 . S
C940 C942 1.353 . S
C940 H946 0.930 . S
N941 Li891 1.990 . S
N941 C940 1.314 . S
N941 C944 1.279 . S
C942 C940 1.353 . S
C942 C945 1.348 . S
C942 H974 0.929 . S
C943 C944 1.358 . S
C943 C945 1.356 . S
C943 H975 0.930 . S
C944 N941 1.279 . S
C944 C943 1.358 . S
C944 H947 0.930 . S
C945 C942 1.348 . S
C945 C943 1.356 . S
H946 C940 0.930 . S
H947 C944 0.930 . S
O948 Li888 1.956 . S
O948 Li889 1.970 1_545 S
O948 Li890 1.961 . S
O948 C892 1.325 . S
O949 Li888 1.970 1_565 S
O949 Li889 1.956 . S
O949 Li891 1.961 . S
O949 C898 1.325 . S
O950 Li888 1.961 . S
O950 Li890 1.956 . S
O950 Li891 1.970 1_545 S
O950 C920 1.325 . S
O951 Li889 1.961 . S
O951 Li890 1.970 1_565 S
O951 Li891 1.956 . S
O951 C926 1.325 . S
H952 C894 0.929 . S
H953 C895 0.930 . S
H954 C896 0.930 . S
H955 C897 0.930 . S
H956 C899 0.930 . S
H957 C901 0.929 . S
H958 C902 0.930 . S
H959 C903 0.930 . S
H960 C906 0.930 . S
H961 C909 0.929 . S
H962 C914 0.929 . S
H963 C915 0.930 . S
H964 C922 0.929 . S
H965 C923 0.930 . S
H966 C924 0.930 . S
H967 C925 0.930 . S
H968 C927 0.929 . S
H969 C928 0.930 . S
H970 C929 0.930 . S
H971 C930 0.930 . S
H972 C934 0.929 . S
H973 C936 0.930 . S
H974 C942 0.929 . S
H975 C943 0.930 . S
Li976 N993 1.990 . S
Li976 O1036 1.956 . S
Li976 O1037 1.970 . S
Li976 O1038 1.961 . S
Li977 N1001 1.990 . S
Li977 O1036 1.970 . S
Li977 O1037 1.956 . S
Li977 O1039 1.961 . S
Li978 N1023 1.990 . S
Li978 O1036 1.961 . S
Li978 O1038 1.956 . S
Li978 O1039 1.970 . S
Li979 N1029 1.990 . S
Li979 O1037 1.961 . S
Li979 O1038 1.970 . S
Li979 O1039 1.956 . S
C980 C982 1.348 . S
C980 C983 1.356 . S
C980 O1036 1.325 . S
N981 C984 1.314 . S
N981 C985 1.279 . S
C982 C980 1.348 . S
C982 C984 1.353 . S
C982 H1040 0.929 . S
C983 C980 1.356 . S
C983 C985 1.358 . S
C983 H1041 0.930 . S
C984 N981 1.314 . S
C984 C982 1.353 . S
C984 H1042 0.930 . S
C985 N981 1.279 . S
C985 C983 1.358 . S
C985 H1043 0.930 . S
C986 C989 1.348 . S
C986 C990 1.356 . S
C986 O1037 1.325 . S
C987 N988 1.279 . S
C987 C990 1.358 . S
C987 H1044 0.930 . S
N988 C987 1.279 . S
N988 C991 1.314 . S
C989 C986 1.348 . S
C989 C991 1.353 . S
C989 H1045 0.929 . S
C990 C986 1.356 . S
C990 C987 1.358 . S
C990 H1046 0.930 . S
C991 N988 1.314 . S
C991 C989 1.353 . S
C991 H1047 0.930 . S
C992 N993 1.314 . S
C992 C997 1.353 . S
C992 H998 0.930 . S
N993 Li976 1.990 . S
N993 C992 1.314 . S
N993 C995 1.279 . S
C994 C995 1.358 . S
C994 C996 1.356 . S
C994 H1048 0.930 . S
C995 N993 1.279 . S
C995 C994 1.358 . S
C995 H999 0.930 . S
C996 C994 1.356 . S
C996 C997 1.348 . S
C997 C992 1.353 . S
C997 C996 1.348 . S
C997 H1049 0.929 . S
H998 C992 0.930 . S
H999 C995 0.930 . S
C1000 N1001 1.314 . S
C1000 C1002 1.353 . S
C1000 H1006 0.930 . S
N1001 Li977 1.990 . S
N1001 C1000 1.314 . S
N1001 C1004 1.279 . S
C1002 C1000 1.353 . S
C1002 C1005 1.348 . S
C1002 H1050 0.929 . S
C1003 C1004 1.358 . S
C1003 C1005 1.356 . S
C1003 H1051 0.930 . S
C1004 N1001 1.279 . S
C1004 C1003 1.358 . S
C1004 H1007 0.930 . S
C1005 C1002 1.348 . S
C1005 C1003 1.356 . S
H1006 C1000 0.930 . S
H1007 C1004 0.930 . S
C1008 C1010 1.348 . S
C1008 C1011 1.356 . S
C1008 O1038 1.325 . S
N1009 C1012 1.314 . S
N1009 C1013 1.279 . S
C1010 C1008 1.348 . S
C1010 C1012 1.353 . S
C1010 H1052 0.929 . S
C1011 C1008 1.356 . S
C1011 C1013 1.358 . S
C1011 H1053 0.930 . S
C1012 N1009 1.314 . S
C1012 C1010 1.353 . S
C1012 H1054 0.930 . S
C1013 N1009 1.279 . S
C1013 C1011 1.358 . S
C1013 H1055 0.930 . S
C1014 C1015 1.348 . S
C1014 C1016 1.356 . S
C1014 O1039 1.325 . S
C1015 C1014 1.348 . S
C1015 C1017 1.353 . S
C1015 H1056 0.929 . S
C1016 C1014 1.356 . S
C1016 C1018 1.358 . S
C1016 H1057 0.930 . S
C1017 C1015 1.353 . S
C1017 N1019 1.314 . S
C1017 H1058 0.930 . S
C1018 C1016 1.358 . S
C1018 N1019 1.279 . S
C1018 H1059 0.930 . S
N1019 C1017 1.314 . S
N1019 C1018 1.279 . S
C1020 C1022 1.353 . S
C1020 N1023 1.314 . S
C1020 H1026 0.930 . S
C1021 N1023 1.279 . S
C1021 C1024 1.358 . S
C1021 H1027 0.930 . S
C1022 C1020 1.353 . S
C1022 C1025 1.348 . S
C1022 H1060 0.929 . S
N1023 Li978 1.990 . S
N1023 C1020 1.314 . S
N1023 C1021 1.279 . S
C1024 C1021 1.358 . S
C1024 C1025 1.356 . S
C1024 H1061 0.930 . S
C1025 C1022 1.348 . S
C1025 C1024 1.356 . S
H1026 C1020 0.930 . S
H1027 C1021 0.930 . S
C1028 N1029 1.314 . S
C1028 C1030 1.353 . S
C1028 H1034 0.930 . S
N1029 Li979 1.990 . S
N1029 C1028 1.314 . S
N1029 C1032 1.279 . S
C1030 C1028 1.353 . S
C1030 C1033 1.348 . S
C1030 H1062 0.929 . S
C1031 C1032 1.358 . S
C1031 C1033 1.356 . S
C1031 H1063 0.930 . S
C1032 N1029 1.279 . S
C1032 C1031 1.358 . S
C1032 H1035 0.930 . S
C1033 C1030 1.348 . S
C1033 C1031 1.356 . S
H1034 C1028 0.930 . S
H1035 C1032 0.930 . S
O1036 Li976 1.956 . S
O1036 Li977 1.970 . S
O1036 Li978 1.961 . S
O1036 C980 1.325 . S
O1037 Li976 1.970 . S
O1037 Li977 1.956 . S
O1037 Li979 1.961 . S
O1037 C986 1.325 . S
O1038 Li976 1.961 . S
O1038 Li978 1.956 . S
O1038 Li979 1.970 . S
O1038 C1008 1.325 . S
O1039 Li977 1.961 . S
O1039 Li978 1.970 . S
O1039 Li979 1.956 . S
O1039 C1014 1.325 . S
H1040 C982 0.929 . S
H1041 C983 0.930 . S
H1042 C984 0.930 . S
H1043 C985 0.930 . S
H1044 C987 0.930 . S
H1045 C989 0.929 . S
H1046 C990 0.930 . S
H1047 C991 0.930 . S
H1048 C994 0.930 . S
H1049 C997 0.929 . S
H1050 C1002 0.929 . S
H1051 C1003 0.930 . S
H1052 C1010 0.929 . S
H1053 C1011 0.930 . S
H1054 C1012 0.930 . S
H1055 C1013 0.930 . S
H1056 C1015 0.929 . S
H1057 C1016 0.930 . S
H1058 C1017 0.930 . S
H1059 C1018 0.930 . S
H1060 C1022 0.929 . S
H1061 C1024 0.930 . S
H1062 C1030 0.929 . S
H1063 C1031 0.930 . S
Li1064 N1081 1.990 . S
Li1064 O1124 1.956 . S
Li1064 O1125 1.970 . S
Li1064 O1126 1.961 . S
Li1065 N1089 1.990 . S
Li1065 O1124 1.970 . S
Li1065 O1125 1.956 . S
Li1065 O1127 1.961 . S
Li1066 N1111 1.990 . S
Li1066 O1124 1.961 . S
Li1066 O1126 1.956 . S
Li1066 O1127 1.970 . S
Li1067 N1117 1.990 . S
Li1067 O1125 1.961 . S
Li1067 O1126 1.970 . S
Li1067 O1127 1.956 . S
C1068 C1070 1.348 . S
C1068 C1071 1.356 . S
C1068 O1124 1.325 . S
N1069 C1072 1.314 . S
N1069 C1073 1.279 . S
C1070 C1068 1.348 . S
C1070 C1072 1.353 . S
C1070 H1128 0.929 . S
C1071 C1068 1.356 . S
C1071 C1073 1.358 . S
C1071 H1129 0.930 . S
C1072 N1069 1.314 . S
C1072 C1070 1.353 . S
C1072 H1130 0.930 . S
C1073 N1069 1.279 . S
C1073 C1071 1.358 . S
C1073 H1131 0.930 . S
C1074 C1077 1.348 . S
C1074 C1078 1.356 . S
C1074 O1125 1.325 . S
C1075 N1076 1.279 . S
C1075 C1078 1.358 . S
C1075 H1132 0.930 . S
N1076 C1075 1.279 . S
N1076 C1079 1.314 . S
C1077 C1074 1.348 . S
C1077 C1079 1.353 . S
C1077 H1133 0.929 . S
C1078 C1074 1.356 . S
C1078 C1075 1.358 . S
C1078 H1134 0.930 . S
C1079 N1076 1.314 . S
C1079 C1077 1.353 . S
C1079 H1135 0.930 . S
C1080 N1081 1.314 . S
C1080 C1085 1.353 . S
C1080 H1086 0.930 . S
N1081 Li1064 1.990 . S
N1081 C1080 1.314 . S
N1081 C1083 1.279 . S
C1082 C1083 1.358 . S
C1082 C1084 1.356 . S
C1082 H1136 0.930 . S
C1083 N1081 1.279 . S
C1083 C1082 1.358 . S
C1083 H1087 0.930 . S
C1084 C1082 1.356 . S
C1084 C1085 1.348 . S
C1085 C1080 1.353 . S
C1085 C1084 1.348 . S
C1085 H1137 0.929 . S
H1086 C1080 0.930 . S
H1087 C1083 0.930 . S
C1088 N1089 1.314 . S
C1088 C1090 1.353 . S
C1088 H1094 0.930 . S
N1089 Li1065 1.990 . S
N1089 C1088 1.314 . S
N1089 C1092 1.279 . S
C1090 C1088 1.353 . S
C1090 C1093 1.348 . S
C1090 H1138 0.929 . S
C1091 C1092 1.358 . S
C1091 C1093 1.356 . S
C1091 H1139 0.930 . S
C1092 N1089 1.279 . S
C1092 C1091 1.358 . S
C1092 H1095 0.930 . S
C1093 C1090 1.348 . S
C1093 C1091 1.356 . S
H1094 C1088 0.930 . S
H1095 C1092 0.930 . S
C1096 C1098 1.348 . S
C1096 C1099 1.356 . S
C1096 O1126 1.325 . S
N1097 C1100 1.314 . S
N1097 C1101 1.279 . S
C1098 C1096 1.348 . S
C1098 C1100 1.353 . S
C1098 H1140 0.929 . S
C1099 C1096 1.356 . S
C1099 C1101 1.358 . S
C1099 H1141 0.930 . S
C1100 N1097 1.314 . S
C1100 C1098 1.353 . S
C1100 H1142 0.930 . S
C1101 N1097 1.279 . S
C1101 C1099 1.358 . S
C1101 H1143 0.930 . S
C1102 C1103 1.348 . S
C1102 C1104 1.356 . S
C1102 O1127 1.325 . S
C1103 C1102 1.348 . S
C1103 C1105 1.353 . S
C1103 H1144 0.929 . S
C1104 C1102 1.356 . S
C1104 C1106 1.358 . S
C1104 H1145 0.930 . S
C1105 C1103 1.353 . S
C1105 N1107 1.314 . S
C1105 H1146 0.930 . S
C1106 C1104 1.358 . S
C1106 N1107 1.279 . S
C1106 H1147 0.930 . S
N1107 C1105 1.314 . S
N1107 C1106 1.279 . S
C1108 C1110 1.353 . S
C1108 N1111 1.314 . S
C1108 H1114 0.930 . S
C1109 N1111 1.279 . S
C1109 C1112 1.358 . S
C1109 H1115 0.930 . S
C1110 C1108 1.353 . S
C1110 C1113 1.348 . S
C1110 H1148 0.929 . S
N1111 Li1066 1.990 . S
N1111 C1108 1.314 . S
N1111 C1109 1.279 . S
C1112 C1109 1.358 . S
C1112 C1113 1.356 . S
C1112 H1149 0.930 . S
C1113 C1110 1.348 . S
C1113 C1112 1.356 . S
H1114 C1108 0.930 . S
H1115 C1109 0.930 . S
C1116 N1117 1.314 . S
C1116 C1118 1.353 . S
C1116 H1122 0.930 . S
N1117 Li1067 1.990 . S
N1117 C1116 1.314 . S
N1117 C1120 1.279 . S
C1118 C1116 1.353 . S
C1118 C1121 1.348 . S
C1118 H1150 0.929 . S
C1119 C1120 1.358 . S
C1119 C1121 1.356 . S
C1119 H1151 0.930 . S
C1120 N1117 1.279 . S
C1120 C1119 1.358 . S
C1120 H1123 0.930 . S
C1121 C1118 1.348 . S
C1121 C1119 1.356 . S
H1122 C1116 0.930 . S
H1123 C1120 0.930 . S
O1124 Li1064 1.956 . S
O1124 Li1065 1.970 . S
O1124 Li1066 1.961 . S
O1124 C1068 1.325 . S
O1125 Li1064 1.970 . S
O1125 Li1065 1.956 . S
O1125 Li1067 1.961 . S
O1125 C1074 1.325 . S
O1126 Li1064 1.961 . S
O1126 Li1066 1.956 . S
O1126 Li1067 1.970 . S
O1126 C1096 1.325 . S
O1127 Li1065 1.961 . S
O1127 Li1066 1.970 . S
O1127 Li1067 1.956 . S
O1127 C1102 1.325 . S
H1128 C1070 0.929 . S
H1129 C1071 0.930 . S
H1130 C1072 0.930 . S
H1131 C1073 0.930 . S
H1132 C1075 0.930 . S
H1133 C1077 0.929 . S
H1134 C1078 0.930 . S
H1135 C1079 0.930 . S
H1136 C1082 0.930 . S
H1137 C1085 0.929 . S
H1138 C1090 0.929 . S
H1139 C1091 0.930 . S
H1140 C1098 0.929 . S
H1141 C1099 0.930 . S
H1142 C1100 0.930 . S
H1143 C1101 0.930 . S
H1144 C1103 0.929 . S
H1145 C1104 0.930 . S
H1146 C1105 0.930 . S
H1147 C1106 0.930 . S
H1148 C1110 0.929 . S
H1149 C1112 0.930 . S
H1150 C1118 0.929 . S
H1151 C1119 0.930 . S
Li1152 N1169 1.990 . S
Li1152 O1212 1.956 . S
Li1152 O1213 1.970 . S
Li1152 O1214 1.961 . S
Li1153 N1177 1.990 . S
Li1153 O1212 1.970 . S
Li1153 O1213 1.956 . S
Li1153 O1215 1.961 . S
Li1154 N1199 1.990 . S
Li1154 O1212 1.961 . S
Li1154 O1214 1.956 . S
Li1154 O1215 1.970 . S
Li1155 N1205 1.990 . S
Li1155 O1213 1.961 . S
Li1155 O1214 1.970 . S
Li1155 O1215 1.956 . S
C1156 C1158 1.348 . S
C1156 C1159 1.356 . S
C1156 O1212 1.325 . S
N1157 C1160 1.314 . S
N1157 C1161 1.279 . S
C1158 C1156 1.348 . S
C1158 C1160 1.353 . S
C1158 H1216 0.929 . S
C1159 C1156 1.356 . S
C1159 C1161 1.358 . S
C1159 H1217 0.930 . S
C1160 N1157 1.314 . S
C1160 C1158 1.353 . S
C1160 H1218 0.930 . S
C1161 N1157 1.279 . S
C1161 C1159 1.358 . S
C1161 H1219 0.930 . S
C1162 C1165 1.348 . S
C1162 C1166 1.356 . S
C1162 O1213 1.325 . S
C1163 N1164 1.279 . S
C1163 C1166 1.358 . S
C1163 H1220 0.930 . S
N1164 C1163 1.279 . S
N1164 C1167 1.314 . S
C1165 C1162 1.348 . S
C1165 C1167 1.353 . S
C1165 H1221 0.929 . S
C1166 C1162 1.356 . S
C1166 C1163 1.358 . S
C1166 H1222 0.930 . S
C1167 N1164 1.314 . S
C1167 C1165 1.353 . S
C1167 H1223 0.930 . S
C1168 N1169 1.314 . S
C1168 C1173 1.353 . S
C1168 H1174 0.930 . S
N1169 Li1152 1.990 . S
N1169 C1168 1.314 . S
N1169 C1171 1.279 . S
C1170 C1171 1.358 . S
C1170 C1172 1.356 . S
C1170 H1224 0.930 . S
C1171 N1169 1.279 . S
C1171 C1170 1.358 . S
C1171 H1175 0.930 . S
C1172 C1170 1.356 . S
C1172 C1173 1.348 . S
C1173 C1168 1.353 . S
C1173 C1172 1.348 . S
C1173 H1225 0.929 . S
H1174 C1168 0.930 . S
H1175 C1171 0.930 . S
C1176 N1177 1.314 . S
C1176 C1178 1.353 . S
C1176 H1182 0.930 . S
N1177 Li1153 1.990 . S
N1177 C1176 1.314 . S
N1177 C1180 1.279 . S
C1178 C1176 1.353 . S
C1178 C1181 1.348 . S
C1178 H1226 0.929 . S
C1179 C1180 1.358 . S
C1179 C1181 1.356 . S
C1179 H1227 0.930 . S
C1180 N1177 1.279 . S
C1180 C1179 1.358 . S
C1180 H1183 0.930 . S
C1181 C1178 1.348 . S
C1181 C1179 1.356 . S
H1182 C1176 0.930 . S
H1183 C1180 0.930 . S
C1184 C1186 1.348 . S
C1184 C1187 1.356 . S
C1184 O1214 1.325 . S
N1185 C1188 1.314 . S
N1185 C1189 1.279 . S
C1186 C1184 1.348 . S
C1186 C1188 1.353 . S
C1186 H1228 0.929 . S
C1187 C1184 1.356 . S
C1187 C1189 1.358 . S
C1187 H1229 0.930 . S
C1188 N1185 1.314 . S
C1188 C1186 1.353 . S
C1188 H1230 0.930 . S
C1189 N1185 1.279 . S
C1189 C1187 1.358 . S
C1189 H1231 0.930 . S
C1190 C1191 1.348 . S
C1190 C1192 1.356 . S
C1190 O1215 1.325 . S
C1191 C1190 1.348 . S
C1191 C1193 1.353 . S
C1191 H1232 0.929 . S
C1192 C1190 1.356 . S
C1192 C1194 1.358 . S
C1192 H1233 0.930 . S
C1193 C1191 1.353 . S
C1193 N1195 1.314 . S
C1193 H1234 0.930 . S
C1194 C1192 1.358 . S
C1194 N1195 1.279 . S
C1194 H1235 0.930 . S
N1195 C1193 1.314 . S
N1195 C1194 1.279 . S
C1196 C1198 1.353 . S
C1196 N1199 1.314 . S
C1196 H1202 0.930 . S
C1197 N1199 1.279 . S
C1197 C1200 1.358 . S
C1197 H1203 0.930 . S
C1198 C1196 1.353 . S
C1198 C1201 1.348 . S
C1198 H1236 0.929 . S
N1199 Li1154 1.990 . S
N1199 C1196 1.314 . S
N1199 C1197 1.279 . S
C1200 C1197 1.358 . S
C1200 C1201 1.356 . S
C1200 H1237 0.930 . S
C1201 C1198 1.348 . S
C1201 C1200 1.356 . S
H1202 C1196 0.930 . S
H1203 C1197 0.930 . S
C1204 N1205 1.314 . S
C1204 C1206 1.353 . S
C1204 H1210 0.930 . S
N1205 Li1155 1.990 . S
N1205 C1204 1.314 . S
N1205 C1208 1.279 . S
C1206 C1204 1.353 . S
C1206 C1209 1.348 . S
C1206 H1238 0.929 . S
C1207 C1208 1.358 . S
C1207 C1209 1.356 . S
C1207 H1239 0.930 . S
C1208 N1205 1.279 . S
C1208 C1207 1.358 . S
C1208 H1211 0.930 . S
C1209 C1206 1.348 . S
C1209 C1207 1.356 . S
H1210 C1204 0.930 . S
H1211 C1208 0.930 . S
O1212 Li1152 1.956 . S
O1212 Li1153 1.970 . S
O1212 Li1154 1.961 . S
O1212 C1156 1.325 . S
O1213 Li1152 1.970 . S
O1213 Li1153 1.956 . S
O1213 Li1155 1.961 . S
O1213 C1162 1.325 . S
O1214 Li1152 1.961 . S
O1214 Li1154 1.956 . S
O1214 Li1155 1.970 . S
O1214 C1184 1.325 . S
O1215 Li1153 1.961 . S
O1215 Li1154 1.970 . S
O1215 Li1155 1.956 . S
O1215 C1190 1.325 . S
H1216 C1158 0.929 . S
H1217 C1159 0.930 . S
H1218 C1160 0.930 . S
H1219 C1161 0.930 . S
H1220 C1163 0.930 . S
H1221 C1165 0.929 . S
H1222 C1166 0.930 . S
H1223 C1167 0.930 . S
H1224 C1170 0.930 . S
H1225 C1173 0.929 . S
H1226 C1178 0.929 . S
H1227 C1179 0.930 . S
H1228 C1186 0.929 . S
H1229 C1187 0.930 . S
H1230 C1188 0.930 . S
H1231 C1189 0.930 . S
H1232 C1191 0.929 . S
H1233 C1192 0.930 . S
H1234 C1193 0.930 . S
H1235 C1194 0.930 . S
H1236 C1198 0.929 . S
H1237 C1200 0.930 . S
H1238 C1206 0.929 . S
H1239 C1207 0.930 . S
Li1240 N1257 1.990 . S
Li1240 O1300 1.956 . S
Li1240 O1301 1.970 1_565 S
Li1240 O1302 1.961 . S
Li1241 N1265 1.990 . S
Li1241 O1300 1.970 1_545 S
Li1241 O1301 1.956 . S
Li1241 O1303 1.961 . S
Li1242 N1287 1.990 . S
Li1242 O1300 1.961 . S
Li1242 O1302 1.956 . S
Li1242 O1303 1.970 1_565 S
Li1243 N1293 1.990 . S
Li1243 O1301 1.961 . S
Li1243 O1302 1.970 1_545 S
Li1243 O1303 1.956 . S
C1244 C1246 1.348 . S
C1244 C1247 1.356 . S
C1244 O1300 1.325 . S
N1245 C1248 1.314 . S
N1245 C1249 1.279 . S
C1246 C1244 1.348 . S
C1246 C1248 1.353 . S
C1246 H1304 0.929 . S
C1247 C1244 1.356 . S
C1247 C1249 1.358 . S
C1247 H1305 0.930 . S
C1248 N1245 1.314 . S
C1248 C1246 1.353 . S
C1248 H1306 0.930 . S
C1249 N1245 1.279 . S
C1249 C1247 1.358 . S
C1249 H1307 0.930 . S
C1250 C1253 1.348 1_545 S
C1250 C1254 1.356 . S
C1250 O1301 1.325 . S
C1251 N1252 1.279 . S
C1251 C1254 1.358 . S
C1251 H1308 0.930 . S
N1252 C1251 1.279 . S
N1252 C1255 1.314 1_545 S
C1253 C1250 1.348 1_565 S
C1253 C1255 1.353 . S
C1253 H1309 0.929 . S
C1254 C1250 1.356 . S
C1254 C1251 1.358 . S
C1254 H1310 0.930 . S
C1255 N1252 1.314 1_565 S
C1255 C1253 1.353 . S
C1255 H1311 0.930 . S
C1256 N1257 1.314 . S
C1256 C1261 1.353 . S
C1256 H1262 0.930 . S
N1257 Li1240 1.990 . S
N1257 C1256 1.314 . S
N1257 C1259 1.279 . S
C1258 C1259 1.358 . S
C1258 C1260 1.356 . S
C1258 H1312 0.930 . S
C1259 N1257 1.279 . S
C1259 C1258 1.358 . S
C1259 H1263 0.930 . S
C1260 C1258 1.356 . S
C1260 C1261 1.348 . S
C1261 C1256 1.353 . S
C1261 C1260 1.348 . S
C1261 H1313 0.929 . S
H1262 C1256 0.930 . S
H1263 C1259 0.930 . S
C1264 N1265 1.314 . S
C1264 C1266 1.353 . S
C1264 H1270 0.930 . S
N1265 Li1241 1.990 . S
N1265 C1264 1.314 . S
N1265 C1268 1.279 . S
C1266 C1264 1.353 . S
C1266 C1269 1.348 . S
C1266 H1314 0.929 . S
C1267 C1268 1.358 . S
C1267 C1269 1.356 . S
C1267 H1315 0.930 . S
C1268 N1265 1.279 . S
C1268 C1267 1.358 . S
C1268 H1271 0.930 . S
C1269 C1266 1.348 . S
C1269 C1267 1.356 . S
H1270 C1264 0.930 . S
H1271 C1268 0.930 . S
C1272 C1274 1.348 1_565 S
C1272 C1275 1.356 . S
C1272 O1302 1.325 . S
N1273 C1276 1.314 1_565 S
N1273 C1277 1.279 . S
C1274 C1272 1.348 1_545 S
C1274 C1276 1.353 . S
C1274 H1316 0.929 . S
C1275 C1272 1.356 . S
C1275 C1277 1.358 . S
C1275 H1317 0.930 . S
C1276 N1273 1.314 1_545 S
C1276 C1274 1.353 . S
C1276 H1318 0.930 . S
C1277 N1273 1.279 . S
C1277 C1275 1.358 . S
C1277 H1319 0.930 . S
C1278 C1279 1.348 . S
C1278 C1280 1.356 . S
C1278 O1303 1.325 . S
C1279 C1278 1.348 . S
C1279 C1281 1.353 . S
C1279 H1320 0.929 . S
C1280 C1278 1.356 . S
C1280 C1282 1.358 . S
C1280 H1321 0.930 . S
C1281 C1279 1.353 . S
C1281 N1283 1.314 . S
C1281 H1322 0.930 . S
C1282 C1280 1.358 . S
C1282 N1283 1.279 . S
C1282 H1323 0.930 . S
N1283 C1281 1.314 . S
N1283 C1282 1.279 . S
C1284 C1286 1.353 . S
C1284 N1287 1.314 . S
C1284 H1290 0.930 . S
C1285 N1287 1.279 . S
C1285 C1288 1.358 . S
C1285 H1291 0.930 . S
C1286 C1284 1.353 . S
C1286 C1289 1.348 . S
C1286 H1324 0.929 . S
N1287 Li1242 1.990 . S
N1287 C1284 1.314 . S
N1287 C1285 1.279 . S
C1288 C1285 1.358 . S
C1288 C1289 1.356 . S
C1288 H1325 0.930 . S
C1289 C1286 1.348 . S
C1289 C1288 1.356 . S
H1290 C1284 0.930 . S
H1291 C1285 0.930 . S
C1292 N1293 1.314 . S
C1292 C1294 1.353 . S
C1292 H1298 0.930 . S
N1293 Li1243 1.990 . S
N1293 C1292 1.314 . S
N1293 C1296 1.279 . S
C1294 C1292 1.353 . S
C1294 C1297 1.348 . S
C1294 H1326 0.929 . S
C1295 C1296 1.358 . S
C1295 C1297 1.356 . S
C1295 H1327 0.930 . S
C1296 N1293 1.279 . S
C1296 C1295 1.358 . S
C1296 H1299 0.930 . S
C1297 C1294 1.348 . S
C1297 C1295 1.356 . S
H1298 C1292 0.930 . S
H1299 C1296 0.930 . S
O1300 Li1240 1.956 . S
O1300 Li1241 1.970 1_565 S
O1300 Li1242 1.961 . S
O1300 C1244 1.325 . S
O1301 Li1240 1.970 1_545 S
O1301 Li1241 1.956 . S
O1301 Li1243 1.961 . S
O1301 C1250 1.325 . S
O1302 Li1240 1.961 . S
O1302 Li1242 1.956 . S
O1302 Li1243 1.970 1_565 S
O1302 C1272 1.325 . S
O1303 Li1241 1.961 . S
O1303 Li1242 1.970 1_545 S
O1303 Li1243 1.956 . S
O1303 C1278 1.325 . S
H1304 C1246 0.929 . S
H1305 C1247 0.930 . S
H1306 C1248 0.930 . S
H1307 C1249 0.930 . S
H1308 C1251 0.930 . S
H1309 C1253 0.929 . S
H1310 C1254 0.930 . S
H1311 C1255 0.930 . S
H1312 C1258 0.930 . S
H1313 C1261 0.929 . S
H1314 C1266 0.929 . S
H1315 C1267 0.930 . S
H1316 C1274 0.929 . S
H1317 C1275 0.930 . S
H1318 C1276 0.930 . S
H1319 C1277 0.930 . S
H1320 C1279 0.929 . S
H1321 C1280 0.930 . S
H1322 C1281 0.930 . S
H1323 C1282 0.930 . S
H1324 C1286 0.929 . S
H1325 C1288 0.930 . S
H1326 C1294 0.929 . S
H1327 C1295 0.930 . S
Li1328 N1345 1.990 . S
Li1328 O1388 1.956 . S
Li1328 O1389 1.970 1_455 S
Li1328 O1390 1.961 . S
Li1329 N1353 1.990 . S
Li1329 O1388 1.970 1_655 S
Li1329 O1389 1.956 . S
Li1329 O1391 1.961 . S
Li1330 N1375 1.990 . S
Li1330 O1388 1.961 . S
Li1330 O1390 1.956 . S
Li1330 O1391 1.970 1_455 S
Li1331 N1381 1.990 . S
Li1331 O1389 1.961 . S
Li1331 O1390 1.970 1_655 S
Li1331 O1391 1.956 . S
C1332 C1334 1.348 . S
C1332 C1335 1.356 . S
C1332 O1388 1.325 . S
N1333 C1336 1.314 . S
N1333 C1337 1.279 . S
C1334 C1332 1.348 . S
C1334 C1336 1.353 . S
C1334 H1392 0.929 . S
C1335 C1332 1.356 . S
C1335 C1337 1.358 . S
C1335 H1393 0.930 . S
C1336 N1333 1.314 . S
C1336 C1334 1.353 . S
C1336 H1394 0.930 . S
C1337 N1333 1.279 . S
C1337 C1335 1.358 . S
C1337 H1395 0.930 . S
C1338 C1341 1.348 1_655 S
C1338 C1342 1.356 . S
C1338 O1389 1.325 . S
C1339 N1340 1.279 . S
C1339 C1342 1.358 . S
C1339 H1396 0.930 . S
N1340 C1339 1.279 . S
N1340 C1343 1.314 1_655 S
C1341 C1338 1.348 1_455 S
C1341 C1343 1.353 . S
C1341 H1397 0.929 . S
C1342 C1338 1.356 . S
C1342 C1339 1.358 . S
C1342 H1398 0.930 . S
C1343 N1340 1.314 1_455 S
C1343 C1341 1.353 . S
C1343 H1399 0.930 . S
C1344 N1345 1.314 . S
C1344 C1349 1.353 . S
C1344 H1350 0.930 . S
N1345 Li1328 1.990 . S
N1345 C1344 1.314 . S
N1345 C1347 1.279 . S
C1346 C1347 1.358 . S
C1346 C1348 1.356 . S
C1346 H1400 0.930 . S
C1347 N1345 1.279 . S
C1347 C1346 1.358 . S
C1347 H1351 0.930 . S
C1348 C1346 1.356 . S
C1348 C1349 1.348 . S
C1349 C1344 1.353 . S
C1349 C1348 1.348 . S
C1349 H1401 0.929 . S
H1350 C1344 0.930 . S
H1351 C1347 0.930 . S
C1352 N1353 1.314 . S
C1352 C1354 1.353 . S
C1352 H1358 0.930 . S
N1353 Li1329 1.990 . S
N1353 C1352 1.314 . S
N1353 C1356 1.279 . S
C1354 C1352 1.353 . S
C1354 C1357 1.348 . S
C1354 H1402 0.929 . S
C1355 C1356 1.358 . S
C1355 C1357 1.356 . S
C1355 H1403 0.930 . S
C1356 N1353 1.279 . S
C1356 C1355 1.358 . S
C1356 H1359 0.930 . S
C1357 C1354 1.348 . S
C1357 C1355 1.356 . S
H1358 C1352 0.930 . S
H1359 C1356 0.930 . S
C1360 C1362 1.348 1_455 S
C1360 C1363 1.356 . S
C1360 O1390 1.325 . S
N1361 C1364 1.314 1_455 S
N1361 C1365 1.279 . S
C1362 C1360 1.348 1_655 S
C1362 C1364 1.353 . S
C1362 H1404 0.929 . S
C1363 C1360 1.356 . S
C1363 C1365 1.358 . S
C1363 H1405 0.930 . S
C1364 N1361 1.314 1_655 S
C1364 C1362 1.353 . S
C1364 H1406 0.930 . S
C1365 N1361 1.279 . S
C1365 C1363 1.358 . S
C1365 H1407 0.930 . S
C1366 C1367 1.348 . S
C1366 C1368 1.356 . S
C1366 O1391 1.325 . S
C1367 C1366 1.348 . S
C1367 C1369 1.353 . S
C1367 H1408 0.929 . S
C1368 C1366 1.356 . S
C1368 C1370 1.358 . S
C1368 H1409 0.930 . S
C1369 C1367 1.353 . S
C1369 N1371 1.314 . S
C1369 H1410 0.930 . S
C1370 C1368 1.358 . S
C1370 N1371 1.279 . S
C1370 H1411 0.930 . S
N1371 C1369 1.314 . S
N1371 C1370 1.279 . S
C1372 C1374 1.353 . S
C1372 N1375 1.314 . S
C1372 H1378 0.930 . S
C1373 N1375 1.279 . S
C1373 C1376 1.358 . S
C1373 H1379 0.930 . S
C1374 C1372 1.353 . S
C1374 C1377 1.348 . S
C1374 H1412 0.929 . S
N1375 Li1330 1.990 . S
N1375 C1372 1.314 . S
N1375 C1373 1.279 . S
C1376 C1373 1.358 . S
C1376 C1377 1.356 . S
C1376 H1413 0.930 . S
C1377 C1374 1.348 . S
C1377 C1376 1.356 . S
H1378 C1372 0.930 . S
H1379 C1373 0.930 . S
C1380 N1381 1.314 . S
C1380 C1382 1.353 . S
C1380 H1386 0.930 . S
N1381 Li1331 1.990 . S
N1381 C1380 1.314 . S
N1381 C1384 1.279 . S
C1382 C1380 1.353 . S
C1382 C1385 1.348 . S
C1382 H1414 0.929 . S
C1383 C1384 1.358 . S
C1383 C1385 1.356 . S
C1383 H1415 0.930 . S
C1384 N1381 1.279 . S
C1384 C1383 1.358 . S
C1384 H1387 0.930 . S
C1385 C1382 1.348 . S
C1385 C1383 1.356 . S
H1386 C1380 0.930 . S
H1387 C1384 0.930 . S
O1388 Li1328 1.956 . S
O1388 Li1329 1.970 1_455 S
O1388 Li1330 1.961 . S
O1388 C1332 1.325 . S
O1389 Li1328 1.970 1_655 S
O1389 Li1329 1.956 . S
O1389 Li1331 1.961 . S
O1389 C1338 1.325 . S
O1390 Li1328 1.961 . S
O1390 Li1330 1.956 . S
O1390 Li1331 1.970 1_455 S
O1390 C1360 1.325 . S
O1391 Li1329 1.961 . S
O1391 Li1330 1.970 1_655 S
O1391 Li1331 1.956 . S
O1391 C1366 1.325 . S
H1392 C1334 0.929 . S
H1393 C1335 0.930 . S
H1394 C1336 0.930 . S
H1395 C1337 0.930 . S
H1396 C1339 0.930 . S
H1397 C1341 0.929 . S
H1398 C1342 0.930 . S
H1399 C1343 0.930 . S
H1400 C1346 0.930 . S
H1401 C1349 0.929 . S
H1402 C1354 0.929 . S
H1403 C1355 0.930 . S
H1404 C1362 0.929 . S
H1405 C1363 0.930 . S
H1406 C1364 0.930 . S
H1407 C1365 0.930 . S
H1408 C1367 0.929 . S
H1409 C1368 0.930 . S
H1410 C1369 0.930 . S
H1411 C1370 0.930 . S
H1412 C1374 0.929 . S
H1413 C1376 0.930 . S
H1414 C1382 0.929 . S
H1415 C1383 0.930 . S
Li1416 N1433 1.990 . S
Li1416 O1476 1.956 . S
Li1416 O1477 1.970 . S
Li1416 O1478 1.961 . S
Li1417 N1441 1.990 . S
Li1417 O1476 1.970 . S
Li1417 O1477 1.956 . S
Li1417 O1479 1.961 . S
Li1418 N1463 1.990 . S
Li1418 O1476 1.961 . S
Li1418 O1478 1.956 . S
Li1418 O1479 1.970 . S
Li1419 N1469 1.990 . S
Li1419 O1477 1.961 . S
Li1419 O1478 1.970 . S
Li1419 O1479 1.956 . S
C1420 C1422 1.348 . S
C1420 C1423 1.356 . S
C1420 O1476 1.325 . S
N1421 C1424 1.314 . S
N1421 C1425 1.279 . S
C1422 C1420 1.348 . S
C1422 C1424 1.353 . S
C1422 H1480 0.929 . S
C1423 C1420 1.356 . S
C1423 C1425 1.358 . S
C1423 H1481 0.930 . S
C1424 N1421 1.314 . S
C1424 C1422 1.353 . S
C1424 H1482 0.930 . S
C1425 N1421 1.279 . S
C1425 C1423 1.358 . S
C1425 H1483 0.930 . S
C1426 C1429 1.348 . S
C1426 C1430 1.356 . S
C1426 O1477 1.325 . S
C1427 N1428 1.279 . S
C1427 C1430 1.358 . S
C1427 H1484 0.930 . S
N1428 C1427 1.279 . S
N1428 C1431 1.314 . S
C1429 C1426 1.348 . S
C1429 C1431 1.353 . S
C1429 H1485 0.929 . S
C1430 C1426 1.356 . S
C1430 C1427 1.358 . S
C1430 H1486 0.930 . S
C1431 N1428 1.314 . S
C1431 C1429 1.353 . S
C1431 H1487 0.930 . S
C1432 N1433 1.314 . S
C1432 C1437 1.353 . S
C1432 H1438 0.930 . S
N1433 Li1416 1.990 . S
N1433 C1432 1.314 . S
N1433 C1435 1.279 . S
C1434 C1435 1.358 . S
C1434 C1436 1.356 . S
C1434 H1488 0.930 . S
C1435 N1433 1.279 . S
C1435 C1434 1.358 . S
C1435 H1439 0.930 . S
C1436 C1434 1.356 . S
C1436 C1437 1.348 . S
C1437 C1432 1.353 . S
C1437 C1436 1.348 . S
C1437 H1489 0.929 . S
H1438 C1432 0.930 . S
H1439 C1435 0.930 . S
C1440 N1441 1.314 . S
C1440 C1442 1.353 . S
C1440 H1446 0.930 . S
N1441 Li1417 1.990 . S
N1441 C1440 1.314 . S
N1441 C1444 1.279 . S
C1442 C1440 1.353 . S
C1442 C1445 1.348 . S
C1442 H1490 0.929 . S
C1443 C1444 1.358 . S
C1443 C1445 1.356 . S
C1443 H1491 0.930 . S
C1444 N1441 1.279 . S
C1444 C1443 1.358 . S
C1444 H1447 0.930 . S
C1445 C1442 1.348 . S
C1445 C1443 1.356 . S
H1446 C1440 0.930 . S
H1447 C1444 0.930 . S
C1448 C1450 1.348 . S
C1448 C1451 1.356 . S
C1448 O1478 1.325 . S
N1449 C1452 1.314 . S
N1449 C1453 1.279 . S
C1450 C1448 1.348 . S
C1450 C1452 1.353 . S
C1450 H1492 0.929 . S
C1451 C1448 1.356 . S
C1451 C1453 1.358 . S
C1451 H1493 0.930 . S
C1452 N1449 1.314 . S
C1452 C1450 1.353 . S
C1452 H1494 0.930 . S
C1453 N1449 1.279 . S
C1453 C1451 1.358 . S
C1453 H1495 0.930 . S
C1454 C1455 1.348 . S
C1454 C1456 1.356 . S
C1454 O1479 1.325 . S
C1455 C1454 1.348 . S
C1455 C1457 1.353 . S
C1455 H1496 0.929 . S
C1456 C1454 1.356 . S
C1456 C1458 1.358 . S
C1456 H1497 0.930 . S
C1457 C1455 1.353 . S
C1457 N1459 1.314 . S
C1457 H1498 0.930 . S
C1458 C1456 1.358 . S
C1458 N1459 1.279 . S
C1458 H1499 0.930 . S
N1459 C1457 1.314 . S
N1459 C1458 1.279 . S
C1460 C1462 1.353 . S
C1460 N1463 1.314 . S
C1460 H1466 0.930 . S
C1461 N1463 1.279 . S
C1461 C1464 1.358 . S
C1461 H1467 0.930 . S
C1462 C1460 1.353 . S
C1462 C1465 1.348 . S
C1462 H1500 0.929 . S
N1463 Li1418 1.990 . S
N1463 C1460 1.314 . S
N1463 C1461 1.279 . S
C1464 C1461 1.358 . S
C1464 C1465 1.356 . S
C1464 H1501 0.930 . S
C1465 C1462 1.348 . S
C1465 C1464 1.356 . S
H1466 C1460 0.930 . S
H1467 C1461 0.930 . S
C1468 N1469 1.314 . S
C1468 C1470 1.353 . S
C1468 H1474 0.930 . S
N1469 Li1419 1.990 . S
N1469 C1468 1.314 . S
N1469 C1472 1.279 . S
C1470 C1468 1.353 . S
C1470 C1473 1.348 . S
C1470 H1502 0.929 . S
C1471 C1472 1.358 . S
C1471 C1473 1.356 . S
C1471 H1503 0.930 . S
C1472 N1469 1.279 . S
C1472 C1471 1.358 . S
C1472 H1475 0.930 . S
C1473 C1470 1.348 . S
C1473 C1471 1.356 . S
H1474 C1468 0.930 . S
H1475 C1472 0.930 . S
O1476 Li1416 1.956 . S
O1476 Li1417 1.970 . S
O1476 Li1418 1.961 . S
O1476 C1420 1.325 . S
O1477 Li1416 1.970 . S
O1477 Li1417 1.956 . S
O1477 Li1419 1.961 . S
O1477 C1426 1.325 . S
O1478 Li1416 1.961 . S
O1478 Li1418 1.956 . S
O1478 Li1419 1.970 . S
O1478 C1448 1.325 . S
O1479 Li1417 1.961 . S
O1479 Li1418 1.970 . S
O1479 Li1419 1.956 . S
O1479 C1454 1.325 . S
H1480 C1422 0.929 . S
H1481 C1423 0.930 . S
H1482 C1424 0.930 . S
H1483 C1425 0.930 . S
H1484 C1427 0.930 . S
H1485 C1429 0.929 . S
H1486 C1430 0.930 . S
H1487 C1431 0.930 . S
H1488 C1434 0.930 . S
H1489 C1437 0.929 . S
H1490 C1442 0.929 . S
H1491 C1443 0.930 . S
H1492 C1450 0.929 . S
H1493 C1451 0.930 . S
H1494 C1452 0.930 . S
H1495 C1453 0.930 . S
H1496 C1455 0.929 . S
H1497 C1456 0.930 . S
H1498 C1457 0.930 . S
H1499 C1458 0.930 . S
H1500 C1462 0.929 . S
H1501 C1464 0.930 . S
H1502 C1470 0.929 . S
H1503 C1471 0.930 . S
Li1504 N1521 1.990 . S
Li1504 O1564 1.956 . S
Li1504 O1565 1.970 1_455 S
Li1504 O1566 1.961 . S
Li1505 N1529 1.990 . S
Li1505 O1564 1.970 1_655 S
Li1505 O1565 1.956 . S
Li1505 O1567 1.961 . S
Li1506 N1551 1.990 . S
Li1506 O1564 1.961 . S
Li1506 O1566 1.956 . S
Li1506 O1567 1.970 1_455 S
Li1507 N1557 1.990 . S
Li1507 O1565 1.961 . S
Li1507 O1566 1.970 1_655 S
Li1507 O1567 1.956 . S
C1508 C1510 1.348 1_455 S
C1508 C1511 1.356 . S
C1508 O1564 1.325 . S
N1509 C1512 1.314 1_455 S
N1509 C1513 1.279 . S
C1510 C1508 1.348 1_655 S
C1510 C1512 1.353 . S
C1510 H1568 0.929 . S
C1511 C1508 1.356 . S
C1511 C1513 1.358 . S
C1511 H1569 0.930 . S
C1512 N1509 1.314 1_655 S
C1512 C1510 1.353 . S
C1512 H1570 0.930 . S
C1513 N1509 1.279 . S
C1513 C1511 1.358 . S
C1513 H1571 0.930 . S
C1514 C1517 1.348 . S
C1514 C1518 1.356 . S
C1514 O1565 1.325 . S
C1515 N1516 1.279 . S
C1515 C1518 1.358 . S
C1515 H1572 0.930 . S
N1516 C1515 1.279 . S
N1516 C1519 1.314 . S
C1517 C1514 1.348 . S
C1517 C1519 1.353 . S
C1517 H1573 0.929 . S
C1518 C1514 1.356 . S
C1518 C1515 1.358 . S
C1518 H1574 0.930 . S
C1519 N1516 1.314 . S
C1519 C1517 1.353 . S
C1519 H1575 0.930 . S
C1520 N1521 1.314 . S
C1520 C1525 1.353 . S
C1520 H1526 0.930 . S
N1521 Li1504 1.990 . S
N1521 C1520 1.314 . S
N1521 C1523 1.279 . S
C1522 C1523 1.358 . S
C1522 C1524 1.356 . S
C1522 H1576 0.930 . S
C1523 N1521 1.279 . S
C1523 C1522 1.358 . S
C1523 H1527 0.930 . S
C1524 C1522 1.356 . S
C1524 C1525 1.348 . S
C1525 C1520 1.353 . S
C1525 C1524 1.348 . S
C1525 H1577 0.929 . S
H1526 C1520 0.930 . S
H1527 C1523 0.930 . S
C1528 N1529 1.314 . S
C1528 C1530 1.353 . S
C1528 H1534 0.930 . S
N1529 Li1505 1.990 . S
N1529 C1528 1.314 . S
N1529 C1532 1.279 . S
C1530 C1528 1.353 . S
C1530 C1533 1.348 . S
C1530 H1578 0.929 . S
C1531 C1532 1.358 . S
C1531 C1533 1.356 . S
C1531 H1579 0.930 . S
C1532 N1529 1.279 . S
C1532 C1531 1.358 . S
C1532 H1535 0.930 . S
C1533 C1530 1.348 . S
C1533 C1531 1.356 . S
H1534 C1528 0.930 . S
H1535 C1532 0.930 . S
C1536 C1538 1.348 . S
C1536 C1539 1.356 . S
C1536 O1566 1.325 . S
N1537 C1540 1.314 . S
N1537 C1541 1.279 . S
C1538 C1536 1.348 . S
C1538 C1540 1.353 . S
C1538 H1580 0.929 . S
C1539 C1536 1.356 . S
C1539 C1541 1.358 . S
C1539 H1581 0.930 . S
C1540 N1537 1.314 . S
C1540 C1538 1.353 . S
C1540 H1582 0.930 . S
C1541 N1537 1.279 . S
C1541 C1539 1.358 . S
C1541 H1583 0.930 . S
C1542 C1543 1.348 1_655 S
C1542 C1544 1.356 . S
C1542 O1567 1.325 . S
C1543 C1542 1.348 1_455 S
C1543 C1545 1.353 . S
C1543 H1584 0.929 . S
C1544 C1542 1.356 . S
C1544 C1546 1.358 . S
C1544 H1585 0.930 . S
C1545 C1543 1.353 . S
C1545 N1547 1.314 1_455 S
C1545 H1586 0.930 . S
C1546 C1544 1.358 . S
C1546 N1547 1.279 . S
C1546 H1587 0.930 . S
N1547 C1545 1.314 1_655 S
N1547 C1546 1.279 . S
C1548 C1550 1.353 . S
C1548 N1551 1.314 . S
C1548 H1554 0.930 . S
C1549 N1551 1.279 . S
C1549 C1552 1.358 . S
C1549 H1555 0.930 . S
C1550 C1548 1.353 . S
C1550 C1553 1.348 . S
C1550 H1588 0.929 . S
N1551 Li1506 1.990 . S
N1551 C1548 1.314 . S
N1551 C1549 1.279 . S
C1552 C1549 1.358 . S
C1552 C1553 1.356 . S
C1552 H1589 0.930 . S
C1553 C1550 1.348 . S
C1553 C1552 1.356 . S
H1554 C1548 0.930 . S
H1555 C1549 0.930 . S
C1556 N1557 1.314 . S
C1556 C1558 1.353 . S
C1556 H1562 0.930 . S
N1557 Li1507 1.990 . S
N1557 C1556 1.314 . S
N1557 C1560 1.279 . S
C1558 C1556 1.353 . S
C1558 C1561 1.348 . S
C1558 H1590 0.929 . S
C1559 C1560 1.358 . S
C1559 C1561 1.356 . S
C1559 H1591 0.930 . S
C1560 N1557 1.279 . S
C1560 C1559 1.358 . S
C1560 H1563 0.930 . S
C1561 C1558 1.348 . S
C1561 C1559 1.356 . S
H1562 C1556 0.930 . S
H1563 C1560 0.930 . S
O1564 Li1504 1.956 . S
O1564 Li1505 1.970 1_455 S
O1564 Li1506 1.961 . S
O1564 C1508 1.325 . S
O1565 Li1504 1.970 1_655 S
O1565 Li1505 1.956 . S
O1565 Li1507 1.961 . S
O1565 C1514 1.325 . S
O1566 Li1504 1.961 . S
O1566 Li1506 1.956 . S
O1566 Li1507 1.970 1_455 S
O1566 C1536 1.325 . S
O1567 Li1505 1.961 . S
O1567 Li1506 1.970 1_655 S
O1567 Li1507 1.956 . S
O1567 C1542 1.325 . S
H1568 C1510 0.929 . S
H1569 C1511 0.930 . S
H1570 C1512 0.930 . S
H1571 C1513 0.930 . S
H1572 C1515 0.930 . S
H1573 C1517 0.929 . S
H1574 C1518 0.930 . S
H1575 C1519 0.930 . S
H1576 C1522 0.930 . S
H1577 C1525 0.929 . S
H1578 C1530 0.929 . S
H1579 C1531 0.930 . S
H1580 C1538 0.929 . S
H1581 C1539 0.930 . S
H1582 C1540 0.930 . S
H1583 C1541 0.930 . S
H1584 C1543 0.929 . S
H1585 C1544 0.930 . S
H1586 C1545 0.930 . S
H1587 C1546 0.930 . S
H1588 C1550 0.929 . S
H1589 C1552 0.930 . S
H1590 C1558 0.929 . S
H1591 C1559 0.930 . S
Li1592 N1609 1.990 . S
Li1592 O1652 1.956 . S
Li1592 O1653 1.970 . S
Li1592 O1654 1.961 . S
Li1593 N1617 1.990 . S
Li1593 O1652 1.970 . S
Li1593 O1653 1.956 . S
Li1593 O1655 1.961 . S
Li1594 N1639 1.990 . S
Li1594 O1652 1.961 . S
Li1594 O1654 1.956 . S
Li1594 O1655 1.970 . S
Li1595 N1645 1.990 . S
Li1595 O1653 1.961 . S
Li1595 O1654 1.970 . S
Li1595 O1655 1.956 . S
C1596 C1598 1.348 . S
C1596 C1599 1.356 . S
C1596 O1652 1.325 . S
N1597 C1600 1.314 . S
N1597 C1601 1.279 . S
C1598 C1596 1.348 . S
C1598 C1600 1.353 . S
C1598 H1656 0.929 . S
C1599 C1596 1.356 . S
C1599 C1601 1.358 . S
C1599 H1657 0.930 . S
C1600 N1597 1.314 . S
C1600 C1598 1.353 . S
C1600 H1658 0.930 . S
C1601 N1597 1.279 . S
C1601 C1599 1.358 . S
C1601 H1659 0.930 . S
C1602 C1605 1.348 . S
C1602 C1606 1.356 . S
C1602 O1653 1.325 . S
C1603 N1604 1.279 . S
C1603 C1606 1.358 . S
C1603 H1660 0.930 . S
N1604 C1603 1.279 . S
N1604 C1607 1.314 . S
C1605 C1602 1.348 . S
C1605 C1607 1.353 . S
C1605 H1661 0.929 . S
C1606 C1602 1.356 . S
C1606 C1603 1.358 . S
C1606 H1662 0.930 . S
C1607 N1604 1.314 . S
C1607 C1605 1.353 . S
C1607 H1663 0.930 . S
C1608 N1609 1.314 . S
C1608 C1613 1.353 . S
C1608 H1614 0.930 . S
N1609 Li1592 1.990 . S
N1609 C1608 1.314 . S
N1609 C1611 1.279 . S
C1610 C1611 1.358 . S
C1610 C1612 1.356 . S
C1610 H1664 0.930 . S
C1611 N1609 1.279 . S
C1611 C1610 1.358 . S
C1611 H1615 0.930 . S
C1612 C1610 1.356 . S
C1612 C1613 1.348 . S
C1613 C1608 1.353 . S
C1613 C1612 1.348 . S
C1613 H1665 0.929 . S
H1614 C1608 0.930 . S
H1615 C1611 0.930 . S
C1616 N1617 1.314 . S
C1616 C1618 1.353 . S
C1616 H1622 0.930 . S
N1617 Li1593 1.990 . S
N1617 C1616 1.314 . S
N1617 C1620 1.279 . S
C1618 C1616 1.353 . S
C1618 C1621 1.348 . S
C1618 H1666 0.929 . S
C1619 C1620 1.358 . S
C1619 C1621 1.356 . S
C1619 H1667 0.930 . S
C1620 N1617 1.279 . S
C1620 C1619 1.358 . S
C1620 H1623 0.930 . S
C1621 C1618 1.348 . S
C1621 C1619 1.356 . S
H1622 C1616 0.930 . S
H1623 C1620 0.930 . S
C1624 C1626 1.348 . S
C1624 C1627 1.356 . S
C1624 O1654 1.325 . S
N1625 C1628 1.314 . S
N1625 C1629 1.279 . S
C1626 C1624 1.348 . S
C1626 C1628 1.353 . S
C1626 H1668 0.929 . S
C1627 C1624 1.356 . S
C1627 C1629 1.358 . S
C1627 H1669 0.930 . S
C1628 N1625 1.314 . S
C1628 C1626 1.353 . S
C1628 H1670 0.930 . S
C1629 N1625 1.279 . S
C1629 C1627 1.358 . S
C1629 H1671 0.930 . S
C1630 C1631 1.348 . S
C1630 C1632 1.356 . S
C1630 O1655 1.325 . S
C1631 C1630 1.348 . S
C1631 C1633 1.353 . S
C1631 H1672 0.929 . S
C1632 C1630 1.356 . S
C1632 C1634 1.358 . S
C1632 H1673 0.930 . S
C1633 C1631 1.353 . S
C1633 N1635 1.314 . S
C1633 H1674 0.930 . S
C1634 C1632 1.358 . S
C1634 N1635 1.279 . S
C1634 H1675 0.930 . S
N1635 C1633 1.314 . S
N1635 C1634 1.279 . S
C1636 C1638 1.353 . S
C1636 N1639 1.314 . S
C1636 H1642 0.930 . S
C1637 N1639 1.279 . S
C1637 C1640 1.358 . S
C1637 H1643 0.930 . S
C1638 C1636 1.353 . S
C1638 C1641 1.348 . S
C1638 H1676 0.929 . S
N1639 Li1594 1.990 . S
N1639 C1636 1.314 . S
N1639 C1637 1.279 . S
C1640 C1637 1.358 . S
C1640 C1641 1.356 . S
C1640 H1677 0.930 . S
C1641 C1638 1.348 . S
C1641 C1640 1.356 . S
H1642 C1636 0.930 . S
H1643 C1637 0.930 . S
C1644 N1645 1.314 . S
C1644 C1646 1.353 . S
C1644 H1650 0.930 . S
N1645 Li1595 1.990 . S
N1645 C1644 1.314 . S
N1645 C1648 1.279 . S
C1646 C1644 1.353 . S
C1646 C1649 1.348 . S
C1646 H1678 0.929 . S
C1647 C1648 1.358 . S
C1647 C1649 1.356 . S
C1647 H1679 0.930 . S
C1648 N1645 1.279 . S
C1648 C1647 1.358 . S
C1648 H1651 0.930 . S
C1649 C1646 1.348 . S
C1649 C1647 1.356 . S
H1650 C1644 0.930 . S
H1651 C1648 0.930 . S
O1652 Li1592 1.956 . S
O1652 Li1593 1.970 . S
O1652 Li1594 1.961 . S
O1652 C1596 1.325 . S
O1653 Li1592 1.970 . S
O1653 Li1593 1.956 . S
O1653 Li1595 1.961 . S
O1653 C1602 1.325 . S
O1654 Li1592 1.961 . S
O1654 Li1594 1.956 . S
O1654 Li1595 1.970 . S
O1654 C1624 1.325 . S
O1655 Li1593 1.961 . S
O1655 Li1594 1.970 . S
O1655 Li1595 1.956 . S
O1655 C1630 1.325 . S
H1656 C1598 0.929 . S
H1657 C1599 0.930 . S
H1658 C1600 0.930 . S
H1659 C1601 0.930 . S
H1660 C1603 0.930 . S
H1661 C1605 0.929 . S
H1662 C1606 0.930 . S
H1663 C1607 0.930 . S
H1664 C1610 0.930 . S
H1665 C1613 0.929 . S
H1666 C1618 0.929 . S
H1667 C1619 0.930 . S
H1668 C1626 0.929 . S
H1669 C1627 0.930 . S
H1670 C1628 0.930 . S
H1671 C1629 0.930 . S
H1672 C1631 0.929 . S
H1673 C1632 0.930 . S
H1674 C1633 0.930 . S
H1675 C1634 0.930 . S
H1676 C1638 0.929 . S
H1677 C1640 0.930 . S
H1678 C1646 0.929 . S
H1679 C1647 0.930 . S
C673 C211 1.539 . S
C732 C255 1.545 . S
C274 C849 1.541 . S
C917 C157 1.573 . S
C996 C391 1.550 . S
C1121 C484 1.563 . S
C450 C1181 1.540 . S
C1289 C352 1.567 . S
C430 C1385 1.539 . S
C1445 C367 1.583 . S
C411 C1348 1.558 . S
C1465 C469 1.570 . S
C294 C1533 1.529 . S
C177 C1524 1.576 . S
C196 C1553 1.543 . S
C235 C1561 1.562 . S
C133 C945 1.548 . S
C567 C908 1.525 . S
C644 C601 1.568 . S
C741 C328 1.548 . S
C172 C1005 1.558 . S
C1297 C445 1.540 . S
C1025 C372 1.579 . S
C1209 C489 1.560 . S
C1201 C562 1.539 . S
C606 C1269 1.545 . S
C313 C1033 1.541 . S
C1084 C508 1.573 . S
C118 C829 1.550 . S
C937 C16 1.563 . S
C653 C60 1.540 . S
C769 C79 1.567 . S
C40 C1473 1.539 . S
C94 C1357 1.583 . S
C138 C1436 1.558 . S
C1 C1377 1.570 . S
C1621 C333 1.529 . S
C1612 C528 1.576 . S
C1641 C547 1.543 . S
C586 C1649 1.562 . S
C406 C1113 1.548 . S
C1093 C216 1.525 . S
C1172 C250 1.568 . S
C1260 C289 1.548 . S
C523 C820 1.558 . S
C761 C55 1.540 . S
C99 C857 1.578 . S
C681 C21 1.560 . S
