# Generated by pormake.
# Topology tsx, (6,3)-cn, num edge types: 1
# Building blocks:
#     Node 0, Type 0, BuildingBlock: CIFDUS_clean_sbu_1, # of connection points: 6
#     Node 1, Type 0, BuildingBlock: CIFDUS_clean_sbu_1, # of connection points: 6
#     Node 2, Type 1, BuildingBlock: KAKCAD_clean_linker_0, # of connection points: 3
#     Node 3, Type 1, BuildingBlock: KAKCAD_clean_linker_0, # of connection points: 3
#     Node 4, Type 1, BuildingBlock: KAKCAD_clean_linker_0, # of connection points: 3
#     Node 5, Type 1, BuildingBlock: KAKCAD_clean_linker_0, # of connection points: 3
#     Edge 6, Type (0, 1), BuildingBlock: FUNLAD_clean_linker_1, # of connection points: 2
#     Edge 7, Type (0, 1), BuildingBlock: FUNLAD_clean_linker_1, # of connection points: 2
#     Edge 8, Type (0, 1), BuildingBlock: FUNLAD_clean_linker_1, # of connection points: 2
#     Edge 9, Type (0, 1), BuildingBlock: FUNLAD_clean_linker_1, # of connection points: 2
#     Edge 10, Type (0, 1), BuildingBlock: FUNLAD_clean_linker_1, # of connection points: 2
#     Edge 11, Type (0, 1), BuildingBlock: FUNLAD_clean_linker_1, # of connection points: 2
#     Edge 12, Type (0, 1), BuildingBlock: FUNLAD_clean_linker_1, # of connection points: 2
#     Edge 13, Type (0, 1), BuildingBlock: FUNLAD_clean_linker_1, # of connection points: 2
#     Edge 14, Type (0, 1), BuildingBlock: FUNLAD_clean_linker_1, # of connection points: 2
#     Edge 15, Type (0, 1), BuildingBlock: FUNLAD_clean_linker_1, # of connection points: 2
#     Edge 16, Type (0, 1), BuildingBlock: FUNLAD_clean_linker_1, # of connection points: 2
#     Edge 17, Type (0, 1), BuildingBlock: FUNLAD_clean_linker_1, # of connection points: 2
# Relax obj value: 0.127
# Max RMSD: 0.156
# Mean RMSD: 0.118
data_MOF--net-tsx--node1-CIFDUS_clean_sbu_1--node2-KAKCAD_clean_linker_0--edge1-FUNLAD_clean_linker_1
_symmetry_space_group_name_H-M    P1
_symmetry_Int_Tables_number       1
_symmetry_cell_setting            triclinic
loop_
_symmetry_equiv_pos_as_xyz
'x, y, z'
_cell_length_a     22.771776
_cell_length_b     28.170038
_cell_length_c     46.146236
_cell_angle_alpha  96.59482
_cell_angle_beta   91.880852
_cell_angle_gamma 90.648208
loop_
_atom_site_label
_atom_site_type_symbol
_atom_site_fract_x
_atom_site_fract_y
_atom_site_fract_z
_atom_type_partial_charge
O0 O 0.99585 0.1065 0.02232 0.0
Mn1 Mn 0.03681 0.03934 0.01761 0.0
O2 O 0.90333 0.09467 1.00394 0.0
Mn3 Mn 0.91381 0.0332 0.98638 0.0
O4 O 0.07713 0.97234 0.01227 0.0
O5 O 0.11531 0.07372 0.02461 0.0
Mn6 Mn 0.15916 0.04338 0.04867 0.0
O7 O 0.02884 0.03517 0.06244 0.0
O8 O 0.16987 0.98229 0.03031 0.0
O9 O 0.04456 0.04271 0.97269 0.0
O10 O 0.95398 0.02876 0.95198 0.0
O11 O 0.20467 0.09383 0.03983 0.0
O12 O 0.11947 0.04725 0.08325 0.0
C13 C 0.91725 0.97381 0.01181 0.0
C14 C 0.94398 0.12168 0.01668 0.0
C15 C 0.12889 0.95646 0.01695 0.0
C16 C 0.15895 0.10354 0.02434 0.0
C17 C 0.06434 0.04042 0.0849 0.0
C18 C 1.00906 0.03583 0.95025 0.0
O19 O 0.95881 0.00505 0.01078 0.0
O20 O 0.87081 0.98181 0.99627 0.0
O21 O 0.49586 0.61031 0.51959 0.0
Mn22 Mn 0.54558 0.54713 0.51653 0.0
O23 O 0.41099 0.59124 0.49386 0.0
Mn24 Mn 0.43466 0.53344 0.47504 0.0
O25 O 0.59391 0.48383 0.51229 0.0
O26 O 0.61842 0.58638 0.53108 0.0
Mn27 Mn 0.65371 0.55562 0.55814 0.0
O28 O 0.52275 0.53695 0.5593 0.0
O29 O 0.67525 0.49587 0.54113 0.0
O30 O 0.56721 0.55663 0.47364 0.0
O31 O 0.48619 0.53717 0.4452 0.0
O32 O 0.69987 0.60832 0.55548 0.0
O33 O 0.60272 0.55591 0.58834 0.0
C34 C 0.43661 0.47291 0.49957 0.0
C35 C 0.44368 0.62039 0.51056 0.0
C36 C 0.64298 0.46966 0.52255 0.0
C37 C 0.66067 0.61797 0.5361 0.0
C38 C 0.54877 0.54409 0.58464 0.0
C39 C 0.54029 0.54958 0.44851 0.0
O40 O 0.47462 0.50749 0.50213 0.0
O41 O 0.39581 0.47693 0.47985 0.0
C42 C 0.99467 0.94627 0.3104 0.0
C43 C 0.99621 0.98554 0.2942 0.0
C44 C 1.00645 0.95245 0.34065 0.0
C45 C 0.01848 -0.00175 0.35528 0.0
C46 C 0.01976 0.03748 0.33905 0.0
C47 C 1.00887 0.03125 0.30889 0.0
C48 C 0.02715 0.00608 0.38752 0.0
C49 C 0.06815 0.97971 0.40217 0.0
C50 C 0.07869 0.9896 0.43259 0.0
C51 C 0.04675 0.02621 0.44825 0.0
C52 C 1.00517 0.05273 0.43382 0.0
C53 C 0.99555 0.04188 0.40355 0.0
C54 C 0.97202 0.09251 0.44967 0.0
C55 C 0.94873 0.08856 0.47718 0.0
C56 C 0.96139 0.13443 0.43653 0.0
C57 C 0.92643 0.17045 0.44982 0.0
C58 C 0.90129 0.16577 0.47677 0.0
C59 C 0.12475 0.96282 0.44752 0.0
C60 C 0.13157 0.91349 0.43968 0.0
C61 C 0.16411 0.98661 0.46864 0.0
C62 C 0.20987 0.96189 0.48104 0.0
C63 C 0.21713 0.91272 0.47292 0.0
C64 C 0.17715 0.88879 0.4521 0.0
C65 C 0.91403 0.12503 0.49067 0.0
H66 H 0.98455 0.91077 0.29963 0.0
H67 H 1.00467 0.92169 0.35271 0.0
H68 H 0.02892 0.07319 0.34976 0.0
H69 H 1.00892 0.06252 0.29728 0.0
H70 H 0.09353 0.95282 0.38962 0.0
H71 H 0.9628 0.06123 0.39223 0.0
H72 H 0.0547 0.0344 0.47158 0.0
H73 H 0.95601 0.05683 0.48794 0.0
H74 H 0.98018 0.1395 0.41583 0.0
H75 H 0.91989 0.20224 0.43905 0.0
H76 H 0.10188 0.89391 0.42366 0.0
H77 H 0.16075 0.02469 0.47497 0.0
H78 H 0.89605 0.12092 0.5117 0.0
H79 H 0.18171 0.85128 0.44455 0.0
H80 H 0.24012 0.98143 0.49681 0.0
C81 C 0.11381 0.09174 0.72496 0.0
C82 C 0.11488 0.05032 0.73912 0.0
C83 C 0.10497 0.08881 0.69475 0.0
C84 C 0.09813 0.0442 0.67772 0.0
C85 C 0.09942 0.00254 0.69189 0.0
C86 C 0.10768 0.00553 0.72229 0.0
C87 C 0.09105 0.04169 0.64533 0.0
C88 C 0.12285 0.07347 0.63035 0.0
C89 C 0.11475 0.07445 0.60012 0.0
C90 C 0.07554 0.04109 0.58435 0.0
C91 C 0.0446 0.00758 0.59881 0.0
C92 C 0.05233 0.0086 0.62933 0.0
C93 C 1.00433 0.97092 0.58255 0.0
C94 C 0.96157 0.98313 0.56206 0.0
C95 C 1.00704 0.92323 0.58859 0.0
C96 C 0.96726 0.88885 0.57515 0.0
C97 C 0.92305 0.90106 0.55551 0.0
C98 C 0.148 0.11089 0.58589 0.0
C99 C 0.15602 0.15741 0.60039 0.0
C100 C 0.17507 0.09929 0.55909 0.0
C101 C 0.21116 0.13295 0.54775 0.0
C102 C 0.22152 0.17849 0.56317 0.0
C103 C 0.19243 0.19062 0.5893 0.0
C104 C 0.92108 0.9486 0.54874 0.0
H105 H 0.11894 0.12668 0.73739 0.0
H106 H 0.1031 0.12174 0.68475 0.0
H107 H 0.09525 0.96759 0.67945 0.0
H108 H 0.10956 0.97275 0.73239 0.0
H109 H 0.15491 0.09747 0.64237 0.0
H110 H 0.02701 0.9842 0.64071 0.0
H111 H 0.06927 0.04105 0.56096 0.0
H112 H 0.95846 0.01959 0.55691 0.0
H113 H 0.03996 0.91247 0.60392 0.0
H114 H 0.97045 0.85254 0.58061 0.0
H115 H 0.13436 0.16817 0.6206 0.0
H116 H 0.16984 0.06387 0.54733 0.0
H117 H 0.8886 0.95931 0.53323 0.0
H118 H 0.19701 0.22604 0.6011 0.0
H119 H 0.23206 0.12305 0.52722 0.0
C120 C 0.47245 0.4293 0.80136 0.0
C121 C 0.47153 0.46891 0.78543 0.0
C122 C 0.48332 0.43537 0.83166 0.0
C123 C 0.49228 0.48133 0.84667 0.0
C124 C 0.49123 0.52091 0.83071 0.0
C125 C 0.48095 0.51484 0.8005 0.0
C126 C 0.49993 0.4886 0.87902 0.0
C127 C 0.53929 0.46097 0.89381 0.0
C128 C 0.5474 0.469 0.92442 0.0
C129 C 0.51487 0.50495 0.94021 0.0
C130 C 0.47411 0.53204 0.92574 0.0
C131 C 0.4676 0.52383 0.89519 0.0
C132 C 0.43791 0.56921 0.94197 0.0
C133 C 0.37822 0.57351 0.93403 0.0
C134 C 0.46323 0.60267 0.96387 0.0
C135 C 0.43024 0.64089 0.97646 0.0
C136 C 0.37116 0.64633 0.96766 0.0
C137 C 0.58913 0.43909 0.9397 0.0
C138 C 0.58976 0.38939 0.932 0.0
C139 C 0.62891 0.45969 0.96173 0.0
C140 C 0.66918 0.43122 0.97531 0.0
C141 C 0.67006 0.38146 0.96726 0.0
C142 C 0.62939 0.361 0.94573 0.0
C143 C 0.34531 0.61158 0.94656 0.0
H144 H 0.46483 0.39359 0.79034 0.0
H145 H 0.48321 0.40425 0.84344 0.0
H146 H 0.49809 0.55677 0.84165 0.0
H147 H 0.47892 0.5464 0.78917 0.0
H148 H 0.5648 0.43402 0.88137 0.0
H149 H 0.43701 0.54506 0.88383 0.0
H150 H 0.51986 0.51076 0.9638 0.0
H151 H 0.35716 0.54789 0.91751 0.0
H152 H 0.50916 0.6005 0.97039 0.0
H153 H 0.45148 0.66702 0.99262 0.0
H154 H 0.55914 0.37229 0.91547 0.0
H155 H 0.62947 0.49791 0.96815 0.0
H156 H 0.30042 0.61418 0.93867 0.0
H157 H 0.62857 0.32277 0.93928 0.0
H158 H 0.69885 0.44822 0.99227 0.0
C159 C 0.58568 0.57382 0.21295 0.0
C160 C 0.58086 0.53119 0.22592 0.0
C161 C 0.58112 0.57309 0.18263 0.0
C162 C 0.57167 0.52982 0.16448 0.0
C163 C 0.56659 0.48727 0.17749 0.0
C164 C 0.5708 0.48805 0.20786 0.0
C165 C 0.5668 0.5294 0.13217 0.0
C166 C 0.60352 0.55905 0.11807 0.0
C167 C 0.59823 0.56086 0.0878 0.0
C168 C 0.55483 0.5323 0.07132 0.0
C169 C 0.51876 0.50104 0.08499 0.0
C170 C 0.52502 0.50017 0.11538 0.0
C171 C 0.47404 0.46886 0.06825 0.0
C172 C 0.43071 0.48679 0.0502 0.0
C173 C 0.47104 0.42041 0.07274 0.0
C174 C 0.42463 0.39096 0.06057 0.0
C175 C 0.37966 0.40919 0.0435 0.0
C176 C 0.63813 0.59375 0.07434 0.0
C177 C 0.61585 0.62654 0.05622 0.0
C178 C 0.6984 0.59594 0.08224 0.0
C179 C 0.73493 0.63165 0.07365 0.0
C180 C 0.71199 0.66644 0.05702 0.0
C181 C 0.65244 0.66247 0.04766 0.0
C182 C 0.38366 0.45734 0.03822 0.0
H183 H 0.59124 0.60804 0.22608 0.0
H184 H 0.58377 0.60671 0.17343 0.0
H185 H 0.55982 0.45326 0.16421 0.0
H186 H 0.56637 0.45474 0.21729 0.0
H187 H 0.63637 0.58131 0.13083 0.0
H188 H 0.49592 0.47752 0.1261 0.0
H189 H 0.55035 0.53332 0.04795 0.0
H190 H 0.43162 0.52409 0.04654 0.0
H191 H 0.5038 0.40558 0.08656 0.0
H192 H 0.42278 0.35462 0.06596 0.0
H193 H 0.56963 0.62585 0.0498 0.0
H194 H 0.71711 0.57051 0.09573 0.0
H195 H 0.34951 0.47255 0.0254 0.0
H196 H 0.63359 0.68823 0.03445 0.0
H197 H 0.78084 0.63186 0.08041 0.0
H198 H 0.19683 0.14838 0.99477 0.0
C199 C 0.15992 0.14646 0.00896 0.0
H200 H 0.10528 0.18593 0.03786 0.0
H201 H 0.30991 0.32936 0.08425 0.0
H202 H 0.27892 0.2968 0.12775 0.0
H203 H 0.20202 0.23395 0.12475 0.0
H204 H 0.15548 0.20357 0.07857 0.0
C205 C 0.13978 0.18774 0.02231 0.0
C206 C 0.17804 0.2319 0.02467 0.0
C207 C 0.20446 0.24968 0.05223 0.0
C208 C 0.24968 0.28539 0.05399 0.0
C209 C 0.27588 0.30194 0.08164 0.0
C210 C 0.25845 0.28364 0.10682 0.0
C211 C 0.21511 0.24832 0.10512 0.0
C212 C 0.18852 0.23127 0.07828 0.0
H213 H 0.28445 0.39901 0.03169 0.0
C214 C 0.32553 0.38025 0.03389 0.0
H215 H 0.36524 0.3125 0.03131 0.0
H216 H 0.12857 0.21363 0.96985 0.0
H217 H 0.15854 0.24798 0.9265 0.0
H218 H 0.23955 0.30749 0.92939 0.0
H219 H 0.29073 0.33357 0.97572 0.0
C220 C 0.32468 0.33206 0.0299 0.0
C221 C 0.26903 0.3031 0.02834 0.0
C222 C 0.23972 0.28812 1.00122 0.0
C223 C 0.19375 0.25294 0.99944 0.0
C224 C 0.16469 0.23924 0.97216 0.0
C225 C 0.18125 0.25888 0.94722 0.0
C226 C 0.22684 0.29245 0.94886 0.0
C227 C 0.25593 0.30703 0.9755 0.0
H228 H 0.10587 0.88266 0.99723 0.0
C229 C 0.14156 0.90591 0.00677 0.0
H230 H 0.23164 0.91134 0.01931 0.0
H231 H 0.28744 0.69939 0.03234 0.0
H232 H 0.28579 0.73286 0.08313 0.0
H233 H 0.24948 0.81427 0.0968 0.0
H234 H 0.21432 0.8626 0.05978 0.0
C235 C 0.19619 0.88848 0.00912 0.0
C236 C 0.21074 0.8374 1.00066 0.0
C237 C 0.23146 0.80959 0.02255 0.0
C238 C 0.25299 0.76281 0.01467 0.0
C239 C 0.27207 0.73555 0.03706 0.0
C240 C 0.27097 0.7542 0.06632 0.0
C241 C 0.25049 0.80002 0.07402 0.0
C242 C 0.23073 0.82748 0.05251 0.0
H243 H 0.36621 0.71962 0.99058 0.0
C244 C 0.33974 0.69032 0.97934 0.0
H245 H 0.25277 0.66874 0.96522 0.0
H246 H 0.17433 0.88069 0.95291 0.0
H247 H 0.17212 0.8457 0.90249 0.0
H248 H 0.2079 0.76415 0.88899 0.0
H249 H 0.24576 0.71692 0.92595 0.0
C250 C 0.28137 0.69671 0.9761 0.0
C251 C 0.25445 0.74403 0.98487 0.0
C252 C 0.23102 0.77083 0.96307 0.0
C253 C 0.20971 0.81776 0.9709 0.0
C254 C 0.18948 0.84448 0.94845 0.0
C255 C 0.18845 0.82497 0.9193 0.0
C256 C 0.20854 0.77903 0.9117 0.0
C257 C 0.23 0.75224 0.93318 0.0
H258 H 0.96227 0.92253 0.03834 0.0
C259 C 0.92129 0.93077 0.02741 0.0
H260 H 0.83419 0.90932 0.01487 0.0
H261 H 0.83444 0.69221 0.00998 0.0
H262 H 0.86164 0.69825 0.96008 0.0
H263 H 0.8948 0.77527 0.94517 0.0
H264 H 0.90168 0.84663 0.98026 0.0
C265 C 0.87432 0.90096 0.02653 0.0
C266 C 0.87389 0.85337 0.03755 0.0
C267 C 0.87004 0.812 0.01697 0.0
C268 C 0.8497 0.76788 0.02543 0.0
C269 C 0.84758 0.72699 1.00447 0.0
C270 C 0.86357 0.72989 0.97582 0.0
C271 C 0.8823 0.77324 0.96743 0.0
C272 C 0.88568 0.81393 0.98769 0.0
H273 H 0.72972 0.72812 0.03267 0.0
C274 C 0.74814 0.70743 0.04919 0.0
H275 H 0.81885 0.70429 0.07998 0.0
H276 H 0.88773 0.92341 0.08331 0.0
H277 H 0.86711 0.91653 0.13401 0.0
H278 H 0.83022 0.84055 0.14883 0.0
H279 H 0.81348 0.77108 0.11316 0.0
C280 C 0.80038 0.72197 0.06221 0.0
C281 C 0.83189 0.76546 0.05441 0.0
C282 C 0.84235 0.80549 0.07576 0.0
C283 C 0.86345 0.84952 0.06726 0.0
C284 C 0.87167 0.88934 0.08869 0.0
C285 C 0.8601 0.88581 0.11783 0.0
C286 C 0.83939 0.843 0.12617 0.0
C287 C 0.83011 0.8033 0.10546 0.0
H288 H 0.9656 0.19791 0.03254 0.0
C289 C 0.93125 0.17341 0.0229 0.0
H290 H 0.84442 0.16568 1.00526 0.0
H291 H 0.71475 0.34768 0.04274 0.0
H292 H 0.68454 0.3014 0.08123 0.0
H293 H 0.73646 0.22784 0.09039 0.0
H294 H 0.81918 0.20022 0.06119 0.0
C295 C 0.87906 0.1904 0.01431 0.0
C296 C 0.86345 0.24185 0.01597 0.0
C297 C 0.81609 0.2581 0.03345 0.0
C298 C 0.78588 0.30026 0.02802 0.0
C299 C 0.73839 0.31535 0.04567 0.0
C300 C 0.72089 0.2893 0.06789 0.0
C301 C 0.75013 0.24788 0.07305 0.0
C302 C 0.79722 0.23228 0.05609 0.0
H303 H 0.69942 0.31132 0.9787 0.0
C304 C 0.71115 0.34917 0.98103 0.0
H305 H 0.77889 0.39946 0.99557 0.0
H306 H 0.95849 0.22523 0.9814 0.0
H307 H 0.99231 0.27435 0.94534 0.0
H308 H 0.94059 0.34807 0.93644 0.0
H309 H 0.85435 0.37292 0.96354 0.0
C310 C 0.76315 0.36277 0.99441 0.0
C311 C 0.80288 0.32601 1.00496 0.0
C312 C 0.85465 0.31311 0.98988 0.0
C313 C 0.88482 0.27072 0.99522 0.0
C314 C 0.93424 0.25718 0.97855 0.0
C315 C 0.95414 0.28509 0.95772 0.0
C316 C 0.92501 0.3266 0.95271 0.0
C317 C 0.8756 0.34047 0.9684 0.0
H318 H 0.62897 0.67446 0.50917 0.0
C319 C 0.66533 0.66293 0.52234 0.0
H320 H 0.75087 0.67718 0.54044 0.0
H321 H 0.87167 0.82829 0.48289 0.0
H322 H 0.90016 0.76079 0.4487 0.0
H323 H 0.84812 0.68301 0.44651 0.0
H324 H 0.76673 0.67239 0.47836 0.0
C325 C 0.71435 0.69037 0.52804 0.0
C326 C 0.72467 0.73903 0.51937 0.0
C327 C 0.77103 0.74523 0.50041 0.0
C328 C 0.8015 0.78986 0.50198 0.0
C329 C 0.84805 0.79474 0.48295 0.0
C330 C 0.86451 0.75643 0.46317 0.0
C331 C 0.83519 0.71262 0.46192 0.0
C332 C 0.78896 0.70687 0.48033 0.0
H333 H 0.89257 0.8261 0.54561 0.0
C334 C 0.88069 0.8627 0.54293 0.0
H335 H 0.81165 0.90565 0.52917 0.0
H336 H 0.62856 0.74248 0.55326 0.0
H337 H 0.59518 0.81131 0.58472 0.0
H338 H 0.64828 0.88868 0.58791 0.0
H339 H 0.73508 0.89776 0.55972 0.0
C340 C 0.82728 0.86979 0.53074 0.0
C341 C 0.78588 0.8282 0.52282 0.0
C342 C 0.73396 0.82411 0.53861 0.0
C343 C 0.70329 0.77937 0.53685 0.0
C344 C 0.6534 0.77553 0.55392 0.0
C345 C 0.63374 0.81478 0.57197 0.0
C346 C 0.66363 0.85837 0.57375 0.0
C347 C 0.71339 0.86312 0.55745 0.0
H348 H 0.64823 0.40546 0.49017 0.0
C349 C 0.6645 0.42183 0.51144 0.0
H350 H 0.72099 0.41617 0.54788 0.0
H351 H 0.7264 0.19674 0.47419 0.0
H352 H 0.62084 0.19267 0.4798 0.0
H353 H 0.56745 0.26247 0.50218 0.0
H354 H 0.61896 0.33685 0.51886 0.0
C355 C 0.70528 0.39952 0.52658 0.0
C356 C 0.73646 0.35596 0.51392 0.0
C357 C 0.70571 0.31225 0.50509 0.0
C358 C 0.73675 0.27149 0.49286 0.0
C359 C 0.70496 0.22862 0.4837 0.0
C360 C 0.64444 0.22576 0.48688 0.0
C361 C 0.61437 0.2651 0.49946 0.0
C362 C 0.64444 0.3078 0.50868 0.0
H363 H 0.86412 0.2093 0.51488 0.0
C364 C 0.86394 0.20398 0.49117 0.0
H365 H 0.82646 0.22572 0.45229 0.0
H366 H 0.80963 0.43385 0.52863 0.0
H367 H 0.9151 0.43663 0.52427 0.0
H368 H 0.96869 0.36541 0.50413 0.0
H369 H 0.91695 0.29097 0.48822 0.0
C370 C 0.83051 0.23227 0.47592 0.0
C371 C 0.79856 0.27391 0.49036 0.0
C372 C 0.82949 0.31715 0.49983 0.0
C373 C 0.7985 0.35818 0.51155 0.0
C374 C 0.83066 0.40121 0.52009 0.0
C375 C 0.89137 0.40347 0.51755 0.0
C376 C 0.92153 0.3634 0.5062 0.0
C377 C 0.8912 0.32077 0.49725 0.0
H378 H 0.45065 0.44019 0.5408 0.0
C379 C 0.4347 0.43372 0.51824 0.0
H380 H 0.38926 0.38838 0.48552 0.0
H381 H 0.39766 0.23325 0.58207 0.0
H382 H 0.50416 0.24111 0.58396 0.0
H383 H 0.55363 0.30319 0.5596 0.0
H384 H 0.49712 0.35776 0.53303 0.0
C385 C 0.4047 0.39333 0.50825 0.0
C386 C 0.37723 0.36091 0.52746 0.0
C387 C 0.41108 0.32905 0.54254 0.0
C388 C 0.38244 0.29292 0.55646 0.0
C389 C 0.41716 0.26133 0.57122 0.0
C390 C 0.47827 0.2654 0.57241 0.0
C391 C 0.50615 0.30037 0.55867 0.0
C392 C 0.4732 0.33161 0.54361 0.0
H393 H 0.262 0.21203 0.52731 0.0
C394 C 0.25978 0.21389 0.55092 0.0
H395 H 0.29188 0.24974 0.59134 0.0
H396 H 0.29908 0.4212 0.50459 0.0
H397 H 0.19296 0.41683 0.50572 0.0
H398 H 0.14364 0.35465 0.53007 0.0
H399 H 0.20019 0.29642 0.55326 0.0
C400 C 0.29006 0.24887 0.56774 0.0
C401 C 0.32022 0.2884 0.55487 0.0
C402 C 0.28643 0.3226 0.5417 0.0
C403 C 0.31492 0.35868 0.52791 0.0
C404 C 0.27992 0.39246 0.51497 0.0
C405 C 0.21886 0.39063 0.51564 0.0
C406 C 0.19111 0.35563 0.52933 0.0
C407 C 0.22421 0.32211 0.54236 0.0
H408 H 0.37073 0.66892 0.51913 0.0
C409 C 0.41842 0.66792 0.51827 0.0
H410 H 0.49472 0.70842 0.51286 0.0
H411 H 0.33307 0.83803 0.43973 0.0
H412 H 0.40492 0.80782 0.40474 0.0
H413 H 0.48176 0.75251 0.41819 0.0
H414 H 0.48729 0.72702 0.46657 0.0
C415 C 0.44779 0.70902 0.5164 0.0
C416 C 0.41327 0.75241 0.51126 0.0
C417 C 0.41204 0.76832 0.48315 0.0
C418 C 0.36763 0.80022 0.47534 0.0
C419 C 0.36586 0.81391 0.44676 0.0
C420 C 0.40683 0.79686 0.42648 0.0
C421 C 0.45009 0.76571 0.43405 0.0
C422 C 0.45274 0.75134 0.46195 0.0
H423 H 0.30604 0.91015 0.4941 0.0
C424 C 0.26864 0.88825 0.48518 0.0
H425 H 0.23384 0.81764 0.47825 0.0
H426 H 0.41201 0.73792 0.5686 0.0
H427 H 0.34242 0.77075 0.60427 0.0
H428 H 0.26436 0.82484 0.5905 0.0
H429 H 0.25553 0.84675 0.54108 0.0
C430 C 0.2712 0.84058 0.48562 0.0
C431 C 0.32492 0.8165 0.4957 0.0
C432 C 0.32974 0.80434 0.52462 0.0
C433 C 0.37425 0.77261 0.53247 0.0
C434 C 0.37815 0.76108 0.56149 0.0
C435 C 0.33877 0.77987 0.58213 0.0
C436 C 0.29484 0.81037 0.57438 0.0
C437 C 0.29012 0.82256 0.54597 0.0
H438 H 0.07128 0.05268 0.13261 0.0
C439 C 0.04248 0.03806 0.11439 0.0
H440 H 0.96535 0.99672 0.10248 0.0
H441 H 0.02937 0.91466 0.22461 0.0
H442 H 0.0448 0.84517 0.18986 0.0
H443 H 0.03008 0.84895 0.13697 0.0
H444 H 1.00068 0.92285 0.11855 0.0
C445 C 0.99315 0.01474 0.12006 0.0
C446 C 0.98163 0.00807 0.15096 0.0
C447 C 0.99558 0.96415 0.1615 0.0
C448 C 1.00217 0.96167 0.19212 0.0
C449 C 0.02127 0.91833 0.2018 0.0
C450 C 0.0308 0.87814 0.18202 0.0
C451 C 0.02269 0.88029 0.15223 0.0
C452 C 1.0059 0.92286 0.14195 0.0
H453 H 0.94995 0.95155 0.25379 0.0
C454 C 0.98231 0.97873 0.26225 0.0
H455 H 0.0421 0.03147 0.25207 0.0
H456 H 0.94208 0.09406 0.13757 0.0
H457 H 0.9183 0.16256 0.17203 0.0
H458 H 0.92674 0.1582 0.22512 0.0
H459 H 0.95913 0.08562 0.2441 0.0
C460 C 1.00914 0.00475 0.2437 0.0
C461 C 0.99213 0.00288 0.21207 0.0
C462 C 0.97177 0.04522 0.20135 0.0
C463 C 0.96668 0.04781 0.17079 0.0
C464 C 0.94731 0.09069 0.16065 0.0
C465 C 0.93324 0.13005 0.18016 0.0
C466 C 0.93799 0.1276 0.21004 0.0
C467 C 0.95693 0.08579 0.22064 0.0
H468 H 0.99778 0.03073 0.90276 0.0
C469 C 0.03054 0.03674 0.92057 0.0
H470 H 0.12095 0.05017 0.93109 0.0
H471 H 0.17123 0.95925 0.80003 0.0
H472 H 0.2231 0.90486 0.82873 0.0
H473 H 0.21985 0.91475 0.88247 0.0
H474 H 0.16428 0.9789 0.9079 0.0
C475 C 0.08647 0.04532 0.91414 0.0
C476 C 0.10105 0.04624 0.88292 0.0
C477 C 0.13378 0.00879 0.86846 0.0
C478 C 0.13537 0.00302 0.83744 0.0
C479 C 0.16808 0.96502 0.82352 0.0
C480 C 0.19812 0.93361 0.83973 0.0
C481 C 0.19619 0.93912 0.87 0.0
C482 C 0.16418 0.97605 0.88432 0.0
H483 H 0.14482 0.08826 0.78181 0.0
C484 C 0.12347 0.05565 0.7714 0.0
H485 H 0.07816 0.9925 0.77897 0.0
H486 H 0.04852 0.12883 0.90448 0.0
H487 H 0.99676 0.18409 0.87633 0.0
H488 H 0.99049 0.17002 0.82253 0.0
H489 H 0.03701 0.10179 0.79663 0.0
C490 C 0.10059 0.02508 0.78848 0.0
C491 C 0.10413 0.03469 0.82097 0.0
C492 C 0.07419 0.07395 0.83565 0.0
C493 C 0.07461 0.08056 0.86667 0.0
C494 C 0.04717 0.12122 0.88093 0.0
C495 C 0.01769 0.1533 0.86506 0.0
C496 C 0.0144 0.14548 0.83478 0.0
C497 C 0.04193 0.10626 0.82015 0.0
H498 H 0.53617 0.55666 0.63153 0.0
C499 C 0.51732 0.53802 0.61132 0.0
H500 H 0.45761 0.48355 0.59349 0.0
H501 H 0.51753 0.40443 0.71603 0.0
H502 H 0.5499 0.33994 0.68116 0.0
H503 H 0.53896 0.34462 0.62818 0.0
H504 H 0.49624 0.41445 0.60982 0.0
C505 C 0.47412 0.50569 0.61293 0.0
C506 C 0.45802 0.49434 0.64248 0.0
C507 C 0.47958 0.4522 0.65282 0.0
C508 C 0.4843 0.449 0.68341 0.0
C509 C 0.51097 0.40826 0.69314 0.0
C510 C 0.53011 0.37102 0.67331 0.0
C511 C 0.5241 0.37369 0.64347 0.0
C512 C 0.49963 0.41394 0.63323 0.0
H513 H 0.43048 0.43182 0.74447 0.0
C514 C 0.45851 0.46183 0.75337 0.0
H515 H 0.51004 0.52033 0.74373 0.0
H516 H 0.40083 0.57353 0.62889 0.0
H517 H 0.36025 0.6358 0.66323 0.0
H518 H 0.36622 0.63006 0.71623 0.0
H519 H 0.41274 0.56228 0.73525 0.0
C520 C 0.48122 0.49069 0.73515 0.0
C521 C 0.46495 0.48734 0.7034 0.0
C522 C 0.43632 0.52655 0.69265 0.0
C523 C 0.43282 0.52998 0.66217 0.0
C524 C 0.40513 0.56987 0.65197 0.0
C525 C 0.38147 0.60556 0.67139 0.0
C526 C 0.38483 0.60231 0.70123 0.0
C527 C 0.41186 0.56336 0.71187 0.0
H528 H 0.61865 0.56764 0.42407 0.0
C529 C 0.57267 0.55664 0.42197 0.0
H530 H 0.49894 0.54048 0.39331 0.0
H531 H 0.5597 0.64585 0.28845 0.0
H532 H 0.5033 0.70778 0.31524 0.0
H533 H 0.47928 0.70283 0.36656 0.0
H534 H 0.51164 0.63576 0.39143 0.0
C535 C 0.54534 0.55015 0.39544 0.0
C536 C 0.57362 0.55908 0.368 0.0
C537 C 0.55612 0.59914 0.35406 0.0
C538 C 0.57054 0.60221 0.32458 0.0
C539 C 0.55055 0.64185 0.3109 0.0
C540 C 0.51806 0.67768 0.32602 0.0
C541 C 0.50448 0.67488 0.35491 0.0
C542 C 0.52309 0.63613 0.36887 0.0
H543 H 0.55987 0.50134 0.26669 0.0
C544 C 0.58227 0.53079 0.25813 0.0
H545 H 0.63283 0.59424 0.26942 0.0
H546 H 0.61888 0.47989 0.38928 0.0
H547 H 0.68077 0.42053 0.36362 0.0
H548 H 0.70955 0.42775 0.3132 0.0
H549 H 0.67582 0.49405 0.28798 0.0
C550 C 0.60923 0.5647 0.2771 0.0
C551 C 0.60259 0.56514 0.30915 0.0
C552 C 0.62477 0.52735 0.32399 0.0
C553 C 0.60961 0.52397 0.35336 0.0
C554 C 0.6298 0.48457 0.36716 0.0
C555 C 0.66538 0.45027 0.35267 0.0
C556 C 0.6815 0.45429 0.32426 0.0
C557 C 0.66158 0.49231 0.30998 0.0
loop_
_geom_bond_atom_site_label_1
_geom_bond_atom_site_label_2
_geom_bond_distance
_geom_bond_site_symmetry_2
_ccdc_geom_bond_type
O0 Mn1 2.163 . S
O0 C14 1.244 1_455 S
Mn1 O0 2.163 . S
Mn1 O4 2.159 1_544 S
Mn1 O5 2.221 . S
Mn1 O7 2.163 . S
Mn1 O9 2.160 1_554 S
Mn1 O19 2.221 1_444 S
O2 Mn3 2.087 . S
O2 C14 1.256 1_556 S
Mn3 O2 2.087 . S
Mn3 O10 2.089 . S
Mn3 O19 2.290 1_545 S
Mn3 O20 2.251 1_546 S
O4 Mn1 2.159 1_566 S
O4 C15 1.228 1_556 S
O5 Mn1 2.221 . S
O5 Mn6 2.290 . S
O5 C16 1.278 . S
Mn6 O5 2.290 . S
Mn6 O8 2.089 1_545 S
Mn6 O11 2.251 . S
Mn6 O12 2.087 . S
O7 Mn1 2.163 . S
O7 C17 1.244 . S
O8 Mn6 2.089 1_565 S
O8 C15 1.256 . S
O9 Mn1 2.160 1_556 S
O9 C18 1.239 . S
O10 Mn3 2.089 . S
O10 C18 1.256 1_655 S
O11 Mn6 2.251 . S
O11 C16 1.241 . S
O12 Mn6 2.087 . S
O12 C17 1.256 . S
C13 O19 1.278 1_554 S
C13 O20 1.241 . S
C14 O0 1.244 1_655 S
C14 O2 1.256 1_554 S
C15 O4 1.228 1_554 S
C15 O8 1.256 . S
C16 O5 1.278 . S
C16 O11 1.241 . S
C17 O7 1.244 . S
C17 O12 1.256 . S
C18 O9 1.239 . S
C18 O10 1.256 1_455 S
O19 Mn1 2.221 1_666 S
O19 Mn3 2.290 1_565 S
O19 C13 1.278 1_556 S
O20 Mn3 2.251 1_564 S
O20 C13 1.241 . S
O21 Mn22 2.163 . S
O21 C35 1.244 . S
Mn22 O21 2.163 . S
Mn22 O25 2.160 . S
Mn22 O26 2.221 . S
Mn22 O28 2.163 . S
Mn22 O30 2.160 . S
Mn22 O40 2.221 . S
O23 Mn24 2.087 . S
O23 C35 1.256 . S
Mn24 O23 2.087 . S
Mn24 O31 2.089 . S
Mn24 O40 2.290 . S
Mn24 O41 2.251 . S
O25 Mn22 2.160 . S
O25 C36 1.239 . S
O26 Mn22 2.221 . S
O26 Mn27 2.290 . S
O26 C37 1.278 . S
Mn27 O26 2.290 . S
Mn27 O29 2.089 . S
Mn27 O32 2.251 . S
Mn27 O33 2.087 . S
O28 Mn22 2.163 . S
O28 C38 1.244 . S
O29 Mn27 2.089 . S
O29 C36 1.256 . S
O30 Mn22 2.160 . S
O30 C39 1.239 . S
O31 Mn24 2.089 . S
O31 C39 1.256 . S
O32 Mn27 2.251 . S
O32 C37 1.241 . S
O33 Mn27 2.087 . S
O33 C38 1.256 . S
C34 O40 1.278 . S
C34 O41 1.241 . S
C35 O21 1.244 . S
C35 O23 1.256 . S
C36 O25 1.239 . S
C36 O29 1.256 . S
C37 O26 1.278 . S
C37 O32 1.241 . S
C38 O28 1.244 . S
C38 O33 1.256 . S
C39 O30 1.239 . S
C39 O31 1.256 . S
O40 Mn22 2.221 . S
O40 Mn24 2.290 . S
O40 C34 1.278 . S
O41 Mn24 2.251 . S
O41 C34 1.241 . S
C42 C43 1.386 . S
C42 C44 1.397 . S
C42 H66 0.931 . S
C43 C42 1.386 . S
C43 C47 1.397 1_565 S
C44 C42 1.397 . S
C44 C45 1.384 . S
C44 H67 0.930 . S
C45 C44 1.384 . S
C45 C46 1.377 1_565 S
C45 C48 1.481 . S
C46 C45 1.377 1_545 S
C46 C47 1.389 . S
C46 H68 0.929 . S
C47 C43 1.397 1_545 S
C47 C46 1.389 . S
C47 H69 0.931 . S
C48 C45 1.481 . S
C48 C49 1.387 . S
C48 C53 1.390 1_565 S
C49 C48 1.387 . S
C49 C50 1.401 . S
C49 H70 0.930 . S
C50 C49 1.401 . S
C50 C51 1.376 1_565 S
C50 C59 1.511 . S
C51 C50 1.376 1_545 S
C51 C52 1.392 . S
C51 H72 0.931 . S
C52 C51 1.392 . S
C52 C53 1.361 . S
C52 C54 1.500 1_455 S
C53 C48 1.390 1_545 S
C53 C52 1.361 . S
C53 H71 0.931 1_455 S
C54 C52 1.500 1_655 S
C54 C55 1.371 . S
C54 C56 1.365 . S
C55 C54 1.371 . S
C55 C65 1.386 . S
C55 H73 0.931 . S
C56 C54 1.365 . S
C56 C57 1.409 . S
C56 H74 0.929 . S
C57 C56 1.409 . S
C57 C58 1.380 . S
C57 H75 0.930 . S
C58 C57 1.380 . S
C58 C65 1.357 . S
C59 C50 1.511 . S
C59 C60 1.341 . S
C59 C61 1.371 . S
C60 C59 1.341 . S
C60 C64 1.394 . S
C60 H76 0.930 . S
C61 C59 1.371 . S
C61 C62 1.392 . S
C61 H77 0.931 . S
C62 C61 1.392 . S
C62 C63 1.331 . S
C62 H80 0.932 . S
C63 C62 1.331 . S
C63 C64 1.336 . S
C64 C60 1.394 . S
C64 C63 1.336 . S
C64 H79 0.929 . S
C65 C55 1.386 . S
C65 C58 1.357 . S
C65 H78 0.928 . S
H66 C42 0.931 . S
H67 C44 0.930 . S
H68 C46 0.929 . S
H69 C47 0.931 . S
H70 C49 0.930 . S
H71 C53 0.931 1_655 S
H72 C51 0.931 . S
H73 C55 0.931 . S
H74 C56 0.929 . S
H75 C57 0.930 . S
H76 C60 0.930 . S
H77 C61 0.931 . S
H78 C65 0.928 . S
H79 C64 0.929 . S
H80 C62 0.932 . S
C81 C82 1.386 . S
C81 C83 1.397 . S
C81 H105 0.931 . S
C82 C81 1.386 . S
C82 C86 1.397 . S
C83 C81 1.397 . S
C83 C84 1.384 . S
C83 H106 0.930 . S
C84 C83 1.384 . S
C84 C85 1.377 . S
C84 C87 1.481 . S
C85 C84 1.377 . S
C85 C86 1.389 . S
C85 H107 0.929 . S
C86 C82 1.397 . S
C86 C85 1.389 . S
C86 H108 0.931 . S
C87 C84 1.481 . S
C87 C88 1.387 . S
C87 C92 1.390 1_455 S
C88 C87 1.387 . S
C88 C89 1.401 . S
C88 H109 0.930 . S
C89 C88 1.401 . S
C89 C90 1.376 1_455 S
C89 C98 1.511 . S
C90 C89 1.376 1_655 S
C90 C91 1.392 . S
C90 H111 0.931 . S
C91 C90 1.392 . S
C91 C92 1.361 . S
C91 C93 1.500 . S
C92 C87 1.390 1_655 S
C92 C91 1.361 . S
C92 H110 0.931 . S
C93 C91 1.500 . S
C93 C94 1.371 . S
C93 C95 1.365 1_545 S
C94 C93 1.371 . S
C94 C104 1.386 1_545 S
C94 H112 0.931 . S
C95 C93 1.365 1_565 S
C95 C96 1.409 . S
C95 H113 0.929 . S
C96 C95 1.409 . S
C96 C97 1.380 . S
C96 H114 0.930 . S
C97 C96 1.380 . S
C97 C104 1.357 . S
C98 C89 1.511 . S
C98 C99 1.341 . S
C98 C100 1.371 . S
C99 C98 1.341 . S
C99 C103 1.394 . S
C99 H115 0.930 . S
C100 C98 1.371 . S
C100 C101 1.392 . S
C100 H116 0.931 . S
C101 C100 1.392 . S
C101 C102 1.331 . S
C101 H119 0.932 . S
C102 C101 1.331 . S
C102 C103 1.336 . S
C103 C99 1.394 . S
C103 C102 1.336 . S
C103 H118 0.929 . S
C104 C94 1.386 1_565 S
C104 C97 1.357 . S
C104 H117 0.928 . S
H105 C81 0.931 . S
H106 C83 0.930 . S
H107 C85 0.929 . S
H108 C86 0.931 . S
H109 C88 0.930 . S
H110 C92 0.931 . S
H111 C90 0.931 . S
H112 C94 0.931 . S
H113 C95 0.929 . S
H114 C96 0.930 . S
H115 C99 0.930 . S
H116 C100 0.931 . S
H117 C104 0.928 . S
H118 C103 0.929 . S
H119 C101 0.932 . S
C120 C121 1.386 . S
C120 C122 1.397 . S
C120 H144 0.931 . S
C121 C120 1.386 . S
C121 C125 1.397 . S
C122 C120 1.397 . S
C122 C123 1.384 . S
C122 H145 0.930 . S
C123 C122 1.384 . S
C123 C124 1.377 . S
C123 C126 1.481 . S
C124 C123 1.377 . S
C124 C125 1.389 . S
C124 H146 0.929 . S
C125 C121 1.397 . S
C125 C124 1.389 . S
C125 H147 0.931 . S
C126 C123 1.481 . S
C126 C127 1.387 . S
C126 C131 1.390 . S
C127 C126 1.387 . S
C127 C128 1.401 . S
C127 H148 0.930 . S
C128 C127 1.401 . S
C128 C129 1.376 . S
C128 C137 1.511 . S
C129 C128 1.376 . S
C129 C130 1.392 . S
C129 H150 0.931 . S
C130 C129 1.392 . S
C130 C131 1.361 . S
C130 C132 1.500 . S
C131 C126 1.390 . S
C131 C130 1.361 . S
C131 H149 0.931 . S
C132 C130 1.500 . S
C132 C133 1.371 . S
C132 C134 1.365 . S
C133 C132 1.371 . S
C133 C143 1.386 . S
C133 H151 0.931 . S
C134 C132 1.365 . S
C134 C135 1.409 . S
C134 H152 0.929 . S
C135 C134 1.409 . S
C135 C136 1.380 . S
C135 H153 0.930 . S
C136 C135 1.380 . S
C136 C143 1.357 . S
C137 C128 1.511 . S
C137 C138 1.341 . S
C137 C139 1.371 . S
C138 C137 1.341 . S
C138 C142 1.394 . S
C138 H154 0.930 . S
C139 C137 1.371 . S
C139 C140 1.392 . S
C139 H155 0.931 . S
C140 C139 1.392 . S
C140 C141 1.331 . S
C140 H158 0.932 1_556 S
C141 C140 1.331 . S
C141 C142 1.336 . S
C142 C138 1.394 . S
C142 C141 1.336 . S
C142 H157 0.929 . S
C143 C133 1.386 . S
C143 C136 1.357 . S
C143 H156 0.928 1_556 S
H144 C120 0.931 . S
H145 C122 0.930 . S
H146 C124 0.929 . S
H147 C125 0.931 . S
H148 C127 0.930 . S
H149 C131 0.931 . S
H150 C129 0.931 . S
H151 C133 0.931 . S
H152 C134 0.929 . S
H153 C135 0.930 . S
H154 C138 0.930 . S
H155 C139 0.931 . S
H156 C143 0.928 1_554 S
H157 C142 0.929 . S
H158 C140 0.932 1_554 S
C159 C160 1.386 . S
C159 C161 1.397 . S
C159 H183 0.931 . S
C160 C159 1.386 . S
C160 C164 1.397 . S
C161 C159 1.397 . S
C161 C162 1.384 . S
C161 H184 0.930 . S
C162 C161 1.384 . S
C162 C163 1.377 . S
C162 C165 1.481 . S
C163 C162 1.377 . S
C163 C164 1.389 . S
C163 H185 0.929 . S
C164 C160 1.397 . S
C164 C163 1.389 . S
C164 H186 0.931 . S
C165 C162 1.481 . S
C165 C166 1.387 . S
C165 C170 1.390 . S
C166 C165 1.387 . S
C166 C167 1.401 . S
C166 H187 0.930 . S
C167 C166 1.401 . S
C167 C168 1.376 . S
C167 C176 1.511 . S
C168 C167 1.376 . S
C168 C169 1.392 . S
C168 H189 0.931 . S
C169 C168 1.392 . S
C169 C170 1.361 . S
C169 C171 1.500 . S
C170 C165 1.390 . S
C170 C169 1.361 . S
C170 H188 0.931 . S
C171 C169 1.500 . S
C171 C172 1.371 . S
C171 C173 1.365 . S
C172 C171 1.371 . S
C172 C182 1.386 . S
C172 H190 0.931 . S
C173 C171 1.365 . S
C173 C174 1.409 . S
C173 H191 0.929 . S
C174 C173 1.409 . S
C174 C175 1.380 . S
C174 H192 0.930 . S
C175 C174 1.380 . S
C175 C182 1.357 . S
C176 C167 1.511 . S
C176 C177 1.341 . S
C176 C178 1.371 . S
C177 C176 1.341 . S
C177 C181 1.394 . S
C177 H193 0.930 . S
C178 C176 1.371 . S
C178 C179 1.392 . S
C178 H194 0.931 . S
C179 C178 1.392 . S
C179 C180 1.331 . S
C179 H197 0.932 . S
C180 C179 1.331 . S
C180 C181 1.336 . S
C181 C177 1.394 . S
C181 C180 1.336 . S
C181 H196 0.929 . S
C182 C172 1.386 . S
C182 C175 1.357 . S
C182 H195 0.928 . S
H183 C159 0.931 . S
H184 C161 0.930 . S
H185 C163 0.929 . S
H186 C164 0.931 . S
H187 C166 0.930 . S
H188 C170 0.931 . S
H189 C168 0.931 . S
H190 C172 0.931 . S
H191 C173 0.929 . S
H192 C174 0.930 . S
H193 C177 0.930 . S
H194 C178 0.931 . S
H195 C182 0.928 . S
H196 C181 0.929 . S
H197 C179 0.932 . S
H198 C199 0.951 . S
C199 H198 0.951 . S
C199 C205 1.265 . S
H200 C205 0.950 . S
H201 C209 0.949 . S
H202 C210 0.950 . S
H203 C211 0.951 . S
H204 C212 0.951 . S
C205 C199 1.265 . S
C205 H200 0.950 . S
C205 C206 1.478 . S
C206 C205 1.478 . S
C206 C207 1.397 . S
C206 C223 1.394 1_554 S
C207 C206 1.397 . S
C207 C208 1.438 . S
C207 C212 1.429 . S
C208 C207 1.438 . S
C208 C209 1.428 . S
C208 C221 1.394 . S
C209 H201 0.949 . S
C209 C208 1.428 . S
C209 C210 1.345 . S
C210 H202 0.950 . S
C210 C209 1.345 . S
C210 C211 1.424 . S
C211 H203 0.951 . S
C211 C210 1.424 . S
C211 C212 1.347 . S
C212 H204 0.951 . S
C212 C207 1.429 . S
C212 C211 1.347 . S
H213 C214 0.951 . S
C214 H213 0.951 . S
C214 C220 1.265 . S
H215 C220 0.950 . S
H216 C224 0.949 . S
H217 C225 0.950 . S
H218 C226 0.951 . S
H219 C227 0.951 . S
C220 C214 1.265 . S
C220 H215 0.950 . S
C220 C221 1.478 . S
C221 C208 1.394 . S
C221 C220 1.478 . S
C221 C222 1.397 1_554 S
C222 C221 1.397 1_556 S
C222 C223 1.438 . S
C222 C227 1.429 . S
C223 C206 1.394 1_556 S
C223 C222 1.438 . S
C223 C224 1.428 . S
C224 H216 0.949 . S
C224 C223 1.428 . S
C224 C225 1.345 . S
C225 H217 0.950 . S
C225 C224 1.345 . S
C225 C226 1.424 . S
C226 H218 0.951 . S
C226 C225 1.424 . S
C226 C227 1.347 . S
C227 H219 0.951 . S
C227 C222 1.429 . S
C227 C226 1.347 . S
H228 C229 0.951 . S
C229 H228 0.951 . S
C229 C235 1.265 . S
H230 C235 0.950 . S
H231 C239 0.949 . S
H232 C240 0.950 . S
H233 C241 0.951 . S
H234 C242 0.951 . S
C235 C229 1.265 . S
C235 H230 0.950 . S
C235 C236 1.478 . S
C236 C235 1.478 . S
C236 C237 1.397 . S
C236 C253 1.394 1_554 S
C237 C236 1.397 . S
C237 C238 1.438 . S
C237 C242 1.429 . S
C238 C237 1.438 . S
C238 C239 1.428 . S
C238 C251 1.394 1_554 S
C239 H231 0.949 . S
C239 C238 1.428 . S
C239 C240 1.345 . S
C240 H232 0.950 . S
C240 C239 1.345 . S
C240 C241 1.424 . S
C241 H233 0.951 . S
C241 C240 1.424 . S
C241 C242 1.347 . S
C242 H234 0.951 . S
C242 C237 1.429 . S
C242 C241 1.347 . S
H243 C244 0.951 . S
C244 H243 0.951 . S
C244 C250 1.265 . S
H245 C250 0.950 . S
H246 C254 0.949 . S
H247 C255 0.950 . S
H248 C256 0.951 . S
H249 C257 0.951 . S
C250 C244 1.265 . S
C250 H245 0.950 . S
C250 C251 1.478 . S
C251 C238 1.394 1_556 S
C251 C250 1.478 . S
C251 C252 1.397 . S
C252 C251 1.397 . S
C252 C253 1.438 . S
C252 C257 1.429 . S
C253 C236 1.394 1_556 S
C253 C252 1.438 . S
C253 C254 1.428 . S
C254 H246 0.949 . S
C254 C253 1.428 . S
C254 C255 1.345 . S
C255 H247 0.950 . S
C255 C254 1.345 . S
C255 C256 1.424 . S
C256 H248 0.951 . S
C256 C255 1.424 . S
C256 C257 1.347 . S
C257 H249 0.951 . S
C257 C252 1.429 . S
C257 C256 1.347 . S
H258 C259 0.951 . S
C259 H258 0.951 . S
C259 C265 1.265 . S
H260 C265 0.950 . S
H261 C269 0.949 . S
H262 C270 0.950 . S
H263 C271 0.951 . S
H264 C272 0.951 . S
C265 C259 1.265 . S
C265 H260 0.950 . S
C265 C266 1.478 . S
C266 C265 1.478 . S
C266 C267 1.382 1_554 S
C266 C283 1.394 . S
C267 C266 1.382 1_556 S
C267 C268 1.432 1_556 S
C267 C272 1.450 . S
C268 C267 1.432 1_554 S
C268 C269 1.428 1_554 S
C268 C281 1.394 . S
C269 H261 0.949 . S
C269 C268 1.428 1_556 S
C269 C270 1.345 . S
C270 H262 0.950 . S
C270 C269 1.345 . S
C270 C271 1.424 . S
C271 H263 0.951 . S
C271 C270 1.424 . S
C271 C272 1.347 . S
C272 H264 0.951 . S
C272 C267 1.450 . S
C272 C271 1.347 . S
H273 C274 0.951 . S
C274 H273 0.951 . S
C274 C280 1.265 . S
H275 C280 0.950 . S
H276 C284 0.949 . S
H277 C285 0.950 . S
H278 C286 0.951 . S
H279 C287 0.951 . S
C280 C274 1.265 . S
C280 H275 0.950 . S
C280 C281 1.478 . S
C281 C268 1.394 . S
C281 C280 1.478 . S
C281 C282 1.397 . S
C282 C281 1.397 . S
C282 C283 1.438 . S
C282 C287 1.429 . S
C283 C266 1.394 . S
C283 C282 1.438 . S
C283 C284 1.428 . S
C284 H276 0.949 . S
C284 C283 1.428 . S
C284 C285 1.345 . S
C285 H277 0.950 . S
C285 C284 1.345 . S
C285 C286 1.424 . S
C286 H278 0.951 . S
C286 C285 1.424 . S
C286 C287 1.347 . S
C287 H279 0.951 . S
C287 C282 1.429 . S
C287 C286 1.347 . S
H288 C289 0.951 . S
C289 H288 0.951 . S
C289 C295 1.265 1_554 S
H290 C295 0.950 . S
H291 C299 0.949 . S
H292 C300 0.950 . S
H293 C301 0.951 . S
H294 C302 0.951 . S
C295 C289 1.265 1_556 S
C295 H290 0.950 . S
C295 C296 1.478 . S
C296 C295 1.478 . S
C296 C297 1.397 . S
C296 C313 1.394 1_556 S
C297 C296 1.397 . S
C297 C298 1.438 . S
C297 C302 1.429 . S
C298 C297 1.438 . S
C298 C299 1.428 . S
C298 C311 1.394 . S
C299 H291 0.949 . S
C299 C298 1.428 . S
C299 C300 1.345 . S
C300 H292 0.950 . S
C300 C299 1.345 . S
C300 C301 1.424 . S
C301 H293 0.951 . S
C301 C300 1.424 . S
C301 C302 1.347 . S
C302 H294 0.951 . S
C302 C297 1.429 . S
C302 C301 1.347 . S
H303 C304 0.951 . S
C304 H303 0.951 . S
C304 C310 1.272 . S
H305 C310 0.941 1_554 S
H306 C314 0.949 . S
H307 C315 0.950 . S
H308 C316 0.951 . S
H309 C317 0.951 . S
C310 C304 1.272 . S
C310 H305 0.941 1_556 S
C310 C311 1.478 . S
C311 C298 1.394 . S
C311 C310 1.478 . S
C311 C312 1.397 1_556 S
C312 C311 1.397 1_554 S
C312 C313 1.438 . S
C312 C317 1.429 . S
C313 C296 1.394 1_554 S
C313 C312 1.438 . S
C313 C314 1.428 . S
C314 H306 0.949 . S
C314 C313 1.428 . S
C314 C315 1.345 . S
C315 H307 0.950 . S
C315 C314 1.345 . S
C315 C316 1.424 . S
C316 H308 0.951 . S
C316 C315 1.424 . S
C316 C317 1.347 . S
C317 H309 0.951 . S
C317 C312 1.429 . S
C317 C316 1.347 . S
H318 C319 0.951 . S
C319 H318 0.951 . S
C319 C325 1.265 . S
H320 C325 0.950 . S
H321 C329 0.949 . S
H322 C330 0.950 . S
H323 C331 0.951 . S
H324 C332 0.951 . S
C325 C319 1.265 . S
C325 H320 0.950 . S
C325 C326 1.478 . S
C326 C325 1.478 . S
C326 C327 1.397 . S
C326 C343 1.394 . S
C327 C326 1.397 . S
C327 C328 1.438 . S
C327 C332 1.429 . S
C328 C327 1.438 . S
C328 C329 1.428 . S
C328 C341 1.394 . S
C329 H321 0.949 . S
C329 C328 1.428 . S
C329 C330 1.345 . S
C330 H322 0.950 . S
C330 C329 1.345 . S
C330 C331 1.424 . S
C331 H323 0.951 . S
C331 C330 1.424 . S
C331 C332 1.347 . S
C332 H324 0.951 . S
C332 C327 1.429 . S
C332 C331 1.347 . S
H333 C334 0.951 . S
C334 H333 0.951 . S
C334 C340 1.265 . S
H335 C340 0.950 . S
H336 C344 0.949 . S
H337 C345 0.950 . S
H338 C346 0.951 . S
H339 C347 0.951 . S
C340 C334 1.265 . S
C340 H335 0.950 . S
C340 C341 1.478 . S
C341 C328 1.394 . S
C341 C340 1.478 . S
C341 C342 1.397 . S
C342 C341 1.397 . S
C342 C343 1.438 . S
C342 C347 1.429 . S
C343 C326 1.394 . S
C343 C342 1.438 . S
C343 C344 1.428 . S
C344 H336 0.949 . S
C344 C343 1.428 . S
C344 C345 1.345 . S
C345 H337 0.950 . S
C345 C344 1.345 . S
C345 C346 1.424 . S
C346 H338 0.951 . S
C346 C345 1.424 . S
C346 C347 1.347 . S
C347 H339 0.951 . S
C347 C342 1.429 . S
C347 C346 1.347 . S
H348 C349 0.951 . S
C349 H348 0.951 . S
C349 C355 1.265 . S
H350 C355 0.950 . S
H351 C359 0.949 . S
H352 C360 0.950 . S
H353 C361 0.951 . S
H354 C362 0.951 . S
C355 C349 1.265 . S
C355 H350 0.950 . S
C355 C356 1.478 . S
C356 C355 1.478 . S
C356 C357 1.397 . S
C356 C373 1.394 . S
C357 C356 1.397 . S
C357 C358 1.438 . S
C357 C362 1.429 . S
C358 C357 1.438 . S
C358 C359 1.428 . S
C358 C371 1.394 . S
C359 H351 0.949 . S
C359 C358 1.428 . S
C359 C360 1.345 . S
C360 H352 0.950 . S
C360 C359 1.345 . S
C360 C361 1.424 . S
C361 H353 0.951 . S
C361 C360 1.424 . S
C361 C362 1.347 . S
C362 H354 0.951 . S
C362 C357 1.429 . S
C362 C361 1.347 . S
H363 C364 0.951 . S
C364 H363 0.951 . S
C364 C370 1.265 . S
H365 C370 0.950 . S
H366 C374 0.949 . S
H367 C375 0.950 . S
H368 C376 0.951 . S
H369 C377 0.951 . S
C370 C364 1.265 . S
C370 H365 0.950 . S
C370 C371 1.478 . S
C371 C358 1.394 . S
C371 C370 1.478 . S
C371 C372 1.397 . S
C372 C371 1.397 . S
C372 C373 1.438 . S
C372 C377 1.429 . S
C373 C356 1.394 . S
C373 C372 1.438 . S
C373 C374 1.428 . S
C374 H366 0.949 . S
C374 C373 1.428 . S
C374 C375 1.345 . S
C375 H367 0.950 . S
C375 C374 1.345 . S
C375 C376 1.424 . S
C376 H368 0.951 . S
C376 C375 1.424 . S
C376 C377 1.347 . S
C377 H369 0.951 . S
C377 C372 1.429 . S
C377 C376 1.347 . S
H378 C379 0.951 . S
C379 H378 0.951 . S
C379 C385 1.265 . S
H380 C385 0.950 . S
H381 C389 0.949 . S
H382 C390 0.950 . S
H383 C391 0.951 . S
H384 C392 0.951 . S
C385 C379 1.265 . S
C385 H380 0.950 . S
C385 C386 1.478 . S
C386 C385 1.478 . S
C386 C387 1.397 . S
C386 C403 1.394 . S
C387 C386 1.397 . S
C387 C388 1.438 . S
C387 C392 1.429 . S
C388 C387 1.438 . S
C388 C389 1.428 . S
C388 C401 1.394 . S
C389 H381 0.949 . S
C389 C388 1.428 . S
C389 C390 1.345 . S
C390 H382 0.950 . S
C390 C389 1.345 . S
C390 C391 1.424 . S
C391 H383 0.951 . S
C391 C390 1.424 . S
C391 C392 1.347 . S
C392 H384 0.951 . S
C392 C387 1.429 . S
C392 C391 1.347 . S
H393 C394 0.951 . S
C394 H393 0.951 . S
C394 C400 1.265 . S
H395 C400 0.950 . S
H396 C404 0.949 . S
H397 C405 0.950 . S
H398 C406 0.951 . S
H399 C407 0.951 . S
C400 C394 1.265 . S
C400 H395 0.950 . S
C400 C401 1.478 . S
C401 C388 1.394 . S
C401 C400 1.478 . S
C401 C402 1.397 . S
C402 C401 1.397 . S
C402 C403 1.438 . S
C402 C407 1.429 . S
C403 C386 1.394 . S
C403 C402 1.438 . S
C403 C404 1.428 . S
C404 H396 0.949 . S
C404 C403 1.428 . S
C404 C405 1.345 . S
C405 H397 0.950 . S
C405 C404 1.345 . S
C405 C406 1.424 . S
C406 H398 0.951 . S
C406 C405 1.424 . S
C406 C407 1.347 . S
C407 H399 0.951 . S
C407 C402 1.429 . S
C407 C406 1.347 . S
H408 C409 0.951 . S
C409 H408 0.951 . S
C409 C415 1.265 . S
H410 C415 0.950 . S
H411 C419 0.949 . S
H412 C420 0.950 . S
H413 C421 0.951 . S
H414 C422 0.951 . S
C415 C409 1.265 . S
C415 H410 0.950 . S
C415 C416 1.478 . S
C416 C415 1.478 . S
C416 C417 1.397 . S
C416 C433 1.394 . S
C417 C416 1.397 . S
C417 C418 1.438 . S
C417 C422 1.429 . S
C418 C417 1.438 . S
C418 C419 1.428 . S
C418 C431 1.394 . S
C419 H411 0.949 . S
C419 C418 1.428 . S
C419 C420 1.345 . S
C420 H412 0.950 . S
C420 C419 1.345 . S
C420 C421 1.424 . S
C421 H413 0.951 . S
C421 C420 1.424 . S
C421 C422 1.347 . S
C422 H414 0.951 . S
C422 C417 1.429 . S
C422 C421 1.347 . S
H423 C424 0.951 . S
C424 H423 0.951 . S
C424 C430 1.265 . S
H425 C430 0.950 . S
H426 C434 0.949 . S
H427 C435 0.950 . S
H428 C436 0.951 . S
H429 C437 0.951 . S
C430 C424 1.265 . S
C430 H425 0.950 . S
C430 C431 1.478 . S
C431 C418 1.394 . S
C431 C430 1.478 . S
C431 C432 1.397 . S
C432 C431 1.397 . S
C432 C433 1.438 . S
C432 C437 1.429 . S
C433 C416 1.394 . S
C433 C432 1.438 . S
C433 C434 1.428 . S
C434 H426 0.949 . S
C434 C433 1.428 . S
C434 C435 1.345 . S
C435 H427 0.950 . S
C435 C434 1.345 . S
C435 C436 1.424 . S
C436 H428 0.951 . S
C436 C435 1.424 . S
C436 C437 1.347 . S
C437 H429 0.951 . S
C437 C432 1.429 . S
C437 C436 1.347 . S
H438 C439 0.951 . S
C439 H438 0.951 . S
C439 C445 1.265 . S
H440 C445 0.950 1_655 S
H441 C449 0.949 . S
H442 C450 0.950 . S
H443 C451 0.951 . S
H444 C452 0.951 . S
C445 C439 1.265 . S
C445 H440 0.950 1_455 S
C445 C446 1.478 . S
C446 C445 1.478 . S
C446 C447 1.397 1_545 S
C446 C463 1.394 . S
C447 C446 1.397 1_565 S
C447 C448 1.438 . S
C447 C452 1.429 1_455 S
C448 C447 1.438 . S
C448 C449 1.428 . S
C448 C461 1.394 1_565 S
C449 H441 0.949 . S
C449 C448 1.428 . S
C449 C450 1.345 1_455 S
C450 H442 0.950 . S
C450 C449 1.345 1_655 S
C450 C451 1.424 . S
C451 H443 0.951 . S
C451 C450 1.424 . S
C451 C452 1.347 . S
C452 H444 0.951 . S
C452 C447 1.429 1_655 S
C452 C451 1.347 . S
H453 C454 0.951 . S
C454 H453 0.951 . S
C454 C460 1.265 1_565 S
H455 C460 0.950 . S
H456 C464 0.949 . S
H457 C465 0.950 . S
H458 C466 0.951 . S
H459 C467 0.951 . S
C460 C454 1.265 1_545 S
C460 H455 0.950 . S
C460 C461 1.478 . S
C461 C448 1.394 1_545 S
C461 C460 1.478 . S
C461 C462 1.397 . S
C462 C461 1.397 . S
C462 C463 1.438 . S
C462 C467 1.429 . S
C463 C446 1.394 . S
C463 C462 1.438 . S
C463 C464 1.428 . S
C464 H456 0.949 . S
C464 C463 1.428 . S
C464 C465 1.345 . S
C465 H457 0.950 . S
C465 C464 1.345 . S
C465 C466 1.424 . S
C466 H458 0.951 . S
C466 C465 1.424 . S
C466 C467 1.347 . S
C467 H459 0.951 . S
C467 C462 1.429 . S
C467 C466 1.347 . S
H468 C469 0.951 1_655 S
C469 H468 0.951 1_455 S
C469 C475 1.265 . S
H470 C475 0.950 . S
H471 C479 0.945 1_545 S
H472 C480 0.950 . S
H473 C481 0.951 . S
H474 C482 0.951 . S
C475 C469 1.265 . S
C475 H470 0.950 . S
C475 C476 1.478 . S
C476 C475 1.478 . S
C476 C477 1.397 . S
C476 C493 1.394 . S
C477 C476 1.397 . S
C477 C478 1.438 . S
C477 C482 1.429 1_545 S
C478 C477 1.438 . S
C478 C479 1.428 1_545 S
C478 C491 1.394 . S
C479 H471 0.945 1_565 S
C479 C478 1.428 1_565 S
C479 C480 1.345 . S
C480 H472 0.950 . S
C480 C479 1.345 . S
C480 C481 1.424 . S
C481 H473 0.951 . S
C481 C480 1.424 . S
C481 C482 1.347 . S
C482 H474 0.951 . S
C482 C477 1.429 1_565 S
C482 C481 1.347 . S
H483 C484 0.951 . S
C484 H483 0.951 . S
C484 C490 1.265 1_455 S
H485 C490 0.950 . S
H486 C494 0.949 1_455 S
H487 C495 0.950 . S
H488 C496 0.951 . S
H489 C497 0.951 . S
C490 C484 1.265 1_655 S
C490 H485 0.950 . S
C490 C491 1.478 1_655 S
C491 C478 1.394 . S
C491 C490 1.478 1_455 S
C491 C492 1.397 1_455 S
C492 C491 1.397 1_655 S
C492 C493 1.438 1_655 S
C492 C497 1.429 . S
C493 C476 1.394 . S
C493 C492 1.438 1_455 S
C493 C494 1.428 1_455 S
C494 H486 0.949 1_655 S
C494 C493 1.428 1_655 S
C494 C495 1.345 . S
C495 H487 0.950 . S
C495 C494 1.345 . S
C495 C496 1.424 . S
C496 H488 0.951 . S
C496 C495 1.424 . S
C496 C497 1.347 . S
C497 H489 0.951 . S
C497 C492 1.429 . S
C497 C496 1.347 . S
H498 C499 0.951 . S
C499 H498 0.951 . S
C499 C505 1.265 . S
H500 C505 0.950 . S
H501 C509 0.949 . S
H502 C510 0.950 . S
H503 C511 0.951 . S
H504 C512 0.951 . S
C505 C499 1.265 . S
C505 H500 0.950 . S
C505 C506 1.478 . S
C506 C505 1.478 . S
C506 C507 1.397 . S
C506 C523 1.394 . S
C507 C506 1.397 . S
C507 C508 1.438 . S
C507 C512 1.429 . S
C508 C507 1.438 . S
C508 C509 1.428 . S
C508 C521 1.394 . S
C509 H501 0.949 . S
C509 C508 1.428 . S
C509 C510 1.345 . S
C510 H502 0.950 . S
C510 C509 1.345 . S
C510 C511 1.424 . S
C511 H503 0.951 . S
C511 C510 1.424 . S
C511 C512 1.347 . S
C512 H504 0.951 . S
C512 C507 1.429 . S
C512 C511 1.347 . S
H513 C514 0.951 . S
C514 H513 0.951 . S
C514 C520 1.265 . S
H515 C520 0.950 . S
H516 C524 0.949 . S
H517 C525 0.950 . S
H518 C526 0.951 . S
H519 C527 0.951 . S
C520 C514 1.265 . S
C520 H515 0.950 . S
C520 C521 1.478 . S
C521 C508 1.394 . S
C521 C520 1.478 . S
C521 C522 1.397 . S
C522 C521 1.397 . S
C522 C523 1.438 . S
C522 C527 1.429 . S
C523 C506 1.394 . S
C523 C522 1.438 . S
C523 C524 1.428 . S
C524 H516 0.949 . S
C524 C523 1.428 . S
C524 C525 1.345 . S
C525 H517 0.950 . S
C525 C524 1.345 . S
C525 C526 1.424 . S
C526 H518 0.951 . S
C526 C525 1.424 . S
C526 C527 1.347 . S
C527 H519 0.951 . S
C527 C522 1.429 . S
C527 C526 1.347 . S
H528 C529 0.951 . S
C529 H528 0.951 . S
C529 C535 1.265 . S
H530 C535 0.950 . S
H531 C539 0.949 . S
H532 C540 0.950 . S
H533 C541 0.951 . S
H534 C542 0.951 . S
C535 C529 1.265 . S
C535 H530 0.950 . S
C535 C536 1.478 . S
C536 C535 1.478 . S
C536 C537 1.397 . S
C536 C553 1.394 . S
C537 C536 1.397 . S
C537 C538 1.438 . S
C537 C542 1.429 . S
C538 C537 1.438 . S
C538 C539 1.428 . S
C538 C551 1.394 . S
C539 H531 0.949 . S
C539 C538 1.428 . S
C539 C540 1.345 . S
C540 H532 0.950 . S
C540 C539 1.345 . S
C540 C541 1.424 . S
C541 H533 0.951 . S
C541 C540 1.424 . S
C541 C542 1.347 . S
C542 H534 0.951 . S
C542 C537 1.429 . S
C542 C541 1.347 . S
H543 C544 0.951 . S
C544 H543 0.951 . S
C544 C550 1.265 . S
H545 C550 0.950 . S
H546 C554 0.949 . S
H547 C555 0.950 . S
H548 C556 0.951 . S
H549 C557 0.951 . S
C550 C544 1.265 . S
C550 H545 0.950 . S
C550 C551 1.478 . S
C551 C538 1.394 . S
C551 C550 1.478 . S
C551 C552 1.397 . S
C552 C551 1.397 . S
C552 C553 1.438 . S
C552 C557 1.429 . S
C553 C536 1.394 . S
C553 C552 1.438 . S
C553 C554 1.428 . S
C554 H546 0.949 . S
C554 C553 1.428 . S
C554 C555 1.345 . S
C555 H547 0.950 . S
C555 C554 1.345 . S
C555 C556 1.424 . S
C556 H548 0.951 . S
C556 C555 1.424 . S
C556 C557 1.347 . S
C557 H549 0.951 . S
C557 C552 1.429 . S
C557 C556 1.347 . S
C214 C175 1.456 . S
C199 C16 1.279 . S
C229 C15 1.544 . S
C244 C136 1.491 . S
C259 C13 1.366 . S
C274 C180 1.487 . S
C289 C14 1.348 . S
C304 C141 1.333 . S
C319 C37 1.368 . S
C334 C97 1.437 . S
C349 C36 1.493 . S
C364 C58 1.515 . S
C394 C102 1.457 . S
C379 C34 1.209 . S
C424 C63 1.357 . S
C409 C35 1.275 . S
C439 C17 1.473 . S
C454 C43 1.548 . S
C469 C18 1.321 . S
C484 C82 1.419 . S
C514 C121 1.548 . S
C499 C38 1.473 . S
C529 C39 1.423 . S
C544 C160 1.426 . S
