# Generated by pormake.
# Topology zzz, (3,6)-cn, num edge types: 1
# Building blocks:
#     Node 0, Type 0, BuildingBlock: BELTOD_clean_linker_0, # of connection points: 3
#     Node 1, Type 0, BuildingBlock: BELTOD_clean_linker_0, # of connection points: 3
#     Node 2, Type 0, BuildingBlock: BELTOD_clean_linker_0, # of connection points: 3
#     Node 3, Type 0, BuildingBlock: BELTOD_clean_linker_0, # of connection points: 3
#     Node 4, Type 0, BuildingBlock: BELTOD_clean_linker_0, # of connection points: 3
#     Node 5, Type 0, BuildingBlock: BELTOD_clean_linker_0, # of connection points: 3
#     Node 6, Type 0, BuildingBlock: BELTOD_clean_linker_0, # of connection points: 3
#     Node 7, Type 0, BuildingBlock: BELTOD_clean_linker_0, # of connection points: 3
#     Node 8, Type 1, BuildingBlock: PAMTOO_clean_sbu_0, # of connection points: 6
#     Node 9, Type 1, BuildingBlock: PAMTOO_clean_sbu_0, # of connection points: 6
#     Node 10, Type 1, BuildingBlock: PAMTOO_clean_sbu_0, # of connection points: 6
#     Node 11, Type 1, BuildingBlock: PAMTOO_clean_sbu_0, # of connection points: 6
#     Edge 12, Type (0, 1), BuildingBlock: EZIPEK_clean_linker_0, # of connection points: 2
#     Edge 13, Type (0, 1), BuildingBlock: EZIPEK_clean_linker_0, # of connection points: 2
#     Edge 14, Type (0, 1), BuildingBlock: EZIPEK_clean_linker_0, # of connection points: 2
#     Edge 15, Type (0, 1), BuildingBlock: EZIPEK_clean_linker_0, # of connection points: 2
#     Edge 16, Type (0, 1), BuildingBlock: EZIPEK_clean_linker_0, # of connection points: 2
#     Edge 17, Type (0, 1), BuildingBlock: EZIPEK_clean_linker_0, # of connection points: 2
#     Edge 18, Type (0, 1), BuildingBlock: EZIPEK_clean_linker_0, # of connection points: 2
#     Edge 19, Type (0, 1), BuildingBlock: EZIPEK_clean_linker_0, # of connection points: 2
#     Edge 20, Type (0, 1), BuildingBlock: EZIPEK_clean_linker_0, # of connection points: 2
#     Edge 21, Type (0, 1), BuildingBlock: EZIPEK_clean_linker_0, # of connection points: 2
#     Edge 22, Type (0, 1), BuildingBlock: EZIPEK_clean_linker_0, # of connection points: 2
#     Edge 23, Type (0, 1), BuildingBlock: EZIPEK_clean_linker_0, # of connection points: 2
#     Edge 24, Type (0, 1), BuildingBlock: EZIPEK_clean_linker_0, # of connection points: 2
#     Edge 25, Type (0, 1), BuildingBlock: EZIPEK_clean_linker_0, # of connection points: 2
#     Edge 26, Type (0, 1), BuildingBlock: EZIPEK_clean_linker_0, # of connection points: 2
#     Edge 27, Type (0, 1), BuildingBlock: EZIPEK_clean_linker_0, # of connection points: 2
#     Edge 28, Type (0, 1), BuildingBlock: EZIPEK_clean_linker_0, # of connection points: 2
#     Edge 29, Type (0, 1), BuildingBlock: EZIPEK_clean_linker_0, # of connection points: 2
#     Edge 30, Type (0, 1), BuildingBlock: EZIPEK_clean_linker_0, # of connection points: 2
#     Edge 31, Type (0, 1), BuildingBlock: EZIPEK_clean_linker_0, # of connection points: 2
#     Edge 32, Type (0, 1), BuildingBlock: EZIPEK_clean_linker_0, # of connection points: 2
#     Edge 33, Type (0, 1), BuildingBlock: EZIPEK_clean_linker_0, # of connection points: 2
#     Edge 34, Type (0, 1), BuildingBlock: EZIPEK_clean_linker_0, # of connection points: 2
#     Edge 35, Type (0, 1), BuildingBlock: EZIPEK_clean_linker_0, # of connection points: 2
# Relax obj value: 0.382
# Max RMSD: 0.284
# Mean RMSD: 0.214
data_MOF--net-zzz--node1-PAMTOO_clean_sbu_0--node2-BELTOD_clean_linker_0--edge1-EZIPEK_clean_linker_0
_symmetry_space_group_name_H-M    P1
_symmetry_Int_Tables_number       1
_symmetry_cell_setting            triclinic
loop_
_symmetry_equiv_pos_as_xyz
'x, y, z'
_cell_length_a     47.636395
_cell_length_b     39.402439
_cell_length_c     14.99065
_cell_angle_alpha  93.172141
_cell_angle_beta   79.539361
_cell_angle_gamma 84.107852
loop_
_atom_site_label
_atom_site_type_symbol
_atom_site_fract_x
_atom_site_fract_y
_atom_site_fract_z
_atom_type_partial_charge
P0 P 0.76655 0.4676 0.60601 0.0
H1 H 0.78233 0.46865 0.78509 0.0
H2 H 0.82522 0.4852 0.8352 0.0
H3 H 0.84653 0.53778 0.5918 0.0
H4 H 0.804 0.52017 0.5396 0.0
H5 H 0.71794 0.43942 0.55454 0.0
H6 H 0.68598 0.45557 0.44994 0.0
H7 H 0.72453 0.54914 0.40986 0.0
H8 H 0.75676 0.53301 0.51596 0.0
H9 H 0.79474 0.39813 0.61461 0.0
H10 H 0.79571 0.47572 0.42215 0.0
O11 O 0.74983 0.44454 0.68501 0.0
H12 H 0.83498 0.36369 0.51139 0.0
H13 H 0.83625 0.44213 0.32155 0.0
C14 C 0.78935 0.49349 0.65875 0.0
C15 C 0.79538 0.48498 0.74374 0.0
C16 C 0.8201 0.49426 0.77246 0.0
C17 C 0.83931 0.51246 0.71703 0.0
C18 C 0.832 0.52377 0.63587 0.0
C19 C 0.80741 0.51403 0.6065 0.0
C20 C 0.73961 0.48514 0.54451 0.0
C21 C 0.71912 0.46393 0.52556 0.0
C22 C 0.70091 0.47301 0.46539 0.0
C23 C 0.70281 0.50352 0.42219 0.0
C24 C 0.7226 0.52554 0.44305 0.0
C25 C 0.741 0.51633 0.50364 0.0
C26 C 0.79203 0.43925 0.52535 0.0
C27 C 0.8032 0.40745 0.54968 0.0
C28 C 0.82621 0.38794 0.49137 0.0
C29 C 0.83874 0.40069 0.40974 0.0
C30 C 0.82693 0.43199 0.38456 0.0
C31 C 0.80374 0.45108 0.44182 0.0
P32 P 0.04219 0.69398 0.50339 0.0
H33 H 0.0388 0.71199 0.6975 0.0
H34 H 0.02703 0.76857 0.77928 0.0
H35 H 0.98654 0.80525 0.56288 0.0
H36 H 0.9977 0.74834 0.48171 0.0
H37 H 0.06869 0.6475 0.3497 0.0
H38 H 0.05045 0.60928 0.24559 0.0
H39 H 0.96429 0.63683 0.39696 0.0
H40 H 0.98282 0.676 0.50152 0.0
H41 H 0.08879 0.73325 0.53113 0.0
H42 H 0.0382 0.71769 0.32398 0.0
O43 O 0.06431 0.67094 0.55716 0.0
H44 H 0.10462 0.78451 0.46044 0.0
H45 H 0.05445 0.76818 0.25314 0.0
C46 C 0.01917 0.72571 0.58307 0.0
C47 C 0.02589 0.73147 0.66977 0.0
C48 C 0.01943 0.76396 0.71633 0.0
C49 C 1.00639 0.79123 0.67635 0.0
C50 C 0.99669 0.78456 0.59478 0.0
C51 C 1.00278 0.75189 0.5489 0.0
C52 C 0.02709 0.66493 0.43247 0.0
C53 C 0.04585 0.64541 0.36075 0.0
C54 C 0.03544 0.62361 0.30124 0.0
C55 C 1.00595 0.62055 0.3124 0.0
C56 C 0.98709 0.63917 0.38636 0.0
C57 C 0.99762 0.66143 0.44593 0.0
C58 C 0.0628 0.72118 0.43184 0.0
C59 C 0.08234 0.73971 0.46793 0.0
C60 C 0.09122 0.76903 0.42817 0.0
C61 C 0.08061 0.77987 0.35193 0.0
C62 C 0.06298 0.75985 0.31159 0.0
C63 C 0.05393 0.73082 0.35171 0.0
P64 P 0.76802 0.04212 0.42539 0.0
H65 H 0.74709 0.03269 0.61827 0.0
H66 H 0.70068 0.01716 0.6932 0.0
H67 H 0.68482 0.97836 0.43495 0.0
H68 H 0.73154 0.99355 0.35946 0.0
H69 H 0.82198 0.07137 0.39134 0.0
H70 H 0.86676 0.05715 0.28184 0.0
H71 H 0.83577 0.96549 0.18655 0.0
H72 H 0.79032 0.97972 0.29822 0.0
H73 H 0.72222 0.098 0.47477 0.0
H74 H 0.7634 0.03511 0.23217 0.0
O75 O 0.77453 0.06999 0.50512 0.0
H76 H 0.68226 0.11653 0.40002 0.0
H77 H 0.72338 0.05362 0.15794 0.0
C78 C 0.74312 0.01451 0.48254 0.0
C79 C 0.73443 0.01939 0.57769 0.0
C80 C 0.70767 0.01078 0.6208 0.0
C81 C 0.68899 0.99705 0.56974 0.0
C82 C 0.69881 0.98898 0.47589 0.0
C83 C 0.72572 0.99738 0.43283 0.0
C84 C 0.80277 0.0263 0.35492 0.0
C85 C 0.82486 0.04764 0.34907 0.0
C86 C 0.85053 0.03965 0.28601 0.0
C87 C 0.85482 0.01019 0.22615 0.0
C88 C 0.83308 0.9882 0.23275 0.0
C89 C 0.80719 0.99624 0.29666 0.0
C90 C 0.74604 0.06555 0.35873 0.0
C91 C 0.72341 0.08949 0.40409 0.0
C92 C 0.70052 0.09993 0.36179 0.0
C93 C 0.69999 0.08633 0.2738 0.0
C94 C 0.72364 0.06452 0.2257 0.0
C95 C 0.74655 0.0541 0.26806 0.0
P96 P 0.48279 0.76039 0.35111 0.0
H97 H 0.4602 0.73822 0.52846 0.0
H98 H 0.4774 0.69082 0.60974 0.0
H99 H 0.55938 0.68076 0.42741 0.0
H100 H 0.54229 0.72915 0.34634 0.0
H101 H 0.50721 0.76381 0.15578 0.0
H102 H 0.51999 0.81177 0.06822 0.0
H103 H 0.51027 0.87644 0.31569 0.0
H104 H 0.49776 0.82777 0.40515 0.0
H105 H 0.42873 0.73625 0.31774 0.0
H106 H 0.51984 0.70849 0.2244 0.0
O107 O 0.45177 0.78124 0.40711 0.0
H108 H 0.41904 0.68656 0.22595 0.0
H109 H 0.51008 0.65926 0.13336 0.0
C110 C 0.49999 0.73756 0.43149 0.0
C111 C 0.48236 0.72711 0.50823 0.0
C112 C 0.49206 0.69975 0.55431 0.0
C113 C 0.51949 0.68206 0.52393 0.0
C114 C 0.53811 0.69413 0.4518 0.0
C115 C 0.5284 0.72185 0.40597 0.0
C116 C 0.50169 0.79179 0.28793 0.0
C117 C 0.50896 0.78759 0.1925 0.0
C118 C 0.51622 0.81518 0.14182 0.0
C119 C 0.51615 0.84762 0.18528 0.0
C120 C 0.51081 0.85149 0.28084 0.0
C121 C 0.50372 0.82367 0.3318 0.0
C122 C 0.47504 0.72638 0.27702 0.0
C123 C 0.44661 0.71984 0.277 0.0
C124 C 0.44104 0.69147 0.22523 0.0
C125 C 0.4639 0.66947 0.17324 0.0
C126 C 0.49223 0.67607 0.17317 0.0
C127 C 0.49775 0.70418 0.22503 0.0
P128 P 0.25844 0.43634 0.03752 0.0
H129 H 0.24264 0.41412 0.86422 0.0
H130 H 0.19873 0.43174 0.80763 0.0
H131 H 0.18281 0.52206 0.99308 0.0
H132 H 0.22764 0.50542 0.04602 0.0
H133 H 0.31424 0.39983 0.04664 0.0
H134 H 0.35068 0.41422 0.13293 0.0
H135 H 0.31094 0.51852 0.17907 0.0
H136 H 0.27489 0.50442 0.08887 0.0
H137 H 0.19892 0.42236 0.07799 0.0
H138 H 0.25951 0.45974 0.23048 0.0
O139 O 0.26479 0.3948 1.00293 0.0
H140 H 0.15922 0.45339 0.18918 0.0
H141 H 0.21998 0.49056 0.34079 0.0
C142 C 0.23856 0.45823 0.96043 0.0
C143 C 0.23075 0.43873 0.88926 0.0
C144 C 0.20534 0.44854 0.85763 0.0
C145 C 0.18698 0.47772 0.89785 0.0
C146 C 0.19641 0.49923 0.9616 0.0
C147 C 0.22232 0.48994 0.99097 0.0
C148 C 0.29154 0.45095 0.06118 0.0
C149 C 0.31401 0.42625 0.07107 0.0
C150 C 0.33482 0.43438 0.12119 0.0
C151 C 0.33326 0.46726 0.16426 0.0
C152 C 0.31255 0.49293 0.14682 0.0
C153 C 0.29208 0.48493 0.09442 0.0
C154 C 0.2322 0.4409 0.14187 0.0
C155 C 0.2037 0.43632 0.13653 0.0
C156 C 0.1811 0.45417 0.19936 0.0
C157 C 0.18703 0.47534 0.27014 0.0
C158 C 0.21528 0.47519 0.28431 0.0
C159 C 0.23784 0.45771 0.22068 0.0
P160 P 0.05816 0.28917 0.12773 0.0
H161 H 0.08632 0.2531 0.9534 0.0
H162 H 0.07066 0.20418 0.87707 0.0
H163 H 0.98375 0.23374 0.01855 0.0
H164 H 0.9993 0.28335 0.09425 0.0
H165 H 0.09462 0.32714 0.21896 0.0
H166 H 0.08329 0.37661 0.32838 0.0
H167 H 1.00117 0.39875 0.24947 0.0
H168 H 0.01251 0.34811 0.13895 0.0
H169 H 0.07044 0.22109 0.18625 0.0
H170 H 1.00469 0.30699 0.26333 0.0
O171 O 0.09319 0.27528 0.11065 0.0
H172 H 0.0399 0.18536 0.2807 0.0
H173 H 0.97448 0.27126 0.35615 0.0
C174 C 0.04422 0.27171 0.032 0.0
C175 C 0.06359 0.25044 0.96478 0.0
C176 C 0.0547 0.22211 0.92142 0.0
C177 C 0.0262 0.21474 0.94375 0.0
C178 C 1.00594 0.23875 1.00075 0.0
C179 C 0.01485 0.26735 0.04349 0.0
C180 C 0.05439 0.33368 0.1702 0.0
C181 C 0.07463 0.34326 0.22148 0.0
C182 C 0.0681 0.37148 0.28496 0.0
C183 C 0.04115 0.3908 0.29877 0.0
C184 C 0.02199 0.38378 0.24056 0.0
C185 C 0.02861 0.35524 0.1765 0.0
C186 C 0.04032 0.267 0.21905 0.0
C187 C 0.0501 0.23268 0.22608 0.0
C188 C 0.03261 0.21224 0.27902 0.0
C189 C 1.0051 0.2259 0.3247 0.0
C190 C 0.99578 0.26054 0.32152 0.0
C191 C 0.01332 0.281 0.26905 0.0
P192 P 0.25048 0.04443 0.28139 0.0
H193 H 0.27448 0.08247 0.12764 0.0
H194 H 0.32112 0.07109 0.02573 0.0
H195 H 0.32755 0.9662 0.09373 0.0
H196 H 0.28063 0.97749 0.19636 0.0
H197 H 0.1992 0.0879 0.37422 0.0
H198 H 0.15312 0.07604 0.45802 0.0
H199 H 0.17277 0.96964 0.36242 0.0
H200 H 0.21932 0.98179 0.27413 0.0
H201 H 0.30115 0.06614 0.33709 0.0
H202 H 0.24982 0.98243 0.38528 0.0
O203 O 0.24996 0.08689 0.29465 0.0
H204 H 0.33968 0.0343 0.39611 0.0
H205 H 0.28849 0.95075 0.44362 0.0
C206 C 0.27373 0.03103 0.17145 0.0
C207 C 0.28506 0.05653 0.1181 0.0
C208 C 0.31203 0.05015 0.06013 0.0
C209 C 0.32831 0.018 0.05332 0.0
C210 C 0.3156 0.99134 0.09823 0.0
C211 C 0.28849 0.99774 0.15621 0.0
C212 C 0.21323 0.03577 0.3173 0.0
C213 C 0.19358 0.06208 0.36787 0.0
C214 C 0.16705 0.05534 0.41666 0.0
C215 C 0.15938 0.02193 0.4177 0.0
C216 C 0.17813 0.99569 0.36287 0.0
C217 C 0.20473 0.00264 0.31232 0.0
C218 C 0.27229 0.02705 0.35774 0.0
C219 C 0.29755 0.04168 0.36403 0.0
C220 C 0.31967 0.02341 0.39666 0.0
C221 C 0.3168 0.99025 0.4233 0.0
C222 C 0.29088 0.97641 0.42327 0.0
C223 C 0.26871 0.99473 0.3905 0.0
P224 P 0.45563 0.27666 0.3945 0.0
H225 H 0.41836 0.31436 0.28965 0.0
H226 H 0.42989 0.3539 0.17236 0.0
H227 H 0.51948 0.31529 0.13546 0.0
H228 H 0.50803 0.2752 0.25268 0.0
H229 H 0.42455 0.2358 0.52463 0.0
H230 H 0.43638 0.18022 0.5799 0.0
H231 H 0.51378 0.16332 0.37592 0.0
H232 H 0.50162 0.21945 0.31834 0.0
H233 H 0.44306 0.34125 0.5066 0.0
H234 H 0.51676 0.26694 0.40658 0.0
O235 O 0.42124 0.28954 0.44007 0.0
H236 H 0.47433 0.37983 0.56152 0.0
H237 H 0.54814 0.30632 0.45781 0.0
C238 C 0.4623 0.2916 0.28109 0.0
C239 C 0.44039 0.31309 0.25411 0.0
C240 C 0.44695 0.33601 0.18738 0.0
C241 C 0.47556 0.33788 0.14618 0.0
C242 C 0.49724 0.3143 0.1667 0.0
C243 C 0.49063 0.29118 0.23332 0.0
C244 C 0.462 0.23195 0.41635 0.0
C245 C 0.44367 0.21996 0.48927 0.0
C246 C 0.45045 0.18817 0.5215 0.0
C247 C 0.47595 0.16768 0.48242 0.0
C248 C 0.49391 0.17877 0.40691 0.0
C249 C 0.48695 0.21077 0.37399 0.0
C250 C 0.47744 0.30089 0.45395 0.0
C251 C 0.46578 0.33277 0.49862 0.0
C252 C 0.48363 0.35489 0.52934 0.0
C253 C 0.51345 0.34573 0.51407 0.0
C254 C 0.52512 0.31357 0.47113 0.0
C255 C 0.50716 0.29112 0.4422 0.0
Dy256 Dy 0.98762 0.01133 0.74621 0.0
Dy257 Dy 0.02925 0.99632 0.89372 0.0
C258 C 0.05578 0.00741 0.68518 0.0
O259 O 1.00227 0.95524 0.72661 0.0
O260 O 0.01362 0.94569 0.86633 0.0
O261 O 0.97804 0.00191 0.61245 0.0
O262 O 0.94823 0.0354 0.71431 0.0
O263 O 0.9843 0.00727 0.97623 0.0
O264 O 0.95886 0.99383 0.86585 0.0
O265 O 0.03112 0.05159 0.86966 0.0
O266 O 0.98895 0.06274 0.81775 0.0
O267 O 0.03934 0.00585 0.02727 0.0
O268 O 0.06867 0.97237 0.92482 0.0
C269 C 1.00757 0.9345 0.78858 0.0
O270 O 0.03098 0.02368 0.67693 0.0
O271 O 0.05803 0.98958 0.75565 0.0
C272 C 0.95625 0.05257 0.56659 0.0
C273 C 0.95813 0.11342 0.47955 0.0
C274 C 0.98362 0.09277 0.48232 0.0
C275 C 0.98274 0.0626 0.52575 0.0
C276 C 0.93059 0.07234 0.55959 0.0
C277 C 0.93151 0.10279 0.51605 0.0
C278 C 0.95572 0.02505 0.62835 0.0
C279 C 0.96023 1.00026 0.95169 0.0
C280 C 1.01047 0.07324 0.85141 0.0
C281 C 0.06598 0.95914 0.07558 0.0
C282 C 0.0761 0.90653 0.18777 0.0
C283 C 0.0536 0.9063 0.1391 0.0
C284 C 0.04855 0.93248 0.08323 0.0
C285 C 0.08786 0.96007 0.12663 0.0
C286 C 0.09289 0.93385 0.18291 0.0
C287 C 0.06275 0.98449 0.0095 0.0
H288 H 1.00429 0.10087 0.45447 0.0
H289 H 1.00286 0.0481 0.53132 0.0
H290 H 0.91003 0.06515 0.59182 0.0
H291 H 0.91172 0.11874 0.5144 0.0
H292 H 0.04043 0.88539 0.14273 0.0
H293 H 0.03159 0.93147 0.04411 0.0
H294 H 0.10146 0.98056 0.12122 0.0
H295 H 0.1102 0.93437 0.22071 0.0
Dy296 Dy 0.50697 0.9728 0.73528 0.0
Dy297 Dy 0.51319 0.03484 0.88713 0.0
C298 C 0.49631 0.05304 0.69881 0.0
O299 O 0.55444 0.96975 0.72888 0.0
O300 O 0.55599 0.02387 0.79132 0.0
O301 O 0.51743 0.95071 0.5964 0.0
O302 O 0.4894 0.92684 0.69805 0.0
O303 O 0.52038 0.98692 0.9581 0.0
O304 O 0.51545 0.94391 0.8527 0.0
O305 O 0.46625 0.02939 0.92249 0.0
O306 O 0.46133 0.98921 0.80961 0.0
O307 O 0.51004 0.05642 0.02469 0.0
O308 O 0.52775 0.08407 0.9113 0.0
C309 C 0.56867 0.99564 0.74357 0.0
O310 O 0.5064 0.02179 0.66482 0.0
O311 O 0.49129 0.06134 0.78661 0.0
C312 C 0.47697 0.92883 0.55519 0.0
C313 C 0.42523 0.93508 0.49106 0.0
C314 C 0.44104 0.96306 0.49297 0.0
C315 C 0.46681 0.95994 0.52449 0.0
C316 C 0.46232 0.90004 0.5463 0.0
C317 C 0.43653 0.90309 0.51374 0.0
C318 C 0.49914 0.92827 0.61154 0.0
C319 C 0.51917 0.95459 0.93372 0.0
C320 C 0.45048 0.00993 0.88291 0.0
C321 C 0.54914 0.08622 0.03974 0.0
C322 C 0.59744 0.09271 0.1192 0.0
C323 C 0.59691 0.06427 0.05932 0.0
C324 C 0.57292 0.06105 0.0197 0.0
C325 C 0.5497 0.11485 0.099 0.0
C326 C 0.57381 0.1181 0.13869 0.0
C327 C 0.52386 0.08214 0.99903 0.0
H328 H 0.43261 0.98781 0.47481 0.0
H329 H 0.47784 0.98242 0.53016 0.0
H330 H 0.46983 0.87587 0.56998 0.0
H331 H 0.42451 0.88125 0.5119 0.0
H332 H 0.61496 0.04442 0.04414 0.0
H333 H 0.57277 0.03878 0.97404 0.0
H334 H 0.53147 0.13444 0.11504 0.0
H335 H 0.57392 0.14006 0.18537 0.0
Dy336 Dy 0.54326 0.50806 0.85141 0.0
Dy337 Dy 0.48281 0.49889 0.76448 0.0
C338 C 0.50073 0.45338 0.92786 0.0
O339 O 0.55125 0.46207 0.75277 0.0
O340 O 0.52178 0.48133 0.6592 0.0
O341 O 0.58333 0.48636 0.88472 0.0
O342 O 0.57163 0.54109 0.90204 0.0
O343 O 0.49813 0.54722 0.7146 0.0
O344 O 0.5458 0.53925 0.7295 0.0
O345 O 0.46615 0.53144 0.89356 0.0
O346 O 0.50878 0.54645 0.93049 0.0
O347 O 0.44141 0.51662 0.73218 0.0
O348 O 0.46089 0.46468 0.69045 0.0
C349 C 0.54314 0.46005 0.67407 0.0
O350 O 0.52011 0.4733 0.94416 0.0
O351 O 0.48647 0.45745 0.86068 0.0
C352 C 0.60293 0.51741 0.9959 0.0
C353 C 0.63277 0.51752 0.14288 0.0
C354 C 0.61196 0.49497 0.13783 0.0
C355 C 0.59713 0.49489 0.06487 0.0
C356 C 0.62306 0.54063 1.00289 0.0
C357 C 0.63784 0.5407 0.07558 0.0
C358 C 0.59021 0.51573 0.9127 0.0
C359 C 0.52432 0.55611 0.70009 0.0
C360 C 0.48061 0.55015 0.94021 0.0
C361 C 0.42783 0.48946 0.60188 0.0
C362 C 0.40032 0.48629 0.44947 0.0
C363 C 0.42796 0.46902 0.44475 0.0
C364 C 0.44161 0.47051 0.52037 0.0
C365 C 0.40064 0.50762 0.60485 0.0
C366 C 0.38703 0.50604 0.52961 0.0
C367 C 0.43951 0.48786 0.68739 0.0
H368 H 0.6078 0.47682 0.18897 0.0
H369 H 0.58172 0.47672 0.06122 0.0
H370 H 0.62798 0.55814 0.95048 0.0
H371 H 0.65385 0.5582 0.07801 0.0
H372 H 0.43849 0.45342 0.38377 0.0
H373 H 0.46247 0.45601 0.51588 0.0
H374 H 0.38939 0.5221 0.66684 0.0
H375 H 0.36566 0.51933 0.53495 0.0
Dy376 Dy 0.01353 0.54304 0.77944 0.0
Dy377 Dy 1.00795 0.46707 0.85801 0.0
C378 C 0.02389 0.47171 0.6444 0.0
O379 O 0.96597 0.54207 0.81343 0.0
O380 O 0.9666 0.48356 0.8114 0.0
O381 O 0.03437 0.58925 0.77012 0.0
O382 O 1.00464 0.57953 0.68231 0.0
O383 O 0.99591 0.50499 0.98154 0.0
O384 O 0.99944 0.55818 0.92635 0.0
O385 O 0.05554 0.46959 0.82711 0.0
O386 O 0.05488 0.5275 0.82706 0.0
O387 O 0.01811 0.43035 0.95237 0.0
O388 O 0.98951 0.41919 0.86069 0.0
C389 C 0.9532 0.51424 0.80758 0.0
O390 O 0.01751 0.50514 0.6575 0.0
O391 O 0.02621 0.45263 0.71209 0.0
C392 C 0.04917 0.59718 0.61515 0.0
C393 C 0.09697 0.57174 0.48184 0.0
C394 C 0.06928 0.57222 0.46228 0.0
C395 C 0.04545 0.58506 0.52851 0.0
C396 C 0.0771 0.60168 0.62857 0.0
C397 C 0.10092 0.58908 0.56197 0.0
C398 C 0.02586 0.59649 0.69495 0.0
C399 C 0.99533 0.5385 0.99425 0.0
C400 C 0.06858 0.49723 0.83174 0.0
C401 C 0.98003 0.39894 0.0057 0.0
C402 C 0.93812 0.3794 0.14392 0.0
C403 C 0.94224 0.41398 0.13751 0.0
C404 C 0.963 0.42372 0.06882 0.0
C405 C 0.97646 0.36421 0.01302 0.0
C406 C 0.95566 0.3544 0.08239 0.0
C407 C 1.00047 0.40959 0.93007 0.0
H408 H 0.066 0.55977 0.39935 0.0
H409 H 0.02422 0.58218 0.51512 0.0
H410 H 0.08069 0.61169 0.69383 0.0
H411 H 0.12228 0.58951 0.57705 0.0
H412 H 0.92887 0.43354 0.18466 0.0
H413 H 0.96539 0.45064 0.06388 0.0
H414 H 0.98953 0.3448 0.9647 0.0
H415 H 0.95277 0.3276 0.08689 0.0
C416 C 0.10783 0.00684 0.45521 0.0
C417 C 0.13333 0.01475 0.48449 0.0
C418 C 0.10732 0.02043 0.64341 0.0
C419 C 0.08236 0.00999 0.61527 0.0
N420 N 0.06094 0.98664 0.49489 0.0
N421 N 0.159 0.02067 0.60803 0.0
C422 C 0.08318 1.00137 0.52115 0.0
C423 C 0.13353 0.01891 0.57914 0.0
N424 N 0.10684 0.00551 0.36458 0.0
N425 N 0.10574 0.03365 0.73067 0.0
H426 H 0.1787 0.01908 0.56333 0.0
H427 H 0.16093 0.02011 0.67607 0.0
H428 H 0.08684 0.03665 0.77924 0.0
H429 H 0.12239 0.04505 0.75226 0.0
H430 H 0.08804 0.00364 0.33931 0.0
H431 H 0.12451 0.00878 0.31472 0.0
H432 H 0.06144 0.97679 0.42869 0.0
H433 H 0.04301 0.98134 0.54089 0.0
C434 C 0.47086 0.10634 0.51565 0.0
C435 C 0.48445 0.13627 0.52724 0.0
C436 C 0.50959 0.10873 0.63833 0.0
C437 C 0.49307 0.08074 0.63601 0.0
N438 N 0.45609 0.05399 0.57787 0.0
N439 N 0.51456 0.16767 0.60643 0.0
C440 C 0.4734 0.07963 0.57531 0.0
C441 C 0.50339 0.13784 0.58998 0.0
N442 N 0.45576 0.1034 0.44687 0.0
N443 N 0.53192 0.10706 0.6844 0.0
H444 H 0.51118 0.18935 0.57117 0.0
H445 H 0.52549 0.1718 0.65954 0.0
H446 H 0.53738 0.08614 0.71994 0.0
H447 H 0.54674 0.12485 0.68026 0.0
H448 H 0.44767 0.08099 0.42865 0.0
H449 H 0.45348 0.12259 0.40257 0.0
H450 H 0.43909 0.05366 0.54304 0.0
H451 H 0.45736 0.03411 0.62045 0.0
C452 C 0.34513 0.4554 0.31772 0.0
C453 C 0.35048 0.47306 0.23715 0.0
C454 C 0.38693 0.50198 0.29954 0.0
C455 C 0.38392 0.48123 0.37441 0.0
N456 N 0.36318 0.43428 0.44776 0.0
N457 N 0.37936 0.50982 0.14577 0.0
C458 C 0.36395 0.45672 0.3812 0.0
C459 C 0.37215 0.49554 0.22658 0.0
N460 N 0.32118 0.43869 0.33604 0.0
N461 N 0.40316 0.52859 0.29942 0.0
H462 H 0.36914 0.50555 0.09094 0.0
H463 H 0.39697 0.52355 0.13067 0.0
H464 H 0.41496 0.53342 0.35007 0.0
H465 H 0.40293 0.54742 0.25338 0.0
H466 H 0.31456 0.42846 0.39796 0.0
H467 H 0.30619 0.43812 0.29338 0.0
H468 H 0.35139 0.41339 0.44983 0.0
H469 H 0.37625 0.43473 0.49653 0.0
C470 C 0.04445 0.44623 0.38613 0.0
C471 C 0.03235 0.41495 0.38196 0.0
C472 C 1.00936 0.42587 0.54296 0.0
C473 C 0.02531 0.45414 0.55155 0.0
N474 N 0.05841 0.49127 0.47955 0.0
N475 N 1.00547 0.37287 0.45886 0.0
C476 C 0.04262 0.46467 0.47226 0.0
C477 C 0.01517 0.40434 0.46081 0.0
N478 N 0.05767 0.45822 0.30725 0.0
N479 N 0.98766 0.4203 0.61195 0.0
H480 H 1.00871 0.35636 0.40022 0.0
H481 H 0.99605 0.36199 0.51707 0.0
H482 H 0.98181 0.43605 0.67197 0.0
H483 H 0.97329 0.4025 0.60552 0.0
H484 H 0.06497 0.48219 0.30319 0.0
H485 H 0.05918 0.44519 0.2437 0.0
H486 H 0.07401 0.4975 0.42698 0.0
H487 H 0.0573 0.50592 0.54006 0.0
C488 C 0.906 0.98332 0.16383 0.0
C489 C 0.88117 0.00466 0.15235 0.0
C490 C 0.90889 0.02486 0.01434 0.0
C491 C 0.93319 1.00173 0.02178 0.0
N492 N 0.95345 0.95494 0.09581 0.0
N493 N 0.85741 0.04078 0.05759 0.0
C494 C 0.93136 0.97985 0.09454 0.0
C495 C 0.88218 0.02382 0.07459 0.0
N496 N 0.90559 0.9671 0.2422 0.0
N497 N 0.91172 0.04929 0.95297 0.0
H498 H 0.83751 0.04085 0.10041 0.0
H499 H 0.85609 0.05209 0.99711 0.0
H500 H 0.93106 0.05188 0.90991 0.0
H501 H 0.89573 0.06919 0.95095 0.0
H502 H 0.92382 0.95442 0.25992 0.0
H503 H 0.88722 0.96821 0.29269 0.0
H504 H 0.95229 0.93583 0.14115 0.0
H505 H 0.97224 0.95163 0.04662 0.0
C506 C 0.49128 0.89046 0.10029 0.0
C507 C 0.51676 0.87797 0.12995 0.0
C508 C 0.54296 0.91987 0.04273 0.0
C509 C 0.51839 0.92921 1.00409 0.0
N510 N 0.46951 0.92145 0.99075 0.0
N511 N 0.56733 0.87882 0.12694 0.0
C512 C 0.49265 0.91397 0.0315 0.0
C513 C 0.54273 0.89234 0.10108 0.0
N514 N 0.46554 0.88038 0.13971 0.0
N515 N 0.56649 0.9372 0.02347 0.0
H516 H 0.56761 0.85942 0.17152 0.0
H517 H 0.58766 0.8853 0.10052 0.0
H518 H 0.56778 0.95655 0.97871 0.0
H519 H 0.58396 0.93411 0.05625 0.0
H520 H 0.44575 0.89135 0.12871 0.0
H521 H 0.46361 0.86313 0.19021 0.0
H522 H 0.45175 0.90778 0.99864 0.0
H523 H 0.46851 0.94008 0.94447 0.0
C524 C 0.69722 0.49759 0.25862 0.0
C525 C 0.68557 0.51036 0.34972 0.0
C526 C 0.64004 0.53077 0.30376 0.0
C527 C 0.65087 0.51525 0.21464 0.0
N528 N 0.68829 0.4801 0.10945 0.0
N529 N 0.64538 0.53656 0.46205 0.0
C530 C 0.67913 0.49777 0.19258 0.0
C531 C 0.65682 0.52635 0.37308 0.0
N532 N 0.72574 0.48552 0.23506 0.0
N533 N 0.61397 0.55038 0.32139 0.0
H534 H 0.65742 0.53506 0.51361 0.0
H535 H 0.62369 0.5447 0.48585 0.0
H536 H 0.60102 0.55367 0.27268 0.0
H537 H 0.60599 0.56532 0.38189 0.0
H538 H 0.73639 0.47947 0.16818 0.0
H539 H 0.73949 0.48403 0.28183 0.0
H540 H 0.70726 0.46357 0.09259 0.0
H541 H 0.67582 0.47973 0.05902 0.0
C542 C 1.00532 0.56209 0.23852 0.0
C543 C 0.99577 0.5975 0.24521 0.0
C544 C 0.97551 0.58868 0.10757 0.0
C545 C 0.99127 0.55557 0.08881 0.0
N546 N 0.02395 0.51193 0.13824 0.0
N547 N 0.97264 0.6454 0.18202 0.0
C548 C 1.00646 0.54217 0.15552 0.0
C549 C 0.98068 0.61102 0.1794 0.0
N550 N 0.01352 0.54751 0.31167 0.0
N551 N 0.95535 0.59867 0.05728 0.0
H552 H 0.97597 0.66269 0.2332 0.0
H553 H 0.96459 0.65701 0.12965 0.0
H554 H 0.9503 0.58244 0.00663 0.0
H555 H 0.94151 0.62132 0.07276 0.0
H556 H 0.01797 0.52117 0.31416 0.0
H557 H 0.01255 0.56155 0.37343 0.0
H558 H 0.03822 0.50394 0.17997 0.0
H559 H 0.02637 0.49599 0.07945 0.0
C560 C 0.98174 0.20053 0.46456 0.0
C561 C 0.98537 0.20287 0.36935 0.0
C562 C 0.96185 0.15136 0.35135 0.0
C563 C 0.96038 0.1475 0.44527 0.0
N564 N 0.96047 0.17212 0.5957 0.0
N565 N 0.97156 0.18789 0.22674 0.0
C566 C 0.96729 0.17365 0.50353 0.0
C567 C 0.9728 0.18072 0.31424 0.0
N568 N 0.99353 0.22275 0.51638 0.0
N569 N 0.95418 0.12611 0.29751 0.0
H570 H 0.97931 0.2095 0.19842 0.0
H571 H 0.96087 0.1742 0.18467 0.0
H572 H 0.94505 0.10497 0.324 0.0
H573 H 0.95768 0.12539 0.22685 0.0
H574 H 0.99423 0.22037 0.58469 0.0
H575 H 1.00387 0.24309 0.48992 0.0
H576 H 0.9626 0.19176 0.64248 0.0
H577 H 0.95016 0.1523 0.6255 0.0
C578 C 0.36343 0.95409 0.36787 0.0
C579 C 0.34217 0.96913 0.44226 0.0
C580 C 0.37286 0.95112 0.54918 0.0
C581 C 0.39561 0.94098 0.47413 0.0
N582 N 0.41346 0.93222 0.31277 0.0
N583 N 0.32543 0.98201 0.60313 0.0
C584 C 0.39104 0.94181 0.38352 0.0
C585 C 0.34633 0.96711 0.53304 0.0
N586 N 0.35701 0.95152 0.2826 0.0
N587 N 0.3769 0.94585 0.63564 0.0
H588 H 0.30547 0.99311 0.59351 0.0
H589 H 0.32808 0.98483 0.67037 0.0
H590 H 0.39637 0.93518 0.65008 0.0
H591 H 0.36055 0.94961 0.69275 0.0
H592 H 0.37064 0.93832 0.22652 0.0
H593 H 0.33693 0.9604 0.2691 0.0
H594 H 0.41268 0.93632 0.24524 0.0
H595 H 0.43356 0.92145 0.32221 0.0
C596 C 0.53409 0.40095 0.48597 0.0
C597 C 0.53221 0.37144 0.53628 0.0
C598 C 0.55803 0.39673 0.6445 0.0
C599 C 0.55221 0.42889 0.61001 0.0
N600 N 0.5487 0.45847 0.47693 0.0
N601 N 0.54681 0.33892 0.65597 0.0
C602 C 0.54503 0.42979 0.52274 0.0
C603 C 0.54602 0.36834 0.61205 0.0
N604 N 0.5244 0.40156 0.40559 0.0
N605 N 0.57464 0.39246 0.70871 0.0
H606 H 0.53771 0.31744 0.63624 0.0
H607 H 0.55623 0.33649 0.71335 0.0
H608 H 0.58618 0.41142 0.73047 0.0
H609 H 0.58618 0.41142 0.73047 0.0
H610 H 0.52288 0.42305 0.36875 0.0
H611 H 0.51774 0.38005 0.37538 0.0
H612 H 0.54463 0.46142 0.4118 0.0
H613 H 0.55813 0.47861 0.50338 0.0
C614 C 0.14798 0.49045 0.40552 0.0
C615 C 0.16408 0.50009 0.3242 0.0
C616 C 0.13562 0.55649 0.3434 0.0
C617 C 0.12069 0.54762 0.42782 0.0
N618 N 0.1141 0.5077 0.54462 0.0
N619 N 0.17613 0.54274 0.21853 0.0
C620 C 0.12743 0.51508 0.46058 0.0
C621 C 0.1587 0.53327 0.29375 0.0
N622 N 0.15164 0.45734 0.42835 0.0
N623 N 0.12742 0.58687 0.3104 0.0
H624 H 0.19278 0.52615 0.17922 0.0
H625 H 0.17544 0.56756 0.19802 0.0
H626 H 0.11157 0.60514 0.34738 0.0
H627 H 0.13504 0.59331 0.24472 0.0
H628 H 0.13811 0.44744 0.4806 0.0
H629 H 0.1671 0.43878 0.39071 0.0
H630 H 0.12075 0.4867 0.57794 0.0
H631 H 0.09682 0.52343 0.5831 0.0
C632 C 0.0634 0.84232 0.3628 0.0
C633 C 0.08395 0.81457 0.3219 0.0
C634 C 0.10319 0.84961 0.20089 0.0
C635 C 0.08228 0.87711 0.24098 0.0
N636 N 0.04793 0.90318 0.37059 0.0
N637 N 0.12742 0.79352 0.21663 0.0
C638 C 0.06428 0.87463 0.32592 0.0
C639 C 0.10531 0.8189 0.24581 0.0
N640 N 0.04198 0.83722 0.43324 0.0
N641 N 0.1199 0.85226 0.11773 0.0
H642 H 0.12919 0.77064 0.24817 0.0
H643 H 0.14515 0.79619 0.16664 0.0
H644 H 0.11945 0.87468 0.0839 0.0
H645 H 0.13308 0.8318 0.07983 0.0
H646 H 0.02454 0.85537 0.45932 0.0
H647 H 0.04055 0.81386 0.46218 0.0
H648 H 0.03656 0.90388 0.43704 0.0
H649 H 0.04787 0.92709 0.34392 0.0
C650 C 0.65066 0.07037 0.27148 0.0
C651 C 0.67293 0.09033 0.23796 0.0
C652 C 0.64522 0.11317 0.12763 0.0
C653 C 0.62241 0.09457 0.16463 0.0
N654 N 0.60062 0.06141 0.28324 0.0
N655 N 0.69007 0.13465 0.14526 0.0
C656 C 0.62426 0.07509 0.2404 0.0
C657 C 0.66979 0.113 0.16932 0.0
N658 N 0.65525 0.0457 0.32964 0.0
N659 N 0.64375 0.12999 0.05096 0.0
H660 H 0.70845 0.13477 0.17394 0.0
H661 H 0.68771 0.15418 0.10227 0.0
H662 H 0.62574 0.13139 0.02018 0.0
H663 H 0.66095 0.14075 0.01454 0.0
H664 H 0.64101 0.02786 0.34849 0.0
H665 H 0.67444 0.041 0.35333 0.0
H666 H 0.59973 0.05015 0.34477 0.0
H667 H 0.58093 0.06409 0.26167 0.0
C668 C 0.45933 0.60677 0.1549 0.0
C669 C 0.45885 0.63918 0.11794 0.0
C670 C 0.46217 0.61211 0.96498 0.0
C671 C 0.46522 0.57971 1.00094 0.0
N672 N 0.45773 0.54554 0.12793 0.0
N673 N 0.45235 0.67387 0.99441 0.0
C674 C 0.46069 0.57692 0.09577 0.0
C675 C 0.45759 0.6422 0.02495 0.0
N676 N 0.45941 0.6047 0.2456 0.0
N677 N 0.46514 0.61392 0.87306 0.0
H678 H 0.44927 0.69632 0.03699 0.0
H679 H 0.44892 0.67795 0.92907 0.0
H680 H 0.46625 0.59228 0.8288 0.0
H681 H 0.46712 0.6364 0.84035 0.0
H682 H 0.46234 0.58183 0.27599 0.0
H683 H 0.45739 0.6263 0.29082 0.0
H684 H 0.45484 0.54073 0.19625 0.0
H685 H 0.45568 0.52464 0.08467 0.0
C686 C 0.89222 0.38365 0.37385 0.0
C687 C 0.8648 0.38256 0.34984 0.0
C688 C 0.88717 0.36715 0.19079 0.0
C689 C 0.91434 0.37066 0.21392 0.0
N690 N 0.94389 0.36946 0.32756 0.0
N691 N 0.83659 0.3623 0.24466 0.0
C692 C 0.91719 0.37428 0.30603 0.0
C693 C 0.86251 0.37024 0.26119 0.0
N694 N 0.89447 0.39604 0.45891 0.0
N695 N 0.88468 0.36325 0.10152 0.0
H696 H 0.81832 0.36441 0.29593 0.0
H697 H 0.83386 0.35067 0.18321 0.0
H698 H 0.90241 0.36 0.04834 0.0
H699 H 0.86505 0.36484 0.0799 0.0
H700 H 0.91386 0.40105 0.47665 0.0
H701 H 0.87675 0.40328 0.5107 0.0
H702 H 0.94745 0.36926 0.39405 0.0
H703 H 0.96221 0.36199 0.27793 0.0
C704 C 0.01524 0.16953 0.8317 0.0
C705 C 0.01913 0.17945 0.92078 0.0
C706 C 0.01142 0.12162 0.96671 0.0
C707 C 1.01104 0.11051 0.87526 0.0
N708 N 0.0148 0.12305 0.71814 0.0
N709 N 0.02544 0.16341 0.06967 0.0
C710 C 0.01326 0.13433 0.80701 0.0
C711 C 0.01831 0.1551 0.9875 0.0
N712 N 0.01324 0.19389 0.77107 0.0
N713 N 1.00431 0.10044 0.03448 0.0
H714 H 0.03056 0.18757 0.08818 0.0
H715 H 0.02855 0.14563 0.11685 0.0
H716 H 0.99842 0.07607 0.02236 0.0
H717 H 1.00142 0.10821 0.10338 0.0
H718 H 1.00796 0.18915 0.7076 0.0
H719 H 0.01482 0.21965 0.78708 0.0
H720 H 0.01941 0.13816 0.66375 0.0
H721 H 0.01338 0.09767 0.69764 0.0
C722 C 0.38125 0.0114 0.06253 0.0
C723 C 0.35962 0.01375 0.00831 0.0
C724 C 0.39724 0.01607 0.87227 0.0
C725 C 0.41907 0.01073 0.92532 0.0
N726 N 0.43131 0.99594 0.0692 0.0
N727 N 0.34744 0.01246 0.85941 0.0
C728 C 0.41089 0.00631 0.01995 0.0
C729 C 0.3678 0.01426 0.91244 0.0
N730 N 0.3736 0.01554 0.15527 0.0
N731 N 0.40437 0.02477 0.78476 0.0
H732 H 0.32583 0.01113 0.88647 0.0
H733 H 0.35231 0.0093 0.7887 0.0
H734 H 0.42532 0.02781 0.75442 0.0
H735 H 0.38929 0.03231 0.74529 0.0
H736 H 0.38834 0.01797 0.1981 0.0
H737 H 0.35231 0.01966 0.18959 0.0
H738 H 0.42633 0.98826 0.13505 0.0
H739 H 0.45319 0.99173 0.04187 0.0
C740 C 0.48408 0.39971 0.13447 0.0
C741 C 0.48295 0.36713 0.09042 0.0
C742 C 0.49688 0.39 0.94203 0.0
C743 C 0.49566 0.42357 0.98482 0.0
N744 N 0.48545 0.46064 0.12359 0.0
N745 N 0.48835 0.33101 0.95183 0.0
C746 C 0.48877 0.42842 0.08168 0.0
C747 C 0.48923 0.36236 0.99439 0.0
N748 N 0.48169 0.40295 0.227 0.0
N749 N 0.50608 0.38303 0.8508 0.0
H750 H 0.48279 0.30983 0.98707 0.0
H751 H 0.49277 0.32646 0.88112 0.0
H752 H 0.51371 0.40078 0.80611 0.0
H753 H 0.51371 0.40078 0.80611 0.0
H754 H 0.48565 0.42479 0.26277 0.0
H755 H 0.47793 0.38278 0.26816 0.0
H756 H 0.47633 0.46659 0.19192 0.0
H757 H 0.49012 0.4821 0.08908 0.0
C758 C 0.1487 0.50996 0.82684 0.0
C759 C 0.15672 0.48361 0.88118 0.0
C760 C 0.10635 0.47134 0.91575 0.0
C761 C 0.09886 0.49423 0.85119 0.0
N762 N 0.11404 0.53542 0.74324 0.0
N763 N 0.1435 0.43698 0.97201 0.0
C764 C 0.12028 0.51385 0.80692 0.0
C765 C 0.13566 0.46356 0.92346 0.0
N766 N 0.16827 0.53156 0.79466 0.0
N767 N 0.08524 0.45903 0.9755 0.0
H768 H 0.1641 0.43172 0.98553 0.0
H769 H 0.13001 0.41864 0.9936 0.0
H770 H 0.06347 0.46595 0.97768 0.0
H771 H 0.08911 0.44544 0.03052 0.0
H772 H 0.16302 0.55416 0.76555 0.0
H773 H 0.18966 0.52814 0.80253 0.0
H774 H 0.12947 0.54675 0.70024 0.0
H775 H 0.09373 0.54048 0.72792 0.0
C776 C 0.98355 0.84504 0.77348 0.0
C777 C 1.00722 0.8273 0.7113 0.0
C778 C 0.03132 0.87963 0.70179 0.0
C779 C 1.0082 0.89709 0.76673 0.0
N780 N 0.96411 0.89588 0.8741 0.0
N781 N 0.05609 0.82543 0.63028 0.0
C782 C 0.9849 0.87953 0.8059 0.0
C783 C 0.03184 0.84395 0.67969 0.0
N784 N 0.9595 0.82915 0.79951 0.0
N785 N 0.05257 0.89732 0.65958 0.0
H786 H 0.05726 0.79944 0.6108 0.0
H787 H 0.07576 0.8351 0.61397 0.0
H788 H 0.05403 0.92294 0.67755 0.0
H789 H 0.06776 0.88728 0.60283 0.0
H790 H 0.94024 0.84153 0.83666 0.0
H791 H 0.95825 0.80367 0.77918 0.0
H792 H 0.94813 0.88373 0.91226 0.0
H793 H 0.96388 0.9214 0.89692 0.0
C794 C 0.65013 0.96902 0.66928 0.0
C795 C 0.65809 0.9955 0.61243 0.0
C796 C 0.60715 0.01874 0.63222 0.0
C797 C 0.59947 0.9946 0.69685 0.0
N798 N 0.61407 0.94874 0.78431 0.0
N799 N 0.64464 0.0492 0.55283 0.0
C800 C 0.62108 0.97013 0.71707 0.0
C801 C 0.6367 0.02136 0.59754 0.0
N802 N 0.67023 0.94242 0.676 0.0
N803 N 0.58615 0.03817 0.6005 0.0
H804 H 0.66597 0.05233 0.52672 0.0
H805 H 0.63034 0.07063 0.54855 0.0
H806 H 0.56433 0.03616 0.62153 0.0
H807 H 0.59036 0.05358 0.54648 0.0
H808 H 0.66536 0.92048 0.70837 0.0
H809 H 0.69161 0.94111 0.64288 0.0
H810 H 0.62919 0.93296 0.80968 0.0
H811 H 0.59312 0.94856 0.81965 0.0
C812 C 0.52182 0.61785 0.51567 0.0
C813 C 0.52676 0.64866 0.56125 0.0
C814 C 0.53396 0.61772 0.69458 0.0
C815 C 0.52921 0.58687 0.64874 0.0
N816 N 0.5251 0.55585 0.50975 0.0
N817 N 0.54357 0.67693 0.68433 0.0
C818 C 0.52527 0.58644 0.55718 0.0
C819 C 0.53491 0.64818 0.64757 0.0
N820 N 0.51234 0.61887 0.43488 0.0
N821 N 0.53579 0.61842 0.78463 0.0
H822 H 0.54426 0.69959 0.65149 0.0
H823 H 0.55242 0.67751 0.74292 0.0
H824 H 0.53551 0.59669 0.82128 0.0
H825 H 0.53558 0.64087 0.82489 0.0
H826 H 0.5049 0.59816 0.40396 0.0
H827 H 0.51011 0.64114 0.40107 0.0
H828 H 0.52531 0.55331 0.44012 0.0
H829 H 0.52735 0.53251 0.53871 0.0
C830 C 0.87194 0.53467 0.81796 0.0
C831 C 0.86859 0.51539 0.73826 0.0
C832 C 0.92097 0.5016 0.69758 0.0
C833 C 0.92405 0.51668 0.78296 0.0
N834 N 0.90195 0.54424 0.92987 0.0
N835 N 0.88999 0.47426 0.61231 0.0
C836 C 0.89938 0.53252 0.84462 0.0
C837 C 0.89314 0.49719 0.68067 0.0
N838 N 0.84906 0.55559 0.86705 0.0
N839 N 0.94462 0.49254 0.63095 0.0
H840 H 0.87007 0.46904 0.59902 0.0
H841 H 0.9071 0.4578 0.57482 0.0
H842 H 0.96523 0.49673 0.63942 0.0
H843 H 0.94344 0.48447 0.56447 0.0
H844 H 0.85073 0.57277 0.92065 0.0
H845 H 0.82886 0.55795 0.8489 0.0
H846 H 0.88442 0.55286 0.9812 0.0
H847 H 0.92161 0.54264 0.95154 0.0
loop_
_geom_bond_atom_site_label_1
_geom_bond_atom_site_label_2
_geom_bond_distance
_geom_bond_site_symmetry_2
_ccdc_geom_bond_type
P0 O11 1.490 . S
P0 C14 1.812 . S
P0 C20 1.803 . S
P0 C26 1.819 . S
H1 C15 0.941 . S
H2 C16 0.939 . S
H3 C18 0.940 . S
H4 C19 0.940 . S
H5 C21 0.939 . S
H6 C22 0.942 . S
H7 C24 0.940 . S
H8 C25 0.939 . S
H9 C27 0.941 . S
H10 C31 0.939 . S
O11 P0 1.490 . S
H12 C28 0.939 . S
H13 C30 0.940 . S
C14 P0 1.812 . S
C14 C15 1.389 . S
C14 C19 1.391 . S
C15 H1 0.941 . S
C15 C14 1.389 . S
C15 C16 1.397 . S
C16 H2 0.939 . S
C16 C15 1.397 . S
C16 C17 1.378 . S
C17 C16 1.378 . S
C17 C18 1.378 . S
C18 H3 0.940 . S
C18 C17 1.378 . S
C18 C19 1.396 . S
C19 H4 0.940 . S
C19 C14 1.391 . S
C19 C18 1.396 . S
C20 P0 1.803 . S
C20 C21 1.378 . S
C20 C25 1.400 . S
C21 H5 0.939 . S
C21 C20 1.378 . S
C21 C22 1.361 . S
C22 H6 0.942 . S
C22 C21 1.361 . S
C22 C23 1.369 . S
C23 C22 1.369 . S
C23 C24 1.404 . S
C24 H7 0.940 . S
C24 C23 1.404 . S
C24 C25 1.389 . S
C25 H8 0.939 . S
C25 C20 1.400 . S
C25 C24 1.389 . S
C26 P0 1.819 . S
C26 C27 1.391 . S
C26 C31 1.391 . S
C27 H9 0.941 . S
C27 C26 1.391 . S
C27 C28 1.396 . S
C28 H12 0.939 . S
C28 C27 1.396 . S
C28 C29 1.397 . S
C29 C28 1.397 . S
C29 C30 1.385 . S
C30 H13 0.940 . S
C30 C29 1.385 . S
C30 C31 1.388 . S
C31 H10 0.939 . S
C31 C26 1.391 . S
C31 C30 1.388 . S
P32 O43 1.490 . S
P32 C46 1.812 . S
P32 C52 1.803 . S
P32 C58 1.819 . S
H33 C47 0.941 . S
H34 C48 0.939 . S
H35 C50 0.940 . S
H36 C51 0.953 . S
H37 C53 0.939 . S
H38 C54 0.942 . S
H39 C56 0.940 . S
H40 C57 0.953 . S
H41 C59 0.941 . S
H42 C63 0.926 1_655 S
O43 P32 1.490 . S
H44 C60 0.939 . S
H45 C62 0.940 . S
C46 P32 1.812 . S
C46 C47 1.389 . S
C46 C51 1.376 1_455 S
C47 H33 0.941 . S
C47 C46 1.389 . S
C47 C48 1.397 . S
C48 H34 0.939 . S
C48 C47 1.397 . S
C48 C49 1.378 . S
C49 C48 1.378 . S
C49 C50 1.378 1_455 S
C50 H35 0.940 . S
C50 C49 1.378 1_655 S
C50 C51 1.399 . S
C51 H36 0.953 . S
C51 C46 1.376 1_655 S
C51 C50 1.399 . S
C52 P32 1.803 . S
C52 C53 1.378 . S
C52 C57 1.369 1_455 S
C53 H37 0.939 . S
C53 C52 1.378 . S
C53 C54 1.361 . S
C54 H38 0.942 . S
C54 C53 1.361 . S
C54 C55 1.369 . S
C55 C54 1.369 . S
C55 C56 1.404 1_455 S
C56 H39 0.940 . S
C56 C55 1.404 1_655 S
C56 C57 1.407 . S
C57 H40 0.953 . S
C57 C52 1.369 1_655 S
C57 C56 1.407 . S
C58 P32 1.819 . S
C58 C59 1.391 . S
C58 C63 1.391 . S
C59 H41 0.941 . S
C59 C58 1.391 . S
C59 C60 1.396 . S
C60 H44 0.939 . S
C60 C59 1.396 . S
C60 C61 1.397 . S
C61 C60 1.397 . S
C61 C62 1.385 1_455 S
C62 H45 0.940 . S
C62 C61 1.385 1_655 S
C62 C63 1.388 1_655 S
C63 H42 0.926 1_455 S
C63 C58 1.391 . S
C63 C62 1.388 1_455 S
P64 O75 1.490 . S
P64 C78 1.812 . S
P64 C84 1.803 . S
P64 C90 1.819 . S
H65 C79 0.941 . S
H66 C80 0.939 . S
H67 C82 0.940 . S
H68 C83 0.949 . S
H69 C85 0.939 . S
H70 C86 0.942 . S
H71 C88 0.940 . S
H72 C89 0.963 . S
H73 C91 0.941 . S
H74 C95 0.932 1_565 S
O75 P64 1.490 . S
H76 C92 0.939 . S
H77 C94 0.940 . S
C78 P64 1.812 . S
C78 C79 1.389 . S
C78 C83 1.374 1_545 S
C79 H65 0.941 . S
C79 C78 1.389 . S
C79 C80 1.397 . S
C80 H66 0.939 . S
C80 C79 1.397 . S
C80 C81 1.378 . S
C81 C80 1.378 . S
C81 C82 1.378 1_545 S
C82 H67 0.940 . S
C82 C81 1.378 1_565 S
C82 C83 1.404 . S
C83 H68 0.949 . S
C83 C78 1.374 1_565 S
C83 C82 1.404 . S
C84 P64 1.803 . S
C84 C85 1.378 . S
C84 C89 1.369 1_545 S
C85 H69 0.939 . S
C85 C84 1.378 . S
C85 C86 1.361 . S
C86 H70 0.942 . S
C86 C85 1.361 . S
C86 C87 1.369 . S
C87 C86 1.369 . S
C87 C88 1.404 1_545 S
C88 H71 0.940 . S
C88 C87 1.404 1_565 S
C88 C89 1.398 . S
C89 H72 0.963 . S
C89 C84 1.369 1_565 S
C89 C88 1.398 . S
C90 P64 1.819 . S
C90 C91 1.391 . S
C90 C95 1.391 . S
C91 H73 0.941 . S
C91 C90 1.391 . S
C91 C92 1.396 . S
C92 H76 0.939 . S
C92 C91 1.396 . S
C92 C93 1.397 . S
C93 C92 1.397 . S
C93 C94 1.385 1_545 S
C94 H77 0.940 . S
C94 C93 1.385 1_565 S
C94 C95 1.388 1_565 S
C95 H74 0.932 1_545 S
C95 C90 1.391 . S
C95 C94 1.388 1_545 S
P96 O107 1.490 . S
P96 C110 1.812 . S
P96 C116 1.803 . S
P96 C122 1.819 . S
H97 C111 0.941 . S
H98 C112 0.939 . S
H99 C114 0.940 . S
H100 C115 0.940 . S
H101 C117 0.939 . S
H102 C118 0.942 . S
H103 C120 0.940 . S
H104 C121 0.939 . S
H105 C123 0.941 . S
H106 C127 0.939 . S
O107 P96 1.490 . S
H108 C124 0.939 . S
H109 C126 0.940 1_556 S
C110 P96 1.812 . S
C110 C111 1.389 . S
C110 C115 1.391 . S
C111 H97 0.941 . S
C111 C110 1.389 . S
C111 C112 1.397 . S
C112 H98 0.939 . S
C112 C111 1.397 . S
C112 C113 1.378 . S
C113 C112 1.378 . S
C113 C114 1.378 . S
C114 H99 0.940 . S
C114 C113 1.378 . S
C114 C115 1.396 . S
C115 H100 0.940 . S
C115 C110 1.391 . S
C115 C114 1.396 . S
C116 P96 1.803 . S
C116 C117 1.378 . S
C116 C121 1.400 . S
C117 H101 0.939 . S
C117 C116 1.378 . S
C117 C118 1.361 . S
C118 H102 0.942 . S
C118 C117 1.361 . S
C118 C119 1.369 . S
C119 C118 1.369 . S
C119 C120 1.404 . S
C120 H103 0.940 . S
C120 C119 1.404 . S
C120 C121 1.389 . S
C121 H104 0.939 . S
C121 C116 1.400 . S
C121 C120 1.389 . S
C122 P96 1.819 . S
C122 C123 1.391 . S
C122 C127 1.391 . S
C123 H105 0.941 . S
C123 C122 1.391 . S
C123 C124 1.396 . S
C124 H108 0.939 . S
C124 C123 1.396 . S
C124 C125 1.397 . S
C125 C124 1.397 . S
C125 C126 1.385 . S
C126 H109 0.940 1_554 S
C126 C125 1.385 . S
C126 C127 1.388 . S
C127 H106 0.939 . S
C127 C122 1.391 . S
C127 C126 1.388 . S
P128 O139 1.490 . S
P128 C142 1.812 . S
P128 C148 1.803 1_556 S
P128 C154 1.819 1_556 S
H129 C143 0.941 . S
H130 C144 0.939 . S
H131 C146 0.940 . S
H132 C147 0.940 . S
H133 C149 0.939 . S
H134 C150 0.942 . S
H135 C152 0.940 1_556 S
H136 C153 0.939 . S
H137 C155 0.941 . S
H138 C159 0.939 . S
O139 P128 1.490 . S
H140 C156 0.939 . S
H141 C158 0.940 . S
C142 P128 1.812 . S
C142 C143 1.389 . S
C142 C147 1.391 . S
C143 H129 0.941 . S
C143 C142 1.389 . S
C143 C144 1.397 . S
C144 H130 0.939 . S
C144 C143 1.397 . S
C144 C145 1.378 . S
C145 C144 1.378 . S
C145 C146 1.378 . S
C146 H131 0.940 . S
C146 C145 1.378 . S
C146 C147 1.396 . S
C147 H132 0.940 . S
C147 C142 1.391 . S
C147 C146 1.396 . S
C148 P128 1.803 1_554 S
C148 C149 1.378 . S
C148 C153 1.400 1_554 S
C149 H133 0.939 . S
C149 C148 1.378 . S
C149 C150 1.361 . S
C150 H134 0.942 . S
C150 C149 1.361 . S
C150 C151 1.369 . S
C151 C150 1.369 . S
C151 C152 1.404 . S
C152 H135 0.940 1_554 S
C152 C151 1.404 . S
C152 C153 1.389 1_554 S
C153 H136 0.939 . S
C153 C148 1.400 1_556 S
C153 C152 1.389 1_556 S
C154 P128 1.819 1_554 S
C154 C155 1.391 . S
C154 C159 1.391 . S
C155 H137 0.941 . S
C155 C154 1.391 . S
C155 C156 1.396 . S
C156 H140 0.939 . S
C156 C155 1.396 . S
C156 C157 1.397 . S
C157 C156 1.397 . S
C157 C158 1.385 . S
C158 H141 0.940 . S
C158 C157 1.385 . S
C158 C159 1.388 . S
C159 H138 0.939 . S
C159 C154 1.391 . S
C159 C158 1.388 . S
P160 O171 1.490 . S
P160 C174 1.812 . S
P160 C180 1.803 . S
P160 C186 1.819 . S
H161 C175 0.941 . S
H162 C176 0.939 . S
H163 C178 0.940 . S
H164 C179 0.943 . S
H165 C181 0.939 . S
H166 C182 0.942 . S
H167 C184 0.940 . S
H168 C185 0.958 . S
H169 C187 0.941 . S
H170 C191 0.935 1_655 S
O171 P160 1.490 . S
H172 C188 0.939 . S
H173 C190 0.940 . S
C174 P160 1.812 . S
C174 C175 1.389 1_554 S
C174 C179 1.383 1_455 S
C175 H161 0.941 . S
C175 C174 1.389 1_556 S
C175 C176 1.397 . S
C176 H162 0.939 . S
C176 C175 1.397 . S
C176 C177 1.378 . S
C177 C176 1.378 . S
C177 C178 1.378 1_455 S
C178 H163 0.940 . S
C178 C177 1.378 1_655 S
C178 C179 1.401 1_556 S
C179 H164 0.943 . S
C179 C174 1.383 1_655 S
C179 C178 1.401 1_554 S
C180 P160 1.803 . S
C180 C181 1.378 . S
C180 C185 1.377 1_455 S
C181 H165 0.939 . S
C181 C180 1.378 . S
C181 C182 1.361 . S
C182 H166 0.942 . S
C182 C181 1.361 . S
C182 C183 1.369 . S
C183 C182 1.369 . S
C183 C184 1.404 1_455 S
C184 H167 0.940 . S
C184 C183 1.404 1_655 S
C184 C185 1.395 . S
C185 H168 0.958 . S
C185 C180 1.377 1_655 S
C185 C184 1.395 . S
C186 P160 1.819 . S
C186 C187 1.391 . S
C186 C191 1.391 . S
C187 H169 0.941 . S
C187 C186 1.391 . S
C187 C188 1.396 . S
C188 H172 0.939 . S
C188 C187 1.396 . S
C188 C189 1.397 . S
C189 C188 1.397 . S
C189 C190 1.385 1_455 S
C190 H173 0.940 . S
C190 C189 1.385 1_655 S
C190 C191 1.388 1_655 S
C191 H170 0.935 1_455 S
C191 C186 1.391 . S
C191 C190 1.388 1_455 S
P192 O203 1.490 . S
P192 C206 1.812 . S
P192 C212 1.803 . S
P192 C218 1.819 . S
H193 C207 0.941 . S
H194 C208 0.939 . S
H195 C210 0.940 . S
H196 C211 0.946 . S
H197 C213 0.939 . S
H198 C214 0.942 . S
H199 C216 0.940 . S
H200 C217 0.952 . S
H201 C219 0.941 . S
H202 C223 0.929 1_565 S
O203 P192 1.490 . S
H204 C220 0.939 . S
H205 C222 0.940 . S
C206 P192 1.812 . S
C206 C207 1.389 . S
C206 C211 1.383 1_545 S
C207 H193 0.941 . S
C207 C206 1.389 . S
C207 C208 1.397 1_554 S
C208 H194 0.939 . S
C208 C207 1.397 1_556 S
C208 C209 1.378 . S
C209 C208 1.378 . S
C209 C210 1.378 1_546 S
C210 H195 0.940 . S
C210 C209 1.378 1_564 S
C210 C211 1.399 . S
C211 H196 0.946 . S
C211 C206 1.383 1_565 S
C211 C210 1.399 . S
C212 P192 1.803 . S
C212 C213 1.378 . S
C212 C217 1.375 1_545 S
C213 H197 0.939 . S
C213 C212 1.378 . S
C213 C214 1.361 . S
C214 H198 0.942 . S
C214 C213 1.361 . S
C214 C215 1.369 . S
C215 C214 1.369 . S
C215 C216 1.404 1_545 S
C216 H199 0.940 . S
C216 C215 1.404 1_565 S
C216 C217 1.402 . S
C217 H200 0.952 . S
C217 C212 1.375 1_565 S
C217 C216 1.402 . S
C218 P192 1.819 . S
C218 C219 1.391 . S
C218 C223 1.391 . S
C219 H201 0.941 . S
C219 C218 1.391 . S
C219 C220 1.396 . S
C220 H204 0.939 . S
C220 C219 1.396 . S
C220 C221 1.397 . S
C221 C220 1.397 . S
C221 C222 1.385 1_545 S
C222 H205 0.940 . S
C222 C221 1.385 1_565 S
C222 C223 1.388 1_565 S
C223 H202 0.929 1_545 S
C223 C218 1.391 . S
C223 C222 1.388 1_545 S
P224 O235 1.490 . S
P224 C238 1.812 . S
P224 C244 1.803 . S
P224 C250 1.819 . S
H225 C239 0.941 . S
H226 C240 0.939 . S
H227 C242 0.940 . S
H228 C243 0.940 . S
H229 C245 0.939 . S
H230 C246 0.942 . S
H231 C248 0.940 . S
H232 C249 0.939 . S
H233 C251 0.941 . S
H234 C255 0.939 . S
O235 P224 1.490 . S
H236 C252 0.939 . S
H237 C254 0.940 . S
C238 P224 1.812 . S
C238 C239 1.389 . S
C238 C243 1.391 . S
C239 H225 0.941 . S
C239 C238 1.389 . S
C239 C240 1.397 . S
C240 H226 0.939 . S
C240 C239 1.397 . S
C240 C241 1.378 . S
C241 C240 1.378 . S
C241 C242 1.378 . S
C242 H227 0.940 . S
C242 C241 1.378 . S
C242 C243 1.396 . S
C243 H228 0.940 . S
C243 C238 1.391 . S
C243 C242 1.396 . S
C244 P224 1.803 . S
C244 C245 1.378 . S
C244 C249 1.400 . S
C245 H229 0.939 . S
C245 C244 1.378 . S
C245 C246 1.361 . S
C246 H230 0.942 . S
C246 C245 1.361 . S
C246 C247 1.369 . S
C247 C246 1.369 . S
C247 C248 1.404 . S
C248 H231 0.940 . S
C248 C247 1.404 . S
C248 C249 1.389 . S
C249 H232 0.939 . S
C249 C244 1.400 . S
C249 C248 1.389 . S
C250 P224 1.819 . S
C250 C251 1.391 . S
C250 C255 1.391 . S
C251 H233 0.941 . S
C251 C250 1.391 . S
C251 C252 1.396 . S
C252 H236 0.939 . S
C252 C251 1.396 . S
C252 C253 1.397 . S
C253 C252 1.397 . S
C253 C254 1.385 . S
C254 H237 0.940 . S
C254 C253 1.385 . S
C254 C255 1.388 . S
C255 H234 0.939 . S
C255 C250 1.391 . S
C255 C254 1.388 . S
Dy256 O259 2.307 1_545 S
Dy256 O261 2.395 1_655 S
Dy256 O262 2.379 . S
Dy256 O264 2.339 . S
Dy256 O266 2.298 . S
Dy256 O270 2.275 1_655 S
Dy256 C278 2.738 . S
Dy257 O260 2.298 . S
Dy257 O263 2.275 1_455 S
Dy257 O265 2.307 1_565 S
Dy257 O267 2.395 1_455 S
Dy257 O268 2.379 . S
Dy257 O271 2.339 . S
Dy257 C287 2.738 . S
C258 O270 1.254 1_565 S
C258 O271 1.257 . S
O259 Dy256 2.307 1_565 S
O259 C269 1.266 . S
O260 Dy257 2.298 . S
O260 C269 1.236 1_455 S
O261 Dy256 2.395 1_455 S
O261 C278 1.255 1_455 S
O262 Dy256 2.379 . S
O262 C278 1.249 . S
O263 Dy257 2.275 1_655 S
O263 C279 1.254 1_565 S
O264 Dy256 2.339 . S
O264 C279 1.257 . S
O265 Dy257 2.307 1_545 S
O265 C280 1.266 . S
O266 Dy256 2.298 . S
O266 C280 1.236 1_655 S
O267 Dy257 2.395 1_655 S
O267 C287 1.255 1_655 S
O268 Dy257 2.379 . S
O268 C287 1.249 . S
C269 O259 1.266 . S
C269 O260 1.236 1_655 S
O270 Dy256 2.275 1_455 S
O270 C258 1.254 1_545 S
O271 Dy257 2.339 . S
O271 C258 1.257 . S
C272 C275 1.344 . S
C272 C276 1.328 . S
C272 C278 1.516 . S
C273 C274 1.304 . S
C273 C277 1.323 . S
C274 C273 1.304 . S
C274 C275 1.371 . S
C274 H288 0.930 1_655 S
C275 C272 1.344 . S
C275 C274 1.371 . S
C275 H289 0.931 1_655 S
C276 C272 1.328 . S
C276 C277 1.433 . S
C276 H290 0.931 . S
C277 C273 1.323 . S
C277 C276 1.433 . S
C277 H291 0.933 . S
C278 Dy256 2.738 . S
C278 O261 1.255 1_655 S
C278 O262 1.249 . S
C278 C272 1.516 . S
C279 O263 1.254 1_545 S
C279 O264 1.257 . S
C280 O265 1.266 . S
C280 O266 1.236 1_455 S
C281 C284 1.344 . S
C281 C285 1.328 . S
C281 C287 1.516 1_554 S
C282 C283 1.304 . S
C282 C286 1.323 . S
C283 C282 1.304 . S
C283 C284 1.371 . S
C283 H292 0.930 1_455 S
C284 C281 1.344 . S
C284 C283 1.371 . S
C284 H293 0.931 1_455 S
C285 C281 1.328 . S
C285 C286 1.433 . S
C285 H294 0.931 . S
C286 C282 1.323 . S
C286 C285 1.433 . S
C286 H295 0.933 . S
C287 Dy257 2.738 . S
C287 O267 1.255 1_455 S
C287 O268 1.249 . S
C287 C281 1.516 1_556 S
H288 C274 0.930 1_455 S
H289 C275 0.931 1_455 S
H290 C276 0.931 . S
H291 C277 0.933 . S
H292 C283 0.930 1_655 S
H293 C284 0.931 1_655 S
H294 C285 0.931 . S
H295 C286 0.933 . S
Dy296 O299 2.307 . S
Dy296 O301 2.395 1_565 S
Dy296 O302 2.379 . S
Dy296 O304 2.339 . S
Dy296 O306 2.298 . S
Dy296 O310 2.275 1_565 S
Dy296 C318 2.738 . S
Dy297 O300 2.298 . S
Dy297 O303 2.275 1_545 S
Dy297 O305 2.307 . S
Dy297 O307 2.395 1_545 S
Dy297 O308 2.379 . S
Dy297 O311 2.339 . S
Dy297 C327 2.738 . S
C298 O310 1.254 . S
C298 O311 1.257 . S
O299 Dy296 2.307 . S
O299 C309 1.266 . S
O300 Dy297 2.298 . S
O300 C309 1.236 1_545 S
O301 Dy296 2.395 1_545 S
O301 C318 1.255 1_545 S
O302 Dy296 2.379 . S
O302 C318 1.249 . S
O303 Dy297 2.275 1_565 S
O303 C319 1.254 . S
O304 Dy296 2.339 . S
O304 C319 1.257 . S
O305 Dy297 2.307 . S
O305 C320 1.266 . S
O306 Dy296 2.298 . S
O306 C320 1.236 1_565 S
O307 Dy297 2.395 1_565 S
O307 C327 1.255 1_565 S
O308 Dy297 2.379 . S
O308 C327 1.249 . S
C309 O299 1.266 . S
C309 O300 1.236 1_565 S
O310 Dy296 2.275 1_545 S
O310 C298 1.254 . S
O311 Dy297 2.339 . S
O311 C298 1.257 . S
C312 C315 1.344 . S
C312 C316 1.328 . S
C312 C318 1.516 . S
C313 C314 1.304 . S
C313 C317 1.323 . S
C314 C313 1.304 . S
C314 C315 1.371 . S
C314 H328 0.930 1_565 S
C315 C312 1.344 . S
C315 C314 1.371 . S
C315 H329 0.931 1_565 S
C316 C312 1.328 . S
C316 C317 1.433 . S
C316 H330 0.931 . S
C317 C313 1.323 . S
C317 C316 1.433 . S
C317 H331 0.933 . S
C318 Dy296 2.738 . S
C318 O301 1.255 1_565 S
C318 O302 1.249 . S
C318 C312 1.516 . S
C319 O303 1.254 . S
C319 O304 1.257 . S
C320 O305 1.266 . S
C320 O306 1.236 1_545 S
C321 C324 1.344 . S
C321 C325 1.328 . S
C321 C327 1.516 1_554 S
C322 C323 1.304 . S
C322 C326 1.323 . S
C323 C322 1.304 . S
C323 C324 1.371 . S
C323 H332 0.930 1_545 S
C324 C321 1.344 . S
C324 C323 1.371 . S
C324 H333 0.931 1_545 S
C325 C321 1.328 . S
C325 C326 1.433 . S
C325 H334 0.931 . S
C326 C322 1.323 . S
C326 C325 1.433 . S
C326 H335 0.933 . S
C327 Dy297 2.738 . S
C327 O307 1.255 1_545 S
C327 O308 1.249 . S
C327 C321 1.516 1_556 S
H328 C314 0.930 1_545 S
H329 C315 0.931 1_545 S
H330 C316 0.931 . S
H331 C317 0.933 . S
H332 C323 0.930 1_565 S
H333 C324 0.931 1_565 S
H334 C325 0.931 . S
H335 C326 0.933 . S
Dy336 O339 2.307 . S
Dy336 O341 2.395 . S
Dy336 O342 2.379 . S
Dy336 O344 2.339 . S
Dy336 O346 2.298 . S
Dy336 O350 2.275 . S
Dy336 C358 2.738 . S
Dy337 O340 2.298 . S
Dy337 O343 2.275 . S
Dy337 O345 2.307 . S
Dy337 O347 2.395 . S
Dy337 O348 2.379 . S
Dy337 O351 2.339 . S
Dy337 C367 2.738 . S
C338 O350 1.254 . S
C338 O351 1.257 . S
O339 Dy336 2.307 . S
O339 C349 1.266 . S
O340 Dy337 2.298 . S
O340 C349 1.236 . S
O341 Dy336 2.395 . S
O341 C358 1.255 . S
O342 Dy336 2.379 . S
O342 C358 1.249 . S
O343 Dy337 2.275 . S
O343 C359 1.254 . S
O344 Dy336 2.339 . S
O344 C359 1.257 . S
O345 Dy337 2.307 . S
O345 C360 1.266 . S
O346 Dy336 2.298 . S
O346 C360 1.236 . S
O347 Dy337 2.395 . S
O347 C367 1.255 . S
O348 Dy337 2.379 . S
O348 C367 1.249 . S
C349 O339 1.266 . S
C349 O340 1.236 . S
O350 Dy336 2.275 . S
O350 C338 1.254 . S
O351 Dy337 2.339 . S
O351 C338 1.257 . S
C352 C355 1.344 1_556 S
C352 C356 1.328 . S
C352 C358 1.516 . S
C353 C354 1.304 . S
C353 C357 1.323 1_554 S
C354 C353 1.304 . S
C354 C355 1.371 . S
C354 H368 0.930 . S
C355 C352 1.344 1_554 S
C355 C354 1.371 . S
C355 H369 0.931 . S
C356 C352 1.328 . S
C356 C357 1.433 . S
C356 H370 0.931 . S
C357 C353 1.323 1_556 S
C357 C356 1.433 . S
C357 H371 0.933 . S
C358 Dy336 2.738 . S
C358 O341 1.255 . S
C358 O342 1.249 . S
C358 C352 1.516 . S
C359 O343 1.254 . S
C359 O344 1.257 . S
C360 O345 1.266 . S
C360 O346 1.236 . S
C361 C364 1.344 . S
C361 C365 1.328 . S
C361 C367 1.516 . S
C362 C363 1.304 . S
C362 C366 1.323 . S
C363 C362 1.304 . S
C363 C364 1.371 . S
C363 H372 0.930 . S
C364 C361 1.344 . S
C364 C363 1.371 . S
C364 H373 0.931 . S
C365 C361 1.328 . S
C365 C366 1.433 . S
C365 H374 0.931 . S
C366 C362 1.323 . S
C366 C365 1.433 . S
C366 H375 0.933 . S
C367 Dy337 2.738 . S
C367 O347 1.255 . S
C367 O348 1.249 . S
C367 C361 1.516 . S
H368 C354 0.930 . S
H369 C355 0.931 . S
H370 C356 0.931 . S
H371 C357 0.933 . S
H372 C363 0.930 . S
H373 C364 0.931 . S
H374 C365 0.931 . S
H375 C366 0.933 . S
Dy376 O379 2.307 1_455 S
Dy376 O381 2.395 . S
Dy376 O382 2.379 . S
Dy376 O384 2.339 . S
Dy376 O386 2.298 . S
Dy376 O390 2.275 . S
Dy376 C398 2.738 . S
Dy377 O380 2.298 . S
Dy377 O383 2.275 . S
Dy377 O385 2.307 1_655 S
Dy377 O387 2.395 1_556 S
Dy377 O388 2.379 . S
Dy377 O391 2.339 . S
Dy377 C407 2.738 1_556 S
C378 O390 1.254 1_655 S
C378 O391 1.257 . S
O379 Dy376 2.307 1_655 S
O379 C389 1.266 . S
O380 Dy377 2.298 . S
O380 C389 1.236 . S
O381 Dy376 2.395 . S
O381 C398 1.255 . S
O382 Dy376 2.379 . S
O382 C398 1.249 . S
O383 Dy377 2.275 . S
O383 C399 1.254 1_655 S
O384 Dy376 2.339 . S
O384 C399 1.257 . S
O385 Dy377 2.307 1_455 S
O385 C400 1.266 . S
O386 Dy376 2.298 . S
O386 C400 1.236 . S
O387 Dy377 2.395 1_554 S
O387 C407 1.255 . S
O388 Dy377 2.379 . S
O388 C407 1.249 1_556 S
C389 O379 1.266 . S
C389 O380 1.236 . S
O390 Dy376 2.275 . S
O390 C378 1.254 1_455 S
O391 Dy377 2.339 . S
O391 C378 1.257 . S
C392 C395 1.344 . S
C392 C396 1.328 . S
C392 C398 1.516 . S
C393 C394 1.304 . S
C393 C397 1.323 . S
C394 C393 1.304 . S
C394 C395 1.371 . S
C394 H408 0.930 . S
C395 C392 1.344 . S
C395 C394 1.371 . S
C395 H409 0.931 . S
C396 C392 1.328 . S
C396 C397 1.433 . S
C396 H410 0.931 . S
C397 C393 1.323 . S
C397 C396 1.433 . S
C397 H411 0.933 . S
C398 Dy376 2.738 . S
C398 O381 1.255 . S
C398 O382 1.249 . S
C398 C392 1.516 . S
C399 O383 1.254 1_455 S
C399 O384 1.257 . S
C400 O385 1.266 . S
C400 O386 1.236 . S
C401 C404 1.344 . S
C401 C405 1.328 . S
C401 C407 1.516 . S
C402 C403 1.304 . S
C402 C406 1.323 . S
C403 C402 1.304 . S
C403 C404 1.371 . S
C403 H412 0.930 . S
C404 C401 1.344 . S
C404 C403 1.371 . S
C404 H413 0.931 . S
C405 C401 1.328 . S
C405 C406 1.433 . S
C405 H414 0.931 . S
C406 C402 1.323 . S
C406 C405 1.433 . S
C406 H415 0.933 . S
C407 Dy377 2.738 1_554 S
C407 O387 1.255 . S
C407 O388 1.249 1_554 S
C407 C401 1.516 . S
H408 C394 0.930 . S
H409 C395 0.931 . S
H410 C396 0.931 . S
H411 C397 0.933 . S
H412 C403 0.930 . S
H413 C404 0.931 . S
H414 C405 0.931 . S
H415 C406 0.933 . S
C416 C417 1.358 1_565 S
C416 C422 1.379 . S
C416 N424 1.356 . S
C417 C416 1.358 1_545 S
C417 C423 1.367 . S
C418 C419 1.377 . S
C418 C423 1.379 . S
C418 N425 1.356 . S
C419 C418 1.377 . S
C419 C422 1.351 1_545 S
N420 C422 1.356 . S
N420 H432 0.984 . S
N420 H433 0.985 . S
N421 C423 1.356 . S
N421 H426 0.984 . S
N421 H427 0.985 . S
C422 C416 1.379 . S
C422 C419 1.351 1_565 S
C422 N420 1.356 . S
C423 C417 1.367 . S
C423 C418 1.379 . S
C423 N421 1.356 . S
N424 C416 1.356 . S
N424 H430 0.984 . S
N424 H431 0.984 . S
N425 C418 1.356 . S
N425 H428 0.984 . S
N425 H429 0.985 . S
H426 N421 0.984 . S
H427 N421 0.985 . S
H428 N425 0.984 . S
H429 N425 0.985 . S
H430 N424 0.984 . S
H431 N424 0.984 . S
H432 N420 0.984 . S
H433 N420 0.985 . S
C434 C435 1.363 . S
C434 C440 1.379 . S
C434 N442 1.356 . S
C435 C434 1.363 . S
C435 C441 1.363 . S
C436 C437 1.363 . S
C436 C441 1.379 . S
C436 N443 1.356 . S
C437 C436 1.363 . S
C437 C440 1.363 . S
N438 C440 1.356 . S
N438 H450 0.984 . S
N438 H451 0.985 . S
N439 C441 1.356 . S
N439 H444 0.984 . S
N439 H445 0.985 . S
C440 C434 1.379 . S
C440 C437 1.363 . S
C440 N438 1.356 . S
C441 C435 1.363 . S
C441 C436 1.379 . S
C441 N439 1.356 . S
N442 C434 1.356 . S
N442 H448 0.984 . S
N442 H449 0.984 . S
N443 C436 1.356 . S
N443 H446 0.984 . S
N443 H447 0.985 . S
H444 N439 0.984 . S
H445 N439 0.985 . S
H446 N443 0.984 . S
H447 N443 0.985 . S
H448 N442 0.984 . S
H449 N442 0.984 . S
H450 N438 0.984 . S
H451 N438 0.985 . S
C452 C453 1.363 . S
C452 C458 1.379 . S
C452 N460 1.356 . S
C453 C452 1.363 . S
C453 C459 1.363 . S
C454 C455 1.363 . S
C454 C459 1.379 . S
C454 N461 1.356 . S
C455 C454 1.363 . S
C455 C458 1.363 . S
N456 C458 1.356 . S
N456 H468 0.984 . S
N456 H469 0.985 . S
N457 C459 1.356 . S
N457 H462 0.984 . S
N457 H463 0.985 . S
C458 C452 1.379 . S
C458 C455 1.363 . S
C458 N456 1.356 . S
C459 C453 1.363 . S
C459 C454 1.379 . S
C459 N457 1.356 . S
N460 C452 1.356 . S
N460 H466 0.984 . S
N460 H467 0.984 . S
N461 C454 1.356 . S
N461 H464 0.984 . S
N461 H465 0.985 . S
H462 N457 0.984 . S
H463 N457 0.985 . S
H464 N461 0.984 . S
H465 N461 0.985 . S
H466 N460 0.984 . S
H467 N460 0.984 . S
H468 N456 0.984 . S
H469 N456 0.985 . S
C470 C471 1.385 . S
C470 C476 1.379 . S
C470 N478 1.356 . S
C471 C470 1.385 . S
C471 C477 1.348 1_455 S
C472 C473 1.363 1_655 S
C472 C477 1.379 . S
C472 N479 1.356 . S
C473 C472 1.363 1_455 S
C473 C476 1.363 . S
N474 C476 1.356 . S
N474 H486 0.984 . S
N474 H487 0.985 . S
N475 C477 1.356 . S
N475 H480 0.984 . S
N475 H481 0.985 . S
C476 C470 1.379 . S
C476 C473 1.363 . S
C476 N474 1.356 . S
C477 C471 1.348 1_655 S
C477 C472 1.379 . S
C477 N475 1.356 . S
N478 C470 1.356 . S
N478 H484 0.984 . S
N478 H485 0.984 . S
N479 C472 1.356 . S
N479 H482 0.984 . S
N479 H483 0.985 . S
H480 N475 0.984 . S
H481 N475 0.985 . S
H482 N479 0.984 . S
H483 N479 0.985 . S
H484 N478 0.984 . S
H485 N478 0.984 . S
H486 N474 0.984 . S
H487 N474 0.985 . S
C488 C489 1.363 . S
C488 C494 1.379 . S
C488 N496 1.356 . S
C489 C488 1.363 . S
C489 C495 1.364 1_565 S
C490 C491 1.357 1_545 S
C490 C495 1.379 . S
C490 N497 1.356 1_554 S
C491 C490 1.357 1_565 S
C491 C494 1.370 . S
N492 C494 1.356 . S
N492 H504 0.984 . S
N492 H505 0.985 1_554 S
N493 C495 1.356 . S
N493 H498 0.984 . S
N493 H499 0.985 . S
C494 C488 1.379 . S
C494 C491 1.370 . S
C494 N492 1.356 . S
C495 C489 1.364 1_545 S
C495 C490 1.379 . S
C495 N493 1.356 . S
N496 C488 1.356 . S
N496 H502 0.984 . S
N496 H503 0.984 . S
N497 C490 1.356 1_556 S
N497 H500 0.984 . S
N497 H501 0.985 . S
H498 N493 0.984 . S
H499 N493 0.985 . S
H500 N497 0.984 . S
H501 N497 0.985 . S
H502 N496 0.984 . S
H503 N496 0.984 . S
H504 N492 0.984 . S
H505 N492 0.985 1_556 S
C506 C507 1.363 . S
C506 C512 1.379 1_554 S
C506 N514 1.356 . S
C507 C506 1.363 . S
C507 C513 1.363 . S
C508 C509 1.363 . S
C508 C513 1.379 1_556 S
C508 N515 1.356 . S
C509 C508 1.363 . S
C509 C512 1.363 . S
N510 C512 1.356 . S
N510 H522 0.984 . S
N510 H523 0.985 . S
N511 C513 1.356 . S
N511 H516 0.984 . S
N511 H517 0.985 . S
C512 C506 1.379 1_556 S
C512 C509 1.363 . S
C512 N510 1.356 . S
C513 C507 1.363 . S
C513 C508 1.379 1_554 S
C513 N511 1.356 . S
N514 C506 1.356 . S
N514 H520 0.984 . S
N514 H521 0.984 . S
N515 C508 1.356 . S
N515 H518 0.984 . S
N515 H519 0.985 . S
H516 N511 0.984 . S
H517 N511 0.985 . S
H518 N515 0.984 . S
H519 N515 0.985 . S
H520 N514 0.984 . S
H521 N514 0.984 . S
H522 N510 0.984 . S
H523 N510 0.985 . S
C524 C525 1.363 . S
C524 C530 1.379 . S
C524 N532 1.356 . S
C525 C524 1.363 . S
C525 C531 1.363 . S
C526 C527 1.363 . S
C526 C531 1.379 . S
C526 N533 1.356 . S
C527 C526 1.363 . S
C527 C530 1.363 . S
N528 C530 1.356 . S
N528 H540 0.984 . S
N528 H541 0.985 . S
N529 C531 1.356 . S
N529 H534 0.984 . S
N529 H535 0.985 . S
C530 C524 1.379 . S
C530 C527 1.363 . S
C530 N528 1.356 . S
C531 C525 1.363 . S
C531 C526 1.379 . S
C531 N529 1.356 . S
N532 C524 1.356 . S
N532 H538 0.984 . S
N532 H539 0.984 . S
N533 C526 1.356 . S
N533 H536 0.984 . S
N533 H537 0.985 . S
H534 N529 0.984 . S
H535 N529 0.985 . S
H536 N533 0.984 . S
H537 N533 0.985 . S
H538 N532 0.984 . S
H539 N532 0.984 . S
H540 N528 0.984 . S
H541 N528 0.985 . S
C542 C543 1.338 1_455 S
C542 C548 1.379 . S
C542 N550 1.356 . S
C543 C542 1.338 1_655 S
C543 C549 1.395 . S
C544 C545 1.363 . S
C544 C549 1.379 . S
C544 N551 1.356 . S
C545 C544 1.363 . S
C545 C548 1.363 1_655 S
N546 C548 1.356 . S
N546 H558 0.984 . S
N546 H559 0.985 1_554 S
N547 C549 1.356 . S
N547 H552 0.984 . S
N547 H553 0.985 . S
C548 C542 1.379 . S
C548 C545 1.363 1_455 S
C548 N546 1.356 . S
C549 C543 1.395 . S
C549 C544 1.379 . S
C549 N547 1.356 . S
N550 C542 1.356 . S
N550 H556 0.984 . S
N550 H557 0.984 . S
N551 C544 1.356 . S
N551 H554 0.984 . S
N551 H555 0.985 . S
H552 N547 0.984 . S
H553 N547 0.985 . S
H554 N551 0.984 . S
H555 N551 0.985 . S
H556 N550 0.984 . S
H557 N550 0.984 . S
H558 N546 0.984 . S
H559 N546 0.985 1_556 S
C560 C561 1.363 1_655 S
C560 C566 1.379 . S
C560 N568 1.356 1_655 S
C561 C560 1.363 1_455 S
C561 C567 1.363 1_455 S
C562 C563 1.363 . S
C562 C567 1.379 . S
C562 N569 1.356 . S
C563 C562 1.363 . S
C563 C566 1.363 . S
N564 C566 1.356 . S
N564 H576 0.984 . S
N564 H577 0.985 . S
N565 C567 1.356 1_455 S
N565 H570 0.984 . S
N565 H571 0.985 1_455 S
C566 C560 1.379 . S
C566 C563 1.363 . S
C566 N564 1.356 . S
C567 C561 1.363 1_655 S
C567 C562 1.379 . S
C567 N565 1.356 1_655 S
N568 C560 1.356 1_455 S
N568 H574 0.984 . S
N568 H575 0.984 . S
N569 C562 1.356 . S
N569 H572 0.984 . S
N569 H573 0.985 . S
H570 N565 0.984 . S
H571 N565 0.985 1_655 S
H572 N569 0.984 . S
H573 N569 0.985 . S
H574 N568 0.984 . S
H575 N568 0.984 . S
H576 N564 0.984 . S
H577 N564 0.985 . S
C578 C579 1.363 . S
C578 C584 1.379 . S
C578 N586 1.356 . S
C579 C578 1.363 . S
C579 C585 1.363 . S
C580 C581 1.363 . S
C580 C585 1.379 . S
C580 N587 1.356 . S
C581 C580 1.363 . S
C581 C584 1.363 . S
N582 C584 1.356 . S
N582 H594 0.984 . S
N582 H595 0.985 . S
N583 C585 1.356 1_545 S
N583 H588 0.984 . S
N583 H589 0.985 . S
C584 C578 1.379 . S
C584 C581 1.363 . S
C584 N582 1.356 . S
C585 C579 1.363 . S
C585 C580 1.379 . S
C585 N583 1.356 1_565 S
N586 C578 1.356 . S
N586 H592 0.984 . S
N586 H593 0.984 1_565 S
N587 C580 1.356 . S
N587 H590 0.984 . S
N587 H591 0.985 . S
H588 N583 0.984 . S
H589 N583 0.985 . S
H590 N587 0.984 . S
H591 N587 0.985 . S
H592 N586 0.984 . S
H593 N586 0.984 1_545 S
H594 N582 0.984 . S
H595 N582 0.985 . S
C596 C597 1.363 . S
C596 C602 1.379 . S
C596 N604 1.356 . S
C597 C596 1.363 . S
C597 C603 1.363 . S
C598 C599 1.363 . S
C598 C603 1.379 . S
C598 N605 1.356 . S
C599 C598 1.363 . S
C599 C602 1.363 . S
N600 C602 1.356 . S
N600 H612 0.984 . S
N600 H613 0.985 . S
N601 C603 1.356 . S
N601 H606 0.984 . S
N601 H607 0.985 . S
C602 C596 1.379 . S
C602 C599 1.363 . S
C602 N600 1.356 . S
C603 C597 1.363 . S
C603 C598 1.379 . S
C603 N601 1.356 . S
N604 C596 1.356 . S
N604 H610 0.984 . S
N604 H611 0.984 . S
N605 C598 1.356 . S
N605 H608 0.984 . S
N605 H609 0.985 . S
H606 N601 0.984 . S
H607 N601 0.985 . S
H608 N605 0.984 . S
H609 N605 0.985 . S
H610 N604 0.984 . S
H611 N604 0.984 . S
H612 N600 0.984 . S
H613 N600 0.985 . S
C614 C615 1.363 . S
C614 C620 1.379 . S
C614 N622 1.356 . S
C615 C614 1.363 . S
C615 C621 1.363 . S
C616 C617 1.363 . S
C616 C621 1.379 . S
C616 N623 1.356 . S
C617 C616 1.363 . S
C617 C620 1.363 . S
N618 C620 1.356 . S
N618 H630 0.984 . S
N618 H631 0.985 . S
N619 C621 1.356 . S
N619 H624 0.984 . S
N619 H625 0.985 . S
C620 C614 1.379 . S
C620 C617 1.363 . S
C620 N618 1.356 . S
C621 C615 1.363 . S
C621 C616 1.379 . S
C621 N619 1.356 . S
N622 C614 1.356 . S
N622 H628 0.984 . S
N622 H629 0.984 . S
N623 C616 1.356 . S
N623 H626 0.984 . S
N623 H627 0.985 . S
H624 N619 0.984 . S
H625 N619 0.985 . S
H626 N623 0.984 . S
H627 N623 0.985 . S
H628 N622 0.984 . S
H629 N622 0.984 . S
H630 N618 0.984 . S
H631 N618 0.985 . S
C632 C633 1.365 . S
C632 C638 1.373 1_655 S
C632 N640 1.361 . S
C633 C632 1.365 . S
C633 C639 1.363 1_655 S
C634 C635 1.363 . S
C634 C639 1.379 . S
C634 N641 1.356 . S
C635 C634 1.363 . S
C635 C638 1.363 . S
N636 C638 1.356 . S
N636 H648 0.984 . S
N636 H649 0.985 . S
N637 C639 1.356 . S
N637 H642 0.984 1_455 S
N637 H643 0.985 . S
C638 C632 1.373 1_455 S
C638 C635 1.363 . S
C638 N636 1.356 . S
C639 C633 1.363 1_455 S
C639 C634 1.379 . S
C639 N637 1.356 . S
N640 C632 1.361 . S
N640 H646 0.984 . S
N640 H647 0.984 . S
N641 C634 1.356 . S
N641 H644 0.984 . S
N641 H645 0.985 . S
H642 N637 0.984 1_655 S
H643 N637 0.985 . S
H644 N641 0.984 . S
H645 N641 0.985 . S
H646 N640 0.984 . S
H647 N640 0.984 . S
H648 N636 0.984 . S
H649 N636 0.985 . S
C650 C651 1.363 . S
C650 C656 1.379 . S
C650 N658 1.356 1_545 S
C651 C650 1.363 . S
C651 C657 1.363 . S
C652 C653 1.363 . S
C652 C657 1.379 . S
C652 N659 1.356 . S
C653 C652 1.363 . S
C653 C656 1.363 . S
N654 C656 1.356 . S
N654 H666 0.984 . S
N654 H667 0.985 . S
N655 C657 1.356 . S
N655 H660 0.984 1_545 S
N655 H661 0.985 1_554 S
C656 C650 1.379 . S
C656 C653 1.363 . S
C656 N654 1.356 . S
C657 C651 1.363 . S
C657 C652 1.379 . S
C657 N655 1.356 . S
N658 C650 1.356 1_565 S
N658 H664 0.984 . S
N658 H665 0.984 . S
N659 C652 1.356 . S
N659 H662 0.984 . S
N659 H663 0.985 1_554 S
H660 N655 0.984 1_565 S
H661 N655 0.985 1_556 S
H662 N659 0.984 . S
H663 N659 0.985 1_556 S
H664 N658 0.984 . S
H665 N658 0.984 . S
H666 N654 0.984 . S
H667 N654 0.985 . S
C668 C669 1.363 1_554 S
C668 C674 1.379 . S
C668 N676 1.356 . S
C669 C668 1.363 1_556 S
C669 C675 1.363 . S
C670 C671 1.363 . S
C670 C675 1.379 . S
C670 N677 1.356 . S
C671 C670 1.363 . S
C671 C674 1.363 1_556 S
N672 C674 1.356 . S
N672 H684 0.984 . S
N672 H685 0.985 . S
N673 C675 1.356 . S
N673 H678 0.984 . S
N673 H679 0.985 . S
C674 C668 1.379 . S
C674 C671 1.363 1_554 S
C674 N672 1.356 . S
C675 C669 1.363 . S
C675 C670 1.379 . S
C675 N673 1.356 . S
N676 C668 1.356 . S
N676 H682 0.984 . S
N676 H683 0.984 . S
N677 C670 1.356 . S
N677 H680 0.984 . S
N677 H681 0.985 . S
H678 N673 0.984 . S
H679 N673 0.985 . S
H680 N677 0.984 . S
H681 N677 0.985 . S
H682 N676 0.984 . S
H683 N676 0.984 . S
H684 N672 0.984 . S
H685 N672 0.985 . S
C686 C687 1.363 . S
C686 C692 1.379 . S
C686 N694 1.356 . S
C687 C686 1.363 . S
C687 C693 1.363 . S
C688 C689 1.363 . S
C688 C693 1.379 . S
C688 N695 1.356 . S
C689 C688 1.363 . S
C689 C692 1.363 . S
N690 C692 1.356 . S
N690 H702 0.984 . S
N690 H703 0.985 . S
N691 C693 1.356 . S
N691 H696 0.984 . S
N691 H697 0.985 . S
C692 C686 1.379 . S
C692 C689 1.363 . S
C692 N690 1.356 . S
C693 C687 1.363 . S
C693 C688 1.379 . S
C693 N691 1.356 . S
N694 C686 1.356 . S
N694 H700 0.984 . S
N694 H701 0.984 . S
N695 C688 1.356 . S
N695 H698 0.984 . S
N695 H699 0.985 . S
H696 N691 0.984 . S
H697 N691 0.985 . S
H698 N695 0.984 . S
H699 N695 0.985 . S
H700 N694 0.984 . S
H701 N694 0.984 . S
H702 N690 0.984 . S
H703 N690 0.985 . S
C704 C705 1.363 1_655 S
C704 C710 1.379 . S
C704 N712 1.356 . S
C705 C704 1.363 1_455 S
C705 C711 1.363 . S
C706 C707 1.363 . S
C706 C711 1.379 . S
C706 N713 1.356 . S
C707 C706 1.363 . S
C707 C710 1.363 1_455 S
N708 C710 1.356 . S
N708 H720 0.984 . S
N708 H721 0.985 . S
N709 C711 1.356 . S
N709 H714 0.984 . S
N709 H715 0.985 1_556 S
C710 C704 1.379 . S
C710 C707 1.363 1_655 S
C710 N708 1.356 . S
C711 C705 1.363 . S
C711 C706 1.379 . S
C711 N709 1.356 . S
N712 C704 1.356 . S
N712 H718 0.984 . S
N712 H719 0.984 . S
N713 C706 1.356 . S
N713 H716 0.984 . S
N713 H717 0.985 1_556 S
H714 N709 0.984 . S
H715 N709 0.985 1_554 S
H716 N713 0.984 . S
H717 N713 0.985 1_554 S
H718 N712 0.984 . S
H719 N712 0.984 . S
H720 N708 0.984 . S
H721 N708 0.985 . S
C722 C723 1.363 . S
C722 C728 1.379 . S
C722 N730 1.356 1_556 S
C723 C722 1.363 . S
C723 C729 1.363 . S
C724 C725 1.363 . S
C724 C729 1.379 . S
C724 N731 1.356 . S
C725 C724 1.363 . S
C725 C728 1.363 . S
N726 C728 1.356 1_554 S
N726 H738 0.984 . S
N726 H739 0.985 . S
N727 C729 1.356 . S
N727 H732 0.991 . S
N727 H733 0.985 . S
C728 C722 1.379 . S
C728 C725 1.363 . S
C728 N726 1.356 1_556 S
C729 C723 1.363 . S
C729 C724 1.379 . S
C729 N727 1.356 . S
N730 C722 1.356 1_554 S
N730 H736 0.984 . S
N730 H737 0.984 . S
N731 C724 1.356 . S
N731 H734 0.984 . S
N731 H735 0.985 . S
H732 N727 0.991 . S
H733 N727 0.985 . S
H734 N731 0.984 . S
H735 N731 0.985 . S
H736 N730 0.984 . S
H737 N730 0.984 . S
H738 N726 0.984 . S
H739 N726 0.985 . S
C740 C741 1.363 . S
C740 C746 1.379 . S
C740 N748 1.356 . S
C741 C740 1.363 . S
C741 C747 1.363 . S
C742 C743 1.363 1_556 S
C742 C747 1.379 1_556 S
C742 N749 1.356 . S
C743 C742 1.363 1_554 S
C743 C746 1.363 . S
N744 C746 1.356 . S
N744 H756 0.984 . S
N744 H757 0.985 . S
N745 C747 1.356 1_556 S
N745 H750 0.984 1_556 S
N745 H751 0.985 . S
C746 C740 1.379 . S
C746 C743 1.363 . S
C746 N744 1.356 . S
C747 C741 1.363 . S
C747 C742 1.379 1_554 S
C747 N745 1.356 1_554 S
N748 C740 1.356 . S
N748 H754 0.984 . S
N748 H755 0.984 . S
N749 C742 1.356 . S
N749 H752 0.984 . S
N749 H753 0.985 . S
H750 N745 0.984 1_554 S
H751 N745 0.985 . S
H752 N749 0.984 . S
H753 N749 0.985 . S
H754 N748 0.984 . S
H755 N748 0.984 . S
H756 N744 0.984 . S
H757 N744 0.985 . S
C758 C759 1.363 . S
C758 C764 1.379 . S
C758 N766 1.356 . S
C759 C758 1.363 . S
C759 C765 1.363 . S
C760 C761 1.363 . S
C760 C765 1.379 . S
C760 N767 1.356 . S
C761 C760 1.363 . S
C761 C764 1.363 . S
N762 C764 1.356 . S
N762 H774 0.984 . S
N762 H775 0.985 . S
N763 C765 1.356 . S
N763 H768 0.984 . S
N763 H769 0.985 . S
C764 C758 1.379 . S
C764 C761 1.363 . S
C764 N762 1.356 . S
C765 C759 1.363 . S
C765 C760 1.379 . S
C765 N763 1.356 . S
N766 C758 1.356 . S
N766 H772 0.984 . S
N766 H773 0.984 . S
N767 C760 1.356 . S
N767 H770 0.984 . S
N767 H771 0.985 . S
H768 N763 0.984 . S
H769 N763 0.985 . S
H770 N767 0.984 . S
H771 N767 0.985 . S
H772 N766 0.984 . S
H773 N766 0.984 . S
H774 N762 0.984 . S
H775 N762 0.985 . S
C776 C777 1.363 . S
C776 C782 1.379 . S
C776 N784 1.356 . S
C777 C776 1.363 . S
C777 C783 1.363 1_655 S
C778 C779 1.363 1_455 S
C778 C783 1.379 . S
C778 N785 1.356 . S
C779 C778 1.363 1_655 S
C779 C782 1.363 . S
N780 C782 1.356 . S
N780 H792 0.984 . S
N780 H793 0.985 . S
N781 C783 1.356 . S
N781 H786 0.984 . S
N781 H787 0.985 . S
C782 C776 1.379 . S
C782 C779 1.363 . S
C782 N780 1.356 . S
C783 C777 1.363 1_455 S
C783 C778 1.379 . S
C783 N781 1.356 . S
N784 C776 1.356 . S
N784 H790 0.984 . S
N784 H791 0.984 . S
N785 C778 1.356 . S
N785 H788 0.984 . S
N785 H789 0.985 . S
H786 N781 0.984 . S
H787 N781 0.985 . S
H788 N785 0.984 . S
H789 N785 0.985 . S
H790 N784 0.984 . S
H791 N784 0.984 . S
H792 N780 0.984 . S
H793 N780 0.985 . S
C794 C795 1.363 . S
C794 C800 1.379 . S
C794 N802 1.356 . S
C795 C794 1.363 . S
C795 C801 1.363 1_565 S
C796 C797 1.363 1_545 S
C796 C801 1.379 . S
C796 N803 1.356 . S
C797 C796 1.363 1_565 S
C797 C800 1.363 . S
N798 C800 1.356 . S
N798 H810 0.984 . S
N798 H811 0.985 . S
N799 C801 1.356 . S
N799 H804 0.984 . S
N799 H805 0.985 . S
C800 C794 1.379 . S
C800 C797 1.363 . S
C800 N798 1.356 . S
C801 C795 1.363 1_545 S
C801 C796 1.379 . S
C801 N799 1.356 . S
N802 C794 1.356 . S
N802 H808 0.984 . S
N802 H809 0.984 . S
N803 C796 1.356 . S
N803 H806 0.984 . S
N803 H807 0.985 . S
H804 N799 0.984 . S
H805 N799 0.985 . S
H806 N803 0.984 . S
H807 N803 0.985 . S
H808 N802 0.984 . S
H809 N802 0.984 . S
H810 N798 0.984 . S
H811 N798 0.985 . S
C812 C813 1.363 . S
C812 C818 1.379 . S
C812 N820 1.356 . S
C813 C812 1.363 . S
C813 C819 1.363 . S
C814 C815 1.363 . S
C814 C819 1.379 . S
C814 N821 1.356 . S
C815 C814 1.363 . S
C815 C818 1.363 . S
N816 C818 1.356 . S
N816 H828 0.984 . S
N816 H829 0.985 . S
N817 C819 1.356 . S
N817 H822 0.984 . S
N817 H823 0.985 . S
C818 C812 1.379 . S
C818 C815 1.363 . S
C818 N816 1.356 . S
C819 C813 1.363 . S
C819 C814 1.379 . S
C819 N817 1.356 . S
N820 C812 1.356 . S
N820 H826 0.984 . S
N820 H827 0.984 . S
N821 C814 1.356 . S
N821 H824 0.984 . S
N821 H825 0.985 . S
H822 N817 0.984 . S
H823 N817 0.985 . S
H824 N821 0.984 . S
H825 N821 0.985 . S
H826 N820 0.984 . S
H827 N820 0.984 . S
H828 N816 0.984 . S
H829 N816 0.985 . S
C830 C831 1.363 . S
C830 C836 1.379 . S
C830 N838 1.356 . S
C831 C830 1.363 . S
C831 C837 1.363 . S
C832 C833 1.363 . S
C832 C837 1.379 . S
C832 N839 1.356 . S
C833 C832 1.363 . S
C833 C836 1.363 . S
N834 C836 1.356 . S
N834 H846 0.984 . S
N834 H847 0.985 . S
N835 C837 1.356 . S
N835 H840 0.984 . S
N835 H841 0.985 . S
C836 C830 1.379 . S
C836 C833 1.363 . S
C836 N834 1.356 . S
C837 C831 1.363 . S
C837 C832 1.379 . S
C837 N835 1.356 . S
N838 C830 1.356 . S
N838 H844 0.984 1_556 S
N838 H845 0.984 . S
N839 C832 1.356 . S
N839 H842 0.984 . S
N839 H843 0.985 . S
H840 N835 0.984 . S
H841 N835 0.985 . S
H842 N839 0.984 . S
H843 N839 0.985 . S
H844 N838 0.984 1_554 S
H845 N838 0.984 . S
H846 N834 0.984 . S
H847 N834 0.985 . S
C417 C215 2.201 . S
C419 C258 2.344 1_545 S
C437 C298 2.172 . S
C435 C247 2.107 . S
C455 C362 2.586 . S
C453 C151 2.543 . S
C473 C378 2.468 1_455 S
C471 C183 2.157 . S
C491 C279 2.347 1_564 S
C489 C87 2.203 1_565 S
C507 C119 2.022 . S
C509 C319 2.175 . S
C525 C23 2.432 . S
C527 C353 2.586 . S
C543 C55 2.156 1_655 S
C545 C399 2.466 1_654 S
C563 C273 0.673 . S
C561 C189 0.605 . S
C581 C313 0.861 . S
C579 C221 0.894 1_565 S
C599 C349 0.877 . S
C597 C253 0.933 . S
C615 C157 1.194 . S
C617 C393 0.988 . S
C633 C61 0.694 1_655 S
C635 C282 0.672 . S
C653 C322 0.861 . S
C651 C93 0.838 . S
C671 C360 0.877 . S
C669 C125 0.842 1_556 S
C687 C29 0.922 . S
C689 C402 0.995 . S
C705 C177 2.518 . S
C707 C280 2.903 . S
C723 C209 2.468 . S
C725 C320 2.802 . S
C743 C338 2.028 1_554 S
C741 C241 2.008 . S
C761 C400 3.331 . S
C759 C145 2.928 . S
C777 C49 2.547 1_655 S
C779 C269 2.909 . S
C797 C309 2.802 . S
C795 C81 2.500 1_565 S
C815 C359 2.028 . S
C813 C113 1.940 . S
C831 C17 2.887 . S
C833 C389 3.335 . S
