# Generated by pormake.
# Topology pyr, (3,6)-cn, num edge types: 1
# Building blocks:
#     Node 0, Type 0, BuildingBlock: INOVEN_clean_linker_0, # of connection points: 3
#     Node 1, Type 0, BuildingBlock: INOVEN_clean_linker_0, # of connection points: 3
#     Node 2, Type 0, BuildingBlock: INOVEN_clean_linker_0, # of connection points: 3
#     Node 3, Type 0, BuildingBlock: INOVEN_clean_linker_0, # of connection points: 3
#     Node 4, Type 0, BuildingBlock: INOVEN_clean_linker_0, # of connection points: 3
#     Node 5, Type 0, BuildingBlock: INOVEN_clean_linker_0, # of connection points: 3
#     Node 6, Type 0, BuildingBlock: INOVEN_clean_linker_0, # of connection points: 3
#     Node 7, Type 0, BuildingBlock: INOVEN_clean_linker_0, # of connection points: 3
#     Node 8, Type 1, BuildingBlock: LEVNOQ01_clean_sbu_1, # of connection points: 6
#     Node 9, Type 1, BuildingBlock: LEVNOQ01_clean_sbu_1, # of connection points: 6
#     Node 10, Type 1, BuildingBlock: LEVNOQ01_clean_sbu_1, # of connection points: 6
#     Node 11, Type 1, BuildingBlock: LEVNOQ01_clean_sbu_1, # of connection points: 6
#     Edge 12, Type (0, 1), BuildingBlock: OJICUG_clean_linker_0, # of connection points: 2
#     Edge 13, Type (0, 1), BuildingBlock: OJICUG_clean_linker_0, # of connection points: 2
#     Edge 14, Type (0, 1), BuildingBlock: OJICUG_clean_linker_0, # of connection points: 2
#     Edge 15, Type (0, 1), BuildingBlock: OJICUG_clean_linker_0, # of connection points: 2
#     Edge 16, Type (0, 1), BuildingBlock: OJICUG_clean_linker_0, # of connection points: 2
#     Edge 17, Type (0, 1), BuildingBlock: OJICUG_clean_linker_0, # of connection points: 2
#     Edge 18, Type (0, 1), BuildingBlock: OJICUG_clean_linker_0, # of connection points: 2
#     Edge 19, Type (0, 1), BuildingBlock: OJICUG_clean_linker_0, # of connection points: 2
#     Edge 20, Type (0, 1), BuildingBlock: OJICUG_clean_linker_0, # of connection points: 2
#     Edge 21, Type (0, 1), BuildingBlock: OJICUG_clean_linker_0, # of connection points: 2
#     Edge 22, Type (0, 1), BuildingBlock: OJICUG_clean_linker_0, # of connection points: 2
#     Edge 23, Type (0, 1), BuildingBlock: OJICUG_clean_linker_0, # of connection points: 2
#     Edge 24, Type (0, 1), BuildingBlock: OJICUG_clean_linker_0, # of connection points: 2
#     Edge 25, Type (0, 1), BuildingBlock: OJICUG_clean_linker_0, # of connection points: 2
#     Edge 26, Type (0, 1), BuildingBlock: OJICUG_clean_linker_0, # of connection points: 2
#     Edge 27, Type (0, 1), BuildingBlock: OJICUG_clean_linker_0, # of connection points: 2
#     Edge 28, Type (0, 1), BuildingBlock: OJICUG_clean_linker_0, # of connection points: 2
#     Edge 29, Type (0, 1), BuildingBlock: OJICUG_clean_linker_0, # of connection points: 2
#     Edge 30, Type (0, 1), BuildingBlock: OJICUG_clean_linker_0, # of connection points: 2
#     Edge 31, Type (0, 1), BuildingBlock: OJICUG_clean_linker_0, # of connection points: 2
#     Edge 32, Type (0, 1), BuildingBlock: OJICUG_clean_linker_0, # of connection points: 2
#     Edge 33, Type (0, 1), BuildingBlock: OJICUG_clean_linker_0, # of connection points: 2
#     Edge 34, Type (0, 1), BuildingBlock: OJICUG_clean_linker_0, # of connection points: 2
#     Edge 35, Type (0, 1), BuildingBlock: OJICUG_clean_linker_0, # of connection points: 2
# Relax obj value: 0.081
# Max RMSD: 0.167
# Mean RMSD: 0.130
data_MOF--net-pry--node1-LEVNOQ01_clean_sbu_1--node2-INOVEN_clean_linker_0--edge1-OJICUG_clean_linker_0
_symmetry_space_group_name_H-M    P1
_symmetry_Int_Tables_number       1
_symmetry_cell_setting            triclinic
loop_
_symmetry_equiv_pos_as_xyz
'x, y, z'
_cell_length_a     26.120728
_cell_length_b     25.525449
_cell_length_c     26.373501
_cell_angle_alpha  92.821831
_cell_angle_beta   92.451933
_cell_angle_gamma 100.79227
loop_
_atom_site_label
_atom_site_type_symbol
_atom_site_fract_x
_atom_site_fract_y
_atom_site_fract_z
_atom_type_partial_charge
H0 H 0.09802 0.20565 0.21657 0.0
H1 H 0.19958 0.0916 0.21114 0.0
H2 H 0.19779 0.20252 0.09239 0.0
N3 N 0.12092 0.24848 0.13166 0.0
N4 N 0.1358 0.27399 0.09404 0.0
C5 C 0.12833 0.18894 0.19846 0.0
C6 C 0.14819 0.14763 0.22062 0.0
C7 C 0.14537 0.2082 0.1522 0.0
C8 C 0.18393 0.18619 0.12744 0.0
C9 C 0.20435 0.14354 0.14813 0.0
C10 C 0.18557 0.12464 0.19479 0.0
H11 H 0.37496 0.87054 0.5667 0.0
H12 H 0.46608 0.87146 0.7075 0.0
H13 H 0.35407 0.97395 0.69411 0.0
N14 N 0.31988 0.94099 0.59878 0.0
N15 N 0.3096 0.98606 0.60814 0.0
C16 C 0.38601 0.88575 0.60548 0.0
C17 C 0.42501 0.86681 0.63367 0.0
C18 C 0.361 0.92465 0.62684 0.0
C19 C 0.37439 0.94469 0.67717 0.0
C20 C 0.41226 0.92587 0.70651 0.0
C21 C 0.43804 0.88742 0.68432 0.0
H22 H 0.61695 0.26564 0.81533 0.0
H23 H 0.75694 0.29959 0.91398 0.0
H24 H 0.72257 0.413 0.8087 0.0
N25 N 0.63478 0.35394 0.7687 0.0
N26 N 0.64992 0.39038 0.73997 0.0
C27 C 0.65459 0.28969 0.8273 0.0
C28 C 0.6849 0.27553 0.86801 0.0
C29 C 0.66976 0.33774 0.80436 0.0
C30 C 0.71453 0.37357 0.82329 0.0
C31 C 0.74573 0.36094 0.86377 0.0
C32 C 0.73207 0.31047 0.88401 0.0
H33 H 0.82502 0.58045 0.42551 0.0
H34 H 0.8745 0.69029 0.55453 0.0
H35 H 0.95699 0.70548 0.41584 0.0
N36 N 0.8966 0.62116 0.36523 0.0
N37 N 0.91956 0.65062 0.33354 0.0
C38 C 0.8531 0.61301 0.44435 0.0
C39 C 0.84495 0.6327 0.49341 0.0
C40 C 0.89371 0.63888 0.41671 0.0
C41 C 0.92781 0.68396 0.43896 0.0
C42 C 0.92151 0.70347 0.48894 0.0
C43 C 0.88092 0.67587 0.51647 0.0
H44 H 0.83677 0.94939 0.81337 0.0
H45 H 0.94801 0.84433 0.82026 0.0
H46 H 0.85163 0.86197 0.94619 0.0
N47 N 0.79971 0.93209 0.90244 0.0
N48 N 0.78674 0.92613 0.94707 0.0
C49 C 0.85482 0.92055 0.83283 0.0
C50 C 0.89411 0.8983 0.81 0.0
C51 C 0.83961 0.90798 0.88163 0.0
C52 C 0.8633 0.87159 0.90832 0.0
C53 C 0.90261 0.84825 0.88671 0.0
C54 C 0.91797 0.86216 0.83747 0.0
H55 H 0.55288 0.15914 0.37501 0.0
H56 H 0.68413 0.08561 0.34742 0.0
H57 H 0.67742 0.1755 0.48979 0.0
N58 N 0.58436 0.20578 0.46134 0.0
N59 N 0.60363 0.23933 0.49621 0.0
C60 C 0.58931 0.14873 0.38854 0.0
C61 C 0.61608 0.12014 0.35588 0.0
C62 C 0.61096 0.1693 0.43622 0.0
C63 C 0.65969 0.15851 0.45333 0.0
C64 C 0.68617 0.12712 0.42169 0.0
C65 C 0.66362 0.10796 0.373 0.0
H66 H 0.38588 0.82424 0.30919 0.0
H67 H 0.29296 0.80638 0.16883 0.0
H68 H 0.26774 0.684 0.27554 0.0
N69 N 0.35025 0.72787 0.33843 0.0
N70 N 0.33383 0.68015 0.34674 0.0
C71 C 0.353 0.80296 0.2853 0.0
C72 C 0.33992 0.82328 0.23897 0.0
C73 C 0.32764 0.75251 0.29834 0.0
C74 C 0.28721 0.72315 0.26565 0.0
C75 C 0.27424 0.74238 0.21876 0.0
C76 C 0.3002 0.79288 0.20632 0.0
H77 H 0.03934 0.36784 0.62495 0.0
H78 H 0.14349 0.39005 0.50119 0.0
H79 H 0.17735 0.48774 0.64027 0.0
N80 N 0.09464 0.44063 0.68827 0.0
N81 N 0.12706 0.47079 0.71776 0.0
C82 C 0.07298 0.38978 0.60748 0.0
C83 C 0.08562 0.3746 0.55804 0.0
C84 C 0.10594 0.43003 0.63707 0.0
C85 C 0.15114 0.45732 0.61672 0.0
C86 C 0.16491 0.44353 0.56777 0.0
C87 C 0.13208 0.40194 0.53839 0.0
O88 O 0.00218 0.05234 0.65633 0.0
Mg89 Mg 0.04694 0.11444 0.61921 0.0
O90 O 0.96267 0.00425 0.58862 0.0
Mg91 Mg 0.99722 0.04371 0.51327 0.0
O92 O 0.02207 0.12732 0.54757 0.0
O93 O 0.01154 0.18134 0.61076 0.0
O94 O 0.03499 0.07671 0.43602 0.0
O95 O 0.91481 0.06533 0.49184 0.0
Mg96 Mg 0.94074 0.97575 0.41104 0.0
O97 O 0.97398 0.96026 0.47806 0.0
O98 O 0.00138 0.01803 0.3723 0.0
O99 O 0.87716 0.01399 0.42479 0.0
O100 O 0.93938 0.89563 0.42073 0.0
C101 C 0.11999 0.05333 0.56429 0.0
C102 C 0.97089 0.01181 0.63696 0.0
C103 C 0.00542 0.16931 0.56273 0.0
C104 C 0.03389 0.05902 0.38928 0.0
C105 C 0.87642 0.05027 0.45927 0.0
C106 C 0.96357 0.91018 0.46424 0.0
O107 O 0.11627 0.09245 0.59503 0.0
O108 O 0.08076 0.02744 0.53661 0.0
O109 O 0.40651 0.1352 0.04349 0.0
Mg110 Mg 0.48696 0.15251 0.05974 0.0
O111 O 0.40934 0.0511 0.05737 0.0
Mg112 Mg 0.49426 0.03298 0.03599 0.0
O113 O 0.52805 0.11617 0.01032 0.0
O114 O 0.5318 0.2043 0.01578 0.0
O115 O 0.57627 0.01216 0.01722 0.0
O116 O 0.46442 0.00823 0.9504 0.0
Mg117 Mg 0.48555 0.90306 1.00533 0.0
O118 O 0.46653 0.95078 0.06166 0.0
O119 O 0.56761 0.92344 1.00625 0.0
O120 O 0.44685 0.91938 0.93778 0.0
O121 O 0.44927 0.8631 0.06499 0.0
C122 C 0.53139 0.09986 0.14869 0.0
C123 C 0.38364 0.08923 0.05389 0.0
C124 C 0.54723 0.16318 0.99574 0.0
C125 C 0.59559 0.97 0.00938 0.0
C126 C 0.44758 0.96568 0.92202 0.0
C127 C 0.44885 0.90958 0.08624 0.0
O128 O 0.51677 0.14143 0.13336 0.0
O129 O 0.52656 0.05734 0.11973 0.0
O130 O 0.50036 0.66408 0.63978 0.0
Mg131 Mg 0.46345 0.58831 0.66031 0.0
O132 O 0.49448 0.64047 0.55684 0.0
Mg133 Mg 0.50527 0.54971 0.54791 0.0
O134 O 0.5106 0.54358 0.63059 0.0
O135 O 0.49868 0.54265 0.71204 0.0
O136 O 0.5176 0.4604 0.54117 0.0
O137 O 0.59589 0.57628 0.54562 0.0
Mg138 Mg 0.54266 0.51021 0.43283 0.0
O139 O 0.49504 0.55292 0.46505 0.0
O140 O 0.51961 0.43298 0.45975 0.0
O141 O 0.61579 0.54872 0.46795 0.0
O142 O 0.49378 0.54408 0.38219 0.0
C143 C 0.38002 0.53139 0.57655 0.0
C144 C 0.49937 0.67622 0.59372 0.0
C145 C 0.52029 0.52522 0.67336 0.0
C146 C 0.51899 0.42367 0.50666 0.0
C147 C 0.62901 0.57081 0.51217 0.0
C148 C 0.47545 0.56293 0.42221 0.0
O149 O 0.39005 0.55733 0.61952 0.0
O150 O 0.41587 0.52208 0.5479 0.0
O151 O 0.99212 0.44948 0.06408 0.0
Mg152 Mg 0.01819 0.53184 0.08616 0.0
O153 O 0.05914 0.48972 0.0275 0.0
Mg154 Mg 0.01639 0.56867 0.02011 0.0
O155 O 0.97229 0.58552 0.09923 0.0
O156 O 0.9915 0.52887 0.15617 0.0
O157 O 0.9761 0.64853 1.00457 0.0
O158 O 0.94162 0.51184 0.99054 0.0
Mg159 Mg 0.01198 0.59955 0.94491 0.0
O160 O 0.06089 0.54806 0.94412 0.0
O161 O 0.0408 0.68183 0.96066 0.0
O162 O 0.9307 0.56531 0.93058 0.0
O163 O 0.03811 0.58959 0.87577 0.0
C164 C 0.1179 0.60734 0.08615 0.0
C165 C 0.03411 0.4465 0.04356 0.0
C166 C 0.9687 0.56727 0.14446 0.0
C167 C 0.00022 0.68842 0.98189 0.0
C168 C 0.91399 0.52366 0.9537 0.0
C169 C 0.06308 0.55644 0.89599 0.0
O170 O 0.10001 0.56264 0.10366 0.0
O171 O 0.09088 0.62476 0.05193 0.0
C172 C 0.11372 0.07075 0.27317 0.0
C173 C 0.12643 0.12611 0.26864 0.0
H174 H 0.07569 0.00686 0.31529 0.0
C175 C 0.11401 0.16013 0.30837 0.0
H176 H 0.12204 0.04323 0.24346 0.0
C177 C 0.08695 0.13904 0.35011 0.0
C178 C 0.07145 0.08357 0.3525 0.0
H179 H 0.1239 0.2031 0.30644 0.0
H180 H 0.07572 0.16596 0.37879 0.0
C181 C 0.08668 0.04989 0.31438 0.0
C182 C 0.37897 0.94263 0.79261 0.0
C183 C 0.42148 0.94336 0.76134 0.0
H184 H 0.35402 0.94995 0.8688 0.0
C185 C 0.47237 0.9589 0.78325 0.0
H186 H 0.3393 0.93029 0.77688 0.0
C187 C 0.48055 0.97158 0.8356 0.0
C188 C 0.43806 0.96836 0.86698 0.0
H189 H 0.50579 0.96 0.7601 0.0
H190 H 0.52016 0.98071 0.85206 0.0
C191 C 0.38723 0.95435 0.84507 0.0
C192 C 0.63382 0.45548 0.68059 0.0
C193 C 0.6142 0.41377 0.71119 0.0
H194 H 0.6182 0.52405 0.64309 0.0
C195 C 0.56081 0.40342 0.72071 0.0
H196 H 0.67495 0.46397 0.67326 0.0
C197 C 0.52908 0.43816 0.7048 0.0
C198 C 0.54999 0.48267 0.67825 0.0
H199 H 0.54456 0.3714 0.74414 0.0
H200 H 0.489 0.43209 0.71586 0.0
C201 C 0.60163 0.4897 0.66363 0.0
C202 C 0.90413 0.57773 0.26674 0.0
C203 C 0.92304 0.63154 0.28251 0.0
H204 H 0.90287 0.51567 0.209 0.0
C205 C 0.94878 0.66611 0.24795 0.0
H206 H 0.88387 0.55008 0.29236 0.0
C207 C 0.95872 0.64646 0.19949 0.0
C208 C 0.9433 0.59184 0.18546 0.0
H209 H 0.96347 0.7077 0.2595 0.0
H210 H 0.98216 0.67288 0.17486 0.0
C211 C 0.91445 0.55811 0.21879 0.0
C212 C 0.28279 0.09701 0.14961 0.0
C213 C 0.24563 0.11955 0.12178 0.0
H214 H 0.35423 0.06677 0.14906 0.0
C215 C 0.25007 0.1211 0.06869 0.0
H216 H 0.28202 0.09537 0.19046 0.0
C217 C 0.29261 0.10564 0.04528 0.0
C218 C 0.33097 0.0862 0.07375 0.0
H219 H 0.2218 0.13611 0.04508 0.0
H220 H 0.29709 0.11171 1.00521 0.0
C221 C 0.32446 0.08004 0.12579 0.0
C222 C 0.22226 0.96623 0.56394 0.0
C223 C 0.2655 0.00277 0.58613 0.0
H224 H 0.14128 0.95395 0.53891 0.0
C225 C 0.26237 0.0565 0.5936 0.0
H226 H 0.22381 0.92428 0.55818 0.0
C227 C 0.21578 0.07341 0.58258 0.0
C228 C 0.17105 0.03655 0.5643 0.0
H229 H 0.2954 0.08491 0.6107 0.0
H230 H 0.2141 0.11501 0.59104 0.0
C231 C 0.17515 0.98316 0.55294 0.0
C232 C 0.80128 0.40588 0.94036 0.0
C233 C 0.78907 0.40268 0.88755 0.0
H234 H 0.85043 0.44686 1.00292 0.0
C235 C 0.81668 0.44181 0.85793 0.0
H236 H 0.78006 0.37764 0.96487 0.0
C237 C 0.85497 0.48284 0.88024 0.0
C238 C 0.86808 0.48495 0.93251 0.0
H239 H 0.80947 0.44053 0.81714 0.0
H240 H 0.87592 0.51164 0.85601 0.0
C241 C 0.84092 0.44615 0.96247 0.0
C242 C 0.76331 0.6545 0.52789 0.0
C243 C 0.79331 0.6158 0.51475 0.0
H244 H 0.68628 0.67026 0.53808 0.0
C245 C 0.76963 0.56164 0.51204 0.0
H246 H 0.78046 0.69666 0.52958 0.0
C247 C 0.71601 0.54684 0.51682 0.0
C248 C 0.68528 0.58586 0.52463 0.0
H249 H 0.79185 0.53109 0.50224 0.0
H250 H 0.69786 0.50509 0.51043 0.0
C251 C 0.70945 0.63957 0.53275 0.0
C252 C 0.13229 0.35301 0.04532 0.0
C253 C 0.10817 0.31342 0.0763 0.0
H254 H 0.12804 0.42665 0.01035 0.0
C255 C 0.05737 0.31496 0.09124 0.0
H256 H 0.17123 0.35241 0.03308 0.0
C257 C 0.03242 0.35645 0.07764 0.0
C258 C 0.05764 0.39809 0.04924 0.0
H259 H 0.03722 0.28467 0.11449 0.0
H260 H 0.99403 0.35698 0.09141 0.0
C261 C 0.10749 0.39529 0.03223 0.0
C262 C 0.67101 0.2371 0.95305 0.0
C263 C 0.66164 0.23121 0.89992 0.0
H264 H 0.64171 0.21754 0.02538 0.0
C265 C 0.62178 0.1891 0.87968 0.0
H266 H 0.70093 0.26836 0.97096 0.0
C267 C 0.58664 0.16057 0.91172 0.0
C268 C 0.59223 0.17286 0.96416 0.0
H269 H 0.61464 0.18144 0.83902 0.0
H270 H 0.55254 0.13318 0.89527 0.0
C271 C 0.63671 0.20797 0.98473 0.0
C272 C 0.99618 0.78137 0.48646 0.0
C273 C 0.9485 0.7586 0.50654 0.0
H274 H 0.03993 0.85206 0.45752 0.0
C275 C 0.92037 0.79295 0.5322 0.0
H276 H 0.02055 0.75644 0.4689 0.0
C277 C 0.93339 0.84798 0.528 0.0
C278 C 0.97363 0.86878 0.49725 0.0
H279 H 0.88398 0.77789 0.54918 0.0
H280 H 0.90651 0.87266 0.54118 0.0
C281 C 0.00815 0.83635 0.48093 0.0
C282 C 0.41846 0.78 0.58165 0.0
C283 C 0.44899 0.82261 0.61185 0.0
H284 H 0.41234 0.70014 0.54954 0.0
C285 C 0.50133 0.82019 0.62451 0.0
H286 H 0.37785 0.77995 0.57155 0.0
C287 C 0.52082 0.77402 0.61211 0.0
C288 C 0.48876 0.72985 0.58589 0.0
H289 H 0.52638 0.85273 0.64656 0.0
H290 H 0.55955 0.77115 0.62669 0.0
C291 C 0.43837 0.73426 0.56843 0.0
C292 C 0.87737 0.92858 0.72128 0.0
C293 C 0.9125 0.91685 0.75955 0.0
H294 H 0.86798 0.96703 0.65131 0.0
C295 C 0.96614 0.92904 0.75159 0.0
H296 H 0.83568 0.91902 0.72562 0.0
C297 C 0.98427 0.95606 0.70906 0.0
C298 C 0.94946 0.97126 0.67288 0.0
H299 H 0.99448 0.92114 0.77998 0.0
H300 H 0.02603 0.96786 0.7059 0.0
C301 C 0.89568 0.95548 0.67829 0.0
C302 C 0.59338 0.15823 0.27559 0.0
C303 C 0.59839 0.11275 0.30158 0.0
H304 H 0.56886 0.18969 0.20754 0.0
C305 C 0.58398 0.06205 0.27623 0.0
H306 H 0.60498 0.19779 0.29415 0.0
C307 C 0.56277 0.05712 0.2259 0.0
C308 C 0.55595 0.10292 0.20068 0.0
H309 H 0.58762 0.02647 0.29575 0.0
H310 H 0.55063 0.01768 0.2073 0.0
C311 C 0.57246 0.15344 0.22594 0.0
C312 C 0.3497 0.596 0.37454 0.0
C313 C 0.36141 0.65182 0.37975 0.0
H314 H 0.37804 0.5234 0.38398 0.0
C315 C 0.40621 0.67736 0.40918 0.0
H316 H 0.31546 0.57589 0.35184 0.0
C317 C 0.44146 0.64732 0.42844 0.0
C318 C 0.43246 0.59196 0.41761 0.0
H319 H 0.41593 0.72051 0.41397 0.0
H320 H 0.47778 0.66774 0.44757 0.0
C321 C 0.38542 0.56619 0.39265 0.0
C322 C 0.07147 0.45787 0.79095 0.0
C323 C 0.11639 0.48383 0.76845 0.0
H324 H 0.02062 0.4604 0.85226 0.0
C325 C 0.14929 0.52706 0.79486 0.0
H326 H 0.04563 0.42415 0.77135 0.0
C327 C 0.13499 0.54771 0.84097 0.0
C328 C 0.08828 0.52424 0.86157 0.0
H329 H 0.18398 0.5473 0.77779 0.0
H330 H 0.15814 0.58439 0.85835 0.0
C331 C 0.05765 0.47798 0.83749 0.0
C332 C 0.71807 0.98074 0.93862 0.0
C333 C 0.74487 0.94778 0.96683 0.0
H334 H 0.64944 0.0156 0.93165 0.0
C335 C 0.72675 0.93161 0.01379 0.0
H336 H 0.73141 0.99413 0.9023 0.0
C337 C 0.68001 0.9437 0.03033 0.0
C338 C 0.65124 0.97331 1.00062 0.0
H339 H 0.74697 0.9064 0.03597 0.0
H340 H 0.66454 0.92695 0.06474 0.0
C341 C 0.67158 0.99364 0.95565 0.0
C342 C 0.77757 0.12169 0.40102 0.0
C343 C 0.73875 0.11646 0.43672 0.0
H344 H 0.8515 0.10484 0.38084 0.0
C345 C 0.74917 0.09607 0.48397 0.0
H346 H 0.77136 0.13831 0.36475 0.0
C347 C 0.796 0.0776 0.49355 0.0
C348 C 0.83271 0.07936 0.45594 0.0
H349 H 0.71995 0.09154 0.51218 0.0
H350 H 0.80204 0.05909 0.52885 0.0
C351 C 0.82365 0.10291 0.41033 0.0
C352 C 0.23554 0.65246 0.17601 0.0
C353 C 0.23732 0.70797 0.18077 0.0
H354 H 0.19667 0.57699 0.14153 0.0
C355 C 0.2039 0.73034 0.14855 0.0
H356 H 0.26199 0.63393 0.19865 0.0
C357 C 0.16783 0.69777 0.1144 0.0
C358 C 0.16372 0.64208 0.11245 0.0
H359 H 0.20409 0.77284 0.15104 0.0
H360 H 0.14096 0.71597 0.09191 0.0
C361 C 0.19878 0.61984 0.14259 0.0
C362 C 0.23529 0.52352 0.56328 0.0
C363 C 0.2175 0.46844 0.55251 0.0
H364 H 0.30139 0.58634 0.58036 0.0
C365 C 0.25378 0.4363 0.53966 0.0
H366 H 0.2081 0.54932 0.57276 0.0
C367 C 0.30736 0.45786 0.54319 0.0
C368 C 0.32495 0.51143 0.56037 0.0
H369 H 0.2412 0.3937 0.53158 0.0
H370 H 0.33495 0.43167 0.53687 0.0
C371 C 0.28857 0.54464 0.56799 0.0
C372 C 0.89831 0.77034 0.94386 0.0
C373 C 0.92793 0.81009 0.916 0.0
H374 H 0.89767 0.70102 0.98735 0.0
C375 C 0.98215 0.813 0.91619 0.0
H376 H 0.85639 0.76684 0.94462 0.0
C377 C 0.00577 0.77591 0.94132 0.0
C378 C 0.97594 0.73429 0.96678 0.0
H379 H 0.00643 0.84367 0.89629 0.0
H380 H 0.04746 0.77858 0.93889 0.0
C381 C 0.92199 0.73279 0.9688 0.0
C382 C 0.35461 0.90304 0.18645 0.0
C383 C 0.37536 0.868 0.2176 0.0
H384 H 0.36363 0.94577 0.11836 0.0
C385 C 0.42817 0.86449 0.21467 0.0
H386 H 0.31418 0.90702 0.18862 0.0
C387 C 0.45622 0.88671 0.17474 0.0
C388 C 0.43193 0.91308 0.13806 0.0
H389 H 0.44545 0.83807 0.23818 0.0
H390 H 0.4943 0.8771 0.16875 0.0
C391 C 0.38286 0.92538 0.1464 0.0
C392 C 0.08168 0.28581 0.5115 0.0
C393 C 0.05519 0.3241 0.5327 0.0
H394 H 0.0831 0.20269 0.50052 0.0
C395 C 0.00187 0.30806 0.54169 0.0
H396 H 0.1224 0.29643 0.5031 0.0
C397 C 0.97976 0.2538 0.5415 0.0
C398 C 0.01036 0.2154 0.53086 0.0
H399 H 0.97945 0.33685 0.55575 0.0
H400 H 0.94187 0.24219 0.55714 0.0
C401 C 0.05885 0.23161 0.50967 0.0
C402 C 0.59998 0.3237 0.54301 0.0
C403 C 0.57495 0.27906 0.51228 0.0
H404 H 0.60027 0.40548 0.56695 0.0
C405 C 0.52471 0.27922 0.49034 0.0
H406 H 0.6386 0.32462 0.5601 0.0
C407 C 0.50323 0.32527 0.49371 0.0
C408 C 0.53072 0.37168 0.52006 0.0
H409 H 0.50381 0.24535 0.46679 0.0
H410 H 0.46712 0.32597 0.47214 0.0
C411 C 0.57787 0.36975 0.54714 0.0
loop_
_geom_bond_atom_site_label_1
_geom_bond_atom_site_label_2
_geom_bond_distance
_geom_bond_site_symmetry_2
_ccdc_geom_bond_type
H0 C5 0.929 . S
H1 C10 0.931 . S
H2 C8 0.930 . S
N3 N4 1.234 . S
N3 C7 1.453 . S
N4 N3 1.234 . S
C5 H0 0.929 . S
C5 C6 1.373 . S
C5 C7 1.368 . S
C6 C5 1.373 . S
C6 C10 1.397 . S
C7 N3 1.453 . S
C7 C5 1.368 . S
C7 C8 1.373 . S
C8 H2 0.930 . S
C8 C7 1.373 . S
C8 C9 1.371 . S
C9 C8 1.371 . S
C9 C10 1.383 . S
C10 H1 0.931 . S
C10 C6 1.397 . S
C10 C9 1.383 . S
H11 C16 0.929 . S
H12 C21 0.931 . S
H13 C19 0.930 . S
N14 N15 1.234 . S
N14 C18 1.453 . S
N15 N14 1.234 . S
C16 H11 0.929 . S
C16 C17 1.373 . S
C16 C18 1.368 . S
C17 C16 1.373 . S
C17 C21 1.397 . S
C18 N14 1.453 . S
C18 C16 1.368 . S
C18 C19 1.373 . S
C19 H13 0.930 . S
C19 C18 1.373 . S
C19 C20 1.371 . S
C20 C19 1.371 . S
C20 C21 1.383 . S
C21 H12 0.931 . S
C21 C17 1.397 . S
C21 C20 1.383 . S
H22 C27 0.929 . S
H23 C32 0.931 . S
H24 C30 0.930 . S
N25 N26 1.234 . S
N25 C29 1.453 . S
N26 N25 1.234 . S
C27 H22 0.929 . S
C27 C28 1.373 . S
C27 C29 1.368 . S
C28 C27 1.373 . S
C28 C32 1.397 . S
C29 N25 1.453 . S
C29 C27 1.368 . S
C29 C30 1.373 . S
C30 H24 0.930 . S
C30 C29 1.373 . S
C30 C31 1.371 . S
C31 C30 1.371 . S
C31 C32 1.383 . S
C32 H23 0.931 . S
C32 C28 1.397 . S
C32 C31 1.383 . S
H33 C38 0.929 . S
H34 C43 0.931 . S
H35 C41 0.930 . S
N36 N37 1.234 . S
N36 C40 1.453 . S
N37 N36 1.234 . S
C38 H33 0.929 . S
C38 C39 1.373 . S
C38 C40 1.368 . S
C39 C38 1.373 . S
C39 C43 1.397 . S
C40 N36 1.453 . S
C40 C38 1.368 . S
C40 C41 1.373 . S
C41 H35 0.930 . S
C41 C40 1.373 . S
C41 C42 1.371 . S
C42 C41 1.371 . S
C42 C43 1.383 . S
C43 H34 0.931 . S
C43 C39 1.397 . S
C43 C42 1.383 . S
H44 C49 0.929 . S
H45 C54 0.931 . S
H46 C52 0.930 . S
N47 N48 1.234 . S
N47 C51 1.453 . S
N48 N47 1.234 . S
C49 H44 0.929 . S
C49 C50 1.373 . S
C49 C51 1.368 . S
C50 C49 1.373 . S
C50 C54 1.397 . S
C51 N47 1.453 . S
C51 C49 1.368 . S
C51 C52 1.373 . S
C52 H46 0.930 . S
C52 C51 1.373 . S
C52 C53 1.371 . S
C53 C52 1.371 . S
C53 C54 1.383 . S
C54 H45 0.931 . S
C54 C50 1.397 . S
C54 C53 1.383 . S
H55 C60 0.929 . S
H56 C65 0.931 . S
H57 C63 0.930 . S
N58 N59 1.234 . S
N58 C62 1.453 . S
N59 N58 1.234 . S
C60 H55 0.929 . S
C60 C61 1.373 . S
C60 C62 1.368 . S
C61 C60 1.373 . S
C61 C65 1.397 . S
C62 N58 1.453 . S
C62 C60 1.368 . S
C62 C63 1.373 . S
C63 H57 0.930 . S
C63 C62 1.373 . S
C63 C64 1.371 . S
C64 C63 1.371 . S
C64 C65 1.383 . S
C65 H56 0.931 . S
C65 C61 1.397 . S
C65 C64 1.383 . S
H66 C71 0.929 . S
H67 C76 0.931 . S
H68 C74 0.930 . S
N69 N70 1.234 . S
N69 C73 1.453 . S
N70 N69 1.234 . S
C71 H66 0.929 . S
C71 C72 1.373 . S
C71 C73 1.368 . S
C72 C71 1.373 . S
C72 C76 1.397 . S
C73 N69 1.453 . S
C73 C71 1.368 . S
C73 C74 1.373 . S
C74 H68 0.930 . S
C74 C73 1.373 . S
C74 C75 1.371 . S
C75 C74 1.371 . S
C75 C76 1.383 . S
C76 H67 0.931 . S
C76 C72 1.397 . S
C76 C75 1.383 . S
H77 C82 0.929 . S
H78 C87 0.931 . S
H79 C85 0.930 . S
N80 N81 1.234 . S
N80 C84 1.453 . S
N81 N80 1.234 . S
C82 H77 0.929 . S
C82 C83 1.373 . S
C82 C84 1.368 . S
C83 C82 1.373 . S
C83 C87 1.397 . S
C84 N80 1.453 . S
C84 C82 1.368 . S
C84 C85 1.373 . S
C85 H79 0.930 . S
C85 C84 1.373 . S
C85 C86 1.371 . S
C86 C85 1.371 . S
C86 C87 1.383 . S
C87 H78 0.931 . S
C87 C83 1.397 . S
C87 C86 1.383 . S
O88 Mg89 1.990 . S
O88 C102 1.253 1_445 S
Mg89 O88 1.990 . S
Mg89 O92 2.180 . S
Mg89 O93 2.117 . S
Mg89 O107 2.030 . S
O90 Mg91 2.072 1_665 S
O90 C102 1.260 . S
Mg91 O90 2.072 1_445 S
Mg91 O92 2.099 . S
Mg91 O94 2.079 . S
Mg91 O95 2.072 1_455 S
Mg91 O97 2.099 1_445 S
Mg91 O108 2.079 . S
O92 Mg89 2.180 . S
O92 Mg91 2.099 . S
O92 C103 1.279 . S
O93 Mg89 2.117 . S
O93 C103 1.250 . S
O94 Mg91 2.079 . S
O94 C104 1.264 . S
O95 Mg91 2.072 1_655 S
O95 C105 1.260 . S
Mg96 O97 2.180 . S
Mg96 O98 2.030 1_565 S
Mg96 O99 1.990 1_565 S
Mg96 O100 2.117 . S
O97 Mg91 2.099 1_665 S
O97 Mg96 2.180 . S
O97 C106 1.279 . S
O98 Mg96 2.030 1_545 S
O98 C104 1.248 1_655 S
O99 Mg96 1.990 1_545 S
O99 C105 1.253 . S
O100 Mg96 2.117 . S
O100 C106 1.250 . S
C101 O107 1.248 1_565 S
C101 O108 1.264 1_565 S
C102 O88 1.253 1_665 S
C102 O90 1.260 . S
C103 O92 1.279 . S
C103 O93 1.250 . S
C104 O94 1.264 . S
C104 O98 1.248 1_455 S
C105 O95 1.260 . S
C105 O99 1.253 . S
C106 O97 1.279 . S
C106 O100 1.250 . S
O107 Mg89 2.030 . S
O107 C101 1.248 1_545 S
O108 Mg91 2.079 . S
O108 C101 1.264 1_545 S
O109 Mg110 1.990 . S
O109 C123 1.253 . S
Mg110 O109 1.990 . S
Mg110 O113 2.180 . S
Mg110 O114 2.117 . S
Mg110 O128 2.030 . S
O111 Mg112 2.072 . S
O111 C123 1.260 . S
Mg112 O111 2.072 . S
Mg112 O113 2.099 . S
Mg112 O115 2.079 . S
Mg112 O116 2.072 1_554 S
Mg112 O118 2.099 1_545 S
Mg112 O129 2.079 . S
O113 Mg110 2.180 . S
O113 Mg112 2.099 . S
O113 C124 1.279 1_554 S
O114 Mg110 2.117 . S
O114 C124 1.250 1_554 S
O115 Mg112 2.079 . S
O115 C125 1.264 1_544 S
O116 Mg112 2.072 1_556 S
O116 C126 1.260 1_545 S
Mg117 O118 2.180 1_556 S
Mg117 O119 2.030 . S
Mg117 O120 1.990 . S
Mg117 O121 2.117 1_556 S
O118 Mg112 2.099 1_565 S
O118 Mg117 2.180 1_554 S
O118 C127 1.279 . S
O119 Mg117 2.030 . S
O119 C125 1.248 . S
O120 Mg117 1.990 . S
O120 C126 1.253 . S
O121 Mg117 2.117 1_554 S
O121 C127 1.250 . S
C122 O128 1.248 . S
C122 O129 1.264 . S
C123 O109 1.253 . S
C123 O111 1.260 . S
C124 O113 1.279 1_556 S
C124 O114 1.250 1_556 S
C125 O115 1.264 1_566 S
C125 O119 1.248 . S
C126 O116 1.260 1_565 S
C126 O120 1.253 . S
C127 O118 1.279 . S
C127 O121 1.250 . S
O128 Mg110 2.030 . S
O128 C122 1.248 . S
O129 Mg112 2.079 . S
O129 C122 1.264 . S
O130 Mg131 1.990 . S
O130 C144 1.253 . S
Mg131 O130 1.990 . S
Mg131 O134 2.180 . S
Mg131 O135 2.117 . S
Mg131 O149 2.030 . S
O132 Mg133 2.072 . S
O132 C144 1.260 . S
Mg133 O132 2.072 . S
Mg133 O134 2.099 . S
Mg133 O136 2.079 . S
Mg133 O137 2.072 . S
Mg133 O139 2.099 . S
Mg133 O150 2.079 . S
O134 Mg131 2.180 . S
O134 Mg133 2.099 . S
O134 C145 1.279 . S
O135 Mg131 2.117 . S
O135 C145 1.250 . S
O136 Mg133 2.079 . S
O136 C146 1.264 . S
O137 Mg133 2.072 . S
O137 C147 1.260 . S
Mg138 O139 2.180 . S
Mg138 O140 2.030 . S
Mg138 O141 1.990 . S
Mg138 O142 2.117 . S
O139 Mg133 2.099 . S
O139 Mg138 2.180 . S
O139 C148 1.279 . S
O140 Mg138 2.030 . S
O140 C146 1.248 . S
O141 Mg138 1.990 . S
O141 C147 1.253 . S
O142 Mg138 2.117 . S
O142 C148 1.250 . S
C143 O149 1.248 . S
C143 O150 1.264 . S
C144 O130 1.253 . S
C144 O132 1.260 . S
C145 O134 1.279 . S
C145 O135 1.250 . S
C146 O136 1.264 . S
C146 O140 1.248 . S
C147 O137 1.260 . S
C147 O141 1.253 . S
C148 O139 1.279 . S
C148 O142 1.250 . S
O149 Mg131 2.030 . S
O149 C143 1.248 . S
O150 Mg133 2.079 . S
O150 C143 1.264 . S
O151 Mg152 1.990 . S
O151 C165 1.253 . S
Mg152 O151 1.990 . S
Mg152 O155 2.180 . S
Mg152 O156 2.117 1_455 S
Mg152 O170 2.030 . S
O153 Mg154 2.072 . S
O153 C165 1.260 . S
Mg154 O153 2.072 . S
Mg154 O155 2.099 . S
Mg154 O157 2.079 1_554 S
Mg154 O158 2.072 1_454 S
Mg154 O160 2.099 1_554 S
Mg154 O171 2.079 . S
O155 Mg152 2.180 . S
O155 Mg154 2.099 . S
O155 C166 1.279 1_455 S
O156 Mg152 2.117 1_655 S
O156 C166 1.250 . S
O157 Mg154 2.079 1_556 S
O157 C167 1.264 1_455 S
O158 Mg154 2.072 1_656 S
O158 C168 1.263 . S
Mg159 O160 2.180 1_655 S
Mg159 O161 2.030 . S
Mg159 O162 1.990 . S
Mg159 O163 2.117 1_655 S
O160 Mg154 2.099 1_556 S
O160 Mg159 2.180 1_455 S
O160 C169 1.279 . S
O161 Mg159 2.030 . S
O161 C167 1.248 . S
O162 Mg159 1.990 . S
O162 C168 1.253 . S
O163 Mg159 2.117 1_455 S
O163 C169 1.250 . S
C164 O170 1.248 . S
C164 O171 1.264 . S
C165 O151 1.253 . S
C165 O153 1.260 . S
C166 O155 1.279 1_655 S
C166 O156 1.250 . S
C167 O157 1.264 1_655 S
C167 O161 1.248 . S
C168 O158 1.263 . S
C168 O162 1.253 . S
C169 O160 1.279 . S
C169 O163 1.250 . S
O170 Mg152 2.030 . S
O170 C164 1.248 . S
O171 Mg154 2.079 . S
O171 C164 1.264 . S
C172 C173 1.387 . S
C172 H176 0.950 . S
C172 C181 1.390 . S
C173 C172 1.387 . S
C173 C175 1.387 . S
H174 C181 0.950 . S
C175 C173 1.387 . S
C175 C177 1.390 . S
C175 H179 0.950 . S
H176 C172 0.950 . S
C177 C175 1.390 . S
C177 C178 1.387 . S
C177 H180 0.950 . S
C178 C177 1.387 . S
C178 C181 1.387 . S
H179 C175 0.950 . S
H180 C177 0.950 . S
C181 C172 1.390 . S
C181 H174 0.950 . S
C181 C178 1.387 . S
C182 C183 1.387 . S
C182 H186 0.950 . S
C182 C191 1.390 . S
C183 C182 1.387 . S
C183 C185 1.387 . S
H184 C191 0.950 . S
C185 C183 1.387 . S
C185 C187 1.390 . S
C185 H189 0.950 . S
H186 C182 0.950 . S
C187 C185 1.390 . S
C187 C188 1.387 . S
C187 H190 0.949 1_565 S
C188 C187 1.387 . S
C188 C191 1.387 . S
H189 C185 0.950 . S
H190 C187 0.949 1_545 S
C191 C182 1.390 . S
C191 H184 0.950 . S
C191 C188 1.387 . S
C192 C193 1.387 . S
C192 H196 0.950 . S
C192 C201 1.390 . S
C193 C192 1.387 . S
C193 C195 1.387 . S
H194 C201 0.950 . S
C195 C193 1.387 . S
C195 C197 1.390 . S
C195 H199 0.950 . S
H196 C192 0.950 . S
C197 C195 1.390 . S
C197 C198 1.387 . S
C197 H200 0.950 . S
C198 C197 1.387 . S
C198 C201 1.387 . S
H199 C195 0.950 . S
H200 C197 0.950 . S
C201 C192 1.390 . S
C201 H194 0.950 . S
C201 C198 1.387 . S
C202 C203 1.387 . S
C202 H206 0.950 . S
C202 C211 1.390 . S
C203 C202 1.387 . S
C203 C205 1.387 . S
H204 C211 0.950 . S
C205 C203 1.387 . S
C205 C207 1.390 . S
C205 H209 0.950 . S
H206 C202 0.950 . S
C207 C205 1.390 . S
C207 C208 1.387 . S
C207 H210 0.950 . S
C208 C207 1.387 . S
C208 C211 1.387 . S
H209 C205 0.950 . S
H210 C207 0.950 . S
C211 C202 1.390 . S
C211 H204 0.950 . S
C211 C208 1.387 . S
C212 C213 1.387 . S
C212 H216 0.950 . S
C212 C221 1.390 . S
C213 C212 1.387 . S
C213 C215 1.387 . S
H214 C221 0.950 . S
C215 C213 1.387 . S
C215 C217 1.390 . S
C215 H219 0.950 . S
H216 C212 0.950 . S
C217 C215 1.390 . S
C217 C218 1.387 . S
C217 H220 0.950 . S
C218 C217 1.387 . S
C218 C221 1.387 . S
H219 C215 0.950 . S
H220 C217 0.950 . S
C221 C212 1.390 . S
C221 H214 0.950 . S
C221 C218 1.387 . S
C222 C223 1.387 . S
C222 H226 0.950 . S
C222 C231 1.390 . S
C223 C222 1.387 . S
C223 C225 1.387 1_565 S
H224 C231 0.950 . S
C225 C223 1.387 1_545 S
C225 C227 1.390 . S
C225 H229 0.950 . S
H226 C222 0.950 . S
C227 C225 1.390 . S
C227 C228 1.387 1_545 S
C227 H230 0.950 . S
C228 C227 1.387 1_565 S
C228 C231 1.387 . S
H229 C225 0.950 . S
H230 C227 0.950 . S
C231 C222 1.390 . S
C231 H224 0.950 . S
C231 C228 1.387 . S
C232 C233 1.387 . S
C232 H236 0.950 1_556 S
C232 C241 1.390 1_556 S
C233 C232 1.387 . S
C233 C235 1.387 . S
H234 C241 0.950 . S
C235 C233 1.387 . S
C235 C237 1.390 . S
C235 H239 0.950 . S
H236 C232 0.950 1_554 S
C237 C235 1.390 . S
C237 C238 1.387 . S
C237 H240 0.950 . S
C238 C237 1.387 . S
C238 C241 1.387 1_556 S
H239 C235 0.950 . S
H240 C237 0.950 . S
C241 C232 1.390 1_554 S
C241 H234 0.950 . S
C241 C238 1.387 1_554 S
C242 C243 1.387 . S
C242 H246 0.950 . S
C242 C251 1.390 . S
C243 C242 1.387 . S
C243 C245 1.387 . S
H244 C251 0.950 . S
C245 C243 1.387 . S
C245 C247 1.390 . S
C245 H249 0.950 . S
H246 C242 0.950 . S
C247 C245 1.390 . S
C247 C248 1.387 . S
C247 H250 0.950 . S
C248 C247 1.387 . S
C248 C251 1.387 . S
H249 C245 0.950 . S
H250 C247 0.950 . S
C251 C242 1.390 . S
C251 H244 0.950 . S
C251 C248 1.387 . S
C252 C253 1.387 . S
C252 H256 0.950 1_554 S
C252 C261 1.390 . S
C253 C252 1.387 . S
C253 C255 1.387 . S
H254 C261 0.950 1_556 S
C255 C253 1.387 . S
C255 C257 1.390 . S
C255 H259 0.950 . S
H256 C252 0.950 1_556 S
C257 C255 1.390 . S
C257 C258 1.387 . S
C257 H260 0.950 . S
C258 C257 1.387 . S
C258 C261 1.387 . S
H259 C255 0.950 . S
H260 C257 0.950 . S
C261 C252 1.390 . S
C261 H254 0.950 1_554 S
C261 C258 1.387 . S
C262 C263 1.387 . S
C262 H266 0.950 1_556 S
C262 C271 1.390 1_556 S
C263 C262 1.387 . S
C263 C265 1.387 . S
H264 C271 0.950 . S
C265 C263 1.387 . S
C265 C267 1.390 . S
C265 H269 0.950 . S
H266 C262 0.950 1_554 S
C267 C265 1.390 . S
C267 C268 1.387 . S
C267 H270 0.950 . S
C268 C267 1.387 . S
C268 C271 1.387 1_556 S
H269 C265 0.950 . S
H270 C267 0.950 . S
C271 C262 1.390 1_554 S
C271 H264 0.950 . S
C271 C268 1.387 1_554 S
C272 C273 1.387 . S
C272 H276 0.950 . S
C272 C281 1.390 . S
C273 C272 1.387 . S
C273 C275 1.387 . S
H274 C281 0.950 . S
C275 C273 1.387 . S
C275 C277 1.390 . S
C275 H279 0.950 . S
H276 C272 0.950 . S
C277 C275 1.390 . S
C277 C278 1.387 . S
C277 H280 0.950 . S
C278 C277 1.387 . S
C278 C281 1.387 . S
H279 C275 0.950 . S
H280 C277 0.950 . S
C281 C272 1.390 . S
C281 H274 0.950 . S
C281 C278 1.387 . S
C282 C283 1.387 . S
C282 H286 0.950 . S
C282 C291 1.390 . S
C283 C282 1.387 . S
C283 C285 1.387 . S
H284 C291 0.950 . S
C285 C283 1.387 . S
C285 C287 1.390 . S
C285 H289 0.950 . S
H286 C282 0.950 . S
C287 C285 1.390 . S
C287 C288 1.387 . S
C287 H290 0.950 . S
C288 C287 1.387 . S
C288 C291 1.387 . S
H289 C285 0.950 . S
H290 C287 0.950 . S
C291 C282 1.390 . S
C291 H284 0.950 . S
C291 C288 1.387 . S
C292 C293 1.387 . S
C292 H296 0.950 . S
C292 C301 1.390 . S
C293 C292 1.387 . S
C293 C295 1.387 . S
H294 C301 0.950 1_545 S
C295 C293 1.387 . S
C295 C297 1.390 . S
C295 H299 0.941 1_655 S
H296 C292 0.950 . S
C297 C295 1.390 . S
C297 C298 1.387 . S
C297 H300 0.950 1_655 S
C298 C297 1.387 . S
C298 C301 1.387 . S
H299 C295 0.941 1_455 S
H300 C297 0.950 1_455 S
C301 C292 1.390 . S
C301 H294 0.950 1_565 S
C301 C298 1.387 . S
C302 C303 1.387 . S
C302 H306 0.950 . S
C302 C311 1.390 . S
C303 C302 1.387 . S
C303 C305 1.387 . S
H304 C311 0.950 . S
C305 C303 1.387 . S
C305 C307 1.390 . S
C305 H309 0.950 . S
H306 C302 0.950 . S
C307 C305 1.390 . S
C307 C308 1.387 . S
C307 H310 0.950 . S
C308 C307 1.387 . S
C308 C311 1.387 . S
H309 C305 0.950 . S
H310 C307 0.950 . S
C311 C302 1.390 . S
C311 H304 0.950 . S
C311 C308 1.387 . S
C312 C313 1.387 . S
C312 H316 0.950 . S
C312 C321 1.390 . S
C313 C312 1.387 . S
C313 C315 1.387 . S
H314 C321 0.950 . S
C315 C313 1.387 . S
C315 C317 1.390 . S
C315 H319 0.950 . S
H316 C312 0.950 . S
C317 C315 1.390 . S
C317 C318 1.387 . S
C317 H320 0.950 . S
C318 C317 1.387 . S
C318 C321 1.387 . S
H319 C315 0.950 . S
H320 C317 0.950 . S
C321 C312 1.390 . S
C321 H314 0.950 . S
C321 C318 1.387 . S
C322 C323 1.387 . S
C322 H326 0.950 . S
C322 C331 1.390 . S
C323 C322 1.387 . S
C323 C325 1.387 . S
H324 C331 0.950 . S
C325 C323 1.387 . S
C325 C327 1.390 . S
C325 H329 0.950 . S
H326 C322 0.950 . S
C327 C325 1.390 . S
C327 C328 1.387 . S
C327 H330 0.950 . S
C328 C327 1.387 . S
C328 C331 1.387 . S
H329 C325 0.950 . S
H330 C327 0.950 . S
C331 C322 1.390 . S
C331 H324 0.950 . S
C331 C328 1.387 . S
C332 C333 1.387 1_545 S
C332 H336 0.950 . S
C332 C341 1.390 . S
C333 C332 1.387 1_565 S
C333 C335 1.387 . S
H334 C341 0.950 . S
C335 C333 1.387 . S
C335 C337 1.390 . S
C335 H339 0.950 . S
H336 C332 0.950 . S
C337 C335 1.390 . S
C337 C338 1.387 . S
C337 H340 0.942 1_556 S
C338 C337 1.387 . S
C338 C341 1.387 1_565 S
H339 C335 0.950 . S
H340 C337 0.942 1_554 S
C341 C332 1.390 . S
C341 H334 0.950 . S
C341 C338 1.387 1_545 S
C342 C343 1.387 . S
C342 H346 0.950 . S
C342 C351 1.390 . S
C343 C342 1.387 . S
C343 C345 1.387 . S
H344 C351 0.950 . S
C345 C343 1.387 . S
C345 C347 1.390 . S
C345 H349 0.950 . S
H346 C342 0.950 . S
C347 C345 1.390 . S
C347 C348 1.387 . S
C347 H350 0.950 . S
C348 C347 1.387 . S
C348 C351 1.387 . S
H349 C345 0.950 . S
H350 C347 0.950 . S
C351 C342 1.390 . S
C351 H344 0.950 . S
C351 C348 1.387 . S
C352 C353 1.387 . S
C352 H356 0.950 . S
C352 C361 1.390 . S
C353 C352 1.387 . S
C353 C355 1.387 . S
H354 C361 0.950 . S
C355 C353 1.387 . S
C355 C357 1.390 . S
C355 H359 0.950 . S
H356 C352 0.950 . S
C357 C355 1.390 . S
C357 C358 1.387 . S
C357 H360 0.950 . S
C358 C357 1.387 . S
C358 C361 1.387 . S
H359 C355 0.950 . S
H360 C357 0.950 . S
C361 C352 1.390 . S
C361 H354 0.950 . S
C361 C358 1.387 . S
C362 C363 1.387 . S
C362 H366 0.950 . S
C362 C371 1.390 . S
C363 C362 1.387 . S
C363 C365 1.387 . S
H364 C371 0.950 . S
C365 C363 1.387 . S
C365 C367 1.390 . S
C365 H369 0.950 . S
H366 C362 0.950 . S
C367 C365 1.390 . S
C367 C368 1.387 . S
C367 H370 0.950 . S
C368 C367 1.387 . S
C368 C371 1.387 . S
H369 C365 0.950 . S
H370 C367 0.950 . S
C371 C362 1.390 . S
C371 H364 0.950 . S
C371 C368 1.387 . S
C372 C373 1.387 . S
C372 H376 0.950 . S
C372 C381 1.390 . S
C373 C372 1.387 . S
C373 C375 1.387 . S
H374 C381 0.950 . S
C375 C373 1.387 . S
C375 C377 1.384 1_655 S
C375 H379 0.950 1_655 S
H376 C372 0.950 . S
C377 C375 1.384 1_455 S
C377 C378 1.379 1_455 S
C377 H380 0.964 . S
C378 C377 1.379 1_655 S
C378 C381 1.387 . S
H379 C375 0.950 1_455 S
H380 C377 0.964 . S
C381 C372 1.390 . S
C381 H374 0.950 . S
C381 C378 1.387 . S
C382 C383 1.387 . S
C382 H386 0.950 . S
C382 C391 1.390 . S
C383 C382 1.387 . S
C383 C385 1.387 . S
H384 C391 0.950 . S
C385 C383 1.387 . S
C385 C387 1.390 . S
C385 H389 0.950 . S
H386 C382 0.950 . S
C387 C385 1.390 . S
C387 C388 1.387 . S
C387 H390 0.950 . S
C388 C387 1.387 . S
C388 C391 1.387 . S
H389 C385 0.950 . S
H390 C387 0.950 . S
C391 C382 1.390 . S
C391 H384 0.950 . S
C391 C388 1.387 . S
C392 C393 1.387 . S
C392 H396 0.950 . S
C392 C401 1.390 . S
C393 C392 1.387 . S
C393 C395 1.387 . S
H394 C401 0.950 . S
C395 C393 1.387 . S
C395 C397 1.390 . S
C395 H399 0.950 . S
H396 C392 0.950 . S
C397 C395 1.390 . S
C397 C398 1.387 . S
C397 H400 0.950 . S
C398 C397 1.387 . S
C398 C401 1.387 . S
H399 C395 0.950 . S
H400 C397 0.950 . S
C401 C392 1.390 . S
C401 H394 0.950 . S
C401 C398 1.387 . S
C402 C403 1.387 . S
C402 H406 0.950 . S
C402 C411 1.390 . S
C403 C402 1.387 . S
C403 C405 1.387 . S
H404 C411 0.950 . S
C405 C403 1.387 . S
C405 C407 1.390 . S
C405 H409 0.950 . S
H406 C402 0.950 . S
C407 C405 1.390 . S
C407 C408 1.387 . S
C407 H410 0.950 . S
C408 C407 1.387 . S
C408 C411 1.387 . S
H409 C405 0.950 . S
H410 C407 0.950 . S
C411 C402 1.390 . S
C411 H404 0.950 . S
C411 C408 1.387 . S
C173 C6 1.710 . S
C178 C104 1.665 . S
C183 C20 1.708 . S
C188 C126 1.649 . S
C198 C145 1.024 . S
C193 N26 1.219 . S
C203 N37 1.606 . S
C208 C166 1.286 . S
C218 C123 1.960 . S
C213 C9 2.034 . S
C228 C101 1.384 . S
C223 N15 1.442 . S
C238 C168 1.284 . S
C233 C31 1.320 . S
C248 C147 1.326 . S
C243 C39 1.424 . S
C253 N4 1.656 . S
C258 C165 1.623 . S
C268 C124 1.346 . S
C263 C28 1.656 . S
C273 C42 1.471 . S
C278 C106 1.323 . S
C283 C17 1.602 . S
C288 C144 1.561 . S
C298 C102 1.703 . S
C293 C50 1.808 . S
C303 C61 1.449 . S
C308 C122 1.445 . S
C313 N70 1.437 . S
C318 C148 1.193 . S
C323 N81 1.425 . S
C328 C169 1.138 . S
C333 N48 1.511 . S
C338 C125 1.482 . S
C348 C105 1.929 . S
C343 C64 1.956 . S
C358 C164 1.174 . S
C353 C75 1.262 . S
C368 C143 1.422 . S
C363 C86 1.440 . S
C373 C53 1.741 . S
C378 C167 1.671 . S
C388 C127 1.086 . S
C383 C72 1.306 . S
C398 C103 1.381 . S
C393 C83 1.554 . S
C403 N59 1.510 . S
C408 C146 1.477 . S
