# Generated by pormake.
# Topology tsx, (6,3)-cn, num edge types: 1
# Building blocks:
#     Node 0, Type 0, BuildingBlock: LEVNOQ01_clean_sbu_1, # of connection points: 6
#     Node 1, Type 0, BuildingBlock: LEVNOQ01_clean_sbu_1, # of connection points: 6
#     Node 2, Type 1, BuildingBlock: VETTIZ_charged_linker_0, # of connection points: 3
#     Node 3, Type 1, BuildingBlock: VETTIZ_charged_linker_0, # of connection points: 3
#     Node 4, Type 1, BuildingBlock: VETTIZ_charged_linker_0, # of connection points: 3
#     Node 5, Type 1, BuildingBlock: VETTIZ_charged_linker_0, # of connection points: 3
#     Edge 6, Type (0, 1), BuildingBlock: FUNLAD_clean_linker_0, # of connection points: 2
#     Edge 7, Type (0, 1), BuildingBlock: FUNLAD_clean_linker_0, # of connection points: 2
#     Edge 8, Type (0, 1), BuildingBlock: FUNLAD_clean_linker_0, # of connection points: 2
#     Edge 9, Type (0, 1), BuildingBlock: FUNLAD_clean_linker_0, # of connection points: 2
#     Edge 10, Type (0, 1), BuildingBlock: FUNLAD_clean_linker_0, # of connection points: 2
#     Edge 11, Type (0, 1), BuildingBlock: FUNLAD_clean_linker_0, # of connection points: 2
#     Edge 12, Type (0, 1), BuildingBlock: FUNLAD_clean_linker_0, # of connection points: 2
#     Edge 13, Type (0, 1), BuildingBlock: FUNLAD_clean_linker_0, # of connection points: 2
#     Edge 14, Type (0, 1), BuildingBlock: FUNLAD_clean_linker_0, # of connection points: 2
#     Edge 15, Type (0, 1), BuildingBlock: FUNLAD_clean_linker_0, # of connection points: 2
#     Edge 16, Type (0, 1), BuildingBlock: FUNLAD_clean_linker_0, # of connection points: 2
#     Edge 17, Type (0, 1), BuildingBlock: FUNLAD_clean_linker_0, # of connection points: 2
# Relax obj value: 0.135
# Max RMSD: 0.160
# Mean RMSD: 0.124
data_MOF--net-tsx--node1-LEVNOQ01_clean_sbu_1--node2-VETTIZ_charged_linker_0--edge1-FUNLAD_clean_linker_0
_symmetry_space_group_name_H-M    P1
_symmetry_Int_Tables_number       1
_symmetry_cell_setting            triclinic
loop_
_symmetry_equiv_pos_as_xyz
'x, y, z'
_cell_length_a     25.168695
_cell_length_b     30.476989
_cell_length_c     51.506851
_cell_angle_alpha  97.255521
_cell_angle_beta   90.088036
_cell_angle_gamma 91.058555
loop_
_atom_site_label
_atom_site_type_symbol
_atom_site_fract_x
_atom_site_fract_y
_atom_site_fract_z
_atom_type_partial_charge
O0 O 0.13527 0.02599 0.05464 0.0
Mg1 Mg 0.17551 0.04333 0.02124 0.0
O2 O 0.05333 0.019 0.03804 0.0
Mg3 Mg 0.06018 0.03157 -0.00541 0.0
O4 O 0.12761 0.08274 0.00292 0.0
O5 O 0.20668 0.10587 0.01908 0.0
O6 O 0.07674 0.04962 0.95168 0.0
O7 O 0.00155 0.08947 0.00243 0.0
Mg8 Mg 0.99446 0.01014 0.95783 0.0
O9 O 0.98911 0.97773 0.98972 0.0
O10 O 0.05209 0.98711 0.92992 0.0
O11 O 0.96751 0.07717 0.96269 0.0
O12 O 0.93281 0.96709 0.95543 0.0
C13 C 0.16583 0.96202 0.98441 0.0
C14 C 0.08601 0.01742 0.0569 0.0
C15 C 0.16386 0.11354 0.00678 0.0
C16 C 0.07834 0.02269 0.93075 0.0
C17 C 0.97207 0.10143 0.98454 0.0
C18 C 0.94826 0.95724 0.97783 0.0
O19 O 0.20013 0.99005 -0.00554 0.0
O20 O 0.1163 0.97061 0.9851 0.0
O21 O 0.61688 0.51121 0.55048 0.0
Mg22 Mg 0.6454 0.53839 0.51738 0.0
O23 O 0.53523 0.52316 0.5386 0.0
Mg24 Mg 0.55399 0.53103 0.49525 0.0
O25 O 0.61366 0.59355 0.50499 0.0
O26 O 0.68758 0.5932 0.52952 0.0
O27 O 0.57456 0.53966 0.45181 0.0
O28 O 0.48886 0.58659 0.49803 0.0
Mg29 Mg 0.46027 0.50177 0.45616 0.0
O30 O 0.49331 0.47346 0.4857 0.0
O31 O 0.51356 0.50465 0.42546 0.0
O32 O 0.4218 0.55981 0.47229 0.0
O33 O 0.42711 0.44172 0.46067 0.0
C34 C 0.66295 0.46453 0.48728 0.0
C35 C 0.56771 0.51163 0.55532 0.0
C36 C 0.6552 0.61407 0.51628 0.0
C37 C 0.55743 0.52542 0.42894 0.0
C38 C 0.44211 0.5901 0.48869 0.0
C39 C 0.45912 0.44121 0.48022 0.0
O40 O 0.6926 0.49834 0.49149 0.0
O41 O 0.613 0.46902 0.49087 0.0
C42 C 0.132 0.9174 0.45879 0.0
C43 C 0.17066 0.88846 0.44698 0.0
C44 C 0.17338 0.88085 0.41947 0.0
C45 C 0.10328 0.93285 0.41579 0.0
C46 C 0.09891 0.93954 0.44277 0.0
C47 C 0.05738 0.97353 0.45151 0.0
H48 H 0.88163 0.12376 0.41648 0.0
C49 C 0.06657 0.96265 0.40462 0.0
C50 C 0.03947 0.98697 0.42537 0.0
H51 H 0.90911 0.0904 0.4942 0.0
H52 H 0.97606 0.03705 0.47696 0.0
H53 H 0.00504 0.12448 0.39983 0.0
H54 H 0.8757 0.03045 0.38873 0.0
H55 H 0.91271 0.02133 0.35987 0.0
H56 H 0.88326 0.07457 0.369 0.0
H57 H 0.95155 0.12866 0.37727 0.0
H58 H 0.01075 0.09829 0.36763 0.0
C59 C 0.08463 0.01239 0.46905 0.0
C60 C 0.01198 0.95055 0.46523 0.0
C61 C 0.06016 0.96454 0.30594 0.0
C62 C 0.03264 0.99095 0.29005 0.0
C63 C 0.99974 0.02455 0.30196 0.0
C64 C 0.99368 0.03138 0.3291 0.0
C65 C 0.02075 0.00438 0.34469 0.0
C66 C 0.05373 0.97194 0.33314 0.0
C67 C 0.08077 0.94771 0.35303 0.0
C68 C 0.05764 0.97056 0.37838 0.0
C69 C 0.0223 0.00328 0.37321 0.0
C70 C 0.14167 0.95589 0.35114 0.0
C71 C 0.06301 0.89842 0.34794 0.0
C72 C 0.90169 0.10481 0.42988 0.0
C73 C 0.89004 0.11082 0.45665 0.0
C74 C 0.91786 0.0862 0.4735 0.0
C75 C 0.95622 0.05538 0.46353 0.0
C76 C 0.96691 0.04948 0.43655 0.0
C77 C 0.93974 0.07427 0.42035 0.0
C78 C 0.95486 0.06386 0.39224 0.0
C79 C 0.99454 0.02769 0.39391 0.0
C80 C 0.00247 0.01954 0.41989 0.0
C81 C 0.98163 0.10589 0.38352 0.0
C82 C 0.90427 0.04693 0.37644 0.0
H83 H 0.14468 0.8956 0.38314 0.0
H84 H 0.12885 0.9237 0.47989 0.0
H85 H 0.00516 0.91602 0.45577 0.0
H86 H 0.97354 0.96692 0.46377 0.0
H87 H 0.02146 0.94921 0.48618 0.0
H88 H 0.12278 0.02194 0.46023 0.0
H89 H 0.09356 0.00305 0.48874 0.0
H90 H 0.06062 0.0425 0.47145 0.0
H91 H 0.08592 0.93853 0.29742 0.0
H92 H 0.97919 0.04613 0.29028 0.0
H93 H 0.96808 0.05754 0.33683 0.0
H94 H 0.15106 0.98683 0.34255 0.0
H95 H 0.16091 0.9283 0.33868 0.0
H96 H 0.16135 0.96076 0.37055 0.0
H97 H 0.01984 0.8954 0.3432 0.0
H98 H 0.06813 0.8807 0.36517 0.0
H99 H 0.0849 0.88077 0.33117 0.0
H100 H 0.20187 0.85799 0.40993 0.0
C101 C 0.14001 0.9027 0.4039 0.0
C102 C 0.10863 0.17235 0.54913 0.0
C103 C 0.1434 0.20362 0.56319 0.0
C104 C 0.13911 0.2115 0.59065 0.0
C105 C 0.07003 0.15532 0.58989 0.0
C106 C 0.07222 0.14863 0.56291 0.0
C107 C 0.03383 0.1126 0.55153 0.0
H108 H 0.86139 0.94658 0.57185 0.0
C109 C 0.03197 0.12302 0.59856 0.0
C110 C 0.00989 0.09809 0.57632 0.0
H111 H 0.90845 0.98866 0.49825 0.0
H112 H 0.96191 0.04876 0.52146 0.0
H113 H 0.97871 0.95853 0.59827 0.0
H114 H 0.84378 0.04442 0.60305 0.0
H115 H 0.87187 0.04712 0.63451 0.0
H116 H 0.84471 -0.00479 0.61887 0.0
H117 H 0.91865 0.94642 0.61496 0.0
H118 H 0.97062 0.98108 0.63112 0.0
C119 C 0.06635 0.07545 0.53604 0.0
C120 C 0.99189 0.13323 0.53489 0.0
C121 C 0.02258 0.10895 0.69504 0.0
C122 C 0.99688 0.079 0.70954 0.0
C123 C 0.96057 0.04758 0.69681 0.0
C124 C 0.95197 0.04493 0.66968 0.0
C125 C 0.98003 0.074 0.65525 0.0
C126 C 0.01386 0.10574 0.66814 0.0
C127 C 0.04153 0.13326 0.65 0.0
C128 C 0.01926 0.11264 0.62388 0.0
C129 C 0.98335 0.07794 0.62694 0.0
C130 C 0.10227 0.1261 0.65234 0.0
C131 C 0.02383 0.18184 0.65693 0.0
C132 C 0.88284 0.96916 0.56081 0.0
C133 C 0.88107 0.96348 0.53336 0.0
C134 C 0.90975 0.99278 0.51943 0.0
C135 C 0.9406 0.02728 0.5328 0.0
C136 C 0.94324 0.03198 0.56022 0.0
C137 C 0.91419 0.00351 0.57382 0.0
C138 C 0.92223 0.01338 0.60292 0.0
C139 C 0.96002 0.05301 0.60452 0.0
C140 C 0.97283 0.06335 0.57938 0.0
C141 C 0.94861 0.97281 0.61257 0.0
C142 C 0.86794 0.02542 0.61573 0.0
H143 H 0.10227 0.19502 0.62487 0.0
H144 H 0.11029 0.16598 0.52798 0.0
H145 H 0.98657 0.16895 0.54184 0.0
H146 H 0.95192 0.11804 0.53638 0.0
H147 H 0.00368 0.13047 0.51398 0.0
H148 H 0.10205 0.06817 0.5474 0.0
H149 H 0.0802 0.08553 0.51716 0.0
H150 H 0.04423 0.04378 0.53198 0.0
H151 H 0.05005 0.13391 0.70435 0.0
H152 H 0.94025 0.02416 0.70769 0.0
H153 H 0.92473 0.01981 0.66093 0.0
H154 H 0.11059 0.09203 0.65669 0.0
H155 H 0.12022 0.14959 0.66834 0.0
H156 H 0.12411 0.12889 0.63405 0.0
H157 H 0.98263 0.18337 0.66477 0.0
H158 H 0.02231 0.19998 0.63965 0.0
H159 H 0.05023 0.20019 0.67202 0.0
H160 H 0.16565 0.23476 0.60211 0.0
C161 C 0.10248 0.1879 0.60397 0.0
C162 C 0.62477 0.41186 0.95827 0.0
C163 C 0.66387 0.3834 0.94666 0.0
C164 C 0.66746 0.37562 0.91923 0.0
C165 C 0.59614 0.4263 0.91505 0.0
C166 C 0.59139 0.43323 0.94204 0.0
C167 C 0.54948 0.46686 0.95059 0.0
H168 H 0.38799 0.62679 0.91671 0.0
C169 C 0.55904 0.45556 0.90368 0.0
C170 C 0.53151 0.47971 0.92434 0.0
H171 H 0.40615 0.58686 -0.00656 0.0
H172 H 0.46582 0.52785 0.97553 0.0
H173 H 0.50828 0.61519 0.89707 0.0
H174 H 0.36753 0.53328 0.88974 0.0
H175 H 0.40363 0.51604 0.86132 0.0
H176 H 0.38127 0.57241 0.86733 0.0
H177 H 0.4516 0.62492 0.87753 0.0
H178 H 0.50484 0.5903 0.86437 0.0
C179 C 0.57637 0.50612 0.96798 0.0
C180 C 0.50423 0.44382 0.96443 0.0
C181 C 0.5539 0.45813 0.80497 0.0
C182 C 0.52457 0.48326 0.78907 0.0
C183 C 0.48989 0.51555 0.80084 0.0
C184 C 0.48411 0.5226 0.82799 0.0
C185 C 0.51309 0.49698 0.84366 0.0
C186 C 0.54728 0.4654 0.83218 0.0
C187 C 0.5748 0.4416 0.85215 0.0
C188 C 0.55037 0.46352 0.87741 0.0
C189 C 0.5147 0.49598 0.87217 0.0
C190 C 0.63535 0.45161 0.85072 0.0
C191 C 0.55914 0.39188 0.84673 0.0
C192 C 0.40501 0.60545 0.92972 0.0
C193 C 0.39427 0.61193 0.95654 0.0
C194 C 0.41539 0.58275 0.97281 0.0
C195 C 0.44959 0.54884 0.96246 0.0
C196 C 0.46149 0.54381 0.9356 0.0
C197 C 0.43784 0.57115 0.9197 0.0
C198 C 0.45078 0.55923 0.89141 0.0
C199 C 0.48754 0.52092 0.89286 0.0
C200 C 0.49482 0.51236 0.9188 0.0
C201 C 0.48013 0.5994 0.88184 0.0
C202 C 0.39833 0.54472 0.8765 0.0
H203 H 0.63906 0.38969 0.88266 0.0
H204 H 0.62151 0.41835 0.97937 0.0
H205 H 0.49985 0.40834 0.95631 0.0
H206 H 0.46503 0.45817 0.96139 0.0
H207 H 0.51201 0.44539 0.98577 0.0
H208 H 0.61362 0.51663 0.95873 0.0
H209 H 0.58679 0.49671 0.98747 0.0
H210 H 0.55139 0.53561 0.97095 0.0
H211 H 0.58088 0.43307 0.79642 0.0
H212 H 0.46771 0.53589 0.78902 0.0
H213 H 0.45749 0.548 0.83565 0.0
H214 H 0.64334 0.48422 0.84378 0.0
H215 H 0.65543 0.42613 0.83702 0.0
H216 H 0.65514 0.4543 0.87004 0.0
H217 H 0.51651 0.38764 0.84104 0.0
H218 H 0.56329 0.37434 0.86409 0.0
H219 H 0.58302 0.37483 0.83049 0.0
H220 H 0.69727 0.35364 0.91004 0.0
C221 C 0.63375 0.39669 0.9034 0.0
C222 C 0.59775 0.66562 0.04958 0.0
C223 C 0.63307 0.69614 0.0637 0.0
C224 C 0.63256 0.70089 0.09124 0.0
C225 C 0.56336 0.6446 0.09033 0.0
C226 C 0.56347 0.64009 0.0633 0.0
C227 C 0.52454 0.6049 0.0516 0.0
H228 H 0.33895 0.44749 0.06993 0.0
C229 C 0.5236 0.61319 0.09862 0.0
C230 C 0.50016 0.59005 0.07612 0.0
H231 H 0.40043 0.48173 -0.00316 0.0
H232 H 0.45529 0.54036 0.02046 0.0
H233 H 0.45456 0.45385 0.09901 0.0
H234 H 0.32556 0.54472 0.0989 0.0
H235 H 0.35267 0.55221 0.13064 0.0
H236 H 0.32315 0.49933 0.11795 0.0
H237 H 0.3908 0.44475 0.11321 0.0
H238 H 0.44234 0.47657 0.1315 0.0
C239 C 0.55664 0.56769 0.03585 0.0
C240 C 0.48317 0.62662 0.03522 0.0
C241 C 0.50755 0.59633 0.19473 0.0
C242 C 0.47641 0.56841 0.20852 0.0
C243 C 0.43542 0.54252 0.19514 0.0
C244 C 0.42793 0.54234 0.16816 0.0
C245 C 0.46188 0.56819 0.15439 0.0
C246 C 0.49956 0.59575 0.16786 0.0
C247 C 0.53143 0.62159 0.15021 0.0
C248 C 0.50812 0.60366 0.12376 0.0
C249 C 0.4678 0.57211 0.12626 0.0
C250 C 0.5907 0.60942 0.15257 0.0
C251 C 0.51968 0.67138 0.15771 0.0
C252 C 0.36388 0.46802 0.05905 0.0
C253 C 0.36558 0.46052 0.03161 0.0
C254 C 0.39901 0.48712 0.018 0.0
C255 C 0.43074 0.52077 0.03164 0.0
C256 C 0.42975 0.52721 0.05909 0.0
C257 C 0.39657 0.50113 0.07236 0.0
C258 C 0.40235 0.51148 0.10155 0.0
C259 C 0.4439 0.54851 0.10358 0.0
C260 C 0.46001 0.55744 0.07864 0.0
C261 C 0.42329 0.46961 0.11211 0.0
C262 C 0.34821 0.52752 0.11307 0.0
H263 H 0.59954 0.68066 0.12556 0.0
H264 H 0.59753 0.66113 0.02838 0.0
H265 H 0.47598 0.66141 0.04369 0.0
H266 H 0.44378 0.61 0.03511 0.0
H267 H 0.49682 0.62705 0.01476 0.0
H268 H 0.59407 0.56178 0.04629 0.0
H269 H 0.56769 0.57682 0.01635 0.0
H270 H 0.53556 0.53538 0.03326 0.0
H271 H 0.53952 0.61654 0.20428 0.0
H272 H 0.40988 0.52157 0.20543 0.0
H273 H 0.39691 0.52123 0.15897 0.0
H274 H 0.59455 0.57369 0.1546 0.0
H275 H 0.60967 0.62868 0.17 0.0
H276 H 0.61431 0.6143 0.1351 0.0
H277 H 0.47921 0.67619 0.16616 0.0
H278 H 0.5197 0.68995 0.14058 0.0
H279 H 0.54854 0.68725 0.17249 0.0
H280 H 0.6589 0.72463 0.10249 0.0
C281 C 0.59779 0.67549 0.1046 0.0
C282 C 0.19331 0.16716 0.97756 0.0
C283 C 0.15888 0.15655 -0.00271 0.0
C284 C 0.20349 0.2113 0.97425 0.0
C285 C 0.18037 0.24553 -0.0088 0.0
C286 C 0.14153 0.23451 0.00901 0.0
C287 C 0.13101 0.19023 0.01214 0.0
C288 C 0.20019 0.29218 -0.00684 0.0
C289 C 0.2512 0.30261 0.98796 0.0
C290 C 0.27771 0.34636 -0.00374 0.0
C291 C 0.33302 0.34998 -0.00721 0.0
C292 C 0.36128 0.38806 0.00321 0.0
C293 C 0.33484 0.42319 0.01754 0.0
H294 H 0.2085 0.38253 0.01216 0.0
C295 C 0.27947 0.42076 0.02012 0.0
C296 C 0.25098 0.38295 0.00936 0.0
H297 H 0.25839 0.44783 0.03094 0.0
H298 H 0.21525 0.14146 0.96596 0.0
H299 H 0.23173 0.21835 0.95945 0.0
H300 H 0.12254 0.26017 0.02206 0.0
H301 H 0.10478 0.18261 0.02769 0.0
H302 H 0.17414 0.31719 0.00256 0.0
H303 H 0.27711 0.27646 0.97964 0.0
H304 H 0.35488 0.32256 0.98282 0.0
H305 H 0.40411 0.38923 0.00112 0.0
C306 C 0.15757 0.87956 0.98076 0.0
C307 C 0.18432 0.91758 0.97434 0.0
C308 C 0.18144 0.83813 0.97599 0.0
C309 C 0.23194 0.83427 0.9643 0.0
C310 C 0.25654 0.8719 0.95621 0.0
C311 C 0.23338 0.91323 0.96151 0.0
C312 C 0.26157 0.79237 0.96087 0.0
C313 C 0.25826 0.76131 0.9773 0.0
C314 C 0.29541 0.72368 0.97524 0.0
C315 C 0.2781 0.68199 0.9812 0.0
C316 C 0.31156 0.64548 0.97688 0.0
C317 C 0.36278 0.65056 0.96681 0.0
H318 H 0.36385 0.76108 0.9636 0.0
C319 C 0.38134 0.69279 0.96279 0.0
C320 C 0.34822 0.72904 0.96713 0.0
H321 H 0.42098 0.69742 0.95526 0.0
H322 H 0.11976 0.88222 -0.00919 0.0
H323 H 0.16081 0.8095 0.98184 0.0
H324 H 0.29517 0.86974 0.94691 0.0
H325 H 0.25471 0.94209 0.95635 0.0
H326 H 0.29087 0.78892 0.9453 0.0
H327 H 0.22862 0.76357 -0.00732 0.0
H328 H 0.23794 0.67725 0.988 0.0
H329 H 0.29653 0.61304 0.98002 0.0
C330 C 0.92393 0.91799 0.01631 0.0
C331 C 0.91865 0.92256 0.98965 0.0
C332 C 0.89302 0.8865 0.02734 0.0
C333 C 0.85645 0.85905 0.01193 0.0
C334 C 0.85314 0.86244 0.985 0.0
C335 C 0.88347 0.89407 0.9741 0.0
C336 C 0.82276 0.82714 0.02446 0.0
C337 C 0.77635 0.81021 0.01408 0.0
C338 C 0.74115 0.77936 0.0266 0.0
C339 C 0.75907 0.75519 0.04635 0.0
C340 C 0.72403 0.72767 0.05805 0.0
C341 C 0.67063 0.72319 0.05006 0.0
H342 H 0.67326 0.79152 0.00274 0.0
C343 C 0.65311 0.7459 0.0297 0.0
C344 C 0.68806 0.77373 0.01811 0.0
H345 H 0.61208 0.74309 0.02322 0.0
H346 H 0.95099 0.93932 0.02875 0.0
H347 H 0.89699 0.88415 0.04806 0.0
H348 H 0.82752 0.84069 0.97209 0.0
H349 H 0.8793 0.89611 0.95335 0.0
H350 H 0.83549 0.81957 0.04349 0.0
H351 H 0.76154 0.82108 -0.00379 0.0
H352 H 0.80001 0.757 0.05282 0.0
H353 H 0.73876 0.70973 0.07337 0.0
C354 C 0.93025 0.16593 0.96807 0.0
C355 C 0.94069 0.14216 0.98907 0.0
C356 C 0.89545 0.20131 0.97101 0.0
C357 C 0.86962 0.21344 -0.00501 0.0
C358 C 0.88063 0.19006 0.01615 0.0
C359 C 0.91656 0.15511 0.01335 0.0
C360 C 0.82769 0.24751 -0.00277 0.0
C361 C 0.83058 0.28276 0.98389 0.0
C362 C 0.78587 0.31281 0.98033 0.0
C363 C 0.79759 0.35241 0.97007 0.0
C364 C 0.75709 0.37736 0.96109 0.0
C365 C 0.70389 0.36337 0.96228 0.0
H366 H 0.7213 0.26967 -0.00953 0.0
C367 C 0.69142 0.32551 0.97413 0.0
C368 C 0.73211 0.3003 0.98311 0.0
H369 H 0.6506 0.3138 0.9748 0.0
H370 H 0.94814 0.15649 0.94911 0.0
H371 H 0.88696 0.21773 0.95405 0.0
H372 H 0.8608 0.19839 0.03472 0.0
H373 H 0.92344 0.1369 0.02976 0.0
H374 H 0.79354 0.2426 0.00945 0.0
H375 H 0.86738 0.28894 0.97381 0.0
H376 H 0.83847 0.36285 0.9676 0.0
H377 H 0.76753 0.40627 0.95176 0.0
C378 C 0.71645 0.67931 0.52376 0.0
C379 C 0.66876 0.66049 0.51286 0.0
C380 C 0.73298 0.72144 0.51935 0.0
C381 C 0.70237 0.74623 0.50391 0.0
C382 C 0.65355 0.7285 0.49377 0.0
C383 C 0.63706 0.68564 0.49796 0.0
C384 C 0.72056 0.79147 0.49991 0.0
C385 C 0.77268 0.80051 0.49673 0.0
C386 C 0.79822 0.84526 0.50131 0.0
C387 C 0.85409 0.84786 0.50093 0.0
C388 C 0.88102 0.88728 0.50997 0.0
C389 C 0.85257 0.92487 0.51954 0.0
H390 H 0.7269 0.88398 0.50971 0.0
C391 C 0.79692 0.92348 0.51852 0.0
C392 C 0.7698 0.88406 0.5093 0.0
H393 H 0.77447 0.95243 0.5258 0.0
H394 H 0.74181 0.66132 0.53556 0.0
H395 H 0.76975 0.73477 0.52836 0.0
H396 H 0.62877 0.74744 0.48224 0.0
H397 H 0.60001 0.67212 0.48938 0.0
H398 H 0.69128 0.81728 0.50153 0.0
H399 H 0.79943 0.77273 0.49336 0.0
H400 H 0.87718 0.81866 0.49497 0.0
H401 H 0.92407 0.88777 0.51079 0.0
C402 C 0.65769 0.38147 0.48527 0.0
C403 C 0.68751 0.42033 0.4831 0.0
C404 C 0.68303 0.34077 0.48509 0.0
C405 C 0.73873 0.33823 0.4826 0.0
C406 C 0.76798 0.37692 0.47968 0.0
C407 C 0.74282 0.41731 0.47981 0.0
C408 C 0.76866 0.29674 0.48364 0.0
C409 C 0.74718 0.25563 0.47946 0.0
C410 C 0.78066 0.2156 0.47712 0.0
C411 C 0.76639 0.17946 0.45868 0.0
C412 C 0.8007 0.14403 0.45317 0.0
C413 C 0.84965 0.14367 0.46633 0.0
H414 H 0.83921 0.24051 0.50666 0.0
C415 C 0.86204 0.17799 0.48636 0.0
C416 C 0.82789 0.21378 0.49168 0.0
H417 H 0.89943 0.17839 0.49686 0.0
H418 H 0.61508 0.38274 0.4881 0.0
H419 H 0.65896 0.31195 0.48778 0.0
H420 H 0.81082 0.37609 0.47765 0.0
H421 H 0.76714 0.44649 0.4781 0.0
H422 H 0.81146 0.30034 0.4862 0.0
H423 H 0.70534 0.25101 0.47455 0.0
H424 H 0.72997 0.17971 0.44745 0.0
H425 H 0.78996 0.11767 0.43783 0.0
C426 C 0.44444 0.36221 0.48398 0.0
C427 C 0.45249 0.40542 0.49648 0.0
C428 C 0.41838 0.33059 0.49689 0.0
C429 C 0.39857 0.34222 0.5223 0.0
C430 C 0.41283 0.38378 0.53588 0.0
C431 C 0.4398 0.4153 0.52302 0.0
C432 C 0.35792 0.3146 0.5339 0.0
C433 C 0.32528 0.28568 0.51926 0.0
C434 C 0.27774 0.26541 0.53014 0.0
C435 C 0.26107 0.22258 0.51977 0.0
C436 C 0.2162 0.20288 0.52978 0.0
C437 C 0.18661 0.22613 0.55002 0.0
H438 H 0.2573 0.32322 0.55706 0.0
C439 C 0.20172 0.27001 0.55925 0.0
C440 C 0.24693 0.28935 0.54955 0.0
H441 H 0.17892 0.28935 0.57425 0.0
H442 H 0.45456 0.3539 0.46353 0.0
H443 H 0.41103 0.29815 0.48623 0.0
H444 H 0.39906 0.39329 0.55567 0.0
H445 H 0.44552 0.44858 0.53297 0.0
H446 H 0.35072 0.32182 0.55479 0.0
H447 H 0.33165 0.27753 0.49841 0.0
H448 H 0.28361 0.20389 0.50438 0.0
H449 H 0.2059 0.16897 0.52232 0.0
C450 C 0.43257 0.67232 0.50132 0.0
C451 C 0.40972 0.62966 0.49647 0.0
C452 C 0.40008 0.70966 0.50433 0.0
C453 C 0.34421 0.70473 0.50278 0.0
C454 C 0.32186 0.66189 0.49996 0.0
C455 C 0.3541 0.62491 0.49659 0.0
C456 C 0.30748 0.74249 0.50209 0.0
C457 C 0.32191 0.78092 0.49344 0.0
C458 C 0.28304 0.81312 0.48529 0.0
C459 C 0.29984 0.84089 0.46703 0.0
C460 C 0.26363 0.86701 0.45571 0.0
C461 C 0.20961 0.86645 0.46252 0.0
H462 H 0.21518 0.79524 0.50825 0.0
C463 C 0.19318 0.84138 0.48224 0.0
C464 C 0.22954 0.81489 0.49356 0.0
H465 H 0.15182 0.8406 0.48799 0.0
H466 H 0.47537 0.67691 0.50148 0.0
H467 H 0.41891 0.7421 0.50732 0.0
H468 H 0.27912 0.65688 0.49902 0.0
H469 H 0.33529 0.5924 0.4933 0.0
H470 H 0.26569 0.73562 0.5052 0.0
H471 H 0.36327 0.78635 0.4886 0.0
H472 H 0.34074 0.84083 0.46048 0.0
H473 H 0.27762 0.88662 0.44086 0.0
C474 C 0.103 0.982 0.09675 0.0
C475 C 0.06765 0.00373 0.08183 0.0
C476 C 0.08857 0.9718 0.12136 0.0
C477 C 0.03883 0.98422 0.13196 0.0
C478 C 0.00214 0.00349 0.11639 0.0
C479 C 0.01638 0.01308 0.0914 0.0
C480 C 0.02528 0.97901 0.15946 0.0
C481 C 0.06289 0.98065 0.17828 0.0
C482 C 0.05242 0.97958 0.20655 0.0
C483 C 0.09589 0.97466 0.22302 0.0
C484 C 0.08933 0.97712 0.25004 0.0
C485 C 0.03901 0.98469 0.26124 0.0
H486 H 0.96712 0.99061 0.206 0.0
C487 C 0.99517 0.98839 0.24476 0.0
C488 C 0.00173 0.98604 0.21772 0.0
H489 H 0.95574 -0.0063 0.25281 0.0
H490 H 0.14222 0.9731 0.08945 0.0
H491 H 0.11688 0.95466 0.13207 0.0
H492 H 0.9632 0.01265 0.12394 0.0
H493 H 0.9882 0.02935 0.08008 0.0
H494 H 0.98353 0.97642 0.16425 0.0
H495 H 0.10429 0.98466 0.17302 0.0
H496 H 0.13545 0.96981 0.21501 0.0
H497 H 0.12401 0.97462 0.26221 0.0
C498 C 0.08637 0.08026 0.90077 0.0
C499 C 0.09615 0.03701 0.90598 0.0
C500 C 0.08905 0.09055 0.87513 0.0
C501 C 0.10265 0.05791 0.85458 0.0
C502 C 0.11785 0.01615 0.86026 0.0
C503 C 0.11383 0.00552 0.88575 0.0
C504 C 0.09589 0.06496 0.82696 0.0
C505 C 0.05129 0.08279 0.81878 0.0
C506 C 0.03808 0.08247 0.79074 0.0
C507 C 0.98451 0.0796 0.78288 0.0
C508 C 0.97083 0.07774 0.75644 0.0
C509 C 0.01056 0.07954 0.73751 0.0
H510 H 0.11936 0.08774 0.7772 0.0
C511 C 0.06411 0.08297 0.74544 0.0
C512 C 0.07777 0.08451 0.77177 0.0
H513 H 0.09559 0.08423 0.73122 0.0
H514 H 0.07247 0.10505 0.91607 0.0
H515 H 0.07812 0.12329 0.8712 0.0
H516 H 0.12889 0.99069 0.84468 0.0
H517 H 0.12168 0.97199 0.8894 0.0
H518 H 0.12382 0.04924 0.81282 0.0
H519 H 0.0209 0.09382 0.83299 0.0
H520 H 0.95322 0.07818 0.79719 0.0
H521 H 0.92926 0.07557 0.75084 0.0
C522 C 0.58137 0.47219 0.594 0.0
C523 C 0.54948 0.49929 0.5806 0.0
C524 C 0.5681 0.4637 0.61913 0.0
C525 C 0.52322 0.48313 0.63174 0.0
C526 C 0.48951 0.50802 0.6177 0.0
C527 C 0.50242 0.51596 0.59226 0.0
C528 C 0.51154 0.47926 0.65964 0.0
C529 C 0.54967 0.47173 0.67693 0.0
C530 C 0.54125 0.47183 0.7055 0.0
C531 C 0.58623 0.47208 0.72175 0.0
C532 C 0.58089 0.4745 0.74886 0.0
C533 C 0.53034 0.47684 0.76029 0.0
H534 H 0.45457 0.47082 0.70537 0.0
C535 C 0.48522 0.4751 0.7441 0.0
C536 C 0.49048 0.47235 0.71698 0.0
H537 H 0.44571 0.47604 0.75245 0.0
H538 H 0.61716 0.45788 0.58516 0.0
H539 H 0.59362 0.4423 0.62858 0.0
H540 H 0.45415 0.5227 0.62678 0.0
H541 H 0.4769 0.53662 0.58221 0.0
H542 H 0.47139 0.48639 0.66622 0.0
H543 H 0.59042 0.46808 0.67029 0.0
H544 H 0.62584 0.47137 0.71351 0.0
H545 H 0.61635 0.476 0.76091 0.0
C546 C 0.59235 0.50361 0.38476 0.0
C547 C 0.58439 0.53707 0.40557 0.0
C548 C 0.59709 0.51414 0.35934 0.0
C549 C 0.59236 0.55822 0.35439 0.0
C550 C 0.59169 0.5921 0.37555 0.0
C551 C 0.58766 0.58154 0.40115 0.0
C552 C 0.57993 0.56852 0.32774 0.0
C553 C 0.54625 0.54209 0.3122 0.0
C554 C 0.52753 0.55079 0.28612 0.0
C555 C 0.50739 0.51493 0.26896 0.0
C556 C 0.48932 0.52095 0.24412 0.0
C557 C 0.49028 0.56322 0.23595 0.0
H558 H 0.5406 0.62209 0.2914 0.0
C559 C 0.50867 0.5995 0.2535 0.0
C560 C 0.52721 0.59339 0.27836 0.0
H561 H 0.50897 0.63264 0.24797 0.0
H562 H 0.5901 0.46911 0.38786 0.0
H563 H 0.59993 0.48745 0.34341 0.0
H564 H 0.5889 0.62636 0.37217 0.0
H565 H 0.58114 0.60777 0.41702 0.0
H566 H 0.5947 0.59952 0.32198 0.0
H567 H 0.5309 0.51194 0.31895 0.0
H568 H 0.50665 0.48183 0.27458 0.0
H569 H 0.47628 0.49214 0.23103 0.0
loop_
_geom_bond_atom_site_label_1
_geom_bond_atom_site_label_2
_geom_bond_distance
_geom_bond_site_symmetry_2
_ccdc_geom_bond_type
O0 Mg1 1.990 . S
O0 C14 1.253 . S
Mg1 O0 1.990 . S
Mg1 O4 2.180 . S
Mg1 O5 2.117 . S
Mg1 O19 2.030 1_545 S
O2 Mg3 2.072 . S
O2 C14 1.260 . S
Mg3 O2 2.072 . S
Mg3 O4 2.099 . S
Mg3 O6 2.079 1_554 S
Mg3 O7 2.072 . S
Mg3 O9 2.099 1_444 S
Mg3 O20 2.079 1_544 S
O4 Mg1 2.180 . S
O4 Mg3 2.099 . S
O4 C15 1.279 . S
O5 Mg1 2.117 . S
O5 C15 1.250 . S
O6 Mg3 2.079 1_556 S
O6 C16 1.264 . S
O7 Mg3 2.072 . S
O7 C17 1.260 1_455 S
Mg8 O9 2.180 1_545 S
Mg8 O10 2.030 . S
Mg8 O11 1.990 . S
Mg8 O12 2.117 1_545 S
O9 Mg3 2.099 1_666 S
O9 Mg8 2.180 1_565 S
O9 C18 1.279 1_556 S
O10 Mg8 2.030 . S
O10 C16 1.248 1_655 S
O11 Mg8 1.990 . S
O11 C17 1.253 1_556 S
O12 Mg8 2.117 1_565 S
O12 C18 1.250 1_556 S
C13 O19 1.248 . S
C13 O20 1.264 1_554 S
C14 O0 1.253 . S
C14 O2 1.260 . S
C15 O4 1.279 . S
C15 O5 1.250 . S
C16 O6 1.264 . S
C16 O10 1.248 1_455 S
C17 O7 1.260 1_655 S
C17 O11 1.253 1_554 S
C18 O9 1.279 1_554 S
C18 O12 1.250 1_554 S
O19 Mg1 2.030 1_565 S
O19 C13 1.248 . S
O20 Mg3 2.079 1_566 S
O20 C13 1.264 1_556 S
O21 Mg22 1.990 . S
O21 C35 1.253 . S
Mg22 O21 1.990 . S
Mg22 O25 2.180 . S
Mg22 O26 2.117 . S
Mg22 O40 2.030 . S
O23 Mg24 2.072 . S
O23 C35 1.260 . S
Mg24 O23 2.072 . S
Mg24 O25 2.099 . S
Mg24 O27 2.079 . S
Mg24 O28 2.072 . S
Mg24 O30 2.099 . S
Mg24 O41 2.079 . S
O25 Mg22 2.180 . S
O25 Mg24 2.099 . S
O25 C36 1.279 . S
O26 Mg22 2.117 . S
O26 C36 1.250 . S
O27 Mg24 2.079 . S
O27 C37 1.264 . S
O28 Mg24 2.072 . S
O28 C38 1.260 . S
Mg29 O30 2.180 . S
Mg29 O31 2.030 . S
Mg29 O32 1.990 . S
Mg29 O33 2.117 . S
O30 Mg24 2.099 . S
O30 Mg29 2.180 . S
O30 C39 1.279 . S
O31 Mg29 2.030 . S
O31 C37 1.248 . S
O32 Mg29 1.990 . S
O32 C38 1.253 . S
O33 Mg29 2.117 . S
O33 C39 1.250 . S
C34 O40 1.248 . S
C34 O41 1.264 . S
C35 O21 1.253 . S
C35 O23 1.260 . S
C36 O25 1.279 . S
C36 O26 1.250 . S
C37 O27 1.264 . S
C37 O31 1.248 . S
C38 O28 1.260 . S
C38 O32 1.253 . S
C39 O30 1.279 . S
C39 O33 1.250 . S
O40 Mg22 2.030 . S
O40 C34 1.248 . S
O41 Mg24 2.079 . S
O41 C34 1.264 . S
C42 C43 1.391 . S
C42 C46 1.391 . S
C42 H84 0.948 . S
C43 C42 1.391 . S
C43 C44 1.391 . S
C44 C43 1.391 . S
C44 H100 0.947 . S
C44 C101 1.392 . S
C45 C46 1.391 . S
C45 C49 1.397 . S
C45 C101 1.419 . S
C46 C42 1.391 . S
C46 C45 1.391 . S
C46 C47 1.399 . S
C47 C46 1.399 . S
C47 C50 1.396 . S
C47 C59 1.453 1_565 S
C47 C60 1.684 . S
H48 C72 0.948 . S
C49 C45 1.397 . S
C49 C50 1.394 . S
C49 C68 1.723 . S
C50 C47 1.396 . S
C50 C49 1.394 . S
C50 C80 1.723 1_565 S
H51 C74 0.947 . S
H52 C75 0.948 . S
H53 C81 0.982 1_455 S
H54 C82 0.979 . S
H55 C82 0.980 . S
H56 C82 0.983 . S
H57 C81 0.979 . S
H58 C81 0.977 . S
C59 C47 1.453 1_545 S
C59 H88 0.982 . S
C59 H89 0.979 1_545 S
C59 H90 0.977 . S
C60 C47 1.684 . S
C60 H85 0.979 1_455 S
C60 H86 0.980 . S
C60 H87 0.983 . S
C61 C62 1.391 . S
C61 C66 1.391 . S
C61 H91 0.948 . S
C62 C61 1.391 . S
C62 C63 1.391 1_565 S
C63 C62 1.391 1_545 S
C63 C64 1.392 . S
C63 H92 0.947 1_455 S
C64 C63 1.392 . S
C64 C65 1.419 . S
C64 H93 0.948 1_455 S
C65 C64 1.419 . S
C65 C66 1.391 1_545 S
C65 C69 1.397 . S
C66 C61 1.391 . S
C66 C65 1.391 1_565 S
C66 C67 1.399 . S
C67 C66 1.399 . S
C67 C68 1.396 . S
C67 C70 1.453 . S
C67 C71 1.684 . S
C68 C49 1.723 . S
C68 C67 1.396 . S
C68 C69 1.394 1_565 S
C69 C65 1.397 . S
C69 C68 1.394 1_545 S
C69 C79 1.723 . S
C70 C67 1.453 . S
C70 H94 0.982 . S
C70 H95 0.979 . S
C70 H96 0.977 . S
C71 C67 1.684 . S
C71 H97 0.979 . S
C71 H98 0.980 . S
C71 H99 0.983 . S
C72 H48 0.948 . S
C72 C73 1.391 . S
C72 C77 1.391 . S
C73 C72 1.391 . S
C73 C74 1.391 . S
C74 H51 0.947 . S
C74 C73 1.391 . S
C74 C75 1.392 . S
C75 H52 0.948 . S
C75 C74 1.392 . S
C75 C76 1.419 . S
C76 C75 1.419 . S
C76 C77 1.391 . S
C76 C80 1.397 1_655 S
C77 C72 1.391 . S
C77 C76 1.391 . S
C77 C78 1.399 . S
C78 C77 1.399 . S
C78 C79 1.396 1_655 S
C78 C81 1.453 . S
C78 C82 1.684 . S
C79 C69 1.723 . S
C79 C78 1.396 1_455 S
C79 C80 1.394 . S
C80 C50 1.723 1_545 S
C80 C76 1.397 1_455 S
C80 C79 1.394 . S
C81 H53 0.982 1_655 S
C81 H57 0.979 . S
C81 H58 0.977 . S
C81 C78 1.453 . S
C82 H54 0.979 . S
C82 H55 0.980 . S
C82 H56 0.983 . S
C82 C78 1.684 . S
H83 C101 0.948 . S
H84 C42 0.948 . S
H85 C60 0.979 1_655 S
H86 C60 0.980 . S
H87 C60 0.983 . S
H88 C59 0.982 . S
H89 C59 0.979 1_565 S
H90 C59 0.977 . S
H91 C61 0.948 . S
H92 C63 0.947 1_655 S
H93 C64 0.948 1_655 S
H94 C70 0.982 . S
H95 C70 0.979 . S
H96 C70 0.977 . S
H97 C71 0.979 . S
H98 C71 0.980 . S
H99 C71 0.983 . S
H100 C44 0.947 . S
C101 C44 1.392 . S
C101 C45 1.419 . S
C101 H83 0.948 . S
C102 C103 1.391 . S
C102 C106 1.391 . S
C102 H144 0.948 . S
C103 C102 1.391 . S
C103 C104 1.391 . S
C104 C103 1.391 . S
C104 H160 0.947 . S
C104 C161 1.392 . S
C105 C106 1.391 . S
C105 C109 1.397 . S
C105 C161 1.419 . S
C106 C102 1.391 . S
C106 C105 1.391 . S
C106 C107 1.399 . S
C107 C106 1.399 . S
C107 C110 1.396 . S
C107 C119 1.453 . S
C107 C120 1.684 1_455 S
H108 C132 0.948 . S
C109 C105 1.397 . S
C109 C110 1.394 . S
C109 C128 1.723 . S
C110 C107 1.396 . S
C110 C109 1.394 . S
C110 C140 1.723 1_455 S
H111 C134 0.947 . S
H112 C135 0.948 . S
H113 C141 0.982 . S
H114 C142 0.979 . S
H115 C142 0.980 . S
H116 C142 0.983 1_565 S
H117 C141 0.979 . S
H118 C141 0.977 . S
C119 C107 1.453 . S
C119 H148 0.982 . S
C119 H149 0.979 . S
C119 H150 0.977 . S
C120 C107 1.684 1_655 S
C120 H145 0.979 . S
C120 H146 0.980 . S
C120 H147 0.983 . S
C121 C122 1.391 1_455 S
C121 C126 1.391 . S
C121 H151 0.948 . S
C122 C121 1.391 1_655 S
C122 C123 1.391 . S
C123 C122 1.391 . S
C123 C124 1.392 . S
C123 H152 0.947 . S
C124 C123 1.392 . S
C124 C125 1.419 . S
C124 H153 0.948 . S
C125 C124 1.419 . S
C125 C126 1.391 1_655 S
C125 C129 1.397 . S
C126 C121 1.391 . S
C126 C125 1.391 1_455 S
C126 C127 1.399 . S
C127 C126 1.399 . S
C127 C128 1.396 . S
C127 C130 1.453 . S
C127 C131 1.684 . S
C128 C109 1.723 . S
C128 C127 1.396 . S
C128 C129 1.394 1_455 S
C129 C125 1.397 . S
C129 C128 1.394 1_655 S
C129 C139 1.723 . S
C130 C127 1.453 . S
C130 H154 0.982 . S
C130 H155 0.979 . S
C130 H156 0.977 . S
C131 C127 1.684 . S
C131 H157 0.979 . S
C131 H158 0.980 . S
C131 H159 0.983 . S
C132 H108 0.948 . S
C132 C133 1.391 . S
C132 C137 1.391 . S
C133 C132 1.391 . S
C133 C134 1.391 . S
C134 H111 0.947 . S
C134 C133 1.391 . S
C134 C135 1.392 1_565 S
C135 H112 0.948 . S
C135 C134 1.392 1_545 S
C135 C136 1.419 . S
C136 C135 1.419 . S
C136 C137 1.391 1_545 S
C136 C140 1.397 . S
C137 C132 1.391 . S
C137 C136 1.391 1_565 S
C137 C138 1.399 1_565 S
C138 C137 1.399 1_545 S
C138 C139 1.396 . S
C138 C141 1.453 1_545 S
C138 C142 1.684 . S
C139 C129 1.723 . S
C139 C138 1.396 . S
C139 C140 1.394 . S
C140 C110 1.723 1_655 S
C140 C136 1.397 . S
C140 C139 1.394 . S
C141 H113 0.982 . S
C141 H117 0.979 . S
C141 H118 0.977 . S
C141 C138 1.453 1_565 S
C142 H114 0.979 . S
C142 H115 0.980 . S
C142 H116 0.983 1_545 S
C142 C138 1.684 . S
H143 C161 0.948 . S
H144 C102 0.948 . S
H145 C120 0.979 . S
H146 C120 0.980 . S
H147 C120 0.983 . S
H148 C119 0.982 . S
H149 C119 0.979 . S
H150 C119 0.977 . S
H151 C121 0.948 . S
H152 C123 0.947 . S
H153 C124 0.948 . S
H154 C130 0.982 . S
H155 C130 0.979 . S
H156 C130 0.977 . S
H157 C131 0.979 . S
H158 C131 0.980 . S
H159 C131 0.983 . S
H160 C104 0.947 . S
C161 C104 1.392 . S
C161 C105 1.419 . S
C161 H143 0.948 . S
C162 C163 1.391 . S
C162 C166 1.391 . S
C162 H204 0.948 . S
C163 C162 1.391 . S
C163 C164 1.391 . S
C164 C163 1.391 . S
C164 H220 0.947 . S
C164 C221 1.392 . S
C165 C166 1.391 . S
C165 C169 1.397 . S
C165 C221 1.419 . S
C166 C162 1.391 . S
C166 C165 1.391 . S
C166 C167 1.399 . S
C167 C166 1.399 . S
C167 C170 1.396 . S
C167 C179 1.453 . S
C167 C180 1.684 . S
H168 C192 0.948 . S
C169 C165 1.397 . S
C169 C170 1.394 . S
C169 C188 1.723 . S
C170 C167 1.396 . S
C170 C169 1.394 . S
C170 C200 1.723 . S
H171 C194 0.947 1_554 S
H172 C195 0.948 . S
H173 C201 0.982 . S
H174 C202 0.979 . S
H175 C202 0.980 . S
H176 C202 0.983 . S
H177 C201 0.979 . S
H178 C201 0.977 . S
C179 C167 1.453 . S
C179 H208 0.982 . S
C179 H209 0.979 1_556 S
C179 H210 0.977 . S
C180 C167 1.684 . S
C180 H205 0.979 . S
C180 H206 0.980 . S
C180 H207 0.983 1_556 S
C181 C182 1.391 . S
C181 C186 1.391 . S
C181 H211 0.948 . S
C182 C181 1.391 . S
C182 C183 1.391 . S
C183 C182 1.391 . S
C183 C184 1.392 . S
C183 H212 0.947 . S
C184 C183 1.392 . S
C184 C185 1.419 . S
C184 H213 0.948 . S
C185 C184 1.419 . S
C185 C186 1.391 . S
C185 C189 1.397 . S
C186 C181 1.391 . S
C186 C185 1.391 . S
C186 C187 1.399 . S
C187 C186 1.399 . S
C187 C188 1.396 . S
C187 C190 1.453 . S
C187 C191 1.684 . S
C188 C169 1.723 . S
C188 C187 1.396 . S
C188 C189 1.394 . S
C189 C185 1.397 . S
C189 C188 1.394 . S
C189 C199 1.723 . S
C190 C187 1.453 . S
C190 H214 0.982 . S
C190 H215 0.979 . S
C190 H216 0.977 . S
C191 C187 1.684 . S
C191 H217 0.979 . S
C191 H218 0.980 . S
C191 H219 0.983 . S
C192 H168 0.948 . S
C192 C193 1.391 . S
C192 C197 1.391 . S
C193 C192 1.391 . S
C193 C194 1.391 . S
C194 H171 0.947 1_556 S
C194 C193 1.391 . S
C194 C195 1.392 . S
C195 H172 0.948 . S
C195 C194 1.392 . S
C195 C196 1.419 . S
C196 C195 1.419 . S
C196 C197 1.391 . S
C196 C200 1.397 . S
C197 C192 1.391 . S
C197 C196 1.391 . S
C197 C198 1.399 . S
C198 C197 1.399 . S
C198 C199 1.396 . S
C198 C201 1.453 . S
C198 C202 1.684 . S
C199 C189 1.723 . S
C199 C198 1.396 . S
C199 C200 1.394 . S
C200 C170 1.723 . S
C200 C196 1.397 . S
C200 C199 1.394 . S
C201 H173 0.982 . S
C201 H177 0.979 . S
C201 H178 0.977 . S
C201 C198 1.453 . S
C202 H174 0.979 . S
C202 H175 0.980 . S
C202 H176 0.983 . S
C202 C198 1.684 . S
H203 C221 0.948 . S
H204 C162 0.948 . S
H205 C180 0.979 . S
H206 C180 0.980 . S
H207 C180 0.983 1_554 S
H208 C179 0.982 . S
H209 C179 0.979 1_554 S
H210 C179 0.977 . S
H211 C181 0.948 . S
H212 C183 0.947 . S
H213 C184 0.948 . S
H214 C190 0.982 . S
H215 C190 0.979 . S
H216 C190 0.977 . S
H217 C191 0.979 . S
H218 C191 0.980 . S
H219 C191 0.983 . S
H220 C164 0.947 . S
C221 C164 1.392 . S
C221 C165 1.419 . S
C221 H203 0.948 . S
C222 C223 1.391 . S
C222 C226 1.391 . S
C222 H264 0.948 . S
C223 C222 1.391 . S
C223 C224 1.391 . S
C224 C223 1.391 . S
C224 H280 0.947 . S
C224 C281 1.392 . S
C225 C226 1.391 . S
C225 C229 1.397 . S
C225 C281 1.419 . S
C226 C222 1.391 . S
C226 C225 1.391 . S
C226 C227 1.399 . S
C227 C226 1.399 . S
C227 C230 1.396 . S
C227 C239 1.453 . S
C227 C240 1.684 . S
H228 C252 0.948 . S
C229 C225 1.397 . S
C229 C230 1.394 . S
C229 C248 1.723 . S
C230 C227 1.396 . S
C230 C229 1.394 . S
C230 C260 1.723 . S
H231 C254 0.947 . S
H232 C255 0.948 . S
H233 C261 0.982 . S
H234 C262 0.979 . S
H235 C262 0.980 . S
H236 C262 0.983 . S
H237 C261 0.979 . S
H238 C261 0.977 . S
C239 C227 1.453 . S
C239 H268 0.982 . S
C239 H269 0.979 . S
C239 H270 0.977 . S
C240 C227 1.684 . S
C240 H265 0.979 . S
C240 H266 0.980 . S
C240 H267 0.983 . S
C241 C242 1.391 . S
C241 C246 1.391 . S
C241 H271 0.948 . S
C242 C241 1.391 . S
C242 C243 1.391 . S
C243 C242 1.391 . S
C243 C244 1.392 . S
C243 H272 0.947 . S
C244 C243 1.392 . S
C244 C245 1.419 . S
C244 H273 0.948 . S
C245 C244 1.419 . S
C245 C246 1.391 . S
C245 C249 1.397 . S
C246 C241 1.391 . S
C246 C245 1.391 . S
C246 C247 1.399 . S
C247 C246 1.399 . S
C247 C248 1.396 . S
C247 C250 1.453 . S
C247 C251 1.684 . S
C248 C229 1.723 . S
C248 C247 1.396 . S
C248 C249 1.394 . S
C249 C245 1.397 . S
C249 C248 1.394 . S
C249 C259 1.723 . S
C250 C247 1.453 . S
C250 H274 0.982 . S
C250 H275 0.979 . S
C250 H276 0.977 . S
C251 C247 1.684 . S
C251 H277 0.979 . S
C251 H278 0.980 . S
C251 H279 0.983 . S
C252 H228 0.948 . S
C252 C253 1.391 . S
C252 C257 1.391 . S
C253 C252 1.391 . S
C253 C254 1.391 . S
C254 H231 0.947 . S
C254 C253 1.391 . S
C254 C255 1.392 . S
C255 H232 0.948 . S
C255 C254 1.392 . S
C255 C256 1.419 . S
C256 C255 1.419 . S
C256 C257 1.391 . S
C256 C260 1.397 . S
C257 C252 1.391 . S
C257 C256 1.391 . S
C257 C258 1.399 . S
C258 C257 1.399 . S
C258 C259 1.396 . S
C258 C261 1.453 . S
C258 C262 1.684 . S
C259 C249 1.723 . S
C259 C258 1.396 . S
C259 C260 1.394 . S
C260 C230 1.723 . S
C260 C256 1.397 . S
C260 C259 1.394 . S
C261 H233 0.982 . S
C261 H237 0.979 . S
C261 H238 0.977 . S
C261 C258 1.453 . S
C262 H234 0.979 . S
C262 H235 0.980 . S
C262 H236 0.983 . S
C262 C258 1.684 . S
H263 C281 0.948 . S
H264 C222 0.948 . S
H265 C240 0.979 . S
H266 C240 0.980 . S
H267 C240 0.983 . S
H268 C239 0.982 . S
H269 C239 0.979 . S
H270 C239 0.977 . S
H271 C241 0.948 . S
H272 C243 0.947 . S
H273 C244 0.948 . S
H274 C250 0.982 . S
H275 C250 0.979 . S
H276 C250 0.977 . S
H277 C251 0.979 . S
H278 C251 0.980 . S
H279 C251 0.983 . S
H280 C224 0.947 . S
C281 C224 1.392 . S
C281 C225 1.419 . S
C281 H263 0.948 . S
C282 C283 1.386 . S
C282 C284 1.383 . S
C282 H298 0.951 . S
C283 C282 1.386 . S
C283 C287 1.383 . S
C284 C282 1.383 . S
C284 C285 1.402 . S
C284 H299 0.951 . S
C285 C284 1.402 . S
C285 C286 1.375 . S
C285 C288 1.481 . S
C286 C285 1.375 . S
C286 C287 1.367 . S
C286 H300 0.951 . S
C287 C283 1.383 . S
C287 C286 1.367 . S
C287 H301 0.950 . S
C288 C285 1.481 . S
C288 C289 1.297 . S
C288 H302 0.950 . S
C289 C288 1.297 . S
C289 C290 1.479 . S
C289 H303 0.950 . S
C290 C289 1.479 . S
C290 C291 1.375 . S
C290 C296 1.404 . S
C291 C290 1.375 . S
C291 C292 1.369 . S
C291 H304 0.950 . S
C292 C291 1.369 . S
C292 C293 1.392 . S
C292 H305 0.951 . S
C293 C292 1.392 . S
C293 C295 1.384 . S
H294 C296 0.949 . S
C295 C293 1.384 . S
C295 C296 1.385 . S
C295 H297 0.950 . S
C296 C290 1.404 . S
C296 H294 0.949 . S
C296 C295 1.385 . S
H297 C295 0.950 . S
H298 C282 0.951 . S
H299 C284 0.951 . S
H300 C286 0.951 . S
H301 C287 0.950 . S
H302 C288 0.950 . S
H303 C289 0.950 . S
H304 C291 0.950 . S
H305 C292 0.951 . S
C306 C307 1.386 . S
C306 C308 1.383 . S
C306 H322 0.951 . S
C307 C306 1.386 . S
C307 C311 1.383 1_554 S
C308 C306 1.383 . S
C308 C309 1.402 1_554 S
C308 H323 0.951 . S
C309 C308 1.402 1_556 S
C309 C310 1.375 . S
C309 C312 1.481 . S
C310 C309 1.375 . S
C310 C311 1.367 . S
C310 H324 0.951 . S
C311 C307 1.383 1_556 S
C311 C310 1.367 . S
C311 H325 0.950 . S
C312 C309 1.481 . S
C312 C313 1.297 . S
C312 H326 0.950 . S
C313 C312 1.297 . S
C313 C314 1.479 . S
C313 H327 0.943 1_556 S
C314 C313 1.479 . S
C314 C315 1.375 1_556 S
C314 C320 1.404 . S
C315 C314 1.375 1_554 S
C315 C316 1.368 . S
C315 H328 0.950 . S
C316 C315 1.368 . S
C316 C317 1.384 1_554 S
C316 H329 0.960 . S
C317 C316 1.384 1_556 S
C317 C319 1.384 . S
H318 C320 0.949 . S
C319 C317 1.384 . S
C319 C320 1.385 . S
C319 H321 0.950 . S
C320 C314 1.404 . S
C320 H318 0.949 . S
C320 C319 1.385 . S
H321 C319 0.950 . S
H322 C306 0.951 . S
H323 C308 0.951 . S
H324 C310 0.951 . S
H325 C311 0.950 . S
H326 C312 0.950 . S
H327 C313 0.943 1_554 S
H328 C315 0.950 . S
H329 C316 0.960 . S
C330 C331 1.386 . S
C330 C332 1.383 . S
C330 H346 0.951 . S
C331 C330 1.386 . S
C331 C335 1.383 1_554 S
C332 C330 1.383 . S
C332 C333 1.402 . S
C332 H347 0.951 . S
C333 C332 1.402 . S
C333 C334 1.375 1_554 S
C333 C336 1.481 . S
C334 C333 1.375 1_556 S
C334 C335 1.367 . S
C334 H348 0.951 . S
C335 C331 1.383 1_556 S
C335 C334 1.367 . S
C335 H349 0.950 . S
C336 C333 1.481 . S
C336 C337 1.297 . S
C336 H350 0.950 . S
C337 C336 1.297 . S
C337 C338 1.479 . S
C337 H351 0.950 . S
C338 C337 1.479 . S
C338 C339 1.375 . S
C338 C344 1.404 . S
C339 C338 1.375 . S
C339 C340 1.369 . S
C339 H352 0.950 . S
C340 C339 1.369 . S
C340 C341 1.392 . S
C340 H353 0.951 . S
C341 C340 1.392 . S
C341 C343 1.384 . S
H342 C344 0.949 . S
C343 C341 1.384 . S
C343 C344 1.385 . S
C343 H345 0.950 . S
C344 C338 1.404 . S
C344 H342 0.949 . S
C344 C343 1.385 . S
H345 C343 0.950 . S
H346 C330 0.951 . S
H347 C332 0.951 . S
H348 C334 0.951 . S
H349 C335 0.950 . S
H350 C336 0.950 . S
H351 C337 0.950 . S
H352 C339 0.950 . S
H353 C340 0.951 . S
C354 C355 1.386 1_556 S
C354 C356 1.383 . S
C354 H370 0.951 . S
C355 C354 1.386 1_554 S
C355 C359 1.383 . S
C356 C354 1.383 . S
C356 C357 1.402 . S
C356 H371 0.951 . S
C357 C356 1.402 . S
C357 C358 1.375 1_556 S
C357 C360 1.481 . S
C358 C357 1.375 1_554 S
C358 C359 1.367 . S
C358 H372 0.951 . S
C359 C355 1.383 . S
C359 C358 1.367 . S
C359 H373 0.950 . S
C360 C357 1.481 . S
C360 C361 1.297 . S
C360 H374 0.950 . S
C361 C360 1.297 . S
C361 C362 1.479 . S
C361 H375 0.950 . S
C362 C361 1.479 . S
C362 C363 1.375 . S
C362 C368 1.404 . S
C363 C362 1.375 . S
C363 C364 1.369 . S
C363 H376 0.950 . S
C364 C363 1.369 . S
C364 C365 1.392 . S
C364 H377 0.951 . S
C365 C364 1.392 . S
C365 C367 1.384 . S
H366 C368 0.949 . S
C367 C365 1.384 . S
C367 C368 1.385 . S
C367 H369 0.950 . S
C368 C362 1.404 . S
C368 H366 0.949 . S
C368 C367 1.385 . S
H369 C367 0.950 . S
H370 C354 0.951 . S
H371 C356 0.951 . S
H372 C358 0.951 . S
H373 C359 0.950 . S
H374 C360 0.950 . S
H375 C361 0.950 . S
H376 C363 0.950 . S
H377 C364 0.951 . S
C378 C379 1.386 . S
C378 C380 1.383 . S
C378 H394 0.951 . S
C379 C378 1.386 . S
C379 C383 1.383 . S
C380 C378 1.383 . S
C380 C381 1.402 . S
C380 H395 0.951 . S
C381 C380 1.402 . S
C381 C382 1.375 . S
C381 C384 1.481 . S
C382 C381 1.375 . S
C382 C383 1.367 . S
C382 H396 0.951 . S
C383 C379 1.383 . S
C383 C382 1.367 . S
C383 H397 0.950 . S
C384 C381 1.481 . S
C384 C385 1.297 . S
C384 H398 0.950 . S
C385 C384 1.297 . S
C385 C386 1.479 . S
C385 H399 0.950 . S
C386 C385 1.479 . S
C386 C387 1.375 . S
C386 C392 1.404 . S
C387 C386 1.375 . S
C387 C388 1.369 . S
C387 H400 0.950 . S
C388 C387 1.369 . S
C388 C389 1.392 . S
C388 H401 0.951 . S
C389 C388 1.392 . S
C389 C391 1.384 . S
H390 C392 0.949 . S
C391 C389 1.384 . S
C391 C392 1.385 . S
C391 H393 0.950 . S
C392 C386 1.404 . S
C392 H390 0.949 . S
C392 C391 1.385 . S
H393 C391 0.950 . S
H394 C378 0.951 . S
H395 C380 0.951 . S
H396 C382 0.951 . S
H397 C383 0.950 . S
H398 C384 0.950 . S
H399 C385 0.950 . S
H400 C387 0.950 . S
H401 C388 0.951 . S
C402 C403 1.386 . S
C402 C404 1.383 . S
C402 H418 0.951 . S
C403 C402 1.386 . S
C403 C407 1.383 . S
C404 C402 1.383 . S
C404 C405 1.402 . S
C404 H419 0.951 . S
C405 C404 1.402 . S
C405 C406 1.375 . S
C405 C408 1.481 . S
C406 C405 1.375 . S
C406 C407 1.367 . S
C406 H420 0.951 . S
C407 C403 1.383 . S
C407 C406 1.367 . S
C407 H421 0.950 . S
C408 C405 1.481 . S
C408 C409 1.297 . S
C408 H422 0.950 . S
C409 C408 1.297 . S
C409 C410 1.479 . S
C409 H423 0.950 . S
C410 C409 1.479 . S
C410 C411 1.375 . S
C410 C416 1.404 . S
C411 C410 1.375 . S
C411 C412 1.369 . S
C411 H424 0.950 . S
C412 C411 1.369 . S
C412 C413 1.392 . S
C412 H425 0.951 . S
C413 C412 1.392 . S
C413 C415 1.384 . S
H414 C416 0.949 . S
C415 C413 1.384 . S
C415 C416 1.385 . S
C415 H417 0.950 . S
C416 C410 1.404 . S
C416 H414 0.949 . S
C416 C415 1.385 . S
H417 C415 0.950 . S
H418 C402 0.951 . S
H419 C404 0.951 . S
H420 C406 0.951 . S
H421 C407 0.950 . S
H422 C408 0.950 . S
H423 C409 0.950 . S
H424 C411 0.950 . S
H425 C412 0.951 . S
C426 C427 1.386 . S
C426 C428 1.383 . S
C426 H442 0.951 . S
C427 C426 1.386 . S
C427 C431 1.383 . S
C428 C426 1.383 . S
C428 C429 1.402 . S
C428 H443 0.951 . S
C429 C428 1.402 . S
C429 C430 1.375 . S
C429 C432 1.481 . S
C430 C429 1.375 . S
C430 C431 1.367 . S
C430 H444 0.951 . S
C431 C427 1.383 . S
C431 C430 1.367 . S
C431 H445 0.950 . S
C432 C429 1.481 . S
C432 C433 1.297 . S
C432 H446 0.950 . S
C433 C432 1.297 . S
C433 C434 1.479 . S
C433 H447 0.950 . S
C434 C433 1.479 . S
C434 C435 1.375 . S
C434 C440 1.404 . S
C435 C434 1.375 . S
C435 C436 1.369 . S
C435 H448 0.950 . S
C436 C435 1.369 . S
C436 C437 1.392 . S
C436 H449 0.951 . S
C437 C436 1.392 . S
C437 C439 1.384 . S
H438 C440 0.949 . S
C439 C437 1.384 . S
C439 C440 1.385 . S
C439 H441 0.950 . S
C440 C434 1.404 . S
C440 H438 0.949 . S
C440 C439 1.385 . S
H441 C439 0.950 . S
H442 C426 0.951 . S
H443 C428 0.951 . S
H444 C430 0.951 . S
H445 C431 0.950 . S
H446 C432 0.950 . S
H447 C433 0.950 . S
H448 C435 0.950 . S
H449 C436 0.951 . S
C450 C451 1.386 . S
C450 C452 1.383 . S
C450 H466 0.951 . S
C451 C450 1.386 . S
C451 C455 1.383 . S
C452 C450 1.383 . S
C452 C453 1.402 . S
C452 H467 0.951 . S
C453 C452 1.402 . S
C453 C454 1.375 . S
C453 C456 1.481 . S
C454 C453 1.375 . S
C454 C455 1.367 . S
C454 H468 0.951 . S
C455 C451 1.383 . S
C455 C454 1.367 . S
C455 H469 0.950 . S
C456 C453 1.481 . S
C456 C457 1.297 . S
C456 H470 0.950 . S
C457 C456 1.297 . S
C457 C458 1.479 . S
C457 H471 0.950 . S
C458 C457 1.479 . S
C458 C459 1.375 . S
C458 C464 1.404 . S
C459 C458 1.375 . S
C459 C460 1.369 . S
C459 H472 0.950 . S
C460 C459 1.369 . S
C460 C461 1.392 . S
C460 H473 0.951 . S
C461 C460 1.392 . S
C461 C463 1.384 . S
H462 C464 0.949 . S
C463 C461 1.384 . S
C463 C464 1.385 . S
C463 H465 0.950 . S
C464 C458 1.404 . S
C464 H462 0.949 . S
C464 C463 1.385 . S
H465 C463 0.950 . S
H466 C450 0.951 . S
H467 C452 0.951 . S
H468 C454 0.951 . S
H469 C455 0.950 . S
H470 C456 0.950 . S
H471 C457 0.950 . S
H472 C459 0.950 . S
H473 C460 0.951 . S
C474 C475 1.377 1_565 S
C474 C476 1.384 1_565 S
C474 H490 0.959 . S
C475 C474 1.377 1_545 S
C475 C479 1.383 . S
C476 C474 1.384 1_545 S
C476 C477 1.402 . S
C476 H491 0.951 1_545 S
C477 C476 1.402 . S
C477 C478 1.375 . S
C477 C480 1.481 . S
C478 C477 1.375 . S
C478 C479 1.367 . S
C478 H492 0.951 1_455 S
C479 C475 1.383 . S
C479 C478 1.367 . S
C479 H493 0.950 1_455 S
C480 C477 1.481 . S
C480 C481 1.297 . S
C480 H494 0.950 . S
C481 C480 1.297 . S
C481 C482 1.479 . S
C481 H495 0.950 . S
C482 C481 1.479 . S
C482 C483 1.375 1_545 S
C482 C488 1.404 . S
C483 C482 1.375 1_565 S
C483 C484 1.369 . S
C483 H496 0.950 . S
C484 C483 1.369 . S
C484 C485 1.385 1_565 S
C484 H497 0.951 . S
C485 C484 1.385 1_545 S
C485 C487 1.398 . S
H486 C488 0.949 . S
C487 C485 1.398 . S
C487 C488 1.385 . S
C487 H489 0.950 . S
C488 C482 1.404 . S
C488 H486 0.949 . S
C488 C487 1.385 . S
H489 C487 0.950 . S
H490 C474 0.959 . S
H491 C476 0.951 1_565 S
H492 C478 0.951 1_655 S
H493 C479 0.950 1_655 S
H494 C480 0.950 . S
H495 C481 0.950 . S
H496 C483 0.950 . S
H497 C484 0.951 . S
C498 C499 1.386 . S
C498 C500 1.383 . S
C498 H514 0.951 1_455 S
C499 C498 1.386 . S
C499 C503 1.383 . S
C500 C498 1.383 . S
C500 C501 1.402 . S
C500 H515 0.951 1_455 S
C501 C500 1.402 . S
C501 C502 1.375 . S
C501 C504 1.481 . S
C502 C501 1.375 . S
C502 C503 1.367 . S
C502 H516 0.951 . S
C503 C499 1.383 . S
C503 C502 1.367 . S
C503 H517 0.950 . S
C504 C501 1.481 . S
C504 C505 1.297 . S
C504 H518 0.950 . S
C505 C504 1.297 . S
C505 C506 1.479 . S
C505 H519 0.950 . S
C506 C505 1.479 . S
C506 C507 1.375 1_455 S
C506 C512 1.404 . S
C507 C506 1.375 1_655 S
C507 C508 1.369 . S
C507 H520 0.950 . S
C508 C507 1.369 . S
C508 C509 1.392 1_655 S
C508 H521 0.951 . S
C509 C508 1.392 1_455 S
C509 C511 1.384 . S
H510 C512 0.949 . S
C511 C509 1.384 . S
C511 C512 1.385 . S
C511 H513 0.950 . S
C512 C506 1.404 . S
C512 H510 0.949 . S
C512 C511 1.385 . S
H513 C511 0.950 . S
H514 C498 0.951 1_655 S
H515 C500 0.951 1_655 S
H516 C502 0.951 . S
H517 C503 0.950 . S
H518 C504 0.950 . S
H519 C505 0.950 . S
H520 C507 0.950 . S
H521 C508 0.951 . S
C522 C523 1.386 . S
C522 C524 1.383 . S
C522 H538 0.951 . S
C523 C522 1.386 . S
C523 C527 1.383 . S
C524 C522 1.383 . S
C524 C525 1.402 . S
C524 H539 0.951 . S
C525 C524 1.402 . S
C525 C526 1.375 . S
C525 C528 1.481 . S
C526 C525 1.375 . S
C526 C527 1.367 . S
C526 H540 0.951 . S
C527 C523 1.383 . S
C527 C526 1.367 . S
C527 H541 0.950 . S
C528 C525 1.481 . S
C528 C529 1.297 . S
C528 H542 0.950 . S
C529 C528 1.297 . S
C529 C530 1.479 . S
C529 H543 0.950 . S
C530 C529 1.479 . S
C530 C531 1.375 . S
C530 C536 1.404 . S
C531 C530 1.375 . S
C531 C532 1.369 . S
C531 H544 0.950 . S
C532 C531 1.369 . S
C532 C533 1.392 . S
C532 H545 0.951 . S
C533 C532 1.392 . S
C533 C535 1.384 . S
H534 C536 0.949 . S
C535 C533 1.384 . S
C535 C536 1.385 . S
C535 H537 0.950 . S
C536 C530 1.404 . S
C536 H534 0.949 . S
C536 C535 1.385 . S
H537 C535 0.950 . S
H538 C522 0.951 . S
H539 C524 0.951 . S
H540 C526 0.951 . S
H541 C527 0.950 . S
H542 C528 0.950 . S
H543 C529 0.950 . S
H544 C531 0.950 . S
H545 C532 0.951 . S
C546 C547 1.386 . S
C546 C548 1.383 . S
C546 H562 0.951 . S
C547 C546 1.386 . S
C547 C551 1.383 . S
C548 C546 1.383 . S
C548 C549 1.402 . S
C548 H563 0.951 . S
C549 C548 1.402 . S
C549 C550 1.375 . S
C549 C552 1.481 . S
C550 C549 1.375 . S
C550 C551 1.367 . S
C550 H564 0.951 . S
C551 C547 1.383 . S
C551 C550 1.367 . S
C551 H565 0.950 . S
C552 C549 1.481 . S
C552 C553 1.297 . S
C552 H566 0.950 . S
C553 C552 1.297 . S
C553 C554 1.479 . S
C553 H567 0.950 . S
C554 C553 1.479 . S
C554 C555 1.375 . S
C554 C560 1.404 . S
C555 C554 1.375 . S
C555 C556 1.369 . S
C555 H568 0.950 . S
C556 C555 1.369 . S
C556 C557 1.392 . S
C556 H569 0.951 . S
C557 C556 1.392 . S
C557 C559 1.384 . S
H558 C560 0.949 . S
C559 C557 1.384 . S
C559 C560 1.385 . S
C559 H561 0.950 . S
C560 C554 1.404 . S
C560 H558 0.949 . S
C560 C559 1.385 . S
H561 C559 0.950 . S
H562 C546 0.951 . S
H563 C548 0.951 . S
H564 C550 0.951 . S
H565 C551 0.950 . S
H566 C552 0.950 . S
H567 C553 0.950 . S
H568 C555 0.950 . S
H569 C556 0.951 . S
C293 C253 1.469 . S
C283 C15 1.339 . S
C307 C13 1.499 . S
C317 C193 1.485 . S
C331 C18 1.223 . S
C341 C223 1.361 . S
C355 C17 1.264 . S
C365 C163 1.221 . S
C379 C36 1.325 . S
C389 C133 1.465 . S
C403 C34 1.470 . S
C413 C73 1.503 . S
C437 C103 1.387 . S
C427 C39 1.324 . S
C461 C43 1.233 . S
C451 C38 1.271 . S
C475 C14 1.501 . S
C485 C62 1.524 1_545 S
C499 C16 1.401 . S
C509 C122 1.426 1_455 S
C533 C182 1.501 . S
C523 C35 1.519 . S
C547 C37 1.371 . S
C557 C242 1.381 . S
