# Generated by pormake.
# Topology anh, (6,3)-cn, num edge types: 1
# Building blocks:
#     Node 0, Type 0, BuildingBlock: BETDIP_clean_sbu_0, # of connection points: 6
#     Node 1, Type 0, BuildingBlock: BETDIP_clean_sbu_0, # of connection points: 6
#     Node 2, Type 0, BuildingBlock: BETDIP_clean_sbu_0, # of connection points: 6
#     Node 3, Type 1, BuildingBlock: BELTOD_clean_linker_0, # of connection points: 3
#     Node 4, Type 1, BuildingBlock: BELTOD_clean_linker_0, # of connection points: 3
#     Node 5, Type 1, BuildingBlock: BELTOD_clean_linker_0, # of connection points: 3
#     Node 6, Type 1, BuildingBlock: BELTOD_clean_linker_0, # of connection points: 3
#     Node 7, Type 1, BuildingBlock: BELTOD_clean_linker_0, # of connection points: 3
#     Node 8, Type 1, BuildingBlock: BELTOD_clean_linker_0, # of connection points: 3
#     Edge 9, Type (0, 1), BuildingBlock: XUDNAN_clean_linker_2, # of connection points: 2
#     Edge 10, Type (0, 1), BuildingBlock: XUDNAN_clean_linker_2, # of connection points: 2
#     Edge 11, Type (0, 1), BuildingBlock: XUDNAN_clean_linker_2, # of connection points: 2
#     Edge 12, Type (0, 1), BuildingBlock: XUDNAN_clean_linker_2, # of connection points: 2
#     Edge 13, Type (0, 1), BuildingBlock: XUDNAN_clean_linker_2, # of connection points: 2
#     Edge 14, Type (0, 1), BuildingBlock: XUDNAN_clean_linker_2, # of connection points: 2
#     Edge 15, Type (0, 1), BuildingBlock: XUDNAN_clean_linker_2, # of connection points: 2
#     Edge 16, Type (0, 1), BuildingBlock: XUDNAN_clean_linker_2, # of connection points: 2
#     Edge 17, Type (0, 1), BuildingBlock: XUDNAN_clean_linker_2, # of connection points: 2
#     Edge 18, Type (0, 1), BuildingBlock: XUDNAN_clean_linker_2, # of connection points: 2
#     Edge 19, Type (0, 1), BuildingBlock: XUDNAN_clean_linker_2, # of connection points: 2
#     Edge 20, Type (0, 1), BuildingBlock: XUDNAN_clean_linker_2, # of connection points: 2
#     Edge 21, Type (0, 1), BuildingBlock: XUDNAN_clean_linker_2, # of connection points: 2
#     Edge 22, Type (0, 1), BuildingBlock: XUDNAN_clean_linker_2, # of connection points: 2
#     Edge 23, Type (0, 1), BuildingBlock: XUDNAN_clean_linker_2, # of connection points: 2
#     Edge 24, Type (0, 1), BuildingBlock: XUDNAN_clean_linker_2, # of connection points: 2
#     Edge 25, Type (0, 1), BuildingBlock: XUDNAN_clean_linker_2, # of connection points: 2
#     Edge 26, Type (0, 1), BuildingBlock: XUDNAN_clean_linker_2, # of connection points: 2
# Relax obj value: 0.250
# Max RMSD: 0.179
# Mean RMSD: 0.148
data_MOF--net-anh--node1-BETDIP_clean_sbu_0--node2-BELTOD_clean_linker_0--edge1-XUDNAN_clean_linker_2
_symmetry_space_group_name_H-M    P1
_symmetry_Int_Tables_number       1
_symmetry_cell_setting            triclinic
loop_
_symmetry_equiv_pos_as_xyz
'x, y, z'
_cell_length_a     34.746679
_cell_length_b     34.892701
_cell_length_c     61.097043
_cell_angle_alpha  90.813686
_cell_angle_beta   89.296562
_cell_angle_gamma 119.78757
loop_
_atom_site_label
_atom_site_type_symbol
_atom_site_fract_x
_atom_site_fract_y
_atom_site_fract_z
_atom_type_partial_charge
Tb0 Tb 0.10776 0.62874 0.17574 0.0
Tb1 Tb 1.07013 0.534 0.16386 0.0
C2 C 0.1556 0.7007 0.19462 0.0
C3 C 0.20377 0.72783 0.19173 0.0
C4 C 0.23099 0.75321 0.209 0.0
C5 C 0.27716 0.77402 0.20674 0.0
C6 C 0.29666 0.76899 0.18731 0.0
C7 C 0.26895 0.74406 0.16998 0.0
C8 C 0.22314 0.72407 0.17211 0.0
C9 C 0.0931 0.6126 0.13408 0.0
C10 C 0.17447 0.58723 0.16545 0.0
C11 C 1.02818 0.46212 0.14334 0.0
C12 C 0.98732 0.4435 0.13044 0.0
C13 C 0.9715 0.47089 0.12279 0.0
C14 C 0.9283 0.45262 0.11498 0.0
C15 C 0.90093 0.40667 0.11416 0.0
C16 C 0.91851 0.37939 0.11954 0.0
C17 C 0.9614 0.39773 0.12783 0.0
C18 C 1.08082 0.55224 0.20659 0.0
C19 C 1.00496 0.57744 0.16697 0.0
O20 O 0.14252 0.66257 0.20401 0.0
O21 O 0.13231 0.69699 0.17722 0.0
O22 O 0.10689 0.59417 0.14698 0.0
O23 O 0.09245 0.64523 0.14413 0.0
O24 O 0.16872 0.62114 0.17164 0.0
O25 O 0.13937 0.54835 0.16099 0.0
O26 O 1.06198 0.4973 0.13517 0.0
O27 O 1.0233 0.46628 0.16439 0.0
O28 O 1.06732 0.56882 0.19249 0.0
O29 O 0.08686 0.5221 0.19697 0.0
O30 O 1.0125 0.54536 0.15987 0.0
O31 O 1.03733 0.61299 0.17689 0.0
H32 H 0.21659 0.7562 0.22431 0.0
H33 H 0.29745 0.79385 0.22026 0.0
H34 H 0.28242 0.73859 0.15495 0.0
H35 H 0.20276 0.70425 0.15859 0.0
H36 H 0.99139 0.5063 0.12412 0.0
H37 H 0.91524 0.4742 0.11117 0.0
H38 H 0.89763 0.34378 0.1194 0.0
H39 H 0.97316 0.37612 0.13352 0.0
Tb40 Tb 0.61702 1.04395 0.50445 0.0
Tb41 Tb 0.55755 0.08004 0.50093 0.0
C42 C 0.65432 1.00257 0.51728 0.0
C43 C 0.6499 0.95861 0.51427 0.0
C44 C 0.61275 0.91984 0.52183 0.0
C45 C 0.61116 0.87909 0.51949 0.0
C46 C 0.64644 0.87656 0.50939 0.0
C47 C 0.68291 0.91531 0.50142 0.0
C48 C 0.68467 0.95584 0.50393 0.0
C49 C 0.60409 0.05899 0.46432 0.0
C50 C 0.50881 0.97574 0.49919 0.0
C51 C 0.52534 0.12684 0.48933 0.0
C52 C 0.54728 0.17553 0.48788 0.0
C53 C 0.54636 0.20027 0.506 0.0
C54 C 0.57648 0.24539 0.5074 0.0
C55 C 0.60769 0.26665 0.49062 0.0
C56 C 0.60509 0.24317 0.47135 0.0
C57 C 0.57514 0.19785 0.47 0.0
C58 C 0.57519 0.06822 0.54178 0.0
C59 C 0.66552 0.14736 0.49925 0.0
O60 O 0.62384 1.00574 0.52875 0.0
O61 O 0.66639 1.02715 0.49983 0.0
O62 O 0.57509 1.04334 0.47916 0.0
O63 O 0.6408 0.06251 0.4711 0.0
O64 O 0.54923 0.98185 0.50384 0.0
O65 O 0.50426 1.01079 0.49573 0.0
O66 O 0.53946 0.10752 0.47549 0.0
O67 O 0.52056 0.1109 0.50907 0.0
O68 O 0.60202 0.08302 0.5259 0.0
O69 O 0.53679 0.06103 0.5352 0.0
O70 O 0.62462 0.13992 0.4952 0.0
O71 O 0.67044 0.11421 0.5063 0.0
H72 H 0.58536 0.92102 0.52982 0.0
H73 H 0.58272 0.84969 0.52582 0.0
H74 H 0.7111 0.91466 0.49404 0.0
H75 H 0.71378 0.9853 0.4981 0.0
H76 H 0.52468 0.18425 0.51983 0.0
H77 H 0.57721 0.26316 0.52223 0.0
H78 H 0.6287 0.2589 0.45815 0.0
H79 H 0.57621 0.17989 0.45561 0.0
Tb80 Tb 0.56643 0.55019 0.84136 0.0
Tb81 Tb 0.65833 0.60571 0.82812 0.0
C82 C 0.4918 0.51824 0.85956 0.0
C83 C 0.45366 0.52399 0.85545 0.0
C84 C 0.41153 0.49211 0.8627 0.0
C85 C 0.37432 0.49493 0.85686 0.0
C86 C 0.37898 0.5298 0.84375 0.0
C87 C 0.4213 0.56185 0.83666 0.0
C88 C 0.45834 0.55871 0.8423 0.0
C89 C 0.57948 0.55287 0.79861 0.0
C90 C 0.60513 0.65662 0.83072 0.0
C91 C 0.73186 0.63156 0.80955 0.0
C92 C 0.7495 0.60466 0.79956 0.0
C93 C 0.77178 0.61601 0.77932 0.0
C94 C 0.78529 0.58825 0.76923 0.0
C95 C 0.77679 0.54879 0.77933 0.0
C96 C 0.75448 0.53779 0.79961 0.0
C97 C 0.74123 0.56538 0.8096 0.0
C98 C 0.6442 0.60703 0.87091 0.0
C99 C 0.61643 0.49887 0.83105 0.0
O100 O 0.52737 0.55271 0.86724 0.0
O101 O 0.50086 0.49886 0.84355 0.0
O102 O 0.59743 0.58397 0.81216 0.0
O103 O 0.55037 0.51826 0.80887 0.0
O104 O 0.57303 0.61827 0.83897 0.0
O105 O 0.64257 0.65911 0.82362 0.0
O106 O 0.69752 0.62899 0.79966 0.0
O107 O 0.72651 0.62877 0.83084 0.0
O108 O 0.62699 0.57288 0.8587 0.0
O109 O 0.6712 0.64077 0.85929 0.0
O110 O 0.64441 0.53673 0.82141 0.0
O111 O 0.58531 0.49818 0.8441 0.0
H112 H 0.40736 0.46473 0.87258 0.0
H113 H 0.34199 0.47017 0.86278 0.0
H114 H 0.42561 0.58891 0.82648 0.0
H115 H 0.4904 0.58291 0.83601 0.0
H116 H 0.77948 0.64663 0.77153 0.0
H117 H 0.80336 0.59814 0.75387 0.0
H118 H 0.74892 0.5087 0.80839 0.0
H119 H 0.72491 0.55598 0.82539 0.0
P120 P 0.70189 0.10024 0.23969 0.0
H121 H 0.68519 1.00997 0.24536 0.0
H122 H 0.63023 0.93883 0.22895 0.0
H123 H 0.57902 1.00656 0.19074 0.0
H124 H 0.63189 0.07619 0.20742 0.0
H125 H 0.73882 0.1238 0.19639 0.0
H126 H 0.7375 0.17298 0.16893 0.0
H127 H 0.67444 0.21914 0.21537 0.0
H128 H 0.67634 0.16996 0.24303 0.0
H129 H 0.61755 0.0913 0.25465 0.0
H130 H 0.73906 0.11172 0.28342 0.0
O131 O 0.75102 0.10296 0.24182 0.0
H132 H 0.5874 0.09058 0.29113 0.0
H133 H 0.70858 0.10823 0.31976 0.0
C134 C 0.6635 1.04849 0.22715 0.0
C135 C 0.6624 1.00935 0.23323 0.0
C136 C 0.63127 0.96895 0.22388 0.0
C137 C 0.60147 0.96765 0.20817 0.0
C138 C 0.60268 1.00693 0.20226 0.0
C139 C 0.63297 1.04685 0.21187 0.0
C140 C 0.70787 0.14326 0.22174 0.0
C141 C 0.72523 0.1449 0.20078 0.0
C142 C 0.72358 0.17235 0.18498 0.0
C143 C 0.70461 0.19891 0.18984 0.0
C144 C 0.68859 0.19846 0.21112 0.0
C145 C 0.68994 0.17055 0.22696 0.0
C146 C 0.68074 0.10225 0.26638 0.0
C147 C 0.63778 0.09586 0.26886 0.0
C148 C 0.62046 0.09501 0.28973 0.0
C149 C 0.64556 0.09964 0.3085 0.0
C150 C 0.68861 0.10583 0.30578 0.0
C151 C 0.70608 0.10743 0.28494 0.0
P152 P 0.84072 0.65744 0.6015 0.0
H153 H 0.89116 0.64858 0.56534 0.0
H154 H 0.87463 0.58639 0.54059 0.0
H155 H 0.76337 0.50093 0.58168 0.0
H156 H 0.77949 0.56277 0.60591 0.0
H157 H 0.86691 0.72792 0.56926 0.0
H158 H 0.82343 0.74713 0.54496 0.0
H159 H 0.70252 0.63789 0.5701 0.0
H160 H 0.74603 0.61804 0.59386 0.0
H161 H 0.84378 0.60468 0.63775 0.0
H162 H 0.78522 0.6859 0.62525 0.0
O163 O 0.89336 0.69788 0.6032 0.0
H164 H 0.80366 0.58207 0.6726 0.0
H165 H 0.74266 0.66118 0.65887 0.0
C166 C 0.83746 0.61003 0.58786 0.0
C167 C 0.86433 0.61602 0.56945 0.0
C168 C 0.85465 0.58064 0.55523 0.0
C169 C 0.81796 0.53878 0.55929 0.0
C170 C 0.79251 0.53252 0.57837 0.0
C171 C 0.80186 0.56794 0.59236 0.0
C172 C 0.80954 0.6726 0.58388 0.0
C173 C 0.83109 0.7082 0.56955 0.0
C174 C 0.80631 0.71881 0.55555 0.0
C175 C 0.75975 0.69399 0.55582 0.0
C176 C 0.73837 0.65763 0.56976 0.0
C177 C 0.76316 0.64657 0.58341 0.0
C178 C 0.81595 0.64535 0.62845 0.0
C179 C 0.8221 0.61745 0.64246 0.0
C180 C 0.79877 0.60426 0.6623 0.0
C181 C 0.76886 0.61881 0.66844 0.0
C182 C 0.76527 0.64917 0.6549 0.0
C183 C 0.78918 0.66287 0.63534 0.0
P184 P 1.03405 0.5873 0.91496 0.0
H185 H 0.1025 0.64792 0.8848 0.0
H186 H 0.15531 0.6386 0.86137 0.0
H187 H 0.11673 0.51418 0.89249 0.0
H188 H 1.06476 0.52375 0.91586 0.0
H189 H 0.99165 0.61627 0.88381 0.0
H190 H 0.95141 0.58199 0.85039 0.0
H191 H 0.94678 0.4599 0.8673 0.0
H192 H 0.98595 0.49432 0.90146 0.0
H193 H 0.09242 0.59335 0.94982 0.0
H194 H 0.95154 0.52963 0.93881 0.0
O195 O 1.04403 0.63908 0.91781 0.0
H196 H 1.07922 0.57058 0.98784 0.0
H197 H 0.93776 0.50584 0.97708 0.0
C198 C 1.08068 0.58707 0.90241 0.0
C199 C 0.10653 0.61938 0.88702 0.0
C200 C 0.13618 0.61383 0.87351 0.0
C201 C 0.13924 0.57534 0.87495 0.0
C202 C 0.11428 0.54377 0.89085 0.0
C203 C 0.08518 0.54959 0.90445 0.0
C204 C 0.99141 0.55775 0.89519 0.0
C205 C 0.98077 0.58174 0.88076 0.0
C206 C 0.95862 0.5623 0.86138 0.0
C207 C 0.94747 0.51871 0.85584 0.0
C208 C 0.95549 0.49369 0.87102 0.0
C209 C 0.97744 0.51319 0.8906 0.0
C210 C 1.02296 0.5626 0.94149 0.0
C211 C 1.05855 0.57317 0.95546 0.0
C212 C 1.05089 0.55979 0.97721 0.0
C213 C 1.00737 0.53605 0.98549 0.0
C214 C 0.97164 0.52409 0.97117 0.0
C215 C 0.97943 0.53751 0.94932 0.0
P216 P 0.09851 0.54918 0.44599 0.0
H217 H 0.14173 0.58362 0.48976 0.0
H218 H 0.20862 0.65117 0.50168 0.0
H219 H 0.22131 0.7071 0.43787 0.0
H220 H 0.15585 0.63967 0.42592 0.0
H221 H 1.00515 0.53194 0.43968 0.0
H222 H 0.93188 0.47054 0.4488 0.0
H223 H 0.99229 0.41142 0.48673 0.0
H224 H 1.06575 0.47301 0.47721 0.0
H225 H 0.10177 0.49764 0.40789 0.0
H226 H 1.07507 0.60439 0.41869 0.0
O227 O 0.12657 0.52198 0.4477 0.0
H228 H 0.09258 0.50083 0.36869 0.0
H229 H 1.06924 0.6105 0.37936 0.0
C230 C 0.14077 0.60539 0.45697 0.0
C231 C 0.15772 0.61073 0.4784 0.0
C232 C 0.19703 0.6498 0.48517 0.0
C233 C 0.22168 0.68597 0.47091 0.0
C234 C 0.20385 0.68121 0.44972 0.0
C235 C 0.16512 0.64184 0.44286 0.0
C236 C 1.04254 0.50894 0.45787 0.0
C237 C 1.0031 0.50661 0.45043 0.0
C238 C 0.96038 0.47054 0.45572 0.0
C239 C 0.95441 0.43441 0.46874 0.0
C240 C 0.99407 0.43735 0.47652 0.0
C241 C 1.03683 0.47359 0.47127 0.0
C242 C 0.09047 0.55167 0.41649 0.0
C243 C 0.09463 0.52243 0.40184 0.0
C244 C 0.08969 0.5246 0.37912 0.0
C245 C 1.08063 0.55634 0.37016 0.0
C246 C 1.07555 0.58498 0.3851 0.0
C247 C 1.07947 0.58202 0.40785 0.0
P248 P 0.62557 0.08411 0.77982 0.0
H249 H 0.63991 0.13691 0.82164 0.0
H250 H 0.63618 0.20443 0.83021 0.0
H251 H 0.57351 0.19238 0.76825 0.0
H252 H 0.57569 0.12487 0.76012 0.0
H253 H 0.64254 1.01652 0.75998 0.0
H254 H 0.63314 0.94547 0.77089 0.0
H255 H 0.57077 0.9533 0.83092 0.0
H256 H 0.58017 1.02504 0.81961 0.0
H257 H 0.68396 0.14283 0.74537 0.0
H258 H 0.55699 1.02372 0.74809 0.0
O259 O 0.6799 0.11178 0.78485 0.0
H260 H 0.68089 0.14111 0.70552 0.0
H261 H 0.55374 1.02151 0.70781 0.0
C262 C 0.60759 0.12392 0.7902 0.0
C263 C 0.62345 0.14739 0.81023 0.0
C264 C 0.62161 0.18671 0.81512 0.0
C265 C 0.60461 0.2049 0.79999 0.0
C266 C 0.58693 0.18018 0.78049 0.0
C267 C 0.588 0.1407 0.77583 0.0
C268 C 0.61065 1.02673 0.78836 0.0
C269 C 0.62584 1.00288 0.77536 0.0
C270 C 0.62108 0.96182 0.78188 0.0
C271 C 0.60097 0.942 0.80196 0.0
C272 C 0.58583 0.96604 0.81514 0.0
C273 C 0.591 1.00762 0.80862 0.0
C274 C 0.62129 0.08279 0.74991 0.0
C275 C 0.65542 0.11602 0.73741 0.0
C276 C 0.65362 0.11494 0.71447 0.0
C277 C 0.61738 0.08074 0.70319 0.0
C278 C 0.58221 1.04837 0.71579 0.0
C279 C 0.58416 1.04942 0.73888 0.0
P280 P 0.58109 0.56095 0.10885 0.0
H281 H 0.60464 0.52695 0.14798 0.0
H282 H 0.67235 0.52794 0.15948 0.0
H283 H 0.74669 0.62305 0.10963 0.0
H284 H 0.6783 0.62158 0.09797 0.0
H285 H 0.49402 0.53917 0.09136 0.0
H286 H 0.43225 0.54942 0.10309 0.0
H287 H 0.50614 0.62 0.16037 0.0
H288 H 0.56832 0.60961 0.14825 0.0
H289 H 0.60364 0.51915 0.07246 0.0
H290 H 0.58112 0.62927 0.08035 0.0
O291 O 0.55328 0.50587 0.10966 0.0
H292 H 0.61505 0.53284 0.03304 0.0
H293 H 0.59137 0.64264 0.04097 0.0
C294 C 0.63504 0.57452 0.1221 0.0
C295 C 0.63549 0.54923 0.13981 0.0
C296 C 0.67477 0.54941 0.14627 0.0
C297 C 0.71609 0.57522 0.1355 0.0
C298 C 0.71629 0.60275 0.11861 0.0
C299 C 0.67664 0.60208 0.11194 0.0
C300 C 0.53731 0.57423 0.11846 0.0
C301 C 0.4975 0.55737 0.1064 0.0
C302 C 0.46133 0.56286 0.11336 0.0
C303 C 0.46274 0.58571 0.13289 0.0
C304 C 0.50284 0.60268 0.14506 0.0
C305 C 0.5391 0.5968 0.13811 0.0
C306 C 0.59117 0.57294 0.07955 0.0
C307 C 0.60091 0.54622 0.06572 0.0
C308 C 0.6071 0.55389 0.04302 0.0
C309 C 0.6041 0.58884 0.03346 0.0
C310 C 0.59459 0.6157 0.04751 0.0
C311 C 0.58846 0.60801 0.07019 0.0
H312 H 0.20367 0.53228 0.14506 0.0
H313 H 0.25409 0.65705 0.1798 0.0
H314 H 0.3304 0.66987 0.17549 0.0
H315 H 0.28212 0.50201 0.16737 0.0
H316 H 0.28807 0.47788 0.14219 0.0
H317 H 0.23725 0.4782 0.14801 0.0
H318 H 0.24492 0.51794 0.11151 0.0
H319 H 0.29577 0.51775 0.10558 0.0
H320 H 0.29504 0.56905 0.10582 0.0
H321 H 0.40404 0.66899 0.16755 0.0
H322 H 0.46497 0.65602 0.15619 0.0
H323 H 0.36941 0.53175 0.12606 0.0
C324 C 0.23065 0.56232 0.15186 0.0
C325 C 0.22163 0.59375 0.16281 0.0
C326 C 0.25894 0.63246 0.17119 0.0
C327 C 0.3029 0.63997 0.16887 0.0
C328 C 0.3105 0.60863 0.15801 0.0
C329 C 0.27526 0.57051 0.14956 0.0
C330 C 0.29275 0.54236 0.13836 0.0
C331 C 0.27392 0.49744 0.14965 0.0
C332 C 0.28143 0.53642 0.11386 0.0
C333 C 0.34313 0.57034 0.14178 0.0
C334 C 0.35255 0.60838 0.15328 0.0
C335 C 0.39654 0.63913 0.15859 0.0
C336 C 0.43141 0.63117 0.1521 0.0
C337 C 0.4235 0.59263 0.14011 0.0
C338 C 0.37793 0.56192 0.13496 0.0
H339 H 0.75874 0.1775 0.49588 0.0
H340 H 0.66504 0.22516 0.49417 0.0
H341 H 0.72642 0.30039 0.48671 0.0
H342 H 0.84969 0.27659 0.52218 0.0
H343 H 0.89305 0.27523 0.50628 0.0
H344 H 0.84218 0.22471 0.51178 0.0
H345 H 0.83098 0.20786 0.47031 0.0
H346 H 0.8818 0.25833 0.46469 0.0
H347 H 0.83075 0.24815 0.45225 0.0
H348 H 0.79908 0.37305 0.48007 0.0
H349 H 0.87437 0.43407 0.47288 0.0
H350 H 0.92524 0.34323 0.47762 0.0
C351 C 0.75101 0.20377 0.49418 0.0
C352 C 0.70571 0.1941 0.49572 0.0
C353 C 0.69837 0.23039 0.49303 0.0
C354 C 0.73345 0.2738 0.48892 0.0
C355 C 0.77714 0.28207 0.48746 0.0
C356 C 0.78618 0.24801 0.48995 0.0
C357 C 0.83645 0.26632 0.48701 0.0
C358 C 0.85653 0.26034 0.50807 0.0
C359 C 0.84553 0.24382 0.4674 0.0
C360 C 0.8541 0.31569 0.48251 0.0
C361 C 0.81904 0.32382 0.48297 0.0
C362 C 0.82647 0.36655 0.47945 0.0
C363 C 0.87007 0.40149 0.47515 0.0
C364 C 0.90747 0.39498 0.47412 0.0
C365 C 0.89852 0.35069 0.47817 0.0
H366 H 0.65723 0.73872 0.80932 0.0
H367 H 0.53621 0.66681 0.84728 0.0
H368 H 0.52284 0.72982 0.84443 0.0
H369 H 0.69011 0.84833 0.83181 0.0
H370 H 0.71088 0.87649 0.80619 0.0
H371 H 0.71154 0.82607 0.81131 0.0
H372 H 0.66686 0.79153 0.77597 0.0
H373 H 0.66608 0.84185 0.77074 0.0
H374 H 0.61478 0.7901 0.77222 0.0
H375 H 0.52256 0.80329 0.8377 0.0
H376 H 0.53379 0.87599 0.82693 0.0
H377 H 0.65448 0.90258 0.79255 0.0
C378 C 0.62789 0.73609 0.81713 0.0
C379 C 0.59791 0.69666 0.8287 0.0
C380 C 0.55997 0.69568 0.83836 0.0
C381 C 0.55205 0.73178 0.83683 0.0
C382 C 0.58204 0.76979 0.8254 0.0
C383 C 0.61921 0.77209 0.81561 0.0
C384 C 0.64583 0.8167 0.80399 0.0
C385 C 0.69236 0.84348 0.81392 0.0
C386 C 0.64856 0.80962 0.77926 0.0
C387 C 0.61807 0.83915 0.80876 0.0
C388 C 0.58149 0.81146 0.82127 0.0
C389 C 0.55126 0.82494 0.82793 0.0
C390 C 0.55821 0.86704 0.82178 0.0
C391 C 0.5952 0.89668 0.80878 0.0
C392 C 0.62544 0.88163 0.80226 0.0
H393 H 0.9761 0.64056 0.16031 0.0
H394 H 0.92646 0.49969 0.16477 0.0
H395 H 0.85069 0.48545 0.158 0.0
H396 H 0.87937 0.64147 0.18504 0.0
H397 H 0.88015 0.68158 0.1665 0.0
H398 H 0.9309 0.6819 0.17272 0.0
H399 H 0.94452 0.67582 0.1315 0.0
H400 H 0.89377 0.6754 0.12514 0.0
H401 H 0.9024 0.63114 0.11553 0.0
H402 H 0.77823 0.48492 0.15095 0.0
H403 H 0.71658 0.498 0.14273 0.0
H404 H 0.80883 0.63885 0.13982 0.0
C405 C 0.94925 0.6067 0.16013 0.0
C406 C 0.95833 0.57131 0.16358 0.0
C407 C 0.92151 0.52767 0.16248 0.0
C408 C 0.87786 0.5191 0.15855 0.0
C409 C 0.87011 0.55426 0.15516 0.0
C410 C 0.90481 0.59731 0.15567 0.0
C411 C 0.8868 0.62863 0.1505 0.0
C412 C 0.89479 0.66029 0.16984 0.0
C413 C 0.90815 0.65428 0.12941 0.0
C414 C 0.8368 0.5966 0.14729 0.0
C415 C 0.82821 0.55386 0.15026 0.0
C416 C 0.7849 0.51836 0.14864 0.0
C417 C 0.74963 0.52626 0.14401 0.0
C418 C 0.7565 0.56949 0.14062 0.0
C419 C 0.80149 0.6052 0.14216 0.0
H420 H 0.42555 0.94532 0.47835 0.0
H421 H 0.49932 0.89747 0.51471 0.0
H422 H 0.43575 0.82148 0.51204 0.0
H423 H 0.3157 0.86957 0.50068 0.0
H424 H 0.28704 0.86117 0.47514 0.0
H425 H 0.33765 0.91222 0.48029 0.0
H426 H 0.37199 0.90083 0.44479 0.0
H427 H 0.32146 0.84978 0.43951 0.0
H428 H 0.37352 0.85031 0.44078 0.0
H429 H 0.36127 0.7484 0.50629 0.0
H430 H 0.28794 0.68675 0.4959 0.0
H431 H 0.26074 0.77794 0.46095 0.0
C432 C 0.42842 0.91896 0.48586 0.0
C433 C 0.46852 0.92867 0.49701 0.0
C434 C 0.46992 0.89214 0.50616 0.0
C435 C 0.43349 0.84837 0.50473 0.0
C436 C 0.39484 0.84008 0.49375 0.0
C437 C 0.39224 0.8744 0.48422 0.0
C438 C 0.34719 0.85594 0.47268 0.0
C439 C 0.32031 0.87593 0.4828 0.0
C440 C 0.35395 0.86475 0.44797 0.0
C441 C 0.32475 0.80612 0.47729 0.0
C442 C 0.35286 0.79793 0.4897 0.0
C443 C 0.3394 0.75488 0.49652 0.0
C444 C 0.29696 0.71964 0.49058 0.0
C445 C 0.26702 0.72612 0.47753 0.0
C446 C 0.28199 0.77072 0.47079 0.0
H447 H 0.58118 0.41381 0.85181 0.0
H448 H 0.65595 0.48689 0.7948 0.0
H449 H 0.65983 0.42219 0.78167 0.0
H450 H 0.644 0.35485 0.85912 0.0
H451 H 0.5966 0.30364 0.86751 0.0
H452 H 0.5979 0.35526 0.87276 0.0
H453 H 0.5238 0.32619 0.85231 0.0
H454 H 0.52231 0.27452 0.84698 0.0
H455 H 0.51904 0.30589 0.82461 0.0
H456 H 0.65501 0.34846 0.77327 0.0
H457 H 0.64448 0.27321 0.77137 0.0
H458 H 0.57763 0.24394 0.83438 0.0
C459 C 0.59853 0.41632 0.8366 0.0
C460 C 0.61826 0.45685 0.8245 0.0
C461 C 0.64064 0.45749 0.80472 0.0
C462 C 0.64309 0.42039 0.79698 0.0
C463 C 0.62379 0.38157 0.80915 0.0
C464 C 0.60225 0.37917 0.82869 0.0
C465 C 0.58539 0.33301 0.83858 0.0
C466 C 0.60727 0.33693 0.86082 0.0
C467 C 0.53461 0.30845 0.84076 0.0
C468 C 0.6005 0.31007 0.82151 0.0
C469 C 0.62225 0.339 0.8046 0.0
C470 C 0.6382 0.32582 0.78655 0.0
C471 C 0.63192 0.28253 0.78557 0.0
C472 C 0.61034 0.25157 0.8026 0.0
C473 C 0.59468 0.26624 0.82102 0.0
H474 H 0.62791 0.8198 0.54316 0.0
H475 H 0.67208 0.84184 0.47554 0.0
H476 H 0.69414 0.78495 0.47837 0.0
H477 H 0.71271 0.81528 0.56329 0.0
H478 H 0.68375 0.77225 0.58309 0.0
H479 H 0.66011 0.80495 0.57442 0.0
H480 H 0.58829 0.73449 0.56244 0.0
H481 H 0.61137 0.7012 0.57149 0.0
H482 H 0.59168 0.6957 0.54383 0.0
H483 H 0.72836 0.74164 0.49102 0.0
H484 H 0.76586 0.70932 0.51183 0.0
H485 H 0.69694 0.71243 0.57078 0.0
C486 C 0.64 0.81093 0.52864 0.0
C487 C 0.64827 0.83507 0.50914 0.0
C488 C 0.66564 0.82373 0.49065 0.0
C489 C 0.67802 0.7913 0.49208 0.0
C490 C 0.67205 0.76999 0.51198 0.0
C491 C 0.65244 0.77857 0.52981 0.0
C492 C 0.65524 0.75571 0.55011 0.0
C493 C 0.67941 0.78905 0.5688 0.0
C494 C 0.60888 0.71962 0.55739 0.0
C495 C 0.68235 0.73578 0.54131 0.0
C496 C 0.69105 0.74367 0.51918 0.0
C497 C 0.72052 0.73383 0.50814 0.0
C498 C 0.74192 0.71587 0.52007 0.0
C499 C 0.73355 0.70789 0.54272 0.0
C500 C 0.7027 0.71704 0.5533 0.0
H501 H 0.86149 0.5817 0.76574 0.0
H502 H 0.74093 0.45884 0.77739 0.0
H503 H 0.78424 0.42349 0.78657 0.0
H504 H 0.93654 0.5194 0.75398 0.0
H505 H 0.98221 0.56706 0.76656 0.0
H506 H 0.94575 0.57384 0.74823 0.0
H507 H 0.93215 0.61854 0.77822 0.0
H508 H 0.96731 0.61132 0.79655 0.0
H509 H 0.91086 0.5938 0.80461 0.0
H510 H 0.83093 0.41729 0.81326 0.0
H511 H 0.87624 0.43714 0.84649 0.0
H512 H 0.97288 0.5598 0.81682 0.0
C513 C 0.84456 0.54648 0.76846 0.0
C514 C 0.7983 0.52336 0.77173 0.0
C515 C 0.77659 0.47737 0.77532 0.0
C516 C 0.80115 0.45696 0.78052 0.0
C517 C 0.84729 0.4827 0.78121 0.0
C518 C 0.86915 0.52601 0.77381 0.0
C519 C 0.91741 0.54956 0.78067 0.0
C520 C 0.94722 0.5526 0.7612 0.0
C521 C 0.93264 0.59589 0.79065 0.0
C522 C 0.91594 0.5172 0.79736 0.0
C523 C 0.87623 0.47757 0.79643 0.0
C524 C 0.86291 0.44717 0.81351 0.0
C525 C 0.88876 0.45875 0.83249 0.0
C526 C 0.92753 0.50037 0.83419 0.0
C527 C 0.94296 0.52796 0.81577 0.0
H528 H 0.3574 0.78154 0.21913 0.0
H529 H 0.34714 0.80438 0.15027 0.0
H530 H 0.42808 0.84147 0.14671 0.0
H531 H 0.44068 0.88485 0.22971 0.0
H532 H 0.46918 0.86989 0.24934 0.0
H533 H 0.41082 0.83466 0.24517 0.0
H534 H 0.42411 0.7691 0.23654 0.0
H535 H 0.48291 0.80464 0.24039 0.0
H536 H 0.46245 0.77422 0.21511 0.0
H537 H 0.50819 0.88738 0.15153 0.0
H538 H 0.58037 0.94566 0.16538 0.0
H539 H 0.54037 0.89767 0.2314 0.0
C540 C 0.37206 0.79378 0.20321 0.0
C541 C 0.34556 0.78945 0.18496 0.0
C542 C 0.36633 0.80603 0.16443 0.0
C543 C 0.41246 0.82716 0.16221 0.0
C544 C 0.4376 0.83165 0.18062 0.0
C545 C 0.41816 0.81566 0.20079 0.0
C546 C 0.45254 0.83137 0.21872 0.0
C547 C 0.44273 0.85672 0.23677 0.0
C548 C 0.45568 0.79251 0.22825 0.0
C549 C 0.49387 0.86149 0.20573 0.0
C550 C 0.48476 0.85967 0.18363 0.0
C551 C 0.51609 0.88837 0.16868 0.0
C552 C 0.55693 0.92136 0.17666 0.0
C553 C 0.5657 0.92559 0.19937 0.0
C554 C 0.53474 0.89405 0.21391 0.0
H555 H 0.65998 0.29277 0.52641 0.0
H556 H 0.64315 0.33926 0.4638 0.0
H557 H 0.70722 0.41337 0.47196 0.0
H558 H 0.68151 0.38288 0.55723 0.0
H559 H 0.72263 0.38149 0.57439 0.0
H560 H 0.68068 0.33153 0.56181 0.0
H561 H 0.74172 0.31888 0.5439 0.0
H562 H 0.78402 0.36923 0.55641 0.0
H563 H 0.78402 0.3614 0.52718 0.0
H564 H 0.76502 0.48426 0.48963 0.0
H565 H 0.80846 0.54559 0.51542 0.0
H566 H 0.78888 0.45137 0.56586 0.0
C567 C 0.66989 0.31856 0.51438 0.0
C568 C 0.64638 0.3108 0.49466 0.0
C569 C 0.66081 0.34483 0.47905 0.0
C570 C 0.69727 0.38678 0.48349 0.0
C571 C 0.71937 0.39352 0.50334 0.0
C572 C 0.70636 0.36009 0.51841 0.0
C573 C 0.73299 0.37621 0.53921 0.0
C574 C 0.70264 0.36754 0.55933 0.0
C575 C 0.76244 0.35519 0.54183 0.0
C576 C 0.76055 0.42488 0.53432 0.0
C577 C 0.75335 0.4341 0.5133 0.0
C578 C 0.77176 0.47735 0.50591 0.0
C579 C 0.79656 0.512 0.52066 0.0
C580 C 0.80214 0.50308 0.54258 0.0
C581 C 0.78539 0.459 0.54913 0.0
H582 H 0.37029 0.60237 0.84906 0.0
H583 H 0.29956 0.46559 0.82773 0.0
H584 H 0.23077 0.46944 0.82473 0.0
H585 H 0.2949 0.5961 0.88405 0.0
H586 H 0.30055 0.64964 0.87958 0.0
H587 H 0.34621 0.64082 0.87364 0.0
H588 H 0.34953 0.66687 0.83381 0.0
H589 H 0.30374 0.67609 0.83968 0.0
H590 H 0.30049 0.64081 0.8171 0.0
H591 H 0.16859 0.48211 0.83208 0.0
H592 H 0.11704 0.50174 0.85043 0.0
H593 H 0.22708 0.63037 0.86743 0.0
C594 C 0.34068 0.57395 0.8428 0.0
C595 C 0.33994 0.53383 0.83845 0.0
C596 C 0.3005 0.49662 0.8311 0.0
C597 C 0.26151 0.49869 0.82912 0.0
C598 C 0.26276 0.53828 0.83443 0.0
C599 C 0.30147 0.57544 0.84097 0.0
C600 C 0.29256 0.61126 0.84948 0.0
C601 C 0.30952 0.62519 0.87308 0.0
C602 C 0.31277 0.65112 0.8341 0.0
C603 C 0.24248 0.58707 0.84851 0.0
C604 C 0.22607 0.54562 0.83901 0.0
C605 C 0.18093 0.51487 0.83895 0.0
C606 C 0.15198 0.52612 0.84953 0.0
C607 C 0.16842 0.56755 0.86016 0.0
C608 C 0.21387 0.59897 0.85889 0.0
H609 H 0.85373 0.42017 0.1445 0.0
H610 H 0.84117 0.34539 0.08563 0.0
H611 H 0.76426 0.29157 0.09567 0.0
H612 H 0.82567 0.34552 0.17594 0.0
H613 H 0.79366 0.35567 0.19632 0.0
H614 H 0.83295 0.4001 0.18 0.0
H615 H 0.7723 0.41629 0.16722 0.0
H616 H 0.73182 0.37153 0.18363 0.0
H617 H 0.72238 0.3733 0.15481 0.0
H618 H 0.70719 0.23409 0.11715 0.0
H619 H 0.68127 0.18008 0.14686 0.0
H620 H 0.73215 0.28618 0.1947 0.0
C621 C 0.83314 0.39424 0.13305 0.0
C622 C 0.85242 0.38708 0.11419 0.0
C623 C 0.82629 0.35174 0.0999 0.0
C624 C 0.7825 0.32106 0.10558 0.0
C625 C 0.76582 0.32582 0.12578 0.0
C626 C 0.79024 0.36228 0.13923 0.0
C627 C 0.7719 0.35388 0.16242 0.0
C628 C 0.80819 0.3643 0.17962 0.0
C629 C 0.74815 0.3803 0.16729 0.0
C630 C 0.73878 0.305 0.1608 0.0
C631 C 0.73319 0.29033 0.13923 0.0
C632 C 0.71035 0.24541 0.13396 0.0
C633 C 0.69606 0.21485 0.15096 0.0
C634 C 0.70537 0.22932 0.17297 0.0
C635 C 0.72407 0.27461 0.17796 0.0
H636 H 0.10626 0.56329 0.10276 0.0
H637 H 1.02136 0.61695 0.12095 0.0
H638 H 0.97779 0.58541 0.08744 0.0
H639 H 0.11705 0.59176 0.04931 0.0
H640 H 0.11681 0.54352 0.03818 0.0
H641 H 0.13443 0.56072 0.06583 0.0
H642 H 1.07559 0.48328 0.0796 0.0
H643 H 1.05738 0.46585 0.05187 0.0
H644 H 1.01814 0.46147 0.07266 0.0
H645 H 0.95128 0.55955 0.0503 0.0
H646 H 0.94944 0.54947 0.0104 0.0
H647 H 1.05144 0.51271 0.01478 0.0
C648 C 1.07772 0.56719 0.09984 0.0
C649 C 1.06669 0.59192 0.11441 0.0
C650 C 1.03016 0.59787 0.10993 0.0
C651 C 1.00486 0.57961 0.09109 0.0
C652 C 1.01675 0.55579 0.0768 0.0
C653 C 1.0525 0.54975 0.08083 0.0
C654 C 1.0624 0.52891 0.06125 0.0
C655 C 0.11049 0.55798 0.05317 0.0
C656 C 1.05279 0.48209 0.06667 0.0
C657 C 1.02905 0.52761 0.04504 0.0
C658 C 1.00182 0.54147 0.05469 0.0
C659 C 0.97159 0.54761 0.04262 0.0
C660 C 0.97064 0.54158 0.01991 0.0
C661 C 1.00022 0.53018 0.00947 0.0
C662 C 1.0283 0.5212 0.02236 0.0
H663 H 0.66584 0.11718 0.43682 0.0
H664 H 0.52666 1.01852 0.44104 0.0
H665 H 0.51891 1.02554 0.40117 0.0
H666 H 0.65264 0.18565 0.39353 0.0
H667 H 0.70494 0.19836 0.3811 0.0
H668 H 0.69709 0.19005 0.41024 0.0
H669 H 0.71972 0.12969 0.40742 0.0
H670 H 0.72715 0.13734 0.37835 0.0
H671 H 0.68994 0.08333 0.38911 0.0
H672 H 0.53083 1.03364 0.36018 0.0
H673 H 0.55936 1.04559 0.32229 0.0
H674 H 0.68926 0.14452 0.34565 0.0
C675 C 0.63351 0.0979 0.42938 0.0
C676 C 0.59688 0.06718 0.44169 0.0
C677 C 0.55499 1.04236 0.43169 0.0
C678 C 0.55036 1.0462 0.40913 0.0
C679 C 0.58768 0.07591 0.3972 0.0
C680 C 0.62821 0.10207 0.40713 0.0
C681 C 0.66395 0.12925 0.39065 0.0
C682 C 0.68062 0.17877 0.39408 0.0
C683 C 0.70241 0.11926 0.39144 0.0
C684 C 0.63794 0.11237 0.36969 0.0
C685 C 0.59393 0.08198 0.37374 0.0
C686 C 0.56487 0.05838 0.35681 0.0
C687 C 0.58142 0.06554 0.33528 0.0
C688 C 0.62665 0.09613 0.33086 0.0
C689 C 0.65464 0.12066 0.34836 0.0
H690 H 0.6232 0.621 0.77041 0.0
H691 H 0.58213 0.48301 0.7798 0.0
H692 H 0.62707 0.48496 0.74765 0.0
H693 H 0.62025 0.61122 0.70911 0.0
H694 H 0.66585 0.6667 0.70608 0.0
H695 H 0.62827 0.65319 0.72899 0.0
H696 H 0.69455 0.68332 0.75531 0.0
H697 H 0.73256 0.69593 0.73269 0.0
H698 H 0.73113 0.6608 0.75431 0.0
H699 H 0.68022 0.50356 0.71611 0.0
H700 H 0.7318 0.53479 0.68497 0.0
H701 H 0.7385 0.66126 0.69636 0.0
C702 C 0.62314 0.59108 0.76537 0.0
C703 C 0.59983 0.55199 0.77755 0.0
C704 C 0.59996 0.51325 0.77058 0.0
C705 C 0.62548 0.51412 0.75244 0.0
C706 C 0.64939 0.55365 0.74115 0.0
C707 C 0.64746 0.5911 0.74697 0.0
C708 C 0.67534 0.62897 0.73173 0.0
C709 C 0.64565 0.64069 0.71817 0.0
C710 C 0.71049 0.66965 0.74426 0.0
C711 C 0.69586 0.60792 0.71746 0.0
C712 C 0.67977 0.56425 0.72288 0.0
C713 C 0.69306 0.53772 0.71169 0.0
C714 C 0.72292 0.55604 0.69416 0.0
C715 C 0.73972 0.60072 0.68812 0.0
C716 C 0.72615 0.62692 0.70024 0.0
H717 H 0.52377 1.0512 0.5795 0.0
H718 H 0.65663 0.08849 0.55705 0.0
H719 H 0.68059 0.09362 0.59539 0.0
H720 H 0.55662 0.12352 0.62655 0.0
H721 H 0.51221 0.08519 0.64394 0.0
H722 H 0.5047 0.0828 0.61474 0.0
H723 H 0.48393 1.00056 0.61434 0.0
H724 H 0.49137 1.00269 0.64357 0.0
H725 H 0.52159 0.98494 0.62591 0.0
H726 H 0.69113 0.09679 0.63617 0.0
H727 H 0.68772 0.09743 0.67644 0.0
H728 H 0.54821 0.05854 0.67367 0.0
C729 C 0.55782 0.06013 0.58267 0.0
C730 C 0.58833 0.06937 0.56513 0.0
C731 C 0.63262 0.08119 0.57008 0.0
C732 C 0.64656 0.0842 0.59187 0.0
C733 C 0.6159 0.07526 0.60876 0.0
C734 C 0.57239 0.06336 0.60447 0.0
C735 C 0.54652 0.05629 0.62581 0.0
C736 C 0.52898 0.0889 0.62787 0.0
C737 C 0.5086 1.00826 0.6275 0.0
C738 C 0.58232 0.06635 0.64271 0.0
C739 C 0.62204 0.07716 0.63242 0.0
C740 C 0.66018 0.08842 0.64437 0.0
C741 C 0.65794 0.08898 0.66735 0.0
C742 C 0.61784 0.07843 0.67851 0.0
C743 C 0.57938 0.06652 0.66582 0.0
H744 H 0.60347 0.53954 0.90244 0.0
H745 H 0.67332 0.68187 0.89466 0.0
H746 H 0.66962 0.69168 0.93435 0.0
H747 H 0.53009 0.53622 0.94718 0.0
H748 H 0.53247 0.49299 0.96184 0.0
H749 H 0.53903 0.49611 0.93249 0.0
H750 H 0.61414 0.49818 0.93611 0.0
H751 H 0.60788 0.49524 0.96546 0.0
H752 H 0.65676 0.53989 0.95317 0.0
H753 H 0.66087 0.68774 0.97479 0.0
H754 H 0.6468 0.67001 0.01386 0.0
H755 H 0.5817 0.53007 -0.00231 0.0
C756 C 0.61767 0.57268 0.90913 0.0
C757 C 0.6388 0.60999 0.8952 0.0
C758 C 0.65712 0.65272 0.90477 0.0
C759 C 0.65517 0.65873 0.92741 0.0
C760 C 0.63478 0.62171 0.94071 0.0
C761 C 0.61622 0.57942 0.93205 0.0
C762 C 0.59701 0.54568 0.95048 0.0
C763 C 0.54665 0.51599 0.94783 0.0
C764 C 0.62034 0.51811 0.95135 0.0
C765 C 0.60792 0.57573 0.97065 0.0
C766 C 0.62962 0.61943 0.96445 0.0
C767 C 0.64354 0.65358 0.97983 0.0
C768 C 0.63503 0.64306 0.00213 0.0
C769 C 0.61256 0.59857 0.00925 0.0
C770 C 0.59908 0.56448 0.99306 0.0
H771 H 0.11582 0.52642 0.24046 0.0
H772 H 1.03881 0.59049 0.22772 0.0
H773 H 1.02992 0.59756 0.26746 0.0
H774 H 1.05565 0.46573 0.28823 0.0
H775 H 0.10406 0.47439 0.30291 0.0
H776 H 0.10422 0.47363 0.27341 0.0
H777 H 0.17448 0.55098 0.27306 0.0
H778 H 0.17466 0.55186 0.30256 0.0
H779 H 0.17414 0.59595 0.28779 0.0
H780 H 1.02549 0.59394 0.30875 0.0
H781 H 1.03146 0.58655 0.34821 0.0
H782 H 0.11799 0.53172 0.33534 0.0
C783 C 0.09714 0.54196 0.24608 0.0
C784 C 1.07769 0.55758 0.23082 0.0
C785 C 1.05394 0.57815 0.23894 0.0
C786 C 1.0486 0.58223 0.26156 0.0
C787 C 1.06779 0.56627 0.27615 0.0
C788 C 0.09218 0.54713 0.26878 0.0
C789 C 0.11049 0.5341 0.28811 0.0
C790 C 0.09252 0.48398 0.28816 0.0
C791 C 0.16147 0.55976 0.28786 0.0
C792 C 0.09208 0.54835 0.30741 0.0
C793 C 1.06726 0.56646 0.30007 0.0
C794 C 1.0456 0.58057 0.31466 0.0
C795 C 1.04968 0.57658 0.33729 0.0
C796 C 1.07598 0.55928 0.3456 0.0
C797 C 0.0973 0.54489 0.33009 0.0
loop_
_geom_bond_atom_site_label_1
_geom_bond_atom_site_label_2
_geom_bond_distance
_geom_bond_site_symmetry_2
_ccdc_geom_bond_type
Tb0 C2 2.809 . S
Tb0 O20 2.484 . S
Tb0 O21 2.440 . S
Tb0 O22 2.658 . S
Tb0 O23 2.409 . S
Tb0 O24 2.378 . S
Tb0 O28 2.325 . S
Tb0 O31 2.341 1_455 S
Tb1 C11 2.809 . S
Tb1 O22 2.325 1_655 S
Tb1 O25 2.341 1_655 S
Tb1 O26 2.484 . S
Tb1 O27 2.440 . S
Tb1 O28 2.658 1_655 S
Tb1 O29 2.409 1_655 S
Tb1 O30 2.378 . S
C2 Tb0 2.809 . S
C2 C3 1.514 . S
C2 O20 1.248 . S
C2 O21 1.266 . S
C3 C2 1.514 . S
C3 C4 1.359 . S
C3 C8 1.348 . S
C4 C3 1.359 . S
C4 C5 1.380 . S
C4 H32 0.929 . S
C5 C4 1.380 . S
C5 C6 1.347 . S
C5 H33 0.931 . S
C6 C5 1.347 . S
C6 C7 1.369 . S
C7 C6 1.369 . S
C7 C8 1.408 . S
C7 H34 0.930 . S
C8 C3 1.348 . S
C8 C7 1.408 . S
C8 H35 0.930 . S
C9 O22 1.281 . S
C9 O23 1.254 . S
C10 O24 1.236 . S
C10 O25 1.266 . S
C11 Tb1 2.809 . S
C11 C12 1.514 . S
C11 O26 1.248 . S
C11 O27 1.266 . S
C12 C11 1.514 . S
C12 C13 1.359 . S
C12 C17 1.348 . S
C13 C12 1.359 . S
C13 C14 1.380 . S
C13 H36 0.929 . S
C14 C13 1.380 . S
C14 C15 1.347 . S
C14 H37 0.931 . S
C15 C14 1.347 . S
C15 C16 1.369 . S
C16 C15 1.369 . S
C16 C17 1.408 . S
C16 H38 0.930 . S
C17 C12 1.348 . S
C17 C16 1.408 . S
C17 H39 0.930 . S
C18 O28 1.281 . S
C18 O29 1.254 . S
C19 O30 1.236 . S
C19 O31 1.266 . S
O20 Tb0 2.484 . S
O20 C2 1.248 . S
O21 Tb0 2.440 . S
O21 C2 1.266 . S
O22 Tb0 2.658 . S
O22 Tb1 2.325 1_455 S
O22 C9 1.281 . S
O23 Tb0 2.409 . S
O23 C9 1.254 . S
O24 Tb0 2.378 . S
O24 C10 1.236 . S
O25 Tb1 2.341 1_455 S
O25 C10 1.266 . S
O26 Tb1 2.484 . S
O26 C11 1.248 . S
O27 Tb1 2.440 . S
O27 C11 1.266 . S
O28 Tb0 2.325 . S
O28 Tb1 2.658 1_455 S
O28 C18 1.281 . S
O29 Tb1 2.409 1_455 S
O29 C18 1.254 . S
O30 Tb1 2.378 . S
O30 C19 1.236 . S
O31 Tb0 2.341 1_655 S
O31 C19 1.266 . S
H32 C4 0.929 . S
H33 C5 0.931 . S
H34 C7 0.930 . S
H35 C8 0.930 . S
H36 C13 0.929 . S
H37 C14 0.931 . S
H38 C16 0.930 . S
H39 C17 0.930 . S
Tb40 C42 2.797 1_545 S
Tb40 O60 2.475 1_545 S
Tb40 O61 2.429 1_545 S
Tb40 O62 2.668 . S
Tb40 O63 2.411 . S
Tb40 O64 2.377 1_545 S
Tb40 O68 2.331 . S
Tb40 O71 2.351 . S
Tb41 C51 2.809 . S
Tb41 O62 2.325 . S
Tb41 O65 2.341 1_545 S
Tb41 O66 2.484 . S
Tb41 O67 2.440 . S
Tb41 O68 2.658 . S
Tb41 O69 2.409 . S
Tb41 O70 2.378 . S
C42 Tb40 2.797 1_565 S
C42 C43 1.514 . S
C42 O60 1.248 . S
C42 O61 1.266 . S
C43 C42 1.514 . S
C43 C44 1.359 . S
C43 C48 1.348 . S
C44 C43 1.359 . S
C44 C45 1.380 . S
C44 H72 0.929 . S
C45 C44 1.380 . S
C45 C46 1.347 . S
C45 H73 0.931 . S
C46 C45 1.347 . S
C46 C47 1.369 . S
C47 C46 1.369 . S
C47 C48 1.408 . S
C47 H74 0.930 . S
C48 C43 1.348 . S
C48 C47 1.408 . S
C48 H75 0.930 . S
C49 O62 1.281 . S
C49 O63 1.254 . S
C50 O64 1.236 . S
C50 O65 1.266 . S
C51 Tb41 2.809 . S
C51 C52 1.514 . S
C51 O66 1.248 . S
C51 O67 1.266 . S
C52 C51 1.514 . S
C52 C53 1.359 . S
C52 C57 1.348 . S
C53 C52 1.359 . S
C53 C54 1.380 . S
C53 H76 0.929 . S
C54 C53 1.380 . S
C54 C55 1.347 . S
C54 H77 0.931 . S
C55 C54 1.347 . S
C55 C56 1.369 . S
C56 C55 1.369 . S
C56 C57 1.408 . S
C56 H78 0.930 . S
C57 C52 1.348 . S
C57 C56 1.408 . S
C57 H79 0.930 . S
C58 O68 1.281 . S
C58 O69 1.254 . S
C59 O70 1.236 . S
C59 O71 1.266 . S
O60 Tb40 2.475 1_565 S
O60 C42 1.248 . S
O61 Tb40 2.429 1_565 S
O61 C42 1.266 . S
O62 Tb40 2.668 . S
O62 Tb41 2.325 . S
O62 C49 1.281 . S
O63 Tb40 2.411 . S
O63 C49 1.254 . S
O64 Tb40 2.377 1_565 S
O64 C50 1.236 . S
O65 Tb41 2.341 1_565 S
O65 C50 1.266 . S
O66 Tb41 2.484 . S
O66 C51 1.248 . S
O67 Tb41 2.440 . S
O67 C51 1.266 . S
O68 Tb40 2.331 . S
O68 Tb41 2.658 . S
O68 C58 1.281 . S
O69 Tb41 2.409 . S
O69 C58 1.254 . S
O70 Tb41 2.378 . S
O70 C59 1.236 . S
O71 Tb40 2.351 . S
O71 C59 1.266 . S
H72 C44 0.929 . S
H73 C45 0.931 . S
H74 C47 0.930 . S
H75 C48 0.930 . S
H76 C53 0.929 . S
H77 C54 0.931 . S
H78 C56 0.930 . S
H79 C57 0.930 . S
Tb80 C82 2.809 . S
Tb80 O100 2.484 . S
Tb80 O101 2.440 . S
Tb80 O102 2.658 . S
Tb80 O103 2.409 . S
Tb80 O104 2.378 . S
Tb80 O108 2.325 . S
Tb80 O111 2.341 . S
Tb81 C91 2.809 . S
Tb81 O102 2.325 . S
Tb81 O105 2.341 . S
Tb81 O106 2.484 . S
Tb81 O107 2.440 . S
Tb81 O108 2.658 . S
Tb81 O109 2.409 . S
Tb81 O110 2.378 . S
C82 Tb80 2.809 . S
C82 C83 1.514 . S
C82 O100 1.248 . S
C82 O101 1.266 . S
C83 C82 1.514 . S
C83 C84 1.359 . S
C83 C88 1.348 . S
C84 C83 1.359 . S
C84 C85 1.380 . S
C84 H112 0.929 . S
C85 C84 1.380 . S
C85 C86 1.347 . S
C85 H113 0.931 . S
C86 C85 1.347 . S
C86 C87 1.369 . S
C87 C86 1.369 . S
C87 C88 1.408 . S
C87 H114 0.930 . S
C88 C83 1.348 . S
C88 C87 1.408 . S
C88 H115 0.930 . S
C89 O102 1.281 . S
C89 O103 1.254 . S
C90 O104 1.236 . S
C90 O105 1.266 . S
C91 Tb81 2.809 . S
C91 C92 1.514 . S
C91 O106 1.248 . S
C91 O107 1.266 . S
C92 C91 1.514 . S
C92 C93 1.359 . S
C92 C97 1.348 . S
C93 C92 1.359 . S
C93 C94 1.380 . S
C93 H116 0.929 . S
C94 C93 1.380 . S
C94 C95 1.347 . S
C94 H117 0.931 . S
C95 C94 1.347 . S
C95 C96 1.369 . S
C96 C95 1.369 . S
C96 C97 1.408 . S
C96 H118 0.930 . S
C97 C92 1.348 . S
C97 C96 1.408 . S
C97 H119 0.930 . S
C98 O108 1.281 . S
C98 O109 1.254 . S
C99 O110 1.236 . S
C99 O111 1.266 . S
O100 Tb80 2.484 . S
O100 C82 1.248 . S
O101 Tb80 2.440 . S
O101 C82 1.266 . S
O102 Tb80 2.658 . S
O102 Tb81 2.325 . S
O102 C89 1.281 . S
O103 Tb80 2.409 . S
O103 C89 1.254 . S
O104 Tb80 2.378 . S
O104 C90 1.236 . S
O105 Tb81 2.341 . S
O105 C90 1.266 . S
O106 Tb81 2.484 . S
O106 C91 1.248 . S
O107 Tb81 2.440 . S
O107 C91 1.266 . S
O108 Tb80 2.325 . S
O108 Tb81 2.658 . S
O108 C98 1.281 . S
O109 Tb81 2.409 . S
O109 C98 1.254 . S
O110 Tb81 2.378 . S
O110 C99 1.236 . S
O111 Tb80 2.341 . S
O111 C99 1.266 . S
H112 C84 0.929 . S
H113 C85 0.931 . S
H114 C87 0.930 . S
H115 C88 0.930 . S
H116 C93 0.929 . S
H117 C94 0.931 . S
H118 C96 0.930 . S
H119 C97 0.930 . S
P120 O131 1.490 1_545 S
P120 C134 1.812 1_545 S
P120 C140 1.803 . S
P120 C146 1.819 . S
H121 C135 0.941 . S
H122 C136 0.939 . S
H123 C138 0.940 . S
H124 C139 0.940 1_545 S
H125 C141 0.939 . S
H126 C142 0.942 . S
H127 C144 0.940 . S
H128 C145 0.939 . S
H129 C147 0.941 . S
H130 C151 0.939 . S
O131 P120 1.490 1_565 S
H132 C148 0.939 1_565 S
H133 C150 0.940 . S
C134 P120 1.812 1_565 S
C134 C135 1.389 . S
C134 C139 1.391 . S
C135 H121 0.941 . S
C135 C134 1.389 . S
C135 C136 1.397 . S
C136 H122 0.939 . S
C136 C135 1.397 . S
C136 C137 1.378 . S
C137 C136 1.378 . S
C137 C138 1.378 . S
C138 H123 0.940 . S
C138 C137 1.378 . S
C138 C139 1.396 . S
C139 H124 0.940 1_565 S
C139 C134 1.391 . S
C139 C138 1.396 . S
C140 P120 1.803 . S
C140 C141 1.378 . S
C140 C145 1.400 . S
C141 H125 0.939 . S
C141 C140 1.378 . S
C141 C142 1.361 . S
C142 H126 0.942 . S
C142 C141 1.361 . S
C142 C143 1.369 . S
C143 C142 1.369 . S
C143 C144 1.404 . S
C144 H127 0.940 . S
C144 C143 1.404 . S
C144 C145 1.389 . S
C145 H128 0.939 . S
C145 C140 1.400 . S
C145 C144 1.389 . S
C146 P120 1.819 . S
C146 C147 1.391 1_545 S
C146 C151 1.391 . S
C147 H129 0.941 . S
C147 C146 1.391 1_565 S
C147 C148 1.396 1_565 S
C148 H132 0.939 1_545 S
C148 C147 1.396 1_545 S
C148 C149 1.397 . S
C149 C148 1.397 . S
C149 C150 1.385 . S
C150 H133 0.940 . S
C150 C149 1.385 . S
C150 C151 1.388 . S
C151 H130 0.939 . S
C151 C146 1.391 . S
C151 C150 1.388 . S
P152 O163 1.490 . S
P152 C166 1.812 . S
P152 C172 1.803 . S
P152 C178 1.819 . S
H153 C167 0.941 . S
H154 C168 0.939 . S
H155 C170 0.940 . S
H156 C171 0.940 . S
H157 C173 0.939 . S
H158 C174 0.942 . S
H159 C176 0.940 . S
H160 C177 0.939 . S
H161 C179 0.941 . S
H162 C183 0.939 . S
O163 P152 1.490 . S
H164 C180 0.939 . S
H165 C182 0.940 . S
C166 P152 1.812 . S
C166 C167 1.389 . S
C166 C171 1.391 . S
C167 H153 0.941 . S
C167 C166 1.389 . S
C167 C168 1.397 . S
C168 H154 0.939 . S
C168 C167 1.397 . S
C168 C169 1.378 . S
C169 C168 1.378 . S
C169 C170 1.378 . S
C170 H155 0.940 . S
C170 C169 1.378 . S
C170 C171 1.396 . S
C171 H156 0.940 . S
C171 C166 1.391 . S
C171 C170 1.396 . S
C172 P152 1.803 . S
C172 C173 1.378 . S
C172 C177 1.400 . S
C173 H157 0.939 . S
C173 C172 1.378 . S
C173 C174 1.361 . S
C174 H158 0.942 . S
C174 C173 1.361 . S
C174 C175 1.369 . S
C175 C174 1.369 . S
C175 C176 1.404 . S
C176 H159 0.940 . S
C176 C175 1.404 . S
C176 C177 1.389 . S
C177 H160 0.939 . S
C177 C172 1.400 . S
C177 C176 1.389 . S
C178 P152 1.819 . S
C178 C179 1.391 . S
C178 C183 1.391 . S
C179 H161 0.941 . S
C179 C178 1.391 . S
C179 C180 1.396 . S
C180 H164 0.939 . S
C180 C179 1.396 . S
C180 C181 1.397 . S
C181 C180 1.397 . S
C181 C182 1.385 . S
C182 H165 0.940 . S
C182 C181 1.385 . S
C182 C183 1.388 . S
C183 H162 0.939 . S
C183 C178 1.391 . S
C183 C182 1.388 . S
P184 O195 1.490 . S
P184 C198 1.812 . S
P184 C204 1.803 1_455 S
P184 C210 1.819 . S
H185 C199 0.941 . S
H186 C200 0.939 . S
H187 C202 0.940 . S
H188 C203 0.940 . S
H189 C205 0.939 . S
H190 C206 0.942 . S
H191 C208 0.940 . S
H192 C209 0.939 . S
H193 C211 0.941 . S
H194 C215 0.939 . S
O195 P184 1.490 . S
H196 C212 0.939 . S
H197 C214 0.940 . S
C198 P184 1.812 . S
C198 C199 1.389 . S
C198 C203 1.391 . S
C199 H185 0.941 . S
C199 C198 1.389 . S
C199 C200 1.397 . S
C200 H186 0.939 . S
C200 C199 1.397 . S
C200 C201 1.378 . S
C201 C200 1.378 . S
C201 C202 1.378 . S
C202 H187 0.940 . S
C202 C201 1.378 . S
C202 C203 1.396 . S
C203 H188 0.940 . S
C203 C198 1.391 . S
C203 C202 1.396 . S
C204 P184 1.803 1_655 S
C204 C205 1.378 . S
C204 C209 1.400 . S
C205 H189 0.939 . S
C205 C204 1.378 . S
C205 C206 1.361 . S
C206 H190 0.942 . S
C206 C205 1.361 . S
C206 C207 1.369 . S
C207 C206 1.369 . S
C207 C208 1.404 . S
C208 H191 0.940 . S
C208 C207 1.404 . S
C208 C209 1.389 . S
C209 H192 0.939 . S
C209 C204 1.400 . S
C209 C208 1.389 . S
C210 P184 1.819 . S
C210 C211 1.391 . S
C210 C215 1.391 1_455 S
C211 H193 0.941 . S
C211 C210 1.391 . S
C211 C212 1.396 . S
C212 H196 0.939 . S
C212 C211 1.396 . S
C212 C213 1.397 . S
C213 C212 1.397 . S
C213 C214 1.385 1_455 S
C214 H197 0.940 . S
C214 C213 1.385 1_655 S
C214 C215 1.388 . S
C215 H194 0.939 . S
C215 C210 1.391 1_655 S
C215 C214 1.388 . S
P216 O227 1.490 . S
P216 C230 1.812 . S
P216 C236 1.803 . S
P216 C242 1.819 . S
H217 C231 0.941 . S
H218 C232 0.939 . S
H219 C234 0.940 . S
H220 C235 0.940 . S
H221 C237 0.939 . S
H222 C238 0.942 . S
H223 C240 0.940 . S
H224 C241 0.939 . S
H225 C243 0.941 . S
H226 C247 0.939 1_655 S
O227 P216 1.490 . S
H228 C244 0.939 . S
H229 C246 0.940 1_655 S
C230 P216 1.812 . S
C230 C231 1.389 . S
C230 C235 1.391 . S
C231 H217 0.941 . S
C231 C230 1.389 . S
C231 C232 1.397 . S
C232 H218 0.939 . S
C232 C231 1.397 . S
C232 C233 1.378 . S
C233 C232 1.378 . S
C233 C234 1.378 . S
C234 H219 0.940 . S
C234 C233 1.378 . S
C234 C235 1.396 . S
C235 H220 0.940 . S
C235 C230 1.391 . S
C235 C234 1.396 . S
C236 P216 1.803 . S
C236 C237 1.378 . S
C236 C241 1.400 . S
C237 H221 0.939 . S
C237 C236 1.378 . S
C237 C238 1.361 1_455 S
C238 H222 0.942 . S
C238 C237 1.361 1_655 S
C238 C239 1.369 . S
C239 C238 1.369 . S
C239 C240 1.404 . S
C240 H223 0.940 . S
C240 C239 1.404 . S
C240 C241 1.389 1_655 S
C241 H224 0.939 . S
C241 C236 1.400 . S
C241 C240 1.389 1_455 S
C242 P216 1.819 . S
C242 C243 1.391 . S
C242 C247 1.391 . S
C243 H225 0.941 . S
C243 C242 1.391 . S
C243 C244 1.396 . S
C244 H228 0.939 . S
C244 C243 1.396 . S
C244 C245 1.397 . S
C245 C244 1.397 . S
C245 C246 1.385 . S
C246 H229 0.940 1_455 S
C246 C245 1.385 . S
C246 C247 1.388 . S
C247 H226 0.939 1_455 S
C247 C242 1.391 . S
C247 C246 1.388 . S
P248 O259 1.490 . S
P248 C262 1.812 . S
P248 C268 1.803 1_545 S
P248 C274 1.819 . S
H249 C263 0.941 . S
H250 C264 0.939 . S
H251 C266 0.940 . S
H252 C267 0.940 . S
H253 C269 0.939 . S
H254 C270 0.942 . S
H255 C272 0.940 . S
H256 C273 0.939 . S
H257 C275 0.941 . S
H258 C279 0.939 . S
O259 P248 1.490 . S
H260 C276 0.939 . S
H261 C278 0.940 . S
C262 P248 1.812 . S
C262 C263 1.389 . S
C262 C267 1.391 . S
C263 H249 0.941 . S
C263 C262 1.389 . S
C263 C264 1.397 . S
C264 H250 0.939 . S
C264 C263 1.397 . S
C264 C265 1.378 . S
C265 C264 1.378 . S
C265 C266 1.378 . S
C266 H251 0.940 . S
C266 C265 1.378 . S
C266 C267 1.396 . S
C267 H252 0.940 . S
C267 C262 1.391 . S
C267 C266 1.396 . S
C268 P248 1.803 1_565 S
C268 C269 1.378 . S
C268 C273 1.400 . S
C269 H253 0.939 . S
C269 C268 1.378 . S
C269 C270 1.361 . S
C270 H254 0.942 . S
C270 C269 1.361 . S
C270 C271 1.369 . S
C271 C270 1.369 . S
C271 C272 1.404 . S
C272 H255 0.940 . S
C272 C271 1.404 . S
C272 C273 1.389 . S
C273 H256 0.939 . S
C273 C268 1.400 . S
C273 C272 1.389 . S
C274 P248 1.819 . S
C274 C275 1.391 . S
C274 C279 1.391 1_545 S
C275 H257 0.941 . S
C275 C274 1.391 . S
C275 C276 1.396 . S
C276 H260 0.939 . S
C276 C275 1.396 . S
C276 C277 1.397 . S
C277 C276 1.397 . S
C277 C278 1.385 1_545 S
C278 H261 0.940 . S
C278 C277 1.385 1_565 S
C278 C279 1.388 . S
C279 H258 0.939 . S
C279 C274 1.391 1_565 S
C279 C278 1.388 . S
P280 O291 1.490 . S
P280 C294 1.812 . S
P280 C300 1.803 . S
P280 C306 1.819 . S
H281 C295 0.941 . S
H282 C296 0.939 . S
H283 C298 0.940 . S
H284 C299 0.940 . S
H285 C301 0.939 . S
H286 C302 0.942 . S
H287 C304 0.940 . S
H288 C305 0.939 . S
H289 C307 0.941 . S
H290 C311 0.939 . S
O291 P280 1.490 . S
H292 C308 0.939 . S
H293 C310 0.940 . S
C294 P280 1.812 . S
C294 C295 1.389 . S
C294 C299 1.391 . S
C295 H281 0.941 . S
C295 C294 1.389 . S
C295 C296 1.397 . S
C296 H282 0.939 . S
C296 C295 1.397 . S
C296 C297 1.378 . S
C297 C296 1.378 . S
C297 C298 1.378 . S
C298 H283 0.940 . S
C298 C297 1.378 . S
C298 C299 1.396 . S
C299 H284 0.940 . S
C299 C294 1.391 . S
C299 C298 1.396 . S
C300 P280 1.803 . S
C300 C301 1.378 . S
C300 C305 1.400 . S
C301 H285 0.939 . S
C301 C300 1.378 . S
C301 C302 1.361 . S
C302 H286 0.942 . S
C302 C301 1.361 . S
C302 C303 1.369 . S
C303 C302 1.369 . S
C303 C304 1.404 . S
C304 H287 0.940 . S
C304 C303 1.404 . S
C304 C305 1.389 . S
C305 H288 0.939 . S
C305 C300 1.400 . S
C305 C304 1.389 . S
C306 P280 1.819 . S
C306 C307 1.391 . S
C306 C311 1.391 . S
C307 H289 0.941 . S
C307 C306 1.391 . S
C307 C308 1.396 . S
C308 H292 0.939 . S
C308 C307 1.396 . S
C308 C309 1.397 . S
C309 C308 1.397 . S
C309 C310 1.385 . S
C310 H293 0.940 . S
C310 C309 1.385 . S
C310 C311 1.388 . S
C311 H290 0.939 . S
C311 C306 1.391 . S
C311 C310 1.388 . S
H312 C324 0.930 . S
H313 C326 0.930 . S
H314 C327 0.930 . S
H315 C331 0.959 . S
H316 C331 0.959 . S
H317 C331 0.961 . S
H318 C332 0.960 . S
H319 C332 0.961 . S
H320 C332 0.959 . S
H321 C335 0.929 . S
H322 C336 0.931 . S
H323 C338 0.930 . S
C324 H312 0.930 . S
C324 C325 1.399 . S
C324 C329 1.399 . S
C325 C324 1.399 . S
C325 C326 1.376 . S
C326 H313 0.930 . S
C326 C325 1.376 . S
C326 C327 1.388 . S
C327 H314 0.930 . S
C327 C326 1.388 . S
C327 C328 1.390 . S
C328 C327 1.390 . S
C328 C329 1.394 . S
C328 C334 1.465 . S
C329 C324 1.399 . S
C329 C328 1.394 . S
C329 C330 1.516 . S
C330 C329 1.516 . S
C330 C331 1.502 . S
C330 C332 1.561 . S
C330 C333 1.526 . S
C331 H315 0.959 . S
C331 H316 0.959 . S
C331 H317 0.961 . S
C331 C330 1.502 . S
C332 H318 0.960 . S
C332 H319 0.961 . S
C332 H320 0.959 . S
C332 C330 1.561 . S
C333 C330 1.526 . S
C333 C334 1.396 . S
C333 C338 1.390 . S
C334 C328 1.465 . S
C334 C333 1.396 . S
C334 C335 1.399 . S
C335 H321 0.929 . S
C335 C334 1.399 . S
C335 C336 1.385 . S
C336 H322 0.931 . S
C336 C335 1.385 . S
C336 C337 1.389 . S
C337 C336 1.389 . S
C337 C338 1.387 . S
C338 H323 0.930 . S
C338 C333 1.390 . S
C338 C337 1.387 . S
H339 C351 0.930 . S
H340 C353 0.930 . S
H341 C354 0.930 . S
H342 C358 0.959 . S
H343 C358 0.959 . S
H344 C358 0.961 . S
H345 C359 0.960 . S
H346 C359 0.961 . S
H347 C359 0.959 . S
H348 C362 0.929 . S
H349 C363 0.931 . S
H350 C365 0.930 . S
C351 H339 0.930 . S
C351 C352 1.399 . S
C351 C356 1.399 . S
C352 C351 1.399 . S
C352 C353 1.376 . S
C353 H340 0.930 . S
C353 C352 1.376 . S
C353 C354 1.388 . S
C354 H341 0.930 . S
C354 C353 1.388 . S
C354 C355 1.390 . S
C355 C354 1.390 . S
C355 C356 1.394 . S
C355 C361 1.465 . S
C356 C351 1.399 . S
C356 C355 1.394 . S
C356 C357 1.516 . S
C357 C356 1.516 . S
C357 C358 1.502 . S
C357 C359 1.561 . S
C357 C360 1.526 . S
C358 H342 0.959 . S
C358 H343 0.959 . S
C358 H344 0.961 . S
C358 C357 1.502 . S
C359 H345 0.960 . S
C359 H346 0.961 . S
C359 H347 0.959 . S
C359 C357 1.561 . S
C360 C357 1.526 . S
C360 C361 1.396 . S
C360 C365 1.390 . S
C361 C355 1.465 . S
C361 C360 1.396 . S
C361 C362 1.399 . S
C362 H348 0.929 . S
C362 C361 1.399 . S
C362 C363 1.385 . S
C363 H349 0.931 . S
C363 C362 1.385 . S
C363 C364 1.389 . S
C364 C363 1.389 . S
C364 C365 1.387 . S
C365 H350 0.930 . S
C365 C360 1.390 . S
C365 C364 1.387 . S
H366 C378 0.930 . S
H367 C380 0.930 . S
H368 C381 0.930 . S
H369 C385 0.959 . S
H370 C385 0.959 . S
H371 C385 0.961 . S
H372 C386 0.960 . S
H373 C386 0.961 . S
H374 C386 0.959 . S
H375 C389 0.929 . S
H376 C390 0.931 . S
H377 C392 0.930 . S
C378 H366 0.930 . S
C378 C379 1.399 . S
C378 C383 1.399 . S
C379 C378 1.399 . S
C379 C380 1.376 . S
C380 H367 0.930 . S
C380 C379 1.376 . S
C380 C381 1.388 . S
C381 H368 0.930 . S
C381 C380 1.388 . S
C381 C382 1.390 . S
C382 C381 1.390 . S
C382 C383 1.394 . S
C382 C388 1.465 . S
C383 C378 1.399 . S
C383 C382 1.394 . S
C383 C384 1.516 . S
C384 C383 1.516 . S
C384 C385 1.502 . S
C384 C386 1.561 . S
C384 C387 1.526 . S
C385 H369 0.959 . S
C385 H370 0.959 . S
C385 H371 0.961 . S
C385 C384 1.502 . S
C386 H372 0.960 . S
C386 H373 0.961 . S
C386 H374 0.959 . S
C386 C384 1.561 . S
C387 C384 1.526 . S
C387 C388 1.396 . S
C387 C392 1.390 . S
C388 C382 1.465 . S
C388 C387 1.396 . S
C388 C389 1.399 . S
C389 H375 0.929 . S
C389 C388 1.399 . S
C389 C390 1.385 . S
C390 H376 0.931 . S
C390 C389 1.385 . S
C390 C391 1.389 . S
C391 C390 1.389 . S
C391 C392 1.387 . S
C392 H377 0.930 . S
C392 C387 1.390 . S
C392 C391 1.387 . S
H393 C405 0.930 . S
H394 C407 0.930 . S
H395 C408 0.930 . S
H396 C412 0.959 . S
H397 C412 0.959 . S
H398 C412 0.961 . S
H399 C413 0.960 . S
H400 C413 0.961 . S
H401 C413 0.959 . S
H402 C416 0.929 . S
H403 C417 0.931 . S
H404 C419 0.930 . S
C405 H393 0.930 . S
C405 C406 1.399 . S
C405 C410 1.399 . S
C406 C405 1.399 . S
C406 C407 1.376 . S
C407 H394 0.930 . S
C407 C406 1.376 . S
C407 C408 1.388 . S
C408 H395 0.930 . S
C408 C407 1.388 . S
C408 C409 1.390 . S
C409 C408 1.390 . S
C409 C410 1.394 . S
C409 C415 1.465 . S
C410 C405 1.399 . S
C410 C409 1.394 . S
C410 C411 1.516 . S
C411 C410 1.516 . S
C411 C412 1.502 . S
C411 C413 1.561 . S
C411 C414 1.526 . S
C412 H396 0.959 . S
C412 H397 0.959 . S
C412 H398 0.961 . S
C412 C411 1.502 . S
C413 H399 0.960 . S
C413 H400 0.961 . S
C413 H401 0.959 . S
C413 C411 1.561 . S
C414 C411 1.526 . S
C414 C415 1.396 . S
C414 C419 1.390 . S
C415 C409 1.465 . S
C415 C414 1.396 . S
C415 C416 1.399 . S
C416 H402 0.929 . S
C416 C415 1.399 . S
C416 C417 1.385 . S
C417 H403 0.931 . S
C417 C416 1.385 . S
C417 C418 1.389 . S
C418 C417 1.389 . S
C418 C419 1.387 . S
C419 H404 0.930 . S
C419 C414 1.390 . S
C419 C418 1.387 . S
H420 C432 0.930 . S
H421 C434 0.930 . S
H422 C435 0.930 . S
H423 C439 0.959 . S
H424 C439 0.959 . S
H425 C439 0.961 . S
H426 C440 0.960 . S
H427 C440 0.961 . S
H428 C440 0.959 . S
H429 C443 0.929 . S
H430 C444 0.931 . S
H431 C446 0.930 . S
C432 H420 0.930 . S
C432 C433 1.399 . S
C432 C437 1.399 . S
C433 C432 1.399 . S
C433 C434 1.376 . S
C434 H421 0.930 . S
C434 C433 1.376 . S
C434 C435 1.388 . S
C435 H422 0.930 . S
C435 C434 1.388 . S
C435 C436 1.390 . S
C436 C435 1.390 . S
C436 C437 1.394 . S
C436 C442 1.465 . S
C437 C432 1.399 . S
C437 C436 1.394 . S
C437 C438 1.516 . S
C438 C437 1.516 . S
C438 C439 1.502 . S
C438 C440 1.561 . S
C438 C441 1.526 . S
C439 H423 0.959 . S
C439 H424 0.959 . S
C439 H425 0.961 . S
C439 C438 1.502 . S
C440 H426 0.960 . S
C440 H427 0.961 . S
C440 H428 0.959 . S
C440 C438 1.561 . S
C441 C438 1.526 . S
C441 C442 1.396 . S
C441 C446 1.390 . S
C442 C436 1.465 . S
C442 C441 1.396 . S
C442 C443 1.399 . S
C443 H429 0.929 . S
C443 C442 1.399 . S
C443 C444 1.385 . S
C444 H430 0.931 . S
C444 C443 1.385 . S
C444 C445 1.389 . S
C445 C444 1.389 . S
C445 C446 1.387 . S
C446 H431 0.930 . S
C446 C441 1.390 . S
C446 C445 1.387 . S
H447 C459 0.930 . S
H448 C461 0.930 . S
H449 C462 0.930 . S
H450 C466 0.959 . S
H451 C466 0.959 . S
H452 C466 0.961 . S
H453 C467 0.960 . S
H454 C467 0.961 . S
H455 C467 0.959 . S
H456 C470 0.929 . S
H457 C471 0.931 . S
H458 C473 0.930 . S
C459 H447 0.930 . S
C459 C460 1.399 . S
C459 C464 1.399 . S
C460 C459 1.399 . S
C460 C461 1.376 . S
C461 H448 0.930 . S
C461 C460 1.376 . S
C461 C462 1.388 . S
C462 H449 0.930 . S
C462 C461 1.388 . S
C462 C463 1.390 . S
C463 C462 1.390 . S
C463 C464 1.394 . S
C463 C469 1.465 . S
C464 C459 1.399 . S
C464 C463 1.394 . S
C464 C465 1.516 . S
C465 C464 1.516 . S
C465 C466 1.502 . S
C465 C467 1.561 . S
C465 C468 1.526 . S
C466 H450 0.959 . S
C466 H451 0.959 . S
C466 H452 0.961 . S
C466 C465 1.502 . S
C467 H453 0.960 . S
C467 H454 0.961 . S
C467 H455 0.959 . S
C467 C465 1.561 . S
C468 C465 1.526 . S
C468 C469 1.396 . S
C468 C473 1.390 . S
C469 C463 1.465 . S
C469 C468 1.396 . S
C469 C470 1.399 . S
C470 H456 0.929 . S
C470 C469 1.399 . S
C470 C471 1.385 . S
C471 H457 0.931 . S
C471 C470 1.385 . S
C471 C472 1.389 . S
C472 C471 1.389 . S
C472 C473 1.387 . S
C473 H458 0.930 . S
C473 C468 1.390 . S
C473 C472 1.387 . S
H474 C486 0.930 . S
H475 C488 0.930 . S
H476 C489 0.930 . S
H477 C493 0.959 . S
H478 C493 0.959 . S
H479 C493 0.961 . S
H480 C494 0.960 . S
H481 C494 0.961 . S
H482 C494 0.959 . S
H483 C497 0.929 . S
H484 C498 0.931 . S
H485 C500 0.930 . S
C486 H474 0.930 . S
C486 C487 1.399 . S
C486 C491 1.399 . S
C487 C486 1.399 . S
C487 C488 1.376 . S
C488 H475 0.930 . S
C488 C487 1.376 . S
C488 C489 1.388 . S
C489 H476 0.930 . S
C489 C488 1.388 . S
C489 C490 1.390 . S
C490 C489 1.390 . S
C490 C491 1.394 . S
C490 C496 1.465 . S
C491 C486 1.399 . S
C491 C490 1.394 . S
C491 C492 1.516 . S
C492 C491 1.516 . S
C492 C493 1.502 . S
C492 C494 1.561 . S
C492 C495 1.526 . S
C493 H477 0.959 . S
C493 H478 0.959 . S
C493 H479 0.961 . S
C493 C492 1.502 . S
C494 H480 0.960 . S
C494 H481 0.961 . S
C494 H482 0.959 . S
C494 C492 1.561 . S
C495 C492 1.526 . S
C495 C496 1.396 . S
C495 C500 1.390 . S
C496 C490 1.465 . S
C496 C495 1.396 . S
C496 C497 1.399 . S
C497 H483 0.929 . S
C497 C496 1.399 . S
C497 C498 1.385 . S
C498 H484 0.931 . S
C498 C497 1.385 . S
C498 C499 1.389 . S
C499 C498 1.389 . S
C499 C500 1.387 . S
C500 H485 0.930 . S
C500 C495 1.390 . S
C500 C499 1.387 . S
H501 C513 0.930 . S
H502 C515 0.930 . S
H503 C516 0.930 . S
H504 C520 0.959 . S
H505 C520 0.959 . S
H506 C520 0.961 . S
H507 C521 0.960 . S
H508 C521 0.961 . S
H509 C521 0.959 . S
H510 C524 0.929 . S
H511 C525 0.931 . S
H512 C527 0.930 . S
C513 H501 0.930 . S
C513 C514 1.399 . S
C513 C518 1.399 . S
C514 C513 1.399 . S
C514 C515 1.376 . S
C515 H502 0.930 . S
C515 C514 1.376 . S
C515 C516 1.388 . S
C516 H503 0.930 . S
C516 C515 1.388 . S
C516 C517 1.390 . S
C517 C516 1.390 . S
C517 C518 1.394 . S
C517 C523 1.465 . S
C518 C513 1.399 . S
C518 C517 1.394 . S
C518 C519 1.516 . S
C519 C518 1.516 . S
C519 C520 1.502 . S
C519 C521 1.561 . S
C519 C522 1.526 . S
C520 H504 0.959 . S
C520 H505 0.959 . S
C520 H506 0.961 . S
C520 C519 1.502 . S
C521 H507 0.960 . S
C521 H508 0.961 . S
C521 H509 0.959 . S
C521 C519 1.561 . S
C522 C519 1.526 . S
C522 C523 1.396 . S
C522 C527 1.390 . S
C523 C517 1.465 . S
C523 C522 1.396 . S
C523 C524 1.399 . S
C524 H510 0.929 . S
C524 C523 1.399 . S
C524 C525 1.385 . S
C525 H511 0.931 . S
C525 C524 1.385 . S
C525 C526 1.389 . S
C526 C525 1.389 . S
C526 C527 1.387 . S
C527 H512 0.930 . S
C527 C522 1.390 . S
C527 C526 1.387 . S
H528 C540 0.930 . S
H529 C542 0.930 . S
H530 C543 0.930 . S
H531 C547 0.959 . S
H532 C547 0.959 . S
H533 C547 0.961 . S
H534 C548 0.960 . S
H535 C548 0.961 . S
H536 C548 0.959 . S
H537 C551 0.929 . S
H538 C552 0.931 . S
H539 C554 0.930 . S
C540 H528 0.930 . S
C540 C541 1.399 . S
C540 C545 1.399 . S
C541 C540 1.399 . S
C541 C542 1.376 . S
C542 H529 0.930 . S
C542 C541 1.376 . S
C542 C543 1.388 . S
C543 H530 0.930 . S
C543 C542 1.388 . S
C543 C544 1.390 . S
C544 C543 1.390 . S
C544 C545 1.394 . S
C544 C550 1.465 . S
C545 C540 1.399 . S
C545 C544 1.394 . S
C545 C546 1.516 . S
C546 C545 1.516 . S
C546 C547 1.502 . S
C546 C548 1.561 . S
C546 C549 1.526 . S
C547 H531 0.959 . S
C547 H532 0.959 . S
C547 H533 0.961 . S
C547 C546 1.502 . S
C548 H534 0.960 . S
C548 H535 0.961 . S
C548 H536 0.959 . S
C548 C546 1.561 . S
C549 C546 1.526 . S
C549 C550 1.396 . S
C549 C554 1.390 . S
C550 C544 1.465 . S
C550 C549 1.396 . S
C550 C551 1.399 . S
C551 H537 0.929 . S
C551 C550 1.399 . S
C551 C552 1.385 . S
C552 H538 0.931 . S
C552 C551 1.385 . S
C552 C553 1.389 . S
C553 C552 1.389 . S
C553 C554 1.387 . S
C554 H539 0.930 . S
C554 C549 1.390 . S
C554 C553 1.387 . S
H555 C567 0.930 . S
H556 C569 0.930 . S
H557 C570 0.930 . S
H558 C574 0.959 . S
H559 C574 0.959 . S
H560 C574 0.961 . S
H561 C575 0.960 . S
H562 C575 0.961 . S
H563 C575 0.959 . S
H564 C578 0.929 . S
H565 C579 0.931 . S
H566 C581 0.930 . S
C567 H555 0.930 . S
C567 C568 1.399 . S
C567 C572 1.399 . S
C568 C567 1.399 . S
C568 C569 1.376 . S
C569 H556 0.930 . S
C569 C568 1.376 . S
C569 C570 1.388 . S
C570 H557 0.930 . S
C570 C569 1.388 . S
C570 C571 1.390 . S
C571 C570 1.390 . S
C571 C572 1.394 . S
C571 C577 1.465 . S
C572 C567 1.399 . S
C572 C571 1.394 . S
C572 C573 1.516 . S
C573 C572 1.516 . S
C573 C574 1.502 . S
C573 C575 1.561 . S
C573 C576 1.526 . S
C574 H558 0.959 . S
C574 H559 0.959 . S
C574 H560 0.961 . S
C574 C573 1.502 . S
C575 H561 0.960 . S
C575 H562 0.961 . S
C575 H563 0.959 . S
C575 C573 1.561 . S
C576 C573 1.526 . S
C576 C577 1.396 . S
C576 C581 1.390 . S
C577 C571 1.465 . S
C577 C576 1.396 . S
C577 C578 1.399 . S
C578 H564 0.929 . S
C578 C577 1.399 . S
C578 C579 1.385 . S
C579 H565 0.931 . S
C579 C578 1.385 . S
C579 C580 1.389 . S
C580 C579 1.389 . S
C580 C581 1.387 . S
C581 H566 0.930 . S
C581 C576 1.390 . S
C581 C580 1.387 . S
H582 C594 0.930 . S
H583 C596 0.930 . S
H584 C597 0.930 . S
H585 C601 0.959 . S
H586 C601 0.959 . S
H587 C601 0.961 . S
H588 C602 0.960 . S
H589 C602 0.961 . S
H590 C602 0.959 . S
H591 C605 0.929 . S
H592 C606 0.931 . S
H593 C608 0.930 . S
C594 H582 0.930 . S
C594 C595 1.399 . S
C594 C599 1.399 . S
C595 C594 1.399 . S
C595 C596 1.376 . S
C596 H583 0.930 . S
C596 C595 1.376 . S
C596 C597 1.388 . S
C597 H584 0.930 . S
C597 C596 1.388 . S
C597 C598 1.390 . S
C598 C597 1.390 . S
C598 C599 1.394 . S
C598 C604 1.465 . S
C599 C594 1.399 . S
C599 C598 1.394 . S
C599 C600 1.516 . S
C600 C599 1.516 . S
C600 C601 1.502 . S
C600 C602 1.561 . S
C600 C603 1.526 . S
C601 H585 0.959 . S
C601 H586 0.959 . S
C601 H587 0.961 . S
C601 C600 1.502 . S
C602 H588 0.960 . S
C602 H589 0.961 . S
C602 H590 0.959 . S
C602 C600 1.561 . S
C603 C600 1.526 . S
C603 C604 1.396 . S
C603 C608 1.390 . S
C604 C598 1.465 . S
C604 C603 1.396 . S
C604 C605 1.399 . S
C605 H591 0.929 . S
C605 C604 1.399 . S
C605 C606 1.385 . S
C606 H592 0.931 . S
C606 C605 1.385 . S
C606 C607 1.389 . S
C607 C606 1.389 . S
C607 C608 1.387 . S
C608 H593 0.930 . S
C608 C603 1.390 . S
C608 C607 1.387 . S
H609 C621 0.930 . S
H610 C623 0.930 . S
H611 C624 0.930 . S
H612 C628 0.959 . S
H613 C628 0.959 . S
H614 C628 0.961 . S
H615 C629 0.960 . S
H616 C629 0.961 . S
H617 C629 0.959 . S
H618 C632 0.929 . S
H619 C633 0.931 . S
H620 C635 0.930 . S
C621 H609 0.930 . S
C621 C622 1.399 . S
C621 C626 1.399 . S
C622 C621 1.399 . S
C622 C623 1.376 . S
C623 H610 0.930 . S
C623 C622 1.376 . S
C623 C624 1.388 . S
C624 H611 0.930 . S
C624 C623 1.388 . S
C624 C625 1.390 . S
C625 C624 1.390 . S
C625 C626 1.394 . S
C625 C631 1.465 . S
C626 C621 1.399 . S
C626 C625 1.394 . S
C626 C627 1.516 . S
C627 C626 1.516 . S
C627 C628 1.502 . S
C627 C629 1.561 . S
C627 C630 1.526 . S
C628 H612 0.959 . S
C628 H613 0.959 . S
C628 H614 0.961 . S
C628 C627 1.502 . S
C629 H615 0.960 . S
C629 H616 0.961 . S
C629 H617 0.959 . S
C629 C627 1.561 . S
C630 C627 1.526 . S
C630 C631 1.396 . S
C630 C635 1.390 . S
C631 C625 1.465 . S
C631 C630 1.396 . S
C631 C632 1.399 . S
C632 H618 0.929 . S
C632 C631 1.399 . S
C632 C633 1.385 . S
C633 H619 0.931 . S
C633 C632 1.385 . S
C633 C634 1.389 . S
C634 C633 1.389 . S
C634 C635 1.387 . S
C635 H620 0.930 . S
C635 C630 1.390 . S
C635 C634 1.387 . S
H636 C648 0.930 . S
H637 C650 0.930 . S
H638 C651 0.930 . S
H639 C655 0.959 . S
H640 C655 0.959 . S
H641 C655 0.961 . S
H642 C656 0.960 . S
H643 C656 0.961 . S
H644 C656 0.959 1_655 S
H645 C659 0.929 . S
H646 C660 0.948 . S
H647 C662 0.930 . S
C648 H636 0.930 . S
C648 C649 1.399 . S
C648 C653 1.399 . S
C649 C648 1.399 . S
C649 C650 1.376 1_455 S
C650 H637 0.930 . S
C650 C649 1.376 1_655 S
C650 C651 1.388 . S
C651 H638 0.930 . S
C651 C650 1.388 . S
C651 C652 1.390 1_655 S
C652 C651 1.390 1_455 S
C652 C653 1.394 . S
C652 C658 1.464 . S
C653 C648 1.399 . S
C653 C652 1.394 . S
C653 C654 1.516 . S
C654 C653 1.516 . S
C654 C655 1.502 . S
C654 C656 1.561 . S
C654 C657 1.526 . S
C655 H639 0.959 . S
C655 H640 0.959 . S
C655 H641 0.961 . S
C655 C654 1.502 . S
C656 H642 0.960 . S
C656 H643 0.961 . S
C656 H644 0.959 1_455 S
C656 C654 1.561 . S
C657 C654 1.526 . S
C657 C658 1.418 . S
C657 C662 1.390 . S
C658 C652 1.464 . S
C658 C657 1.418 . S
C658 C659 1.383 1_455 S
C659 H645 0.929 . S
C659 C658 1.383 1_655 S
C659 C660 1.363 1_554 S
C660 H646 0.948 . S
C660 C659 1.363 1_556 S
C660 C661 1.395 1_655 S
C661 C660 1.395 1_455 S
C661 C662 1.387 1_556 S
C662 H647 0.930 . S
C662 C657 1.390 . S
C662 C661 1.387 1_554 S
H663 C675 0.930 . S
H664 C677 0.930 . S
H665 C678 0.930 . S
H666 C682 0.959 . S
H667 C682 0.959 . S
H668 C682 0.961 . S
H669 C683 0.960 . S
H670 C683 0.961 . S
H671 C683 0.959 . S
H672 C686 0.929 . S
H673 C687 0.931 1_565 S
H674 C689 0.930 . S
C675 H663 0.930 . S
C675 C676 1.399 . S
C675 C680 1.399 . S
C676 C675 1.399 . S
C676 C677 1.376 1_545 S
C677 H664 0.930 . S
C677 C676 1.376 1_565 S
C677 C678 1.388 . S
C678 H665 0.930 . S
C678 C677 1.388 . S
C678 C679 1.390 1_565 S
C679 C678 1.390 1_545 S
C679 C680 1.394 . S
C679 C685 1.465 . S
C680 C675 1.399 . S
C680 C679 1.394 . S
C680 C681 1.516 . S
C681 C680 1.516 . S
C681 C682 1.502 . S
C681 C683 1.561 . S
C681 C684 1.526 . S
C682 H666 0.959 . S
C682 H667 0.959 . S
C682 H668 0.961 . S
C682 C681 1.502 . S
C683 H669 0.960 . S
C683 H670 0.961 . S
C683 H671 0.959 . S
C683 C681 1.561 . S
C684 C681 1.526 . S
C684 C685 1.396 . S
C684 C689 1.390 . S
C685 C679 1.465 . S
C685 C684 1.396 . S
C685 C686 1.399 1_545 S
C686 H672 0.929 . S
C686 C685 1.399 1_565 S
C686 C687 1.385 1_565 S
C687 H673 0.931 1_545 S
C687 C686 1.385 1_545 S
C687 C688 1.389 . S
C688 C687 1.389 . S
C688 C689 1.387 . S
C689 H674 0.930 . S
C689 C684 1.390 . S
C689 C688 1.387 . S
H690 C702 0.930 . S
H691 C704 0.930 . S
H692 C705 0.930 . S
H693 C709 0.959 . S
H694 C709 0.959 . S
H695 C709 0.961 . S
H696 C710 0.960 . S
H697 C710 0.961 . S
H698 C710 0.959 . S
H699 C713 0.929 . S
H700 C714 0.931 . S
H701 C716 0.930 . S
C702 H690 0.930 . S
C702 C703 1.399 . S
C702 C707 1.399 . S
C703 C702 1.399 . S
C703 C704 1.376 . S
C704 H691 0.930 . S
C704 C703 1.376 . S
C704 C705 1.388 . S
C705 H692 0.930 . S
C705 C704 1.388 . S
C705 C706 1.390 . S
C706 C705 1.390 . S
C706 C707 1.394 . S
C706 C712 1.465 . S
C707 C702 1.399 . S
C707 C706 1.394 . S
C707 C708 1.516 . S
C708 C707 1.516 . S
C708 C709 1.502 . S
C708 C710 1.561 . S
C708 C711 1.526 . S
C709 H693 0.959 . S
C709 H694 0.959 . S
C709 H695 0.961 . S
C709 C708 1.502 . S
C710 H696 0.960 . S
C710 H697 0.961 . S
C710 H698 0.959 . S
C710 C708 1.561 . S
C711 C708 1.526 . S
C711 C712 1.396 . S
C711 C716 1.390 . S
C712 C706 1.465 . S
C712 C711 1.396 . S
C712 C713 1.399 . S
C713 H699 0.929 . S
C713 C712 1.399 . S
C713 C714 1.385 . S
C714 H700 0.931 . S
C714 C713 1.385 . S
C714 C715 1.389 . S
C715 C714 1.389 . S
C715 C716 1.387 . S
C716 H701 0.930 . S
C716 C711 1.390 . S
C716 C715 1.387 . S
H717 C729 0.930 . S
H718 C731 0.930 . S
H719 C732 0.930 . S
H720 C736 0.959 . S
H721 C736 0.959 . S
H722 C736 0.961 . S
H723 C737 0.960 . S
H724 C737 0.961 . S
H725 C737 0.959 . S
H726 C740 0.929 . S
H727 C741 0.931 . S
H728 C743 0.930 . S
C729 H717 0.930 . S
C729 C730 1.399 1_565 S
C729 C734 1.400 . S
C730 C729 1.399 1_545 S
C730 C731 1.376 . S
C731 H718 0.930 . S
C731 C730 1.376 . S
C731 C732 1.388 . S
C732 H719 0.930 . S
C732 C731 1.388 . S
C732 C733 1.390 . S
C733 C732 1.390 . S
C733 C734 1.389 1_545 S
C733 C739 1.465 . S
C734 C729 1.400 . S
C734 C733 1.389 1_565 S
C734 C735 1.520 . S
C735 C734 1.520 . S
C735 C736 1.502 . S
C735 C737 1.561 . S
C735 C738 1.526 . S
C736 H720 0.959 . S
C736 H721 0.959 . S
C736 H722 0.961 . S
C736 C735 1.502 . S
C737 H723 0.960 . S
C737 H724 0.961 . S
C737 H725 0.959 . S
C737 C735 1.561 . S
C738 C735 1.526 . S
C738 C739 1.396 1_565 S
C738 C743 1.390 . S
C739 C733 1.465 . S
C739 C738 1.396 1_545 S
C739 C740 1.399 . S
C740 H726 0.929 . S
C740 C739 1.399 . S
C740 C741 1.385 . S
C741 H727 0.931 . S
C741 C740 1.385 . S
C741 C742 1.389 . S
C742 C741 1.389 . S
C742 C743 1.387 1_545 S
C743 H728 0.930 . S
C743 C738 1.390 . S
C743 C742 1.387 1_565 S
H744 C756 0.930 . S
H745 C758 0.930 . S
H746 C759 0.930 . S
H747 C763 0.959 . S
H748 C763 0.959 . S
H749 C763 0.961 . S
H750 C764 0.960 . S
H751 C764 0.961 . S
H752 C764 0.959 . S
H753 C767 0.929 . S
H754 C768 0.931 . S
H755 C770 0.938 . S
C756 H744 0.930 . S
C756 C757 1.399 . S
C756 C761 1.399 . S
C757 C756 1.399 . S
C757 C758 1.376 . S
C758 H745 0.930 . S
C758 C757 1.376 . S
C758 C759 1.388 . S
C759 H746 0.930 . S
C759 C758 1.388 . S
C759 C760 1.390 . S
C760 C759 1.390 . S
C760 C761 1.394 . S
C760 C766 1.465 . S
C761 C756 1.399 . S
C761 C760 1.394 . S
C761 C762 1.516 . S
C762 C761 1.516 . S
C762 C763 1.502 . S
C762 C764 1.561 . S
C762 C765 1.526 . S
C763 H747 0.959 . S
C763 H748 0.959 . S
C763 H749 0.961 . S
C763 C762 1.502 . S
C764 H750 0.960 . S
C764 H751 0.961 . S
C764 H752 0.959 . S
C764 C762 1.561 . S
C765 C762 1.526 . S
C765 C766 1.396 . S
C765 C770 1.370 1_556 S
C766 C760 1.465 . S
C766 C765 1.396 . S
C766 C767 1.399 . S
C767 H753 0.929 . S
C767 C766 1.399 . S
C767 C768 1.385 1_556 S
C768 H754 0.931 . S
C768 C767 1.385 1_554 S
C768 C769 1.389 . S
C769 C768 1.389 . S
C769 C770 1.398 . S
C770 H755 0.938 . S
C770 C765 1.370 1_554 S
C770 C769 1.398 . S
H771 C783 0.930 . S
H772 C785 0.930 . S
H773 C786 0.930 . S
H774 C790 0.959 . S
H775 C790 0.959 . S
H776 C790 0.961 . S
H777 C791 0.960 . S
H778 C791 0.961 . S
H779 C791 0.959 . S
H780 C794 0.929 . S
H781 C795 0.931 1_655 S
H782 C797 0.930 . S
C783 H771 0.930 . S
C783 C784 1.399 . S
C783 C788 1.399 . S
C784 C783 1.399 . S
C784 C785 1.376 1_455 S
C785 H772 0.930 . S
C785 C784 1.376 1_655 S
C785 C786 1.388 . S
C786 H773 0.930 . S
C786 C785 1.388 . S
C786 C787 1.390 1_655 S
C787 C786 1.390 1_455 S
C787 C788 1.394 . S
C787 C793 1.465 . S
C788 C783 1.399 . S
C788 C787 1.394 . S
C788 C789 1.516 . S
C789 C788 1.516 . S
C789 C790 1.502 . S
C789 C791 1.561 . S
C789 C792 1.526 . S
C790 H774 0.959 . S
C790 H775 0.959 . S
C790 H776 0.961 . S
C790 C789 1.502 . S
C791 H777 0.960 . S
C791 H778 0.961 . S
C791 H779 0.959 . S
C791 C789 1.561 . S
C792 C789 1.526 . S
C792 C793 1.396 . S
C792 C797 1.390 . S
C793 C787 1.465 . S
C793 C792 1.396 . S
C793 C794 1.399 1_455 S
C794 H780 0.929 . S
C794 C793 1.399 1_655 S
C794 C795 1.385 1_655 S
C795 H781 0.931 1_455 S
C795 C794 1.385 1_455 S
C795 C796 1.389 . S
C796 C795 1.389 . S
C796 C797 1.387 . S
C797 H782 0.930 . S
C797 C792 1.390 . S
C797 C796 1.387 . S
C325 C10 2.946 . S
C337 C303 2.909 . S
C352 C59 3.061 . S
C364 C239 2.980 . S
C379 C90 2.967 . S
C391 C271 2.925 . S
C406 C19 3.075 . S
C418 C297 2.997 . S
C445 C233 2.923 . S
C433 C50 2.970 . S
C472 C265 2.979 . S
C460 C99 3.043 . S
C487 C46 0.572 . S
C499 C175 0.467 . S
C514 C95 0.389 . S
C526 C207 0.502 . S
C541 C6 0.495 . S
C553 C137 0.554 . S
C580 C169 0.301 . S
C568 C55 0.506 . S
C607 C201 0.603 . S
C595 C86 0.389 . S
C622 C15 0.551 . S
C634 C143 0.437 . S
C661 C213 1.015 . S
C649 C9 1.049 . S
C676 C49 1.005 . S
C688 C149 1.004 . S
C703 C89 1.063 . S
C715 C181 1.078 . S
C742 C277 1.725 . S
C730 C58 1.721 . S
C769 C309 1.773 . S
C757 C98 1.664 . S
C784 C18 1.684 . S
C796 C245 1.747 . S
