# Generated by pormake.
# Topology anh, (6,3)-cn, num edge types: 1
# Building blocks:
#     Node 0, Type 0, BuildingBlock: MIFKUJ_clean_sbu_0, # of connection points: 6
#     Node 1, Type 0, BuildingBlock: MIFKUJ_clean_sbu_0, # of connection points: 6
#     Node 2, Type 0, BuildingBlock: MIFKUJ_clean_sbu_0, # of connection points: 6
#     Node 3, Type 1, BuildingBlock: MIDCAF_clean_linker_0, # of connection points: 3
#     Node 4, Type 1, BuildingBlock: MIDCAF_clean_linker_0, # of connection points: 3
#     Node 5, Type 1, BuildingBlock: MIDCAF_clean_linker_0, # of connection points: 3
#     Node 6, Type 1, BuildingBlock: MIDCAF_clean_linker_0, # of connection points: 3
#     Node 7, Type 1, BuildingBlock: MIDCAF_clean_linker_0, # of connection points: 3
#     Node 8, Type 1, BuildingBlock: MIDCAF_clean_linker_0, # of connection points: 3
#     Edge 9, Type (0, 1), BuildingBlock: TEMPAE_clean_linker_10, # of connection points: 2
#     Edge 10, Type (0, 1), BuildingBlock: TEMPAE_clean_linker_10, # of connection points: 2
#     Edge 11, Type (0, 1), BuildingBlock: TEMPAE_clean_linker_10, # of connection points: 2
#     Edge 12, Type (0, 1), BuildingBlock: TEMPAE_clean_linker_10, # of connection points: 2
#     Edge 13, Type (0, 1), BuildingBlock: TEMPAE_clean_linker_10, # of connection points: 2
#     Edge 14, Type (0, 1), BuildingBlock: TEMPAE_clean_linker_10, # of connection points: 2
#     Edge 15, Type (0, 1), BuildingBlock: TEMPAE_clean_linker_10, # of connection points: 2
#     Edge 16, Type (0, 1), BuildingBlock: TEMPAE_clean_linker_10, # of connection points: 2
#     Edge 17, Type (0, 1), BuildingBlock: TEMPAE_clean_linker_10, # of connection points: 2
#     Edge 18, Type (0, 1), BuildingBlock: TEMPAE_clean_linker_10, # of connection points: 2
#     Edge 19, Type (0, 1), BuildingBlock: TEMPAE_clean_linker_10, # of connection points: 2
#     Edge 20, Type (0, 1), BuildingBlock: TEMPAE_clean_linker_10, # of connection points: 2
#     Edge 21, Type (0, 1), BuildingBlock: TEMPAE_clean_linker_10, # of connection points: 2
#     Edge 22, Type (0, 1), BuildingBlock: TEMPAE_clean_linker_10, # of connection points: 2
#     Edge 23, Type (0, 1), BuildingBlock: TEMPAE_clean_linker_10, # of connection points: 2
#     Edge 24, Type (0, 1), BuildingBlock: TEMPAE_clean_linker_10, # of connection points: 2
#     Edge 25, Type (0, 1), BuildingBlock: TEMPAE_clean_linker_10, # of connection points: 2
#     Edge 26, Type (0, 1), BuildingBlock: TEMPAE_clean_linker_10, # of connection points: 2
# Relax obj value: 0.135
# Max RMSD: 0.184
# Mean RMSD: 0.145
data_MOF--net-anh--node1-MIFKUJ_clean_sbu_0--node2-MIDCAF_clean_linker_0--edge1-TEMPAE_clean_linker_10
_symmetry_space_group_name_H-M    P1
_symmetry_Int_Tables_number       1
_symmetry_cell_setting            triclinic
loop_
_symmetry_equiv_pos_as_xyz
'x, y, z'
_cell_length_a     37.31315
_cell_length_b     37.253025
_cell_length_c     64.259797
_cell_angle_alpha  93.769626
_cell_angle_beta   90.743773
_cell_angle_gamma 120.07144
loop_
_atom_site_label
_atom_site_type_symbol
_atom_site_fract_x
_atom_site_fract_y
_atom_site_fract_z
_atom_type_partial_charge
Zn0 Zn 0.03995 0.59022 0.17326 0.0
Zn1 Zn 0.92889 0.5039 0.17205 0.0
C2 C 0.08951 0.55365 0.17604 0.0
O3 O 0.09551 0.57271 0.19478 0.0
C4 C 0.85791 0.50489 0.15552 0.0
O5 O 0.86167 0.4815 0.14049 0.0
O6 O 0.08906 0.64727 0.17174 0.0
O7 O 0.99444 0.585 0.15427 0.0
O8 O 0.95957 0.51808 0.14551 0.0
C9 C 0.10664 0.65361 0.15445 0.0
O10 O 0.08983 0.62447 0.13894 0.0
O11 O 0.06288 0.55332 0.16332 0.0
C12 C 0.87509 0.42392 0.18586 0.0
O13 O 0.87223 0.44683 0.20147 0.0
O14 O 0.89871 0.44179 0.1713 0.0
O15 O 0.96058 0.52669 0.20019 0.0
O16 O 0.02488 0.58069 0.20292 0.0
O17 O 0.88434 0.51967 0.17095 0.0
C18 C 0.98171 0.55494 0.1404 0.0
C19 C 0.99294 0.5532 0.21118 0.0
Zn20 Zn 0.51507 0.04182 0.49697 0.0
Zn21 Zn 0.51848 0.95591 0.50103 0.0
C22 C 0.59549 0.10691 0.51101 0.0
O23 O 0.57195 0.11339 0.52396 0.0
C24 C 0.43945 0.88417 0.48876 0.0
O25 O 0.46243 0.88111 0.47421 0.0
O26 O 0.50283 0.08812 0.49459 0.0
O27 O 0.49274 0.00579 0.47006 0.0
O28 O 0.53047 0.97565 0.47228 0.0
C29 C 0.51776 0.10941 0.47901 0.0
O30 O 0.53475 0.09661 0.46478 0.0
O31 O 0.57849 0.07432 0.49831 0.0
C32 C 0.53096 0.88895 0.51251 0.0
O33 O 0.49676 0.87759 0.52239 0.0
O34 O 0.54628 0.92182 0.50292 0.0
O35 O 0.54025 0.99746 0.52641 0.0
O36 O 0.49307 0.01611 0.52399 0.0
O37 O 0.45619 0.91542 0.50228 0.0
C38 C 0.5103 0.98751 0.46141 0.0
C39 C 0.51665 0.00868 0.53505 0.0
Zn40 Zn 0.5731 0.52083 0.82387 0.0
Zn41 Zn 0.48266 0.52959 0.81523 0.0
C42 C 0.56012 0.44594 0.84257 0.0
O43 O 0.57438 0.47072 0.85986 0.0
C44 C 0.50714 0.61167 0.80901 0.0
O45 O 0.48549 0.59055 0.79175 0.0
O46 O 0.63506 0.55179 0.82696 0.0
O47 O 0.55928 0.52561 0.79438 0.0
O48 O 0.49837 0.51956 0.78664 0.0
C49 C 0.6537 0.5385 0.81515 0.0
O50 O 0.63173 0.50633 0.80159 0.0
O51 O 0.55568 0.46028 0.82591 0.0
C52 C 0.41263 0.52524 0.83105 0.0
O53 O 0.44021 0.54176 0.84687 0.0
O54 O 0.42302 0.51497 0.8139 0.0
O55 O 0.48659 0.49746 0.83837 0.0
O56 O 0.55185 0.54034 0.84811 0.0
O57 O 0.51334 0.59208 0.82281 0.0
C58 C 0.53252 0.52323 0.7811 0.0
C59 C 0.51453 0.51763 0.85277 0.0
C60 C 0.41827 0.84455 0.18808 0.0
C61 C 0.4072 0.85469 0.1693 0.0
C62 C 0.43506 0.89262 0.16131 0.0
C63 C 0.47248 0.92059 0.17241 0.0
H64 H 0.58809 0.03441 0.17137 0.0
H65 H 0.64364 0.09985 0.1599 0.0
H66 H 0.71035 0.12534 0.21949 0.0
H67 H 0.65591 0.06031 0.23073 0.0
H68 H 0.59002 0.03456 0.26914 0.0
H69 H 0.58119 0.03461 0.30647 0.0
H70 H 0.49069 0.90313 0.29893 0.0
H71 H 0.49824 0.90352 0.26131 0.0
H72 H 0.46205 0.86418 0.21398 0.0
H73 H 0.3973 0.81587 0.19483 0.0
H74 H 0.42738 0.90111 0.14681 0.0
H75 H 0.49268 0.95027 0.16631 0.0
N76 N 0.55055 0.9758 0.1973 0.0
N77 N 0.58037 0.00249 0.23117 0.0
N78 N 0.51706 0.94022 0.22632 0.0
C79 C 0.58218 0.0055 0.21023 0.0
C80 C 0.54798 0.97005 0.23934 0.0
C81 C 0.51807 0.94278 0.20532 0.0
C82 C 0.61732 0.04235 0.20205 0.0
C83 C 0.61499 0.05368 0.18185 0.0
C84 C 0.64666 0.0912 0.17531 0.0
C85 C 0.68132 0.11778 0.18881 0.0
C86 C 0.68439 0.10538 0.2086 0.0
C87 C 0.65284 0.06818 0.21513 0.0
C88 C 0.5448 0.96903 0.26223 0.0
C89 C 0.56845 0.00554 0.27542 0.0
C90 C 0.5635 0.00553 0.2969 0.0
C91 C 0.53522 0.96887 0.30577 0.0
C92 C 0.51221 0.9321 0.2926 0.0
C93 C 0.51676 0.93224 0.27105 0.0
C94 C 0.48227 0.91125 0.19179 0.0
C95 C 0.45529 0.87249 0.19919 0.0
C96 C 0.63621 0.42385 0.52599 0.0
C97 C 0.6189 0.41228 0.50543 0.0
C98 C 0.61395 0.44113 0.49449 0.0
C99 C 0.62507 0.48038 0.50418 0.0
H100 H 0.60562 0.59278 0.50569 0.0
H101 H 0.5957 0.64937 0.49565 0.0
H102 H 0.703 0.73709 0.53527 0.0
H103 H 0.71082 0.67989 0.54625 0.0
H104 H 0.64323 0.62295 0.5944 0.0
H105 H 0.62324 0.61647 0.63043 0.0
H106 H 0.62893 0.50351 0.63088 0.0
H107 H 0.64792 0.50927 0.59467 0.0
H108 H 0.65932 0.47005 0.55171 0.0
H109 H 0.63993 0.40219 0.53496 0.0
H110 H 0.60092 0.4331 0.47857 0.0
H111 H 0.6199 0.5016 0.4956 0.0
N112 N 0.65177 0.56263 0.52623 0.0
N113 N 0.65745 0.59937 0.55845 0.0
N114 N 0.64821 0.5325 0.55767 0.0
C115 C 0.65739 0.59766 0.53729 0.0
C116 C 0.65261 0.56679 0.56877 0.0
C117 C 0.64804 0.53017 0.53649 0.0
C118 C 0.65867 0.63216 0.52686 0.0
C119 C 0.62767 0.62437 0.51173 0.0
C120 C 0.6221 0.65691 0.50599 0.0
C121 C 0.64799 0.69781 0.51503 0.0
C122 C 0.68164 0.70585 0.52853 0.0
C123 C 0.68649 0.67324 0.53465 0.0
C124 C 0.64675 0.56637 0.59152 0.0
C125 C 0.64079 0.597 0.60222 0.0
C126 C 0.62939 0.59336 0.62293 0.0
C127 C 0.62394 0.55917 0.63341 0.0
C128 C 0.63195 0.5297 0.62306 0.0
C129 C 0.64315 0.53321 0.60234 0.0
C130 C 0.64081 0.49114 0.52506 0.0
C131 C 0.64699 0.46272 0.53567 0.0
C132 C 0.95424 0.63518 0.88297 0.0
C133 C 0.94297 0.62084 0.86187 0.0
C134 C 0.96793 0.60973 0.85013 0.0
C135 C 0.00189 0.60997 0.8598 0.0
H136 H 0.10899 0.59666 0.85167 0.0
H137 H 0.15232 0.57367 0.83372 0.0
H138 H 0.16911 0.5267 0.89049 0.0
H139 H 0.12605 0.54943 0.90843 0.0
H140 H 0.10106 0.57512 0.95129 0.0
H141 H 0.09262 0.57037 0.9888 0.0
H142 H 0.02805 0.63942 0.98775 0.0
H143 H 0.03568 0.6436 0.95037 0.0
H144 H 0.99485 0.64539 0.90912 0.0
H145 H 0.93573 0.64444 0.89225 0.0
H146 H 0.95973 0.5985 0.83382 0.0
H147 H 0.01927 0.59912 0.85063 0.0
N148 N 0.06497 0.60096 0.88218 0.0
N149 N 0.09156 0.59415 0.91408 0.0
N150 N 0.04442 0.61811 0.91379 0.0
C151 C 0.08994 0.59082 0.89284 0.0
C152 C 0.06906 0.60806 0.92467 0.0
C153 C 0.0421 0.61469 0.89261 0.0
C154 C 0.11435 0.57521 0.88153 0.0
C155 C 0.1216 0.58108 0.86026 0.0
C156 C 0.1464 0.56799 0.84998 0.0
C157 C 0.16385 0.54827 0.8607 0.0
C158 C 0.15556 0.5413 0.88176 0.0
C159 C 0.13125 0.55477 0.89209 0.0
C160 C 0.06855 0.60924 0.94774 0.0
C161 C 0.08549 0.58972 0.95909 0.0
C162 C 0.08079 0.5871 0.9806 0.0
C163 C 0.05918 0.60403 0.99115 0.0
C164 C 0.04407 0.62528 0.97997 0.0
C165 C 0.04862 0.62779 0.95853 0.0
C166 C 0.01137 0.62145 0.88134 0.0
C167 C 0.98814 0.63565 0.89259 0.0
C168 C 0.11221 0.63814 0.48814 0.0
C169 C 0.14883 0.63622 0.49023 0.0
C170 C 0.14573 0.59686 0.4876 0.0
C171 C 0.10768 0.56102 0.4815 0.0
H172 H 0.95624 0.44396 0.50038 0.0
H173 H 0.89545 0.38164 0.51165 0.0
H174 H 0.85725 0.3348 0.44722 0.0
H175 H 0.91687 0.39603 0.43601 0.0
H176 H 0.9567 0.44722 0.3996 0.0
H177 H 0.95476 0.45675 0.3625 0.0
H178 H 0.04527 0.58724 0.37479 0.0
H179 H 0.04737 0.57799 0.41194 0.0
H180 H 0.04741 0.60542 0.47876 0.0
H181 H 0.11307 0.66762 0.49044 0.0
H182 H 0.17316 0.59402 0.48881 0.0
H183 H 0.10685 0.53175 0.47799 0.0
N184 N 0.00713 0.49469 0.4727 0.0
N185 N 0.9746 0.47066 0.43908 0.0
N186 N 0.03463 0.53578 0.44436 0.0
C187 C 0.97562 0.46456 0.45966 0.0
C188 C 0.00381 0.506 0.4313 0.0
C189 C 0.0367 0.53041 0.46492 0.0
C190 C 0.94141 0.42555 0.46726 0.0
C191 C 0.93506 0.42016 0.48866 0.0
C192 C 0.90027 0.38444 0.49511 0.0
C193 C 0.87112 0.35356 0.48031 0.0
C194 C 0.87849 0.35835 0.45904 0.0
C195 C 0.91299 0.39365 0.45262 0.0
C196 C 0.00222 0.51184 0.40879 0.0
C197 C 0.97614 0.478 0.39445 0.0
C198 C 0.97517 0.48335 0.37318 0.0
C199 C 0.9999 0.5227 0.3658 0.0
C200 C 0.02566 0.55662 0.3801 0.0
C201 C 0.02699 0.55122 0.40135 0.0
C202 C 0.07202 0.56378 0.47792 0.0
C203 C 0.07438 0.60241 0.48182 0.0
C204 C 0.50224 0.13868 0.80632 0.0
C205 C 0.52927 0.16158 0.82366 0.0
C206 C 0.55456 0.1474 0.83206 0.0
C207 C 0.55369 0.11173 0.82282 0.0
H208 H 0.51766 0.96633 0.82808 0.0
H209 H 0.52193 0.90767 0.84079 0.0
H210 H 0.58442 0.90226 0.7856 0.0
H211 H 0.58024 0.96013 0.77307 0.0
H212 H 0.49366 0.95675 0.73201 0.0
H213 H 0.48715 0.9541 0.69413 0.0
H214 H 0.5585 0.08876 0.69754 0.0
H215 H 0.56168 0.09092 0.73546 0.0
H216 H 0.48185 0.08774 0.78307 0.0
H217 H 0.48272 0.14899 0.79935 0.0
H218 H 0.57563 0.16444 0.84547 0.0
H219 H 0.57442 0.10221 0.82911 0.0
N220 N 0.53831 0.02904 0.802 0.0
N221 N 0.53765 0.99754 0.76891 0.0
N222 N 0.52844 0.05524 0.77143 0.0
C223 C 0.54138 0.99907 0.79007 0.0
C224 C 0.53135 0.02555 0.75953 0.0
C225 C 0.53164 0.05716 0.7926 0.0
C226 C 0.5483 0.96762 0.7995 0.0
C227 C 0.53297 0.95302 0.81893 0.0
C228 C 0.53522 0.91935 0.82613 0.0
C229 C 0.55356 0.90034 0.81421 0.0
C230 C 0.57059 0.91644 0.79531 0.0
C231 C 0.56783 0.94945 0.78803 0.0
C232 C 0.52806 0.02401 0.73658 0.0
C233 C 0.50771 0.98568 0.72456 0.0
C234 C 0.50434 0.98427 0.7028 0.0
C235 C 0.52242 0.02122 0.6925 0.0
C236 C 0.54322 0.05959 0.70472 0.0
C237 C 0.54544 0.06094 0.7265 0.0
C238 C 0.52822 0.09033 0.80477 0.0
C239 C 0.50194 0.10371 0.79692 0.0
C240 C 0.60824 0.54999 0.11554 0.0
C241 C 0.60805 0.53655 0.13547 0.0
C242 C 0.57127 0.52065 0.14633 0.0
C243 C 0.53517 0.51717 0.13712 0.0
H244 H 0.42656 0.54754 0.14183 0.0
H245 H 0.36703 0.54976 0.15625 0.0
H246 H 0.28902 0.46925 0.10346 0.0
H247 H 0.34799 0.46712 0.08908 0.0
H248 H 0.40236 0.50384 0.04469 0.0
H249 H 0.4033 0.49927 0.0066 0.0
H250 H 0.51624 0.49419 0.01071 0.0
H251 H 0.51535 0.4984 0.04858 0.0
H252 H 0.57366 0.55593 0.09071 0.0
H253 H 0.63571 0.56182 0.10657 0.0
H254 H 0.57022 0.51024 0.16177 0.0
H255 H 0.50696 0.50368 0.14553 0.0
N256 N 0.46333 0.51761 0.11537 0.0
N257 N 0.42701 0.50384 0.08288 0.0
N258 N 0.49435 0.51486 0.08419 0.0
C259 C 0.42834 0.50927 0.10407 0.0
C260 C 0.45987 0.50656 0.07283 0.0
C261 C 0.49654 0.5204 0.10535 0.0
C262 C 0.39206 0.50734 0.11427 0.0
C263 C 0.39656 0.52987 0.1335 0.0
C264 C 0.3626 0.53138 0.14166 0.0
C265 C 0.32343 0.50977 0.13093 0.0
C266 C 0.3187 0.48598 0.11215 0.0
C267 C 0.35261 0.48498 0.10387 0.0
C268 C 0.45887 0.50167 0.04973 0.0
C269 C 0.42721 0.50141 0.03747 0.0
C270 C 0.42782 0.49899 0.01567 0.0
C271 C 0.45982 0.49635 0.00572 0.0
C272 C 0.49092 0.4957 0.01794 0.0
C273 C 0.49052 0.49843 0.03968 0.0
C274 C 0.53517 0.52896 0.11678 0.0
C275 C 0.57238 0.54622 0.10634 0.0
C276 C 0.12591 0.53678 0.14788 0.0
C277 C 0.11845 0.53951 0.16909 0.0
C278 C 0.15796 0.52976 0.1415 0.0
C279 C 0.18269 0.52479 0.1567 0.0
C280 C 0.17394 0.52557 0.17803 0.0
C281 C 0.14214 0.53319 0.18397 0.0
C282 C 0.16652 0.52949 0.11862 0.0
C283 C 0.19914 0.51983 0.19469 0.0
C284 C 0.24845 0.47781 0.139 0.0
C285 C 0.28783 0.51335 0.1386 0.0
C286 C 0.21399 0.481 0.14497 0.0
C287 C 0.21892 0.52073 0.15044 0.0
C288 C 0.25868 0.55672 0.15017 0.0
C289 C 0.29269 0.55256 0.14438 0.0
C290 C 0.17229 0.44187 0.14537 0.0
C291 C 0.26519 0.5997 0.15569 0.0
H292 H 0.10799 0.54205 0.13631 0.0
H293 H 0.13644 0.53514 0.20039 0.0
H294 H 0.19759 0.55627 0.11612 0.0
H295 H 0.16696 0.50075 0.11338 0.0
H296 H 0.1431 0.53149 0.10868 0.0
H297 H 0.18643 0.51818 0.21036 0.0
H298 H 0.20019 0.49094 0.19073 0.0
H299 H 0.23155 0.5462 0.1955 0.0
H300 H 0.24463 0.44743 0.13465 0.0
H301 H 0.32295 0.58014 0.14381 0.0
H302 H 0.14965 0.44297 0.13445 0.0
H303 H 0.16026 0.43966 0.16122 0.0
H304 H 0.17377 0.41332 0.14097 0.0
H305 H 0.24546 0.60567 0.14503 0.0
H306 H 0.29802 0.62449 0.15464 0.0
H307 H 0.25572 0.60191 0.1718 0.0
C308 C 0.6542 0.17932 0.52045 0.0
C309 C 0.63915 0.14053 0.50907 0.0
C310 C 0.69335 0.21334 0.51713 0.0
C311 C 0.7186 0.20856 0.50224 0.0
C312 C 0.7044 0.16905 0.49133 0.0
C313 C 0.66479 0.13557 0.49479 0.0
C314 C 0.70693 0.25493 0.52893 0.0
C315 C 0.73042 0.16252 0.47541 0.0
C316 C 0.79431 0.30486 0.47588 0.0
C317 C 0.83222 0.31703 0.4866 0.0
C318 C 0.75737 0.26973 0.48081 0.0
C319 C 0.75809 0.24574 0.49685 0.0
C320 C 0.79616 0.25797 0.50789 0.0
C321 C 0.83274 0.2936 0.50272 0.0
C322 C 0.71751 0.25826 0.46878 0.0
C323 C 0.79828 0.23316 0.52502 0.0
H324 H 0.63474 0.18368 0.5315 0.0
H325 H 0.65353 0.1058 0.48592 0.0
H326 H 0.73698 0.26618 0.53767 0.0
H327 H 0.71178 0.27831 0.51779 0.0
H328 H 0.68387 0.25346 0.54012 0.0
H329 H 0.7169 0.12922 0.46977 0.0
H330 H 0.73314 0.18044 0.46181 0.0
H331 H 0.76225 0.17429 0.48217 0.0
H332 H 0.79348 0.32311 0.46361 0.0
H333 H 0.86192 0.30261 0.51097 0.0
H334 H 0.69358 0.25523 0.47971 0.0
H335 H 0.70546 0.22761 0.45981 0.0
H336 H 0.72168 0.28161 0.45773 0.0
H337 H 0.77764 0.23202 0.53754 0.0
H338 H 0.83025 0.24649 0.532 0.0
H339 H 0.78706 0.2006 0.51874 0.0
C340 C 0.53407 0.67779 0.83258 0.0
C341 C 0.52017 0.65642 0.81269 0.0
C342 C 0.54266 0.71915 0.83623 0.0
C343 C 0.53727 0.73949 0.8196 0.0
C344 C 0.52434 0.71833 0.79941 0.0
C345 C 0.51599 0.67722 0.79623 0.0
C346 C 0.55649 0.74072 0.85794 0.0
C347 C 0.51843 0.73882 0.78117 0.0
C348 C 0.51455 0.82803 0.82578 0.0
C349 C 0.55196 0.86159 0.82013 0.0
C350 C 0.51019 0.78855 0.82724 0.0
C351 C 0.54409 0.78253 0.823 0.0
C352 C 0.58286 0.81709 0.81896 0.0
C353 C 0.5863 0.85616 0.81754 0.0
C354 C 0.46834 0.7526 0.83166 0.0
C355 C 0.61992 0.81224 0.81457 0.0
H356 H 0.53722 0.66189 0.8454 0.0
H357 H 0.5055 0.66111 0.78079 0.0
H358 H 0.58545 0.77115 0.8575 0.0
H359 H 0.53251 0.74712 0.86422 0.0
H360 H 0.56191 0.72175 0.86882 0.0
H361 H 0.50907 0.7184 0.76638 0.0
H362 H 0.49424 0.74714 0.78445 0.0
H363 H 0.5476 0.76809 0.77889 0.0
H364 H 0.48781 0.83187 0.82769 0.0
H365 H 0.6155 0.88215 0.81349 0.0
H366 H 0.47163 0.73367 0.84334 0.0
H367 H 0.4539 0.73202 0.81711 0.0
H368 H 0.44704 0.76327 0.8375 0.0
H369 H 0.62356 0.79327 0.82611 0.0
H370 H 0.64908 0.84278 0.81491 0.0
H371 H 0.61515 0.79567 0.7989 0.0
C372 C 0.81358 0.53068 0.17229 0.0
C373 C 0.82236 0.51228 0.15481 0.0
C374 C 0.77906 0.53641 0.17186 0.0
C375 C 0.75295 0.52379 0.15346 0.0
C376 C 0.7619 0.50552 0.13574 0.0
C377 C 0.79632 0.49986 0.13666 0.0
C378 C 0.77037 0.5557 0.1911 0.0
C379 C 0.73509 0.49196 0.11574 0.0
C380 C 0.64157 0.50106 0.15242 0.0
C381 C 0.64544 0.53637 0.14377 0.0
C382 C 0.67664 0.49752 0.15684 0.0
C383 C 0.71648 0.52999 0.1524 0.0
C384 C 0.72078 0.56678 0.14493 0.0
C385 C 0.68527 0.56959 0.1408 0.0
C386 C 0.67076 0.45796 0.16503 0.0
C387 C 0.76264 0.60219 0.14005 0.0
H388 H 0.83339 0.54017 0.18642 0.0
H389 H 0.80286 0.4857 0.12306 0.0
H390 H 0.77045 0.58443 0.18743 0.0
H391 H 0.73907 0.53392 0.19632 0.0
H392 H 0.79352 0.56366 0.2042 0.0
H393 H 0.74637 0.47845 0.10333 0.0
H394 H 0.70275 0.46838 0.11874 0.0
H395 H 0.73433 0.51892 0.10984 0.0
H396 H 0.61096 0.47513 0.15466 0.0
H397 H 0.68858 0.5973 0.13447 0.0
H398 H 0.69316 0.46521 0.17837 0.0
H399 H 0.67684 0.43988 0.15259 0.0
H400 H 0.63883 0.43809 0.17015 0.0
H401 H 0.78536 0.6109 0.15341 0.0
H402 H 0.76124 0.6302 0.13635 0.0
H403 H 0.77445 0.59215 0.12644 0.0
C404 C 0.3711 0.85115 0.50613 0.0
C405 C 0.3959 0.84987 0.49017 0.0
C406 C 0.33042 0.81787 0.50781 0.0
C407 C 0.31414 0.7824 0.49323 0.0
C408 C 0.33902 0.78106 0.47708 0.0
C409 C 0.37939 0.81471 0.47573 0.0
C410 C 0.30486 0.82064 0.52518 0.0
C411 C 0.32303 0.74394 0.4612 0.0
C412 C 0.22313 0.67716 0.50488 0.0
C413 C 0.19034 0.67527 0.49293 0.0
C414 C 0.26324 0.71239 0.50575 0.0
C415 C 0.2709 0.74679 0.49447 0.0
C416 C 0.23767 0.74573 0.48301 0.0
C417 C 0.19802 0.71007 0.4823 0.0
C418 C 0.29775 0.71221 0.51816 0.0
C419 C 0.24433 0.78164 0.47076 0.0
H420 H 0.38354 0.87808 0.51739 0.0
H421 H 0.39818 0.81323 0.46336 0.0
H422 H 0.27606 0.81819 0.51851 0.0
H423 H 0.29539 0.79425 0.53502 0.0
H424 H 0.32198 0.85023 0.53528 0.0
H425 H 0.34638 0.74752 0.44972 0.0
H426 H 0.31401 0.71534 0.46922 0.0
H427 H 0.29487 0.7393 0.45258 0.0
H428 H 0.2176 0.65082 0.51338 0.0
H429 H 0.17336 0.70893 0.47267 0.0
H430 H 0.314 0.74063 0.5291 0.0
H431 H 0.32095 0.71252 0.50743 0.0
H432 H 0.28627 0.68447 0.52724 0.0
H433 H 0.2604 0.81129 0.48083 0.0
H434 H 0.21473 0.77762 0.4642 0.0
H435 H 0.2645 0.78448 0.45769 0.0
C436 C 0.54642 0.37972 0.82281 0.0
C437 C 0.55274 0.40283 0.84201 0.0
C438 C 0.54207 0.33996 0.82184 0.0
C439 C 0.54361 0.32254 0.84054 0.0
C440 C 0.54902 0.34525 0.86001 0.0
C441 C 0.55375 0.38523 0.86052 0.0
C442 C 0.53661 0.31692 0.80074 0.0
C443 C 0.55028 0.32752 0.88029 0.0
C444 C 0.49775 0.20525 0.83429 0.0
C445 C 0.53324 0.20194 0.83149 0.0
C446 C 0.50079 0.24422 0.8384 0.0
C447 C 0.54026 0.28082 0.83949 0.0
C448 C 0.57633 0.27751 0.83769 0.0
C449 C 0.57239 0.23808 0.83382 0.0
C450 C 0.46162 0.2463 0.84055 0.0
C451 C 0.61898 0.31575 0.83862 0.0
H452 H 0.54575 0.39306 0.80842 0.0
H453 H 0.55848 0.40279 0.87543 0.0
H454 H 0.56243 0.31054 0.79864 0.0
H455 H 0.50738 0.28644 0.79975 0.0
H456 H 0.53581 0.33468 0.78768 0.0
H457 H 0.55283 0.34831 0.89414 0.0
H458 H 0.52188 0.29679 0.88116 0.0
H459 H 0.57712 0.32246 0.88098 0.0
H460 H 0.46744 0.17733 0.83268 0.0
H461 H 0.59989 0.23574 0.83144 0.0
H462 H 0.45652 0.26001 0.82679 0.0
H463 H 0.46452 0.26675 0.85459 0.0
H464 H 0.43392 0.21509 0.84169 0.0
H465 H 0.62207 0.33338 0.82484 0.0
H466 H 0.644 0.30783 0.83877 0.0
H467 H 0.62353 0.33666 0.85275 0.0
C468 C 0.52829 0.82176 0.51737 0.0
C469 C 0.55035 0.86272 0.51166 0.0
C470 C 0.54594 0.79622 0.51635 0.0
C471 C 0.58686 0.81224 0.50974 0.0
C472 C 0.60927 0.85351 0.50386 0.0
C473 C 0.59062 0.87821 0.50476 0.0
C474 C 0.52091 0.75218 0.52254 0.0
C475 C 0.65318 0.87182 0.49705 0.0
C476 C 0.64139 0.75796 0.52986 0.0
C477 C 0.63687 0.73059 0.51258 0.0
C478 C 0.627 0.78604 0.52878 0.0
C479 C 0.60676 0.78632 0.5101 0.0
C480 C 0.60317 0.75985 0.49237 0.0
C481 C 0.61854 0.73247 0.49378 0.0
C482 C 0.63184 0.81412 0.54798 0.0
C483 C 0.58157 0.75921 0.47221 0.0
H484 H 0.49701 0.80947 0.5225 0.0
H485 H 0.60784 0.90988 0.50034 0.0
H486 H 0.51939 0.7299 0.50973 0.0
H487 H 0.53624 0.74832 0.53643 0.0
H488 H 0.48878 0.7438 0.52626 0.0
H489 H 0.66578 0.90389 0.49222 0.0
H490 H 0.67354 0.87269 0.51005 0.0
H491 H 0.65458 0.85197 0.48381 0.0
H492 H 0.65462 0.75633 0.54463 0.0
H493 H 0.6154 0.71193 0.48026 0.0
H494 H 0.60093 0.80465 0.5541 0.0
H495 H 0.64547 0.84681 0.54399 0.0
H496 H 0.65179 0.81296 0.56059 0.0
H497 H 0.54829 0.74765 0.47469 0.0
H498 H 0.58387 0.73896 0.45944 0.0
H499 H 0.59497 0.79114 0.46714 0.0
C500 C 0.71737 0.53374 0.81002 0.0
C501 C 0.69893 0.55613 0.81809 0.0
C502 C 0.75919 0.54734 0.81489 0.0
C503 C 0.7832 0.58453 0.82788 0.0
C504 C 0.76549 0.60873 0.83488 0.0
C505 C 0.72339 0.59404 0.83005 0.0
C506 C 0.77681 0.52039 0.80734 0.0
C507 C 0.79035 0.64893 0.84846 0.0
C508 C 0.86679 0.58893 0.86363 0.0
C509 C 0.90268 0.61287 0.85301 0.0
C510 C 0.82782 0.57954 0.85553 0.0
C511 C 0.82473 0.59497 0.83645 0.0
C512 C 0.86092 0.61951 0.82569 0.0
C513 C 0.89961 0.62784 0.83403 0.0
C514 C 0.78991 0.55265 0.86731 0.0
C515 C 0.85871 0.63693 0.80548 0.0
H516 H 0.69864 0.50446 0.80071 0.0
H517 H 0.7094 0.61174 0.8361 0.0
H518 H 0.80716 0.53937 0.80047 0.0
H519 H 0.78217 0.50611 0.82078 0.0
H520 H 0.75567 0.49506 0.79552 0.0
H521 H 0.77396 0.66688 0.85007 0.0
H522 H 0.79623 0.64202 0.86426 0.0
H523 H 0.82093 0.66868 0.84193 0.0
H524 H 0.86916 0.57679 0.87814 0.0
H525 H 0.92748 0.64638 0.82587 0.0
H526 H 0.76793 0.52442 0.85722 0.0
H527 H 0.7736 0.56987 0.8716 0.0
H528 H 0.79773 0.54273 0.88179 0.0
H529 H 0.8391 0.61119 0.79353 0.0
H530 H 0.88982 0.65624 0.79932 0.0
H531 H 0.84393 0.65626 0.80785 0.0
C532 C 0.16743 0.69666 0.13355 0.0
C533 C 0.14868 0.68951 0.15281 0.0
C534 C 0.20948 0.7264 0.13229 0.0
C535 C 0.23327 0.74907 0.15076 0.0
C536 C 0.2139 0.74366 0.17004 0.0
C537 C 0.17175 0.7141 0.1708 0.0
C538 C 0.22883 0.73191 0.1114 0.0
C539 C 0.23824 0.7673 0.19011 0.0
C540 C 0.34678 0.78402 0.15888 0.0
C541 C 0.36483 0.8274 0.15962 0.0
C542 C 0.30411 0.75781 0.15452 0.0
C543 C 0.27904 0.77547 0.15058 0.0
C544 C 0.29767 0.81894 0.14931 0.0
C545 C 0.34045 0.84449 0.15396 0.0
C546 C 0.28548 0.71152 0.15583 0.0
C547 C 0.27207 0.83879 0.14469 0.0
H548 H 0.14962 0.67802 0.11952 0.0
H549 H 0.15744 0.70883 0.18571 0.0
H550 H 0.24913 0.76541 0.10917 0.0
H551 H 0.24848 0.71734 0.11079 0.0
H552 H 0.20505 0.71729 0.09824 0.0
H553 H 0.21806 0.76139 0.20352 0.0
H554 H 0.26145 0.75801 0.1938 0.0
H555 H 0.25544 0.80123 0.18835 0.0
H556 H 0.36572 0.77068 0.16283 0.0
H557 H 0.35417 0.87801 0.15454 0.0
H558 H 0.26438 0.69393 0.14197 0.0
H559 H 0.26677 0.70198 0.16982 0.0
H560 H 0.30957 0.70243 0.15694 0.0
H561 H 0.24851 0.8205 0.13178 0.0
H562 H 0.29162 0.87126 0.14044 0.0
H563 H 0.25527 0.83937 0.15871 0.0
C564 C 0.51654 0.17034 0.49695 0.0
C565 C 0.52395 0.15187 0.47907 0.0
C566 C 0.52934 0.21285 0.49867 0.0
C567 C 0.54972 0.23734 0.48205 0.0
C568 C 0.55479 0.21831 0.46342 0.0
C569 C 0.54193 0.17577 0.46217 0.0
C570 C 0.52339 0.23204 0.51882 0.0
C571 C 0.57613 0.24334 0.44531 0.0
C572 C 0.56399 0.3459 0.48633 0.0
C573 C 0.60364 0.36914 0.49631 0.0
C574 C 0.54661 0.30316 0.48063 0.0
C575 C 0.5694 0.28334 0.48513 0.0
C576 C 0.61033 0.30714 0.49412 0.0
C577 C 0.62697 0.34977 0.49953 0.0
C578 C 0.5031 0.27885 0.47082 0.0
C579 C 0.63578 0.28724 0.49909 0.0
H580 H 0.50264 0.1521 0.51007 0.0
H581 H 0.54754 0.16167 0.44823 0.0
H582 H 0.55404 0.25324 0.52699 0.0
H583 H 0.50889 0.25094 0.51558 0.0
H584 H 0.50377 0.20821 0.52947 0.0
H585 H 0.57226 0.22312 0.43097 0.0
H586 H 0.5639 0.26411 0.44184 0.0
H587 H 0.60978 0.26337 0.44948 0.0
H588 H 0.5457 0.36064 0.48393 0.0
H589 H 0.6579 0.36776 0.50693 0.0
H590 H 0.48187 0.25811 0.48216 0.0
H591 H 0.50177 0.25878 0.45694 0.0
H592 H 0.49155 0.29952 0.46603 0.0
H593 H 0.62238 0.26733 0.5122 0.0
H594 H 0.66864 0.31072 0.50358 0.0
H595 H 0.63499 0.26691 0.48548 0.0
C596 C 0.36249 0.53576 0.85191 0.0
C597 C 0.37168 0.52194 0.833 0.0
C598 C 0.32533 0.536 0.8539 0.0
C599 C 0.29637 0.52172 0.83659 0.0
C600 C 0.30474 0.50643 0.81763 0.0
C601 C 0.34248 0.50686 0.81602 0.0
C602 C 0.31761 0.55261 0.87441 0.0
C603 C 0.27428 0.49053 0.79896 0.0
C604 C 0.19108 0.49981 0.85332 0.0
C605 C 0.1935 0.53802 0.85071 0.0
C606 C 0.22301 0.49263 0.84716 0.0
C607 C 0.25829 0.52464 0.83844 0.0
C608 C 0.25947 0.56213 0.83442 0.0
C609 C 0.22691 0.56831 0.84055 0.0
C610 C 0.22031 0.45197 0.85137 0.0
C611 C 0.29665 0.59712 0.82525 0.0
H612 H 0.38477 0.54728 0.86515 0.0
H613 H 0.34936 0.496 0.80137 0.0
H614 H 0.31455 0.58021 0.87202 0.0
H615 H 0.2881 0.52877 0.88049 0.0
H616 H 0.34297 0.56177 0.88647 0.0
H617 H 0.28392 0.47666 0.78594 0.0
H618 H 0.24309 0.46676 0.80345 0.0
H619 H 0.27137 0.51646 0.79325 0.0
H620 H 0.16492 0.47614 0.86092 0.0
H621 H 0.22896 0.59797 0.83862 0.0
H622 H 0.24155 0.45716 0.86493 0.0
H623 H 0.23019 0.43974 0.83778 0.0
H624 H 0.18841 0.42804 0.85493 0.0
H625 H 0.32321 0.61131 0.83696 0.0
H626 H 0.2905 0.62183 0.82063 0.0
H627 H 0.30608 0.58517 0.81137 0.0
C628 C 0.84794 0.35388 0.16657 0.0
C629 C 0.84947 0.37803 0.18465 0.0
C630 C 0.82227 0.31044 0.16489 0.0
C631 C 0.7978 0.29077 0.18172 0.0
C632 C 0.79976 0.3149 0.20013 0.0
C633 C 0.82551 0.35826 0.20135 0.0
C634 C 0.82082 0.28567 0.145 0.0
C635 C 0.7743 0.29496 0.21849 0.0
C636 C 0.69943 0.18564 0.17489 0.0
C637 C 0.71243 0.16004 0.18336 0.0
C638 C 0.72751 0.22796 0.17315 0.0
C639 C 0.76947 0.245 0.18014 0.0
C640 C 0.7833 0.21878 0.18745 0.0
C641 C 0.7546 0.17654 0.18892 0.0
C642 C 0.7117 0.25491 0.16507 0.0
C643 C 0.82785 0.23577 0.19494 0.0
H644 H 0.86633 0.36896 0.15357 0.0
H645 H 0.82665 0.37668 0.21539 0.0
H646 H 0.82837 0.26138 0.14855 0.0
H647 H 0.78899 0.26945 0.13758 0.0
H648 H 0.84275 0.30556 0.13361 0.0
H649 H 0.78013 0.31805 0.23184 0.0
H650 H 0.7408 0.2785 0.21368 0.0
H651 H 0.78144 0.27141 0.22387 0.0
H652 H 0.66685 0.1732 0.17073 0.0
H653 H 0.7649 0.15668 0.19515 0.0
H654 H 0.73216 0.27453 0.15318 0.0
H655 H 0.71205 0.27617 0.17811 0.0
H656 H 0.67956 0.23618 0.15806 0.0
H657 H 0.84923 0.2551 0.18325 0.0
H658 H 0.83452 0.21065 0.19804 0.0
H659 H 0.83467 0.25613 0.20958 0.0
C660 C 0.99173 0.52997 0.10508 0.0
C661 C 0.99571 0.56263 0.11891 0.0
C662 C 0.00453 0.53687 0.08459 0.0
C663 C 0.02145 0.57733 0.07777 0.0
C664 C 0.02613 0.61055 0.09174 0.0
C665 C 0.01305 0.60276 0.11214 0.0
C666 C 0.99924 0.50072 0.07012 0.0
C667 C 0.04409 0.65413 0.08503 0.0
C668 C 0.08067 0.60225 0.02811 0.0
C669 C 0.05015 0.59759 0.01345 0.0
C670 C 0.07188 0.59581 0.04918 0.0
C671 C 0.03163 0.58435 0.05562 0.0
C672 C 1.00073 0.57949 0.04086 0.0
C673 C 0.01035 0.58608 0.01997 0.0
C674 C 0.10557 0.60133 0.06456 0.0
C675 C 0.95742 0.56718 0.04713 0.0
H676 H 0.97856 0.49892 0.11026 0.0
H677 H 0.01611 0.62811 0.12275 0.0
H678 H 0.97699 0.49483 0.05692 0.0
H679 H 0.0292 0.50827 0.06337 0.0
H680 H 0.98767 0.47171 0.07817 0.0
H681 H 0.04773 0.6769 0.09813 0.0
H682 H 0.07484 0.66447 0.07851 0.0
H683 H 0.0236 0.6545 0.07247 0.0
H684 H 0.11154 0.6114 0.02315 0.0
H685 H 0.98641 0.58163 0.00863 0.0
H686 H 0.09553 0.57206 0.07213 0.0
H687 H 0.11134 0.62582 0.07711 0.0
H688 H 0.13516 0.61008 0.05702 0.0
H689 H 0.94307 0.53662 0.05388 0.0
H690 H 0.93707 0.56498 0.03374 0.0
H691 H 0.95866 0.59027 0.05937 0.0
C692 C 0.51672 0.95131 0.42888 0.0
C693 C 0.50913 0.98162 0.43842 0.0
C694 C 0.51818 0.94686 0.40713 0.0
C695 C 0.51276 0.97394 0.39471 0.0
C696 C 0.50422 0.00403 0.40422 0.0
C697 C 0.50204 0.00721 0.42598 0.0
C698 C 0.52646 0.9138 0.3975 0.0
C699 C 0.49888 0.03386 0.39149 0.0
C700 C 0.56344 0.99357 0.34277 0.0
C701 C 0.5294 0.96933 0.32861 0.0
C702 C 0.55832 0.99565 0.36429 0.0
C703 C 0.51829 0.97224 0.37191 0.0
C704 C 0.48384 0.94716 0.35781 0.0
C705 C 0.48975 0.94628 0.33631 0.0
C706 C 0.59577 0.02303 0.37887 0.0
C707 C 0.44078 0.92137 0.36544 0.0
H708 H 0.52171 0.93113 0.43843 0.0
H709 H 0.49617 0.03068 0.4333 0.0
H710 H 0.50245 0.89428 0.38497 0.0
H711 H 0.55684 0.9287 0.3902 0.0
H712 H 0.52686 0.89327 0.40918 0.0
H713 H 0.49086 0.0544 0.40118 0.0
H714 H 0.52804 0.05366 0.38377 0.0
H715 H 0.47418 0.01642 0.37898 0.0
H716 H 0.59429 0.01088 0.33704 0.0
H717 H 0.46314 0.92798 0.3255 0.0
H718 H 0.60047 0.00386 0.38988 0.0
H719 H 0.59067 0.04593 0.38834 0.0
H720 H 0.62455 0.04023 0.37037 0.0
H721 H 0.44065 0.90003 0.37675 0.0
H722 H 0.41748 0.90258 0.35248 0.0
H723 H 0.43114 0.94193 0.37378 0.0
C724 C 0.57624 0.52188 0.7524 0.0
C725 C 0.54226 0.52543 0.75882 0.0
C726 C 0.58794 0.52651 0.73171 0.0
C727 C 0.56524 0.53512 0.71705 0.0
C728 C 0.53046 0.53805 0.72327 0.0
C729 C 0.51926 0.53301 0.74411 0.0
C730 C 0.62502 0.52282 0.72563 0.0
C731 C 0.50566 0.54735 0.70802 0.0
C732 C 0.62309 0.58724 0.66984 0.0
C733 C 0.60835 0.55332 0.65477 0.0
C734 C 0.60848 0.58193 0.69005 0.0
C735 C 0.57859 0.54171 0.69531 0.0
C736 C 0.56319 0.50745 0.68011 0.0
C737 C 0.57817 0.51369 0.66 0.0
C738 C 0.62561 0.6192 0.70589 0.0
C739 C 0.53137 0.4641 0.68517 0.0
H740 H 0.59407 0.51577 0.76362 0.0
H741 H 0.4931 0.53601 0.74898 0.0
H742 H 0.61597 0.49844 0.71254 0.0
H743 H 0.6493 0.5526 0.7201 0.0
H744 H 0.63867 0.51495 0.73882 0.0
H745 H 0.47873 0.54737 0.71517 0.0
H746 H 0.52581 0.57825 0.70212 0.0
H747 H 0.49418 0.52399 0.69433 0.0
H748 H 0.64663 0.61786 0.66595 0.0
H749 H 0.56602 0.48749 0.6483 0.0
H750 H 0.64271 0.61501 0.71888 0.0
H751 H 0.59992 0.62207 0.71273 0.0
H752 H 0.64696 0.64869 0.69899 0.0
H753 H 0.54437 0.45393 0.69761 0.0
H754 H 0.52148 0.44106 0.67136 0.0
H755 H 0.50362 0.46395 0.69126 0.0
C756 C 0.47953 0.99851 0.56802 0.0
C757 C 0.51681 0.01294 0.55798 0.0
C758 C 0.47913 0.99978 0.5899 0.0
C759 C 0.51709 0.01729 0.60191 0.0
C760 C 0.55495 0.03328 0.59178 0.0
C761 C 0.55426 0.03017 0.56989 0.0
C762 C 0.43808 0.98118 0.60011 0.0
C763 C 0.59614 0.05346 0.60403 0.0
C764 C 0.51856 0.0514 0.6591 0.0
C765 C 0.52005 0.01977 0.66919 0.0
C766 C 0.51798 0.05123 0.63724 0.0
C767 C 0.51725 0.01781 0.62507 0.0
C768 C 0.51756 0.98519 0.63502 0.0
C769 C 0.51975 0.98696 0.65691 0.0
C770 C 0.51876 0.08713 0.62719 0.0
C771 C 0.51583 0.94849 0.62255 0.0
H772 H 0.45056 0.98484 0.55872 0.0
H773 H 0.5831 0.04163 0.56204 0.0
H774 H 0.43432 0.95542 0.60931 0.0
H775 H 0.43721 0.00486 0.61115 0.0
H776 H 0.41138 0.96887 0.58854 0.0
H777 H 0.62279 0.06703 0.5938 0.0
H778 H 0.59879 0.07847 0.61545 0.0
H779 H 0.5983 0.03016 0.61304 0.0
H780 H 0.51777 0.07646 0.66823 0.0
H781 H 0.52182 0.96275 0.66433 0.0
H782 H 0.49052 0.07572 0.61684 0.0
H783 H 0.54584 0.10171 0.6173 0.0
H784 H 0.52056 0.11137 0.6389 0.0
H785 H 0.48901 0.93425 0.61099 0.0
H786 H 0.51312 0.92419 0.63262 0.0
H787 H 0.54425 0.95904 0.6137 0.0
C788 C 0.53474 0.53598 0.8909 0.0
C789 C 0.50389 0.51362 0.87494 0.0
C790 C 0.52524 0.53224 0.91196 0.0
C791 C 0.48391 0.50539 0.9172 0.0
C792 C 0.45255 0.4829 0.9012 0.0
C793 C 0.46291 0.48731 0.88024 0.0
C794 C 0.5595 0.55687 0.92862 0.0
C795 C 0.40816 0.45394 0.90622 0.0
C796 C 0.47184 0.4686 0.97163 0.0
C797 C 0.46205 0.49601 0.98269 0.0
C798 C 0.47769 0.4704 0.95014 0.0
C799 C 0.47386 0.5005 0.9395 0.0
C800 C 0.46268 0.52737 0.95043 0.0
C801 C 0.4568 0.52473 0.97193 0.0
C802 C 0.48916 0.44093 0.93894 0.0
C803 C 0.45849 0.55996 0.93961 0.0
H804 H 0.56645 0.55643 0.88695 0.0
H805 H 0.43885 0.46994 0.86801 0.0
H806 H 0.55163 0.57677 0.93889 0.0
H807 H 0.5628 0.53537 0.93858 0.0
H808 H 0.58985 0.57702 0.92192 0.0
H809 H 0.38733 0.43927 0.89194 0.0
H810 H 0.40645 0.429 0.91542 0.0
H811 H 0.39649 0.4712 0.91597 0.0
H812 H 0.47538 0.446 0.97988 0.0
H813 H 0.44963 0.54624 0.98046 0.0
H814 H 0.52083 0.45881 0.9332 0.0
H815 H 0.46763 0.42413 0.92512 0.0
H816 H 0.4884 0.4177 0.9492 0.0
H817 H 0.48907 0.58313 0.93419 0.0
H818 H 0.44698 0.57657 0.95002 0.0
H819 H 0.43693 0.54547 0.92561 0.0
C820 C 0.03144 0.57249 0.24605 0.0
C821 C 0.99374 0.55108 0.23412 0.0
C822 C 0.03293 0.56896 0.26761 0.0
C823 C 0.99579 0.54379 0.27751 0.0
C824 C 0.95755 0.52278 0.26565 0.0
C825 C 0.95701 0.5265 0.24408 0.0
C826 C 0.07434 0.59149 0.27972 0.0
C827 C 0.91725 0.49599 0.27571 0.0
C828 C 0.00195 0.50056 0.32846 0.0
C829 C 0.99898 0.52827 0.34321 0.0
C830 C 1.00126 0.50546 0.30703 0.0
C831 C 0.99704 0.53859 0.3002 0.0
C832 C 0.9939 0.56659 0.31503 0.0
C833 C 0.99515 0.56122 0.33639 0.0
C834 C 0.00522 0.47528 0.2917 0.0
C835 C 0.9889 0.602 0.30832 0.0
H836 H 0.06001 0.59135 0.23847 0.0
H837 H 0.92772 0.51002 0.23501 0.0
H838 H 0.07381 0.61228 0.29273 0.0
H839 H 0.08062 0.56863 0.28675 0.0
H840 H 0.10027 0.6104 0.26976 0.0
H841 H 0.89001 0.48296 0.26443 0.0
H842 H 0.9181 0.46982 0.28254 0.0
H843 H 0.91296 0.51445 0.28867 0.0
H844 H 0.00539 0.47534 0.33373 0.0
H845 H 0.99247 0.58244 0.34778 0.0
H846 H 0.0324 0.49241 0.28215 0.0
H847 H 0.97737 0.45905 0.28081 0.0
H848 H 0.00887 0.45155 0.29958 0.0
H849 H 0.01555 0.62265 0.29922 0.0
H850 H 0.98672 0.62093 0.32181 0.0
H851 H 0.9605 0.58957 0.29794 0.0
loop_
_geom_bond_atom_site_label_1
_geom_bond_atom_site_label_2
_geom_bond_distance
_geom_bond_site_symmetry_2
_ccdc_geom_bond_type
Zn0 O6 1.969 . S
Zn0 O7 1.965 . S
Zn0 O11 2.024 . S
Zn0 O16 1.969 . S
Zn1 O8 1.969 . S
Zn1 O14 1.969 . S
Zn1 O15 1.965 . S
Zn1 O17 2.024 . S
C2 O3 1.229 . S
C2 O11 1.058 . S
O3 C2 1.229 . S
C4 O5 1.229 . S
C4 O17 1.058 . S
O5 C4 1.229 . S
O6 Zn0 1.969 . S
O6 C9 1.267 . S
O7 Zn0 1.965 . S
O7 C18 1.260 1_455 S
O8 Zn1 1.969 . S
O8 C18 1.258 . S
C9 O6 1.267 . S
C9 O10 1.228 . S
O10 C9 1.228 . S
O11 Zn0 2.024 . S
O11 C2 1.058 . S
C12 O13 1.228 . S
C12 O14 1.267 . S
O13 C12 1.228 . S
O14 Zn1 1.969 . S
O14 C12 1.267 . S
O15 Zn1 1.965 . S
O15 C19 1.260 1_655 S
O16 Zn0 1.969 . S
O16 C19 1.258 . S
O17 Zn1 2.024 . S
O17 C4 1.058 . S
C18 O7 1.260 1_655 S
C18 O8 1.258 . S
C19 O15 1.260 1_455 S
C19 O16 1.258 . S
Zn20 O26 1.969 . S
Zn20 O27 1.965 . S
Zn20 O31 2.024 . S
Zn20 O36 1.969 . S
Zn21 O28 1.969 . S
Zn21 O34 1.969 . S
Zn21 O35 1.965 . S
Zn21 O37 2.024 . S
C22 O23 1.229 . S
C22 O31 1.058 . S
O23 C22 1.229 . S
C24 O25 1.229 . S
C24 O37 1.058 . S
O25 C24 1.229 . S
O26 Zn20 1.969 . S
O26 C29 1.267 . S
O27 Zn20 1.965 . S
O27 C38 1.260 . S
O28 Zn21 1.969 . S
O28 C38 1.258 1_565 S
C29 O26 1.267 . S
C29 O30 1.228 . S
O30 C29 1.228 . S
O31 Zn20 2.024 . S
O31 C22 1.058 . S
C32 O33 1.228 . S
C32 O34 1.267 . S
O33 C32 1.228 . S
O34 Zn21 1.969 . S
O34 C32 1.267 . S
O35 Zn21 1.965 . S
O35 C39 1.260 1_565 S
O36 Zn20 1.969 . S
O36 C39 1.258 . S
O37 Zn21 2.024 . S
O37 C24 1.058 . S
C38 O27 1.260 . S
C38 O28 1.258 1_545 S
C39 O35 1.260 1_545 S
C39 O36 1.258 . S
Zn40 O46 1.969 . S
Zn40 O47 1.965 . S
Zn40 O51 2.024 . S
Zn40 O56 1.969 . S
Zn41 O48 1.969 . S
Zn41 O54 1.969 . S
Zn41 O55 1.965 . S
Zn41 O57 2.024 . S
C42 O43 1.229 . S
C42 O51 1.058 . S
O43 C42 1.229 . S
C44 O45 1.229 . S
C44 O57 1.058 . S
O45 C44 1.229 . S
O46 Zn40 1.969 . S
O46 C49 1.267 . S
O47 Zn40 1.965 . S
O47 C58 1.260 . S
O48 Zn41 1.969 . S
O48 C58 1.258 . S
C49 O46 1.267 . S
C49 O50 1.228 . S
O50 C49 1.228 . S
O51 Zn40 2.024 . S
O51 C42 1.058 . S
C52 O53 1.228 . S
C52 O54 1.267 . S
O53 C52 1.228 . S
O54 Zn41 1.969 . S
O54 C52 1.267 . S
O55 Zn41 1.965 . S
O55 C59 1.260 . S
O56 Zn40 1.969 . S
O56 C59 1.258 . S
O57 Zn41 2.024 . S
O57 C44 1.058 . S
C58 O47 1.260 . S
C58 O48 1.258 . S
C59 O55 1.260 . S
C59 O56 1.258 . S
C60 C61 1.384 . S
C60 H73 0.947 . S
C60 C95 1.382 . S
C61 C60 1.384 . S
C61 C62 1.378 . S
C62 C61 1.378 . S
C62 C63 1.378 . S
C62 H74 0.952 . S
C63 C62 1.378 . S
C63 H75 0.950 . S
C63 C94 1.383 . S
H64 C83 0.947 . S
H65 C84 0.946 . S
H66 C86 0.953 . S
H67 C87 0.945 . S
H68 C89 0.952 . S
H69 C90 0.949 . S
H70 C92 0.950 . S
H71 C93 0.948 . S
H72 C95 0.951 . S
H73 C60 0.947 . S
H74 C62 0.952 . S
H75 C63 0.950 . S
N76 C79 1.382 . S
N76 C81 1.363 1_545 S
N77 C79 1.371 . S
N77 C80 1.372 . S
N78 C80 1.361 1_565 S
N78 C81 1.377 . S
C79 N76 1.382 . S
C79 N77 1.371 . S
C79 C82 1.480 . S
C80 N77 1.372 . S
C80 N78 1.361 1_545 S
C80 C88 1.457 . S
C81 N76 1.363 1_565 S
C81 N78 1.377 . S
C81 C94 1.479 . S
C82 C79 1.480 . S
C82 C83 1.383 . S
C82 C87 1.385 . S
C83 H64 0.947 . S
C83 C82 1.383 . S
C83 C84 1.388 . S
C84 H65 0.946 . S
C84 C83 1.388 . S
C84 C85 1.384 . S
C85 C84 1.384 . S
C85 C86 1.377 . S
C86 H66 0.953 . S
C86 C85 1.377 . S
C86 C87 1.369 . S
C87 H67 0.945 . S
C87 C82 1.385 . S
C87 C86 1.369 . S
C88 C80 1.457 . S
C88 C89 1.372 . S
C88 C93 1.364 1_545 S
C89 H68 0.952 . S
C89 C88 1.372 . S
C89 C90 1.389 . S
C90 H69 0.949 . S
C90 C89 1.389 . S
C90 C91 1.387 . S
C91 C90 1.387 . S
C91 C92 1.372 1_545 S
C92 H70 0.950 . S
C92 C91 1.372 1_565 S
C92 C93 1.379 . S
C93 H71 0.948 . S
C93 C88 1.364 1_565 S
C93 C92 1.379 . S
C94 C63 1.383 . S
C94 C81 1.479 . S
C94 C95 1.398 . S
C95 C60 1.382 . S
C95 H72 0.951 . S
C95 C94 1.398 . S
C96 C97 1.384 . S
C96 H109 0.947 . S
C96 C131 1.382 . S
C97 C96 1.384 . S
C97 C98 1.378 . S
C98 C97 1.378 . S
C98 C99 1.378 . S
C98 H110 0.952 . S
C99 C98 1.378 . S
C99 H111 0.950 . S
C99 C130 1.383 . S
H100 C119 0.947 . S
H101 C120 0.946 . S
H102 C122 0.953 . S
H103 C123 0.945 . S
H104 C125 0.952 . S
H105 C126 0.949 . S
H106 C128 0.950 . S
H107 C129 0.948 . S
H108 C131 0.951 . S
H109 C96 0.947 . S
H110 C98 0.952 . S
H111 C99 0.950 . S
N112 C115 1.382 . S
N112 C117 1.363 . S
N113 C115 1.371 . S
N113 C116 1.372 . S
N114 C116 1.361 . S
N114 C117 1.377 . S
C115 N112 1.382 . S
C115 N113 1.371 . S
C115 C118 1.480 . S
C116 N113 1.372 . S
C116 N114 1.361 . S
C116 C124 1.457 . S
C117 N112 1.363 . S
C117 N114 1.377 . S
C117 C130 1.479 . S
C118 C115 1.480 . S
C118 C119 1.383 . S
C118 C123 1.385 . S
C119 H100 0.947 . S
C119 C118 1.383 . S
C119 C120 1.388 . S
C120 H101 0.946 . S
C120 C119 1.388 . S
C120 C121 1.384 . S
C121 C120 1.384 . S
C121 C122 1.377 . S
C122 H102 0.953 . S
C122 C121 1.377 . S
C122 C123 1.369 . S
C123 H103 0.945 . S
C123 C118 1.385 . S
C123 C122 1.369 . S
C124 C116 1.457 . S
C124 C125 1.372 . S
C124 C129 1.364 . S
C125 H104 0.952 . S
C125 C124 1.372 . S
C125 C126 1.389 . S
C126 H105 0.949 . S
C126 C125 1.389 . S
C126 C127 1.387 . S
C127 C126 1.387 . S
C127 C128 1.372 . S
C128 H106 0.950 . S
C128 C127 1.372 . S
C128 C129 1.379 . S
C129 H107 0.948 . S
C129 C124 1.364 . S
C129 C128 1.379 . S
C130 C99 1.383 . S
C130 C117 1.479 . S
C130 C131 1.398 . S
C131 C96 1.382 . S
C131 H108 0.951 . S
C131 C130 1.398 . S
C132 C133 1.384 . S
C132 H145 0.947 . S
C132 C167 1.382 . S
C133 C132 1.384 . S
C133 C134 1.378 . S
C134 C133 1.378 . S
C134 C135 1.378 . S
C134 H146 0.952 . S
C135 C134 1.378 . S
C135 H147 0.950 . S
C135 C166 1.383 . S
H136 C155 0.947 . S
H137 C156 0.946 . S
H138 C158 0.953 . S
H139 C159 0.945 . S
H140 C161 0.952 . S
H141 C162 0.949 . S
H142 C164 0.950 . S
H143 C165 0.948 . S
H144 C167 0.951 . S
H145 C132 0.947 . S
H146 C134 0.952 . S
H147 C135 0.950 . S
N148 C151 1.382 . S
N148 C153 1.363 1_455 S
N149 C151 1.371 . S
N149 C152 1.372 . S
N150 C152 1.361 1_655 S
N150 C153 1.377 . S
C151 N148 1.382 . S
C151 N149 1.371 . S
C151 C154 1.480 . S
C152 N149 1.372 . S
C152 N150 1.361 1_455 S
C152 C160 1.457 . S
C153 N148 1.363 1_655 S
C153 N150 1.377 . S
C153 C166 1.479 . S
C154 C151 1.480 . S
C154 C155 1.383 . S
C154 C159 1.385 . S
C155 H136 0.947 . S
C155 C154 1.383 . S
C155 C156 1.388 . S
C156 H137 0.946 . S
C156 C155 1.388 . S
C156 C157 1.384 . S
C157 C156 1.384 . S
C157 C158 1.377 . S
C158 H138 0.953 . S
C158 C157 1.377 . S
C158 C159 1.369 . S
C159 H139 0.945 . S
C159 C154 1.385 . S
C159 C158 1.369 . S
C160 C152 1.457 . S
C160 C161 1.372 . S
C160 C165 1.364 1_455 S
C161 H140 0.952 . S
C161 C160 1.372 . S
C161 C162 1.389 . S
C162 H141 0.949 . S
C162 C161 1.389 . S
C162 C163 1.387 . S
C163 C162 1.387 . S
C163 C164 1.372 1_455 S
C164 H142 0.950 . S
C164 C163 1.372 1_655 S
C164 C165 1.379 . S
C165 H143 0.948 . S
C165 C160 1.364 1_655 S
C165 C164 1.379 . S
C166 C135 1.383 . S
C166 C153 1.479 . S
C166 C167 1.398 . S
C167 C132 1.382 . S
C167 H144 0.951 . S
C167 C166 1.398 . S
C168 C169 1.384 . S
C168 H181 0.947 . S
C168 C203 1.382 . S
C169 C168 1.384 . S
C169 C170 1.378 . S
C170 C169 1.378 . S
C170 C171 1.378 . S
C170 H182 0.952 . S
C171 C170 1.378 . S
C171 H183 0.950 . S
C171 C202 1.383 . S
H172 C191 0.947 . S
H173 C192 0.946 . S
H174 C194 0.953 . S
H175 C195 0.945 . S
H176 C197 0.952 . S
H177 C198 0.949 . S
H178 C200 0.950 . S
H179 C201 0.948 . S
H180 C203 0.951 . S
H181 C168 0.947 . S
H182 C170 0.952 . S
H183 C171 0.950 . S
N184 C187 1.382 1_455 S
N184 C189 1.363 . S
N185 C187 1.371 . S
N185 C188 1.372 1_655 S
N186 C188 1.361 . S
N186 C189 1.377 . S
C187 N184 1.382 1_655 S
C187 N185 1.371 . S
C187 C190 1.480 . S
C188 N185 1.372 1_455 S
C188 N186 1.361 . S
C188 C196 1.457 . S
C189 N184 1.363 . S
C189 N186 1.377 . S
C189 C202 1.479 . S
C190 C187 1.480 . S
C190 C191 1.383 . S
C190 C195 1.385 . S
C191 H172 0.947 . S
C191 C190 1.383 . S
C191 C192 1.388 . S
C192 H173 0.946 . S
C192 C191 1.388 . S
C192 C193 1.384 . S
C193 C192 1.384 . S
C193 C194 1.377 . S
C194 H174 0.953 . S
C194 C193 1.377 . S
C194 C195 1.369 . S
C195 H175 0.945 . S
C195 C190 1.385 . S
C195 C194 1.369 . S
C196 C188 1.457 . S
C196 C197 1.372 1_455 S
C196 C201 1.364 . S
C197 H176 0.952 . S
C197 C196 1.372 1_655 S
C197 C198 1.389 . S
C198 H177 0.949 . S
C198 C197 1.389 . S
C198 C199 1.387 1_655 S
C199 C198 1.387 1_455 S
C199 C200 1.372 . S
C200 H178 0.950 . S
C200 C199 1.372 . S
C200 C201 1.379 . S
C201 H179 0.948 . S
C201 C196 1.364 . S
C201 C200 1.379 . S
C202 C171 1.383 . S
C202 C189 1.479 . S
C202 C203 1.398 . S
C203 C168 1.382 . S
C203 H180 0.951 . S
C203 C202 1.398 . S
C204 C205 1.384 . S
C204 H217 0.947 . S
C204 C239 1.382 . S
C205 C204 1.384 . S
C205 C206 1.378 . S
C206 C205 1.378 . S
C206 C207 1.378 . S
C206 H218 0.952 . S
C207 C206 1.378 . S
C207 H219 0.950 . S
C207 C238 1.383 . S
H208 C227 0.947 . S
H209 C228 0.946 . S
H210 C230 0.953 . S
H211 C231 0.945 . S
H212 C233 0.952 . S
H213 C234 0.949 . S
H214 C236 0.950 . S
H215 C237 0.948 . S
H216 C239 0.951 . S
H217 C204 0.947 . S
H218 C206 0.952 . S
H219 C207 0.950 . S
N220 C223 1.382 1_545 S
N220 C225 1.363 . S
N221 C223 1.371 . S
N221 C224 1.372 1_565 S
N222 C224 1.361 . S
N222 C225 1.377 . S
C223 N220 1.382 1_565 S
C223 N221 1.371 . S
C223 C226 1.480 . S
C224 N221 1.372 1_545 S
C224 N222 1.361 . S
C224 C232 1.457 . S
C225 N220 1.363 . S
C225 N222 1.377 . S
C225 C238 1.479 . S
C226 C223 1.480 . S
C226 C227 1.383 . S
C226 C231 1.385 . S
C227 H208 0.947 . S
C227 C226 1.383 . S
C227 C228 1.388 . S
C228 H209 0.946 . S
C228 C227 1.388 . S
C228 C229 1.384 . S
C229 C228 1.384 . S
C229 C230 1.377 . S
C230 H210 0.953 . S
C230 C229 1.377 . S
C230 C231 1.369 . S
C231 H211 0.945 . S
C231 C226 1.385 . S
C231 C230 1.369 . S
C232 C224 1.457 . S
C232 C233 1.372 1_545 S
C232 C237 1.364 . S
C233 H212 0.952 . S
C233 C232 1.372 1_565 S
C233 C234 1.389 . S
C234 H213 0.949 . S
C234 C233 1.389 . S
C234 C235 1.387 1_565 S
C235 C234 1.387 1_545 S
C235 C236 1.372 . S
C236 H214 0.950 . S
C236 C235 1.372 . S
C236 C237 1.379 . S
C237 H215 0.948 . S
C237 C232 1.364 . S
C237 C236 1.379 . S
C238 C207 1.383 . S
C238 C225 1.479 . S
C238 C239 1.398 . S
C239 C204 1.382 . S
C239 H216 0.951 . S
C239 C238 1.398 . S
C240 C241 1.384 . S
C240 H253 0.947 . S
C240 C275 1.382 . S
C241 C240 1.384 . S
C241 C242 1.378 . S
C242 C241 1.378 . S
C242 C243 1.378 . S
C242 H254 0.952 . S
C243 C242 1.378 . S
C243 H255 0.950 . S
C243 C274 1.383 . S
H244 C263 0.947 . S
H245 C264 0.946 . S
H246 C266 0.953 . S
H247 C267 0.945 . S
H248 C269 0.952 . S
H249 C270 0.949 . S
H250 C272 0.950 . S
H251 C273 0.948 . S
H252 C275 0.951 . S
H253 C240 0.947 . S
H254 C242 0.952 . S
H255 C243 0.950 . S
N256 C259 1.382 . S
N256 C261 1.363 . S
N257 C259 1.371 . S
N257 C260 1.372 . S
N258 C260 1.361 . S
N258 C261 1.377 . S
C259 N256 1.382 . S
C259 N257 1.371 . S
C259 C262 1.480 . S
C260 N257 1.372 . S
C260 N258 1.361 . S
C260 C268 1.457 . S
C261 N256 1.363 . S
C261 N258 1.377 . S
C261 C274 1.479 . S
C262 C259 1.480 . S
C262 C263 1.383 . S
C262 C267 1.385 . S
C263 H244 0.947 . S
C263 C262 1.383 . S
C263 C264 1.388 . S
C264 H245 0.946 . S
C264 C263 1.388 . S
C264 C265 1.384 . S
C265 C264 1.384 . S
C265 C266 1.377 . S
C266 H246 0.953 . S
C266 C265 1.377 . S
C266 C267 1.369 . S
C267 H247 0.945 . S
C267 C262 1.385 . S
C267 C266 1.369 . S
C268 C260 1.457 . S
C268 C269 1.372 . S
C268 C273 1.364 . S
C269 H248 0.952 . S
C269 C268 1.372 . S
C269 C270 1.389 . S
C270 H249 0.949 . S
C270 C269 1.389 . S
C270 C271 1.387 . S
C271 C270 1.387 . S
C271 C272 1.372 . S
C272 H250 0.950 . S
C272 C271 1.372 . S
C272 C273 1.379 . S
C273 H251 0.948 . S
C273 C268 1.364 . S
C273 C272 1.379 . S
C274 C243 1.383 . S
C274 C261 1.479 . S
C274 C275 1.398 . S
C275 C240 1.382 . S
C275 H252 0.951 . S
C275 C274 1.398 . S
C276 C277 1.391 . S
C276 C278 1.394 . S
C276 H292 0.931 . S
C277 C276 1.391 . S
C277 C281 1.376 . S
C278 C276 1.394 . S
C278 C279 1.369 . S
C278 C282 1.531 . S
C279 C278 1.369 . S
C279 C280 1.410 . S
C279 C287 1.503 . S
C280 C279 1.410 . S
C280 C281 1.392 . S
C280 C283 1.511 . S
C281 C277 1.376 . S
C281 C280 1.392 . S
C281 H293 0.929 . S
C282 C278 1.531 . S
C282 H294 0.960 . S
C282 H295 0.962 . S
C282 H296 0.960 . S
C283 C280 1.511 . S
C283 H297 0.961 . S
C283 H298 0.961 . S
C283 H299 0.961 . S
C284 C285 1.370 . S
C284 C286 1.363 . S
C284 H300 0.931 . S
C285 C284 1.370 . S
C285 C289 1.408 . S
C286 C284 1.363 . S
C286 C287 1.370 . S
C286 C290 1.524 . S
C287 C279 1.503 . S
C287 C286 1.370 . S
C287 C288 1.403 . S
C288 C287 1.403 . S
C288 C289 1.404 . S
C288 C291 1.539 . S
C289 C285 1.408 . S
C289 C288 1.404 . S
C289 H301 0.930 . S
C290 C286 1.524 . S
C290 H302 0.956 . S
C290 H303 0.961 . S
C290 H304 0.961 . S
C291 C288 1.539 . S
C291 H305 0.958 . S
C291 H306 0.961 . S
C291 H307 0.960 . S
H292 C276 0.931 . S
H293 C281 0.929 . S
H294 C282 0.960 . S
H295 C282 0.962 . S
H296 C282 0.960 . S
H297 C283 0.961 . S
H298 C283 0.961 . S
H299 C283 0.961 . S
H300 C284 0.931 . S
H301 C289 0.930 . S
H302 C290 0.956 . S
H303 C290 0.961 . S
H304 C290 0.961 . S
H305 C291 0.958 . S
H306 C291 0.961 . S
H307 C291 0.960 . S
C308 C309 1.391 . S
C308 C310 1.394 . S
C308 H324 0.931 . S
C309 C308 1.391 . S
C309 C313 1.376 . S
C310 C308 1.394 . S
C310 C311 1.369 . S
C310 C314 1.531 . S
C311 C310 1.369 . S
C311 C312 1.410 . S
C311 C319 1.503 . S
C312 C311 1.410 . S
C312 C313 1.392 . S
C312 C315 1.511 . S
C313 C309 1.376 . S
C313 C312 1.392 . S
C313 H325 0.929 . S
C314 C310 1.531 . S
C314 H326 0.960 . S
C314 H327 0.962 . S
C314 H328 0.960 . S
C315 C312 1.511 . S
C315 H329 0.961 . S
C315 H330 0.961 . S
C315 H331 0.961 . S
C316 C317 1.370 . S
C316 C318 1.363 . S
C316 H332 0.931 . S
C317 C316 1.370 . S
C317 C321 1.408 . S
C318 C316 1.363 . S
C318 C319 1.370 . S
C318 C322 1.524 . S
C319 C311 1.503 . S
C319 C318 1.370 . S
C319 C320 1.403 . S
C320 C319 1.403 . S
C320 C321 1.404 . S
C320 C323 1.539 . S
C321 C317 1.408 . S
C321 C320 1.404 . S
C321 H333 0.930 . S
C322 C318 1.524 . S
C322 H334 0.956 . S
C322 H335 0.961 . S
C322 H336 0.961 . S
C323 C320 1.539 . S
C323 H337 0.958 . S
C323 H338 0.961 . S
C323 H339 0.960 . S
H324 C308 0.931 . S
H325 C313 0.929 . S
H326 C314 0.960 . S
H327 C314 0.962 . S
H328 C314 0.960 . S
H329 C315 0.961 . S
H330 C315 0.961 . S
H331 C315 0.961 . S
H332 C316 0.931 . S
H333 C321 0.930 . S
H334 C322 0.956 . S
H335 C322 0.961 . S
H336 C322 0.961 . S
H337 C323 0.958 . S
H338 C323 0.961 . S
H339 C323 0.960 . S
C340 C341 1.391 . S
C340 C342 1.394 . S
C340 H356 0.931 . S
C341 C340 1.391 . S
C341 C345 1.376 . S
C342 C340 1.394 . S
C342 C343 1.369 . S
C342 C346 1.531 . S
C343 C342 1.369 . S
C343 C344 1.410 . S
C343 C351 1.503 . S
C344 C343 1.410 . S
C344 C345 1.392 . S
C344 C347 1.511 . S
C345 C341 1.376 . S
C345 C344 1.392 . S
C345 H357 0.929 . S
C346 C342 1.531 . S
C346 H358 0.960 . S
C346 H359 0.962 . S
C346 H360 0.960 . S
C347 C344 1.511 . S
C347 H361 0.961 . S
C347 H362 0.961 . S
C347 H363 0.961 . S
C348 C349 1.370 . S
C348 C350 1.363 . S
C348 H364 0.931 . S
C349 C348 1.370 . S
C349 C353 1.408 . S
C350 C348 1.363 . S
C350 C351 1.370 . S
C350 C354 1.524 . S
C351 C343 1.503 . S
C351 C350 1.370 . S
C351 C352 1.403 . S
C352 C351 1.403 . S
C352 C353 1.404 . S
C352 C355 1.539 . S
C353 C349 1.408 . S
C353 C352 1.404 . S
C353 H365 0.930 . S
C354 C350 1.524 . S
C354 H366 0.956 . S
C354 H367 0.961 . S
C354 H368 0.961 . S
C355 C352 1.539 . S
C355 H369 0.958 . S
C355 H370 0.961 . S
C355 H371 0.960 . S
H356 C340 0.931 . S
H357 C345 0.929 . S
H358 C346 0.960 . S
H359 C346 0.962 . S
H360 C346 0.960 . S
H361 C347 0.961 . S
H362 C347 0.961 . S
H363 C347 0.961 . S
H364 C348 0.931 . S
H365 C353 0.930 . S
H366 C354 0.956 . S
H367 C354 0.961 . S
H368 C354 0.961 . S
H369 C355 0.958 . S
H370 C355 0.961 . S
H371 C355 0.960 . S
C372 C373 1.391 . S
C372 C374 1.394 . S
C372 H388 0.931 . S
C373 C372 1.391 . S
C373 C377 1.376 . S
C374 C372 1.394 . S
C374 C375 1.369 . S
C374 C378 1.531 . S
C375 C374 1.369 . S
C375 C376 1.410 . S
C375 C383 1.503 . S
C376 C375 1.410 . S
C376 C377 1.392 . S
C376 C379 1.511 . S
C377 C373 1.376 . S
C377 C376 1.392 . S
C377 H389 0.929 . S
C378 C374 1.531 . S
C378 H390 0.960 . S
C378 H391 0.962 . S
C378 H392 0.960 . S
C379 C376 1.511 . S
C379 H393 0.961 . S
C379 H394 0.961 . S
C379 H395 0.961 . S
C380 C381 1.370 . S
C380 C382 1.363 . S
C380 H396 0.931 . S
C381 C380 1.370 . S
C381 C385 1.408 . S
C382 C380 1.363 . S
C382 C383 1.370 . S
C382 C386 1.524 . S
C383 C375 1.503 . S
C383 C382 1.370 . S
C383 C384 1.403 . S
C384 C383 1.403 . S
C384 C385 1.404 . S
C384 C387 1.539 . S
C385 C381 1.408 . S
C385 C384 1.404 . S
C385 H397 0.930 . S
C386 C382 1.524 . S
C386 H398 0.956 . S
C386 H399 0.961 . S
C386 H400 0.961 . S
C387 C384 1.539 . S
C387 H401 0.958 . S
C387 H402 0.961 . S
C387 H403 0.960 . S
H388 C372 0.931 . S
H389 C377 0.929 . S
H390 C378 0.960 . S
H391 C378 0.962 . S
H392 C378 0.960 . S
H393 C379 0.961 . S
H394 C379 0.961 . S
H395 C379 0.961 . S
H396 C380 0.931 . S
H397 C385 0.930 . S
H398 C386 0.956 . S
H399 C386 0.961 . S
H400 C386 0.961 . S
H401 C387 0.958 . S
H402 C387 0.961 . S
H403 C387 0.960 . S
C404 C405 1.391 . S
C404 C406 1.394 . S
C404 H420 0.931 . S
C405 C404 1.391 . S
C405 C409 1.376 . S
C406 C404 1.394 . S
C406 C407 1.369 . S
C406 C410 1.531 . S
C407 C406 1.369 . S
C407 C408 1.410 . S
C407 C415 1.503 . S
C408 C407 1.410 . S
C408 C409 1.392 . S
C408 C411 1.511 . S
C409 C405 1.376 . S
C409 C408 1.392 . S
C409 H421 0.929 . S
C410 C406 1.531 . S
C410 H422 0.960 . S
C410 H423 0.962 . S
C410 H424 0.960 . S
C411 C408 1.511 . S
C411 H425 0.961 . S
C411 H426 0.961 . S
C411 H427 0.961 . S
C412 C413 1.370 . S
C412 C414 1.363 . S
C412 H428 0.931 . S
C413 C412 1.370 . S
C413 C417 1.408 . S
C414 C412 1.363 . S
C414 C415 1.370 . S
C414 C418 1.524 . S
C415 C407 1.503 . S
C415 C414 1.370 . S
C415 C416 1.403 . S
C416 C415 1.403 . S
C416 C417 1.404 . S
C416 C419 1.539 . S
C417 C413 1.408 . S
C417 C416 1.404 . S
C417 H429 0.930 . S
C418 C414 1.524 . S
C418 H430 0.956 . S
C418 H431 0.961 . S
C418 H432 0.961 . S
C419 C416 1.539 . S
C419 H433 0.958 . S
C419 H434 0.961 . S
C419 H435 0.960 . S
H420 C404 0.931 . S
H421 C409 0.929 . S
H422 C410 0.960 . S
H423 C410 0.962 . S
H424 C410 0.960 . S
H425 C411 0.961 . S
H426 C411 0.961 . S
H427 C411 0.961 . S
H428 C412 0.931 . S
H429 C417 0.930 . S
H430 C418 0.956 . S
H431 C418 0.961 . S
H432 C418 0.961 . S
H433 C419 0.958 . S
H434 C419 0.961 . S
H435 C419 0.960 . S
C436 C437 1.391 . S
C436 C438 1.394 . S
C436 H452 0.931 . S
C437 C436 1.391 . S
C437 C441 1.376 . S
C438 C436 1.394 . S
C438 C439 1.369 . S
C438 C442 1.531 . S
C439 C438 1.369 . S
C439 C440 1.410 . S
C439 C447 1.503 . S
C440 C439 1.410 . S
C440 C441 1.392 . S
C440 C443 1.511 . S
C441 C437 1.376 . S
C441 C440 1.392 . S
C441 H453 0.929 . S
C442 C438 1.531 . S
C442 H454 0.960 . S
C442 H455 0.962 . S
C442 H456 0.960 . S
C443 C440 1.511 . S
C443 H457 0.961 . S
C443 H458 0.961 . S
C443 H459 0.961 . S
C444 C445 1.370 . S
C444 C446 1.363 . S
C444 H460 0.931 . S
C445 C444 1.370 . S
C445 C449 1.408 . S
C446 C444 1.363 . S
C446 C447 1.370 . S
C446 C450 1.524 . S
C447 C439 1.503 . S
C447 C446 1.370 . S
C447 C448 1.403 . S
C448 C447 1.403 . S
C448 C449 1.404 . S
C448 C451 1.539 . S
C449 C445 1.408 . S
C449 C448 1.404 . S
C449 H461 0.930 . S
C450 C446 1.524 . S
C450 H462 0.956 . S
C450 H463 0.961 . S
C450 H464 0.961 . S
C451 C448 1.539 . S
C451 H465 0.958 . S
C451 H466 0.961 . S
C451 H467 0.960 . S
H452 C436 0.931 . S
H453 C441 0.929 . S
H454 C442 0.960 . S
H455 C442 0.962 . S
H456 C442 0.960 . S
H457 C443 0.961 . S
H458 C443 0.961 . S
H459 C443 0.961 . S
H460 C444 0.931 . S
H461 C449 0.930 . S
H462 C450 0.956 . S
H463 C450 0.961 . S
H464 C450 0.961 . S
H465 C451 0.958 . S
H466 C451 0.961 . S
H467 C451 0.960 . S
C468 C469 1.391 . S
C468 C470 1.394 . S
C468 H484 0.931 . S
C469 C468 1.391 . S
C469 C473 1.376 . S
C470 C468 1.394 . S
C470 C471 1.369 . S
C470 C474 1.531 . S
C471 C470 1.369 . S
C471 C472 1.410 . S
C471 C479 1.503 . S
C472 C471 1.410 . S
C472 C473 1.392 . S
C472 C475 1.511 . S
C473 C469 1.376 . S
C473 C472 1.392 . S
C473 H485 0.929 . S
C474 C470 1.531 . S
C474 H486 0.960 . S
C474 H487 0.962 . S
C474 H488 0.960 . S
C475 C472 1.511 . S
C475 H489 0.961 . S
C475 H490 0.961 . S
C475 H491 0.961 . S
C476 C477 1.370 . S
C476 C478 1.363 . S
C476 H492 0.931 . S
C477 C476 1.370 . S
C477 C481 1.408 . S
C478 C476 1.363 . S
C478 C479 1.370 . S
C478 C482 1.524 . S
C479 C471 1.503 . S
C479 C478 1.370 . S
C479 C480 1.403 . S
C480 C479 1.403 . S
C480 C481 1.404 . S
C480 C483 1.539 . S
C481 C477 1.408 . S
C481 C480 1.404 . S
C481 H493 0.930 . S
C482 C478 1.524 . S
C482 H494 0.956 . S
C482 H495 0.961 . S
C482 H496 0.961 . S
C483 C480 1.539 . S
C483 H497 0.958 . S
C483 H498 0.961 . S
C483 H499 0.960 . S
H484 C468 0.931 . S
H485 C473 0.929 . S
H486 C474 0.960 . S
H487 C474 0.962 . S
H488 C474 0.960 . S
H489 C475 0.961 . S
H490 C475 0.961 . S
H491 C475 0.961 . S
H492 C476 0.931 . S
H493 C481 0.930 . S
H494 C482 0.956 . S
H495 C482 0.961 . S
H496 C482 0.961 . S
H497 C483 0.958 . S
H498 C483 0.961 . S
H499 C483 0.960 . S
C500 C501 1.391 . S
C500 C502 1.394 . S
C500 H516 0.931 . S
C501 C500 1.391 . S
C501 C505 1.376 . S
C502 C500 1.394 . S
C502 C503 1.369 . S
C502 C506 1.531 . S
C503 C502 1.369 . S
C503 C504 1.410 . S
C503 C511 1.503 . S
C504 C503 1.410 . S
C504 C505 1.392 . S
C504 C507 1.511 . S
C505 C501 1.376 . S
C505 C504 1.392 . S
C505 H517 0.929 . S
C506 C502 1.531 . S
C506 H518 0.960 . S
C506 H519 0.962 . S
C506 H520 0.960 . S
C507 C504 1.511 . S
C507 H521 0.961 . S
C507 H522 0.961 . S
C507 H523 0.961 . S
C508 C509 1.370 . S
C508 C510 1.363 . S
C508 H524 0.931 . S
C509 C508 1.370 . S
C509 C513 1.408 . S
C510 C508 1.363 . S
C510 C511 1.370 . S
C510 C514 1.524 . S
C511 C503 1.503 . S
C511 C510 1.370 . S
C511 C512 1.403 . S
C512 C511 1.403 . S
C512 C513 1.404 . S
C512 C515 1.539 . S
C513 C509 1.408 . S
C513 C512 1.404 . S
C513 H525 0.930 . S
C514 C510 1.524 . S
C514 H526 0.956 . S
C514 H527 0.961 . S
C514 H528 0.961 . S
C515 C512 1.539 . S
C515 H529 0.958 . S
C515 H530 0.961 . S
C515 H531 0.960 . S
H516 C500 0.931 . S
H517 C505 0.929 . S
H518 C506 0.960 . S
H519 C506 0.962 . S
H520 C506 0.960 . S
H521 C507 0.961 . S
H522 C507 0.961 . S
H523 C507 0.961 . S
H524 C508 0.931 . S
H525 C513 0.930 . S
H526 C514 0.956 . S
H527 C514 0.961 . S
H528 C514 0.961 . S
H529 C515 0.958 . S
H530 C515 0.961 . S
H531 C515 0.960 . S
C532 C533 1.391 . S
C532 C534 1.394 . S
C532 H548 0.931 . S
C533 C532 1.391 . S
C533 C537 1.376 . S
C534 C532 1.394 . S
C534 C535 1.369 . S
C534 C538 1.531 . S
C535 C534 1.369 . S
C535 C536 1.410 . S
C535 C543 1.503 . S
C536 C535 1.410 . S
C536 C537 1.392 . S
C536 C539 1.511 . S
C537 C533 1.376 . S
C537 C536 1.392 . S
C537 H549 0.929 . S
C538 C534 1.531 . S
C538 H550 0.960 . S
C538 H551 0.962 . S
C538 H552 0.960 . S
C539 C536 1.511 . S
C539 H553 0.961 . S
C539 H554 0.961 . S
C539 H555 0.961 . S
C540 C541 1.370 . S
C540 C542 1.363 . S
C540 H556 0.931 . S
C541 C540 1.370 . S
C541 C545 1.408 . S
C542 C540 1.363 . S
C542 C543 1.370 . S
C542 C546 1.524 . S
C543 C535 1.503 . S
C543 C542 1.370 . S
C543 C544 1.403 . S
C544 C543 1.403 . S
C544 C545 1.404 . S
C544 C547 1.539 . S
C545 C541 1.408 . S
C545 C544 1.404 . S
C545 H557 0.930 . S
C546 C542 1.524 . S
C546 H558 0.956 . S
C546 H559 0.961 . S
C546 H560 0.961 . S
C547 C544 1.539 . S
C547 H561 0.958 . S
C547 H562 0.961 . S
C547 H563 0.960 . S
H548 C532 0.931 . S
H549 C537 0.929 . S
H550 C538 0.960 . S
H551 C538 0.962 . S
H552 C538 0.960 . S
H553 C539 0.961 . S
H554 C539 0.961 . S
H555 C539 0.961 . S
H556 C540 0.931 . S
H557 C545 0.930 . S
H558 C546 0.956 . S
H559 C546 0.961 . S
H560 C546 0.961 . S
H561 C547 0.958 . S
H562 C547 0.961 . S
H563 C547 0.960 . S
C564 C565 1.391 . S
C564 C566 1.394 . S
C564 H580 0.931 . S
C565 C564 1.391 . S
C565 C569 1.376 . S
C566 C564 1.394 . S
C566 C567 1.369 . S
C566 C570 1.531 . S
C567 C566 1.369 . S
C567 C568 1.410 . S
C567 C575 1.503 . S
C568 C567 1.410 . S
C568 C569 1.392 . S
C568 C571 1.511 . S
C569 C565 1.376 . S
C569 C568 1.392 . S
C569 H581 0.929 . S
C570 C566 1.531 . S
C570 H582 0.960 . S
C570 H583 0.962 . S
C570 H584 0.960 . S
C571 C568 1.511 . S
C571 H585 0.961 . S
C571 H586 0.961 . S
C571 H587 0.961 . S
C572 C573 1.370 . S
C572 C574 1.363 . S
C572 H588 0.931 . S
C573 C572 1.370 . S
C573 C577 1.408 . S
C574 C572 1.363 . S
C574 C575 1.370 . S
C574 C578 1.524 . S
C575 C567 1.503 . S
C575 C574 1.370 . S
C575 C576 1.403 . S
C576 C575 1.403 . S
C576 C577 1.404 . S
C576 C579 1.539 . S
C577 C573 1.408 . S
C577 C576 1.404 . S
C577 H589 0.930 . S
C578 C574 1.524 . S
C578 H590 0.956 . S
C578 H591 0.961 . S
C578 H592 0.961 . S
C579 C576 1.539 . S
C579 H593 0.958 . S
C579 H594 0.961 . S
C579 H595 0.960 . S
H580 C564 0.931 . S
H581 C569 0.929 . S
H582 C570 0.960 . S
H583 C570 0.962 . S
H584 C570 0.960 . S
H585 C571 0.961 . S
H586 C571 0.961 . S
H587 C571 0.961 . S
H588 C572 0.931 . S
H589 C577 0.930 . S
H590 C578 0.956 . S
H591 C578 0.961 . S
H592 C578 0.961 . S
H593 C579 0.958 . S
H594 C579 0.961 . S
H595 C579 0.960 . S
C596 C597 1.391 . S
C596 C598 1.394 . S
C596 H612 0.931 . S
C597 C596 1.391 . S
C597 C601 1.376 . S
C598 C596 1.394 . S
C598 C599 1.369 . S
C598 C602 1.531 . S
C599 C598 1.369 . S
C599 C600 1.410 . S
C599 C607 1.503 . S
C600 C599 1.410 . S
C600 C601 1.392 . S
C600 C603 1.511 . S
C601 C597 1.376 . S
C601 C600 1.392 . S
C601 H613 0.929 . S
C602 C598 1.531 . S
C602 H614 0.960 . S
C602 H615 0.962 . S
C602 H616 0.960 . S
C603 C600 1.511 . S
C603 H617 0.961 . S
C603 H618 0.961 . S
C603 H619 0.961 . S
C604 C605 1.370 . S
C604 C606 1.363 . S
C604 H620 0.931 . S
C605 C604 1.370 . S
C605 C609 1.408 . S
C606 C604 1.363 . S
C606 C607 1.370 . S
C606 C610 1.524 . S
C607 C599 1.503 . S
C607 C606 1.370 . S
C607 C608 1.403 . S
C608 C607 1.403 . S
C608 C609 1.404 . S
C608 C611 1.539 . S
C609 C605 1.408 . S
C609 C608 1.404 . S
C609 H621 0.930 . S
C610 C606 1.524 . S
C610 H622 0.956 . S
C610 H623 0.961 . S
C610 H624 0.961 . S
C611 C608 1.539 . S
C611 H625 0.958 . S
C611 H626 0.961 . S
C611 H627 0.960 . S
H612 C596 0.931 . S
H613 C601 0.929 . S
H614 C602 0.960 . S
H615 C602 0.962 . S
H616 C602 0.960 . S
H617 C603 0.961 . S
H618 C603 0.961 . S
H619 C603 0.961 . S
H620 C604 0.931 . S
H621 C609 0.930 . S
H622 C610 0.956 . S
H623 C610 0.961 . S
H624 C610 0.961 . S
H625 C611 0.958 . S
H626 C611 0.961 . S
H627 C611 0.960 . S
C628 C629 1.391 . S
C628 C630 1.394 . S
C628 H644 0.931 . S
C629 C628 1.391 . S
C629 C633 1.376 . S
C630 C628 1.394 . S
C630 C631 1.369 . S
C630 C634 1.531 . S
C631 C630 1.369 . S
C631 C632 1.410 . S
C631 C639 1.503 . S
C632 C631 1.410 . S
C632 C633 1.392 . S
C632 C635 1.511 . S
C633 C629 1.376 . S
C633 C632 1.392 . S
C633 H645 0.929 . S
C634 C630 1.531 . S
C634 H646 0.960 . S
C634 H647 0.962 . S
C634 H648 0.960 . S
C635 C632 1.511 . S
C635 H649 0.961 . S
C635 H650 0.961 . S
C635 H651 0.961 . S
C636 C637 1.370 . S
C636 C638 1.363 . S
C636 H652 0.931 . S
C637 C636 1.370 . S
C637 C641 1.408 . S
C638 C636 1.363 . S
C638 C639 1.370 . S
C638 C642 1.524 . S
C639 C631 1.503 . S
C639 C638 1.370 . S
C639 C640 1.403 . S
C640 C639 1.403 . S
C640 C641 1.404 . S
C640 C643 1.539 . S
C641 C637 1.408 . S
C641 C640 1.404 . S
C641 H653 0.930 . S
C642 C638 1.524 . S
C642 H654 0.956 . S
C642 H655 0.961 . S
C642 H656 0.961 . S
C643 C640 1.539 . S
C643 H657 0.958 . S
C643 H658 0.961 . S
C643 H659 0.960 . S
H644 C628 0.931 . S
H645 C633 0.929 . S
H646 C634 0.960 . S
H647 C634 0.962 . S
H648 C634 0.960 . S
H649 C635 0.961 . S
H650 C635 0.961 . S
H651 C635 0.961 . S
H652 C636 0.931 . S
H653 C641 0.930 . S
H654 C642 0.956 . S
H655 C642 0.961 . S
H656 C642 0.961 . S
H657 C643 0.958 . S
H658 C643 0.961 . S
H659 C643 0.960 . S
C660 C661 1.391 . S
C660 C662 1.394 . S
C660 H676 0.931 . S
C661 C660 1.391 . S
C661 C665 1.376 1_455 S
C662 C660 1.394 . S
C662 C663 1.369 . S
C662 C666 1.531 . S
C663 C662 1.369 . S
C663 C664 1.410 1_455 S
C663 C671 1.503 . S
C664 C663 1.410 1_655 S
C664 C665 1.392 . S
C664 C667 1.511 . S
C665 C661 1.376 1_655 S
C665 C664 1.392 . S
C665 H677 0.929 . S
C666 C662 1.531 . S
C666 H678 0.960 . S
C666 H679 0.962 . S
C666 H680 0.960 . S
C667 C664 1.511 . S
C667 H681 0.961 . S
C667 H682 0.961 . S
C667 H683 0.961 . S
C668 C669 1.370 . S
C668 C670 1.363 . S
C668 H684 0.931 . S
C669 C668 1.370 . S
C669 C673 1.415 . S
C670 C668 1.363 . S
C670 C671 1.370 . S
C670 C674 1.524 . S
C671 C663 1.503 . S
C671 C670 1.370 . S
C671 C672 1.403 1_455 S
C672 C671 1.403 1_655 S
C672 C673 1.401 1_655 S
C672 C675 1.539 . S
C673 C669 1.415 . S
C673 C672 1.401 1_455 S
C673 H685 0.901 1_454 S
C674 C670 1.524 . S
C674 H686 0.956 . S
C674 H687 0.961 . S
C674 H688 0.961 . S
C675 C672 1.539 . S
C675 H689 0.958 . S
C675 H690 0.961 . S
C675 H691 0.960 . S
H676 C660 0.931 . S
H677 C665 0.929 . S
H678 C666 0.960 . S
H679 C666 0.962 . S
H680 C666 0.960 . S
H681 C667 0.961 . S
H682 C667 0.961 . S
H683 C667 0.961 . S
H684 C668 0.931 . S
H685 C673 0.901 1_656 S
H686 C674 0.956 . S
H687 C674 0.961 . S
H688 C674 0.961 . S
H689 C675 0.958 . S
H690 C675 0.961 . S
H691 C675 0.960 . S
C692 C693 1.391 1_565 S
C692 C694 1.394 . S
C692 H708 0.931 . S
C693 C692 1.391 1_545 S
C693 C697 1.376 . S
C694 C692 1.394 . S
C694 C695 1.369 1_565 S
C694 C698 1.531 . S
C695 C694 1.369 1_545 S
C695 C696 1.410 . S
C695 C703 1.503 . S
C696 C695 1.410 . S
C696 C697 1.392 . S
C696 C699 1.511 . S
C697 C693 1.376 . S
C697 C696 1.392 . S
C697 H709 0.929 . S
C698 C694 1.531 . S
C698 H710 0.960 . S
C698 H711 0.962 . S
C698 H712 0.960 . S
C699 C696 1.511 . S
C699 H713 0.961 . S
C699 H714 0.961 . S
C699 H715 0.961 . S
C700 C701 1.370 . S
C700 C702 1.363 . S
C700 H716 0.931 . S
C701 C700 1.370 . S
C701 C705 1.408 1_545 S
C702 C700 1.363 . S
C702 C703 1.370 . S
C702 C706 1.524 . S
C703 C695 1.503 . S
C703 C702 1.370 . S
C703 C704 1.403 1_545 S
C704 C703 1.403 1_565 S
C704 C705 1.404 . S
C704 C707 1.539 . S
C705 C701 1.408 1_565 S
C705 C704 1.404 . S
C705 H717 0.930 . S
C706 C702 1.524 . S
C706 H718 0.956 . S
C706 H719 0.961 . S
C706 H720 0.961 . S
C707 C704 1.539 . S
C707 H721 0.958 . S
C707 H722 0.961 . S
C707 H723 0.960 . S
H708 C692 0.931 . S
H709 C697 0.929 . S
H710 C698 0.960 . S
H711 C698 0.962 . S
H712 C698 0.960 . S
H713 C699 0.961 . S
H714 C699 0.961 . S
H715 C699 0.961 . S
H716 C700 0.931 . S
H717 C705 0.930 . S
H718 C706 0.956 . S
H719 C706 0.961 . S
H720 C706 0.961 . S
H721 C707 0.958 . S
H722 C707 0.961 . S
H723 C707 0.960 . S
C724 C725 1.391 . S
C724 C726 1.394 . S
C724 H740 0.931 . S
C725 C724 1.391 . S
C725 C729 1.376 . S
C726 C724 1.394 . S
C726 C727 1.369 . S
C726 C730 1.531 . S
C727 C726 1.369 . S
C727 C728 1.410 . S
C727 C735 1.503 . S
C728 C727 1.410 . S
C728 C729 1.392 . S
C728 C731 1.511 . S
C729 C725 1.376 . S
C729 C728 1.392 . S
C729 H741 0.929 . S
C730 C726 1.531 . S
C730 H742 0.960 . S
C730 H743 0.962 . S
C730 H744 0.960 . S
C731 C728 1.511 . S
C731 H745 0.961 . S
C731 H746 0.961 . S
C731 H747 0.961 . S
C732 C733 1.370 . S
C732 C734 1.363 . S
C732 H748 0.931 . S
C733 C732 1.370 . S
C733 C737 1.408 . S
C734 C732 1.363 . S
C734 C735 1.370 . S
C734 C738 1.524 . S
C735 C727 1.503 . S
C735 C734 1.370 . S
C735 C736 1.403 . S
C736 C735 1.403 . S
C736 C737 1.404 . S
C736 C739 1.539 . S
C737 C733 1.408 . S
C737 C736 1.404 . S
C737 H749 0.930 . S
C738 C734 1.524 . S
C738 H750 0.956 . S
C738 H751 0.961 . S
C738 H752 0.961 . S
C739 C736 1.539 . S
C739 H753 0.958 . S
C739 H754 0.961 . S
C739 H755 0.960 . S
H740 C724 0.931 . S
H741 C729 0.929 . S
H742 C730 0.960 . S
H743 C730 0.962 . S
H744 C730 0.960 . S
H745 C731 0.961 . S
H746 C731 0.961 . S
H747 C731 0.961 . S
H748 C732 0.931 . S
H749 C737 0.930 . S
H750 C738 0.956 . S
H751 C738 0.961 . S
H752 C738 0.961 . S
H753 C739 0.958 . S
H754 C739 0.961 . S
H755 C739 0.960 . S
C756 C757 1.391 1_565 S
C756 C758 1.394 . S
C756 H772 0.931 . S
C757 C756 1.391 1_545 S
C757 C761 1.376 . S
C758 C756 1.394 . S
C758 C759 1.369 1_565 S
C758 C762 1.531 . S
C759 C758 1.369 1_545 S
C759 C760 1.410 . S
C759 C767 1.503 . S
C760 C759 1.410 . S
C760 C761 1.392 . S
C760 C763 1.511 . S
C761 C757 1.376 . S
C761 C760 1.392 . S
C761 H773 0.929 . S
C762 C758 1.531 . S
C762 H774 0.960 . S
C762 H775 0.962 . S
C762 H776 0.960 . S
C763 C760 1.511 . S
C763 H777 0.961 . S
C763 H778 0.961 . S
C763 H779 0.961 . S
C764 C765 1.370 . S
C764 C766 1.363 . S
C764 H780 0.931 . S
C765 C764 1.370 . S
C765 C769 1.408 1_545 S
C766 C764 1.363 . S
C766 C767 1.370 . S
C766 C770 1.524 . S
C767 C759 1.503 . S
C767 C766 1.370 . S
C767 C768 1.403 1_545 S
C768 C767 1.403 1_565 S
C768 C769 1.404 . S
C768 C771 1.539 . S
C769 C765 1.408 1_565 S
C769 C768 1.404 . S
C769 H781 0.930 . S
C770 C766 1.524 . S
C770 H782 0.956 . S
C770 H783 0.961 . S
C770 H784 0.961 . S
C771 C768 1.539 . S
C771 H785 0.958 . S
C771 H786 0.961 . S
C771 H787 0.960 . S
H772 C756 0.931 . S
H773 C761 0.929 . S
H774 C762 0.960 . S
H775 C762 0.962 . S
H776 C762 0.960 . S
H777 C763 0.961 . S
H778 C763 0.961 . S
H779 C763 0.961 . S
H780 C764 0.931 . S
H781 C769 0.930 . S
H782 C770 0.956 . S
H783 C770 0.961 . S
H784 C770 0.961 . S
H785 C771 0.958 . S
H786 C771 0.961 . S
H787 C771 0.960 . S
C788 C789 1.391 . S
C788 C790 1.394 . S
C788 H804 0.931 . S
C789 C788 1.391 . S
C789 C793 1.376 . S
C790 C788 1.394 . S
C790 C791 1.369 . S
C790 C794 1.531 . S
C791 C790 1.369 . S
C791 C792 1.410 . S
C791 C799 1.503 . S
C792 C791 1.410 . S
C792 C793 1.392 . S
C792 C795 1.511 . S
C793 C789 1.376 . S
C793 C792 1.392 . S
C793 H805 0.929 . S
C794 C790 1.531 . S
C794 H806 0.960 . S
C794 H807 0.962 . S
C794 H808 0.960 . S
C795 C792 1.511 . S
C795 H809 0.961 . S
C795 H810 0.961 . S
C795 H811 0.961 . S
C796 C797 1.370 . S
C796 C798 1.363 . S
C796 H812 0.931 . S
C797 C796 1.370 . S
C797 C801 1.408 . S
C798 C796 1.363 . S
C798 C799 1.370 . S
C798 C802 1.524 . S
C799 C791 1.503 . S
C799 C798 1.370 . S
C799 C800 1.403 . S
C800 C799 1.403 . S
C800 C801 1.404 . S
C800 C803 1.539 . S
C801 C797 1.408 . S
C801 C800 1.404 . S
C801 H813 0.930 . S
C802 C798 1.524 . S
C802 H814 0.956 . S
C802 H815 0.961 . S
C802 H816 0.961 . S
C803 C800 1.539 . S
C803 H817 0.958 . S
C803 H818 0.961 . S
C803 H819 0.960 . S
H804 C788 0.931 . S
H805 C793 0.929 . S
H806 C794 0.960 . S
H807 C794 0.962 . S
H808 C794 0.960 . S
H809 C795 0.961 . S
H810 C795 0.961 . S
H811 C795 0.961 . S
H812 C796 0.931 . S
H813 C801 0.930 . S
H814 C802 0.956 . S
H815 C802 0.961 . S
H816 C802 0.961 . S
H817 C803 0.958 . S
H818 C803 0.961 . S
H819 C803 0.960 . S
C820 C821 1.393 . S
C820 C822 1.394 . S
C820 H836 0.931 . S
C821 C820 1.393 . S
C821 C825 1.374 1_455 S
C822 C820 1.394 . S
C822 C823 1.369 . S
C822 C826 1.531 . S
C823 C822 1.369 . S
C823 C824 1.410 1_455 S
C823 C831 1.503 . S
C824 C823 1.410 1_655 S
C824 C825 1.392 . S
C824 C827 1.511 . S
C825 C821 1.374 1_655 S
C825 C824 1.392 . S
C825 H837 0.929 . S
C826 C822 1.531 . S
C826 H838 0.960 . S
C826 H839 0.962 . S
C826 H840 0.960 . S
C827 C824 1.511 . S
C827 H841 0.961 . S
C827 H842 0.961 . S
C827 H843 0.961 . S
C828 C829 1.370 1_655 S
C828 C830 1.363 . S
C828 H844 0.931 . S
C829 C828 1.370 1_455 S
C829 C833 1.408 . S
C830 C828 1.363 . S
C830 C831 1.370 1_655 S
C830 C834 1.524 . S
C831 C823 1.503 . S
C831 C830 1.370 1_455 S
C831 C832 1.403 . S
C832 C831 1.403 . S
C832 C833 1.404 . S
C832 C835 1.539 . S
C833 C829 1.408 . S
C833 C832 1.404 . S
C833 H845 0.930 . S
C834 C830 1.524 . S
C834 H846 0.956 1_655 S
C834 H847 0.961 . S
C834 H848 0.961 . S
C835 C832 1.539 . S
C835 H849 0.958 . S
C835 H850 0.961 . S
C835 H851 0.960 . S
H836 C820 0.931 . S
H837 C825 0.929 . S
H838 C826 0.960 . S
H839 C826 0.962 . S
H840 C826 0.960 . S
H841 C827 0.961 . S
H842 C827 0.961 . S
H843 C827 0.961 . S
H844 C828 0.931 . S
H845 C833 0.930 . S
H846 C834 0.956 1_455 S
H847 C834 0.961 . S
H848 C834 0.961 . S
H849 C835 0.958 . S
H850 C835 0.961 . S
H851 C835 0.960 . S
C277 C2 1.332 . S
C285 C265 1.427 . S
C309 C22 1.349 . S
C317 C193 1.413 . S
C341 C44 1.427 . S
C349 C229 1.442 . S
C373 C4 1.556 . S
C381 C241 1.626 . S
C413 C169 1.647 . S
C405 C24 1.574 . S
C445 C205 1.598 . S
C437 C42 1.472 . S
C469 C32 1.344 . S
C477 C121 1.338 . S
C501 C49 1.304 . S
C509 C133 1.297 . S
C533 C9 1.285 . S
C541 C61 1.290 . S
C573 C97 1.274 . S
C565 C29 1.222 . S
C605 C157 1.304 . S
C597 C52 1.239 . S
C629 C12 1.274 . S
C637 C85 1.265 . S
C669 C163 1.426 1_554 S
C661 C18 1.427 1_455 S
C693 C38 1.402 . S
C701 C91 1.432 . S
C725 C58 1.430 . S
C733 C127 1.443 . S
C765 C235 1.500 . S
C757 C39 1.497 . S
C797 C271 1.494 1_556 S
C789 C59 1.487 . S
C821 C19 1.474 . S
C829 C199 1.493 . S
