# Generated by pormake.
# Topology eea, (3,6)-cn, num edge types: 1
# Building blocks:
#     Node 0, Type 0, BuildingBlock: MIDCAF_clean_linker_0, # of connection points: 3
#     Node 1, Type 0, BuildingBlock: MIDCAF_clean_linker_0, # of connection points: 3
#     Node 2, Type 0, BuildingBlock: MIDCAF_clean_linker_0, # of connection points: 3
#     Node 3, Type 0, BuildingBlock: MIDCAF_clean_linker_0, # of connection points: 3
#     Node 4, Type 0, BuildingBlock: MIDCAF_clean_linker_0, # of connection points: 3
#     Node 5, Type 0, BuildingBlock: MIDCAF_clean_linker_0, # of connection points: 3
#     Node 6, Type 0, BuildingBlock: MIDCAF_clean_linker_0, # of connection points: 3
#     Node 7, Type 0, BuildingBlock: MIDCAF_clean_linker_0, # of connection points: 3
#     Node 8, Type 0, BuildingBlock: MIDCAF_clean_linker_0, # of connection points: 3
#     Node 9, Type 0, BuildingBlock: MIDCAF_clean_linker_0, # of connection points: 3
#     Node 10, Type 0, BuildingBlock: MIDCAF_clean_linker_0, # of connection points: 3
#     Node 11, Type 0, BuildingBlock: MIDCAF_clean_linker_0, # of connection points: 3
#     Node 12, Type 0, BuildingBlock: MIDCAF_clean_linker_0, # of connection points: 3
#     Node 13, Type 0, BuildingBlock: MIDCAF_clean_linker_0, # of connection points: 3
#     Node 14, Type 0, BuildingBlock: MIDCAF_clean_linker_0, # of connection points: 3
#     Node 15, Type 0, BuildingBlock: MIDCAF_clean_linker_0, # of connection points: 3
#     Node 16, Type 0, BuildingBlock: MIDCAF_clean_linker_0, # of connection points: 3
#     Node 17, Type 0, BuildingBlock: MIDCAF_clean_linker_0, # of connection points: 3
#     Node 18, Type 1, BuildingBlock: KUMBUR_clean_sbu_0, # of connection points: 6
#     Node 19, Type 1, BuildingBlock: KUMBUR_clean_sbu_0, # of connection points: 6
#     Node 20, Type 1, BuildingBlock: KUMBUR_clean_sbu_0, # of connection points: 6
#     Node 21, Type 1, BuildingBlock: KUMBUR_clean_sbu_0, # of connection points: 6
#     Node 22, Type 1, BuildingBlock: KUMBUR_clean_sbu_0, # of connection points: 6
#     Node 23, Type 1, BuildingBlock: KUMBUR_clean_sbu_0, # of connection points: 6
#     Node 24, Type 1, BuildingBlock: KUMBUR_clean_sbu_0, # of connection points: 6
#     Node 25, Type 1, BuildingBlock: KUMBUR_clean_sbu_0, # of connection points: 6
#     Node 26, Type 1, BuildingBlock: KUMBUR_clean_sbu_0, # of connection points: 6
#     Edge 27, Type (0, 1), BuildingBlock: OJICUG_clean_linker_0, # of connection points: 2
#     Edge 28, Type (0, 1), BuildingBlock: OJICUG_clean_linker_0, # of connection points: 2
#     Edge 29, Type (0, 1), BuildingBlock: OJICUG_clean_linker_0, # of connection points: 2
#     Edge 30, Type (0, 1), BuildingBlock: OJICUG_clean_linker_0, # of connection points: 2
#     Edge 31, Type (0, 1), BuildingBlock: OJICUG_clean_linker_0, # of connection points: 2
#     Edge 32, Type (0, 1), BuildingBlock: OJICUG_clean_linker_0, # of connection points: 2
#     Edge 33, Type (0, 1), BuildingBlock: OJICUG_clean_linker_0, # of connection points: 2
#     Edge 34, Type (0, 1), BuildingBlock: OJICUG_clean_linker_0, # of connection points: 2
#     Edge 35, Type (0, 1), BuildingBlock: OJICUG_clean_linker_0, # of connection points: 2
#     Edge 36, Type (0, 1), BuildingBlock: OJICUG_clean_linker_0, # of connection points: 2
#     Edge 37, Type (0, 1), BuildingBlock: OJICUG_clean_linker_0, # of connection points: 2
#     Edge 38, Type (0, 1), BuildingBlock: OJICUG_clean_linker_0, # of connection points: 2
#     Edge 39, Type (0, 1), BuildingBlock: OJICUG_clean_linker_0, # of connection points: 2
#     Edge 40, Type (0, 1), BuildingBlock: OJICUG_clean_linker_0, # of connection points: 2
#     Edge 41, Type (0, 1), BuildingBlock: OJICUG_clean_linker_0, # of connection points: 2
#     Edge 42, Type (0, 1), BuildingBlock: OJICUG_clean_linker_0, # of connection points: 2
#     Edge 43, Type (0, 1), BuildingBlock: OJICUG_clean_linker_0, # of connection points: 2
#     Edge 44, Type (0, 1), BuildingBlock: OJICUG_clean_linker_0, # of connection points: 2
#     Edge 45, Type (0, 1), BuildingBlock: OJICUG_clean_linker_0, # of connection points: 2
#     Edge 46, Type (0, 1), BuildingBlock: OJICUG_clean_linker_0, # of connection points: 2
#     Edge 47, Type (0, 1), BuildingBlock: OJICUG_clean_linker_0, # of connection points: 2
#     Edge 48, Type (0, 1), BuildingBlock: OJICUG_clean_linker_0, # of connection points: 2
#     Edge 49, Type (0, 1), BuildingBlock: OJICUG_clean_linker_0, # of connection points: 2
#     Edge 50, Type (0, 1), BuildingBlock: OJICUG_clean_linker_0, # of connection points: 2
#     Edge 51, Type (0, 1), BuildingBlock: OJICUG_clean_linker_0, # of connection points: 2
#     Edge 52, Type (0, 1), BuildingBlock: OJICUG_clean_linker_0, # of connection points: 2
#     Edge 53, Type (0, 1), BuildingBlock: OJICUG_clean_linker_0, # of connection points: 2
#     Edge 54, Type (0, 1), BuildingBlock: OJICUG_clean_linker_0, # of connection points: 2
#     Edge 55, Type (0, 1), BuildingBlock: OJICUG_clean_linker_0, # of connection points: 2
#     Edge 56, Type (0, 1), BuildingBlock: OJICUG_clean_linker_0, # of connection points: 2
#     Edge 57, Type (0, 1), BuildingBlock: OJICUG_clean_linker_0, # of connection points: 2
#     Edge 58, Type (0, 1), BuildingBlock: OJICUG_clean_linker_0, # of connection points: 2
#     Edge 59, Type (0, 1), BuildingBlock: OJICUG_clean_linker_0, # of connection points: 2
#     Edge 60, Type (0, 1), BuildingBlock: OJICUG_clean_linker_0, # of connection points: 2
#     Edge 61, Type (0, 1), BuildingBlock: OJICUG_clean_linker_0, # of connection points: 2
#     Edge 62, Type (0, 1), BuildingBlock: OJICUG_clean_linker_0, # of connection points: 2
#     Edge 63, Type (0, 1), BuildingBlock: OJICUG_clean_linker_0, # of connection points: 2
#     Edge 64, Type (0, 1), BuildingBlock: OJICUG_clean_linker_0, # of connection points: 2
#     Edge 65, Type (0, 1), BuildingBlock: OJICUG_clean_linker_0, # of connection points: 2
#     Edge 66, Type (0, 1), BuildingBlock: OJICUG_clean_linker_0, # of connection points: 2
#     Edge 67, Type (0, 1), BuildingBlock: OJICUG_clean_linker_0, # of connection points: 2
#     Edge 68, Type (0, 1), BuildingBlock: OJICUG_clean_linker_0, # of connection points: 2
#     Edge 69, Type (0, 1), BuildingBlock: OJICUG_clean_linker_0, # of connection points: 2
#     Edge 70, Type (0, 1), BuildingBlock: OJICUG_clean_linker_0, # of connection points: 2
#     Edge 71, Type (0, 1), BuildingBlock: OJICUG_clean_linker_0, # of connection points: 2
#     Edge 72, Type (0, 1), BuildingBlock: OJICUG_clean_linker_0, # of connection points: 2
#     Edge 73, Type (0, 1), BuildingBlock: OJICUG_clean_linker_0, # of connection points: 2
#     Edge 74, Type (0, 1), BuildingBlock: OJICUG_clean_linker_0, # of connection points: 2
#     Edge 75, Type (0, 1), BuildingBlock: OJICUG_clean_linker_0, # of connection points: 2
#     Edge 76, Type (0, 1), BuildingBlock: OJICUG_clean_linker_0, # of connection points: 2
#     Edge 77, Type (0, 1), BuildingBlock: OJICUG_clean_linker_0, # of connection points: 2
#     Edge 78, Type (0, 1), BuildingBlock: OJICUG_clean_linker_0, # of connection points: 2
#     Edge 79, Type (0, 1), BuildingBlock: OJICUG_clean_linker_0, # of connection points: 2
#     Edge 80, Type (0, 1), BuildingBlock: OJICUG_clean_linker_0, # of connection points: 2
# Relax obj value: 0.008
# Max RMSD: 0.089
# Mean RMSD: 0.072
data_MOF--net-eea--node1-KUMBUR_clean_sbu_0--node2-MIDCAF_clean_linker_0--edge1-OJICUG_clean_linker_0
_symmetry_space_group_name_H-M    P1
_symmetry_Int_Tables_number       1
_symmetry_cell_setting            triclinic
loop_
_symmetry_equiv_pos_as_xyz
'x, y, z'
_cell_length_a     47.65995
_cell_length_b     49.152202
_cell_length_c     71.241938
_cell_angle_alpha  89.876472
_cell_angle_beta   89.830983
_cell_angle_gamma 119.97814
loop_
_atom_site_label
_atom_site_type_symbol
_atom_site_fract_x
_atom_site_fract_y
_atom_site_fract_z
_atom_type_partial_charge
C0 C 0.24656 0.02314 0.40357 0.0
C1 C 0.21605 0.00532 0.39506 0.0
C2 C 0.19437 0.01695 0.39546 0.0
C3 C 0.20308 0.04566 0.404 0.0
H4 H 0.18626 0.12572 0.40514 0.0
H5 H 0.17104 0.16132 0.39064 0.0
H6 H 0.26374 0.24028 0.40638 0.0
H7 H 0.27761 0.20462 0.42201 0.0
H8 H 0.29893 0.1852 0.46537 0.0
H9 H 0.32706 0.19646 0.49546 0.0
H10 H 0.31371 0.1029 0.49659 0.0
H11 H 0.28565 0.09146 0.46674 0.0
H12 H 0.2785 0.06445 0.41899 0.0
H13 H 0.26436 0.01561 0.40316 0.0
H14 H 0.17044 0.00376 0.38942 0.0
H15 H 0.18593 0.05403 0.40411 0.0
N16 N 0.23275 0.11249 0.415 0.0
N17 N 0.26162 0.14922 0.43859 0.0
N18 N 0.26148 0.1015 0.43752 0.0
C19 C 0.2425 0.1408 0.4231 0.0
C20 C 0.27088 0.12943 0.44602 0.0
C21 C 0.2425 0.09293 0.42205 0.0
C22 C 0.23303 0.16248 0.41475 0.0
C23 C 0.20318 0.15075 0.40559 0.0
C24 C 0.19463 0.17122 0.39711 0.0
C25 C 0.21613 0.20388 0.39717 0.0
C26 C 0.24611 0.21545 0.40635 0.0
C27 C 0.25425 0.195 0.41525 0.0
C28 C 0.28981 0.13736 0.46364 0.0
C29 C 0.30213 0.16708 0.47198 0.0
C30 C 0.31837 0.1736 0.48916 0.0
C31 C 0.32231 0.15045 0.4984 0.0
C32 C 0.31061 0.12103 0.4899 0.0
C33 C 0.29467 0.11459 0.47271 0.0
C34 C 0.23327 0.0629 0.41277 0.0
C35 C 0.25485 0.05134 0.41255 0.0
C36 C 0.99455 0.22215 0.40541 0.0
C37 C 0.00563 0.21444 0.38906 0.0
C38 C 0.98908 0.18327 0.3827 0.0
C39 C 0.96164 0.16042 0.39232 0.0
H40 H 0.87852 0.07379 0.38436 0.0
H41 H 0.84033 0.02457 0.36924 0.0
H42 H 0.78 0.99643 0.41892 0.0
H43 H 0.81761 0.04563 0.43393 0.0
H44 H 0.83296 0.09037 0.46656 0.0
H45 H 0.81725 0.10133 0.49679 0.0
H46 H 0.90287 0.19327 0.49687 0.0
H47 H 0.91908 0.18221 0.46655 0.0
H48 H 0.9596 0.20623 0.42762 0.0
H49 H 0.0071 0.24588 0.41083 0.0
H50 H 0.99704 0.17669 0.37012 0.0
H51 H 0.94927 0.13667 0.38694 0.0
N52 N 0.901 0.11604 0.41056 0.0
N53 N 0.86653 0.10082 0.43675 0.0
N54 N 0.91337 0.1504 0.43605 0.0
C55 C 0.87366 0.09423 0.41948 0.0
C56 C 0.88617 0.12873 0.44519 0.0
C57 C 0.92102 0.14419 0.41874 0.0
C58 C 0.85119 0.06386 0.41037 0.0
C59 C 0.85715 0.05712 0.3921 0.0
C60 C 0.83532 0.02882 0.38343 0.0
C61 C 0.80701 0.00663 0.39283 0.0
C62 C 0.80126 0.01323 0.41116 0.0
C63 C 0.82303 0.04144 0.41981 0.0
C64 C 0.87728 0.13545 0.46396 0.0
C65 C 0.84861 0.11296 0.47295 0.0
C66 C 0.83943 0.11929 0.4903 0.0
C67 C 0.85864 0.14827 0.4992 0.0
C68 C 0.88763 0.17062 0.49044 0.0
C69 C 0.89682 0.16431 0.473 0.0
C70 C 0.95044 0.16819 0.40865 0.0
C71 C 0.96741 0.19931 0.41512 0.0
C72 C 0.78538 0.77045 0.40593 0.0
C73 C 0.79258 0.78874 0.38956 0.0
C74 C 0.82428 0.80292 0.38224 0.0
C75 C 0.84808 0.79844 0.39101 0.0
H76 H 0.94376 0.80946 0.3851 0.0
H77 H 0.99308 0.81713 0.36932 0.0
H78 H 1.00449 0.76106 0.412 0.0
H79 H 0.95579 0.75348 0.42776 0.0
H80 H 0.91604 0.73906 0.46628 0.0
H81 H 0.9014 0.71385 0.49714 0.0
H82 H 0.81265 0.71729 0.49614 0.0
H83 H 0.82683 0.74187 0.46533 0.0
H84 H 0.80234 0.752 0.42738 0.0
H85 H 0.76134 0.75955 0.41208 0.0
H86 H 0.83051 0.81709 0.36959 0.0
H87 H 0.87219 0.80948 0.38498 0.0
N88 N 0.89369 0.78136 0.4085 0.0
N89 N 0.90837 0.76273 0.43504 0.0
N90 N 0.85923 0.7626 0.43477 0.0
C91 C 0.91529 0.7752 0.41737 0.0
C92 C 0.88047 0.75651 0.4439 0.0
C93 C 0.86546 0.77497 0.41715 0.0
C94 C 0.94559 0.78076 0.40773 0.0
C95 C 0.95681 0.7988 0.39113 0.0
C96 C 0.98514 0.80333 0.38212 0.0
C97 C 1.00255 0.7895 0.38933 0.0
C98 C 0.99142 0.77169 0.40593 0.0
C99 C 0.96351 0.76751 0.41505 0.0
C100 C 0.87256 0.74238 0.46312 0.0
C101 C 0.89344 0.73455 0.47265 0.0
C102 C 0.88513 0.72023 0.49043 0.0
C103 C 0.85571 0.71329 0.49914 0.0
C104 C 0.83522 0.72173 0.48977 0.0
C105 C 0.8435 0.73603 0.47206 0.0
C106 C 0.84076 0.78011 0.40746 0.0
C107 C 0.80909 0.76632 0.41479 0.0
C108 C 0.02135 0.23055 0.61968 0.0
C109 C 0.00982 0.21204 0.636 0.0
C110 C 0.02687 0.19762 0.64292 0.0
C111 C 0.05515 0.20213 0.63383 0.0
H112 H 0.13979 0.19063 0.63869 0.0
H113 H 0.18159 0.18252 0.65346 0.0
H114 H 0.24954 0.23898 0.61019 0.0
H115 H 0.20837 0.247 0.59547 0.0
H116 H 0.17954 0.25388 0.55636 0.0
H117 H 0.19179 0.27874 0.52546 0.0
H118 H 0.10853 0.29117 0.52986 0.0
H119 H 0.09633 0.26659 0.56081 0.0
H120 H 0.05711 0.2492 0.59799 0.0
H121 H 0.00857 0.24162 0.61381 0.0
H122 H 0.01859 0.18326 0.6555 0.0
H123 H 0.06786 0.19091 0.63956 0.0
N124 N 0.11809 0.21917 0.61581 0.0
N125 N 0.15148 0.23755 0.58902 0.0
N126 N 0.10284 0.23834 0.58982 0.0
C127 C 0.14581 0.22513 0.60665 0.0
C128 C 0.13013 0.24413 0.58044 0.0
C129 C 0.09647 0.22583 0.60745 0.0
C130 C 0.17057 0.2195 0.61585 0.0
C131 C 0.16365 0.2013 0.63233 0.0
C132 C 0.18752 0.19652 0.64076 0.0
C133 C 0.21893 0.21029 0.63306 0.0
C134 C 0.22573 0.22839 0.61662 0.0
C135 C 0.20193 0.23279 0.6081 0.0
C136 C 0.137 0.25828 0.56124 0.0
C137 C 0.16373 0.2618 0.55076 0.0
C138 C 0.17066 0.27589 0.53294 0.0
C139 C 0.15121 0.28705 0.52515 0.0
C140 C 0.12426 0.28319 0.53551 0.0
C141 C 0.11718 0.26891 0.55326 0.0
C142 C 0.06663 0.22071 0.61745 0.0
C143 C 0.04918 0.2347 0.61051 0.0
C144 C 0.78723 0.792 0.60874 0.0
C145 C 0.79855 0.79732 0.62734 0.0
C146 C 0.80266 0.82421 0.63666 0.0
C147 C 0.79556 0.84525 0.62763 0.0
H148 H 0.79972 0.92855 0.6356 0.0
H149 H 0.81168 0.97695 0.65142 0.0
H150 H 0.78578 0.00891 0.60131 0.0
H151 H 0.773 0.96023 0.5856 0.0
H152 H 0.73928 0.91362 0.55318 0.0
H153 H 0.70987 0.9012 0.52381 0.0
H154 H 0.69934 0.80866 0.52473 0.0
H155 H 0.72946 0.82123 0.55409 0.0
H156 H 0.77135 0.80819 0.58539 0.0
H157 H 0.78426 0.77174 0.60106 0.0
H158 H 0.81085 0.82877 0.65107 0.0
H159 H 0.79884 0.8656 0.63534 0.0
N160 N 0.78406 0.88981 0.60811 0.0
N161 N 0.76206 0.9035 0.58297 0.0
N162 N 0.76118 0.85537 0.58275 0.0
C163 C 0.7771 0.9106 0.59985 0.0
C164 C 0.75396 0.87596 0.57431 0.0
C165 C 0.77631 0.86222 0.59967 0.0
C166 C 0.78527 0.9404 0.60932 0.0
C167 C 0.79661 0.94589 0.62791 0.0
C168 C 0.80363 0.97372 0.63698 0.0
C169 C 0.79959 0.99673 0.62765 0.0
C170 C 0.78861 0.99141 0.609 0.0
C171 C 0.78145 0.96354 0.59996 0.0
C172 C 0.7367 0.86839 0.5561 0.0
C173 C 0.73078 0.89058 0.54718 0.0
C174 C 0.71369 0.88341 0.53036 0.0
C175 C 0.70199 0.85384 0.52201 0.0
C176 C 0.70823 0.83173 0.53075 0.0
C177 C 0.72541 0.83892 0.54762 0.0
C178 C 0.78402 0.83986 0.60907 0.0
C179 C 0.77997 0.81299 0.59972 0.0
C180 C 0.21063 0.98394 0.61171 0.0
C181 C 0.20526 0.99099 0.63001 0.0
C182 C 0.17735 0.96885 0.63975 0.0
C183 C 0.1555 0.94022 0.63143 0.0
H184 H 0.06363 0.86019 0.63773 0.0
H185 H 0.01566 0.82052 0.6546 0.0
H186 H 1.00529 0.75072 0.61426 0.0
H187 H 0.05295 0.78998 0.59745 0.0
H188 H 0.09524 0.81129 0.55984 0.0
H189 H 0.10936 0.79996 0.52899 0.0
H190 H 0.18714 0.89603 0.52425 0.0
H191 H 0.17297 0.90754 0.55484 0.0
H192 H 0.19392 0.95086 0.58928 0.0
H193 H 0.23159 0.00066 0.6037 0.0
H194 H 0.17264 0.97343 0.65394 0.0
H195 H 0.13443 0.92363 0.63941 0.0
N196 N 0.11156 0.88059 0.61372 0.0
N197 N 0.09843 0.84574 0.58844 0.0
N198 N 0.14491 0.89553 0.58701 0.0
C199 C 0.0914 0.8522 0.60584 0.0
C200 C 0.1251 0.86736 0.57889 0.0
C201 C 0.13844 0.90238 0.60439 0.0
C202 C 0.06226 0.82833 0.6162 0.0
C203 C 0.05118 0.83636 0.63248 0.0
C204 C 0.02364 0.81371 0.64212 0.0
C205 C 0.00687 0.78248 0.63584 0.0
C206 C 0.01798 0.77449 0.61962 0.0
C207 C 0.04521 0.79711 0.60989 0.0
C208 C 0.13297 0.86033 0.55993 0.0
C209 C 0.11527 0.83006 0.5522 0.0
C210 C 0.12346 0.82349 0.53455 0.0
C211 C 0.14938 0.84709 0.52415 0.0
C212 C 0.16679 0.8774 0.53177 0.0
C213 C 0.15875 0.88393 0.54943 0.0
C214 C 0.16104 0.93305 0.61316 0.0
C215 C 0.18883 0.95538 0.6034 0.0
C216 C 0.89075 0.34184 0.74762 0.0
C217 C 0.87918 0.33622 0.7291 0.0
C218 C 0.87448 0.35892 0.71988 0.0
C219 C 0.88169 0.38686 0.72889 0.0
H220 H 0.85063 0.4574 0.73699 0.0
H221 H 0.83643 0.49338 0.72208 0.0
H222 H 0.92781 0.57191 0.74002 0.0
H223 H 0.94063 0.53575 0.75606 0.0
H224 H 0.95893 0.51523 0.79986 0.0
H225 H 0.98738 0.52687 0.82983 0.0
H226 H 0.97024 0.43199 0.83255 0.0
H227 H 0.94171 0.42014 0.80286 0.0
H228 H 0.90721 0.37342 0.77082 0.0
H229 H 0.89403 0.32455 0.75524 0.0
H230 H 0.86593 0.35544 0.70554 0.0
H231 H 0.87826 0.40405 0.72126 0.0
N232 N 0.89553 0.44357 0.74857 0.0
N233 N 0.92247 0.47962 0.77277 0.0
N234 N 0.92016 0.43084 0.77274 0.0
C235 C 0.9051 0.47185 0.75661 0.0
C236 C 0.92988 0.45902 0.781 0.0
C237 C 0.90315 0.423 0.7565 0.0
C238 C 0.89666 0.49387 0.74771 0.0
C239 C 0.86754 0.48241 0.73779 0.0
C240 C 0.85957 0.5031 0.72909 0.0
C241 C 0.88095 0.53574 0.72969 0.0
C242 C 0.91029 0.54706 0.73955 0.0
C243 C 0.91783 0.52636 0.74867 0.0
C244 C 0.9479 0.46671 0.79893 0.0
C245 C 0.96124 0.49685 0.80683 0.0
C246 C 0.97769 0.5036 0.82394 0.0
C247 C 0.98087 0.48028 0.83354 0.0
C248 C 0.96779 0.4503 0.82558 0.0
C249 C 0.95158 0.44361 0.80847 0.0
C250 C 0.89391 0.39275 0.74728 0.0
C251 C 0.89812 0.36981 0.75659 0.0
C252 C 0.66114 0.55472 0.74042 0.0
C253 C 0.67216 0.54725 0.72396 0.0
C254 C 0.65552 0.51618 0.71741 0.0
C255 C 0.62792 0.49326 0.72689 0.0
H256 H 0.55392 0.38906 0.73405 0.0
H257 H 0.51706 0.33841 0.72005 0.0
H258 H 0.43584 0.35032 0.73544 0.0
H259 H 0.47275 0.39939 0.7508 0.0
H260 H 0.4944 0.42535 0.79859 0.0
H261 H 0.47847 0.43617 0.8288 0.0
H262 H 0.56595 0.52668 0.8301 0.0
H263 H 0.58239 0.51567 0.79988 0.0
H264 H 0.62596 0.53865 0.76249 0.0
H265 H 0.67377 0.57834 0.74599 0.0
H266 H 0.66343 0.50976 0.70475 0.0
H267 H 0.61538 0.46965 0.72131 0.0
N268 N 0.56671 0.44894 0.7446 0.0
N269 N 0.52963 0.43501 0.76951 0.0
N270 N 0.57761 0.48372 0.7697 0.0
C271 C 0.5382 0.42794 0.75282 0.0
C272 C 0.54931 0.46269 0.77818 0.0
C273 C 0.58647 0.47708 0.75288 0.0
C274 C 0.51611 0.39794 0.74356 0.0
C275 C 0.52813 0.38061 0.73443 0.0
C276 C 0.50686 0.35163 0.72626 0.0
C277 C 0.47309 0.33978 0.72649 0.0
C278 C 0.46139 0.35782 0.73533 0.0
C279 C 0.48258 0.38623 0.74402 0.0
C280 C 0.53971 0.46966 0.79667 0.0
C281 C 0.51036 0.44762 0.80524 0.0
C282 C 0.50107 0.45388 0.82257 0.0
C283 C 0.52081 0.48237 0.83187 0.0
C284 C 0.55029 0.50437 0.82341 0.0
C285 C 0.55962 0.49812 0.80601 0.0
C286 C 0.6166 0.50086 0.74324 0.0
C287 C 0.63381 0.53183 0.74997 0.0
C288 C 0.45492 0.1048 0.74051 0.0
C289 C 0.46155 0.12233 0.72385 0.0
C290 C 0.49289 0.13588 0.71607 0.0
C291 C 0.51684 0.13138 0.72463 0.0
H292 H 0.61256 0.14238 0.71767 0.0
H293 H 0.66169 0.15006 0.70158 0.0
H294 H 0.67218 0.09182 0.74315 0.0
H295 H 0.62373 0.08422 0.75915 0.0
H296 H 0.58404 0.06647 0.7965 0.0
H297 H 0.57158 0.0419 0.82748 0.0
H298 H 0.48879 0.0551 0.83173 0.0
H299 H 0.50128 0.07992 0.80084 0.0
H300 H 0.47249 0.08684 0.76194 0.0
H301 H 0.43116 0.09439 0.747 0.0
H302 H 0.49867 0.14945 0.7032 0.0
H303 H 0.54062 0.14182 0.71819 0.0
N304 N 0.56256 0.11407 0.74141 0.0
N305 N 0.57786 0.095 0.76743 0.0
N306 N 0.5292 0.09578 0.7682 0.0
C307 C 0.5842 0.10747 0.74978 0.0
C308 C 0.55055 0.08924 0.7768 0.0
C309 C 0.53484 0.10813 0.75055 0.0
C310 C 0.61402 0.11264 0.73975 0.0
C311 C 0.62534 0.13119 0.72335 0.0
C312 C 0.65355 0.13572 0.71417 0.0
C313 C 0.67068 0.12135 0.72101 0.0
C314 C 0.65932 0.10286 0.73735 0.0
C315 C 0.63155 0.09869 0.74662 0.0
C316 C 0.54363 0.07515 0.79601 0.0
C317 C 0.56325 0.06432 0.80403 0.0
C318 C 0.55602 0.05006 0.82179 0.0
C319 C 0.52912 0.04642 0.83211 0.0
C320 C 0.50988 0.05778 0.82428 0.0
C321 C 0.51695 0.07185 0.80646 0.0
C322 C 0.51006 0.11366 0.7413 0.0
C323 C 0.4788 0.10066 0.74915 0.0
C324 C 0.68711 0.56364 0.95159 0.0
C325 C 0.67553 0.5454 0.96802 0.0
C326 C 0.69272 0.53131 0.97522 0.0
C327 C 0.72119 0.53593 0.96634 0.0
H328 H 0.80568 0.52443 0.9723 0.0
H329 H 0.84711 0.51619 0.9875 0.0
H330 H 0.91653 0.57413 0.94523 0.0
H331 H 0.87579 0.58231 0.93013 0.0
H332 H 0.85199 0.59425 0.89241 0.0
H333 H 0.86588 0.61892 0.8616 0.0
H334 H 0.77627 0.62077 0.86059 0.0
H335 H 0.76195 0.59551 0.89142 0.0
H336 H 0.72317 0.58222 0.93003 0.0
H337 H 0.67424 0.57447 0.94552 0.0
H338 H 0.68444 0.51717 0.98788 0.0
H339 H 0.73402 0.52501 0.97233 0.0
N340 N 0.78452 0.55329 0.94905 0.0
N341 N 0.81906 0.57221 0.9228 0.0
N342 N 0.77011 0.57245 0.92266 0.0
C343 C 0.81272 0.55959 0.94037 0.0
C344 C 0.79795 0.5786 0.91376 0.0
C345 C 0.76308 0.55978 0.94027 0.0
C346 C 0.83725 0.55406 0.94995 0.0
C347 C 0.82979 0.53542 0.96628 0.0
C348 C 0.85345 0.53057 0.97494 0.0
C349 C 0.88516 0.54469 0.96763 0.0
C350 C 0.8925 0.56327 0.95137 0.0
C351 C 0.86893 0.56776 0.94262 0.0
C352 C 0.80585 0.59293 0.89459 0.0
C353 C 0.83508 0.59977 0.88568 0.0
C354 C 0.84319 0.61412 0.86797 0.0
C355 C 0.82235 0.62209 0.85859 0.0
C356 C 0.79281 0.61474 0.8673 0.0
C357 C 0.78469 0.60039 0.88507 0.0
C358 C 0.73278 0.55431 0.94988 0.0
C359 C 0.71516 0.5679 0.94262 0.0
C360 C 0.43426 0.11923 0.9501 0.0
C361 C 0.46369 0.13037 0.95985 0.0
C362 C 0.48537 0.16298 0.96024 0.0
C363 C 0.4776 0.18379 0.95148 0.0
H364 H 0.46769 0.26276 0.96787 0.0
H365 H 0.48024 0.31142 0.98359 0.0
H366 H 0.45144 0.34213 0.93408 0.0
H367 H 0.43802 0.29316 0.91852 0.0
H368 H 0.40336 0.24614 0.88629 0.0
H369 H 0.37444 0.23391 0.8567 0.0
H370 H 0.35729 0.13905 0.8598 0.0
H371 H 0.38608 0.15107 0.88965 0.0
H372 H 0.40405 0.13074 0.93361 0.0
H373 H 0.41649 0.09444 0.94978 0.0
H374 H 0.50859 0.1726 0.96714 0.0
H375 H 0.49472 0.20876 0.95213 0.0
N376 N 0.44984 0.22298 0.9407 0.0
N377 N 0.42522 0.23572 0.91651 0.0
N378 N 0.42267 0.18682 0.91658 0.0
C379 C 0.4423 0.2436 0.93274 0.0
C380 C 0.41535 0.20745 0.9083 0.0
C381 C 0.44011 0.19461 0.93271 0.0
C382 C 0.45167 0.27392 0.94195 0.0
C383 C 0.46415 0.27992 0.96028 0.0
C384 C 0.47149 0.3079 0.96929 0.0
C385 C 0.46669 0.3306 0.96013 0.0
C386 C 0.45484 0.32487 0.94167 0.0
C387 C 0.44732 0.29684 0.9327 0.0
C388 C 0.39716 0.19961 0.8904 0.0
C389 C 0.3934 0.2226 0.88077 0.0
C390 C 0.37696 0.21568 0.86372 0.0
C391 C 0.36372 0.18558 0.85589 0.0
C392 C 0.36704 0.16241 0.86558 0.0
C393 C 0.38371 0.16938 0.88263 0.0
C394 C 0.44838 0.17248 0.94168 0.0
C395 C 0.42692 0.14002 0.9409 0.0
C396 C 0.8768 0.31851 0.94521 0.0
C397 C 0.87126 0.32531 0.96354 0.0
C398 C 0.84326 0.30305 0.97315 0.0
C399 C 0.82149 0.27453 0.96468 0.0
H400 H 0.72983 0.19464 0.97063 0.0
H401 H 0.68192 0.15487 0.98748 0.0
H402 H 0.67144 0.08533 0.94691 0.0
H403 H 0.71907 0.12471 0.93011 0.0
H404 H 0.76256 0.1461 0.89286 0.0
H405 H 0.77727 0.13499 0.86212 0.0
H406 H 0.85437 0.23138 0.85751 0.0
H407 H 0.83962 0.24267 0.888 0.0
H408 H 0.86031 0.28573 0.92262 0.0
H409 H 0.89784 0.33533 0.9373 0.0
H410 H 0.83842 0.30742 0.98735 0.0
H411 H 0.80036 0.25784 0.97257 0.0
N412 N 0.77773 0.21518 0.94669 0.0
N413 N 0.76493 0.18049 0.92136 0.0
N414 N 0.81144 0.23029 0.92014 0.0
C415 C 0.75767 0.18685 0.93872 0.0
C416 C 0.79174 0.20218 0.91193 0.0
C417 C 0.80474 0.23702 0.93749 0.0
C418 C 0.72843 0.16293 0.94899 0.0
C419 C 0.71736 0.17085 0.96531 0.0
C420 C 0.68984 0.14814 0.97494 0.0
C421 C 0.67308 0.11696 0.9686 0.0
C422 C 0.68412 0.10907 0.95231 0.0
C423 C 0.71134 0.13176 0.94259 0.0
C424 C 0.79991 0.19528 0.89301 0.0
C425 C 0.78256 0.16499 0.88527 0.0
C426 C 0.79109 0.15855 0.86768 0.0
C427 C 0.817 0.18229 0.85735 0.0
C428 C 0.83404 0.21263 0.86497 0.0
C429 C 0.82567 0.21903 0.88257 0.0
C430 C 0.82721 0.26761 0.94639 0.0
C431 C 0.85509 0.29006 0.93675 0.0
C432 C 0.55851 0.6757 0.081 0.0
C433 C 0.5463 0.6698 0.06261 0.0
C434 C 0.54109 0.6923 0.05354 0.0
C435 C 0.54831 0.72024 0.06255 0.0
H436 H 0.51723 0.79063 0.07025 0.0
H437 H 0.50284 0.82653 0.05537 0.0
H438 H 0.59362 0.90525 0.07386 0.0
H439 H 0.6066 0.86919 0.08984 0.0
H440 H 0.62224 0.84817 0.13415 0.0
H441 H 0.65244 0.86122 0.16345 0.0
H442 H 0.64398 0.76952 0.16429 0.0
H443 H 0.61449 0.75665 0.13491 0.0
H444 H 0.57547 0.70753 0.1041 0.0
H445 H 0.56224 0.65861 0.08852 0.0
H446 H 0.53208 0.68865 0.03929 0.0
H447 H 0.54441 0.73722 0.05503 0.0
N448 N 0.56214 0.77696 0.08217 0.0
N449 N 0.58927 0.81331 0.10619 0.0
N450 N 0.5876 0.76482 0.10617 0.0
C451 C 0.57158 0.80527 0.09015 0.0
C452 C 0.59718 0.79303 0.11437 0.0
C453 C 0.57021 0.75666 0.09004 0.0
C454 C 0.56295 0.82719 0.08124 0.0
C455 C 0.53396 0.81566 0.07118 0.0
C456 C 0.52588 0.83632 0.0625 0.0
C457 C 0.54704 0.86901 0.06327 0.0
C458 C 0.57625 0.88038 0.07326 0.0
C459 C 0.58389 0.85972 0.08235 0.0
C460 C 0.61588 0.80134 0.1321 0.0
C461 C 0.62688 0.8308 0.14053 0.0
C462 C 0.64408 0.83825 0.15739 0.0
C463 C 0.65067 0.81643 0.1662 0.0
C464 C 0.63978 0.78707 0.15773 0.0
C465 C 0.62265 0.77962 0.1409 0.0
C466 C 0.56109 0.7264 0.08082 0.0
C467 C 0.56591 0.70371 0.08998 0.0
C468 C 0.32801 0.88845 0.07331 0.0
C469 C 0.33896 0.8808 0.05689 0.0
C470 C 0.32242 0.84961 0.05055 0.0
C471 C 0.29499 0.82676 0.06017 0.0
H472 H 0.22082 0.72252 0.0676 0.0
H473 H 0.18368 0.67173 0.05384 0.0
H474 H 0.10283 0.68416 0.06936 0.0
H475 H 0.14003 0.73338 0.08447 0.0
H476 H 0.162 0.75916 0.13209 0.0
H477 H 0.14604 0.76994 0.16227 0.0
H478 H 0.23358 0.86038 0.1637 0.0
H479 H 0.25008 0.84942 0.13345 0.0
H480 H 0.29303 0.87258 0.0955 0.0
H481 H 0.34057 0.91218 0.07873 0.0
H482 H 0.33029 0.84304 0.03793 0.0
H483 H 0.28252 0.80305 0.05473 0.0
N484 N 0.23387 0.78265 0.07801 0.0
N485 N 0.19708 0.76881 0.10305 0.0
N486 N 0.24506 0.81751 0.10311 0.0
C487 C 0.20546 0.76168 0.08633 0.0
C488 C 0.21685 0.79649 0.11168 0.0
C489 C 0.25373 0.8108 0.08624 0.0
C490 C 0.18321 0.73167 0.07714 0.0
C491 C 0.19505 0.71416 0.06805 0.0
C492 C 0.17362 0.6851 0.06002 0.0
C493 C 0.13987 0.67336 0.06038 0.0
C494 C 0.12836 0.69158 0.06917 0.0
C495 C 0.14972 0.72008 0.0777 0.0
C496 C 0.20735 0.80346 0.13019 0.0
C497 C 0.17799 0.7814 0.13875 0.0
C498 C 0.16867 0.78764 0.15608 0.0
C499 C 0.1884 0.81611 0.16538 0.0
C500 C 0.21793 0.8381 0.15698 0.0
C501 C 0.22729 0.83188 0.13957 0.0
C502 C 0.28373 0.83454 0.07648 0.0
C503 C 0.30085 0.86563 0.08301 0.0
C504 C 0.12106 0.43731 0.0733 0.0
C505 C 0.12784 0.45518 0.05678 0.0
C506 C 0.15931 0.46901 0.04914 0.0
C507 C 0.18325 0.4645 0.05772 0.0
H508 H 0.27937 0.47575 0.0515 0.0
H509 H 0.32866 0.48345 0.03565 0.0
H510 H 0.33934 0.42609 0.07776 0.0
H511 H 0.29069 0.41849 0.09357 0.0
H512 H 0.25258 0.40592 0.13269 0.0
H513 H 0.23835 0.3807 0.16355 0.0
H514 H 0.14866 0.38239 0.16258 0.0
H515 H 0.16245 0.40703 0.13177 0.0
H516 H 0.13843 0.41911 0.09466 0.0
H517 H 0.09722 0.42669 0.0797 0.0
H518 H 0.16522 0.48285 0.03637 0.0
H519 H 0.20716 0.47522 0.05143 0.0
N520 N 0.22914 0.44742 0.07493 0.0
N521 N 0.24403 0.42861 0.10131 0.0
N522 N 0.19507 0.42884 0.10138 0.0
C523 C 0.25074 0.44107 0.08364 0.0
C524 C 0.21632 0.42257 0.11034 0.0
C525 C 0.20109 0.44121 0.08376 0.0
C526 C 0.28087 0.44644 0.07385 0.0
C527 C 0.29224 0.46478 0.05738 0.0
C528 C 0.32054 0.46932 0.04832 0.0
C529 C 0.33777 0.45519 0.05536 0.0
C530 C 0.32642 0.43697 0.07181 0.0
C531 C 0.29854 0.43279 0.08097 0.0
C532 C 0.20862 0.4084 0.12955 0.0
C533 C 0.22985 0.40102 0.13906 0.0
C534 C 0.22178 0.3867 0.15684 0.0
C535 C 0.19223 0.37928 0.16555 0.0
C536 C 0.17136 0.38724 0.1562 0.0
C537 C 0.17941 0.40157 0.13849 0.0
C538 C 0.17632 0.44651 0.07429 0.0
C539 C 0.1449 0.43315 0.08196 0.0
C540 C 0.35071 0.89502 0.28516 0.0
C541 C 0.33928 0.87676 0.30158 0.0
C542 C 0.35637 0.86244 0.30858 0.0
C543 C 0.38462 0.86686 0.2995 0.0
H544 H 0.47003 0.85675 0.30551 0.0
H545 H 0.51214 0.84916 0.32041 0.0
H546 H 0.57917 0.90375 0.2763 0.0
H547 H 0.53785 0.9113 0.26152 0.0
H548 H 0.51396 0.92401 0.22488 0.0
H549 H 0.52791 0.94898 0.19418 0.0
H550 H 0.43887 0.9519 0.19358 0.0
H551 H 0.42447 0.92634 0.22435 0.0
H552 H 0.38642 0.91343 0.2634 0.0
H553 H 0.3379 0.90602 0.27924 0.0
H554 H 0.34819 0.84827 0.32123 0.0
H555 H 0.39739 0.85576 0.30534 0.0
N556 N 0.44765 0.88398 0.28184 0.0
N557 N 0.48155 0.90249 0.25532 0.0
N558 N 0.43277 0.903 0.25555 0.0
C559 C 0.4756 0.89007 0.27293 0.0
C560 C 0.46038 0.90893 0.24645 0.0
C561 C 0.42609 0.89049 0.27321 0.0
C562 C 0.5004 0.88469 0.28229 0.0
C563 C 0.49376 0.86711 0.29901 0.0
C564 C 0.51779 0.86264 0.3075 0.0
C565 C 0.54905 0.87606 0.29959 0.0
C566 C 0.55551 0.89346 0.2829 0.0
C567 C 0.53159 0.8976 0.27435 0.0
C568 C 0.4681 0.92323 0.22729 0.0
C569 C 0.49717 0.92981 0.21827 0.0
C570 C 0.50532 0.94433 0.20062 0.0
C571 C 0.48469 0.95274 0.19141 0.0
C572 C 0.45525 0.94555 0.20018 0.0
C573 C 0.44708 0.93104 0.21791 0.0
C574 C 0.39606 0.88526 0.28305 0.0
C575 C 0.37853 0.89908 0.27599 0.0
C576 C 0.09769 0.45049 0.28506 0.0
C577 C 0.12733 0.46205 0.29464 0.0
C578 C 0.14854 0.49475 0.29508 0.0
C579 C 0.14013 0.51523 0.2865 0.0
H580 H 0.12944 0.59388 0.30289 0.0
H581 H 0.14241 0.64295 0.31824 0.0
H582 H 0.11298 0.67269 0.26858 0.0
H583 H 0.09916 0.62335 0.25339 0.0
H584 H 0.06485 0.57634 0.22144 0.0
H585 H 0.03665 0.56424 0.19162 0.0
H586 H 0.02014 0.4696 0.19464 0.0
H587 H 0.04824 0.48149 0.22473 0.0
H588 H 0.06673 0.46139 0.26884 0.0
H589 H 0.08029 0.42561 0.28471 0.0
H590 H 0.17188 0.50469 0.30186 0.0
H591 H 0.15694 0.54028 0.28716 0.0
N592 N 0.11149 0.5537 0.27587 0.0
N593 N 0.08661 0.56605 0.25166 0.0
N594 N 0.0845 0.51736 0.2518 0.0
C595 C 0.10371 0.57412 0.26787 0.0
C596 C 0.07694 0.5378 0.24349 0.0
C597 C 0.10196 0.52533 0.26793 0.0
C598 C 0.11309 0.60456 0.27692 0.0
C599 C 0.12583 0.6109 0.2952 0.0
C600 C 0.13341 0.63912 0.30399 0.0
C601 C 0.12859 0.66168 0.29467 0.0
C602 C 0.1164 0.65556 0.27629 0.0
C603 C 0.10866 0.6273 0.26753 0.0
C604 C 0.05896 0.52991 0.22553 0.0
C605 C 0.05517 0.55286 0.21587 0.0
C606 C 0.03915 0.54603 0.19868 0.0
C607 C 0.02636 0.51604 0.19075 0.0
C608 C 0.0296 0.49287 0.20049 0.0
C609 C 0.04586 0.49976 0.21768 0.0
C610 C 0.11074 0.50353 0.27684 0.0
C611 C 0.08972 0.47098 0.27604 0.0
C612 C 0.54853 0.64361 0.28458 0.0
C613 C 0.53689 0.65963 0.29565 0.0
C614 C 0.50309 0.64592 0.29805 0.0
C615 C 0.48176 0.61701 0.28984 0.0
H616 H 0.39515 0.52996 0.30197 0.0
H617 H 0.34761 0.49021 0.31908 0.0
H618 H 0.33729 0.42028 0.27885 0.0
H619 H 0.38457 0.45962 0.2618 0.0
H620 H 0.42996 0.47988 0.22539 0.0
H621 H 0.44508 0.46852 0.19483 0.0
H622 H 0.52386 0.56421 0.19085 0.0
H623 H 0.50878 0.57574 0.22116 0.0
H624 H 0.53699 0.60359 0.26753 0.0
H625 H 0.57423 0.65263 0.28272 0.0
H626 H 0.49289 0.6576 0.30606 0.0
H627 H 0.45594 0.60708 0.29197 0.0
N628 N 0.44337 0.55012 0.27836 0.0
N629 N 0.43166 0.51483 0.25346 0.0
N630 N 0.47909 0.56398 0.25276 0.0
C631 C 0.42349 0.52172 0.27042 0.0
C632 C 0.45932 0.53596 0.24447 0.0
C633 C 0.47128 0.57125 0.26963 0.0
C634 C 0.39386 0.49804 0.2805 0.0
C635 C 0.38273 0.50611 0.29674 0.0
C636 C 0.35543 0.48341 0.30653 0.0
C637 C 0.33893 0.45209 0.30042 0.0
C638 C 0.34983 0.44412 0.2841 0.0
C639 C 0.37684 0.46679 0.27423 0.0
C640 C 0.46813 0.52873 0.22583 0.0
C641 C 0.45046 0.49854 0.218 0.0
C642 C 0.45921 0.49196 0.20051 0.0
C643 C 0.48564 0.51547 0.19038 0.0
C644 C 0.50313 0.54566 0.19816 0.0
C645 C 0.49457 0.55219 0.21565 0.0
C646 C 0.4936 0.60154 0.2786 0.0
C647 C 0.52716 0.61521 0.27596 0.0
Tb648 Tb 0.49109 0.97631 0.99056 0.0
C649 C 0.56024 0.09607 0.03846 0.0
C650 C 0.61663 0.11043 0.03681 0.0
C651 C 0.60208 0.15085 0.0413 0.0
C652 C 0.58347 0.08756 0.0362 0.0
C653 C 0.56915 0.12767 0.0416 0.0
C654 C 0.62581 0.14223 0.03885 0.0
C655 C 0.51265 0.11052 0.04699 0.0
N656 N 0.52883 0.07292 0.03883 0.0
C657 C 0.50507 0.07951 0.04374 0.0
C658 C 0.54478 0.13479 0.04562 0.0
Tb659 Tb 0.51853 0.02289 0.03315 0.0
N660 N 0.57349 0.05657 0.03461 0.0
C661 C 0.5957 0.04667 0.03514 0.0
C662 C 0.63946 0.10051 0.036 0.0
C663 C 0.62891 0.06844 0.03549 0.0
H664 H 0.48013 0.06101 0.04473 0.0
H665 H 0.64634 0.06044 0.03532 0.0
H666 H 0.65116 0.1602 0.03916 0.0
H667 H 0.49368 0.11568 0.05048 0.0
H668 H 0.58817 0.02204 0.03468 0.0
H669 H 0.36294 0.93748 0.98959 0.0
H670 H 0.66518 0.11732 0.03635 0.0
H671 H 0.52989 0.93892 0.97806 0.0
H672 H 0.42102 0.97633 0.98979 0.0
H673 H 0.5168 0.88449 0.97202 0.0
H674 H 0.60946 0.17533 0.04348 0.0
H675 H 0.34467 0.88074 0.98834 0.0
H676 H 0.35924 0.83829 0.98499 0.0
H677 H 0.5506 0.15877 0.04817 0.0
H678 H 0.40127 0.82378 0.98001 0.0
N679 N 0.4362 0.94218 0.98943 0.0
C680 C 0.41372 0.95176 0.98925 0.0
C681 C 0.37034 0.89774 0.9885 0.0
C682 C 0.39342 0.88816 0.98733 0.0
C683 C 0.38057 0.92973 0.98914 0.0
C684 C 0.4265 0.91127 0.98771 0.0
H685 H 0.46015 0.84097 0.9747 0.0
N686 N 0.48121 0.9265 0.98451 0.0
C687 C 0.49775 0.88937 0.97581 0.0
C688 C 0.44992 0.90311 0.98508 0.0
C689 C 0.50506 0.92025 0.97924 0.0
C690 C 0.46576 0.86486 0.97739 0.0
C691 C 0.44127 0.87162 0.98178 0.0
O692 O 0.51669 0.98523 0.96498 0.0
O693 O 0.52931 0.01655 1.00465 0.0
O694 O 0.51362 0.05242 0.01188 0.0
O695 O 0.4779 0.01338 0.99143 0.0
O696 O 0.54259 0.99148 0.98781 0.0
O697 O 0.47271 0.98708 0.96658 0.0
O698 O 0.49332 0.01555 0.05875 0.0
O699 O 0.48043 0.98261 0.0191 0.0
O700 O 0.49651 0.94674 0.01156 0.0
O701 O 0.53137 0.98553 0.03249 0.0
O702 O 0.46697 0.00756 0.03586 0.0
O703 O 0.53581 0.01106 0.05718 0.0
C704 C 0.55367 0.01594 0.99825 0.0
C705 C 0.48602 0.97397 0.93723 0.0
C706 C 0.48917 0.97763 0.9029 0.0
C707 C 0.49748 0.99207 0.92068 0.0
C708 C 0.46902 0.9448 0.90202 0.0
C709 C 0.46585 0.94136 0.93597 0.0
C710 C 0.45743 0.9269 0.91844 0.0
C711 C 0.49302 0.04275 0.99763 0.0
C712 C 0.49576 0.98944 0.95565 0.0
C713 C 0.40844 0.84819 0.9823 0.0
C714 C 0.38452 0.85645 0.98513 0.0
C715 C 0.45596 0.98294 0.02557 0.0
C716 C 0.52407 0.02576 0.08643 0.0
C717 C 0.5136 0.0078 0.10308 0.0
C718 C 0.52391 0.02227 0.12076 0.0
C719 C 0.54451 0.05506 0.12143 0.0
C720 C 0.54472 0.05832 0.0875 0.0
C721 C 0.55476 0.07285 0.10492 0.0
C722 C 0.51677 0.95633 0.02598 0.0
C723 C 0.51342 0.01013 0.06811 0.0
H724 H 0.51324 0.01728 0.92168 0.0
H725 H 0.4618 0.93297 0.88862 0.0
H726 H 0.45664 0.92709 0.94848 0.0
H727 H 0.44182 0.9017 0.91756 0.0
H728 H 0.49795 0.98256 0.10221 0.0
H729 H 0.55251 0.06705 0.13475 0.0
H730 H 0.55312 0.07249 0.07491 0.0
H731 H 0.57061 0.09804 0.10565 0.0
Tb732 Tb 0.03191 0.50734 0.99151 0.0
C733 C 0.90366 0.45736 0.03393 0.0
C734 C 0.88957 0.49808 0.03095 0.0
C735 C 0.84706 0.4435 0.03389 0.0
C736 C 0.913 0.48859 0.03173 0.0
C737 C 0.87063 0.43446 0.03552 0.0
C738 C 0.85652 0.47529 0.03158 0.0
C739 C 0.88694 0.39607 0.04195 0.0
N740 N 0.9272 0.44972 0.03561 0.0
C741 C 0.91939 0.41972 0.04036 0.0
C742 C 0.86242 0.40338 0.03928 0.0
Tb743 Tb 0.97961 0.48984 0.03218 0.0
N744 N 0.94515 0.5098 0.03132 0.0
C745 C 0.9555 0.54127 0.03153 0.0
C746 C 0.9001 0.5302 0.03005 0.0
C747 C 0.93321 0.55188 0.03064 0.0
H748 H 0.93815 0.4138 0.04233 0.0
H749 H 0.94163 0.57681 0.03031 0.0
H750 H 0.83814 0.48208 0.03078 0.0
H751 H 0.88087 0.37222 0.04522 0.0
H752 H 0.98096 0.55845 0.03185 0.0
H753 H 0.07307 0.42284 0.99528 0.0
H754 H 0.88291 0.53849 0.02935 0.0
H755 H 0.07115 0.58198 0.97805 0.0
H756 H 0.03266 0.43981 0.99333 0.0
H757 H 0.12764 0.6238 0.97291 0.0
H758 H 0.82151 0.42623 0.03488 0.0
H759 H 0.13152 0.46221 0.99522 0.0
H760 H 0.17521 0.51882 0.99197 0.0
H761 H 0.83732 0.38504 0.0406 0.0
H762 H 0.19017 0.57377 0.98572 0.0
N763 N 0.06756 0.48874 0.9928 0.0
C764 C 0.05798 0.45744 0.99324 0.0
C765 C 0.11384 0.46988 0.99439 0.0
C766 C 0.12355 0.50173 0.99265 0.0
C767 C 0.08088 0.44761 0.99436 0.0
C768 C 0.09951 0.51042 0.99175 0.0
H769 H 0.17252 0.61305 0.97809 0.0
N770 N 0.0837 0.54778 0.98648 0.0
C771 C 0.12245 0.60069 0.9774 0.0
C772 C 0.10792 0.54115 0.98842 0.0
C773 C 0.0904 0.57684 0.98032 0.0
C774 C 0.14772 0.59456 0.9804 0.0
C775 C 0.1406 0.56433 0.98568 0.0
O776 O 0.02634 0.52214 0.96475 0.0
O777 O 0.98921 0.50516 1.00347 0.0
O778 O 0.95158 0.45598 0.01042 0.0
O779 O 0.99363 0.45727 0.99293 0.0
O780 O 0.01575 0.54126 0.98557 0.0
O781 O 0.02331 0.47726 0.96861 0.0
O782 O 0.98214 0.47231 0.05869 0.0
O783 O 0.02263 0.4925 0.02041 0.0
O784 O 0.06038 0.54286 0.01244 0.0
O785 O 0.01878 0.53962 0.03157 0.0
O786 O 0.99577 0.4559 0.03801 0.0
O787 O 0.98817 0.51863 0.05574 0.0
C788 C 0.98994 0.52853 0.99568 0.0
C789 C 0.04279 0.50282 0.93943 0.0
C790 C 0.04545 0.504 0.90524 0.0
C791 C 0.02764 0.49822 0.92199 0.0
C792 C 0.07884 0.51476 0.90621 0.0
C793 C 0.07603 0.51317 0.94017 0.0
C794 C 0.09396 0.51921 0.92361 0.0
C795 C 0.96264 0.44365 0.99796 0.0
C796 C 0.02344 0.49726 0.95655 0.0
C797 C 0.16487 0.55624 0.98755 0.0
C798 C 0.15635 0.52496 0.99109 0.0
C799 C 0.02198 0.46919 0.02824 0.0
C800 C 0.96641 0.49174 0.08433 0.0
C801 C 0.9813 0.49705 0.10191 0.0
C802 C 0.96309 0.49121 0.11851 0.0
C803 C 0.9296 0.47981 0.11725 0.0
C804 C 0.93306 0.48067 0.0833 0.0
C805 C 0.91475 0.47469 0.09971 0.0
C806 C 0.04947 0.55407 0.02577 0.0
C807 C 0.98617 0.49726 0.06739 0.0
H808 H 1.00197 0.49043 0.92148 0.0
H809 H 0.09311 0.51917 0.89353 0.0
H810 H 0.08809 0.51657 0.95345 0.0
H811 H 0.11962 0.52724 0.92426 0.0
H812 H 0.00706 0.50534 0.10265 0.0
H813 H 0.91501 0.47535 0.1298 0.0
H814 H 0.92117 0.4766 0.06992 0.0
H815 H 0.889 0.46612 0.09884 0.0
Tb816 Tb 0.52168 0.4906 0.03208 0.0
C817 C 0.45007 0.54375 0.98732 0.0
C818 C 0.39354 0.50392 0.98946 0.0
C819 C 0.40871 0.55886 0.98629 0.0
C820 C 0.42659 0.51272 0.98932 0.0
C821 C 0.4415 0.56721 0.98538 0.0
C822 C 0.38474 0.52723 0.98836 0.0
C823 C 0.49811 0.60484 0.98031 0.0
N824 N 0.48136 0.55071 0.9864 0.0
C825 C 0.50532 0.58066 0.98223 0.0
C826 C 0.46609 0.59817 0.98211 0.0
Tb827 Tb 0.49105 0.50982 0.99056 0.0
N828 N 0.43619 0.49102 0.99021 0.0
C829 C 0.41359 0.45971 0.98988 0.0
C830 C 0.37038 0.47197 0.99024 0.0
C831 C 0.38048 0.44976 0.99017 0.0
H832 H 0.53018 0.58617 0.98093 0.0
H833 H 0.36277 0.42495 0.99042 0.0
H834 H 0.35948 0.52099 0.98863 0.0
H835 H 0.51725 0.62861 0.97746 0.0
H836 H 0.42079 0.44213 0.98997 0.0
H837 H 0.65004 0.57522 0.03241 0.0
H838 H 0.34473 0.4642 0.99046 0.0
H839 H 0.48224 0.41421 0.04174 0.0
H840 H 0.59208 0.5582 0.0326 0.0
H841 H 0.495 0.37173 0.04551 0.0
H842 H 0.4016 0.57655 0.985 0.0
H843 H 0.66791 0.53584 0.03279 0.0
H844 H 0.65299 0.47905 0.03491 0.0
H845 H 0.46056 0.61692 0.98055 0.0
H846 H 0.61073 0.42355 0.03858 0.0
N847 N 0.57652 0.50927 0.03263 0.0
C848 C 0.59919 0.54056 0.03287 0.0
C849 C 0.64228 0.52815 0.0329 0.0
C850 C 0.61905 0.49623 0.03375 0.0
C851 C 0.63228 0.55042 0.03273 0.0
C852 C 0.58601 0.48751 0.03374 0.0
H853 H 0.5517 0.38331 0.0428 0.0
N854 N 0.53117 0.44963 0.03647 0.0
C855 C 0.51422 0.39548 0.04269 0.0
C856 C 0.56246 0.45652 0.03576 0.0
C857 C 0.5071 0.4197 0.0406 0.0
C858 C 0.54624 0.40209 0.04111 0.0
C859 C 0.57092 0.43301 0.03788 0.0
O860 O 0.49834 0.47373 0.05812 0.0
O861 O 0.48234 0.49358 0.01919 0.0
O862 O 0.49652 0.54314 0.01237 0.0
O863 O 0.53539 0.54067 0.03098 0.0
O864 O 0.47009 0.45648 0.03652 0.0
O865 O 0.54113 0.51932 0.05586 0.0
O866 O 0.51358 0.52705 0.96435 0.0
O867 O 0.53036 0.50692 1.00347 0.0
O868 O 0.51637 0.45729 0.01032 0.0
O869 O 0.47763 0.45981 0.99159 0.0
O870 O 0.54267 0.54374 0.98591 0.0
O871 O 0.47178 0.48082 0.96689 0.0
C872 C 0.4583 0.46993 0.02636 0.0
C873 C 0.53103 0.49269 0.08496 0.0
C874 C 0.52902 0.49143 0.11927 0.0
C875 C 0.51926 0.49773 0.10193 0.0
C876 C 0.55083 0.47999 0.11931 0.0
C877 C 0.55286 0.48145 0.08531 0.0
C878 C 0.56268 0.47513 0.10243 0.0
C879 C 0.51912 0.55469 0.02549 0.0
C880 C 0.51943 0.49851 0.06715 0.0
C881 C 0.6037 0.44128 0.03714 0.0
C882 C 0.62775 0.47287 0.03506 0.0
C883 C 0.55443 0.5304 0.99618 0.0
C884 C 0.47994 0.5072 0.93787 0.0
C885 C 0.49069 0.50184 0.92062 0.0
C886 C 0.47906 0.50685 0.90354 0.0
C887 C 0.45661 0.51752 0.90409 0.0
C888 C 0.45748 0.51769 0.93807 0.0
C889 C 0.44595 0.52286 0.92124 0.0
C890 C 0.49386 0.44578 0.99715 0.0
C891 C 0.49271 0.50198 0.95544 0.0
H892 H 0.50209 0.5061 0.10159 0.0
H893 H 0.55911 0.47524 0.1324 0.0
H894 H 0.56221 0.47747 0.07241 0.0
H895 H 0.57956 0.46646 0.10262 0.0
H896 H 0.50774 0.49333 0.92054 0.0
H897 H 0.44752 0.52207 0.89125 0.0
H898 H 0.4489 0.5219 0.95118 0.0
H899 H 0.42871 0.5311 0.92149 0.0
Tb900 Tb 0.15929 0.30991 0.32407 0.0
C901 C 0.22672 0.42989 0.37204 0.0
C902 C 0.28343 0.4456 0.36985 0.0
C903 C 0.2676 0.48502 0.37478 0.0
C904 C 0.25047 0.42216 0.36945 0.0
C905 C 0.2349 0.46127 0.37529 0.0
C906 C 0.29186 0.47719 0.37201 0.0
C907 C 0.17825 0.4428 0.38118 0.0
N908 N 0.19557 0.4062 0.37261 0.0
C909 C 0.17141 0.41204 0.37781 0.0
C910 C 0.21009 0.46761 0.37962 0.0
Tb911 Tb 0.18647 0.35662 0.36664 0.0
N912 N 0.24121 0.39135 0.36776 0.0
C913 C 0.26402 0.38219 0.36802 0.0
C914 C 0.30684 0.43645 0.36875 0.0
C915 C 0.29707 0.40455 0.36816 0.0
H916 H 0.14668 0.39315 0.37898 0.0
H917 H 0.31496 0.39714 0.36778 0.0
H918 H 0.31704 0.4956 0.37217 0.0
H919 H 0.15895 0.44735 0.38491 0.0
H920 H 0.25705 0.35769 0.36752 0.0
H921 H 0.03106 0.27051 0.3221 0.0
H922 H 0.33244 0.45371 0.36894 0.0
H923 H 0.19869 0.27265 0.31259 0.0
H924 H 0.08905 0.30956 0.32265 0.0
H925 H 0.18599 0.21822 0.30696 0.0
H926 H 0.27442 0.50935 0.37704 0.0
H927 H 0.01307 0.21382 0.32107 0.0
H928 H 0.02797 0.17153 0.31825 0.0
H929 H 0.21534 0.49139 0.38227 0.0
H930 H 0.07029 0.15722 0.31394 0.0
N931 N 0.10447 0.27558 0.32266 0.0
C932 C 0.08189 0.28501 0.3222 0.0
C933 C 0.03871 0.23091 0.32138 0.0
C934 C 0.06192 0.22146 0.32054 0.0
C935 C 0.04878 0.26287 0.3219 0.0
C936 C 0.09495 0.24469 0.32109 0.0
H937 H 0.12934 0.17458 0.30928 0.0
N938 N 0.14979 0.26011 0.31842 0.0
C939 C 0.16677 0.22305 0.3104 0.0
C940 C 0.11852 0.23664 0.31882 0.0
C941 C 0.17386 0.25393 0.31359 0.0
C942 C 0.13479 0.19847 0.31178 0.0
C943 C 0.11009 0.20515 0.31574 0.0
O944 O 0.1845 0.31761 0.29844 0.0
O945 O 0.19723 0.35047 0.33807 0.0
O946 O 0.18056 0.38582 0.34558 0.0
O947 O 0.1457 0.34672 0.32482 0.0
O948 O 0.21091 0.32564 0.32132 0.0
O949 O 0.1416 0.32139 0.30008 0.0
O950 O 0.16112 0.34773 0.3923 0.0
O951 O 0.14852 0.31622 0.35256 0.0
O952 O 0.16456 0.28066 0.34539 0.0
O953 O 0.20023 0.31995 0.36572 0.0
O954 O 0.13481 0.34075 0.36954 0.0
O955 O 0.20514 0.34597 0.39052 0.0
C956 C 0.22176 0.35024 0.33161 0.0
C957 C 0.1536 0.30698 0.27079 0.0
C958 C 0.15368 0.31035 0.23644 0.0
C959 C 0.16388 0.32491 0.25412 0.0
C960 C 0.13341 0.27751 0.23582 0.0
C961 C 0.13327 0.27437 0.26975 0.0
C962 C 0.12335 0.25976 0.25234 0.0
C963 C 0.16005 0.37594 0.33128 0.0
C964 C 0.16413 0.32267 0.28911 0.0
C965 C 0.0773 0.18162 0.31608 0.0
C966 C 0.05322 0.18977 0.31852 0.0
C967 C 0.12397 0.31637 0.35905 0.0
C968 C 0.19215 0.35917 0.41992 0.0
C969 C 0.1812 0.34113 0.43652 0.0
C970 C 0.18974 0.35567 0.45427 0.0
C971 C 0.20965 0.38853 0.45506 0.0
C972 C 0.21207 0.39183 0.42111 0.0
C973 C 0.22074 0.40638 0.43861 0.0
C974 C 0.18525 0.29053 0.35959 0.0
C975 C 0.1822 0.3436 0.40154 0.0
H976 H 0.17929 0.35019 0.25496 0.0
H977 H 0.12551 0.26545 0.22252 0.0
H978 H 0.12503 0.26022 0.28235 0.0
H979 H 0.10776 0.23453 0.25164 0.0
H980 H 0.16562 0.31588 0.43559 0.0
H981 H 0.21703 0.40044 0.46844 0.0
H982 H 0.22089 0.40606 0.40856 0.0
H983 H 0.23615 0.43161 0.43942 0.0
Tb984 Tb 0.69757 0.8419 0.32435 0.0
C985 C 0.56991 0.79217 0.36896 0.0
C986 C 0.55439 0.8315 0.36399 0.0
C987 C 0.51305 0.77736 0.37014 0.0
C988 C 0.57835 0.82271 0.36502 0.0
C989 C 0.53729 0.76927 0.37222 0.0
C990 C 0.5216 0.80846 0.36597 0.0
C991 C 0.55552 0.73341 0.38154 0.0
N992 N 0.59411 0.78556 0.37109 0.0
C993 C 0.58752 0.75696 0.37804 0.0
C994 C 0.53022 0.7394 0.37827 0.0
Tb995 Tb 0.64581 0.82546 0.3652 0.0
N996 N 0.61031 0.84423 0.36364 0.0
C997 C 0.62001 0.87555 0.36282 0.0
C998 C 0.56421 0.8633 0.36176 0.0
C999 C 0.59719 0.88547 0.36153 0.0
H1000 H 0.60678 0.75192 0.38052 0.0
H1001 H 0.6051 0.91022 0.36028 0.0
H1002 H 0.5028 0.81467 0.36499 0.0
H1003 H 0.55041 0.71063 0.38666 0.0
H1004 H 0.64535 0.8931 0.36251 0.0
H1005 H 0.73439 0.75411 0.32695 0.0
H1006 H 0.54659 0.87104 0.36082 0.0
H1007 H 0.73955 0.91769 0.31368 0.0
H1008 H 0.69545 0.77295 0.32516 0.0
H1009 H 0.797 0.95887 0.31064 0.0
H1010 H 0.48778 0.76003 0.37235 0.0
H1011 H 0.79321 0.79206 0.32787 0.0
H1012 H 0.83835 0.84829 0.32619 0.0
H1013 H 0.50548 0.72115 0.38101 0.0
H1014 H 0.85549 0.90419 0.3217 0.0
N1015 N 0.7316 0.82148 0.32548 0.0
C1016 C 0.72097 0.78996 0.32544 0.0
C1017 C 0.7762 0.80055 0.32704 0.0
C1018 C 0.78701 0.83271 0.32597 0.0
C1019 C 0.74303 0.77908 0.32648 0.0
C1020 C 0.76382 0.84248 0.32504 0.0
H1021 H 0.8402 0.94564 0.31556 0.0
N1022 N 0.75011 0.88163 0.32077 0.0
C1023 C 0.79071 0.93503 0.3141 0.0
C1024 C 0.77345 0.87374 0.3226 0.0
C1025 C 0.75818 0.91161 0.31578 0.0
C1026 C 0.81503 0.92749 0.31694 0.0
C1027 C 0.80654 0.8964 0.32094 0.0
O1028 O 0.69534 0.85923 0.2977 0.0
O1029 O 0.65461 0.83946 0.33612 0.0
O1030 O 0.61689 0.78885 0.34486 0.0
O1031 O 0.658 0.79232 0.3251 0.0
O1032 O 0.6815 0.87581 0.3183 0.0
O1033 O 0.68885 0.81279 0.30096 0.0
O1034 O 0.65235 0.81174 0.3921 0.0
O1035 O 0.68816 0.8271 0.35314 0.0
O1036 O 0.72591 0.87612 0.34587 0.0
O1037 O 0.68409 0.87544 0.36323 0.0
O1038 O 0.66181 0.79147 0.37134 0.0
O1039 O 0.65515 0.85639 0.38772 0.0
C1040 C 0.6553 0.86265 0.32809 0.0
C1041 C 0.71109 0.83924 0.27233 0.0
C1042 C 0.71518 0.84031 0.23814 0.0
C1043 C 0.69684 0.83532 0.25462 0.0
C1044 C 0.74814 0.84941 0.2397 0.0
C1045 C 0.74391 0.84814 0.2736 0.0
C1046 C 0.76234 0.85326 0.25735 0.0
C1047 C 0.62751 0.77777 0.33128 0.0
C1048 C 0.69117 0.8341 0.28915 0.0
C1049 C 0.82989 0.8871 0.32274 0.0
C1050 C 0.82014 0.85528 0.32527 0.0
C1051 C 0.68745 0.80386 0.36108 0.0
C1052 C 0.63632 0.83183 0.4172 0.0
C1053 C 0.65126 0.83515 0.43462 0.0
C1054 C 0.63374 0.83021 0.45142 0.0
C1055 C 0.60086 0.82168 0.45049 0.0
C1056 C 0.60361 0.82355 0.41653 0.0
C1057 C 0.58597 0.8184 0.43312 0.0
C1058 C 0.71505 0.88879 0.35821 0.0
C1059 C 0.65537 0.83687 0.40001 0.0
H1060 H 0.6713 0.82789 0.25374 0.0
H1061 H 0.76302 0.8538 0.2273 0.0
H1062 H 0.75528 0.85109 0.28708 0.0
H1063 H 0.78771 0.86026 0.25842 0.0
H1064 H 0.67673 0.84212 0.43503 0.0
H1065 H 0.58661 0.81736 0.46316 0.0
H1066 H 0.59175 0.82117 0.40328 0.0
H1067 H 0.56068 0.81189 0.43252 0.0
Tb1068 Tb 0.18514 0.82277 0.36562 0.0
C1069 C 0.11557 0.87722 0.31951 0.0
C1070 C 0.05885 0.83828 0.32243 0.0
C1071 C 0.07489 0.89314 0.3176 0.0
C1072 C 0.09176 0.84654 0.32231 0.0
C1073 C 0.10749 0.90084 0.31656 0.0
C1074 C 0.05059 0.86188 0.32058 0.0
C1075 C 0.16396 0.93697 0.30993 0.0
N1076 N 0.14662 0.88349 0.31842 0.0
C1077 C 0.17071 0.91269 0.31301 0.0
C1078 C 0.13228 0.93115 0.31201 0.0
Tb1079 Tb 0.15555 0.84243 0.32384 0.0
N1080 N 0.10084 0.82451 0.32368 0.0
C1081 C 0.07783 0.79331 0.32369 0.0
C1082 C 0.0353 0.80651 0.32375 0.0
C1083 C 0.04484 0.7839 0.32407 0.0
H1084 H 0.19533 0.91759 0.31146 0.0
H1085 H 0.02682 0.7592 0.32466 0.0
H1086 H 0.02546 0.85607 0.32084 0.0
H1087 H 0.18322 0.96018 0.30603 0.0
H1088 H 0.08461 0.77544 0.32403 0.0
H1089 H 0.31334 0.90795 0.36671 0.0
H1090 H 0.00975 0.79916 0.32398 0.0
H1091 H 0.14597 0.74639 0.37507 0.0
H1092 H 0.2553 0.89065 0.36669 0.0
H1093 H 0.15899 0.70403 0.37879 0.0
H1094 H 0.06817 0.911 0.31559 0.0
H1095 H 0.33151 0.8688 0.36695 0.0
H1096 H 0.31689 0.81207 0.36879 0.0
H1097 H 0.1271 0.94997 0.30958 0.0
H1098 H 0.27481 0.75644 0.37216 0.0
N1099 N 0.24002 0.84176 0.36641 0.0
C1100 C 0.26254 0.8731 0.36687 0.0
C1101 C 0.30585 0.86098 0.36695 0.0
C1102 C 0.28274 0.829 0.3676 0.0
C1103 C 0.29568 0.88312 0.36686 0.0
C1104 C 0.24966 0.82011 0.36746 0.0
H1105 H 0.21581 0.71593 0.37618 0.0
N1106 N 0.19486 0.78196 0.36992 0.0
C1107 C 0.17815 0.72784 0.37604 0.0
C1108 C 0.22621 0.78903 0.36929 0.0
C1109 C 0.17087 0.75196 0.37398 0.0
C1110 C 0.21023 0.73463 0.37451 0.0
C1111 C 0.23482 0.76563 0.37138 0.0
O1112 O 0.16143 0.8052 0.39151 0.0
O1113 O 0.14628 0.8265 0.35261 0.0
O1114 O 0.16219 0.87727 0.34496 0.0
O1115 O 0.19861 0.87274 0.36484 0.0
O1116 O 0.13352 0.7888 0.36961 0.0
O1117 O 0.20412 0.85093 0.38963 0.0
O1118 O 0.17885 0.85803 0.29764 0.0
O1119 O 0.19443 0.83915 0.33705 0.0
O1120 O 0.17998 0.78955 0.34385 0.0
O1121 O 0.1414 0.79225 0.32512 0.0
O1122 O 0.20729 0.87609 0.31952 0.0
O1123 O 0.13541 0.81312 0.30037 0.0
C1124 C 0.12207 0.80278 0.35964 0.0
C1125 C 0.19376 0.8238 0.41854 0.0
C1126 C 0.19188 0.8226 0.45285 0.0
C1127 C 0.18207 0.8289 0.43552 0.0
C1128 C 0.21365 0.81112 0.45286 0.0
C1129 C 0.21554 0.8125 0.41886 0.0
C1130 C 0.22539 0.80618 0.43596 0.0
C1131 C 0.18358 0.8877 0.35879 0.0
C1132 C 0.18231 0.82984 0.40074 0.0
C1133 C 0.26766 0.77409 0.37076 0.0
C1134 C 0.29161 0.80575 0.36884 0.0
C1135 C 0.21874 0.86263 0.32994 0.0
C1136 C 0.14515 0.83927 0.27116 0.0
C1137 C 0.15654 0.83443 0.25397 0.0
C1138 C 0.14556 0.84001 0.23682 0.0
C1139 C 0.12324 0.85085 0.23722 0.0
C1140 C 0.12274 0.84982 0.2712 0.0
C1141 C 0.11196 0.85567 0.2543 0.0
C1142 C 0.15746 0.77807 0.3307 0.0
C1143 C 0.15709 0.83335 0.28884 0.0
H1144 H 0.16495 0.83733 0.4352 0.0
H1145 H 0.22199 0.8064 0.46593 0.0
H1146 H 0.22486 0.80853 0.40595 0.0
H1147 H 0.24225 0.79749 0.43613 0.0
H1148 H 0.17351 0.82582 0.254 0.0
H1149 H 0.11467 0.85584 0.22433 0.0
H1150 H 0.11355 0.85349 0.28422 0.0
H1151 H 0.09477 0.86397 0.25443 0.0
Tb1152 Tb 0.82357 0.64243 0.65747 0.0
C1153 C 0.89449 0.76289 0.70418 0.0
C1154 C 0.95078 0.77677 0.70304 0.0
C1155 C 0.9366 0.81769 0.70616 0.0
C1156 C 0.91757 0.75404 0.70254 0.0
C1157 C 0.9036 0.79472 0.70643 0.0
C1158 C 0.96018 0.80872 0.70444 0.0
C1159 C 0.84701 0.7784 0.71053 0.0
N1160 N 0.86298 0.73995 0.70448 0.0
C1161 C 0.83924 0.74712 0.70833 0.0
C1162 C 0.87931 0.80236 0.70936 0.0
Tb1163 Tb 0.85242 0.68954 0.69988 0.0
N1164 N 0.90739 0.72296 0.70135 0.0
C1165 C 0.92945 0.71289 0.70206 0.0
C1166 C 0.97345 0.76664 0.70261 0.0
C1167 C 0.9627 0.73452 0.70241 0.0
H1168 H 0.81418 0.72883 0.70914 0.0
H1169 H 0.98001 0.72637 0.70245 0.0
H1170 H 0.98557 0.82658 0.70467 0.0
H1171 H 0.82807 0.78399 0.71312 0.0
H1172 H 0.92178 0.68822 0.70181 0.0
H1173 H 0.69524 0.60288 0.65758 0.0
H1174 H 0.9992 0.78333 0.7029 0.0
H1175 H 0.86242 0.60526 0.64457 0.0
H1176 H 0.75321 0.64192 0.65744 0.0
H1177 H 0.84953 0.55093 0.63848 0.0
H1178 H 0.94414 0.84233 0.70769 0.0
H1179 H 0.67722 0.5462 0.65622 0.0
H1180 H 0.69203 0.50397 0.65255 0.0
H1181 H 0.88527 0.82655 0.71113 0.0
H1182 H 0.73418 0.48974 0.64715 0.0
N1183 N 0.76869 0.60801 0.6567 0.0
C1184 C 0.74606 0.61741 0.6568 0.0
C1185 C 0.70287 0.5633 0.65621 0.0
C1186 C 0.72605 0.55389 0.65477 0.0
C1187 C 0.71295 0.59526 0.65691 0.0
C1188 C 0.7591 0.57713 0.65493 0.0
H1189 H 0.79302 0.50722 0.64143 0.0
N1190 N 0.81378 0.59266 0.65129 0.0
C1191 C 0.83045 0.55569 0.6424 0.0
C1192 C 0.78256 0.56914 0.65205 0.0
C1193 C 0.83765 0.58653 0.64586 0.0
C1194 C 0.79855 0.53107 0.64414 0.0
C1195 C 0.77402 0.53768 0.64873 0.0
O1196 O 0.84799 0.65074 0.63152 0.0
O1197 O 0.86233 0.68244 0.6714 0.0
O1198 O 0.84817 0.7186 0.67809 0.0
O1199 O 0.80989 0.6791 0.65899 0.0
O1200 O 0.87507 0.65774 0.65396 0.0
O1201 O 0.80519 0.65453 0.63402 0.0
O1202 O 0.82822 0.68407 0.72564 0.0
O1203 O 0.81386 0.64909 0.68618 0.0
O1204 O 0.82963 0.61314 0.6784 0.0
O1205 O 0.86506 0.65209 0.6991 0.0
O1206 O 0.8009 0.67413 0.70322 0.0
O1207 O 0.86945 0.67745 0.72391 0.0
C1208 C 0.8865 0.6819 0.66465 0.0
C1209 C 0.81619 0.64053 0.60431 0.0
C1210 C 0.81603 0.64419 0.56998 0.0
C1211 C 0.82673 0.65854 0.58767 0.0
C1212 C 0.79496 0.61147 0.56931 0.0
C1213 C 0.79507 0.60806 0.60322 0.0
C1214 C 0.78463 0.59364 0.5858 0.0
C1215 C 0.82609 0.70871 0.66467 0.0
C1216 C 0.82733 0.65597 0.62266 0.0
C1217 C 0.74126 0.51413 0.64946 0.0
C1218 C 0.71728 0.52222 0.65252 0.0
C1219 C 0.78961 0.64943 0.69299 0.0
C1220 C 0.85931 0.69363 0.75314 0.0
C1221 C 0.84941 0.67587 0.76988 0.0
C1222 C 0.86038 0.69052 0.78747 0.0
C1223 C 0.88114 0.7233 0.78793 0.0
C1224 C 0.88008 0.72618 0.75401 0.0
C1225 C 0.89085 0.7409 0.77133 0.0
C1226 C 0.85029 0.62286 0.69263 0.0
C1227 C 0.84779 0.6778 0.73494 0.0
H1228 H 0.84277 0.68371 0.58855 0.0
H1229 H 0.78666 0.59954 0.556 0.0
H1230 H 0.78663 0.59387 0.61581 0.0
H1231 H 0.76843 0.56852 0.58506 0.0
H1232 H 0.83363 0.65063 0.76915 0.0
H1233 H 0.88964 0.73547 0.80116 0.0
H1234 H 0.88796 0.7402 0.74134 0.0
H1235 H 0.90679 0.76608 0.77191 0.0
Tb1236 Tb 0.36622 0.17358 0.65734 0.0
C1237 C 0.23763 0.12394 0.6997 0.0
C1238 C 0.22346 0.16455 0.69641 0.0
C1239 C 0.18101 0.11 0.69967 0.0
C1240 C 0.24692 0.15511 0.6973 0.0
C1241 C 0.20462 0.10102 0.70139 0.0
C1242 C 0.19042 0.14174 0.69716 0.0
C1243 C 0.22102 0.06276 0.708 0.0
N1244 N 0.26121 0.11636 0.70143 0.0
C1245 C 0.25345 0.08641 0.7063 0.0
C1246 C 0.19646 0.07 0.70529 0.0
Tb1247 Tb 0.31359 0.15646 0.69784 0.0
N1248 N 0.27906 0.17634 0.69676 0.0
C1249 C 0.28937 0.2078 0.69673 0.0
C1250 C 0.23394 0.19663 0.69528 0.0
C1251 C 0.26704 0.21836 0.69572 0.0
H1252 H 0.27223 0.08052 0.70831 0.0
H1253 H 0.27542 0.24327 0.69519 0.0
H1254 H 0.17201 0.14848 0.69629 0.0
H1255 H 0.215 0.03896 0.71138 0.0
H1256 H 0.31481 0.22502 0.69693 0.0
H1257 H 0.40711 0.08898 0.66217 0.0
H1258 H 0.21671 0.20487 0.69447 0.0
H1259 H 0.40574 0.24803 0.64359 0.0
H1260 H 0.36679 0.10601 0.65966 0.0
H1261 H 0.46236 0.28978 0.63866 0.0
H1262 H 0.15548 0.09272 0.70073 0.0
H1263 H 0.46557 0.1283 0.66246 0.0
H1264 H 0.50937 0.18488 0.65923 0.0
H1265 H 0.17137 0.05167 0.70668 0.0
H1266 H 0.52453 0.2398 0.65269 0.0
N1267 N 0.40175 0.15491 0.65915 0.0
C1268 C 0.39212 0.12361 0.65971 0.0
C1269 C 0.44793 0.136 0.66138 0.0
C1270 C 0.45772 0.16785 0.6595 0.0
C1271 C 0.41497 0.11375 0.66116 0.0
C1272 C 0.43374 0.17657 0.65828 0.0
H1273 H 0.50709 0.27903 0.64447 0.0
N1274 N 0.4181 0.21395 0.65253 0.0
C1275 C 0.45706 0.26672 0.64333 0.0
C1276 C 0.44226 0.20729 0.6548 0.0
C1277 C 0.42494 0.24292 0.64614 0.0
C1278 C 0.48225 0.2606 0.64669 0.0
C1279 C 0.47499 0.23042 0.65219 0.0
O1280 O 0.36097 0.1882 0.63045 0.0
O1281 O 0.32339 0.17145 0.66906 0.0
O1282 O 0.28565 0.12235 0.67619 0.0
O1283 O 0.32774 0.12354 0.65875 0.0
O1284 O 0.34999 0.20735 0.65103 0.0
O1285 O 0.3584 0.14358 0.6345 0.0
O1286 O 0.31634 0.13939 0.72445 0.0
O1287 O 0.35669 0.15898 0.68628 0.0
O1288 O 0.39444 0.20941 0.67821 0.0
O1289 O 0.35259 0.20626 0.69704 0.0
O1290 O 0.32956 0.12247 0.70388 0.0
O1291 O 0.3222 0.18559 0.72122 0.0
C1292 C 0.3241 0.19468 0.66109 0.0
C1293 C 0.37862 0.16938 0.60543 0.0
C1294 C 0.38284 0.17183 0.57127 0.0
C1295 C 0.36426 0.16546 0.58777 0.0
C1296 C 0.41615 0.18245 0.57271 0.0
C1297 C 0.41177 0.17953 0.60661 0.0
C1298 C 0.43044 0.18614 0.59031 0.0
C1299 C 0.29674 0.10993 0.6638 0.0
C1300 C 0.35862 0.16348 0.62233 0.0
C1301 C 0.49919 0.2223 0.6544 0.0
C1302 C 0.49056 0.19104 0.65811 0.0
C1303 C 0.3559 0.13567 0.69422 0.0
C1304 C 0.301 0.15928 0.75004 0.0
C1305 C 0.31629 0.16513 0.76752 0.0
C1306 C 0.29842 0.15958 0.78423 0.0
C1307 C 0.26486 0.14793 0.78317 0.0
C1308 C 0.26758 0.14795 0.7492 0.0
C1309 C 0.24962 0.14227 0.76573 0.0
C1310 C 0.38336 0.22068 0.6914 0.0
C1311 C 0.32045 0.16449 0.733 0.0
H1312 H 0.33864 0.15776 0.58688 0.0
H1313 H 0.43098 0.1873 0.56023 0.0
H1314 H 0.42322 0.18233 0.62004 0.0
H1315 H 0.45604 0.19402 0.59132 0.0
H1316 H 0.34209 0.17358 0.76809 0.0
H1317 H 0.25052 0.14366 0.79581 0.0
H1318 H 0.25539 0.14343 0.73588 0.0
H1319 H 0.22381 0.1335 0.76502 0.0
Tb1320 Tb 0.85489 0.1571 0.69919 0.0
C1321 C 0.78471 0.21081 0.65343 0.0
C1322 C 0.72807 0.17116 0.6551 0.0
C1323 C 0.74358 0.22618 0.65189 0.0
C1324 C 0.76108 0.17982 0.65529 0.0
C1325 C 0.77635 0.23439 0.65131 0.0
C1326 C 0.71945 0.19458 0.6538 0.0
C1327 C 0.83315 0.27187 0.64676 0.0
N1328 N 0.81598 0.21763 0.65284 0.0
C1329 C 0.84016 0.24757 0.64885 0.0
C1330 C 0.80113 0.26532 0.64821 0.0
Tb1331 Tb 0.82531 0.17657 0.65727 0.0
N1332 N 0.77051 0.15801 0.65637 0.0
C1333 C 0.74781 0.12674 0.6559 0.0
C1334 C 0.70479 0.13924 0.65573 0.0
C1335 C 0.71473 0.11693 0.65586 0.0
H1336 H 0.86501 0.25299 0.64782 0.0
H1337 H 0.69694 0.09214 0.656 0.0
H1338 H 0.69422 0.18845 0.65381 0.0
H1339 H 0.85245 0.29562 0.64405 0.0
H1340 H 0.75489 0.10907 0.65614 0.0
H1341 H 0.98326 0.24155 0.70054 0.0
H1342 H 0.67916 0.13158 0.65569 0.0
H1343 H 0.81516 0.08071 0.7088 0.0
H1344 H 0.92532 0.22462 0.70025 0.0
H1345 H 0.82773 0.03814 0.71282 0.0
H1346 H 0.73663 0.24396 0.65045 0.0
H1347 H 1.00104 0.20212 0.70112 0.0
H1348 H 0.98598 0.14528 0.70321 0.0
H1349 H 0.79575 0.28416 0.64652 0.0
H1350 H 0.94357 0.08978 0.70666 0.0
N1351 N 0.90969 0.17567 0.70019 0.0
C1352 C 0.93239 0.20695 0.7006 0.0
C1353 C 0.97542 0.19446 0.70101 0.0
C1354 C 0.95213 0.16254 0.70171 0.0
C1355 C 0.96547 0.21676 0.70073 0.0
C1356 C 0.91912 0.15388 0.70142 0.0
H1357 H 0.88443 0.04961 0.71053 0.0
N1358 N 0.86421 0.11607 0.70382 0.0
C1359 C 0.84703 0.06188 0.71008 0.0
C1360 C 0.89549 0.12289 0.70332 0.0
C1361 C 0.84003 0.08615 0.70784 0.0
C1362 C 0.87906 0.06842 0.70873 0.0
C1363 C 0.90384 0.09934 0.70559 0.0
O1364 O 0.83112 0.14015 0.72512 0.0
O1365 O 0.81592 0.16015 0.68586 0.0
O1366 O 0.83019 0.20969 0.67903 0.0
O1367 O 0.86868 0.20716 0.69796 0.0
O1368 O 0.8032 0.12308 0.70331 0.0
O1369 O 0.87367 0.18593 0.72297 0.0
O1370 O 0.84858 0.19383 0.63124 0.0
O1371 O 0.86422 0.1735 0.6706 0.0
O1372 O 0.84983 0.12377 0.6775 0.0
O1373 O 0.81158 0.12653 0.65843 0.0
O1374 O 0.87706 0.21042 0.65304 0.0
O1375 O 0.80666 0.14762 0.63353 0.0
C1376 C 0.7917 0.13653 0.69292 0.0
C1377 C 0.8634 0.15943 0.75212 0.0
C1378 C 0.86113 0.15844 0.78642 0.0
C1379 C 0.85134 0.16443 0.76899 0.0
C1380 C 0.88325 0.14738 0.78663 0.0
C1381 C 0.88551 0.14854 0.75264 0.0
C1382 C 0.89536 0.14255 0.76984 0.0
C1383 C 0.85254 0.2212 0.69228 0.0
C1384 C 0.85191 0.16503 0.73419 0.0
C1385 C 0.93662 0.10755 0.70511 0.0
C1386 C 0.96075 0.13914 0.70315 0.0
C1387 C 0.88849 0.19699 0.66349 0.0
C1388 C 0.81569 0.17405 0.60447 0.0
C1389 C 0.82692 0.1687 0.58739 0.0
C1390 C 0.81567 0.1736 0.57015 0.0
C1391 C 0.79315 0.18419 0.57035 0.0
C1392 C 0.7932 0.1845 0.60434 0.0
C1393 C 0.78206 0.18959 0.58733 0.0
C1394 C 0.82753 0.11234 0.66421 0.0
C1395 C 0.82794 0.16878 0.62222 0.0
H1396 H 0.83396 0.17252 0.76852 0.0
H1397 H 0.89158 0.1429 0.79979 0.0
H1398 H 0.89509 0.14462 0.73981 0.0
H1399 H 0.91248 0.13417 0.77017 0.0
H1400 H 0.84402 0.16025 0.58756 0.0
H1401 H 0.78431 0.18861 0.55736 0.0
H1402 H 0.78427 0.18871 0.61731 0.0
H1403 H 0.76477 0.19777 0.58732 0.0
C1404 C 0.37055 0.93517 0.04358 0.0
C1405 C 0.36753 0.90555 0.04656 0.0
H1406 H 0.40084 0.98254 0.03418 0.0
C1407 C 0.39278 0.90056 0.04063 0.0
H1408 H 0.35132 0.9396 0.04773 0.0
C1409 C 0.42124 0.92526 0.03287 0.0
C1410 C 0.42458 0.95515 0.03057 0.0
H1411 H 0.3912 0.87802 0.04283 0.0
H1412 H 0.44098 0.92126 0.02943 0.0
C1413 C 0.39876 0.95967 0.03572 0.0
C1414 C 0.10708 0.48874 0.04237 0.0
C1415 C 0.10178 0.45898 0.04779 0.0
H1416 H 0.08589 0.51561 0.03231 0.0
C1417 C 0.07057 0.43282 0.04575 0.0
H1418 H 0.13075 0.50939 0.04398 0.0
C1419 C 0.04512 0.43634 0.03888 0.0
C1420 C 0.05021 0.46605 0.03373 0.0
H1421 H 0.06573 0.40956 0.04968 0.0
H1422 H 0.02125 0.41578 0.03774 0.0
C1423 C 0.08142 0.4923 0.03564 0.0
C1424 C 0.56044 0.6283 0.05493 0.0
C1425 C 0.53946 0.64046 0.05286 0.0
H1426 H 0.57059 0.59185 0.04788 0.0
C1427 C 0.51198 0.62439 0.04144 0.0
H1428 H 0.58212 0.64037 0.06335 0.0
C1429 C 0.50554 0.5967 0.03239 0.0
C1430 C 0.52641 0.58446 0.03459 0.0
H1431 H 0.49509 0.63288 0.03975 0.0
H1432 H 0.48388 0.58465 0.02394 0.0
C1433 C 0.55393 0.60056 0.04595 0.0
C1434 C 0.92826 0.36789 0.97032 0.0
C1435 C 0.8947 0.35549 0.97257 0.0
H1436 H 0.97597 0.40523 0.9766 0.0
C1437 C 0.88374 0.3723 0.98333 0.0
H1438 H 0.93754 0.35534 0.96232 0.0
C1439 C 0.90578 0.40088 0.99156 0.0
C1440 C 0.93934 0.41325 0.98933 0.0
H1441 H 0.85807 0.36368 0.9851 0.0
H1442 H 0.89643 0.41345 0.99945 0.0
C1443 C 0.95032 0.39644 0.97858 0.0
C1444 C 0.62031 0.51153 0.98277 0.0
C1445 C 0.64561 0.54139 0.97737 0.0
H1446 H 0.57126 0.4843 0.99263 0.0
C1447 C 0.64128 0.56746 0.97976 0.0
H1448 H 0.62276 0.49095 0.98094 0.0
C1449 C 0.61207 0.56369 0.98671 0.0
C1450 C 0.58642 0.53382 0.99154 0.0
H1451 H 0.66036 0.59081 0.97592 0.0
H1452 H 0.60924 0.58416 0.98791 0.0
C1453 C 0.59083 0.50772 0.98955 0.0
C1454 C 0.49053 0.11693 0.98596 0.0
C1455 C 0.47165 0.10812 0.96953 0.0
H1456 H 0.51314 0.10389 1.00722 0.0
C1457 C 0.46043 0.07775 0.96241 0.0
H1458 H 0.49936 0.13988 0.99212 0.0
C1459 C 0.46712 0.05662 0.97166 0.0
C1460 C 0.48592 0.06542 0.98807 0.0
H1461 H 0.44667 0.07021 0.94953 0.0
H1462 H 0.45774 0.03343 0.96573 0.0
C1463 C 0.498 0.09601 0.99492 0.0
C1464 C 0.64008 0.06259 0.98172 0.0
C1465 C 0.64391 0.09251 0.97866 0.0
H1466 H 0.60854 0.01521 0.99072 0.0
C1467 C 0.61878 0.09804 0.98408 0.0
H1468 H 0.65917 0.05773 0.97793 0.0
C1469 C 0.58969 0.07358 0.99139 0.0
C1470 C 0.58557 0.04341 0.99375 0.0
H1471 H 0.62097 0.12082 0.98179 0.0
H1472 H 0.57007 0.078 0.99443 0.0
C1473 C 0.61122 0.03833 0.98913 0.0
C1474 C 0.90523 0.51028 0.98162 0.0
C1475 C 0.91086 0.54034 0.97665 0.0
H1476 H 0.9259 0.48268 0.99116 0.0
C1477 C 0.94211 0.56626 0.97912 0.0
H1478 H 0.88154 0.48981 0.97967 0.0
C1479 C 0.96728 0.56221 0.98592 0.0
C1480 C 0.96187 0.53221 0.99058 0.0
H1481 H 0.94722 0.58973 0.97554 0.0
H1482 H 0.99122 0.58259 0.98732 0.0
C1483 C 0.93061 0.50621 0.98827 0.0
C1484 C 0.4527 0.37224 0.96765 0.0
C1485 C 0.47352 0.35994 0.96987 0.0
H1486 H 0.44267 0.40882 0.97453 0.0
C1487 C 0.50084 0.37587 0.98144 0.0
H1488 H 0.43114 0.36027 0.95912 0.0
C1489 C 0.50728 0.40359 0.99046 0.0
C1490 C 0.48658 0.41599 0.98808 0.0
H1491 H 0.51759 0.36724 0.98326 0.0
H1492 H 0.52881 0.41553 0.99902 0.0
C1493 C 0.45921 0.4 0.9766 0.0
C1494 C 0.12625 0.63091 0.03625 0.0
C1495 C 0.11679 0.64243 0.05166 0.0
H1496 H 0.11328 0.59372 0.01674 0.0
C1497 C 0.08497 0.62403 0.05863 0.0
H1498 H 0.15022 0.64423 0.03017 0.0
C1499 C 0.06311 0.59563 0.05013 0.0
C1500 C 0.07265 0.58432 0.03472 0.0
H1501 H 0.07678 0.63126 0.07082 0.0
H1502 H 0.03882 0.58243 0.05584 0.0
C1503 C 0.10469 0.60202 0.02817 0.0
C1504 C 0.37172 0.43301 0.04327 0.0
C1505 C 0.36753 0.45912 0.04583 0.0
H1506 H 0.40351 0.4162 0.03477 0.0
C1507 C 0.3928 0.48897 0.0404 0.0
H1508 H 0.35264 0.40967 0.04714 0.0
C1509 C 0.42214 0.49272 0.0334 0.0
C1510 C 0.42641 0.46657 0.03124 0.0
H1511 H 0.39045 0.50959 0.04234 0.0
H1512 H 0.44171 0.51613 0.03029 0.0
C1513 C 0.40078 0.43671 0.03611 0.0
C1514 C 0.54908 0.9211 0.06122 0.0
C1515 C 0.53876 0.89113 0.05372 0.0
H1516 H 0.55086 0.96507 0.05831 0.0
C1517 C 0.52053 0.88262 0.03705 0.0
H1518 H 0.5623 0.92837 0.07429 0.0
C1519 C 0.51286 0.90347 0.0282 0.0
C1520 C 0.52406 0.9337 0.03543 0.0
H1521 H 0.51241 0.85997 0.03062 0.0
H1522 H 0.49829 0.89585 0.01566 0.0
C1523 C 0.54217 0.94219 0.05209 0.0
C1524 C 0.03782 0.26879 0.37583 0.0
C1525 C 0.03452 0.23909 0.37891 0.0
H1526 H 0.0687 0.31622 0.3667 0.0
C1527 C 0.05987 0.23397 0.37339 0.0
H1528 H 0.01854 0.27333 0.37969 0.0
C1529 C 0.0887 0.25864 0.36597 0.0
C1530 C 0.09231 0.28862 0.36358 0.0
H1531 H 0.05807 0.21136 0.37569 0.0
H1532 H 0.10852 0.25456 0.36287 0.0
C1533 C 0.06641 0.29326 0.36829 0.0
C1534 C 0.73558 0.76672 0.37806 0.0
C1535 C 0.76676 0.79278 0.38044 0.0
H1536 H 0.68642 0.75005 0.36984 0.0
C1537 C 0.77224 0.8227 0.37529 0.0
H1538 H 0.7306 0.74334 0.3818 0.0
C1539 C 0.74678 0.82653 0.36854 0.0
C1540 C 0.71559 0.8004 0.36631 0.0
H1541 H 0.79588 0.84328 0.37718 0.0
H1542 H 0.75138 0.84998 0.36552 0.0
C1543 C 0.71031 0.77052 0.37117 0.0
C1544 C 0.21903 0.95575 0.39278 0.0
C1545 C 0.20706 0.97482 0.38588 0.0
H1546 H 0.22164 0.91396 0.38956 0.0
C1547 C 0.18663 0.9645 0.37012 0.0
H1548 H 0.23398 0.96221 0.40521 0.0
C1549 C 0.1785 0.93598 0.36153 0.0
C1550 C 0.19141 0.91757 0.36807 0.0
H1551 H 0.17712 0.97852 0.3642 0.0
H1552 H 0.16217 0.92854 0.34974 0.0
C1553 C 0.21164 0.92773 0.38387 0.0
C1554 C 0.55205 0.69927 0.32177 0.0
C1555 C 0.55991 0.69026 0.30469 0.0
H1556 H 0.56634 0.73413 0.34302 0.0
C1557 C 0.59015 0.7108 0.29637 0.0
H1558 H 0.52937 0.68419 0.3289 0.0
C1559 C 0.61213 0.73888 0.30512 0.0
C1560 C 0.6042 0.74773 0.32219 0.0
H1561 H 0.59695 0.7055 0.28295 0.0
H1562 H 0.63515 0.75385 0.29827 0.0
C1563 C 0.57365 0.72785 0.33018 0.0
C1564 C 0.28412 0.84314 0.31645 0.0
C1565 C 0.30959 0.87295 0.31112 0.0
H1566 H 0.23503 0.81615 0.32629 0.0
C1567 C 0.30559 0.89917 0.31369 0.0
H1568 H 0.28633 0.82245 0.31449 0.0
C1569 C 0.2765 0.89561 0.32069 0.0
C1570 C 0.25065 0.86579 0.32541 0.0
H1571 H 0.32481 0.92249 0.3099 0.0
H1572 H 0.2739 0.9162 0.32199 0.0
C1573 C 0.25476 0.83954 0.3233 0.0
C1574 C 0.12543 0.41 0.29673 0.0
C1575 C 0.13606 0.44015 0.30405 0.0
H1576 H 0.12406 0.3662 0.29962 0.0
C1577 C 0.15518 0.44911 0.32039 0.0
H1578 H 0.11149 0.40237 0.28392 0.0
C1579 C 0.1635 0.42859 0.32905 0.0
C1580 C 0.15206 0.39821 0.32199 0.0
H1581 H 0.16357 0.4719 0.32669 0.0
H1582 H 0.17879 0.43659 0.34129 0.0
C1583 C 0.133 0.38924 0.30569 0.0
C1584 C 0.28505 0.43254 0.31657 0.0
C1585 C 0.31038 0.42751 0.31085 0.0
H1586 H 0.23668 0.41186 0.32757 0.0
C1587 C 0.3074 0.39797 0.31404 0.0
H1588 H 0.28662 0.45503 0.31421 0.0
C1589 C 0.2791 0.37351 0.32185 0.0
C1590 C 0.25319 0.37803 0.32675 0.0
H1591 H 0.32669 0.39352 0.31006 0.0
H1592 H 0.27703 0.35066 0.32352 0.0
C1593 C 0.25652 0.40788 0.32429 0.0
C1594 C 0.57001 0.84282 0.31421 0.0
C1595 C 0.57527 0.87244 0.3085 0.0
H1596 H 0.59132 0.81618 0.32452 0.0
C1597 C 0.60656 0.89861 0.31019 0.0
H1598 H 0.54628 0.82216 0.31288 0.0
C1599 C 0.63211 0.89523 0.31702 0.0
C1600 C 0.62704 0.86567 0.32249 0.0
H1601 H 0.61137 0.92177 0.30603 0.0
H1602 H 0.65603 0.9158 0.31791 0.0
C1603 C 0.59577 0.8394 0.32091 0.0
C1604 C 0.1152 0.70383 0.30189 0.0
C1605 C 0.13587 0.69135 0.30414 0.0
H1606 H 0.1057 0.74085 0.30852 0.0
C1607 C 0.1635 0.70747 0.31544 0.0
H1608 H 0.09342 0.69173 0.29354 0.0
C1609 C 0.17039 0.73551 0.32419 0.0
C1610 C 0.14981 0.74805 0.32181 0.0
H1611 H 0.18015 0.69872 0.31726 0.0
H1612 H 0.19214 0.74758 0.33256 0.0
C1613 C 0.12215 0.73191 0.31058 0.0
C1614 C 0.74993 0.96469 0.3857 0.0
C1615 C 0.78346 0.97672 0.38361 0.0
H1616 H 0.70211 0.92773 0.37929 0.0
C1617 C 0.79425 0.95972 0.37289 0.0
H1618 H 0.7408 0.9774 0.39366 0.0
C1619 C 0.77205 0.93126 0.3646 0.0
C1620 C 0.73853 0.9192 0.36674 0.0
H1621 H 0.81988 0.96807 0.37122 0.0
H1622 H 0.78124 0.91849 0.35677 0.0
C1623 C 0.72773 0.93626 0.37739 0.0
C1624 C 0.03602 0.76683 0.37729 0.0
C1625 C 0.0321 0.79312 0.37971 0.0
H1626 H 0.06733 0.74952 0.36872 0.0
C1627 C 0.05737 0.82278 0.37396 0.0
H1628 H 0.01693 0.74363 0.38138 0.0
C1629 C 0.08647 0.82617 0.3668 0.0
C1630 C 0.09047 0.79984 0.36479 0.0
H1631 H 0.05518 0.84351 0.37577 0.0
H1632 H 0.10608 0.84944 0.36338 0.0
C1633 C 0.06482 0.77017 0.36997 0.0
C1634 C 0.21892 0.25627 0.3946 0.0
C1635 C 0.20754 0.22578 0.38763 0.0
H1636 H 0.22145 0.30051 0.39116 0.0
C1637 C 0.1881 0.21661 0.37142 0.0
H1638 H 0.23311 0.26408 0.40732 0.0
C1639 C 0.18034 0.23733 0.36249 0.0
C1640 C 0.19263 0.26806 0.36916 0.0
H1641 H 0.17912 0.19353 0.36541 0.0
H1642 H 0.16484 0.22921 0.35033 0.0
C1643 C 0.21189 0.2772 0.38538 0.0
C1644 C 0.72606 0.567 0.70777 0.0
C1645 C 0.7009 0.57209 0.71378 0.0
H1646 H 0.77427 0.58762 0.69658 0.0
C1647 C 0.70417 0.60186 0.71102 0.0
H1648 H 0.72429 0.54435 0.7098 0.0
C1649 C 0.7325 0.62638 0.70327 0.0
C1650 C 0.75818 0.62172 0.69801 0.0
H1651 H 0.68503 0.60638 0.71524 0.0
H1652 H 0.73474 0.64934 0.70189 0.0
C1653 C 0.75462 0.59172 0.70012 0.0
C1654 C 0.44078 0.15562 0.7091 0.0
C1655 C 0.43546 0.12597 0.71478 0.0
H1656 H 0.41967 0.18227 0.69853 0.0
C1657 C 0.40431 0.09974 0.71274 0.0
H1658 H 0.46442 0.17632 0.7107 0.0
C1659 C 0.37894 0.1031 0.70555 0.0
C1660 C 0.38406 0.1327 0.7001 0.0
H1661 H 0.39946 0.07656 0.71688 0.0
H1662 H 0.35511 0.08249 0.70439 0.0
C1663 C 0.41519 0.15902 0.70207 0.0
C1664 C 0.89343 0.29478 0.72167 0.0
C1665 C 0.87251 0.30696 0.71938 0.0
H1666 H 0.90363 0.2583 0.71488 0.0
C1667 C 0.84525 0.29096 0.70781 0.0
H1668 H 0.91496 0.30684 0.73023 0.0
C1669 C 0.83891 0.26325 0.69884 0.0
C1670 C 0.85971 0.25097 0.70128 0.0
H1671 H 0.82844 0.29951 0.70594 0.0
H1672 H 0.81741 0.25121 0.69027 0.0
C1673 C 0.88704 0.26704 0.71277 0.0
C1674 C 0.26229 0.03377 0.63653 0.0
C1675 C 0.22874 0.02133 0.63886 0.0
H1676 H 0.31003 0.07129 0.6426 0.0
C1677 C 0.21781 0.03827 0.64953 0.0
H1678 H 0.27154 0.02115 0.6286 0.0
C1679 C 0.23988 0.067 0.6576 0.0
C1680 C 0.27343 0.07941 0.65529 0.0
H1681 H 0.19215 0.02963 0.65136 0.0
H1682 H 0.23055 0.07965 0.66542 0.0
C1683 C 0.28438 0.06248 0.64464 0.0
C1684 C 0.95448 0.17808 0.65057 0.0
C1685 C 0.97996 0.20801 0.64544 0.0
H1686 H 0.90518 0.1508 0.66003 0.0
C1687 C 0.97575 0.23411 0.64799 0.0
H1688 H 0.95686 0.15748 0.64862 0.0
C1689 C 0.94642 0.23032 0.65471 0.0
C1690 C 0.92057 0.20039 0.65921 0.0
H1691 H 0.99498 0.25751 0.64435 0.0
H1692 H 0.94365 0.25082 0.65598 0.0
C1693 C 0.9249 0.17426 0.65717 0.0
C1694 C 0.78523 0.74224 0.63467 0.0
C1695 C 0.80562 0.77471 0.63708 0.0
H1696 H 0.77555 0.69606 0.64152 0.0
C1697 C 0.83262 0.78533 0.64895 0.0
H1698 H 0.76393 0.73325 0.6259 0.0
C1699 C 0.83914 0.76394 0.65811 0.0
C1700 C 0.81883 0.73149 0.65555 0.0
H1701 H 0.84906 0.81021 0.65093 0.0
H1702 H 0.86039 0.77288 0.66692 0.0
C1703 C 0.7918 0.7209 0.64375 0.0
C1704 C 0.95241 0.76388 0.65098 0.0
C1705 C 0.9775 0.75815 0.6458 0.0
H1706 H 0.9035 0.7441 0.66086 0.0
C1707 C 0.97337 0.72813 0.64891 0.0
H1708 H 0.95481 0.78673 0.64862 0.0
C1709 C 0.94424 0.70394 0.65612 0.0
C1710 C 0.91865 0.70924 0.6605 0.0
H1711 H 0.9924 0.7231 0.64529 0.0
H1712 H 0.9413 0.68073 0.65771 0.0
C1713 C 0.92307 0.73951 0.65808 0.0
C1714 C 0.23927 0.17617 0.64713 0.0
C1715 C 0.24486 0.20611 0.64191 0.0
H1716 H 0.26001 0.14876 0.65688 0.0
C1717 C 0.27617 0.23206 0.64408 0.0
H1718 H 0.21552 0.15567 0.64541 0.0
C1719 C 0.30142 0.22815 0.6509 0.0
C1720 C 0.29602 0.19826 0.65586 0.0
H1721 H 0.28124 0.25544 0.64028 0.0
H1722 H 0.32539 0.24855 0.65211 0.0
C1723 C 0.26473 0.17222 0.65379 0.0
C1724 C 0.7861 0.03876 0.63483 0.0
C1725 C 0.80653 0.02609 0.63734 0.0
H1726 H 0.77659 0.07576 0.64137 0.0
C1727 C 0.83365 0.04175 0.64907 0.0
H1728 H 0.76471 0.02698 0.62614 0.0
C1729 C 0.84033 0.06963 0.65796 0.0
C1730 C 0.82003 0.08241 0.65529 0.0
H1731 H 0.8501 0.03281 0.6511 0.0
H1732 H 0.86173 0.0814 0.66664 0.0
C1733 C 0.79282 0.06665 0.64366 0.0
C1734 C 0.41829 0.2904 0.72445 0.0
C1735 C 0.45019 0.30893 0.71761 0.0
H1736 H 0.37226 0.24876 0.72144 0.0
C1737 C 0.45988 0.29761 0.7022 0.0
H1738 H 0.40991 0.29746 0.73662 0.0
C1739 C 0.43847 0.26878 0.69399 0.0
C1740 C 0.40637 0.25094 0.70041 0.0
H1741 H 0.48392 0.31105 0.69622 0.0
H1742 H 0.44723 0.26062 0.68258 0.0
C1743 C 0.3966 0.26207 0.71582 0.0
C1744 C 0.72583 0.15534 0.70626 0.0
C1745 C 0.70044 0.1254 0.71145 0.0
H1746 H 0.775 0.18266 0.69662 0.0
C1747 C 0.70463 0.09931 0.70878 0.0
H1748 H 0.72347 0.17593 0.7083 0.0
C1749 C 0.73387 0.10313 0.70187 0.0
C1750 C 0.75965 0.13308 0.69733 0.0
H1751 H 0.68546 0.07591 0.71244 0.0
H1752 H 0.73664 0.08264 0.70051 0.0
C1753 C 0.75533 0.1592 0.69949 0.0
C1754 C 0.88319 0.58788 0.72761 0.0
C1755 C 0.87272 0.55787 0.72015 0.0
H1756 H 0.88494 0.63183 0.72474 0.0
C1757 C 0.85428 0.54927 0.70356 0.0
H1758 H 0.8966 0.59521 0.74062 0.0
C1759 C 0.84648 0.57007 0.69477 0.0
C1760 C 0.85777 0.60031 0.70198 0.0
H1761 H 0.84606 0.52658 0.69717 0.0
H1762 H 0.83174 0.56238 0.6823 0.0
C1763 C 0.87616 0.60891 0.71854 0.0
C1764 C 0.47205 0.96275 0.15847 0.0
C1765 C 0.49452 0.96987 0.17306 0.0
H1766 H 0.46361 0.97349 0.13053 0.0
C1767 C 0.52673 0.99384 0.17007 0.0
H1768 H 0.44712 0.94426 0.16021 0.0
C1769 C 0.53617 0.01041 0.15309 0.0
C1770 C 0.51373 0.00353 0.13854 0.0
H1771 H 0.54465 0.00025 0.18101 0.0
H1772 H 0.56121 0.02866 0.15135 0.0
C1773 C 0.48158 0.97928 0.14138 0.0
C1774 C 0.024 0.53107 0.15744 0.0
C1775 C 0.01016 0.50931 0.17223 0.0
H1776 H 0.01987 0.54246 0.12896 0.0
C1777 C 0.98073 0.48141 0.16923 0.0
H1778 H 0.04682 0.55264 0.15929 0.0
C1779 C 0.96529 0.47555 0.15182 0.0
C1780 C 0.97918 0.49734 0.13705 0.0
H1781 H 0.96941 0.46432 0.18042 0.0
H1782 H 0.94267 0.45382 0.14986 0.0
C1783 C 0.00872 0.52512 0.14004 0.0
C1784 C 0.49665 0.48091 0.16922 0.0
C1785 C 0.49539 0.50862 0.1719 0.0
H1786 H 0.50812 0.45372 0.15053 0.0
C1787 C 0.50444 0.53019 0.15696 0.0
H1788 H 0.49007 0.46393 0.18048 0.0
C1789 C 0.51489 0.52441 0.13984 0.0
C1790 C 0.51675 0.497 0.13726 0.0
H1791 H 0.50344 0.55161 0.15851 0.0
H1792 H 0.52218 0.54176 0.12873 0.0
C1793 C 0.50731 0.47523 0.15212 0.0
C1794 C 0.98354 0.46507 0.86673 0.0
C1795 C 0.99733 0.48685 0.85196 0.0
H1796 H 0.98806 0.45336 0.89507 0.0
C1797 C 0.02702 0.51453 0.85484 0.0
H1798 H 0.96052 0.44367 0.86497 0.0
C1799 C 0.04279 0.52011 0.87212 0.0
C1800 C 0.02898 0.49826 0.88687 0.0
H1801 H 0.03828 0.53162 0.84365 0.0
H1802 H 0.06563 0.54165 0.874 0.0
C1803 C 0.99915 0.47074 0.88401 0.0
C1804 C 0.53267 0.50358 0.86487 0.0
C1805 C 0.51039 0.48902 0.85022 0.0
H1806 H 0.54039 0.52075 0.8931 0.0
C1807 C 0.47784 0.48051 0.85327 0.0
H1808 H 0.55786 0.51019 0.86306 0.0
C1809 C 0.46777 0.48626 0.87052 0.0
C1810 C 0.48998 0.50071 0.8852 0.0
H1811 H 0.46008 0.46958 0.84225 0.0
H1812 H 0.44243 0.47902 0.87241 0.0
C1813 C 0.52257 0.5093 0.88217 0.0
C1814 C 0.5099 0.04094 0.86575 0.0
C1815 C 0.52049 0.02985 0.85065 0.0
H1816 H 0.49196 0.03338 0.89407 0.0
C1817 C 0.5219 0.00218 0.8532 0.0
H1818 H 0.50881 0.06233 0.86433 0.0
C1819 C 0.5123 0.98565 0.87022 0.0
C1820 C 0.5012 0.99641 0.88521 0.0
H1821 H 0.52967 0.99279 0.84186 0.0
H1822 H 0.51345 0.96428 0.87161 0.0
C1823 C 0.50054 0.02451 0.88286 0.0
C1824 C 0.15789 0.33115 0.50412 0.0
C1825 C 0.15963 0.30363 0.50662 0.0
H1826 H 0.16571 0.36884 0.48572 0.0
C1827 C 0.17023 0.29267 0.49146 0.0
H1828 H 0.15012 0.34044 0.5155 0.0
C1829 C 0.17922 0.30904 0.47432 0.0
C1830 C 0.17819 0.33696 0.47201 0.0
H1831 H 0.17157 0.27141 0.49284 0.0
H1832 H 0.18778 0.30027 0.46305 0.0
C1833 C 0.16713 0.34761 0.48708 0.0
C1834 C 0.68897 0.83022 0.48975 0.0
C1835 C 0.6834 0.84633 0.50424 0.0
H1836 H 0.67737 0.81213 0.46181 0.0
C1837 C 0.66047 0.85598 0.50147 0.0
H1838 H 0.70662 0.82265 0.49139 0.0
C1839 C 0.64401 0.85029 0.48447 0.0
C1840 C 0.65005 0.83477 0.46983 0.0
H1841 H 0.65528 0.86805 0.51246 0.0
H1842 H 0.6271 0.85874 0.48265 0.0
C1843 C 0.67248 0.82451 0.47273 0.0
C1844 C 0.16016 0.81244 0.50293 0.0
C1845 C 0.15881 0.8401 0.5056 0.0
H1846 H 0.17146 0.78516 0.48422 0.0
C1847 C 0.16753 0.86152 0.49059 0.0
H1848 H 0.15386 0.79558 0.51423 0.0
C1849 C 0.17778 0.85563 0.47342 0.0
C1850 C 0.17973 0.82826 0.47087 0.0
H1851 H 0.16646 0.8829 0.49212 0.0
H1852 H 0.18486 0.87288 0.46227 0.0
C1853 C 0.17058 0.80664 0.48579 0.0
C1854 C 0.66156 0.83957 0.19858 0.0
C1855 C 0.66831 0.82391 0.18433 0.0
H1856 H 0.67133 0.85739 0.22662 0.0
C1857 C 0.69139 0.81464 0.18771 0.0
H1858 H 0.64372 0.84678 0.1965 0.0
C1859 C 0.7069 0.82035 0.20505 0.0
C1860 C 0.69973 0.83549 0.21942 0.0
H1861 H 0.69746 0.80289 0.17694 0.0
H1862 H 0.724 0.81225 0.20732 0.0
C1863 C 0.6771 0.8453 0.21593 0.0
C1864 C 0.19983 0.83706 0.19845 0.0
C1865 C 0.17779 0.82275 0.18366 0.0
H1866 H 0.20705 0.85383 0.22678 0.0
C1867 C 0.14524 0.81437 0.18652 0.0
H1868 H 0.22502 0.84357 0.19679 0.0
C1869 C 0.13491 0.81996 0.20371 0.0
C1870 C 0.15684 0.83412 0.21855 0.0
H1871 H 0.12767 0.80365 0.17538 0.0
H1872 H 0.10956 0.8128 0.20544 0.0
C1873 C 0.18945 0.84261 0.21572 0.0
C1874 C 0.15044 0.3382 0.18703 0.0
C1875 C 0.18254 0.36237 0.18399 0.0
H1876 H 0.1162 0.30337 0.20584 0.0
C1877 C 0.20506 0.36986 0.19859 0.0
H1878 H 0.13248 0.33151 0.17608 0.0
C1879 C 0.19569 0.35348 0.21574 0.0
C1880 C 0.16366 0.32902 0.21863 0.0
H1881 H 0.22991 0.38851 0.19682 0.0
H1882 H 0.2137 0.35955 0.22659 0.0
C1883 C 0.14116 0.32179 0.20407 0.0
C1884 C 0.80927 0.63147 0.8256 0.0
C1885 C 0.83196 0.63887 0.8401 0.0
H1886 H 0.80032 0.64175 0.79767 0.0
C1887 C 0.8641 0.66283 0.83689 0.0
H1888 H 0.78438 0.61297 0.82748 0.0
C1889 C 0.87326 0.67913 0.8198 0.0
C1890 C 0.85057 0.672 0.80536 0.0
H1891 H 0.8822 0.66946 0.84775 0.0
H1892 H 0.89826 0.69738 0.81791 0.0
C1893 C 0.81849 0.64774 0.80841 0.0
C1894 C 0.31739 0.15071 0.83483 0.0
C1895 C 0.34692 0.17866 0.83755 0.0
H1896 H 0.27882 0.12279 0.81584 0.0
C1897 C 0.3603 0.20021 0.82263 0.0
H1898 H 0.3064 0.13379 0.84613 0.0
C1899 C 0.34453 0.19398 0.80536 0.0
C1900 C 0.31493 0.16613 0.80265 0.0
H1901 H 0.38317 0.22181 0.82424 0.0
H1902 H 0.35536 0.21114 0.79417 0.0
C1903 C 0.30147 0.14458 0.81758 0.0
C1904 C 0.82863 0.148 0.83633 0.0
C1905 C 0.82683 0.17545 0.83888 0.0
H1906 H 0.84067 0.12104 0.81781 0.0
C1907 C 0.8355 0.1968 0.82384 0.0
H1908 H 0.82238 0.1312 0.84766 0.0
C1909 C 0.84614 0.19106 0.80676 0.0
C1910 C 0.84855 0.16392 0.80434 0.0
H1911 H 0.83408 0.21802 0.82528 0.0
H1912 H 0.85316 0.20825 0.79558 0.0
C1913 C 0.83945 0.14235 0.81929 0.0
C1914 C 0.32339 0.13397 0.5315 0.0
C1915 C 0.33774 0.15644 0.51711 0.0
H1916 H 0.32645 0.12124 0.55984 0.0
C1917 C 0.36691 0.1843 0.5207 0.0
H1918 H 0.30073 0.11242 0.52918 0.0
C1919 C 0.38167 0.18934 0.53828 0.0
C1920 C 0.3673 0.16678 0.55264 0.0
H1921 H 0.37855 0.20193 0.50983 0.0
H1922 H 0.40419 0.21097 0.5407 0.0
C1923 C 0.33794 0.13913 0.54909 0.0
C1924 C 0.81526 0.14622 0.52027 0.0
C1925 C 0.84796 0.15516 0.51738 0.0
H1926 H 0.77947 0.14469 0.53911 0.0
C1927 C 0.8701 0.17039 0.532 0.0
H1928 H 0.79762 0.13478 0.50925 0.0
C1929 C 0.85969 0.17629 0.54914 0.0
C1930 C 0.82695 0.1673 0.552 0.0
H1931 H 0.89541 0.17737 0.53028 0.0
H1932 H 0.87736 0.18821 0.56008 0.0
C1933 C 0.8049 0.15222 0.53733 0.0
C1934 C 0.81341 0.67272 0.52064 0.0
C1935 C 0.84574 0.69636 0.51757 0.0
H1936 H 0.77873 0.63829 0.53946 0.0
C1937 C 0.86821 0.7033 0.53214 0.0
H1938 H 0.79547 0.66644 0.50973 0.0
C1939 C 0.85858 0.68689 0.54927 0.0
C1940 C 0.82631 0.66294 0.55218 0.0
H1941 H 0.89323 0.72155 0.53035 0.0
H1942 H 0.87657 0.69251 0.56009 0.0
C1943 C 0.80386 0.65629 0.53767 0.0
loop_
_geom_bond_atom_site_label_1
_geom_bond_atom_site_label_2
_geom_bond_distance
_geom_bond_site_symmetry_2
_ccdc_geom_bond_type
C0 C1 1.384 . S
C0 H13 0.947 . S
C0 C35 1.382 . S
C1 C0 1.384 . S
C1 C2 1.378 . S
C2 C1 1.378 . S
C2 C3 1.378 . S
C2 H14 0.952 . S
C3 C2 1.378 . S
C3 H15 0.950 . S
C3 C34 1.383 . S
H4 C23 0.947 . S
H5 C24 0.946 . S
H6 C26 0.953 . S
H7 C27 0.945 . S
H8 C29 0.952 . S
H9 C30 0.949 . S
H10 C32 0.950 . S
H11 C33 0.948 . S
H12 C35 0.951 . S
H13 C0 0.947 . S
H14 C2 0.952 . S
H15 C3 0.950 . S
N16 C19 1.382 . S
N16 C21 1.363 . S
N17 C19 1.371 . S
N17 C20 1.372 . S
N18 C20 1.361 . S
N18 C21 1.377 . S
C19 N16 1.382 . S
C19 N17 1.371 . S
C19 C22 1.480 . S
C20 N17 1.372 . S
C20 N18 1.361 . S
C20 C28 1.457 . S
C21 N16 1.363 . S
C21 N18 1.377 . S
C21 C34 1.479 . S
C22 C19 1.480 . S
C22 C23 1.383 . S
C22 C27 1.385 . S
C23 H4 0.947 . S
C23 C22 1.383 . S
C23 C24 1.388 . S
C24 H5 0.946 . S
C24 C23 1.388 . S
C24 C25 1.384 . S
C25 C24 1.384 . S
C25 C26 1.377 . S
C26 H6 0.953 . S
C26 C25 1.377 . S
C26 C27 1.369 . S
C27 H7 0.945 . S
C27 C22 1.385 . S
C27 C26 1.369 . S
C28 C20 1.457 . S
C28 C29 1.372 . S
C28 C33 1.364 . S
C29 H8 0.952 . S
C29 C28 1.372 . S
C29 C30 1.389 . S
C30 H9 0.949 . S
C30 C29 1.389 . S
C30 C31 1.387 . S
C31 C30 1.387 . S
C31 C32 1.372 . S
C32 H10 0.950 . S
C32 C31 1.372 . S
C32 C33 1.379 . S
C33 H11 0.948 . S
C33 C28 1.364 . S
C33 C32 1.379 . S
C34 C3 1.383 . S
C34 C21 1.479 . S
C34 C35 1.398 . S
C35 C0 1.382 . S
C35 H12 0.951 . S
C35 C34 1.398 . S
C36 C37 1.384 . S
C36 H49 0.947 1_655 S
C36 C71 1.382 . S
C37 C36 1.384 . S
C37 C38 1.378 . S
C38 C37 1.378 . S
C38 C39 1.378 . S
C38 H50 0.952 . S
C39 C38 1.378 . S
C39 H51 0.950 . S
C39 C70 1.383 . S
H40 C59 0.947 . S
H41 C60 0.946 . S
H42 C62 0.953 . S
H43 C63 0.945 . S
H44 C65 0.952 . S
H45 C66 0.949 . S
H46 C68 0.950 . S
H47 C69 0.948 . S
H48 C71 0.951 . S
H49 C36 0.947 1_455 S
H50 C38 0.952 . S
H51 C39 0.950 . S
N52 C55 1.382 . S
N52 C57 1.363 . S
N53 C55 1.371 . S
N53 C56 1.372 . S
N54 C56 1.361 . S
N54 C57 1.377 . S
C55 N52 1.382 . S
C55 N53 1.371 . S
C55 C58 1.480 . S
C56 N53 1.372 . S
C56 N54 1.361 . S
C56 C64 1.457 . S
C57 N52 1.363 . S
C57 N54 1.377 . S
C57 C70 1.479 . S
C58 C55 1.480 . S
C58 C59 1.383 . S
C58 C63 1.385 . S
C59 H40 0.947 . S
C59 C58 1.383 . S
C59 C60 1.388 . S
C60 H41 0.946 . S
C60 C59 1.388 . S
C60 C61 1.384 . S
C61 C60 1.384 . S
C61 C62 1.377 . S
C62 H42 0.953 . S
C62 C61 1.377 . S
C62 C63 1.369 . S
C63 H43 0.945 . S
C63 C58 1.385 . S
C63 C62 1.369 . S
C64 C56 1.457 . S
C64 C65 1.372 . S
C64 C69 1.364 . S
C65 H44 0.952 . S
C65 C64 1.372 . S
C65 C66 1.389 . S
C66 H45 0.949 . S
C66 C65 1.389 . S
C66 C67 1.387 . S
C67 C66 1.387 . S
C67 C68 1.372 . S
C68 H46 0.950 . S
C68 C67 1.372 . S
C68 C69 1.379 . S
C69 H47 0.948 . S
C69 C64 1.364 . S
C69 C68 1.379 . S
C70 C39 1.383 . S
C70 C57 1.479 . S
C70 C71 1.398 . S
C71 C36 1.382 . S
C71 H48 0.951 . S
C71 C70 1.398 . S
C72 C73 1.384 . S
C72 H85 0.947 . S
C72 C107 1.382 . S
C73 C72 1.384 . S
C73 C74 1.378 . S
C74 C73 1.378 . S
C74 C75 1.378 . S
C74 H86 0.952 . S
C75 C74 1.378 . S
C75 H87 0.950 . S
C75 C106 1.383 . S
H76 C95 0.947 . S
H77 C96 0.946 . S
H78 C98 0.953 1_455 S
H79 C99 0.945 . S
H80 C101 0.952 . S
H81 C102 0.949 . S
H82 C104 0.950 . S
H83 C105 0.948 . S
H84 C107 0.951 . S
H85 C72 0.947 . S
H86 C74 0.952 . S
H87 C75 0.950 . S
N88 C91 1.382 . S
N88 C93 1.363 . S
N89 C91 1.371 . S
N89 C92 1.372 . S
N90 C92 1.361 . S
N90 C93 1.377 . S
C91 N88 1.382 . S
C91 N89 1.371 . S
C91 C94 1.480 . S
C92 N89 1.372 . S
C92 N90 1.361 . S
C92 C100 1.457 . S
C93 N88 1.363 . S
C93 N90 1.377 . S
C93 C106 1.479 . S
C94 C91 1.480 . S
C94 C95 1.383 . S
C94 C99 1.385 . S
C95 H76 0.947 . S
C95 C94 1.383 . S
C95 C96 1.388 . S
C96 H77 0.946 . S
C96 C95 1.388 . S
C96 C97 1.384 . S
C97 C96 1.384 . S
C97 C98 1.377 . S
C98 H78 0.953 1_655 S
C98 C97 1.377 . S
C98 C99 1.369 . S
C99 H79 0.945 . S
C99 C94 1.385 . S
C99 C98 1.369 . S
C100 C92 1.457 . S
C100 C101 1.372 . S
C100 C105 1.364 . S
C101 H80 0.952 . S
C101 C100 1.372 . S
C101 C102 1.389 . S
C102 H81 0.949 . S
C102 C101 1.389 . S
C102 C103 1.387 . S
C103 C102 1.387 . S
C103 C104 1.372 . S
C104 H82 0.950 . S
C104 C103 1.372 . S
C104 C105 1.379 . S
C105 H83 0.948 . S
C105 C100 1.364 . S
C105 C104 1.379 . S
C106 C75 1.383 . S
C106 C93 1.479 . S
C106 C107 1.398 . S
C107 C72 1.382 . S
C107 H84 0.951 . S
C107 C106 1.398 . S
C108 C109 1.384 . S
C108 H121 0.947 1_455 S
C108 C143 1.382 . S
C109 C108 1.384 . S
C109 C110 1.378 . S
C110 C109 1.378 . S
C110 C111 1.378 . S
C110 H122 0.952 . S
C111 C110 1.378 . S
C111 H123 0.950 . S
C111 C142 1.383 . S
H112 C131 0.947 . S
H113 C132 0.946 . S
H114 C134 0.953 . S
H115 C135 0.945 . S
H116 C137 0.952 . S
H117 C138 0.949 . S
H118 C140 0.950 . S
H119 C141 0.948 . S
H120 C143 0.951 . S
H121 C108 0.947 1_655 S
H122 C110 0.952 . S
H123 C111 0.950 . S
N124 C127 1.382 . S
N124 C129 1.363 . S
N125 C127 1.371 . S
N125 C128 1.372 . S
N126 C128 1.361 . S
N126 C129 1.377 . S
C127 N124 1.382 . S
C127 N125 1.371 . S
C127 C130 1.480 . S
C128 N125 1.372 . S
C128 N126 1.361 . S
C128 C136 1.457 . S
C129 N124 1.363 . S
C129 N126 1.377 . S
C129 C142 1.479 . S
C130 C127 1.480 . S
C130 C131 1.383 . S
C130 C135 1.385 . S
C131 H112 0.947 . S
C131 C130 1.383 . S
C131 C132 1.388 . S
C132 H113 0.946 . S
C132 C131 1.388 . S
C132 C133 1.384 . S
C133 C132 1.384 . S
C133 C134 1.377 . S
C134 H114 0.953 . S
C134 C133 1.377 . S
C134 C135 1.369 . S
C135 H115 0.945 . S
C135 C130 1.385 . S
C135 C134 1.369 . S
C136 C128 1.457 . S
C136 C137 1.372 . S
C136 C141 1.364 . S
C137 H116 0.952 . S
C137 C136 1.372 . S
C137 C138 1.389 . S
C138 H117 0.949 . S
C138 C137 1.389 . S
C138 C139 1.387 . S
C139 C138 1.387 . S
C139 C140 1.372 . S
C140 H118 0.950 . S
C140 C139 1.372 . S
C140 C141 1.379 . S
C141 H119 0.948 . S
C141 C136 1.364 . S
C141 C140 1.379 . S
C142 C111 1.383 . S
C142 C129 1.479 . S
C142 C143 1.398 . S
C143 C108 1.382 . S
C143 H120 0.951 . S
C143 C142 1.398 . S
C144 C145 1.384 . S
C144 H157 0.947 . S
C144 C179 1.382 . S
C145 C144 1.384 . S
C145 C146 1.378 . S
C146 C145 1.378 . S
C146 C147 1.378 . S
C146 H158 0.952 . S
C147 C146 1.378 . S
C147 H159 0.950 . S
C147 C178 1.383 . S
H148 C167 0.947 . S
H149 C168 0.946 . S
H150 C170 0.953 . S
H151 C171 0.945 . S
H152 C173 0.952 . S
H153 C174 0.949 . S
H154 C176 0.950 . S
H155 C177 0.948 . S
H156 C179 0.951 . S
H157 C144 0.947 . S
H158 C146 0.952 . S
H159 C147 0.950 . S
N160 C163 1.382 . S
N160 C165 1.363 . S
N161 C163 1.371 . S
N161 C164 1.372 . S
N162 C164 1.361 . S
N162 C165 1.377 . S
C163 N160 1.382 . S
C163 N161 1.371 . S
C163 C166 1.480 . S
C164 N161 1.372 . S
C164 N162 1.361 . S
C164 C172 1.457 . S
C165 N160 1.363 . S
C165 N162 1.377 . S
C165 C178 1.479 . S
C166 C163 1.480 . S
C166 C167 1.383 . S
C166 C171 1.385 . S
C167 H148 0.947 . S
C167 C166 1.383 . S
C167 C168 1.388 . S
C168 H149 0.946 . S
C168 C167 1.388 . S
C168 C169 1.384 . S
C169 C168 1.384 . S
C169 C170 1.377 . S
C170 H150 0.953 . S
C170 C169 1.377 . S
C170 C171 1.369 . S
C171 H151 0.945 . S
C171 C166 1.385 . S
C171 C170 1.369 . S
C172 C164 1.457 . S
C172 C173 1.372 . S
C172 C177 1.364 . S
C173 H152 0.952 . S
C173 C172 1.372 . S
C173 C174 1.389 . S
C174 H153 0.949 . S
C174 C173 1.389 . S
C174 C175 1.387 . S
C175 C174 1.387 . S
C175 C176 1.372 . S
C176 H154 0.950 . S
C176 C175 1.372 . S
C176 C177 1.379 . S
C177 H155 0.948 . S
C177 C172 1.364 . S
C177 C176 1.379 . S
C178 C147 1.383 . S
C178 C165 1.479 . S
C178 C179 1.398 . S
C179 C144 1.382 . S
C179 H156 0.951 . S
C179 C178 1.398 . S
C180 C181 1.384 . S
C180 H193 0.947 . S
C180 C215 1.382 . S
C181 C180 1.384 . S
C181 C182 1.378 . S
C182 C181 1.378 . S
C182 C183 1.378 . S
C182 H194 0.952 . S
C183 C182 1.378 . S
C183 H195 0.950 . S
C183 C214 1.383 . S
H184 C203 0.947 . S
H185 C204 0.946 . S
H186 C206 0.963 . S
H187 C207 0.945 . S
H188 C209 0.952 . S
H189 C210 0.949 . S
H190 C212 0.950 . S
H191 C213 0.948 . S
H192 C215 0.951 . S
H193 C180 0.947 . S
H194 C182 0.952 . S
H195 C183 0.950 . S
N196 C199 1.382 . S
N196 C201 1.363 . S
N197 C199 1.371 . S
N197 C200 1.372 . S
N198 C200 1.361 . S
N198 C201 1.377 . S
C199 N196 1.382 . S
C199 N197 1.371 . S
C199 C202 1.480 . S
C200 N197 1.372 . S
C200 N198 1.361 . S
C200 C208 1.457 . S
C201 N196 1.363 . S
C201 N198 1.377 . S
C201 C214 1.479 . S
C202 C199 1.480 . S
C202 C203 1.383 . S
C202 C207 1.385 . S
C203 H184 0.947 . S
C203 C202 1.383 . S
C203 C204 1.388 . S
C204 H185 0.946 . S
C204 C203 1.388 . S
C204 C205 1.384 . S
C205 C204 1.384 . S
C205 C206 1.377 . S
C206 H186 0.963 . S
C206 C205 1.377 . S
C206 C207 1.369 . S
C207 H187 0.945 . S
C207 C202 1.385 . S
C207 C206 1.369 . S
C208 C200 1.457 . S
C208 C209 1.372 . S
C208 C213 1.364 . S
C209 H188 0.952 . S
C209 C208 1.372 . S
C209 C210 1.389 . S
C210 H189 0.949 . S
C210 C209 1.389 . S
C210 C211 1.387 . S
C211 C210 1.387 . S
C211 C212 1.372 . S
C212 H190 0.950 . S
C212 C211 1.372 . S
C212 C213 1.379 . S
C213 H191 0.948 . S
C213 C208 1.364 . S
C213 C212 1.379 . S
C214 C183 1.383 . S
C214 C201 1.479 . S
C214 C215 1.398 . S
C215 C180 1.382 . S
C215 H192 0.951 . S
C215 C214 1.398 . S
C216 C217 1.384 . S
C216 H229 0.947 . S
C216 C251 1.382 . S
C217 C216 1.384 . S
C217 C218 1.378 . S
C218 C217 1.378 . S
C218 C219 1.378 . S
C218 H230 0.952 . S
C219 C218 1.378 . S
C219 H231 0.950 . S
C219 C250 1.383 . S
H220 C239 0.947 . S
H221 C240 0.946 . S
H222 C242 0.953 . S
H223 C243 0.945 . S
H224 C245 0.952 . S
H225 C246 0.949 . S
H226 C248 0.950 . S
H227 C249 0.948 . S
H228 C251 0.951 . S
H229 C216 0.947 . S
H230 C218 0.952 . S
H231 C219 0.950 . S
N232 C235 1.382 . S
N232 C237 1.363 . S
N233 C235 1.371 . S
N233 C236 1.372 . S
N234 C236 1.361 . S
N234 C237 1.377 . S
C235 N232 1.382 . S
C235 N233 1.371 . S
C235 C238 1.480 . S
C236 N233 1.372 . S
C236 N234 1.361 . S
C236 C244 1.457 . S
C237 N232 1.363 . S
C237 N234 1.377 . S
C237 C250 1.479 . S
C238 C235 1.480 . S
C238 C239 1.383 . S
C238 C243 1.385 . S
C239 H220 0.947 . S
C239 C238 1.383 . S
C239 C240 1.388 . S
C240 H221 0.946 . S
C240 C239 1.388 . S
C240 C241 1.384 . S
C241 C240 1.384 . S
C241 C242 1.377 . S
C242 H222 0.953 . S
C242 C241 1.377 . S
C242 C243 1.369 . S
C243 H223 0.945 . S
C243 C238 1.385 . S
C243 C242 1.369 . S
C244 C236 1.457 . S
C244 C245 1.372 . S
C244 C249 1.364 . S
C245 H224 0.952 . S
C245 C244 1.372 . S
C245 C246 1.389 . S
C246 H225 0.949 . S
C246 C245 1.389 . S
C246 C247 1.387 . S
C247 C246 1.387 . S
C247 C248 1.372 . S
C248 H226 0.950 . S
C248 C247 1.372 . S
C248 C249 1.379 . S
C249 H227 0.948 . S
C249 C244 1.364 . S
C249 C248 1.379 . S
C250 C219 1.383 . S
C250 C237 1.479 . S
C250 C251 1.398 . S
C251 C216 1.382 . S
C251 H228 0.951 . S
C251 C250 1.398 . S
C252 C253 1.384 . S
C252 H265 0.947 . S
C252 C287 1.382 . S
C253 C252 1.384 . S
C253 C254 1.378 . S
C254 C253 1.378 . S
C254 C255 1.378 . S
C254 H266 0.952 . S
C255 C254 1.378 . S
C255 H267 0.950 . S
C255 C286 1.383 . S
H256 C275 0.947 . S
H257 C276 0.946 . S
H258 C278 0.953 . S
H259 C279 0.945 . S
H260 C281 0.952 . S
H261 C282 0.949 . S
H262 C284 0.950 . S
H263 C285 0.948 . S
H264 C287 0.951 . S
H265 C252 0.947 . S
H266 C254 0.952 . S
H267 C255 0.950 . S
N268 C271 1.382 . S
N268 C273 1.363 . S
N269 C271 1.371 . S
N269 C272 1.372 . S
N270 C272 1.361 . S
N270 C273 1.377 . S
C271 N268 1.382 . S
C271 N269 1.371 . S
C271 C274 1.480 . S
C272 N269 1.372 . S
C272 N270 1.361 . S
C272 C280 1.457 . S
C273 N268 1.363 . S
C273 N270 1.377 . S
C273 C286 1.479 . S
C274 C271 1.480 . S
C274 C275 1.383 . S
C274 C279 1.385 . S
C275 H256 0.947 . S
C275 C274 1.383 . S
C275 C276 1.388 . S
C276 H257 0.946 . S
C276 C275 1.388 . S
C276 C277 1.384 . S
C277 C276 1.384 . S
C277 C278 1.377 . S
C278 H258 0.953 . S
C278 C277 1.377 . S
C278 C279 1.369 . S
C279 H259 0.945 . S
C279 C274 1.385 . S
C279 C278 1.369 . S
C280 C272 1.457 . S
C280 C281 1.372 . S
C280 C285 1.364 . S
C281 H260 0.952 . S
C281 C280 1.372 . S
C281 C282 1.389 . S
C282 H261 0.949 . S
C282 C281 1.389 . S
C282 C283 1.387 . S
C283 C282 1.387 . S
C283 C284 1.372 . S
C284 H262 0.950 . S
C284 C283 1.372 . S
C284 C285 1.379 . S
C285 H263 0.948 . S
C285 C280 1.364 . S
C285 C284 1.379 . S
C286 C255 1.383 . S
C286 C273 1.479 . S
C286 C287 1.398 . S
C287 C252 1.382 . S
C287 H264 0.951 . S
C287 C286 1.398 . S
C288 C289 1.384 . S
C288 H301 0.947 . S
C288 C323 1.382 . S
C289 C288 1.384 . S
C289 C290 1.378 . S
C290 C289 1.378 . S
C290 C291 1.378 . S
C290 H302 0.952 . S
C291 C290 1.378 . S
C291 H303 0.950 . S
C291 C322 1.383 . S
H292 C311 0.947 . S
H293 C312 0.946 . S
H294 C314 0.953 . S
H295 C315 0.945 . S
H296 C317 0.952 . S
H297 C318 0.949 . S
H298 C320 0.950 . S
H299 C321 0.948 . S
H300 C323 0.951 . S
H301 C288 0.947 . S
H302 C290 0.952 . S
H303 C291 0.950 . S
N304 C307 1.382 . S
N304 C309 1.363 . S
N305 C307 1.371 . S
N305 C308 1.372 . S
N306 C308 1.361 . S
N306 C309 1.377 . S
C307 N304 1.382 . S
C307 N305 1.371 . S
C307 C310 1.480 . S
C308 N305 1.372 . S
C308 N306 1.361 . S
C308 C316 1.457 . S
C309 N304 1.363 . S
C309 N306 1.377 . S
C309 C322 1.479 . S
C310 C307 1.480 . S
C310 C311 1.383 . S
C310 C315 1.385 . S
C311 H292 0.947 . S
C311 C310 1.383 . S
C311 C312 1.388 . S
C312 H293 0.946 . S
C312 C311 1.388 . S
C312 C313 1.384 . S
C313 C312 1.384 . S
C313 C314 1.377 . S
C314 H294 0.953 . S
C314 C313 1.377 . S
C314 C315 1.369 . S
C315 H295 0.945 . S
C315 C310 1.385 . S
C315 C314 1.369 . S
C316 C308 1.457 . S
C316 C317 1.372 . S
C316 C321 1.364 . S
C317 H296 0.952 . S
C317 C316 1.372 . S
C317 C318 1.389 . S
C318 H297 0.949 . S
C318 C317 1.389 . S
C318 C319 1.387 . S
C319 C318 1.387 . S
C319 C320 1.372 . S
C320 H298 0.950 . S
C320 C319 1.372 . S
C320 C321 1.379 . S
C321 H299 0.948 . S
C321 C316 1.364 . S
C321 C320 1.379 . S
C322 C291 1.383 . S
C322 C309 1.479 . S
C322 C323 1.398 . S
C323 C288 1.382 . S
C323 H300 0.951 . S
C323 C322 1.398 . S
C324 C325 1.384 . S
C324 H337 0.947 . S
C324 C359 1.382 . S
C325 C324 1.384 . S
C325 C326 1.378 . S
C326 C325 1.378 . S
C326 C327 1.378 . S
C326 H338 0.952 . S
C327 C326 1.378 . S
C327 H339 0.950 . S
C327 C358 1.383 . S
H328 C347 0.947 . S
H329 C348 0.946 . S
H330 C350 0.953 . S
H331 C351 0.945 . S
H332 C353 0.952 . S
H333 C354 0.949 . S
H334 C356 0.950 . S
H335 C357 0.948 . S
H336 C359 0.951 . S
H337 C324 0.947 . S
H338 C326 0.952 . S
H339 C327 0.950 . S
N340 C343 1.382 . S
N340 C345 1.363 . S
N341 C343 1.371 . S
N341 C344 1.372 . S
N342 C344 1.361 . S
N342 C345 1.377 . S
C343 N340 1.382 . S
C343 N341 1.371 . S
C343 C346 1.480 . S
C344 N341 1.372 . S
C344 N342 1.361 . S
C344 C352 1.457 . S
C345 N340 1.363 . S
C345 N342 1.377 . S
C345 C358 1.479 . S
C346 C343 1.480 . S
C346 C347 1.383 . S
C346 C351 1.385 . S
C347 H328 0.947 . S
C347 C346 1.383 . S
C347 C348 1.388 . S
C348 H329 0.946 . S
C348 C347 1.388 . S
C348 C349 1.384 . S
C349 C348 1.384 . S
C349 C350 1.377 . S
C350 H330 0.953 . S
C350 C349 1.377 . S
C350 C351 1.369 . S
C351 H331 0.945 . S
C351 C346 1.385 . S
C351 C350 1.369 . S
C352 C344 1.457 . S
C352 C353 1.372 . S
C352 C357 1.364 . S
C353 H332 0.952 . S
C353 C352 1.372 . S
C353 C354 1.389 . S
C354 H333 0.949 . S
C354 C353 1.389 . S
C354 C355 1.387 . S
C355 C354 1.387 . S
C355 C356 1.372 . S
C356 H334 0.950 . S
C356 C355 1.372 . S
C356 C357 1.379 . S
C357 H335 0.948 . S
C357 C352 1.364 . S
C357 C356 1.379 . S
C358 C327 1.383 . S
C358 C345 1.479 . S
C358 C359 1.398 . S
C359 C324 1.382 . S
C359 H336 0.951 . S
C359 C358 1.398 . S
C360 C361 1.384 . S
C360 H373 0.947 . S
C360 C395 1.382 . S
C361 C360 1.384 . S
C361 C362 1.378 . S
C362 C361 1.378 . S
C362 C363 1.378 . S
C362 H374 0.952 . S
C363 C362 1.378 . S
C363 H375 0.950 . S
C363 C394 1.383 . S
H364 C383 0.947 . S
H365 C384 0.946 . S
H366 C386 0.953 . S
H367 C387 0.945 . S
H368 C389 0.952 . S
H369 C390 0.949 . S
H370 C392 0.950 . S
H371 C393 0.948 . S
H372 C395 0.951 . S
H373 C360 0.947 . S
H374 C362 0.952 . S
H375 C363 0.950 . S
N376 C379 1.382 . S
N376 C381 1.363 . S
N377 C379 1.371 . S
N377 C380 1.372 . S
N378 C380 1.361 . S
N378 C381 1.377 . S
C379 N376 1.382 . S
C379 N377 1.371 . S
C379 C382 1.480 . S
C380 N377 1.372 . S
C380 N378 1.361 . S
C380 C388 1.457 . S
C381 N376 1.363 . S
C381 N378 1.377 . S
C381 C394 1.479 . S
C382 C379 1.480 . S
C382 C383 1.383 . S
C382 C387 1.385 . S
C383 H364 0.947 . S
C383 C382 1.383 . S
C383 C384 1.388 . S
C384 H365 0.946 . S
C384 C383 1.388 . S
C384 C385 1.384 . S
C385 C384 1.384 . S
C385 C386 1.377 . S
C386 H366 0.953 . S
C386 C385 1.377 . S
C386 C387 1.369 . S
C387 H367 0.945 . S
C387 C382 1.385 . S
C387 C386 1.369 . S
C388 C380 1.457 . S
C388 C389 1.372 . S
C388 C393 1.364 . S
C389 H368 0.952 . S
C389 C388 1.372 . S
C389 C390 1.389 . S
C390 H369 0.949 . S
C390 C389 1.389 . S
C390 C391 1.387 . S
C391 C390 1.387 . S
C391 C392 1.372 . S
C392 H370 0.950 . S
C392 C391 1.372 . S
C392 C393 1.379 . S
C393 H371 0.948 . S
C393 C388 1.364 . S
C393 C392 1.379 . S
C394 C363 1.383 . S
C394 C381 1.479 . S
C394 C395 1.398 . S
C395 C360 1.382 . S
C395 H372 0.951 . S
C395 C394 1.398 . S
C396 C397 1.384 . S
C396 H409 0.947 . S
C396 C431 1.382 . S
C397 C396 1.384 . S
C397 C398 1.378 . S
C398 C397 1.378 . S
C398 C399 1.378 . S
C398 H410 0.952 . S
C399 C398 1.378 . S
C399 H411 0.950 . S
C399 C430 1.383 . S
H400 C419 0.947 . S
H401 C420 0.946 . S
H402 C422 0.953 . S
H403 C423 0.945 . S
H404 C425 0.952 . S
H405 C426 0.949 . S
H406 C428 0.950 . S
H407 C429 0.948 . S
H408 C431 0.951 . S
H409 C396 0.947 . S
H410 C398 0.952 . S
H411 C399 0.950 . S
N412 C415 1.382 . S
N412 C417 1.363 . S
N413 C415 1.371 . S
N413 C416 1.372 . S
N414 C416 1.361 . S
N414 C417 1.377 . S
C415 N412 1.382 . S
C415 N413 1.371 . S
C415 C418 1.480 . S
C416 N413 1.372 . S
C416 N414 1.361 . S
C416 C424 1.457 . S
C417 N412 1.363 . S
C417 N414 1.377 . S
C417 C430 1.479 . S
C418 C415 1.480 . S
C418 C419 1.383 . S
C418 C423 1.385 . S
C419 H400 0.947 . S
C419 C418 1.383 . S
C419 C420 1.388 . S
C420 H401 0.946 . S
C420 C419 1.388 . S
C420 C421 1.384 . S
C421 C420 1.384 . S
C421 C422 1.377 . S
C422 H402 0.953 . S
C422 C421 1.377 . S
C422 C423 1.369 . S
C423 H403 0.945 . S
C423 C418 1.385 . S
C423 C422 1.369 . S
C424 C416 1.457 . S
C424 C425 1.372 . S
C424 C429 1.364 . S
C425 H404 0.952 . S
C425 C424 1.372 . S
C425 C426 1.389 . S
C426 H405 0.949 . S
C426 C425 1.389 . S
C426 C427 1.387 . S
C427 C426 1.387 . S
C427 C428 1.372 . S
C428 H406 0.950 . S
C428 C427 1.372 . S
C428 C429 1.379 . S
C429 H407 0.948 . S
C429 C424 1.364 . S
C429 C428 1.379 . S
C430 C399 1.383 . S
C430 C417 1.479 . S
C430 C431 1.398 . S
C431 C396 1.382 . S
C431 H408 0.951 . S
C431 C430 1.398 . S
C432 C433 1.384 . S
C432 H445 0.947 . S
C432 C467 1.382 . S
C433 C432 1.384 . S
C433 C434 1.378 . S
C434 C433 1.378 . S
C434 C435 1.378 . S
C434 H446 0.952 . S
C435 C434 1.378 . S
C435 H447 0.950 . S
C435 C466 1.383 . S
H436 C455 0.947 . S
H437 C456 0.946 . S
H438 C458 0.953 . S
H439 C459 0.945 . S
H440 C461 0.952 . S
H441 C462 0.949 . S
H442 C464 0.950 . S
H443 C465 0.948 . S
H444 C467 0.951 . S
H445 C432 0.947 . S
H446 C434 0.952 . S
H447 C435 0.950 . S
N448 C451 1.382 . S
N448 C453 1.363 . S
N449 C451 1.371 . S
N449 C452 1.372 . S
N450 C452 1.361 . S
N450 C453 1.377 . S
C451 N448 1.382 . S
C451 N449 1.371 . S
C451 C454 1.480 . S
C452 N449 1.372 . S
C452 N450 1.361 . S
C452 C460 1.457 . S
C453 N448 1.363 . S
C453 N450 1.377 . S
C453 C466 1.479 . S
C454 C451 1.480 . S
C454 C455 1.383 . S
C454 C459 1.385 . S
C455 H436 0.947 . S
C455 C454 1.383 . S
C455 C456 1.388 . S
C456 H437 0.946 . S
C456 C455 1.388 . S
C456 C457 1.384 . S
C457 C456 1.384 . S
C457 C458 1.377 . S
C458 H438 0.953 . S
C458 C457 1.377 . S
C458 C459 1.369 . S
C459 H439 0.945 . S
C459 C454 1.385 . S
C459 C458 1.369 . S
C460 C452 1.457 . S
C460 C461 1.372 . S
C460 C465 1.364 . S
C461 H440 0.952 . S
C461 C460 1.372 . S
C461 C462 1.389 . S
C462 H441 0.949 . S
C462 C461 1.389 . S
C462 C463 1.387 . S
C463 C462 1.387 . S
C463 C464 1.372 . S
C464 H442 0.950 . S
C464 C463 1.372 . S
C464 C465 1.379 . S
C465 H443 0.948 . S
C465 C460 1.364 . S
C465 C464 1.379 . S
C466 C435 1.383 . S
C466 C453 1.479 . S
C466 C467 1.398 . S
C467 C432 1.382 . S
C467 H444 0.951 . S
C467 C466 1.398 . S
C468 C469 1.384 . S
C468 H481 0.947 . S
C468 C503 1.382 . S
C469 C468 1.384 . S
C469 C470 1.378 . S
C470 C469 1.378 . S
C470 C471 1.378 . S
C470 H482 0.952 . S
C471 C470 1.378 . S
C471 H483 0.950 . S
C471 C502 1.383 . S
H472 C491 0.947 . S
H473 C492 0.946 . S
H474 C494 0.953 . S
H475 C495 0.945 . S
H476 C497 0.952 . S
H477 C498 0.949 . S
H478 C500 0.950 . S
H479 C501 0.948 . S
H480 C503 0.951 . S
H481 C468 0.947 . S
H482 C470 0.952 . S
H483 C471 0.950 . S
N484 C487 1.382 . S
N484 C489 1.363 . S
N485 C487 1.371 . S
N485 C488 1.372 . S
N486 C488 1.361 . S
N486 C489 1.377 . S
C487 N484 1.382 . S
C487 N485 1.371 . S
C487 C490 1.480 . S
C488 N485 1.372 . S
C488 N486 1.361 . S
C488 C496 1.457 . S
C489 N484 1.363 . S
C489 N486 1.377 . S
C489 C502 1.479 . S
C490 C487 1.480 . S
C490 C491 1.383 . S
C490 C495 1.385 . S
C491 H472 0.947 . S
C491 C490 1.383 . S
C491 C492 1.388 . S
C492 H473 0.946 . S
C492 C491 1.388 . S
C492 C493 1.384 . S
C493 C492 1.384 . S
C493 C494 1.377 . S
C494 H474 0.953 . S
C494 C493 1.377 . S
C494 C495 1.369 . S
C495 H475 0.945 . S
C495 C490 1.385 . S
C495 C494 1.369 . S
C496 C488 1.457 . S
C496 C497 1.372 . S
C496 C501 1.364 . S
C497 H476 0.952 . S
C497 C496 1.372 . S
C497 C498 1.389 . S
C498 H477 0.949 . S
C498 C497 1.389 . S
C498 C499 1.387 . S
C499 C498 1.387 . S
C499 C500 1.372 . S
C500 H478 0.950 . S
C500 C499 1.372 . S
C500 C501 1.379 . S
C501 H479 0.948 . S
C501 C496 1.364 . S
C501 C500 1.379 . S
C502 C471 1.383 . S
C502 C489 1.479 . S
C502 C503 1.398 . S
C503 C468 1.382 . S
C503 H480 0.951 . S
C503 C502 1.398 . S
C504 C505 1.384 . S
C504 H517 0.947 . S
C504 C539 1.382 . S
C505 C504 1.384 . S
C505 C506 1.378 . S
C506 C505 1.378 . S
C506 C507 1.378 . S
C506 H518 0.952 . S
C507 C506 1.378 . S
C507 H519 0.950 . S
C507 C538 1.383 . S
H508 C527 0.947 . S
H509 C528 0.946 . S
H510 C530 0.953 . S
H511 C531 0.945 . S
H512 C533 0.952 . S
H513 C534 0.949 . S
H514 C536 0.950 . S
H515 C537 0.948 . S
H516 C539 0.951 . S
H517 C504 0.947 . S
H518 C506 0.952 . S
H519 C507 0.950 . S
N520 C523 1.382 . S
N520 C525 1.363 . S
N521 C523 1.371 . S
N521 C524 1.372 . S
N522 C524 1.361 . S
N522 C525 1.377 . S
C523 N520 1.382 . S
C523 N521 1.371 . S
C523 C526 1.480 . S
C524 N521 1.372 . S
C524 N522 1.361 . S
C524 C532 1.457 . S
C525 N520 1.363 . S
C525 N522 1.377 . S
C525 C538 1.479 . S
C526 C523 1.480 . S
C526 C527 1.383 . S
C526 C531 1.385 . S
C527 H508 0.947 . S
C527 C526 1.383 . S
C527 C528 1.388 . S
C528 H509 0.946 . S
C528 C527 1.388 . S
C528 C529 1.384 . S
C529 C528 1.384 . S
C529 C530 1.377 . S
C530 H510 0.953 . S
C530 C529 1.377 . S
C530 C531 1.369 . S
C531 H511 0.945 . S
C531 C526 1.385 . S
C531 C530 1.369 . S
C532 C524 1.457 . S
C532 C533 1.372 . S
C532 C537 1.364 . S
C533 H512 0.952 . S
C533 C532 1.372 . S
C533 C534 1.389 . S
C534 H513 0.949 . S
C534 C533 1.389 . S
C534 C535 1.387 . S
C535 C534 1.387 . S
C535 C536 1.372 . S
C536 H514 0.950 . S
C536 C535 1.372 . S
C536 C537 1.379 . S
C537 H515 0.948 . S
C537 C532 1.364 . S
C537 C536 1.379 . S
C538 C507 1.383 . S
C538 C525 1.479 . S
C538 C539 1.398 . S
C539 C504 1.382 . S
C539 H516 0.951 . S
C539 C538 1.398 . S
C540 C541 1.384 . S
C540 H553 0.947 . S
C540 C575 1.382 . S
C541 C540 1.384 . S
C541 C542 1.378 . S
C542 C541 1.378 . S
C542 C543 1.378 . S
C542 H554 0.952 . S
C543 C542 1.378 . S
C543 H555 0.950 . S
C543 C574 1.383 . S
H544 C563 0.947 . S
H545 C564 0.946 . S
H546 C566 0.953 . S
H547 C567 0.945 . S
H548 C569 0.952 . S
H549 C570 0.949 . S
H550 C572 0.950 . S
H551 C573 0.948 . S
H552 C575 0.951 . S
H553 C540 0.947 . S
H554 C542 0.952 . S
H555 C543 0.950 . S
N556 C559 1.382 . S
N556 C561 1.363 . S
N557 C559 1.371 . S
N557 C560 1.372 . S
N558 C560 1.361 . S
N558 C561 1.377 . S
C559 N556 1.382 . S
C559 N557 1.371 . S
C559 C562 1.480 . S
C560 N557 1.372 . S
C560 N558 1.361 . S
C560 C568 1.457 . S
C561 N556 1.363 . S
C561 N558 1.377 . S
C561 C574 1.479 . S
C562 C559 1.480 . S
C562 C563 1.383 . S
C562 C567 1.385 . S
C563 H544 0.947 . S
C563 C562 1.383 . S
C563 C564 1.388 . S
C564 H545 0.946 . S
C564 C563 1.388 . S
C564 C565 1.384 . S
C565 C564 1.384 . S
C565 C566 1.377 . S
C566 H546 0.953 . S
C566 C565 1.377 . S
C566 C567 1.369 . S
C567 H547 0.945 . S
C567 C562 1.385 . S
C567 C566 1.369 . S
C568 C560 1.457 . S
C568 C569 1.372 . S
C568 C573 1.364 . S
C569 H548 0.952 . S
C569 C568 1.372 . S
C569 C570 1.389 . S
C570 H549 0.949 . S
C570 C569 1.389 . S
C570 C571 1.387 . S
C571 C570 1.387 . S
C571 C572 1.372 . S
C572 H550 0.950 . S
C572 C571 1.372 . S
C572 C573 1.379 . S
C573 H551 0.948 . S
C573 C568 1.364 . S
C573 C572 1.379 . S
C574 C543 1.383 . S
C574 C561 1.479 . S
C574 C575 1.398 . S
C575 C540 1.382 . S
C575 H552 0.951 . S
C575 C574 1.398 . S
C576 C577 1.384 . S
C576 H589 0.947 . S
C576 C611 1.382 . S
C577 C576 1.384 . S
C577 C578 1.378 . S
C578 C577 1.378 . S
C578 C579 1.378 . S
C578 H590 0.952 . S
C579 C578 1.378 . S
C579 H591 0.950 . S
C579 C610 1.383 . S
H580 C599 0.947 . S
H581 C600 0.946 . S
H582 C602 0.953 . S
H583 C603 0.945 . S
H584 C605 0.952 . S
H585 C606 0.949 . S
H586 C608 0.950 . S
H587 C609 0.948 . S
H588 C611 0.951 . S
H589 C576 0.947 . S
H590 C578 0.952 . S
H591 C579 0.950 . S
N592 C595 1.382 . S
N592 C597 1.363 . S
N593 C595 1.371 . S
N593 C596 1.372 . S
N594 C596 1.361 . S
N594 C597 1.377 . S
C595 N592 1.382 . S
C595 N593 1.371 . S
C595 C598 1.480 . S
C596 N593 1.372 . S
C596 N594 1.361 . S
C596 C604 1.457 . S
C597 N592 1.363 . S
C597 N594 1.377 . S
C597 C610 1.479 . S
C598 C595 1.480 . S
C598 C599 1.383 . S
C598 C603 1.385 . S
C599 H580 0.947 . S
C599 C598 1.383 . S
C599 C600 1.388 . S
C600 H581 0.946 . S
C600 C599 1.388 . S
C600 C601 1.384 . S
C601 C600 1.384 . S
C601 C602 1.377 . S
C602 H582 0.953 . S
C602 C601 1.377 . S
C602 C603 1.369 . S
C603 H583 0.945 . S
C603 C598 1.385 . S
C603 C602 1.369 . S
C604 C596 1.457 . S
C604 C605 1.372 . S
C604 C609 1.364 . S
C605 H584 0.952 . S
C605 C604 1.372 . S
C605 C606 1.389 . S
C606 H585 0.949 . S
C606 C605 1.389 . S
C606 C607 1.387 . S
C607 C606 1.387 . S
C607 C608 1.372 . S
C608 H586 0.950 . S
C608 C607 1.372 . S
C608 C609 1.379 . S
C609 H587 0.948 . S
C609 C604 1.364 . S
C609 C608 1.379 . S
C610 C579 1.383 . S
C610 C597 1.479 . S
C610 C611 1.398 . S
C611 C576 1.382 . S
C611 H588 0.951 . S
C611 C610 1.398 . S
C612 C613 1.384 . S
C612 H625 0.947 . S
C612 C647 1.382 . S
C613 C612 1.384 . S
C613 C614 1.378 . S
C614 C613 1.378 . S
C614 C615 1.378 . S
C614 H626 0.952 . S
C615 C614 1.378 . S
C615 H627 0.950 . S
C615 C646 1.383 . S
H616 C635 0.947 . S
H617 C636 0.946 . S
H618 C638 0.953 . S
H619 C639 0.945 . S
H620 C641 0.952 . S
H621 C642 0.949 . S
H622 C644 0.950 . S
H623 C645 0.948 . S
H624 C647 0.951 . S
H625 C612 0.947 . S
H626 C614 0.952 . S
H627 C615 0.950 . S
N628 C631 1.382 . S
N628 C633 1.363 . S
N629 C631 1.371 . S
N629 C632 1.372 . S
N630 C632 1.361 . S
N630 C633 1.377 . S
C631 N628 1.382 . S
C631 N629 1.371 . S
C631 C634 1.480 . S
C632 N629 1.372 . S
C632 N630 1.361 . S
C632 C640 1.457 . S
C633 N628 1.363 . S
C633 N630 1.377 . S
C633 C646 1.479 . S
C634 C631 1.480 . S
C634 C635 1.383 . S
C634 C639 1.385 . S
C635 H616 0.947 . S
C635 C634 1.383 . S
C635 C636 1.388 . S
C636 H617 0.946 . S
C636 C635 1.388 . S
C636 C637 1.384 . S
C637 C636 1.384 . S
C637 C638 1.377 . S
C638 H618 0.953 . S
C638 C637 1.377 . S
C638 C639 1.369 . S
C639 H619 0.945 . S
C639 C634 1.385 . S
C639 C638 1.369 . S
C640 C632 1.457 . S
C640 C641 1.372 . S
C640 C645 1.364 . S
C641 H620 0.952 . S
C641 C640 1.372 . S
C641 C642 1.389 . S
C642 H621 0.949 . S
C642 C641 1.389 . S
C642 C643 1.387 . S
C643 C642 1.387 . S
C643 C644 1.372 . S
C644 H622 0.950 . S
C644 C643 1.372 . S
C644 C645 1.379 . S
C645 H623 0.948 . S
C645 C640 1.364 . S
C645 C644 1.379 . S
C646 C615 1.383 . S
C646 C633 1.479 . S
C646 C647 1.398 . S
C647 C612 1.382 . S
C647 H624 0.951 . S
C647 C646 1.398 . S
Tb648 N679 2.660 . S
Tb648 N686 2.600 . S
Tb648 O692 2.546 . S
Tb648 O693 2.610 1_565 S
Tb648 O695 2.320 1_565 S
Tb648 O696 2.552 1_565 S
Tb648 O697 2.413 . S
Tb648 O699 2.362 1_556 S
Tb648 O700 2.421 . S
Tb648 C712 2.833 . S
C649 C652 1.432 . S
C649 C653 1.414 . S
C649 N656 1.359 . S
C650 C652 1.417 . S
C650 C654 1.432 . S
C650 C662 1.410 . S
C651 C653 1.444 . S
C651 C654 1.317 . S
C651 H674 0.929 . S
C652 C649 1.432 . S
C652 C650 1.417 . S
C652 N660 1.360 . S
C653 C649 1.414 . S
C653 C651 1.444 . S
C653 C658 1.385 . S
C654 C650 1.432 . S
C654 C651 1.317 . S
C654 H666 0.930 . S
C655 C657 1.392 . S
C655 C658 1.370 . S
C655 H667 0.931 . S
N656 C649 1.359 . S
N656 C657 1.327 . S
N656 Tb659 2.600 . S
C657 C655 1.392 . S
C657 N656 1.327 . S
C657 H664 0.930 . S
C658 C653 1.385 . S
C658 C655 1.370 . S
C658 H677 0.930 . S
Tb659 N656 2.600 . S
Tb659 N660 2.660 . S
Tb659 O693 2.362 1_554 S
Tb659 O694 2.421 . S
Tb659 O698 2.546 . S
Tb659 O699 2.610 1_545 S
Tb659 O701 2.320 1_545 S
Tb659 O702 2.552 1_545 S
Tb659 O703 2.413 . S
Tb659 C723 2.833 . S
N660 C652 1.360 . S
N660 Tb659 2.660 . S
N660 C661 1.305 . S
C661 N660 1.305 . S
C661 C663 1.407 . S
C661 H668 0.930 . S
C662 C650 1.410 . S
C662 C663 1.345 . S
C662 H670 0.930 . S
C663 C661 1.407 . S
C663 C662 1.345 . S
C663 H665 0.930 . S
H664 C657 0.930 . S
H665 C663 0.930 . S
H666 C654 0.930 . S
H667 C655 0.931 . S
H668 C661 0.930 . S
H669 C683 0.930 . S
H670 C662 0.930 . S
H671 C689 0.930 . S
H672 C680 0.930 . S
H673 C687 0.931 . S
H674 C651 0.929 . S
H675 C681 0.930 . S
H676 C714 0.930 . S
H677 C658 0.930 . S
H678 C713 0.929 . S
N679 Tb648 2.660 . S
N679 C680 1.305 . S
N679 C684 1.360 . S
C680 H672 0.930 . S
C680 N679 1.305 . S
C680 C683 1.407 . S
C681 H675 0.930 . S
C681 C682 1.410 . S
C681 C683 1.345 . S
C682 C681 1.410 . S
C682 C684 1.417 . S
C682 C714 1.432 . S
C683 H669 0.930 . S
C683 C680 1.407 . S
C683 C681 1.345 . S
C684 N679 1.360 . S
C684 C682 1.417 . S
C684 C688 1.432 . S
H685 C690 0.930 . S
N686 Tb648 2.600 . S
N686 C688 1.359 . S
N686 C689 1.327 . S
C687 H673 0.931 . S
C687 C689 1.392 . S
C687 C690 1.370 . S
C688 C684 1.432 . S
C688 N686 1.359 . S
C688 C691 1.414 . S
C689 H671 0.930 . S
C689 N686 1.327 . S
C689 C687 1.392 . S
C690 H685 0.930 . S
C690 C687 1.370 . S
C690 C691 1.385 . S
C691 C688 1.414 . S
C691 C690 1.385 . S
C691 C713 1.444 . S
O692 Tb648 2.546 . S
O692 C712 1.251 . S
O693 Tb648 2.610 1_545 S
O693 Tb659 2.362 1_556 S
O693 C704 1.283 . S
O694 Tb659 2.421 . S
O694 C711 1.262 1_554 S
O695 Tb648 2.320 1_545 S
O695 C711 1.260 . S
O696 Tb648 2.552 1_545 S
O696 C704 1.243 . S
O697 Tb648 2.413 . S
O697 C712 1.256 . S
O698 Tb659 2.546 . S
O698 C723 1.251 . S
O699 Tb648 2.362 1_554 S
O699 Tb659 2.610 1_565 S
O699 C715 1.283 . S
O700 Tb648 2.421 . S
O700 C722 1.262 1_556 S
O701 Tb659 2.320 1_565 S
O701 C722 1.260 . S
O702 Tb659 2.552 1_565 S
O702 C715 1.243 . S
O703 Tb659 2.413 . S
O703 C723 1.256 . S
C704 O693 1.283 . S
C704 O696 1.243 . S
C705 C707 1.382 1_565 S
C705 C709 1.393 . S
C705 C712 1.500 . S
C706 C707 1.400 . S
C706 C708 1.384 1_545 S
C707 C705 1.382 1_545 S
C707 C706 1.400 . S
C707 H724 0.930 . S
C708 C706 1.384 1_565 S
C708 C710 1.392 . S
C708 H725 0.931 . S
C709 C705 1.393 . S
C709 C710 1.401 . S
C709 H726 0.930 . S
C710 C708 1.392 . S
C710 C709 1.401 . S
C710 H727 0.930 . S
C711 O694 1.262 1_556 S
C711 O695 1.260 . S
C712 Tb648 2.833 . S
C712 O692 1.251 . S
C712 O697 1.256 . S
C712 C705 1.500 . S
C713 H678 0.929 . S
C713 C691 1.444 . S
C713 C714 1.317 . S
C714 H676 0.930 . S
C714 C682 1.432 . S
C714 C713 1.317 . S
C715 O699 1.283 . S
C715 O702 1.243 . S
C716 C717 1.382 1_545 S
C716 C720 1.393 . S
C716 C723 1.500 . S
C717 C716 1.382 1_565 S
C717 C718 1.400 . S
C717 H728 0.930 . S
C718 C717 1.400 . S
C718 C719 1.384 1_565 S
C719 C718 1.384 1_545 S
C719 C721 1.392 . S
C719 H729 0.931 . S
C720 C716 1.393 . S
C720 C721 1.401 . S
C720 H730 0.930 . S
C721 C719 1.392 . S
C721 C720 1.401 . S
C721 H731 0.930 . S
C722 O700 1.262 1_554 S
C722 O701 1.260 . S
C723 Tb659 2.833 . S
C723 O698 1.251 . S
C723 O703 1.256 . S
C723 C716 1.500 . S
H724 C707 0.930 . S
H725 C708 0.931 . S
H726 C709 0.930 . S
H727 C710 0.930 . S
H728 C717 0.930 . S
H729 C719 0.931 . S
H730 C720 0.930 . S
H731 C721 0.930 . S
Tb732 N763 2.660 . S
Tb732 N770 2.600 . S
Tb732 O776 2.546 . S
Tb732 O777 2.610 1_455 S
Tb732 O779 2.320 1_455 S
Tb732 O780 2.552 1_455 S
Tb732 O781 2.413 . S
Tb732 O783 2.362 1_556 S
Tb732 O784 2.421 . S
Tb732 C796 2.833 . S
C733 C736 1.432 . S
C733 C737 1.414 . S
C733 N740 1.359 . S
C734 C736 1.417 . S
C734 C738 1.432 . S
C734 C746 1.410 . S
C735 C737 1.444 . S
C735 C738 1.317 . S
C735 H758 0.929 . S
C736 C733 1.432 . S
C736 C734 1.417 . S
C736 N744 1.360 . S
C737 C733 1.414 . S
C737 C735 1.444 . S
C737 C742 1.385 . S
C738 C734 1.432 . S
C738 C735 1.317 . S
C738 H750 0.930 . S
C739 C741 1.392 . S
C739 C742 1.370 . S
C739 H751 0.931 . S
N740 C733 1.359 . S
N740 C741 1.327 . S
N740 Tb743 2.600 . S
C741 C739 1.392 . S
C741 N740 1.327 . S
C741 H748 0.930 . S
C742 C737 1.385 . S
C742 C739 1.370 . S
C742 H761 0.930 . S
Tb743 N740 2.600 . S
Tb743 N744 2.660 . S
Tb743 O777 2.362 1_554 S
Tb743 O778 2.421 . S
Tb743 O782 2.546 . S
Tb743 O783 2.610 1_655 S
Tb743 O785 2.320 1_655 S
Tb743 O786 2.552 1_655 S
Tb743 O787 2.413 . S
Tb743 C807 2.833 . S
N744 C736 1.360 . S
N744 Tb743 2.660 . S
N744 C745 1.305 . S
C745 N744 1.305 . S
C745 C747 1.407 . S
C745 H752 0.930 . S
C746 C734 1.410 . S
C746 C747 1.345 . S
C746 H754 0.930 . S
C747 C745 1.407 . S
C747 C746 1.345 . S
C747 H749 0.930 . S
H748 C741 0.930 . S
H749 C747 0.930 . S
H750 C738 0.930 . S
H751 C739 0.931 . S
H752 C745 0.930 . S
H753 C767 0.930 . S
H754 C746 0.930 . S
H755 C773 0.930 . S
H756 C764 0.930 . S
H757 C771 0.931 . S
H758 C735 0.929 . S
H759 C765 0.930 . S
H760 C798 0.930 . S
H761 C742 0.930 . S
H762 C797 0.929 . S
N763 Tb732 2.660 . S
N763 C764 1.305 . S
N763 C768 1.360 . S
C764 H756 0.930 . S
C764 N763 1.305 . S
C764 C767 1.407 . S
C765 H759 0.930 . S
C765 C766 1.410 . S
C765 C767 1.345 . S
C766 C765 1.410 . S
C766 C768 1.417 . S
C766 C798 1.432 . S
C767 H753 0.930 . S
C767 C764 1.407 . S
C767 C765 1.345 . S
C768 N763 1.360 . S
C768 C766 1.417 . S
C768 C772 1.432 . S
H769 C774 0.930 . S
N770 Tb732 2.600 . S
N770 C772 1.359 . S
N770 C773 1.327 . S
C771 H757 0.931 . S
C771 C773 1.392 . S
C771 C774 1.370 . S
C772 C768 1.432 . S
C772 N770 1.359 . S
C772 C775 1.414 . S
C773 H755 0.930 . S
C773 N770 1.327 . S
C773 C771 1.392 . S
C774 H769 0.930 . S
C774 C771 1.370 . S
C774 C775 1.385 . S
C775 C772 1.414 . S
C775 C774 1.385 . S
C775 C797 1.444 . S
O776 Tb732 2.546 . S
O776 C796 1.251 . S
O777 Tb732 2.610 1_655 S
O777 Tb743 2.362 1_556 S
O777 C788 1.283 . S
O778 Tb743 2.421 . S
O778 C795 1.262 1_554 S
O779 Tb732 2.320 1_655 S
O779 C795 1.260 . S
O780 Tb732 2.552 1_655 S
O780 C788 1.243 . S
O781 Tb732 2.413 . S
O781 C796 1.256 . S
O782 Tb743 2.546 . S
O782 C807 1.251 . S
O783 Tb732 2.362 1_554 S
O783 Tb743 2.610 1_455 S
O783 C799 1.283 . S
O784 Tb732 2.421 . S
O784 C806 1.262 1_556 S
O785 Tb743 2.320 1_455 S
O785 C806 1.260 . S
O786 Tb743 2.552 1_455 S
O786 C799 1.243 . S
O787 Tb743 2.413 . S
O787 C807 1.256 . S
C788 O777 1.283 . S
C788 O780 1.243 . S
C789 C791 1.382 1_455 S
C789 C793 1.393 . S
C789 C796 1.500 . S
C790 C791 1.400 . S
C790 C792 1.384 1_655 S
C791 C789 1.382 1_655 S
C791 C790 1.400 . S
C791 H808 0.930 . S
C792 C790 1.384 1_455 S
C792 C794 1.392 . S
C792 H809 0.931 . S
C793 C789 1.393 . S
C793 C794 1.401 . S
C793 H810 0.930 . S
C794 C792 1.392 . S
C794 C793 1.401 . S
C794 H811 0.930 . S
C795 O778 1.262 1_556 S
C795 O779 1.260 . S
C796 Tb732 2.833 . S
C796 O776 1.251 . S
C796 O781 1.256 . S
C796 C789 1.500 . S
C797 H762 0.929 . S
C797 C775 1.444 . S
C797 C798 1.317 . S
C798 H760 0.930 . S
C798 C766 1.432 . S
C798 C797 1.317 . S
C799 O783 1.283 . S
C799 O786 1.243 . S
C800 C801 1.382 1_655 S
C800 C804 1.393 . S
C800 C807 1.500 . S
C801 C800 1.382 1_455 S
C801 C802 1.400 . S
C801 H812 0.930 . S
C802 C801 1.400 . S
C802 C803 1.384 1_455 S
C803 C802 1.384 1_655 S
C803 C805 1.392 . S
C803 H813 0.931 . S
C804 C800 1.393 . S
C804 C805 1.401 . S
C804 H814 0.930 . S
C805 C803 1.392 . S
C805 C804 1.401 . S
C805 H815 0.930 . S
C806 O784 1.262 1_554 S
C806 O785 1.260 . S
C807 Tb743 2.833 . S
C807 O782 1.251 . S
C807 O787 1.256 . S
C807 C800 1.500 . S
H808 C791 0.930 . S
H809 C792 0.931 . S
H810 C793 0.930 . S
H811 C794 0.930 . S
H812 C801 0.930 . S
H813 C803 0.931 . S
H814 C804 0.930 . S
H815 C805 0.930 . S
Tb816 N847 2.660 . S
Tb816 N854 2.600 . S
Tb816 O860 2.546 . S
Tb816 O861 2.610 . S
Tb816 O863 2.320 . S
Tb816 O864 2.552 . S
Tb816 O865 2.413 . S
Tb816 O867 2.362 1_554 S
Tb816 O868 2.421 . S
Tb816 C880 2.833 . S
C817 C820 1.432 . S
C817 C821 1.414 . S
C817 N824 1.359 . S
C818 C820 1.417 . S
C818 C822 1.432 . S
C818 C830 1.410 . S
C819 C821 1.444 . S
C819 C822 1.317 . S
C819 H842 0.929 . S
C820 C817 1.432 . S
C820 C818 1.417 . S
C820 N828 1.360 . S
C821 C817 1.414 . S
C821 C819 1.444 . S
C821 C826 1.385 . S
C822 C818 1.432 . S
C822 C819 1.317 . S
C822 H834 0.930 . S
C823 C825 1.392 . S
C823 C826 1.370 . S
C823 H835 0.931 . S
N824 C817 1.359 . S
N824 C825 1.327 . S
N824 Tb827 2.600 . S
C825 C823 1.392 . S
C825 N824 1.327 . S
C825 H832 0.930 . S
C826 C821 1.385 . S
C826 C823 1.370 . S
C826 H845 0.930 . S
Tb827 N824 2.600 . S
Tb827 N828 2.660 . S
Tb827 O861 2.362 1_556 S
Tb827 O862 2.421 . S
Tb827 O866 2.546 . S
Tb827 O867 2.610 . S
Tb827 O869 2.320 . S
Tb827 O870 2.552 . S
Tb827 O871 2.413 . S
Tb827 C891 2.833 . S
N828 C820 1.360 . S
N828 Tb827 2.660 . S
N828 C829 1.305 . S
C829 N828 1.305 . S
C829 C831 1.407 . S
C829 H836 0.930 . S
C830 C818 1.410 . S
C830 C831 1.345 . S
C830 H838 0.930 . S
C831 C829 1.407 . S
C831 C830 1.345 . S
C831 H833 0.930 . S
H832 C825 0.930 . S
H833 C831 0.930 . S
H834 C822 0.930 . S
H835 C823 0.931 . S
H836 C829 0.930 . S
H837 C851 0.930 . S
H838 C830 0.930 . S
H839 C857 0.930 . S
H840 C848 0.930 . S
H841 C855 0.931 . S
H842 C819 0.929 . S
H843 C849 0.930 . S
H844 C882 0.930 . S
H845 C826 0.930 . S
H846 C881 0.929 . S
N847 Tb816 2.660 . S
N847 C848 1.305 . S
N847 C852 1.360 . S
C848 H840 0.930 . S
C848 N847 1.305 . S
C848 C851 1.407 . S
C849 H843 0.930 . S
C849 C850 1.410 . S
C849 C851 1.345 . S
C850 C849 1.410 . S
C850 C852 1.417 . S
C850 C882 1.432 . S
C851 H837 0.930 . S
C851 C848 1.407 . S
C851 C849 1.345 . S
C852 N847 1.360 . S
C852 C850 1.417 . S
C852 C856 1.432 . S
H853 C858 0.930 . S
N854 Tb816 2.600 . S
N854 C856 1.359 . S
N854 C857 1.327 . S
C855 H841 0.931 . S
C855 C857 1.392 . S
C855 C858 1.370 . S
C856 C852 1.432 . S
C856 N854 1.359 . S
C856 C859 1.414 . S
C857 H839 0.930 . S
C857 N854 1.327 . S
C857 C855 1.392 . S
C858 H853 0.930 . S
C858 C855 1.370 . S
C858 C859 1.385 . S
C859 C856 1.414 . S
C859 C858 1.385 . S
C859 C881 1.444 . S
O860 Tb816 2.546 . S
O860 C880 1.251 . S
O861 Tb816 2.610 . S
O861 Tb827 2.362 1_554 S
O861 C872 1.283 . S
O862 Tb827 2.421 . S
O862 C879 1.262 1_556 S
O863 Tb816 2.320 . S
O863 C879 1.260 . S
O864 Tb816 2.552 . S
O864 C872 1.243 . S
O865 Tb816 2.413 . S
O865 C880 1.256 . S
O866 Tb827 2.546 . S
O866 C891 1.251 . S
O867 Tb816 2.362 1_556 S
O867 Tb827 2.610 . S
O867 C883 1.283 . S
O868 Tb816 2.421 . S
O868 C890 1.262 1_554 S
O869 Tb827 2.320 . S
O869 C890 1.260 . S
O870 Tb827 2.552 . S
O870 C883 1.243 . S
O871 Tb827 2.413 . S
O871 C891 1.256 . S
C872 O861 1.283 . S
C872 O864 1.243 . S
C873 C875 1.382 . S
C873 C877 1.393 . S
C873 C880 1.500 . S
C874 C875 1.400 . S
C874 C876 1.384 . S
C875 C873 1.382 . S
C875 C874 1.400 . S
C875 H892 0.930 . S
C876 C874 1.384 . S
C876 C878 1.392 . S
C876 H893 0.931 . S
C877 C873 1.393 . S
C877 C878 1.401 . S
C877 H894 0.930 . S
C878 C876 1.392 . S
C878 C877 1.401 . S
C878 H895 0.930 . S
C879 O862 1.262 1_554 S
C879 O863 1.260 . S
C880 Tb816 2.833 . S
C880 O860 1.251 . S
C880 O865 1.256 . S
C880 C873 1.500 . S
C881 H846 0.929 . S
C881 C859 1.444 . S
C881 C882 1.317 . S
C882 H844 0.930 . S
C882 C850 1.432 . S
C882 C881 1.317 . S
C883 O867 1.283 . S
C883 O870 1.243 . S
C884 C885 1.382 . S
C884 C888 1.393 . S
C884 C891 1.500 . S
C885 C884 1.382 . S
C885 C886 1.400 . S
C885 H896 0.930 . S
C886 C885 1.400 . S
C886 C887 1.384 . S
C887 C886 1.384 . S
C887 C889 1.392 . S
C887 H897 0.931 . S
C888 C884 1.393 . S
C888 C889 1.401 . S
C888 H898 0.930 . S
C889 C887 1.392 . S
C889 C888 1.401 . S
C889 H899 0.930 . S
C890 O868 1.262 1_556 S
C890 O869 1.260 . S
C891 Tb827 2.833 . S
C891 O866 1.251 . S
C891 O871 1.256 . S
C891 C884 1.500 . S
H892 C875 0.930 . S
H893 C876 0.931 . S
H894 C877 0.930 . S
H895 C878 0.930 . S
H896 C885 0.930 . S
H897 C887 0.931 . S
H898 C888 0.930 . S
H899 C889 0.930 . S
Tb900 N931 2.660 . S
Tb900 N938 2.600 . S
Tb900 O944 2.546 . S
Tb900 O945 2.610 . S
Tb900 O947 2.320 . S
Tb900 O948 2.552 . S
Tb900 O949 2.413 . S
Tb900 O951 2.362 . S
Tb900 O952 2.421 . S
Tb900 C964 2.833 . S
C901 C904 1.432 . S
C901 C905 1.414 . S
C901 N908 1.359 . S
C902 C904 1.417 . S
C902 C906 1.432 . S
C902 C914 1.410 . S
C903 C905 1.444 . S
C903 C906 1.317 . S
C903 H926 0.929 . S
C904 C901 1.432 . S
C904 C902 1.417 . S
C904 N912 1.360 . S
C905 C901 1.414 . S
C905 C903 1.444 . S
C905 C910 1.385 . S
C906 C902 1.432 . S
C906 C903 1.317 . S
C906 H918 0.930 . S
C907 C909 1.392 . S
C907 C910 1.370 . S
C907 H919 0.931 . S
N908 C901 1.359 . S
N908 C909 1.327 . S
N908 Tb911 2.600 . S
C909 C907 1.392 . S
C909 N908 1.327 . S
C909 H916 0.930 . S
C910 C905 1.385 . S
C910 C907 1.370 . S
C910 H929 0.930 . S
Tb911 N908 2.600 . S
Tb911 N912 2.660 . S
Tb911 O945 2.362 . S
Tb911 O946 2.421 . S
Tb911 O950 2.546 . S
Tb911 O951 2.610 . S
Tb911 O953 2.320 . S
Tb911 O954 2.552 . S
Tb911 O955 2.413 . S
Tb911 C975 2.833 . S
N912 C904 1.360 . S
N912 Tb911 2.660 . S
N912 C913 1.305 . S
C913 N912 1.305 . S
C913 C915 1.407 . S
C913 H920 0.930 . S
C914 C902 1.410 . S
C914 C915 1.345 . S
C914 H922 0.930 . S
C915 C913 1.407 . S
C915 C914 1.345 . S
C915 H917 0.930 . S
H916 C909 0.930 . S
H917 C915 0.930 . S
H918 C906 0.930 . S
H919 C907 0.931 . S
H920 C913 0.930 . S
H921 C935 0.930 . S
H922 C914 0.930 . S
H923 C941 0.930 . S
H924 C932 0.930 . S
H925 C939 0.931 . S
H926 C903 0.929 . S
H927 C933 0.930 . S
H928 C966 0.930 . S
H929 C910 0.930 . S
H930 C965 0.929 . S
N931 Tb900 2.660 . S
N931 C932 1.305 . S
N931 C936 1.360 . S
C932 H924 0.930 . S
C932 N931 1.305 . S
C932 C935 1.407 . S
C933 H927 0.930 . S
C933 C934 1.410 . S
C933 C935 1.345 . S
C934 C933 1.410 . S
C934 C936 1.417 . S
C934 C966 1.432 . S
C935 H921 0.930 . S
C935 C932 1.407 . S
C935 C933 1.345 . S
C936 N931 1.360 . S
C936 C934 1.417 . S
C936 C940 1.432 . S
H937 C942 0.930 . S
N938 Tb900 2.600 . S
N938 C940 1.359 . S
N938 C941 1.327 . S
C939 H925 0.931 . S
C939 C941 1.392 . S
C939 C942 1.370 . S
C940 C936 1.432 . S
C940 N938 1.359 . S
C940 C943 1.414 . S
C941 H923 0.930 . S
C941 N938 1.327 . S
C941 C939 1.392 . S
C942 H937 0.930 . S
C942 C939 1.370 . S
C942 C943 1.385 . S
C943 C940 1.414 . S
C943 C942 1.385 . S
C943 C965 1.444 . S
O944 Tb900 2.546 . S
O944 C964 1.251 . S
O945 Tb900 2.610 . S
O945 Tb911 2.362 . S
O945 C956 1.283 . S
O946 Tb911 2.421 . S
O946 C963 1.262 . S
O947 Tb900 2.320 . S
O947 C963 1.260 . S
O948 Tb900 2.552 . S
O948 C956 1.243 . S
O949 Tb900 2.413 . S
O949 C964 1.256 . S
O950 Tb911 2.546 . S
O950 C975 1.251 . S
O951 Tb900 2.362 . S
O951 Tb911 2.610 . S
O951 C967 1.283 . S
O952 Tb900 2.421 . S
O952 C974 1.262 . S
O953 Tb911 2.320 . S
O953 C974 1.260 . S
O954 Tb911 2.552 . S
O954 C967 1.243 . S
O955 Tb911 2.413 . S
O955 C975 1.256 . S
C956 O945 1.283 . S
C956 O948 1.243 . S
C957 C959 1.382 . S
C957 C961 1.393 . S
C957 C964 1.500 . S
C958 C959 1.400 . S
C958 C960 1.384 . S
C959 C957 1.382 . S
C959 C958 1.400 . S
C959 H976 0.930 . S
C960 C958 1.384 . S
C960 C962 1.392 . S
C960 H977 0.931 . S
C961 C957 1.393 . S
C961 C962 1.401 . S
C961 H978 0.930 . S
C962 C960 1.392 . S
C962 C961 1.401 . S
C962 H979 0.930 . S
C963 O946 1.262 . S
C963 O947 1.260 . S
C964 Tb900 2.833 . S
C964 O944 1.251 . S
C964 O949 1.256 . S
C964 C957 1.500 . S
C965 H930 0.929 . S
C965 C943 1.444 . S
C965 C966 1.317 . S
C966 H928 0.930 . S
C966 C934 1.432 . S
C966 C965 1.317 . S
C967 O951 1.283 . S
C967 O954 1.243 . S
C968 C969 1.382 . S
C968 C972 1.393 . S
C968 C975 1.500 . S
C969 C968 1.382 . S
C969 C970 1.400 . S
C969 H980 0.930 . S
C970 C969 1.400 . S
C970 C971 1.384 . S
C971 C970 1.384 . S
C971 C973 1.392 . S
C971 H981 0.931 . S
C972 C968 1.393 . S
C972 C973 1.401 . S
C972 H982 0.930 . S
C973 C971 1.392 . S
C973 C972 1.401 . S
C973 H983 0.930 . S
C974 O952 1.262 . S
C974 O953 1.260 . S
C975 Tb911 2.833 . S
C975 O950 1.251 . S
C975 O955 1.256 . S
C975 C968 1.500 . S
H976 C959 0.930 . S
H977 C960 0.931 . S
H978 C961 0.930 . S
H979 C962 0.930 . S
H980 C969 0.930 . S
H981 C971 0.931 . S
H982 C972 0.930 . S
H983 C973 0.930 . S
Tb984 N1015 2.660 . S
Tb984 N1022 2.600 . S
Tb984 O1028 2.546 . S
Tb984 O1029 2.610 . S
Tb984 O1031 2.320 . S
Tb984 O1032 2.552 . S
Tb984 O1033 2.413 . S
Tb984 O1035 2.362 . S
Tb984 O1036 2.421 . S
Tb984 C1048 2.833 . S
C985 C988 1.432 . S
C985 C989 1.414 . S
C985 N992 1.359 . S
C986 C988 1.417 . S
C986 C990 1.432 . S
C986 C998 1.410 . S
C987 C989 1.444 . S
C987 C990 1.317 . S
C987 H1010 0.929 . S
C988 C985 1.432 . S
C988 C986 1.417 . S
C988 N996 1.360 . S
C989 C985 1.414 . S
C989 C987 1.444 . S
C989 C994 1.385 . S
C990 C986 1.432 . S
C990 C987 1.317 . S
C990 H1002 0.930 . S
C991 C993 1.392 . S
C991 C994 1.370 . S
C991 H1003 0.931 . S
N992 C985 1.359 . S
N992 C993 1.327 . S
N992 Tb995 2.600 . S
C993 C991 1.392 . S
C993 N992 1.327 . S
C993 H1000 0.930 . S
C994 C989 1.385 . S
C994 C991 1.370 . S
C994 H1013 0.930 . S
Tb995 N992 2.600 . S
Tb995 N996 2.660 . S
Tb995 O1029 2.362 . S
Tb995 O1030 2.421 . S
Tb995 O1034 2.546 . S
Tb995 O1035 2.610 . S
Tb995 O1037 2.320 . S
Tb995 O1038 2.552 . S
Tb995 O1039 2.413 . S
Tb995 C1059 2.833 . S
N996 C988 1.360 . S
N996 Tb995 2.660 . S
N996 C997 1.305 . S
C997 N996 1.305 . S
C997 C999 1.407 . S
C997 H1004 0.930 . S
C998 C986 1.410 . S
C998 C999 1.345 . S
C998 H1006 0.930 . S
C999 C997 1.407 . S
C999 C998 1.345 . S
C999 H1001 0.930 . S
H1000 C993 0.930 . S
H1001 C999 0.930 . S
H1002 C990 0.930 . S
H1003 C991 0.931 . S
H1004 C997 0.930 . S
H1005 C1019 0.930 . S
H1006 C998 0.930 . S
H1007 C1025 0.930 . S
H1008 C1016 0.930 . S
H1009 C1023 0.931 . S
H1010 C987 0.929 . S
H1011 C1017 0.930 . S
H1012 C1050 0.930 . S
H1013 C994 0.930 . S
H1014 C1049 0.929 . S
N1015 Tb984 2.660 . S
N1015 C1016 1.305 . S
N1015 C1020 1.360 . S
C1016 H1008 0.930 . S
C1016 N1015 1.305 . S
C1016 C1019 1.407 . S
C1017 H1011 0.930 . S
C1017 C1018 1.410 . S
C1017 C1019 1.345 . S
C1018 C1017 1.410 . S
C1018 C1020 1.417 . S
C1018 C1050 1.432 . S
C1019 H1005 0.930 . S
C1019 C1016 1.407 . S
C1019 C1017 1.345 . S
C1020 N1015 1.360 . S
C1020 C1018 1.417 . S
C1020 C1024 1.432 . S
H1021 C1026 0.930 . S
N1022 Tb984 2.600 . S
N1022 C1024 1.359 . S
N1022 C1025 1.327 . S
C1023 H1009 0.931 . S
C1023 C1025 1.392 . S
C1023 C1026 1.370 . S
C1024 C1020 1.432 . S
C1024 N1022 1.359 . S
C1024 C1027 1.414 . S
C1025 H1007 0.930 . S
C1025 N1022 1.327 . S
C1025 C1023 1.392 . S
C1026 H1021 0.930 . S
C1026 C1023 1.370 . S
C1026 C1027 1.385 . S
C1027 C1024 1.414 . S
C1027 C1026 1.385 . S
C1027 C1049 1.444 . S
O1028 Tb984 2.546 . S
O1028 C1048 1.251 . S
O1029 Tb984 2.610 . S
O1029 Tb995 2.362 . S
O1029 C1040 1.283 . S
O1030 Tb995 2.421 . S
O1030 C1047 1.262 . S
O1031 Tb984 2.320 . S
O1031 C1047 1.260 . S
O1032 Tb984 2.552 . S
O1032 C1040 1.243 . S
O1033 Tb984 2.413 . S
O1033 C1048 1.256 . S
O1034 Tb995 2.546 . S
O1034 C1059 1.251 . S
O1035 Tb984 2.362 . S
O1035 Tb995 2.610 . S
O1035 C1051 1.283 . S
O1036 Tb984 2.421 . S
O1036 C1058 1.262 . S
O1037 Tb995 2.320 . S
O1037 C1058 1.260 . S
O1038 Tb995 2.552 . S
O1038 C1051 1.243 . S
O1039 Tb995 2.413 . S
O1039 C1059 1.256 . S
C1040 O1029 1.283 . S
C1040 O1032 1.243 . S
C1041 C1043 1.382 . S
C1041 C1045 1.393 . S
C1041 C1048 1.500 . S
C1042 C1043 1.400 . S
C1042 C1044 1.384 . S
C1043 C1041 1.382 . S
C1043 C1042 1.400 . S
C1043 H1060 0.930 . S
C1044 C1042 1.384 . S
C1044 C1046 1.392 . S
C1044 H1061 0.931 . S
C1045 C1041 1.393 . S
C1045 C1046 1.401 . S
C1045 H1062 0.930 . S
C1046 C1044 1.392 . S
C1046 C1045 1.401 . S
C1046 H1063 0.930 . S
C1047 O1030 1.262 . S
C1047 O1031 1.260 . S
C1048 Tb984 2.833 . S
C1048 O1028 1.251 . S
C1048 O1033 1.256 . S
C1048 C1041 1.500 . S
C1049 H1014 0.929 . S
C1049 C1027 1.444 . S
C1049 C1050 1.317 . S
C1050 H1012 0.930 . S
C1050 C1018 1.432 . S
C1050 C1049 1.317 . S
C1051 O1035 1.283 . S
C1051 O1038 1.243 . S
C1052 C1053 1.382 . S
C1052 C1056 1.393 . S
C1052 C1059 1.500 . S
C1053 C1052 1.382 . S
C1053 C1054 1.400 . S
C1053 H1064 0.930 . S
C1054 C1053 1.400 . S
C1054 C1055 1.384 . S
C1055 C1054 1.384 . S
C1055 C1057 1.392 . S
C1055 H1065 0.931 . S
C1056 C1052 1.393 . S
C1056 C1057 1.401 . S
C1056 H1066 0.930 . S
C1057 C1055 1.392 . S
C1057 C1056 1.401 . S
C1057 H1067 0.930 . S
C1058 O1036 1.262 . S
C1058 O1037 1.260 . S
C1059 Tb995 2.833 . S
C1059 O1034 1.251 . S
C1059 O1039 1.256 . S
C1059 C1052 1.500 . S
H1060 C1043 0.930 . S
H1061 C1044 0.931 . S
H1062 C1045 0.930 . S
H1063 C1046 0.930 . S
H1064 C1053 0.930 . S
H1065 C1055 0.931 . S
H1066 C1056 0.930 . S
H1067 C1057 0.930 . S
Tb1068 N1099 2.660 . S
Tb1068 N1106 2.600 . S
Tb1068 O1112 2.546 . S
Tb1068 O1113 2.610 . S
Tb1068 O1115 2.320 . S
Tb1068 O1116 2.552 . S
Tb1068 O1117 2.413 . S
Tb1068 O1119 2.362 . S
Tb1068 O1120 2.421 . S
Tb1068 C1132 2.833 . S
C1069 C1072 1.432 . S
C1069 C1073 1.414 . S
C1069 N1076 1.359 . S
C1070 C1072 1.417 . S
C1070 C1074 1.432 . S
C1070 C1082 1.410 . S
C1071 C1073 1.444 . S
C1071 C1074 1.317 . S
C1071 H1094 0.929 . S
C1072 C1069 1.432 . S
C1072 C1070 1.417 . S
C1072 N1080 1.360 . S
C1073 C1069 1.414 . S
C1073 C1071 1.444 . S
C1073 C1078 1.385 . S
C1074 C1070 1.432 . S
C1074 C1071 1.317 . S
C1074 H1086 0.930 . S
C1075 C1077 1.392 . S
C1075 C1078 1.370 . S
C1075 H1087 0.931 . S
N1076 C1069 1.359 . S
N1076 C1077 1.327 . S
N1076 Tb1079 2.600 . S
C1077 C1075 1.392 . S
C1077 N1076 1.327 . S
C1077 H1084 0.930 . S
C1078 C1073 1.385 . S
C1078 C1075 1.370 . S
C1078 H1097 0.930 . S
Tb1079 N1076 2.600 . S
Tb1079 N1080 2.660 . S
Tb1079 O1113 2.362 . S
Tb1079 O1114 2.421 . S
Tb1079 O1118 2.546 . S
Tb1079 O1119 2.610 . S
Tb1079 O1121 2.320 . S
Tb1079 O1122 2.552 . S
Tb1079 O1123 2.413 . S
Tb1079 C1143 2.833 . S
N1080 C1072 1.360 . S
N1080 Tb1079 2.660 . S
N1080 C1081 1.305 . S
C1081 N1080 1.305 . S
C1081 C1083 1.407 . S
C1081 H1088 0.930 . S
C1082 C1070 1.410 . S
C1082 C1083 1.345 . S
C1082 H1090 0.930 . S
C1083 C1081 1.407 . S
C1083 C1082 1.345 . S
C1083 H1085 0.930 . S
H1084 C1077 0.930 . S
H1085 C1083 0.930 . S
H1086 C1074 0.930 . S
H1087 C1075 0.931 . S
H1088 C1081 0.930 . S
H1089 C1103 0.930 . S
H1090 C1082 0.930 . S
H1091 C1109 0.930 . S
H1092 C1100 0.930 . S
H1093 C1107 0.931 . S
H1094 C1071 0.929 . S
H1095 C1101 0.930 . S
H1096 C1134 0.930 . S
H1097 C1078 0.930 . S
H1098 C1133 0.929 . S
N1099 Tb1068 2.660 . S
N1099 C1100 1.305 . S
N1099 C1104 1.360 . S
C1100 H1092 0.930 . S
C1100 N1099 1.305 . S
C1100 C1103 1.407 . S
C1101 H1095 0.930 . S
C1101 C1102 1.410 . S
C1101 C1103 1.345 . S
C1102 C1101 1.410 . S
C1102 C1104 1.417 . S
C1102 C1134 1.432 . S
C1103 H1089 0.930 . S
C1103 C1100 1.407 . S
C1103 C1101 1.345 . S
C1104 N1099 1.360 . S
C1104 C1102 1.417 . S
C1104 C1108 1.432 . S
H1105 C1110 0.930 . S
N1106 Tb1068 2.600 . S
N1106 C1108 1.359 . S
N1106 C1109 1.327 . S
C1107 H1093 0.931 . S
C1107 C1109 1.392 . S
C1107 C1110 1.370 . S
C1108 C1104 1.432 . S
C1108 N1106 1.359 . S
C1108 C1111 1.414 . S
C1109 H1091 0.930 . S
C1109 N1106 1.327 . S
C1109 C1107 1.392 . S
C1110 H1105 0.930 . S
C1110 C1107 1.370 . S
C1110 C1111 1.385 . S
C1111 C1108 1.414 . S
C1111 C1110 1.385 . S
C1111 C1133 1.444 . S
O1112 Tb1068 2.546 . S
O1112 C1132 1.251 . S
O1113 Tb1068 2.610 . S
O1113 Tb1079 2.362 . S
O1113 C1124 1.283 . S
O1114 Tb1079 2.421 . S
O1114 C1131 1.262 . S
O1115 Tb1068 2.320 . S
O1115 C1131 1.260 . S
O1116 Tb1068 2.552 . S
O1116 C1124 1.243 . S
O1117 Tb1068 2.413 . S
O1117 C1132 1.256 . S
O1118 Tb1079 2.546 . S
O1118 C1143 1.251 . S
O1119 Tb1068 2.362 . S
O1119 Tb1079 2.610 . S
O1119 C1135 1.283 . S
O1120 Tb1068 2.421 . S
O1120 C1142 1.262 . S
O1121 Tb1079 2.320 . S
O1121 C1142 1.260 . S
O1122 Tb1079 2.552 . S
O1122 C1135 1.243 . S
O1123 Tb1079 2.413 . S
O1123 C1143 1.256 . S
C1124 O1113 1.283 . S
C1124 O1116 1.243 . S
C1125 C1127 1.382 . S
C1125 C1129 1.393 . S
C1125 C1132 1.500 . S
C1126 C1127 1.400 . S
C1126 C1128 1.384 . S
C1127 C1125 1.382 . S
C1127 C1126 1.400 . S
C1127 H1144 0.930 . S
C1128 C1126 1.384 . S
C1128 C1130 1.392 . S
C1128 H1145 0.931 . S
C1129 C1125 1.393 . S
C1129 C1130 1.401 . S
C1129 H1146 0.930 . S
C1130 C1128 1.392 . S
C1130 C1129 1.401 . S
C1130 H1147 0.930 . S
C1131 O1114 1.262 . S
C1131 O1115 1.260 . S
C1132 Tb1068 2.833 . S
C1132 O1112 1.251 . S
C1132 O1117 1.256 . S
C1132 C1125 1.500 . S
C1133 H1098 0.929 . S
C1133 C1111 1.444 . S
C1133 C1134 1.317 . S
C1134 H1096 0.930 . S
C1134 C1102 1.432 . S
C1134 C1133 1.317 . S
C1135 O1119 1.283 . S
C1135 O1122 1.243 . S
C1136 C1137 1.382 . S
C1136 C1140 1.393 . S
C1136 C1143 1.500 . S
C1137 C1136 1.382 . S
C1137 C1138 1.400 . S
C1137 H1148 0.930 . S
C1138 C1137 1.400 . S
C1138 C1139 1.384 . S
C1139 C1138 1.384 . S
C1139 C1141 1.392 . S
C1139 H1149 0.931 . S
C1140 C1136 1.393 . S
C1140 C1141 1.401 . S
C1140 H1150 0.930 . S
C1141 C1139 1.392 . S
C1141 C1140 1.401 . S
C1141 H1151 0.930 . S
C1142 O1120 1.262 . S
C1142 O1121 1.260 . S
C1143 Tb1079 2.833 . S
C1143 O1118 1.251 . S
C1143 O1123 1.256 . S
C1143 C1136 1.500 . S
H1144 C1127 0.930 . S
H1145 C1128 0.931 . S
H1146 C1129 0.930 . S
H1147 C1130 0.930 . S
H1148 C1137 0.930 . S
H1149 C1139 0.931 . S
H1150 C1140 0.930 . S
H1151 C1141 0.930 . S
Tb1152 N1183 2.660 . S
Tb1152 N1190 2.600 . S
Tb1152 O1196 2.546 . S
Tb1152 O1197 2.610 . S
Tb1152 O1199 2.320 . S
Tb1152 O1200 2.552 . S
Tb1152 O1201 2.413 . S
Tb1152 O1203 2.362 . S
Tb1152 O1204 2.421 . S
Tb1152 C1216 2.833 . S
C1153 C1156 1.432 . S
C1153 C1157 1.414 . S
C1153 N1160 1.359 . S
C1154 C1156 1.417 . S
C1154 C1158 1.432 . S
C1154 C1166 1.410 . S
C1155 C1157 1.444 . S
C1155 C1158 1.317 . S
C1155 H1178 0.929 . S
C1156 C1153 1.432 . S
C1156 C1154 1.417 . S
C1156 N1164 1.360 . S
C1157 C1153 1.414 . S
C1157 C1155 1.444 . S
C1157 C1162 1.385 . S
C1158 C1154 1.432 . S
C1158 C1155 1.317 . S
C1158 H1170 0.930 . S
C1159 C1161 1.392 . S
C1159 C1162 1.370 . S
C1159 H1171 0.931 . S
N1160 C1153 1.359 . S
N1160 C1161 1.327 . S
N1160 Tb1163 2.600 . S
C1161 C1159 1.392 . S
C1161 N1160 1.327 . S
C1161 H1168 0.930 . S
C1162 C1157 1.385 . S
C1162 C1159 1.370 . S
C1162 H1181 0.930 . S
Tb1163 N1160 2.600 . S
Tb1163 N1164 2.660 . S
Tb1163 O1197 2.362 . S
Tb1163 O1198 2.421 . S
Tb1163 O1202 2.546 . S
Tb1163 O1203 2.610 . S
Tb1163 O1205 2.320 . S
Tb1163 O1206 2.552 . S
Tb1163 O1207 2.413 . S
Tb1163 C1227 2.833 . S
N1164 C1156 1.360 . S
N1164 Tb1163 2.660 . S
N1164 C1165 1.305 . S
C1165 N1164 1.305 . S
C1165 C1167 1.407 . S
C1165 H1172 0.930 . S
C1166 C1154 1.410 . S
C1166 C1167 1.345 . S
C1166 H1174 0.930 . S
C1167 C1165 1.407 . S
C1167 C1166 1.345 . S
C1167 H1169 0.930 . S
H1168 C1161 0.930 . S
H1169 C1167 0.930 . S
H1170 C1158 0.930 . S
H1171 C1159 0.931 . S
H1172 C1165 0.930 . S
H1173 C1187 0.930 . S
H1174 C1166 0.930 . S
H1175 C1193 0.930 . S
H1176 C1184 0.930 . S
H1177 C1191 0.931 . S
H1178 C1155 0.929 . S
H1179 C1185 0.930 . S
H1180 C1218 0.930 . S
H1181 C1162 0.930 . S
H1182 C1217 0.929 . S
N1183 Tb1152 2.660 . S
N1183 C1184 1.305 . S
N1183 C1188 1.360 . S
C1184 H1176 0.930 . S
C1184 N1183 1.305 . S
C1184 C1187 1.407 . S
C1185 H1179 0.930 . S
C1185 C1186 1.410 . S
C1185 C1187 1.345 . S
C1186 C1185 1.410 . S
C1186 C1188 1.417 . S
C1186 C1218 1.432 . S
C1187 H1173 0.930 . S
C1187 C1184 1.407 . S
C1187 C1185 1.345 . S
C1188 N1183 1.360 . S
C1188 C1186 1.417 . S
C1188 C1192 1.432 . S
H1189 C1194 0.930 . S
N1190 Tb1152 2.600 . S
N1190 C1192 1.359 . S
N1190 C1193 1.327 . S
C1191 H1177 0.931 . S
C1191 C1193 1.392 . S
C1191 C1194 1.370 . S
C1192 C1188 1.432 . S
C1192 N1190 1.359 . S
C1192 C1195 1.414 . S
C1193 H1175 0.930 . S
C1193 N1190 1.327 . S
C1193 C1191 1.392 . S
C1194 H1189 0.930 . S
C1194 C1191 1.370 . S
C1194 C1195 1.385 . S
C1195 C1192 1.414 . S
C1195 C1194 1.385 . S
C1195 C1217 1.444 . S
O1196 Tb1152 2.546 . S
O1196 C1216 1.251 . S
O1197 Tb1152 2.610 . S
O1197 Tb1163 2.362 . S
O1197 C1208 1.283 . S
O1198 Tb1163 2.421 . S
O1198 C1215 1.262 . S
O1199 Tb1152 2.320 . S
O1199 C1215 1.260 . S
O1200 Tb1152 2.552 . S
O1200 C1208 1.243 . S
O1201 Tb1152 2.413 . S
O1201 C1216 1.256 . S
O1202 Tb1163 2.546 . S
O1202 C1227 1.251 . S
O1203 Tb1152 2.362 . S
O1203 Tb1163 2.610 . S
O1203 C1219 1.283 . S
O1204 Tb1152 2.421 . S
O1204 C1226 1.262 . S
O1205 Tb1163 2.320 . S
O1205 C1226 1.260 . S
O1206 Tb1163 2.552 . S
O1206 C1219 1.243 . S
O1207 Tb1163 2.413 . S
O1207 C1227 1.256 . S
C1208 O1197 1.283 . S
C1208 O1200 1.243 . S
C1209 C1211 1.382 . S
C1209 C1213 1.393 . S
C1209 C1216 1.500 . S
C1210 C1211 1.400 . S
C1210 C1212 1.384 . S
C1211 C1209 1.382 . S
C1211 C1210 1.400 . S
C1211 H1228 0.930 . S
C1212 C1210 1.384 . S
C1212 C1214 1.392 . S
C1212 H1229 0.931 . S
C1213 C1209 1.393 . S
C1213 C1214 1.401 . S
C1213 H1230 0.930 . S
C1214 C1212 1.392 . S
C1214 C1213 1.401 . S
C1214 H1231 0.930 . S
C1215 O1198 1.262 . S
C1215 O1199 1.260 . S
C1216 Tb1152 2.833 . S
C1216 O1196 1.251 . S
C1216 O1201 1.256 . S
C1216 C1209 1.500 . S
C1217 H1182 0.929 . S
C1217 C1195 1.444 . S
C1217 C1218 1.317 . S
C1218 H1180 0.930 . S
C1218 C1186 1.432 . S
C1218 C1217 1.317 . S
C1219 O1203 1.283 . S
C1219 O1206 1.243 . S
C1220 C1221 1.382 . S
C1220 C1224 1.393 . S
C1220 C1227 1.500 . S
C1221 C1220 1.382 . S
C1221 C1222 1.400 . S
C1221 H1232 0.930 . S
C1222 C1221 1.400 . S
C1222 C1223 1.384 . S
C1223 C1222 1.384 . S
C1223 C1225 1.392 . S
C1223 H1233 0.931 . S
C1224 C1220 1.393 . S
C1224 C1225 1.401 . S
C1224 H1234 0.930 . S
C1225 C1223 1.392 . S
C1225 C1224 1.401 . S
C1225 H1235 0.930 . S
C1226 O1204 1.262 . S
C1226 O1205 1.260 . S
C1227 Tb1163 2.833 . S
C1227 O1202 1.251 . S
C1227 O1207 1.256 . S
C1227 C1220 1.500 . S
H1228 C1211 0.930 . S
H1229 C1212 0.931 . S
H1230 C1213 0.930 . S
H1231 C1214 0.930 . S
H1232 C1221 0.930 . S
H1233 C1223 0.931 . S
H1234 C1224 0.930 . S
H1235 C1225 0.930 . S
Tb1236 N1267 2.660 . S
Tb1236 N1274 2.600 . S
Tb1236 O1280 2.546 . S
Tb1236 O1281 2.610 . S
Tb1236 O1283 2.320 . S
Tb1236 O1284 2.552 . S
Tb1236 O1285 2.413 . S
Tb1236 O1287 2.362 . S
Tb1236 O1288 2.421 . S
Tb1236 C1300 2.833 . S
C1237 C1240 1.432 . S
C1237 C1241 1.414 . S
C1237 N1244 1.359 . S
C1238 C1240 1.417 . S
C1238 C1242 1.432 . S
C1238 C1250 1.410 . S
C1239 C1241 1.444 . S
C1239 C1242 1.317 . S
C1239 H1262 0.929 . S
C1240 C1237 1.432 . S
C1240 C1238 1.417 . S
C1240 N1248 1.360 . S
C1241 C1237 1.414 . S
C1241 C1239 1.444 . S
C1241 C1246 1.385 . S
C1242 C1238 1.432 . S
C1242 C1239 1.317 . S
C1242 H1254 0.930 . S
C1243 C1245 1.392 . S
C1243 C1246 1.370 . S
C1243 H1255 0.931 . S
N1244 C1237 1.359 . S
N1244 C1245 1.327 . S
N1244 Tb1247 2.600 . S
C1245 C1243 1.392 . S
C1245 N1244 1.327 . S
C1245 H1252 0.930 . S
C1246 C1241 1.385 . S
C1246 C1243 1.370 . S
C1246 H1265 0.930 . S
Tb1247 N1244 2.600 . S
Tb1247 N1248 2.660 . S
Tb1247 O1281 2.362 . S
Tb1247 O1282 2.421 . S
Tb1247 O1286 2.546 . S
Tb1247 O1287 2.610 . S
Tb1247 O1289 2.320 . S
Tb1247 O1290 2.552 . S
Tb1247 O1291 2.413 . S
Tb1247 C1311 2.833 . S
N1248 C1240 1.360 . S
N1248 Tb1247 2.660 . S
N1248 C1249 1.305 . S
C1249 N1248 1.305 . S
C1249 C1251 1.407 . S
C1249 H1256 0.930 . S
C1250 C1238 1.410 . S
C1250 C1251 1.345 . S
C1250 H1258 0.930 . S
C1251 C1249 1.407 . S
C1251 C1250 1.345 . S
C1251 H1253 0.930 . S
H1252 C1245 0.930 . S
H1253 C1251 0.930 . S
H1254 C1242 0.930 . S
H1255 C1243 0.931 . S
H1256 C1249 0.930 . S
H1257 C1271 0.930 . S
H1258 C1250 0.930 . S
H1259 C1277 0.930 . S
H1260 C1268 0.930 . S
H1261 C1275 0.931 . S
H1262 C1239 0.929 . S
H1263 C1269 0.930 . S
H1264 C1302 0.930 . S
H1265 C1246 0.930 . S
H1266 C1301 0.929 . S
N1267 Tb1236 2.660 . S
N1267 C1268 1.305 . S
N1267 C1272 1.360 . S
C1268 H1260 0.930 . S
C1268 N1267 1.305 . S
C1268 C1271 1.407 . S
C1269 H1263 0.930 . S
C1269 C1270 1.410 . S
C1269 C1271 1.345 . S
C1270 C1269 1.410 . S
C1270 C1272 1.417 . S
C1270 C1302 1.432 . S
C1271 H1257 0.930 . S
C1271 C1268 1.407 . S
C1271 C1269 1.345 . S
C1272 N1267 1.360 . S
C1272 C1270 1.417 . S
C1272 C1276 1.432 . S
H1273 C1278 0.930 . S
N1274 Tb1236 2.600 . S
N1274 C1276 1.359 . S
N1274 C1277 1.327 . S
C1275 H1261 0.931 . S
C1275 C1277 1.392 . S
C1275 C1278 1.370 . S
C1276 C1272 1.432 . S
C1276 N1274 1.359 . S
C1276 C1279 1.414 . S
C1277 H1259 0.930 . S
C1277 N1274 1.327 . S
C1277 C1275 1.392 . S
C1278 H1273 0.930 . S
C1278 C1275 1.370 . S
C1278 C1279 1.385 . S
C1279 C1276 1.414 . S
C1279 C1278 1.385 . S
C1279 C1301 1.444 . S
O1280 Tb1236 2.546 . S
O1280 C1300 1.251 . S
O1281 Tb1236 2.610 . S
O1281 Tb1247 2.362 . S
O1281 C1292 1.283 . S
O1282 Tb1247 2.421 . S
O1282 C1299 1.262 . S
O1283 Tb1236 2.320 . S
O1283 C1299 1.260 . S
O1284 Tb1236 2.552 . S
O1284 C1292 1.243 . S
O1285 Tb1236 2.413 . S
O1285 C1300 1.256 . S
O1286 Tb1247 2.546 . S
O1286 C1311 1.251 . S
O1287 Tb1236 2.362 . S
O1287 Tb1247 2.610 . S
O1287 C1303 1.283 . S
O1288 Tb1236 2.421 . S
O1288 C1310 1.262 . S
O1289 Tb1247 2.320 . S
O1289 C1310 1.260 . S
O1290 Tb1247 2.552 . S
O1290 C1303 1.243 . S
O1291 Tb1247 2.413 . S
O1291 C1311 1.256 . S
C1292 O1281 1.283 . S
C1292 O1284 1.243 . S
C1293 C1295 1.382 . S
C1293 C1297 1.393 . S
C1293 C1300 1.500 . S
C1294 C1295 1.400 . S
C1294 C1296 1.384 . S
C1295 C1293 1.382 . S
C1295 C1294 1.400 . S
C1295 H1312 0.930 . S
C1296 C1294 1.384 . S
C1296 C1298 1.392 . S
C1296 H1313 0.931 . S
C1297 C1293 1.393 . S
C1297 C1298 1.401 . S
C1297 H1314 0.930 . S
C1298 C1296 1.392 . S
C1298 C1297 1.401 . S
C1298 H1315 0.930 . S
C1299 O1282 1.262 . S
C1299 O1283 1.260 . S
C1300 Tb1236 2.833 . S
C1300 O1280 1.251 . S
C1300 O1285 1.256 . S
C1300 C1293 1.500 . S
C1301 H1266 0.929 . S
C1301 C1279 1.444 . S
C1301 C1302 1.317 . S
C1302 H1264 0.930 . S
C1302 C1270 1.432 . S
C1302 C1301 1.317 . S
C1303 O1287 1.283 . S
C1303 O1290 1.243 . S
C1304 C1305 1.382 . S
C1304 C1308 1.393 . S
C1304 C1311 1.500 . S
C1305 C1304 1.382 . S
C1305 C1306 1.400 . S
C1305 H1316 0.930 . S
C1306 C1305 1.400 . S
C1306 C1307 1.384 . S
C1307 C1306 1.384 . S
C1307 C1309 1.392 . S
C1307 H1317 0.931 . S
C1308 C1304 1.393 . S
C1308 C1309 1.401 . S
C1308 H1318 0.930 . S
C1309 C1307 1.392 . S
C1309 C1308 1.401 . S
C1309 H1319 0.930 . S
C1310 O1288 1.262 . S
C1310 O1289 1.260 . S
C1311 Tb1247 2.833 . S
C1311 O1286 1.251 . S
C1311 O1291 1.256 . S
C1311 C1304 1.500 . S
H1312 C1295 0.930 . S
H1313 C1296 0.931 . S
H1314 C1297 0.930 . S
H1315 C1298 0.930 . S
H1316 C1305 0.930 . S
H1317 C1307 0.931 . S
H1318 C1308 0.930 . S
H1319 C1309 0.930 . S
Tb1320 N1351 2.660 . S
Tb1320 N1358 2.600 . S
Tb1320 O1364 2.546 . S
Tb1320 O1365 2.610 . S
Tb1320 O1367 2.320 . S
Tb1320 O1368 2.552 . S
Tb1320 O1369 2.413 . S
Tb1320 O1371 2.362 . S
Tb1320 O1372 2.421 . S
Tb1320 C1384 2.833 . S
C1321 C1324 1.432 . S
C1321 C1325 1.414 . S
C1321 N1328 1.359 . S
C1322 C1324 1.417 . S
C1322 C1326 1.432 . S
C1322 C1334 1.410 . S
C1323 C1325 1.444 . S
C1323 C1326 1.317 . S
C1323 H1346 0.929 . S
C1324 C1321 1.432 . S
C1324 C1322 1.417 . S
C1324 N1332 1.360 . S
C1325 C1321 1.414 . S
C1325 C1323 1.444 . S
C1325 C1330 1.385 . S
C1326 C1322 1.432 . S
C1326 C1323 1.317 . S
C1326 H1338 0.930 . S
C1327 C1329 1.392 . S
C1327 C1330 1.370 . S
C1327 H1339 0.931 . S
N1328 C1321 1.359 . S
N1328 C1329 1.327 . S
N1328 Tb1331 2.600 . S
C1329 C1327 1.392 . S
C1329 N1328 1.327 . S
C1329 H1336 0.930 . S
C1330 C1325 1.385 . S
C1330 C1327 1.370 . S
C1330 H1349 0.930 . S
Tb1331 N1328 2.600 . S
Tb1331 N1332 2.660 . S
Tb1331 O1365 2.362 . S
Tb1331 O1366 2.421 . S
Tb1331 O1370 2.546 . S
Tb1331 O1371 2.610 . S
Tb1331 O1373 2.320 . S
Tb1331 O1374 2.552 . S
Tb1331 O1375 2.413 . S
Tb1331 C1395 2.833 . S
N1332 C1324 1.360 . S
N1332 Tb1331 2.660 . S
N1332 C1333 1.305 . S
C1333 N1332 1.305 . S
C1333 C1335 1.407 . S
C1333 H1340 0.930 . S
C1334 C1322 1.410 . S
C1334 C1335 1.345 . S
C1334 H1342 0.930 . S
C1335 C1333 1.407 . S
C1335 C1334 1.345 . S
C1335 H1337 0.930 . S
H1336 C1329 0.930 . S
H1337 C1335 0.930 . S
H1338 C1326 0.930 . S
H1339 C1327 0.931 . S
H1340 C1333 0.930 . S
H1341 C1355 0.930 . S
H1342 C1334 0.930 . S
H1343 C1361 0.930 . S
H1344 C1352 0.930 . S
H1345 C1359 0.931 . S
H1346 C1323 0.929 . S
H1347 C1353 0.930 . S
H1348 C1386 0.930 . S
H1349 C1330 0.930 . S
H1350 C1385 0.929 . S
N1351 Tb1320 2.660 . S
N1351 C1352 1.305 . S
N1351 C1356 1.360 . S
C1352 H1344 0.930 . S
C1352 N1351 1.305 . S
C1352 C1355 1.407 . S
C1353 H1347 0.930 . S
C1353 C1354 1.410 . S
C1353 C1355 1.345 . S
C1354 C1353 1.410 . S
C1354 C1356 1.417 . S
C1354 C1386 1.432 . S
C1355 H1341 0.930 . S
C1355 C1352 1.407 . S
C1355 C1353 1.345 . S
C1356 N1351 1.360 . S
C1356 C1354 1.417 . S
C1356 C1360 1.432 . S
H1357 C1362 0.930 . S
N1358 Tb1320 2.600 . S
N1358 C1360 1.359 . S
N1358 C1361 1.327 . S
C1359 H1345 0.931 . S
C1359 C1361 1.392 . S
C1359 C1362 1.370 . S
C1360 C1356 1.432 . S
C1360 N1358 1.359 . S
C1360 C1363 1.414 . S
C1361 H1343 0.930 . S
C1361 N1358 1.327 . S
C1361 C1359 1.392 . S
C1362 H1357 0.930 . S
C1362 C1359 1.370 . S
C1362 C1363 1.385 . S
C1363 C1360 1.414 . S
C1363 C1362 1.385 . S
C1363 C1385 1.444 . S
O1364 Tb1320 2.546 . S
O1364 C1384 1.251 . S
O1365 Tb1320 2.610 . S
O1365 Tb1331 2.362 . S
O1365 C1376 1.283 . S
O1366 Tb1331 2.421 . S
O1366 C1383 1.262 . S
O1367 Tb1320 2.320 . S
O1367 C1383 1.260 . S
O1368 Tb1320 2.552 . S
O1368 C1376 1.243 . S
O1369 Tb1320 2.413 . S
O1369 C1384 1.256 . S
O1370 Tb1331 2.546 . S
O1370 C1395 1.251 . S
O1371 Tb1320 2.362 . S
O1371 Tb1331 2.610 . S
O1371 C1387 1.283 . S
O1372 Tb1320 2.421 . S
O1372 C1394 1.262 . S
O1373 Tb1331 2.320 . S
O1373 C1394 1.260 . S
O1374 Tb1331 2.552 . S
O1374 C1387 1.243 . S
O1375 Tb1331 2.413 . S
O1375 C1395 1.256 . S
C1376 O1365 1.283 . S
C1376 O1368 1.243 . S
C1377 C1379 1.382 . S
C1377 C1381 1.393 . S
C1377 C1384 1.500 . S
C1378 C1379 1.400 . S
C1378 C1380 1.384 . S
C1379 C1377 1.382 . S
C1379 C1378 1.400 . S
C1379 H1396 0.930 . S
C1380 C1378 1.384 . S
C1380 C1382 1.392 . S
C1380 H1397 0.931 . S
C1381 C1377 1.393 . S
C1381 C1382 1.401 . S
C1381 H1398 0.930 . S
C1382 C1380 1.392 . S
C1382 C1381 1.401 . S
C1382 H1399 0.930 . S
C1383 O1366 1.262 . S
C1383 O1367 1.260 . S
C1384 Tb1320 2.833 . S
C1384 O1364 1.251 . S
C1384 O1369 1.256 . S
C1384 C1377 1.500 . S
C1385 H1350 0.929 . S
C1385 C1363 1.444 . S
C1385 C1386 1.317 . S
C1386 H1348 0.930 . S
C1386 C1354 1.432 . S
C1386 C1385 1.317 . S
C1387 O1371 1.283 . S
C1387 O1374 1.243 . S
C1388 C1389 1.382 . S
C1388 C1392 1.393 . S
C1388 C1395 1.500 . S
C1389 C1388 1.382 . S
C1389 C1390 1.400 . S
C1389 H1400 0.930 . S
C1390 C1389 1.400 . S
C1390 C1391 1.384 . S
C1391 C1390 1.384 . S
C1391 C1393 1.392 . S
C1391 H1401 0.931 . S
C1392 C1388 1.393 . S
C1392 C1393 1.401 . S
C1392 H1402 0.930 . S
C1393 C1391 1.392 . S
C1393 C1392 1.401 . S
C1393 H1403 0.930 . S
C1394 O1372 1.262 . S
C1394 O1373 1.260 . S
C1395 Tb1331 2.833 . S
C1395 O1370 1.251 . S
C1395 O1375 1.256 . S
C1395 C1388 1.500 . S
H1396 C1379 0.930 . S
H1397 C1380 0.931 . S
H1398 C1381 0.930 . S
H1399 C1382 0.930 . S
H1400 C1389 0.930 . S
H1401 C1391 0.931 . S
H1402 C1392 0.930 . S
H1403 C1393 0.930 . S
C1404 C1405 1.387 . S
C1404 H1408 0.950 . S
C1404 C1413 1.390 . S
C1405 C1404 1.387 . S
C1405 C1407 1.387 . S
H1406 C1413 0.950 . S
C1407 C1405 1.387 . S
C1407 C1409 1.390 . S
C1407 H1411 0.950 . S
H1408 C1404 0.950 . S
C1409 C1407 1.390 . S
C1409 C1410 1.387 . S
C1409 H1412 0.950 1_554 S
C1410 C1409 1.387 . S
C1410 C1413 1.387 . S
H1411 C1407 0.950 . S
H1412 C1409 0.950 1_556 S
C1413 C1404 1.390 . S
C1413 H1406 0.950 . S
C1413 C1410 1.387 . S
C1414 C1415 1.387 . S
C1414 H1418 0.950 . S
C1414 C1423 1.390 . S
C1415 C1414 1.387 . S
C1415 C1417 1.387 . S
H1416 C1423 0.950 . S
C1417 C1415 1.387 . S
C1417 C1419 1.390 . S
C1417 H1421 0.950 . S
H1418 C1414 0.950 . S
C1419 C1417 1.390 . S
C1419 C1420 1.387 . S
C1419 H1422 1.005 . S
C1420 C1419 1.387 . S
C1420 C1423 1.387 . S
H1421 C1417 0.950 . S
H1422 C1419 1.005 . S
C1423 C1414 1.390 . S
C1423 H1416 0.950 . S
C1423 C1420 1.387 . S
C1424 C1425 1.387 . S
C1424 H1428 0.950 . S
C1424 C1433 1.390 . S
C1425 C1424 1.387 . S
C1425 C1427 1.387 . S
H1426 C1433 0.950 . S
C1427 C1425 1.387 . S
C1427 C1429 1.390 . S
C1427 H1431 0.950 . S
H1428 C1424 0.950 . S
C1429 C1427 1.390 . S
C1429 C1430 1.387 . S
C1429 H1432 0.950 . S
C1430 C1429 1.387 . S
C1430 C1433 1.387 . S
H1431 C1427 0.950 . S
H1432 C1429 0.950 . S
C1433 C1424 1.390 . S
C1433 H1426 0.950 . S
C1433 C1430 1.387 . S
C1434 C1435 1.387 . S
C1434 H1438 0.950 . S
C1434 C1443 1.390 . S
C1435 C1434 1.387 . S
C1435 C1437 1.387 . S
H1436 C1443 0.950 . S
C1437 C1435 1.387 . S
C1437 C1439 1.390 . S
C1437 H1441 0.950 . S
H1438 C1434 0.950 . S
C1439 C1437 1.390 . S
C1439 C1440 1.387 . S
C1439 H1442 0.950 . S
C1440 C1439 1.387 . S
C1440 C1443 1.387 . S
H1441 C1437 0.950 . S
H1442 C1439 0.950 . S
C1443 C1434 1.390 . S
C1443 H1436 0.950 . S
C1443 C1440 1.387 . S
C1444 C1445 1.387 . S
C1444 H1448 0.950 . S
C1444 C1453 1.390 . S
C1445 C1444 1.387 . S
C1445 C1447 1.387 . S
H1446 C1453 0.950 . S
C1447 C1445 1.387 . S
C1447 C1449 1.390 . S
C1447 H1451 0.950 . S
H1448 C1444 0.950 . S
C1449 C1447 1.390 . S
C1449 C1450 1.387 . S
C1449 H1452 0.950 . S
C1450 C1449 1.387 . S
C1450 C1453 1.387 . S
H1451 C1447 0.950 . S
H1452 C1449 0.950 . S
C1453 C1444 1.390 . S
C1453 H1446 0.950 . S
C1453 C1450 1.387 . S
C1454 C1455 1.387 . S
C1454 H1458 0.950 . S
C1454 C1463 1.390 . S
C1455 C1454 1.387 . S
C1455 C1457 1.387 . S
H1456 C1463 0.950 1_554 S
C1457 C1455 1.387 . S
C1457 C1459 1.390 . S
C1457 H1461 0.950 . S
H1458 C1454 0.950 . S
C1459 C1457 1.390 . S
C1459 C1460 1.387 . S
C1459 H1462 0.950 . S
C1460 C1459 1.387 . S
C1460 C1463 1.387 . S
H1461 C1457 0.950 . S
H1462 C1459 0.950 . S
C1463 C1454 1.390 . S
C1463 H1456 0.950 1_556 S
C1463 C1460 1.387 . S
C1464 C1465 1.387 . S
C1464 H1468 0.950 . S
C1464 C1473 1.390 . S
C1465 C1464 1.387 . S
C1465 C1467 1.387 . S
H1466 C1473 0.950 . S
C1467 C1465 1.387 . S
C1467 C1469 1.390 . S
C1467 H1471 0.950 . S
H1468 C1464 0.950 . S
C1469 C1467 1.390 . S
C1469 C1470 1.387 . S
C1469 H1472 0.950 1_556 S
C1470 C1469 1.387 . S
C1470 C1473 1.387 . S
H1471 C1467 0.950 . S
H1472 C1469 0.950 1_554 S
C1473 C1464 1.390 . S
C1473 H1466 0.950 . S
C1473 C1470 1.387 . S
C1474 C1475 1.387 . S
C1474 H1478 0.950 . S
C1474 C1483 1.390 . S
C1475 C1474 1.387 . S
C1475 C1477 1.387 . S
H1476 C1483 0.950 . S
C1477 C1475 1.387 . S
C1477 C1479 1.390 . S
C1477 H1481 0.950 . S
H1478 C1474 0.950 . S
C1479 C1477 1.390 . S
C1479 C1480 1.387 . S
C1479 H1482 0.950 1_556 S
C1480 C1479 1.387 . S
C1480 C1483 1.387 . S
H1481 C1477 0.950 . S
H1482 C1479 0.950 1_554 S
C1483 C1474 1.390 . S
C1483 H1476 0.950 . S
C1483 C1480 1.387 . S
C1484 C1485 1.387 . S
C1484 H1488 0.950 . S
C1484 C1493 1.390 . S
C1485 C1484 1.387 . S
C1485 C1487 1.387 . S
H1486 C1493 0.950 . S
C1487 C1485 1.387 . S
C1487 C1489 1.390 . S
C1487 H1491 0.950 . S
H1488 C1484 0.950 . S
C1489 C1487 1.390 . S
C1489 C1490 1.387 . S
C1489 H1492 0.950 1_556 S
C1490 C1489 1.387 . S
C1490 C1493 1.387 . S
H1491 C1487 0.950 . S
H1492 C1489 0.950 1_554 S
C1493 C1484 1.390 . S
C1493 H1486 0.950 . S
C1493 C1490 1.387 . S
C1494 C1495 1.387 . S
C1494 H1498 0.950 . S
C1494 C1503 1.390 . S
C1495 C1494 1.387 . S
C1495 C1497 1.387 . S
H1496 C1503 0.953 1_556 S
C1497 C1495 1.387 . S
C1497 C1499 1.390 . S
C1497 H1501 0.950 . S
H1498 C1494 0.950 . S
C1499 C1497 1.390 . S
C1499 C1500 1.387 . S
C1499 H1502 0.950 . S
C1500 C1499 1.387 . S
C1500 C1503 1.387 . S
H1501 C1497 0.950 . S
H1502 C1499 0.950 . S
C1503 C1494 1.390 . S
C1503 H1496 0.953 1_554 S
C1503 C1500 1.387 . S
C1504 C1505 1.387 . S
C1504 H1508 0.950 . S
C1504 C1513 1.390 . S
C1505 C1504 1.387 . S
C1505 C1507 1.387 . S
H1506 C1513 0.950 . S
C1507 C1505 1.387 . S
C1507 C1509 1.390 . S
C1507 H1511 0.950 . S
H1508 C1504 0.950 . S
C1509 C1507 1.390 . S
C1509 C1510 1.387 . S
C1509 H1512 0.950 1_554 S
C1510 C1509 1.387 . S
C1510 C1513 1.387 . S
H1511 C1507 0.950 . S
H1512 C1509 0.950 1_556 S
C1513 C1504 1.390 . S
C1513 H1506 0.950 . S
C1513 C1510 1.387 . S
C1514 C1515 1.387 . S
C1514 H1518 0.950 . S
C1514 C1523 1.390 . S
C1515 C1514 1.387 . S
C1515 C1517 1.387 . S
H1516 C1523 0.950 . S
C1517 C1515 1.387 . S
C1517 C1519 1.390 . S
C1517 H1521 0.950 . S
H1518 C1514 0.950 . S
C1519 C1517 1.390 . S
C1519 C1520 1.387 . S
C1519 H1522 0.950 1_554 S
C1520 C1519 1.387 . S
C1520 C1523 1.387 . S
H1521 C1517 0.950 . S
H1522 C1519 0.950 1_556 S
C1523 C1514 1.390 . S
C1523 H1516 0.950 . S
C1523 C1520 1.387 . S
C1524 C1525 1.387 . S
C1524 H1528 0.950 . S
C1524 C1533 1.390 . S
C1525 C1524 1.387 . S
C1525 C1527 1.387 . S
H1526 C1533 0.950 . S
C1527 C1525 1.387 . S
C1527 C1529 1.390 . S
C1527 H1531 0.950 . S
H1528 C1524 0.950 . S
C1529 C1527 1.390 . S
C1529 C1530 1.387 . S
C1529 H1532 0.950 . S
C1530 C1529 1.387 . S
C1530 C1533 1.387 . S
H1531 C1527 0.950 . S
H1532 C1529 0.950 . S
C1533 C1524 1.390 . S
C1533 H1526 0.950 . S
C1533 C1530 1.387 . S
C1534 C1535 1.387 . S
C1534 H1538 0.950 . S
C1534 C1543 1.390 . S
C1535 C1534 1.387 . S
C1535 C1537 1.387 . S
H1536 C1543 0.950 . S
C1537 C1535 1.387 . S
C1537 C1539 1.390 . S
C1537 H1541 0.950 . S
H1538 C1534 0.950 . S
C1539 C1537 1.390 . S
C1539 C1540 1.387 . S
C1539 H1542 0.950 . S
C1540 C1539 1.387 . S
C1540 C1543 1.387 . S
H1541 C1537 0.950 . S
H1542 C1539 0.950 . S
C1543 C1534 1.390 . S
C1543 H1536 0.950 . S
C1543 C1540 1.387 . S
C1544 C1545 1.387 . S
C1544 H1548 0.950 . S
C1544 C1553 1.390 . S
C1545 C1544 1.387 . S
C1545 C1547 1.387 . S
H1546 C1553 0.950 . S
C1547 C1545 1.387 . S
C1547 C1549 1.390 . S
C1547 H1551 0.950 . S
H1548 C1544 0.950 . S
C1549 C1547 1.390 . S
C1549 C1550 1.387 . S
C1549 H1552 0.950 . S
C1550 C1549 1.387 . S
C1550 C1553 1.387 . S
H1551 C1547 0.950 . S
H1552 C1549 0.950 . S
C1553 C1544 1.390 . S
C1553 H1546 0.950 . S
C1553 C1550 1.387 . S
C1554 C1555 1.387 . S
C1554 H1558 0.950 . S
C1554 C1563 1.390 . S
C1555 C1554 1.387 . S
C1555 C1557 1.387 . S
H1556 C1563 0.950 . S
C1557 C1555 1.387 . S
C1557 C1559 1.390 . S
C1557 H1561 0.950 . S
H1558 C1554 0.950 . S
C1559 C1557 1.390 . S
C1559 C1560 1.387 . S
C1559 H1562 0.950 . S
C1560 C1559 1.387 . S
C1560 C1563 1.387 . S
H1561 C1557 0.950 . S
H1562 C1559 0.950 . S
C1563 C1554 1.390 . S
C1563 H1556 0.950 . S
C1563 C1560 1.387 . S
C1564 C1565 1.387 . S
C1564 H1568 0.950 . S
C1564 C1573 1.390 . S
C1565 C1564 1.387 . S
C1565 C1567 1.387 . S
H1566 C1573 0.950 . S
C1567 C1565 1.387 . S
C1567 C1569 1.390 . S
C1567 H1571 0.950 . S
H1568 C1564 0.950 . S
C1569 C1567 1.390 . S
C1569 C1570 1.387 . S
C1569 H1572 0.950 . S
C1570 C1569 1.387 . S
C1570 C1573 1.387 . S
H1571 C1567 0.950 . S
H1572 C1569 0.950 . S
C1573 C1564 1.390 . S
C1573 H1566 0.950 . S
C1573 C1570 1.387 . S
C1574 C1575 1.387 . S
C1574 H1578 0.950 . S
C1574 C1583 1.390 . S
C1575 C1574 1.387 . S
C1575 C1577 1.387 . S
H1576 C1583 0.950 . S
C1577 C1575 1.387 . S
C1577 C1579 1.390 . S
C1577 H1581 0.950 . S
H1578 C1574 0.950 . S
C1579 C1577 1.390 . S
C1579 C1580 1.387 . S
C1579 H1582 0.950 . S
C1580 C1579 1.387 . S
C1580 C1583 1.387 . S
H1581 C1577 0.950 . S
H1582 C1579 0.950 . S
C1583 C1574 1.390 . S
C1583 H1576 0.950 . S
C1583 C1580 1.387 . S
C1584 C1585 1.387 . S
C1584 H1588 0.950 . S
C1584 C1593 1.390 . S
C1585 C1584 1.387 . S
C1585 C1587 1.387 . S
H1586 C1593 0.950 . S
C1587 C1585 1.387 . S
C1587 C1589 1.390 . S
C1587 H1591 0.950 . S
H1588 C1584 0.950 . S
C1589 C1587 1.390 . S
C1589 C1590 1.387 . S
C1589 H1592 0.950 . S
C1590 C1589 1.387 . S
C1590 C1593 1.387 . S
H1591 C1587 0.950 . S
H1592 C1589 0.950 . S
C1593 C1584 1.390 . S
C1593 H1586 0.950 . S
C1593 C1590 1.387 . S
C1594 C1595 1.387 . S
C1594 H1598 0.950 . S
C1594 C1603 1.390 . S
C1595 C1594 1.387 . S
C1595 C1597 1.387 . S
H1596 C1603 0.950 . S
C1597 C1595 1.387 . S
C1597 C1599 1.390 . S
C1597 H1601 0.950 . S
H1598 C1594 0.950 . S
C1599 C1597 1.390 . S
C1599 C1600 1.387 . S
C1599 H1602 0.950 . S
C1600 C1599 1.387 . S
C1600 C1603 1.387 . S
H1601 C1597 0.950 . S
H1602 C1599 0.950 . S
C1603 C1594 1.390 . S
C1603 H1596 0.950 . S
C1603 C1600 1.387 . S
C1604 C1605 1.387 . S
C1604 H1608 0.950 . S
C1604 C1613 1.390 . S
C1605 C1604 1.387 . S
C1605 C1607 1.387 . S
H1606 C1613 0.950 . S
C1607 C1605 1.387 . S
C1607 C1609 1.390 . S
C1607 H1611 0.950 . S
H1608 C1604 0.950 . S
C1609 C1607 1.390 . S
C1609 C1610 1.387 . S
C1609 H1612 0.950 . S
C1610 C1609 1.387 . S
C1610 C1613 1.387 . S
H1611 C1607 0.950 . S
H1612 C1609 0.950 . S
C1613 C1604 1.390 . S
C1613 H1606 0.950 . S
C1613 C1610 1.387 . S
C1614 C1615 1.387 . S
C1614 H1618 0.950 . S
C1614 C1623 1.390 . S
C1615 C1614 1.387 . S
C1615 C1617 1.387 . S
H1616 C1623 0.950 . S
C1617 C1615 1.387 . S
C1617 C1619 1.390 . S
C1617 H1621 0.950 . S
H1618 C1614 0.950 . S
C1619 C1617 1.390 . S
C1619 C1620 1.387 . S
C1619 H1622 0.950 . S
C1620 C1619 1.387 . S
C1620 C1623 1.387 . S
H1621 C1617 0.950 . S
H1622 C1619 0.950 . S
C1623 C1614 1.390 . S
C1623 H1616 0.950 . S
C1623 C1620 1.387 . S
C1624 C1625 1.387 . S
C1624 H1628 0.950 . S
C1624 C1633 1.390 . S
C1625 C1624 1.387 . S
C1625 C1627 1.387 . S
H1626 C1633 0.950 . S
C1627 C1625 1.387 . S
C1627 C1629 1.390 . S
C1627 H1631 0.950 . S
H1628 C1624 0.950 . S
C1629 C1627 1.390 . S
C1629 C1630 1.387 . S
C1629 H1632 0.950 . S
C1630 C1629 1.387 . S
C1630 C1633 1.387 . S
H1631 C1627 0.950 . S
H1632 C1629 0.950 . S
C1633 C1624 1.390 . S
C1633 H1626 0.950 . S
C1633 C1630 1.387 . S
C1634 C1635 1.387 . S
C1634 H1638 0.950 . S
C1634 C1643 1.390 . S
C1635 C1634 1.387 . S
C1635 C1637 1.387 . S
H1636 C1643 0.950 . S
C1637 C1635 1.387 . S
C1637 C1639 1.390 . S
C1637 H1641 0.950 . S
H1638 C1634 0.950 . S
C1639 C1637 1.390 . S
C1639 C1640 1.387 . S
C1639 H1642 0.950 . S
C1640 C1639 1.387 . S
C1640 C1643 1.387 . S
H1641 C1637 0.950 . S
H1642 C1639 0.950 . S
C1643 C1634 1.390 . S
C1643 H1636 0.950 . S
C1643 C1640 1.387 . S
C1644 C1645 1.387 . S
C1644 H1648 0.950 . S
C1644 C1653 1.390 . S
C1645 C1644 1.387 . S
C1645 C1647 1.387 . S
H1646 C1653 0.950 . S
C1647 C1645 1.387 . S
C1647 C1649 1.390 . S
C1647 H1651 0.950 . S
H1648 C1644 0.950 . S
C1649 C1647 1.390 . S
C1649 C1650 1.387 . S
C1649 H1652 0.950 . S
C1650 C1649 1.387 . S
C1650 C1653 1.387 . S
H1651 C1647 0.950 . S
H1652 C1649 0.950 . S
C1653 C1644 1.390 . S
C1653 H1646 0.950 . S
C1653 C1650 1.387 . S
C1654 C1655 1.387 . S
C1654 H1658 0.950 . S
C1654 C1663 1.390 . S
C1655 C1654 1.387 . S
C1655 C1657 1.387 . S
H1656 C1663 0.950 . S
C1657 C1655 1.387 . S
C1657 C1659 1.390 . S
C1657 H1661 0.950 . S
H1658 C1654 0.950 . S
C1659 C1657 1.390 . S
C1659 C1660 1.387 . S
C1659 H1662 0.950 . S
C1660 C1659 1.387 . S
C1660 C1663 1.387 . S
H1661 C1657 0.950 . S
H1662 C1659 0.950 . S
C1663 C1654 1.390 . S
C1663 H1656 0.950 . S
C1663 C1660 1.387 . S
C1664 C1665 1.387 . S
C1664 H1668 0.950 . S
C1664 C1673 1.390 . S
C1665 C1664 1.387 . S
C1665 C1667 1.387 . S
H1666 C1673 0.950 . S
C1667 C1665 1.387 . S
C1667 C1669 1.390 . S
C1667 H1671 0.950 . S
H1668 C1664 0.950 . S
C1669 C1667 1.390 . S
C1669 C1670 1.387 . S
C1669 H1672 0.950 . S
C1670 C1669 1.387 . S
C1670 C1673 1.387 . S
H1671 C1667 0.950 . S
H1672 C1669 0.950 . S
C1673 C1664 1.390 . S
C1673 H1666 0.950 . S
C1673 C1670 1.387 . S
C1674 C1675 1.387 . S
C1674 H1678 0.950 . S
C1674 C1683 1.390 . S
C1675 C1674 1.387 . S
C1675 C1677 1.387 . S
H1676 C1683 0.950 . S
C1677 C1675 1.387 . S
C1677 C1679 1.390 . S
C1677 H1681 0.950 . S
H1678 C1674 0.950 . S
C1679 C1677 1.390 . S
C1679 C1680 1.387 . S
C1679 H1682 0.950 . S
C1680 C1679 1.387 . S
C1680 C1683 1.387 . S
H1681 C1677 0.950 . S
H1682 C1679 0.950 . S
C1683 C1674 1.390 . S
C1683 H1676 0.950 . S
C1683 C1680 1.387 . S
C1684 C1685 1.387 . S
C1684 H1688 0.950 . S
C1684 C1693 1.390 . S
C1685 C1684 1.387 . S
C1685 C1687 1.387 . S
H1686 C1693 0.950 . S
C1687 C1685 1.387 . S
C1687 C1689 1.390 . S
C1687 H1691 0.950 . S
H1688 C1684 0.950 . S
C1689 C1687 1.390 . S
C1689 C1690 1.387 . S
C1689 H1692 0.950 . S
C1690 C1689 1.387 . S
C1690 C1693 1.387 . S
H1691 C1687 0.950 . S
H1692 C1689 0.950 . S
C1693 C1684 1.390 . S
C1693 H1686 0.950 . S
C1693 C1690 1.387 . S
C1694 C1695 1.387 . S
C1694 H1698 0.950 . S
C1694 C1703 1.390 . S
C1695 C1694 1.387 . S
C1695 C1697 1.387 . S
H1696 C1703 0.950 . S
C1697 C1695 1.387 . S
C1697 C1699 1.390 . S
C1697 H1701 0.950 . S
H1698 C1694 0.950 . S
C1699 C1697 1.390 . S
C1699 C1700 1.387 . S
C1699 H1702 0.950 . S
C1700 C1699 1.387 . S
C1700 C1703 1.387 . S
H1701 C1697 0.950 . S
H1702 C1699 0.950 . S
C1703 C1694 1.390 . S
C1703 H1696 0.950 . S
C1703 C1700 1.387 . S
C1704 C1705 1.387 . S
C1704 H1708 0.950 . S
C1704 C1713 1.390 . S
C1705 C1704 1.387 . S
C1705 C1707 1.387 . S
H1706 C1713 0.950 . S
C1707 C1705 1.387 . S
C1707 C1709 1.390 . S
C1707 H1711 0.950 . S
H1708 C1704 0.950 . S
C1709 C1707 1.390 . S
C1709 C1710 1.387 . S
C1709 H1712 0.950 . S
C1710 C1709 1.387 . S
C1710 C1713 1.387 . S
H1711 C1707 0.950 . S
H1712 C1709 0.950 . S
C1713 C1704 1.390 . S
C1713 H1706 0.950 . S
C1713 C1710 1.387 . S
C1714 C1715 1.387 . S
C1714 H1718 0.950 . S
C1714 C1723 1.390 . S
C1715 C1714 1.387 . S
C1715 C1717 1.387 . S
H1716 C1723 0.950 . S
C1717 C1715 1.387 . S
C1717 C1719 1.390 . S
C1717 H1721 0.950 . S
H1718 C1714 0.950 . S
C1719 C1717 1.390 . S
C1719 C1720 1.387 . S
C1719 H1722 0.950 . S
C1720 C1719 1.387 . S
C1720 C1723 1.387 . S
H1721 C1717 0.950 . S
H1722 C1719 0.950 . S
C1723 C1714 1.390 . S
C1723 H1716 0.950 . S
C1723 C1720 1.387 . S
C1724 C1725 1.387 . S
C1724 H1728 0.950 . S
C1724 C1733 1.390 . S
C1725 C1724 1.387 . S
C1725 C1727 1.387 . S
H1726 C1733 0.950 . S
C1727 C1725 1.387 . S
C1727 C1729 1.390 . S
C1727 H1731 0.950 . S
H1728 C1724 0.950 . S
C1729 C1727 1.390 . S
C1729 C1730 1.387 . S
C1729 H1732 0.950 . S
C1730 C1729 1.387 . S
C1730 C1733 1.387 . S
H1731 C1727 0.950 . S
H1732 C1729 0.950 . S
C1733 C1724 1.390 . S
C1733 H1726 0.950 . S
C1733 C1730 1.387 . S
C1734 C1735 1.387 . S
C1734 H1738 0.950 . S
C1734 C1743 1.390 . S
C1735 C1734 1.387 . S
C1735 C1737 1.387 . S
H1736 C1743 0.950 . S
C1737 C1735 1.387 . S
C1737 C1739 1.390 . S
C1737 H1741 0.950 . S
H1738 C1734 0.950 . S
C1739 C1737 1.390 . S
C1739 C1740 1.387 . S
C1739 H1742 0.950 . S
C1740 C1739 1.387 . S
C1740 C1743 1.387 . S
H1741 C1737 0.950 . S
H1742 C1739 0.950 . S
C1743 C1734 1.390 . S
C1743 H1736 0.950 . S
C1743 C1740 1.387 . S
C1744 C1745 1.387 . S
C1744 H1748 0.950 . S
C1744 C1753 1.390 . S
C1745 C1744 1.387 . S
C1745 C1747 1.387 . S
H1746 C1753 0.950 . S
C1747 C1745 1.387 . S
C1747 C1749 1.390 . S
C1747 H1751 0.950 . S
H1748 C1744 0.950 . S
C1749 C1747 1.390 . S
C1749 C1750 1.387 . S
C1749 H1752 0.950 . S
C1750 C1749 1.387 . S
C1750 C1753 1.387 . S
H1751 C1747 0.950 . S
H1752 C1749 0.950 . S
C1753 C1744 1.390 . S
C1753 H1746 0.950 . S
C1753 C1750 1.387 . S
C1754 C1755 1.387 . S
C1754 H1758 0.950 . S
C1754 C1763 1.390 . S
C1755 C1754 1.387 . S
C1755 C1757 1.387 . S
H1756 C1763 0.950 . S
C1757 C1755 1.387 . S
C1757 C1759 1.390 . S
C1757 H1761 0.950 . S
H1758 C1754 0.950 . S
C1759 C1757 1.390 . S
C1759 C1760 1.387 . S
C1759 H1762 0.950 . S
C1760 C1759 1.387 . S
C1760 C1763 1.387 . S
H1761 C1757 0.950 . S
H1762 C1759 0.950 . S
C1763 C1754 1.390 . S
C1763 H1756 0.950 . S
C1763 C1760 1.387 . S
C1764 C1765 1.387 . S
C1764 H1768 0.950 . S
C1764 C1773 1.390 . S
C1765 C1764 1.387 . S
C1765 C1767 1.387 . S
H1766 C1773 0.950 . S
C1767 C1765 1.387 . S
C1767 C1769 1.390 . S
C1767 H1771 0.950 . S
H1768 C1764 0.950 . S
C1769 C1767 1.390 . S
C1769 C1770 1.387 . S
C1769 H1772 0.950 . S
C1770 C1769 1.387 . S
C1770 C1773 1.387 . S
H1771 C1767 0.950 . S
H1772 C1769 0.950 . S
C1773 C1764 1.390 . S
C1773 H1766 0.950 . S
C1773 C1770 1.387 . S
C1774 C1775 1.387 . S
C1774 H1778 0.950 . S
C1774 C1783 1.390 . S
C1775 C1774 1.387 . S
C1775 C1777 1.387 . S
H1776 C1783 0.950 . S
C1777 C1775 1.387 . S
C1777 C1779 1.390 . S
C1777 H1781 0.950 . S
H1778 C1774 0.950 . S
C1779 C1777 1.390 . S
C1779 C1780 1.387 . S
C1779 H1782 0.950 . S
C1780 C1779 1.387 . S
C1780 C1783 1.387 . S
H1781 C1777 0.950 . S
H1782 C1779 0.950 . S
C1783 C1774 1.390 . S
C1783 H1776 0.950 . S
C1783 C1780 1.387 . S
C1784 C1785 1.387 . S
C1784 H1788 0.950 . S
C1784 C1793 1.390 . S
C1785 C1784 1.387 . S
C1785 C1787 1.387 . S
H1786 C1793 0.950 . S
C1787 C1785 1.387 . S
C1787 C1789 1.390 . S
C1787 H1791 0.950 . S
H1788 C1784 0.950 . S
C1789 C1787 1.390 . S
C1789 C1790 1.387 . S
C1789 H1792 0.950 . S
C1790 C1789 1.387 . S
C1790 C1793 1.387 . S
H1791 C1787 0.950 . S
H1792 C1789 0.950 . S
C1793 C1784 1.390 . S
C1793 H1786 0.950 . S
C1793 C1790 1.387 . S
C1794 C1795 1.387 . S
C1794 H1798 0.950 . S
C1794 C1803 1.390 . S
C1795 C1794 1.387 . S
C1795 C1797 1.387 . S
H1796 C1803 0.950 . S
C1797 C1795 1.387 . S
C1797 C1799 1.390 . S
C1797 H1801 0.950 . S
H1798 C1794 0.950 . S
C1799 C1797 1.390 . S
C1799 C1800 1.387 . S
C1799 H1802 0.950 . S
C1800 C1799 1.387 . S
C1800 C1803 1.387 . S
H1801 C1797 0.950 . S
H1802 C1799 0.950 . S
C1803 C1794 1.390 . S
C1803 H1796 0.950 . S
C1803 C1800 1.387 . S
C1804 C1805 1.387 . S
C1804 H1808 0.950 . S
C1804 C1813 1.390 . S
C1805 C1804 1.387 . S
C1805 C1807 1.387 . S
H1806 C1813 0.950 . S
C1807 C1805 1.387 . S
C1807 C1809 1.390 . S
C1807 H1811 0.950 . S
H1808 C1804 0.950 . S
C1809 C1807 1.390 . S
C1809 C1810 1.387 . S
C1809 H1812 0.950 . S
C1810 C1809 1.387 . S
C1810 C1813 1.387 . S
H1811 C1807 0.950 . S
H1812 C1809 0.950 . S
C1813 C1804 1.390 . S
C1813 H1806 0.950 . S
C1813 C1810 1.387 . S
C1814 C1815 1.387 . S
C1814 H1818 0.950 . S
C1814 C1823 1.390 . S
C1815 C1814 1.387 . S
C1815 C1817 1.387 . S
H1816 C1823 0.950 . S
C1817 C1815 1.387 . S
C1817 C1819 1.390 . S
C1817 H1821 0.950 . S
H1818 C1814 0.950 . S
C1819 C1817 1.390 . S
C1819 C1820 1.387 . S
C1819 H1822 0.950 . S
C1820 C1819 1.387 . S
C1820 C1823 1.387 . S
H1821 C1817 0.950 . S
H1822 C1819 0.950 . S
C1823 C1814 1.390 . S
C1823 H1816 0.950 . S
C1823 C1820 1.387 . S
C1824 C1825 1.387 . S
C1824 H1828 0.950 . S
C1824 C1833 1.390 . S
C1825 C1824 1.387 . S
C1825 C1827 1.387 . S
H1826 C1833 0.950 . S
C1827 C1825 1.387 . S
C1827 C1829 1.390 . S
C1827 H1831 0.950 . S
H1828 C1824 0.950 . S
C1829 C1827 1.390 . S
C1829 C1830 1.387 . S
C1829 H1832 0.950 . S
C1830 C1829 1.387 . S
C1830 C1833 1.387 . S
H1831 C1827 0.950 . S
H1832 C1829 0.950 . S
C1833 C1824 1.390 . S
C1833 H1826 0.950 . S
C1833 C1830 1.387 . S
C1834 C1835 1.387 . S
C1834 H1838 0.950 . S
C1834 C1843 1.390 . S
C1835 C1834 1.387 . S
C1835 C1837 1.387 . S
H1836 C1843 0.950 . S
C1837 C1835 1.387 . S
C1837 C1839 1.390 . S
C1837 H1841 0.950 . S
H1838 C1834 0.950 . S
C1839 C1837 1.390 . S
C1839 C1840 1.387 . S
C1839 H1842 0.950 . S
C1840 C1839 1.387 . S
C1840 C1843 1.387 . S
H1841 C1837 0.950 . S
H1842 C1839 0.950 . S
C1843 C1834 1.390 . S
C1843 H1836 0.950 . S
C1843 C1840 1.387 . S
C1844 C1845 1.387 . S
C1844 H1848 0.950 . S
C1844 C1853 1.390 . S
C1845 C1844 1.387 . S
C1845 C1847 1.387 . S
H1846 C1853 0.950 . S
C1847 C1845 1.387 . S
C1847 C1849 1.390 . S
C1847 H1851 0.950 . S
H1848 C1844 0.950 . S
C1849 C1847 1.390 . S
C1849 C1850 1.387 . S
C1849 H1852 0.950 . S
C1850 C1849 1.387 . S
C1850 C1853 1.387 . S
H1851 C1847 0.950 . S
H1852 C1849 0.950 . S
C1853 C1844 1.390 . S
C1853 H1846 0.950 . S
C1853 C1850 1.387 . S
C1854 C1855 1.387 . S
C1854 H1858 0.950 . S
C1854 C1863 1.390 . S
C1855 C1854 1.387 . S
C1855 C1857 1.387 . S
H1856 C1863 0.950 . S
C1857 C1855 1.387 . S
C1857 C1859 1.390 . S
C1857 H1861 0.950 . S
H1858 C1854 0.950 . S
C1859 C1857 1.390 . S
C1859 C1860 1.387 . S
C1859 H1862 0.950 . S
C1860 C1859 1.387 . S
C1860 C1863 1.387 . S
H1861 C1857 0.950 . S
H1862 C1859 0.950 . S
C1863 C1854 1.390 . S
C1863 H1856 0.950 . S
C1863 C1860 1.387 . S
C1864 C1865 1.387 . S
C1864 H1868 0.950 . S
C1864 C1873 1.390 . S
C1865 C1864 1.387 . S
C1865 C1867 1.387 . S
H1866 C1873 0.950 . S
C1867 C1865 1.387 . S
C1867 C1869 1.390 . S
C1867 H1871 0.950 . S
H1868 C1864 0.950 . S
C1869 C1867 1.390 . S
C1869 C1870 1.387 . S
C1869 H1872 0.950 . S
C1870 C1869 1.387 . S
C1870 C1873 1.387 . S
H1871 C1867 0.950 . S
H1872 C1869 0.950 . S
C1873 C1864 1.390 . S
C1873 H1866 0.950 . S
C1873 C1870 1.387 . S
C1874 C1875 1.387 . S
C1874 H1878 0.950 . S
C1874 C1883 1.390 . S
C1875 C1874 1.387 . S
C1875 C1877 1.387 . S
H1876 C1883 0.950 . S
C1877 C1875 1.387 . S
C1877 C1879 1.390 . S
C1877 H1881 0.950 . S
H1878 C1874 0.950 . S
C1879 C1877 1.390 . S
C1879 C1880 1.387 . S
C1879 H1882 0.950 . S
C1880 C1879 1.387 . S
C1880 C1883 1.387 . S
H1881 C1877 0.950 . S
H1882 C1879 0.950 . S
C1883 C1874 1.390 . S
C1883 H1876 0.950 . S
C1883 C1880 1.387 . S
C1884 C1885 1.387 . S
C1884 H1888 0.950 . S
C1884 C1893 1.390 . S
C1885 C1884 1.387 . S
C1885 C1887 1.387 . S
H1886 C1893 0.950 . S
C1887 C1885 1.387 . S
C1887 C1889 1.390 . S
C1887 H1891 0.950 . S
H1888 C1884 0.950 . S
C1889 C1887 1.390 . S
C1889 C1890 1.387 . S
C1889 H1892 0.950 . S
C1890 C1889 1.387 . S
C1890 C1893 1.387 . S
H1891 C1887 0.950 . S
H1892 C1889 0.950 . S
C1893 C1884 1.390 . S
C1893 H1886 0.950 . S
C1893 C1890 1.387 . S
C1894 C1895 1.387 . S
C1894 H1898 0.950 . S
C1894 C1903 1.390 . S
C1895 C1894 1.387 . S
C1895 C1897 1.387 . S
H1896 C1903 0.950 . S
C1897 C1895 1.387 . S
C1897 C1899 1.390 . S
C1897 H1901 0.950 . S
H1898 C1894 0.950 . S
C1899 C1897 1.390 . S
C1899 C1900 1.387 . S
C1899 H1902 0.950 . S
C1900 C1899 1.387 . S
C1900 C1903 1.387 . S
H1901 C1897 0.950 . S
H1902 C1899 0.950 . S
C1903 C1894 1.390 . S
C1903 H1896 0.950 . S
C1903 C1900 1.387 . S
C1904 C1905 1.387 . S
C1904 H1908 0.950 . S
C1904 C1913 1.390 . S
C1905 C1904 1.387 . S
C1905 C1907 1.387 . S
H1906 C1913 0.950 . S
C1907 C1905 1.387 . S
C1907 C1909 1.390 . S
C1907 H1911 0.950 . S
H1908 C1904 0.950 . S
C1909 C1907 1.390 . S
C1909 C1910 1.387 . S
C1909 H1912 0.950 . S
C1910 C1909 1.387 . S
C1910 C1913 1.387 . S
H1911 C1907 0.950 . S
H1912 C1909 0.950 . S
C1913 C1904 1.390 . S
C1913 H1906 0.950 . S
C1913 C1910 1.387 . S
C1914 C1915 1.387 . S
C1914 H1918 0.950 . S
C1914 C1923 1.390 . S
C1915 C1914 1.387 . S
C1915 C1917 1.387 . S
H1916 C1923 0.950 . S
C1917 C1915 1.387 . S
C1917 C1919 1.390 . S
C1917 H1921 0.950 . S
H1918 C1914 0.950 . S
C1919 C1917 1.390 . S
C1919 C1920 1.387 . S
C1919 H1922 0.950 . S
C1920 C1919 1.387 . S
C1920 C1923 1.387 . S
H1921 C1917 0.950 . S
H1922 C1919 0.950 . S
C1923 C1914 1.390 . S
C1923 H1916 0.950 . S
C1923 C1920 1.387 . S
C1924 C1925 1.387 . S
C1924 H1928 0.950 . S
C1924 C1933 1.390 . S
C1925 C1924 1.387 . S
C1925 C1927 1.387 . S
H1926 C1933 0.950 . S
C1927 C1925 1.387 . S
C1927 C1929 1.390 . S
C1927 H1931 0.950 . S
H1928 C1924 0.950 . S
C1929 C1927 1.390 . S
C1929 C1930 1.387 . S
C1929 H1932 0.950 . S
C1930 C1929 1.387 . S
C1930 C1933 1.387 . S
H1931 C1927 0.950 . S
H1932 C1929 0.950 . S
C1933 C1924 1.390 . S
C1933 H1926 0.950 . S
C1933 C1930 1.387 . S
C1934 C1935 1.387 . S
C1934 H1938 0.950 . S
C1934 C1943 1.390 . S
C1935 C1934 1.387 . S
C1935 C1937 1.387 . S
H1936 C1943 0.950 . S
C1937 C1935 1.387 . S
C1937 C1939 1.390 . S
C1937 H1941 0.950 . S
H1938 C1934 0.950 . S
C1939 C1937 1.390 . S
C1939 C1940 1.387 . S
C1939 H1942 0.950 . S
C1940 C1939 1.387 . S
C1940 C1943 1.387 . S
H1941 C1937 0.950 . S
H1942 C1939 0.950 . S
C1943 C1934 1.390 . S
C1943 H1936 0.950 . S
C1943 C1940 1.387 . S
C1405 C469 1.489 . S
C1410 C715 1.405 . S
C1415 C505 1.498 . S
C1420 C799 1.423 . S
C1425 C433 1.526 . S
C1430 C879 1.458 . S
C1435 C397 1.477 . S
C1440 C795 1.418 . S
C1450 C883 1.363 . S
C1445 C325 1.443 . S
C1455 C361 1.474 . S
C1460 C711 1.405 . S
C1470 C704 1.403 . S
C1465 C421 1.489 . S
C1480 C788 1.421 . S
C1475 C349 1.496 . S
C1485 C385 1.525 . S
C1490 C890 1.456 . S
C1495 C493 1.477 . S
C1500 C806 1.420 . S
C1505 C529 1.444 . S
C1510 C872 1.361 . S
C1520 C722 1.405 . S
C1515 C457 1.475 . S
C1530 C967 1.404 . S
C1525 C37 1.489 1_455 S
C1535 C73 1.497 . S
C1540 C1051 1.419 . S
C1545 C1 1.527 1_565 S
C1550 C1131 1.459 . S
C1555 C613 1.477 . S
C1560 C1047 1.418 . S
C1565 C541 1.444 . S
C1570 C1135 1.363 . S
C1575 C577 1.475 . S
C1580 C963 1.408 . S
C1585 C637 1.489 . S
C1590 C956 1.404 . S
C1595 C565 1.496 . S
C1600 C1040 1.421 . S
C1610 C1142 1.458 . S
C1605 C601 1.525 . S
C1615 C61 1.475 1_565 S
C1620 C1058 1.416 . S
C1630 C1124 1.364 . S
C1625 C97 1.444 1_455 S
C1635 C25 1.475 . S
C1640 C974 1.405 . S
C1650 C1219 1.402 . S
C1645 C253 1.487 . S
C1655 C289 1.497 . S
C1660 C1303 1.423 . S
C1670 C1383 1.459 . S
C1665 C217 1.527 . S
C1680 C1299 1.418 . S
C1675 C181 1.477 1_545 S
C1690 C1387 1.363 . S
C1685 C109 1.444 1_655 S
C1695 C145 1.475 . S
C1700 C1215 1.408 . S
C1705 C205 1.489 1_655 S
C1710 C1208 1.403 . S
C1715 C133 1.496 . S
C1720 C1292 1.420 . S
C1730 C1394 1.458 . S
C1725 C169 1.525 1_545 S
C1735 C277 1.476 . S
C1740 C1310 1.416 . S
C1745 C313 1.444 . S
C1750 C1376 1.360 . S
C1755 C241 1.475 . S
C1760 C1226 1.406 . S
C1765 C571 1.475 . S
C1770 C718 1.374 . S
C1780 C802 1.369 . S
C1775 C607 1.519 . S
C1785 C643 1.491 . S
C1790 C874 1.364 . S
C1795 C247 1.520 . S
C1800 C790 1.365 . S
C1805 C283 1.492 . S
C1810 C886 1.361 . S
C1820 C706 1.374 . S
C1815 C319 1.475 . S
C1825 C139 1.475 . S
C1830 C970 1.376 . S
C1835 C175 1.519 . S
C1840 C1054 1.365 . S
C1845 C211 1.491 . S
C1850 C1126 1.363 . S
C1855 C463 1.520 . S
C1860 C1042 1.367 . S
C1870 C1138 1.360 . S
C1865 C499 1.493 . S
C1875 C535 1.475 . S
C1880 C958 1.374 . S
C1885 C355 1.475 . S
C1890 C1222 1.374 . S
C1895 C391 1.519 . S
C1900 C1306 1.365 . S
C1910 C1378 1.364 . S
C1905 C427 1.491 . S
C1915 C31 1.520 . S
C1920 C1294 1.365 . S
C1925 C67 1.492 . S
C1930 C1390 1.365 . S
C1935 C103 1.475 . S
C1940 C1210 1.374 . S
