# Generated by pormake.
# Topology pyr, (3,6)-cn, num edge types: 1
# Building blocks:
#     Node 0, Type 0, BuildingBlock: KAKCAD_clean_linker_0, # of connection points: 3
#     Node 1, Type 0, BuildingBlock: KAKCAD_clean_linker_0, # of connection points: 3
#     Node 2, Type 0, BuildingBlock: KAKCAD_clean_linker_0, # of connection points: 3
#     Node 3, Type 0, BuildingBlock: KAKCAD_clean_linker_0, # of connection points: 3
#     Node 4, Type 0, BuildingBlock: KAKCAD_clean_linker_0, # of connection points: 3
#     Node 5, Type 0, BuildingBlock: KAKCAD_clean_linker_0, # of connection points: 3
#     Node 6, Type 0, BuildingBlock: KAKCAD_clean_linker_0, # of connection points: 3
#     Node 7, Type 0, BuildingBlock: KAKCAD_clean_linker_0, # of connection points: 3
#     Node 8, Type 1, BuildingBlock: MIDCAF_clean_sbu_0, # of connection points: 6
#     Node 9, Type 1, BuildingBlock: MIDCAF_clean_sbu_0, # of connection points: 6
#     Node 10, Type 1, BuildingBlock: MIDCAF_clean_sbu_0, # of connection points: 6
#     Node 11, Type 1, BuildingBlock: MIDCAF_clean_sbu_0, # of connection points: 6
#     Edge 12, Type (0, 1), BuildingBlock: CIFDUS_clean_linker_0, # of connection points: 2
#     Edge 13, Type (0, 1), BuildingBlock: CIFDUS_clean_linker_0, # of connection points: 2
#     Edge 14, Type (0, 1), BuildingBlock: CIFDUS_clean_linker_0, # of connection points: 2
#     Edge 15, Type (0, 1), BuildingBlock: CIFDUS_clean_linker_0, # of connection points: 2
#     Edge 16, Type (0, 1), BuildingBlock: CIFDUS_clean_linker_0, # of connection points: 2
#     Edge 17, Type (0, 1), BuildingBlock: CIFDUS_clean_linker_0, # of connection points: 2
#     Edge 18, Type (0, 1), BuildingBlock: CIFDUS_clean_linker_0, # of connection points: 2
#     Edge 19, Type (0, 1), BuildingBlock: CIFDUS_clean_linker_0, # of connection points: 2
#     Edge 20, Type (0, 1), BuildingBlock: CIFDUS_clean_linker_0, # of connection points: 2
#     Edge 21, Type (0, 1), BuildingBlock: CIFDUS_clean_linker_0, # of connection points: 2
#     Edge 22, Type (0, 1), BuildingBlock: CIFDUS_clean_linker_0, # of connection points: 2
#     Edge 23, Type (0, 1), BuildingBlock: CIFDUS_clean_linker_0, # of connection points: 2
#     Edge 24, Type (0, 1), BuildingBlock: CIFDUS_clean_linker_0, # of connection points: 2
#     Edge 25, Type (0, 1), BuildingBlock: CIFDUS_clean_linker_0, # of connection points: 2
#     Edge 26, Type (0, 1), BuildingBlock: CIFDUS_clean_linker_0, # of connection points: 2
#     Edge 27, Type (0, 1), BuildingBlock: CIFDUS_clean_linker_0, # of connection points: 2
#     Edge 28, Type (0, 1), BuildingBlock: CIFDUS_clean_linker_0, # of connection points: 2
#     Edge 29, Type (0, 1), BuildingBlock: CIFDUS_clean_linker_0, # of connection points: 2
#     Edge 30, Type (0, 1), BuildingBlock: CIFDUS_clean_linker_0, # of connection points: 2
#     Edge 31, Type (0, 1), BuildingBlock: CIFDUS_clean_linker_0, # of connection points: 2
#     Edge 32, Type (0, 1), BuildingBlock: CIFDUS_clean_linker_0, # of connection points: 2
#     Edge 33, Type (0, 1), BuildingBlock: CIFDUS_clean_linker_0, # of connection points: 2
#     Edge 34, Type (0, 1), BuildingBlock: CIFDUS_clean_linker_0, # of connection points: 2
#     Edge 35, Type (0, 1), BuildingBlock: CIFDUS_clean_linker_0, # of connection points: 2
# Relax obj value: 0.019
# Max RMSD: 0.063
# Mean RMSD: 0.024
data_MOF--net-pyr--node1-MIDCAF_clean_sbu_0--node2-KAKCAD_clean_linker_0--edge1-CIFDUS_clean_linker_0
_symmetry_space_group_name_H-M    P1
_symmetry_Int_Tables_number       1
_symmetry_cell_setting            triclinic
loop_
_symmetry_equiv_pos_as_xyz
'x, y, z'
_cell_length_a     39.418377
_cell_length_b     39.446661
_cell_length_c     39.367435
_cell_angle_alpha  90.203159
_cell_angle_beta   89.99957
_cell_angle_gamma 90.380791
loop_
_atom_site_label
_atom_site_type_symbol
_atom_site_fract_x
_atom_site_fract_y
_atom_site_fract_z
_atom_type_partial_charge
C0 C 0.17429 0.21277 0.35884 0.0
C1 C 0.19225 0.18602 0.37403 0.0
C2 C 0.1873 0.22983 0.33056 0.0
C3 C 0.21956 0.222 0.31731 0.0
C4 C 0.23858 0.19703 0.33411 0.0
C5 C 0.2249 0.17886 0.36136 0.0
C6 C 0.23236 0.23826 0.2852 0.0
C7 C 0.21998 0.26992 0.27442 0.0
C8 C 0.22831 0.28315 0.2423 0.0
C9 C 0.25172 0.26581 0.22188 0.0
C10 C 0.26547 0.23482 0.23246 0.0
C11 C 0.25522 0.22105 0.26372 0.0
C12 C 0.28847 0.21537 0.20974 0.0
C13 C 0.28119 0.21229 0.17493 0.0
C14 C 0.31712 0.19875 0.2228 0.0
C15 C 0.33768 0.17903 0.2016 0.0
C16 C 0.32982 0.17533 0.16696 0.0
C17 C 0.20974 0.31295 0.22869 0.0
C18 C 0.17453 0.31532 0.23361 0.0
C19 C 0.22614 0.33783 0.20893 0.0
C20 C 0.2076 0.36423 0.19421 0.0
C21 C 0.17229 0.36629 0.19895 0.0
C22 C 0.15611 0.34153 0.21896 0.0
C23 C 0.30161 0.19255 0.15383 0.0
H24 H 0.14971 0.22044 0.36815 0.0
H25 H 0.1712 0.24842 0.31867 0.0
H26 H 0.26397 0.19074 0.32596 0.0
H27 H 0.23993 0.15845 0.37152 0.0
H28 H 0.2032 0.28433 0.29061 0.0
H29 H 0.26395 0.19596 0.27024 0.0
H30 H 0.25836 0.27583 0.19715 0.0
H31 H 0.25915 0.22442 0.16408 0.0
H32 H 0.32353 0.20086 0.24949 0.0
H33 H 0.35918 0.16599 0.21247 0.0
H34 H 0.16087 0.29617 0.24788 0.0
H35 H 0.25327 0.33683 0.20477 0.0
H36 H 0.29514 0.19061 0.12715 0.0
H37 H 0.12886 0.3417 0.22249 0.0
H38 H 0.22089 0.383 0.17913 0.0
C39 C 0.331 0.85151 0.84809 0.0
C40 C 0.36664 0.85425 0.84869 0.0
C41 C 0.31446 0.83422 0.82167 0.0
C42 C 0.33317 0.81914 0.79532 0.0
C43 C 0.3688 0.8211 0.79643 0.0
C44 C 0.38531 0.83841 0.82276 0.0
C45 C 0.31582 0.80245 0.76603 0.0
C46 C 0.28767 0.8177 0.75041 0.0
C47 C 0.27325 0.80362 0.72083 0.0
C48 C 0.28697 0.77361 0.7073 0.0
C49 C 0.31504 0.75798 0.72248 0.0
C50 C 0.32892 0.77237 0.75213 0.0
C51 C 0.3314 0.72821 0.70593 0.0
C52 C 0.31192 0.70273 0.68985 0.0
C53 C 0.36696 0.72597 0.70469 0.0
C54 C 0.38264 0.69925 0.68764 0.0
C55 C 0.36324 0.67409 0.67116 0.0
C56 C 0.24536 0.82118 0.70255 0.0
C57 C 0.21778 0.83546 0.72012 0.0
C58 C 0.24618 0.82349 0.66695 0.0
C59 C 0.2197 0.83863 0.64926 0.0
C60 C 0.19162 0.85201 0.6666 0.0
C61 C 0.19116 0.8508 0.7023 0.0
C62 C 0.32769 0.67604 0.67252 0.0
H63 H 0.31584 0.86302 0.8679 0.0
H64 H 0.28701 0.83278 0.8218 0.0
H65 H 0.38401 0.81026 0.77627 0.0
H66 H 0.41271 0.84051 0.822 0.0
H67 H 0.2781 0.8415 0.76021 0.0
H68 H 0.35023 0.76023 0.76438 0.0
H69 H 0.27633 0.76293 0.68422 0.0
H70 H 0.28447 0.70343 0.69061 0.0
H71 H 0.38284 0.74546 0.71601 0.0
H72 H 0.41009 0.69889 0.68648 0.0
H73 H 0.2164 0.83408 0.74756 0.0
H74 H 0.26746 0.8137 0.65264 0.0
H75 H 0.31208 0.6569 0.66025 0.0
H76 H 0.16986 0.86092 0.71635 0.0
H77 H 0.22131 0.83997 0.62183 0.0
C78 C 0.85408 0.36883 0.8266 0.0
C79 C 0.86817 0.35065 0.85387 0.0
C80 C 0.82581 0.35639 0.80893 0.0
C81 C 0.81141 0.32456 0.81683 0.0
C82 C 0.8269 0.30541 0.84258 0.0
C83 C 0.85422 0.31849 0.86122 0.0
C84 C 0.77959 0.31221 0.79958 0.0
C85 C 0.77075 0.32363 0.76687 0.0
C86 C 0.73927 0.31517 0.75213 0.0
C87 C 0.71743 0.29281 0.76934 0.0
C88 C 0.72601 0.28015 0.80151 0.0
C89 C 0.75673 0.29047 0.8166 0.0
C90 C 0.70206 0.2577 0.82036 0.0
C91 C 0.66709 0.26443 0.82049 0.0
C92 C 0.71404 0.22985 0.839 0.0
C93 C 0.69163 0.20951 0.85769 0.0
C94 C 0.65673 0.21664 0.85825 0.0
C95 C 0.7279 0.33221 0.72041 0.0
C96 C 0.73403 0.36707 0.71609 0.0
C97 C 0.70903 0.31474 0.69544 0.0
C98 C 0.69606 0.33195 0.66721 0.0
C99 C 0.70178 0.36696 0.66331 0.0
C100 C 0.72118 0.38417 0.68799 0.0
C101 C 0.64474 0.24414 0.83913 0.0
H102 H 0.86435 0.39311 0.81895 0.0
H103 H 0.81485 0.3725 0.78974 0.0
H104 H 0.81771 0.28035 0.849 0.0
H105 H 0.8635 0.30344 0.8821 0.0
H106 H 0.78811 0.33956 0.75272 0.0
H107 H 0.76187 0.28257 0.84236 0.0
H108 H 0.69323 0.28599 0.75812 0.0
H109 H 0.657 0.28586 0.80675 0.0
H110 H 0.7408 0.22379 0.83918 0.0
H111 H 0.70173 0.18867 0.8723 0.0
H112 H 0.74773 0.38156 0.73514 0.0
H113 H 0.70408 0.28782 0.69783 0.0
H114 H 0.61795 0.25007 0.8386 0.0
H115 H 0.72544 0.41126 0.68632 0.0
H116 H 0.68146 0.31788 0.64853 0.0
C117 C 0.83157 0.66159 0.20319 0.0
C118 C 0.86544 0.6522 0.20881 0.0
C119 C 0.81539 0.68407 0.22549 0.0
C120 C 0.83308 0.69796 0.25331 0.0
C121 C 0.86715 0.68904 0.25836 0.0
C122 C 0.88309 0.66633 0.23646 0.0
C123 C 0.81625 0.72092 0.27793 0.0
C124 C 0.78522 0.71178 0.29294 0.0
C125 C 0.7716 0.73118 0.31967 0.0
C126 C 0.78921 0.76041 0.33077 0.0
C127 C 0.82028 0.76995 0.31595 0.0
C128 C 0.83313 0.75033 0.28907 0.0
C129 C 0.84079 0.79864 0.33007 0.0
C130 C 0.82543 0.82861 0.34183 0.0
C131 C 0.87627 0.79579 0.33244 0.0
C132 C 0.89591 0.82229 0.34552 0.0
C133 C 0.88066 0.85226 0.35703 0.0
C134 C 0.74081 0.71914 0.33811 0.0
C135 C 0.71303 0.70482 0.32059 0.0
C136 C 0.73972 0.72057 0.37376 0.0
C137 C 0.71174 0.70796 0.39147 0.0
C138 C 0.68401 0.6935 0.37409 0.0
C139 C 0.68493 0.69208 0.33841 0.0
C140 C 0.84518 0.8551 0.35536 0.0
H141 H 0.81741 0.65087 0.18211 0.0
H142 H 0.78912 0.6906 0.22103 0.0
H143 H 0.88132 0.69904 0.2798 0.0
H144 H 0.90928 0.65966 0.24124 0.0
H145 H 0.77282 0.68837 0.28526 0.0
H146 H 0.85684 0.75754 0.27707 0.0
H147 H 0.77928 0.77508 0.3518 0.0
H148 H 0.79821 0.83178 0.34024 0.0
H149 H 0.889 0.77278 0.32468 0.0
H150 H 0.92313 0.81906 0.3472 0.0
H151 H 0.71299 0.7035 0.29311 0.0
H152 H 0.76097 0.73056 0.38817 0.0
H153 H 0.8328 0.87799 0.36403 0.0
H154 H 0.6639 0.68126 0.32427 0.0
H155 H 0.7123 0.70871 0.41897 0.0
C156 C 0.95681 0.88556 0.7841 0.0
C157 C 0.96278 0.91973 0.77574 0.0
C158 C 0.93833 0.87695 0.81318 0.0
C159 C 0.92578 0.90226 0.83507 0.0
C160 C 0.93315 0.93633 0.82755 0.0
C161 C 0.95107 0.94496 0.79818 0.0
C162 C 0.90385 0.89326 0.86466 0.0
C163 C 0.90922 0.86316 0.88289 0.0
C164 C 0.88738 0.8535 0.90943 0.0
C165 C 0.86024 0.8746 0.91824 0.0
C166 C 0.85458 0.9049 0.90056 0.0
C167 C 0.87642 0.91406 0.87392 0.0
C168 C 0.82501 0.92633 0.90907 0.0
C169 C 0.79253 0.91176 0.91167 0.0
C170 C 0.82905 0.96131 0.91484 0.0
C171 C 0.80118 0.98118 0.92398 0.0
C172 C 0.76873 0.96651 0.92683 0.0
C173 C 0.89223 0.82063 0.92693 0.0
C174 C 0.89781 0.7911 0.90781 0.0
C175 C 0.89137 0.81845 0.96258 0.0
C176 C 0.89681 0.78738 0.97876 0.0
C177 C 0.90263 0.75788 0.95954 0.0
C178 C 0.90285 0.76009 0.9239 0.0
C179 C 0.76465 0.93168 0.92024 0.0
H180 H 0.96583 0.86535 0.76784 0.0
H181 H 0.93298 0.85041 0.81781 0.0
H182 H 0.92459 0.95655 0.84406 0.0
H183 H 0.95457 0.97159 0.79258 0.0
H184 H 0.93058 0.84716 0.87664 0.0
H185 H 0.87106 0.93679 0.85956 0.0
H186 H 0.84315 0.86719 0.93851 0.0
H187 H 0.78871 0.88491 0.90705 0.0
H188 H 0.85388 0.9731 0.91304 0.0
H189 H 0.80499 0.00796 0.92898 0.0
H190 H 0.89825 0.79196 0.88031 0.0
H191 H 0.8872 0.84089 0.97792 0.0
H192 H 0.74 0.91962 0.92268 0.0
H193 H 0.90779 0.73794 0.90838 0.0
H194 H 0.89653 0.78641 0.00625 0.0
C195 C 0.58008 0.07425 0.29885 0.0
C196 C 0.56739 0.09786 0.27538 0.0
C197 C 0.59873 0.08495 0.32715 0.0
C198 C 0.60584 0.11953 0.33255 0.0
C199 C 0.59266 0.1432 0.30943 0.0
C200 C 0.57345 0.13255 0.28145 0.0
C201 C 0.62759 0.13075 0.36162 0.0
C202 C 0.65493 0.1107 0.37265 0.0
C203 C 0.67603 0.12169 0.39924 0.0
C204 C 0.66972 0.15282 0.41524 0.0
C205 C 0.64267 0.17308 0.40473 0.0
C206 C 0.6217 0.16195 0.37804 0.0
C207 C 0.6366 0.20619 0.42129 0.0
C208 C 0.63211 0.2084 0.45663 0.0
C209 C 0.635 0.23578 0.40168 0.0
C210 C 0.62873 0.26705 0.4171 0.0
C211 C 0.62332 0.26919 0.45231 0.0
C212 C 0.70532 0.10121 0.41003 0.0
C213 C 0.70052 0.06854 0.42332 0.0
C214 C 0.73812 0.11512 0.40878 0.0
C215 C 0.76566 0.09705 0.42144 0.0
C216 C 0.76078 0.065 0.43616 0.0
C217 C 0.72803 0.0507 0.43669 0.0
C218 C 0.62511 0.23963 0.47199 0.0
H219 H 0.57653 0.04728 0.29498 0.0
H220 H 0.60777 0.06592 0.34466 0.0
H221 H 0.59782 0.17004 0.31236 0.0
H222 H 0.56369 0.1516 0.26438 0.0
H223 H 0.66069 0.08704 0.35991 0.0
H224 H 0.60044 0.17751 0.37057 0.0
H225 H 0.6861 0.16144 0.4357 0.0
H226 H 0.63319 0.18585 0.4722 0.0
H227 H 0.63858 0.23466 0.37441 0.0
H228 H 0.62704 0.28945 0.40135 0.0
H229 H 0.67534 0.05745 0.42457 0.0
H230 H 0.74233 0.14027 0.39856 0.0
H231 H 0.62086 0.24069 0.49916 0.0
H232 H 0.72366 0.02608 0.44804 0.0
H233 H 0.79058 0.10882 0.42115 0.0
C234 C 0.28222 0.59343 0.12528 0.0
C235 C 0.28582 0.57389 0.09547 0.0
C236 C 0.3099 0.61123 0.13884 0.0
C237 C 0.34151 0.61029 0.12258 0.0
C238 C 0.34571 0.58965 0.09387 0.0
C239 C 0.31828 0.57124 0.08073 0.0
C240 C 0.36918 0.63309 0.13374 0.0
C241 C 0.3835 0.62989 0.16616 0.0
C242 C 0.40955 0.65202 0.17676 0.0
C243 C 0.42013 0.67829 0.15515 0.0
C244 C 0.40529 0.68221 0.12296 0.0
C245 C 0.38039 0.65904 0.11212 0.0
C246 C 0.4147 0.71135 0.10126 0.0
C247 C 0.41326 0.74444 0.11438 0.0
C248 C 0.42481 0.70641 0.06738 0.0
C249 C 0.43439 0.7341 0.04732 0.0
C250 C 0.4332 0.76718 0.06059 0.0
C251 C 0.426 0.64725 0.21019 0.0
C252 C 0.40632 0.64475 0.2398 0.0
C253 C 0.46137 0.64366 0.21245 0.0
C254 C 0.47665 0.63634 0.24364 0.0
C255 C 0.45688 0.63326 0.27315 0.0
C256 C 0.42166 0.63813 0.27106 0.0
C257 C 0.42215 0.77211 0.09416 0.0
H258 H 0.25768 0.59658 0.13717 0.0
H259 H 0.30618 0.6272 0.16096 0.0
H260 H 0.37006 0.58841 0.08117 0.0
H261 H 0.32233 0.55581 0.05832 0.0
H262 H 0.37495 0.60968 0.18275 0.0
H263 H 0.3687 0.66202 0.08738 0.0
H264 H 0.43976 0.69583 0.16349 0.0
H265 H 0.40521 0.74888 0.14033 0.0
H266 H 0.42607 0.68109 0.05673 0.0
H267 H 0.44301 0.72968 0.02156 0.0
H268 H 0.37901 0.64754 0.23866 0.0
H269 H 0.47703 0.64532 0.1899 0.0
H270 H 0.4215 0.79731 0.10515 0.0
H271 H 0.40581 0.63546 0.29339 0.0
H272 H 0.50383 0.63257 0.24463 0.0
C273 C 0.12292 0.30334 0.55958 0.0
C274 C 0.08799 0.29571 0.55902 0.0
C275 C 0.13537 0.33068 0.57876 0.0
C276 C 0.11313 0.35138 0.59746 0.0
C277 C 0.07811 0.34491 0.59526 0.0
C278 C 0.06576 0.31732 0.57667 0.0
C279 C 0.12628 0.37842 0.62061 0.0
C280 C 0.15516 0.39772 0.61208 0.0
C281 C 0.16779 0.42254 0.63445 0.0
C282 C 0.15161 0.4282 0.66561 0.0
C283 C 0.12282 0.40914 0.67458 0.0
C284 C 0.11033 0.38442 0.65206 0.0
C285 C 0.10605 0.41448 0.70779 0.0
C286 C 0.12509 0.41384 0.7379 0.0
C287 C 0.07093 0.42012 0.70956 0.0
C288 C 0.05527 0.42593 0.74091 0.0
C289 C 0.07436 0.42545 0.77101 0.0
C290 C 0.19835 0.44214 0.62531 0.0
C291 C 0.23032 0.42696 0.62706 0.0
C292 C 0.19556 0.47547 0.6134 0.0
C293 C 0.22439 0.493 0.60212 0.0
C294 C 0.25643 0.47758 0.60314 0.0
C295 C 0.25919 0.44463 0.61632 0.0
C296 C 0.10934 0.419 0.76926 0.0
H297 H 0.14084 0.28777 0.54586 0.0
H298 H 0.16253 0.33476 0.57987 0.0
H299 H 0.06009 0.36073 0.60858 0.0
H300 H 0.03875 0.31227 0.57747 0.0
H301 H 0.16771 0.39384 0.58789 0.0
H302 H 0.08876 0.36908 0.65972 0.0
H303 H 0.16147 0.44739 0.68283 0.0
H304 H 0.15215 0.40927 0.73716 0.0
H305 H 0.05576 0.42077 0.68663 0.0
H306 H 0.0283 0.43098 0.74165 0.0
H307 H 0.23284 0.4012 0.63616 0.0
H308 H 0.17098 0.4875 0.61188 0.0
H309 H 0.12468 0.41897 0.79209 0.0
H310 H 0.28347 0.43194 0.61689 0.0
H311 H 0.2216 0.51834 0.59202 0.0
Zn312 Zn 0.97862 0.06549 0.56758 0.0
Zn313 Zn 0.06233 0.98896 0.48978 0.0
Zn314 Zn 0.01974 0.02598 0.52986 0.0
C315 C 0.08103 0.05671 0.48261 0.0
C316 C 0.99467 0.97666 0.4686 0.0
O317 O 0.02315 0.00876 0.58308 0.0
O318 O 0.99193 0.04552 0.61189 0.0
C319 C 0.02522 0.10823 0.53601 0.0
O320 O 0.0557 0.0598 0.50307 0.0
O321 O 0.09063 0.02775 0.473 0.0
O322 O 0.02501 0.96988 0.46083 0.0
O323 O 0.98826 0.99716 0.49331 0.0
O324 O 0.99868 0.10973 0.55389 0.0
O325 O 0.03654 0.07939 0.52573 0.0
O326 O 0.96739 0.02111 0.51013 0.0
O327 O 0.93556 0.05087 0.54554 0.0
C328 C 0.93819 0.03235 0.51946 0.0
O329 O 0.04675 0.99028 0.56365 0.0
O330 O 0.07916 0.96109 0.52828 0.0
C331 C 0.01101 0.01994 0.61134 0.0
C332 C 0.06882 0.96694 0.55811 0.0
Zn333 Zn 0.47001 0.06831 0.97435 0.0
Zn334 Zn 0.5483 0.99027 0.04411 0.0
Zn335 Zn 0.50957 0.02952 0.00784 0.0
C336 C 0.58973 0.0178 0.99422 0.0
C337 C 0.49903 0.9483 0.01601 0.0
O338 O 0.48484 0.0651 0.04452 0.0
O339 O 0.44417 0.08682 0.01284 0.0
C340 C 0.53558 0.08481 0.95397 0.0
O341 O 0.56127 0.03088 0.98498 0.0
O342 O 0.59151 1.00024 0.02086 0.0
O343 O 0.52587 0.94673 0.03337 0.0
O344 O 0.48869 0.97704 0.00455 0.0
O345 O 0.50601 0.0969 0.95365 0.0
O346 O 0.54166 0.05734 0.97051 0.0
O347 O 0.47061 0.99731 0.98173 0.0
O348 O 0.44604 0.03362 0.94704 0.0
C349 C 0.44934 0.00368 0.9577 0.0
O350 O 0.51108 0.0482 0.06158 0.0
O351 O 0.54112 0.01009 0.08953 0.0
C352 C 0.45787 0.0832 0.04152 0.0
C353 C 0.52435 0.03718 0.0894 0.0
Zn354 Zn 0.56183 0.54936 0.5493 0.0
Zn355 Zn 0.47479 0.47718 0.47423 0.0
Zn356 Zn 0.51784 0.51349 0.51198 0.0
C357 C 0.52104 0.43187 0.50111 0.0
C358 C 0.50519 0.52392 0.43113 0.0
O359 O 0.48896 0.53893 0.55307 0.0
O360 O 0.52851 0.56448 0.58399 0.0
C361 C 0.58294 0.48206 0.55174 0.0
O362 O 0.53413 0.45988 0.51207 0.0
O363 O 0.49331 0.43186 0.48511 0.0
O364 O 0.48641 0.49792 0.42986 0.0
O365 O 0.51825 0.53381 0.45954 0.0
O366 O 0.59265 0.51133 0.56069 0.0
O367 O 0.55568 0.47828 0.53398 0.0
O368 O 0.54292 0.55146 0.47856 0.0
O369 O 0.57556 0.58164 0.51316 0.0
C370 C 0.56418 0.57594 0.48369 0.0
O371 O 0.46653 0.51783 0.53459 0.0
O372 O 0.43282 0.49178 0.4977 0.0
C373 C 0.49767 0.55728 0.57884 0.0
C374 C 0.43668 0.5083 0.52497 0.0
Zn375 Zn 0.05333 0.56636 0.98494 0.0
Zn376 Zn 0.9859 0.4715 0.05539 0.0
Zn377 Zn 0.01996 0.52091 0.02035 0.0
C378 C 0.05392 0.47039 0.07615 0.0
C379 C 0.9779 0.45799 0.98592 0.0
O380 O 0.99559 0.57107 0.02855 0.0
O381 O 0.03013 0.60696 0.00237 0.0
C382 C 0.10066 0.53664 0.02741 0.0
O383 O 0.05627 0.49515 0.05493 0.0
O384 O 0.02592 0.45545 0.08093 0.0
O385 O 0.96968 0.44579 0.01441 0.0
O386 O 0.99639 0.48499 0.98417 0.0
O387 O 0.09908 0.55665 0.00253 0.0
O388 O 0.07362 0.52145 0.03811 0.0
O389 O 0.01755 0.50712 0.96584 0.0
O390 O 0.04127 0.55018 0.93871 0.0
C391 C 0.02638 0.52178 0.93798 0.0
O392 O 0.97979 0.54646 0.04964 0.0
O393 O 0.95596 0.50477 0.07904 0.0
C394 C 0.00397 0.60154 0.02001 0.0
C395 C 0.9581 0.5359 0.07176 0.0
H396 H 0.12412 0.17524 0.38735 0.0
H397 H 0.22385 0.14761 0.42376 0.0
H398 H 0.19834 0.1057 0.46089 0.0
H399 H 0.14782 0.07339 0.47986 0.0
H400 H 0.04851 0.1071 0.45004 0.0
H401 H 0.07395 0.15147 0.41475 0.0
C402 C 0.14069 0.16116 0.40395 0.0
C403 C 0.17634 0.16437 0.40123 0.0
C404 C 0.12584 0.1381 0.42675 0.0
C405 C 0.19654 0.14499 0.42342 0.0
C406 C 0.18194 0.12113 0.44526 0.0
C407 C 0.13189 0.09093 0.46606 0.0
C408 C 0.09649 0.08691 0.46699 0.0
C409 C 0.14667 0.11682 0.44644 0.0
C410 C 0.07587 0.10985 0.44951 0.0
C411 C 0.09041 0.13503 0.42922 0.0
H412 H 0.34676 0.91544 0.8729 0.0
H413 H 0.42647 0.84166 0.88224 0.0
H414 H 0.45832 0.8803 0.91936 0.0
H415 H 0.46578 0.93751 0.94463 0.0
H416 H 0.38535 0.01038 0.93467 0.0
H417 H 0.35149 0.96958 0.90252 0.0
C418 C 0.37072 0.90739 0.88362 0.0
C419 C 0.38422 0.87574 0.87455 0.0
C420 C 0.38897 0.92977 0.90464 0.0
C421 C 0.41568 0.86611 0.88834 0.0
C422 C 0.43389 0.88816 0.90965 0.0
C423 C 0.44047 0.94401 0.93625 0.0
C424 C 0.42803 0.97684 0.94215 0.0
C425 C 0.42114 0.92042 0.91735 0.0
C426 C 0.39555 0.98531 0.93028 0.0
C427 C 0.37614 0.962 0.9119 0.0
H428 H 0.63782 0.36018 0.63693 0.0
H429 H 0.73084 0.41745 0.62575 0.0
H430 H 0.70286 0.45605 0.58669 0.0
H431 H 0.65046 0.47763 0.56152 0.0
H432 H 0.55723 0.4211 0.57258 0.0
H433 H 0.58702 0.37742 0.60475 0.0
C434 C 0.65222 0.38056 0.62529 0.0
C435 C 0.68623 0.38631 0.63492 0.0
C436 C 0.6359 0.40284 0.6028 0.0
C437 C 0.70442 0.41295 0.61955 0.0
C438 C 0.68848 0.43499 0.59707 0.0
C439 C 0.63684 0.45537 0.57042 0.0
C440 C 0.60176 0.45254 0.56474 0.0
C441 C 0.65398 0.43086 0.58948 0.0
C442 C 0.58436 0.42358 0.57621 0.0
C443 C 0.60132 0.39882 0.59498 0.0
H444 H 0.87008 0.65129 0.13959 0.0
H445 H 0.89874 0.59611 0.22942 0.0
H446 H 0.9291 0.5549 0.19469 0.0
H447 H 0.94884 0.53534 0.13916 0.0
H448 H 0.92113 0.58956 0.0489 0.0
H449 H 0.88942 0.63078 0.08314 0.0
C450 C 0.88278 0.63006 0.15139 0.0
C451 C 0.8823 0.62671 0.18697 0.0
C452 C 0.90065 0.60665 0.13123 0.0
C453 C 0.89905 0.59931 0.2021 0.0
C454 C 0.91634 0.57573 0.18228 0.0
C455 C 0.9357 0.55614 0.12704 0.0
C456 C 0.93786 0.56014 0.0917 0.0
C457 C 0.91752 0.5793 0.14691 0.0
C458 C 0.92081 0.58702 0.07618 0.0
C459 C 0.90233 0.61017 0.09575 0.0
H460 H 0.39907 0.16995 0.16271 0.0
H461 H 0.30579 0.1297 0.12099 0.0
H462 H 0.33771 0.09571 0.08052 0.0
H463 H 0.3915 0.08033 0.05433 0.0
H464 H 0.48518 0.121 0.09357 0.0
H465 H 0.45405 0.15106 0.13845 0.0
C466 C 0.38582 0.15337 0.14505 0.0
C467 C 0.35005 0.15281 0.1445 0.0
C468 C 0.40443 0.13383 0.12162 0.0
C469 C 0.33324 0.13123 0.12143 0.0
C470 C 0.35146 0.11162 0.0984 0.0
C471 C 0.4051 0.09548 0.07302 0.0
C472 C 0.44058 0.09812 0.07117 0.0
C473 C 0.38695 0.11324 0.09784 0.0
C474 C 0.45801 0.11776 0.09533 0.0
C475 C 0.4401 0.13536 0.12056 0.0
H476 H 0.15747 0.91134 0.67842 0.0
H477 H 0.16153 0.82537 0.61044 0.0
H478 H 0.12063 0.85204 0.57286 0.0
H479 H 0.08869 0.90199 0.55609 0.0
H480 H 0.08462 0.98893 0.62246 0.0
H481 H 0.1195 0.95936 0.66442 0.0
C482 C 0.14887 0.89823 0.65573 0.0
C483 C 0.16311 0.86671 0.64688 0.0
C484 C 0.12532 0.91387 0.63396 0.0
C485 C 0.15164 0.85 0.6174 0.0
C486 C 0.12813 0.86515 0.59594 0.0
C487 C 0.09499 0.91425 0.58001 0.0
C488 C 0.08414 0.94754 0.58621 0.0
C489 C 0.11563 0.89746 0.60344 0.0
C490 C 0.09223 0.9631 0.61735 0.0
C491 C 0.11256 0.94633 0.64113 0.0
H492 H 0.88313 0.41832 0.86518 0.0
H493 H 0.91679 0.31771 0.89232 0.0
H494 H 0.95444 0.34199 0.93476 0.0
H495 H 0.97432 0.39165 0.96785 0.0
H496 H 0.94673 0.49189 0.93522 0.0
H497 H 0.91149 0.46771 0.88994 0.0
C498 C 0.89925 0.40134 0.87932 0.0
C499 C 0.89564 0.36581 0.87582 0.0
C500 C 0.92225 0.41548 0.90277 0.0
C501 C 0.91721 0.34497 0.89519 0.0
C502 C 0.93931 0.35886 0.91935 0.0
C503 C 0.96106 0.40809 0.95034 0.0
C504 C 0.96264 0.44338 0.95495 0.0
C505 C 0.94132 0.39403 0.92402 0.0
C506 C 0.94581 0.4646 0.93203 0.0
C507 C 0.92549 0.45078 0.90633 0.0
H508 H 0.64995 0.6338 0.36262 0.0
H509 H 0.65302 0.72054 0.42975 0.0
H510 H 0.61254 0.69307 0.46766 0.0
H511 H 0.58193 0.64192 0.48525 0.0
H512 H 0.57894 0.55465 0.41918 0.0
H513 H 0.6126 0.5852 0.37673 0.0
C514 C 0.64115 0.64702 0.38511 0.0
C515 C 0.65512 0.67891 0.39369 0.0
C516 C 0.61784 0.63096 0.40699 0.0
C517 C 0.6434 0.69563 0.42299 0.0
C518 C 0.62012 0.68001 0.44464 0.0
C519 C 0.5881 0.62986 0.46124 0.0
C520 C 0.578 0.59614 0.45529 0.0
C521 C 0.6081 0.64727 0.43747 0.0
C522 C 0.58596 0.58078 0.42408 0.0
C523 C 0.60561 0.59812 0.40002 0.0
H524 H 0.17872 0.39158 0.13438 0.0
H525 H 0.11935 0.40138 0.22606 0.0
H526 H 0.07912 0.43736 0.19651 0.0
H527 H 0.05717 0.46039 0.14327 0.0
H528 H 0.11624 0.4526 0.05162 0.0
H529 H 0.16077 0.42228 0.08264 0.0
C530 C 0.15746 0.40225 0.14812 0.0
C531 C 0.15166 0.39301 0.18223 0.0
C532 C 0.1343 0.42316 0.13093 0.0
C533 C 0.12392 0.40718 0.19957 0.0
C534 C 0.10094 0.42792 0.18274 0.0
C535 C 0.08015 0.45257 0.13031 0.0
C536 C 0.08354 0.4584 0.09535 0.0
C537 C 0.10528 0.43511 0.14821 0.0
C538 C 0.11331 0.4484 0.07865 0.0
C539 C 0.13858 0.4309 0.09633 0.0
H540 H 0.65488 0.14767 0.86654 0.0
H541 H 0.60506 0.23984 0.89774 0.0
H542 H 0.56408 0.20709 0.93054 0.0
H543 H 0.54138 0.15252 0.94931 0.0
H544 H 0.58958 0.06005 0.91808 0.0
H545 H 0.63293 0.09249 0.88722 0.0
C546 C 0.63529 0.16058 0.88082 0.0
C547 C 0.63287 0.1962 0.8793 0.0
C548 C 0.61174 0.14153 0.89987 0.0
C549 C 0.60713 0.21247 0.89781 0.0
C550 C 0.58379 0.19378 0.91679 0.0
C551 C 0.56148 0.13947 0.93583 0.0
C552 C 0.5628 0.10389 0.93645 0.0
C553 C 0.58565 0.15835 0.91772 0.0
C554 C 0.5889 0.08734 0.91895 0.0
C555 C 0.61329 0.10596 0.9009 0.0
H556 H 0.87185 0.88736 0.41619 0.0
H557 H 0.93804 0.8789 0.32936 0.0
H558 H 0.97775 0.91918 0.3551 0.0
H559 H 0.99601 0.9529 0.40415 0.0
H560 H 0.93171 0.95938 0.49248 0.0
H561 H 0.88854 0.92467 0.46406 0.0
C562 C 0.89467 0.89487 0.4027 0.0
C563 C 0.90219 0.87995 0.37108 0.0
C564 C 0.91772 0.9177 0.41794 0.0
C565 C 0.93196 0.88969 0.35395 0.0
C566 C 0.95464 0.91274 0.36861 0.0
C567 C 0.97238 0.94701 0.41704 0.0
C568 C 0.96691 0.95903 0.45022 0.0
C569 C 0.94819 0.92624 0.40092 0.0
C570 C 0.93621 0.95113 0.46663 0.0
C571 C 0.91168 0.93093 0.45052 0.0
H572 H 0.41758 0.63715 0.69064 0.0
H573 H 0.34766 0.65018 0.60755 0.0
H574 H 0.38102 0.61135 0.57246 0.0
H575 H 0.4343 0.57983 0.56318 0.0
H576 H 0.50461 0.56867 0.64625 0.0
H577 H 0.46718 0.60097 0.68339 0.0
C578 C 0.40954 0.63134 0.6649 0.0
C579 C 0.38051 0.64693 0.65157 0.0
C580 C 0.42916 0.60963 0.64473 0.0
C581 C 0.36993 0.63852 0.61845 0.0
C582 C 0.38914 0.61652 0.59827 0.0
C583 C 0.44087 0.58365 0.58967 0.0
C584 C 0.47209 0.57184 0.60201 0.0
C585 C 0.41937 0.60272 0.61082 0.0
C586 C 0.48073 0.57764 0.63617 0.0
C587 C 0.45938 0.59612 0.65741 0.0
H588 H 0.00451 0.9738 0.76215 0.0
H589 H 0.95641 0.88736 0.71409 0.0
H590 H 0.97461 0.90754 0.65869 0.0
H591 H 0.99531 0.95453 0.62311 0.0
H592 H 0.03505 0.04476 0.67088 0.0
H593 H 0.02912 0.01858 0.72687 0.0
C594 C 0.99794 0.95929 0.73963 0.0
C595 C 0.97855 0.92932 0.74259 0.0
C596 C 0.0069 0.97195 0.70755 0.0
C597 C 0.97144 0.91038 0.71298 0.0
C598 C 0.98157 0.92209 0.68107 0.0
C599 C 0.00359 0.9679 0.64581 0.0
C600 C 0.01572 1.0013 0.64319 0.0
C601 C 0.99814 0.95346 0.67795 0.0
C602 C 0.0258 0.01889 0.67256 0.0
C603 C 0.02216 0.00403 0.7045 0.0
H604 H 0.56999 0.12611 0.21196 0.0
H605 H 0.5248 0.04288 0.26734 0.0
H606 H 0.50376 0.01855 0.21437 0.0
H607 H 0.50409 0.01746 0.15175 0.0
H608 H 0.54749 0.10138 0.09684 0.0
H609 H 0.56207 0.12971 0.15038 0.0
C610 C 0.55471 0.10319 0.21279 0.0
C611 C 0.54982 0.08604 0.24381 0.0
C612 C 0.54217 0.08953 0.18224 0.0
C613 C 0.53009 0.05614 0.24388 0.0
C614 C 0.51773 0.04229 0.21358 0.0
C615 C 0.51576 0.04245 0.15169 0.0
C616 C 0.52437 0.05765 0.12065 0.0
C617 C 0.52452 0.05822 0.18253 0.0
C618 C 0.54004 0.08966 0.12057 0.0
C619 C 0.54872 0.10561 0.15114 0.0
H620 H 0.4955 0.57792 0.28292 0.0
H621 H 0.45132 0.66264 0.33579 0.0
H622 H 0.46898 0.63884 0.39037 0.0
H623 H 0.4896 0.58984 0.42305 0.0
H624 H 0.52705 0.50223 0.36976 0.0
H625 H 0.52049 0.53136 0.31539 0.0
C626 C 0.49053 0.59152 0.30639 0.0
C627 C 0.47215 0.62189 0.3055 0.0
C628 C 0.49953 0.577 0.33759 0.0
C629 C 0.46531 0.6391 0.33601 0.0
C630 C 0.47538 0.62549 0.36715 0.0
C631 C 0.4972 0.57768 0.39951 0.0
C632 C 0.50894 0.54418 0.40011 0.0
C633 C 0.49148 0.59389 0.3683 0.0
C634 C 0.51812 0.52815 0.36964 0.0
C635 C 0.51413 0.54469 0.33863 0.0
H636 H 0.03721 0.48088 0.78538 0.0
H637 H 0.07744 0.39027 0.8305 0.0
H638 H 0.05937 0.40962 0.88683 0.0
H639 H 0.04003 0.45624 0.92373 0.0
H640 H 0.0061 0.54938 0.87853 0.0
H641 H 0.0128 0.52499 0.82176 0.0
C642 C 0.04124 0.46506 0.80749 0.0
C643 C 0.05871 0.43434 0.804 0.0
C644 C 0.032 0.47697 0.83979 0.0
C645 C 0.06425 0.41417 0.83278 0.0
C646 C 0.05394 0.42523 0.86491 0.0
C647 C 0.03321 0.47072 0.90139 0.0
C648 C 0.02265 0.50445 0.90504 0.0
C649 C 0.0389 0.45714 0.86886 0.0
C650 C 0.01433 0.52333 0.8761 0.0
C651 C 0.01835 0.50947 0.84371 0.0
H652 H 0.70569 0.96948 0.89909 0.0
H653 H 0.76617 0.00811 0.98205 0.0
H654 H 0.71578 0.03328 0.00779 0.0
H655 H 0.65346 0.03646 0.01097 0.0
H656 H 0.59284 0.99621 0.92909 0.0
H657 H 0.64419 0.98008 0.89823 0.0
C658 C 0.70782 0.9839 0.92252 0.0
C659 C 0.73943 0.98659 0.93892 0.0
C660 C 0.6787 0.99799 0.93731 0.0
C661 C 0.74209 0.00573 0.96898 0.0
C662 C 0.71326 0.01995 0.98379 0.0
C663 C 0.6517 0.02528 0.98581 0.0
C664 C 0.61964 0.01803 0.97193 0.0
C665 C 0.68129 0.01524 0.96877 0.0
C666 C 0.61737 0.00276 0.93977 0.0
C667 C 0.64669 0.99314 0.92238 0.0
H668 H 0.82377 0.05154 0.41154 0.0
H669 H 0.76165 0.04271 0.50124 0.0
H670 H 0.81125 0.02669 0.53465 0.0
H671 H 0.87328 0.02379 0.53986 0.0
H672 H 0.93568 0.03249 0.45037 0.0
H673 H 0.88503 0.03917 0.41515 0.0
C674 C 0.82111 0.0454 0.43825 0.0
C675 C 0.78931 0.04864 0.45408 0.0
C676 C 0.84978 0.03639 0.45731 0.0
C677 C 0.78592 0.0403 0.48856 0.0
C678 C 0.81429 0.03139 0.5077 0.0
C679 C 0.87565 0.02634 0.51253 0.0
C680 C 0.90802 0.02793 0.49769 0.0
C681 C 0.8465 0.03059 0.4926 0.0
C682 C 0.91094 0.03103 0.46229 0.0
C683 C 0.88202 0.03518 0.44221 0.0
H684 H 0.2276 0.54702 0.12353 0.0
H685 H 0.27484 0.56971 0.02703 0.0
H686 H 0.22302 0.5543 0.99759 0.0
H687 H 0.16246 0.54204 0.99919 0.0
H688 H 0.11251 0.52554 0.09515 0.0
H689 H 0.16703 0.53051 0.12471 0.0
C690 C 0.22664 0.54851 0.09606 0.0
C691 C 0.25535 0.55977 0.07775 0.0
C692 C 0.1961 0.54084 0.0791 0.0
C693 C 0.25363 0.56071 0.04203 0.0
C694 C 0.22375 0.55225 0.02504 0.0
C695 C 0.16358 0.53901 0.02655 0.0
C696 C 0.13359 0.53325 0.04495 0.0
C697 C 0.19462 0.54335 0.04335 0.0
C698 C 0.13536 0.5293 0.08035 0.0
C699 C 0.16648 0.53262 0.09727 0.0
H700 H 0.3199 0.48536 0.62966 0.0
H701 H 0.25997 0.50586 0.5405 0.0
H702 H 0.31096 0.52275 0.50954 0.0
H703 H 0.37304 0.52295 0.50526 0.0
H704 H 0.43352 0.50202 0.59381 0.0
H705 H 0.38198 0.49481 0.62787 0.0
C706 C 0.31806 0.49414 0.60365 0.0
C707 C 0.28636 0.49396 0.5872 0.0
C708 C 0.34757 0.50356 0.5859 0.0
C709 C 0.28409 0.50583 0.55369 0.0
C710 C 0.31326 0.51527 0.5359 0.0
C711 C 0.37484 0.51764 0.53223 0.0
C712 C 0.40683 0.51271 0.54704 0.0
C713 C 0.3452 0.51298 0.55136 0.0
C714 C 0.40908 0.50605 0.58197 0.0
C715 C 0.37962 0.5016 0.60133 0.0
H716 H 0.94645 0.74683 0.01168 0.0
H717 H 0.87701 0.69535 0.94399 0.0
H718 H 0.89826 0.64054 0.96284 0.0
H719 H 0.94328 0.60822 0.99074 0.0
H720 H 0.01503 0.65957 0.05562 0.0
H721 H 0.98577 0.71341 0.04655 0.0
C722 C 0.9353 0.72359 0.00182 0.0
C723 C 0.91061 0.72512 0.97606 0.0
C724 C 0.94818 0.69215 0.01226 0.0
C725 C 0.89652 0.6948 0.96336 0.0
C726 C 0.90861 0.66346 0.97416 0.0
C727 C 0.95146 0.63099 0.00407 0.0
C728 C 0.98065 0.63004 0.0244 0.0
C729 C 0.93537 0.66191 0.99752 0.0
C730 C 0.99205 0.65977 0.04052 0.0
C731 C 0.97559 0.69055 0.03496 0.0
H732 H 0.40228 0.8275 0.04846 0.0
H733 H 0.49439 0.77218 0.02955 0.0
H734 H 0.52158 0.82349 0.00775 0.0
H735 H 0.52204 0.88548 0.00357 0.0
H736 H 0.43041 0.94146 0.02224 0.0
H737 H 0.39971 0.88845 0.03374 0.0
C738 C 0.42805 0.82667 0.03886 0.0
C739 C 0.44655 0.79635 0.04103 0.0
C740 C 0.44358 0.85635 0.02652 0.0
C741 C 0.47973 0.79527 0.02813 0.0
C742 C 0.49533 0.82462 0.01586 0.0
C743 C 0.4951 0.8859 0.00923 0.0
C744 C 0.47852 0.91713 0.01263 0.0
C745 C 0.47794 0.85551 0.01628 0.0
C746 C 0.44361 0.9176 0.01956 0.0
C747 C 0.4262 0.88735 0.02647 0.0
H748 H 0.11926 0.23392 0.55434 0.0
H749 H 0.02675 0.28537 0.52701 0.0
H750 H 0.99997 0.23121 0.51363 0.0
H751 H 1.00019 0.16905 0.51822 0.0
H752 H 0.09338 0.11768 0.5416 0.0
H753 H 0.12304 0.17223 0.54652 0.0
C754 C 0.09363 0.23364 0.54439 0.0
C755 C 0.07475 0.26387 0.54303 0.0
C756 C 0.07845 0.20236 0.5361 0.0
C757 C 0.04153 0.26253 0.52986 0.0
C758 C 0.02619 0.23153 0.5219 0.0
C759 C 0.0272 0.1699 0.52354 0.0
C760 C 0.04456 0.13969 0.53011 0.0
C761 C 0.04394 0.20125 0.52639 0.0
C762 C 0.07957 0.14077 0.53652 0.0
C763 C 0.09642 0.17194 0.53962 0.0
H764 H 0.56739 0.28128 0.48978 0.0
H765 H 0.65606 0.33017 0.44811 0.0
H766 H 0.63458 0.38563 0.46586 0.0
H767 H 0.58677 0.42044 0.48582 0.0
H768 H 0.49548 0.37133 0.52109 0.0
H769 H 0.52184 0.31576 0.51416 0.0
C770 C 0.5823 0.30406 0.48536 0.0
C771 C 0.61314 0.30185 0.46768 0.0
C772 C 0.56914 0.33581 0.49438 0.0
C773 C 0.63213 0.33146 0.46157 0.0
C774 C 0.61984 0.36309 0.47166 0.0
C775 C 0.57313 0.39753 0.49281 0.0
C776 C 0.5394 0.39969 0.50399 0.0
C777 C 0.58784 0.36567 0.48704 0.0
C778 C 0.52155 0.37002 0.51247 0.0
C779 C 0.53653 0.33832 0.50833 0.0
loop_
_geom_bond_atom_site_label_1
_geom_bond_atom_site_label_2
_geom_bond_distance
_geom_bond_site_symmetry_2
_ccdc_geom_bond_type
C0 C1 1.386 . S
C0 C2 1.397 . S
C0 H24 0.931 . S
C1 C0 1.386 . S
C1 C5 1.397 . S
C2 C0 1.397 . S
C2 C3 1.384 . S
C2 H25 0.930 . S
C3 C2 1.384 . S
C3 C4 1.377 . S
C3 C6 1.481 . S
C4 C3 1.377 . S
C4 C5 1.389 . S
C4 H26 0.929 . S
C5 C1 1.397 . S
C5 C4 1.389 . S
C5 H27 0.931 . S
C6 C3 1.481 . S
C6 C7 1.387 . S
C6 C11 1.390 . S
C7 C6 1.387 . S
C7 C8 1.401 . S
C7 H28 0.930 . S
C8 C7 1.401 . S
C8 C9 1.376 . S
C8 C17 1.511 . S
C9 C8 1.376 . S
C9 C10 1.392 . S
C9 H30 0.931 . S
C10 C9 1.392 . S
C10 C11 1.361 . S
C10 C12 1.500 . S
C11 C6 1.390 . S
C11 C10 1.361 . S
C11 H29 0.931 . S
C12 C10 1.500 . S
C12 C13 1.371 . S
C12 C14 1.365 . S
C13 C12 1.371 . S
C13 C23 1.386 . S
C13 H31 0.931 . S
C14 C12 1.365 . S
C14 C15 1.409 . S
C14 H32 0.929 . S
C15 C14 1.409 . S
C15 C16 1.380 . S
C15 H33 0.930 . S
C16 C15 1.380 . S
C16 C23 1.357 . S
C17 C8 1.511 . S
C17 C18 1.341 . S
C17 C19 1.371 . S
C18 C17 1.341 . S
C18 C22 1.394 . S
C18 H34 0.930 . S
C19 C17 1.371 . S
C19 C20 1.392 . S
C19 H35 0.931 . S
C20 C19 1.392 . S
C20 C21 1.331 . S
C20 H38 0.932 . S
C21 C20 1.331 . S
C21 C22 1.336 . S
C22 C18 1.394 . S
C22 C21 1.336 . S
C22 H37 0.929 . S
C23 C13 1.386 . S
C23 C16 1.357 . S
C23 H36 0.928 . S
H24 C0 0.931 . S
H25 C2 0.930 . S
H26 C4 0.929 . S
H27 C5 0.931 . S
H28 C7 0.930 . S
H29 C11 0.931 . S
H30 C9 0.931 . S
H31 C13 0.931 . S
H32 C14 0.929 . S
H33 C15 0.930 . S
H34 C18 0.930 . S
H35 C19 0.931 . S
H36 C23 0.928 . S
H37 C22 0.929 . S
H38 C20 0.932 . S
C39 C40 1.386 . S
C39 C41 1.397 . S
C39 H63 0.931 . S
C40 C39 1.386 . S
C40 C44 1.397 . S
C41 C39 1.397 . S
C41 C42 1.384 . S
C41 H64 0.930 . S
C42 C41 1.384 . S
C42 C43 1.377 . S
C42 C45 1.481 . S
C43 C42 1.377 . S
C43 C44 1.389 . S
C43 H65 0.929 . S
C44 C40 1.397 . S
C44 C43 1.389 . S
C44 H66 0.931 . S
C45 C42 1.481 . S
C45 C46 1.387 . S
C45 C50 1.390 . S
C46 C45 1.387 . S
C46 C47 1.401 . S
C46 H67 0.930 . S
C47 C46 1.401 . S
C47 C48 1.376 . S
C47 C56 1.511 . S
C48 C47 1.376 . S
C48 C49 1.392 . S
C48 H69 0.931 . S
C49 C48 1.392 . S
C49 C50 1.361 . S
C49 C51 1.500 . S
C50 C45 1.390 . S
C50 C49 1.361 . S
C50 H68 0.931 . S
C51 C49 1.500 . S
C51 C52 1.371 . S
C51 C53 1.365 . S
C52 C51 1.371 . S
C52 C62 1.386 . S
C52 H70 0.931 . S
C53 C51 1.365 . S
C53 C54 1.409 . S
C53 H71 0.929 . S
C54 C53 1.409 . S
C54 C55 1.380 . S
C54 H72 0.930 . S
C55 C54 1.380 . S
C55 C62 1.357 . S
C56 C47 1.511 . S
C56 C57 1.341 . S
C56 C58 1.371 . S
C57 C56 1.341 . S
C57 C61 1.394 . S
C57 H73 0.930 . S
C58 C56 1.371 . S
C58 C59 1.392 . S
C58 H74 0.931 . S
C59 C58 1.392 . S
C59 C60 1.331 . S
C59 H77 0.932 . S
C60 C59 1.331 . S
C60 C61 1.336 . S
C61 C57 1.394 . S
C61 C60 1.336 . S
C61 H76 0.929 . S
C62 C52 1.386 . S
C62 C55 1.357 . S
C62 H75 0.928 . S
H63 C39 0.931 . S
H64 C41 0.930 . S
H65 C43 0.929 . S
H66 C44 0.931 . S
H67 C46 0.930 . S
H68 C50 0.931 . S
H69 C48 0.931 . S
H70 C52 0.931 . S
H71 C53 0.929 . S
H72 C54 0.930 . S
H73 C57 0.930 . S
H74 C58 0.931 . S
H75 C62 0.928 . S
H76 C61 0.929 . S
H77 C59 0.932 . S
C78 C79 1.386 . S
C78 C80 1.397 . S
C78 H102 0.931 . S
C79 C78 1.386 . S
C79 C83 1.397 . S
C80 C78 1.397 . S
C80 C81 1.384 . S
C80 H103 0.930 . S
C81 C80 1.384 . S
C81 C82 1.377 . S
C81 C84 1.481 . S
C82 C81 1.377 . S
C82 C83 1.389 . S
C82 H104 0.929 . S
C83 C79 1.397 . S
C83 C82 1.389 . S
C83 H105 0.931 . S
C84 C81 1.481 . S
C84 C85 1.387 . S
C84 C89 1.390 . S
C85 C84 1.387 . S
C85 C86 1.401 . S
C85 H106 0.930 . S
C86 C85 1.401 . S
C86 C87 1.376 . S
C86 C95 1.511 . S
C87 C86 1.376 . S
C87 C88 1.392 . S
C87 H108 0.931 . S
C88 C87 1.392 . S
C88 C89 1.361 . S
C88 C90 1.500 . S
C89 C84 1.390 . S
C89 C88 1.361 . S
C89 H107 0.931 . S
C90 C88 1.500 . S
C90 C91 1.371 . S
C90 C92 1.365 . S
C91 C90 1.371 . S
C91 C101 1.386 . S
C91 H109 0.931 . S
C92 C90 1.365 . S
C92 C93 1.409 . S
C92 H110 0.929 . S
C93 C92 1.409 . S
C93 C94 1.380 . S
C93 H111 0.930 . S
C94 C93 1.380 . S
C94 C101 1.357 . S
C95 C86 1.511 . S
C95 C96 1.341 . S
C95 C97 1.371 . S
C96 C95 1.341 . S
C96 C100 1.394 . S
C96 H112 0.930 . S
C97 C95 1.371 . S
C97 C98 1.392 . S
C97 H113 0.931 . S
C98 C97 1.392 . S
C98 C99 1.331 . S
C98 H116 0.932 . S
C99 C98 1.331 . S
C99 C100 1.336 . S
C100 C96 1.394 . S
C100 C99 1.336 . S
C100 H115 0.929 . S
C101 C91 1.386 . S
C101 C94 1.357 . S
C101 H114 0.928 . S
H102 C78 0.931 . S
H103 C80 0.930 . S
H104 C82 0.929 . S
H105 C83 0.931 . S
H106 C85 0.930 . S
H107 C89 0.931 . S
H108 C87 0.931 . S
H109 C91 0.931 . S
H110 C92 0.929 . S
H111 C93 0.930 . S
H112 C96 0.930 . S
H113 C97 0.931 . S
H114 C101 0.928 . S
H115 C100 0.929 . S
H116 C98 0.932 . S
C117 C118 1.386 . S
C117 C119 1.397 . S
C117 H141 0.931 . S
C118 C117 1.386 . S
C118 C122 1.397 . S
C119 C117 1.397 . S
C119 C120 1.384 . S
C119 H142 0.930 . S
C120 C119 1.384 . S
C120 C121 1.377 . S
C120 C123 1.481 . S
C121 C120 1.377 . S
C121 C122 1.389 . S
C121 H143 0.929 . S
C122 C118 1.397 . S
C122 C121 1.389 . S
C122 H144 0.931 . S
C123 C120 1.481 . S
C123 C124 1.387 . S
C123 C128 1.390 . S
C124 C123 1.387 . S
C124 C125 1.401 . S
C124 H145 0.930 . S
C125 C124 1.401 . S
C125 C126 1.376 . S
C125 C134 1.511 . S
C126 C125 1.376 . S
C126 C127 1.392 . S
C126 H147 0.931 . S
C127 C126 1.392 . S
C127 C128 1.361 . S
C127 C129 1.500 . S
C128 C123 1.390 . S
C128 C127 1.361 . S
C128 H146 0.931 . S
C129 C127 1.500 . S
C129 C130 1.371 . S
C129 C131 1.365 . S
C130 C129 1.371 . S
C130 C140 1.386 . S
C130 H148 0.931 . S
C131 C129 1.365 . S
C131 C132 1.409 . S
C131 H149 0.929 . S
C132 C131 1.409 . S
C132 C133 1.380 . S
C132 H150 0.930 . S
C133 C132 1.380 . S
C133 C140 1.357 . S
C134 C125 1.511 . S
C134 C135 1.341 . S
C134 C136 1.371 . S
C135 C134 1.341 . S
C135 C139 1.394 . S
C135 H151 0.930 . S
C136 C134 1.371 . S
C136 C137 1.392 . S
C136 H152 0.931 . S
C137 C136 1.392 . S
C137 C138 1.331 . S
C137 H155 0.932 . S
C138 C137 1.331 . S
C138 C139 1.336 . S
C139 C135 1.394 . S
C139 C138 1.336 . S
C139 H154 0.929 . S
C140 C130 1.386 . S
C140 C133 1.357 . S
C140 H153 0.928 . S
H141 C117 0.931 . S
H142 C119 0.930 . S
H143 C121 0.929 . S
H144 C122 0.931 . S
H145 C124 0.930 . S
H146 C128 0.931 . S
H147 C126 0.931 . S
H148 C130 0.931 . S
H149 C131 0.929 . S
H150 C132 0.930 . S
H151 C135 0.930 . S
H152 C136 0.931 . S
H153 C140 0.928 . S
H154 C139 0.929 . S
H155 C137 0.932 . S
C156 C157 1.386 . S
C156 C158 1.397 . S
C156 H180 0.931 . S
C157 C156 1.386 . S
C157 C161 1.397 1_565 S
C158 C156 1.397 . S
C158 C159 1.384 . S
C158 H181 0.930 . S
C159 C158 1.384 . S
C159 C160 1.377 . S
C159 C162 1.481 . S
C160 C159 1.377 . S
C160 C161 1.389 1_565 S
C160 H182 0.929 1_565 S
C161 C157 1.397 1_545 S
C161 C160 1.389 1_545 S
C161 H183 0.931 . S
C162 C159 1.481 . S
C162 C163 1.387 . S
C162 C167 1.390 . S
C163 C162 1.387 . S
C163 C164 1.401 . S
C163 H184 0.930 . S
C164 C163 1.401 . S
C164 C165 1.376 . S
C164 C173 1.511 . S
C165 C164 1.376 . S
C165 C166 1.392 . S
C165 H186 0.931 . S
C166 C165 1.392 . S
C166 C167 1.361 . S
C166 C168 1.500 . S
C167 C162 1.390 . S
C167 C166 1.361 . S
C167 H185 0.931 . S
C168 C166 1.500 . S
C168 C169 1.371 . S
C168 C170 1.365 . S
C169 C168 1.371 . S
C169 C179 1.386 . S
C169 H187 0.931 . S
C170 C168 1.365 . S
C170 C171 1.409 1_565 S
C170 H188 0.929 1_565 S
C171 C170 1.409 1_545 S
C171 C172 1.380 1_545 S
C171 H189 0.930 . S
C172 C171 1.380 1_565 S
C172 C179 1.357 . S
C173 C164 1.511 . S
C173 C174 1.341 . S
C173 C175 1.371 . S
C174 C173 1.341 . S
C174 C178 1.394 . S
C174 H190 0.930 . S
C175 C173 1.371 . S
C175 C176 1.392 1_556 S
C175 H191 0.931 1_556 S
C176 C175 1.392 1_554 S
C176 C177 1.331 1_554 S
C176 H194 0.932 . S
C177 C176 1.331 1_556 S
C177 C178 1.336 . S
C178 C174 1.394 . S
C178 C177 1.336 . S
C178 H193 0.929 1_655 S
C179 C169 1.386 . S
C179 C172 1.357 . S
C179 H192 0.928 1_556 S
H180 C156 0.931 . S
H181 C158 0.930 . S
H182 C160 0.929 1_545 S
H183 C161 0.931 . S
H184 C163 0.930 . S
H185 C167 0.931 . S
H186 C165 0.931 . S
H187 C169 0.931 . S
H188 C170 0.929 1_545 S
H189 C171 0.930 . S
H190 C174 0.930 . S
H191 C175 0.931 1_554 S
H192 C179 0.928 1_554 S
H193 C178 0.929 1_455 S
H194 C176 0.932 . S
C195 C196 1.386 . S
C195 C197 1.397 . S
C195 H219 0.931 . S
C196 C195 1.386 . S
C196 C200 1.397 . S
C197 C195 1.397 . S
C197 C198 1.384 . S
C197 H220 0.930 . S
C198 C197 1.384 . S
C198 C199 1.377 . S
C198 C201 1.481 . S
C199 C198 1.377 . S
C199 C200 1.389 . S
C199 H221 0.929 . S
C200 C196 1.397 . S
C200 C199 1.389 . S
C200 H222 0.931 . S
C201 C198 1.481 . S
C201 C202 1.387 . S
C201 C206 1.390 . S
C202 C201 1.387 . S
C202 C203 1.401 . S
C202 H223 0.930 . S
C203 C202 1.401 . S
C203 C204 1.376 . S
C203 C212 1.511 . S
C204 C203 1.376 . S
C204 C205 1.392 . S
C204 H225 0.931 . S
C205 C204 1.392 . S
C205 C206 1.361 . S
C205 C207 1.500 . S
C206 C201 1.390 . S
C206 C205 1.361 . S
C206 H224 0.931 . S
C207 C205 1.500 . S
C207 C208 1.371 . S
C207 C209 1.365 . S
C208 C207 1.371 . S
C208 C218 1.386 . S
C208 H226 0.931 . S
C209 C207 1.365 . S
C209 C210 1.409 . S
C209 H227 0.929 . S
C210 C209 1.409 . S
C210 C211 1.380 . S
C210 H228 0.930 . S
C211 C210 1.380 . S
C211 C218 1.357 . S
C212 C203 1.511 . S
C212 C213 1.341 . S
C212 C214 1.371 . S
C213 C212 1.341 . S
C213 C217 1.394 . S
C213 H229 0.930 . S
C214 C212 1.371 . S
C214 C215 1.392 . S
C214 H230 0.931 . S
C215 C214 1.392 . S
C215 C216 1.331 . S
C215 H233 0.932 . S
C216 C215 1.331 . S
C216 C217 1.336 . S
C217 C213 1.394 . S
C217 C216 1.336 . S
C217 H232 0.929 . S
C218 C208 1.386 . S
C218 C211 1.357 . S
C218 H231 0.928 . S
H219 C195 0.931 . S
H220 C197 0.930 . S
H221 C199 0.929 . S
H222 C200 0.931 . S
H223 C202 0.930 . S
H224 C206 0.931 . S
H225 C204 0.931 . S
H226 C208 0.931 . S
H227 C209 0.929 . S
H228 C210 0.930 . S
H229 C213 0.930 . S
H230 C214 0.931 . S
H231 C218 0.928 . S
H232 C217 0.929 . S
H233 C215 0.932 . S
C234 C235 1.386 . S
C234 C236 1.397 . S
C234 H258 0.931 . S
C235 C234 1.386 . S
C235 C239 1.397 . S
C236 C234 1.397 . S
C236 C237 1.384 . S
C236 H259 0.930 . S
C237 C236 1.384 . S
C237 C238 1.377 . S
C237 C240 1.481 . S
C238 C237 1.377 . S
C238 C239 1.389 . S
C238 H260 0.929 . S
C239 C235 1.397 . S
C239 C238 1.389 . S
C239 H261 0.931 1_554 S
C240 C237 1.481 . S
C240 C241 1.387 . S
C240 C245 1.390 . S
C241 C240 1.387 . S
C241 C242 1.401 . S
C241 H262 0.930 . S
C242 C241 1.401 . S
C242 C243 1.376 . S
C242 C251 1.511 . S
C243 C242 1.376 . S
C243 C244 1.392 . S
C243 H264 0.931 . S
C244 C243 1.392 . S
C244 C245 1.361 . S
C244 C246 1.500 . S
C245 C240 1.390 . S
C245 C244 1.361 . S
C245 H263 0.931 . S
C246 C244 1.500 . S
C246 C247 1.371 . S
C246 C248 1.365 . S
C247 C246 1.371 . S
C247 C257 1.386 . S
C247 H265 0.931 . S
C248 C246 1.365 . S
C248 C249 1.409 . S
C248 H266 0.929 . S
C249 C248 1.409 . S
C249 C250 1.380 . S
C249 H267 0.930 . S
C250 C249 1.380 . S
C250 C257 1.357 . S
C251 C242 1.511 . S
C251 C252 1.341 . S
C251 C253 1.371 . S
C252 C251 1.341 . S
C252 C256 1.394 . S
C252 H268 0.930 . S
C253 C251 1.371 . S
C253 C254 1.392 . S
C253 H269 0.931 . S
C254 C253 1.392 . S
C254 C255 1.331 . S
C254 H272 0.932 . S
C255 C254 1.331 . S
C255 C256 1.336 . S
C256 C252 1.394 . S
C256 C255 1.336 . S
C256 H271 0.929 . S
C257 C247 1.386 . S
C257 C250 1.357 . S
C257 H270 0.928 . S
H258 C234 0.931 . S
H259 C236 0.930 . S
H260 C238 0.929 . S
H261 C239 0.931 1_556 S
H262 C241 0.930 . S
H263 C245 0.931 . S
H264 C243 0.931 . S
H265 C247 0.931 . S
H266 C248 0.929 . S
H267 C249 0.930 . S
H268 C252 0.930 . S
H269 C253 0.931 . S
H270 C257 0.928 . S
H271 C256 0.929 . S
H272 C254 0.932 . S
C273 C274 1.386 . S
C273 C275 1.397 . S
C273 H297 0.931 . S
C274 C273 1.386 . S
C274 C278 1.397 . S
C275 C273 1.397 . S
C275 C276 1.384 . S
C275 H298 0.930 . S
C276 C275 1.384 . S
C276 C277 1.377 . S
C276 C279 1.481 . S
C277 C276 1.377 . S
C277 C278 1.389 . S
C277 H299 0.929 . S
C278 C274 1.397 . S
C278 C277 1.389 . S
C278 H300 0.931 1_455 S
C279 C276 1.481 . S
C279 C280 1.387 . S
C279 C284 1.390 . S
C280 C279 1.387 . S
C280 C281 1.401 . S
C280 H301 0.930 . S
C281 C280 1.401 . S
C281 C282 1.376 . S
C281 C290 1.511 . S
C282 C281 1.376 . S
C282 C283 1.392 . S
C282 H303 0.931 . S
C283 C282 1.392 . S
C283 C284 1.361 . S
C283 C285 1.500 . S
C284 C279 1.390 . S
C284 C283 1.361 . S
C284 H302 0.931 . S
C285 C283 1.500 . S
C285 C286 1.371 . S
C285 C287 1.365 . S
C286 C285 1.371 . S
C286 C296 1.386 . S
C286 H304 0.931 . S
C287 C285 1.365 . S
C287 C288 1.409 . S
C287 H305 0.929 . S
C288 C287 1.409 . S
C288 C289 1.380 . S
C288 H306 0.930 . S
C289 C288 1.380 . S
C289 C296 1.357 . S
C290 C281 1.511 . S
C290 C291 1.341 . S
C290 C292 1.371 . S
C291 C290 1.341 . S
C291 C295 1.394 . S
C291 H307 0.930 . S
C292 C290 1.371 . S
C292 C293 1.392 . S
C292 H308 0.931 . S
C293 C292 1.392 . S
C293 C294 1.331 . S
C293 H311 0.932 . S
C294 C293 1.331 . S
C294 C295 1.336 . S
C295 C291 1.394 . S
C295 C294 1.336 . S
C295 H310 0.929 . S
C296 C286 1.386 . S
C296 C289 1.357 . S
C296 H309 0.928 . S
H297 C273 0.931 . S
H298 C275 0.930 . S
H299 C277 0.929 . S
H300 C278 0.931 1_655 S
H301 C280 0.930 . S
H302 C284 0.931 . S
H303 C282 0.931 . S
H304 C286 0.931 . S
H305 C287 0.929 . S
H306 C288 0.930 . S
H307 C291 0.930 . S
H308 C292 0.931 . S
H309 C296 0.928 . S
H310 C295 0.929 . S
H311 C293 0.932 . S
Zn312 O318 1.920 . S
Zn312 O324 1.898 . S
Zn312 O327 1.905 . S
Zn313 O321 1.905 1_565 S
Zn313 O322 1.898 . S
Zn313 O330 1.920 . S
Zn314 O317 2.080 1_455 S
Zn314 O320 2.114 . S
Zn314 O323 2.120 1_445 S
Zn314 O325 2.120 . S
Zn314 O326 2.114 1_455 S
Zn314 O329 2.080 . S
C315 O320 1.166 . S
C315 O321 1.182 . S
C316 O322 1.167 1_655 S
C316 O323 1.299 . S
O317 Zn314 2.080 1_655 S
O317 C331 1.305 . S
O318 Zn312 1.920 . S
O318 C331 1.234 . S
C319 O324 1.167 1_455 S
C319 O325 1.299 . S
O320 Zn314 2.114 . S
O320 C315 1.166 . S
O321 Zn313 1.905 1_545 S
O321 C315 1.182 . S
O322 Zn313 1.898 . S
O322 C316 1.167 1_455 S
O323 Zn314 2.120 1_665 S
O323 C316 1.299 . S
O324 Zn312 1.898 . S
O324 C319 1.167 1_655 S
O325 Zn314 2.120 . S
O325 C319 1.299 . S
O326 Zn314 2.114 1_655 S
O326 C328 1.166 . S
O327 Zn312 1.905 . S
O327 C328 1.182 . S
C328 O326 1.166 . S
C328 O327 1.182 . S
O329 Zn314 2.080 . S
O329 C332 1.305 1_545 S
O330 Zn313 1.920 . S
O330 C332 1.234 . S
C331 O317 1.305 . S
C331 O318 1.234 . S
C332 O329 1.305 1_565 S
C332 O330 1.234 . S
Zn333 O339 1.920 1_556 S
Zn333 O345 1.898 . S
Zn333 O348 1.905 . S
Zn334 O342 1.905 . S
Zn334 O343 1.898 . S
Zn334 O351 1.920 . S
Zn335 O338 2.080 . S
Zn335 O341 2.114 1_545 S
Zn335 O344 2.120 1_545 S
Zn335 O346 2.120 . S
Zn335 O347 2.114 1_544 S
Zn335 O350 2.080 . S
C336 O341 1.166 . S
C336 O342 1.182 . S
C337 O343 1.167 . S
C337 O344 1.299 . S
O338 Zn335 2.080 . S
O338 C352 1.305 . S
O339 Zn333 1.920 1_554 S
O339 C352 1.234 . S
C340 O345 1.167 . S
C340 O346 1.299 1_556 S
O341 Zn335 2.114 1_565 S
O341 C336 1.166 . S
O342 Zn334 1.905 . S
O342 C336 1.182 . S
O343 Zn334 1.898 . S
O343 C337 1.167 . S
O344 Zn335 2.120 1_565 S
O344 C337 1.299 . S
O345 Zn333 1.898 . S
O345 C340 1.167 . S
O346 Zn335 2.120 . S
O346 C340 1.299 1_554 S
O347 Zn335 2.114 1_566 S
O347 C349 1.166 . S
O348 Zn333 1.905 . S
O348 C349 1.182 1_545 S
C349 O347 1.166 . S
C349 O348 1.182 1_565 S
O350 Zn335 2.080 . S
O350 C353 1.305 . S
O351 Zn334 1.920 . S
O351 C353 1.234 1_565 S
C352 O338 1.305 . S
C352 O339 1.234 . S
C353 O350 1.305 . S
C353 O351 1.234 1_545 S
Zn354 O360 1.920 . S
Zn354 O366 1.898 . S
Zn354 O369 1.905 . S
Zn355 O363 1.905 . S
Zn355 O364 1.898 . S
Zn355 O372 1.920 . S
Zn356 O359 2.080 . S
Zn356 O362 2.114 . S
Zn356 O365 2.120 . S
Zn356 O367 2.120 . S
Zn356 O368 2.114 . S
Zn356 O371 2.080 . S
C357 O362 1.166 . S
C357 O363 1.182 . S
C358 O364 1.167 . S
C358 O365 1.299 . S
O359 Zn356 2.080 . S
O359 C373 1.305 . S
O360 Zn354 1.920 . S
O360 C373 1.234 . S
C361 O366 1.167 . S
C361 O367 1.299 . S
O362 Zn356 2.114 . S
O362 C357 1.166 . S
O363 Zn355 1.905 . S
O363 C357 1.182 . S
O364 Zn355 1.898 . S
O364 C358 1.167 . S
O365 Zn356 2.120 . S
O365 C358 1.299 . S
O366 Zn354 1.898 . S
O366 C361 1.167 . S
O367 Zn356 2.120 . S
O367 C361 1.299 . S
O368 Zn356 2.114 . S
O368 C370 1.166 . S
O369 Zn354 1.905 . S
O369 C370 1.182 . S
C370 O368 1.166 . S
C370 O369 1.182 . S
O371 Zn356 2.080 . S
O371 C374 1.305 . S
O372 Zn355 1.920 . S
O372 C374 1.234 . S
C373 O359 1.305 . S
C373 O360 1.234 . S
C374 O371 1.305 . S
C374 O372 1.234 . S
Zn375 O381 1.920 . S
Zn375 O387 1.898 . S
Zn375 O390 1.905 . S
Zn376 O384 1.905 1_655 S
Zn376 O385 1.898 . S
Zn376 O393 1.920 . S
Zn377 O380 2.080 1_554 S
Zn377 O383 2.114 . S
Zn377 O386 2.120 1_454 S
Zn377 O388 2.120 . S
Zn377 O389 2.114 1_554 S
Zn377 O392 2.080 . S
C378 O383 1.166 . S
C378 O384 1.182 . S
C379 O385 1.167 1_556 S
C379 O386 1.299 . S
O380 Zn377 2.080 1_556 S
O380 C394 1.305 . S
O381 Zn375 1.920 . S
O381 C394 1.234 . S
C382 O387 1.167 1_554 S
C382 O388 1.299 . S
O383 Zn377 2.114 . S
O383 C378 1.166 . S
O384 Zn376 1.905 1_455 S
O384 C378 1.182 . S
O385 Zn376 1.898 . S
O385 C379 1.167 1_554 S
O386 Zn377 2.120 1_656 S
O386 C379 1.299 . S
O387 Zn375 1.898 . S
O387 C382 1.167 1_556 S
O388 Zn377 2.120 . S
O388 C382 1.299 . S
O389 Zn377 2.114 1_556 S
O389 C391 1.166 . S
O390 Zn375 1.905 . S
O390 C391 1.182 . S
C391 O389 1.166 . S
C391 O390 1.182 . S
O392 Zn377 2.080 . S
O392 C395 1.305 1_455 S
O393 Zn376 1.920 . S
O393 C395 1.234 . S
C394 O380 1.305 . S
C394 O381 1.234 . S
C395 O392 1.305 1_655 S
C395 O393 1.234 . S
H396 C402 0.930 . S
H397 C405 0.930 . S
H398 C406 0.930 . S
H399 C407 0.930 . S
H400 C410 0.930 . S
H401 C411 0.930 . S
C402 H396 0.930 . S
C402 C403 1.355 . S
C402 C404 1.415 . S
C403 C402 1.355 . S
C403 C405 1.419 . S
C404 C402 1.415 . S
C404 C409 1.425 . S
C404 C411 1.409 . S
C405 H397 0.930 . S
C405 C403 1.419 . S
C405 C406 1.362 . S
C406 H398 0.930 . S
C406 C405 1.362 . S
C406 C409 1.409 . S
C407 H399 0.930 . S
C407 C408 1.355 . S
C407 C409 1.415 . S
C408 C407 1.355 . S
C408 C410 1.419 . S
C409 C404 1.425 . S
C409 C406 1.409 . S
C409 C407 1.415 . S
C410 H400 0.930 . S
C410 C408 1.419 . S
C410 C411 1.362 . S
C411 H401 0.930 . S
C411 C404 1.409 . S
C411 C410 1.362 . S
H412 C418 0.930 . S
H413 C421 0.930 . S
H414 C422 0.930 . S
H415 C423 0.930 . S
H416 C426 0.930 1_545 S
H417 C427 0.930 . S
C418 H412 0.930 . S
C418 C419 1.355 . S
C418 C420 1.415 . S
C419 C418 1.355 . S
C419 C421 1.419 . S
C420 C418 1.415 . S
C420 C425 1.425 . S
C420 C427 1.409 . S
C421 H413 0.930 . S
C421 C419 1.419 . S
C421 C422 1.362 . S
C422 H414 0.930 . S
C422 C421 1.362 . S
C422 C425 1.409 . S
C423 H415 0.930 . S
C423 C424 1.355 . S
C423 C425 1.415 . S
C424 C423 1.355 . S
C424 C426 1.419 . S
C425 C420 1.425 . S
C425 C422 1.409 . S
C425 C423 1.415 . S
C426 H416 0.930 1_565 S
C426 C424 1.419 . S
C426 C427 1.362 . S
C427 H417 0.930 . S
C427 C420 1.409 . S
C427 C426 1.362 . S
H428 C434 0.930 . S
H429 C437 0.930 . S
H430 C438 0.930 . S
H431 C439 0.930 . S
H432 C442 0.930 . S
H433 C443 0.930 . S
C434 H428 0.930 . S
C434 C435 1.355 . S
C434 C436 1.415 . S
C435 C434 1.355 . S
C435 C437 1.419 . S
C436 C434 1.415 . S
C436 C441 1.425 . S
C436 C443 1.409 . S
C437 H429 0.930 . S
C437 C435 1.419 . S
C437 C438 1.362 . S
C438 H430 0.930 . S
C438 C437 1.362 . S
C438 C441 1.409 . S
C439 H431 0.930 . S
C439 C440 1.355 . S
C439 C441 1.415 . S
C440 C439 1.355 . S
C440 C442 1.419 . S
C441 C436 1.425 . S
C441 C438 1.409 . S
C441 C439 1.415 . S
C442 H432 0.930 . S
C442 C440 1.419 . S
C442 C443 1.362 . S
C443 H433 0.930 . S
C443 C436 1.409 . S
C443 C442 1.362 . S
H444 C450 0.930 . S
H445 C453 0.930 . S
H446 C454 0.930 1_455 S
H447 C455 0.930 1_455 S
H448 C458 0.930 . S
H449 C459 0.930 . S
C450 H444 0.930 . S
C450 C451 1.355 . S
C450 C452 1.415 . S
C451 C450 1.355 . S
C451 C453 1.419 . S
C452 C450 1.415 . S
C452 C457 1.425 . S
C452 C459 1.409 . S
C453 H445 0.930 . S
C453 C451 1.419 . S
C453 C454 1.362 . S
C454 H446 0.930 1_655 S
C454 C453 1.362 . S
C454 C457 1.409 . S
C455 H447 0.930 1_655 S
C455 C456 1.355 . S
C455 C457 1.415 . S
C456 C455 1.355 . S
C456 C458 1.419 . S
C457 C452 1.425 . S
C457 C454 1.409 . S
C457 C455 1.415 . S
C458 H448 0.930 . S
C458 C456 1.419 . S
C458 C459 1.362 . S
C459 H449 0.930 . S
C459 C452 1.409 . S
C459 C458 1.362 . S
H460 C466 0.930 . S
H461 C469 0.930 . S
H462 C470 0.930 . S
H463 C471 0.930 . S
H464 C474 0.930 . S
H465 C475 0.930 . S
C466 H460 0.930 . S
C466 C467 1.355 . S
C466 C468 1.415 . S
C467 C466 1.355 . S
C467 C469 1.419 . S
C468 C466 1.415 . S
C468 C473 1.425 . S
C468 C475 1.409 . S
C469 H461 0.930 . S
C469 C467 1.419 . S
C469 C470 1.362 . S
C470 H462 0.930 . S
C470 C469 1.362 . S
C470 C473 1.409 . S
C471 H463 0.930 . S
C471 C472 1.355 . S
C471 C473 1.415 . S
C472 C471 1.355 . S
C472 C474 1.419 . S
C473 C468 1.425 . S
C473 C470 1.409 . S
C473 C471 1.415 . S
C474 H464 0.930 . S
C474 C472 1.419 . S
C474 C475 1.362 . S
C475 H465 0.930 . S
C475 C468 1.409 . S
C475 C474 1.362 . S
H476 C482 0.930 . S
H477 C485 0.930 . S
H478 C486 0.930 . S
H479 C487 0.930 . S
H480 C490 0.930 1_545 S
H481 C491 0.930 . S
C482 H476 0.930 . S
C482 C483 1.355 . S
C482 C484 1.415 . S
C483 C482 1.355 . S
C483 C485 1.419 . S
C484 C482 1.415 . S
C484 C489 1.425 . S
C484 C491 1.409 . S
C485 H477 0.930 . S
C485 C483 1.419 . S
C485 C486 1.362 . S
C486 H478 0.930 . S
C486 C485 1.362 . S
C486 C489 1.409 . S
C487 H479 0.930 . S
C487 C488 1.355 . S
C487 C489 1.415 . S
C488 C487 1.355 . S
C488 C490 1.419 . S
C489 C484 1.425 . S
C489 C486 1.409 . S
C489 C487 1.415 . S
C490 H480 0.930 1_565 S
C490 C488 1.419 . S
C490 C491 1.362 . S
C491 H481 0.930 . S
C491 C484 1.409 . S
C491 C490 1.362 . S
H492 C498 0.930 . S
H493 C501 0.930 . S
H494 C502 0.930 . S
H495 C503 0.930 . S
H496 C506 0.930 1_554 S
H497 C507 0.930 . S
C498 H492 0.930 . S
C498 C499 1.355 . S
C498 C500 1.415 . S
C499 C498 1.355 . S
C499 C501 1.419 . S
C500 C498 1.415 . S
C500 C505 1.425 . S
C500 C507 1.409 . S
C501 H493 0.930 . S
C501 C499 1.419 . S
C501 C502 1.362 . S
C502 H494 0.930 . S
C502 C501 1.362 . S
C502 C505 1.409 . S
C503 H495 0.930 . S
C503 C504 1.355 . S
C503 C505 1.415 . S
C504 C503 1.355 . S
C504 C506 1.419 . S
C505 C500 1.425 . S
C505 C502 1.409 . S
C505 C503 1.415 . S
C506 H496 0.930 1_556 S
C506 C504 1.419 . S
C506 C507 1.362 . S
C507 H497 0.930 . S
C507 C500 1.409 . S
C507 C506 1.362 . S
H508 C514 0.930 . S
H509 C517 0.930 . S
H510 C518 0.930 . S
H511 C519 0.930 . S
H512 C522 0.930 . S
H513 C523 0.930 . S
C514 H508 0.930 . S
C514 C515 1.355 . S
C514 C516 1.415 . S
C515 C514 1.355 . S
C515 C517 1.419 . S
C516 C514 1.415 . S
C516 C521 1.425 . S
C516 C523 1.409 . S
C517 H509 0.930 . S
C517 C515 1.419 . S
C517 C518 1.362 . S
C518 H510 0.930 . S
C518 C517 1.362 . S
C518 C521 1.409 . S
C519 H511 0.930 . S
C519 C520 1.355 . S
C519 C521 1.415 . S
C520 C519 1.355 . S
C520 C522 1.419 . S
C521 C516 1.425 . S
C521 C518 1.409 . S
C521 C519 1.415 . S
C522 H512 0.930 . S
C522 C520 1.419 . S
C522 C523 1.362 . S
C523 H513 0.930 . S
C523 C516 1.409 . S
C523 C522 1.362 . S
H524 C530 0.930 . S
H525 C533 0.930 . S
H526 C534 0.930 . S
H527 C535 0.930 . S
H528 C538 0.930 . S
H529 C539 0.930 . S
C530 H524 0.930 . S
C530 C531 1.355 . S
C530 C532 1.415 . S
C531 C530 1.355 . S
C531 C533 1.419 . S
C532 C530 1.415 . S
C532 C537 1.425 . S
C532 C539 1.409 . S
C533 H525 0.930 . S
C533 C531 1.419 . S
C533 C534 1.362 . S
C534 H526 0.930 . S
C534 C533 1.362 . S
C534 C537 1.409 . S
C535 H527 0.930 . S
C535 C536 1.355 . S
C535 C537 1.415 . S
C536 C535 1.355 . S
C536 C538 1.419 . S
C537 C532 1.425 . S
C537 C534 1.409 . S
C537 C535 1.415 . S
C538 H528 0.930 . S
C538 C536 1.419 . S
C538 C539 1.362 . S
C539 H529 0.930 . S
C539 C532 1.409 . S
C539 C538 1.362 . S
H540 C546 0.930 . S
H541 C549 0.930 . S
H542 C550 0.930 . S
H543 C551 0.907 1_554 S
H544 C554 0.930 . S
H545 C555 0.930 . S
C546 H540 0.930 . S
C546 C547 1.355 . S
C546 C548 1.415 . S
C547 C546 1.355 . S
C547 C549 1.419 . S
C548 C546 1.415 . S
C548 C553 1.425 . S
C548 C555 1.409 . S
C549 H541 0.930 . S
C549 C547 1.419 . S
C549 C550 1.362 . S
C550 H542 0.930 . S
C550 C549 1.362 . S
C550 C553 1.409 . S
C551 H543 0.907 1_556 S
C551 C552 1.355 . S
C551 C553 1.415 . S
C552 C551 1.355 . S
C552 C554 1.419 . S
C553 C548 1.425 . S
C553 C550 1.409 . S
C553 C551 1.415 . S
C554 H544 0.930 . S
C554 C552 1.419 . S
C554 C555 1.362 . S
C555 H545 0.930 . S
C555 C548 1.409 . S
C555 C554 1.362 . S
H556 C562 0.930 . S
H557 C565 0.930 . S
H558 C566 0.930 . S
H559 C567 0.930 . S
H560 C570 0.930 1_455 S
H561 C571 0.930 . S
C562 H556 0.930 . S
C562 C563 1.355 . S
C562 C564 1.415 . S
C563 C562 1.355 . S
C563 C565 1.419 . S
C564 C562 1.415 . S
C564 C569 1.425 . S
C564 C571 1.409 . S
C565 H557 0.930 . S
C565 C563 1.419 . S
C565 C566 1.362 . S
C566 H558 0.930 . S
C566 C565 1.362 . S
C566 C569 1.409 . S
C567 H559 0.930 . S
C567 C568 1.355 . S
C567 C569 1.415 . S
C568 C567 1.355 . S
C568 C570 1.419 . S
C569 C564 1.425 . S
C569 C566 1.409 . S
C569 C567 1.415 . S
C570 H560 0.930 1_655 S
C570 C568 1.419 . S
C570 C571 1.362 . S
C571 H561 0.930 . S
C571 C564 1.409 . S
C571 C570 1.362 . S
H572 C578 0.930 . S
H573 C581 0.930 . S
H574 C582 0.930 . S
H575 C583 0.930 . S
H576 C586 0.930 . S
H577 C587 0.930 . S
C578 H572 0.930 . S
C578 C579 1.355 . S
C578 C580 1.415 . S
C579 C578 1.355 . S
C579 C581 1.419 . S
C580 C578 1.415 . S
C580 C585 1.425 . S
C580 C587 1.409 . S
C581 H573 0.930 . S
C581 C579 1.419 . S
C581 C582 1.362 . S
C582 H574 0.930 . S
C582 C581 1.362 . S
C582 C585 1.409 . S
C583 H575 0.930 . S
C583 C584 1.355 . S
C583 C585 1.415 . S
C584 C583 1.355 . S
C584 C586 1.419 . S
C585 C580 1.425 . S
C585 C582 1.409 . S
C585 C583 1.415 . S
C586 H576 0.930 . S
C586 C584 1.419 . S
C586 C587 1.362 . S
C587 H577 0.930 . S
C587 C580 1.409 . S
C587 C586 1.362 . S
H588 C594 0.930 . S
H589 C597 0.930 . S
H590 C598 0.930 . S
H591 C599 0.930 . S
H592 C602 0.930 . S
H593 C603 0.930 . S
C594 H588 0.930 . S
C594 C595 1.355 1_455 S
C594 C596 1.415 1_455 S
C595 C594 1.355 1_655 S
C595 C597 1.419 1_545 S
C596 C594 1.415 1_655 S
C596 C601 1.425 1_545 S
C596 C603 1.409 1_655 S
C597 H589 0.930 . S
C597 C595 1.419 1_565 S
C597 C598 1.362 . S
C598 H590 0.930 . S
C598 C597 1.362 . S
C598 C601 1.409 . S
C599 H591 0.930 . S
C599 C600 1.355 1_565 S
C599 C601 1.415 . S
C600 C599 1.355 1_545 S
C600 C602 1.419 1_655 S
C601 C596 1.425 1_565 S
C601 C598 1.409 . S
C601 C599 1.415 . S
C602 H592 0.930 . S
C602 C600 1.419 1_455 S
C602 C603 1.362 . S
C603 H593 0.930 . S
C603 C596 1.409 1_455 S
C603 C602 1.362 . S
H604 C610 0.930 . S
H605 C613 0.930 1_565 S
H606 C614 0.930 . S
H607 C615 0.930 1_565 S
H608 C618 0.930 . S
H609 C619 0.930 . S
C610 H604 0.930 . S
C610 C611 1.355 . S
C610 C612 1.415 . S
C611 C610 1.355 . S
C611 C613 1.419 . S
C612 C610 1.415 . S
C612 C617 1.425 . S
C612 C619 1.409 . S
C613 H605 0.930 1_545 S
C613 C611 1.419 . S
C613 C614 1.362 1_545 S
C614 H606 0.930 . S
C614 C613 1.362 1_565 S
C614 C617 1.409 1_565 S
C615 H607 0.930 1_545 S
C615 C616 1.355 . S
C615 C617 1.415 . S
C616 C615 1.355 . S
C616 C618 1.419 . S
C617 C612 1.425 . S
C617 C614 1.409 1_545 S
C617 C615 1.415 . S
C618 H608 0.930 . S
C618 C616 1.419 . S
C618 C619 1.362 . S
C619 H609 0.930 . S
C619 C612 1.409 . S
C619 C618 1.362 . S
H620 C626 0.930 . S
H621 C629 0.930 . S
H622 C630 0.930 . S
H623 C631 0.930 . S
H624 C634 0.930 . S
H625 C635 0.930 . S
C626 H620 0.930 . S
C626 C627 1.355 . S
C626 C628 1.415 . S
C627 C626 1.355 . S
C627 C629 1.419 . S
C628 C626 1.415 . S
C628 C633 1.425 . S
C628 C635 1.409 . S
C629 H621 0.930 . S
C629 C627 1.419 . S
C629 C630 1.362 . S
C630 H622 0.930 . S
C630 C629 1.362 . S
C630 C633 1.409 . S
C631 H623 0.930 . S
C631 C632 1.355 . S
C631 C633 1.415 . S
C632 C631 1.355 . S
C632 C634 1.419 . S
C633 C628 1.425 . S
C633 C630 1.409 . S
C633 C631 1.415 . S
C634 H624 0.930 . S
C634 C632 1.419 . S
C634 C635 1.362 . S
C635 H625 0.930 . S
C635 C628 1.409 . S
C635 C634 1.362 . S
H636 C642 0.930 . S
H637 C645 0.931 1_655 S
H638 C646 0.930 1_655 S
H639 C647 0.930 . S
H640 C650 0.930 . S
H641 C651 0.930 . S
C642 H636 0.930 . S
C642 C643 1.355 . S
C642 C644 1.415 . S
C643 C642 1.355 . S
C643 C645 1.419 . S
C644 C642 1.415 . S
C644 C649 1.425 . S
C644 C651 1.409 . S
C645 H637 0.931 1_455 S
C645 C643 1.419 . S
C645 C646 1.362 . S
C646 H638 0.930 1_455 S
C646 C645 1.362 . S
C646 C649 1.409 . S
C647 H639 0.930 . S
C647 C648 1.355 . S
C647 C649 1.415 . S
C648 C647 1.355 . S
C648 C650 1.419 . S
C649 C644 1.425 . S
C649 C646 1.409 . S
C649 C647 1.415 . S
C650 H640 0.930 . S
C650 C648 1.419 . S
C650 C651 1.362 . S
C651 H641 0.930 . S
C651 C644 1.409 . S
C651 C650 1.362 . S
H652 C658 0.933 . S
H653 C661 0.930 . S
H654 C662 0.930 . S
H655 C663 0.930 . S
H656 C666 0.930 . S
H657 C667 0.930 . S
C658 H652 0.933 . S
C658 C659 1.355 1_556 S
C658 C660 1.415 . S
C659 C658 1.355 1_554 S
C659 C661 1.419 . S
C660 C658 1.415 . S
C660 C665 1.425 1_556 S
C660 C667 1.409 . S
C661 H653 0.930 . S
C661 C659 1.419 . S
C661 C662 1.362 . S
C662 H654 0.930 . S
C662 C661 1.362 . S
C662 C665 1.409 . S
C663 H655 0.930 . S
C663 C664 1.355 . S
C663 C665 1.415 . S
C664 C663 1.355 . S
C664 C666 1.419 1_554 S
C665 C660 1.425 1_554 S
C665 C662 1.409 . S
C665 C663 1.415 . S
C666 H656 0.930 . S
C666 C664 1.419 1_556 S
C666 C667 1.362 . S
C667 H657 0.930 . S
C667 C660 1.409 . S
C667 C666 1.362 . S
H668 C674 0.930 . S
H669 C677 0.930 . S
H670 C678 0.930 . S
H671 C679 0.930 . S
H672 C682 0.930 . S
H673 C683 0.930 . S
C674 H668 0.930 . S
C674 C675 1.355 . S
C674 C676 1.415 . S
C675 C674 1.355 . S
C675 C677 1.419 . S
C676 C674 1.415 . S
C676 C681 1.425 . S
C676 C683 1.409 . S
C677 H669 0.930 . S
C677 C675 1.419 . S
C677 C678 1.362 . S
C678 H670 0.930 . S
C678 C677 1.362 . S
C678 C681 1.409 . S
C679 H671 0.930 . S
C679 C680 1.355 . S
C679 C681 1.415 . S
C680 C679 1.355 . S
C680 C682 1.419 . S
C681 C676 1.425 . S
C681 C678 1.409 . S
C681 C679 1.415 . S
C682 H672 0.930 . S
C682 C680 1.419 . S
C682 C683 1.362 . S
C683 H673 0.930 . S
C683 C676 1.409 . S
C683 C682 1.362 . S
H684 C690 0.930 . S
H685 C693 0.930 . S
H686 C694 0.930 . S
H687 C695 0.907 1_556 S
H688 C698 0.930 . S
H689 C699 0.930 . S
C690 H684 0.930 . S
C690 C691 1.355 . S
C690 C692 1.415 . S
C691 C690 1.355 . S
C691 C693 1.419 1_554 S
C692 C690 1.415 . S
C692 C697 1.425 . S
C692 C699 1.409 . S
C693 H685 0.930 . S
C693 C691 1.419 1_556 S
C693 C694 1.362 . S
C694 H686 0.930 . S
C694 C693 1.362 . S
C694 C697 1.409 1_556 S
C695 H687 0.907 1_554 S
C695 C696 1.372 . S
C695 C697 1.420 . S
C696 C695 1.372 . S
C696 C698 1.419 . S
C697 C692 1.425 . S
C697 C694 1.409 1_554 S
C697 C695 1.420 . S
C698 H688 0.930 . S
C698 C696 1.419 . S
C698 C699 1.362 . S
C699 H689 0.930 . S
C699 C692 1.409 . S
C699 C698 1.362 . S
H700 C706 0.930 . S
H701 C709 0.930 . S
H702 C710 0.930 . S
H703 C711 0.930 . S
H704 C714 0.930 . S
H705 C715 0.930 . S
C706 H700 0.930 . S
C706 C707 1.355 . S
C706 C708 1.415 . S
C707 C706 1.355 . S
C707 C709 1.419 . S
C708 C706 1.415 . S
C708 C713 1.425 . S
C708 C715 1.409 . S
C709 H701 0.930 . S
C709 C707 1.419 . S
C709 C710 1.362 . S
C710 H702 0.930 . S
C710 C709 1.362 . S
C710 C713 1.409 . S
C711 H703 0.930 . S
C711 C712 1.355 . S
C711 C713 1.415 . S
C712 C711 1.355 . S
C712 C714 1.419 . S
C713 C708 1.425 . S
C713 C710 1.409 . S
C713 C711 1.415 . S
C714 H704 0.930 . S
C714 C712 1.419 . S
C714 C715 1.362 . S
C715 H705 0.930 . S
C715 C708 1.409 . S
C715 C714 1.362 . S
H716 C722 0.936 . S
H717 C725 0.930 . S
H718 C726 0.930 . S
H719 C727 0.930 . S
H720 C730 0.930 1_554 S
H721 C731 0.936 . S
C722 H716 0.936 . S
C722 C723 1.355 1_455 S
C722 C724 1.415 . S
C723 C722 1.355 1_655 S
C723 C725 1.419 . S
C724 C722 1.415 . S
C724 C729 1.425 1_455 S
C724 C731 1.405 1_556 S
C725 H717 0.930 . S
C725 C723 1.419 . S
C725 C726 1.362 . S
C726 H718 0.930 . S
C726 C725 1.362 . S
C726 C729 1.409 . S
C727 H719 0.930 . S
C727 C728 1.355 1_655 S
C727 C729 1.415 . S
C728 C727 1.355 1_455 S
C728 C730 1.419 . S
C729 C724 1.425 1_655 S
C729 C726 1.409 . S
C729 C727 1.415 . S
C730 H720 0.930 1_556 S
C730 C728 1.419 . S
C730 C731 1.361 1_556 S
C731 H721 0.936 . S
C731 C724 1.405 1_554 S
C731 C730 1.361 1_554 S
H732 C738 0.930 . S
H733 C741 0.930 1_556 S
H734 C742 0.930 . S
H735 C743 0.902 1_556 S
H736 C746 0.930 . S
H737 C747 0.930 . S
C738 H732 0.930 . S
C738 C739 1.355 . S
C738 C740 1.415 . S
C739 C738 1.355 . S
C739 C741 1.419 . S
C740 C738 1.415 . S
C740 C745 1.425 . S
C740 C747 1.409 . S
C741 H733 0.930 1_554 S
C741 C739 1.419 . S
C741 C742 1.362 1_554 S
C742 H734 0.930 . S
C742 C741 1.362 1_556 S
C742 C745 1.409 1_556 S
C743 H735 0.902 1_554 S
C743 C744 1.355 . S
C743 C745 1.415 . S
C744 C743 1.355 . S
C744 C746 1.419 . S
C745 C740 1.425 . S
C745 C742 1.409 1_554 S
C745 C743 1.415 . S
C746 H736 0.930 . S
C746 C744 1.419 . S
C746 C747 1.362 . S
C747 H737 0.930 . S
C747 C740 1.409 . S
C747 C746 1.362 . S
H748 C754 0.930 . S
H749 C757 0.930 . S
H750 C758 0.930 . S
H751 C759 0.910 1_655 S
H752 C762 0.930 . S
H753 C763 0.930 . S
C754 H748 0.930 . S
C754 C755 1.355 . S
C754 C756 1.415 . S
C755 C754 1.355 . S
C755 C757 1.419 1_455 S
C756 C754 1.415 . S
C756 C761 1.425 . S
C756 C763 1.409 . S
C757 H749 0.930 . S
C757 C755 1.419 1_655 S
C757 C758 1.362 . S
C758 H750 0.930 . S
C758 C757 1.362 . S
C758 C761 1.409 1_655 S
C759 H751 0.910 1_455 S
C759 C760 1.370 . S
C759 C761 1.419 . S
C760 C759 1.370 . S
C760 C762 1.419 . S
C761 C756 1.425 . S
C761 C758 1.409 1_455 S
C761 C759 1.419 . S
C762 H752 0.930 . S
C762 C760 1.419 . S
C762 C763 1.362 . S
C763 H753 0.930 . S
C763 C756 1.409 . S
C763 C762 1.362 . S
H764 C770 0.930 . S
H765 C773 0.930 . S
H766 C774 0.930 . S
H767 C775 0.930 . S
H768 C778 0.930 . S
H769 C779 0.930 . S
C770 H764 0.930 . S
C770 C771 1.355 . S
C770 C772 1.415 . S
C771 C770 1.355 . S
C771 C773 1.419 . S
C772 C770 1.415 . S
C772 C777 1.425 . S
C772 C779 1.409 . S
C773 H765 0.930 . S
C773 C771 1.419 . S
C773 C774 1.362 . S
C774 H766 0.930 . S
C774 C773 1.362 . S
C774 C777 1.409 . S
C775 H767 0.930 . S
C775 C776 1.355 . S
C775 C777 1.415 . S
C776 C775 1.355 . S
C776 C778 1.419 . S
C777 C772 1.425 . S
C777 C774 1.409 . S
C777 C775 1.415 . S
C778 H768 0.930 . S
C778 C776 1.419 . S
C778 C779 1.362 . S
C779 H769 0.930 . S
C779 C772 1.409 . S
C779 C778 1.362 . S
C403 C1 1.542 . S
C408 C315 1.415 . S
C419 C40 1.512 . S
C424 C349 1.380 . S
C440 C361 1.368 . S
C435 C99 1.502 . S
C451 C118 1.500 . S
C456 C395 1.413 . S
C472 C352 1.466 . S
C467 C16 1.531 . S
C488 C332 1.443 . S
C483 C60 1.500 . S
C504 C379 1.351 . S
C499 C79 1.505 . S
C520 C370 1.389 . S
C515 C138 1.483 . S
C531 C21 1.528 . S
C536 C378 1.392 . S
C552 C340 1.437 . S
C547 C94 1.507 . S
C563 C133 1.494 . S
C568 C316 1.331 . S
C579 C55 1.512 . S
C584 C373 1.364 . S
C600 C331 1.645 . S
C595 C157 1.694 1_545 S
C611 C196 1.749 . S
C616 C353 1.644 . S
C627 C255 1.698 . S
C632 C358 1.612 . S
C643 C289 1.729 . S
C648 C391 1.620 . S
C659 C172 1.769 1_554 S
C664 C336 1.701 . S
C680 C328 1.693 . S
C675 C216 1.774 . S
C696 C382 1.707 . S
C691 C235 1.777 . S
C712 C374 1.671 . S
C707 C294 1.708 . S
C723 C177 1.665 . S
C728 C394 1.608 . S
C744 C337 1.647 . S
C739 C250 1.775 . S
C760 C319 1.646 . S
C755 C274 1.737 . S
C771 C211 1.695 . S
C776 C357 1.669 . S
