# Generated by pormake.
# Topology ptr, (4,4)-cn, num edge types: 1
# Building blocks:
#     Node 0, Type 0, BuildingBlock: QUQFOY_clean_sbu_3, # of connection points: 4
#     Node 1, Type 0, BuildingBlock: QUQFOY_clean_sbu_3, # of connection points: 4
#     Node 2, Type 0, BuildingBlock: QUQFOY_clean_sbu_3, # of connection points: 4
#     Node 3, Type 0, BuildingBlock: QUQFOY_clean_sbu_3, # of connection points: 4
#     Node 4, Type 0, BuildingBlock: QUQFOY_clean_sbu_3, # of connection points: 4
#     Node 5, Type 0, BuildingBlock: QUQFOY_clean_sbu_3, # of connection points: 4
#     Node 6, Type 0, BuildingBlock: QUQFOY_clean_sbu_3, # of connection points: 4
#     Node 7, Type 0, BuildingBlock: QUQFOY_clean_sbu_3, # of connection points: 4
#     Node 8, Type 0, BuildingBlock: QUQFOY_clean_sbu_3, # of connection points: 4
#     Node 9, Type 0, BuildingBlock: QUQFOY_clean_sbu_3, # of connection points: 4
#     Node 10, Type 0, BuildingBlock: QUQFOY_clean_sbu_3, # of connection points: 4
#     Node 11, Type 0, BuildingBlock: QUQFOY_clean_sbu_3, # of connection points: 4
#     Node 12, Type 0, BuildingBlock: QUQFOY_clean_sbu_3, # of connection points: 4
#     Node 13, Type 0, BuildingBlock: QUQFOY_clean_sbu_3, # of connection points: 4
#     Node 14, Type 0, BuildingBlock: QUQFOY_clean_sbu_3, # of connection points: 4
#     Node 15, Type 0, BuildingBlock: QUQFOY_clean_sbu_3, # of connection points: 4
#     Node 16, Type 0, BuildingBlock: QUQFOY_clean_sbu_3, # of connection points: 4
#     Node 17, Type 0, BuildingBlock: QUQFOY_clean_sbu_3, # of connection points: 4
#     Node 18, Type 1, BuildingBlock: GIZVER_clean_linker_0, # of connection points: 4
#     Node 19, Type 1, BuildingBlock: GIZVER_clean_linker_0, # of connection points: 4
#     Node 20, Type 1, BuildingBlock: GIZVER_clean_linker_0, # of connection points: 4
#     Node 21, Type 1, BuildingBlock: GIZVER_clean_linker_0, # of connection points: 4
#     Node 22, Type 1, BuildingBlock: GIZVER_clean_linker_0, # of connection points: 4
#     Node 23, Type 1, BuildingBlock: GIZVER_clean_linker_0, # of connection points: 4
#     Node 24, Type 1, BuildingBlock: GIZVER_clean_linker_0, # of connection points: 4
#     Node 25, Type 1, BuildingBlock: GIZVER_clean_linker_0, # of connection points: 4
#     Node 26, Type 1, BuildingBlock: GIZVER_clean_linker_0, # of connection points: 4
#     Node 27, Type 1, BuildingBlock: GIZVER_clean_linker_0, # of connection points: 4
#     Node 28, Type 1, BuildingBlock: GIZVER_clean_linker_0, # of connection points: 4
#     Node 29, Type 1, BuildingBlock: GIZVER_clean_linker_0, # of connection points: 4
#     Node 30, Type 1, BuildingBlock: GIZVER_clean_linker_0, # of connection points: 4
#     Node 31, Type 1, BuildingBlock: GIZVER_clean_linker_0, # of connection points: 4
#     Node 32, Type 1, BuildingBlock: GIZVER_clean_linker_0, # of connection points: 4
#     Node 33, Type 1, BuildingBlock: GIZVER_clean_linker_0, # of connection points: 4
#     Node 34, Type 1, BuildingBlock: GIZVER_clean_linker_0, # of connection points: 4
#     Node 35, Type 1, BuildingBlock: GIZVER_clean_linker_0, # of connection points: 4
#     Edge 36, Type (0, 1), None
#     Edge 37, Type (0, 1), None
#     Edge 38, Type (0, 1), None
#     Edge 39, Type (0, 1), None
#     Edge 40, Type (0, 1), None
#     Edge 41, Type (0, 1), None
#     Edge 42, Type (0, 1), None
#     Edge 43, Type (0, 1), None
#     Edge 44, Type (0, 1), None
#     Edge 45, Type (0, 1), None
#     Edge 46, Type (0, 1), None
#     Edge 47, Type (0, 1), None
#     Edge 48, Type (0, 1), None
#     Edge 49, Type (0, 1), None
#     Edge 50, Type (0, 1), None
#     Edge 51, Type (0, 1), None
#     Edge 52, Type (0, 1), None
#     Edge 53, Type (0, 1), None
#     Edge 54, Type (0, 1), None
#     Edge 55, Type (0, 1), None
#     Edge 56, Type (0, 1), None
#     Edge 57, Type (0, 1), None
#     Edge 58, Type (0, 1), None
#     Edge 59, Type (0, 1), None
#     Edge 60, Type (0, 1), None
#     Edge 61, Type (0, 1), None
#     Edge 62, Type (0, 1), None
#     Edge 63, Type (0, 1), None
#     Edge 64, Type (0, 1), None
#     Edge 65, Type (0, 1), None
#     Edge 66, Type (0, 1), None
#     Edge 67, Type (0, 1), None
#     Edge 68, Type (0, 1), None
#     Edge 69, Type (0, 1), None
#     Edge 70, Type (0, 1), None
#     Edge 71, Type (0, 1), None
#     Edge 72, Type (0, 1), None
#     Edge 73, Type (0, 1), None
#     Edge 74, Type (0, 1), None
#     Edge 75, Type (0, 1), None
#     Edge 76, Type (0, 1), None
#     Edge 77, Type (0, 1), None
#     Edge 78, Type (0, 1), None
#     Edge 79, Type (0, 1), None
#     Edge 80, Type (0, 1), None
#     Edge 81, Type (0, 1), None
#     Edge 82, Type (0, 1), None
#     Edge 83, Type (0, 1), None
#     Edge 84, Type (0, 1), None
#     Edge 85, Type (0, 1), None
#     Edge 86, Type (0, 1), None
#     Edge 87, Type (0, 1), None
#     Edge 88, Type (0, 1), None
#     Edge 89, Type (0, 1), None
#     Edge 90, Type (0, 1), None
#     Edge 91, Type (0, 1), None
#     Edge 92, Type (0, 1), None
#     Edge 93, Type (0, 1), None
#     Edge 94, Type (0, 1), None
#     Edge 95, Type (0, 1), None
#     Edge 96, Type (0, 1), None
#     Edge 97, Type (0, 1), None
#     Edge 98, Type (0, 1), None
#     Edge 99, Type (0, 1), None
#     Edge 100, Type (0, 1), None
#     Edge 101, Type (0, 1), None
#     Edge 102, Type (0, 1), None
#     Edge 103, Type (0, 1), None
#     Edge 104, Type (0, 1), None
#     Edge 105, Type (0, 1), None
#     Edge 106, Type (0, 1), None
#     Edge 107, Type (0, 1), None
# Relax obj value: 0.043
# Max RMSD: 0.113
# Mean RMSD: 0.076
data_MOF--net-ptr--node1-QUQFOY_clean_sbu_3--node2-GIZVER_clean_linker_0--edge1-none
_symmetry_space_group_name_H-M    P1
_symmetry_Int_Tables_number       1
_symmetry_cell_setting            triclinic
loop_
_symmetry_equiv_pos_as_xyz
'x, y, z'
_cell_length_a     38.201
_cell_length_b     38.255306
_cell_length_c     24.008099
_cell_angle_alpha  90.834693
_cell_angle_beta   89.26081
_cell_angle_gamma 120.56674
loop_
_atom_site_label
_atom_site_type_symbol
_atom_site_fract_x
_atom_site_fract_y
_atom_site_fract_z
_atom_type_partial_charge
C0 C 0.91609 0.29383 0.95223 0.0
O1 O 0.89451 0.2998 -0.01288 0.0
Cd2 Cd 0.93287 0.37159 0.0069 0.0
O3 O 0.95383 0.31988 0.94758 0.0
Cd4 Cd 0.0081 0.37935 -0.00101 0.0
C5 C -0.00607 0.41787 0.89064 0.0
O6 O 0.978 0.38791 0.08556 0.0
O7 O 0.02914 0.44204 0.05105 0.0
O8 O 0.02127 0.32909 0.03472 0.0
C9 C 0.00651 0.42444 0.09277 0.0
O10 O 0.95964 0.40393 0.91507 0.0
C11 C 0.05969 0.35041 0.03269 0.0
O12 O 0.02242 0.41541 0.91321 0.0
O13 O 0.0751 0.38572 0.01228 0.0
C14 C 0.62859 0.70999 0.0307 0.0
O15 O 0.59113 0.69256 0.01904 0.0
Cd16 Cd 0.55794 0.62526 -0.02011 0.0
O17 O 0.64864 0.6922 0.02211 0.0
Cd18 Cd 0.63657 0.62718 -0.01459 0.0
C19 C 0.57298 0.58133 0.09159 0.0
O20 O 0.59673 0.62026 0.90348 0.0
O21 O 0.58916 0.5648 0.93772 0.0
O22 O 0.70058 0.66281 0.9364 0.0
C23 C 0.58612 0.58331 0.89631 0.0
O24 O 0.54651 0.58183 0.06051 0.0
C25 C 0.71108 0.63667 0.94423 0.0
O26 O 0.61022 0.59921 0.07703 0.0
O27 O 0.68935 0.60833 -0.02194 0.0
C28 C 0.28675 0.91787 0.0303 0.0
O29 O 0.29209 0.89563 -0.00444 0.0
Cd30 Cd 0.3586 0.92042 0.95932 0.0
O31 O 0.31269 0.95568 0.0341 0.0
Cd32 Cd 0.37448 0.00859 -0.0137 0.0
C33 C 0.40871 0.97266 0.08101 0.0
O34 O 0.37266 0.97455 0.90102 0.0
O35 O 0.43288 0.02176 0.92663 0.0
O36 O 0.33346 0.03336 0.9496 0.0
C37 C 0.41008 -0.00332 0.88973 0.0
O38 O 0.39629 0.94332 0.04621 0.0
C39 C 0.36 0.07079 0.954 0.0
O40 O 0.40492 0.00323 0.07124 0.0
O41 O 0.39185 0.07986 -0.01841 0.0
C42 C 0.90966 0.58746 0.93898 0.0
O43 O 0.89921 0.55263 0.95762 0.0
Cd44 Cd 0.95227 0.54235 -0.00856 0.0
O45 O 0.94573 0.61682 0.94534 0.0
Cd46 Cd 0.00672 0.62944 -0.00636 0.0
C47 C 0.02265 0.58597 0.88658 0.0
O48 O 0.98291 0.58415 0.07202 0.0
O49 O 0.04344 0.60202 0.04219 0.0
O50 O 0.00963 0.68491 0.04651 0.0
C51 C 0.01749 0.58851 0.08149 0.0
O52 O -0.0021 0.55318 0.91137 0.0
C53 C 0.04699 0.70916 0.03601 0.0
O54 O 0.0302 0.62004 0.906 0.0
O55 O 0.06378 0.69741 0.00037 0.0
C56 C 0.25967 0.33548 0.02828 0.0
O57 O 0.25646 0.36074 -0.00155 0.0
Cd58 Cd 0.32217 0.41753 -0.02436 0.0
O59 O 0.29339 0.33664 0.03121 0.0
Cd60 Cd 0.35895 0.3677 -0.01611 0.0
C61 C 0.38094 0.42871 0.09059 0.0
O62 O 0.35382 0.40084 0.90059 0.0
O63 O 0.41323 0.42546 0.93769 0.0
O64 O 0.33155 0.30448 0.93587 0.0
C65 C 0.39227 0.42173 0.89505 0.0
O66 O 0.35855 0.43904 0.06524 0.0
C67 C 0.36143 0.29914 0.94182 0.0
O68 O 0.3877 0.4018 0.07034 0.0
O69 O 0.3904 0.3247 0.97249 0.0
C70 C 0.67152 0.06968 0.94759 0.0
O71 O 0.64282 0.07587 0.96051 0.0
Cd72 Cd 0.58019 0.01985 -0.0028 0.0
O73 O 0.66714 0.03474 0.95363 0.0
Cd74 Cd 0.61753 0.96716 -0.01114 0.0
C75 C 0.55524 0.95625 0.88515 0.0
O76 O 0.59188 0.98524 0.07109 0.0
O77 O 0.55414 0.92383 0.03966 0.0
O78 O 0.67577 0.97532 0.03535 0.0
C79 C 0.56255 0.9494 0.07887 0.0
O80 O 0.54486 0.97652 0.91672 0.0
C81 C 0.66981 0.93996 0.02667 0.0
O82 O 0.58431 0.95084 0.89847 0.0
O83 O 0.6402 0.91656 -0.0047 0.0
C84 C 0.58279 0.62723 0.28558 0.0
O85 O 0.56118 0.63311 0.32053 0.0
Cd86 Cd 0.59939 0.70493 0.34014 0.0
O87 O 0.62048 0.65338 0.28086 0.0
Cd88 Cd 0.67463 0.71289 0.33232 0.0
C89 C 0.66037 0.75122 0.22386 0.0
O90 O 0.64448 0.7214 0.41889 0.0
O91 O 0.69562 0.77554 0.38439 0.0
O92 O 0.6878 0.66265 0.36804 0.0
C93 C 0.673 0.75793 0.42612 0.0
O94 O 0.62605 0.73718 0.24823 0.0
C95 C 0.72622 0.68397 0.36603 0.0
O96 O 0.68892 0.74893 0.24654 0.0
O97 O 0.74164 0.71929 0.34564 0.0
C98 C 0.29628 0.04328 0.36379 0.0
O99 O 0.25894 0.02626 0.35157 0.0
Cd100 Cd 0.22543 0.95886 0.31275 0.0
O101 O 0.31602 0.02512 0.35564 0.0
Cd102 Cd 0.30382 0.96012 0.31864 0.0
C103 C 0.24 0.91455 0.42463 0.0
O104 O 0.26417 0.95349 0.23662 0.0
O105 O 0.25619 0.89787 0.27089 0.0
O106 O 0.36789 -0.00439 0.26974 0.0
C107 C 0.25331 0.91647 0.22948 0.0
O108 O 0.21375 0.91552 0.3936 0.0
C109 C 0.37825 0.96937 0.27753 0.0
O110 O 0.27723 0.93203 0.4101 0.0
O111 O 0.35642 0.94102 0.31129 0.0
C112 C 0.95334 0.25187 0.36381 0.0
O113 O 0.95879 0.22971 0.32909 0.0
Cd114 Cd 0.02535 0.25473 0.2929 0.0
O115 O 0.97919 0.28971 0.36766 0.0
Cd116 Cd 0.04094 0.34275 0.31991 0.0
C117 C 0.0753 0.30697 0.41466 0.0
O118 O 0.03925 0.3088 0.23461 0.0
O119 O 0.09942 0.35609 0.26032 0.0
O120 O -0.00025 0.3673 0.28314 0.0
C121 C 0.07665 0.33102 0.22333 0.0
O122 O 0.06298 0.27765 0.37982 0.0
C123 C 0.02622 0.40476 0.28753 0.0
O124 O 0.07141 0.33748 0.40489 0.0
O125 O 0.05808 0.41391 0.31517 0.0
C126 C 0.57698 0.92035 0.27201 0.0
O127 O 0.56678 0.88558 0.2906 0.0
Cd128 Cd 0.62015 0.87575 0.32441 0.0
O129 O 0.61297 0.94988 0.27836 0.0
Cd130 Cd 0.67415 0.96296 0.32657 0.0
C131 C 0.69052 0.91971 0.21959 0.0
O132 O 0.65057 0.91769 0.40493 0.0
O133 O 0.71124 0.93598 0.37524 0.0
O134 O 0.6766 0.0182 0.37951 0.0
C135 C 0.68524 0.9223 0.41449 0.0
O136 O 0.66591 0.88689 0.24441 0.0
C137 C 0.71392 0.04266 0.36903 0.0
O138 O 0.69784 0.95372 0.23896 0.0
O139 O 0.73086 0.03112 0.33333 0.0
C140 C 0.9262 0.66924 0.36132 0.0
O141 O 0.92292 0.69445 0.33148 0.0
Cd142 Cd -0.01139 0.75131 0.30873 0.0
O143 O 0.95995 0.67049 0.36425 0.0
Cd144 Cd 0.02548 0.70166 0.31686 0.0
C145 C 0.04744 0.76258 0.42362 0.0
O146 O 0.02032 0.73477 0.23355 0.0
O147 O 0.07972 0.75946 0.2707 0.0
O148 O -0.00185 0.63845 0.26884 0.0
C149 C 0.05876 0.75568 0.22802 0.0
O150 O 0.02499 0.77286 0.39835 0.0
C151 C 0.02805 0.63315 0.27479 0.0
O152 O 0.05426 0.73573 0.40328 0.0
O153 O 0.05701 0.65874 0.30545 0.0
C154 C 0.33861 0.40326 0.28149 0.0
O155 O 0.31011 0.40973 0.29452 0.0
Cd156 Cd 0.24731 0.35397 0.33124 0.0
O157 O 0.33395 0.36821 0.28748 0.0
Cd158 Cd 0.28405 0.30077 0.32281 0.0
C159 C 0.22189 0.29033 0.21916 0.0
O160 O 0.2587 0.31911 0.40513 0.0
O161 O 0.22058 0.25779 0.37363 0.0
O162 O 0.34213 0.30844 0.36919 0.0
C163 C 0.22919 0.28336 0.4129 0.0
O164 O 0.21173 0.31077 0.25074 0.0
C165 C 0.33588 0.27298 0.36044 0.0
O166 O 0.25078 0.28464 0.23246 0.0
O167 O 0.30617 0.24975 0.32912 0.0
C168 C 0.24993 0.96037 0.61866 0.0
O169 O 0.22839 0.96643 0.65352 0.0
Cd170 Cd 0.26691 0.03819 0.67332 0.0
O171 O 0.28769 0.98633 0.61403 0.0
Cd172 Cd 0.34207 0.04569 0.66544 0.0
C173 C 0.32812 0.08431 0.5571 0.0
O174 O 0.31197 0.05426 0.75197 0.0
O175 O 0.36324 0.10836 0.71762 0.0
O176 O 0.35497 -0.00478 0.70101 0.0
C177 C 0.34054 0.09075 0.75928 0.0
O178 O 0.29383 0.07047 0.58151 0.0
C179 C 0.3934 0.01644 0.6991 0.0
O180 O 0.35655 0.08177 0.57968 0.0
O181 O 0.40894 0.0518 0.67882 0.0
C182 C 0.96207 0.37681 0.69742 0.0
O183 O 0.92467 0.35954 0.68549 0.0
Cd184 Cd 0.89142 0.29223 0.64638 0.0
O185 O 0.98202 0.3589 0.68901 0.0
Cd186 Cd 0.97001 0.29395 0.65213 0.0
C187 C 0.90626 0.24812 0.75814 0.0
O188 O 0.93029 0.2872 0.57014 0.0
O189 O 0.92257 0.23165 0.60432 0.0
O190 O 0.03407 0.32959 0.60324 0.0
C191 C 0.91961 0.25023 0.56293 0.0
O192 O 0.87988 0.2488 0.72705 0.0
C193 C 0.04455 0.30345 0.61109 0.0
O194 O 0.9435 0.26588 0.74364 0.0
O195 O 0.02277 0.27508 0.64485 0.0
C196 C 0.61964 0.58497 0.69708 0.0
O197 O 0.62509 0.56285 0.66226 0.0
Cd198 Cd 0.69162 0.58789 0.626 0.0
O199 O 0.64547 0.62281 0.70095 0.0
Cd200 Cd 0.70717 0.67588 0.65313 0.0
C201 C 0.74162 0.64013 0.74773 0.0
O202 O 0.70554 0.642 0.56778 0.0
O203 O 0.76569 0.68927 0.59362 0.0
O204 O 0.66609 0.70056 0.61632 0.0
C205 C 0.74298 0.66425 0.5566 0.0
O206 O 0.72928 0.61082 0.71289 0.0
C207 C 0.6926 0.738 0.62082 0.0
O208 O 0.7377 0.67063 0.73802 0.0
O209 O 0.7244 0.74707 0.64854 0.0
C210 C 0.24308 0.25381 0.60602 0.0
O211 O 0.23252 0.21896 0.62467 0.0
Cd212 Cd 0.28552 0.20851 0.65835 0.0
O213 O 0.2792 0.28308 0.61236 0.0
Cd214 Cd 0.34015 0.29551 0.66066 0.0
C215 C 0.35589 0.25202 0.55345 0.0
O216 O 0.31625 0.25019 0.73903 0.0
O217 O 0.37674 0.26795 0.7092 0.0
O218 O 0.34313 0.35103 0.71348 0.0
C219 C 0.35079 0.25447 0.74851 0.0
O220 O 0.33105 0.21924 0.57818 0.0
C221 C 0.38052 0.37523 0.70307 0.0
O222 O 0.36358 0.28611 0.57297 0.0
O223 O 0.39733 0.36343 0.66752 0.0
C224 C 0.59289 0.0018 0.69444 0.0
O225 O 0.58941 0.02689 0.66458 0.0
Cd226 Cd 0.65494 0.08404 0.64193 0.0
O227 O 0.62677 0.00332 0.69742 0.0
Cd228 Cd 0.6923 0.03491 0.65002 0.0
C229 C 0.71392 0.09572 0.75682 0.0
O230 O 0.6869 0.06787 0.56667 0.0
O231 O 0.74633 0.09287 0.60386 0.0
O232 O 0.66527 0.97176 0.60193 0.0
C233 C 0.72534 0.08895 0.56116 0.0
O234 O 0.69129 0.10578 0.73157 0.0
C235 C 0.69528 0.96665 0.60789 0.0
O236 O 0.72098 0.06904 0.73645 0.0
O237 O 0.72417 -0.00769 0.63858 0.0
C238 C 0.00515 0.73686 0.61449 0.0
O239 O 0.97663 0.74329 0.6275 0.0
Cd240 Cd 0.91383 0.68751 0.66422 0.0
O241 O 0.00052 0.70182 0.62049 0.0
Cd242 Cd 0.95062 0.63436 0.6558 0.0
C243 C 0.88846 0.6239 0.55213 0.0
O244 O 0.92519 0.65264 0.73811 0.0
O245 O 0.88712 0.59133 0.70655 0.0
O246 O 0.00871 0.64212 0.70224 0.0
C247 C 0.89568 0.61688 0.74583 0.0
O248 O 0.87828 0.64431 0.58373 0.0
C249 C 0.00251 0.60667 0.69355 0.0
O250 O 0.91737 0.61824 0.56542 0.0
O251 O 0.97282 0.5834 0.66221 0.0
H252 H 0.10442 0.2835 0.18498 0.0
H253 H 0.09116 0.30121 0.01144 0.0
H254 H 0.07269 0.37101 0.13772 0.0
H255 H 0.0918 0.23072 0.10612 0.0
H256 H 0.10571 0.24939 0.03656 0.0
H257 H 0.14414 0.25356 0.18049 0.0
H258 H 0.26932 0.31614 0.13039 0.0
H259 H 0.17765 0.29939 0.01344 0.0
C260 C 0.10086 0.30072 0.15248 0.0
C261 C 0.09101 0.33013 0.16717 0.0
C262 C 0.10294 0.29132 0.09613 0.0
C263 C 0.09307 0.31055 0.05467 0.0
C264 C 0.08281 0.33981 0.06977 0.0
C265 C 0.08337 0.35049 0.1258 0.0
C266 C 0.11193 0.25823 0.08129 0.0
C267 C 0.15563 0.27221 0.09416 0.0
C268 C 0.16696 0.26789 0.14814 0.0
C269 C 0.20801 0.28383 0.16115 0.0
C270 C 0.23747 0.30252 0.11958 0.0
C271 C 0.22687 0.30894 0.06665 0.0
C272 C 0.18592 0.29383 0.054 0.0
H273 H 0.71854 0.8216 0.17879 0.0
H274 H 0.68196 0.78959 0.00773 0.0
H275 H 0.61557 0.70578 0.13907 0.0
H276 H 0.7621 0.86438 0.0955 0.0
H277 H 0.73916 0.85573 0.02812 0.0
H278 H 0.72991 0.88322 0.17737 0.0
H279 H 0.6751 0.95205 0.1344 0.0
H280 H 0.70129 0.88942 0.00524 0.0
C281 C 0.69713 0.80127 0.14813 0.0
C282 C 0.66477 0.76386 0.16557 0.0
C283 C 0.7016 0.81221 0.0915 0.0
C284 C 0.67669 0.78297 0.05181 0.0
C285 C 0.64614 0.74448 0.06913 0.0
C286 C 0.63883 0.73592 0.12594 0.0
C287 C 0.733 0.85464 0.07367 0.0
C288 C 0.71859 0.8837 0.08905 0.0
C289 C 0.71817 0.89404 0.1455 0.0
C290 C 0.7014 0.9175 0.16159 0.0
C291 C 0.68848 0.93409 0.12123 0.0
C292 C 0.68846 0.92442 0.06483 0.0
C293 C 0.70254 0.8982 0.04861 0.0
H294 H 0.13839 0.79051 0.20594 0.0
H295 H 0.12845 0.75747 0.0335 0.0
H296 H 0.02152 0.73106 0.12837 0.0
H297 H 0.18839 0.77548 0.15428 0.0
H298 H 0.18946 0.7764 0.07993 0.0
H299 H 0.20419 0.83754 0.20924 0.0
H300 H 0.28297 0.95077 0.12968 0.0
H301 H 0.22431 0.83989 0.03286 0.0
C302 C 0.12026 0.77971 0.16861 0.0
C303 C 0.07816 0.76356 0.1724 0.0
C304 C 0.13854 0.7781 0.11844 0.0
C305 C 0.1145 0.7608 0.07126 0.0
C306 C 0.07208 0.74249 0.07503 0.0
C307 C 0.05435 0.74631 0.12471 0.0
C308 C 0.18232 0.78902 0.11758 0.0
C309 C 0.20946 0.83422 0.12015 0.0
C310 C 0.21693 0.85459 0.17138 0.0
C311 C 0.24197 0.89668 0.17456 0.0
C312 C 0.26109 0.91856 0.12619 0.0
C313 C 0.25636 0.89803 0.07517 0.0
C314 C 0.22869 0.85609 0.07198 0.0
H315 H 0.40167 0.2295 0.78091 0.0
H316 H 0.40141 0.2561 0.95592 0.0
H317 H 0.33157 0.28049 0.83984 0.0
H318 H 0.44845 0.22341 0.85171 0.0
H319 H 0.43628 0.22109 0.92446 0.0
H320 H 0.39067 0.16922 0.78562 0.0
H321 H 0.32171 0.05162 0.85646 0.0
H322 H 0.3997 0.15407 0.9609 0.0
C323 C 0.38974 0.23847 0.81575 0.0
C324 C 0.36291 0.25214 0.80536 0.0
C325 C 0.4005 0.23584 0.8707 0.0
C326 C 0.39038 0.25457 0.91409 0.0
C327 C 0.36635 0.27183 0.90269 0.0
C328 C 0.35044 0.26767 0.8491 0.0
C329 C 0.42293 0.21354 0.882 0.0
C330 C 0.39481 0.16795 0.87532 0.0
C331 C 0.37989 0.15073 0.82234 0.0
C332 C 0.35228 0.10912 0.81569 0.0
C333 C 0.34104 0.08413 0.86234 0.0
C334 C 0.35978 0.09972 0.91412 0.0
C335 C 0.38544 0.14187 0.92098 0.0
H336 H 0.85467 0.17346 0.80053 0.0
H337 H 0.85509 0.21478 0.96929 0.0
H338 H 0.93504 0.29772 0.84487 0.0
H339 H 0.82963 0.12494 0.88439 0.0
H340 H 0.82216 0.14279 0.95003 0.0
H341 H 0.78913 0.13285 0.79858 0.0
H342 H 0.6639 0.08137 0.84197 0.0
H343 H 0.7525 0.11502 0.97099 0.0
C344 C 0.86537 0.19732 0.83166 0.0
C345 C 0.89525 0.23664 0.81655 0.0
C346 C 0.85034 0.18889 0.88682 0.0
C347 C 0.86611 0.22074 0.92667 0.0
C348 C 0.89757 0.2598 0.91198 0.0
C349 C 0.91196 0.26725 0.857 0.0
C350 C 0.82054 0.14562 0.9042 0.0
C351 C 0.77707 0.13107 0.88725 0.0
C352 C 0.76651 0.12606 0.83052 0.0
C353 C 0.72599 0.10928 0.81438 0.0
C354 C 0.69551 0.09706 0.85483 0.0
C355 C 0.70476 0.09805 0.91118 0.0
C356 C 0.74557 0.11571 0.92752 0.0
H357 H 0.81614 0.57866 0.77207 0.0
H358 H 0.82871 0.56209 0.94645 0.0
H359 H 0.93396 0.62159 0.83966 0.0
H360 H 0.75479 0.53161 0.83936 0.0
H361 H 0.76251 0.54134 0.91262 0.0
H362 H 0.76599 0.58875 0.77554 0.0
H363 H 0.7324 0.67105 0.844 0.0
H364 H 0.74665 0.58995 0.95157 0.0
C365 C 0.83479 0.58408 0.8082 0.0
C366 C 0.87693 0.60378 0.801 0.0
C367 C 0.81725 0.57188 0.86164 0.0
C368 C 0.84201 0.57412 0.90601 0.0
C369 C 0.88398 0.59137 0.8978 0.0
C370 C 0.90146 0.60824 0.84618 0.0
C371 C 0.77237 0.55565 0.87097 0.0
C372 C 0.76246 0.58906 0.86501 0.0
C373 C 0.7618 0.60329 0.81177 0.0
C374 C 0.75215 0.63358 0.80407 0.0
C375 C 0.74257 0.64965 0.85059 0.0
C376 C 0.73822 0.6325 0.90355 0.0
C377 C 0.74999 0.60344 0.91102 0.0
H378 H 0.77078 0.61675 0.51813 0.0
H379 H 0.75777 0.63486 0.34461 0.0
H380 H 0.73909 0.7044 0.47111 0.0
H381 H 0.75836 0.5642 0.43912 0.0
H382 H 0.77225 0.58296 0.36958 0.0
H383 H 0.81071 0.58704 0.51348 0.0
H384 H 0.93589 0.64984 0.46338 0.0
H385 H 0.84416 0.63304 0.3465 0.0
C386 C 0.76726 0.63406 0.48566 0.0
C387 C 0.75738 0.66344 0.50043 0.0
C388 C 0.76942 0.62479 0.42928 0.0
C389 C 0.75961 0.64411 0.38787 0.0
C390 C 0.74932 0.67333 0.40307 0.0
C391 C 0.7498 0.68389 0.45914 0.0
C392 C 0.77846 0.59175 0.41434 0.0
C393 C 0.82217 0.60577 0.42717 0.0
C394 C 0.83352 0.60143 0.48113 0.0
C395 C 0.87458 0.61741 0.49413 0.0
C396 C 0.90404 0.63619 0.45257 0.0
C397 C 0.89341 0.64263 0.39967 0.0
C398 C 0.85245 0.62746 0.38703 0.0
H399 H 0.38593 0.15495 0.51214 0.0
H400 H 0.34912 0.1231 0.34109 0.0
H401 H 0.28367 0.0387 0.47224 0.0
H402 H 0.42896 0.19836 0.42906 0.0
H403 H 0.40597 0.1895 0.36167 0.0
H404 H 0.39566 0.21595 0.51118 0.0
H405 H 0.34012 0.28411 0.46832 0.0
H406 H 0.36793 0.22294 0.33884 0.0
C407 C 0.3646 0.13455 0.48147 0.0
C408 C 0.33251 0.09696 0.49883 0.0
C409 C 0.36884 0.14561 0.4249 0.0
C410 C 0.34405 0.11633 0.38514 0.0
C411 C 0.31384 0.07767 0.40239 0.0
C412 C 0.30673 0.06894 0.45917 0.0
C413 C 0.39978 0.18823 0.40723 0.0
C414 C 0.38473 0.21677 0.42277 0.0
C415 C 0.38387 0.22671 0.4793 0.0
C416 C 0.36671 0.24982 0.49544 0.0
C417 C 0.35375 0.26638 0.45513 0.0
C418 C 0.35422 0.25716 0.39865 0.0
C419 C 0.36873 0.23132 0.38232 0.0
H420 H 0.80499 0.12407 0.53917 0.0
H421 H 0.79533 0.09128 0.36666 0.0
H422 H 0.68818 0.06424 0.46144 0.0
H423 H 0.85519 0.10932 0.48755 0.0
H424 H 0.85631 0.11029 0.41321 0.0
H425 H 0.8707 0.17129 0.54258 0.0
H426 H 0.94933 0.28464 0.4632 0.0
H427 H 0.89105 0.17381 0.36624 0.0
C428 C 0.7869 0.11325 0.50182 0.0
C429 C 0.74476 0.09693 0.50555 0.0
C430 C 0.80526 0.11178 0.45166 0.0
C431 C 0.78129 0.09448 0.40443 0.0
C432 C 0.73885 0.07599 0.40814 0.0
C433 C 0.72101 0.07963 0.45782 0.0
C434 C 0.84908 0.12283 0.45086 0.0
C435 C 0.8761 0.16805 0.4535 0.0
C436 C 0.88345 0.18837 0.50474 0.0
C437 C 0.90838 0.23048 0.50798 0.0
C438 C 0.92752 0.25241 0.45966 0.0
C439 C 0.92291 0.23193 0.40863 0.0
C440 C 0.89534 0.18998 0.40537 0.0
H441 H 0.06829 0.56343 0.11396 0.0
H442 H 0.06794 0.59003 0.28896 0.0
H443 H -0.00167 0.61464 0.17275 0.0
H444 H 0.11482 0.55707 0.18475 0.0
H445 H 0.10276 0.55494 0.25751 0.0
H446 H 0.05673 0.50294 0.11889 0.0
H447 H -0.01226 0.38547 0.19011 0.0
H448 H 0.06606 0.48802 0.29416 0.0
C449 C 0.05639 0.57247 0.14876 0.0
C450 C 0.02962 0.5862 0.13833 0.0
C451 C 0.06708 0.5698 0.20374 0.0
C452 C 0.05697 0.58855 0.2471 0.0
C453 C 0.03301 0.60588 0.23566 0.0
C454 C 0.01716 0.60176 0.18205 0.0
C455 C 0.08936 0.54736 0.21509 0.0
C456 C 0.06107 0.50179 0.20857 0.0
C457 C 0.046 0.4845 0.15567 0.0
C458 C 0.01833 0.44289 0.14914 0.0
C459 C 0.00713 0.41798 0.19587 0.0
C460 C 0.02596 0.43362 0.24759 0.0
C461 C 0.05171 0.47578 0.2543 0.0
H462 H 0.52166 0.50667 0.13417 0.0
H463 H 0.52203 0.54811 0.30284 0.0
H464 H 0.60167 0.63107 0.1782 0.0
H465 H 0.49679 0.45824 0.21814 0.0
H466 H 0.48928 0.47611 0.28375 0.0
H467 H 0.45616 0.46569 0.13231 0.0
H468 H 0.33099 0.41461 0.17575 0.0
H469 H 0.41963 0.44855 0.30478 0.0
C470 C 0.53231 0.53056 0.16525 0.0
C471 C 0.56206 0.56991 0.15004 0.0
C472 C 0.51734 0.52216 0.22043 0.0
C473 C 0.53302 0.55405 0.2602 0.0
C474 C 0.56434 0.59314 0.2454 0.0
C475 C 0.57869 0.60058 0.19041 0.0
C476 C 0.48763 0.47888 0.23791 0.0
C477 C 0.44415 0.46424 0.22097 0.0
C478 C 0.43356 0.45905 0.16424 0.0
C479 C 0.39305 0.44231 0.14812 0.0
C480 C 0.36259 0.43027 0.18857 0.0
C481 C 0.37187 0.43144 0.24495 0.0
C482 C 0.41269 0.44908 0.26127 0.0
H483 H 0.48303 0.91103 0.10535 0.0
H484 H 0.49598 0.89482 0.27974 0.0
H485 H 0.60101 0.95425 0.17255 0.0
H486 H 0.42182 0.86412 0.17291 0.0
H487 H 0.42968 0.87399 0.24612 0.0
H488 H 0.43296 0.92119 0.10891 0.0
H489 H 0.39955 0.00365 0.17724 0.0
H490 H 0.41377 0.92259 0.28494 0.0
C491 C 0.50176 0.91653 0.14141 0.0
C492 C 0.54389 0.93628 0.13408 0.0
C493 C 0.48432 0.90443 0.19493 0.0
C494 C 0.50919 0.90677 0.23923 0.0
C495 C 0.55115 0.92406 0.23087 0.0
C496 C 0.56852 0.94085 0.17917 0.0
C497 C 0.43946 0.88822 0.20441 0.0
C498 C 0.42953 0.92162 0.19838 0.0
C499 C 0.42883 0.93578 0.14511 0.0
C500 C 0.41922 0.96611 0.13737 0.0
C501 C 0.40969 0.98223 0.18387 0.0
C502 C 0.40534 0.96512 0.23686 0.0
C503 C 0.41709 0.93604 0.24437 0.0
H504 H 0.43756 0.94891 0.85123 0.0
H505 H 0.42461 0.96703 0.67767 0.0
H506 H 0.40634 0.03684 0.80418 0.0
H507 H 0.4251 0.89632 0.7723 0.0
H508 H 0.43892 0.91501 0.70271 0.0
H509 H 0.4775 0.91912 0.84649 0.0
H510 H 0.60268 0.98235 0.79641 0.0
H511 H 0.51082 0.96527 0.67958 0.0
C512 C 0.43409 0.96623 0.81877 0.0
C513 C 0.42438 -0.00427 0.83353 0.0
C514 C 0.43619 0.95692 0.76239 0.0
C515 C 0.42649 0.97631 0.72099 0.0
C516 C 0.41636 0.00565 0.73617 0.0
C517 C 0.4169 0.01626 0.79223 0.0
C518 C 0.44518 0.92384 0.74746 0.0
C519 C 0.4889 0.93788 0.76021 0.0
C520 C 0.5003 0.93356 0.81414 0.0
C521 C 0.54138 0.94968 0.82714 0.0
C522 C 0.57082 0.96858 0.7856 0.0
C523 C 0.56015 0.975 0.73272 0.0
C524 C 0.51916 0.95969 0.72008 0.0
H525 H 0.0519 0.48841 0.84563 0.0
H526 H 0.01511 0.45653 0.67459 0.0
H527 H 0.94927 0.37238 0.80583 0.0
H528 H 0.09513 0.53157 0.76248 0.0
H529 H 0.07218 0.52277 0.69508 0.0
H530 H 0.06221 0.54965 0.84443 0.0
H531 H 0.00708 0.61817 0.80137 0.0
H532 H 0.03428 0.55638 0.67211 0.0
C533 C 0.03052 0.46804 0.81498 0.0
C534 C -0.0017 0.43054 0.83238 0.0
C535 C 0.03484 0.47907 0.75839 0.0
C536 C 0.00997 0.44982 0.71866 0.0
C537 C 0.9796 0.41124 0.73594 0.0
C538 C 0.97242 0.40257 0.79274 0.0
C539 C 0.06599 0.5216 0.74063 0.0
C540 C 0.0512 0.55037 0.75604 0.0
C541 C 0.05049 0.56046 0.81252 0.0
C542 C 0.0335 0.58374 0.82859 0.0
C543 C 0.0206 0.60032 0.78822 0.0
C544 C 0.02091 0.59092 0.73178 0.0
C545 C 0.03524 0.56491 0.71554 0.0
H546 H 0.4719 0.4569 0.87287 0.0
H547 H 0.46198 0.42379 0.70044 0.0
H548 H 0.35499 0.39698 0.79547 0.0
H549 H 0.52222 0.44237 0.82105 0.0
H550 H 0.52319 0.4433 0.7467 0.0
H551 H 0.53754 0.5043 0.87607 0.0
H552 H 0.61559 0.61771 0.79648 0.0
H553 H 0.55758 0.50681 0.69966 0.0
C554 C 0.45376 0.44602 0.83557 0.0
C555 C 0.41164 0.42968 0.83941 0.0
C556 C 0.47207 0.44452 0.78536 0.0
C557 C 0.448 0.42706 0.73823 0.0
C558 C 0.40557 0.40859 0.74206 0.0
C559 C 0.38782 0.41235 0.79176 0.0
C560 C 0.51595 0.45579 0.7844 0.0
C561 C 0.54279 0.50103 0.78697 0.0
C562 C 0.55015 0.52138 0.8382 0.0
C563 C 0.5749 0.56351 0.84138 0.0
C564 C 0.59389 0.58546 0.793 0.0
C565 C 0.5893 0.56497 0.74197 0.0
C566 C 0.56186 0.52298 0.73879 0.0
H567 H 0.73598 0.89718 0.44719 0.0
H568 H 0.73502 0.92339 0.62224 0.0
H569 H 0.66605 0.94853 0.5056 0.0
H570 H 0.78192 0.89019 0.51821 0.0
H571 H 0.76977 0.88817 0.59093 0.0
H572 H 0.72349 0.83635 0.45229 0.0
H573 H 0.65404 0.71891 0.52344 0.0
H574 H 0.73282 0.82126 0.6275 0.0
C575 C 0.72402 0.90623 0.48192 0.0
C576 C 0.69734 0.92005 0.47135 0.0
C577 C 0.73447 0.90338 0.53697 0.0
C578 C 0.72427 0.92209 0.58029 0.0
C579 C 0.70043 0.93953 0.56871 0.0
C580 C 0.68482 0.93559 0.51499 0.0
C581 C 0.75644 0.88066 0.54847 0.0
C582 C 0.72788 0.83514 0.54195 0.0
C583 C 0.7127 0.81791 0.48905 0.0
C584 C 0.68486 0.77634 0.48251 0.0
C585 C 0.67356 0.7514 0.52922 0.0
C586 C 0.69246 0.76696 0.58093 0.0
C587 C 0.7184 0.80908 0.58766 0.0
H588 H 0.18827 0.83993 0.46708 0.0
H589 H 0.18883 0.88138 0.63581 0.0
H590 H 0.26884 0.96418 0.5113 0.0
H591 H 0.16314 0.79144 0.55096 0.0
H592 H 0.1558 0.80938 0.61663 0.0
H593 H 0.12267 0.79944 0.46526 0.0
H594 H -0.00246 0.74849 0.50884 0.0
H595 H 0.08619 0.78189 0.63773 0.0
C596 C 0.19903 0.86381 0.49819 0.0
C597 C 0.22896 0.9031 0.48305 0.0
C598 C 0.18402 0.85544 0.55337 0.0
C599 C 0.19984 0.8873 0.59318 0.0
C600 C 0.23134 0.92633 0.57844 0.0
C601 C 0.24572 0.93373 0.52346 0.0
C602 C 0.15415 0.8122 0.57081 0.0
C603 C 0.11069 0.79778 0.55394 0.0
C604 C 0.10009 0.79277 0.49723 0.0
C605 C 0.05958 0.77614 0.48115 0.0
C606 C 0.02915 0.76407 0.52165 0.0
C607 C 0.03843 0.76507 0.57799 0.0
C608 C 0.07924 0.78258 0.59427 0.0
H609 H 0.14967 0.24536 0.43917 0.0
H610 H 0.16218 0.2287 0.61353 0.0
H611 H 0.26744 0.28793 0.5067 0.0
H612 H 0.08829 0.19839 0.50648 0.0
H613 H 0.09602 0.20815 0.57972 0.0
H614 H 0.09965 0.25558 0.44257 0.0
H615 H 0.06598 0.33786 0.51088 0.0
H616 H 0.08013 0.25675 0.61855 0.0
C617 C 0.16831 0.25073 0.47529 0.0
C618 C 0.21044 0.27031 0.46808 0.0
C619 C 0.15076 0.23858 0.52874 0.0
C620 C 0.1755 0.24072 0.5731 0.0
C621 C 0.21745 0.25784 0.56486 0.0
C622 C 0.23496 0.27468 0.51323 0.0
C623 C 0.1059 0.22244 0.53806 0.0
C624 C 0.09605 0.25589 0.53204 0.0
C625 C 0.09544 0.27013 0.47878 0.0
C626 C 0.08579 0.30042 0.47103 0.0
C627 C 0.07615 0.31646 0.51752 0.0
C628 C 0.07174 0.2993 0.57048 0.0
C629 C 0.08352 0.27025 0.57801 0.0
loop_
_geom_bond_atom_site_label_1
_geom_bond_atom_site_label_2
_geom_bond_distance
_geom_bond_site_symmetry_2
_ccdc_geom_bond_type
C0 O1 1.306 . S
C0 O3 1.160 . S
O1 C0 1.306 . S
O1 Cd2 2.228 1_556 S
Cd2 O1 2.228 1_554 S
Cd2 O6 2.273 . S
Cd2 O10 2.277 1_554 S
O3 C0 1.160 . S
O3 Cd4 2.203 1_656 S
Cd4 O3 2.203 1_454 S
Cd4 O6 2.411 1_455 S
Cd4 O7 2.333 . S
Cd4 O8 2.352 . S
Cd4 O12 2.277 1_554 S
Cd4 O13 2.356 . S
C5 O10 1.209 1_455 S
C5 O12 1.226 . S
O6 Cd2 2.273 . S
O6 Cd4 2.411 1_655 S
O6 C9 1.330 . S
O7 Cd4 2.333 . S
O7 C9 1.191 1_455 S
O8 Cd4 2.352 . S
O8 C11 1.258 . S
C9 O6 1.330 . S
C9 O7 1.191 1_655 S
O10 Cd2 2.277 1_556 S
O10 C5 1.209 1_655 S
C11 O8 1.258 . S
C11 O13 1.282 . S
O12 Cd4 2.277 1_556 S
O12 C5 1.226 . S
O13 Cd4 2.356 . S
O13 C11 1.282 . S
C14 O15 1.306 . S
C14 O17 1.160 . S
O15 C14 1.306 . S
O15 Cd16 2.228 . S
Cd16 O15 2.228 . S
Cd16 O20 2.273 1_554 S
Cd16 O24 2.277 . S
O17 C14 1.160 . S
O17 Cd18 2.203 . S
Cd18 O17 2.203 . S
Cd18 O20 2.411 1_554 S
Cd18 O21 2.333 1_554 S
Cd18 O22 2.352 1_554 S
Cd18 O26 2.277 . S
Cd18 O27 2.356 . S
C19 O24 1.209 . S
C19 O26 1.226 . S
O20 Cd16 2.273 1_556 S
O20 Cd18 2.411 1_556 S
O20 C23 1.320 . S
O21 Cd18 2.333 1_556 S
O21 C23 1.214 . S
O22 Cd18 2.352 1_556 S
O22 C25 1.258 . S
C23 O20 1.320 . S
C23 O21 1.214 . S
O24 Cd16 2.277 . S
O24 C19 1.209 . S
C25 O22 1.258 . S
C25 O27 1.282 1_556 S
O26 Cd18 2.277 . S
O26 C19 1.226 . S
O27 Cd18 2.356 . S
O27 C25 1.282 1_554 S
C28 O29 1.306 . S
C28 O31 1.160 . S
O29 C28 1.306 . S
O29 Cd30 2.228 . S
Cd30 O29 2.228 . S
Cd30 O34 2.273 1_554 S
Cd30 O38 2.277 . S
O31 C28 1.160 . S
O31 Cd32 2.203 1_565 S
Cd32 O31 2.203 1_545 S
Cd32 O34 2.411 1_544 S
Cd32 O35 2.333 1_554 S
Cd32 O36 2.352 1_554 S
Cd32 O40 2.277 . S
Cd32 O41 2.356 . S
C33 O38 1.209 1_545 S
C33 O40 1.226 . S
O34 Cd30 2.273 1_556 S
O34 Cd32 2.411 1_566 S
O34 C37 1.332 . S
O35 Cd32 2.333 1_556 S
O35 C37 1.187 1_545 S
O36 Cd32 2.352 1_556 S
O36 C39 1.258 . S
C37 O34 1.332 . S
C37 O35 1.187 1_565 S
O38 Cd30 2.277 . S
O38 C33 1.209 1_565 S
C39 O36 1.258 . S
C39 O41 1.282 1_556 S
O40 Cd32 2.277 . S
O40 C33 1.226 . S
O41 Cd32 2.356 . S
O41 C39 1.282 1_554 S
C42 O43 1.306 . S
C42 O45 1.160 . S
O43 C42 1.306 . S
O43 Cd44 2.228 1_556 S
Cd44 O43 2.228 1_554 S
Cd44 O48 2.273 . S
Cd44 O52 2.277 1_554 S
O45 C42 1.160 . S
O45 Cd46 2.203 1_656 S
Cd46 O45 2.203 1_454 S
Cd46 O48 2.411 1_455 S
Cd46 O49 2.333 . S
Cd46 O50 2.352 . S
Cd46 O54 2.277 1_554 S
Cd46 O55 2.356 . S
C47 O52 1.209 1_455 S
C47 O54 1.226 . S
O48 Cd44 2.273 . S
O48 Cd46 2.411 1_655 S
O48 C51 1.346 . S
O49 Cd46 2.333 . S
O49 C51 1.193 1_455 S
O50 Cd46 2.352 . S
O50 C53 1.258 . S
C51 O48 1.346 . S
C51 O49 1.193 1_655 S
O52 Cd44 2.277 1_556 S
O52 C47 1.209 1_655 S
C53 O50 1.258 . S
C53 O55 1.282 . S
O54 Cd46 2.277 1_556 S
O54 C47 1.226 . S
O55 Cd46 2.356 . S
O55 C53 1.282 . S
C56 O57 1.306 . S
C56 O59 1.160 . S
O57 C56 1.306 . S
O57 Cd58 2.228 . S
Cd58 O57 2.228 . S
Cd58 O62 2.273 1_554 S
Cd58 O66 2.277 . S
O59 C56 1.160 . S
O59 Cd60 2.203 . S
Cd60 O59 2.203 . S
Cd60 O62 2.411 1_554 S
Cd60 O63 2.333 1_554 S
Cd60 O64 2.352 1_554 S
Cd60 O68 2.277 . S
Cd60 O69 2.356 1_554 S
C61 O66 1.209 . S
C61 O68 1.226 . S
O62 Cd58 2.273 1_556 S
O62 Cd60 2.411 1_556 S
O62 C65 1.320 . S
O63 Cd60 2.333 1_556 S
O63 C65 1.214 . S
O64 Cd60 2.352 1_556 S
O64 C67 1.258 . S
C65 O62 1.320 . S
C65 O63 1.214 . S
O66 Cd58 2.277 . S
O66 C61 1.209 . S
C67 O64 1.258 . S
C67 O69 1.282 . S
O68 Cd60 2.277 . S
O68 C61 1.226 . S
O69 Cd60 2.356 1_556 S
O69 C67 1.282 . S
C70 O71 1.306 . S
C70 O73 1.160 . S
O71 C70 1.306 . S
O71 Cd72 2.228 1_556 S
Cd72 O71 2.228 1_554 S
Cd72 O76 2.273 . S
Cd72 O80 2.277 1_554 S
O73 C70 1.160 . S
O73 Cd74 2.203 1_546 S
Cd74 O73 2.203 1_564 S
Cd74 O76 2.411 1_565 S
Cd74 O77 2.333 . S
Cd74 O78 2.352 . S
Cd74 O82 2.277 1_554 S
Cd74 O83 2.356 . S
C75 O80 1.209 1_565 S
C75 O82 1.226 . S
O76 Cd72 2.273 . S
O76 Cd74 2.411 1_545 S
O76 C79 1.320 . S
O77 Cd74 2.333 . S
O77 C79 1.214 1_565 S
O78 Cd74 2.352 . S
O78 C81 1.258 . S
C79 O76 1.320 . S
C79 O77 1.214 1_545 S
O80 Cd72 2.277 1_556 S
O80 C75 1.209 1_545 S
C81 O78 1.258 . S
C81 O83 1.282 . S
O82 Cd74 2.277 1_556 S
O82 C75 1.226 . S
O83 Cd74 2.356 . S
O83 C81 1.282 . S
C84 O85 1.306 . S
C84 O87 1.160 . S
O85 C84 1.306 . S
O85 Cd86 2.228 . S
Cd86 O85 2.228 . S
Cd86 O90 2.273 . S
Cd86 O94 2.277 . S
O87 C84 1.160 . S
O87 Cd88 2.203 . S
Cd88 O87 2.203 . S
Cd88 O90 2.411 . S
Cd88 O91 2.333 . S
Cd88 O92 2.352 . S
Cd88 O96 2.277 . S
Cd88 O97 2.356 . S
C89 O94 1.209 . S
C89 O96 1.226 . S
O90 Cd86 2.273 . S
O90 Cd88 2.411 . S
O90 C93 1.320 . S
O91 Cd88 2.333 . S
O91 C93 1.214 . S
O92 Cd88 2.352 . S
O92 C95 1.258 . S
C93 O90 1.320 . S
C93 O91 1.214 . S
O94 Cd86 2.277 . S
O94 C89 1.209 . S
C95 O92 1.258 . S
C95 O97 1.282 . S
O96 Cd88 2.277 . S
O96 C89 1.226 . S
O97 Cd88 2.356 . S
O97 C95 1.282 . S
C98 O99 1.306 . S
C98 O101 1.160 . S
O99 C98 1.306 . S
O99 Cd100 2.228 1_545 S
Cd100 O99 2.228 1_565 S
Cd100 O104 2.273 . S
Cd100 O108 2.277 . S
O101 C98 1.160 . S
O101 Cd102 2.203 1_545 S
Cd102 O101 2.203 1_565 S
Cd102 O104 2.411 . S
Cd102 O105 2.333 . S
Cd102 O106 2.352 1_565 S
Cd102 O110 2.277 . S
Cd102 O111 2.356 . S
C103 O108 1.209 . S
C103 O110 1.226 . S
O104 Cd100 2.273 . S
O104 Cd102 2.411 . S
O104 C107 1.320 . S
O105 Cd102 2.333 . S
O105 C107 1.214 . S
O106 Cd102 2.352 1_545 S
O106 C109 1.258 1_545 S
C107 O104 1.320 . S
C107 O105 1.214 . S
O108 Cd100 2.277 . S
O108 C103 1.209 . S
C109 O106 1.258 1_565 S
C109 O111 1.282 . S
O110 Cd102 2.277 . S
O110 C103 1.226 . S
O111 Cd102 2.356 . S
O111 C109 1.282 . S
C112 O113 1.306 . S
C112 O115 1.160 . S
O113 C112 1.306 . S
O113 Cd114 2.228 1_655 S
Cd114 O113 2.228 1_455 S
Cd114 O118 2.273 . S
Cd114 O122 2.277 . S
O115 C112 1.160 . S
O115 Cd116 2.203 1_655 S
Cd116 O115 2.203 1_455 S
Cd116 O118 2.411 . S
Cd116 O119 2.333 . S
Cd116 O120 2.352 1_455 S
Cd116 O124 2.277 . S
Cd116 O125 2.356 . S
C117 O122 1.209 . S
C117 O124 1.226 . S
O118 Cd114 2.273 . S
O118 Cd116 2.411 . S
O118 C121 1.320 . S
O119 Cd116 2.333 . S
O119 C121 1.214 . S
O120 Cd116 2.352 1_655 S
O120 C123 1.258 1_655 S
C121 O118 1.320 . S
C121 O119 1.214 . S
O122 Cd114 2.277 . S
O122 C117 1.209 . S
C123 O120 1.258 1_455 S
C123 O125 1.282 . S
O124 Cd116 2.277 . S
O124 C117 1.226 . S
O125 Cd116 2.356 . S
O125 C123 1.282 . S
C126 O127 1.306 . S
C126 O129 1.160 1_565 S
O127 C126 1.306 . S
O127 Cd128 2.228 . S
Cd128 O127 2.228 . S
Cd128 O132 2.273 . S
Cd128 O136 2.277 . S
O129 C126 1.160 1_545 S
O129 Cd130 2.203 1_545 S
Cd130 O129 2.203 1_565 S
Cd130 O132 2.411 . S
Cd130 O133 2.333 . S
Cd130 O134 2.352 1_565 S
Cd130 O138 2.277 . S
Cd130 O139 2.356 1_565 S
C131 O136 1.209 . S
C131 O138 1.226 . S
O132 Cd128 2.273 . S
O132 Cd130 2.411 . S
O132 C135 1.320 . S
O133 Cd130 2.333 . S
O133 C135 1.214 . S
O134 Cd130 2.352 1_545 S
O134 C137 1.258 . S
C135 O132 1.320 . S
C135 O133 1.214 . S
O136 Cd128 2.277 . S
O136 C131 1.209 . S
C137 O134 1.258 . S
C137 O139 1.282 . S
O138 Cd130 2.277 . S
O138 C131 1.226 . S
O139 Cd130 2.356 1_545 S
O139 C137 1.282 . S
C140 O141 1.306 . S
C140 O143 1.160 . S
O141 C140 1.306 . S
O141 Cd142 2.228 1_655 S
Cd142 O141 2.228 1_455 S
Cd142 O146 2.273 . S
Cd142 O150 2.277 . S
O143 C140 1.160 . S
O143 Cd144 2.203 1_655 S
Cd144 O143 2.203 1_455 S
Cd144 O146 2.411 . S
Cd144 O147 2.333 . S
Cd144 O148 2.352 1_455 S
Cd144 O152 2.277 . S
Cd144 O153 2.356 . S
C145 O150 1.209 . S
C145 O152 1.226 . S
O146 Cd142 2.273 . S
O146 Cd144 2.411 . S
O146 C149 1.320 . S
O147 Cd144 2.333 . S
O147 C149 1.214 . S
O148 Cd144 2.352 1_655 S
O148 C151 1.258 1_655 S
C149 O146 1.320 . S
C149 O147 1.214 . S
O150 Cd142 2.277 . S
O150 C145 1.209 . S
C151 O148 1.258 1_455 S
C151 O153 1.282 . S
O152 Cd144 2.277 . S
O152 C145 1.226 . S
O153 Cd144 2.356 . S
O153 C151 1.282 . S
C154 O155 1.306 . S
C154 O157 1.160 . S
O155 C154 1.306 . S
O155 Cd156 2.228 . S
Cd156 O155 2.228 . S
Cd156 O160 2.273 . S
Cd156 O164 2.277 . S
O157 C154 1.160 . S
O157 Cd158 2.203 . S
Cd158 O157 2.203 . S
Cd158 O160 2.411 . S
Cd158 O161 2.333 . S
Cd158 O162 2.352 . S
Cd158 O166 2.277 . S
Cd158 O167 2.356 . S
C159 O164 1.209 . S
C159 O166 1.226 . S
O160 Cd156 2.273 . S
O160 Cd158 2.411 . S
O160 C163 1.320 . S
O161 Cd158 2.333 . S
O161 C163 1.214 . S
O162 Cd158 2.352 . S
O162 C165 1.258 . S
C163 O160 1.320 . S
C163 O161 1.214 . S
O164 Cd156 2.277 . S
O164 C159 1.209 . S
C165 O162 1.258 . S
C165 O167 1.282 . S
O166 Cd158 2.277 . S
O166 C159 1.226 . S
O167 Cd158 2.356 . S
O167 C165 1.282 . S
C168 O169 1.306 . S
C168 O171 1.160 . S
O169 C168 1.306 . S
O169 Cd170 2.228 1_565 S
Cd170 O169 2.228 1_545 S
Cd170 O174 2.273 . S
Cd170 O178 2.277 . S
O171 C168 1.160 . S
O171 Cd172 2.203 1_565 S
Cd172 O171 2.203 1_545 S
Cd172 O174 2.411 . S
Cd172 O175 2.333 . S
Cd172 O176 2.352 1_545 S
Cd172 O180 2.277 . S
Cd172 O181 2.356 . S
C173 O178 1.209 . S
C173 O180 1.226 . S
O174 Cd170 2.273 . S
O174 Cd172 2.411 . S
O174 C177 1.320 . S
O175 Cd172 2.333 . S
O175 C177 1.214 . S
O176 Cd172 2.352 1_565 S
O176 C179 1.258 1_565 S
C177 O174 1.320 . S
C177 O175 1.214 . S
O178 Cd170 2.277 . S
O178 C173 1.209 . S
C179 O176 1.258 1_545 S
C179 O181 1.282 . S
O180 Cd172 2.277 . S
O180 C173 1.226 . S
O181 Cd172 2.356 . S
O181 C179 1.282 . S
C182 O183 1.306 . S
C182 O185 1.160 1_655 S
O183 C182 1.306 . S
O183 Cd184 2.228 . S
Cd184 O183 2.228 . S
Cd184 O188 2.273 . S
Cd184 O192 2.277 . S
O185 C182 1.160 1_455 S
O185 Cd186 2.203 1_455 S
Cd186 O185 2.203 1_655 S
Cd186 O188 2.411 . S
Cd186 O189 2.333 . S
Cd186 O190 2.352 1_655 S
Cd186 O194 2.277 . S
Cd186 O195 2.356 1_655 S
C187 O192 1.209 . S
C187 O194 1.226 . S
O188 Cd184 2.273 . S
O188 Cd186 2.411 . S
O188 C191 1.320 . S
O189 Cd186 2.333 . S
O189 C191 1.214 . S
O190 Cd186 2.352 1_455 S
O190 C193 1.258 . S
C191 O188 1.320 . S
C191 O189 1.214 . S
O192 Cd184 2.277 . S
O192 C187 1.209 . S
C193 O190 1.258 . S
C193 O195 1.282 . S
O194 Cd186 2.277 . S
O194 C187 1.226 . S
O195 Cd186 2.356 1_455 S
O195 C193 1.282 . S
C196 O197 1.306 . S
C196 O199 1.160 . S
O197 C196 1.306 . S
O197 Cd198 2.228 . S
Cd198 O197 2.228 . S
Cd198 O202 2.273 . S
Cd198 O206 2.277 . S
O199 C196 1.160 . S
O199 Cd200 2.203 . S
Cd200 O199 2.203 . S
Cd200 O202 2.411 . S
Cd200 O203 2.333 . S
Cd200 O204 2.352 . S
Cd200 O208 2.277 . S
Cd200 O209 2.356 . S
C201 O206 1.209 . S
C201 O208 1.226 . S
O202 Cd198 2.273 . S
O202 Cd200 2.411 . S
O202 C205 1.320 . S
O203 Cd200 2.333 . S
O203 C205 1.214 . S
O204 Cd200 2.352 . S
O204 C207 1.258 . S
C205 O202 1.320 . S
C205 O203 1.214 . S
O206 Cd198 2.277 . S
O206 C201 1.209 . S
C207 O204 1.258 . S
C207 O209 1.282 . S
O208 Cd200 2.277 . S
O208 C201 1.226 . S
O209 Cd200 2.356 . S
O209 C207 1.282 . S
C210 O211 1.306 . S
C210 O213 1.160 . S
O211 C210 1.306 . S
O211 Cd212 2.228 . S
Cd212 O211 2.228 . S
Cd212 O216 2.273 . S
Cd212 O220 2.277 . S
O213 C210 1.160 . S
O213 Cd214 2.203 . S
Cd214 O213 2.203 . S
Cd214 O216 2.411 . S
Cd214 O217 2.333 . S
Cd214 O218 2.352 . S
Cd214 O222 2.277 . S
Cd214 O223 2.356 . S
C215 O220 1.209 . S
C215 O222 1.226 . S
O216 Cd212 2.273 . S
O216 Cd214 2.411 . S
O216 C219 1.320 . S
O217 Cd214 2.333 . S
O217 C219 1.214 . S
O218 Cd214 2.352 . S
O218 C221 1.258 . S
C219 O216 1.320 . S
C219 O217 1.214 . S
O220 Cd212 2.277 . S
O220 C215 1.209 . S
C221 O218 1.258 . S
C221 O223 1.282 . S
O222 Cd214 2.277 . S
O222 C215 1.226 . S
O223 Cd214 2.356 . S
O223 C221 1.282 . S
C224 O225 1.306 . S
C224 O227 1.160 1_545 S
O225 C224 1.306 . S
O225 Cd226 2.228 . S
Cd226 O225 2.228 . S
Cd226 O230 2.273 . S
Cd226 O234 2.277 . S
O227 C224 1.160 1_565 S
O227 Cd228 2.203 1_565 S
Cd228 O227 2.203 1_545 S
Cd228 O230 2.411 . S
Cd228 O231 2.333 . S
Cd228 O232 2.352 1_545 S
Cd228 O236 2.277 . S
Cd228 O237 2.356 1_545 S
C229 O234 1.209 . S
C229 O236 1.226 . S
O230 Cd226 2.273 . S
O230 Cd228 2.411 . S
O230 C233 1.320 . S
O231 Cd228 2.333 . S
O231 C233 1.214 . S
O232 Cd228 2.352 1_565 S
O232 C235 1.258 . S
C233 O230 1.320 . S
C233 O231 1.214 . S
O234 Cd226 2.277 . S
O234 C229 1.209 . S
C235 O232 1.258 . S
C235 O237 1.282 . S
O236 Cd228 2.277 . S
O236 C229 1.226 . S
O237 Cd228 2.356 1_565 S
O237 C235 1.282 . S
C238 O239 1.306 . S
C238 O241 1.160 . S
O239 C238 1.306 . S
O239 Cd240 2.228 1_455 S
Cd240 O239 2.228 1_655 S
Cd240 O244 2.273 . S
Cd240 O248 2.277 . S
O241 C238 1.160 . S
O241 Cd242 2.203 1_455 S
Cd242 O241 2.203 1_655 S
Cd242 O244 2.411 . S
Cd242 O245 2.333 . S
Cd242 O246 2.352 1_655 S
Cd242 O250 2.277 . S
Cd242 O251 2.356 . S
C243 O248 1.209 . S
C243 O250 1.226 . S
O244 Cd240 2.273 . S
O244 Cd242 2.411 . S
O244 C247 1.320 . S
O245 Cd242 2.333 . S
O245 C247 1.214 . S
O246 Cd242 2.352 1_455 S
O246 C249 1.258 1_455 S
C247 O244 1.320 . S
C247 O245 1.214 . S
O248 Cd240 2.277 . S
O248 C243 1.209 . S
C249 O246 1.258 1_655 S
C249 O251 1.282 . S
O250 Cd242 2.277 . S
O250 C243 1.226 . S
O251 Cd242 2.356 . S
O251 C249 1.282 . S
H252 C260 0.930 . S
H253 C263 0.930 . S
H254 C265 0.930 . S
H255 C266 0.970 . S
H256 C266 0.970 . S
H257 C268 0.930 . S
H258 C270 0.930 . S
H259 C272 0.930 . S
C260 H252 0.930 . S
C260 C261 1.382 . S
C260 C262 1.426 . S
C261 C260 1.382 . S
C261 C265 1.389 . S
C262 C260 1.426 . S
C262 C263 1.375 . S
C262 C266 1.532 . S
C263 H253 0.930 . S
C263 C262 1.375 . S
C263 C264 1.416 . S
C264 C263 1.416 . S
C264 C265 1.371 . S
C265 H254 0.930 . S
C265 C261 1.389 . S
C265 C264 1.371 . S
C266 H255 0.970 . S
C266 H256 0.970 . S
C266 C262 1.532 . S
C266 C267 1.499 . S
C267 C266 1.499 . S
C267 C268 1.370 . S
C267 C272 1.415 . S
C268 H257 0.930 . S
C268 C267 1.370 . S
C268 C269 1.407 . S
C269 C268 1.407 . S
C269 C270 1.365 . S
C270 H258 0.930 . S
C270 C269 1.365 . S
C270 C271 1.393 . S
C271 C270 1.393 . S
C271 C272 1.387 . S
C272 H259 0.930 . S
C272 C267 1.415 . S
C272 C271 1.387 . S
H273 C281 0.930 . S
H274 C284 0.930 . S
H275 C286 0.930 . S
H276 C287 0.970 . S
H277 C287 0.970 . S
H278 C289 0.930 . S
H279 C291 0.930 . S
H280 C293 0.930 . S
C281 H273 0.930 . S
C281 C282 1.382 . S
C281 C283 1.426 . S
C282 C281 1.382 . S
C282 C286 1.389 . S
C283 C281 1.426 . S
C283 C284 1.375 . S
C283 C287 1.532 . S
C284 H274 0.930 . S
C284 C283 1.375 . S
C284 C285 1.416 . S
C285 C284 1.416 . S
C285 C286 1.371 . S
C286 H275 0.930 . S
C286 C282 1.389 . S
C286 C285 1.371 . S
C287 H276 0.970 . S
C287 H277 0.970 . S
C287 C283 1.532 . S
C287 C288 1.499 . S
C288 C287 1.499 . S
C288 C289 1.370 . S
C288 C293 1.415 . S
C289 H278 0.930 . S
C289 C288 1.370 . S
C289 C290 1.407 . S
C290 C289 1.407 . S
C290 C291 1.365 . S
C291 H279 0.930 . S
C291 C290 1.365 . S
C291 C292 1.393 . S
C292 C291 1.393 . S
C292 C293 1.387 . S
C293 H280 0.930 . S
C293 C288 1.415 . S
C293 C292 1.387 . S
H294 C302 0.930 . S
H295 C305 0.930 . S
H296 C307 0.930 . S
H297 C308 0.970 . S
H298 C308 0.970 . S
H299 C310 0.930 . S
H300 C312 0.930 . S
H301 C314 0.930 . S
C302 H294 0.930 . S
C302 C303 1.382 . S
C302 C304 1.426 . S
C303 C302 1.382 . S
C303 C307 1.389 . S
C304 C302 1.426 . S
C304 C305 1.375 . S
C304 C308 1.532 . S
C305 H295 0.930 . S
C305 C304 1.375 . S
C305 C306 1.416 . S
C306 C305 1.416 . S
C306 C307 1.371 . S
C307 H296 0.930 . S
C307 C303 1.389 . S
C307 C306 1.371 . S
C308 H297 0.970 . S
C308 H298 0.970 . S
C308 C304 1.532 . S
C308 C309 1.499 . S
C309 C308 1.499 . S
C309 C310 1.370 . S
C309 C314 1.415 . S
C310 H299 0.930 . S
C310 C309 1.370 . S
C310 C311 1.407 . S
C311 C310 1.407 . S
C311 C312 1.365 . S
C312 H300 0.930 . S
C312 C311 1.365 . S
C312 C313 1.393 . S
C313 C312 1.393 . S
C313 C314 1.387 . S
C314 H301 0.930 . S
C314 C309 1.415 . S
C314 C313 1.387 . S
H315 C323 0.930 . S
H316 C326 0.930 . S
H317 C328 0.930 . S
H318 C329 0.970 . S
H319 C329 0.970 . S
H320 C331 0.930 . S
H321 C333 0.930 . S
H322 C335 0.930 . S
C323 H315 0.930 . S
C323 C324 1.382 . S
C323 C325 1.426 . S
C324 C323 1.382 . S
C324 C328 1.389 . S
C325 C323 1.426 . S
C325 C326 1.375 . S
C325 C329 1.532 . S
C326 H316 0.930 . S
C326 C325 1.375 . S
C326 C327 1.416 . S
C327 C326 1.416 . S
C327 C328 1.371 . S
C328 H317 0.930 . S
C328 C324 1.389 . S
C328 C327 1.371 . S
C329 H318 0.970 . S
C329 H319 0.970 . S
C329 C325 1.532 . S
C329 C330 1.499 . S
C330 C329 1.499 . S
C330 C331 1.370 . S
C330 C335 1.415 . S
C331 H320 0.930 . S
C331 C330 1.370 . S
C331 C332 1.407 . S
C332 C331 1.407 . S
C332 C333 1.365 . S
C333 H321 0.930 . S
C333 C332 1.365 . S
C333 C334 1.393 . S
C334 C333 1.393 . S
C334 C335 1.387 . S
C335 H322 0.930 . S
C335 C330 1.415 . S
C335 C334 1.387 . S
H336 C344 0.930 . S
H337 C347 0.930 . S
H338 C349 0.930 . S
H339 C350 0.970 . S
H340 C350 0.970 . S
H341 C352 0.930 . S
H342 C354 0.930 . S
H343 C356 0.930 . S
C344 H336 0.930 . S
C344 C345 1.382 . S
C344 C346 1.426 . S
C345 C344 1.382 . S
C345 C349 1.389 . S
C346 C344 1.426 . S
C346 C347 1.375 . S
C346 C350 1.532 . S
C347 H337 0.930 . S
C347 C346 1.375 . S
C347 C348 1.416 . S
C348 C347 1.416 . S
C348 C349 1.371 . S
C349 H338 0.930 . S
C349 C345 1.389 . S
C349 C348 1.371 . S
C350 H339 0.970 . S
C350 H340 0.970 . S
C350 C346 1.532 . S
C350 C351 1.499 . S
C351 C350 1.499 . S
C351 C352 1.370 . S
C351 C356 1.415 . S
C352 H341 0.930 . S
C352 C351 1.370 . S
C352 C353 1.407 . S
C353 C352 1.407 . S
C353 C354 1.365 . S
C354 H342 0.930 . S
C354 C353 1.365 . S
C354 C355 1.393 . S
C355 C354 1.393 . S
C355 C356 1.387 . S
C356 H343 0.930 . S
C356 C351 1.415 . S
C356 C355 1.387 . S
H357 C365 0.930 . S
H358 C368 0.930 . S
H359 C370 0.930 . S
H360 C371 0.970 . S
H361 C371 0.970 . S
H362 C373 0.930 . S
H363 C375 0.930 . S
H364 C377 0.930 . S
C365 H357 0.930 . S
C365 C366 1.382 . S
C365 C367 1.426 . S
C366 C365 1.382 . S
C366 C370 1.389 . S
C367 C365 1.426 . S
C367 C368 1.375 . S
C367 C371 1.532 . S
C368 H358 0.930 . S
C368 C367 1.375 . S
C368 C369 1.416 . S
C369 C368 1.416 . S
C369 C370 1.371 . S
C370 H359 0.930 . S
C370 C366 1.389 . S
C370 C369 1.371 . S
C371 H360 0.970 . S
C371 H361 0.970 . S
C371 C367 1.532 . S
C371 C372 1.499 . S
C372 C371 1.499 . S
C372 C373 1.370 . S
C372 C377 1.415 . S
C373 H362 0.930 . S
C373 C372 1.370 . S
C373 C374 1.407 . S
C374 C373 1.407 . S
C374 C375 1.365 . S
C375 H363 0.930 . S
C375 C374 1.365 . S
C375 C376 1.393 . S
C376 C375 1.393 . S
C376 C377 1.387 . S
C377 H364 0.930 . S
C377 C372 1.415 . S
C377 C376 1.387 . S
H378 C386 0.930 . S
H379 C389 0.930 . S
H380 C391 0.930 . S
H381 C392 0.970 . S
H382 C392 0.970 . S
H383 C394 0.930 . S
H384 C396 0.930 . S
H385 C398 0.930 . S
C386 H378 0.930 . S
C386 C387 1.382 . S
C386 C388 1.426 . S
C387 C386 1.382 . S
C387 C391 1.389 . S
C388 C386 1.426 . S
C388 C389 1.375 . S
C388 C392 1.532 . S
C389 H379 0.930 . S
C389 C388 1.375 . S
C389 C390 1.416 . S
C390 C389 1.416 . S
C390 C391 1.371 . S
C391 H380 0.930 . S
C391 C387 1.389 . S
C391 C390 1.371 . S
C392 H381 0.970 . S
C392 H382 0.970 . S
C392 C388 1.532 . S
C392 C393 1.499 . S
C393 C392 1.499 . S
C393 C394 1.370 . S
C393 C398 1.415 . S
C394 H383 0.930 . S
C394 C393 1.370 . S
C394 C395 1.407 . S
C395 C394 1.407 . S
C395 C396 1.365 . S
C396 H384 0.930 . S
C396 C395 1.365 . S
C396 C397 1.393 . S
C397 C396 1.393 . S
C397 C398 1.387 . S
C398 H385 0.930 . S
C398 C393 1.415 . S
C398 C397 1.387 . S
H399 C407 0.930 . S
H400 C410 0.930 . S
H401 C412 0.930 . S
H402 C413 0.970 . S
H403 C413 0.970 . S
H404 C415 0.930 . S
H405 C417 0.930 . S
H406 C419 0.930 . S
C407 H399 0.930 . S
C407 C408 1.382 . S
C407 C409 1.426 . S
C408 C407 1.382 . S
C408 C412 1.389 . S
C409 C407 1.426 . S
C409 C410 1.375 . S
C409 C413 1.532 . S
C410 H400 0.930 . S
C410 C409 1.375 . S
C410 C411 1.416 . S
C411 C410 1.416 . S
C411 C412 1.371 . S
C412 H401 0.930 . S
C412 C408 1.389 . S
C412 C411 1.371 . S
C413 H402 0.970 . S
C413 H403 0.970 . S
C413 C409 1.532 . S
C413 C414 1.499 . S
C414 C413 1.499 . S
C414 C415 1.370 . S
C414 C419 1.415 . S
C415 H404 0.930 . S
C415 C414 1.370 . S
C415 C416 1.407 . S
C416 C415 1.407 . S
C416 C417 1.365 . S
C417 H405 0.930 . S
C417 C416 1.365 . S
C417 C418 1.393 . S
C418 C417 1.393 . S
C418 C419 1.387 . S
C419 H406 0.930 . S
C419 C414 1.415 . S
C419 C418 1.387 . S
H420 C428 0.930 . S
H421 C431 0.930 . S
H422 C433 0.930 . S
H423 C434 0.970 . S
H424 C434 0.970 . S
H425 C436 0.930 . S
H426 C438 0.930 . S
H427 C440 0.930 . S
C428 H420 0.930 . S
C428 C429 1.382 . S
C428 C430 1.426 . S
C429 C428 1.382 . S
C429 C433 1.389 . S
C430 C428 1.426 . S
C430 C431 1.375 . S
C430 C434 1.532 . S
C431 H421 0.930 . S
C431 C430 1.375 . S
C431 C432 1.416 . S
C432 C431 1.416 . S
C432 C433 1.371 . S
C433 H422 0.930 . S
C433 C429 1.389 . S
C433 C432 1.371 . S
C434 H423 0.970 . S
C434 H424 0.970 . S
C434 C430 1.532 . S
C434 C435 1.499 . S
C435 C434 1.499 . S
C435 C436 1.370 . S
C435 C440 1.415 . S
C436 H425 0.930 . S
C436 C435 1.370 . S
C436 C437 1.407 . S
C437 C436 1.407 . S
C437 C438 1.365 . S
C438 H426 0.930 . S
C438 C437 1.365 . S
C438 C439 1.393 . S
C439 C438 1.393 . S
C439 C440 1.387 . S
C440 H427 0.930 . S
C440 C435 1.415 . S
C440 C439 1.387 . S
H441 C449 0.930 . S
H442 C452 0.930 . S
H443 C454 0.930 . S
H444 C455 0.970 . S
H445 C455 0.970 . S
H446 C457 0.930 . S
H447 C459 0.930 . S
H448 C461 0.930 . S
C449 H441 0.930 . S
C449 C450 1.382 . S
C449 C451 1.426 . S
C450 C449 1.382 . S
C450 C454 1.389 1_455 S
C451 C449 1.426 . S
C451 C452 1.375 . S
C451 C455 1.532 . S
C452 H442 0.930 . S
C452 C451 1.375 . S
C452 C453 1.416 . S
C453 C452 1.416 . S
C453 C454 1.371 1_455 S
C454 H443 0.930 . S
C454 C450 1.389 1_655 S
C454 C453 1.371 1_655 S
C455 H444 0.970 . S
C455 H445 0.970 . S
C455 C451 1.532 . S
C455 C456 1.499 . S
C456 C455 1.499 . S
C456 C457 1.370 . S
C456 C461 1.415 . S
C457 H446 0.930 . S
C457 C456 1.370 . S
C457 C458 1.409 . S
C458 C457 1.409 . S
C458 C459 1.368 1_455 S
C459 H447 0.930 . S
C459 C458 1.368 1_655 S
C459 C460 1.393 1_655 S
C460 C459 1.393 1_455 S
C460 C461 1.387 . S
C461 H448 0.930 . S
C461 C456 1.415 . S
C461 C460 1.387 . S
H462 C470 0.930 . S
H463 C473 0.930 . S
H464 C475 0.930 . S
H465 C476 0.970 . S
H466 C476 0.970 . S
H467 C478 0.930 . S
H468 C480 0.930 . S
H469 C482 0.930 . S
C470 H462 0.930 . S
C470 C471 1.382 . S
C470 C472 1.426 . S
C471 C470 1.382 . S
C471 C475 1.389 . S
C472 C470 1.426 . S
C472 C473 1.375 . S
C472 C476 1.532 . S
C473 H463 0.930 . S
C473 C472 1.375 . S
C473 C474 1.416 . S
C474 C473 1.416 . S
C474 C475 1.371 . S
C475 H464 0.930 . S
C475 C471 1.389 . S
C475 C474 1.371 . S
C476 H465 0.970 . S
C476 H466 0.970 . S
C476 C472 1.532 . S
C476 C477 1.499 . S
C477 C476 1.499 . S
C477 C478 1.370 . S
C477 C482 1.415 . S
C478 H467 0.930 . S
C478 C477 1.370 . S
C478 C479 1.407 . S
C479 C478 1.407 . S
C479 C480 1.365 . S
C480 H468 0.930 . S
C480 C479 1.365 . S
C480 C481 1.393 . S
C481 C480 1.393 . S
C481 C482 1.387 . S
C482 H469 0.930 . S
C482 C477 1.415 . S
C482 C481 1.387 . S
H483 C491 0.930 . S
H484 C494 0.930 . S
H485 C496 0.930 . S
H486 C497 0.970 . S
H487 C497 0.970 . S
H488 C499 0.930 . S
H489 C501 0.930 . S
H490 C503 0.930 . S
C491 H483 0.930 . S
C491 C492 1.382 . S
C491 C493 1.426 . S
C492 C491 1.382 . S
C492 C496 1.389 1_565 S
C493 C491 1.426 . S
C493 C494 1.375 . S
C493 C497 1.532 . S
C494 H484 0.930 . S
C494 C493 1.375 . S
C494 C495 1.416 . S
C495 C494 1.416 . S
C495 C496 1.371 1_565 S
C496 H485 0.930 . S
C496 C492 1.389 1_545 S
C496 C495 1.371 1_545 S
C497 H486 0.970 . S
C497 H487 0.970 . S
C497 C493 1.532 . S
C497 C498 1.499 . S
C498 C497 1.499 . S
C498 C499 1.370 . S
C498 C503 1.415 . S
C499 H488 0.930 . S
C499 C498 1.370 . S
C499 C500 1.419 . S
C500 C499 1.419 . S
C500 C501 1.360 1_565 S
C501 H489 0.930 . S
C501 C500 1.360 1_545 S
C501 C502 1.393 1_545 S
C502 C501 1.393 1_565 S
C502 C503 1.387 . S
C503 H490 0.930 . S
C503 C498 1.415 . S
C503 C502 1.387 . S
H504 C512 0.930 . S
H505 C515 0.930 . S
H506 C517 0.930 . S
H507 C518 0.970 . S
H508 C518 0.970 . S
H509 C520 0.930 . S
H510 C522 0.930 . S
H511 C524 0.930 . S
C512 H504 0.930 . S
C512 C513 1.382 . S
C512 C514 1.426 . S
C513 C512 1.382 . S
C513 C517 1.389 1_565 S
C514 C512 1.426 . S
C514 C515 1.375 . S
C514 C518 1.532 . S
C515 H505 0.930 . S
C515 C514 1.375 . S
C515 C516 1.416 . S
C516 C515 1.416 . S
C516 C517 1.371 1_565 S
C517 H506 0.930 . S
C517 C513 1.389 1_545 S
C517 C516 1.371 1_545 S
C518 H507 0.970 . S
C518 H508 0.970 . S
C518 C514 1.532 . S
C518 C519 1.499 . S
C519 C518 1.499 . S
C519 C520 1.370 . S
C519 C524 1.415 . S
C520 H509 0.930 . S
C520 C519 1.370 . S
C520 C521 1.407 . S
C521 C520 1.407 . S
C521 C522 1.365 1_565 S
C522 H510 0.930 . S
C522 C521 1.365 1_545 S
C522 C523 1.393 1_545 S
C523 C522 1.393 1_565 S
C523 C524 1.387 . S
C524 H511 0.930 . S
C524 C519 1.415 . S
C524 C523 1.387 . S
H525 C533 0.930 . S
H526 C536 0.930 . S
H527 C538 0.930 . S
H528 C539 0.970 . S
H529 C539 0.970 . S
H530 C541 0.930 . S
H531 C543 0.930 . S
H532 C545 0.930 . S
C533 H525 0.930 . S
C533 C534 1.382 . S
C533 C535 1.426 . S
C534 C533 1.382 . S
C534 C538 1.389 1_455 S
C535 C533 1.426 . S
C535 C536 1.375 . S
C535 C539 1.532 . S
C536 H526 0.930 . S
C536 C535 1.375 . S
C536 C537 1.416 . S
C537 C536 1.416 . S
C537 C538 1.371 1_455 S
C538 H527 0.930 . S
C538 C534 1.389 1_655 S
C538 C537 1.371 1_655 S
C539 H528 0.970 . S
C539 H529 0.970 . S
C539 C535 1.532 . S
C539 C540 1.499 . S
C540 C539 1.499 . S
C540 C541 1.370 . S
C540 C545 1.415 . S
C541 H530 0.930 . S
C541 C540 1.370 . S
C541 C542 1.407 . S
C542 C541 1.407 . S
C542 C543 1.365 1_455 S
C543 H531 0.930 . S
C543 C542 1.365 1_655 S
C543 C544 1.393 1_655 S
C544 C543 1.393 1_455 S
C544 C545 1.387 . S
C545 H532 0.930 . S
C545 C540 1.415 . S
C545 C544 1.387 . S
H546 C554 0.930 . S
H547 C557 0.930 . S
H548 C559 0.930 . S
H549 C560 0.970 . S
H550 C560 0.970 . S
H551 C562 0.930 . S
H552 C564 0.930 . S
H553 C566 0.930 . S
C554 H546 0.930 . S
C554 C555 1.382 . S
C554 C556 1.426 . S
C555 C554 1.382 . S
C555 C559 1.389 . S
C556 C554 1.426 . S
C556 C557 1.375 . S
C556 C560 1.532 . S
C557 H547 0.930 . S
C557 C556 1.375 . S
C557 C558 1.416 . S
C558 C557 1.416 . S
C558 C559 1.371 . S
C559 H548 0.930 . S
C559 C555 1.389 . S
C559 C558 1.371 . S
C560 H549 0.970 . S
C560 H550 0.970 . S
C560 C556 1.532 . S
C560 C561 1.499 . S
C561 C560 1.499 . S
C561 C562 1.370 . S
C561 C566 1.415 . S
C562 H551 0.930 . S
C562 C561 1.370 . S
C562 C563 1.407 . S
C563 C562 1.407 . S
C563 C564 1.365 . S
C564 H552 0.930 . S
C564 C563 1.365 . S
C564 C565 1.393 . S
C565 C564 1.393 . S
C565 C566 1.387 . S
C566 H553 0.930 . S
C566 C561 1.415 . S
C566 C565 1.387 . S
H567 C575 0.930 . S
H568 C578 0.930 . S
H569 C580 0.930 . S
H570 C581 0.970 . S
H571 C581 0.970 . S
H572 C583 0.930 . S
H573 C585 0.930 . S
H574 C587 0.930 . S
C575 H567 0.930 . S
C575 C576 1.382 . S
C575 C577 1.426 . S
C576 C575 1.382 . S
C576 C580 1.389 . S
C577 C575 1.426 . S
C577 C578 1.375 . S
C577 C581 1.532 . S
C578 H568 0.930 . S
C578 C577 1.375 . S
C578 C579 1.416 . S
C579 C578 1.416 . S
C579 C580 1.371 . S
C580 H569 0.930 . S
C580 C576 1.389 . S
C580 C579 1.371 . S
C581 H570 0.970 . S
C581 H571 0.970 . S
C581 C577 1.532 . S
C581 C582 1.499 . S
C582 C581 1.499 . S
C582 C583 1.370 . S
C582 C587 1.415 . S
C583 H572 0.930 . S
C583 C582 1.370 . S
C583 C584 1.407 . S
C584 C583 1.407 . S
C584 C585 1.365 . S
C585 H573 0.930 . S
C585 C584 1.365 . S
C585 C586 1.393 . S
C586 C585 1.393 . S
C586 C587 1.387 . S
C587 H574 0.930 . S
C587 C582 1.415 . S
C587 C586 1.387 . S
H588 C596 0.930 . S
H589 C599 0.930 . S
H590 C601 0.930 . S
H591 C602 0.970 . S
H592 C602 0.970 . S
H593 C604 0.930 . S
H594 C606 0.930 . S
H595 C608 0.930 . S
C596 H588 0.930 . S
C596 C597 1.382 . S
C596 C598 1.426 . S
C597 C596 1.382 . S
C597 C601 1.389 . S
C598 C596 1.426 . S
C598 C599 1.375 . S
C598 C602 1.532 . S
C599 H589 0.930 . S
C599 C598 1.375 . S
C599 C600 1.416 . S
C600 C599 1.416 . S
C600 C601 1.371 . S
C601 H590 0.930 . S
C601 C597 1.389 . S
C601 C600 1.371 . S
C602 H591 0.970 . S
C602 H592 0.970 . S
C602 C598 1.532 . S
C602 C603 1.499 . S
C603 C602 1.499 . S
C603 C604 1.370 . S
C603 C608 1.415 . S
C604 H593 0.930 . S
C604 C603 1.370 . S
C604 C605 1.407 . S
C605 C604 1.407 . S
C605 C606 1.365 . S
C606 H594 0.930 . S
C606 C605 1.365 . S
C606 C607 1.393 . S
C607 C606 1.393 . S
C607 C608 1.387 . S
C608 H595 0.930 . S
C608 C603 1.415 . S
C608 C607 1.387 . S
H609 C617 0.930 . S
H610 C620 0.930 . S
H611 C622 0.930 . S
H612 C623 0.970 . S
H613 C623 0.970 . S
H614 C625 0.930 . S
H615 C627 0.930 . S
H616 C629 0.930 . S
C617 H609 0.930 . S
C617 C618 1.382 . S
C617 C619 1.426 . S
C618 C617 1.382 . S
C618 C622 1.389 . S
C619 C617 1.426 . S
C619 C620 1.375 . S
C619 C623 1.532 . S
C620 H610 0.930 . S
C620 C619 1.375 . S
C620 C621 1.416 . S
C621 C620 1.416 . S
C621 C622 1.371 . S
C622 H611 0.930 . S
C622 C618 1.389 . S
C622 C621 1.371 . S
C623 H612 0.970 . S
C623 H613 0.970 . S
C623 C619 1.532 . S
C623 C624 1.499 . S
C624 C623 1.499 . S
C624 C625 1.370 . S
C624 C629 1.415 . S
C625 H614 0.930 . S
C625 C624 1.370 . S
C625 C626 1.407 . S
C626 C625 1.407 . S
C626 C627 1.365 . S
C627 H615 0.930 . S
C627 C626 1.365 . S
C627 C628 1.393 . S
C628 C627 1.393 . S
C628 C629 1.387 . S
C629 H616 0.930 . S
C629 C624 1.415 . S
C629 C628 1.387 . S
C9 C458 1.545 1_655 S
C19 C471 1.717 . S
C500 C33 1.535 1_565 S
C37 C513 1.640 . S
C5 C534 1.615 . S
C23 C563 1.590 . S
C47 C542 1.547 . S
C555 C65 1.567 . S
C521 C75 1.525 . S
C79 C492 1.523 1_545 S
C450 C51 1.570 1_455 S
C61 C479 1.654 . S
C93 C584 1.639 . S
C103 C597 1.794 . S
C626 C117 1.603 . S
C121 C261 1.793 . S
C89 C282 1.823 . S
C107 C311 1.636 . S
C131 C290 1.677 . S
C149 C303 1.602 . S
C269 C159 1.656 . S
C618 C163 1.580 . S
C576 C135 1.626 . S
C605 C145 1.722 . S
C177 C332 1.603 . S
C187 C345 1.767 . S
C201 C374 1.599 . S
C205 C387 1.830 . S
C408 C173 1.842 . S
C437 C191 1.657 . S
C416 C215 1.716 . S
C429 C233 1.620 . S
C243 C395 1.667 . S
C366 C247 1.544 . S
C219 C324 1.619 . S
C353 C229 1.705 . S
C264 C11 1.430 . S
C14 C285 1.410 . S
C313 C28 1.423 . S
C334 C39 1.428 . S
C348 C0 1.471 . S
C376 C25 1.252 . S
C42 C369 1.428 . S
C67 C327 1.284 . S
C70 C355 1.483 . S
C81 C292 1.480 . S
C306 C53 1.368 . S
C56 C271 1.604 . S
C390 C95 1.380 . S
C98 C411 1.435 . S
C112 C439 1.422 . S
C460 C123 1.356 . S
C84 C474 1.414 . S
C109 C502 1.321 . S
C126 C495 1.314 . S
C151 C453 1.278 . S
C481 C154 1.439 . S
C165 C418 1.436 . S
C137 C432 1.346 . S
C397 C140 1.621 . S
C516 C179 1.265 1_565 S
C182 C537 1.244 1_655 S
C196 C565 1.394 . S
C586 C207 1.378 . S
C600 C168 1.433 . S
C193 C628 1.318 . S
C210 C621 1.384 . S
C235 C579 1.332 . S
C607 C238 1.459 . S
C544 C249 1.266 1_455 S
C558 C221 1.320 . S
C224 C523 1.424 1_545 S
