# Generated by pormake.
# Topology tsx, (6,3)-cn, num edge types: 1
# Building blocks:
#     Node 0, Type 0, BuildingBlock: CIFDUS_clean_sbu_1, # of connection points: 6
#     Node 1, Type 0, BuildingBlock: CIFDUS_clean_sbu_1, # of connection points: 6
#     Node 2, Type 1, BuildingBlock: PAMTOO_clean_linker_0, # of connection points: 3
#     Node 3, Type 1, BuildingBlock: PAMTOO_clean_linker_0, # of connection points: 3
#     Node 4, Type 1, BuildingBlock: PAMTOO_clean_linker_0, # of connection points: 3
#     Node 5, Type 1, BuildingBlock: PAMTOO_clean_linker_0, # of connection points: 3
#     Edge 6, Type (0, 1), BuildingBlock: FUNLAD_clean_linker_1, # of connection points: 2
#     Edge 7, Type (0, 1), BuildingBlock: FUNLAD_clean_linker_1, # of connection points: 2
#     Edge 8, Type (0, 1), BuildingBlock: FUNLAD_clean_linker_1, # of connection points: 2
#     Edge 9, Type (0, 1), BuildingBlock: FUNLAD_clean_linker_1, # of connection points: 2
#     Edge 10, Type (0, 1), BuildingBlock: FUNLAD_clean_linker_1, # of connection points: 2
#     Edge 11, Type (0, 1), BuildingBlock: FUNLAD_clean_linker_1, # of connection points: 2
#     Edge 12, Type (0, 1), BuildingBlock: FUNLAD_clean_linker_1, # of connection points: 2
#     Edge 13, Type (0, 1), BuildingBlock: FUNLAD_clean_linker_1, # of connection points: 2
#     Edge 14, Type (0, 1), BuildingBlock: FUNLAD_clean_linker_1, # of connection points: 2
#     Edge 15, Type (0, 1), BuildingBlock: FUNLAD_clean_linker_1, # of connection points: 2
#     Edge 16, Type (0, 1), BuildingBlock: FUNLAD_clean_linker_1, # of connection points: 2
#     Edge 17, Type (0, 1), BuildingBlock: FUNLAD_clean_linker_1, # of connection points: 2
# Relax obj value: 0.125
# Max RMSD: 0.144
# Mean RMSD: 0.136
data_MOF--net-tsx--node1-CIFDUS_clean_sbu_1--node2-PAMTOO_clean_linker_0--edge1-FUNLAD_clean_linker_1
_symmetry_space_group_name_H-M    P1
_symmetry_Int_Tables_number       1
_symmetry_cell_setting            triclinic
loop_
_symmetry_equiv_pos_as_xyz
'x, y, z'
_cell_length_a     19.176835
_cell_length_b     23.400031
_cell_length_c     35.144871
_cell_angle_alpha  88.950671
_cell_angle_beta   92.049589
_cell_angle_gamma 91.670857
loop_
_atom_site_label
_atom_site_type_symbol
_atom_site_fract_x
_atom_site_fract_y
_atom_site_fract_z
_atom_type_partial_charge
O0 O 0.99838 0.14162 0.00086 0.0
Mn1 Mn 0.0522 0.06382 0.99665 0.0
O2 O 0.89076 0.12552 0.97486 0.0
Mn3 Mn 0.91246 0.05991 0.95037 0.0
O4 O 0.10523 0.98651 0.99142 0.0
O5 O 0.14216 0.10842 0.00988 0.0
Mn6 Mn 0.19272 0.06523 0.04143 0.0
O7 O 0.03572 0.04635 0.05441 0.0
O8 O 0.2137 0.99966 0.01627 0.0
O9 O 0.06955 0.07929 0.93894 0.0
O10 O 0.96538 0.06959 0.90762 0.0
O11 O 0.24496 0.13128 0.03503 0.0
O12 O 0.14106 0.05447 0.08458 0.0
C13 C 0.9128 0.98059 0.98161 0.0
C14 C 0.93529 0.157 0.99286 0.0
C15 C 0.16783 0.96951 0.99813 0.0
C16 C 0.19231 0.14669 0.01359 0.0
C17 C 0.07509 0.04576 0.08482 0.0
C18 C 0.03133 0.0778 0.90814 0.0
O19 O 0.96252 0.01932 0.98355 0.0
O20 O 0.86132 0.99359 0.9585 0.0
O21 O 0.48721 0.63704 0.49959 0.0
Mn22 Mn 0.5324 0.55597 0.49541 0.0
O23 O 0.37713 0.62707 0.47512 0.0
Mn24 Mn 0.38987 0.56002 0.44979 0.0
O25 O 0.57431 0.47467 0.48883 0.0
O26 O 0.62777 0.59269 0.50875 0.0
Mn27 Mn 0.6714 0.54266 0.53918 0.0
O28 O 0.51452 0.54048 0.55326 0.0
O29 O 0.68364 0.47636 0.51323 0.0
O30 O 0.54958 0.57057 0.43755 0.0
O31 O 0.44375 0.56701 0.40713 0.0
O32 O 0.73305 0.60294 0.53433 0.0
O33 O 0.62026 0.53498 0.58267 0.0
C34 C 0.39006 0.48073 0.48196 0.0
C35 C 0.42545 0.65613 0.49244 0.0
C36 C 0.63362 0.45147 0.4949 0.0
C37 C 0.68331 0.62545 0.51366 0.0
C38 C 0.55381 0.53428 0.58338 0.0
C39 C 0.51017 0.57164 0.40712 0.0
O40 O 0.4392 0.51932 0.48263 0.0
O41 O 0.33768 0.49358 0.45953 0.0
H42 H 0.11474 0.95663 0.37926 0.0
H43 H 0.95965 0.08525 0.38497 0.0
H44 H 0.03742 1.0034 0.48748 0.0
H45 H 0.88043 0.03752 0.49032 0.0
C46 C 0.88342 0.06665 0.46523 0.0
O47 O 0.95245 0.08054 0.45888 0.0
H48 H 0.8582 0.04453 0.44027 0.0
C49 C 0.08074 0.98187 0.39583 0.0
C50 C 0.08273 0.97624 0.43577 0.0
C51 C 0.03553 0.02044 0.37726 0.0
C52 C 0.99347 0.05431 0.39888 0.0
C53 C 0.99327 0.04746 0.43848 0.0
C54 C 0.0372 0.00797 0.45685 0.0
H55 H 0.24558 0.10129 0.63082 0.0
H56 H 0.0886 0.96682 0.63475 0.0
H57 H 0.12123 0.05909 0.52998 0.0
H58 H 0.97028 0.02451 0.54427 0.0
C59 C 0.98039 0.98573 0.56213 0.0
O60 O 0.05087 0.97466 0.56276 0.0
H61 H 0.96341 0.99302 0.59155 0.0
C62 C 0.20451 0.07628 0.6165 0.0
C63 C 0.18676 0.08702 0.5779 0.0
C64 C 0.16815 0.0345 0.63758 0.0
C65 C 0.11622 1.00026 0.61919 0.0
C66 C 0.09972 0.00886 0.58038 0.0
C67 C 0.13494 0.05217 0.55984 0.0
H68 H 0.68165 0.46866 0.87887 0.0
H69 H 0.52089 0.593 0.87909 0.0
H70 H 0.63776 0.55547 0.98212 0.0
H71 H 0.47105 0.57952 0.98831 0.0
C72 C 0.46958 0.60639 0.96203 0.0
O73 O 0.5369 0.61697 0.95035 0.0
H74 H 0.43856 0.5827 0.93968 0.0
C75 C 0.65077 0.4978 0.89438 0.0
C76 C 0.66547 0.50694 0.93346 0.0
C77 C 0.59753 0.52729 0.87456 0.0
C78 C 0.56003 0.56771 0.89391 0.0
C79 C 0.57352 0.5772 0.93266 0.0
C80 C 0.62643 0.54711 0.95234 0.0
H81 H 0.71083 0.61781 0.12912 0.0
H82 H 0.54348 0.49177 0.12748 0.0
H83 H 0.57465 0.60051 0.02959 0.0
H84 H 0.41994 0.57266 0.0495 0.0
C85 C 0.42988 0.53076 0.06368 0.0
O86 O 0.49808 0.51578 0.05816 0.0
H87 H 0.42126 0.53495 0.09463 0.0
C88 C 0.66869 0.59579 0.11356 0.0
C89 C 0.65032 0.61277 0.07603 0.0
C90 C 0.62972 0.55342 0.13271 0.0
C91 C 0.5732 0.5256 0.11347 0.0
C92 C 0.55338 0.54241 0.07623 0.0
C93 C 0.59119 0.58666 0.05792 0.0
H94 H 0.22854 0.21461 0.97594 0.0
C95 C 0.19169 0.20565 0.99821 0.0
H96 H 0.14544 0.2377 0.04596 0.0
H97 H 0.40391 0.37893 0.10744 0.0
H98 H 0.38956 0.30459 0.15542 0.0
H99 H 0.304 0.22512 0.14556 0.0
H100 H 0.23186 0.21988 0.08807 0.0
C101 C 0.17935 0.24778 0.02246 0.0
C102 C 0.23081 0.29686 0.02781 0.0
C103 C 0.2739 0.29881 0.06163 0.0
C104 C 0.3249 0.34377 0.06689 0.0
C105 C 0.36563 0.34515 0.10138 0.0
C106 C 0.3578 0.30282 0.12935 0.0
C107 C 0.30954 0.25819 0.12384 0.0
C108 C 0.26809 0.25593 0.09053 0.0
H109 H 0.3232 0.50011 0.04503 0.0
C110 C 0.37696 0.48686 0.0483 0.0
H111 H 0.44381 0.41706 0.04942 0.0
H112 H 0.1532 0.30951 0.96179 0.0
H113 H 0.17024 0.38236 0.9126 0.0
H114 H 0.26413 0.45621 0.91958 0.0
H115 H 0.34066 0.45852 0.97604 0.0
C116 C 0.39098 0.43137 0.04382 0.0
C117 C 0.33433 0.38638 0.03813 0.0
C118 C 0.29135 0.3845 0.00432 0.0
C119 C 0.23881 0.34036 -0.00048 0.0
C120 C 0.19504 0.34096 0.96626 0.0
C121 C 0.20412 0.38263 0.93792 0.0
C122 C 0.25685 0.42434 0.94191 0.0
C123 C 0.3002 0.42539 0.9746 0.0
H124 H 0.14915 0.88603 0.9695 0.0
C125 C 0.18765 0.91227 0.98513 0.0
H126 H 0.28989 0.91752 0.00964 0.0
H127 H 0.34694 0.65711 0.0287 0.0
H128 H 0.31553 0.67837 0.09299 0.0
H129 H 0.26473 0.77077 0.1076 0.0
H130 H 0.24448 0.84227 0.05786 0.0
C131 C 0.25203 0.89217 0.99294 0.0
C132 C 0.27394 0.83385 0.98268 0.0
C133 C 0.28618 0.79255 0.01206 0.0
C134 C 0.31661 0.73957 0.00375 0.0
C135 C 0.32604 0.69865 0.03355 0.0
C136 C 0.30772 0.71014 0.07058 0.0
C137 C 0.27907 0.76214 0.07879 0.0
C138 C 0.26805 0.80291 0.04999 0.0
H139 H 0.46418 0.69242 0.98845 0.0
C140 C 0.4357 0.66208 0.97023 0.0
H141 H 0.34218 0.64367 0.93878 0.0
H142 H 0.25775 0.90314 0.91954 0.0
H143 H 0.28931 0.88182 0.85525 0.0
H144 H 0.34064 0.78969 0.8407 0.0
H145 H 0.36249 0.71872 0.89056 0.0
C146 C 0.37046 0.67362 0.95735 0.0
C147 C 0.33612 0.72822 0.96612 0.0
C148 C 0.32158 0.76865 0.93648 0.0
C149 C 0.29091 0.82162 0.94478 0.0
C150 C 0.27992 0.86202 0.91483 0.0
C151 C 0.2978 0.85033 0.87775 0.0
C152 C 0.32686 0.79848 0.86957 0.0
C153 C 0.33895 0.75806 0.89847 0.0
H154 H 0.95651 0.91366 0.02113 0.0
C155 C 0.91183 0.92549 0.00313 0.0
H156 H 0.81113 0.90293 0.98115 0.0
H157 H 0.77432 0.64467 0.99694 0.0
H158 H 0.799 0.65331 0.92986 0.0
H159 H 0.84619 0.74389 0.90282 0.0
H160 H 0.86915 0.82638 0.94283 0.0
C161 C 0.85443 0.8907 9e-05 0.0
C162 C 0.8454 0.83333 0.01874 0.0
C163 C 0.83289 0.78513 0.99521 0.0
C164 C 0.80524 0.73298 0.01072 0.0
C165 C 0.7938 0.68565 0.98649 0.0
C166 C 0.80818 0.68991 0.94796 0.0
C167 C 0.83474 0.74091 0.93274 0.0
C168 C 0.84723 0.78802 0.95595 0.0
H169 H 0.66144 0.68423 0.03402 0.0
C170 C 0.68896 0.66057 0.05654 0.0
H171 H 0.78528 0.6527 0.08755 0.0
H172 H 0.86734 0.91581 0.07274 0.0
H173 H 0.8471 0.90578 0.14011 0.0
H174 H 0.8011 0.81488 0.16717 0.0
H175 H 0.77461 0.73359 0.12688 0.0
C176 C 0.75565 0.67628 0.06595 0.0
C177 C 0.78984 0.72903 0.04981 0.0
C178 C 0.80731 0.77572 0.07396 0.0
C179 C 0.83459 0.8281 0.05839 0.0
C180 C 0.84781 0.87481 0.08294 0.0
C181 C 0.8362 0.86969 0.12176 0.0
C182 C 0.81031 0.81852 0.137 0.0
C183 C 0.79555 0.77209 0.11352 0.0
H184 H 0.85385 0.21655 0.00409 0.0
C185 C 0.9102 0.214 0.00218 0.0
H186 H 1.00297 0.26134 0.99303 0.0
H187 H 0.82985 0.43858 0.89199 0.0
H188 H 0.92437 0.41442 0.85161 0.0
H189 H 1.01328 0.34622 0.8739 0.0
H190 H 1.00853 0.30195 0.93649 0.0
C191 C 0.94748 0.2631 0.99783 0.0
C192 C 0.90895 0.31728 0.98936 0.0
C193 C 0.91378 0.34405 0.95294 0.0
C194 C 0.86204 0.38308 0.93989 0.0
C195 C 0.86714 0.40808 0.90305 0.0
C196 C 0.92127 0.39479 0.87966 0.0
C197 C 0.97133 0.35641 0.89221 0.0
C198 C 0.9678 0.3311 0.9283 0.0
H199 H 0.75007 0.4988 0.97818 0.0
C200 C 0.72354 0.47714 0.95444 0.0
H201 H 0.71667 0.40195 0.92211 0.0
H202 H 0.89808 0.28843 0.06425 0.0
H203 H 0.80634 0.31566 0.10597 0.0
H204 H 0.71219 0.37811 0.08228 0.0
H205 H 0.70963 0.41461 0.0173 0.0
C206 C 0.74349 0.42441 0.94536 0.0
C207 C 0.80565 0.39562 0.96317 0.0
C208 C 0.80538 0.37393 0.00115 0.0
C209 C 0.85808 0.33586 0.01444 0.0
C210 C 0.85778 0.31585 0.05263 0.0
C211 C 0.8058 0.33139 0.07681 0.0
C212 C 0.75289 0.36669 0.06349 0.0
C213 C 0.7522 0.38759 0.02608 0.0
H214 H 0.64268 0.70934 0.49281 0.0
C215 C 0.68906 0.68667 0.50208 0.0
H216 H 0.79682 0.6911 0.51648 0.0
H217 H 0.91433 0.92422 0.46965 0.0
H218 H 0.94308 0.87271 0.41322 0.0
H219 H 0.88901 0.77776 0.3999 0.0
H220 H 0.80508 0.73413 0.44286 0.0
C221 C 0.75068 0.71509 0.50851 0.0
C222 C 0.76208 0.77845 0.50881 0.0
C223 C 0.81061 0.80372 0.48357 0.0
C224 C 0.84288 0.85792 0.49167 0.0
C225 C 0.89021 0.88232 0.46552 0.0
C226 C 0.90666 0.85341 0.43286 0.0
C227 C 0.87617 0.79998 0.42536 0.0
C228 C 0.82856 0.77526 0.45028 0.0
H229 H 0.96531 0.89517 0.54291 0.0
C230 C 0.9391 0.9353 0.54615 0.0
H231 H 0.84339 0.97718 0.54311 0.0
H232 H 0.66334 0.74702 0.5605 0.0
H233 H 0.63091 0.80054 0.61497 0.0
H234 H 0.6872 0.8942 0.62913 0.0
H235 H 0.77666 0.9346 0.58895 0.0
C236 C 0.87006 0.93786 0.53803 0.0
C237 C 0.8277 0.88638 0.52555 0.0
C238 C 0.77359 0.86419 0.54859 0.0
C239 C 0.74084 0.81009 0.54029 0.0
C240 C 0.68969 0.7878 0.56505 0.0
C241 C 0.67046 0.81817 0.59654 0.0
C242 C 0.70213 0.87091 0.60451 0.0
C243 C 0.75337 0.89369 0.58108 0.0
H244 H 0.61385 0.37965 0.45514 0.0
C245 C 0.64553 0.3943 0.47949 0.0
H246 H 0.72779 0.37714 0.51891 0.0
H247 H 0.6783 0.11565 0.4526 0.0
H248 H 0.55681 0.12049 0.46926 0.0
H249 H 0.50901 0.21081 0.49033 0.0
H250 H 0.58215 0.29673 0.49498 0.0
C251 C 0.69654 0.36163 0.4946 0.0
C252 C 0.7202 0.30826 0.4771 0.0
C253 C 0.67639 0.25831 0.47484 0.0
C254 C 0.70416 0.20581 0.46325 0.0
C255 C 0.65979 0.15645 0.4614 0.0
C256 C 0.59005 0.15862 0.47089 0.0
C257 C 0.56316 0.20951 0.48276 0.0
C258 C 0.60569 0.25874 0.48506 0.0
H259 H 0.85612 0.13975 0.50103 0.0
C260 C 0.84623 0.12034 0.47341 0.0
H261 H 0.79636 0.12844 0.41902 0.0
H262 H 0.81641 0.39716 0.47367 0.0
H263 H 0.93705 0.39177 0.45601 0.0
H264 H 0.98494 0.30034 0.4369 0.0
H265 H 0.91246 0.21368 0.43549 0.0
C266 C 0.80642 0.14713 0.44682 0.0
C267 C 0.77564 0.20308 0.45481 0.0
C268 C 0.81847 0.2534 0.45522 0.0
C269 C 0.79076 0.306 0.4663 0.0
C270 C 0.83488 0.35571 0.46622 0.0
C271 C 0.9042 0.35335 0.45589 0.0
C272 C 0.93117 0.30189 0.44513 0.0
C273 C 0.88904 0.25241 0.44463 0.0
H274 H 0.40746 0.42762 0.53403 0.0
C275 C 0.39011 0.42684 0.50429 0.0
H276 H 0.34324 0.38108 0.459 0.0
H277 H 0.37568 0.17672 0.59425 0.0
H278 H 0.49891 0.20262 0.60041 0.0
H279 H 0.54765 0.28567 0.56515 0.0
H280 H 0.47392 0.34279 0.52306 0.0
C281 C 0.35917 0.37976 0.48903 0.0
C282 C 0.33177 0.33021 0.51197 0.0
C283 C 0.37648 0.29587 0.53524 0.0
C284 C 0.34849 0.24736 0.55523 0.0
C285 C 0.39404 0.21412 0.57859 0.0
C286 C 0.46493 0.22838 0.5823 0.0
C287 C 0.49235 0.27518 0.56246 0.0
C288 C 0.44916 0.3081 0.53869 0.0
H289 H 0.21813 0.13376 0.52534 0.0
C290 C 0.22015 0.13526 0.55627 0.0
H291 H 0.24836 0.18663 0.6039 0.0
H292 H 0.22941 0.38936 0.47253 0.0
H293 H 0.10623 0.36471 0.46825 0.0
H294 H 0.05865 0.28032 0.5026 0.0
H295 H 0.13414 0.22006 0.54119 0.0
C296 C 0.24743 0.1826 0.57321 0.0
C297 C 0.27639 0.23237 0.55123 0.0
C298 C 0.23142 0.26728 0.52864 0.0
C299 C 0.25905 0.3161 0.50898 0.0
C300 C 0.21224 0.35091 0.48738 0.0
C301 C 0.14098 0.3376 0.48491 0.0
C302 C 0.11419 0.29012 0.50421 0.0
C303 C 0.15844 0.25553 0.52608 0.0
H304 H 0.4533 0.74841 0.49904 0.0
C305 C 0.41054 0.71693 0.49919 0.0
H306 H 0.30145 0.70195 0.49806 0.0
H307 H 0.21264 0.95687 0.51944 0.0
H308 H 0.23579 0.93755 0.58681 0.0
H309 H 0.29777 0.85123 0.60834 0.0
H310 H 0.33868 0.78416 0.56246 0.0
C311 C 0.34376 0.73387 0.49757 0.0
C312 C 0.32258 0.79227 0.48532 0.0
C313 C 0.29834 0.8306 0.51225 0.0
C314 C 0.26081 0.8796 0.49981 0.0
C315 C 0.23919 0.91805 0.52738 0.0
C316 C 0.25251 0.90764 0.5661 0.0
C317 C 0.2876 0.85906 0.57823 0.0
C318 C 0.31047 0.82084 0.55172 0.0
H319 H 0.11127 0.90715 0.47691 0.0
C320 C 0.13152 0.93657 0.45542 0.0
H321 H 0.2191 0.96642 0.42579 0.0
H322 H 0.36892 0.73113 0.42584 0.0
H323 H 0.34853 0.75125 0.35869 0.0
H324 H 0.28084 0.83448 0.337 0.0
H325 H 0.23337 0.89792 0.38228 0.0
C326 C 0.19927 0.93581 0.44668 0.0
C327 C 0.24593 0.88919 0.46037 0.0
C328 C 0.27449 0.85297 0.43332 0.0
C329 C 0.31301 0.80464 0.44581 0.0
C330 C 0.33919 0.76835 0.41812 0.0
C331 C 0.32791 0.77941 0.37937 0.0
C332 C 0.28991 0.82628 0.36716 0.0
C333 C 0.26314 0.86258 0.39362 0.0
H334 H 0.993 0.01019 0.12228 0.0
C335 C 0.04393 0.03176 0.12184 0.0
H336 H 0.13109 0.06392 0.15377 0.0
H337 H 0.91185 0.02853 0.29396 0.0
H338 H 0.83233 0.09049 0.25864 0.0
H339 H 0.85742 0.12323 0.19328 0.0
H340 H 0.96088 0.09303 0.16252 0.0
C341 C 0.07988 0.04282 0.15463 0.0
C342 C 0.05911 0.02015 0.19251 0.0
C343 C 0.99962 0.04023 0.2104 0.0
C344 C 0.98724 0.02411 0.24889 0.0
C345 C 0.92547 0.0419 0.26548 0.0
C346 C 0.87914 0.07706 0.24542 0.0
C347 C 0.89313 0.0953 0.20857 0.0
C348 C 0.95265 0.07735 0.19115 0.0
H349 H 0.03253 0.07089 0.32355 0.0
C350 C 0.03376 0.02766 0.33541 0.0
H351 H 0.03116 0.93959 0.32383 0.0
H352 H 0.1712 0.96647 0.16472 0.0
H353 H 0.25092 0.90522 0.20028 0.0
H354 H 0.2344 0.88327 0.26834 0.0
H355 H 0.13774 0.92165 0.30105 0.0
C356 C 0.03158 0.98283 0.312 0.0
C357 C 0.03662 0.99109 0.27003 0.0
C358 C 0.09381 0.96836 0.25148 0.0
C359 C 0.10449 0.98234 0.21256 0.0
C360 C 0.16158 0.95847 0.19453 0.0
C361 C 0.2076 0.92299 0.21454 0.0
C362 C 0.19821 0.91054 0.25282 0.0
C363 C 0.14223 0.93287 0.27124 0.0
H364 H 0.02953 0.09311 0.84655 0.0
C365 C 0.06352 0.08209 0.87088 0.0
H366 H 0.16038 0.04749 0.88821 0.0
H367 H 0.14432 0.91833 0.72933 0.0
H368 H 0.14257 0.83925 0.77516 0.0
H369 H 0.14289 0.85709 0.84415 0.0
H370 H 0.14604 0.95394 0.86782 0.0
C371 C 0.12751 0.06324 0.8647 0.0
C372 C 0.14661 0.05278 0.82479 0.0
C373 C 0.1469 0.9959 0.81161 0.0
C374 C 0.14589 0.98557 0.77183 0.0
C375 C 0.14449 0.92841 0.75927 0.0
C376 C 0.14357 0.88271 0.78525 0.0
C377 C 0.14377 0.89276 0.8241 0.0
C378 C 0.14543 0.94858 0.8373 0.0
H379 H 0.23467 0.04495 0.68992 0.0
C380 C 0.18323 0.03078 0.6792 0.0
H381 H 0.07996 0.00933 0.69455 0.0
H382 H 0.16204 0.16581 0.84144 0.0
H383 H 0.16483 0.2454 0.79595 0.0
H384 H 0.15659 0.22823 0.72684 0.0
H385 H 0.14651 0.13197 0.7028 0.0
C386 C 0.13273 0.02121 0.70419 0.0
C387 C 0.14492 0.03208 0.74548 0.0
C388 C 0.1499 0.08906 0.75881 0.0
C389 C 0.15216 0.09922 0.79859 0.0
C390 C 0.15824 0.15618 0.81141 0.0
C391 C 0.16023 0.20208 0.78566 0.0
C392 C 0.15579 0.19239 0.74676 0.0
C393 C 0.15039 0.13671 0.73333 0.0
H394 H 0.46539 0.53288 0.62271 0.0
C395 C 0.52146 0.52866 0.62093 0.0
H396 H 0.61715 0.51581 0.6512 0.0
H397 H 0.49343 0.63133 0.797 0.0
H398 H 0.48569 0.71806 0.75842 0.0
H399 H 0.50046 0.71598 0.68902 0.0
H400 H 0.52249 0.62718 0.65777 0.0
C401 C 0.56135 0.52163 0.65289 0.0
C402 C 0.53394 0.5213 0.69187 0.0
C403 C 0.51982 0.57357 0.70949 0.0
C404 C 0.51196 0.57488 0.74957 0.0
C405 C 0.49975 0.62784 0.76668 0.0
C406 C 0.49525 0.67799 0.74487 0.0
C407 C 0.50354 0.67681 0.7058 0.0
C408 C 0.51608 0.62543 0.68819 0.0
H409 H 0.62881 0.50212 0.8174 0.0
C410 C 0.5856 0.5178 0.8331 0.0
H411 H 0.47994 0.54233 0.82879 0.0
H412 H 0.54898 0.41332 0.66588 0.0
H413 H 0.55037 0.32557 0.70406 0.0
H414 H 0.5356 0.32775 0.7735 0.0
H415 H 0.5198 0.41769 0.80524 0.0
C416 C 0.52476 0.52774 0.8141 0.0
C417 C 0.51938 0.52415 0.77185 0.0
C418 C 0.52678 0.47117 0.75373 0.0
C419 C 0.53448 0.46984 0.71369 0.0
C420 C 0.54337 0.41658 0.6963 0.0
C421 C 0.54391 0.36598 0.71783 0.0
C422 C 0.53563 0.36722 0.75694 0.0
C423 C 0.52705 0.41908 0.77483 0.0
H424 H 0.50677 0.59072 0.34599 0.0
C425 C 0.54091 0.57651 0.36949 0.0
H426 H 0.63637 0.53731 0.38413 0.0
H427 H 0.60309 0.42753 0.21843 0.0
H428 H 0.59903 0.34329 0.25995 0.0
H429 H 0.6054 0.35265 0.32983 0.0
H430 H 0.61612 0.44619 0.35868 0.0
C431 C 0.60343 0.55612 0.36172 0.0
C432 C 0.62064 0.54958 0.32108 0.0
C433 C 0.61628 0.49459 0.30479 0.0
C434 C 0.6122 0.48918 0.26452 0.0
C435 C 0.60594 0.43389 0.24889 0.0
C436 C 0.60367 0.38528 0.27237 0.0
C437 C 0.60727 0.39055 0.31173 0.0
C438 C 0.61328 0.44447 0.32792 0.0
H439 H 0.70009 0.55211 0.18403 0.0
C440 C 0.64687 0.54291 0.17367 0.0
H441 H 0.54301 0.52684 0.19011 0.0
H442 H 0.64555 0.65926 0.34361 0.0
H443 H 0.65271 0.74385 0.30245 0.0
H444 H 0.64006 0.73553 0.23263 0.0
H445 H 0.62108 0.64313 0.20354 0.0
C446 C 0.59728 0.5336 0.19922 0.0
C447 C 0.61306 0.53872 0.24078 0.0
C448 C 0.6234 0.59354 0.2571 0.0
C449 C 0.62846 0.59871 0.29734 0.0
C450 C 0.63961 0.65353 0.31316 0.0
C451 C 0.64413 0.70222 0.28989 0.0
C452 C 0.63719 0.69751 0.25059 0.0
C453 C 0.62662 0.644 0.23423 0.0
loop_
_geom_bond_atom_site_label_1
_geom_bond_atom_site_label_2
_geom_bond_distance
_geom_bond_site_symmetry_2
_ccdc_geom_bond_type
O0 Mn1 2.163 . S
O0 C14 1.244 1_455 S
Mn1 O0 2.163 . S
Mn1 O4 2.160 1_545 S
Mn1 O5 2.221 1_556 S
Mn1 O7 2.163 1_556 S
Mn1 O9 2.160 . S
Mn1 O19 2.221 1_445 S
O2 Mn3 2.087 . S
O2 C14 1.256 . S
Mn3 O2 2.087 . S
Mn3 O10 2.089 . S
Mn3 O19 2.290 1_545 S
Mn3 O20 2.251 1_545 S
O4 Mn1 2.160 1_565 S
O4 C15 1.239 1_556 S
O5 Mn1 2.221 1_554 S
O5 Mn6 2.290 . S
O5 C16 1.278 . S
Mn6 O5 2.290 . S
Mn6 O8 2.089 1_545 S
Mn6 O11 2.251 . S
Mn6 O12 2.087 . S
O7 Mn1 2.163 1_554 S
O7 C17 1.244 . S
O8 Mn6 2.089 1_565 S
O8 C15 1.256 . S
O9 Mn1 2.160 . S
O9 C18 1.239 . S
O10 Mn3 2.089 . S
O10 C18 1.256 1_655 S
O11 Mn6 2.251 . S
O11 C16 1.241 . S
O12 Mn6 2.087 . S
O12 C17 1.256 . S
C13 O19 1.278 1_554 S
C13 O20 1.241 1_554 S
C14 O0 1.244 1_655 S
C14 O2 1.256 . S
C15 O4 1.239 1_554 S
C15 O8 1.256 . S
C16 O5 1.278 . S
C16 O11 1.241 . S
C17 O7 1.244 . S
C17 O12 1.256 . S
C18 O9 1.239 . S
C18 O10 1.256 1_455 S
O19 Mn1 2.221 1_665 S
O19 Mn3 2.290 1_565 S
O19 C13 1.278 1_556 S
O20 Mn3 2.251 1_565 S
O20 C13 1.241 1_556 S
O21 Mn22 2.163 . S
O21 C35 1.244 . S
Mn22 O21 2.163 . S
Mn22 O25 2.160 . S
Mn22 O26 2.221 . S
Mn22 O28 2.163 . S
Mn22 O30 2.160 . S
Mn22 O40 2.221 . S
O23 Mn24 2.087 . S
O23 C35 1.256 . S
Mn24 O23 2.087 . S
Mn24 O31 2.089 . S
Mn24 O40 2.290 . S
Mn24 O41 2.251 . S
O25 Mn22 2.160 . S
O25 C36 1.239 . S
O26 Mn22 2.221 . S
O26 Mn27 2.290 . S
O26 C37 1.278 . S
Mn27 O26 2.290 . S
Mn27 O29 2.089 . S
Mn27 O32 2.251 . S
Mn27 O33 2.087 . S
O28 Mn22 2.163 . S
O28 C38 1.244 . S
O29 Mn27 2.089 . S
O29 C36 1.256 . S
O30 Mn22 2.160 . S
O30 C39 1.239 . S
O31 Mn24 2.089 . S
O31 C39 1.256 . S
O32 Mn27 2.251 . S
O32 C37 1.241 . S
O33 Mn27 2.087 . S
O33 C38 1.256 . S
C34 O40 1.278 . S
C34 O41 1.241 . S
C35 O21 1.244 . S
C35 O23 1.256 . S
C36 O25 1.239 . S
C36 O29 1.256 . S
C37 O26 1.278 . S
C37 O32 1.241 . S
C38 O28 1.244 . S
C38 O33 1.256 . S
C39 O30 1.239 . S
C39 O31 1.256 . S
O40 Mn22 2.221 . S
O40 Mn24 2.290 . S
O40 C34 1.278 . S
O41 Mn24 2.251 . S
O41 C34 1.241 . S
H42 C49 0.929 . S
H43 C52 0.930 1_655 S
H44 C54 0.929 . S
H45 C46 0.969 . S
C46 H45 0.969 . S
C46 O47 1.550 1_655 S
C46 H48 0.973 . S
O47 C46 1.550 1_455 S
O47 C53 1.412 . S
H48 C46 0.973 . S
C49 H42 0.929 . S
C49 C50 1.400 . S
C49 C51 1.364 . S
C50 C49 1.400 . S
C50 C54 1.377 . S
C51 C49 1.364 . S
C51 C52 1.374 1_565 S
C52 H43 0.930 1_455 S
C52 C51 1.374 1_545 S
C52 C53 1.383 . S
C53 O47 1.412 . S
C53 C52 1.383 . S
C53 C54 1.394 1_545 S
C54 H44 0.929 . S
C54 C50 1.377 . S
C54 C53 1.394 1_565 S
H55 C62 0.929 . S
H56 C65 0.930 . S
H57 C67 0.929 . S
H58 C59 0.969 . S
C59 H58 0.969 . S
C59 O60 1.550 . S
C59 H61 0.973 1_545 S
O60 C59 1.550 . S
O60 C66 1.412 . S
H61 C59 0.973 1_565 S
C62 H55 0.929 . S
C62 C63 1.400 . S
C62 C64 1.364 . S
C63 C62 1.400 . S
C63 C67 1.377 . S
C64 C62 1.364 . S
C64 C65 1.374 1_455 S
C65 H56 0.930 . S
C65 C64 1.374 1_655 S
C65 C66 1.383 . S
C66 O60 1.412 . S
C66 C65 1.383 . S
C66 C67 1.394 1_655 S
C67 H57 0.929 . S
C67 C63 1.377 . S
C67 C66 1.394 1_455 S
H68 C75 0.929 . S
H69 C78 0.930 . S
H70 C80 0.929 . S
H71 C72 0.969 . S
C72 H71 0.969 . S
C72 O73 1.550 . S
C72 H74 0.973 . S
O73 C72 1.550 . S
O73 C79 1.412 . S
H74 C72 0.973 . S
C75 H68 0.929 . S
C75 C76 1.400 . S
C75 C77 1.364 . S
C76 C75 1.400 . S
C76 C80 1.377 . S
C77 C75 1.364 . S
C77 C78 1.374 . S
C78 H69 0.930 . S
C78 C77 1.374 . S
C78 C79 1.383 . S
C79 O73 1.412 . S
C79 C78 1.383 . S
C79 C80 1.394 . S
C80 H70 0.929 . S
C80 C76 1.377 . S
C80 C79 1.394 . S
H81 C88 0.929 . S
H82 C91 0.930 . S
H83 C93 0.929 . S
H84 C85 0.969 . S
C85 H84 0.969 . S
C85 O86 1.550 . S
C85 H87 0.973 . S
O86 C85 1.550 . S
O86 C92 1.412 . S
H87 C85 0.973 . S
C88 H81 0.929 . S
C88 C89 1.400 . S
C88 C90 1.364 . S
C89 C88 1.400 . S
C89 C93 1.377 . S
C90 C88 1.364 . S
C90 C91 1.374 . S
C91 H82 0.930 . S
C91 C90 1.374 . S
C91 C92 1.383 . S
C92 O86 1.412 . S
C92 C91 1.383 . S
C92 C93 1.394 . S
C93 H83 0.929 . S
C93 C89 1.377 . S
C93 C92 1.394 . S
H94 C95 0.951 1_556 S
C95 H94 0.951 1_554 S
C95 C101 1.265 . S
H96 C101 0.950 . S
H97 C105 0.949 . S
H98 C106 0.950 . S
H99 C107 0.951 . S
H100 C108 0.951 . S
C101 C95 1.265 . S
C101 H96 0.950 . S
C101 C102 1.478 . S
C102 C101 1.478 . S
C102 C103 1.397 . S
C102 C119 1.394 1_554 S
C103 C102 1.397 . S
C103 C104 1.438 . S
C103 C108 1.429 . S
C104 C103 1.438 . S
C104 C105 1.428 . S
C104 C117 1.394 . S
C105 H97 0.949 . S
C105 C104 1.428 . S
C105 C106 1.345 . S
C106 H98 0.950 . S
C106 C105 1.345 . S
C106 C107 1.424 . S
C107 H99 0.951 . S
C107 C106 1.424 . S
C107 C108 1.347 . S
C108 H100 0.951 . S
C108 C103 1.429 . S
C108 C107 1.347 . S
H109 C110 0.951 . S
C110 H109 0.951 . S
C110 C116 1.265 . S
H111 C116 0.950 . S
H112 C120 0.949 . S
H113 C121 0.950 . S
H114 C122 0.951 . S
H115 C123 0.951 . S
C116 C110 1.265 . S
C116 H111 0.950 . S
C116 C117 1.478 . S
C117 C104 1.394 . S
C117 C116 1.478 . S
C117 C118 1.397 1_554 S
C118 C117 1.397 1_556 S
C118 C119 1.438 . S
C118 C123 1.429 . S
C119 C102 1.394 1_556 S
C119 C118 1.438 . S
C119 C120 1.428 . S
C120 H112 0.949 . S
C120 C119 1.428 . S
C120 C121 1.345 . S
C121 H113 0.950 . S
C121 C120 1.345 . S
C121 C122 1.424 . S
C122 H114 0.951 . S
C122 C121 1.424 . S
C122 C123 1.347 . S
C123 H115 0.951 . S
C123 C118 1.429 . S
C123 C122 1.347 . S
H124 C125 0.951 1_556 S
C125 H124 0.951 1_554 S
C125 C131 1.265 . S
H126 C131 0.950 . S
H127 C135 0.949 . S
H128 C136 0.950 . S
H129 C137 0.951 . S
H130 C138 0.951 . S
C131 C125 1.265 . S
C131 H126 0.950 . S
C131 C132 1.478 . S
C132 C131 1.478 . S
C132 C133 1.397 . S
C132 C149 1.394 1_554 S
C133 C132 1.397 . S
C133 C134 1.438 . S
C133 C138 1.429 . S
C134 C133 1.438 . S
C134 C135 1.428 . S
C134 C147 1.394 1_554 S
C135 H127 0.949 . S
C135 C134 1.428 . S
C135 C136 1.345 . S
C136 H128 0.950 . S
C136 C135 1.345 . S
C136 C137 1.424 . S
C137 H129 0.951 . S
C137 C136 1.424 . S
C137 C138 1.347 . S
C138 H130 0.951 . S
C138 C133 1.429 . S
C138 C137 1.347 . S
H139 C140 0.963 . S
C140 H139 0.963 . S
C140 C146 1.265 . S
H141 C146 0.950 . S
H142 C150 0.949 . S
H143 C151 0.950 . S
H144 C152 0.951 . S
H145 C153 0.951 . S
C146 C140 1.265 . S
C146 H141 0.950 . S
C146 C147 1.478 . S
C147 C134 1.394 1_556 S
C147 C146 1.478 . S
C147 C148 1.397 . S
C148 C147 1.397 . S
C148 C149 1.438 . S
C148 C153 1.429 . S
C149 C132 1.394 1_556 S
C149 C148 1.438 . S
C149 C150 1.428 . S
C150 H142 0.949 . S
C150 C149 1.428 . S
C150 C151 1.345 . S
C151 H143 0.950 . S
C151 C150 1.345 . S
C151 C152 1.424 . S
C152 H144 0.951 . S
C152 C151 1.424 . S
C152 C153 1.347 . S
C153 H145 0.951 . S
C153 C148 1.429 . S
C153 C152 1.347 . S
H154 C155 0.951 . S
C155 H154 0.951 . S
C155 C161 1.265 . S
H156 C161 0.950 . S
H157 C165 0.949 . S
H158 C166 0.950 . S
H159 C167 0.951 . S
H160 C168 0.951 . S
C161 C155 1.265 . S
C161 H156 0.950 . S
C161 C162 1.478 . S
C162 C161 1.478 . S
C162 C163 1.392 1_554 S
C162 C179 1.394 . S
C163 C162 1.392 1_556 S
C163 C164 1.437 1_556 S
C163 C168 1.435 . S
C164 C163 1.437 1_554 S
C164 C165 1.428 1_554 S
C164 C177 1.394 . S
C165 H157 0.949 . S
C165 C164 1.428 1_556 S
C165 C166 1.345 . S
C166 H158 0.950 . S
C166 C165 1.345 . S
C166 C167 1.424 . S
C167 H159 0.951 . S
C167 C166 1.424 . S
C167 C168 1.347 . S
C168 H160 0.951 . S
C168 C163 1.435 . S
C168 C167 1.347 . S
H169 C170 0.951 . S
C170 H169 0.951 . S
C170 C176 1.265 . S
H171 C176 0.950 . S
H172 C180 0.949 . S
H173 C181 0.950 . S
H174 C182 0.951 . S
H175 C183 0.951 . S
C176 C170 1.265 . S
C176 H171 0.950 . S
C176 C177 1.478 . S
C177 C164 1.394 . S
C177 C176 1.478 . S
C177 C178 1.397 . S
C178 C177 1.397 . S
C178 C179 1.438 . S
C178 C183 1.429 . S
C179 C162 1.394 . S
C179 C178 1.438 . S
C179 C180 1.428 . S
C180 H172 0.949 . S
C180 C179 1.428 . S
C180 C181 1.345 . S
C181 H173 0.950 . S
C181 C180 1.345 . S
C181 C182 1.424 . S
C182 H174 0.951 . S
C182 C181 1.424 . S
C182 C183 1.347 . S
C183 H175 0.951 . S
C183 C178 1.429 . S
C183 C182 1.347 . S
H184 C185 0.960 . S
C185 H184 0.960 . S
C185 C191 1.265 . S
H186 C191 0.950 . S
H187 C195 0.949 . S
H188 C196 0.950 . S
H189 C197 0.951 . S
H190 C198 0.951 . S
C191 C185 1.265 . S
C191 H186 0.950 . S
C191 C192 1.478 . S
C192 C191 1.478 . S
C192 C193 1.397 . S
C192 C209 1.394 1_556 S
C193 C192 1.397 . S
C193 C194 1.438 . S
C193 C198 1.429 . S
C194 C193 1.438 . S
C194 C195 1.428 . S
C194 C207 1.394 . S
C195 H187 0.949 . S
C195 C194 1.428 . S
C195 C196 1.345 . S
C196 H188 0.950 . S
C196 C195 1.345 . S
C196 C197 1.424 . S
C197 H189 0.951 . S
C197 C196 1.424 . S
C197 C198 1.347 . S
C198 H190 0.951 . S
C198 C193 1.429 . S
C198 C197 1.347 . S
H199 C200 0.951 . S
C200 H199 0.951 . S
C200 C206 1.265 . S
H201 C206 0.950 . S
H202 C210 0.949 . S
H203 C211 0.950 . S
H204 C212 0.951 . S
H205 C213 0.951 . S
C206 C200 1.265 . S
C206 H201 0.950 . S
C206 C207 1.478 . S
C207 C194 1.394 . S
C207 C206 1.478 . S
C207 C208 1.397 1_556 S
C208 C207 1.397 1_554 S
C208 C209 1.438 . S
C208 C213 1.429 . S
C209 C192 1.394 1_554 S
C209 C208 1.438 . S
C209 C210 1.428 . S
C210 H202 0.949 . S
C210 C209 1.428 . S
C210 C211 1.345 . S
C211 H203 0.950 . S
C211 C210 1.345 . S
C211 C212 1.424 . S
C212 H204 0.951 . S
C212 C211 1.424 . S
C212 C213 1.347 . S
C213 H205 0.951 . S
C213 C208 1.429 . S
C213 C212 1.347 . S
H214 C215 0.951 . S
C215 H214 0.951 . S
C215 C221 1.265 . S
H216 C221 0.950 . S
H217 C225 0.949 . S
H218 C226 0.950 . S
H219 C227 0.951 . S
H220 C228 0.951 . S
C221 C215 1.265 . S
C221 H216 0.950 . S
C221 C222 1.478 . S
C222 C221 1.478 . S
C222 C223 1.397 . S
C222 C239 1.394 . S
C223 C222 1.397 . S
C223 C224 1.438 . S
C223 C228 1.429 . S
C224 C223 1.438 . S
C224 C225 1.428 . S
C224 C237 1.394 . S
C225 H217 0.949 . S
C225 C224 1.428 . S
C225 C226 1.345 . S
C226 H218 0.950 . S
C226 C225 1.345 . S
C226 C227 1.424 . S
C227 H219 0.951 . S
C227 C226 1.424 . S
C227 C228 1.347 . S
C228 H220 0.951 . S
C228 C223 1.429 . S
C228 C227 1.347 . S
H229 C230 0.951 . S
C230 H229 0.951 . S
C230 C236 1.265 . S
H231 C236 0.950 . S
H232 C240 0.949 . S
H233 C241 0.950 . S
H234 C242 0.951 . S
H235 C243 0.951 . S
C236 C230 1.265 . S
C236 H231 0.950 . S
C236 C237 1.478 . S
C237 C224 1.394 . S
C237 C236 1.478 . S
C237 C238 1.397 . S
C238 C237 1.397 . S
C238 C239 1.438 . S
C238 C243 1.429 . S
C239 C222 1.394 . S
C239 C238 1.438 . S
C239 C240 1.428 . S
C240 H232 0.949 . S
C240 C239 1.428 . S
C240 C241 1.345 . S
C241 H233 0.950 . S
C241 C240 1.345 . S
C241 C242 1.424 . S
C242 H234 0.951 . S
C242 C241 1.424 . S
C242 C243 1.347 . S
C243 H235 0.951 . S
C243 C238 1.429 . S
C243 C242 1.347 . S
H244 C245 0.951 . S
C245 H244 0.951 . S
C245 C251 1.265 . S
H246 C251 0.950 . S
H247 C255 0.949 . S
H248 C256 0.950 . S
H249 C257 0.951 . S
H250 C258 0.951 . S
C251 C245 1.265 . S
C251 H246 0.950 . S
C251 C252 1.478 . S
C252 C251 1.478 . S
C252 C253 1.397 . S
C252 C269 1.394 . S
C253 C252 1.397 . S
C253 C254 1.438 . S
C253 C258 1.429 . S
C254 C253 1.438 . S
C254 C255 1.428 . S
C254 C267 1.394 . S
C255 H247 0.949 . S
C255 C254 1.428 . S
C255 C256 1.345 . S
C256 H248 0.950 . S
C256 C255 1.345 . S
C256 C257 1.424 . S
C257 H249 0.951 . S
C257 C256 1.424 . S
C257 C258 1.347 . S
C258 H250 0.951 . S
C258 C253 1.429 . S
C258 C257 1.347 . S
H259 C260 0.951 . S
C260 H259 0.951 . S
C260 C266 1.265 . S
H261 C266 0.950 . S
H262 C270 0.949 . S
H263 C271 0.950 . S
H264 C272 0.951 . S
H265 C273 0.951 . S
C266 C260 1.265 . S
C266 H261 0.950 . S
C266 C267 1.478 . S
C267 C254 1.394 . S
C267 C266 1.478 . S
C267 C268 1.397 . S
C268 C267 1.397 . S
C268 C269 1.438 . S
C268 C273 1.429 . S
C269 C252 1.394 . S
C269 C268 1.438 . S
C269 C270 1.428 . S
C270 H262 0.949 . S
C270 C269 1.428 . S
C270 C271 1.345 . S
C271 H263 0.950 . S
C271 C270 1.345 . S
C271 C272 1.424 . S
C272 H264 0.951 . S
C272 C271 1.424 . S
C272 C273 1.347 . S
C273 H265 0.951 . S
C273 C268 1.429 . S
C273 C272 1.347 . S
H274 C275 0.951 . S
C275 H274 0.951 . S
C275 C281 1.265 . S
H276 C281 0.950 . S
H277 C285 0.949 . S
H278 C286 0.950 . S
H279 C287 0.951 . S
H280 C288 0.951 . S
C281 C275 1.265 . S
C281 H276 0.950 . S
C281 C282 1.478 . S
C282 C281 1.478 . S
C282 C283 1.397 . S
C282 C299 1.394 . S
C283 C282 1.397 . S
C283 C284 1.438 . S
C283 C288 1.429 . S
C284 C283 1.438 . S
C284 C285 1.428 . S
C284 C297 1.394 . S
C285 H277 0.949 . S
C285 C284 1.428 . S
C285 C286 1.345 . S
C286 H278 0.950 . S
C286 C285 1.345 . S
C286 C287 1.424 . S
C287 H279 0.951 . S
C287 C286 1.424 . S
C287 C288 1.347 . S
C288 H280 0.951 . S
C288 C283 1.429 . S
C288 C287 1.347 . S
H289 C290 0.951 . S
C290 H289 0.951 . S
C290 C296 1.265 . S
H291 C296 0.950 . S
H292 C300 0.949 . S
H293 C301 0.950 . S
H294 C302 0.951 . S
H295 C303 0.951 . S
C296 C290 1.265 . S
C296 H291 0.950 . S
C296 C297 1.478 . S
C297 C284 1.394 . S
C297 C296 1.478 . S
C297 C298 1.397 . S
C298 C297 1.397 . S
C298 C299 1.438 . S
C298 C303 1.429 . S
C299 C282 1.394 . S
C299 C298 1.438 . S
C299 C300 1.428 . S
C300 H292 0.949 . S
C300 C299 1.428 . S
C300 C301 1.345 . S
C301 H293 0.950 . S
C301 C300 1.345 . S
C301 C302 1.424 . S
C302 H294 0.951 . S
C302 C301 1.424 . S
C302 C303 1.347 . S
C303 H295 0.951 . S
C303 C298 1.429 . S
C303 C302 1.347 . S
H304 C305 0.951 . S
C305 H304 0.951 . S
C305 C311 1.265 . S
H306 C311 0.950 . S
H307 C315 0.949 . S
H308 C316 0.950 . S
H309 C317 0.951 . S
H310 C318 0.951 . S
C311 C305 1.265 . S
C311 H306 0.950 . S
C311 C312 1.478 . S
C312 C311 1.478 . S
C312 C313 1.397 . S
C312 C329 1.394 . S
C313 C312 1.397 . S
C313 C314 1.438 . S
C313 C318 1.429 . S
C314 C313 1.438 . S
C314 C315 1.428 . S
C314 C327 1.394 . S
C315 H307 0.949 . S
C315 C314 1.428 . S
C315 C316 1.345 . S
C316 H308 0.950 . S
C316 C315 1.345 . S
C316 C317 1.424 . S
C317 H309 0.951 . S
C317 C316 1.424 . S
C317 C318 1.347 . S
C318 H310 0.951 . S
C318 C313 1.429 . S
C318 C317 1.347 . S
H319 C320 0.951 . S
C320 H319 0.951 . S
C320 C326 1.265 . S
H321 C326 0.950 . S
H322 C330 0.949 . S
H323 C331 0.950 . S
H324 C332 0.951 . S
H325 C333 0.951 . S
C326 C320 1.265 . S
C326 H321 0.950 . S
C326 C327 1.478 . S
C327 C314 1.394 . S
C327 C326 1.478 . S
C327 C328 1.397 . S
C328 C327 1.397 . S
C328 C329 1.438 . S
C328 C333 1.429 . S
C329 C312 1.394 . S
C329 C328 1.438 . S
C329 C330 1.428 . S
C330 H322 0.949 . S
C330 C329 1.428 . S
C330 C331 1.345 . S
C331 H323 0.950 . S
C331 C330 1.345 . S
C331 C332 1.424 . S
C332 H324 0.951 . S
C332 C331 1.424 . S
C332 C333 1.347 . S
C333 H325 0.951 . S
C333 C328 1.429 . S
C333 C332 1.347 . S
H334 C335 0.951 1_565 S
C335 H334 0.951 1_545 S
C335 C341 1.265 . S
H336 C341 0.950 1_655 S
H337 C345 0.949 . S
H338 C346 0.950 . S
H339 C347 0.951 . S
H340 C348 0.951 . S
C341 C335 1.265 . S
C341 H336 0.950 1_455 S
C341 C342 1.478 . S
C342 C341 1.478 . S
C342 C343 1.397 1_545 S
C342 C359 1.394 . S
C343 C342 1.397 1_565 S
C343 C344 1.438 . S
C343 C348 1.429 1_455 S
C344 C343 1.438 . S
C344 C345 1.428 1_455 S
C344 C357 1.394 . S
C345 H337 0.949 . S
C345 C344 1.428 1_655 S
C345 C346 1.345 . S
C346 H338 0.950 . S
C346 C345 1.345 . S
C346 C347 1.424 . S
C347 H339 0.951 . S
C347 C346 1.424 . S
C347 C348 1.347 . S
C348 H340 0.951 . S
C348 C343 1.429 1_655 S
C348 C347 1.347 . S
H349 C350 0.951 1_545 S
C350 H349 0.951 1_565 S
C350 C356 1.265 . S
H351 C356 0.950 . S
H352 C360 0.949 . S
H353 C361 0.950 . S
H354 C362 0.951 . S
H355 C363 0.951 . S
C356 C350 1.265 . S
C356 H351 0.950 . S
C356 C357 1.478 . S
C357 C344 1.394 . S
C357 C356 1.478 . S
C357 C358 1.397 1_565 S
C358 C357 1.397 1_545 S
C358 C359 1.438 . S
C358 C363 1.429 . S
C359 C342 1.394 . S
C359 C358 1.438 . S
C359 C360 1.428 . S
C360 H352 0.949 . S
C360 C359 1.428 . S
C360 C361 1.345 . S
C361 H353 0.950 . S
C361 C360 1.345 . S
C361 C362 1.424 . S
C362 H354 0.951 . S
C362 C361 1.424 . S
C362 C363 1.347 . S
C363 H355 0.951 . S
C363 C358 1.429 . S
C363 C362 1.347 . S
H364 C365 0.951 1_655 S
C365 H364 0.951 1_455 S
C365 C371 1.265 . S
H366 C371 0.950 . S
H367 C375 0.949 . S
H368 C376 0.950 . S
H369 C377 0.951 . S
H370 C378 0.951 . S
C371 C365 1.265 . S
C371 H366 0.950 . S
C371 C372 1.478 . S
C372 C371 1.478 . S
C372 C373 1.397 . S
C372 C389 1.394 . S
C373 C372 1.397 . S
C373 C374 1.438 . S
C373 C378 1.429 1_545 S
C374 C373 1.438 . S
C374 C375 1.428 1_545 S
C374 C387 1.394 . S
C375 H367 0.949 . S
C375 C374 1.428 1_565 S
C375 C376 1.345 . S
C376 H368 0.950 . S
C376 C375 1.345 . S
C376 C377 1.424 . S
C377 H369 0.951 . S
C377 C376 1.424 . S
C377 C378 1.347 . S
C378 H370 0.951 . S
C378 C373 1.429 1_565 S
C378 C377 1.347 . S
H379 C380 0.951 . S
C380 H379 0.951 . S
C380 C386 1.265 1_455 S
H381 C386 0.950 . S
H382 C390 0.949 . S
H383 C391 0.950 . S
H384 C392 0.951 . S
H385 C393 0.951 . S
C386 C380 1.265 1_655 S
C386 H381 0.950 . S
C386 C387 1.478 1_655 S
C387 C374 1.394 . S
C387 C386 1.478 1_455 S
C387 C388 1.397 . S
C388 C387 1.397 . S
C388 C389 1.438 . S
C388 C393 1.429 1_455 S
C389 C372 1.394 . S
C389 C388 1.438 . S
C389 C390 1.428 . S
C390 H382 0.949 . S
C390 C389 1.428 . S
C390 C391 1.345 1_455 S
C391 H383 0.950 . S
C391 C390 1.345 1_655 S
C391 C392 1.424 . S
C392 H384 0.951 . S
C392 C391 1.424 . S
C392 C393 1.347 . S
C393 H385 0.951 . S
C393 C388 1.429 1_655 S
C393 C392 1.347 . S
H394 C395 0.951 . S
C395 H394 0.951 . S
C395 C401 1.265 . S
H396 C401 0.950 . S
H397 C405 0.949 . S
H398 C406 0.950 . S
H399 C407 0.951 . S
H400 C408 0.951 . S
C401 C395 1.265 . S
C401 H396 0.950 . S
C401 C402 1.478 . S
C402 C401 1.478 . S
C402 C403 1.397 . S
C402 C419 1.394 . S
C403 C402 1.397 . S
C403 C404 1.438 . S
C403 C408 1.429 . S
C404 C403 1.438 . S
C404 C405 1.428 . S
C404 C417 1.394 . S
C405 H397 0.949 . S
C405 C404 1.428 . S
C405 C406 1.345 . S
C406 H398 0.950 . S
C406 C405 1.345 . S
C406 C407 1.424 . S
C407 H399 0.951 . S
C407 C406 1.424 . S
C407 C408 1.347 . S
C408 H400 0.951 . S
C408 C403 1.429 . S
C408 C407 1.347 . S
H409 C410 0.951 . S
C410 H409 0.951 . S
C410 C416 1.265 . S
H411 C416 0.950 . S
H412 C420 0.949 . S
H413 C421 0.950 . S
H414 C422 0.951 . S
H415 C423 0.951 . S
C416 C410 1.265 . S
C416 H411 0.950 . S
C416 C417 1.478 . S
C417 C404 1.394 . S
C417 C416 1.478 . S
C417 C418 1.397 . S
C418 C417 1.397 . S
C418 C419 1.438 . S
C418 C423 1.429 . S
C419 C402 1.394 . S
C419 C418 1.438 . S
C419 C420 1.428 . S
C420 H412 0.949 . S
C420 C419 1.428 . S
C420 C421 1.345 . S
C421 H413 0.950 . S
C421 C420 1.345 . S
C421 C422 1.424 . S
C422 H414 0.951 . S
C422 C421 1.424 . S
C422 C423 1.347 . S
C423 H415 0.951 . S
C423 C418 1.429 . S
C423 C422 1.347 . S
H424 C425 0.951 . S
C425 H424 0.951 . S
C425 C431 1.265 . S
H426 C431 0.950 . S
H427 C435 0.949 . S
H428 C436 0.950 . S
H429 C437 0.951 . S
H430 C438 0.951 . S
C431 C425 1.265 . S
C431 H426 0.950 . S
C431 C432 1.478 . S
C432 C431 1.478 . S
C432 C433 1.397 . S
C432 C449 1.394 . S
C433 C432 1.397 . S
C433 C434 1.438 . S
C433 C438 1.429 . S
C434 C433 1.438 . S
C434 C435 1.428 . S
C434 C447 1.394 . S
C435 H427 0.949 . S
C435 C434 1.428 . S
C435 C436 1.345 . S
C436 H428 0.950 . S
C436 C435 1.345 . S
C436 C437 1.424 . S
C437 H429 0.951 . S
C437 C436 1.424 . S
C437 C438 1.347 . S
C438 H430 0.951 . S
C438 C433 1.429 . S
C438 C437 1.347 . S
H439 C440 0.951 . S
C440 H439 0.951 . S
C440 C446 1.265 . S
H441 C446 0.950 . S
H442 C450 0.949 . S
H443 C451 0.950 . S
H444 C452 0.951 . S
H445 C453 0.951 . S
C446 C440 1.265 . S
C446 H441 0.950 . S
C446 C447 1.478 . S
C447 C434 1.394 . S
C447 C446 1.478 . S
C447 C448 1.397 . S
C448 C447 1.397 . S
C448 C449 1.438 . S
C448 C453 1.429 . S
C449 C432 1.394 . S
C449 C448 1.438 . S
C449 C450 1.428 . S
C450 H442 0.949 . S
C450 C449 1.428 . S
C450 C451 1.345 . S
C451 H443 0.950 . S
C451 C450 1.345 . S
C451 C452 1.424 . S
C452 H444 0.951 . S
C452 C451 1.424 . S
C452 C453 1.347 . S
C453 H445 0.951 . S
C453 C448 1.429 . S
C453 C452 1.347 . S
C110 C85 1.252 . S
C95 C16 1.212 . S
C125 C15 1.475 . S
C140 C72 1.393 . S
C155 C13 1.393 . S
C170 C89 1.539 . S
C185 C14 1.361 . S
C200 C76 1.445 . S
C215 C37 1.264 . S
C230 C59 1.343 1_565 S
C245 C36 1.420 . S
C260 C46 1.315 . S
C290 C63 1.518 . S
C275 C34 1.253 . S
C320 C50 1.466 . S
C305 C35 1.453 . S
C335 C17 1.528 . S
C350 C51 1.611 . S
C365 C18 1.355 . S
C380 C64 1.446 . S
C410 C77 1.597 . S
C395 C38 1.582 . S
C425 C39 1.356 . S
C440 C90 1.446 . S
