# Generated by pormake.
# Topology nom, (4,4)-cn, num edge types: 1
# Building blocks:
#     Node 0, Type 0, BuildingBlock: MUDLON_clean_linker_0, # of connection points: 4
#     Node 1, Type 0, BuildingBlock: MUDLON_clean_linker_0, # of connection points: 4
#     Node 2, Type 0, BuildingBlock: MUDLON_clean_linker_0, # of connection points: 4
#     Node 3, Type 0, BuildingBlock: MUDLON_clean_linker_0, # of connection points: 4
#     Node 4, Type 0, BuildingBlock: MUDLON_clean_linker_0, # of connection points: 4
#     Node 5, Type 0, BuildingBlock: MUDLON_clean_linker_0, # of connection points: 4
#     Node 6, Type 1, BuildingBlock: GALJAG_clean_sbu_0, # of connection points: 4
#     Node 7, Type 1, BuildingBlock: GALJAG_clean_sbu_0, # of connection points: 4
#     Node 8, Type 1, BuildingBlock: GALJAG_clean_sbu_0, # of connection points: 4
#     Node 9, Type 1, BuildingBlock: GALJAG_clean_sbu_0, # of connection points: 4
#     Node 10, Type 1, BuildingBlock: GALJAG_clean_sbu_0, # of connection points: 4
#     Node 11, Type 1, BuildingBlock: GALJAG_clean_sbu_0, # of connection points: 4
#     Edge 12, Type (0, 1), BuildingBlock: MIFKUJ_clean_linker_0, # of connection points: 2
#     Edge 13, Type (0, 1), BuildingBlock: MIFKUJ_clean_linker_0, # of connection points: 2
#     Edge 14, Type (0, 1), BuildingBlock: MIFKUJ_clean_linker_0, # of connection points: 2
#     Edge 15, Type (0, 1), BuildingBlock: MIFKUJ_clean_linker_0, # of connection points: 2
#     Edge 16, Type (0, 1), BuildingBlock: MIFKUJ_clean_linker_0, # of connection points: 2
#     Edge 17, Type (0, 1), BuildingBlock: MIFKUJ_clean_linker_0, # of connection points: 2
#     Edge 18, Type (0, 1), BuildingBlock: MIFKUJ_clean_linker_0, # of connection points: 2
#     Edge 19, Type (0, 1), BuildingBlock: MIFKUJ_clean_linker_0, # of connection points: 2
#     Edge 20, Type (0, 1), BuildingBlock: MIFKUJ_clean_linker_0, # of connection points: 2
#     Edge 21, Type (0, 1), BuildingBlock: MIFKUJ_clean_linker_0, # of connection points: 2
#     Edge 22, Type (0, 1), BuildingBlock: MIFKUJ_clean_linker_0, # of connection points: 2
#     Edge 23, Type (0, 1), BuildingBlock: MIFKUJ_clean_linker_0, # of connection points: 2
#     Edge 24, Type (0, 1), BuildingBlock: MIFKUJ_clean_linker_0, # of connection points: 2
#     Edge 25, Type (0, 1), BuildingBlock: MIFKUJ_clean_linker_0, # of connection points: 2
#     Edge 26, Type (0, 1), BuildingBlock: MIFKUJ_clean_linker_0, # of connection points: 2
#     Edge 27, Type (0, 1), BuildingBlock: MIFKUJ_clean_linker_0, # of connection points: 2
#     Edge 28, Type (0, 1), BuildingBlock: MIFKUJ_clean_linker_0, # of connection points: 2
#     Edge 29, Type (0, 1), BuildingBlock: MIFKUJ_clean_linker_0, # of connection points: 2
#     Edge 30, Type (0, 1), BuildingBlock: MIFKUJ_clean_linker_0, # of connection points: 2
#     Edge 31, Type (0, 1), BuildingBlock: MIFKUJ_clean_linker_0, # of connection points: 2
#     Edge 32, Type (0, 1), BuildingBlock: MIFKUJ_clean_linker_0, # of connection points: 2
#     Edge 33, Type (0, 1), BuildingBlock: MIFKUJ_clean_linker_0, # of connection points: 2
#     Edge 34, Type (0, 1), BuildingBlock: MIFKUJ_clean_linker_0, # of connection points: 2
#     Edge 35, Type (0, 1), BuildingBlock: MIFKUJ_clean_linker_0, # of connection points: 2
# Relax obj value: 0.014
# Max RMSD: 0.119
# Mean RMSD: 0.084
data_MOF--net-nom--node1-GALJAG_clean_sbu_0--node2-MUDLON_clean_linker_0--edge1-MIFKUJ_clean_linker_0
_symmetry_space_group_name_H-M    P1
_symmetry_Int_Tables_number       1
_symmetry_cell_setting            triclinic
loop_
_symmetry_equiv_pos_as_xyz
'x, y, z'
_cell_length_a     73.471514
_cell_length_b     74.437051
_cell_length_c     76.552045
_cell_angle_alpha  90.355085
_cell_angle_beta   89.851486
_cell_angle_gamma 120.54006
loop_
_atom_site_label
_atom_site_type_symbol
_atom_site_fract_x
_atom_site_fract_y
_atom_site_fract_z
_atom_type_partial_charge
H0 H 0.09857 0.55484 0.3154 0.0
N1 N 0.08108 0.56832 0.33847 0.0
H2 H 0.12999 0.57606 0.29733 0.0
H3 H 0.10201 0.61094 0.33496 0.0
H4 H 0.13269 0.63196 0.31662 0.0
H5 H 0.08363 0.59789 0.36138 0.0
H6 H 0.09986 0.60532 0.39051 0.0
H7 H 0.09312 0.54559 0.35603 0.0
H8 H 0.10886 0.55255 0.38525 0.0
H9 H 0.04706 0.53052 0.33891 0.0
H10 H 0.06682 0.595 0.32997 0.0
H11 H 0.0106 0.52054 0.33224 0.0
H12 H 0.03101 0.58521 0.32212 0.0
H13 H 0.91199 0.4892 0.29568 0.0
H14 H 0.89734 0.47418 0.26738 0.0
H15 H 0.92818 0.53596 0.24493 0.0
H16 H 0.94159 0.55098 0.27387 0.0
H17 H 0.90752 0.54444 0.30996 0.0
H18 H 0.87606 0.52851 0.32853 0.0
H19 H 0.89167 0.48274 0.34562 0.0
H20 H 0.92306 0.49875 0.32693 0.0
H21 H 0.95255 0.5068 0.3005 0.0
H22 H 0.98806 0.51626 0.3094 0.0
H23 H 0.99701 0.57371 0.33182 0.0
N24 N 0.93417 0.53093 0.3041 0.0
H25 H 0.96186 0.56466 0.32169 0.0
C26 C 0.09762 0.58114 0.32631 0.0
C27 C 0.10572 0.57165 0.31543 0.0
C28 C 0.12365 0.58375 0.30522 0.0
C29 C 0.13362 0.60561 0.30554 0.0
C30 C 0.12508 0.61512 0.31593 0.0
C31 C 0.10741 0.60303 0.32639 0.0
C32 C 0.08743 0.57128 0.35651 0.0
C33 C 0.08898 0.58787 0.36656 0.0
C34 C 0.09823 0.59209 0.38317 0.0
C35 C 0.1057 0.57956 0.39009 0.0
C36 C 0.1031 0.56236 0.38034 0.0
C37 C 0.09415 0.55837 0.36368 0.0
C38 C 0.05981 0.56339 0.3347 0.0
C39 C 0.04354 0.5425 0.33535 0.0
C40 C 0.02273 0.53683 0.33137 0.0
C41 C 0.01771 0.55199 0.32641 0.0
C42 C 0.03407 0.57304 0.32607 0.0
C43 C 0.05481 0.57871 0.33037 0.0
C44 C 0.92756 0.52138 0.28702 0.0
C45 C 0.9156 0.49959 0.28475 0.0
C46 C 0.90741 0.49094 0.26836 0.0
C47 C 0.91133 0.50379 0.25374 0.0
C48 C 0.92432 0.52554 0.25591 0.0
C49 C 0.93221 0.53419 0.2724 0.0
C50 C 0.91758 0.52283 0.31702 0.0
C51 C 0.90434 0.53123 0.318 0.0
C52 C 0.88643 0.52214 0.32864 0.0
C53 C 0.88133 0.5043 0.33849 0.0
C54 C 0.89508 0.49634 0.33804 0.0
C55 C 0.91309 0.50556 0.32746 0.0
C56 C 0.95465 0.5353 0.3101 0.0
C57 C 0.96216 0.52151 0.30718 0.0
C58 C 0.98252 0.52687 0.31252 0.0
C59 C 0.99567 0.54589 0.32127 0.0
C60 C 0.9877 0.55921 0.32473 0.0
C61 C 0.96751 0.55401 0.31909 0.0
H62 H 0.43032 0.91666 0.47224 0.0
N63 N 0.41365 0.94177 0.46617 0.0
H64 H 0.41623 0.88707 0.49174 0.0
H65 H 0.38353 0.93116 0.49004 0.0
H66 H 0.37008 0.90224 0.51072 0.0
H67 H 0.38218 0.92291 0.44341 0.0
H68 H 0.38272 0.90812 0.4149 0.0
H69 H 0.44859 0.94522 0.44986 0.0
H70 H 0.44938 0.93079 0.42129 0.0
H71 H 0.45074 0.95453 0.48402 0.0
H72 H 0.41327 0.97628 0.45865 0.0
H73 H 0.47714 0.99028 0.49173 0.0
H74 H 0.44016 0.0123 0.46545 0.0
H75 H 0.56252 0.11041 0.51088 0.0
H76 H 0.57168 0.12289 0.54095 0.0
H77 H 0.50535 0.0897 0.55452 0.0
H78 H 0.49638 0.07823 0.52439 0.0
H79 H 0.50244 0.10894 0.5036 0.0
H80 H 0.50754 0.1403 0.48911 0.0
H81 H 0.55236 0.13808 0.45386 0.0
H82 H 0.54711 0.10656 0.46846 0.0
H83 H 0.53052 0.05783 0.48809 0.0
H84 H 0.50403 0.02197 0.48024 0.0
H85 H 0.45473 0.03668 0.48833 0.0
N86 N 0.52428 0.0888 0.49689 0.0
H87 H 0.48137 0.07258 0.49522 0.0
C88 C 0.40763 0.92592 0.47937 0.0
C89 C 0.41718 0.91369 0.48055 0.0
C90 C 0.4092 0.8968 0.49197 0.0
C91 C 0.39178 0.89197 0.50279 0.0
C92 C 0.38313 0.90506 0.50231 0.0
C93 C 0.39091 0.92175 0.49063 0.0
C94 C 0.41525 0.93519 0.44874 0.0
C95 C 0.39694 0.92491 0.43851 0.0
C96 C 0.39732 0.91656 0.42222 0.0
C97 C 0.41611 0.91826 0.41584 0.0
C98 C 0.43462 0.92903 0.42592 0.0
C99 C 0.43423 0.93744 0.44221 0.0
C100 C 0.42977 0.96269 0.47096 0.0
C101 C 0.44816 0.96699 0.48009 0.0
C102 C 0.46343 0.98756 0.48433 0.0
C103 C 0.46084 0.00431 0.47928 0.0
C104 C 0.44255 0.99988 0.46991 0.0
C105 C 0.4272 0.97931 0.46589 0.0
C106 C 0.52887 0.09329 0.51528 0.0
C107 C 0.55001 0.1056 0.52045 0.0
C108 C 0.55519 0.11264 0.53768 0.0
C109 C 0.53925 0.10738 0.55023 0.0
C110 C 0.51804 0.09437 0.54517 0.0
C111 C 0.51288 0.08753 0.52787 0.0
C112 C 0.52455 0.10546 0.48714 0.0
C113 C 0.51308 0.11494 0.49258 0.0
C114 C 0.51611 0.13297 0.48435 0.0
C115 C 0.5305 0.14177 0.47046 0.0
C116 C 0.54106 0.13161 0.46445 0.0
C117 C 0.53813 0.11365 0.47277 0.0
C118 C 0.50802 0.06788 0.49228 0.0
C119 C 0.51397 0.05325 0.48806 0.0
C120 C 0.49876 0.03272 0.48374 0.0
C121 C 0.47713 0.02628 0.48371 0.0
C122 C 0.47121 0.04106 0.48794 0.0
C123 C 0.48647 0.06166 0.49204 0.0
H124 H 0.4339 0.53354 0.6638 0.0
N125 N 0.41392 0.49237 0.67346 0.0
H126 H 0.41964 0.54959 0.64498 0.0
H127 H 0.37905 0.47309 0.65413 0.0
H128 H 0.36418 0.48922 0.63563 0.0
H129 H 0.38317 0.47895 0.69692 0.0
H130 H 0.38381 0.49486 0.72517 0.0
H131 H 0.44861 0.52532 0.68878 0.0
H132 H 0.44945 0.54133 0.71702 0.0
H133 H 0.4509 0.51567 0.65488 0.0
H134 H 0.41315 0.45753 0.68191 0.0
H135 H 0.47705 0.50597 0.64817 0.0
H136 H 0.43993 0.44806 0.67602 0.0
H137 H 0.56365 0.46948 0.63442 0.0
H138 H 0.57327 0.4655 0.60476 0.0
H139 H 0.50793 0.43822 0.58896 0.0
H140 H 0.49835 0.44088 0.61877 0.0
H141 H 0.50803 0.41437 0.63949 0.0
H142 H 0.51491 0.38995 0.65491 0.0
H143 H 0.54862 0.43663 0.69489 0.0
H144 H 0.54299 0.46145 0.67849 0.0
H145 H 0.5308 0.4932 0.6546 0.0
H146 H 0.50381 0.50221 0.66109 0.0
H147 H 0.4553 0.43749 0.65423 0.0
N148 N 0.52526 0.45591 0.64719 0.0
H149 H 0.48259 0.42863 0.64862 0.0
C150 C 0.40755 0.50196 0.66034 0.0
C151 C 0.41895 0.5236 0.65738 0.0
C152 C 0.41064 0.53284 0.64671 0.0
C153 C 0.39063 0.52075 0.63895 0.0
C154 C 0.37972 0.49899 0.64125 0.0
C155 C 0.38815 0.48973 0.65185 0.0
C156 C 0.41574 0.50089 0.69077 0.0
C157 C 0.39775 0.49237 0.7014 0.0
C158 C 0.39818 0.50146 0.71752 0.0
C159 C 0.41667 0.5194 0.7233 0.0
C160 C 0.43491 0.52765 0.71283 0.0
C161 C 0.43448 0.51845 0.69672 0.0
C162 C 0.42974 0.48715 0.66878 0.0
C163 C 0.44812 0.50078 0.6594 0.0
C164 C 0.46332 0.49527 0.65571 0.0
C165 C 0.46074 0.47621 0.66157 0.0
C166 C 0.44236 0.46269 0.671 0.0
C167 C 0.42707 0.46811 0.67449 0.0
C168 C 0.5304 0.45569 0.62896 0.0
C169 C 0.55148 0.46287 0.62446 0.0
C170 C 0.55694 0.46067 0.60743 0.0
C171 C 0.5414 0.45149 0.59431 0.0
C172 C 0.52032 0.44498 0.59871 0.0
C173 C 0.51482 0.44679 0.61585 0.0
C174 C 0.52551 0.43996 0.65765 0.0
C175 C 0.51679 0.4193 0.65162 0.0
C176 C 0.52061 0.40524 0.66061 0.0
C177 C 0.53275 0.41133 0.67606 0.0
C178 C 0.53985 0.43151 0.68276 0.0
C179 C 0.53643 0.44568 0.67355 0.0
C180 C 0.50874 0.46036 0.6511 0.0
C181 C 0.51432 0.48101 0.65459 0.0
C182 C 0.49882 0.48612 0.65813 0.0
C183 C 0.47726 0.47063 0.65806 0.0
C184 C 0.4717 0.44982 0.65463 0.0
C185 C 0.48728 0.44471 0.65131 0.0
H186 H 0.11049 0.57012 0.8137 0.0
N187 N 0.07921 0.53304 0.80382 0.0
H188 H 0.14148 0.57799 0.83099 0.0
H189 H 0.08581 0.50434 0.82085 0.0
H190 H 0.11602 0.51197 0.83911 0.0
H191 H 0.09688 0.51315 0.78678 0.0
H192 H 0.11228 0.52115 0.7575 0.0
H193 H 0.07612 0.55744 0.7803 0.0
H194 H 0.09156 0.56561 0.75096 0.0
H195 H 0.0511 0.53768 0.82197 0.0
H196 H 0.05969 0.49143 0.7952 0.0
H197 H 0.01509 0.51082 0.82994 0.0
H198 H 0.02392 0.46445 0.80329 0.0
H199 H 0.92257 0.44777 0.84824 0.0
H200 H 0.90564 0.4489 0.87544 0.0
H201 H 0.91051 0.39724 0.89517 0.0
H202 H 0.92739 0.39619 0.86782 0.0
H203 H 0.91161 0.3789 0.83218 0.0
H204 H 0.87957 0.36102 0.81435 0.0
H205 H 0.8864 0.42055 0.80124 0.0
H206 H 0.91885 0.43826 0.81854 0.0
H207 H 0.96378 0.45338 0.85868 0.0
H208 H 0.99808 0.48068 0.84916 0.0
H209 H 0.98669 0.45254 0.7979 0.0
N210 N 0.93439 0.41936 0.83953 0.0
H211 H 0.95216 0.42478 0.80738 0.0
C212 C 0.09571 0.53675 0.81607 0.0
C213 C 0.11152 0.5574 0.81944 0.0
C214 C 0.12919 0.56183 0.82944 0.0
C215 C 0.13137 0.54563 0.83658 0.0
C216 C 0.11512 0.52487 0.83365 0.0
C217 C 0.09759 0.52046 0.82335 0.0
C218 C 0.08544 0.53486 0.78574 0.0
C219 C 0.09527 0.52431 0.77893 0.0
C220 C 0.10419 0.52899 0.76223 0.0
C221 C 0.10331 0.54415 0.75199 0.0
C222 C 0.09238 0.55375 0.75846 0.0
C223 C 0.08359 0.54915 0.7752 0.0
C224 C 0.05806 0.51666 0.808 0.0
C225 C 0.04517 0.52172 0.81782 0.0
C226 C 0.02468 0.50634 0.82241 0.0
C227 C 0.01661 0.48548 0.81725 0.0
C228 C 0.02952 0.48042 0.80726 0.0
C229 C 0.05006 0.49584 0.80269 0.0
C230 C 0.92616 0.42177 0.856 0.0
C231 C 0.91999 0.4367 0.8584 0.0
C232 C 0.91032 0.43732 0.87396 0.0
C233 C 0.90667 0.42311 0.88742 0.0
C234 C 0.91332 0.40855 0.88513 0.0
C235 C 0.9229 0.40788 0.86954 0.0
C236 C 0.91752 0.40981 0.82681 0.0
C237 C 0.9064 0.38805 0.82513 0.0
C238 C 0.88799 0.3779 0.8151 0.0
C239 C 0.88022 0.38933 0.80658 0.0
C240 C 0.89197 0.41126 0.80755 0.0
C241 C 0.91046 0.42142 0.81757 0.0
C242 C 0.95418 0.43721 0.83353 0.0
C243 C 0.968 0.45315 0.84517 0.0
C244 C 0.98793 0.46891 0.83975 0.0
C245 C 0.99505 0.46902 0.82269 0.0
C246 C 0.98167 0.45298 0.81113 0.0
C247 C 0.96167 0.43721 0.81653 0.0
H248 H 0.58775 0.10865 0.97622 0.0
N249 N 0.60737 0.08703 0.96679 0.0
H250 H 0.602 0.13876 0.99553 0.0
H251 H 0.64008 0.1001 0.98831 0.0
H252 H 0.65374 0.12933 0.0089 0.0
H253 H 0.63691 0.10617 0.94264 0.0
H254 H 0.63375 0.12032 0.91481 0.0
H255 H 0.57081 0.08207 0.9528 0.0
H256 H 0.56757 0.09675 0.92531 0.0
H257 H 0.56921 0.06876 0.98372 0.0
H258 H 0.6154 0.05683 0.96024 0.0
H259 H 0.5477 0.03183 0.99176 0.0
H260 H 0.59428 0.0201 0.9683 0.0
H261 H 0.49412 0.93319 0.01362 0.0
H262 H 0.47493 0.91859 0.04096 0.0
H263 H 0.52823 0.91557 0.061 0.0
H264 H 0.54718 0.93004 0.0336 0.0
H265 H 0.54717 0.91292 0.99847 0.0
H266 H 0.53012 0.88068 0.98118 0.0
H267 H 0.48029 0.89261 0.96726 0.0
H268 H 0.49762 0.92496 0.98449 0.0
H269 H 0.53475 0.97199 0.02255 0.0
H270 H 0.55023 0.00741 0.01213 0.0
H271 H 0.56129 0.98838 0.96178 0.0
N272 N 0.53282 0.93858 0.00497 0.0
H273 H 0.54621 0.95292 0.97213 0.0
C274 C 0.6132 0.10242 0.98047 0.0
C275 C 0.60212 0.11299 0.98331 0.0
C276 C 0.61024 0.13018 0.9946 0.0
C277 C 0.62932 0.13688 0.00367 0.0
C278 C 0.63941 0.12516 0.00177 0.0
C279 C 0.63151 0.10826 0.99018 0.0
C280 C 0.6042 0.09316 0.94977 0.0
C281 C 0.62168 0.10381 0.93875 0.0
C282 C 0.61986 0.11204 0.92296 0.0
C283 C 0.60046 0.10992 0.9179 0.0
C284 C 0.58271 0.09855 0.92871 0.0
C285 C 0.58454 0.0902 0.94449 0.0
C286 C 0.59397 0.06547 0.97145 0.0
C287 C 0.57469 0.05818 0.98027 0.0
C288 C 0.56245 0.0371 0.98488 0.0
C289 C 0.56921 0.02298 0.9806 0.0
C290 C 0.58838 0.03041 0.97154 0.0
C291 C 0.60057 0.0514 0.96704 0.0
C292 C 0.52209 0.93258 0.0216 0.0
C293 C 0.50168 0.92948 0.02394 0.0
C294 C 0.49073 0.92112 0.03955 0.0
C295 C 0.50003 0.91585 0.05311 0.0
C296 C 0.52072 0.91968 0.05091 0.0
C297 C 0.53156 0.92791 0.03528 0.0
C298 C 0.52364 0.92121 0.99287 0.0
C299 C 0.53278 0.90873 0.99141 0.0
C300 C 0.52304 0.89038 0.9815 0.0
C301 C 0.5038 0.88406 0.97293 0.0
C302 C 0.49497 0.89696 0.9739 0.0
C303 C 0.50484 0.91543 0.98373 0.0
C304 C 0.53821 0.95892 0.99804 0.0
C305 C 0.53969 0.97494 0.00904 0.0
C306 C 0.54871 0.99547 0.00309 0.0
C307 C 0.557 0.00076 0.98613 0.0
C308 C 0.55516 0.98486 0.97498 0.0
C309 C 0.54616 0.96437 0.98089 0.0
H310 H 0.58312 0.49458 0.16271 0.0
N311 N 0.60318 0.53439 0.17579 0.0
H312 H 0.59902 0.47942 0.14425 0.0
H313 H 0.63993 0.55472 0.15926 0.0
H314 H 0.65577 0.53992 0.14012 0.0
H315 H 0.63095 0.5463 0.20158 0.0
H316 H 0.6268 0.52896 0.22958 0.0
H317 H 0.56681 0.50076 0.18786 0.0
H318 H 0.56242 0.48321 0.2159 0.0
H319 H 0.56562 0.51507 0.15793 0.0
H320 H 0.61179 0.57287 0.1821 0.0
H321 H 0.54492 0.53104 0.14917 0.0
H322 H 0.5914 0.589 0.1734 0.0
H323 H 0.49322 0.57638 0.12662 0.0
H324 H 0.47407 0.57177 0.09925 0.0
H325 H 0.52659 0.62939 0.08002 0.0
H326 H 0.54554 0.63378 0.1074 0.0
H327 H 0.54662 0.65027 0.14277 0.0
H328 H 0.52989 0.66568 0.16011 0.0
H329 H 0.47867 0.60396 0.17272 0.0
H330 H 0.49568 0.58871 0.15546 0.0
H331 H 0.53418 0.57929 0.11792 0.0
H332 H 0.54898 0.55887 0.12862 0.0
H333 H 0.55803 0.58755 0.17944 0.0
N334 N 0.5315 0.61019 0.13568 0.0
H335 H 0.54354 0.60831 0.16888 0.0
C336 C 0.61051 0.52579 0.16252 0.0
C337 C 0.59885 0.50465 0.15764 0.0
C338 C 0.60796 0.496 0.14697 0.0
C339 C 0.62883 0.50837 0.14088 0.0
C340 C 0.63986 0.52982 0.14489 0.0
C341 C 0.6308 0.53838 0.15566 0.0
C342 C 0.59928 0.52483 0.19271 0.0
C343 C 0.61588 0.53271 0.20478 0.0
C344 C 0.61342 0.52282 0.22076 0.0
C345 C 0.59426 0.50471 0.22496 0.0
C346 C 0.57742 0.49703 0.21297 0.0
C347 C 0.57988 0.50707 0.19698 0.0
C348 C 0.59033 0.54293 0.17059 0.0
C349 C 0.57128 0.53117 0.16136 0.0
C350 C 0.55949 0.54033 0.15635 0.0
C351 C 0.56645 0.56126 0.16068 0.0
C352 C 0.58538 0.57277 0.17011 0.0
C353 C 0.59715 0.56367 0.17498 0.0
C354 C 0.52083 0.60553 0.11901 0.0
C355 C 0.50062 0.58792 0.11646 0.0
C356 C 0.4897 0.58533 0.10083 0.0
C357 C 0.49877 0.60025 0.08748 0.0
C358 C 0.51925 0.61746 0.08992 0.0
C359 C 0.53009 0.62005 0.10554 0.0
C360 C 0.52236 0.61845 0.14771 0.0
C361 C 0.53198 0.64012 0.14954 0.0
C362 C 0.52242 0.64886 0.15948 0.0
C363 C 0.50291 0.63602 0.16771 0.0
C364 C 0.49358 0.61423 0.16635 0.0
C365 C 0.50326 0.6055 0.1565 0.0
C366 C 0.53658 0.59506 0.14265 0.0
C367 C 0.5385 0.58083 0.13157 0.0
C368 C 0.54713 0.56906 0.13768 0.0
C369 C 0.55465 0.57153 0.15488 0.0
C370 C 0.55245 0.58533 0.16607 0.0
C371 C 0.5438 0.59705 0.16002 0.0
In372 In 0.62666 0.39309 0.40674 0.0
O373 O 0.66177 0.41699 0.4106 0.0
O374 O 0.65392 0.39076 0.39456 0.0
C375 C 0.61126 0.4041 0.43421 0.0
C376 C 0.61597 0.40807 0.37883 0.0
C377 C 0.61031 0.35236 0.41438 0.0
O378 O 0.63065 0.41027 0.43246 0.0
O379 O 0.59959 0.39238 0.42207 0.0
O380 O 0.60771 0.35839 0.3997 0.0
O381 O 0.62132 0.36684 0.42508 0.0
C382 C 0.66832 0.40761 0.40107 0.0
O383 O 0.60926 0.38888 0.38075 0.0
O384 O 0.62783 0.41949 0.39095 0.0
In385 In 0.26003 0.64195 0.57194 0.0
O386 O 0.2684 0.61678 0.56534 0.0
O387 O 0.28682 0.63967 0.58439 0.0
C388 C 0.23837 0.62891 0.54154 0.0
C389 C 0.23472 0.63107 0.60052 0.0
C390 C 0.28344 0.68397 0.56914 0.0
O391 O 0.23307 0.61756 0.55495 0.0
O392 O 0.25495 0.64647 0.5433 0.0
O393 O 0.2647 0.67473 0.57477 0.0
O394 O 0.29038 0.67208 0.56518 0.0
C395 C 0.28345 0.62356 0.57614 0.0
O396 O 0.2535 0.63494 0.60103 0.0
O397 O 0.22874 0.63317 0.58566 0.0
In398 In 0.62551 0.2518 0.73712 0.0
O399 O 0.66047 0.26754 0.72962 0.0
O400 O 0.65261 0.27767 0.7529 0.0
C401 C 0.60987 0.22413 0.71043 0.0
C402 C 0.61469 0.22545 0.76452 0.0
C403 C 0.61056 0.27748 0.72987 0.0
O404 O 0.62941 0.23519 0.71351 0.0
O405 O 0.5982 0.22692 0.72087 0.0
O406 O 0.60823 0.26909 0.74462 0.0
O407 O 0.62061 0.27311 0.71891 0.0
C408 C 0.667 0.27944 0.74279 0.0
O409 O 0.60556 0.23557 0.76138 0.0
O410 O 0.62903 0.22851 0.75381 0.0
In411 In 0.38183 0.62998 0.90686 0.0
O412 O 0.34684 0.60458 0.90838 0.0
O413 O 0.35467 0.63315 0.89614 0.0
C414 C 0.39668 0.61975 0.93511 0.0
C415 C 0.39069 0.61481 0.87792 0.0
C416 C 0.40015 0.67124 0.91357 0.0
O417 O 0.3783 0.61711 0.93463 0.0
O418 O 0.40731 0.62732 0.92139 0.0
O419 O 0.40767 0.66398 0.9026 0.0
O420 O 0.38342 0.65772 0.92099 0.0
C421 C 0.34035 0.61515 0.90059 0.0
O422 O 0.39525 0.63357 0.87916 0.0
O423 O 0.38181 0.60391 0.89122 0.0
In424 In 0.76131 0.38921 0.07153 0.0
O425 O 0.77354 0.38684 0.09849 0.0
O426 O 0.78536 0.41695 0.08767 0.0
C427 C 0.73777 0.34724 0.06746 0.0
C428 C 0.73567 0.40486 0.07648 0.0
C429 C 0.78571 0.39938 0.04252 0.0
O430 O 0.75659 0.35636 0.07288 0.0
O431 O 0.73074 0.3592 0.06433 0.0
O432 O 0.76756 0.39729 0.0424 0.0
O433 O 0.79153 0.3966 0.0572 0.0
C434 C 0.78557 0.40629 0.10031 0.0
O435 O 0.75035 0.41219 0.06529 0.0
O436 O 0.73379 0.38951 0.08496 0.0
In437 In 0.38424 0.77043 0.23457 0.0
O438 O 0.40983 0.76195 0.23886 0.0
O439 O 0.38513 0.7436 0.22095 0.0
C440 C 0.39264 0.79634 0.26211 0.0
C441 C 0.39882 0.7955 0.20631 0.0
C442 C 0.34344 0.74299 0.24231 0.0
O443 O 0.39974 0.78407 0.26101 0.0
O444 O 0.38148 0.79558 0.24931 0.0
O445 O 0.34869 0.75633 0.23033 0.0
O446 O 0.35872 0.74343 0.25019 0.0
C447 C 0.40193 0.74684 0.22821 0.0
O448 O 0.38041 0.77976 0.20691 0.0
O449 O 0.40964 0.7986 0.21994 0.0
H450 H 0.16896 0.60272 0.30746 0.0
H451 H 0.20369 0.62628 0.29468 0.0
H452 H 0.17888 0.66138 0.27018 0.0
H453 H 0.14408 0.63805 0.28328 0.0
H454 H 0.20736 0.65061 0.24849 0.0
H455 H 0.20343 0.68311 0.30197 0.0
H456 H 0.19628 0.68377 0.33338 0.0
H457 H 0.24316 0.66766 0.34582 0.0
H458 H 0.25034 0.66656 0.31444 0.0
H459 H 0.30773 0.74025 0.22857 0.0
H460 H 0.27107 0.71662 0.23747 0.0
H461 H 0.29235 0.68884 0.2756 0.0
H462 H 0.32895 0.7126 0.26699 0.0
H463 H 0.26441 0.69679 0.28971 0.0
H464 H 0.26857 0.6637 0.2372 0.0
H465 H 0.27558 0.66132 0.20601 0.0
H466 H 0.2287 0.67678 0.19175 0.0
H467 H 0.22162 0.67954 0.22289 0.0
C468 C 0.17084 0.61526 0.29912 0.0
C469 C 0.15389 0.61859 0.29631 0.0
C470 C 0.19065 0.62871 0.2919 0.0
C471 C 0.19377 0.64552 0.28154 0.0
C472 C 0.1767 0.64843 0.27812 0.0
C473 C 0.15693 0.63519 0.28563 0.0
C474 C 0.21521 0.66068 0.27521 0.0
C475 C 0.21981 0.66098 0.2574 0.0
C476 C 0.23144 0.67378 0.28697 0.0
C477 C 0.22724 0.67451 0.30585 0.0
C478 C 0.21205 0.67949 0.3114 0.0
C479 C 0.20803 0.67999 0.3292 0.0
C480 C 0.21921 0.6757 0.34159 0.0
C481 C 0.23448 0.67095 0.33621 0.0
C482 C 0.23854 0.67039 0.31841 0.0
C483 C 0.30456 0.72903 0.23879 0.0
C484 C 0.3212 0.72827 0.24709 0.0
C485 C 0.28361 0.71548 0.24382 0.0
C486 C 0.27893 0.70084 0.25712 0.0
C487 C 0.29556 0.70002 0.26533 0.0
C488 C 0.31647 0.71357 0.26035 0.0
C489 C 0.25682 0.68671 0.2629 0.0
C490 C 0.25203 0.68657 0.28069 0.0
C491 C 0.24049 0.67366 0.2511 0.0
C492 C 0.24475 0.67206 0.23237 0.0
C493 C 0.2599 0.66678 0.22741 0.0
C494 C 0.26385 0.66532 0.20974 0.0
C495 C 0.25264 0.66896 0.1969 0.0
C496 C 0.23741 0.67401 0.20171 0.0
C497 C 0.23341 0.67551 0.21937 0.0
H498 H 0.25572 0.66781 0.18323 0.0
H499 H 0.21608 0.67611 0.35537 0.0
H500 H 0.53835 0.17665 0.48848 0.0
H501 H 0.54925 0.21112 0.47692 0.0
H502 H 0.54565 0.18803 0.42444 0.0
H503 H 0.53508 0.15344 0.43605 0.0
H504 H 0.58045 0.22372 0.42797 0.0
H505 H 0.50843 0.19987 0.44076 0.0
H506 H 0.47572 0.18442 0.45821 0.0
H507 H 0.50583 0.23418 0.49573 0.0
H508 H 0.53884 0.24978 0.47863 0.0
H509 H 0.59284 0.31874 0.39223 0.0
H510 H 0.57719 0.28183 0.39995 0.0
H511 H 0.59048 0.29888 0.45434 0.0
H512 H 0.60642 0.33575 0.44672 0.0
H513 H 0.54832 0.26525 0.4471 0.0
H514 H 0.62125 0.28704 0.43423 0.0
H515 H 0.65307 0.30218 0.41566 0.0
H516 H 0.61912 0.25539 0.37646 0.0
H517 H 0.58698 0.24015 0.39471 0.0
C518 C 0.53952 0.17881 0.47446 0.0
C519 C 0.5357 0.16229 0.46316 0.0
C520 C 0.54575 0.19854 0.46785 0.0
C521 C 0.54797 0.20215 0.44977 0.0
C522 C 0.54401 0.18563 0.43843 0.0
C523 C 0.53797 0.16589 0.44506 0.0
C524 C 0.55535 0.22342 0.44288 0.0
C525 C 0.57313 0.23261 0.43189 0.0
C526 C 0.54601 0.23521 0.44813 0.0
C527 C 0.52618 0.22591 0.45846 0.0
C528 C 0.50814 0.20744 0.45279 0.0
C529 C 0.48953 0.19867 0.46261 0.0
C530 C 0.48871 0.20829 0.47808 0.0
C531 C 0.50649 0.22674 0.48375 0.0
C532 C 0.52515 0.23557 0.47398 0.0
C533 C 0.59244 0.31459 0.40583 0.0
C534 C 0.6009 0.3301 0.41888 0.0
C535 C 0.58352 0.29355 0.4102 0.0
C536 C 0.58272 0.28768 0.42771 0.0
C537 C 0.59093 0.30311 0.44076 0.0
C538 C 0.60011 0.32415 0.43638 0.0
C539 C 0.57348 0.26547 0.43249 0.0
C540 C 0.55539 0.25616 0.44306 0.0
C541 C 0.58233 0.2535 0.42667 0.0
C542 C 0.60165 0.26261 0.41574 0.0
C543 C 0.62052 0.2801 0.42158 0.0
C544 C 0.63862 0.28868 0.41113 0.0
C545 C 0.6381 0.2798 0.39487 0.0
C546 C 0.61949 0.26228 0.38905 0.0
C547 C 0.60133 0.25366 0.39944 0.0
H548 H 0.65214 0.28645 0.3868 0.0
H549 H 0.47429 0.20148 0.48567 0.0
H550 H 0.39143 0.55653 0.64851 0.0
H551 H 0.37308 0.57237 0.63497 0.0
H552 H 0.34737 0.52375 0.59582 0.0
H553 H 0.3664 0.50805 0.60902 0.0
H554 H 0.35979 0.56252 0.58185 0.0
H555 H 0.31686 0.52077 0.62889 0.0
H556 H 0.30894 0.50733 0.65899 0.0
H557 H 0.32729 0.56851 0.67834 0.0
H558 H 0.33563 0.58239 0.64837 0.0
H559 H 0.2802 0.58912 0.55978 0.0
H560 H 0.29839 0.5703 0.56773 0.0
H561 H 0.3314 0.61498 0.60893 0.0
H562 H 0.31346 0.6338 0.60107 0.0
H563 H 0.31214 0.57423 0.62016 0.0
H564 H 0.35709 0.61604 0.57282 0.0
H565 H 0.36477 0.629 0.54257 0.0
H566 H 0.34143 0.56667 0.52351 0.0
H567 H 0.33332 0.55329 0.55366 0.0
C568 C 0.38226 0.54938 0.63681 0.0
C569 C 0.38042 0.53099 0.62985 0.0
C570 C 0.37157 0.55836 0.62919 0.0
C571 C 0.3586 0.54907 0.61455 0.0
C572 C 0.35722 0.53111 0.60717 0.0
C573 C 0.36797 0.52208 0.61481 0.0
C574 C 0.346 0.55789 0.60749 0.0
C575 C 0.34908 0.56476 0.59012 0.0
C576 C 0.33215 0.56095 0.61833 0.0
C577 C 0.32702 0.55265 0.63638 0.0
C578 C 0.31935 0.53139 0.63957 0.0
C579 C 0.31477 0.52369 0.65661 0.0
C580 C 0.31765 0.53707 0.67057 0.0
C581 C 0.32508 0.55817 0.66751 0.0
C582 C 0.32971 0.56596 0.6505 0.0
C583 C 0.2915 0.59501 0.57041 0.0
C584 C 0.29538 0.6129 0.57983 0.0
C585 C 0.3019 0.58428 0.57491 0.0
C586 C 0.31624 0.59126 0.58892 0.0
C587 C 0.32035 0.6093 0.5981 0.0
C588 C 0.31013 0.62008 0.59356 0.0
C589 C 0.32635 0.57939 0.59467 0.0
C590 C 0.3227 0.57183 0.61182 0.0
C591 C 0.33951 0.57561 0.58359 0.0
C592 C 0.34435 0.58363 0.56547 0.0
C593 C 0.3534 0.60507 0.56217 0.0
C594 C 0.35787 0.6125 0.54505 0.0
C595 C 0.35352 0.59866 0.53112 0.0
C596 C 0.34474 0.57737 0.53431 0.0
C597 C 0.34022 0.56985 0.55141 0.0
H598 H 0.35701 0.60445 0.51788 0.0
H599 H 0.31409 0.53107 0.68375 0.0
H600 H 0.86851 0.39924 0.77562 0.0
H601 H 0.83331 0.38189 0.76223 0.0
H602 H 0.80936 0.33749 0.80435 0.0
H603 H 0.84425 0.35475 0.81783 0.0
H604 H 0.79448 0.31821 0.77378 0.0
H605 H 0.80125 0.37858 0.80357 0.0
H606 H 0.81798 0.41613 0.81029 0.0
H607 H 0.80992 0.42841 0.757 0.0
H608 H 0.79338 0.39094 0.74991 0.0
H609 H 0.68446 0.30638 0.77027 0.0
H610 H 0.72181 0.32666 0.77839 0.0
H611 H 0.7382 0.30406 0.73246 0.0
H612 H 0.70081 0.28357 0.72433 0.0
H613 H 0.75753 0.35742 0.76327 0.0
H614 H 0.77759 0.29444 0.74411 0.0
H615 H 0.75966 0.25624 0.74019 0.0
H616 H 0.71201 0.24818 0.77711 0.0
H617 H 0.72981 0.28628 0.78142 0.0
C618 C 0.85573 0.3858 0.78203 0.0
C619 C 0.85924 0.37837 0.79778 0.0
C620 C 0.83564 0.37588 0.77435 0.0
C621 C 0.81867 0.35845 0.78235 0.0
C622 C 0.82224 0.35082 0.79788 0.0
C623 C 0.84225 0.36068 0.80554 0.0
C624 C 0.79702 0.34833 0.77489 0.0
C625 C 0.78649 0.32683 0.77134 0.0
C626 C 0.78645 0.3595 0.77192 0.0
C627 C 0.7963 0.382 0.77617 0.0
C628 C 0.80319 0.38931 0.79326 0.0
C629 C 0.81262 0.41057 0.79714 0.0
C630 C 0.81507 0.42466 0.78407 0.0
C631 C 0.80804 0.41749 0.7671 0.0
C632 C 0.79864 0.39624 0.76315 0.0
C633 C 0.69604 0.3059 0.7618 0.0
C634 C 0.6897 0.29326 0.74674 0.0
C635 C 0.71738 0.31756 0.76642 0.0
C636 C 0.73276 0.31671 0.75613 0.0
C637 C 0.72656 0.30476 0.74069 0.0
C638 C 0.70521 0.2931 0.73605 0.0
C639 C 0.75505 0.32733 0.76215 0.0
C640 C 0.76568 0.34889 0.76543 0.0
C641 C 0.76559 0.31616 0.76521 0.0
C642 C 0.7549 0.29321 0.76291 0.0
C643 C 0.76332 0.2845 0.75142 0.0
C644 C 0.75318 0.26287 0.74913 0.0
C645 C 0.73466 0.2498 0.75835 0.0
C646 C 0.7263 0.25833 0.76993 0.0
C647 C 0.7364 0.27993 0.77228 0.0
H648 H 0.72683 0.23307 0.75655 0.0
H649 H 0.82236 0.44111 0.78709 0.0
H650 H 0.52008 0.8664 0.95109 0.0
H651 H 0.50179 0.83095 0.93897 0.0
H652 H 0.4436 0.81956 0.96273 0.0
H653 H 0.46183 0.85485 0.97507 0.0
H654 H 0.45277 0.78891 0.96992 0.0
H655 H 0.44978 0.8254 0.91938 0.0
H656 H 0.46454 0.85228 0.89648 0.0
H657 H 0.50322 0.82816 0.87797 0.0
H658 H 0.4889 0.80131 0.90093 0.0
H659 H 0.38388 0.69061 0.9329 0.0
H660 H 0.40104 0.72746 0.94093 0.0
H661 H 0.45676 0.73947 0.9123 0.0
H662 H 0.43934 0.70261 0.90374 0.0
H663 H 0.44928 0.77016 0.90722 0.0
H664 H 0.45401 0.73477 0.95737 0.0
H665 H 0.44085 0.7082 0.98051 0.0
H666 H 0.4012 0.73061 0.00021 0.0
H667 H 0.41391 0.75717 0.97703 0.0
C668 C 0.50335 0.85638 0.95362 0.0
C669 C 0.49239 0.86341 0.96404 0.0
C670 C 0.4929 0.83619 0.9466 0.0
C671 C 0.47132 0.82266 0.9499 0.0
C672 C 0.46025 0.82978 0.96 0.0
C673 C 0.47065 0.85 0.96692 0.0
C674 C 0.46054 0.80069 0.94369 0.0
C675 C 0.45171 0.78479 0.95619 0.0
C676 C 0.45984 0.79537 0.92583 0.0
C677 C 0.46841 0.81147 0.91198 0.0
C678 C 0.46156 0.82594 0.91052 0.0
C679 C 0.46982 0.84115 0.89751 0.0
C680 C 0.48485 0.84196 0.88581 0.0
C681 C 0.4916 0.82753 0.88706 0.0
C682 C 0.4834 0.8123 0.90006 0.0
C683 C 0.39975 0.70111 0.92825 0.0
C684 C 0.41033 0.69371 0.9178 0.0
C685 C 0.40959 0.72217 0.93291 0.0
C686 C 0.43036 0.73621 0.9275 0.0
C687 C 0.44076 0.72894 0.91667 0.0
C688 C 0.43082 0.70788 0.91184 0.0
C689 C 0.44132 0.75833 0.93346 0.0
C690 C 0.45027 0.77426 0.92095 0.0
C691 C 0.44239 0.76373 0.95136 0.0
C692 C 0.43476 0.74783 0.96536 0.0
C693 C 0.44237 0.73394 0.96656 0.0
C694 C 0.43501 0.71889 0.9797 0.0
C695 C 0.42016 0.71767 0.9918 0.0
C696 C 0.41268 0.73155 0.99082 0.0
C697 C 0.41997 0.74662 0.97769 0.0
H698 H 0.41449 0.70601 0.00196 0.0
H699 H 0.49122 0.85375 0.87574 0.0
H700 H 0.66963 0.51758 0.14496 0.0
H701 H 0.68697 0.50058 0.13134 0.0
H702 H 0.62971 0.45922 0.10325 0.0
H703 H 0.61243 0.47683 0.11627 0.0
H704 H 0.67827 0.46216 0.13472 0.0
H705 H 0.64258 0.4436 0.06507 0.0
H706 H 0.62914 0.45827 0.04324 0.0
H707 H 0.66825 0.51948 0.06509 0.0
H708 H 0.68213 0.50523 0.08689 0.0
H709 H 0.70061 0.3893 0.09708 0.0
H710 H 0.6808 0.40631 0.10533 0.0
H711 H 0.72159 0.45892 0.07295 0.0
H712 H 0.7411 0.44168 0.06425 0.0
H713 H 0.68184 0.45106 0.07112 0.0
H714 H 0.7304 0.45923 0.11673 0.0
H715 H 0.74639 0.44655 0.13801 0.0
H716 H 0.68671 0.41153 0.16419 0.0
H717 H 0.67025 0.42364 0.14282 0.0
C718 C 0.66081 0.50521 0.13557 0.0
C719 C 0.63963 0.49868 0.13165 0.0
C720 C 0.67071 0.49533 0.12794 0.0
C721 C 0.6597 0.47865 0.11623 0.0
C722 C 0.63862 0.47221 0.11209 0.0
C723 C 0.6287 0.48217 0.11968 0.0
C724 C 0.67011 0.46753 0.10903 0.0
C725 C 0.679 0.45973 0.12081 0.0
C726 C 0.67129 0.46451 0.09088 0.0
C727 C 0.6632 0.47329 0.07773 0.0
C728 C 0.64835 0.4602 0.06518 0.0
C729 C 0.64066 0.46844 0.05281 0.0
C730 C 0.64778 0.48979 0.05282 0.0
C731 C 0.66268 0.50294 0.06515 0.0
C732 C 0.67044 0.49478 0.07753 0.0
C733 C 0.70519 0.40438 0.09156 0.0
C734 C 0.72253 0.41427 0.08016 0.0
C735 C 0.69389 0.4141 0.0963 0.0
C736 C 0.69995 0.43406 0.09001 0.0
C737 C 0.71666 0.44354 0.078 0.0
C738 C 0.72784 0.43372 0.07309 0.0
C739 C 0.68982 0.44561 0.09683 0.0
C740 C 0.68098 0.45344 0.08502 0.0
C741 C 0.68905 0.44907 0.11496 0.0
C742 C 0.69905 0.44219 0.12808 0.0
C743 C 0.72066 0.44874 0.12697 0.0
C744 C 0.7298 0.44164 0.13904 0.0
C745 C 0.71755 0.42821 0.15242 0.0
C746 C 0.69616 0.42191 0.1538 0.0
C747 C 0.68692 0.42887 0.1417 0.0
H748 H 0.72463 0.42269 0.16175 0.0
H749 H 0.64179 0.49613 0.04324 0.0
H750 H 0.34969 0.86606 0.51043 0.0
H751 H 0.33334 0.83291 0.52587 0.0
H752 H 0.39455 0.83977 0.53409 0.0
H753 H 0.41134 0.87362 0.51959 0.0
H754 H 0.3618 0.80093 0.5167 0.0
H755 H 0.37363 0.84351 0.56774 0.0
H756 H 0.37162 0.8703 0.58534 0.0
H757 H 0.30385 0.83464 0.58301 0.0
H758 H 0.30546 0.80777 0.56516 0.0
H759 H 0.3257 0.70779 0.56296 0.0
H760 H 0.34571 0.74475 0.5554 0.0
H761 H 0.28905 0.74826 0.56021 0.0
H762 H 0.26914 0.71143 0.56848 0.0
H763 H 0.32106 0.78291 0.57203 0.0
H764 H 0.30762 0.74223 0.51996 0.0
H765 H 0.30744 0.71539 0.5008 0.0
H766 H 0.37521 0.7472 0.50278 0.0
H767 H 0.37578 0.77409 0.52217 0.0
C768 C 0.35985 0.86095 0.51594 0.0
C769 C 0.38193 0.87265 0.51361 0.0
C770 C 0.35039 0.84187 0.52467 0.0
C771 C 0.36275 0.83393 0.53106 0.0
C772 C 0.38476 0.84565 0.52916 0.0
C773 C 0.39429 0.86493 0.52073 0.0
C774 C 0.35251 0.81273 0.53857 0.0
C775 C 0.35322 0.79702 0.52896 0.0
C776 C 0.3407 0.80761 0.55422 0.0
C777 C 0.33968 0.82373 0.56496 0.0
C778 C 0.3583 0.84148 0.57083 0.0
C779 C 0.35724 0.85666 0.58088 0.0
C780 C 0.33763 0.85421 0.58525 0.0
C781 C 0.31904 0.83654 0.5796 0.0
C782 C 0.32002 0.82132 0.56953 0.0
C783 C 0.31757 0.71651 0.5626 0.0
C784 C 0.29583 0.70671 0.56615 0.0
C785 C 0.329 0.73761 0.55819 0.0
C786 C 0.31881 0.74921 0.55683 0.0
C787 C 0.29726 0.73964 0.5611 0.0
C788 C 0.28588 0.71858 0.56579 0.0
C789 C 0.33038 0.77097 0.55019 0.0
C790 C 0.32981 0.78678 0.55986 0.0
C791 C 0.342 0.77616 0.53437 0.0
C792 C 0.34173 0.76004 0.52267 0.0
C793 C 0.32248 0.74341 0.51642 0.0
C794 C 0.3223 0.7282 0.5055 0.0
C795 C 0.34129 0.72955 0.50061 0.0
C796 C 0.36051 0.74615 0.5066 0.0
C797 C 0.36077 0.76139 0.51755 0.0
H798 H 0.34113 0.71777 0.49215 0.0
H799 H 0.33683 0.86597 0.59304 0.0
H800 H 0.51068 0.36828 0.67798 0.0
H801 H 0.52342 0.34586 0.6887 0.0
H802 H 0.58195 0.40012 0.70468 0.0
H803 H 0.57018 0.4226 0.69267 0.0
H804 H 0.59116 0.37583 0.68969 0.0
H805 H 0.54148 0.36574 0.73437 0.0
H806 H 0.50706 0.35738 0.74679 0.0
H807 H 0.47844 0.29552 0.7252 0.0
H808 H 0.51264 0.3036 0.71246 0.0
H809 H 0.59441 0.29455 0.75235 0.0
H810 H 0.5809 0.31768 0.74515 0.0
H811 H 0.59289 0.31333 0.69051 0.0
H812 H 0.6071 0.29092 0.69771 0.0
H813 H 0.54935 0.31395 0.72711 0.0
H814 H 0.60642 0.35748 0.66953 0.0
H815 H 0.64285 0.36853 0.66045 0.0
H816 H 0.66036 0.36872 0.71395 0.0
H817 H 0.62412 0.35795 0.72337 0.0
C818 C 0.52633 0.37551 0.68365 0.0
C819 C 0.53934 0.39739 0.68436 0.0
C820 C 0.53349 0.3626 0.69005 0.0
C821 C 0.5536 0.37123 0.69771 0.0
C822 C 0.56637 0.39302 0.69885 0.0
C823 C 0.55942 0.40591 0.69217 0.0
C824 C 0.56189 0.35771 0.70368 0.0
C825 C 0.58199 0.36235 0.69792 0.0
C826 C 0.55018 0.34027 0.71467 0.0
C827 C 0.52959 0.33534 0.72233 0.0
C828 C 0.52781 0.3504 0.73217 0.0
C829 C 0.50835 0.34571 0.73928 0.0
C830 C 0.49056 0.32595 0.73675 0.0
C831 C 0.49222 0.31083 0.72713 0.0
C832 C 0.51165 0.31545 0.71998 0.0
C833 C 0.59422 0.29861 0.73881 0.0
C834 C 0.602 0.29112 0.72561 0.0
C835 C 0.58642 0.31175 0.7347 0.0
C836 C 0.58614 0.31753 0.7173 0.0
C837 C 0.59338 0.30954 0.70407 0.0
C838 C 0.60144 0.29666 0.70819 0.0
C839 C 0.57847 0.33203 0.71296 0.0
C840 C 0.5585 0.32751 0.71895 0.0
C841 C 0.59058 0.35001 0.70266 0.0
C842 C 0.61249 0.35672 0.69713 0.0
C843 C 0.61807 0.35997 0.67936 0.0
C844 C 0.63868 0.36616 0.67415 0.0
C845 C 0.65389 0.36926 0.68661 0.0
C846 C 0.64854 0.36624 0.70431 0.0
C847 C 0.62796 0.36007 0.70959 0.0
H848 H 0.66984 0.37403 0.68255 0.0
H849 H 0.47551 0.32234 0.74226 0.0
H850 H 0.15584 0.57916 0.85811 0.0
H851 H 0.19023 0.58921 0.87073 0.0
H852 H 0.18565 0.53293 0.85051 0.0
H853 H 0.15185 0.52324 0.83684 0.0
H854 H 0.20139 0.54805 0.88947 0.0
H855 H 0.21298 0.5667 0.82766 0.0
H856 H 0.20858 0.5832 0.80142 0.0
H857 H 0.23751 0.64233 0.82803 0.0
H858 H 0.24175 0.62607 0.85453 0.0
H859 H 0.30867 0.57445 0.8984 0.0
H860 H 0.27203 0.56113 0.88947 0.0
H861 H 0.28458 0.62426 0.88522 0.0
H862 H 0.32146 0.63754 0.89318 0.0
H863 H 0.2636 0.60462 0.85885 0.0
H864 H 0.25421 0.58878 0.91979 0.0
H865 H 0.25755 0.57403 0.94753 0.0
H866 H 0.22393 0.51239 0.92537 0.0
H867 H 0.22063 0.5268 0.89741 0.0
C868 C 0.1621 0.5689 0.8562 0.0
C869 C 0.15104 0.55048 0.84619 0.0
C870 C 0.18168 0.57459 0.86362 0.0
C871 C 0.1904 0.5618 0.86149 0.0
C872 C 0.17904 0.54291 0.85235 0.0
C873 C 0.15963 0.53738 0.84462 0.0
C874 C 0.21211 0.56902 0.86766 0.0
C875 C 0.21509 0.56023 0.88273 0.0
C876 C 0.22978 0.58532 0.85909 0.0
C877 C 0.22745 0.59513 0.84312 0.0
C878 C 0.2182 0.58318 0.82797 0.0
C879 C 0.21578 0.59249 0.81304 0.0
C880 C 0.2227 0.61379 0.81307 0.0
C881 C 0.23212 0.62583 0.82803 0.0
C882 C 0.23455 0.61657 0.843 0.0
C883 C 0.30352 0.58544 0.89568 0.0
C884 C 0.31786 0.60701 0.89647 0.0
C885 C 0.28253 0.57783 0.89067 0.0
C886 C 0.27534 0.59165 0.88687 0.0
C887 C 0.28966 0.61323 0.88801 0.0
C888 C 0.31073 0.62083 0.89262 0.0
C889 C 0.25324 0.58378 0.8809 0.0
C890 C 0.25008 0.59244 0.86576 0.0
C891 C 0.23541 0.56762 0.88965 0.0
C892 C 0.23736 0.5589 0.90645 0.0
C893 C 0.24767 0.57209 0.92079 0.0
C894 C 0.24953 0.56379 0.93656 0.0
C895 C 0.24101 0.54229 0.9382 0.0
C896 C 0.23055 0.52905 0.92407 0.0
C897 C 0.22866 0.53727 0.90827 0.0
H898 H 0.24246 0.5359 0.95042 0.0
H899 H 0.22082 0.62097 0.8015 0.0
H900 H 0.61001 0.15416 0.02283 0.0
H901 H 0.62677 0.18867 0.03655 0.0
H902 H 0.68813 0.19901 0.02238 0.0
H903 H 0.6717 0.16524 0.00769 0.0
H904 H 0.68306 0.21111 0.05885 0.0
H905 H 0.67155 0.21942 0.99748 0.0
H906 H 0.64929 0.21129 0.97121 0.0
H907 H 0.60967 0.22933 0.99816 0.0
H908 H 0.63153 0.23726 0.0247 0.0
H909 H 0.75223 0.32008 0.06475 0.0
H910 H 0.732 0.28307 0.05709 0.0
H911 H 0.67478 0.28593 0.05561 0.0
H912 H 0.69521 0.32323 0.06245 0.0
H913 H 0.67487 0.2656 0.02905 0.0
H914 H 0.68669 0.26053 0.08937 0.0
H915 H 0.70693 0.26771 0.11672 0.0
H916 H 0.74298 0.24263 0.09419 0.0
H917 H 0.72315 0.23556 0.06659 0.0
C918 C 0.62707 0.16374 0.0225 0.0
C919 C 0.6394 0.15678 0.01395 0.0
C920 C 0.6366 0.1834 0.03052 0.0
C921 C 0.65865 0.19632 0.03043 0.0
C922 C 0.67108 0.18915 0.02268 0.0
C923 C 0.66158 0.1697 0.01437 0.0
C924 C 0.66877 0.2179 0.03735 0.0
C925 C 0.68144 0.22312 0.05233 0.0
C926 C 0.66605 0.2333 0.0291 0.0
C927 C 0.65301 0.22868 0.01313 0.0
C928 C 0.65797 0.22146 0.99786 0.0
C929 C 0.64545 0.21693 0.98291 0.0
C930 C 0.62803 0.21973 0.98303 0.0
C931 C 0.62314 0.22713 0.99809 0.0
C932 C 0.63559 0.23165 0.01309 0.0
C933 C 0.73531 0.31275 0.06295 0.0
C934 C 0.72528 0.32451 0.0642 0.0
C935 C 0.7237 0.29153 0.05868 0.0
C936 C 0.70174 0.28151 0.05602 0.0
C937 C 0.69168 0.29324 0.05759 0.0
C938 C 0.70335 0.31454 0.06154 0.0
C939 C 0.6895 0.25915 0.05063 0.0
C940 C 0.67641 0.25369 0.03583 0.0
C941 C 0.69157 0.24347 0.05927 0.0
C942 C 0.70354 0.24767 0.07585 0.0
C943 C 0.69904 0.25669 0.09019 0.0
C944 C 0.71042 0.26072 0.10575 0.0
C945 C 0.72626 0.25567 0.10718 0.0
C946 C 0.73072 0.24655 0.09306 0.0
C947 C 0.71939 0.2425 0.07746 0.0
H948 H 0.73506 0.25881 0.11924 0.0
H949 H 0.61836 0.21622 0.97144 0.0
H950 H 0.51949 0.66935 0.19028 0.0
H951 H 0.50173 0.68686 0.20265 0.0
H952 H 0.44358 0.64172 0.17757 0.0
H953 H 0.46128 0.6243 0.16501 0.0
H954 H 0.4541 0.68224 0.17129 0.0
H955 H 0.4486 0.64029 0.22084 0.0
H956 H 0.46217 0.62676 0.24354 0.0
H957 H 0.50158 0.68875 0.2638 0.0
H958 H 0.48846 0.7027 0.24106 0.0
H959 H 0.38542 0.71135 0.20857 0.0
H960 H 0.40227 0.69147 0.2004 0.0
H961 H 0.4578 0.73428 0.22983 0.0
H962 H 0.44073 0.75397 0.23845 0.0
H963 H 0.44928 0.69529 0.2343 0.0
H964 H 0.45634 0.7378 0.1853 0.0
H965 H 0.44429 0.75264 0.16249 0.0
H966 H 0.40424 0.69151 0.14083 0.0
H967 H 0.41583 0.67625 0.16368 0.0
C968 C 0.50288 0.66309 0.18751 0.0
C969 C 0.49178 0.64545 0.17667 0.0
C970 C 0.49273 0.67302 0.19467 0.0
C971 C 0.47132 0.66553 0.19107 0.0
C972 C 0.4601 0.64771 0.18053 0.0
C973 C 0.47019 0.63769 0.17348 0.0
C974 C 0.4609 0.67695 0.19746 0.0
C975 C 0.45275 0.68482 0.18508 0.0
C976 C 0.45984 0.68093 0.21542 0.0
C977 C 0.4677 0.67257 0.22913 0.0
C978 C 0.4603 0.65107 0.23004 0.0
C979 C 0.46788 0.64332 0.24294 0.0
C980 C 0.48277 0.6569 0.25508 0.0
C981 C 0.49007 0.67825 0.25437 0.0
C982 C 0.48255 0.68609 0.24149 0.0
C983 C 0.40117 0.71648 0.21338 0.0
C984 C 0.41182 0.73431 0.22404 0.0
C985 C 0.41083 0.70514 0.20865 0.0
C986 C 0.43146 0.71159 0.21423 0.0
C987 C 0.4419 0.72905 0.22532 0.0
C988 C 0.43216 0.74031 0.23019 0.0
C989 C 0.44226 0.70039 0.20812 0.0
C990 C 0.45057 0.69266 0.22051 0.0
C991 C 0.44373 0.69673 0.19013 0.0
C992 C 0.4368 0.70586 0.17631 0.0
C993 C 0.44484 0.7275 0.17575 0.0
C994 C 0.43812 0.73599 0.16281 0.0
C995 C 0.42347 0.72303 0.15025 0.0
C996 C 0.41557 0.70154 0.15058 0.0
C997 C 0.42222 0.69296 0.16352 0.0
H998 H 0.41829 0.72963 0.14023 0.0
H999 H 0.48862 0.65086 0.26505 0.0
H1000 H 0.86315 0.52126 0.35895 0.0
H1001 H 0.82787 0.50323 0.37205 0.0
H1002 H 0.81812 0.44443 0.35271 0.0
H1003 H 0.85321 0.46239 0.33932 0.0
H1004 H 0.78551 0.45041 0.3445 0.0
H1005 H 0.82542 0.45549 0.39577 0.0
H1006 H 0.85351 0.47357 0.41778 0.0
H1007 H 0.82767 0.5119 0.43229 0.0
H1008 H 0.79958 0.49425 0.41018 0.0
H1009 H 0.68654 0.38793 0.3848 0.0
H1010 H 0.72368 0.40284 0.37673 0.0
H1011 H 0.73815 0.46171 0.39978 0.0
H1012 H 0.70115 0.44664 0.40842 0.0
H1013 H 0.76879 0.45457 0.4067 0.0
H1014 H 0.73095 0.45227 0.3549 0.0
H1015 H 0.70315 0.43585 0.33242 0.0
H1016 H 0.72551 0.39449 0.31827 0.0
H1017 H 0.75328 0.41049 0.34084 0.0
C1018 C 0.85354 0.50447 0.35761 0.0
C1019 C 0.86096 0.49325 0.3481 0.0
C1020 C 0.83345 0.49417 0.3652 0.0
C1021 C 0.82041 0.47247 0.36343 0.0
C1022 C 0.82796 0.46118 0.35427 0.0
C1023 C 0.84808 0.47145 0.34675 0.0
C1024 C 0.79842 0.46173 0.37014 0.0
C1025 C 0.78185 0.451 0.35816 0.0
C1026 C 0.79366 0.46308 0.38785 0.0
C1027 C 0.81049 0.47366 0.40121 0.0
C1028 C 0.82582 0.46789 0.40355 0.0
C1029 C 0.84173 0.47804 0.41607 0.0
C1030 C 0.8424 0.49391 0.4264 0.0
C1031 C 0.82714 0.49962 0.42427 0.0
C1032 C 0.8112 0.48953 0.41176 0.0
C1033 C 0.69768 0.404 0.38826 0.0
C1034 C 0.69094 0.41618 0.39712 0.0
C1035 C 0.71889 0.41254 0.38358 0.0
C1036 C 0.73367 0.43353 0.38734 0.0
C1037 C 0.72706 0.4455 0.39669 0.0
C1038 C 0.7059 0.43689 0.40158 0.0
C1039 C 0.75584 0.44323 0.38105 0.0
C1040 C 0.77244 0.45383 0.39307 0.0
C1041 C 0.76067 0.44201 0.36331 0.0
C1042 C 0.74405 0.43243 0.34968 0.0
C1043 C 0.72984 0.43957 0.34708 0.0
C1044 C 0.7141 0.43036 0.33431 0.0
C1045 C 0.71253 0.4141 0.32395 0.0
C1046 C 0.72672 0.40706 0.32632 0.0
C1047 C 0.74247 0.4162 0.33909 0.0
H1048 H 0.70033 0.40698 0.31407 0.0
H1049 H 0.85473 0.50175 0.43608 0.0
H1050 H 0.1007 0.55376 0.41727 0.0
H1051 H 0.1227 0.56234 0.44351 0.0
H1052 H 0.15973 0.62625 0.42668 0.0
H1053 H 0.13778 0.61776 0.40042 0.0
H1054 H 0.1841 0.60868 0.43595 0.0
H1055 H 0.12746 0.61563 0.45969 0.0
H1056 H 0.09034 0.60442 0.46633 0.0
H1057 H 0.08423 0.55263 0.49564 0.0
H1058 H 0.12125 0.56337 0.48897 0.0
H1059 H 0.24432 0.65283 0.51288 0.0
H1060 H 0.22133 0.64403 0.48742 0.0
H1061 H 0.18008 0.58263 0.50834 0.0
H1062 H 0.20279 0.5916 0.53414 0.0
H1063 H 0.15756 0.59855 0.49686 0.0
H1064 H 0.2137 0.59098 0.47331 0.0
H1065 H 0.25063 0.60149 0.46658 0.0
H1066 H 0.25749 0.6532 0.43669 0.0
H1067 H 0.22067 0.64316 0.44344 0.0
C1068 C 0.11341 0.56967 0.41927 0.0
C1069 C 0.11751 0.58511 0.40684 0.0
C1070 C 0.12591 0.57456 0.43427 0.0
C1071 C 0.14282 0.59494 0.43703 0.0
C1072 C 0.14674 0.61045 0.42479 0.0
C1073 C 0.1341 0.60562 0.40988 0.0
C1074 C 0.15698 0.59983 0.45231 0.0
C1075 C 0.17839 0.60676 0.44929 0.0
C1076 C 0.14935 0.59669 0.46965 0.0
C1077 C 0.12707 0.59018 0.47367 0.0
C1078 C 0.11815 0.60173 0.46741 0.0
C1079 C 0.09713 0.59549 0.47121 0.0
C1080 C 0.08491 0.57779 0.48135 0.0
C1081 C 0.0937 0.56632 0.48776 0.0
C1082 C 0.11471 0.57249 0.48398 0.0
C1083 C 0.23047 0.63737 0.51198 0.0
C1084 C 0.22539 0.62287 0.52548 0.0
C1085 C 0.21736 0.63233 0.49738 0.0
C1086 C 0.19906 0.61257 0.49584 0.0
C1087 C 0.1941 0.59797 0.50923 0.0
C1088 C 0.20714 0.60306 0.52392 0.0
C1089 C 0.18477 0.60744 0.48055 0.0
C1090 C 0.16332 0.60045 0.48354 0.0
C1091 C 0.19234 0.61038 0.46315 0.0
C1092 C 0.21448 0.61642 0.45902 0.0
C1093 C 0.22313 0.60469 0.46541 0.0
C1094 C 0.24403 0.61054 0.46158 0.0
C1095 C 0.25641 0.62803 0.45125 0.0
C1096 C 0.24789 0.63967 0.44471 0.0
C1097 C 0.22699 0.63389 0.44852 0.0
H1098 H 0.27259 0.63254 0.4483 0.0
H1099 H 0.06865 0.57299 0.48429 0.0
H1100 H 0.57329 0.11477 0.57046 0.0
H1101 H 0.58368 0.13238 0.59875 0.0
H1102 H 0.5276 0.13724 0.59945 0.0
H1103 H 0.5178 0.12087 0.57069 0.0
H1104 H 0.55941 0.17257 0.60856 0.0
H1105 H 0.53386 0.10236 0.62614 0.0
H1106 H 0.5307 0.06776 0.62588 0.0
H1107 H 0.59629 0.09577 0.63943 0.0
H1108 H 0.59993 0.1306 0.63955 0.0
H1109 H 0.56969 0.20464 0.69752 0.0
H1110 H 0.55625 0.18238 0.67148 0.0
H1111 H 0.61731 0.18862 0.66338 0.0
H1112 H 0.63096 0.21111 0.68931 0.0
H1113 H 0.58184 0.14682 0.65897 0.0
H1114 H 0.60649 0.21743 0.64011 0.0
H1115 H 0.60815 0.25134 0.64121 0.0
H1116 H 0.54152 0.22093 0.63095 0.0
H1117 H 0.53942 0.18677 0.63006 0.0
C1118 C 0.56318 0.11965 0.57658 0.0
C1119 C 0.5447 0.11638 0.5682 0.0
C1120 C 0.56901 0.12949 0.5929 0.0
C1121 C 0.5563 0.13594 0.60138 0.0
C1122 C 0.53765 0.13236 0.59322 0.0
C1123 C 0.53194 0.12275 0.57681 0.0
C1124 C 0.56299 0.14741 0.61831 0.0
C1125 C 0.56395 0.16671 0.61965 0.0
C1126 C 0.56933 0.14003 0.63274 0.0
C1127 C 0.56721 0.11912 0.63269 0.0
C1128 C 0.54766 0.10116 0.62893 0.0
C1129 C 0.54577 0.08151 0.62883 0.0
C1130 C 0.56329 0.07957 0.63259 0.0
C1131 C 0.58273 0.0973 0.6365 0.0
C1132 C 0.58471 0.117 0.6366 0.0
C1133 C 0.58021 0.20114 0.69026 0.0
C1134 C 0.6014 0.20968 0.69537 0.0
C1135 C 0.57252 0.18846 0.6754 0.0
C1136 C 0.58584 0.18397 0.6655 0.0
C1137 C 0.6068 0.19191 0.67089 0.0
C1138 C 0.61458 0.2048 0.68563 0.0
C1139 C 0.57817 0.17179 0.64907 0.0
C1140 C 0.57712 0.15248 0.64785 0.0
C1141 C 0.57148 0.17899 0.63481 0.0
C1142 C 0.57276 0.19953 0.63521 0.0
C1143 C 0.59216 0.21795 0.63824 0.0
C1144 C 0.59319 0.23722 0.6388 0.0
C1145 C 0.57494 0.23828 0.6362 0.0
C1146 C 0.55564 0.22008 0.63299 0.0
C1147 C 0.55452 0.20076 0.63244 0.0
H1148 H 0.57577 0.25322 0.63664 0.0
H1149 H 0.5618 0.06434 0.63251 0.0
H1150 H 0.43343 0.56118 0.7291 0.0
H1151 H 0.43089 0.57828 0.7556 0.0
H1152 H 0.39684 0.51861 0.7812 0.0
H1153 H 0.39922 0.50141 0.75469 0.0
H1154 H 0.37742 0.53993 0.78604 0.0
H1155 H 0.4488 0.55475 0.79148 0.0
H1156 H 0.48548 0.56777 0.78195 0.0
H1157 H 0.49517 0.62941 0.77651 0.0
H1158 H 0.45843 0.61669 0.78578 0.0
H1159 H 0.38077 0.57466 0.87249 0.0
H1160 H 0.3869 0.55967 0.84625 0.0
H1161 H 0.41633 0.61985 0.82138 0.0
H1162 H 0.41036 0.63506 0.84775 0.0
H1163 H 0.43841 0.59931 0.81585 0.0
H1164 H 0.36696 0.58426 0.81075 0.0
H1165 H 0.33038 0.57109 0.82065 0.0
H1166 H 0.32099 0.50952 0.82567 0.0
H1167 H 0.35764 0.52239 0.81605 0.0
C1168 C 0.42572 0.55174 0.74048 0.0
C1169 C 0.41653 0.52994 0.73981 0.0
C1170 C 0.42426 0.56154 0.75562 0.0
C1171 C 0.4138 0.54975 0.77046 0.0
C1172 C 0.40492 0.52802 0.7699 0.0
C1173 C 0.40627 0.5182 0.75474 0.0
C1174 C 0.41129 0.55993 0.7863 0.0
C1175 C 0.39081 0.55271 0.79269 0.0
C1176 C 0.42868 0.57702 0.7947 0.0
C1177 C 0.45079 0.58472 0.78916 0.0
C1178 C 0.45869 0.57104 0.78812 0.0
C1179 C 0.47951 0.57838 0.78279 0.0
C1180 C 0.49263 0.5994 0.77858 0.0
C1181 C 0.48498 0.61313 0.77974 0.0
C1182 C 0.46417 0.60587 0.78505 0.0
C1183 C 0.3886 0.58474 0.86146 0.0
C1184 C 0.39499 0.60602 0.86214 0.0
C1185 C 0.39204 0.57613 0.84646 0.0
C1186 C 0.40185 0.58859 0.83179 0.0
C1187 C 0.40869 0.60996 0.83255 0.0
C1188 C 0.40521 0.6186 0.84758 0.0
C1189 C 0.4046 0.57914 0.81563 0.0
C1190 C 0.42507 0.58652 0.80916 0.0
C1191 C 0.38722 0.56216 0.80716 0.0
C1192 C 0.36511 0.55434 0.81283 0.0
C1193 C 0.35715 0.56795 0.8141 0.0
C1194 C 0.33639 0.56053 0.81964 0.0
C1195 C 0.32338 0.53949 0.82383 0.0
C1196 C 0.33109 0.52582 0.82244 0.0
C1197 C 0.35185 0.53316 0.81693 0.0
H1198 H 0.30732 0.53378 0.82811 0.0
H1199 H 0.50874 0.60505 0.77446 0.0
H1200 H 0.91629 0.4194 0.92123 0.0
H1201 H 0.89638 0.41713 0.94759 0.0
H1202 H 0.85137 0.4239 0.91647 0.0
H1203 H 0.87132 0.42633 0.89006 0.0
H1204 H 0.86013 0.4463 0.94587 0.0
H1205 H 0.84045 0.37605 0.93097 0.0
H1206 H 0.84659 0.34724 0.92366 0.0
H1207 H 0.87684 0.35459 0.97326 0.0
H1208 H 0.87115 0.38366 0.98077 0.0
H1209 H 0.77699 0.40644 0.00936 0.0
H1210 H 0.79836 0.4124 0.98303 0.0
H1211 H 0.84541 0.40846 0.01365 0.0
H1212 H 0.82413 0.40239 0.03992 0.0
H1213 H 0.83531 0.38478 0.98433 0.0
H1214 H 0.85436 0.45505 0.99918 0.0
H1215 H 0.84765 0.48354 0.00624 0.0
H1216 H 0.81756 0.47554 0.95646 0.0
H1217 H 0.82385 0.44679 0.9492 0.0
C1218 C 0.90214 0.42039 0.92001 0.0
C1219 C 0.89531 0.42292 0.90356 0.0
C1220 C 0.89078 0.41909 0.93508 0.0
C1221 C 0.87219 0.42002 0.93398 0.0
C1222 C 0.86566 0.42314 0.91763 0.0
C1223 C 0.87709 0.42457 0.90256 0.0
C1224 C 0.85931 0.41726 0.94981 0.0
C1225 C 0.85448 0.43272 0.95416 0.0
C1226 C 0.85221 0.39971 0.96079 0.0
C1227 C 0.85555 0.38216 0.95636 0.0
C1228 C 0.84855 0.37162 0.94026 0.0
C1229 C 0.85193 0.35523 0.9361 0.0
C1230 C 0.86215 0.34913 0.94797 0.0
C1231 C 0.86896 0.35936 0.96406 0.0
C1232 C 0.86564 0.37578 0.96829 0.0
C1233 C 0.79195 0.40699 0.01047 0.0
C1234 C 0.79889 0.40395 0.02669 0.0
C1235 C 0.80417 0.41046 0.99545 0.0
C1236 C 0.82354 0.41099 0.99641 0.0
C1237 C 0.83052 0.4081 0.01261 0.0
C1238 C 0.81836 0.40469 0.02762 0.0
C1239 C 0.83625 0.41387 0.98046 0.0
C1240 C 0.84099 0.39837 0.97605 0.0
C1241 C 0.84314 0.43132 0.9694 0.0
C1242 C 0.83938 0.44863 0.97373 0.0
C1243 C 0.84615 0.45925 0.9898 0.0
C1244 C 0.84246 0.47547 0.99382 0.0
C1245 C 0.83213 0.48131 0.98182 0.0
C1246 C 0.82553 0.47098 0.96575 0.0
C1247 C 0.82917 0.45473 0.96167 0.0
H1248 H 0.82929 0.49387 0.98496 0.0
H1249 H 0.86475 0.33643 0.94472 0.0
H1250 H 0.459 0.88399 0.05547 0.0
H1251 H 0.44017 0.86465 0.08159 0.0
H1252 H 0.49495 0.90439 0.11306 0.0
H1253 H 0.51388 0.92373 0.08697 0.0
H1254 H 0.4805 0.86446 0.12 0.0
H1255 H 0.44962 0.90778 0.11438 0.0
H1256 H 0.43104 0.92288 0.09908 0.0
H1257 H 0.37708 0.86166 0.09151 0.0
H1258 H 0.39545 0.84616 0.10656 0.0
H1259 H 0.43669 0.83153 0.20342 0.0
H1260 H 0.45206 0.85276 0.17738 0.0
H1261 H 0.39623 0.81089 0.14786 0.0
H1262 H 0.38052 0.78973 0.17407 0.0
H1263 H 0.41021 0.85106 0.13944 0.0
H1264 H 0.44046 0.80758 0.14458 0.0
H1265 H 0.45859 0.79178 0.1595 0.0
H1266 H 0.51334 0.85243 0.16724 0.0
H1267 H 0.49542 0.86864 0.15258 0.0
C1268 C 0.46689 0.88887 0.06801 0.0
C1269 C 0.48794 0.90538 0.06916 0.0
C1270 C 0.45611 0.87778 0.08293 0.0
C1271 C 0.4661 0.88314 0.09932 0.0
C1272 C 0.48695 0.89993 0.10055 0.0
C1273 C 0.49776 0.91095 0.08564 0.0
C1274 C 0.4553 0.87057 0.11504 0.0
C1275 C 0.46528 0.86182 0.1244 0.0
C1276 C 0.43509 0.86649 0.12043 0.0
C1277 C 0.42399 0.8758 0.11145 0.0
C1278 C 0.43385 0.89752 0.10933 0.0
C1279 C 0.42335 0.90615 0.10073 0.0
C1280 C 0.40291 0.89323 0.09429 0.0
C1281 C 0.39292 0.87165 0.09649 0.0
C1282 C 0.40336 0.86293 0.10507 0.0
C1283 C 0.42762 0.82689 0.19141 0.0
C1284 C 0.40747 0.80888 0.19074 0.0
C1285 C 0.43645 0.839 0.17652 0.0
C1286 C 0.42545 0.83321 0.16059 0.0
C1287 C 0.40503 0.8156 0.16 0.0
C1288 C 0.3961 0.80351 0.17496 0.0
C1289 C 0.4356 0.84526 0.14451 0.0
C1290 C 0.42546 0.85378 0.13505 0.0
C1291 C 0.45563 0.84905 0.13892 0.0
C1292 C 0.46652 0.83934 0.14762 0.0
C1293 C 0.45631 0.81757 0.14957 0.0
C1294 C 0.46656 0.80853 0.15796 0.0
C1295 C 0.48708 0.82109 0.16435 0.0
C1296 C 0.49743 0.84272 0.1623 0.0
C1297 C 0.48724 0.85184 0.15394 0.0
H1298 H 0.49498 0.81406 0.17084 0.0
H1299 H 0.39481 0.89995 0.08763 0.0
H1300 H 0.60777 0.52139 0.25754 0.0
H1301 H 0.60848 0.50339 0.28389 0.0
H1302 H 0.57753 0.44471 0.25606 0.0
H1303 H 0.57676 0.46266 0.22959 0.0
H1304 H 0.56267 0.44063 0.28956 0.0
H1305 H 0.62998 0.47009 0.26113 0.0
H1306 H 0.66244 0.49802 0.24746 0.0
H1307 H 0.6795 0.53288 0.29552 0.0
H1308 H 0.64696 0.50528 0.30941 0.0
H1309 H 0.59367 0.38725 0.34955 0.0
H1310 H 0.58714 0.40226 0.32358 0.0
H1311 H 0.62026 0.46328 0.34761 0.0
H1312 H 0.62716 0.44847 0.37337 0.0
H1313 H 0.63344 0.46485 0.3152 0.0
H1314 H 0.56575 0.43524 0.34362 0.0
H1315 H 0.53322 0.40719 0.35711 0.0
H1316 H 0.51692 0.37228 0.3091 0.0
H1317 H 0.54952 0.40001 0.29539 0.0
C1318 C 0.60102 0.50464 0.25705 0.0
C1319 C 0.59241 0.49347 0.24144 0.0
C1320 C 0.60141 0.49437 0.27212 0.0
C1321 C 0.59339 0.47277 0.27184 0.0
C1322 C 0.58384 0.4614 0.25654 0.0
C1323 C 0.58337 0.47167 0.24145 0.0
C1324 C 0.59607 0.46231 0.28724 0.0
C1325 C 0.57815 0.44573 0.29507 0.0
C1326 C 0.61626 0.46915 0.29453 0.0
C1327 C 0.63594 0.4857 0.28626 0.0
C1328 C 0.64058 0.48378 0.26875 0.0
C1329 C 0.659 0.49954 0.26096 0.0
C1330 C 0.673 0.51724 0.2706 0.0
C1331 C 0.66863 0.51918 0.28806 0.0
C1332 C 0.65021 0.50347 0.2959 0.0
C1333 C 0.59942 0.40384 0.34932 0.0
C1334 C 0.61095 0.4167 0.36347 0.0
C1335 C 0.59561 0.41238 0.33451 0.0
C1336 C 0.60308 0.43389 0.33369 0.0
C1337 C 0.61437 0.44666 0.34793 0.0
C1338 C 0.61826 0.43816 0.36266 0.0
C1339 C 0.59999 0.44336 0.31778 0.0
C1340 C 0.61792 0.45972 0.30976 0.0
C1341 C 0.57982 0.43626 0.31033 0.0
C1342 C 0.56019 0.4196 0.31854 0.0
C1343 C 0.55532 0.42151 0.33598 0.0
C1344 C 0.53685 0.40568 0.34366 0.0
C1345 C 0.52304 0.38794 0.33398 0.0
C1346 C 0.52765 0.38601 0.31659 0.0
C1347 C 0.54611 0.40179 0.30885 0.0
H1348 H 0.50875 0.3757 0.33995 0.0
H1349 H 0.68725 0.52943 0.26455 0.0
H1350 H 0.39662 0.91734 0.38512 0.0
H1351 H 0.39432 0.89812 0.35839 0.0
H1352 H 0.43299 0.87658 0.38203 0.0
H1353 H 0.43533 0.89574 0.4088 0.0
H1354 H 0.44405 0.88733 0.34837 0.0
H1355 H 0.37981 0.8452 0.3802 0.0
H1356 H 0.34731 0.83774 0.39579 0.0
H1357 H 0.32381 0.85121 0.34939 0.0
H1358 H 0.35633 0.85905 0.33359 0.0
H1359 H 0.4164 0.80108 0.2911 0.0
H1360 H 0.4221 0.82346 0.31655 0.0
H1361 H 0.38379 0.84536 0.29281 0.0
H1362 H 0.37787 0.82291 0.26744 0.0
H1363 H 0.37295 0.83475 0.32639 0.0
H1364 H 0.43721 0.87619 0.29438 0.0
H1365 H 0.46972 0.88333 0.27898 0.0
H1366 H 0.4931 0.87061 0.32583 0.0
H1367 H 0.46059 0.86311 0.34146 0.0
C1368 C 0.40463 0.90852 0.38462 0.0
C1369 C 0.41604 0.90796 0.39913 0.0
C1370 C 0.40333 0.89756 0.36934 0.0
C1371 C 0.41323 0.88567 0.36831 0.0
C1372 C 0.42523 0.88566 0.38254 0.0
C1373 C 0.4266 0.89667 0.39781 0.0
C1374 C 0.4105 0.8727 0.35262 0.0
C1375 C 0.42851 0.87567 0.34367 0.0
C1376 C 0.39022 0.85773 0.34632 0.0
C1377 C 0.3706 0.85292 0.35577 0.0
C1378 C 0.36779 0.84673 0.37336 0.0
C1379 C 0.34935 0.84241 0.38223 0.0
C1380 C 0.33353 0.84405 0.3736 0.0
C1381 C 0.33609 0.84997 0.35607 0.0
C1382 C 0.35451 0.85434 0.34714 0.0
C1383 C 0.40928 0.81074 0.29129 0.0
C1384 C 0.3967 0.81026 0.27728 0.0
C1385 C 0.41262 0.82358 0.30579 0.0
C1386 C 0.40351 0.83621 0.30652 0.0
C1387 C 0.39097 0.83575 0.29252 0.0
C1388 C 0.38765 0.82296 0.27802 0.0
C1389 C 0.40649 0.84944 0.32207 0.0
C1390 C 0.38849 0.84647 0.33104 0.0
C1391 C 0.42678 0.86434 0.3284 0.0
C1392 C 0.44637 0.86889 0.31904 0.0
C1393 C 0.44921 0.87475 0.30137 0.0
C1394 C 0.46765 0.87889 0.2926 0.0
C1395 C 0.48344 0.87737 0.30141 0.0
C1396 C 0.48085 0.87176 0.31902 0.0
C1397 C 0.46242 0.86758 0.32784 0.0
H1398 H 0.49771 0.88059 0.2946 0.0
H1399 H 0.31927 0.8407 0.38049 0.0
H1400 H 0.51756 0.41866 0.57198 0.0
H1401 H 0.52743 0.41182 0.54346 0.0
H1402 H 0.58849 0.46784 0.54797 0.0
H1403 H 0.57806 0.47585 0.57584 0.0
H1404 H 0.57661 0.46413 0.51619 0.0
H1405 H 0.5792 0.41684 0.55701 0.0
H1406 H 0.56561 0.38968 0.57969 0.0
H1407 H 0.51699 0.34697 0.54471 0.0
H1408 H 0.53014 0.37398 0.52189 0.0
H1409 H 0.63359 0.43428 0.45855 0.0
H1410 H 0.61983 0.4431 0.48434 0.0
H1411 H 0.55647 0.39543 0.47037 0.0
H1412 H 0.57009 0.38669 0.44439 0.0
H1413 H 0.56817 0.39441 0.50587 0.0
H1414 H 0.56883 0.443 0.4643 0.0
H1415 H 0.58502 0.47071 0.44216 0.0
H1416 H 0.63107 0.5117 0.47964 0.0
H1417 H 0.61534 0.48412 0.50194 0.0
C1418 C 0.53291 0.42987 0.5668 0.0
C1419 C 0.54704 0.44779 0.57643 0.0
C1420 C 0.53868 0.42571 0.55054 0.0
C1421 C 0.55894 0.439 0.54372 0.0
C1422 C 0.57284 0.45722 0.553 0.0
C1423 C 0.56692 0.46163 0.5691 0.0
C1424 C 0.56582 0.43372 0.52713 0.0
C1425 C 0.57495 0.44895 0.51406 0.0
C1426 C 0.56341 0.4138 0.52413 0.0
C1427 C 0.55552 0.3975 0.53781 0.0
C1428 C 0.56553 0.4017 0.5542 0.0
C1429 C 0.55791 0.38633 0.56707 0.0
C1430 C 0.54041 0.36663 0.56366 0.0
C1431 C 0.53053 0.36224 0.54734 0.0
C1432 C 0.53806 0.37757 0.53443 0.0
C1433 C 0.61672 0.42576 0.46093 0.0
C1434 C 0.6029 0.40981 0.44948 0.0
C1435 C 0.60889 0.43086 0.47561 0.0
C1436 C 0.58714 0.41997 0.47918 0.0
C1437 C 0.5733 0.40402 0.46779 0.0
C1438 C 0.58109 0.3991 0.45296 0.0
C1439 C 0.57898 0.42484 0.49512 0.0
C1440 C 0.56967 0.40953 0.50805 0.0
C1441 C 0.58161 0.44478 0.49811 0.0
C1442 C 0.59101 0.46142 0.48474 0.0
C1443 C 0.58251 0.45786 0.46778 0.0
C1444 C 0.59159 0.47356 0.45521 0.0
C1445 C 0.60909 0.49294 0.45948 0.0
C1446 C 0.61752 0.49668 0.47634 0.0
C1447 C 0.60852 0.48102 0.48896 0.0
H1448 H 0.6161 0.50507 0.44973 0.0
H1449 H 0.53454 0.35475 0.57364 0.0
H1450 H 0.09034 0.55201 0.72084 0.0
H1451 H 0.11148 0.56666 0.69431 0.0
H1452 H 0.16443 0.56733 0.71919 0.0
H1453 H 0.14354 0.55295 0.74573 0.0
H1454 H 0.17521 0.60481 0.70391 0.0
H1455 H 0.13743 0.53195 0.68845 0.0
H1456 H 0.1058 0.49733 0.68373 0.0
H1457 H 0.08328 0.52299 0.6451 0.0
H1458 H 0.11467 0.55786 0.64977 0.0
H1459 H 0.24416 0.62377 0.63312 0.0
H1460 H 0.22048 0.60937 0.65814 0.0
H1461 H 0.16977 0.60684 0.62785 0.0
H1462 H 0.19338 0.62094 0.60258 0.0
H1463 H 0.15636 0.57131 0.64536 0.0
H1464 H 0.19456 0.64384 0.65976 0.0
H1465 H 0.22602 0.6786 0.66439 0.0
H1466 H 0.24734 0.65409 0.70498 0.0
H1467 H 0.21614 0.61909 0.70043 0.0
C1468 C 0.10645 0.55518 0.72059 0.0
C1469 C 0.11526 0.55127 0.73535 0.0
C1470 C 0.11846 0.56344 0.70542 0.0
C1471 C 0.1395 0.56803 0.70478 0.0
C1472 C 0.14822 0.56389 0.71941 0.0
C1473 C 0.1362 0.5555 0.73451 0.0
C1474 C 0.15276 0.57789 0.68915 0.0
C1475 C 0.17123 0.59739 0.69114 0.0
C1476 C 0.14717 0.56849 0.67241 0.0
C1477 C 0.12828 0.54756 0.66961 0.0
C1478 C 0.12564 0.53025 0.67907 0.0
C1479 C 0.10777 0.51058 0.67638 0.0
C1480 C 0.09251 0.50797 0.66417 0.0
C1481 C 0.0951 0.52504 0.65459 0.0
C1482 C 0.11293 0.54476 0.65724 0.0
C1483 C 0.22801 0.62031 0.63182 0.0
C1484 C 0.22064 0.62356 0.61591 0.0
C1485 C 0.2145 0.61214 0.64615 0.0
C1486 C 0.19339 0.60724 0.64494 0.0
C1487 C 0.186 0.61055 0.62909 0.0
C1488 C 0.19952 0.61868 0.61469 0.0
C1489 C 0.179 0.59816 0.66014 0.0
C1490 C 0.1603 0.57882 0.65809 0.0
C1491 C 0.18432 0.60775 0.67684 0.0
C1492 C 0.20309 0.62879 0.67965 0.0
C1493 C 0.20604 0.64582 0.66958 0.0
C1494 C 0.22381 0.66557 0.67221 0.0
C1495 C 0.23869 0.66854 0.68494 0.0
C1496 C 0.2358 0.65176 0.69511 0.0
C1497 C 0.21807 0.63197 0.69253 0.0
H1498 H 0.25244 0.68385 0.68696 0.0
H1499 H 0.07869 0.49273 0.66209 0.0
H1500 H 0.62942 0.1486 0.90578 0.0
H1501 H 0.62738 0.16589 0.87959 0.0
H1502 H 0.566 0.1129 0.86782 0.0
H1503 H 0.56833 0.09501 0.89372 0.0
H1504 H 0.58916 0.12624 0.83905 0.0
H1505 H 0.57083 0.15786 0.88468 0.0
H1506 H 0.57472 0.17537 0.91303 0.0
H1507 H 0.6335 0.22769 0.89611 0.0
H1508 H 0.63011 0.21036 0.86774 0.0
H1509 H 0.58515 0.21693 0.78995 0.0
H1510 H 0.57774 0.19476 0.81566 0.0
H1511 H 0.62566 0.18103 0.79934 0.0
H1512 H 0.63289 0.20283 0.7736 0.0
H1513 H 0.60243 0.19854 0.84237 0.0
H1514 H 0.61254 0.13253 0.8114 0.0
H1515 H 0.60591 0.11396 0.78322 0.0
H1516 H 0.55773 0.12837 0.77106 0.0
H1517 H 0.56385 0.14676 0.79926 0.0
C1518 C 0.61558 0.14045 0.89753 0.0
C1519 C 0.59906 0.12035 0.90186 0.0
C1520 C 0.61432 0.1505 0.88266 0.0
C1521 C 0.59639 0.14084 0.87187 0.0
C1522 C 0.57993 0.1207 0.87601 0.0
C1523 C 0.58122 0.11056 0.89089 0.0
C1524 C 0.59512 0.15175 0.85615 0.0
C1525 C 0.59196 0.14201 0.83978 0.0
C1526 C 0.59826 0.17215 0.85712 0.0
C1527 C 0.60027 0.18274 0.87411 0.0
C1528 C 0.58465 0.17304 0.88704 0.0
C1529 C 0.58676 0.18294 0.90311 0.0
C1530 C 0.60437 0.20261 0.90638 0.0
C1531 C 0.61987 0.21245 0.89356 0.0
C1532 C 0.61785 0.20261 0.87747 0.0
C1533 C 0.59396 0.20903 0.79179 0.0
C1534 C 0.60956 0.21157 0.77975 0.0
C1535 C 0.58976 0.19642 0.80649 0.0
C1536 C 0.60098 0.18605 0.80933 0.0
C1537 C 0.61652 0.18856 0.79727 0.0
C1538 C 0.62071 0.20112 0.7826 0.0
C1539 C 0.59717 0.17328 0.82524 0.0
C1540 C 0.59941 0.18269 0.84165 0.0
C1541 C 0.59277 0.15244 0.82431 0.0
C1542 C 0.58879 0.14117 0.8074 0.0
C1543 C 0.60046 0.13164 0.80275 0.0
C1544 C 0.5968 0.12117 0.78676 0.0
C1545 C 0.58145 0.12004 0.77534 0.0
C1546 C 0.56967 0.12932 0.77989 0.0
C1547 C 0.57325 0.1398 0.79587 0.0
H1548 H 0.57866 0.11194 0.76296 0.0
H1549 H 0.60598 0.21025 0.91884 0.0
H1550 H 0.45719 0.58921 0.08496 0.0
H1551 H 0.43823 0.58966 0.05892 0.0
H1552 H 0.49402 0.60847 0.02777 0.0
H1553 H 0.51306 0.60797 0.05374 0.0
H1554 H 0.47785 0.63301 0.02201 0.0
H1555 H 0.45077 0.55915 0.02469 0.0
H1556 H 0.43356 0.52455 0.03858 0.0
H1557 H 0.37721 0.5274 0.0466 0.0
H1558 H 0.3942 0.56216 0.03297 0.0
H1559 H 0.43527 0.62333 0.93818 0.0
H1560 H 0.45078 0.61745 0.9641 0.0
H1561 H 0.39382 0.60006 0.99313 0.0
H1562 H 0.37801 0.60566 0.96704 0.0
H1563 H 0.40946 0.57457 0.00051 0.0
H1564 H 0.43601 0.64796 0.99813 0.0
H1565 H 0.45282 0.68268 0.98452 0.0
H1566 H 0.50984 0.68104 0.9766 0.0
H1567 H 0.49324 0.64612 0.98993 0.0
C1568 C 0.4653 0.59303 0.0725 0.0
C1569 C 0.48666 0.5986 0.07142 0.0
C1570 C 0.45444 0.59332 0.05763 0.0
C1571 C 0.46467 0.59902 0.04137 0.0
C1572 C 0.48583 0.6041 0.04019 0.0
C1573 C 0.4967 0.60385 0.05505 0.0
C1574 C 0.45377 0.60087 0.02578 0.0
C1575 C 0.46306 0.62012 0.01716 0.0
C1576 C 0.4341 0.58428 0.01981 0.0
C1577 C 0.42384 0.56335 0.02796 0.0
C1578 C 0.43477 0.55248 0.02955 0.0
C1579 C 0.42504 0.53282 0.03735 0.0
C1580 C 0.40432 0.52381 0.04351 0.0
C1581 C 0.39327 0.53441 0.04184 0.0
C1582 C 0.40293 0.55408 0.03406 0.0
C1583 C 0.42598 0.61814 0.95005 0.0
C1584 C 0.40547 0.61509 0.95062 0.0
C1585 C 0.43489 0.61484 0.96487 0.0
C1586 C 0.42357 0.60861 0.98062 0.0
C1587 C 0.40284 0.60492 0.98111 0.0
C1588 C 0.39386 0.60818 0.96623 0.0
C1589 C 0.43373 0.60659 0.99663 0.0
C1590 C 0.42427 0.58741 0.00537 0.0
C1591 C 0.45322 0.62327 0.0028 0.0
C1592 C 0.46331 0.64433 0.99488 0.0
C1593 C 0.45208 0.65493 0.99336 0.0
C1594 C 0.46158 0.67466 0.98572 0.0
C1595 C 0.48237 0.68405 0.97967 0.0
C1596 C 0.49372 0.67374 0.98128 0.0
C1597 C 0.48429 0.65398 0.98889 0.0
H1598 H 0.48969 0.69933 0.97375 0.0
H1599 H 0.39682 0.50859 0.04955 0.0
H1600 H 0.902 0.46606 0.23918 0.0
H1601 H 0.88152 0.44958 0.21291 0.0
H1602 H 0.87772 0.50448 0.20242 0.0
H1603 H 0.89657 0.52035 0.22943 0.0
H1604 H 0.84144 0.47307 0.19771 0.0
H1605 H 0.91006 0.48971 0.17824 0.0
H1606 H 0.94409 0.49065 0.17907 0.0
H1607 H 0.91144 0.42374 0.17691 0.0
H1608 H 0.87719 0.42238 0.17629 0.0
H1609 H 0.8063 0.44735 0.10953 0.0
H1610 H 0.82835 0.46363 0.13533 0.0
H1611 H 0.81727 0.40367 0.15206 0.0
H1612 H 0.79489 0.38717 0.12631 0.0
H1613 H 0.86085 0.43698 0.15323 0.0
H1614 H 0.79181 0.42215 0.17213 0.0
H1615 H 0.75887 0.42325 0.17064 0.0
H1616 H 0.79463 0.49019 0.17221 0.0
H1617 H 0.82781 0.4895 0.17344 0.0
C1618 C 0.8967 0.47463 0.2314 0.0
C1619 C 0.90094 0.49458 0.23662 0.0
C1620 C 0.88524 0.46527 0.21615 0.0
C1621 C 0.87822 0.47583 0.20548 0.0
C1622 C 0.88294 0.49596 0.21039 0.0
C1623 C 0.89403 0.50517 0.22579 0.0
C1624 C 0.86498 0.46553 0.18975 0.0
C1625 C 0.84594 0.4655 0.18787 0.0
C1626 C 0.87048 0.45519 0.17702 0.0
C1627 C 0.89105 0.45594 0.17739 0.0
C1628 C 0.91013 0.47519 0.17808 0.0
C1629 C 0.92946 0.4758 0.17849 0.0
C1630 C 0.92992 0.45727 0.17809 0.0
C1631 C 0.91105 0.43808 0.17724 0.0
C1632 C 0.89168 0.43738 0.17684 0.0
C1633 C 0.80854 0.43762 0.1187 0.0
C1634 C 0.79885 0.41598 0.11594 0.0
C1635 C 0.8211 0.44693 0.13344 0.0
C1636 C 0.82436 0.43483 0.14561 0.0
C1637 C 0.81493 0.41325 0.1428 0.0
C1638 C 0.8021 0.40386 0.12815 0.0
C1639 C 0.83761 0.44477 0.16127 0.0
C1640 C 0.85654 0.44466 0.16312 0.0
C1641 C 0.83225 0.45536 0.17379 0.0
C1642 C 0.8123 0.45577 0.17272 0.0
C1643 C 0.79266 0.43711 0.17196 0.0
C1644 C 0.77394 0.43766 0.1712 0.0
C1645 C 0.77466 0.45679 0.17133 0.0
C1646 C 0.7941 0.4754 0.17212 0.0
C1647 C 0.81286 0.47493 0.17286 0.0
H1648 H 0.76017 0.45721 0.17088 0.0
H1649 H 0.9449 0.45777 0.17841 0.0
loop_
_geom_bond_atom_site_label_1
_geom_bond_atom_site_label_2
_geom_bond_distance
_geom_bond_site_symmetry_2
_ccdc_geom_bond_type
H0 C27 0.929 . S
N1 C26 1.433 . S
N1 C32 1.435 . S
N1 C38 1.423 . S
H2 C28 0.930 . S
H3 C31 0.931 . S
H4 C30 0.929 . S
H5 C33 0.930 . S
H6 C34 0.932 . S
H7 C37 0.929 . S
H8 C36 0.931 . S
H9 C39 0.929 . S
H10 C43 0.932 . S
H11 C40 0.931 . S
H12 C42 0.929 . S
H13 C45 0.929 . S
H14 C46 0.930 . S
H15 C48 0.929 . S
H16 C49 0.931 . S
H17 C51 0.930 . S
H18 C52 0.932 . S
H19 C54 0.931 . S
H20 C55 0.929 . S
H21 C57 0.929 . S
H22 C58 0.931 . S
H23 C60 0.929 . S
N24 C44 1.433 . S
N24 C50 1.435 . S
N24 C56 1.423 . S
H25 C61 0.932 . S
C26 N1 1.433 . S
C26 C27 1.363 . S
C26 C31 1.370 . S
C27 H0 0.929 . S
C27 C26 1.363 . S
C27 C28 1.385 . S
C28 H2 0.930 . S
C28 C27 1.385 . S
C28 C29 1.357 . S
C29 C28 1.357 . S
C29 C30 1.406 . S
C30 H4 0.929 . S
C30 C29 1.406 . S
C30 C31 1.391 . S
C31 H3 0.931 . S
C31 C26 1.370 . S
C31 C30 1.391 . S
C32 N1 1.435 . S
C32 C33 1.358 . S
C32 C37 1.371 . S
C33 H5 0.930 . S
C33 C32 1.358 . S
C33 C34 1.405 . S
C34 H6 0.932 . S
C34 C33 1.405 . S
C34 C35 1.383 . S
C35 C34 1.383 . S
C35 C36 1.393 . S
C36 H8 0.931 . S
C36 C35 1.393 . S
C36 C37 1.382 . S
C37 H7 0.929 . S
C37 C32 1.371 . S
C37 C36 1.382 . S
C38 N1 1.423 . S
C38 C39 1.362 . S
C38 C43 1.388 . S
C39 H9 0.929 . S
C39 C38 1.362 . S
C39 C40 1.376 . S
C40 H11 0.931 . S
C40 C39 1.376 . S
C40 C41 1.396 . S
C41 C40 1.396 . S
C41 C42 1.348 . S
C41 C59 1.472 1_455 S
C42 H12 0.929 . S
C42 C41 1.348 . S
C42 C43 1.443 . S
C43 H10 0.932 . S
C43 C38 1.388 . S
C43 C42 1.443 . S
C44 N24 1.433 . S
C44 C45 1.363 . S
C44 C49 1.370 . S
C45 H13 0.929 . S
C45 C44 1.363 . S
C45 C46 1.385 . S
C46 H14 0.930 . S
C46 C45 1.385 . S
C46 C47 1.357 . S
C47 C46 1.357 . S
C47 C48 1.406 . S
C48 H15 0.929 . S
C48 C47 1.406 . S
C48 C49 1.391 . S
C49 H16 0.931 . S
C49 C44 1.370 . S
C49 C48 1.391 . S
C50 N24 1.435 . S
C50 C51 1.358 . S
C50 C55 1.371 . S
C51 H17 0.930 . S
C51 C50 1.358 . S
C51 C52 1.405 . S
C52 H18 0.932 . S
C52 C51 1.405 . S
C52 C53 1.383 . S
C53 C52 1.383 . S
C53 C54 1.393 . S
C54 H19 0.931 . S
C54 C53 1.393 . S
C54 C55 1.382 . S
C55 H20 0.929 . S
C55 C50 1.371 . S
C55 C54 1.382 . S
C56 N24 1.423 . S
C56 C57 1.362 . S
C56 C61 1.388 . S
C57 H21 0.929 . S
C57 C56 1.362 . S
C57 C58 1.376 . S
C58 H22 0.931 . S
C58 C57 1.376 . S
C58 C59 1.396 . S
C59 C41 1.472 1_655 S
C59 C58 1.396 . S
C59 C60 1.348 . S
C60 H23 0.929 . S
C60 C59 1.348 . S
C60 C61 1.443 . S
C61 H25 0.932 . S
C61 C56 1.388 . S
C61 C60 1.443 . S
H62 C89 0.929 . S
N63 C88 1.433 . S
N63 C94 1.435 . S
N63 C100 1.423 . S
H64 C90 0.930 . S
H65 C93 0.931 . S
H66 C92 0.929 . S
H67 C95 0.930 . S
H68 C96 0.932 . S
H69 C99 0.929 . S
H70 C98 0.931 . S
H71 C101 0.929 . S
H72 C105 0.932 . S
H73 C102 0.931 . S
H74 C104 0.929 1_545 S
H75 C107 0.929 . S
H76 C108 0.930 . S
H77 C110 0.929 . S
H78 C111 0.931 . S
H79 C113 0.930 . S
H80 C114 0.932 . S
H81 C116 0.931 . S
H82 C117 0.929 . S
H83 C119 0.929 . S
H84 C120 0.931 . S
H85 C122 0.929 . S
N86 C106 1.433 . S
N86 C112 1.435 . S
N86 C118 1.423 . S
H87 C123 0.932 . S
C88 N63 1.433 . S
C88 C89 1.363 . S
C88 C93 1.370 . S
C89 H62 0.929 . S
C89 C88 1.363 . S
C89 C90 1.385 . S
C90 H64 0.930 . S
C90 C89 1.385 . S
C90 C91 1.357 . S
C91 C90 1.357 . S
C91 C92 1.406 . S
C92 H66 0.929 . S
C92 C91 1.406 . S
C92 C93 1.391 . S
C93 H65 0.931 . S
C93 C88 1.370 . S
C93 C92 1.391 . S
C94 N63 1.435 . S
C94 C95 1.358 . S
C94 C99 1.371 . S
C95 H67 0.930 . S
C95 C94 1.358 . S
C95 C96 1.405 . S
C96 H68 0.932 . S
C96 C95 1.405 . S
C96 C97 1.383 . S
C97 C96 1.383 . S
C97 C98 1.393 . S
C98 H70 0.931 . S
C98 C97 1.393 . S
C98 C99 1.382 . S
C99 H69 0.929 . S
C99 C94 1.371 . S
C99 C98 1.382 . S
C100 N63 1.423 . S
C100 C101 1.362 . S
C100 C105 1.388 . S
C101 H71 0.929 . S
C101 C100 1.362 . S
C101 C102 1.376 . S
C102 H73 0.931 . S
C102 C101 1.376 . S
C102 C103 1.396 1_565 S
C103 C102 1.396 1_545 S
C103 C104 1.348 1_545 S
C103 C121 1.472 . S
C104 H74 0.929 1_565 S
C104 C103 1.348 1_565 S
C104 C105 1.443 . S
C105 H72 0.932 . S
C105 C100 1.388 . S
C105 C104 1.443 . S
C106 N86 1.433 . S
C106 C107 1.363 . S
C106 C111 1.370 . S
C107 H75 0.929 . S
C107 C106 1.363 . S
C107 C108 1.385 . S
C108 H76 0.930 . S
C108 C107 1.385 . S
C108 C109 1.357 . S
C109 C108 1.357 . S
C109 C110 1.406 . S
C110 H77 0.929 . S
C110 C109 1.406 . S
C110 C111 1.391 . S
C111 H78 0.931 . S
C111 C106 1.370 . S
C111 C110 1.391 . S
C112 N86 1.435 . S
C112 C113 1.358 . S
C112 C117 1.371 . S
C113 H79 0.930 . S
C113 C112 1.358 . S
C113 C114 1.405 . S
C114 H80 0.932 . S
C114 C113 1.405 . S
C114 C115 1.383 . S
C115 C114 1.383 . S
C115 C116 1.393 . S
C116 H81 0.931 . S
C116 C115 1.393 . S
C116 C117 1.382 . S
C117 H82 0.929 . S
C117 C112 1.371 . S
C117 C116 1.382 . S
C118 N86 1.423 . S
C118 C119 1.362 . S
C118 C123 1.388 . S
C119 H83 0.929 . S
C119 C118 1.362 . S
C119 C120 1.376 . S
C120 H84 0.931 . S
C120 C119 1.376 . S
C120 C121 1.396 . S
C121 C103 1.472 . S
C121 C120 1.396 . S
C121 C122 1.348 . S
C122 H85 0.929 . S
C122 C121 1.348 . S
C122 C123 1.443 . S
C123 H87 0.932 . S
C123 C118 1.388 . S
C123 C122 1.443 . S
H124 C151 0.929 . S
N125 C150 1.433 . S
N125 C156 1.435 . S
N125 C162 1.423 . S
H126 C152 0.930 . S
H127 C155 0.931 . S
H128 C154 0.929 . S
H129 C157 0.930 . S
H130 C158 0.932 . S
H131 C161 0.929 . S
H132 C160 0.931 . S
H133 C163 0.929 . S
H134 C167 0.932 . S
H135 C164 0.931 . S
H136 C166 0.929 . S
H137 C169 0.929 . S
H138 C170 0.930 . S
H139 C172 0.929 . S
H140 C173 0.931 . S
H141 C175 0.930 . S
H142 C176 0.932 . S
H143 C178 0.931 . S
H144 C179 0.929 . S
H145 C181 0.929 . S
H146 C182 0.931 . S
H147 C184 0.929 . S
N148 C168 1.433 . S
N148 C174 1.435 . S
N148 C180 1.423 . S
H149 C185 0.932 . S
C150 N125 1.433 . S
C150 C151 1.363 . S
C150 C155 1.370 . S
C151 H124 0.929 . S
C151 C150 1.363 . S
C151 C152 1.385 . S
C152 H126 0.930 . S
C152 C151 1.385 . S
C152 C153 1.357 . S
C153 C152 1.357 . S
C153 C154 1.406 . S
C154 H128 0.929 . S
C154 C153 1.406 . S
C154 C155 1.391 . S
C155 H127 0.931 . S
C155 C150 1.370 . S
C155 C154 1.391 . S
C156 N125 1.435 . S
C156 C157 1.358 . S
C156 C161 1.371 . S
C157 H129 0.930 . S
C157 C156 1.358 . S
C157 C158 1.405 . S
C158 H130 0.932 . S
C158 C157 1.405 . S
C158 C159 1.383 . S
C159 C158 1.383 . S
C159 C160 1.393 . S
C160 H132 0.931 . S
C160 C159 1.393 . S
C160 C161 1.382 . S
C161 H131 0.929 . S
C161 C156 1.371 . S
C161 C160 1.382 . S
C162 N125 1.423 . S
C162 C163 1.362 . S
C162 C167 1.388 . S
C163 H133 0.929 . S
C163 C162 1.362 . S
C163 C164 1.376 . S
C164 H135 0.931 . S
C164 C163 1.376 . S
C164 C165 1.396 . S
C165 C164 1.396 . S
C165 C166 1.348 . S
C165 C183 1.472 . S
C166 H136 0.929 . S
C166 C165 1.348 . S
C166 C167 1.443 . S
C167 H134 0.932 . S
C167 C162 1.388 . S
C167 C166 1.443 . S
C168 N148 1.433 . S
C168 C169 1.363 . S
C168 C173 1.370 . S
C169 H137 0.929 . S
C169 C168 1.363 . S
C169 C170 1.385 . S
C170 H138 0.930 . S
C170 C169 1.385 . S
C170 C171 1.357 . S
C171 C170 1.357 . S
C171 C172 1.406 . S
C172 H139 0.929 . S
C172 C171 1.406 . S
C172 C173 1.391 . S
C173 H140 0.931 . S
C173 C168 1.370 . S
C173 C172 1.391 . S
C174 N148 1.435 . S
C174 C175 1.358 . S
C174 C179 1.371 . S
C175 H141 0.930 . S
C175 C174 1.358 . S
C175 C176 1.405 . S
C176 H142 0.932 . S
C176 C175 1.405 . S
C176 C177 1.383 . S
C177 C176 1.383 . S
C177 C178 1.393 . S
C178 H143 0.931 . S
C178 C177 1.393 . S
C178 C179 1.382 . S
C179 H144 0.929 . S
C179 C174 1.371 . S
C179 C178 1.382 . S
C180 N148 1.423 . S
C180 C181 1.362 . S
C180 C185 1.388 . S
C181 H145 0.929 . S
C181 C180 1.362 . S
C181 C182 1.376 . S
C182 H146 0.931 . S
C182 C181 1.376 . S
C182 C183 1.396 . S
C183 C165 1.472 . S
C183 C182 1.396 . S
C183 C184 1.348 . S
C184 H147 0.929 . S
C184 C183 1.348 . S
C184 C185 1.443 . S
C185 H149 0.932 . S
C185 C180 1.388 . S
C185 C184 1.443 . S
H186 C213 0.929 . S
N187 C212 1.433 . S
N187 C218 1.435 . S
N187 C224 1.423 . S
H188 C214 0.930 . S
H189 C217 0.931 . S
H190 C216 0.929 . S
H191 C219 0.930 . S
H192 C220 0.932 . S
H193 C223 0.929 . S
H194 C222 0.931 . S
H195 C225 0.929 . S
H196 C229 0.932 . S
H197 C226 0.931 . S
H198 C228 0.929 . S
H199 C231 0.929 . S
H200 C232 0.930 . S
H201 C234 0.929 . S
H202 C235 0.931 . S
H203 C237 0.930 . S
H204 C238 0.932 . S
H205 C240 0.931 . S
H206 C241 0.929 . S
H207 C243 0.929 . S
H208 C244 0.931 . S
H209 C246 0.929 . S
N210 C230 1.433 . S
N210 C236 1.435 . S
N210 C242 1.423 . S
H211 C247 0.932 . S
C212 N187 1.433 . S
C212 C213 1.363 . S
C212 C217 1.370 . S
C213 H186 0.929 . S
C213 C212 1.363 . S
C213 C214 1.385 . S
C214 H188 0.930 . S
C214 C213 1.385 . S
C214 C215 1.357 . S
C215 C214 1.357 . S
C215 C216 1.406 . S
C216 H190 0.929 . S
C216 C215 1.406 . S
C216 C217 1.391 . S
C217 H189 0.931 . S
C217 C212 1.370 . S
C217 C216 1.391 . S
C218 N187 1.435 . S
C218 C219 1.358 . S
C218 C223 1.371 . S
C219 H191 0.930 . S
C219 C218 1.358 . S
C219 C220 1.405 . S
C220 H192 0.932 . S
C220 C219 1.405 . S
C220 C221 1.383 . S
C221 C220 1.383 . S
C221 C222 1.393 . S
C222 H194 0.931 . S
C222 C221 1.393 . S
C222 C223 1.382 . S
C223 H193 0.929 . S
C223 C218 1.371 . S
C223 C222 1.382 . S
C224 N187 1.423 . S
C224 C225 1.362 . S
C224 C229 1.388 . S
C225 H195 0.929 . S
C225 C224 1.362 . S
C225 C226 1.376 . S
C226 H197 0.931 . S
C226 C225 1.376 . S
C226 C227 1.396 . S
C227 C226 1.396 . S
C227 C228 1.348 . S
C227 C245 1.472 1_455 S
C228 H198 0.929 . S
C228 C227 1.348 . S
C228 C229 1.443 . S
C229 H196 0.932 . S
C229 C224 1.388 . S
C229 C228 1.443 . S
C230 N210 1.433 . S
C230 C231 1.363 . S
C230 C235 1.370 . S
C231 H199 0.929 . S
C231 C230 1.363 . S
C231 C232 1.385 . S
C232 H200 0.930 . S
C232 C231 1.385 . S
C232 C233 1.357 . S
C233 C232 1.357 . S
C233 C234 1.406 . S
C234 H201 0.929 . S
C234 C233 1.406 . S
C234 C235 1.391 . S
C235 H202 0.931 . S
C235 C230 1.370 . S
C235 C234 1.391 . S
C236 N210 1.435 . S
C236 C237 1.358 . S
C236 C241 1.371 . S
C237 H203 0.930 . S
C237 C236 1.358 . S
C237 C238 1.405 . S
C238 H204 0.932 . S
C238 C237 1.405 . S
C238 C239 1.383 . S
C239 C238 1.383 . S
C239 C240 1.393 . S
C240 H205 0.931 . S
C240 C239 1.393 . S
C240 C241 1.382 . S
C241 H206 0.929 . S
C241 C236 1.371 . S
C241 C240 1.382 . S
C242 N210 1.423 . S
C242 C243 1.362 . S
C242 C247 1.388 . S
C243 H207 0.929 . S
C243 C242 1.362 . S
C243 C244 1.376 . S
C244 H208 0.931 . S
C244 C243 1.376 . S
C244 C245 1.396 . S
C245 C227 1.472 1_655 S
C245 C244 1.396 . S
C245 C246 1.348 . S
C246 H209 0.929 . S
C246 C245 1.348 . S
C246 C247 1.443 . S
C247 H211 0.932 . S
C247 C242 1.388 . S
C247 C246 1.443 . S
H248 C275 0.929 . S
N249 C274 1.433 . S
N249 C280 1.435 . S
N249 C286 1.423 . S
H250 C276 0.930 . S
H251 C279 0.931 . S
H252 C278 0.929 . S
H253 C281 0.930 . S
H254 C282 0.932 . S
H255 C285 0.929 . S
H256 C284 0.931 . S
H257 C287 0.929 . S
H258 C291 0.932 . S
H259 C288 0.931 . S
H260 C290 0.929 . S
H261 C293 0.929 . S
H262 C294 0.930 . S
H263 C296 0.929 . S
H264 C297 0.931 . S
H265 C299 0.930 . S
H266 C300 0.932 . S
H267 C302 0.931 . S
H268 C303 0.929 . S
H269 C305 0.929 . S
H270 C306 0.925 1_544 S
H271 C308 0.929 . S
N272 C292 1.433 . S
N272 C298 1.435 1_554 S
N272 C304 1.407 1_554 S
H273 C309 0.932 . S
C274 N249 1.433 . S
C274 C275 1.363 . S
C274 C279 1.370 . S
C275 H248 0.929 . S
C275 C274 1.363 . S
C275 C276 1.385 . S
C276 H250 0.930 . S
C276 C275 1.385 . S
C276 C277 1.357 1_556 S
C277 C276 1.357 1_554 S
C277 C278 1.406 . S
C278 H252 0.929 . S
C278 C277 1.406 . S
C278 C279 1.391 1_554 S
C279 H251 0.931 . S
C279 C274 1.370 . S
C279 C278 1.391 1_556 S
C280 N249 1.435 . S
C280 C281 1.358 . S
C280 C285 1.371 . S
C281 H253 0.930 . S
C281 C280 1.358 . S
C281 C282 1.405 . S
C282 H254 0.932 . S
C282 C281 1.405 . S
C282 C283 1.383 . S
C283 C282 1.383 . S
C283 C284 1.393 . S
C284 H256 0.931 . S
C284 C283 1.393 . S
C284 C285 1.382 . S
C285 H255 0.929 . S
C285 C280 1.371 . S
C285 C284 1.382 . S
C286 N249 1.423 . S
C286 C287 1.362 . S
C286 C291 1.388 . S
C287 H257 0.929 . S
C287 C286 1.362 . S
C287 C288 1.376 . S
C288 H259 0.931 . S
C288 C287 1.376 . S
C288 C289 1.396 . S
C289 C288 1.396 . S
C289 C290 1.348 . S
C289 C307 1.472 1_545 S
C290 H260 0.929 . S
C290 C289 1.348 . S
C290 C291 1.443 . S
C291 H258 0.932 . S
C291 C286 1.388 . S
C291 C290 1.443 . S
C292 N272 1.433 . S
C292 C293 1.363 . S
C292 C297 1.370 . S
C293 H261 0.929 . S
C293 C292 1.363 . S
C293 C294 1.385 . S
C294 H262 0.930 . S
C294 C293 1.385 . S
C294 C295 1.357 . S
C295 C294 1.357 . S
C295 C296 1.406 . S
C296 H263 0.929 . S
C296 C295 1.406 . S
C296 C297 1.391 . S
C297 H264 0.931 . S
C297 C292 1.370 . S
C297 C296 1.391 . S
C298 N272 1.435 1_556 S
C298 C299 1.358 1_556 S
C298 C303 1.371 . S
C299 H265 0.930 . S
C299 C298 1.358 1_554 S
C299 C300 1.405 1_554 S
C300 H266 0.932 . S
C300 C299 1.405 1_556 S
C300 C301 1.383 . S
C301 C300 1.383 . S
C301 C302 1.393 . S
C302 H267 0.931 . S
C302 C301 1.393 . S
C302 C303 1.382 . S
C303 H268 0.929 . S
C303 C298 1.371 . S
C303 C302 1.382 . S
C304 N272 1.407 1_556 S
C304 C305 1.346 1_556 S
C304 C309 1.421 . S
C305 H269 0.929 . S
C305 C304 1.346 1_554 S
C305 C306 1.370 1_554 S
C306 H270 0.925 1_566 S
C306 C305 1.370 1_556 S
C306 C307 1.408 . S
C307 C289 1.472 1_565 S
C307 C306 1.408 . S
C307 C308 1.348 . S
C308 H271 0.929 . S
C308 C307 1.348 . S
C308 C309 1.443 . S
C309 H273 0.932 . S
C309 C304 1.421 . S
C309 C308 1.443 . S
H310 C337 0.929 . S
N311 C336 1.433 . S
N311 C342 1.435 . S
N311 C348 1.423 . S
H312 C338 0.930 . S
H313 C341 0.931 . S
H314 C340 0.929 . S
H315 C343 0.930 . S
H316 C344 0.932 . S
H317 C347 0.929 . S
H318 C346 0.931 . S
H319 C349 0.929 . S
H320 C353 0.932 . S
H321 C350 0.931 . S
H322 C352 0.929 . S
H323 C355 0.929 . S
H324 C356 0.930 . S
H325 C358 0.929 . S
H326 C359 0.931 . S
H327 C361 0.930 . S
H328 C362 0.932 . S
H329 C364 0.931 . S
H330 C365 0.929 . S
H331 C367 0.929 . S
H332 C368 0.931 . S
H333 C370 0.929 . S
N334 C354 1.433 . S
N334 C360 1.435 . S
N334 C366 1.423 . S
H335 C371 0.932 . S
C336 N311 1.433 . S
C336 C337 1.363 . S
C336 C341 1.370 . S
C337 H310 0.929 . S
C337 C336 1.363 . S
C337 C338 1.385 . S
C338 H312 0.930 . S
C338 C337 1.385 . S
C338 C339 1.357 . S
C339 C338 1.357 . S
C339 C340 1.406 . S
C340 H314 0.929 . S
C340 C339 1.406 . S
C340 C341 1.391 . S
C341 H313 0.931 . S
C341 C336 1.370 . S
C341 C340 1.391 . S
C342 N311 1.435 . S
C342 C343 1.358 . S
C342 C347 1.371 . S
C343 H315 0.930 . S
C343 C342 1.358 . S
C343 C344 1.405 . S
C344 H316 0.932 . S
C344 C343 1.405 . S
C344 C345 1.383 . S
C345 C344 1.383 . S
C345 C346 1.393 . S
C346 H318 0.931 . S
C346 C345 1.393 . S
C346 C347 1.382 . S
C347 H317 0.929 . S
C347 C342 1.371 . S
C347 C346 1.382 . S
C348 N311 1.423 . S
C348 C349 1.362 . S
C348 C353 1.388 . S
C349 H319 0.929 . S
C349 C348 1.362 . S
C349 C350 1.376 . S
C350 H321 0.931 . S
C350 C349 1.376 . S
C350 C351 1.396 . S
C351 C350 1.396 . S
C351 C352 1.348 . S
C351 C369 1.472 . S
C352 H322 0.929 . S
C352 C351 1.348 . S
C352 C353 1.443 . S
C353 H320 0.932 . S
C353 C348 1.388 . S
C353 C352 1.443 . S
C354 N334 1.433 . S
C354 C355 1.363 . S
C354 C359 1.370 . S
C355 H323 0.929 . S
C355 C354 1.363 . S
C355 C356 1.385 . S
C356 H324 0.930 . S
C356 C355 1.385 . S
C356 C357 1.357 . S
C357 C356 1.357 . S
C357 C358 1.406 . S
C358 H325 0.929 . S
C358 C357 1.406 . S
C358 C359 1.391 . S
C359 H326 0.931 . S
C359 C354 1.370 . S
C359 C358 1.391 . S
C360 N334 1.435 . S
C360 C361 1.358 . S
C360 C365 1.371 . S
C361 H327 0.930 . S
C361 C360 1.358 . S
C361 C362 1.405 . S
C362 H328 0.932 . S
C362 C361 1.405 . S
C362 C363 1.383 . S
C363 C362 1.383 . S
C363 C364 1.393 . S
C364 H329 0.931 . S
C364 C363 1.393 . S
C364 C365 1.382 . S
C365 H330 0.929 . S
C365 C360 1.371 . S
C365 C364 1.382 . S
C366 N334 1.423 . S
C366 C367 1.362 . S
C366 C371 1.388 . S
C367 H331 0.929 . S
C367 C366 1.362 . S
C367 C368 1.376 . S
C368 H332 0.931 . S
C368 C367 1.376 . S
C368 C369 1.396 . S
C369 C351 1.472 . S
C369 C368 1.396 . S
C369 C370 1.348 . S
C370 H333 0.929 . S
C370 C369 1.348 . S
C370 C371 1.443 . S
C371 H335 0.932 . S
C371 C366 1.388 . S
C371 C370 1.443 . S
In372 O373 2.294 . S
In372 O374 2.326 . S
In372 O378 2.266 . S
In372 O379 2.326 . S
In372 O380 2.266 . S
In372 O381 2.326 . S
In372 O383 2.294 . S
In372 O384 2.326 . S
O373 In372 2.294 . S
O373 C382 1.240 . S
O374 In372 2.326 . S
O374 C382 1.252 . S
C375 O378 1.252 . S
C375 O379 1.260 . S
C376 O383 1.240 . S
C376 O384 1.252 . S
C377 O380 1.252 . S
C377 O381 1.260 . S
O378 In372 2.266 . S
O378 C375 1.252 . S
O379 In372 2.326 . S
O379 C375 1.260 . S
O380 In372 2.266 . S
O380 C377 1.252 . S
O381 In372 2.326 . S
O381 C377 1.260 . S
C382 O373 1.240 . S
C382 O374 1.252 . S
O383 In372 2.294 . S
O383 C376 1.240 . S
O384 In372 2.326 . S
O384 C376 1.252 . S
In385 O386 2.294 . S
In385 O387 2.326 . S
In385 O391 2.266 . S
In385 O392 2.326 . S
In385 O393 2.266 . S
In385 O394 2.326 . S
In385 O396 2.294 . S
In385 O397 2.326 . S
O386 In385 2.294 . S
O386 C395 1.240 . S
O387 In385 2.326 . S
O387 C395 1.252 . S
C388 O391 1.252 . S
C388 O392 1.260 . S
C389 O396 1.240 . S
C389 O397 1.252 . S
C390 O393 1.252 . S
C390 O394 1.260 . S
O391 In385 2.266 . S
O391 C388 1.252 . S
O392 In385 2.326 . S
O392 C388 1.260 . S
O393 In385 2.266 . S
O393 C390 1.252 . S
O394 In385 2.326 . S
O394 C390 1.260 . S
C395 O386 1.240 . S
C395 O387 1.252 . S
O396 In385 2.294 . S
O396 C389 1.240 . S
O397 In385 2.326 . S
O397 C389 1.252 . S
In398 O399 2.294 . S
In398 O400 2.326 . S
In398 O404 2.266 . S
In398 O405 2.326 . S
In398 O406 2.266 . S
In398 O407 2.326 . S
In398 O409 2.294 . S
In398 O410 2.326 . S
O399 In398 2.294 . S
O399 C408 1.240 . S
O400 In398 2.326 . S
O400 C408 1.252 . S
C401 O404 1.252 . S
C401 O405 1.260 . S
C402 O409 1.240 . S
C402 O410 1.252 . S
C403 O406 1.252 . S
C403 O407 1.260 . S
O404 In398 2.266 . S
O404 C401 1.252 . S
O405 In398 2.326 . S
O405 C401 1.260 . S
O406 In398 2.266 . S
O406 C403 1.252 . S
O407 In398 2.326 . S
O407 C403 1.260 . S
C408 O399 1.240 . S
C408 O400 1.252 . S
O409 In398 2.294 . S
O409 C402 1.240 . S
O410 In398 2.326 . S
O410 C402 1.252 . S
In411 O412 2.294 . S
In411 O413 2.326 . S
In411 O417 2.266 . S
In411 O418 2.326 . S
In411 O419 2.266 . S
In411 O420 2.326 . S
In411 O422 2.294 . S
In411 O423 2.326 . S
O412 In411 2.294 . S
O412 C421 1.240 . S
O413 In411 2.326 . S
O413 C421 1.252 . S
C414 O417 1.252 . S
C414 O418 1.260 . S
C415 O422 1.240 . S
C415 O423 1.252 . S
C416 O419 1.252 . S
C416 O420 1.260 . S
O417 In411 2.266 . S
O417 C414 1.252 . S
O418 In411 2.326 . S
O418 C414 1.260 . S
O419 In411 2.266 . S
O419 C416 1.252 . S
O420 In411 2.326 . S
O420 C416 1.260 . S
C421 O412 1.240 . S
C421 O413 1.252 . S
O422 In411 2.294 . S
O422 C415 1.240 . S
O423 In411 2.326 . S
O423 C415 1.252 . S
In424 O425 2.294 . S
In424 O426 2.326 . S
In424 O430 2.266 . S
In424 O431 2.326 . S
In424 O432 2.266 . S
In424 O433 2.326 . S
In424 O435 2.294 . S
In424 O436 2.326 . S
O425 In424 2.294 . S
O425 C434 1.240 . S
O426 In424 2.326 . S
O426 C434 1.252 . S
C427 O430 1.252 . S
C427 O431 1.260 . S
C428 O435 1.240 . S
C428 O436 1.252 . S
C429 O432 1.252 . S
C429 O433 1.260 . S
O430 In424 2.266 . S
O430 C427 1.252 . S
O431 In424 2.326 . S
O431 C427 1.260 . S
O432 In424 2.266 . S
O432 C429 1.252 . S
O433 In424 2.326 . S
O433 C429 1.260 . S
C434 O425 1.240 . S
C434 O426 1.252 . S
O435 In424 2.294 . S
O435 C428 1.240 . S
O436 In424 2.326 . S
O436 C428 1.252 . S
In437 O438 2.294 . S
In437 O439 2.326 . S
In437 O443 2.266 . S
In437 O444 2.326 . S
In437 O445 2.266 . S
In437 O446 2.326 . S
In437 O448 2.294 . S
In437 O449 2.326 . S
O438 In437 2.294 . S
O438 C447 1.240 . S
O439 In437 2.326 . S
O439 C447 1.252 . S
C440 O443 1.252 . S
C440 O444 1.260 . S
C441 O448 1.240 . S
C441 O449 1.252 . S
C442 O445 1.252 . S
C442 O446 1.260 . S
O443 In437 2.266 . S
O443 C440 1.252 . S
O444 In437 2.326 . S
O444 C440 1.260 . S
O445 In437 2.266 . S
O445 C442 1.252 . S
O446 In437 2.326 . S
O446 C442 1.260 . S
C447 O438 1.240 . S
C447 O439 1.252 . S
O448 In437 2.294 . S
O448 C441 1.240 . S
O449 In437 2.326 . S
O449 C441 1.252 . S
H450 C468 0.951 . S
H451 C470 0.951 . S
H452 C472 0.950 . S
H453 C473 0.950 . S
H454 C475 0.950 . S
H455 C478 0.950 . S
H456 C479 0.950 . S
H457 C481 0.950 . S
H458 C482 0.950 . S
H459 C483 0.951 . S
H460 C485 0.951 . S
H461 C487 0.950 . S
H462 C488 0.950 . S
H463 C490 0.950 . S
H464 C493 0.950 . S
H465 C494 0.950 . S
H466 C496 0.950 . S
H467 C497 0.950 . S
C468 H450 0.951 . S
C468 C469 1.366 . S
C468 C470 1.388 . S
C469 C468 1.366 . S
C469 C473 1.385 . S
C470 H451 0.951 . S
C470 C468 1.388 . S
C470 C471 1.366 . S
C471 C470 1.366 . S
C471 C472 1.414 . S
C471 C474 1.499 . S
C472 H452 0.950 . S
C472 C471 1.414 . S
C472 C473 1.374 . S
C473 H453 0.950 . S
C473 C469 1.385 . S
C473 C472 1.374 . S
C474 C471 1.499 . S
C474 C475 1.373 . S
C474 C476 1.389 . S
C475 H454 0.950 . S
C475 C474 1.373 . S
C475 C491 1.377 . S
C476 C474 1.389 . S
C476 C477 1.524 . S
C476 C490 1.377 . S
C477 C476 1.524 . S
C477 C478 1.397 . S
C477 C482 1.363 . S
C478 H455 0.950 . S
C478 C477 1.397 . S
C478 C479 1.334 . S
C479 H456 0.950 . S
C479 C478 1.334 . S
C479 C480 1.287 . S
C480 C479 1.287 . S
C480 C481 1.524 . S
C480 H499 0.913 . S
C481 H457 0.950 . S
C481 C480 1.524 . S
C481 C482 1.415 . S
C482 H458 0.950 . S
C482 C477 1.363 . S
C482 C481 1.415 . S
C483 H459 0.951 . S
C483 C484 1.366 . S
C483 C485 1.388 . S
C484 C483 1.366 . S
C484 C488 1.385 . S
C485 H460 0.951 . S
C485 C483 1.388 . S
C485 C486 1.366 . S
C486 C485 1.366 . S
C486 C487 1.414 . S
C486 C489 1.499 . S
C487 H461 0.950 . S
C487 C486 1.414 . S
C487 C488 1.374 . S
C488 H462 0.950 . S
C488 C484 1.385 . S
C488 C487 1.374 . S
C489 C486 1.499 . S
C489 C490 1.373 . S
C489 C491 1.389 . S
C490 H463 0.950 . S
C490 C476 1.377 . S
C490 C489 1.373 . S
C491 C475 1.377 . S
C491 C489 1.389 . S
C491 C492 1.524 . S
C492 C491 1.524 . S
C492 C493 1.397 . S
C492 C497 1.363 . S
C493 H464 0.950 . S
C493 C492 1.397 . S
C493 C494 1.334 . S
C494 H465 0.950 . S
C494 C493 1.334 . S
C494 C495 1.287 . S
C495 C494 1.287 . S
C495 C496 1.524 . S
C495 H498 0.999 . S
C496 H466 0.950 . S
C496 C495 1.524 . S
C496 C497 1.415 . S
C497 H467 0.950 . S
C497 C492 1.363 . S
C497 C496 1.415 . S
H498 C495 0.999 . S
H499 C480 0.913 . S
H500 C518 0.951 . S
H501 C520 0.951 . S
H502 C522 0.950 . S
H503 C523 0.950 . S
H504 C525 0.950 . S
H505 C528 0.950 . S
H506 C529 0.950 . S
H507 C531 0.950 . S
H508 C532 0.950 . S
H509 C533 0.951 . S
H510 C535 0.951 . S
H511 C537 0.950 . S
H512 C538 0.950 . S
H513 C540 0.950 . S
H514 C543 0.950 . S
H515 C544 0.950 . S
H516 C546 0.950 . S
H517 C547 0.950 . S
C518 H500 0.951 . S
C518 C519 1.366 . S
C518 C520 1.388 . S
C519 C518 1.366 . S
C519 C523 1.385 . S
C520 H501 0.951 . S
C520 C518 1.388 . S
C520 C521 1.366 . S
C521 C520 1.366 . S
C521 C522 1.414 . S
C521 C524 1.499 . S
C522 H502 0.950 . S
C522 C521 1.414 . S
C522 C523 1.374 . S
C523 H503 0.950 . S
C523 C519 1.385 . S
C523 C522 1.374 . S
C524 C521 1.499 . S
C524 C525 1.373 . S
C524 C526 1.389 . S
C525 H504 0.950 . S
C525 C524 1.373 . S
C525 C541 1.377 . S
C526 C524 1.389 . S
C526 C527 1.524 . S
C526 C540 1.377 . S
C527 C526 1.524 . S
C527 C528 1.397 . S
C527 C532 1.363 . S
C528 H505 0.950 . S
C528 C527 1.397 . S
C528 C529 1.334 . S
C529 H506 0.950 . S
C529 C528 1.334 . S
C529 C530 1.287 . S
C530 C529 1.287 . S
C530 C531 1.524 . S
C530 H549 0.913 . S
C531 H507 0.950 . S
C531 C530 1.524 . S
C531 C532 1.415 . S
C532 H508 0.950 . S
C532 C527 1.363 . S
C532 C531 1.415 . S
C533 H509 0.951 . S
C533 C534 1.366 . S
C533 C535 1.388 . S
C534 C533 1.366 . S
C534 C538 1.385 . S
C535 H510 0.951 . S
C535 C533 1.388 . S
C535 C536 1.366 . S
C536 C535 1.366 . S
C536 C537 1.414 . S
C536 C539 1.499 . S
C537 H511 0.950 . S
C537 C536 1.414 . S
C537 C538 1.374 . S
C538 H512 0.950 . S
C538 C534 1.385 . S
C538 C537 1.374 . S
C539 C536 1.499 . S
C539 C540 1.373 . S
C539 C541 1.389 . S
C540 H513 0.950 . S
C540 C526 1.377 . S
C540 C539 1.373 . S
C541 C525 1.377 . S
C541 C539 1.389 . S
C541 C542 1.524 . S
C542 C541 1.524 . S
C542 C543 1.397 . S
C542 C547 1.363 . S
C543 H514 0.950 . S
C543 C542 1.397 . S
C543 C544 1.334 . S
C544 H515 0.950 . S
C544 C543 1.334 . S
C544 C545 1.287 . S
C545 C544 1.287 . S
C545 C546 1.524 . S
C545 H548 0.999 . S
C546 H516 0.950 . S
C546 C545 1.524 . S
C546 C547 1.415 . S
C547 H517 0.950 . S
C547 C542 1.363 . S
C547 C546 1.415 . S
H548 C545 0.999 . S
H549 C530 0.913 . S
H550 C568 0.951 . S
H551 C570 0.951 . S
H552 C572 0.950 . S
H553 C573 0.950 . S
H554 C575 0.950 . S
H555 C578 0.950 . S
H556 C579 0.950 . S
H557 C581 0.950 . S
H558 C582 0.950 . S
H559 C583 0.951 . S
H560 C585 0.951 . S
H561 C587 0.950 . S
H562 C588 0.950 . S
H563 C590 0.950 . S
H564 C593 0.950 . S
H565 C594 0.950 . S
H566 C596 0.950 . S
H567 C597 0.950 . S
C568 H550 0.951 . S
C568 C569 1.366 . S
C568 C570 1.388 . S
C569 C568 1.366 . S
C569 C573 1.385 . S
C570 H551 0.951 . S
C570 C568 1.388 . S
C570 C571 1.366 . S
C571 C570 1.366 . S
C571 C572 1.414 . S
C571 C574 1.499 . S
C572 H552 0.950 . S
C572 C571 1.414 . S
C572 C573 1.374 . S
C573 H553 0.950 . S
C573 C569 1.385 . S
C573 C572 1.374 . S
C574 C571 1.499 . S
C574 C575 1.373 . S
C574 C576 1.389 . S
C575 H554 0.950 . S
C575 C574 1.373 . S
C575 C591 1.377 . S
C576 C574 1.389 . S
C576 C577 1.524 . S
C576 C590 1.377 . S
C577 C576 1.524 . S
C577 C578 1.397 . S
C577 C582 1.363 . S
C578 H555 0.950 . S
C578 C577 1.397 . S
C578 C579 1.334 . S
C579 H556 0.950 . S
C579 C578 1.334 . S
C579 C580 1.287 . S
C580 C579 1.287 . S
C580 C581 1.524 . S
C580 H599 0.913 . S
C581 H557 0.950 . S
C581 C580 1.524 . S
C581 C582 1.415 . S
C582 H558 0.950 . S
C582 C577 1.363 . S
C582 C581 1.415 . S
C583 H559 0.951 . S
C583 C584 1.366 . S
C583 C585 1.388 . S
C584 C583 1.366 . S
C584 C588 1.385 . S
C585 H560 0.951 . S
C585 C583 1.388 . S
C585 C586 1.366 . S
C586 C585 1.366 . S
C586 C587 1.414 . S
C586 C589 1.499 . S
C587 H561 0.950 . S
C587 C586 1.414 . S
C587 C588 1.374 . S
C588 H562 0.950 . S
C588 C584 1.385 . S
C588 C587 1.374 . S
C589 C586 1.499 . S
C589 C590 1.373 . S
C589 C591 1.389 . S
C590 H563 0.950 . S
C590 C576 1.377 . S
C590 C589 1.373 . S
C591 C575 1.377 . S
C591 C589 1.389 . S
C591 C592 1.524 . S
C592 C591 1.524 . S
C592 C593 1.397 . S
C592 C597 1.363 . S
C593 H564 0.950 . S
C593 C592 1.397 . S
C593 C594 1.334 . S
C594 H565 0.950 . S
C594 C593 1.334 . S
C594 C595 1.287 . S
C595 C594 1.287 . S
C595 C596 1.524 . S
C595 H598 0.999 . S
C596 H566 0.950 . S
C596 C595 1.524 . S
C596 C597 1.415 . S
C597 H567 0.950 . S
C597 C592 1.363 . S
C597 C596 1.415 . S
H598 C595 0.999 . S
H599 C580 0.913 . S
H600 C618 0.951 . S
H601 C620 0.951 . S
H602 C622 0.950 . S
H603 C623 0.950 . S
H604 C625 0.950 . S
H605 C628 0.950 . S
H606 C629 0.950 . S
H607 C631 0.950 . S
H608 C632 0.950 . S
H609 C633 0.951 . S
H610 C635 0.951 . S
H611 C637 0.950 . S
H612 C638 0.950 . S
H613 C640 0.950 . S
H614 C643 0.950 . S
H615 C644 0.950 . S
H616 C646 0.950 . S
H617 C647 0.950 . S
C618 H600 0.951 . S
C618 C619 1.366 . S
C618 C620 1.388 . S
C619 C618 1.366 . S
C619 C623 1.385 . S
C620 H601 0.951 . S
C620 C618 1.388 . S
C620 C621 1.366 . S
C621 C620 1.366 . S
C621 C622 1.414 . S
C621 C624 1.499 . S
C622 H602 0.950 . S
C622 C621 1.414 . S
C622 C623 1.374 . S
C623 H603 0.950 . S
C623 C619 1.385 . S
C623 C622 1.374 . S
C624 C621 1.499 . S
C624 C625 1.373 . S
C624 C626 1.389 . S
C625 H604 0.950 . S
C625 C624 1.373 . S
C625 C641 1.377 . S
C626 C624 1.389 . S
C626 C627 1.524 . S
C626 C640 1.377 . S
C627 C626 1.524 . S
C627 C628 1.397 . S
C627 C632 1.363 . S
C628 H605 0.950 . S
C628 C627 1.397 . S
C628 C629 1.334 . S
C629 H606 0.950 . S
C629 C628 1.334 . S
C629 C630 1.287 . S
C630 C629 1.287 . S
C630 C631 1.524 . S
C630 H649 0.913 . S
C631 H607 0.950 . S
C631 C630 1.524 . S
C631 C632 1.415 . S
C632 H608 0.950 . S
C632 C627 1.363 . S
C632 C631 1.415 . S
C633 H609 0.951 . S
C633 C634 1.366 . S
C633 C635 1.388 . S
C634 C633 1.366 . S
C634 C638 1.385 . S
C635 H610 0.951 . S
C635 C633 1.388 . S
C635 C636 1.366 . S
C636 C635 1.366 . S
C636 C637 1.414 . S
C636 C639 1.499 . S
C637 H611 0.950 . S
C637 C636 1.414 . S
C637 C638 1.374 . S
C638 H612 0.950 . S
C638 C634 1.385 . S
C638 C637 1.374 . S
C639 C636 1.499 . S
C639 C640 1.373 . S
C639 C641 1.389 . S
C640 H613 0.950 . S
C640 C626 1.377 . S
C640 C639 1.373 . S
C641 C625 1.377 . S
C641 C639 1.389 . S
C641 C642 1.524 . S
C642 C641 1.524 . S
C642 C643 1.397 . S
C642 C647 1.363 . S
C643 H614 0.950 . S
C643 C642 1.397 . S
C643 C644 1.334 . S
C644 H615 0.950 . S
C644 C643 1.334 . S
C644 C645 1.287 . S
C645 C644 1.287 . S
C645 C646 1.524 . S
C645 H648 0.999 . S
C646 H616 0.950 . S
C646 C645 1.524 . S
C646 C647 1.415 . S
C647 H617 0.950 . S
C647 C642 1.363 . S
C647 C646 1.415 . S
H648 C645 0.999 . S
H649 C630 0.913 . S
H650 C668 0.951 . S
H651 C670 0.951 . S
H652 C672 0.950 . S
H653 C673 0.950 . S
H654 C675 0.950 . S
H655 C678 0.950 . S
H656 C679 0.950 . S
H657 C681 0.950 . S
H658 C682 0.950 . S
H659 C683 0.951 . S
H660 C685 0.951 . S
H661 C687 0.950 . S
H662 C688 0.950 . S
H663 C690 0.950 . S
H664 C693 0.950 . S
H665 C694 0.950 . S
H666 C696 0.950 . S
H667 C697 0.950 . S
C668 H650 0.951 . S
C668 C669 1.366 . S
C668 C670 1.388 . S
C669 C668 1.366 . S
C669 C673 1.385 . S
C670 H651 0.951 . S
C670 C668 1.388 . S
C670 C671 1.366 . S
C671 C670 1.366 . S
C671 C672 1.414 . S
C671 C674 1.499 . S
C672 H652 0.950 . S
C672 C671 1.414 . S
C672 C673 1.374 . S
C673 H653 0.950 . S
C673 C669 1.385 . S
C673 C672 1.374 . S
C674 C671 1.499 . S
C674 C675 1.373 . S
C674 C676 1.389 . S
C675 H654 0.950 . S
C675 C674 1.373 . S
C675 C691 1.377 . S
C676 C674 1.389 . S
C676 C677 1.524 . S
C676 C690 1.377 . S
C677 C676 1.524 . S
C677 C678 1.397 . S
C677 C682 1.363 . S
C678 H655 0.950 . S
C678 C677 1.397 . S
C678 C679 1.334 . S
C679 H656 0.950 . S
C679 C678 1.334 . S
C679 C680 1.287 . S
C680 C679 1.287 . S
C680 C681 1.524 . S
C680 H699 0.913 . S
C681 H657 0.950 . S
C681 C680 1.524 . S
C681 C682 1.415 . S
C682 H658 0.950 . S
C682 C677 1.363 . S
C682 C681 1.415 . S
C683 H659 0.951 . S
C683 C684 1.366 . S
C683 C685 1.388 . S
C684 C683 1.366 . S
C684 C688 1.385 . S
C685 H660 0.951 . S
C685 C683 1.388 . S
C685 C686 1.366 . S
C686 C685 1.366 . S
C686 C687 1.414 . S
C686 C689 1.499 . S
C687 H661 0.950 . S
C687 C686 1.414 . S
C687 C688 1.374 . S
C688 H662 0.950 . S
C688 C684 1.385 . S
C688 C687 1.374 . S
C689 C686 1.499 . S
C689 C690 1.373 . S
C689 C691 1.389 . S
C690 H663 0.950 . S
C690 C676 1.377 . S
C690 C689 1.373 . S
C691 C675 1.377 . S
C691 C689 1.389 . S
C691 C692 1.524 . S
C692 C691 1.524 . S
C692 C693 1.397 . S
C692 C697 1.363 . S
C693 H664 0.950 . S
C693 C692 1.397 . S
C693 C694 1.334 . S
C694 H665 0.950 . S
C694 C693 1.334 . S
C694 C695 1.287 . S
C695 C694 1.287 . S
C695 C696 1.524 . S
C695 H698 0.999 1_556 S
C696 H666 0.950 . S
C696 C695 1.524 . S
C696 C697 1.415 . S
C697 H667 0.950 . S
C697 C692 1.363 . S
C697 C696 1.415 . S
H698 C695 0.999 1_554 S
H699 C680 0.913 . S
H700 C718 0.951 . S
H701 C720 0.951 . S
H702 C722 0.950 . S
H703 C723 0.950 . S
H704 C725 0.950 . S
H705 C728 0.950 . S
H706 C729 0.950 . S
H707 C731 0.950 . S
H708 C732 0.950 . S
H709 C733 0.951 . S
H710 C735 0.951 . S
H711 C737 0.950 . S
H712 C738 0.950 . S
H713 C740 0.950 . S
H714 C743 0.950 . S
H715 C744 0.950 . S
H716 C746 0.950 . S
H717 C747 0.950 . S
C718 H700 0.951 . S
C718 C719 1.366 . S
C718 C720 1.388 . S
C719 C718 1.366 . S
C719 C723 1.385 . S
C720 H701 0.951 . S
C720 C718 1.388 . S
C720 C721 1.366 . S
C721 C720 1.366 . S
C721 C722 1.414 . S
C721 C724 1.499 . S
C722 H702 0.950 . S
C722 C721 1.414 . S
C722 C723 1.374 . S
C723 H703 0.950 . S
C723 C719 1.385 . S
C723 C722 1.374 . S
C724 C721 1.499 . S
C724 C725 1.373 . S
C724 C726 1.389 . S
C725 H704 0.950 . S
C725 C724 1.373 . S
C725 C741 1.377 . S
C726 C724 1.389 . S
C726 C727 1.524 . S
C726 C740 1.377 . S
C727 C726 1.524 . S
C727 C728 1.397 . S
C727 C732 1.363 . S
C728 H705 0.950 . S
C728 C727 1.397 . S
C728 C729 1.334 . S
C729 H706 0.950 . S
C729 C728 1.334 . S
C729 C730 1.287 . S
C730 C729 1.287 . S
C730 C731 1.524 . S
C730 H749 0.913 . S
C731 H707 0.950 . S
C731 C730 1.524 . S
C731 C732 1.415 . S
C732 H708 0.950 . S
C732 C727 1.363 . S
C732 C731 1.415 . S
C733 H709 0.951 . S
C733 C734 1.366 . S
C733 C735 1.388 . S
C734 C733 1.366 . S
C734 C738 1.385 . S
C735 H710 0.951 . S
C735 C733 1.388 . S
C735 C736 1.366 . S
C736 C735 1.366 . S
C736 C737 1.414 . S
C736 C739 1.499 . S
C737 H711 0.950 . S
C737 C736 1.414 . S
C737 C738 1.374 . S
C738 H712 0.950 . S
C738 C734 1.385 . S
C738 C737 1.374 . S
C739 C736 1.499 . S
C739 C740 1.373 . S
C739 C741 1.389 . S
C740 H713 0.950 . S
C740 C726 1.377 . S
C740 C739 1.373 . S
C741 C725 1.377 . S
C741 C739 1.389 . S
C741 C742 1.524 . S
C742 C741 1.524 . S
C742 C743 1.397 . S
C742 C747 1.363 . S
C743 H714 0.950 . S
C743 C742 1.397 . S
C743 C744 1.334 . S
C744 H715 0.950 . S
C744 C743 1.334 . S
C744 C745 1.287 . S
C745 C744 1.287 . S
C745 C746 1.524 . S
C745 H748 0.999 . S
C746 H716 0.950 . S
C746 C745 1.524 . S
C746 C747 1.415 . S
C747 H717 0.950 . S
C747 C742 1.363 . S
C747 C746 1.415 . S
H748 C745 0.999 . S
H749 C730 0.913 . S
H750 C768 0.951 . S
H751 C770 0.951 . S
H752 C772 0.950 . S
H753 C773 0.950 . S
H754 C775 0.950 . S
H755 C778 0.950 . S
H756 C779 0.950 . S
H757 C781 0.950 . S
H758 C782 0.950 . S
H759 C783 0.951 . S
H760 C785 0.951 . S
H761 C787 0.950 . S
H762 C788 0.950 . S
H763 C790 0.950 . S
H764 C793 0.950 . S
H765 C794 0.950 . S
H766 C796 0.950 . S
H767 C797 0.950 . S
C768 H750 0.951 . S
C768 C769 1.366 . S
C768 C770 1.388 . S
C769 C768 1.366 . S
C769 C773 1.385 . S
C770 H751 0.951 . S
C770 C768 1.388 . S
C770 C771 1.366 . S
C771 C770 1.366 . S
C771 C772 1.414 . S
C771 C774 1.499 . S
C772 H752 0.950 . S
C772 C771 1.414 . S
C772 C773 1.374 . S
C773 H753 0.950 . S
C773 C769 1.385 . S
C773 C772 1.374 . S
C774 C771 1.499 . S
C774 C775 1.373 . S
C774 C776 1.389 . S
C775 H754 0.950 . S
C775 C774 1.373 . S
C775 C791 1.377 . S
C776 C774 1.389 . S
C776 C777 1.524 . S
C776 C790 1.377 . S
C777 C776 1.524 . S
C777 C778 1.397 . S
C777 C782 1.363 . S
C778 H755 0.950 . S
C778 C777 1.397 . S
C778 C779 1.334 . S
C779 H756 0.950 . S
C779 C778 1.334 . S
C779 C780 1.287 . S
C780 C779 1.287 . S
C780 C781 1.524 . S
C780 H799 0.913 . S
C781 H757 0.950 . S
C781 C780 1.524 . S
C781 C782 1.415 . S
C782 H758 0.950 . S
C782 C777 1.363 . S
C782 C781 1.415 . S
C783 H759 0.951 . S
C783 C784 1.366 . S
C783 C785 1.388 . S
C784 C783 1.366 . S
C784 C788 1.385 . S
C785 H760 0.951 . S
C785 C783 1.388 . S
C785 C786 1.366 . S
C786 C785 1.366 . S
C786 C787 1.414 . S
C786 C789 1.499 . S
C787 H761 0.950 . S
C787 C786 1.414 . S
C787 C788 1.374 . S
C788 H762 0.950 . S
C788 C784 1.385 . S
C788 C787 1.374 . S
C789 C786 1.499 . S
C789 C790 1.373 . S
C789 C791 1.389 . S
C790 H763 0.950 . S
C790 C776 1.377 . S
C790 C789 1.373 . S
C791 C775 1.377 . S
C791 C789 1.389 . S
C791 C792 1.524 . S
C792 C791 1.524 . S
C792 C793 1.397 . S
C792 C797 1.363 . S
C793 H764 0.950 . S
C793 C792 1.397 . S
C793 C794 1.334 . S
C794 H765 0.950 . S
C794 C793 1.334 . S
C794 C795 1.287 . S
C795 C794 1.287 . S
C795 C796 1.524 . S
C795 H798 0.999 . S
C796 H766 0.950 . S
C796 C795 1.524 . S
C796 C797 1.415 . S
C797 H767 0.950 . S
C797 C792 1.363 . S
C797 C796 1.415 . S
H798 C795 0.999 . S
H799 C780 0.913 . S
H800 C818 0.951 . S
H801 C820 0.951 . S
H802 C822 0.950 . S
H803 C823 0.950 . S
H804 C825 0.950 . S
H805 C828 0.950 . S
H806 C829 0.950 . S
H807 C831 0.950 . S
H808 C832 0.950 . S
H809 C833 0.951 . S
H810 C835 0.951 . S
H811 C837 0.950 . S
H812 C838 0.950 . S
H813 C840 0.950 . S
H814 C843 0.950 . S
H815 C844 0.950 . S
H816 C846 0.950 . S
H817 C847 0.950 . S
C818 H800 0.951 . S
C818 C819 1.366 . S
C818 C820 1.388 . S
C819 C818 1.366 . S
C819 C823 1.385 . S
C820 H801 0.951 . S
C820 C818 1.388 . S
C820 C821 1.366 . S
C821 C820 1.366 . S
C821 C822 1.414 . S
C821 C824 1.499 . S
C822 H802 0.950 . S
C822 C821 1.414 . S
C822 C823 1.374 . S
C823 H803 0.950 . S
C823 C819 1.385 . S
C823 C822 1.374 . S
C824 C821 1.499 . S
C824 C825 1.373 . S
C824 C826 1.389 . S
C825 H804 0.950 . S
C825 C824 1.373 . S
C825 C841 1.377 . S
C826 C824 1.389 . S
C826 C827 1.524 . S
C826 C840 1.377 . S
C827 C826 1.524 . S
C827 C828 1.397 . S
C827 C832 1.363 . S
C828 H805 0.950 . S
C828 C827 1.397 . S
C828 C829 1.334 . S
C829 H806 0.950 . S
C829 C828 1.334 . S
C829 C830 1.287 . S
C830 C829 1.287 . S
C830 C831 1.524 . S
C830 H849 0.913 . S
C831 H807 0.950 . S
C831 C830 1.524 . S
C831 C832 1.415 . S
C832 H808 0.950 . S
C832 C827 1.363 . S
C832 C831 1.415 . S
C833 H809 0.951 . S
C833 C834 1.366 . S
C833 C835 1.388 . S
C834 C833 1.366 . S
C834 C838 1.385 . S
C835 H810 0.951 . S
C835 C833 1.388 . S
C835 C836 1.366 . S
C836 C835 1.366 . S
C836 C837 1.414 . S
C836 C839 1.499 . S
C837 H811 0.950 . S
C837 C836 1.414 . S
C837 C838 1.374 . S
C838 H812 0.950 . S
C838 C834 1.385 . S
C838 C837 1.374 . S
C839 C836 1.499 . S
C839 C840 1.373 . S
C839 C841 1.389 . S
C840 H813 0.950 . S
C840 C826 1.377 . S
C840 C839 1.373 . S
C841 C825 1.377 . S
C841 C839 1.389 . S
C841 C842 1.524 . S
C842 C841 1.524 . S
C842 C843 1.397 . S
C842 C847 1.363 . S
C843 H814 0.950 . S
C843 C842 1.397 . S
C843 C844 1.334 . S
C844 H815 0.950 . S
C844 C843 1.334 . S
C844 C845 1.287 . S
C845 C844 1.287 . S
C845 C846 1.524 . S
C845 H848 0.999 . S
C846 H816 0.950 . S
C846 C845 1.524 . S
C846 C847 1.415 . S
C847 H817 0.950 . S
C847 C842 1.363 . S
C847 C846 1.415 . S
H848 C845 0.999 . S
H849 C830 0.913 . S
H850 C868 0.951 . S
H851 C870 0.951 . S
H852 C872 0.950 . S
H853 C873 0.950 . S
H854 C875 0.950 . S
H855 C878 0.950 . S
H856 C879 0.950 . S
H857 C881 0.950 . S
H858 C882 0.950 . S
H859 C883 0.951 . S
H860 C885 0.951 . S
H861 C887 0.950 . S
H862 C888 0.950 . S
H863 C890 0.950 . S
H864 C893 0.950 . S
H865 C894 0.950 . S
H866 C896 0.950 . S
H867 C897 0.950 . S
C868 H850 0.951 . S
C868 C869 1.366 . S
C868 C870 1.388 . S
C869 C868 1.366 . S
C869 C873 1.385 . S
C870 H851 0.951 . S
C870 C868 1.388 . S
C870 C871 1.366 . S
C871 C870 1.366 . S
C871 C872 1.414 . S
C871 C874 1.499 . S
C872 H852 0.950 . S
C872 C871 1.414 . S
C872 C873 1.374 . S
C873 H853 0.950 . S
C873 C869 1.385 . S
C873 C872 1.374 . S
C874 C871 1.499 . S
C874 C875 1.373 . S
C874 C876 1.389 . S
C875 H854 0.950 . S
C875 C874 1.373 . S
C875 C891 1.377 . S
C876 C874 1.389 . S
C876 C877 1.524 . S
C876 C890 1.377 . S
C877 C876 1.524 . S
C877 C878 1.397 . S
C877 C882 1.363 . S
C878 H855 0.950 . S
C878 C877 1.397 . S
C878 C879 1.334 . S
C879 H856 0.950 . S
C879 C878 1.334 . S
C879 C880 1.287 . S
C880 C879 1.287 . S
C880 C881 1.524 . S
C880 H899 0.913 . S
C881 H857 0.950 . S
C881 C880 1.524 . S
C881 C882 1.415 . S
C882 H858 0.950 . S
C882 C877 1.363 . S
C882 C881 1.415 . S
C883 H859 0.951 . S
C883 C884 1.366 . S
C883 C885 1.388 . S
C884 C883 1.366 . S
C884 C888 1.385 . S
C885 H860 0.951 . S
C885 C883 1.388 . S
C885 C886 1.366 . S
C886 C885 1.366 . S
C886 C887 1.414 . S
C886 C889 1.499 . S
C887 H861 0.950 . S
C887 C886 1.414 . S
C887 C888 1.374 . S
C888 H862 0.950 . S
C888 C884 1.385 . S
C888 C887 1.374 . S
C889 C886 1.499 . S
C889 C890 1.373 . S
C889 C891 1.389 . S
C890 H863 0.950 . S
C890 C876 1.377 . S
C890 C889 1.373 . S
C891 C875 1.377 . S
C891 C889 1.389 . S
C891 C892 1.524 . S
C892 C891 1.524 . S
C892 C893 1.397 . S
C892 C897 1.363 . S
C893 H864 0.950 . S
C893 C892 1.397 . S
C893 C894 1.334 . S
C894 H865 0.950 . S
C894 C893 1.334 . S
C894 C895 1.287 . S
C895 C894 1.287 . S
C895 C896 1.524 . S
C895 H898 0.999 . S
C896 H866 0.950 . S
C896 C895 1.524 . S
C896 C897 1.415 . S
C897 H867 0.950 . S
C897 C892 1.363 . S
C897 C896 1.415 . S
H898 C895 0.999 . S
H899 C880 0.913 . S
H900 C918 0.951 . S
H901 C920 0.951 . S
H902 C922 0.950 . S
H903 C923 0.950 . S
H904 C925 0.950 . S
H905 C928 0.950 . S
H906 C929 0.950 . S
H907 C931 0.950 . S
H908 C932 0.950 . S
H909 C933 0.951 . S
H910 C935 0.951 . S
H911 C937 0.950 . S
H912 C938 0.950 . S
H913 C940 0.950 . S
H914 C943 0.950 . S
H915 C944 0.950 . S
H916 C946 0.950 . S
H917 C947 0.950 . S
C918 H900 0.951 . S
C918 C919 1.366 . S
C918 C920 1.388 . S
C919 C918 1.366 . S
C919 C923 1.385 . S
C920 H901 0.951 . S
C920 C918 1.388 . S
C920 C921 1.366 . S
C921 C920 1.366 . S
C921 C922 1.414 . S
C921 C924 1.499 . S
C922 H902 0.950 . S
C922 C921 1.414 . S
C922 C923 1.374 . S
C923 H903 0.950 . S
C923 C919 1.385 . S
C923 C922 1.374 . S
C924 C921 1.499 . S
C924 C925 1.373 . S
C924 C926 1.389 . S
C925 H904 0.950 . S
C925 C924 1.373 . S
C925 C941 1.377 . S
C926 C924 1.389 . S
C926 C927 1.524 . S
C926 C940 1.377 . S
C927 C926 1.524 . S
C927 C928 1.397 1_554 S
C927 C932 1.363 . S
C928 H905 0.950 . S
C928 C927 1.397 1_556 S
C928 C929 1.334 . S
C929 H906 0.950 . S
C929 C928 1.334 . S
C929 C930 1.287 . S
C930 C929 1.287 . S
C930 C931 1.524 . S
C930 H949 0.913 . S
C931 H907 0.950 . S
C931 C930 1.524 . S
C931 C932 1.415 1_556 S
C932 H908 0.950 . S
C932 C927 1.363 . S
C932 C931 1.415 1_554 S
C933 H909 0.951 . S
C933 C934 1.366 . S
C933 C935 1.388 . S
C934 C933 1.366 . S
C934 C938 1.385 . S
C935 H910 0.951 . S
C935 C933 1.388 . S
C935 C936 1.366 . S
C936 C935 1.366 . S
C936 C937 1.414 . S
C936 C939 1.499 . S
C937 H911 0.950 . S
C937 C936 1.414 . S
C937 C938 1.374 . S
C938 H912 0.950 . S
C938 C934 1.385 . S
C938 C937 1.374 . S
C939 C936 1.499 . S
C939 C940 1.373 . S
C939 C941 1.389 . S
C940 H913 0.950 . S
C940 C926 1.377 . S
C940 C939 1.373 . S
C941 C925 1.377 . S
C941 C939 1.389 . S
C941 C942 1.524 . S
C942 C941 1.524 . S
C942 C943 1.397 . S
C942 C947 1.363 . S
C943 H914 0.950 . S
C943 C942 1.397 . S
C943 C944 1.334 . S
C944 H915 0.950 . S
C944 C943 1.334 . S
C944 C945 1.287 . S
C945 C944 1.287 . S
C945 C946 1.524 . S
C945 H948 0.999 . S
C946 H916 0.950 . S
C946 C945 1.524 . S
C946 C947 1.415 . S
C947 H917 0.950 . S
C947 C942 1.363 . S
C947 C946 1.415 . S
H948 C945 0.999 . S
H949 C930 0.913 . S
H950 C968 0.951 . S
H951 C970 0.951 . S
H952 C972 0.950 . S
H953 C973 0.950 . S
H954 C975 0.950 . S
H955 C978 0.950 . S
H956 C979 0.950 . S
H957 C981 0.950 . S
H958 C982 0.950 . S
H959 C983 0.951 . S
H960 C985 0.951 . S
H961 C987 0.950 . S
H962 C988 0.950 . S
H963 C990 0.950 . S
H964 C993 0.950 . S
H965 C994 0.950 . S
H966 C996 0.950 . S
H967 C997 0.950 . S
C968 H950 0.951 . S
C968 C969 1.366 . S
C968 C970 1.388 . S
C969 C968 1.366 . S
C969 C973 1.385 . S
C970 H951 0.951 . S
C970 C968 1.388 . S
C970 C971 1.366 . S
C971 C970 1.366 . S
C971 C972 1.414 . S
C971 C974 1.499 . S
C972 H952 0.950 . S
C972 C971 1.414 . S
C972 C973 1.374 . S
C973 H953 0.950 . S
C973 C969 1.385 . S
C973 C972 1.374 . S
C974 C971 1.499 . S
C974 C975 1.373 . S
C974 C976 1.389 . S
C975 H954 0.950 . S
C975 C974 1.373 . S
C975 C991 1.377 . S
C976 C974 1.389 . S
C976 C977 1.524 . S
C976 C990 1.377 . S
C977 C976 1.524 . S
C977 C978 1.397 . S
C977 C982 1.363 . S
C978 H955 0.950 . S
C978 C977 1.397 . S
C978 C979 1.334 . S
C979 H956 0.950 . S
C979 C978 1.334 . S
C979 C980 1.287 . S
C980 C979 1.287 . S
C980 C981 1.524 . S
C980 H999 0.913 . S
C981 H957 0.950 . S
C981 C980 1.524 . S
C981 C982 1.415 . S
C982 H958 0.950 . S
C982 C977 1.363 . S
C982 C981 1.415 . S
C983 H959 0.951 . S
C983 C984 1.366 . S
C983 C985 1.388 . S
C984 C983 1.366 . S
C984 C988 1.385 . S
C985 H960 0.951 . S
C985 C983 1.388 . S
C985 C986 1.366 . S
C986 C985 1.366 . S
C986 C987 1.414 . S
C986 C989 1.499 . S
C987 H961 0.950 . S
C987 C986 1.414 . S
C987 C988 1.374 . S
C988 H962 0.950 . S
C988 C984 1.385 . S
C988 C987 1.374 . S
C989 C986 1.499 . S
C989 C990 1.373 . S
C989 C991 1.389 . S
C990 H963 0.950 . S
C990 C976 1.377 . S
C990 C989 1.373 . S
C991 C975 1.377 . S
C991 C989 1.389 . S
C991 C992 1.524 . S
C992 C991 1.524 . S
C992 C993 1.397 . S
C992 C997 1.363 . S
C993 H964 0.950 . S
C993 C992 1.397 . S
C993 C994 1.334 . S
C994 H965 0.950 . S
C994 C993 1.334 . S
C994 C995 1.287 . S
C995 C994 1.287 . S
C995 C996 1.524 . S
C995 H998 0.999 . S
C996 H966 0.950 . S
C996 C995 1.524 . S
C996 C997 1.415 . S
C997 H967 0.950 . S
C997 C992 1.363 . S
C997 C996 1.415 . S
H998 C995 0.999 . S
H999 C980 0.913 . S
H1000 C1018 0.951 . S
H1001 C1020 0.951 . S
H1002 C1022 0.950 . S
H1003 C1023 0.950 . S
H1004 C1025 0.950 . S
H1005 C1028 0.950 . S
H1006 C1029 0.950 . S
H1007 C1031 0.950 . S
H1008 C1032 0.950 . S
H1009 C1033 0.951 . S
H1010 C1035 0.951 . S
H1011 C1037 0.950 . S
H1012 C1038 0.950 . S
H1013 C1040 0.950 . S
H1014 C1043 0.950 . S
H1015 C1044 0.950 . S
H1016 C1046 0.950 . S
H1017 C1047 0.950 . S
C1018 H1000 0.951 . S
C1018 C1019 1.366 . S
C1018 C1020 1.388 . S
C1019 C1018 1.366 . S
C1019 C1023 1.385 . S
C1020 H1001 0.951 . S
C1020 C1018 1.388 . S
C1020 C1021 1.366 . S
C1021 C1020 1.366 . S
C1021 C1022 1.414 . S
C1021 C1024 1.499 . S
C1022 H1002 0.950 . S
C1022 C1021 1.414 . S
C1022 C1023 1.374 . S
C1023 H1003 0.950 . S
C1023 C1019 1.385 . S
C1023 C1022 1.374 . S
C1024 C1021 1.499 . S
C1024 C1025 1.373 . S
C1024 C1026 1.389 . S
C1025 H1004 0.950 . S
C1025 C1024 1.373 . S
C1025 C1041 1.377 . S
C1026 C1024 1.389 . S
C1026 C1027 1.524 . S
C1026 C1040 1.377 . S
C1027 C1026 1.524 . S
C1027 C1028 1.397 . S
C1027 C1032 1.363 . S
C1028 H1005 0.950 . S
C1028 C1027 1.397 . S
C1028 C1029 1.334 . S
C1029 H1006 0.950 . S
C1029 C1028 1.334 . S
C1029 C1030 1.287 . S
C1030 C1029 1.287 . S
C1030 C1031 1.524 . S
C1030 H1049 0.913 . S
C1031 H1007 0.950 . S
C1031 C1030 1.524 . S
C1031 C1032 1.415 . S
C1032 H1008 0.950 . S
C1032 C1027 1.363 . S
C1032 C1031 1.415 . S
C1033 H1009 0.951 . S
C1033 C1034 1.366 . S
C1033 C1035 1.388 . S
C1034 C1033 1.366 . S
C1034 C1038 1.385 . S
C1035 H1010 0.951 . S
C1035 C1033 1.388 . S
C1035 C1036 1.366 . S
C1036 C1035 1.366 . S
C1036 C1037 1.414 . S
C1036 C1039 1.499 . S
C1037 H1011 0.950 . S
C1037 C1036 1.414 . S
C1037 C1038 1.374 . S
C1038 H1012 0.950 . S
C1038 C1034 1.385 . S
C1038 C1037 1.374 . S
C1039 C1036 1.499 . S
C1039 C1040 1.373 . S
C1039 C1041 1.389 . S
C1040 H1013 0.950 . S
C1040 C1026 1.377 . S
C1040 C1039 1.373 . S
C1041 C1025 1.377 . S
C1041 C1039 1.389 . S
C1041 C1042 1.524 . S
C1042 C1041 1.524 . S
C1042 C1043 1.397 . S
C1042 C1047 1.363 . S
C1043 H1014 0.950 . S
C1043 C1042 1.397 . S
C1043 C1044 1.334 . S
C1044 H1015 0.950 . S
C1044 C1043 1.334 . S
C1044 C1045 1.287 . S
C1045 C1044 1.287 . S
C1045 C1046 1.524 . S
C1045 H1048 0.999 . S
C1046 H1016 0.950 . S
C1046 C1045 1.524 . S
C1046 C1047 1.415 . S
C1047 H1017 0.950 . S
C1047 C1042 1.363 . S
C1047 C1046 1.415 . S
H1048 C1045 0.999 . S
H1049 C1030 0.913 . S
H1050 C1068 0.951 . S
H1051 C1070 0.951 . S
H1052 C1072 0.950 . S
H1053 C1073 0.950 . S
H1054 C1075 0.950 . S
H1055 C1078 0.950 . S
H1056 C1079 0.950 . S
H1057 C1081 0.950 . S
H1058 C1082 0.950 . S
H1059 C1083 0.951 . S
H1060 C1085 0.951 . S
H1061 C1087 0.950 . S
H1062 C1088 0.950 . S
H1063 C1090 0.950 . S
H1064 C1093 0.950 . S
H1065 C1094 0.950 . S
H1066 C1096 0.950 . S
H1067 C1097 0.950 . S
C1068 H1050 0.951 . S
C1068 C1069 1.366 . S
C1068 C1070 1.388 . S
C1069 C1068 1.366 . S
C1069 C1073 1.385 . S
C1070 H1051 0.951 . S
C1070 C1068 1.388 . S
C1070 C1071 1.366 . S
C1071 C1070 1.366 . S
C1071 C1072 1.414 . S
C1071 C1074 1.499 . S
C1072 H1052 0.950 . S
C1072 C1071 1.414 . S
C1072 C1073 1.374 . S
C1073 H1053 0.950 . S
C1073 C1069 1.385 . S
C1073 C1072 1.374 . S
C1074 C1071 1.499 . S
C1074 C1075 1.373 . S
C1074 C1076 1.389 . S
C1075 H1054 0.950 . S
C1075 C1074 1.373 . S
C1075 C1091 1.377 . S
C1076 C1074 1.389 . S
C1076 C1077 1.524 . S
C1076 C1090 1.377 . S
C1077 C1076 1.524 . S
C1077 C1078 1.397 . S
C1077 C1082 1.363 . S
C1078 H1055 0.950 . S
C1078 C1077 1.397 . S
C1078 C1079 1.334 . S
C1079 H1056 0.950 . S
C1079 C1078 1.334 . S
C1079 C1080 1.287 . S
C1080 C1079 1.287 . S
C1080 C1081 1.524 . S
C1080 H1099 0.913 . S
C1081 H1057 0.950 . S
C1081 C1080 1.524 . S
C1081 C1082 1.415 . S
C1082 H1058 0.950 . S
C1082 C1077 1.363 . S
C1082 C1081 1.415 . S
C1083 H1059 0.951 . S
C1083 C1084 1.366 . S
C1083 C1085 1.388 . S
C1084 C1083 1.366 . S
C1084 C1088 1.385 . S
C1085 H1060 0.951 . S
C1085 C1083 1.388 . S
C1085 C1086 1.366 . S
C1086 C1085 1.366 . S
C1086 C1087 1.414 . S
C1086 C1089 1.499 . S
C1087 H1061 0.950 . S
C1087 C1086 1.414 . S
C1087 C1088 1.374 . S
C1088 H1062 0.950 . S
C1088 C1084 1.385 . S
C1088 C1087 1.374 . S
C1089 C1086 1.499 . S
C1089 C1090 1.373 . S
C1089 C1091 1.389 . S
C1090 H1063 0.950 . S
C1090 C1076 1.377 . S
C1090 C1089 1.373 . S
C1091 C1075 1.377 . S
C1091 C1089 1.389 . S
C1091 C1092 1.524 . S
C1092 C1091 1.524 . S
C1092 C1093 1.397 . S
C1092 C1097 1.363 . S
C1093 H1064 0.950 . S
C1093 C1092 1.397 . S
C1093 C1094 1.334 . S
C1094 H1065 0.950 . S
C1094 C1093 1.334 . S
C1094 C1095 1.287 . S
C1095 C1094 1.287 . S
C1095 C1096 1.524 . S
C1095 H1098 0.999 . S
C1096 H1066 0.950 . S
C1096 C1095 1.524 . S
C1096 C1097 1.415 . S
C1097 H1067 0.950 . S
C1097 C1092 1.363 . S
C1097 C1096 1.415 . S
H1098 C1095 0.999 . S
H1099 C1080 0.913 . S
H1100 C1118 0.951 . S
H1101 C1120 0.951 . S
H1102 C1122 0.950 . S
H1103 C1123 0.950 . S
H1104 C1125 0.950 . S
H1105 C1128 0.950 . S
H1106 C1129 0.950 . S
H1107 C1131 0.950 . S
H1108 C1132 0.950 . S
H1109 C1133 0.951 . S
H1110 C1135 0.951 . S
H1111 C1137 0.950 . S
H1112 C1138 0.950 . S
H1113 C1140 0.950 . S
H1114 C1143 0.950 . S
H1115 C1144 0.950 . S
H1116 C1146 0.950 . S
H1117 C1147 0.950 . S
C1118 H1100 0.951 . S
C1118 C1119 1.366 . S
C1118 C1120 1.388 . S
C1119 C1118 1.366 . S
C1119 C1123 1.385 . S
C1120 H1101 0.951 . S
C1120 C1118 1.388 . S
C1120 C1121 1.366 . S
C1121 C1120 1.366 . S
C1121 C1122 1.414 . S
C1121 C1124 1.499 . S
C1122 H1102 0.950 . S
C1122 C1121 1.414 . S
C1122 C1123 1.374 . S
C1123 H1103 0.950 . S
C1123 C1119 1.385 . S
C1123 C1122 1.374 . S
C1124 C1121 1.499 . S
C1124 C1125 1.373 . S
C1124 C1126 1.389 . S
C1125 H1104 0.950 . S
C1125 C1124 1.373 . S
C1125 C1141 1.377 . S
C1126 C1124 1.389 . S
C1126 C1127 1.524 . S
C1126 C1140 1.377 . S
C1127 C1126 1.524 . S
C1127 C1128 1.397 . S
C1127 C1132 1.363 . S
C1128 H1105 0.950 . S
C1128 C1127 1.397 . S
C1128 C1129 1.334 . S
C1129 H1106 0.950 . S
C1129 C1128 1.334 . S
C1129 C1130 1.287 . S
C1130 C1129 1.287 . S
C1130 C1131 1.524 . S
C1130 H1149 0.913 . S
C1131 H1107 0.950 . S
C1131 C1130 1.524 . S
C1131 C1132 1.415 . S
C1132 H1108 0.950 . S
C1132 C1127 1.363 . S
C1132 C1131 1.415 . S
C1133 H1109 0.951 . S
C1133 C1134 1.366 . S
C1133 C1135 1.388 . S
C1134 C1133 1.366 . S
C1134 C1138 1.385 . S
C1135 H1110 0.951 . S
C1135 C1133 1.388 . S
C1135 C1136 1.366 . S
C1136 C1135 1.366 . S
C1136 C1137 1.414 . S
C1136 C1139 1.499 . S
C1137 H1111 0.950 . S
C1137 C1136 1.414 . S
C1137 C1138 1.374 . S
C1138 H1112 0.950 . S
C1138 C1134 1.385 . S
C1138 C1137 1.374 . S
C1139 C1136 1.499 . S
C1139 C1140 1.373 . S
C1139 C1141 1.389 . S
C1140 H1113 0.950 . S
C1140 C1126 1.377 . S
C1140 C1139 1.373 . S
C1141 C1125 1.377 . S
C1141 C1139 1.389 . S
C1141 C1142 1.524 . S
C1142 C1141 1.524 . S
C1142 C1143 1.397 . S
C1142 C1147 1.363 . S
C1143 H1114 0.950 . S
C1143 C1142 1.397 . S
C1143 C1144 1.334 . S
C1144 H1115 0.950 . S
C1144 C1143 1.334 . S
C1144 C1145 1.287 . S
C1145 C1144 1.287 . S
C1145 C1146 1.524 . S
C1145 H1148 0.999 . S
C1146 H1116 0.950 . S
C1146 C1145 1.524 . S
C1146 C1147 1.415 . S
C1147 H1117 0.950 . S
C1147 C1142 1.363 . S
C1147 C1146 1.415 . S
H1148 C1145 0.999 . S
H1149 C1130 0.913 . S
H1150 C1168 0.951 . S
H1151 C1170 0.951 . S
H1152 C1172 0.950 . S
H1153 C1173 0.950 . S
H1154 C1175 0.950 . S
H1155 C1178 0.950 . S
H1156 C1179 0.950 . S
H1157 C1181 0.950 . S
H1158 C1182 0.950 . S
H1159 C1183 0.951 . S
H1160 C1185 0.951 . S
H1161 C1187 0.950 . S
H1162 C1188 0.950 . S
H1163 C1190 0.950 . S
H1164 C1193 0.950 . S
H1165 C1194 0.950 . S
H1166 C1196 0.950 . S
H1167 C1197 0.950 . S
C1168 H1150 0.951 . S
C1168 C1169 1.366 . S
C1168 C1170 1.388 . S
C1169 C1168 1.366 . S
C1169 C1173 1.385 . S
C1170 H1151 0.951 . S
C1170 C1168 1.388 . S
C1170 C1171 1.366 . S
C1171 C1170 1.366 . S
C1171 C1172 1.414 . S
C1171 C1174 1.499 . S
C1172 H1152 0.950 . S
C1172 C1171 1.414 . S
C1172 C1173 1.374 . S
C1173 H1153 0.950 . S
C1173 C1169 1.385 . S
C1173 C1172 1.374 . S
C1174 C1171 1.499 . S
C1174 C1175 1.373 . S
C1174 C1176 1.389 . S
C1175 H1154 0.950 . S
C1175 C1174 1.373 . S
C1175 C1191 1.377 . S
C1176 C1174 1.389 . S
C1176 C1177 1.524 . S
C1176 C1190 1.377 . S
C1177 C1176 1.524 . S
C1177 C1178 1.397 . S
C1177 C1182 1.363 . S
C1178 H1155 0.950 . S
C1178 C1177 1.397 . S
C1178 C1179 1.334 . S
C1179 H1156 0.950 . S
C1179 C1178 1.334 . S
C1179 C1180 1.287 . S
C1180 C1179 1.287 . S
C1180 C1181 1.524 . S
C1180 H1199 0.913 . S
C1181 H1157 0.950 . S
C1181 C1180 1.524 . S
C1181 C1182 1.415 . S
C1182 H1158 0.950 . S
C1182 C1177 1.363 . S
C1182 C1181 1.415 . S
C1183 H1159 0.951 . S
C1183 C1184 1.366 . S
C1183 C1185 1.388 . S
C1184 C1183 1.366 . S
C1184 C1188 1.385 . S
C1185 H1160 0.951 . S
C1185 C1183 1.388 . S
C1185 C1186 1.366 . S
C1186 C1185 1.366 . S
C1186 C1187 1.414 . S
C1186 C1189 1.499 . S
C1187 H1161 0.950 . S
C1187 C1186 1.414 . S
C1187 C1188 1.374 . S
C1188 H1162 0.950 . S
C1188 C1184 1.385 . S
C1188 C1187 1.374 . S
C1189 C1186 1.499 . S
C1189 C1190 1.373 . S
C1189 C1191 1.389 . S
C1190 H1163 0.950 . S
C1190 C1176 1.377 . S
C1190 C1189 1.373 . S
C1191 C1175 1.377 . S
C1191 C1189 1.389 . S
C1191 C1192 1.524 . S
C1192 C1191 1.524 . S
C1192 C1193 1.397 . S
C1192 C1197 1.363 . S
C1193 H1164 0.950 . S
C1193 C1192 1.397 . S
C1193 C1194 1.334 . S
C1194 H1165 0.950 . S
C1194 C1193 1.334 . S
C1194 C1195 1.287 . S
C1195 C1194 1.287 . S
C1195 C1196 1.524 . S
C1195 H1198 0.999 . S
C1196 H1166 0.950 . S
C1196 C1195 1.524 . S
C1196 C1197 1.415 . S
C1197 H1167 0.950 . S
C1197 C1192 1.363 . S
C1197 C1196 1.415 . S
H1198 C1195 0.999 . S
H1199 C1180 0.913 . S
H1200 C1218 0.951 . S
H1201 C1220 0.951 . S
H1202 C1222 0.950 . S
H1203 C1223 0.950 . S
H1204 C1225 0.950 . S
H1205 C1228 0.950 . S
H1206 C1229 0.950 . S
H1207 C1231 0.950 . S
H1208 C1232 0.950 . S
H1209 C1233 0.951 . S
H1210 C1235 0.951 . S
H1211 C1237 0.950 . S
H1212 C1238 0.950 . S
H1213 C1240 0.950 . S
H1214 C1243 0.950 . S
H1215 C1244 0.950 . S
H1216 C1246 0.950 . S
H1217 C1247 0.950 . S
C1218 H1200 0.951 . S
C1218 C1219 1.366 . S
C1218 C1220 1.388 . S
C1219 C1218 1.366 . S
C1219 C1223 1.385 . S
C1220 H1201 0.951 . S
C1220 C1218 1.388 . S
C1220 C1221 1.366 . S
C1221 C1220 1.366 . S
C1221 C1222 1.414 . S
C1221 C1224 1.499 . S
C1222 H1202 0.950 . S
C1222 C1221 1.414 . S
C1222 C1223 1.374 . S
C1223 H1203 0.950 . S
C1223 C1219 1.385 . S
C1223 C1222 1.374 . S
C1224 C1221 1.499 . S
C1224 C1225 1.373 . S
C1224 C1226 1.389 . S
C1225 H1204 0.950 . S
C1225 C1224 1.373 . S
C1225 C1241 1.377 . S
C1226 C1224 1.389 . S
C1226 C1227 1.524 . S
C1226 C1240 1.377 . S
C1227 C1226 1.524 . S
C1227 C1228 1.397 . S
C1227 C1232 1.363 . S
C1228 H1205 0.950 . S
C1228 C1227 1.397 . S
C1228 C1229 1.334 . S
C1229 H1206 0.950 . S
C1229 C1228 1.334 . S
C1229 C1230 1.287 . S
C1230 C1229 1.287 . S
C1230 C1231 1.524 . S
C1230 H1249 0.913 . S
C1231 H1207 0.950 . S
C1231 C1230 1.524 . S
C1231 C1232 1.415 . S
C1232 H1208 0.950 . S
C1232 C1227 1.363 . S
C1232 C1231 1.415 . S
C1233 H1209 0.951 . S
C1233 C1234 1.366 . S
C1233 C1235 1.388 1_554 S
C1234 C1233 1.366 . S
C1234 C1238 1.385 . S
C1235 H1210 0.951 . S
C1235 C1233 1.388 1_556 S
C1235 C1236 1.366 . S
C1236 C1235 1.366 . S
C1236 C1237 1.414 1_556 S
C1236 C1239 1.499 . S
C1237 H1211 0.950 . S
C1237 C1236 1.414 1_554 S
C1237 C1238 1.374 . S
C1238 H1212 0.950 . S
C1238 C1234 1.385 . S
C1238 C1237 1.374 . S
C1239 C1236 1.499 . S
C1239 C1240 1.373 . S
C1239 C1241 1.389 . S
C1240 H1213 0.950 . S
C1240 C1226 1.377 . S
C1240 C1239 1.373 . S
C1241 C1225 1.377 . S
C1241 C1239 1.389 . S
C1241 C1242 1.524 . S
C1242 C1241 1.524 . S
C1242 C1243 1.397 . S
C1242 C1247 1.363 . S
C1243 H1214 0.950 . S
C1243 C1242 1.397 . S
C1243 C1244 1.334 . S
C1244 H1215 0.950 . S
C1244 C1243 1.334 . S
C1244 C1245 1.287 . S
C1245 C1244 1.287 . S
C1245 C1246 1.524 . S
C1245 H1248 0.999 . S
C1246 H1216 0.950 . S
C1246 C1245 1.524 . S
C1246 C1247 1.415 . S
C1247 H1217 0.950 . S
C1247 C1242 1.363 . S
C1247 C1246 1.415 . S
H1248 C1245 0.999 . S
H1249 C1230 0.913 . S
H1250 C1268 0.951 . S
H1251 C1270 0.951 . S
H1252 C1272 0.950 . S
H1253 C1273 0.950 . S
H1254 C1275 0.950 . S
H1255 C1278 0.950 . S
H1256 C1279 0.950 . S
H1257 C1281 0.950 . S
H1258 C1282 0.950 . S
H1259 C1283 0.951 . S
H1260 C1285 0.951 . S
H1261 C1287 0.950 . S
H1262 C1288 0.950 . S
H1263 C1290 0.950 . S
H1264 C1293 0.950 . S
H1265 C1294 0.950 . S
H1266 C1296 0.950 . S
H1267 C1297 0.950 . S
C1268 H1250 0.951 . S
C1268 C1269 1.366 . S
C1268 C1270 1.388 . S
C1269 C1268 1.366 . S
C1269 C1273 1.385 . S
C1270 H1251 0.951 . S
C1270 C1268 1.388 . S
C1270 C1271 1.366 . S
C1271 C1270 1.366 . S
C1271 C1272 1.414 . S
C1271 C1274 1.499 . S
C1272 H1252 0.950 . S
C1272 C1271 1.414 . S
C1272 C1273 1.374 . S
C1273 H1253 0.950 . S
C1273 C1269 1.385 . S
C1273 C1272 1.374 . S
C1274 C1271 1.499 . S
C1274 C1275 1.373 . S
C1274 C1276 1.389 . S
C1275 H1254 0.950 . S
C1275 C1274 1.373 . S
C1275 C1291 1.377 . S
C1276 C1274 1.389 . S
C1276 C1277 1.524 . S
C1276 C1290 1.377 . S
C1277 C1276 1.524 . S
C1277 C1278 1.397 . S
C1277 C1282 1.363 . S
C1278 H1255 0.950 . S
C1278 C1277 1.397 . S
C1278 C1279 1.334 . S
C1279 H1256 0.950 . S
C1279 C1278 1.334 . S
C1279 C1280 1.287 . S
C1280 C1279 1.287 . S
C1280 C1281 1.524 . S
C1280 H1299 0.913 . S
C1281 H1257 0.950 . S
C1281 C1280 1.524 . S
C1281 C1282 1.415 . S
C1282 H1258 0.950 . S
C1282 C1277 1.363 . S
C1282 C1281 1.415 . S
C1283 H1259 0.951 . S
C1283 C1284 1.366 . S
C1283 C1285 1.388 . S
C1284 C1283 1.366 . S
C1284 C1288 1.385 . S
C1285 H1260 0.951 . S
C1285 C1283 1.388 . S
C1285 C1286 1.366 . S
C1286 C1285 1.366 . S
C1286 C1287 1.414 . S
C1286 C1289 1.499 . S
C1287 H1261 0.950 . S
C1287 C1286 1.414 . S
C1287 C1288 1.374 . S
C1288 H1262 0.950 . S
C1288 C1284 1.385 . S
C1288 C1287 1.374 . S
C1289 C1286 1.499 . S
C1289 C1290 1.373 . S
C1289 C1291 1.389 . S
C1290 H1263 0.950 . S
C1290 C1276 1.377 . S
C1290 C1289 1.373 . S
C1291 C1275 1.377 . S
C1291 C1289 1.389 . S
C1291 C1292 1.524 . S
C1292 C1291 1.524 . S
C1292 C1293 1.397 . S
C1292 C1297 1.363 . S
C1293 H1264 0.950 . S
C1293 C1292 1.397 . S
C1293 C1294 1.334 . S
C1294 H1265 0.950 . S
C1294 C1293 1.334 . S
C1294 C1295 1.287 . S
C1295 C1294 1.287 . S
C1295 C1296 1.524 . S
C1295 H1298 0.999 . S
C1296 H1266 0.950 . S
C1296 C1295 1.524 . S
C1296 C1297 1.415 . S
C1297 H1267 0.950 . S
C1297 C1292 1.363 . S
C1297 C1296 1.415 . S
H1298 C1295 0.999 . S
H1299 C1280 0.913 . S
H1300 C1318 0.951 . S
H1301 C1320 0.951 . S
H1302 C1322 0.950 . S
H1303 C1323 0.950 . S
H1304 C1325 0.950 . S
H1305 C1328 0.950 . S
H1306 C1329 0.950 . S
H1307 C1331 0.950 . S
H1308 C1332 0.950 . S
H1309 C1333 0.951 . S
H1310 C1335 0.951 . S
H1311 C1337 0.950 . S
H1312 C1338 0.950 . S
H1313 C1340 0.950 . S
H1314 C1343 0.950 . S
H1315 C1344 0.950 . S
H1316 C1346 0.950 . S
H1317 C1347 0.950 . S
C1318 H1300 0.951 . S
C1318 C1319 1.366 . S
C1318 C1320 1.388 . S
C1319 C1318 1.366 . S
C1319 C1323 1.385 . S
C1320 H1301 0.951 . S
C1320 C1318 1.388 . S
C1320 C1321 1.366 . S
C1321 C1320 1.366 . S
C1321 C1322 1.414 . S
C1321 C1324 1.499 . S
C1322 H1302 0.950 . S
C1322 C1321 1.414 . S
C1322 C1323 1.374 . S
C1323 H1303 0.950 . S
C1323 C1319 1.385 . S
C1323 C1322 1.374 . S
C1324 C1321 1.499 . S
C1324 C1325 1.373 . S
C1324 C1326 1.389 . S
C1325 H1304 0.950 . S
C1325 C1324 1.373 . S
C1325 C1341 1.377 . S
C1326 C1324 1.389 . S
C1326 C1327 1.524 . S
C1326 C1340 1.377 . S
C1327 C1326 1.524 . S
C1327 C1328 1.397 . S
C1327 C1332 1.363 . S
C1328 H1305 0.950 . S
C1328 C1327 1.397 . S
C1328 C1329 1.334 . S
C1329 H1306 0.950 . S
C1329 C1328 1.334 . S
C1329 C1330 1.287 . S
C1330 C1329 1.287 . S
C1330 C1331 1.524 . S
C1330 H1349 0.913 . S
C1331 H1307 0.950 . S
C1331 C1330 1.524 . S
C1331 C1332 1.415 . S
C1332 H1308 0.950 . S
C1332 C1327 1.363 . S
C1332 C1331 1.415 . S
C1333 H1309 0.951 . S
C1333 C1334 1.366 . S
C1333 C1335 1.388 . S
C1334 C1333 1.366 . S
C1334 C1338 1.385 . S
C1335 H1310 0.951 . S
C1335 C1333 1.388 . S
C1335 C1336 1.366 . S
C1336 C1335 1.366 . S
C1336 C1337 1.414 . S
C1336 C1339 1.499 . S
C1337 H1311 0.950 . S
C1337 C1336 1.414 . S
C1337 C1338 1.374 . S
C1338 H1312 0.950 . S
C1338 C1334 1.385 . S
C1338 C1337 1.374 . S
C1339 C1336 1.499 . S
C1339 C1340 1.373 . S
C1339 C1341 1.389 . S
C1340 H1313 0.950 . S
C1340 C1326 1.377 . S
C1340 C1339 1.373 . S
C1341 C1325 1.377 . S
C1341 C1339 1.389 . S
C1341 C1342 1.524 . S
C1342 C1341 1.524 . S
C1342 C1343 1.397 . S
C1342 C1347 1.363 . S
C1343 H1314 0.950 . S
C1343 C1342 1.397 . S
C1343 C1344 1.334 . S
C1344 H1315 0.950 . S
C1344 C1343 1.334 . S
C1344 C1345 1.287 . S
C1345 C1344 1.287 . S
C1345 C1346 1.524 . S
C1345 H1348 0.999 . S
C1346 H1316 0.950 . S
C1346 C1345 1.524 . S
C1346 C1347 1.415 . S
C1347 H1317 0.950 . S
C1347 C1342 1.363 . S
C1347 C1346 1.415 . S
H1348 C1345 0.999 . S
H1349 C1330 0.913 . S
H1350 C1368 0.951 . S
H1351 C1370 0.951 . S
H1352 C1372 0.950 . S
H1353 C1373 0.950 . S
H1354 C1375 0.950 . S
H1355 C1378 0.950 . S
H1356 C1379 0.950 . S
H1357 C1381 0.950 . S
H1358 C1382 0.950 . S
H1359 C1383 0.951 . S
H1360 C1385 0.951 . S
H1361 C1387 0.950 . S
H1362 C1388 0.950 . S
H1363 C1390 0.950 . S
H1364 C1393 0.950 . S
H1365 C1394 0.950 . S
H1366 C1396 0.950 . S
H1367 C1397 0.950 . S
C1368 H1350 0.951 . S
C1368 C1369 1.366 . S
C1368 C1370 1.388 . S
C1369 C1368 1.366 . S
C1369 C1373 1.385 . S
C1370 H1351 0.951 . S
C1370 C1368 1.388 . S
C1370 C1371 1.366 . S
C1371 C1370 1.366 . S
C1371 C1372 1.414 . S
C1371 C1374 1.499 . S
C1372 H1352 0.950 . S
C1372 C1371 1.414 . S
C1372 C1373 1.374 . S
C1373 H1353 0.950 . S
C1373 C1369 1.385 . S
C1373 C1372 1.374 . S
C1374 C1371 1.499 . S
C1374 C1375 1.373 . S
C1374 C1376 1.389 . S
C1375 H1354 0.950 . S
C1375 C1374 1.373 . S
C1375 C1391 1.377 . S
C1376 C1374 1.389 . S
C1376 C1377 1.524 . S
C1376 C1390 1.377 . S
C1377 C1376 1.524 . S
C1377 C1378 1.397 . S
C1377 C1382 1.363 . S
C1378 H1355 0.950 . S
C1378 C1377 1.397 . S
C1378 C1379 1.334 . S
C1379 H1356 0.950 . S
C1379 C1378 1.334 . S
C1379 C1380 1.287 . S
C1380 C1379 1.287 . S
C1380 C1381 1.524 . S
C1380 H1399 0.913 . S
C1381 H1357 0.950 . S
C1381 C1380 1.524 . S
C1381 C1382 1.415 . S
C1382 H1358 0.950 . S
C1382 C1377 1.363 . S
C1382 C1381 1.415 . S
C1383 H1359 0.951 . S
C1383 C1384 1.366 . S
C1383 C1385 1.388 . S
C1384 C1383 1.366 . S
C1384 C1388 1.385 . S
C1385 H1360 0.951 . S
C1385 C1383 1.388 . S
C1385 C1386 1.366 . S
C1386 C1385 1.366 . S
C1386 C1387 1.414 . S
C1386 C1389 1.499 . S
C1387 H1361 0.950 . S
C1387 C1386 1.414 . S
C1387 C1388 1.374 . S
C1388 H1362 0.950 . S
C1388 C1384 1.385 . S
C1388 C1387 1.374 . S
C1389 C1386 1.499 . S
C1389 C1390 1.373 . S
C1389 C1391 1.389 . S
C1390 H1363 0.950 . S
C1390 C1376 1.377 . S
C1390 C1389 1.373 . S
C1391 C1375 1.377 . S
C1391 C1389 1.389 . S
C1391 C1392 1.524 . S
C1392 C1391 1.524 . S
C1392 C1393 1.397 . S
C1392 C1397 1.363 . S
C1393 H1364 0.950 . S
C1393 C1392 1.397 . S
C1393 C1394 1.334 . S
C1394 H1365 0.950 . S
C1394 C1393 1.334 . S
C1394 C1395 1.287 . S
C1395 C1394 1.287 . S
C1395 C1396 1.524 . S
C1395 H1398 0.999 . S
C1396 H1366 0.950 . S
C1396 C1395 1.524 . S
C1396 C1397 1.415 . S
C1397 H1367 0.950 . S
C1397 C1392 1.363 . S
C1397 C1396 1.415 . S
H1398 C1395 0.999 . S
H1399 C1380 0.913 . S
H1400 C1418 0.951 . S
H1401 C1420 0.951 . S
H1402 C1422 0.950 . S
H1403 C1423 0.950 . S
H1404 C1425 0.950 . S
H1405 C1428 0.950 . S
H1406 C1429 0.950 . S
H1407 C1431 0.950 . S
H1408 C1432 0.950 . S
H1409 C1433 0.951 . S
H1410 C1435 0.951 . S
H1411 C1437 0.950 . S
H1412 C1438 0.950 . S
H1413 C1440 0.950 . S
H1414 C1443 0.950 . S
H1415 C1444 0.950 . S
H1416 C1446 0.950 . S
H1417 C1447 0.950 . S
C1418 H1400 0.951 . S
C1418 C1419 1.366 . S
C1418 C1420 1.388 . S
C1419 C1418 1.366 . S
C1419 C1423 1.385 . S
C1420 H1401 0.951 . S
C1420 C1418 1.388 . S
C1420 C1421 1.366 . S
C1421 C1420 1.366 . S
C1421 C1422 1.414 . S
C1421 C1424 1.499 . S
C1422 H1402 0.950 . S
C1422 C1421 1.414 . S
C1422 C1423 1.374 . S
C1423 H1403 0.950 . S
C1423 C1419 1.385 . S
C1423 C1422 1.374 . S
C1424 C1421 1.499 . S
C1424 C1425 1.373 . S
C1424 C1426 1.389 . S
C1425 H1404 0.950 . S
C1425 C1424 1.373 . S
C1425 C1441 1.377 . S
C1426 C1424 1.389 . S
C1426 C1427 1.524 . S
C1426 C1440 1.377 . S
C1427 C1426 1.524 . S
C1427 C1428 1.397 . S
C1427 C1432 1.363 . S
C1428 H1405 0.950 . S
C1428 C1427 1.397 . S
C1428 C1429 1.334 . S
C1429 H1406 0.950 . S
C1429 C1428 1.334 . S
C1429 C1430 1.287 . S
C1430 C1429 1.287 . S
C1430 C1431 1.524 . S
C1430 H1449 0.913 . S
C1431 H1407 0.950 . S
C1431 C1430 1.524 . S
C1431 C1432 1.415 . S
C1432 H1408 0.950 . S
C1432 C1427 1.363 . S
C1432 C1431 1.415 . S
C1433 H1409 0.951 . S
C1433 C1434 1.366 . S
C1433 C1435 1.388 . S
C1434 C1433 1.366 . S
C1434 C1438 1.385 . S
C1435 H1410 0.951 . S
C1435 C1433 1.388 . S
C1435 C1436 1.366 . S
C1436 C1435 1.366 . S
C1436 C1437 1.414 . S
C1436 C1439 1.499 . S
C1437 H1411 0.950 . S
C1437 C1436 1.414 . S
C1437 C1438 1.374 . S
C1438 H1412 0.950 . S
C1438 C1434 1.385 . S
C1438 C1437 1.374 . S
C1439 C1436 1.499 . S
C1439 C1440 1.373 . S
C1439 C1441 1.389 . S
C1440 H1413 0.950 . S
C1440 C1426 1.377 . S
C1440 C1439 1.373 . S
C1441 C1425 1.377 . S
C1441 C1439 1.389 . S
C1441 C1442 1.524 . S
C1442 C1441 1.524 . S
C1442 C1443 1.397 . S
C1442 C1447 1.363 . S
C1443 H1414 0.950 . S
C1443 C1442 1.397 . S
C1443 C1444 1.334 . S
C1444 H1415 0.950 . S
C1444 C1443 1.334 . S
C1444 C1445 1.287 . S
C1445 C1444 1.287 . S
C1445 C1446 1.524 . S
C1445 H1448 0.999 . S
C1446 H1416 0.950 . S
C1446 C1445 1.524 . S
C1446 C1447 1.415 . S
C1447 H1417 0.950 . S
C1447 C1442 1.363 . S
C1447 C1446 1.415 . S
H1448 C1445 0.999 . S
H1449 C1430 0.913 . S
H1450 C1468 0.951 . S
H1451 C1470 0.951 . S
H1452 C1472 0.950 . S
H1453 C1473 0.950 . S
H1454 C1475 0.950 . S
H1455 C1478 0.950 . S
H1456 C1479 0.950 . S
H1457 C1481 0.950 . S
H1458 C1482 0.950 . S
H1459 C1483 0.951 . S
H1460 C1485 0.951 . S
H1461 C1487 0.950 . S
H1462 C1488 0.950 . S
H1463 C1490 0.950 . S
H1464 C1493 0.950 . S
H1465 C1494 0.950 . S
H1466 C1496 0.950 . S
H1467 C1497 0.950 . S
C1468 H1450 0.951 . S
C1468 C1469 1.366 . S
C1468 C1470 1.388 . S
C1469 C1468 1.366 . S
C1469 C1473 1.385 . S
C1470 H1451 0.951 . S
C1470 C1468 1.388 . S
C1470 C1471 1.366 . S
C1471 C1470 1.366 . S
C1471 C1472 1.414 . S
C1471 C1474 1.499 . S
C1472 H1452 0.950 . S
C1472 C1471 1.414 . S
C1472 C1473 1.374 . S
C1473 H1453 0.950 . S
C1473 C1469 1.385 . S
C1473 C1472 1.374 . S
C1474 C1471 1.499 . S
C1474 C1475 1.373 . S
C1474 C1476 1.389 . S
C1475 H1454 0.950 . S
C1475 C1474 1.373 . S
C1475 C1491 1.377 . S
C1476 C1474 1.389 . S
C1476 C1477 1.524 . S
C1476 C1490 1.377 . S
C1477 C1476 1.524 . S
C1477 C1478 1.397 . S
C1477 C1482 1.363 . S
C1478 H1455 0.950 . S
C1478 C1477 1.397 . S
C1478 C1479 1.334 . S
C1479 H1456 0.950 . S
C1479 C1478 1.334 . S
C1479 C1480 1.287 . S
C1480 C1479 1.287 . S
C1480 C1481 1.524 . S
C1480 H1499 0.913 . S
C1481 H1457 0.950 . S
C1481 C1480 1.524 . S
C1481 C1482 1.415 . S
C1482 H1458 0.950 . S
C1482 C1477 1.363 . S
C1482 C1481 1.415 . S
C1483 H1459 0.951 . S
C1483 C1484 1.366 . S
C1483 C1485 1.388 . S
C1484 C1483 1.366 . S
C1484 C1488 1.385 . S
C1485 H1460 0.951 . S
C1485 C1483 1.388 . S
C1485 C1486 1.366 . S
C1486 C1485 1.366 . S
C1486 C1487 1.414 . S
C1486 C1489 1.499 . S
C1487 H1461 0.950 . S
C1487 C1486 1.414 . S
C1487 C1488 1.374 . S
C1488 H1462 0.950 . S
C1488 C1484 1.385 . S
C1488 C1487 1.374 . S
C1489 C1486 1.499 . S
C1489 C1490 1.373 . S
C1489 C1491 1.389 . S
C1490 H1463 0.950 . S
C1490 C1476 1.377 . S
C1490 C1489 1.373 . S
C1491 C1475 1.377 . S
C1491 C1489 1.389 . S
C1491 C1492 1.524 . S
C1492 C1491 1.524 . S
C1492 C1493 1.397 . S
C1492 C1497 1.363 . S
C1493 H1464 0.950 . S
C1493 C1492 1.397 . S
C1493 C1494 1.334 . S
C1494 H1465 0.950 . S
C1494 C1493 1.334 . S
C1494 C1495 1.287 . S
C1495 C1494 1.287 . S
C1495 C1496 1.524 . S
C1495 H1498 0.999 . S
C1496 H1466 0.950 . S
C1496 C1495 1.524 . S
C1496 C1497 1.415 . S
C1497 H1467 0.950 . S
C1497 C1492 1.363 . S
C1497 C1496 1.415 . S
H1498 C1495 0.999 . S
H1499 C1480 0.913 . S
H1500 C1518 0.951 . S
H1501 C1520 0.951 . S
H1502 C1522 0.950 . S
H1503 C1523 0.950 . S
H1504 C1525 0.950 . S
H1505 C1528 0.950 . S
H1506 C1529 0.950 . S
H1507 C1531 0.950 . S
H1508 C1532 0.950 . S
H1509 C1533 0.951 . S
H1510 C1535 0.951 . S
H1511 C1537 0.950 . S
H1512 C1538 0.950 . S
H1513 C1540 0.950 . S
H1514 C1543 0.950 . S
H1515 C1544 0.950 . S
H1516 C1546 0.950 . S
H1517 C1547 0.950 . S
C1518 H1500 0.951 . S
C1518 C1519 1.366 . S
C1518 C1520 1.388 . S
C1519 C1518 1.366 . S
C1519 C1523 1.385 . S
C1520 H1501 0.951 . S
C1520 C1518 1.388 . S
C1520 C1521 1.366 . S
C1521 C1520 1.366 . S
C1521 C1522 1.414 . S
C1521 C1524 1.499 . S
C1522 H1502 0.950 . S
C1522 C1521 1.414 . S
C1522 C1523 1.374 . S
C1523 H1503 0.950 . S
C1523 C1519 1.385 . S
C1523 C1522 1.374 . S
C1524 C1521 1.499 . S
C1524 C1525 1.373 . S
C1524 C1526 1.389 . S
C1525 H1504 0.950 . S
C1525 C1524 1.373 . S
C1525 C1541 1.377 . S
C1526 C1524 1.389 . S
C1526 C1527 1.524 . S
C1526 C1540 1.377 . S
C1527 C1526 1.524 . S
C1527 C1528 1.397 . S
C1527 C1532 1.363 . S
C1528 H1505 0.950 . S
C1528 C1527 1.397 . S
C1528 C1529 1.334 . S
C1529 H1506 0.950 . S
C1529 C1528 1.334 . S
C1529 C1530 1.287 . S
C1530 C1529 1.287 . S
C1530 C1531 1.524 . S
C1530 H1549 0.913 . S
C1531 H1507 0.950 . S
C1531 C1530 1.524 . S
C1531 C1532 1.415 . S
C1532 H1508 0.950 . S
C1532 C1527 1.363 . S
C1532 C1531 1.415 . S
C1533 H1509 0.951 . S
C1533 C1534 1.366 . S
C1533 C1535 1.388 . S
C1534 C1533 1.366 . S
C1534 C1538 1.385 . S
C1535 H1510 0.951 . S
C1535 C1533 1.388 . S
C1535 C1536 1.366 . S
C1536 C1535 1.366 . S
C1536 C1537 1.414 . S
C1536 C1539 1.499 . S
C1537 H1511 0.950 . S
C1537 C1536 1.414 . S
C1537 C1538 1.374 . S
C1538 H1512 0.950 . S
C1538 C1534 1.385 . S
C1538 C1537 1.374 . S
C1539 C1536 1.499 . S
C1539 C1540 1.373 . S
C1539 C1541 1.389 . S
C1540 H1513 0.950 . S
C1540 C1526 1.377 . S
C1540 C1539 1.373 . S
C1541 C1525 1.377 . S
C1541 C1539 1.389 . S
C1541 C1542 1.524 . S
C1542 C1541 1.524 . S
C1542 C1543 1.397 . S
C1542 C1547 1.363 . S
C1543 H1514 0.950 . S
C1543 C1542 1.397 . S
C1543 C1544 1.334 . S
C1544 H1515 0.950 . S
C1544 C1543 1.334 . S
C1544 C1545 1.287 . S
C1545 C1544 1.287 . S
C1545 C1546 1.524 . S
C1545 H1548 0.999 . S
C1546 H1516 0.950 . S
C1546 C1545 1.524 . S
C1546 C1547 1.415 . S
C1547 H1517 0.950 . S
C1547 C1542 1.363 . S
C1547 C1546 1.415 . S
H1548 C1545 0.999 . S
H1549 C1530 0.913 . S
H1550 C1568 0.951 . S
H1551 C1570 0.951 . S
H1552 C1572 0.950 . S
H1553 C1573 0.950 . S
H1554 C1575 0.950 . S
H1555 C1578 0.950 . S
H1556 C1579 0.950 . S
H1557 C1581 0.950 . S
H1558 C1582 0.950 . S
H1559 C1583 0.951 . S
H1560 C1585 0.951 . S
H1561 C1587 0.950 . S
H1562 C1588 0.950 . S
H1563 C1590 0.950 . S
H1564 C1593 0.950 . S
H1565 C1594 0.950 . S
H1566 C1596 0.950 . S
H1567 C1597 0.950 . S
C1568 H1550 0.951 . S
C1568 C1569 1.366 . S
C1568 C1570 1.388 . S
C1569 C1568 1.366 . S
C1569 C1573 1.385 . S
C1570 H1551 0.951 . S
C1570 C1568 1.388 . S
C1570 C1571 1.366 . S
C1571 C1570 1.366 . S
C1571 C1572 1.414 . S
C1571 C1574 1.499 . S
C1572 H1552 0.950 . S
C1572 C1571 1.414 . S
C1572 C1573 1.374 . S
C1573 H1553 0.950 . S
C1573 C1569 1.385 . S
C1573 C1572 1.374 . S
C1574 C1571 1.499 . S
C1574 C1575 1.373 . S
C1574 C1576 1.389 . S
C1575 H1554 0.950 . S
C1575 C1574 1.373 . S
C1575 C1591 1.377 1_554 S
C1576 C1574 1.389 . S
C1576 C1577 1.524 . S
C1576 C1590 1.377 . S
C1577 C1576 1.524 . S
C1577 C1578 1.397 . S
C1577 C1582 1.363 . S
C1578 H1555 0.950 . S
C1578 C1577 1.397 . S
C1578 C1579 1.334 . S
C1579 H1556 0.950 . S
C1579 C1578 1.334 . S
C1579 C1580 1.287 . S
C1580 C1579 1.287 . S
C1580 C1581 1.524 . S
C1580 H1599 0.913 . S
C1581 H1557 0.950 . S
C1581 C1580 1.524 . S
C1581 C1582 1.415 . S
C1582 H1558 0.950 . S
C1582 C1577 1.363 . S
C1582 C1581 1.415 . S
C1583 H1559 0.951 . S
C1583 C1584 1.366 . S
C1583 C1585 1.388 . S
C1584 C1583 1.366 . S
C1584 C1588 1.385 . S
C1585 H1560 0.951 . S
C1585 C1583 1.388 . S
C1585 C1586 1.366 . S
C1586 C1585 1.366 . S
C1586 C1587 1.414 . S
C1586 C1589 1.499 . S
C1587 H1561 0.950 . S
C1587 C1586 1.414 . S
C1587 C1588 1.374 . S
C1588 H1562 0.950 . S
C1588 C1584 1.385 . S
C1588 C1587 1.374 . S
C1589 C1586 1.499 . S
C1589 C1590 1.373 1_556 S
C1589 C1591 1.389 . S
C1590 H1563 0.950 . S
C1590 C1576 1.377 . S
C1590 C1589 1.373 1_554 S
C1591 C1575 1.377 1_556 S
C1591 C1589 1.389 . S
C1591 C1592 1.524 . S
C1592 C1591 1.524 . S
C1592 C1593 1.397 . S
C1592 C1597 1.363 . S
C1593 H1564 0.950 . S
C1593 C1592 1.397 . S
C1593 C1594 1.334 . S
C1594 H1565 0.950 . S
C1594 C1593 1.334 . S
C1594 C1595 1.287 . S
C1595 C1594 1.287 . S
C1595 C1596 1.524 . S
C1595 H1598 0.999 . S
C1596 H1566 0.950 . S
C1596 C1595 1.524 . S
C1596 C1597 1.415 . S
C1597 H1567 0.950 . S
C1597 C1592 1.363 . S
C1597 C1596 1.415 . S
H1598 C1595 0.999 . S
H1599 C1580 0.913 . S
H1600 C1618 0.951 . S
H1601 C1620 0.951 . S
H1602 C1622 0.950 . S
H1603 C1623 0.950 . S
H1604 C1625 0.950 . S
H1605 C1628 0.950 . S
H1606 C1629 0.950 . S
H1607 C1631 0.950 . S
H1608 C1632 0.950 . S
H1609 C1633 0.951 . S
H1610 C1635 0.951 . S
H1611 C1637 0.950 . S
H1612 C1638 0.950 . S
H1613 C1640 0.950 . S
H1614 C1643 0.950 . S
H1615 C1644 0.950 . S
H1616 C1646 0.950 . S
H1617 C1647 0.950 . S
C1618 H1600 0.951 . S
C1618 C1619 1.366 . S
C1618 C1620 1.388 . S
C1619 C1618 1.366 . S
C1619 C1623 1.385 . S
C1620 H1601 0.951 . S
C1620 C1618 1.388 . S
C1620 C1621 1.366 . S
C1621 C1620 1.366 . S
C1621 C1622 1.414 . S
C1621 C1624 1.499 . S
C1622 H1602 0.950 . S
C1622 C1621 1.414 . S
C1622 C1623 1.374 . S
C1623 H1603 0.950 . S
C1623 C1619 1.385 . S
C1623 C1622 1.374 . S
C1624 C1621 1.499 . S
C1624 C1625 1.373 . S
C1624 C1626 1.389 . S
C1625 H1604 0.950 . S
C1625 C1624 1.373 . S
C1625 C1641 1.377 . S
C1626 C1624 1.389 . S
C1626 C1627 1.524 . S
C1626 C1640 1.377 . S
C1627 C1626 1.524 . S
C1627 C1628 1.397 . S
C1627 C1632 1.363 . S
C1628 H1605 0.950 . S
C1628 C1627 1.397 . S
C1628 C1629 1.334 . S
C1629 H1606 0.950 . S
C1629 C1628 1.334 . S
C1629 C1630 1.287 . S
C1630 C1629 1.287 . S
C1630 C1631 1.524 . S
C1630 H1649 0.913 . S
C1631 H1607 0.950 . S
C1631 C1630 1.524 . S
C1631 C1632 1.415 . S
C1632 H1608 0.950 . S
C1632 C1627 1.363 . S
C1632 C1631 1.415 . S
C1633 H1609 0.951 . S
C1633 C1634 1.366 . S
C1633 C1635 1.388 . S
C1634 C1633 1.366 . S
C1634 C1638 1.385 . S
C1635 H1610 0.951 . S
C1635 C1633 1.388 . S
C1635 C1636 1.366 . S
C1636 C1635 1.366 . S
C1636 C1637 1.414 . S
C1636 C1639 1.499 . S
C1637 H1611 0.950 . S
C1637 C1636 1.414 . S
C1637 C1638 1.374 . S
C1638 H1612 0.950 . S
C1638 C1634 1.385 . S
C1638 C1637 1.374 . S
C1639 C1636 1.499 . S
C1639 C1640 1.373 . S
C1639 C1641 1.389 . S
C1640 H1613 0.950 . S
C1640 C1626 1.377 . S
C1640 C1639 1.373 . S
C1641 C1625 1.377 . S
C1641 C1639 1.389 . S
C1641 C1642 1.524 . S
C1642 C1641 1.524 . S
C1642 C1643 1.397 . S
C1642 C1647 1.363 . S
C1643 H1614 0.950 . S
C1643 C1642 1.397 . S
C1643 C1644 1.334 . S
C1644 H1615 0.950 . S
C1644 C1643 1.334 . S
C1644 C1645 1.287 . S
C1645 C1644 1.287 . S
C1645 C1646 1.524 . S
C1645 H1648 0.999 . S
C1646 H1616 0.950 . S
C1646 C1645 1.524 . S
C1646 C1647 1.415 . S
C1647 H1617 0.950 . S
C1647 C1642 1.363 . S
C1647 C1646 1.415 . S
H1648 C1645 0.999 . S
H1649 C1630 0.913 . S
C484 C442 1.664 . S
C469 C29 1.569 . S
C519 C115 1.550 . S
C534 C377 1.571 . S
C569 C153 1.599 . S
C584 C395 1.694 . S
C619 C239 1.538 . S
C634 C408 1.556 . S
C684 C416 1.618 . S
C669 C301 1.594 . S
C719 C339 1.826 . S
C734 C428 1.940 . S
C769 C91 1.604 . S
C784 C390 1.702 . S
C819 C177 1.547 . S
C834 C403 1.567 . S
C869 C215 1.566 . S
C884 C421 1.660 . S
C934 C427 1.947 . S
C919 C277 1.833 . S
C984 C447 1.601 . S
C969 C363 1.579 . S
C1034 C382 1.565 . S
C1019 C53 1.547 . S
C1069 C35 1.696 . S
C1084 C388 1.739 . S
C1119 C109 1.540 . S
C1134 C401 1.668 . S
C1184 C415 1.590 . S
C1169 C159 1.556 . S
C1219 C233 1.743 . S
C1234 C429 1.880 . S
C1284 C441 1.692 . S
C1269 C295 1.546 . S
C1334 C376 1.565 . S
C1319 C345 1.530 . S
C1384 C440 1.597 . S
C1369 C97 1.562 . S
C1419 C171 1.535 . S
C1434 C375 1.662 . S
C1484 C389 1.736 . S
C1469 C221 1.693 . S
C1519 C283 1.528 . S
C1534 C402 1.562 . S
C1569 C357 1.559 . S
C1584 C414 1.705 . S
C1619 C47 1.735 . S
C1634 C434 1.873 . S
