# Generated by pormake.
# Topology zzz, (3,6)-cn, num edge types: 1
# Building blocks:
#     Node 0, Type 0, BuildingBlock: PAMTOO_clean_linker_0, # of connection points: 3
#     Node 1, Type 0, BuildingBlock: PAMTOO_clean_linker_0, # of connection points: 3
#     Node 2, Type 0, BuildingBlock: PAMTOO_clean_linker_0, # of connection points: 3
#     Node 3, Type 0, BuildingBlock: PAMTOO_clean_linker_0, # of connection points: 3
#     Node 4, Type 0, BuildingBlock: PAMTOO_clean_linker_0, # of connection points: 3
#     Node 5, Type 0, BuildingBlock: PAMTOO_clean_linker_0, # of connection points: 3
#     Node 6, Type 0, BuildingBlock: PAMTOO_clean_linker_0, # of connection points: 3
#     Node 7, Type 0, BuildingBlock: PAMTOO_clean_linker_0, # of connection points: 3
#     Node 8, Type 1, BuildingBlock: KUMBOL_clean_sbu_1, # of connection points: 6
#     Node 9, Type 1, BuildingBlock: KUMBOL_clean_sbu_1, # of connection points: 6
#     Node 10, Type 1, BuildingBlock: KUMBOL_clean_sbu_1, # of connection points: 6
#     Node 11, Type 1, BuildingBlock: KUMBOL_clean_sbu_1, # of connection points: 6
#     Edge 12, Type (0, 1), BuildingBlock: EZIPEK_clean_linker_0, # of connection points: 2
#     Edge 13, Type (0, 1), BuildingBlock: EZIPEK_clean_linker_0, # of connection points: 2
#     Edge 14, Type (0, 1), BuildingBlock: EZIPEK_clean_linker_0, # of connection points: 2
#     Edge 15, Type (0, 1), BuildingBlock: EZIPEK_clean_linker_0, # of connection points: 2
#     Edge 16, Type (0, 1), BuildingBlock: EZIPEK_clean_linker_0, # of connection points: 2
#     Edge 17, Type (0, 1), BuildingBlock: EZIPEK_clean_linker_0, # of connection points: 2
#     Edge 18, Type (0, 1), BuildingBlock: EZIPEK_clean_linker_0, # of connection points: 2
#     Edge 19, Type (0, 1), BuildingBlock: EZIPEK_clean_linker_0, # of connection points: 2
#     Edge 20, Type (0, 1), BuildingBlock: EZIPEK_clean_linker_0, # of connection points: 2
#     Edge 21, Type (0, 1), BuildingBlock: EZIPEK_clean_linker_0, # of connection points: 2
#     Edge 22, Type (0, 1), BuildingBlock: EZIPEK_clean_linker_0, # of connection points: 2
#     Edge 23, Type (0, 1), BuildingBlock: EZIPEK_clean_linker_0, # of connection points: 2
#     Edge 24, Type (0, 1), BuildingBlock: EZIPEK_clean_linker_0, # of connection points: 2
#     Edge 25, Type (0, 1), BuildingBlock: EZIPEK_clean_linker_0, # of connection points: 2
#     Edge 26, Type (0, 1), BuildingBlock: EZIPEK_clean_linker_0, # of connection points: 2
#     Edge 27, Type (0, 1), BuildingBlock: EZIPEK_clean_linker_0, # of connection points: 2
#     Edge 28, Type (0, 1), BuildingBlock: EZIPEK_clean_linker_0, # of connection points: 2
#     Edge 29, Type (0, 1), BuildingBlock: EZIPEK_clean_linker_0, # of connection points: 2
#     Edge 30, Type (0, 1), BuildingBlock: EZIPEK_clean_linker_0, # of connection points: 2
#     Edge 31, Type (0, 1), BuildingBlock: EZIPEK_clean_linker_0, # of connection points: 2
#     Edge 32, Type (0, 1), BuildingBlock: EZIPEK_clean_linker_0, # of connection points: 2
#     Edge 33, Type (0, 1), BuildingBlock: EZIPEK_clean_linker_0, # of connection points: 2
#     Edge 34, Type (0, 1), BuildingBlock: EZIPEK_clean_linker_0, # of connection points: 2
#     Edge 35, Type (0, 1), BuildingBlock: EZIPEK_clean_linker_0, # of connection points: 2
# Relax obj value: 0.240
# Max RMSD: 0.127
# Mean RMSD: 0.084
data_MOF--net-zzz--node1-KUMBOL_clean_sbu_1--node2-PAMTOO_clean_linker_0--edge1-EZIPEK_clean_linker_0
_symmetry_space_group_name_H-M    P1
_symmetry_Int_Tables_number       1
_symmetry_cell_setting            triclinic
loop_
_symmetry_equiv_pos_as_xyz
'x, y, z'
_cell_length_a     37.013328
_cell_length_b     37.111721
_cell_length_c     11.700798
_cell_angle_alpha  90.221836
_cell_angle_beta   90.012504
_cell_angle_gamma 90.360198
loop_
_atom_site_label
_atom_site_type_symbol
_atom_site_fract_x
_atom_site_fract_y
_atom_site_fract_z
_atom_type_partial_charge
H0 H 0.85917 0.48329 0.31311 0.0
H1 H 0.7581 0.49822 0.1434 0.0
H2 H 0.77591 0.54748 0.47421 0.0
H3 H 0.68069 0.52493 0.36765 0.0
C4 C 0.69561 0.51878 0.28765 0.0
O5 O 0.72795 0.53944 0.28837 0.0
H6 H 0.70385 0.49015 0.29277 0.0
C7 C 0.83257 0.49543 0.31393 0.0
C8 C 0.82197 0.5163 0.40825 0.0
C9 C 0.80934 0.48838 0.22212 0.0
C10 C 0.77528 0.50376 0.2166 0.0
C11 C 0.76225 0.52518 0.30478 0.0
C12 C 0.78562 0.53131 0.40362 0.0
H13 H 0.95781 0.84894 0.32663 0.0
H14 H 0.95518 0.74154 0.19624 0.0
H15 H 0.02123 0.7669 0.48812 0.0
H16 H 0.04841 0.70441 0.23741 0.0
C17 C 0.01901 0.69947 0.22681 0.0
O18 O 1.0013 0.71326 0.32599 0.0
H19 H 1.01218 0.7164 0.15175 0.0
C20 C 0.96614 0.82145 0.33207 0.0
C21 C 0.98879 0.81216 0.42406 0.0
C22 C 0.95574 0.79674 0.24501 0.0
C23 C 0.96485 0.76067 0.25775 0.0
C24 C 0.99007 0.74908 0.33734 0.0
C25 C 1.00226 0.77521 0.42316 0.0
H26 H 0.68491 0.97668 0.30139 0.0
H27 H 0.79287 0.98231 0.16593 0.0
H28 H 0.76991 0.02605 0.49875 0.0
H29 H 0.85108 0.0572 0.3565 0.0
C30 C 0.84023 0.04092 0.28438 0.0
O31 O 0.823 1.01126 0.33624 0.0
H32 H 0.81973 0.05775 0.24041 0.0
C33 C 0.7131 0.98403 0.31036 0.0
C34 C 0.72317 1.00155 0.4124 0.0
C35 C 0.73725 0.97943 0.21715 0.0
C36 C 0.77378 0.98723 0.23376 0.0
C37 C 0.78633 1.00401 0.33243 0.0
C38 C 0.76078 1.01198 0.42283 0.0
H39 H 0.58818 0.70235 0.31495 0.0
H40 H 0.57691 0.80498 0.1568 0.0
H41 H 0.51555 0.78065 0.45773 0.0
H42 H 0.48437 0.84392 0.21635 0.0
C43 C 0.51366 0.84716 0.19869 0.0
O44 O 0.53302 0.83361 0.29437 0.0
H45 H 0.51801 0.82918 0.12374 0.0
C46 C 0.57624 0.72853 0.31271 0.0
C47 C 0.55128 0.73708 0.39961 0.0
C48 C 0.58456 0.7521 0.22115 0.0
C49 C 0.57044 0.78686 0.22434 0.0
C50 C 0.54532 0.7982 0.30493 0.0
C51 C 0.53511 0.77274 0.39384 0.0
H52 H 0.20193 0.54898 0.22492 0.0
H53 H 0.3065 0.52888 0.36531 0.0
H54 H 0.28434 0.49886 0.01543 0.0
H55 H 0.3555 0.5507 0.18466 0.0
C56 C 0.36592 0.52308 0.19712 0.0
O57 O 0.33552 0.49984 0.19347 0.0
H58 H 0.38285 0.51752 0.12121 0.0
C59 C 0.22864 0.53769 0.21305 0.0
C60 C 0.23807 0.52258 0.10663 0.0
C61 C 0.25352 0.5406 0.30305 0.0
C62 C 0.28788 0.52636 0.29399 0.0
C63 C 0.30001 0.51152 0.19257 0.0
C64 C 0.27511 0.50977 0.09611 0.0
H65 H 0.98588 0.19918 0.1824 0.0
H66 H 0.99286 0.30559 0.32314 0.0
H67 H 0.04785 0.28135 1.00649 0.0
H68 H 0.08378 0.35559 0.1943 0.0
C69 C 0.05977 0.34971 0.24819 0.0
O70 O 0.03364 0.33428 0.17396 0.0
H71 H 0.06796 0.32847 0.3097 0.0
C72 C 0.99696 0.22627 0.17621 0.0
C73 C 0.01786 0.23562 0.08091 0.0
C74 C 0.98792 0.25138 0.26074 0.0
C75 C 1.00082 0.28661 0.25718 0.0
C76 C 0.02365 0.29807 0.17035 0.0
C77 C 0.03194 0.27249 0.07876 0.0
H78 H 0.34137 0.08848 0.21719 0.0
H79 H 0.23672 0.07832 0.3766 0.0
H80 H 0.26209 1.01482 0.0808 0.0
H81 H 0.16367 0.02992 0.1718 0.0
C82 C 0.17774 0.04313 0.24471 0.0
O83 O 0.21257 0.02811 0.25328 0.0
H84 H 0.17997 0.07135 0.21629 0.0
C85 C 0.31428 0.07742 0.21928 0.0
C86 C 0.30548 0.05149 0.13514 0.0
C87 C 0.29018 0.08755 0.30812 0.0
C88 C 0.25557 0.07191 0.30939 0.0
C89 C 0.24484 0.04575 0.23075 0.0
C90 C 0.26985 0.03549 0.14167 0.0
H91 H 0.56849 0.35637 0.17104 0.0
H92 H 0.56526 0.25127 0.3144 0.0
H93 H 0.50015 0.27425 0.01681 0.0
H94 H 0.47148 0.21023 0.26764 0.0
C95 C 0.50105 0.20709 0.27794 0.0
O96 O 0.51831 0.22186 0.18001 0.0
H97 H 0.5071 0.22428 0.35372 0.0
C98 C 0.55728 0.32928 0.1682 0.0
C99 C 0.5334 0.3196 0.0798 0.0
C100 C 0.56885 0.3044 0.24956 0.0
C101 C 0.55579 0.26928 0.24885 0.0
C102 C 0.52966 0.25767 0.17111 0.0
C103 C 0.51863 0.28306 0.08303 0.0
C104 C 0.11342 0.05971 0.94843 0.0
C105 C 0.09511 0.09671 0.10942 0.0
C106 C 0.08769 0.06954 0.02797 0.0
C107 C 0.12851 0.11482 0.10668 0.0
C108 C 0.14759 0.07684 0.94828 0.0
C109 C 0.15465 0.10499 0.02591 0.0
N110 N 0.10541 0.03272 0.87349 0.0
C111 C 0.13192 0.01925 0.80432 0.0
C112 C 0.17383 0.06477 0.87146 0.0
C113 C 0.16612 0.03544 0.8005 0.0
Gd114 Gd 0.97359 0.03339 0.6546 0.0
Gd115 Gd 0.04573 1.00888 0.88035 0.0
N116 N 0.05497 0.05279 0.02437 0.0
C117 C 0.06868 0.10491 0.19083 0.0
C118 C 0.02999 0.05912 0.10788 0.0
C119 C 0.03613 0.0857 0.19084 0.0
H120 H 1.00515 0.0438 0.1094 0.0
H121 H 0.01578 0.09128 0.25481 0.0
H122 H 0.02367 0.04183 0.40695 0.0
H123 H 0.12717 0.99547 0.75351 0.0
H124 H 0.03936 1.00249 0.24612 0.0
H125 H 0.07335 0.12556 0.25493 0.0
H126 H 0.13458 0.13608 0.16758 0.0
H127 H 0.90083 0.99522 0.77694 0.0
H128 H 0.20041 0.07715 0.86875 0.0
H129 H 0.18667 0.02496 0.74377 0.0
H130 H 0.95649 0.90474 0.273 0.0
H131 H 0.18059 0.11869 0.02621 0.0
H132 H 0.86981 0.90368 0.57523 0.0
H133 H 0.86047 0.94281 0.74424 0.0
N134 N 0.93305 0.98503 0.63027 0.0
C135 C 0.93674 0.9658 0.53195 0.0
C136 C 0.90518 0.97797 0.70383 0.0
C137 C 0.88723 0.92688 0.58874 0.0
C138 C 0.88208 0.94867 0.6847 0.0
C139 C 0.91474 0.93532 0.51107 0.0
H140 H 0.90593 0.88936 0.40029 0.0
N141 N 0.98527 1.00486 0.478 0.0
C142 C 0.96425 0.97529 0.45611 0.0
C143 C 0.99821 0.96333 0.28398 0.0
C144 C 0.97056 0.95371 0.3592 0.0
C145 C 1.00972 0.01639 0.39819 0.0
C146 C 0.01775 0.99492 0.30336 0.0
O147 O 0.03235 0.07021 0.87944 0.0
O148 O 0.99496 0.08682 0.73131 0.0
O149 O 0.95382 0.07 0.52198 0.0
O150 O 0.91795 0.04909 0.65005 0.0
O151 O 0.98589 1.00057 0.93583 0.0
O152 O 0.95516 0.04392 0.83832 0.0
O153 O 0.97958 0.97335 0.71102 0.0
O154 O 0.03885 0.96444 0.73879 0.0
O155 O 0.03327 0.97556 0.02461 0.0
O156 O 0.0869 0.97359 0.95248 0.0
O157 O 0.03302 0.04694 0.60203 0.0
O158 O 0.06554 1.00461 0.6971 0.0
C159 C 0.01482 0.09542 0.82182 0.0
C160 C 0.95832 0.02312 0.92862 0.0
C161 C 0.90436 0.10656 0.58642 0.0
C162 C 0.90198 0.17106 0.55597 0.0
C163 C 0.85877 0.14295 0.68252 0.0
C164 C 0.87432 0.10944 0.66009 0.0
C165 C 0.87269 0.1739 0.63106 0.0
C166 C 0.91768 0.13754 0.53365 0.0
C167 C 0.92148 0.0713 0.56629 0.0
C168 C 0.94999 0.92248 0.3421 0.0
C169 C 0.92168 0.91358 0.41587 0.0
H170 H 1.00452 0.94659 0.21081 0.0
C171 C 1.00795 0.95234 0.6956 0.0
C172 C 0.06323 0.02785 0.61317 0.0
C173 C 0.06269 0.92037 0.03297 0.0
C174 C 0.02367 0.86769 0.02368 0.0
C175 C 0.07904 0.86663 0.13638 0.0
C176 C 0.08601 0.90241 0.10733 0.0
C177 C 0.0474 0.84975 0.09826 0.0
C178 C 0.03355 0.90174 0.98308 0.0
C179 C 0.06447 0.95966 0.0254 0.0
H180 H 0.83596 0.14491 0.74005 0.0
H181 H 0.86298 0.08583 0.70119 0.0
H182 H 0.86067 0.19985 0.64899 0.0
H183 H 0.94047 0.13584 0.47561 0.0
H184 H 0.0969 0.85276 0.1945 0.0
H185 H 0.10869 0.91643 0.14616 0.0
H186 H 0.04074 0.82324 0.13092 0.0
H187 H 0.017 0.9151 0.92028 0.0
C188 C 0.54057 0.93336 0.52027 0.0
C189 C 0.53877 0.87885 0.63407 0.0
C190 C 0.52838 0.91492 0.61606 0.0
C191 C 0.56355 0.8626 0.55933 0.0
C192 C 0.56388 0.9164 0.44168 0.0
C193 C 0.57626 0.88143 0.46375 0.0
N194 N 0.52807 0.96713 0.50047 0.0
C195 C 0.53445 0.98366 0.39799 0.0
C196 C 0.57302 0.9346 0.34115 0.0
C197 C 0.55727 0.96786 0.31764 0.0
Gd198 Gd 0.52829 0.06697 0.83823 0.0
Gd199 Gd 0.4934 0.99287 0.64803 0.0
N200 N 0.50443 0.93132 0.68702 0.0
C201 C 0.52297 0.85974 0.72426 0.0
C202 C 0.48652 0.91167 0.76867 0.0
C203 C 0.49622 0.876 0.79041 0.0
H204 H 0.46605 0.92428 0.82089 0.0
H205 H 0.48313 0.86113 0.85836 0.0
H206 H 0.61352 0.09452 0.80339 0.0
H207 H 0.52312 1.00979 0.38079 0.0
H208 H 0.64672 0.15172 0.77527 0.0
H209 H 0.53032 0.83205 0.74091 0.0
H210 H 0.57218 0.83507 0.57265 0.0
H211 H 0.44328 0.0818 0.7144 0.0
H212 H 0.59104 0.92255 0.27925 0.0
H213 H 0.56247 0.98139 0.23768 0.0
H214 H 0.55369 0.23825 0.7064 0.0
H215 H 0.59453 0.86816 0.40497 0.0
H216 H 0.43284 0.19462 0.66598 0.0
H217 H 0.40615 0.13366 0.66673 0.0
N218 N 0.4891 0.11292 0.76769 0.0
C219 C 0.50532 0.14595 0.75619 0.0
C220 C 0.4549 0.10812 0.72516 0.0
C221 C 0.44901 0.17198 0.69325 0.0
C222 C 0.43389 0.13759 0.69321 0.0
C223 C 0.48551 0.17634 0.72022 0.0
H224 H 0.48804 0.23329 0.68 0.0
N225 N 0.56177 0.11866 0.79277 0.0
C226 C 0.54266 0.14881 0.76828 0.0
C227 C 0.59834 0.18307 0.75488 0.0
C228 C 0.56056 0.18194 0.74899 0.0
C229 C 0.59864 0.11907 0.79093 0.0
C230 C 0.61748 0.15137 0.77421 0.0
O231 O 0.52248 0.97147 0.8055 0.0
O232 O 0.51298 0.01491 0.93777 0.0
O233 O 0.55217 0.05246 0.99872 0.0
O234 O 0.54335 0.10851 0.96492 0.0
O235 O 0.44959 1.01126 0.782 0.0
O236 O 0.46972 0.05835 0.89451 0.0
O237 O 0.53861 0.07678 0.64769 0.0
O238 O 0.48891 0.05075 0.57319 0.0
O239 O 0.4439 0.96142 0.64021 0.0
O240 O 0.46382 0.98779 0.48892 0.0
O241 O 0.57717 0.03644 0.76003 0.0
O242 O 0.55343 1.00589 0.60538 0.0
C243 C 0.51844 0.98059 0.91307 0.0
C244 C 0.44388 0.03522 0.86584 0.0
C245 C 0.59907 0.09132 0.04801 0.0
C246 C 0.65845 0.06429 0.0519 0.0
C247 C 0.64854 0.1227 0.14103 0.0
C248 C 0.61187 0.12074 0.11172 0.0
C249 C 0.67169 0.09415 0.11354 0.0
C250 C 0.62347 0.06518 1.00975 0.0
C251 C 0.56039 0.08532 0.02697 0.0
C252 C 0.54043 0.21254 0.72086 0.0
C253 C 0.50302 0.20973 0.70627 0.0
H254 H 0.61302 0.20801 0.74067 0.0
C255 C 0.51516 0.07503 0.56308 0.0
C256 C 0.58185 0.01862 0.66235 0.0
C257 C 0.40156 0.98232 0.50972 0.0
C258 C 0.35747 0.03037 0.5171 0.0
C259 C 0.34447 0.97486 0.41219 0.0
C260 C 0.37835 0.96162 0.44124 0.0
C261 C 0.3342 1.00911 0.44863 0.0
C262 C 0.39074 0.01617 0.55051 0.0
C263 C 0.43769 0.96922 0.53406 0.0
H264 H 0.65856 0.14534 0.19055 0.0
H265 H 0.59359 0.14164 0.13979 0.0
H266 H 0.69922 0.09459 0.14487 0.0
H267 H 0.6143 0.04272 0.95766 0.0
H268 H 0.32646 0.95891 0.35919 0.0
H269 H 0.38658 0.93544 0.40964 0.0
H270 H 0.30829 0.0193 0.42107 0.0
H271 H 0.40853 0.03155 0.60575 0.0
C272 C 0.42322 0.494 0.91317 0.0
C273 C 0.43845 0.45557 0.07279 0.0
C274 C 0.44775 0.48267 0.99379 0.0
C275 C 0.40434 0.43892 0.06579 0.0
C276 C 0.38824 0.47863 0.90945 0.0
C277 C 0.37926 0.45042 0.98423 0.0
N278 N 0.43281 0.52163 0.84343 0.0
C279 C 0.40711 0.53752 0.77676 0.0
C280 C 0.3629 0.49302 0.83403 0.0
C281 C 0.37221 0.52306 0.76893 0.0
Gd282 Gd 0.56588 0.51764 0.62934 0.0
Gd283 Gd 0.49367 0.54248 0.85532 0.0
N284 N 0.48086 0.49858 0.99552 0.0
C285 C 0.46362 0.44632 0.15685 0.0
C286 C 0.50439 0.49156 0.08238 0.0
C287 C 0.49652 0.46485 0.16281 0.0
H288 H 0.52938 0.50653 0.08837 0.0
H289 H 0.51577 0.45866 0.22944 0.0
H290 H 0.51585 0.50969 0.3805 0.0
H291 H 0.41306 0.56198 0.73161 0.0
H292 H 0.50065 0.54943 0.22104 0.0
H293 H 0.45757 0.42556 0.21894 0.0
H294 H 0.39686 0.41759 0.12429 0.0
H295 H 0.64233 0.55137 0.74427 0.0
H296 H 0.33571 0.48213 0.82897 0.0
H297 H 0.35234 0.53551 0.71415 0.0
H298 H 0.58398 0.64669 0.25403 0.0
H299 H 0.35265 0.43809 0.98197 0.0
H300 H 0.6731 0.64401 0.54957 0.0
H301 H 0.68349 0.60319 0.71281 0.0
N302 N 0.60852 0.56384 0.60343 0.0
C303 C 0.604 0.58409 0.50797 0.0
C304 C 0.63736 0.56956 0.67441 0.0
C305 C 0.65519 0.6212 0.56285 0.0
C306 C 0.66097 0.59844 0.6556 0.0
C307 C 0.6266 0.61407 0.48755 0.0
H308 H 0.63561 0.66044 0.38034 0.0
N309 N 0.55388 0.54663 0.45472 0.0
C310 C 0.57558 0.57572 0.43354 0.0
C311 C 0.54185 0.58836 0.26169 0.0
C312 C 0.56951 0.5976 0.33768 0.0
C313 C 0.52979 0.53517 0.37341 0.0
C314 C 0.52212 0.5568 0.27916 0.0
O315 O 0.50542 0.48093 0.85247 0.0
O316 O 0.55372 0.46738 0.73667 0.0
O317 O 0.57672 0.47052 0.52162 0.0
O318 O 0.61971 0.50657 0.56853 0.0
O319 O 0.55337 0.54861 0.91933 0.0
O320 O 0.58928 0.51127 0.81028 0.0
O321 O 0.56114 0.57746 0.68858 0.0
O322 O 0.50185 0.58667 0.71515 0.0
O323 O 0.50739 0.57497 1.00119 0.0
O324 O 0.454 0.57939 0.92877 0.0
O325 O 0.50598 0.50525 0.5754 0.0
O326 O 0.47397 0.5477 0.67168 0.0
C327 C 0.52927 0.45743 0.8128 0.0
C328 C 0.58365 0.52986 0.90527 0.0
C329 C 0.63422 0.44553 0.56408 0.0
C330 C 0.65128 0.38289 0.54423 0.0
C331 C 0.68146 0.42035 0.68451 0.0
C332 C 0.66008 0.44956 0.65189 0.0
C333 C 0.67714 0.38692 0.6307 0.0
C334 C 0.6302 0.4122 0.51085 0.0
C335 C 0.61153 0.47562 0.52587 0.0
C336 C 0.59049 0.62857 0.3219 0.0
C337 C 0.61938 0.63653 0.39486 0.0
H338 H 0.53581 0.60526 0.18903 0.0
C339 C 0.53298 0.59867 0.67386 0.0
C340 C 0.47599 0.52471 0.58631 0.0
C341 C 0.48102 0.63167 1.00779 0.0
C342 C 0.52256 0.68237 0.99694 0.0
C343 C 0.46643 0.68736 0.10461 0.0
C344 C 0.4579 0.65165 0.07783 0.0
C345 C 0.4991 0.7023 0.06764 0.0
C346 C 0.5116 0.6482 0.9597 0.0
C347 C 0.47707 0.59247 1.0016 0.0
H348 H 0.70121 0.42362 0.75203 0.0
H349 H 0.6638 0.47511 0.69547 0.0
H350 H 0.69343 0.36428 0.65709 0.0
H351 H 0.61024 0.40883 0.44353 0.0
H352 H 0.44878 0.70275 0.15977 0.0
H353 H 0.43405 0.63934 0.11475 0.0
H354 H 0.50669 0.72891 0.09811 0.0
H355 H 0.52814 0.63324 0.90043 0.0
C356 C 0.09001 0.44094 0.96419 0.0
C357 C 0.09955 0.46463 0.15523 0.0
C358 C 0.07986 0.46429 0.05171 0.0
C359 C 0.12841 0.44082 0.17072 0.0
C360 C 0.11861 0.41648 0.98046 0.0
C361 C 0.13745 0.41634 0.08448 0.0
N362 N 0.07245 0.44273 0.8621 0.0
C363 C 0.08091 0.41941 0.77552 0.0
C364 C 0.12773 0.39306 0.89117 0.0
C365 C 0.10874 0.3945 0.78835 0.0
Gd366 Gd 0.03971 0.56324 0.65994 0.0
Gd367 Gd 0.02208 0.48117 0.85605 0.0
N368 N 0.05081 0.4863 0.03647 0.0
C369 C 0.08964 0.48888 0.24072 0.0
C370 C 0.03859 0.5066 0.12606 0.0
C371 C 0.05901 0.50979 0.22612 0.0
H372 H 1.01358 0.52111 0.1214 0.0
H373 H 0.05157 0.52881 0.29143 0.0
H374 H 1.00827 0.52414 0.41901 0.0
H375 H 0.06533 0.41909 0.69801 0.0
H376 H 0.96616 0.53788 0.26212 0.0
H377 H 0.10506 0.49125 0.3191 0.0
H378 H 0.1436 0.44076 0.24991 0.0
H379 H 0.03884 0.63832 0.83211 0.0
H380 H 0.14943 0.37384 0.90067 0.0
H381 H 0.11528 0.3762 0.71923 0.0
H382 H 0.91628 0.65214 0.36572 0.0
H383 H 0.15951 0.3978 0.09834 0.0
H384 H 0.9579 0.70918 0.70834 0.0
H385 H 1.00462 0.69402 0.85054 0.0
N386 N 1.00878 0.6184 0.68856 0.0
C387 C 0.98431 0.62717 0.60609 0.0
C388 C 0.01704 0.64282 0.77293 0.0
C389 C 0.97202 0.68375 0.70166 0.0
C390 C 0.99826 0.67524 0.78228 0.0
C391 C 0.96528 0.66005 0.61089 0.0
H392 H 0.9259 0.69378 0.5265 0.0
N393 N 0.998 0.57246 0.5103 0.0
C394 C 0.97928 0.60394 0.51362 0.0
C395 C 0.95008 0.58866 0.33464 0.0
C396 C 0.95473 0.61274 0.42583 0.0
C397 C 0.994 0.54925 0.42009 0.0
C398 C 0.96979 0.55679 0.33184 0.0
O399 O 0.08219 0.49598 0.81613 0.0
O400 O 0.08204 0.5564 0.80284 0.0
O401 O 0.08988 0.56278 0.56261 0.0
O402 O 0.05923 0.61185 0.5785 0.0
O403 O 1.00214 0.5361 0.93254 0.0
O404 O 0.04157 0.57623 0.85132 0.0
O405 O 0.9812 0.54219 0.64381 0.0
O406 O 0.96753 0.49778 0.77413 0.0
O407 O 0.98771 0.45509 0.9839 0.0
O408 O 1.00915 0.42472 0.84285 0.0
O409 O 0.05206 0.50798 0.57247 0.0
O410 O 0.01648 0.46639 0.66611 0.0
C411 C 0.09954 0.52693 0.83188 0.0
C412 C 0.01869 0.56813 0.9335 0.0
C413 C 0.12175 0.61671 0.6029 0.0
C414 C 0.18683 0.62097 0.61942 0.0
C415 C 0.14942 0.65701 0.74348 0.0
C416 C 0.11854 0.64243 0.69136 0.0
C417 C 0.18372 0.64607 0.70832 0.0
C418 C 0.15593 0.60666 0.56675 0.0
C419 C 0.09019 0.59786 0.55415 0.0
C420 C 0.93545 0.64512 0.43182 0.0
C421 C 0.94073 0.66871 0.5239 0.0
H422 H 0.93131 0.5944 0.26609 0.0
C423 C 0.95776 0.51953 0.68975 0.0
C424 C 0.0363 0.4756 0.57696 0.0
C425 C 0.95353 0.40489 0.91064 0.0
C426 C 0.88869 0.39994 0.93574 0.0
C427 C 0.91967 0.35642 0.81774 0.0
C428 C 0.9525 0.37384 0.84095 0.0
C429 C 0.88761 0.36961 0.86427 0.0
C430 C 0.92153 0.41738 0.95891 0.0
C431 C 0.98792 0.42415 0.93035 0.0
H432 H 0.14671 0.67643 0.81212 0.0
H433 H 0.09236 0.65086 0.72172 0.0
H434 H 0.20758 0.65707 0.74956 0.0
H435 H 0.15862 0.58689 0.49861 0.0
H436 H 0.91909 0.3328 0.76317 0.0
H437 H 0.97703 0.36326 0.80346 0.0
H438 H 0.8622 0.35625 0.84534 0.0
H439 H 0.92185 0.44102 1.01375 0.0
C440 C 0.1384 0.0698 0.41268 0.0
C441 C 0.15276 0.0391 0.35383 0.0
C442 C 0.11577 1.00119 0.48526 0.0
C443 C 0.09551 0.03165 0.52734 0.0
N444 N 0.09044 0.0966 0.52609 0.0
N445 N 0.14925 0.97476 0.32792 0.0
C446 C 0.10751 0.06631 0.48823 0.0
C447 C 0.13963 1.00475 0.38852 0.0
N448 N 0.15547 0.10238 0.4026 0.0
N449 N 0.11445 0.96863 0.53905 0.0
H450 H 0.1678 0.97517 0.261 0.0
H451 H 0.13655 0.94985 0.33903 0.0
H452 H 0.09886 0.9627 0.6099 0.0
H453 H 0.13212 0.94773 0.51934 0.0
H454 H 0.14871 0.12492 0.45116 0.0
H455 H 0.17939 0.10603 0.35733 0.0
H456 H 0.09362 0.12164 0.48725 0.0
H457 H 0.07229 0.09675 0.59398 0.0
C458 C 0.48505 0.13825 0.30824 0.0
C459 C 0.5107 0.16705 0.31488 0.0
C460 C 0.54538 0.1302 0.45466 0.0
C461 C 0.51664 0.1038 0.46376 0.0
N462 N 0.47069 0.07527 0.34664 0.0
N463 N 0.57336 0.17865 0.34454 0.0
C464 C 0.48969 0.10563 0.37518 0.0
C465 C 0.54318 0.15967 0.37437 0.0
N466 N 0.45674 0.14147 0.23419 0.0
N467 N 0.57612 0.12671 0.51772 0.0
H468 H 0.57344 0.1951 0.27277 0.0
H469 H 0.59914 0.17367 0.37596 0.0
H470 H 0.58458 0.10263 0.55309 0.0
H471 H 0.59427 0.14784 0.53121 0.0
H472 H 0.43474 0.12391 0.23137 0.0
H473 H 0.45552 0.16203 0.17379 0.0
H474 H 0.45299 0.07357 0.27774 0.0
H475 H 0.47603 0.05022 0.38154 0.0
C476 C 0.40793 0.55465 0.34787 0.0
C477 C 0.39167 0.52226 0.30606 0.0
C478 C 0.43212 0.48993 0.44454 0.0
C479 C 0.4448 0.52322 0.49489 0.0
N480 N 0.42711 0.58653 0.51519 0.0
N481 N 0.38608 0.45917 0.3248 0.0
C482 C 0.42715 0.55515 0.4541 0.0
C483 C 0.40343 0.48981 0.35816 0.0
N484 N 0.40735 0.58542 0.28409 0.0
N485 N 0.44669 0.45829 0.48079 0.0
H486 H 0.39023 0.43385 0.3605 0.0
H487 H 0.39023 0.43385 0.3605 0.0
H488 H 0.46351 0.45663 0.55195 0.0
H489 H 0.44308 0.43383 0.43845 0.0
H490 H 0.42093 0.60885 0.30938 0.0
H491 H 0.39833 0.58645 0.19994 0.0
H492 H 0.41099 0.60829 0.49191 0.0
H493 H 0.44052 0.59093 0.59152 0.0
C494 C 0.01943 0.40599 0.32366 0.0
C495 C 0.05213 0.38533 0.32276 0.0
C496 C 0.07669 0.4307 0.46484 0.0
C497 C 0.04229 0.44688 0.48101 0.0
N498 N 0.97985 0.44793 0.42473 0.0
N499 N 0.11205 0.37926 0.40515 0.0
C500 C 1.01341 0.43364 0.41045 0.0
C501 C 0.08063 0.39833 0.39677 0.0
N502 N 0.99489 0.40146 0.23774 0.0
N503 N 0.10637 0.44658 0.51333 0.0
H504 H 0.11864 0.3574 0.35338 0.0
H505 H 0.13101 0.38373 0.46956 0.0
H506 H 0.10487 0.46951 0.56448 0.0
H507 H 0.13279 0.43929 0.49367 0.0
H508 H 0.97235 0.41779 0.22765 0.0
H509 H 0.99936 0.38498 0.16739 0.0
H510 H 0.95662 0.43688 0.38808 0.0
H511 H 0.97507 0.46977 0.47879 0.0
C512 C 0.89444 0.06413 0.16089 0.0
C513 C 0.87228 0.03431 0.19674 0.0
C514 C 0.90587 0.99693 0.05365 0.0
C515 C 0.92974 0.02603 0.02529 0.0
N516 N 0.94632 0.08797 0.06152 0.0
N517 N 0.8623 0.9712 0.18946 0.0
C518 C 0.92384 0.05949 0.08239 0.0
C519 C 0.8797 1.00034 0.14561 0.0
N520 N 0.88831 0.09828 0.19927 0.0
N521 N 0.90615 0.9668 0.98696 0.0
H522 H 0.86738 0.94465 0.1654 0.0
H523 H 0.86738 0.94465 0.1654 0.0
H524 H 0.9259 0.96233 0.92521 0.0
H525 H 0.88565 0.94744 0.98812 0.0
H526 H 0.86736 0.10579 0.25378 0.0
H527 H 0.86736 0.10579 0.25378 0.0
H528 H 0.94355 0.11299 0.10156 0.0
H529 H 0.96845 0.08619 1.00723 0.0
C530 C 0.49632 0.91548 0.17266 0.0
C531 C 0.52169 0.88719 0.1556 0.0
C532 C 0.54978 0.92454 1.00122 0.0
C533 C 0.52155 0.95084 1.00698 0.0
N534 N 0.46817 0.97099 0.10702 0.0
N535 N 0.58144 0.87485 0.09203 0.0
C536 C 0.49534 0.94649 0.09687 0.0
C537 C 0.55083 0.89454 0.07977 0.0
N538 N 0.47445 0.91358 0.26646 0.0
N539 N 0.57635 0.92843 0.9212 0.0
H540 H 0.58578 0.86061 0.16707 0.0
H541 H 0.60436 0.87731 0.04132 0.0
H542 H 0.57978 0.95181 0.87364 0.0
H543 H 0.5944 0.90817 0.89931 0.0
H544 H 0.45735 0.93409 0.29303 0.0
H545 H 0.47663 0.89282 0.32596 0.0
H546 H 0.4457 0.96756 0.15927 0.0
H547 H 0.46682 0.99429 0.05847 0.0
C548 C 0.66557 0.55342 0.11353 0.0
C549 C 0.6678 0.52229 0.18385 0.0
C550 C 0.61418 0.4976 0.07609 0.0
C551 C 0.61237 0.52819 1.00312 0.0
N552 N 0.63953 0.58432 0.94783 0.0
N553 N 0.63699 0.46635 0.23759 0.0
C554 C 0.63899 0.55595 0.02133 0.0
C555 C 0.64033 0.49517 0.16644 0.0
N556 N 0.68809 0.58118 0.14136 0.0
N557 N 0.59029 0.46989 0.06076 0.0
H558 H 0.65267 0.46175 0.30993 0.0
H559 H 0.65267 0.46175 0.30993 0.0
H560 H 0.57077 0.47008 0.99713 0.0
H561 H 0.5902 0.44662 0.11062 0.0
H562 H 0.68774 0.60654 0.10353 0.0
H563 H 0.68774 0.60654 0.10353 0.0
H564 H 0.66052 0.60298 0.94208 0.0
H565 H 0.61883 0.58857 0.88919 0.0
C566 C 0.0408 0.63332 0.19175 0.0
C567 C 1.01221 0.65877 0.18655 0.0
C568 C 0.98274 0.61828 0.0404 0.0
C569 C 0.01409 0.59607 0.03245 0.0
N570 N 0.07394 0.58415 0.10284 0.0
N571 N 0.95002 0.66651 0.13833 0.0
C572 C 0.04312 0.60394 0.11005 0.0
C573 C 0.98143 0.64854 0.11977 0.0
N574 N 0.06518 0.63652 0.2788 0.0
N575 N 0.95464 0.61146 0.96775 0.0
H576 H 0.94767 0.68451 0.20615 0.0
H577 H 0.92553 0.66023 0.09933 0.0
H578 H 0.95406 0.589 0.91396 0.0
H579 H 0.93283 0.62861 0.95643 0.0
H580 H 0.08496 0.61751 0.29636 0.0
H581 H 0.06262 0.65616 0.34236 0.0
H582 H 0.09749 0.59015 0.14777 0.0
H583 H 0.0767 0.56264 0.04624 0.0
C584 C 0.97541 0.23202 0.46098 0.0
C585 C 0.96241 0.2407 0.35073 0.0
C586 C 0.90379 0.21356 0.39241 0.0
C587 C 0.91762 0.2028 0.49958 0.0
N588 N 0.9608 0.21053 0.65085 0.0
N589 N 0.91215 0.2505 0.22391 0.0
C590 C 0.95149 0.21546 0.53921 0.0
C591 C 0.92568 0.23525 0.32095 0.0
N592 N 1.011 0.23737 0.48787 0.0
N593 N 0.87092 0.20102 0.35624 0.0
H594 H 0.88487 0.24994 0.20226 0.0
H595 H 0.92785 0.26663 0.17019 0.0
H596 H 0.85375 0.18598 0.40855 0.0
H597 H 0.86136 0.20408 0.27316 0.0
H598 H 0.02296 0.22772 0.56216 0.0
H599 H 0.02931 0.24979 0.43269 0.0
H600 H 0.98395 0.22144 0.68825 0.0
H601 H 0.94323 0.19816 0.70838 0.0
C602 C 0.33985 0.1186 0.41201 0.0
C603 C 0.30306 0.10901 0.41087 0.0
C604 C 0.3118 0.07396 0.58186 0.0
C605 C 0.34738 0.06826 0.54199 0.0
N606 N 0.39988 0.09832 0.46489 0.0
N607 N 0.25689 0.10943 0.55285 0.0
C608 C 0.36339 0.09575 0.47425 0.0
C609 C 0.2898 0.09776 0.51798 0.0
N610 N 0.3515 0.14592 0.34389 0.0
N611 N 0.29877 0.0537 0.66951 0.0
H612 H 0.24565 0.10323 0.63217 0.0
H613 H 0.24565 0.10323 0.63217 0.0
H614 H 0.31572 0.03625 0.71413 0.0
H615 H 0.27179 0.05369 0.69485 0.0
H616 H 0.37825 0.1546 0.33914 0.0
H617 H 0.33303 0.16051 0.29515 0.0
H618 H 0.41282 0.11808 0.41735 0.0
H619 H 0.41707 0.08191 0.51153 0.0
C620 C 0.63156 0.3246 0.29777 0.0
C621 C 0.59632 0.31492 0.33504 0.0
C622 C 0.61342 0.3292 0.53106 0.0
C623 C 0.64352 0.34817 0.48851 0.0
N624 N 0.68497 0.36096 0.33655 0.0
N625 N 0.55311 0.30791 0.48927 0.0
C626 C 0.65435 0.34399 0.37366 0.0
C627 C 0.58726 0.31622 0.45298 0.0
N628 N 0.64289 0.31541 0.19051 0.0
N629 N 0.60922 0.32569 0.64615 0.0
H630 H 0.53243 0.29983 0.43427 0.0
H631 H 0.5444 0.31184 0.57301 0.0
H632 H 0.62892 0.33528 0.70248 0.0
H633 H 0.58891 0.31019 0.68363 0.0
H634 H 0.62682 0.30044 0.13426 0.0
H635 H 0.66916 0.31965 0.16148 0.0
H636 H 0.69226 0.36292 0.25084 0.0
H637 H 0.70242 0.3742 0.39322 0.0
C638 C 0.23879 0.54844 0.51116 0.0
C639 C 0.24573 0.5636 0.40241 0.0
C640 C 0.23414 0.62411 0.47483 0.0
C641 C 0.22169 0.60815 0.57671 0.0
N642 N 0.22518 0.56017 0.71126 0.0
N643 N 0.26131 0.61393 0.2871 0.0
C644 C 0.22944 0.57191 0.60187 0.0
C645 C 0.24738 0.6013 0.38714 0.0
N646 N 0.23895 0.51191 0.52528 0.0
N647 N 0.22991 0.66031 0.46007 0.0
H648 H 0.26515 0.64107 0.26775 0.0
H649 H 0.26515 0.64107 0.26775 0.0
H650 H 0.22107 0.67683 0.52675 0.0
H651 H 0.23441 0.67383 0.3837 0.0
H652 H 0.23102 0.49914 0.6003 0.0
H653 H 0.24532 0.49409 0.45922 0.0
H654 H 0.23166 0.53437 0.73876 0.0
H655 H 0.21788 0.57809 0.77609 0.0
C656 C 0.9324 0.84536 0.12074 0.0
C657 C 0.94172 0.80904 0.13036 0.0
C658 C 0.98434 0.81542 0.97504 0.0
C659 C 0.98688 0.85228 1.00489 0.0
N660 N 0.95226 0.9047 0.06053 0.0
N661 N 0.94779 0.76113 0.9927 0.0
C662 C 0.95657 0.86837 0.06005 0.0
C663 C 0.95821 0.79411 0.03206 0.0
N664 N 0.90265 0.85724 0.17745 0.0
N665 N 1.00827 0.80093 0.89977 0.0
H666 H 0.92643 0.74716 0.03101 0.0
H667 H 0.95782 0.74986 0.91748 0.0
H668 H 0.02695 0.81716 0.85664 0.0
H669 H 1.00978 0.77335 0.88331 0.0
H670 H 0.893 0.88343 0.17342 0.0
H671 H 0.88682 0.8393 0.22491 0.0
H672 H 0.93175 0.91745 0.10506 0.0
H673 H 0.96872 0.92226 0.01542 0.0
C674 C 0.7363 0.99925 0.01731 0.0
C675 C 0.72361 0.97375 0.09705 0.0
C676 C 0.66386 0.99685 0.0842 0.0
C677 C 0.67898 0.03014 0.04312 0.0
N678 N 0.72713 0.05868 0.93588 0.0
N679 N 0.67521 0.93219 0.10513 0.0
C680 C 0.7145 0.02996 0.99656 0.0
C681 C 0.68684 0.9665 0.08825 0.0
N682 N 0.76802 0.99325 0.96194 0.0
N683 N 0.63074 0.99517 0.1351 0.0
H684 H 0.6481 0.9245 0.10034 0.0
H685 H 0.6481 0.9245 0.10034 0.0
H686 H 0.61479 0.01749 0.15217 0.0
H687 H 0.62126 0.97186 0.1742 0.0
H688 H 0.77802 1.00985 0.89759 0.0
H689 H 0.78254 0.96963 0.97626 0.0
H690 H 0.75386 0.06108 0.90897 0.0
H691 H 0.7106 0.08026 0.91397 0.0
C692 C 0.58959 0.75345 1.00834 0.0
C693 C 0.60271 0.73924 0.11231 0.0
C694 C 0.58887 0.67962 0.04091 0.0
C695 C 0.56007 0.69585 0.97917 0.0
N696 N 0.54268 0.74643 0.86467 0.0
N697 N 0.64103 0.69098 0.16587 0.0
C698 C 0.5644 0.73221 0.94647 0.0
C699 C 0.61196 0.70272 0.10582 0.0
N700 N 0.60156 0.786 0.97061 0.0
N701 N 0.59286 0.64323 0.04191 0.0
H702 H 0.65631 0.70905 0.21507 0.0
H703 H 0.65061 0.6647 0.16286 0.0
H704 H 0.57699 0.62594 0.99312 0.0
H705 H 0.61254 0.63024 0.08945 0.0
H706 H 0.59401 0.79675 0.89202 0.0
H707 H 0.62108 0.80047 0.01663 0.0
H708 H 0.54248 0.77381 0.84527 0.0
H709 H 0.52451 0.73018 0.81911 0.0
C710 C 0.8302 0.47446 0.02352 0.0
C711 C 0.82025 0.46235 0.13381 0.0
C712 C 0.84388 0.40245 0.0936 0.0
C713 C 0.85595 0.41537 0.98665 0.0
N714 N 0.85024 0.45768 0.83365 0.0
N715 N 0.80618 0.41288 0.25964 0.0
C716 C 0.84499 0.44935 0.94581 0.0
C717 C 0.8231 0.4255 0.16386 0.0
N718 N 0.82798 0.51015 0.99607 0.0
N719 N 0.8544 0.36929 0.13085 0.0
H720 H 0.79049 0.42933 0.31219 0.0
H721 H 0.80487 0.38568 0.28095 0.0
H722 H 0.86863 0.35135 0.07919 0.0
H723 H 0.85037 0.36022 0.21402 0.0
H724 H 0.83868 0.521 0.92132 0.0
H725 H 0.8176 0.52955 0.0515 0.0
H726 H 0.84046 0.48101 0.79569 0.0
H727 H 0.86139 0.43912 0.77682 0.0
C728 C 0.05143 0.18524 0.96309 0.0
C729 C 0.01965 0.20563 0.98662 0.0
C730 C 0.98436 0.15619 0.88764 0.0
C731 C 0.01633 0.13534 0.86696 0.0
N732 N 0.08138 0.13711 0.86068 0.0
N733 N 0.95692 0.21368 0.94289 0.0
C734 C 0.04995 0.15218 0.89726 0.0
C735 C 0.98658 0.19192 0.93911 0.0
N736 N 0.08408 0.19637 1.00357 0.0
N737 N 0.95131 0.14143 0.86332 0.0
H738 H 0.95809 0.23993 0.97507 0.0
H739 H 0.93215 0.20748 0.90554 0.0
H740 H 0.94782 0.11628 0.82553 0.0
H741 H 0.92691 0.15268 0.88856 0.0
H742 H 0.08782 0.21979 0.05189 0.0
H743 H 0.08782 0.21979 0.05189 0.0
H744 H 0.1066 0.14859 0.87824 0.0
H745 H 0.08187 0.11462 0.80693 0.0
C746 C 0.35444 1.00988 0.03876 0.0
C747 C 0.33559 0.04331 0.04551 0.0
C748 C 0.38846 0.07158 0.94896 0.0
C749 C 0.40621 0.03766 0.92833 0.0
N750 N 0.39994 0.9728 0.94553 0.0
N751 N 0.33114 0.10266 0.9666 0.0
C752 C 0.38696 1.00631 0.96918 0.0
C753 C 0.35139 0.07269 0.9858 0.0
N754 N 0.34267 0.98174 0.10379 0.0
N755 N 0.40692 0.10346 0.94349 0.0
H756 H 0.3041 0.10426 0.99151 0.0
H757 H 0.34002 0.12376 0.91485 0.0
H758 H 0.4347 0.10557 0.93714 0.0
H759 H 0.39525 0.12805 0.96528 0.0
H760 H 0.35749 0.95825 0.11512 0.0
H761 H 0.31929 0.98306 0.15316 0.0
H762 H 0.38514 0.94932 0.96058 0.0
H763 H 0.42467 0.96831 0.90611 0.0
C764 C 0.56114 0.36261 0.932 0.0
C765 C 0.5292 0.34874 0.98495 0.0
C766 C 0.49655 0.40005 0.8938 0.0
C767 C 0.52954 0.41816 0.86273 0.0
N768 N 0.5952 0.41442 0.86508 0.0
N769 N 0.4659 0.3572 0.01949 0.0
C770 C 0.56233 0.39853 0.88398 0.0
C771 C 0.49672 0.36826 0.966 0.0
N772 N 0.59093 0.34109 0.92878 0.0
N773 N 0.46479 0.41186 0.84868 0.0
H774 H 0.4649 0.33413 0.07 0.0
H775 H 0.44215 0.37208 0.01904 0.0
H776 H 0.46367 0.43287 0.78984 0.0
H777 H 0.44034 0.39822 0.85915 0.0
H778 H 0.615 0.34805 0.88858 0.0
H779 H 0.59031 0.31449 0.95747 0.0
H780 H 0.61952 0.40344 0.89229 0.0
H781 H 0.59878 0.44034 0.83439 0.0
C782 C 0.19074 0.55794 0.99008 0.0
C783 C 0.20815 0.52442 1.0121 0.0
C784 C 0.16211 0.49702 0.88065 0.0
C785 C 0.13912 0.52818 0.8841 0.0
N786 N 0.13695 0.59138 0.94376 0.0
N787 N 0.20813 0.46072 0.97457 0.0
C788 C 0.15512 0.55953 0.9384 0.0
C789 C 0.19317 0.49364 0.9559 0.0
N790 N 0.20935 0.58901 1.01391 0.0
N791 N 0.1565 0.47175 0.79774 0.0
H792 H 0.23031 0.4571 0.02806 0.0
H793 H 0.19708 0.43686 0.94252 0.0
H794 H 0.13734 0.47507 0.73367 0.0
H795 H 0.17416 0.45048 0.78287 0.0
H796 H 0.20091 0.61442 0.98785 0.0
H797 H 0.23558 0.58893 0.04664 0.0
H798 H 0.1448 0.61252 0.99727 0.0
H799 H 0.11305 0.59695 0.90194 0.0
C800 C 0.97345 0.85405 0.59983 0.0
C801 C 0.99805 0.8437 0.51079 0.0
C802 C 0.02698 0.90482 0.53771 0.0
C803 C 1.00469 0.91419 0.6336 0.0
N804 N 0.95815 0.8934 0.76122 0.0
N805 N 0.05251 0.85901 0.41109 0.0
C806 C 0.9784 0.8874 0.66574 0.0
C807 C 0.02618 0.86902 0.48605 0.0
N808 N 0.94421 0.83237 0.61947 0.0
N809 N 0.04659 0.93143 0.48698 0.0
H810 H 0.05252 0.83382 0.37118 0.0
H811 H 0.07595 0.87412 0.39782 0.0
H812 H 0.04489 0.9581 0.51396 0.0
H813 H 0.06047 0.92811 0.41026 0.0
H814 H 0.92246 0.83979 0.67054 0.0
H815 H 0.94082 0.80751 0.57872 0.0
H816 H 0.9412 0.87414 0.79764 0.0
H817 H 0.96033 0.91697 0.8093 0.0
C818 C 0.68466 0.99483 0.60083 0.0
C819 C 0.69133 1.01179 0.49343 0.0
C820 C 0.62701 0.03192 0.49569 0.0
C821 C 0.62024 0.01679 0.60627 0.0
N822 N 0.64728 0.98955 0.77237 0.0
N823 N 0.67074 0.05655 0.36221 0.0
C824 C 0.65066 1.00029 0.66157 0.0
C825 C 0.66299 0.03335 0.44894 0.0
N826 N 0.71029 0.9723 0.64343 0.0
N827 N 0.59908 0.04466 0.43184 0.0
H828 H 0.69661 0.05892 0.32744 0.0
H829 H 0.65278 0.07636 0.33604 0.0
H830 H 0.57284 0.04643 0.46178 0.0
H831 H 0.60165 0.05133 0.34572 0.0
H832 H 0.70609 0.95574 0.71389 0.0
H833 H 0.7352 0.96872 0.60342 0.0
H834 H 0.66891 0.9807 0.82152 0.0
H835 H 0.62334 0.99218 0.81804 0.0
C836 C 0.56759 0.69618 0.57515 0.0
C837 C 0.54255 0.70608 0.48705 0.0
C838 C 0.5138 0.64535 0.51589 0.0
C839 C 0.53635 0.6364 0.6112 0.0
N840 N 0.58406 0.65712 0.73521 0.0
N841 N 0.48768 0.6904 0.38942 0.0
C842 C 0.56302 0.66308 0.64151 0.0
C843 C 0.51429 0.68083 0.46387 0.0
N844 N 0.59672 0.71818 0.59363 0.0
N845 N 0.49454 0.61848 0.46502 0.0
H846 H 0.48745 0.71534 0.34864 0.0
H847 H 0.46427 0.67513 0.37702 0.0
H848 H 0.49618 0.59197 0.49269 0.0
H849 H 0.4812 0.62145 0.3873 0.0
H850 H 0.61874 0.71118 0.64402 0.0
H851 H 0.59967 0.74299 0.55289 0.0
H852 H 0.60166 0.67617 0.76993 0.0
H853 H 0.58211 0.63369 0.78347 0.0
C854 C 0.86554 0.48613 0.55116 0.0
C855 C 0.85054 0.51874 0.50666 0.0
C856 C 0.89981 0.55124 0.61276 0.0
C857 C 0.91863 0.51852 0.63826 0.0
N858 N 0.91805 0.4536 0.62098 0.0
N859 N 0.85695 0.583 0.49121 0.0
C860 C 0.90083 0.48565 0.60551 0.0
C861 C 0.86857 0.55146 0.53748 0.0
N862 N 0.84556 0.45517 0.54167 0.0
N863 N 0.91075 0.58231 0.66516 0.0
H864 H 0.83444 0.5844 0.43794 0.0
H865 H 0.87096 0.60727 0.49983 0.0
H866 H 0.93193 0.58294 0.72381 0.0
H867 H 0.89651 0.60638 0.66002 0.0
H868 H 0.85298 0.43065 0.57722 0.0
H869 H 0.8195 0.45493 0.50752 0.0
H870 H 0.90885 0.42929 0.58676 0.0
H871 H 0.94321 0.45136 0.65969 0.0
loop_
_geom_bond_atom_site_label_1
_geom_bond_atom_site_label_2
_geom_bond_distance
_geom_bond_site_symmetry_2
_ccdc_geom_bond_type
H0 C7 0.929 . S
H1 C10 0.930 . S
H2 C12 0.929 . S
H3 C4 0.969 . S
C4 H3 0.969 . S
C4 O5 1.550 . S
C4 H6 0.973 . S
O5 C4 1.550 . S
O5 C11 1.412 . S
H6 C4 0.973 . S
C7 H0 0.929 . S
C7 C8 1.400 . S
C7 C9 1.364 . S
C8 C7 1.400 . S
C8 C12 1.377 . S
C9 C7 1.364 . S
C9 C10 1.374 . S
C10 H1 0.930 . S
C10 C9 1.374 . S
C10 C11 1.383 . S
C11 O5 1.412 . S
C11 C10 1.383 . S
C11 C12 1.394 . S
C12 H2 0.929 . S
C12 C8 1.377 . S
C12 C11 1.394 . S
H13 C20 0.929 . S
H14 C23 0.930 . S
H15 C25 0.929 . S
H16 C17 0.969 1_455 S
C17 H16 0.969 1_655 S
C17 O18 1.550 . S
C17 H19 0.973 . S
O18 C17 1.550 . S
O18 C24 1.412 . S
H19 C17 0.973 . S
C20 H13 0.929 . S
C20 C21 1.400 . S
C20 C22 1.364 . S
C21 C20 1.400 . S
C21 C25 1.377 . S
C22 C20 1.364 . S
C22 C23 1.374 . S
C23 H14 0.930 . S
C23 C22 1.374 . S
C23 C24 1.383 . S
C24 O18 1.412 . S
C24 C23 1.383 . S
C24 C25 1.394 . S
C25 H15 0.929 . S
C25 C21 1.377 . S
C25 C24 1.394 . S
H26 C33 0.929 . S
H27 C36 0.930 . S
H28 C38 0.929 . S
H29 C30 0.969 1_545 S
C30 H29 0.969 1_565 S
C30 O31 1.550 . S
C30 H32 0.973 . S
O31 C30 1.550 . S
O31 C37 1.412 . S
H32 C30 0.973 . S
C33 H26 0.929 . S
C33 C34 1.400 . S
C33 C35 1.364 . S
C34 C33 1.400 . S
C34 C38 1.377 . S
C35 C33 1.364 . S
C35 C36 1.374 . S
C36 H27 0.930 . S
C36 C35 1.374 . S
C36 C37 1.383 . S
C37 O31 1.412 . S
C37 C36 1.383 . S
C37 C38 1.394 . S
C38 H28 0.929 . S
C38 C34 1.377 . S
C38 C37 1.394 . S
H39 C46 0.929 . S
H40 C49 0.930 . S
H41 C51 0.929 . S
H42 C43 0.969 . S
C43 H42 0.969 . S
C43 O44 1.550 . S
C43 H45 0.973 . S
O44 C43 1.550 . S
O44 C50 1.412 . S
H45 C43 0.973 . S
C46 H39 0.929 . S
C46 C47 1.400 . S
C46 C48 1.364 . S
C47 C46 1.400 . S
C47 C51 1.377 . S
C48 C46 1.364 . S
C48 C49 1.374 . S
C49 H40 0.930 . S
C49 C48 1.374 . S
C49 C50 1.383 . S
C50 O44 1.412 . S
C50 C49 1.383 . S
C50 C51 1.394 . S
C51 H41 0.929 . S
C51 C47 1.377 . S
C51 C50 1.394 . S
H52 C59 0.929 . S
H53 C62 0.930 . S
H54 C64 0.929 . S
H55 C56 0.969 . S
C56 H55 0.969 . S
C56 O57 1.550 . S
C56 H58 0.973 . S
O57 C56 1.550 . S
O57 C63 1.412 . S
H58 C56 0.973 . S
C59 H52 0.929 . S
C59 C60 1.400 1_554 S
C59 C61 1.364 . S
C60 C59 1.400 1_556 S
C60 C64 1.377 . S
C61 C59 1.364 . S
C61 C62 1.374 . S
C62 H53 0.930 . S
C62 C61 1.374 . S
C62 C63 1.383 . S
C63 O57 1.412 . S
C63 C62 1.383 . S
C63 C64 1.394 1_554 S
C64 H54 0.929 . S
C64 C60 1.377 . S
C64 C63 1.394 1_556 S
H65 C72 0.929 . S
H66 C75 0.930 . S
H67 C77 0.929 . S
H68 C69 0.969 . S
C69 H68 0.969 . S
C69 O70 1.550 . S
C69 H71 0.973 . S
O70 C69 1.550 . S
O70 C76 1.412 . S
H71 C69 0.973 . S
C72 H65 0.929 . S
C72 C73 1.400 1_554 S
C72 C74 1.364 . S
C73 C72 1.400 1_556 S
C73 C77 1.377 . S
C74 C72 1.364 . S
C74 C75 1.374 . S
C75 H66 0.930 . S
C75 C74 1.374 . S
C75 C76 1.383 . S
C76 O70 1.412 . S
C76 C75 1.383 . S
C76 C77 1.394 1_554 S
C77 H67 0.929 . S
C77 C73 1.377 . S
C77 C76 1.394 1_556 S
H78 C85 0.929 . S
H79 C88 0.930 . S
H80 C90 0.929 . S
H81 C82 0.969 . S
C82 H81 0.969 . S
C82 O83 1.550 . S
C82 H84 0.973 . S
O83 C82 1.550 . S
O83 C89 1.412 . S
H84 C82 0.973 . S
C85 H78 0.929 . S
C85 C86 1.400 1_554 S
C85 C87 1.364 . S
C86 C85 1.400 1_556 S
C86 C90 1.377 . S
C87 C85 1.364 . S
C87 C88 1.374 . S
C88 H79 0.930 . S
C88 C87 1.374 . S
C88 C89 1.383 . S
C89 O83 1.412 . S
C89 C88 1.383 . S
C89 C90 1.394 1_554 S
C90 H80 0.929 . S
C90 C86 1.377 . S
C90 C89 1.394 1_556 S
H91 C98 0.929 . S
H92 C101 0.930 . S
H93 C103 0.929 . S
H94 C95 0.969 . S
C95 H94 0.969 . S
C95 O96 1.550 . S
C95 H97 0.973 . S
O96 C95 1.550 . S
O96 C102 1.412 . S
H97 C95 0.973 . S
C98 H91 0.929 . S
C98 C99 1.400 1_554 S
C98 C100 1.364 . S
C99 C98 1.400 1_556 S
C99 C103 1.377 . S
C100 C98 1.364 . S
C100 C101 1.374 . S
C101 H92 0.930 . S
C101 C100 1.374 . S
C101 C102 1.383 . S
C102 O96 1.412 . S
C102 C101 1.383 . S
C102 C103 1.394 1_554 S
C103 H93 0.929 . S
C103 C99 1.377 . S
C103 C102 1.394 1_556 S
C104 C106 1.422 . S
C104 C108 1.415 . S
C104 N110 1.369 1_554 S
C105 C106 1.421 . S
C105 C107 1.417 . S
C105 C117 1.422 . S
C106 C104 1.422 . S
C106 C105 1.421 . S
C106 N116 1.359 . S
C107 C105 1.417 . S
C107 C109 1.329 . S
C107 H126 0.930 . S
C108 C104 1.415 . S
C108 C109 1.437 . S
C108 C112 1.413 1_554 S
C109 C107 1.329 . S
C109 C108 1.437 . S
C109 H131 0.929 . S
N110 C104 1.369 1_556 S
N110 C111 1.338 . S
N110 Gd115 2.622 1_545 S
C111 N110 1.338 . S
C111 C113 1.378 . S
C111 H123 0.929 1_545 S
C112 C108 1.413 1_556 S
C112 C113 1.348 . S
C112 H128 0.931 . S
C113 C111 1.378 . S
C113 C112 1.348 . S
C113 H129 0.930 . S
Gd114 N134 2.622 . S
Gd114 N141 2.570 . S
Gd114 O148 2.353 1_655 S
Gd114 O149 2.468 . S
Gd114 O150 2.427 . S
Gd114 O152 2.388 . S
Gd114 O153 2.386 1_545 S
Gd114 O157 2.307 1_655 S
Gd114 C167 2.805 . S
Gd115 N110 2.622 1_565 S
Gd115 N116 2.570 1_566 S
Gd115 O147 2.386 1_565 S
Gd115 O151 2.307 1_465 S
Gd115 O154 2.353 . S
Gd115 O155 2.468 . S
Gd115 O156 2.427 . S
Gd115 O158 2.388 . S
Gd115 C179 2.805 . S
N116 C106 1.359 . S
N116 Gd115 2.570 1_544 S
N116 C118 1.343 . S
C117 C105 1.422 . S
C117 C119 1.321 . S
C117 H125 0.931 . S
C118 N116 1.343 . S
C118 C119 1.390 . S
C118 H120 0.957 . S
C119 C117 1.321 . S
C119 C118 1.390 . S
C119 H121 0.930 . S
H120 C118 0.957 . S
H121 C119 0.930 . S
H122 C145 0.931 1_455 S
H123 C111 0.929 1_565 S
H124 C146 0.930 1_455 S
H125 C117 0.931 . S
H126 C107 0.930 . S
H127 C136 0.929 . S
H128 C112 0.931 . S
H129 C113 0.930 . S
H130 C168 0.930 . S
H131 C109 0.929 . S
H132 C137 0.931 . S
H133 C138 0.930 . S
N134 Gd114 2.622 . S
N134 C135 1.369 1_545 S
N134 C136 1.338 . S
C135 N134 1.369 1_565 S
C135 C139 1.415 . S
C135 C142 1.422 . S
C136 H127 0.929 . S
C136 N134 1.338 . S
C136 C138 1.378 . S
C137 H132 0.931 . S
C137 C138 1.348 1_565 S
C137 C139 1.413 . S
C138 H133 0.930 . S
C138 C136 1.378 . S
C138 C137 1.348 1_545 S
C139 C135 1.415 . S
C139 C137 1.413 . S
C139 C169 1.437 . S
H140 C169 0.929 . S
N141 Gd114 2.570 . S
N141 C142 1.359 1_545 S
N141 C145 1.343 . S
C142 C135 1.422 . S
C142 N141 1.359 1_565 S
C142 C144 1.421 . S
C143 C144 1.422 . S
C143 C146 1.321 . S
C143 H170 0.931 . S
C144 C142 1.421 . S
C144 C143 1.422 . S
C144 C168 1.417 . S
C145 H122 0.931 1_655 S
C145 N141 1.343 . S
C145 C146 1.390 1_545 S
C146 H124 0.930 1_655 S
C146 C143 1.321 . S
C146 C145 1.390 1_565 S
O147 Gd115 2.386 1_545 S
O147 C159 1.265 . S
O148 Gd114 2.353 1_455 S
O148 C159 1.242 . S
O149 Gd114 2.468 . S
O149 C167 1.263 . S
O150 Gd114 2.427 . S
O150 C167 1.252 . S
O151 Gd115 2.307 1_645 S
O151 C160 1.261 . S
O152 Gd114 2.388 . S
O152 C160 1.252 . S
O153 Gd114 2.386 1_565 S
O153 C171 1.265 . S
O154 Gd115 2.353 . S
O154 C171 1.242 1_455 S
O155 Gd115 2.468 . S
O155 C179 1.263 . S
O156 Gd115 2.427 . S
O156 C179 1.252 . S
O157 Gd114 2.307 1_455 S
O157 C172 1.261 . S
O158 Gd115 2.388 . S
O158 C172 1.252 1_565 S
C159 O147 1.265 . S
C159 O148 1.242 . S
C160 O151 1.261 . S
C160 O152 1.252 . S
C161 C164 1.394 . S
C161 C166 1.370 . S
C161 C167 1.500 . S
C162 C165 1.383 . S
C162 C166 1.395 . S
C163 C164 1.396 . S
C163 C165 1.365 . S
C163 H180 0.929 . S
C164 C161 1.394 . S
C164 C163 1.396 . S
C164 H181 0.930 . S
C165 C162 1.383 . S
C165 C163 1.365 . S
C165 H182 0.931 . S
C166 C161 1.370 . S
C166 C162 1.395 . S
C166 H183 0.930 1_655 S
C167 Gd114 2.805 . S
C167 O149 1.263 . S
C167 O150 1.252 . S
C167 C161 1.500 . S
C168 H130 0.930 . S
C168 C144 1.417 . S
C168 C169 1.329 . S
C169 C139 1.437 . S
C169 H140 0.929 . S
C169 C168 1.329 . S
H170 C143 0.931 . S
C171 O153 1.265 . S
C171 O154 1.242 1_655 S
C172 O157 1.261 . S
C172 O158 1.252 1_545 S
C173 C176 1.394 . S
C173 C178 1.370 . S
C173 C179 1.500 1_554 S
C174 C177 1.383 . S
C174 C178 1.395 . S
C175 C176 1.396 . S
C175 C177 1.365 . S
C175 H184 0.929 . S
C176 C173 1.394 . S
C176 C175 1.396 . S
C176 H185 0.930 1_554 S
C177 C174 1.383 . S
C177 C175 1.365 . S
C177 H186 0.931 . S
C178 C173 1.370 . S
C178 C174 1.395 . S
C178 H187 0.930 . S
C179 Gd115 2.805 . S
C179 O155 1.263 . S
C179 O156 1.252 . S
C179 C173 1.500 1_556 S
H180 C163 0.929 . S
H181 C164 0.930 . S
H182 C165 0.931 . S
H183 C166 0.930 1_455 S
H184 C175 0.929 . S
H185 C176 0.930 1_556 S
H186 C177 0.931 . S
H187 C178 0.930 . S
C188 C190 1.422 . S
C188 C192 1.415 . S
C188 N194 1.369 . S
C189 C190 1.421 . S
C189 C191 1.417 . S
C189 C201 1.422 . S
C190 C188 1.422 . S
C190 C189 1.421 . S
C190 N200 1.359 . S
C191 C189 1.417 . S
C191 C193 1.329 . S
C191 H210 0.930 . S
C192 C188 1.415 . S
C192 C193 1.437 . S
C192 C196 1.413 . S
C193 C191 1.329 . S
C193 C192 1.437 . S
C193 H215 0.929 . S
N194 C188 1.369 . S
N194 C195 1.338 . S
N194 Gd199 2.622 . S
C195 N194 1.338 . S
C195 C197 1.378 . S
C195 H207 0.929 . S
C196 C192 1.413 . S
C196 C197 1.348 . S
C196 H212 0.931 . S
C197 C195 1.378 . S
C197 C196 1.348 . S
C197 H213 0.930 . S
Gd198 N218 2.622 . S
Gd198 N225 2.570 . S
Gd198 O232 2.353 1_545 S
Gd198 O233 2.468 . S
Gd198 O234 2.427 1_556 S
Gd198 O236 2.388 . S
Gd198 O237 2.386 . S
Gd198 O241 2.307 . S
Gd198 C251 2.805 1_556 S
Gd199 N194 2.622 . S
Gd199 N200 2.570 . S
Gd199 O231 2.386 . S
Gd199 O235 2.307 1_565 S
Gd199 O238 2.353 1_565 S
Gd199 O239 2.468 . S
Gd199 O240 2.427 . S
Gd199 O242 2.388 . S
Gd199 C263 2.805 . S
N200 C190 1.359 . S
N200 Gd199 2.570 . S
N200 C202 1.343 . S
C201 C189 1.422 . S
C201 C203 1.321 . S
C201 H209 0.931 . S
C202 N200 1.343 . S
C202 C203 1.390 . S
C202 H204 0.931 . S
C203 C201 1.321 . S
C203 C202 1.390 . S
C203 H205 0.930 . S
H204 C202 0.931 . S
H205 C203 0.930 . S
H206 C229 0.931 . S
H207 C195 0.929 . S
H208 C230 0.930 . S
H209 C201 0.931 . S
H210 C191 0.930 . S
H211 C220 0.928 1_554 S
H212 C196 0.931 . S
H213 C197 0.930 . S
H214 C252 0.930 . S
H215 C193 0.929 . S
H216 C221 0.931 1_554 S
H217 C222 0.930 . S
N218 Gd198 2.622 . S
N218 C219 1.369 . S
N218 C220 1.341 . S
C219 N218 1.369 . S
C219 C223 1.415 . S
C219 C226 1.422 . S
C220 H211 0.928 1_556 S
C220 N218 1.341 . S
C220 C222 1.377 1_556 S
C221 H216 0.931 1_556 S
C221 C222 1.348 1_556 S
C221 C223 1.413 . S
C222 H217 0.930 . S
C222 C220 1.377 1_554 S
C222 C221 1.348 1_554 S
C223 C219 1.415 . S
C223 C221 1.413 . S
C223 C253 1.437 . S
H224 C253 0.929 . S
N225 Gd198 2.570 . S
N225 C226 1.359 . S
N225 C229 1.343 . S
C226 C219 1.422 . S
C226 N225 1.359 . S
C226 C228 1.421 . S
C227 C228 1.422 . S
C227 C230 1.321 . S
C227 H254 0.931 . S
C228 C226 1.421 . S
C228 C227 1.422 . S
C228 C252 1.417 . S
C229 H206 0.931 . S
C229 N225 1.343 . S
C229 C230 1.390 . S
C230 H208 0.930 . S
C230 C227 1.321 . S
C230 C229 1.390 . S
O231 Gd199 2.386 . S
O231 C243 1.265 . S
O232 Gd198 2.353 1_565 S
O232 C243 1.242 . S
O233 Gd198 2.468 . S
O233 C251 1.263 1_556 S
O234 Gd198 2.427 1_554 S
O234 C251 1.252 . S
O235 Gd199 2.307 1_545 S
O235 C244 1.261 . S
O236 Gd198 2.388 . S
O236 C244 1.252 . S
O237 Gd198 2.386 . S
O237 C255 1.265 . S
O238 Gd199 2.353 1_545 S
O238 C255 1.242 . S
O239 Gd199 2.468 . S
O239 C263 1.263 . S
O240 Gd199 2.427 . S
O240 C263 1.252 . S
O241 Gd198 2.307 . S
O241 C256 1.262 . S
O242 Gd199 2.388 . S
O242 C256 1.251 1_565 S
C243 O231 1.265 . S
C243 O232 1.242 . S
C244 O235 1.261 . S
C244 O236 1.252 . S
C245 C248 1.394 . S
C245 C250 1.370 . S
C245 C251 1.500 . S
C246 C249 1.383 . S
C246 C250 1.395 . S
C247 C248 1.396 . S
C247 C249 1.365 . S
C247 H264 0.929 . S
C248 C245 1.394 . S
C248 C247 1.396 . S
C248 H265 0.930 . S
C249 C246 1.383 . S
C249 C247 1.365 . S
C249 H266 0.931 . S
C250 C245 1.370 . S
C250 C246 1.395 . S
C250 H267 0.930 . S
C251 Gd198 2.805 1_554 S
C251 O233 1.263 1_554 S
C251 O234 1.252 . S
C251 C245 1.500 . S
C252 H214 0.930 . S
C252 C228 1.417 . S
C252 C253 1.329 . S
C253 C223 1.437 . S
C253 H224 0.929 . S
C253 C252 1.329 . S
H254 C227 0.931 . S
C255 O237 1.265 . S
C255 O238 1.242 . S
C256 O241 1.262 . S
C256 O242 1.251 1_545 S
C257 C260 1.394 . S
C257 C262 1.370 . S
C257 C263 1.500 . S
C258 C261 1.383 . S
C258 C262 1.395 . S
C259 C260 1.396 . S
C259 C261 1.365 . S
C259 H268 0.929 . S
C260 C257 1.394 . S
C260 C259 1.396 . S
C260 H269 0.930 . S
C261 C258 1.383 . S
C261 C259 1.365 . S
C261 H270 0.931 . S
C262 C257 1.370 . S
C262 C258 1.395 . S
C262 H271 0.930 1_565 S
C263 Gd199 2.805 . S
C263 O239 1.263 . S
C263 O240 1.252 . S
C263 C257 1.500 . S
H264 C247 0.929 . S
H265 C248 0.930 . S
H266 C249 0.931 . S
H267 C250 0.930 . S
H268 C259 0.929 . S
H269 C260 0.930 . S
H270 C261 0.931 . S
H271 C262 0.930 1_545 S
C272 C274 1.422 . S
C272 C276 1.415 . S
C272 N278 1.369 1_554 S
C273 C274 1.421 . S
C273 C275 1.417 . S
C273 C285 1.422 . S
C274 C272 1.422 . S
C274 C273 1.421 . S
C274 N284 1.359 . S
C275 C273 1.417 . S
C275 C277 1.329 . S
C275 H294 0.930 . S
C276 C272 1.415 . S
C276 C277 1.437 . S
C276 C280 1.413 1_554 S
C277 C275 1.329 . S
C277 C276 1.437 . S
C277 H299 0.929 . S
N278 C272 1.369 1_556 S
N278 C279 1.338 . S
N278 Gd283 2.622 . S
C279 N278 1.338 . S
C279 C281 1.378 . S
C279 H291 0.929 . S
C280 C276 1.413 1_556 S
C280 C281 1.348 . S
C280 H296 0.931 . S
C281 C279 1.378 . S
C281 C280 1.348 . S
C281 H297 0.930 . S
Gd282 N302 2.622 . S
Gd282 N309 2.570 . S
Gd282 O316 2.353 . S
Gd282 O317 2.468 . S
Gd282 O318 2.427 . S
Gd282 O320 2.388 . S
Gd282 O321 2.386 . S
Gd282 O325 2.307 . S
Gd282 C335 2.805 . S
Gd283 N278 2.622 . S
Gd283 N284 2.570 1_556 S
Gd283 O315 2.386 . S
Gd283 O319 2.307 . S
Gd283 O322 2.353 . S
Gd283 O323 2.468 . S
Gd283 O324 2.427 . S
Gd283 O326 2.388 . S
Gd283 C347 2.805 . S
N284 C274 1.359 . S
N284 Gd283 2.570 1_554 S
N284 C286 1.343 . S
C285 C273 1.422 . S
C285 C287 1.321 . S
C285 H293 0.931 . S
C286 N284 1.343 . S
C286 C287 1.390 . S
C286 H288 0.931 . S
C287 C285 1.321 . S
C287 C286 1.390 . S
C287 H289 0.930 . S
H288 C286 0.931 . S
H289 C287 0.930 . S
H290 C313 0.931 . S
H291 C279 0.929 . S
H292 C314 0.930 . S
H293 C285 0.931 . S
H294 C275 0.930 . S
H295 C304 0.929 . S
H296 C280 0.931 . S
H297 C281 0.930 . S
H298 C336 0.930 . S
H299 C277 0.929 . S
H300 C305 0.931 . S
H301 C306 0.930 . S
N302 Gd282 2.622 . S
N302 C303 1.369 . S
N302 C304 1.338 . S
C303 N302 1.369 . S
C303 C307 1.415 . S
C303 C310 1.422 . S
C304 H295 0.929 . S
C304 N302 1.338 . S
C304 C306 1.378 . S
C305 H300 0.931 . S
C305 C306 1.348 . S
C305 C307 1.413 . S
C306 H301 0.930 . S
C306 C304 1.378 . S
C306 C305 1.348 . S
C307 C303 1.415 . S
C307 C305 1.413 . S
C307 C337 1.437 . S
H308 C337 0.929 . S
N309 Gd282 2.570 . S
N309 C310 1.359 . S
N309 C313 1.343 . S
C310 C303 1.422 . S
C310 N309 1.359 . S
C310 C312 1.421 . S
C311 C312 1.422 . S
C311 C314 1.321 . S
C311 H338 0.931 . S
C312 C310 1.421 . S
C312 C311 1.422 . S
C312 C336 1.417 . S
C313 H290 0.931 . S
C313 N309 1.343 . S
C313 C314 1.390 . S
C314 H292 0.930 . S
C314 C311 1.321 . S
C314 C313 1.390 . S
O315 Gd283 2.386 . S
O315 C327 1.265 . S
O316 Gd282 2.353 . S
O316 C327 1.242 . S
O317 Gd282 2.468 . S
O317 C335 1.263 . S
O318 Gd282 2.427 . S
O318 C335 1.252 . S
O319 Gd283 2.307 . S
O319 C328 1.261 . S
O320 Gd282 2.388 . S
O320 C328 1.252 . S
O321 Gd282 2.386 . S
O321 C339 1.265 . S
O322 Gd283 2.353 . S
O322 C339 1.242 . S
O323 Gd283 2.468 . S
O323 C347 1.263 . S
O324 Gd283 2.427 . S
O324 C347 1.252 . S
O325 Gd282 2.307 . S
O325 C340 1.261 . S
O326 Gd283 2.388 . S
O326 C340 1.252 . S
C327 O315 1.265 . S
C327 O316 1.242 . S
C328 O319 1.261 . S
C328 O320 1.252 . S
C329 C332 1.394 . S
C329 C334 1.370 . S
C329 C335 1.500 . S
C330 C333 1.383 . S
C330 C334 1.395 . S
C331 C332 1.396 . S
C331 C333 1.365 . S
C331 H348 0.929 . S
C332 C329 1.394 . S
C332 C331 1.396 . S
C332 H349 0.930 . S
C333 C330 1.383 . S
C333 C331 1.365 . S
C333 H350 0.931 . S
C334 C329 1.370 . S
C334 C330 1.395 . S
C334 H351 0.930 . S
C335 Gd282 2.805 . S
C335 O317 1.263 . S
C335 O318 1.252 . S
C335 C329 1.500 . S
C336 H298 0.930 . S
C336 C312 1.417 . S
C336 C337 1.329 . S
C337 C307 1.437 . S
C337 H308 0.929 . S
C337 C336 1.329 . S
H338 C311 0.931 . S
C339 O321 1.265 . S
C339 O322 1.242 . S
C340 O325 1.261 . S
C340 O326 1.252 . S
C341 C344 1.394 . S
C341 C346 1.370 . S
C341 C347 1.500 1_554 S
C342 C345 1.383 . S
C342 C346 1.395 . S
C343 C344 1.396 . S
C343 C345 1.365 . S
C343 H352 0.929 . S
C344 C341 1.394 . S
C344 C343 1.396 . S
C344 H353 0.930 1_554 S
C345 C342 1.383 . S
C345 C343 1.365 . S
C345 H354 0.931 . S
C346 C341 1.370 . S
C346 C342 1.395 . S
C346 H355 0.930 . S
C347 Gd283 2.805 . S
C347 O323 1.263 . S
C347 O324 1.252 . S
C347 C341 1.500 1_556 S
H348 C331 0.929 . S
H349 C332 0.930 . S
H350 C333 0.931 . S
H351 C334 0.930 . S
H352 C343 0.929 . S
H353 C344 0.930 1_556 S
H354 C345 0.931 . S
H355 C346 0.930 . S
C356 C358 1.422 . S
C356 C360 1.415 . S
C356 N362 1.369 1_554 S
C357 C358 1.421 . S
C357 C359 1.417 . S
C357 C369 1.422 . S
C358 C356 1.422 . S
C358 C357 1.421 . S
C358 N368 1.359 . S
C359 C357 1.417 . S
C359 C361 1.329 . S
C359 H378 0.930 . S
C360 C356 1.415 . S
C360 C361 1.437 . S
C360 C364 1.413 1_554 S
C361 C359 1.329 . S
C361 C360 1.437 . S
C361 H383 0.929 . S
N362 C356 1.369 1_556 S
N362 C363 1.340 . S
N362 Gd367 2.622 1_455 S
C363 N362 1.340 . S
C363 C365 1.384 . S
C363 H375 0.921 1_455 S
C364 C360 1.413 1_556 S
C364 C365 1.348 . S
C364 H380 0.931 . S
C365 C363 1.384 . S
C365 C364 1.348 . S
C365 H381 0.930 . S
Gd366 N386 2.622 . S
Gd366 N393 2.570 . S
Gd366 O400 2.353 . S
Gd366 O401 2.468 . S
Gd366 O402 2.427 . S
Gd366 O404 2.388 . S
Gd366 O405 2.386 1_455 S
Gd366 O409 2.307 . S
Gd366 C419 2.805 . S
Gd367 N362 2.622 1_655 S
Gd367 N368 2.570 1_656 S
Gd367 O399 2.386 1_655 S
Gd367 O403 2.307 1_655 S
Gd367 O406 2.353 . S
Gd367 O407 2.468 . S
Gd367 O408 2.427 . S
Gd367 O410 2.388 . S
Gd367 C431 2.805 . S
N368 C358 1.359 . S
N368 Gd367 2.570 1_454 S
N368 C370 1.343 . S
C369 C357 1.422 . S
C369 C371 1.321 . S
C369 H377 0.931 . S
C370 N368 1.343 . S
C370 C371 1.390 . S
C370 H372 0.931 . S
C371 C369 1.321 . S
C371 C370 1.390 . S
C371 H373 0.930 . S
H372 C370 0.931 . S
H373 C371 0.930 . S
H374 C397 0.931 . S
H375 C363 0.921 1_655 S
H376 C398 0.930 . S
H377 C369 0.931 . S
H378 C359 0.930 . S
H379 C388 0.929 . S
H380 C364 0.931 . S
H381 C365 0.930 . S
H382 C420 0.930 . S
H383 C361 0.929 . S
H384 C389 0.931 . S
H385 C390 0.930 . S
N386 Gd366 2.622 . S
N386 C387 1.369 1_455 S
N386 C388 1.338 . S
C387 N386 1.369 1_655 S
C387 C391 1.415 . S
C387 C394 1.422 . S
C388 H379 0.929 . S
C388 N386 1.338 . S
C388 C390 1.378 . S
C389 H384 0.931 . S
C389 C390 1.348 1_655 S
C389 C391 1.413 . S
C390 H385 0.930 . S
C390 C388 1.378 . S
C390 C389 1.348 1_455 S
C391 C387 1.415 . S
C391 C389 1.413 . S
C391 C421 1.437 . S
H392 C421 0.929 . S
N393 Gd366 2.570 . S
N393 C394 1.359 1_455 S
N393 C397 1.343 . S
C394 C387 1.422 . S
C394 N393 1.359 1_655 S
C394 C396 1.421 . S
C395 C396 1.422 . S
C395 C398 1.321 . S
C395 H422 0.931 . S
C396 C394 1.421 . S
C396 C395 1.422 . S
C396 C420 1.417 . S
C397 H374 0.931 . S
C397 N393 1.343 . S
C397 C398 1.390 1_455 S
C398 H376 0.930 . S
C398 C395 1.321 . S
C398 C397 1.390 1_655 S
O399 Gd367 2.386 1_455 S
O399 C411 1.265 . S
O400 Gd366 2.353 . S
O400 C411 1.242 . S
O401 Gd366 2.468 . S
O401 C419 1.263 . S
O402 Gd366 2.427 . S
O402 C419 1.252 . S
O403 Gd367 2.307 1_455 S
O403 C412 1.261 . S
O404 Gd366 2.388 . S
O404 C412 1.252 . S
O405 Gd366 2.386 1_655 S
O405 C423 1.265 . S
O406 Gd367 2.353 . S
O406 C423 1.242 . S
O407 Gd367 2.468 . S
O407 C431 1.263 . S
O408 Gd367 2.427 . S
O408 C431 1.252 . S
O409 Gd366 2.307 . S
O409 C424 1.261 . S
O410 Gd367 2.388 . S
O410 C424 1.252 1_655 S
C411 O399 1.265 . S
C411 O400 1.242 . S
C412 O403 1.261 . S
C412 O404 1.252 . S
C413 C416 1.394 . S
C413 C418 1.370 . S
C413 C419 1.500 . S
C414 C417 1.383 . S
C414 C418 1.395 . S
C415 C416 1.396 . S
C415 C417 1.365 . S
C415 H432 0.929 . S
C416 C413 1.394 . S
C416 C415 1.396 . S
C416 H433 0.930 . S
C417 C414 1.383 . S
C417 C415 1.365 . S
C417 H434 0.931 . S
C418 C413 1.370 . S
C418 C414 1.395 . S
C418 H435 0.930 . S
C419 Gd366 2.805 . S
C419 O401 1.263 . S
C419 O402 1.252 . S
C419 C413 1.500 . S
C420 H382 0.930 . S
C420 C396 1.417 . S
C420 C421 1.329 . S
C421 C391 1.437 . S
C421 H392 0.929 . S
C421 C420 1.329 . S
H422 C395 0.931 . S
C423 O405 1.265 . S
C423 O406 1.242 . S
C424 O409 1.261 . S
C424 O410 1.252 1_455 S
C425 C428 1.394 . S
C425 C430 1.370 . S
C425 C431 1.500 1_554 S
C426 C429 1.383 . S
C426 C430 1.395 . S
C427 C428 1.396 . S
C427 C429 1.365 . S
C427 H436 0.929 . S
C428 C425 1.394 . S
C428 C427 1.396 . S
C428 H437 0.930 1_554 S
C429 C426 1.383 . S
C429 C427 1.365 . S
C429 H438 0.931 . S
C430 C425 1.370 . S
C430 C426 1.395 . S
C430 H439 0.930 . S
C431 Gd367 2.805 . S
C431 O407 1.263 . S
C431 O408 1.252 . S
C431 C425 1.500 1_556 S
H432 C415 0.929 . S
H433 C416 0.930 . S
H434 C417 0.931 . S
H435 C418 0.930 . S
H436 C427 0.929 . S
H437 C428 0.930 1_556 S
H438 C429 0.931 . S
H439 C430 0.930 . S
C440 C441 1.363 . S
C440 C446 1.379 . S
C440 N448 1.356 . S
C441 C440 1.363 . S
C441 C447 1.363 . S
C442 C443 1.363 . S
C442 C447 1.379 . S
C442 N449 1.356 1_545 S
C443 C442 1.363 . S
C443 C446 1.363 . S
N444 C446 1.356 . S
N444 H456 0.984 . S
N444 H457 0.985 . S
N445 C447 1.356 1_565 S
N445 H450 0.991 . S
N445 H451 0.985 . S
C446 C440 1.379 . S
C446 C443 1.363 . S
C446 N444 1.356 . S
C447 C441 1.363 . S
C447 C442 1.379 . S
C447 N445 1.356 1_545 S
N448 C440 1.356 . S
N448 H454 0.984 . S
N448 H455 0.984 . S
N449 C442 1.356 1_565 S
N449 H452 0.984 . S
N449 H453 0.985 . S
H450 N445 0.991 . S
H451 N445 0.985 . S
H452 N449 0.984 . S
H453 N449 0.985 . S
H454 N448 0.984 . S
H455 N448 0.984 . S
H456 N444 0.984 . S
H457 N444 0.985 . S
C458 C459 1.363 . S
C458 C464 1.379 . S
C458 N466 1.356 . S
C459 C458 1.363 . S
C459 C465 1.363 . S
C460 C461 1.363 . S
C460 C465 1.379 . S
C460 N467 1.356 . S
C461 C460 1.363 . S
C461 C464 1.363 . S
N462 C464 1.356 . S
N462 H474 0.984 . S
N462 H475 0.985 . S
N463 C465 1.356 . S
N463 H468 0.984 . S
N463 H469 0.985 . S
C464 C458 1.379 . S
C464 C461 1.363 . S
C464 N462 1.356 . S
C465 C459 1.363 . S
C465 C460 1.379 . S
C465 N463 1.356 . S
N466 C458 1.356 . S
N466 H472 0.984 . S
N466 H473 0.984 . S
N467 C460 1.356 . S
N467 H470 0.984 . S
N467 H471 0.985 . S
H468 N463 0.984 . S
H469 N463 0.985 . S
H470 N467 0.984 . S
H471 N467 0.985 . S
H472 N466 0.984 . S
H473 N466 0.984 . S
H474 N462 0.984 . S
H475 N462 0.985 . S
C476 C477 1.363 . S
C476 C482 1.379 . S
C476 N484 1.356 . S
C477 C476 1.363 . S
C477 C483 1.363 . S
C478 C479 1.363 . S
C478 C483 1.379 . S
C478 N485 1.356 . S
C479 C478 1.363 . S
C479 C482 1.363 . S
N480 C482 1.356 . S
N480 H492 0.984 . S
N480 H493 0.985 . S
N481 C483 1.356 . S
N481 H486 0.984 . S
N481 H487 0.985 . S
C482 C476 1.379 . S
C482 C479 1.363 . S
C482 N480 1.356 . S
C483 C477 1.363 . S
C483 C478 1.379 . S
C483 N481 1.356 . S
N484 C476 1.356 . S
N484 H490 0.984 . S
N484 H491 0.984 . S
N485 C478 1.356 . S
N485 H488 0.984 . S
N485 H489 0.985 . S
H486 N481 0.984 . S
H487 N481 0.985 . S
H488 N485 0.984 . S
H489 N485 0.985 . S
H490 N484 0.984 . S
H491 N484 0.984 . S
H492 N480 0.984 . S
H493 N480 0.985 . S
C494 C495 1.363 . S
C494 C500 1.379 . S
C494 N502 1.356 . S
C495 C494 1.363 . S
C495 C501 1.363 . S
C496 C497 1.363 . S
C496 C501 1.379 . S
C496 N503 1.356 . S
C497 C496 1.363 . S
C497 C500 1.363 . S
N498 C500 1.356 1_655 S
N498 H510 0.984 . S
N498 H511 0.986 . S
N499 C501 1.356 . S
N499 H504 0.984 . S
N499 H505 0.985 . S
C500 C494 1.379 . S
C500 C497 1.363 . S
C500 N498 1.356 1_455 S
C501 C495 1.363 . S
C501 C496 1.379 . S
C501 N499 1.356 . S
N502 C494 1.356 . S
N502 H508 0.984 1_455 S
N502 H509 0.984 . S
N503 C496 1.356 . S
N503 H506 0.984 . S
N503 H507 0.985 . S
H504 N499 0.984 . S
H505 N499 0.985 . S
H506 N503 0.984 . S
H507 N503 0.985 . S
H508 N502 0.984 1_655 S
H509 N502 0.984 . S
H510 N498 0.984 . S
H511 N498 0.986 . S
C512 C513 1.363 1_545 S
C512 C518 1.379 . S
C512 N520 1.356 . S
C513 C512 1.363 1_565 S
C513 C519 1.363 . S
C514 C515 1.386 . S
C514 C519 1.379 . S
C514 N521 1.356 . S
C515 C514 1.386 . S
C515 C518 1.344 1_565 S
N516 C518 1.356 1_556 S
N516 H528 0.984 . S
N516 H529 0.985 . S
N517 C519 1.356 . S
N517 H522 0.984 . S
N517 H523 0.985 . S
C518 C512 1.379 . S
C518 C515 1.344 1_545 S
C518 N516 1.356 1_554 S
C519 C513 1.363 . S
C519 C514 1.379 . S
C519 N517 1.356 . S
N520 C512 1.356 . S
N520 H526 0.984 . S
N520 H527 0.984 . S
N521 C514 1.356 . S
N521 H524 0.984 1_554 S
N521 H525 0.985 . S
H522 N517 0.984 . S
H523 N517 0.985 . S
H524 N521 0.984 1_556 S
H525 N521 0.985 . S
H526 N520 0.984 . S
H527 N520 0.984 . S
H528 N516 0.984 . S
H529 N516 0.985 . S
C530 C531 1.363 . S
C530 C536 1.379 . S
C530 N538 1.356 . S
C531 C530 1.363 . S
C531 C537 1.363 . S
C532 C533 1.363 . S
C532 C537 1.379 . S
C532 N539 1.356 1_554 S
C533 C532 1.363 . S
C533 C536 1.363 . S
N534 C536 1.356 . S
N534 H546 0.984 . S
N534 H547 0.985 1_554 S
N535 C537 1.356 . S
N535 H540 0.984 . S
N535 H541 0.985 . S
C536 C530 1.379 . S
C536 C533 1.363 . S
C536 N534 1.356 . S
C537 C531 1.363 . S
C537 C532 1.379 . S
C537 N535 1.356 . S
N538 C530 1.356 . S
N538 H544 0.984 . S
N538 H545 0.984 . S
N539 C532 1.356 1_556 S
N539 H542 0.984 . S
N539 H543 0.985 . S
H540 N535 0.984 . S
H541 N535 0.985 . S
H542 N539 0.984 . S
H543 N539 0.985 . S
H544 N538 0.984 . S
H545 N538 0.984 . S
H546 N534 0.984 . S
H547 N534 0.985 1_556 S
C548 C549 1.363 . S
C548 C554 1.379 . S
C548 N556 1.356 . S
C549 C548 1.363 . S
C549 C555 1.363 . S
C550 C551 1.363 . S
C550 C555 1.379 . S
C550 N557 1.356 1_554 S
C551 C550 1.363 . S
C551 C554 1.363 . S
N552 C554 1.356 . S
N552 H564 0.984 . S
N552 H565 0.985 1_554 S
N553 C555 1.356 . S
N553 H558 0.984 . S
N553 H559 0.985 . S
C554 C548 1.379 . S
C554 C551 1.363 . S
C554 N552 1.356 . S
C555 C549 1.363 . S
C555 C550 1.379 . S
C555 N553 1.356 . S
N556 C548 1.356 . S
N556 H562 0.984 . S
N556 H563 0.984 . S
N557 C550 1.356 1_556 S
N557 H560 0.984 . S
N557 H561 0.985 . S
H558 N553 0.984 . S
H559 N553 0.985 . S
H560 N557 0.984 . S
H561 N557 0.985 . S
H562 N556 0.984 . S
H563 N556 0.984 . S
H564 N552 0.984 . S
H565 N552 0.985 1_556 S
C566 C567 1.363 1_455 S
C566 C572 1.379 . S
C566 N574 1.356 . S
C567 C566 1.363 1_655 S
C567 C573 1.363 . S
C568 C569 1.363 . S
C568 C573 1.379 . S
C568 N575 1.356 1_554 S
C569 C568 1.363 . S
C569 C572 1.363 1_655 S
N570 C572 1.356 . S
N570 H582 0.984 . S
N570 H583 0.985 1_554 S
N571 C573 1.356 . S
N571 H576 0.984 . S
N571 H577 0.985 . S
C572 C566 1.379 . S
C572 C569 1.363 1_455 S
C572 N570 1.356 . S
C573 C567 1.363 . S
C573 C568 1.379 . S
C573 N571 1.356 . S
N574 C566 1.356 . S
N574 H580 0.984 . S
N574 H581 0.984 . S
N575 C568 1.356 1_556 S
N575 H578 0.984 . S
N575 H579 0.985 . S
H576 N571 0.984 . S
H577 N571 0.985 . S
H578 N575 0.984 . S
H579 N575 0.985 . S
H580 N574 0.984 . S
H581 N574 0.984 . S
H582 N570 0.984 . S
H583 N570 0.985 1_556 S
C584 C585 1.363 . S
C584 C590 1.379 . S
C584 N592 1.356 . S
C585 C584 1.363 . S
C585 C591 1.363 . S
C586 C587 1.360 1_455 S
C586 C591 1.393 . S
C586 N593 1.342 1_455 S
C587 C586 1.360 1_655 S
C587 C590 1.363 1_655 S
N588 C590 1.356 . S
N588 H600 0.984 . S
N588 H601 0.985 1_455 S
N589 C591 1.356 . S
N589 H594 0.984 1_554 S
N589 H595 0.985 1_554 S
C590 C584 1.379 . S
C590 C587 1.363 1_455 S
C590 N588 1.356 . S
C591 C585 1.363 . S
C591 C586 1.393 . S
C591 N589 1.356 . S
N592 C584 1.356 . S
N592 H598 0.984 . S
N592 H599 0.984 . S
N593 C586 1.342 1_655 S
N593 H596 0.984 . S
N593 H597 0.985 . S
H594 N589 0.984 1_556 S
H595 N589 0.985 1_556 S
H596 N593 0.984 . S
H597 N593 0.985 . S
H598 N592 0.984 . S
H599 N592 0.984 . S
H600 N588 0.984 . S
H601 N588 0.985 1_655 S
C602 C603 1.363 . S
C602 C608 1.379 . S
C602 N610 1.356 . S
C603 C602 1.363 . S
C603 C609 1.363 . S
C604 C605 1.363 1_565 S
C604 C609 1.379 1_565 S
C604 N611 1.356 . S
C605 C604 1.363 1_545 S
C605 C608 1.363 . S
N606 C608 1.356 . S
N606 H618 0.984 . S
N606 H619 0.985 . S
N607 C609 1.356 1_565 S
N607 H612 0.984 1_565 S
N607 H613 0.985 . S
C608 C602 1.379 . S
C608 C605 1.363 . S
C608 N606 1.356 . S
C609 C603 1.363 . S
C609 C604 1.379 1_545 S
C609 N607 1.356 1_545 S
N610 C602 1.356 . S
N610 H616 0.984 . S
N610 H617 0.984 . S
N611 C604 1.356 . S
N611 H614 0.984 . S
N611 H615 0.985 . S
H612 N607 0.984 1_545 S
H613 N607 0.985 . S
H614 N611 0.984 . S
H615 N611 0.985 . S
H616 N610 0.984 . S
H617 N610 0.984 . S
H618 N606 0.984 . S
H619 N606 0.985 . S
C620 C621 1.363 . S
C620 C626 1.379 . S
C620 N628 1.356 . S
C621 C620 1.363 . S
C621 C627 1.363 . S
C622 C623 1.363 . S
C622 C627 1.379 . S
C622 N629 1.356 . S
C623 C622 1.363 . S
C623 C626 1.363 . S
N624 C626 1.356 . S
N624 H636 0.984 . S
N624 H637 0.985 . S
N625 C627 1.356 . S
N625 H630 0.984 . S
N625 H631 0.985 . S
C626 C620 1.379 . S
C626 C623 1.363 . S
C626 N624 1.356 . S
C627 C621 1.363 . S
C627 C622 1.379 . S
C627 N625 1.356 . S
N628 C620 1.356 . S
N628 H634 0.984 1_554 S
N628 H635 0.984 1_554 S
N629 C622 1.356 . S
N629 H632 0.984 . S
N629 H633 0.985 . S
H630 N625 0.984 . S
H631 N625 0.985 . S
H632 N629 0.984 . S
H633 N629 0.985 . S
H634 N628 0.984 1_556 S
H635 N628 0.984 1_556 S
H636 N624 0.984 . S
H637 N624 0.985 . S
C638 C639 1.363 . S
C638 C644 1.379 . S
C638 N646 1.356 . S
C639 C638 1.363 . S
C639 C645 1.363 . S
C640 C641 1.363 . S
C640 C645 1.379 . S
C640 N647 1.356 . S
C641 C640 1.363 . S
C641 C644 1.363 . S
N642 C644 1.356 . S
N642 H654 0.984 . S
N642 H655 0.985 . S
N643 C645 1.356 . S
N643 H648 0.984 . S
N643 H649 0.985 . S
C644 C638 1.379 . S
C644 C641 1.363 . S
C644 N642 1.356 . S
C645 C639 1.363 . S
C645 C640 1.379 . S
C645 N643 1.356 . S
N646 C638 1.356 . S
N646 H652 0.984 . S
N646 H653 0.984 . S
N647 C640 1.356 . S
N647 H650 0.984 . S
N647 H651 0.985 . S
H648 N643 0.984 . S
H649 N643 0.985 . S
H650 N647 0.984 . S
H651 N647 0.985 . S
H652 N646 0.984 . S
H653 N646 0.984 . S
H654 N642 0.984 . S
H655 N642 0.985 . S
C656 C657 1.363 . S
C656 C662 1.379 . S
C656 N664 1.356 . S
C657 C656 1.363 . S
C657 C663 1.363 1_655 S
C658 C659 1.363 . S
C658 C663 1.379 . S
C658 N665 1.356 . S
C659 C658 1.363 . S
C659 C662 1.363 1_455 S
N660 C662 1.356 . S
N660 H672 0.984 . S
N660 H673 0.985 1_655 S
N661 C663 1.356 . S
N661 H666 0.984 1_455 S
N661 H667 0.985 . S
C662 C656 1.379 . S
C662 C659 1.363 1_655 S
C662 N660 1.356 . S
C663 C657 1.363 1_455 S
C663 C658 1.379 . S
C663 N661 1.356 . S
N664 C656 1.356 . S
N664 H670 0.984 . S
N664 H671 0.984 . S
N665 C658 1.356 . S
N665 H668 0.984 . S
N665 H669 0.985 . S
H666 N661 0.984 1_655 S
H667 N661 0.985 . S
H668 N665 0.984 . S
H669 N665 0.985 . S
H670 N664 0.984 . S
H671 N664 0.984 . S
H672 N660 0.984 . S
H673 N660 0.985 1_455 S
C674 C675 1.363 . S
C674 C680 1.379 1_565 S
C674 N682 1.356 . S
C675 C674 1.363 . S
C675 C681 1.368 . S
C676 C677 1.363 . S
C676 C681 1.371 1_545 S
C676 N683 1.356 . S
C677 C676 1.363 . S
C677 C680 1.363 . S
N678 C680 1.356 . S
N678 H690 0.984 1_554 S
N678 H691 0.985 . S
N679 C681 1.361 . S
N679 H684 0.984 . S
N679 H685 0.985 . S
C680 C674 1.379 1_545 S
C680 C677 1.363 . S
C680 N678 1.356 . S
C681 C675 1.368 . S
C681 C676 1.371 1_565 S
C681 N679 1.361 . S
N682 C674 1.356 . S
N682 H688 0.984 . S
N682 H689 0.984 . S
N683 C676 1.356 . S
N683 H686 0.984 . S
N683 H687 0.985 . S
H684 N679 0.984 . S
H685 N679 0.985 . S
H686 N683 0.984 . S
H687 N683 0.985 . S
H688 N682 0.984 . S
H689 N682 0.984 . S
H690 N678 0.984 1_556 S
H691 N678 0.985 . S
C692 C693 1.363 . S
C692 C698 1.379 . S
C692 N700 1.356 . S
C693 C692 1.363 . S
C693 C699 1.363 . S
C694 C695 1.363 . S
C694 C699 1.379 . S
C694 N701 1.356 . S
C695 C694 1.363 . S
C695 C698 1.363 . S
N696 C698 1.356 . S
N696 H708 0.984 . S
N696 H709 0.985 . S
N697 C699 1.356 . S
N697 H702 0.984 . S
N697 H703 0.985 . S
C698 C692 1.379 . S
C698 C695 1.363 . S
C698 N696 1.356 . S
C699 C693 1.363 . S
C699 C694 1.379 . S
C699 N697 1.356 . S
N700 C692 1.356 . S
N700 H706 0.984 . S
N700 H707 0.984 . S
N701 C694 1.356 . S
N701 H704 0.984 . S
N701 H705 0.985 . S
H702 N697 0.984 . S
H703 N697 0.985 . S
H704 N701 0.984 . S
H705 N701 0.985 . S
H706 N700 0.984 . S
H707 N700 0.984 . S
H708 N696 0.984 . S
H709 N696 0.985 . S
C710 C711 1.363 . S
C710 C716 1.379 . S
C710 N718 1.356 . S
C711 C710 1.363 . S
C711 C717 1.363 . S
C712 C713 1.363 . S
C712 C717 1.379 . S
C712 N719 1.356 . S
C713 C712 1.363 . S
C713 C716 1.363 . S
N714 C716 1.356 . S
N714 H726 0.984 1_554 S
N714 H727 0.985 . S
N715 C717 1.356 . S
N715 H720 0.984 . S
N715 H721 0.985 . S
C716 C710 1.379 . S
C716 C713 1.363 . S
C716 N714 1.356 . S
C717 C711 1.363 . S
C717 C712 1.379 . S
C717 N715 1.356 . S
N718 C710 1.356 . S
N718 H724 0.984 . S
N718 H725 0.984 . S
N719 C712 1.356 . S
N719 H722 0.984 . S
N719 H723 0.985 . S
H720 N715 0.984 . S
H721 N715 0.985 . S
H722 N719 0.984 . S
H723 N719 0.985 . S
H724 N718 0.984 . S
H725 N718 0.984 . S
H726 N714 0.984 1_556 S
H727 N714 0.985 . S
C728 C729 1.363 . S
C728 C734 1.379 . S
C728 N736 1.356 1_556 S
C729 C728 1.363 . S
C729 C735 1.363 . S
C730 C731 1.363 . S
C730 C735 1.379 . S
C730 N737 1.356 1_455 S
C731 C730 1.363 . S
C731 C734 1.363 . S
N732 C734 1.356 . S
N732 H744 0.984 1_556 S
N732 H745 0.985 . S
N733 C735 1.364 . S
N733 H738 0.989 . S
N733 H739 0.973 1_455 S
C734 C728 1.379 . S
C734 C731 1.363 . S
C734 N732 1.356 . S
C735 C729 1.363 . S
C735 C730 1.379 . S
C735 N733 1.364 . S
N736 C728 1.356 1_554 S
N736 H742 0.984 . S
N736 H743 0.984 1_554 S
N737 C730 1.356 1_655 S
N737 H740 0.982 1_655 S
N737 H741 0.985 . S
H738 N733 0.989 . S
H739 N733 0.973 1_655 S
H740 N737 0.982 1_455 S
H741 N737 0.985 . S
H742 N736 0.984 . S
H743 N736 0.984 1_556 S
H744 N732 0.984 1_554 S
H745 N732 0.985 . S
C746 C747 1.363 . S
C746 C752 1.379 . S
C746 N754 1.356 1_545 S
C747 C746 1.363 . S
C747 C753 1.363 . S
C748 C749 1.363 . S
C748 C753 1.379 . S
C748 N755 1.356 . S
C749 C748 1.363 . S
C749 C752 1.363 . S
N750 C752 1.356 1_565 S
N750 H762 0.984 . S
N750 H763 0.985 . S
N751 C753 1.356 . S
N751 H756 0.984 . S
N751 H757 0.985 . S
C752 C746 1.379 . S
C752 C749 1.363 . S
C752 N750 1.356 1_545 S
C753 C747 1.363 . S
C753 C748 1.379 . S
C753 N751 1.356 . S
N754 C746 1.356 1_565 S
N754 H760 0.984 . S
N754 H761 0.984 . S
N755 C748 1.356 . S
N755 H758 0.984 . S
N755 H759 0.985 . S
H756 N751 0.984 . S
H757 N751 0.985 . S
H758 N755 0.984 . S
H759 N755 0.985 . S
H760 N754 0.984 . S
H761 N754 0.984 . S
H762 N750 0.984 . S
H763 N750 0.985 . S
C764 C765 1.363 . S
C764 C770 1.379 . S
C764 N772 1.356 . S
C765 C764 1.363 . S
C765 C771 1.363 . S
C766 C767 1.363 . S
C766 C771 1.379 . S
C766 N773 1.356 . S
C767 C766 1.363 . S
C767 C770 1.363 . S
N768 C770 1.356 . S
N768 H780 0.984 . S
N768 H781 0.985 . S
N769 C771 1.357 . S
N769 H774 0.985 . S
N769 H775 0.984 1_556 S
C770 C764 1.379 . S
C770 C767 1.363 . S
C770 N768 1.356 . S
C771 C765 1.363 . S
C771 C766 1.379 . S
C771 N769 1.357 . S
N772 C764 1.356 . S
N772 H778 0.984 . S
N772 H779 0.984 . S
N773 C766 1.356 . S
N773 H776 0.984 . S
N773 H777 0.985 1_556 S
H774 N769 0.985 . S
H775 N769 0.984 1_554 S
H776 N773 0.984 . S
H777 N773 0.985 1_554 S
H778 N772 0.984 . S
H779 N772 0.984 . S
H780 N768 0.984 . S
H781 N768 0.985 . S
C782 C783 1.363 . S
C782 C788 1.379 . S
C782 N790 1.356 . S
C783 C782 1.363 . S
C783 C789 1.363 . S
C784 C785 1.363 . S
C784 C789 1.379 . S
C784 N791 1.356 . S
C785 C784 1.363 . S
C785 C788 1.363 . S
N786 C788 1.356 . S
N786 H798 0.984 . S
N786 H799 0.985 . S
N787 C789 1.356 . S
N787 H792 0.984 . S
N787 H793 0.985 . S
C788 C782 1.379 . S
C788 C785 1.363 . S
C788 N786 1.356 . S
C789 C783 1.363 . S
C789 C784 1.379 . S
C789 N787 1.356 . S
N790 C782 1.356 . S
N790 H796 0.984 . S
N790 H797 0.984 . S
N791 C784 1.356 . S
N791 H794 0.984 . S
N791 H795 0.985 . S
H792 N787 0.984 . S
H793 N787 0.985 . S
H794 N791 0.984 . S
H795 N791 0.985 . S
H796 N790 0.984 . S
H797 N790 0.984 . S
H798 N786 0.984 . S
H799 N786 0.985 . S
C800 C801 1.363 . S
C800 C806 1.379 . S
C800 N808 1.356 . S
C801 C800 1.363 . S
C801 C807 1.363 1_655 S
C802 C803 1.363 1_455 S
C802 C807 1.379 . S
C802 N809 1.356 . S
C803 C802 1.363 1_655 S
C803 C806 1.363 . S
N804 C806 1.356 . S
N804 H816 0.984 . S
N804 H817 0.985 . S
N805 C807 1.356 . S
N805 H810 0.984 . S
N805 H811 0.985 . S
C806 C800 1.379 . S
C806 C803 1.363 . S
C806 N804 1.356 . S
C807 C801 1.363 1_455 S
C807 C802 1.379 . S
C807 N805 1.356 . S
N808 C800 1.356 . S
N808 H814 0.984 . S
N808 H815 0.984 . S
N809 C802 1.356 . S
N809 H812 0.984 . S
N809 H813 0.985 . S
H810 N805 0.984 . S
H811 N805 0.985 . S
H812 N809 0.984 . S
H813 N809 0.985 . S
H814 N808 0.984 . S
H815 N808 0.984 . S
H816 N804 0.984 . S
H817 N804 0.985 . S
C818 C819 1.363 . S
C818 C824 1.379 . S
C818 N826 1.356 . S
C819 C818 1.363 . S
C819 C825 1.363 1_565 S
C820 C821 1.363 1_545 S
C820 C825 1.379 . S
C820 N827 1.356 . S
C821 C820 1.363 1_565 S
C821 C824 1.363 . S
N822 C824 1.356 . S
N822 H834 0.984 . S
N822 H835 0.985 . S
N823 C825 1.356 . S
N823 H828 0.984 . S
N823 H829 0.985 . S
C824 C818 1.379 . S
C824 C821 1.363 . S
C824 N822 1.356 . S
C825 C819 1.363 1_545 S
C825 C820 1.379 . S
C825 N823 1.356 . S
N826 C818 1.356 . S
N826 H832 0.984 . S
N826 H833 0.984 . S
N827 C820 1.356 . S
N827 H830 0.984 . S
N827 H831 0.985 . S
H828 N823 0.984 . S
H829 N823 0.985 . S
H830 N827 0.984 . S
H831 N827 0.985 . S
H832 N826 0.984 . S
H833 N826 0.984 . S
H834 N822 0.984 . S
H835 N822 0.985 . S
C836 C837 1.363 . S
C836 C842 1.379 . S
C836 N844 1.356 . S
C837 C836 1.363 . S
C837 C843 1.363 . S
C838 C839 1.363 . S
C838 C843 1.379 . S
C838 N845 1.356 . S
C839 C838 1.363 . S
C839 C842 1.363 . S
N840 C842 1.356 . S
N840 H852 0.984 . S
N840 H853 0.985 . S
N841 C843 1.356 . S
N841 H846 0.984 . S
N841 H847 0.985 . S
C842 C836 1.379 . S
C842 C839 1.363 . S
C842 N840 1.356 . S
C843 C837 1.363 . S
C843 C838 1.379 . S
C843 N841 1.356 . S
N844 C836 1.356 . S
N844 H850 0.984 . S
N844 H851 0.984 . S
N845 C838 1.356 . S
N845 H848 0.984 . S
N845 H849 0.985 . S
H846 N841 0.984 . S
H847 N841 0.985 . S
H848 N845 0.984 . S
H849 N845 0.985 . S
H850 N844 0.984 . S
H851 N844 0.984 . S
H852 N840 0.984 . S
H853 N840 0.985 . S
C854 C855 1.363 . S
C854 C860 1.379 . S
C854 N862 1.356 . S
C855 C854 1.363 . S
C855 C861 1.363 . S
C856 C857 1.363 . S
C856 C861 1.379 . S
C856 N863 1.356 . S
C857 C856 1.363 . S
C857 C860 1.363 . S
N858 C860 1.356 . S
N858 H870 0.984 . S
N858 H871 0.985 . S
N859 C861 1.356 . S
N859 H864 0.984 . S
N859 H865 0.985 . S
C860 C854 1.379 . S
C860 C857 1.363 . S
C860 N858 1.356 . S
C861 C855 1.363 . S
C861 C856 1.379 . S
C861 N859 1.356 . S
N862 C854 1.356 . S
N862 H868 0.984 . S
N862 H869 0.984 . S
N863 C856 1.356 . S
N863 H866 0.984 . S
N863 H867 0.985 . S
H864 N859 0.984 . S
H865 N859 0.985 . S
H866 N863 0.984 . S
H867 N863 0.985 . S
H868 N862 0.984 . S
H869 N862 0.984 . S
H870 N858 0.984 . S
H871 N858 0.985 . S
C441 C82 1.806 . S
C443 C172 2.171 . S
C461 C255 2.177 . S
C459 C95 1.805 . S
C479 C340 2.171 . S
C477 C56 1.801 . S
C497 C424 2.158 . S
C495 C69 1.793 . S
C515 C160 2.165 1_564 S
C513 C30 1.770 . S
C531 C43 1.770 . S
C533 C243 2.178 1_554 S
C549 C4 1.767 . S
C551 C328 2.171 1_554 S
C567 C17 1.760 . S
C569 C412 2.158 1_654 S
C587 C162 0.772 . S
C585 C74 0.770 . S
C605 C258 0.757 1_545 S
C603 C87 0.757 . S
C623 C330 0.779 . S
C621 C100 0.777 . S
C639 C61 0.758 . S
C641 C414 0.758 . S
C657 C22 0.769 . S
C659 C174 0.772 . S
C677 C246 0.757 . S
C675 C35 0.756 . S
C695 C342 0.779 . S
C693 C48 0.776 . S
C711 C9 0.757 . S
C713 C426 0.758 . S
C729 C73 2.028 . S
C731 C159 2.284 . S
C747 C86 2.033 . S
C749 C244 2.330 . S
C767 C327 2.301 . S
C765 C99 2.042 . S
C785 C411 2.305 . S
C783 C60 2.047 . S
C801 C21 2.027 . S
C803 C171 2.285 . S
C821 C256 2.329 1_565 S
C819 C34 2.031 . S
C839 C339 2.301 . S
C837 C47 2.040 . S
C855 C8 2.045 . S
C857 C423 2.305 . S
