# Generated by pormake.
# Topology zzz, (3,6)-cn, num edge types: 1
# Building blocks:
#     Node 0, Type 0, BuildingBlock: BELTOD_clean_linker_0, # of connection points: 3
#     Node 1, Type 0, BuildingBlock: BELTOD_clean_linker_0, # of connection points: 3
#     Node 2, Type 0, BuildingBlock: BELTOD_clean_linker_0, # of connection points: 3
#     Node 3, Type 0, BuildingBlock: BELTOD_clean_linker_0, # of connection points: 3
#     Node 4, Type 0, BuildingBlock: BELTOD_clean_linker_0, # of connection points: 3
#     Node 5, Type 0, BuildingBlock: BELTOD_clean_linker_0, # of connection points: 3
#     Node 6, Type 0, BuildingBlock: BELTOD_clean_linker_0, # of connection points: 3
#     Node 7, Type 0, BuildingBlock: BELTOD_clean_linker_0, # of connection points: 3
#     Node 8, Type 1, BuildingBlock: INOVEN_clean_sbu_0, # of connection points: 6
#     Node 9, Type 1, BuildingBlock: INOVEN_clean_sbu_0, # of connection points: 6
#     Node 10, Type 1, BuildingBlock: INOVEN_clean_sbu_0, # of connection points: 6
#     Node 11, Type 1, BuildingBlock: INOVEN_clean_sbu_0, # of connection points: 6
#     Edge 12, Type (0, 1), BuildingBlock: XUDNAN_clean_linker_2, # of connection points: 2
#     Edge 13, Type (0, 1), BuildingBlock: XUDNAN_clean_linker_2, # of connection points: 2
#     Edge 14, Type (0, 1), BuildingBlock: XUDNAN_clean_linker_2, # of connection points: 2
#     Edge 15, Type (0, 1), BuildingBlock: XUDNAN_clean_linker_2, # of connection points: 2
#     Edge 16, Type (0, 1), BuildingBlock: XUDNAN_clean_linker_2, # of connection points: 2
#     Edge 17, Type (0, 1), BuildingBlock: XUDNAN_clean_linker_2, # of connection points: 2
#     Edge 18, Type (0, 1), BuildingBlock: XUDNAN_clean_linker_2, # of connection points: 2
#     Edge 19, Type (0, 1), BuildingBlock: XUDNAN_clean_linker_2, # of connection points: 2
#     Edge 20, Type (0, 1), BuildingBlock: XUDNAN_clean_linker_2, # of connection points: 2
#     Edge 21, Type (0, 1), BuildingBlock: XUDNAN_clean_linker_2, # of connection points: 2
#     Edge 22, Type (0, 1), BuildingBlock: XUDNAN_clean_linker_2, # of connection points: 2
#     Edge 23, Type (0, 1), BuildingBlock: XUDNAN_clean_linker_2, # of connection points: 2
#     Edge 24, Type (0, 1), BuildingBlock: XUDNAN_clean_linker_2, # of connection points: 2
#     Edge 25, Type (0, 1), BuildingBlock: XUDNAN_clean_linker_2, # of connection points: 2
#     Edge 26, Type (0, 1), BuildingBlock: XUDNAN_clean_linker_2, # of connection points: 2
#     Edge 27, Type (0, 1), BuildingBlock: XUDNAN_clean_linker_2, # of connection points: 2
#     Edge 28, Type (0, 1), BuildingBlock: XUDNAN_clean_linker_2, # of connection points: 2
#     Edge 29, Type (0, 1), BuildingBlock: XUDNAN_clean_linker_2, # of connection points: 2
#     Edge 30, Type (0, 1), BuildingBlock: XUDNAN_clean_linker_2, # of connection points: 2
#     Edge 31, Type (0, 1), BuildingBlock: XUDNAN_clean_linker_2, # of connection points: 2
#     Edge 32, Type (0, 1), BuildingBlock: XUDNAN_clean_linker_2, # of connection points: 2
#     Edge 33, Type (0, 1), BuildingBlock: XUDNAN_clean_linker_2, # of connection points: 2
#     Edge 34, Type (0, 1), BuildingBlock: XUDNAN_clean_linker_2, # of connection points: 2
#     Edge 35, Type (0, 1), BuildingBlock: XUDNAN_clean_linker_2, # of connection points: 2
# Relax obj value: 0.419
# Max RMSD: 0.256
# Mean RMSD: 0.243
data_MOF--net-zzz--node1-INOVEN_clean_sbu_0--node2-BELTOD_clean_linker_0--edge1-XUDNAN_clean_linker_2
_symmetry_space_group_name_H-M    P1
_symmetry_Int_Tables_number       1
_symmetry_cell_setting            triclinic
loop_
_symmetry_equiv_pos_as_xyz
'x, y, z'
_cell_length_a     55.304372
_cell_length_b     55.302398
_cell_length_c     16.970039
_cell_angle_alpha  90.009634
_cell_angle_beta   90.110089
_cell_angle_gamma 89.851493
loop_
_atom_site_label
_atom_site_type_symbol
_atom_site_fract_x
_atom_site_fract_y
_atom_site_fract_z
_atom_type_partial_charge
P0 P 0.72086 0.48014 0.39513 0.0
H1 H 0.73389 0.49881 0.55065 0.0
H2 H 0.77183 0.51387 0.60238 0.0
H3 H 0.80009 0.51905 0.36556 0.0
H4 H 0.76205 0.50285 0.3144 0.0
H5 H 0.66899 0.47234 0.38825 0.0
H6 H 0.63765 0.48482 0.29619 0.0
H7 H 0.68963 0.52826 0.17037 0.0
H8 H 0.72121 0.51568 0.26407 0.0
H9 H 0.75223 0.44206 0.45208 0.0
H10 H 0.72503 0.46644 0.22717 0.0
O11 O 0.70762 0.46809 0.47423 0.0
H12 H 0.78197 0.41666 0.38491 0.0
H13 H 0.75475 0.44128 0.16007 0.0
C14 C 0.74494 0.49974 0.42849 0.0
C15 C 0.74791 0.50384 0.5094 0.0
C16 C 0.76983 0.51254 0.53908 0.0
C17 C 0.78937 0.51754 0.48845 0.0
C18 C 0.78571 0.515 0.40666 0.0
C19 C 0.76373 0.50616 0.37705 0.0
C20 C 0.69745 0.49334 0.33401 0.0
C21 C 0.67365 0.48504 0.34221 0.0
C22 C 0.65564 0.49222 0.28932 0.0
C23 C 0.66106 0.50762 0.22593 0.0
C24 C 0.68488 0.51632 0.21846 0.0
C25 C 0.70291 0.50931 0.27234 0.0
C26 C 0.73637 0.45611 0.34478 0.0
C27 C 0.75204 0.44127 0.38829 0.0
C28 C 0.76911 0.42688 0.34995 0.0
C29 C 0.77074 0.42713 0.26738 0.0
C30 C 0.75372 0.44052 0.22377 0.0
C31 C 0.73675 0.45505 0.26225 0.0
P32 P 0.03311 0.72372 0.40299 0.0
H33 H 0.01949 0.73847 0.5621 0.0
H34 H 1.0062 0.77714 0.61251 0.0
H35 H 0.99014 0.80091 0.37527 0.0
H36 H 1.00479 0.7621 0.32485 0.0
H37 H 0.04831 0.67389 0.3908 0.0
H38 H 0.03706 0.64069 0.3054 0.0
H39 H 0.9807 0.68471 0.20179 0.0
H40 H 0.99251 0.71848 0.28832 0.0
H41 H 0.06829 0.76006 0.44445 0.0
H42 H 0.0436 0.7248 0.2322 0.0
O43 O 0.04828 0.71228 0.47962 0.0
H44 H 0.08904 0.79046 0.36495 0.0
H45 H 0.06454 0.75494 0.15293 0.0
C46 C 0.01311 0.74715 0.43953 0.0
C47 C 0.01235 0.75159 0.52079 0.0
C48 C 1.00468 0.774 0.54976 0.0
C49 C 0.99729 0.79261 0.49822 0.0
C50 C 0.99617 0.78736 0.41695 0.0
C51 C 1.00404 0.76488 0.38796 0.0
C52 C 0.02086 0.69854 0.34773 0.0
C53 C 0.0331 0.67635 0.35132 0.0
C54 C 0.0266 0.65724 0.30209 0.0
C55 C 1.00773 0.65978 0.24703 0.0
C56 C 0.99531 0.68208 0.24348 0.0
C57 C 1.00185 0.70133 0.2935 0.0
C58 C 0.05444 0.74017 0.34437 0.0
C59 C 0.06813 0.75829 0.38087 0.0
C60 C 0.07986 0.77569 0.33558 0.0
C61 C 0.07825 0.775 0.2531 0.0
C62 C 0.06622 0.75568 0.2165 0.0
C63 C 0.05418 0.73846 0.26192 0.0
P64 P 0.79953 0.04286 0.3774 0.0
H65 H 0.7929 1.01137 0.51504 0.0
H66 H 0.75595 0.99806 0.57968 0.0
H67 H 0.71452 0.02067 0.37601 0.0
H68 H 0.75174 0.03195 0.30983 0.0
H69 H 0.84897 0.0256 0.3998 0.0
H70 H 0.88062 0.01351 0.31007 0.0
H71 H 0.83038 0.01989 0.11493 0.0
H72 H 0.79804 0.02857 0.2079 0.0
H73 H 0.76726 0.07585 0.45621 0.0
H74 H 0.79745 0.06971 0.22286 0.0
O75 O 0.81451 0.05127 0.45835 0.0
H76 H 0.73481 0.10119 0.40458 0.0
H77 H 0.7644 0.09396 0.17047 0.0
C78 C 0.77511 0.02325 0.40832 0.0
C79 C 0.77599 0.01248 0.48299 0.0
C80 C 0.75464 1.00533 0.5206 0.0
C81 C 0.73189 1.00926 0.48494 0.0
C82 C 0.73146 0.01742 0.40625 0.0
C83 C 0.75292 0.02395 0.36796 0.0
C84 C 0.82135 0.02951 0.31024 0.0
C85 C 0.84464 0.0241 0.33776 0.0
C86 C 0.86303 0.01754 0.28545 0.0
C87 C 0.85891 0.01697 0.20334 0.0
C88 C 0.83487 0.0204 0.1769 0.0
C89 C 0.81621 0.02591 0.23016 0.0
C90 C 0.78412 0.06974 0.34294 0.0
C91 C 0.76741 0.08054 0.39422 0.0
C92 C 0.7487 0.09487 0.3646 0.0
C93 C 0.74658 0.09881 0.28316 0.0
C94 C 0.76533 0.09091 0.23345 0.0
C95 C 0.78409 0.07655 0.26332 0.0
P96 P 0.48977 0.79395 0.39898 0.0
H97 H 0.50623 0.78047 0.55656 0.0
H98 H 0.51956 0.74196 0.60794 0.0
H99 H 0.53142 0.71612 0.37053 0.0
H100 H 0.51676 0.75487 0.3193 0.0
H101 H 0.47029 0.84175 0.37822 0.0
H102 H 0.47954 0.87519 0.29171 0.0
H103 H 0.54065 0.83563 0.19873 0.0
H104 H 0.53068 0.80139 0.28615 0.0
H105 H 0.45468 0.75839 0.44777 0.0
H106 H 0.4779 0.79099 0.22967 0.0
O107 O 0.4756 0.80548 0.47731 0.0
H108 H 0.43296 0.72734 0.37354 0.0
H109 H 0.45591 0.76027 0.15565 0.0
C110 C 0.51045 0.77079 0.43386 0.0
C111 C 0.51249 0.76693 0.51523 0.0
C112 C 0.52017 0.74458 0.5448 0.0
C113 C 0.52635 0.72541 0.49376 0.0
C114 C 0.52632 0.73009 0.412 0.0
C115 C 0.51844 0.75253 0.38244 0.0
C116 C 0.50022 0.81931 0.34078 0.0
C117 C 0.48605 0.84033 0.34073 0.0
C118 C 0.49141 0.85959 0.29085 0.0
C119 C 0.51116 0.85848 0.23885 0.0
C120 C 0.52535 0.83721 0.23815 0.0
C121 C 0.51988 0.81772 0.28868 0.0
C122 C 0.46776 0.77706 0.34432 0.0
C123 C 0.45427 0.75947 0.38404 0.0
C124 C 0.44198 0.7417 0.34177 0.0
C125 C 0.44285 0.74149 0.25916 0.0
C126 C 0.45474 0.76027 0.21938 0.0
C127 C 0.46735 0.77783 0.26176 0.0
P128 P 0.2902 0.45072 0.05889 0.0
H129 H 0.2646 0.43956 0.91119 0.0
H130 H 0.22667 0.45569 0.85926 0.0
H131 H 0.23201 0.51615 0.01913 0.0
H132 H 0.26922 0.49942 0.07315 0.0
H133 H 0.3356 0.42569 0.08637 0.0
H134 H 0.37166 0.43763 0.15907 0.0
H135 H 0.34694 0.5117 0.15905 0.0
H136 H 0.31075 0.49965 0.08594 0.0
H137 H 0.23979 0.44185 0.09868 0.0
H138 H 0.3061 0.45534 0.22617 0.0
O139 O 0.29238 0.42275 0.02254 0.0
H140 H 0.21676 0.45035 0.21707 0.0
H141 H 0.28316 0.46312 0.34519 0.0
C142 C 0.27014 0.4683 0.996 0.0
C143 C 0.25824 0.45684 0.93291 0.0
C144 C 0.23638 0.46609 0.9031 0.0
C145 C 0.22594 0.48697 0.93605 0.0
C146 C 0.23929 0.49978 0.99321 0.0
C147 C 0.26102 0.49048 0.02318 0.0
C148 C 0.32038 0.46175 0.07954 0.0
C149 C 0.33829 0.44469 0.09888 0.0
C150 C 0.35879 0.45146 0.14182 0.0
C151 C 0.36194 0.47552 0.16617 0.0
C152 C 0.34503 0.49299 0.14118 0.0
C153 C 0.32433 0.48614 0.09869 0.0
C154 C 0.27461 0.44901 0.15205 0.0
C155 C 0.24948 0.44599 0.15252 0.0
C156 C 0.2363 0.45064 0.22083 0.0
C157 C 0.24813 0.45794 0.2904 0.0
C158 C 0.27351 0.45818 0.29199 0.0
C159 C 0.28666 0.45372 0.22338 0.0
P160 P 0.03356 0.30271 1.00383 0.0
H161 H 0.03274 0.28129 0.84688 0.0
H162 H 0.02178 0.24064 0.80768 0.0
H163 H 0.9806 0.23267 0.02203 0.0
H164 H 0.99298 0.2727 0.06315 0.0
H165 H 0.04762 0.35308 0.01907 0.0
H166 H 0.0381 0.38497 0.11223 0.0
H167 H 0.98701 0.33807 0.22789 0.0
H168 H 0.99652 0.30601 0.13374 0.0
H169 H 0.07521 0.27462 0.95335 0.0
H170 H 0.03334 0.28368 0.16538 0.0
O171 O 0.04956 0.31571 0.93209 0.0
H172 H 0.08778 0.23459 0.99752 0.0
H173 H 0.04522 0.24374 0.20874 0.0
C174 C 0.01365 0.28063 0.95824 0.0
C175 C 0.02041 0.27136 0.88418 0.0
C176 C 0.01422 0.24777 0.86171 0.0
C177 C 1.00084 0.23285 0.91252 0.0
C178 C 0.99159 0.24323 0.9822 0.0
C179 C 0.99816 0.26668 1.00516 0.0
C180 C 0.02263 0.32693 0.06764 0.0
C181 C 0.03394 0.34961 0.0631 0.0
C182 C 0.02847 0.368 0.11682 0.0
C183 C 1.01173 0.36421 0.17774 0.0
C184 C 1.00011 0.3416 0.18197 0.0
C185 C 1.00542 0.32321 0.12732 0.0
C186 C 0.05322 0.28224 0.05579 0.0
C187 C 0.06975 0.26863 0.01138 0.0
C188 C 0.07662 0.24551 0.03606 0.0
C189 C 0.06702 0.2357 0.10562 0.0
C190 C 0.05305 0.25067 0.15487 0.0
C191 C 0.04623 0.27376 0.13009 0.0
P192 P 0.23257 0.08369 0.04449 0.0
H193 H 0.2468 0.08497 0.87822 0.0
H194 H 0.28271 0.06965 0.81218 0.0
H195 H 0.29998 0.02638 0.01661 0.0
H196 H 0.26378 0.0419 0.08268 0.0
H197 H 0.19002 0.10863 0.10011 0.0
H198 H 0.15467 0.09586 0.1746 0.0
H199 H 0.17748 0.02144 0.15284 0.0
H200 H 0.21316 0.03451 0.07754 0.0
H201 H 0.27502 0.11414 0.05993 0.0
H202 H 0.23216 0.0682 0.21014 0.0
O203 O 0.22697 0.10909 0.99447 0.0
H204 H 0.30765 0.11343 0.15732 0.0
H205 H 0.26449 0.06703 0.30579 0.0
C206 C 0.25239 0.06466 0.98566 0.0
C207 C 0.25773 0.07151 0.90804 0.0
C208 C 0.27851 0.06278 0.87029 0.0
C209 C 0.29462 0.04702 0.90935 0.0
C210 C 0.2883 0.03882 0.98515 0.0
C211 C 0.26731 0.0474 0.02257 0.0
C212 C 0.204 0.07251 0.08152 0.0
C213 C 0.18714 0.08948 0.10934 0.0
C214 C 0.16706 0.08218 0.15305 0.0
C215 C 0.16329 0.05765 0.17039 0.0
C216 C 0.17974 0.04048 0.14 0.0
C217 C 0.20008 0.04787 0.09652 0.0
C218 C 0.25115 0.09128 0.12764 0.0
C219 C 0.27219 0.1048 0.11525 0.0
C220 C 0.2909 0.10418 0.17054 0.0
C221 C 0.28879 0.08989 0.23867 0.0
C222 C 0.26667 0.07842 0.2544 0.0
C223 C 0.24805 0.07903 0.19916 0.0
P224 P 0.47967 0.21767 0.02033 0.0
H225 H 0.47432 0.24123 0.86797 0.0
H226 H 0.48847 0.28015 0.82227 0.0
H227 H 0.54108 0.28127 0.01125 0.0
H228 H 0.52484 0.24344 0.06108 0.0
H229 H 0.45613 0.18329 0.12193 0.0
H230 H 0.4703 0.15413 0.219 0.0
H231 H 0.54418 0.17012 0.15517 0.0
H232 H 0.52962 0.19987 0.05866 0.0
H233 H 0.44141 0.25205 0.98347 0.0
H234 H 0.4828 0.23055 0.1878 0.0
O235 O 0.46083 0.2045 0.95661 0.0
H236 H 0.4299 0.28955 0.0506 0.0
H237 H 0.47029 0.26729 0.25568 0.0
C238 C 0.49874 0.23887 0.96746 0.0
C239 C 0.48954 0.24936 0.89809 0.0
C240 C 0.49769 0.27197 0.87185 0.0
C241 C 0.51564 0.28469 0.91365 0.0
C242 C 0.52658 0.27282 0.97855 0.0
C243 C 0.51784 0.25054 1.00615 0.0
C244 C 0.49177 0.19409 0.08371 0.0
C245 C 0.47542 0.18036 0.12817 0.0
C246 C 0.48358 0.16347 0.18356 0.0
C247 C 0.50846 0.15967 0.19585 0.0
C248 C 0.52489 0.17281 0.14866 0.0
C249 C 0.51662 0.18986 0.09311 0.0
C250 C 0.46275 0.23832 0.08075 0.0
C251 C 0.44685 0.25466 0.0442 0.0
C252 C 0.44027 0.27605 0.0824 0.0
C253 C 0.44905 0.28096 0.15824 0.0
C254 C 0.46293 0.26352 0.19774 0.0
C255 C 0.47003 0.24246 0.15884 0.0
Gd256 Gd 0.031 1.00924 0.73808 0.0
Gd257 Gd 0.99162 0.02094 0.61079 0.0
C258 C 1.00325 0.96512 0.6452 0.0
C259 C 0.06034 0.99288 0.84391 0.0
C260 C 0.0656 0.97039 0.88659 0.0
C261 C 0.08968 0.96255 0.89184 0.0
C262 C 0.04717 0.95628 0.91977 0.0
C263 C 0.07697 0.92648 0.96159 0.0
C264 C 0.05286 0.93453 0.95749 0.0
C265 C 0.09533 0.94072 0.92869 0.0
C266 C 0.04694 0.02759 0.59855 0.0
C267 C 1.00946 0.06203 0.73667 0.0
C268 C 0.97662 0.03617 0.47571 0.0
C269 C 0.98943 0.0521 0.42094 0.0
C270 C 0.98033 0.05727 0.34576 0.0
C271 C 1.01148 0.06213 0.44479 0.0
C272 C 0.01514 0.08317 0.31992 0.0
C273 C 0.02441 0.07712 0.39453 0.0
C274 C 0.99303 0.07285 0.29561 0.0
C275 C 0.9694 1.01041 0.74894 0.0
O276 O 0.01664 0.9721 0.70612 0.0
O277 O 0.99281 0.98054 0.59599 0.0
O278 O 0.06503 0.99242 0.76839 0.0
O279 O 0.04024 1.00436 0.86112 0.0
O280 O 0.05569 0.03374 0.66651 0.0
O281 O 0.03046 0.01233 0.60874 0.0
O282 O 1.00283 0.05773 0.66248 0.0
O283 O 0.01832 0.04477 0.78184 0.0
O284 O 0.97032 0.0463 0.54234 0.0
O285 O 0.98668 0.01494 0.48564 0.0
O286 O 0.95763 0.01478 0.68391 0.0
O287 O 0.99171 1.01072 0.73432 0.0
H288 H 0.10412 0.97322 0.86652 0.0
H289 H 0.02843 0.96189 0.91575 0.0
H290 H 0.03837 0.92372 0.98178 0.0
H291 H 0.11405 0.93499 0.93167 0.0
H292 H 0.9633 0.04962 0.32645 0.0
H293 H 0.01857 0.05855 0.50303 0.0
H294 H 0.04154 0.08425 0.41488 0.0
H295 H 0.98518 0.07735 0.23898 0.0
Gd296 Gd 0.52032 0.03041 0.80296 0.0
Gd297 Gd 0.51078 0.99594 0.65773 0.0
C298 C 0.56552 1.00962 0.69806 0.0
C299 C 0.53129 0.04587 0.94172 0.0
C300 C 0.55027 0.06152 0.97376 0.0
C301 C 0.56972 0.06856 0.9262 0.0
C302 C 0.54984 0.06828 0.05328 0.0
C303 C 0.58924 0.08741 0.03918 0.0
C304 C 0.56916 0.08118 0.0858 0.0
C305 C 0.58905 0.08137 0.95861 0.0
C306 C 0.52158 0.05641 0.66563 0.0
C307 C 0.46527 0.02128 0.75039 0.0
C308 C 0.49534 0.97666 0.52909 0.0
C309 C 0.4737 0.9821 0.48102 0.0
C310 C 0.45163 0.97066 0.49751 0.0
C311 C 0.47405 1.00124 0.42658 0.0
C312 C 0.43022 1.00104 0.42105 0.0
C313 C 0.45246 1.01075 0.39717 0.0
C314 C 0.43006 0.98008 0.46781 0.0
C315 C 0.5193 0.97409 0.79827 0.0
O316 O 0.55785 0.01784 0.76726 0.0
O317 O 0.55048 1.00228 0.64234 0.0
O318 O 0.51508 0.05646 0.89679 0.0
O319 O 0.53897 0.02515 0.91333 0.0
O320 O 0.52553 0.06553 0.73487 0.0
O321 O 0.51727 0.03428 0.67492 0.0
O322 O 0.47372 0.01206 0.68351 0.0
O323 O 0.47976 0.02729 0.80938 0.0
O324 O 0.49119 0.96737 0.59882 0.0
O325 O 0.51207 0.99343 0.53066 0.0
O326 O 0.52624 0.96521 0.73109 0.0
O327 O 0.50729 0.99317 0.78674 0.0
H328 H 0.57032 0.06342 0.86459 0.0
H329 H 0.53488 0.06304 0.09067 0.0
H330 H 0.56862 0.08582 0.14779 0.0
H331 H 0.60434 0.08553 0.92126 0.0
H332 H 0.45083 0.95546 0.53768 0.0
H333 H 0.49088 1.00994 0.41117 0.0
H334 H 0.45314 0.02684 0.36082 0.0
H335 H 0.41316 0.97184 0.48535 0.0
Gd336 Gd 0.4947 0.50906 0.74609 0.0
Gd337 Gd 0.53421 0.49794 0.62017 0.0
C338 C 0.5213 0.55359 0.65298 0.0
C339 C 0.46513 0.52434 0.85279 0.0
C340 C 0.45908 0.54637 0.89683 0.0
C341 C 0.43471 0.55317 0.90266 0.0
C342 C 0.47697 0.56101 0.93089 0.0
C343 C 0.44605 0.58937 0.97434 0.0
C344 C 0.47046 0.58232 0.96985 0.0
C345 C 0.42824 0.57455 0.94078 0.0
C346 C 0.47861 0.4924 0.60381 0.0
C347 C 0.51547 0.45599 0.73988 0.0
C348 C 0.55104 0.4828 0.48764 0.0
C349 C 0.53882 0.46783 0.42795 0.0
C350 C 0.54918 0.4458 0.40444 0.0
C351 C 0.51482 0.47302 0.40651 0.0
C352 C 0.5105 0.43296 0.35115 0.0
C353 C 0.50064 0.45562 0.36938 0.0
C354 C 0.53513 0.4285 0.36565 0.0
C355 C 0.55624 0.50846 0.75922 0.0
O356 O 0.50859 0.54649 0.71516 0.0
O357 O 0.53154 0.53821 0.60332 0.0
O358 O 0.46037 0.52503 0.77732 0.0
O359 O 0.48559 0.51343 0.8694 0.0
O360 O 0.46992 0.48557 0.67106 0.0
O361 O 0.49545 0.50712 0.61628 0.0
O362 O 0.52164 0.46095 0.66595 0.0
O363 O 0.50727 0.47299 0.78734 0.0
O364 O 0.55516 0.47169 0.55442 0.0
O365 O 0.54263 0.50476 0.49746 0.0
O366 O 0.568 0.50387 0.69467 0.0
O367 O 0.53399 0.50788 0.74425 0.0
H368 H 0.42068 0.54206 0.87676 0.0
H369 H 0.49592 0.55618 0.92655 0.0
H370 H 0.48453 0.5936 0.99466 0.0
H371 H 0.4093 0.57951 0.94404 0.0
H372 H 0.56762 0.44136 0.42075 0.0
H373 H 0.50659 0.48998 0.42283 0.0
H374 H 0.48172 0.45945 0.35799 0.0
H375 H 0.54301 0.41104 0.35204 0.0
Gd376 Gd 0.9975 0.49112 0.79231 0.0
Gd377 Gd 0.01391 0.52819 0.65973 0.0
C378 C 0.95769 0.51705 0.67786 0.0
C379 C 0.98227 0.47254 0.92213 0.0
C380 C 0.96311 0.45605 0.94747 0.0
C381 C 0.96476 0.4448 0.0212 0.0
C382 C 0.94245 0.45264 0.90084 0.0
C383 C 0.924 0.42899 1.00552 0.0
C384 C 0.92302 0.43927 0.9297 0.0
C385 C 0.94538 0.43129 0.05001 0.0
C386 C 1.00108 0.46858 0.64889 0.0
C387 C 0.05453 0.50315 0.7745 0.0
C388 C 0.03599 0.54935 0.54602 0.0
C389 C 0.06195 0.54951 0.52748 0.0
C390 C 0.07917 0.55437 0.58659 0.0
C391 C 0.06969 0.54076 0.45424 0.0
C392 C 0.11092 0.5385 0.50314 0.0
C393 C 0.094 0.53518 0.44225 0.0
C394 C 0.10354 0.54904 0.57422 0.0
C395 C 1.00042 0.54746 0.79957 0.0
O396 O 0.96253 0.50778 0.74839 0.0
O397 O 0.97477 0.52332 0.62715 0.0
O398 O 0.99985 0.46295 0.8807 0.0
O399 O 0.97492 0.49359 0.89525 0.0
O400 O 0.99498 0.45749 0.71314 0.0
O401 O 1.00504 0.4902 0.6669 0.0
O402 O 0.0501 0.51423 0.7066 0.0
O403 O 0.03701 0.49483 0.81998 0.0
O404 O 0.02947 0.56069 0.61036 0.0
O405 O 0.02553 0.52826 0.53806 0.0
O406 O 0.99648 0.55784 0.73196 0.0
O407 O 0.01222 0.52814 0.78953 0.0
H408 H 0.98072 0.44711 0.0576 0.0
H409 H 0.94096 0.46114 0.84349 0.0
H410 H 0.90675 0.43813 0.89426 0.0
H411 H 0.94683 0.42332 0.10813 0.0
H412 H 0.07371 0.56091 0.64405 0.0
H413 H 0.05672 0.53679 0.40809 0.0
H414 H 0.09945 0.52724 0.38663 0.0
H415 H 0.11629 0.55167 0.62199 0.0
H416 H 0.14877 0.07894 0.30906 0.0
H417 H 0.13174 0.01973 0.15094 0.0
H418 H 0.09807 1.00767 0.23838 0.0
H419 H 0.13877 0.04767 0.48638 0.0
H420 H 0.12558 0.073 0.53775 0.0
H421 H 0.14686 0.07813 0.45945 0.0
H422 H 0.11546 0.1052 0.38796 0.0
H423 H 0.09381 0.09997 0.46532 0.0
H424 H 0.08606 0.09319 0.36454 0.0
H425 H 0.06638 1.00192 0.34423 0.0
H426 H 0.04219 1.00004 0.46623 0.0
H427 H 0.08119 0.0617 0.55942 0.0
C428 C 0.13773 0.06364 0.29215 0.0
C429 C 0.14283 0.05037 0.22262 0.0
C430 C 0.12828 0.03012 0.20384 0.0
C431 C 0.10898 0.02327 0.25287 0.0
C432 C 0.10447 0.03678 0.32084 0.0
C433 C 0.11855 0.05645 0.34078 0.0
C434 C 0.11084 0.06705 0.41943 0.0
C435 C 0.13176 0.06641 0.47928 0.0
C436 C 0.10096 0.09288 0.40867 0.0
C437 C 0.09081 0.04972 0.44221 0.0
C438 C 0.08697 0.03282 0.38344 0.0
C439 C 0.06932 0.01501 0.39063 0.0
C440 C 0.05566 0.0141 0.46023 0.0
C441 C 0.06 0.03054 0.52273 0.0
C442 C 0.07762 0.04878 0.51291 0.0
H443 H 0.48854 0.1164 0.24865 0.0
H444 H 0.5473 0.16649 0.29429 0.0
H445 H 0.5593 0.14244 0.40991 0.0
H446 H 0.47111 0.10769 0.44562 0.0
H447 H 0.46458 0.0759 0.43592 0.0
H448 H 0.46209 0.09546 0.35157 0.0
H449 H 0.49189 0.06816 0.27446 0.0
H450 H 0.49428 0.04855 0.35869 0.0
H451 H 0.52115 0.06138 0.31624 0.0
H452 H 0.56204 0.11651 0.52899 0.0
H453 H 0.55628 0.08944 0.64251 0.0
H454 H 0.49646 0.05454 0.52271 0.0
C455 C 0.50405 0.12226 0.28252 0.0
C456 C 0.517 0.14347 0.26135 0.0
C457 C 0.5373 0.15019 0.30752 0.0
C458 C 0.5442 0.13668 0.37394 0.0
C459 C 0.53078 0.11627 0.39381 0.0
C460 C 0.51123 0.10893 0.3493 0.0
C461 C 0.49937 0.08677 0.38575 0.0
C462 C 0.47271 0.09177 0.40592 0.0
C463 C 0.50184 0.06492 0.33046 0.0
C464 C 0.51462 0.0835 0.45987 0.0
C465 C 0.53278 0.10066 0.46241 0.0
C466 C 0.54818 0.10274 0.527 0.0
C467 C 0.54472 0.08729 0.59135 0.0
C468 C 0.52617 0.0697 0.59111 0.0
C469 C 0.51117 0.06743 0.52368 0.0
H470 H 0.37497 0.45138 0.30096 0.0
H471 H 0.39309 0.51414 0.1599 0.0
H472 H 0.42541 0.52468 0.25512 0.0
H473 H 0.3842 0.47964 0.49022 0.0
H474 H 0.3965 0.45272 0.53499 0.0
H475 H 0.37509 0.45025 0.4553 0.0
H476 H 0.40542 0.42383 0.37889 0.0
H477 H 0.4277 0.42669 0.45587 0.0
H478 H 0.4349 0.43559 0.3562 0.0
H479 H 0.45544 0.52846 0.3666 0.0
H480 H 0.48054 0.52592 0.48656 0.0
H481 H 0.4431 0.46049 0.556 0.0
C482 C 0.3859 0.46723 0.28967 0.0
C483 C 0.38167 0.48184 0.22246 0.0
C484 C 0.39601 0.50271 0.21087 0.0
C485 C 0.41443 0.50878 0.26456 0.0
C486 C 0.41813 0.49393 0.33005 0.0
C487 C 0.40414 0.47369 0.3431 0.0
C488 C 0.4115 0.461 0.41878 0.0
C489 C 0.39058 0.46091 0.47834 0.0
C490 C 0.42043 0.43523 0.40148 0.0
C491 C 0.43198 0.47716 0.44631 0.0
C492 C 0.43546 0.49606 0.39416 0.0
C493 C 0.45295 0.51367 0.40748 0.0
C494 C 0.46715 0.51202 0.47586 0.0
C495 C 0.46404 0.49279 0.53016 0.0
C496 C 0.44611 0.4752 0.5151 0.0
H497 H 1.00774 0.35943 0.33925 0.0
H498 H 1.00623 0.41299 0.1525 0.0
H499 H 1.00284 0.44548 0.25182 0.0
H500 H 0.9646 0.39033 0.46921 0.0
H501 H 0.98048 0.3815 0.55753 0.0
H502 H 0.98162 0.36248 0.47137 0.0
H503 H 0.02842 0.36403 0.47463 0.0
H504 H 0.02743 0.38321 0.56031 0.0
H505 H 0.04343 0.39293 0.47351 0.0
H506 H 1.00139 0.47251 0.37292 0.0
H507 H 1.00037 0.49138 0.50522 0.0
H508 H 1.00275 0.42041 0.61286 0.0
C509 C 1.00625 0.37795 0.31911 0.0
C510 C 1.00735 0.38358 0.23776 0.0
C511 C 1.00573 0.40816 0.21432 0.0
C512 C 1.0037 0.42678 0.27038 0.0
C513 C 1.00322 0.42063 0.35005 0.0
C514 C 1.00425 0.39678 0.37439 0.0
C515 C 1.00392 0.39508 0.46367 0.0
C516 C 0.98131 0.38155 0.49211 0.0
C517 C 0.02719 0.3831 0.49483 0.0
C518 C 1.00284 0.42165 0.48578 0.0
C519 C 1.00242 0.43612 0.41943 0.0
C520 C 1.00176 0.46131 0.42519 0.0
C521 C 1.00147 0.47193 0.50058 0.0
C522 C 1.00194 0.45745 0.56926 0.0
C523 C 1.00248 0.43198 0.56138 0.0
H524 H 0.8586 1.00033 0.04713 0.0
H525 H 0.9072 0.02847 0.22716 0.0
H526 H 0.94099 0.02497 0.13548 0.0
H527 H 0.90089 0.96018 0.94784 0.0
H528 H 0.89008 0.96801 0.85085 0.0
H529 H 0.86984 0.96926 0.93389 0.0
H530 H 0.85992 0.01403 0.90218 0.0
H531 H 0.87998 0.01286 0.81888 0.0
H532 H 0.88424 0.03554 0.89393 0.0
H533 H 0.97008 0.01984 0.02235 0.0
H534 H 0.99047 0.0181 0.89269 0.0
H535 H 0.92257 0.99847 0.78212 0.0
C536 C 0.8762 1.00582 0.06817 0.0
C537 C 0.87975 0.01411 0.14662 0.0
C538 C 0.90355 0.02099 0.16953 0.0
C539 C 0.92311 0.01933 0.11723 0.0
C540 C 0.91883 1.01122 0.04092 0.0
C541 C 0.8959 1.00494 0.016 0.0
C542 C 0.89579 0.99907 0.92859 0.0
C543 C 0.88873 0.97255 0.91449 0.0
C544 C 0.87899 0.01641 0.88324 0.0
C545 C 0.92214 1.0034 0.90824 0.0
C546 C 0.93526 1.00984 0.9743 0.0
C547 C 0.95997 0.01481 0.97023 0.0
C548 C 0.97144 0.01368 0.89645 0.0
C549 C 0.9581 1.00816 0.82759 0.0
C550 C 0.93321 1.00269 0.83395 0.0
H551 H 0.52563 0.85815 0.08183 0.0
H552 H 0.50765 0.90666 0.2744 0.0
H553 H 0.50959 0.94131 0.18393 0.0
H554 H 0.56852 0.9007 0.98409 0.0
H555 H 0.55961 0.89125 0.88664 0.0
H556 H 0.55837 0.87016 0.96753 0.0
H557 H 0.51318 0.86223 0.93723 0.0
H558 H 0.51421 0.88342 0.85682 0.0
H559 H 0.49231 0.88732 0.93436 0.0
H560 H 0.50786 0.96999 0.0705 0.0
H561 H 0.50768 0.99165 0.94345 0.0
H562 H 0.53112 0.92626 0.82469 0.0
C563 C 0.5227 0.8761 0.10543 0.0
C564 C 0.51607 0.87947 0.18542 0.0
C565 C 0.51216 0.90338 0.21326 0.0
C566 C 0.51337 0.92329 0.16235 0.0
C567 C 0.51905 0.91926 0.08359 0.0
C568 C 0.52418 0.89637 0.05536 0.0
C569 C 0.52936 0.89719 0.9674 0.0
C570 C 0.55552 0.88936 0.95043 0.0
C571 C 0.51118 0.88161 0.92126 0.0
C572 C 0.52568 0.92396 0.95054 0.0
C573 C 0.51963 0.93629 0.01854 0.0
C574 C 0.51331 0.96071 0.01725 0.0
C575 C 0.51335 0.97292 0.94477 0.0
C576 C 0.52018 0.96093 0.87454 0.0
C577 C 0.52648 0.9361 0.87775 0.0
H578 H 0.66567 0.50725 0.06474 0.0
H579 H 0.61341 0.51944 0.25091 0.0
H580 H 0.58099 0.52364 0.15132 0.0
H581 H 0.63831 0.54905 0.9193 0.0
H582 H 0.64522 0.5293 0.83785 0.0
H583 H 0.66452 0.52965 0.92353 0.0
H584 H 0.65885 0.48339 0.93908 0.0
H585 H 0.63942 0.48293 0.85395 0.0
H586 H 0.62874 0.47121 0.94663 0.0
H587 H 0.55358 0.52325 0.03089 0.0
H588 H 0.53402 0.51877 0.90006 0.0
H589 H 0.6043 0.50708 0.79378 0.0
C590 C 0.64753 0.51146 0.08451 0.0
C591 C 0.64213 0.51311 0.16574 0.0
C592 C 0.61799 0.51799 0.18907 0.0
C593 C 0.59946 0.5205 0.13289 0.0
C594 C 0.60531 0.5182 0.05337 0.0
C595 C 0.62881 0.51395 0.02921 0.0
C596 C 0.63013 0.51082 0.94063 0.0
C597 C 0.64545 0.53091 0.90313 0.0
C598 C 0.63986 0.48559 0.91884 0.0
C599 C 0.60368 0.51348 0.91885 0.0
C600 C 0.58961 0.51791 0.9845 0.0
C601 C 0.56448 0.52003 0.97903 0.0
C602 C 0.5535 0.51743 0.90463 0.0
C603 C 0.56764 0.51268 0.83696 0.0
C604 C 0.59303 0.51092 0.84443 0.0
H605 H 0.99664 0.66167 0.08784 0.0
H606 H 1.00652 0.61137 0.28173 0.0
H607 H 1.00315 0.57719 0.18939 0.0
H608 H 0.95245 0.6236 0.97739 0.0
H609 H 0.96445 0.63255 0.88315 0.0
H610 H 0.96565 0.65314 0.96543 0.0
H611 H 0.01197 0.65706 0.94752 0.0
H612 H 1.01095 0.63638 0.86574 0.0
H613 H 0.03051 0.63019 0.94844 0.0
H614 H 1.00404 0.54864 0.07457 0.0
H615 H 1.00544 0.52766 0.94606 0.0
H616 H 0.99161 0.59565 0.82678 0.0
C617 C 0.99742 0.64347 0.11127 0.0
C618 C 1.00208 0.63933 0.1923 0.0
C619 C 1.00339 0.61514 0.21992 0.0
C620 C 1.00135 0.59553 0.16793 0.0
C621 C 0.99757 0.60025 0.08826 0.0
C622 C 0.99518 0.62359 0.06009 0.0
C623 C 0.99205 0.62361 0.97114 0.0
C624 C 0.96716 0.63383 0.94793 0.0
C625 C 0.0126 0.63764 0.93087 0.0
C626 C 0.9937 0.59672 0.9537 0.0
C627 C 0.99691 0.58358 0.02218 0.0
C628 C 1.00091 0.55866 0.02073 0.0
C629 C 1.00163 0.54686 0.94747 0.0
C630 C 0.99803 0.55988 0.87661 0.0
C631 C 0.99381 0.58511 0.8801 0.0
H632 H 0.07221 0.21197 0.24675 0.0
H633 H 0.06098 0.19972 0.9968 0.0
H634 H 0.05252 0.15682 0.02302 0.0
H635 H 0.09635 0.14941 0.29678 0.0
H636 H 0.08021 0.14947 0.38891 0.0
H637 H 0.09152 0.17743 0.34882 0.0
H638 H 0.0483 0.19573 0.35598 0.0
H639 H 0.03692 0.16783 0.39503 0.0
H640 H 0.02376 0.18046 0.30686 0.0
H641 H 0.03763 0.11748 0.07817 0.0
H642 H 0.01971 0.08467 0.15781 0.0
H643 H 0.03823 0.12389 0.37117 0.0
C644 C 0.06876 0.20008 0.19732 0.0
C645 C 0.06758 0.2092 0.11975 0.0
C646 C 0.06268 0.1931 0.05662 0.0
C647 C 0.05764 0.16867 0.07097 0.0
C648 C 0.05769 0.16056 0.14864 0.0
C649 C 0.06348 0.17572 0.21073 0.0
C650 C 0.05929 0.16351 0.28922 0.0
C651 C 0.08327 0.15973 0.33352 0.0
C652 C 0.04097 0.17772 0.33965 0.0
C653 C 0.04899 0.13967 0.26166 0.0
C654 C 0.04867 0.13802 0.18049 0.0
C655 C 0.03823 0.11836 0.14186 0.0
C656 C 0.02784 0.09995 0.18755 0.0
C657 C 0.02767 0.10154 0.27092 0.0
C658 C 0.03864 0.12164 0.30782 0.0
H659 H 0.33345 0.07845 0.18171 0.0
H660 H 0.29254 0.08426 0.39905 0.0
H661 H 0.3254 0.06318 0.4701 0.0
H662 H 0.35434 0.02131 0.20838 0.0
H663 H 0.38417 0.02581 0.16846 0.0
H664 H 0.35947 0.04455 0.13587 0.0
H665 H 0.38293 0.08312 0.17539 0.0
H666 H 0.40806 0.06455 0.20607 0.0
H667 H 0.39487 0.08589 0.27394 0.0
H668 H 0.35895 0.036 0.51173 0.0
H669 H 0.39472 1.00973 0.5271 0.0
H670 H 0.41485 0.02332 0.28446 0.0
C671 C 0.33183 0.07633 0.24491 0.0
C672 C 0.31046 0.08306 0.28499 0.0
C673 C 0.30873 0.07915 0.36725 0.0
C674 C 0.32728 0.06723 0.40802 0.0
C675 C 0.34753 0.05973 0.3658 0.0
C676 C 0.35023 0.06465 0.28652 0.0
C677 C 0.3731 0.05334 0.25397 0.0
C678 C 0.3674 0.03518 0.18778 0.0
C679 C 0.39079 0.0729 0.22572 0.0
C680 C 0.38244 0.04066 0.32688 0.0
C681 C 0.36736 0.04454 0.39058 0.0
C682 C 0.3712 0.0333 0.46283 0.0
C683 C 0.3914 0.01825 0.47083 0.0
C684 C 0.40761 0.01474 0.4074 0.0
C685 C 0.40293 0.02598 0.33429 0.0
H686 H 0.47595 0.31723 0.10218 0.0
H687 H 0.42454 0.29948 0.28506 0.0
H688 H 0.43099 0.33983 0.34599 0.0
H689 H 0.51747 0.34395 0.23273 0.0
H690 H 0.52791 0.36518 0.15975 0.0
H691 H 0.51533 0.33666 0.12995 0.0
H692 H 0.48446 0.36123 0.04152 0.0
H693 H 0.49714 0.38917 0.07719 0.0
H694 H 0.46526 0.38336 0.08813 0.0
H695 H 0.44718 0.37955 0.39518 0.0
H696 H 0.47216 0.41503 0.43063 0.0
H697 H 0.5142 0.40563 0.21782 0.0
C698 C 0.46536 0.32234 0.15325 0.0
C699 C 0.44918 0.30589 0.18796 0.0
C700 C 0.4365 0.31234 0.25698 0.0
C701 C 0.4401 0.33511 0.29172 0.0
C702 C 0.45667 0.35083 0.25694 0.0
C703 C 0.46915 0.34465 0.18933 0.0
C704 C 0.48842 0.36303 0.16977 0.0
C705 C 0.51379 0.35155 0.17322 0.0
C706 C 0.48352 0.37491 0.08939 0.0
C707 C 0.48489 0.38064 0.23666 0.0
C708 C 0.46642 0.37339 0.2862 0.0
C709 C 0.4613 0.38565 0.35592 0.0
C710 C 0.4755 0.40572 0.37551 0.0
C711 C 0.49458 0.41317 0.3258 0.0
C712 C 0.4993 0.40052 0.2556 0.0
H713 H 0.20445 0.44299 0.34855 0.0
H714 H 0.25912 0.49851 0.3752 0.0
H715 H 0.23125 0.5224 0.45675 0.0
H716 H 0.15961 0.47998 0.30766 0.0
H717 H 0.13567 0.46447 0.35871 0.0
H718 H 0.16162 0.44788 0.32542 0.0
H719 H 0.16979 0.43247 0.46728 0.0
H720 H 0.14348 0.4487 0.50127 0.0
H721 H 0.17244 0.45387 0.54697 0.0
H722 H 0.19515 0.54441 0.50777 0.0
H723 H 0.15412 0.56152 0.52798 0.0
H724 H 0.12265 0.49277 0.46196 0.0
C725 C 0.21083 0.45975 0.37403 0.0
C726 C 0.23397 0.46879 0.35565 0.0
C727 C 0.24167 0.4909 0.38966 0.0
C728 C 0.22589 0.50471 0.43596 0.0
C729 C 0.20258 0.49606 0.44837 0.0
C730 C 0.1952 0.47385 0.41954 0.0
C731 C 0.16829 0.47033 0.43007 0.0
C732 C 0.15558 0.4654 0.35076 0.0
C733 C 0.16321 0.45014 0.48998 0.0
C734 C 0.16145 0.49475 0.46306 0.0
C735 C 0.1815 0.5091 0.47579 0.0
C736 C 0.17935 0.53316 0.49974 0.0
C737 C 0.15609 0.54279 0.51042 0.0
C738 C 0.13547 0.52846 0.4954 0.0
C739 C 0.13825 0.50409 0.47301 0.0
H740 H 0.06459 0.82139 0.27745 0.0
H741 H 0.10656 0.77591 0.12066 0.0
H742 H 0.1139 0.81117 0.03375 0.0
H743 H 0.03443 0.85257 0.13094 0.0
H744 H 0.03373 0.88129 0.18112 0.0
H745 H 0.03502 0.85373 0.23714 0.0
H746 H 0.07368 0.86844 0.30839 0.0
H747 H 0.07236 0.8963 0.2535 0.0
H748 H 0.09938 0.87802 0.25124 0.0
H749 H 0.11386 0.85051 0.95975 0.0
H750 H 0.10532 0.89057 0.90108 0.0
H751 H 0.06177 0.9095 0.10434 0.0
C752 C 0.07601 0.81908 0.22617 0.0
C753 C 0.0855 0.79619 0.20619 0.0
C754 C 0.09947 0.79347 0.13707 0.0
C755 C 0.10373 0.81335 0.08771 0.0
C756 C 0.09369 0.83564 0.10834 0.0
C757 C 0.0801 0.83858 0.17597 0.0
C758 C 0.0693 0.86369 0.18102 0.0
C759 C 0.04148 0.86274 0.1826 0.0
C760 C 0.07929 0.87742 0.25279 0.0
C761 C 0.0785 0.8743 0.10472 0.0
C762 C 0.09286 0.85799 0.06428 0.0
C763 C 0.10285 0.8635 0.99119 0.0
C764 C 0.09794 0.88626 0.95844 0.0
C765 C 0.08292 0.90301 0.99837 0.0
C766 C 0.07323 0.89695 0.07256 0.0
H767 H 0.70202 0.08271 0.32346 0.0
H768 H 0.73853 0.13119 0.16232 0.0
H769 H 0.69979 0.13837 0.09251 0.0
H770 H 0.66835 0.05405 0.18586 0.0
H771 H 0.64167 0.05015 0.24535 0.0
H772 H 0.67074 0.05274 0.29178 0.0
H773 H 0.6553 0.08879 0.37515 0.0
H774 H 0.62599 0.08623 0.32929 0.0
H775 H 0.64193 0.11461 0.3268 0.0
H776 H 0.6585 0.13573 0.03022 0.0
H777 H 0.61872 0.12287 0.97885 0.0
H778 H 0.61015 0.07515 0.17973 0.0
C779 C 0.70169 0.0957 0.2757 0.0
C780 C 0.72317 0.10681 0.24921 0.0
C781 C 0.72221 0.12273 0.18398 0.0
C782 C 0.70029 0.12696 0.14431 0.0
C783 C 0.67955 0.11515 0.17075 0.0
C784 C 0.68009 0.09993 0.23534 0.0
C785 C 0.65622 0.08704 0.24629 0.0
C786 C 0.65946 0.05938 0.24199 0.0
C787 C 0.64415 0.09464 0.324 0.0
C788 C 0.64241 0.09665 0.17595 0.0
C789 C 0.65595 0.11319 0.1339 0.0
C790 C 0.64761 0.12309 0.06335 0.0
C791 C 0.62507 0.11555 0.03436 0.0
C792 C 0.61125 0.09808 0.0754 0.0
C793 C 0.61993 0.08899 0.14795 0.0
H794 H 0.45668 0.69537 0.28727 0.0
H795 H 0.41339 0.73935 0.12932 0.0
H796 H 0.40586 0.70344 0.04544 0.0
H797 H 0.48653 0.66413 0.1429 0.0
H798 H 0.48794 0.63556 0.1939 0.0
H799 H 0.48623 0.66324 0.24915 0.0
H800 H 0.44799 0.64804 0.32131 0.0
H801 H 0.44985 0.62001 0.26742 0.0
H802 H 0.42241 0.63766 0.26476 0.0
H803 H 0.4065 0.66396 0.97304 0.0
H804 H 0.41625 0.6242 0.91443 0.0
H805 H 0.46077 0.60676 0.11741 0.0
C806 C 0.44486 0.69719 0.23661 0.0
C807 C 0.43511 0.71986 0.21527 0.0
C808 C 0.42066 0.72195 0.14682 0.0
C809 C 0.41629 0.7017 0.09918 0.0
C810 C 0.42668 0.67966 0.12086 0.0
C811 C 0.44066 0.6773 0.18807 0.0
C812 C 0.45201 0.65243 0.19376 0.0
C813 C 0.47982 0.65396 0.19494 0.0
C814 C 0.44248 0.63873 0.2661 0.0
C815 C 0.44283 0.64138 0.11796 0.0
C816 C 0.42787 0.65719 0.07755 0.0
C817 C 0.41794 0.65132 1.00456 0.0
C818 C 0.42354 0.62874 0.97182 0.0
C819 C 0.43921 0.61252 0.01162 0.0
C820 C 0.44879 0.6189 0.08581 0.0
H821 H 0.81745 0.43395 0.30971 0.0
H822 H 0.77265 0.39956 0.13266 0.0
H823 H 0.80927 0.38964 0.05522 0.0
H824 H 0.85346 0.46331 0.18274 0.0
H825 H 0.88107 0.4607 0.23876 0.0
H826 H 0.85247 0.45995 0.28839 0.0
H827 H 0.86353 0.41864 0.35071 0.0
H828 H 0.89237 0.41927 0.30141 0.0
H829 H 0.87248 0.39381 0.28825 0.0
H830 H 0.84964 0.38937 0.98819 0.0
H831 H 0.88984 0.39992 0.93521 0.0
H832 H 0.90748 0.43581 0.15521 0.0
C833 C 0.81545 0.42333 0.25648 0.0
C834 C 0.79234 0.41706 0.22777 0.0
C835 C 0.79028 0.40424 0.15592 0.0
C836 C 0.81097 0.39845 0.11189 0.0
C837 C 0.83349 0.40561 0.14072 0.0
C838 C 0.83582 0.41768 0.2117 0.0
C839 C 0.86139 0.42653 0.22448 0.0
C840 C 0.86211 0.45425 0.23407 0.0
C841 C 0.87313 0.41379 0.29542 0.0
C842 C 0.87287 0.41853 0.14799 0.0
C843 C 0.85668 0.406 0.10118 0.0
C844 C 0.86259 0.39875 0.02491 0.0
C845 C 0.8854 0.40497 0.99512 0.0
C846 C 0.90187 0.41858 0.0412 0.0
C847 C 0.89563 0.42481 0.11927 0.0
H848 H 0.99726 0.20746 0.77013 0.0
H849 H 1.00279 0.19697 0.02352 0.0
H850 H 1.00333 0.1531 1.00402 0.0
H851 H 0.95993 0.15429 0.72814 0.0
H852 H 0.97549 0.14703 0.6379 0.0
H853 H 0.97363 0.17798 0.67065 0.0
H854 H 0.02027 0.18129 0.66529 0.0
H855 H 0.02227 0.15034 0.6327 0.0
H856 H 0.03851 0.15991 0.71942 0.0
H857 H 1.00547 0.11085 0.95978 0.0
H858 H 1.00887 0.07177 0.89307 0.0
H859 H 1.00327 0.10749 0.66554 0.0
C860 C 0.99841 0.19598 0.82162 0.0
C861 C 0.99941 0.20605 0.89874 0.0
C862 C 1.00106 0.19009 0.96406 0.0
C863 C 1.00167 0.16498 0.9536 0.0
C864 C 1.0008 0.15578 0.87732 0.0
C865 C 0.99919 0.17065 0.81224 0.0
C866 C 0.99946 0.15573 0.73663 0.0
C867 C 0.97571 0.15895 0.69062 0.0
C868 C 0.02144 0.16221 0.6855 0.0
C869 C 1.0017 0.13021 0.76973 0.0
C870 C 1.00238 0.1309 0.85114 0.0
C871 C 1.00492 0.11005 0.89608 0.0
C872 C 1.00695 0.08786 0.8572 0.0
C873 C 1.0065 0.08635 0.77365 0.0
C874 C 1.00359 0.10793 0.72932 0.0
H875 H 0.3397 0.04321 0.98052 0.0
H876 H 0.30369 0.03626 0.75408 0.0
H877 H 0.34308 0.02909 0.6903 0.0
H878 H 0.39169 0.07418 0.91352 0.0
H879 H 0.41278 0.05866 0.97706 0.0
H880 H 0.38172 0.06214 1.00667 0.0
H881 H 0.37743 0.01558 0.023 0.0
H882 H 0.40884 0.01246 0.99658 0.0
H883 H 0.386 0.99606 0.94283 0.0
H884 H 0.38621 0.02405 0.65029 0.0
H885 H 0.43048 0.01958 0.63508 0.0
H886 H 0.43926 0.02982 0.88733 0.0
C887 C 0.34001 0.03975 0.91773 0.0
C888 C 0.31839 0.04042 0.87245 0.0
C889 C 0.31986 0.03618 0.79014 0.0
C890 C 0.3422 0.03198 0.75331 0.0
C891 C 0.36312 0.03192 0.79933 0.0
C892 C 0.36226 0.03549 0.87983 0.0
C893 C 0.38757 0.03476 0.9152 0.0
C894 C 0.3938 0.05887 0.95547 0.0
C895 C 0.39012 0.01345 0.97283 0.0
C896 C 0.40278 0.03072 0.84171 0.0
C897 C 0.38823 0.02896 0.77579 0.0
C898 C 0.39791 0.02513 0.70114 0.0
C899 C 0.4231 0.02269 0.6933 0.0
C900 C 0.43856 0.02438 0.75984 0.0
C901 C 0.42809 0.02857 0.83504 0.0
H902 H 0.51184 0.31023 0.77036 0.0
H903 H 0.53019 0.31991 0.01753 0.0
H904 H 0.53408 0.36342 0.99631 0.0
H905 H 0.55184 0.35803 0.69428 0.0
H906 H 0.53058 0.36776 0.62005 0.0
H907 H 0.53092 0.33668 0.65206 0.0
H908 H 0.48546 0.33967 0.68678 0.0
H909 H 0.48501 0.37076 0.65514 0.0
H910 H 0.47528 0.363 0.75323 0.0
H911 H 0.53205 0.40613 0.95427 0.0
H912 H 0.52744 0.44577 0.89045 0.0
H913 H 0.51119 0.41053 0.66801 0.0
C914 C 0.51675 0.32136 0.82026 0.0
C915 C 0.52062 0.31103 0.89627 0.0
C916 C 0.52737 0.32674 0.9587 0.0
C917 C 0.5295 0.35174 0.94735 0.0
C918 C 0.52495 0.36121 0.87285 0.0
C919 C 0.519 0.34659 0.80991 0.0
C920 C 0.51456 0.36184 0.73628 0.0
C921 C 0.53308 0.35571 0.67185 0.0
C922 C 0.48853 0.35862 0.70609 0.0
C923 C 0.51852 0.38727 0.7684 0.0
C924 C 0.52444 0.38628 0.84754 0.0
C925 C 0.52774 0.40713 0.89211 0.0
C926 C 0.52495 0.42962 0.85523 0.0
C927 C 0.51905 0.43138 0.77407 0.0
C928 C 0.51604 0.40981 0.7298 0.0
H929 H 0.19989 0.4869 0.79432 0.0
H930 H 0.19251 0.49953 0.04586 0.0
H931 H 0.149 0.5064 0.02865 0.0
H932 H 0.15439 0.53233 0.73294 0.0
H933 H 0.14266 0.51401 0.65398 0.0
H934 H 0.17391 0.51119 0.68267 0.0
H935 H 0.1681 0.46535 0.70416 0.0
H936 H 0.13697 0.46816 0.67414 0.0
H937 H 0.14436 0.45492 0.7683 0.0
H938 H 0.1064 0.50853 0.98931 0.0
H939 H 0.06625 0.50893 0.92738 0.0
H940 H 0.09903 0.49711 0.69817 0.0
C941 C 0.18913 0.49139 0.84551 0.0
C942 C 0.1999 0.49304 0.92147 0.0
C943 C 0.18503 0.49877 0.98688 0.0
C944 C 0.16016 0.50252 0.97785 0.0
C945 C 0.15014 0.50064 0.90286 0.0
C946 C 0.16404 0.49549 0.83742 0.0
C947 C 0.1482 0.49435 0.76379 0.0
C948 C 0.15525 0.51418 0.70492 0.0
C949 C 0.14948 0.46919 0.72537 0.0
C950 C 0.12326 0.49918 0.79877 0.0
C951 C 0.12504 0.50261 0.87926 0.0
C952 C 0.10476 0.50614 0.92624 0.0
C953 C 0.08198 0.50619 0.89042 0.0
C954 C 0.07941 0.50303 0.80799 0.0
C955 C 0.10043 0.49976 0.76125 0.0
H956 H 1.00674 0.83678 0.42631 0.0
H957 H 0.97761 0.80574 0.64135 0.0
H958 H 0.97561 0.8463 0.70027 0.0
H959 H 0.04265 0.88165 0.51173 0.0
H960 H 0.03597 0.90481 0.44013 0.0
H961 H 0.03442 0.87343 0.41241 0.0
H962 H 0.99026 0.87916 0.36587 0.0
H963 H 0.99166 0.91067 0.39253 0.0
H964 H 0.96822 0.89173 0.43258 0.0
H965 H 0.98108 0.88949 0.74187 0.0
H966 H 0.98829 0.93342 0.75657 0.0
H967 H 1.00916 0.93773 0.51096 0.0
C968 C 0.99933 0.83843 0.48503 0.0
C969 C 0.99272 0.81766 0.52926 0.0
C970 C 0.98347 0.82102 0.60651 0.0
C971 C 0.98207 0.8441 0.64055 0.0
C972 C 0.98942 0.86396 0.59627 0.0
C973 C 0.99732 0.86148 0.51953 0.0
C974 C 1.00405 0.88591 0.48489 0.0
C975 C 0.03086 0.88647 0.46091 0.0
C976 C 0.98755 0.89224 0.41482 0.0
C977 C 0.99919 0.9024 0.55484 0.0
C978 C 0.991 0.88925 0.6187 0.0
C979 C 0.98698 0.90006 0.69181 0.0
C980 C 0.9912 0.92496 0.69977 0.0
C981 C 0.99888 0.93892 0.63469 0.0
C982 C 1.00279 0.9275 0.56117 0.0
H983 H 0.68541 0.99678 0.43524 0.0
H984 H 0.72587 0.01941 0.64235 0.0
H985 H 0.68841 0.01988 0.71934 0.0
H986 H 0.63483 0.0355 0.47134 0.0
H987 H 0.61266 0.01435 0.43541 0.0
H988 H 0.643 0.01366 0.39712 0.0
H989 H 0.64682 0.96845 0.43543 0.0
H990 H 0.61646 0.96897 0.4737 0.0
H991 H 0.64117 0.95936 0.53573 0.0
H992 H 0.64629 0.02022 0.77359 0.0
H993 H 0.6025 0.0199 0.80068 0.0
H994 H 0.58869 0.99852 0.5584 0.0
C995 C 0.68654 1.00175 0.4968 0.0
C996 C 0.70903 1.00763 0.53233 0.0
C997 C 0.70929 0.01401 0.61348 0.0
C998 C 0.68794 0.01462 0.65794 0.0
C999 C 0.66621 1.009 0.62085 0.0
C1000 C 0.6653 1.00269 0.54214 0.0
C1001 C 0.63936 0.99851 0.51594 0.0
C1002 C 0.63204 0.01658 0.45113 0.0
C1003 C 0.63575 0.97226 0.4886 0.0
C1004 C 0.62591 1.00348 0.59226 0.0
C1005 C 0.64178 1.00949 0.652 0.0
C1006 C 0.63369 0.01539 0.72737 0.0
C1007 C 0.60871 0.01516 0.74219 0.0
C1008 C 0.592 1.00905 0.68201 0.0
C1009 C 0.60089 1.00307 0.60608 0.0
H1010 H 0.51536 0.6808 0.42646 0.0
H1011 H 0.54758 0.71292 0.63549 0.0
H1012 H 0.54964 0.67279 0.69733 0.0
H1013 H 0.47996 0.6368 0.51955 0.0
H1014 H 0.48556 0.61313 0.44883 0.0
H1015 H 0.48703 0.64431 0.41881 0.0
H1016 H 0.53052 0.63787 0.36746 0.0
H1017 H 0.5292 0.60656 0.39648 0.0
H1018 H 0.55327 0.62554 0.43237 0.0
H1019 H 0.54417 0.62991 0.74288 0.0
H1020 H 0.53718 0.58605 0.76109 0.0
H1021 H 0.51335 0.58034 0.51839 0.0
C1022 C 0.52343 0.67948 0.48445 0.0
C1023 C 0.53087 0.70048 0.5262 0.0
C1024 C 0.54101 0.69751 0.60258 0.0
C1025 C 0.54245 0.67466 0.63828 0.0
C1026 C 0.53426 0.6546 0.59653 0.0
C1027 C 0.5255 0.65664 0.52054 0.0
C1028 C 0.51816 0.63203 0.48849 0.0
C1029 C 0.49107 0.63155 0.46773 0.0
C1030 C 0.53372 0.62509 0.41697 0.0
C1031 C 0.52374 0.61595 0.55899 0.0
C1032 C 0.53273 0.62946 0.62099 0.0
C1033 C 0.53762 0.61907 0.69425 0.0
C1034 C 0.53351 0.5942 0.70424 0.0
C1035 C 0.5251 0.57985 0.64095 0.0
C1036 C 0.52024 0.59088 0.56728 0.0
H1037 H 0.83461 0.50399 0.43315 0.0
H1038 H 0.79967 0.54459 0.62054 0.0
H1039 H 0.83904 0.54981 0.68599 0.0
H1040 H 0.87681 0.47302 0.5482 0.0
H1041 H 0.90155 0.47523 0.47963 0.0
H1042 H 0.87088 0.47564 0.44401 0.0
H1043 H 0.87854 0.5164 0.37389 0.0
H1044 H 0.90938 0.51606 0.40844 0.0
H1045 H 0.89016 0.54163 0.42944 0.0
H1046 H 0.8811 0.54654 0.7394 0.0
H1047 H 0.92429 0.53924 0.76929 0.0
H1048 H 0.93335 0.50461 0.54209 0.0
C1049 C 0.83521 0.51455 0.4868 0.0
C1050 C 0.81372 0.52359 0.52188 0.0
C1051 C 0.81559 0.53694 0.59305 0.0
C1052 C 0.83797 0.54018 0.63057 0.0
C1053 C 0.85857 0.53043 0.59565 0.0
C1054 C 0.85753 0.51833 0.52452 0.0
C1055 C 0.88246 0.50941 0.5003 0.0
C1056 C 0.88294 0.48168 0.49262 0.0
C1057 C 0.89061 0.52161 0.42346 0.0
C1058 C 0.89752 0.51788 0.56997 0.0
C1059 C 0.88327 0.52982 0.62448 0.0
C1060 C 0.89255 0.53769 0.69646 0.0
C1061 C 0.91703 0.53339 0.71311 0.0
C1062 C 0.93211 0.52173 0.65754 0.0
C1063 C 0.92227 0.51405 0.58477 0.0
loop_
_geom_bond_atom_site_label_1
_geom_bond_atom_site_label_2
_geom_bond_distance
_geom_bond_site_symmetry_2
_ccdc_geom_bond_type
P0 O11 1.490 . S
P0 C14 1.812 . S
P0 C20 1.803 . S
P0 C26 1.819 . S
H1 C15 0.941 . S
H2 C16 0.939 . S
H3 C18 0.940 . S
H4 C19 0.940 . S
H5 C21 0.939 . S
H6 C22 0.942 . S
H7 C24 0.940 . S
H8 C25 0.939 . S
H9 C27 0.941 . S
H10 C31 0.939 . S
O11 P0 1.490 . S
H12 C28 0.939 . S
H13 C30 0.940 . S
C14 P0 1.812 . S
C14 C15 1.389 . S
C14 C19 1.391 . S
C15 H1 0.941 . S
C15 C14 1.389 . S
C15 C16 1.397 . S
C16 H2 0.939 . S
C16 C15 1.397 . S
C16 C17 1.378 . S
C17 C16 1.378 . S
C17 C18 1.378 . S
C18 H3 0.940 . S
C18 C17 1.378 . S
C18 C19 1.396 . S
C19 H4 0.940 . S
C19 C14 1.391 . S
C19 C18 1.396 . S
C20 P0 1.803 . S
C20 C21 1.378 . S
C20 C25 1.400 . S
C21 H5 0.939 . S
C21 C20 1.378 . S
C21 C22 1.361 . S
C22 H6 0.942 . S
C22 C21 1.361 . S
C22 C23 1.369 . S
C23 C22 1.369 . S
C23 C24 1.404 . S
C24 H7 0.940 . S
C24 C23 1.404 . S
C24 C25 1.389 . S
C25 H8 0.939 . S
C25 C20 1.400 . S
C25 C24 1.389 . S
C26 P0 1.819 . S
C26 C27 1.391 . S
C26 C31 1.391 . S
C27 H9 0.941 . S
C27 C26 1.391 . S
C27 C28 1.396 . S
C28 H12 0.939 . S
C28 C27 1.396 . S
C28 C29 1.397 . S
C29 C28 1.397 . S
C29 C30 1.385 . S
C30 H13 0.940 . S
C30 C29 1.385 . S
C30 C31 1.388 . S
C31 H10 0.939 . S
C31 C26 1.391 . S
C31 C30 1.388 . S
P32 O43 1.490 . S
P32 C46 1.812 . S
P32 C52 1.803 . S
P32 C58 1.819 . S
H33 C47 0.941 . S
H34 C48 0.939 . S
H35 C50 0.940 . S
H36 C51 0.940 . S
H37 C53 0.939 . S
H38 C54 0.942 . S
H39 C56 0.940 . S
H40 C57 0.939 . S
H41 C59 0.941 . S
H42 C63 0.939 1_655 S
O43 P32 1.490 . S
H44 C60 0.939 . S
H45 C62 0.940 . S
C46 P32 1.812 . S
C46 C47 1.389 . S
C46 C51 1.391 1_455 S
C47 H33 0.941 . S
C47 C46 1.389 . S
C47 C48 1.397 . S
C48 H34 0.939 . S
C48 C47 1.397 . S
C48 C49 1.378 . S
C49 C48 1.378 . S
C49 C50 1.378 1_455 S
C50 H35 0.940 . S
C50 C49 1.378 1_655 S
C50 C51 1.396 . S
C51 H36 0.940 . S
C51 C46 1.391 1_655 S
C51 C50 1.396 . S
C52 P32 1.803 . S
C52 C53 1.378 . S
C52 C57 1.400 1_455 S
C53 H37 0.939 . S
C53 C52 1.378 . S
C53 C54 1.361 . S
C54 H38 0.942 . S
C54 C53 1.361 . S
C54 C55 1.369 . S
C55 C54 1.369 . S
C55 C56 1.404 1_455 S
C56 H39 0.940 . S
C56 C55 1.404 1_655 S
C56 C57 1.389 . S
C57 H40 0.939 . S
C57 C52 1.400 1_655 S
C57 C56 1.389 . S
C58 P32 1.819 . S
C58 C59 1.391 . S
C58 C63 1.391 . S
C59 H41 0.941 . S
C59 C58 1.391 . S
C59 C60 1.396 . S
C60 H44 0.939 . S
C60 C59 1.396 . S
C60 C61 1.397 . S
C61 C60 1.397 . S
C61 C62 1.385 1_455 S
C62 H45 0.940 . S
C62 C61 1.385 1_655 S
C62 C63 1.388 1_655 S
C63 H42 0.939 1_455 S
C63 C58 1.391 . S
C63 C62 1.388 1_455 S
P64 O75 1.490 . S
P64 C78 1.812 . S
P64 C84 1.803 . S
P64 C90 1.819 . S
H65 C79 0.941 . S
H66 C80 0.939 . S
H67 C82 0.940 . S
H68 C83 0.940 . S
H69 C85 0.939 . S
H70 C86 0.942 . S
H71 C88 0.940 . S
H72 C89 0.939 . S
H73 C91 0.941 . S
H74 C95 0.939 1_565 S
O75 P64 1.490 . S
H76 C92 0.939 . S
H77 C94 0.940 . S
C78 P64 1.812 . S
C78 C79 1.389 . S
C78 C83 1.391 1_545 S
C79 H65 0.941 . S
C79 C78 1.389 . S
C79 C80 1.397 . S
C80 H66 0.939 . S
C80 C79 1.397 . S
C80 C81 1.378 . S
C81 C80 1.378 . S
C81 C82 1.378 1_545 S
C82 H67 0.940 . S
C82 C81 1.378 1_565 S
C82 C83 1.396 . S
C83 H68 0.940 . S
C83 C78 1.391 1_565 S
C83 C82 1.396 . S
C84 P64 1.803 . S
C84 C85 1.378 . S
C84 C89 1.400 1_545 S
C85 H69 0.939 . S
C85 C84 1.378 . S
C85 C86 1.361 . S
C86 H70 0.942 . S
C86 C85 1.361 . S
C86 C87 1.369 . S
C87 C86 1.369 . S
C87 C88 1.404 1_545 S
C88 H71 0.940 . S
C88 C87 1.404 1_565 S
C88 C89 1.389 . S
C89 H72 0.939 . S
C89 C84 1.400 1_565 S
C89 C88 1.389 . S
C90 P64 1.819 . S
C90 C91 1.391 . S
C90 C95 1.391 . S
C91 H73 0.941 . S
C91 C90 1.391 . S
C91 C92 1.396 . S
C92 H76 0.939 . S
C92 C91 1.396 . S
C92 C93 1.397 . S
C93 C92 1.397 . S
C93 C94 1.385 1_545 S
C94 H77 0.940 . S
C94 C93 1.385 1_565 S
C94 C95 1.388 1_565 S
C95 H74 0.939 1_545 S
C95 C90 1.391 . S
C95 C94 1.388 1_545 S
P96 O107 1.490 . S
P96 C110 1.812 . S
P96 C116 1.803 . S
P96 C122 1.819 . S
H97 C111 0.941 . S
H98 C112 0.939 . S
H99 C114 0.940 . S
H100 C115 0.940 . S
H101 C117 0.939 . S
H102 C118 0.942 . S
H103 C120 0.940 . S
H104 C121 0.939 . S
H105 C123 0.941 . S
H106 C127 0.939 . S
O107 P96 1.490 . S
H108 C124 0.939 . S
H109 C126 0.940 . S
C110 P96 1.812 . S
C110 C111 1.389 . S
C110 C115 1.391 . S
C111 H97 0.941 . S
C111 C110 1.389 . S
C111 C112 1.397 . S
C112 H98 0.939 . S
C112 C111 1.397 . S
C112 C113 1.378 . S
C113 C112 1.378 . S
C113 C114 1.378 . S
C114 H99 0.940 . S
C114 C113 1.378 . S
C114 C115 1.396 . S
C115 H100 0.940 . S
C115 C110 1.391 . S
C115 C114 1.396 . S
C116 P96 1.803 . S
C116 C117 1.378 . S
C116 C121 1.400 . S
C117 H101 0.939 . S
C117 C116 1.378 . S
C117 C118 1.361 . S
C118 H102 0.942 . S
C118 C117 1.361 . S
C118 C119 1.369 . S
C119 C118 1.369 . S
C119 C120 1.404 . S
C120 H103 0.940 . S
C120 C119 1.404 . S
C120 C121 1.389 . S
C121 H104 0.939 . S
C121 C116 1.400 . S
C121 C120 1.389 . S
C122 P96 1.819 . S
C122 C123 1.391 . S
C122 C127 1.391 . S
C123 H105 0.941 . S
C123 C122 1.391 . S
C123 C124 1.396 . S
C124 H108 0.939 . S
C124 C123 1.396 . S
C124 C125 1.397 . S
C125 C124 1.397 . S
C125 C126 1.385 . S
C126 H109 0.940 . S
C126 C125 1.385 . S
C126 C127 1.388 . S
C127 H106 0.939 . S
C127 C122 1.391 . S
C127 C126 1.388 . S
P128 O139 1.490 . S
P128 C142 1.812 1_554 S
P128 C148 1.803 . S
P128 C154 1.819 . S
H129 C143 0.941 . S
H130 C144 0.939 . S
H131 C146 0.940 . S
H132 C147 0.940 . S
H133 C149 0.939 . S
H134 C150 0.942 . S
H135 C152 0.940 . S
H136 C153 0.939 1_556 S
H137 C155 0.941 . S
H138 C159 0.939 . S
O139 P128 1.490 . S
H140 C156 0.939 . S
H141 C158 0.940 . S
C142 P128 1.812 1_556 S
C142 C143 1.389 . S
C142 C147 1.391 . S
C143 H129 0.941 . S
C143 C142 1.389 . S
C143 C144 1.397 . S
C144 H130 0.939 . S
C144 C143 1.397 . S
C144 C145 1.378 . S
C145 C144 1.378 . S
C145 C146 1.378 . S
C146 H131 0.940 . S
C146 C145 1.378 . S
C146 C147 1.396 . S
C147 H132 0.940 . S
C147 C142 1.391 . S
C147 C146 1.396 . S
C148 P128 1.803 . S
C148 C149 1.378 . S
C148 C153 1.400 . S
C149 H133 0.939 . S
C149 C148 1.378 . S
C149 C150 1.361 . S
C150 H134 0.942 . S
C150 C149 1.361 . S
C150 C151 1.369 . S
C151 C150 1.369 . S
C151 C152 1.404 . S
C152 H135 0.940 . S
C152 C151 1.404 . S
C152 C153 1.389 . S
C153 H136 0.939 1_554 S
C153 C148 1.400 . S
C153 C152 1.389 . S
C154 P128 1.819 . S
C154 C155 1.391 . S
C154 C159 1.391 . S
C155 H137 0.941 . S
C155 C154 1.391 . S
C155 C156 1.396 . S
C156 H140 0.939 . S
C156 C155 1.396 . S
C156 C157 1.397 . S
C157 C156 1.397 . S
C157 C158 1.385 . S
C158 H141 0.940 . S
C158 C157 1.385 . S
C158 C159 1.388 . S
C159 H138 0.939 . S
C159 C154 1.391 . S
C159 C158 1.388 . S
P160 O171 1.490 . S
P160 C174 1.812 1_554 S
P160 C180 1.803 . S
P160 C186 1.819 . S
H161 C175 0.941 . S
H162 C176 0.939 . S
H163 C178 0.940 . S
H164 C179 0.940 1_655 S
H165 C181 0.939 . S
H166 C182 0.942 . S
H167 C184 0.940 . S
H168 C185 0.939 1_656 S
H169 C187 0.941 . S
H170 C191 0.939 . S
O171 P160 1.490 . S
H172 C188 0.939 . S
H173 C190 0.940 . S
C174 P160 1.812 1_556 S
C174 C175 1.389 . S
C174 C179 1.391 . S
C175 H161 0.941 . S
C175 C174 1.389 . S
C175 C176 1.397 . S
C176 H162 0.939 . S
C176 C175 1.397 . S
C176 C177 1.378 . S
C177 C176 1.378 . S
C177 C178 1.378 1_455 S
C178 H163 0.940 . S
C178 C177 1.378 1_655 S
C178 C179 1.396 1_655 S
C179 H164 0.940 1_455 S
C179 C174 1.391 . S
C179 C178 1.396 1_455 S
C180 P160 1.803 . S
C180 C181 1.378 . S
C180 C185 1.400 . S
C181 H165 0.939 . S
C181 C180 1.378 . S
C181 C182 1.361 . S
C182 H166 0.942 . S
C182 C181 1.361 . S
C182 C183 1.369 . S
C183 C182 1.369 . S
C183 C184 1.404 1_455 S
C184 H167 0.940 . S
C184 C183 1.404 1_655 S
C184 C185 1.389 1_655 S
C185 H168 0.939 1_454 S
C185 C180 1.400 . S
C185 C184 1.389 1_455 S
C186 P160 1.819 . S
C186 C187 1.391 . S
C186 C191 1.391 . S
C187 H169 0.941 . S
C187 C186 1.391 . S
C187 C188 1.396 . S
C188 H172 0.939 . S
C188 C187 1.396 . S
C188 C189 1.397 . S
C189 C188 1.397 . S
C189 C190 1.385 1_455 S
C190 H173 0.940 . S
C190 C189 1.385 1_655 S
C190 C191 1.388 1_655 S
C191 H170 0.939 . S
C191 C186 1.391 . S
C191 C190 1.388 1_455 S
P192 O203 1.490 . S
P192 C206 1.812 1_554 S
P192 C212 1.803 . S
P192 C218 1.819 . S
H193 C207 0.941 . S
H194 C208 0.939 . S
H195 C210 0.940 . S
H196 C211 0.940 1_565 S
H197 C213 0.939 . S
H198 C214 0.942 . S
H199 C216 0.940 . S
H200 C217 0.939 1_566 S
H201 C219 0.941 . S
H202 C223 0.939 . S
O203 P192 1.490 . S
H204 C220 0.939 . S
H205 C222 0.940 . S
C206 P192 1.812 1_556 S
C206 C207 1.389 . S
C206 C211 1.391 . S
C207 H193 0.941 . S
C207 C206 1.389 . S
C207 C208 1.397 . S
C208 H194 0.939 . S
C208 C207 1.397 . S
C208 C209 1.378 . S
C209 C208 1.378 . S
C209 C210 1.378 1_545 S
C210 H195 0.940 . S
C210 C209 1.378 1_565 S
C210 C211 1.396 1_565 S
C211 H196 0.940 1_545 S
C211 C206 1.391 . S
C211 C210 1.396 1_545 S
C212 P192 1.803 . S
C212 C213 1.378 . S
C212 C217 1.400 . S
C213 H197 0.939 . S
C213 C212 1.378 . S
C213 C214 1.361 . S
C214 H198 0.942 . S
C214 C213 1.361 . S
C214 C215 1.369 . S
C215 C214 1.369 . S
C215 C216 1.404 1_545 S
C216 H199 0.940 . S
C216 C215 1.404 1_565 S
C216 C217 1.389 1_565 S
C217 H200 0.939 1_544 S
C217 C212 1.400 . S
C217 C216 1.389 1_545 S
C218 P192 1.819 . S
C218 C219 1.391 . S
C218 C223 1.391 . S
C219 H201 0.941 . S
C219 C218 1.391 . S
C219 C220 1.396 . S
C220 H204 0.939 . S
C220 C219 1.396 . S
C220 C221 1.397 . S
C221 C220 1.397 . S
C221 C222 1.385 1_545 S
C222 H205 0.940 . S
C222 C221 1.385 1_565 S
C222 C223 1.388 1_565 S
C223 H202 0.939 . S
C223 C218 1.391 . S
C223 C222 1.388 1_545 S
P224 O235 1.490 . S
P224 C238 1.812 1_554 S
P224 C244 1.803 . S
P224 C250 1.819 . S
H225 C239 0.941 . S
H226 C240 0.939 . S
H227 C242 0.940 . S
H228 C243 0.940 . S
H229 C245 0.939 . S
H230 C246 0.942 . S
H231 C248 0.940 . S
H232 C249 0.939 1_556 S
H233 C251 0.941 . S
H234 C255 0.939 . S
O235 P224 1.490 . S
H236 C252 0.939 . S
H237 C254 0.940 . S
C238 P224 1.812 1_556 S
C238 C239 1.389 . S
C238 C243 1.391 . S
C239 H225 0.941 . S
C239 C238 1.389 . S
C239 C240 1.397 . S
C240 H226 0.939 . S
C240 C239 1.397 . S
C240 C241 1.378 . S
C241 C240 1.378 . S
C241 C242 1.378 . S
C242 H227 0.940 . S
C242 C241 1.378 . S
C242 C243 1.396 . S
C243 H228 0.940 . S
C243 C238 1.391 . S
C243 C242 1.396 . S
C244 P224 1.803 . S
C244 C245 1.378 . S
C244 C249 1.400 . S
C245 H229 0.939 . S
C245 C244 1.378 . S
C245 C246 1.361 . S
C246 H230 0.942 . S
C246 C245 1.361 . S
C246 C247 1.369 . S
C247 C246 1.369 . S
C247 C248 1.404 . S
C248 H231 0.940 . S
C248 C247 1.404 . S
C248 C249 1.389 . S
C249 H232 0.939 1_554 S
C249 C244 1.400 . S
C249 C248 1.389 . S
C250 P224 1.819 . S
C250 C251 1.391 . S
C250 C255 1.391 . S
C251 H233 0.941 . S
C251 C250 1.391 . S
C251 C252 1.396 . S
C252 H236 0.939 . S
C252 C251 1.396 . S
C252 C253 1.397 . S
C253 C252 1.397 . S
C253 C254 1.385 . S
C254 H237 0.940 . S
C254 C253 1.385 . S
C254 C255 1.388 . S
C255 H234 0.939 . S
C255 C250 1.391 . S
C255 C254 1.388 . S
Gd256 C259 2.818 . S
Gd256 O276 2.377 . S
Gd256 O278 2.448 . S
Gd256 O279 2.506 . S
Gd256 O280 2.435 . S
Gd256 O281 2.717 1_565 S
Gd256 O283 2.395 1_565 S
Gd256 O287 2.327 1_455 S
Gd257 C268 2.818 . S
Gd257 O277 2.395 1_545 S
Gd257 O281 2.327 1_655 S
Gd257 O282 2.377 . S
Gd257 O284 2.448 . S
Gd257 O285 2.506 . S
Gd257 O286 2.435 . S
Gd257 O287 2.717 1_545 S
C258 O276 1.240 1_655 S
C258 O277 1.240 . S
C259 Gd256 2.818 . S
C259 C260 1.510 . S
C259 O278 1.249 . S
C259 O279 1.252 . S
C260 C259 1.510 . S
C260 C261 1.404 . S
C260 C262 1.352 . S
C261 C260 1.404 . S
C261 C265 1.389 . S
C261 H288 0.930 . S
C262 C260 1.352 . S
C262 C264 1.374 . S
C262 H289 0.931 1_455 S
C263 C264 1.359 . S
C263 C265 1.364 . S
C264 C262 1.374 . S
C264 C263 1.359 . S
C264 H290 0.931 1_455 S
C265 C261 1.389 . S
C265 C263 1.364 . S
C265 H291 0.931 . S
C266 O280 1.275 . S
C266 O281 1.247 1_565 S
C267 O282 1.240 1_455 S
C267 O283 1.240 . S
C268 Gd257 2.818 . S
C268 C269 1.510 . S
C268 O284 1.249 . S
C268 O285 1.252 . S
C269 C268 1.510 . S
C269 C270 1.404 . S
C269 C271 1.352 . S
C270 C269 1.404 . S
C270 C274 1.389 . S
C270 H292 0.930 . S
C271 C269 1.352 . S
C271 C273 1.374 . S
C271 H293 0.931 1_655 S
C272 C273 1.359 . S
C272 C274 1.364 . S
C273 C271 1.374 . S
C273 C272 1.359 . S
C273 H294 0.931 1_655 S
C274 C270 1.389 . S
C274 C272 1.364 . S
C274 H295 0.931 . S
C275 O286 1.256 . S
C275 O287 1.257 1_545 S
O276 Gd256 2.377 . S
O276 C258 1.240 1_455 S
O277 Gd257 2.395 1_565 S
O277 C258 1.240 . S
O278 Gd256 2.448 . S
O278 C259 1.249 . S
O279 Gd256 2.506 . S
O279 C259 1.252 . S
O280 Gd256 2.435 . S
O280 C266 1.275 . S
O281 Gd256 2.717 1_545 S
O281 Gd257 2.327 1_455 S
O281 C266 1.247 1_545 S
O282 Gd257 2.377 . S
O282 C267 1.240 1_655 S
O283 Gd256 2.395 1_545 S
O283 C267 1.240 . S
O284 Gd257 2.448 . S
O284 C268 1.249 . S
O285 Gd257 2.506 . S
O285 C268 1.252 . S
O286 Gd257 2.435 . S
O286 C275 1.256 . S
O287 Gd256 2.327 1_655 S
O287 Gd257 2.717 1_565 S
O287 C275 1.257 1_565 S
H288 C261 0.930 . S
H289 C262 0.931 1_655 S
H290 C264 0.931 1_655 S
H291 C265 0.931 . S
H292 C270 0.930 . S
H293 C271 0.931 1_455 S
H294 C273 0.931 1_455 S
H295 C274 0.931 . S
Gd296 C299 2.818 . S
Gd296 O316 2.377 . S
Gd296 O318 2.448 . S
Gd296 O319 2.506 . S
Gd296 O320 2.435 . S
Gd296 O321 2.717 . S
Gd296 O323 2.395 . S
Gd296 O327 2.327 1_545 S
Gd297 C308 2.818 . S
Gd297 O317 2.395 . S
Gd297 O321 2.327 1_565 S
Gd297 O322 2.377 . S
Gd297 O324 2.448 . S
Gd297 O325 2.506 . S
Gd297 O326 2.435 . S
Gd297 O327 2.717 . S
C298 O316 1.240 1_565 S
C298 O317 1.240 . S
C299 Gd296 2.818 . S
C299 C300 1.510 . S
C299 O318 1.249 . S
C299 O319 1.252 . S
C300 C299 1.510 . S
C300 C301 1.404 . S
C300 C302 1.352 . S
C301 C300 1.404 . S
C301 C305 1.389 . S
C301 H328 0.930 . S
C302 C300 1.352 . S
C302 C304 1.374 . S
C302 H329 0.931 1_545 S
C303 C304 1.359 . S
C303 C305 1.364 . S
C304 C302 1.374 . S
C304 C303 1.359 . S
C304 H330 0.931 1_545 S
C305 C301 1.389 . S
C305 C303 1.364 . S
C305 H331 0.931 . S
C306 O320 1.256 . S
C306 O321 1.257 . S
C307 O322 1.240 1_545 S
C307 O323 1.240 . S
C308 Gd297 2.818 . S
C308 C309 1.510 . S
C308 O324 1.249 . S
C308 O325 1.252 . S
C309 C308 1.510 . S
C309 C310 1.404 . S
C309 C311 1.352 . S
C310 C309 1.404 . S
C310 C314 1.389 . S
C310 H332 0.930 . S
C311 C309 1.352 . S
C311 C313 1.374 . S
C311 H333 0.931 1_565 S
C312 C313 1.359 . S
C312 C314 1.364 . S
C313 C311 1.374 . S
C313 C312 1.359 . S
C313 H334 0.931 1_565 S
C314 C310 1.389 . S
C314 C312 1.364 . S
C314 H335 0.931 . S
C315 O326 1.256 . S
C315 O327 1.257 . S
O316 Gd296 2.377 . S
O316 C298 1.240 1_545 S
O317 Gd297 2.395 . S
O317 C298 1.240 . S
O318 Gd296 2.448 . S
O318 C299 1.249 . S
O319 Gd296 2.506 . S
O319 C299 1.252 . S
O320 Gd296 2.435 . S
O320 C306 1.256 . S
O321 Gd296 2.717 . S
O321 Gd297 2.327 1_545 S
O321 C306 1.257 . S
O322 Gd297 2.377 . S
O322 C307 1.240 1_565 S
O323 Gd296 2.395 . S
O323 C307 1.240 . S
O324 Gd297 2.448 . S
O324 C308 1.249 . S
O325 Gd297 2.506 . S
O325 C308 1.252 . S
O326 Gd297 2.435 . S
O326 C315 1.256 . S
O327 Gd296 2.327 1_565 S
O327 Gd297 2.717 . S
O327 C315 1.257 . S
H328 C301 0.930 . S
H329 C302 0.931 1_565 S
H330 C304 0.931 1_565 S
H331 C305 0.931 . S
H332 C310 0.930 . S
H333 C311 0.931 1_545 S
H334 C313 0.931 1_545 S
H335 C314 0.931 . S
Gd336 C339 2.818 . S
Gd336 O356 2.377 . S
Gd336 O358 2.448 . S
Gd336 O359 2.506 . S
Gd336 O360 2.435 . S
Gd336 O361 2.717 . S
Gd336 O363 2.395 . S
Gd336 O367 2.327 . S
Gd337 C348 2.818 . S
Gd337 O357 2.395 . S
Gd337 O361 2.327 . S
Gd337 O362 2.377 . S
Gd337 O364 2.448 . S
Gd337 O365 2.506 . S
Gd337 O366 2.435 . S
Gd337 O367 2.717 . S
C338 O356 1.240 . S
C338 O357 1.240 . S
C339 Gd336 2.818 . S
C339 C340 1.510 . S
C339 O358 1.249 . S
C339 O359 1.252 . S
C340 C339 1.510 . S
C340 C341 1.404 . S
C340 C342 1.352 . S
C341 C340 1.404 . S
C341 C345 1.389 . S
C341 H368 0.930 . S
C342 C340 1.352 . S
C342 C344 1.374 . S
C342 H369 0.931 . S
C343 C344 1.359 . S
C343 C345 1.364 . S
C344 C342 1.374 . S
C344 C343 1.359 . S
C344 H370 0.931 . S
C345 C341 1.389 . S
C345 C343 1.364 . S
C345 H371 0.931 . S
C346 O360 1.256 . S
C346 O361 1.257 . S
C347 O362 1.240 . S
C347 O363 1.240 . S
C348 Gd337 2.818 . S
C348 C349 1.510 . S
C348 O364 1.249 . S
C348 O365 1.252 . S
C349 C348 1.510 . S
C349 C350 1.404 . S
C349 C351 1.352 . S
C350 C349 1.404 . S
C350 C354 1.389 . S
C350 H372 0.930 . S
C351 C349 1.352 . S
C351 C353 1.374 . S
C351 H373 0.931 . S
C352 C353 1.359 . S
C352 C354 1.364 . S
C353 C351 1.374 . S
C353 C352 1.359 . S
C353 H374 0.931 . S
C354 C350 1.389 . S
C354 C352 1.364 . S
C354 H375 0.931 . S
C355 O366 1.256 . S
C355 O367 1.257 . S
O356 Gd336 2.377 . S
O356 C338 1.240 . S
O357 Gd337 2.395 . S
O357 C338 1.240 . S
O358 Gd336 2.448 . S
O358 C339 1.249 . S
O359 Gd336 2.506 . S
O359 C339 1.252 . S
O360 Gd336 2.435 . S
O360 C346 1.256 . S
O361 Gd336 2.717 . S
O361 Gd337 2.327 . S
O361 C346 1.257 . S
O362 Gd337 2.377 . S
O362 C347 1.240 . S
O363 Gd336 2.395 . S
O363 C347 1.240 . S
O364 Gd337 2.448 . S
O364 C348 1.249 . S
O365 Gd337 2.506 . S
O365 C348 1.252 . S
O366 Gd337 2.435 . S
O366 C355 1.256 . S
O367 Gd336 2.327 . S
O367 Gd337 2.717 . S
O367 C355 1.257 . S
H368 C341 0.930 . S
H369 C342 0.931 . S
H370 C344 0.931 . S
H371 C345 0.931 . S
H372 C350 0.930 . S
H373 C351 0.931 . S
H374 C353 0.931 . S
H375 C354 0.931 . S
Gd376 C379 2.818 . S
Gd376 O396 2.377 . S
Gd376 O398 2.448 . S
Gd376 O399 2.506 . S
Gd376 O400 2.435 . S
Gd376 O401 2.717 1_655 S
Gd376 O403 2.395 1_655 S
Gd376 O407 2.327 . S
Gd377 C388 2.818 . S
Gd377 O397 2.395 1_455 S
Gd377 O401 2.327 . S
Gd377 O402 2.377 . S
Gd377 O404 2.448 . S
Gd377 O405 2.506 . S
Gd377 O406 2.435 . S
Gd377 O407 2.717 1_455 S
C378 O396 1.240 . S
C378 O397 1.240 . S
C379 Gd376 2.818 . S
C379 C380 1.510 . S
C379 O398 1.249 . S
C379 O399 1.252 . S
C380 C379 1.510 . S
C380 C381 1.404 . S
C380 C382 1.352 . S
C381 C380 1.404 . S
C381 C385 1.389 . S
C381 H408 0.930 . S
C382 C380 1.352 . S
C382 C384 1.374 . S
C382 H409 0.931 . S
C383 C384 1.359 . S
C383 C385 1.364 . S
C384 C382 1.374 . S
C384 C383 1.359 . S
C384 H410 0.931 . S
C385 C381 1.389 . S
C385 C383 1.364 . S
C385 H411 0.931 . S
C386 O400 1.272 . S
C386 O401 1.249 1_655 S
C387 O402 1.240 . S
C387 O403 1.240 . S
C388 Gd377 2.818 . S
C388 C389 1.510 . S
C388 O404 1.249 . S
C388 O405 1.252 . S
C389 C388 1.510 . S
C389 C390 1.404 . S
C389 C391 1.352 . S
C390 C389 1.404 . S
C390 C394 1.389 . S
C390 H412 0.930 . S
C391 C389 1.352 . S
C391 C393 1.374 . S
C391 H413 0.931 . S
C392 C393 1.359 . S
C392 C394 1.364 . S
C393 C391 1.374 . S
C393 C392 1.359 . S
C393 H414 0.931 . S
C394 C390 1.389 . S
C394 C392 1.364 . S
C394 H415 0.931 . S
C395 O406 1.256 . S
C395 O407 1.257 1_455 S
O396 Gd376 2.377 . S
O396 C378 1.240 . S
O397 Gd377 2.395 1_655 S
O397 C378 1.240 . S
O398 Gd376 2.448 . S
O398 C379 1.249 . S
O399 Gd376 2.506 . S
O399 C379 1.252 . S
O400 Gd376 2.435 . S
O400 C386 1.272 . S
O401 Gd376 2.717 1_455 S
O401 Gd377 2.327 . S
O401 C386 1.249 1_455 S
O402 Gd377 2.377 . S
O402 C387 1.240 . S
O403 Gd376 2.395 1_455 S
O403 C387 1.240 . S
O404 Gd377 2.448 . S
O404 C388 1.249 . S
O405 Gd377 2.506 . S
O405 C388 1.252 . S
O406 Gd377 2.435 . S
O406 C395 1.256 . S
O407 Gd376 2.327 . S
O407 Gd377 2.717 1_655 S
O407 C395 1.257 1_655 S
H408 C381 0.930 . S
H409 C382 0.931 . S
H410 C384 0.931 . S
H411 C385 0.931 . S
H412 C390 0.930 . S
H413 C391 0.931 . S
H414 C393 0.931 . S
H415 C394 0.931 . S
H416 C428 0.930 . S
H417 C430 0.930 . S
H418 C431 0.930 . S
H419 C435 0.959 . S
H420 C435 0.959 . S
H421 C435 0.961 . S
H422 C436 0.960 . S
H423 C436 0.961 . S
H424 C436 0.959 . S
H425 C439 0.929 . S
H426 C440 0.931 . S
H427 C442 0.930 . S
C428 H416 0.930 . S
C428 C429 1.424 . S
C428 C433 1.399 . S
C429 C428 1.424 . S
C429 C430 1.347 1_545 S
C430 H417 0.930 . S
C430 C429 1.347 1_565 S
C430 C431 1.388 . S
C431 H418 0.930 . S
C431 C430 1.388 . S
C431 C432 1.390 . S
C432 C431 1.390 . S
C432 C433 1.394 1_565 S
C432 C438 1.465 . S
C433 C428 1.399 . S
C433 C432 1.394 1_545 S
C433 C434 1.516 . S
C434 C433 1.516 . S
C434 C435 1.502 . S
C434 C436 1.561 . S
C434 C437 1.526 . S
C435 H419 0.959 . S
C435 H420 0.959 . S
C435 H421 0.961 . S
C435 C434 1.502 . S
C436 H422 0.960 . S
C436 H423 0.961 . S
C436 H424 0.959 . S
C436 C434 1.561 . S
C437 C434 1.526 . S
C437 C438 1.396 1_545 S
C437 C442 1.390 . S
C438 C432 1.465 . S
C438 C437 1.396 1_565 S
C438 C439 1.399 . S
C439 H425 0.929 . S
C439 C438 1.399 . S
C439 C440 1.385 . S
C440 H426 0.931 . S
C440 C439 1.385 . S
C440 C441 1.382 1_565 S
C441 C440 1.382 1_545 S
C441 C442 1.392 . S
C442 H427 0.930 . S
C442 C437 1.390 . S
C442 C441 1.392 . S
H443 C455 0.930 . S
H444 C457 0.930 . S
H445 C458 0.930 . S
H446 C462 0.959 . S
H447 C462 0.959 . S
H448 C462 0.961 . S
H449 C463 0.960 . S
H450 C463 0.961 . S
H451 C463 0.959 . S
H452 C466 0.929 . S
H453 C467 0.931 . S
H454 C469 0.930 . S
C455 H443 0.930 . S
C455 C456 1.399 . S
C455 C460 1.399 . S
C456 C455 1.399 . S
C456 C457 1.376 . S
C457 H444 0.930 . S
C457 C456 1.376 . S
C457 C458 1.388 . S
C458 H445 0.930 . S
C458 C457 1.388 . S
C458 C459 1.390 . S
C459 C458 1.390 . S
C459 C460 1.394 . S
C459 C465 1.465 . S
C460 C455 1.399 . S
C460 C459 1.394 . S
C460 C461 1.516 . S
C461 C460 1.516 . S
C461 C462 1.502 . S
C461 C463 1.561 . S
C461 C464 1.526 . S
C462 H446 0.959 . S
C462 H447 0.959 . S
C462 H448 0.961 . S
C462 C461 1.502 . S
C463 H449 0.960 . S
C463 H450 0.961 . S
C463 H451 0.959 . S
C463 C461 1.561 . S
C464 C461 1.526 . S
C464 C465 1.396 . S
C464 C469 1.390 . S
C465 C459 1.465 . S
C465 C464 1.396 . S
C465 C466 1.399 . S
C466 H452 0.929 . S
C466 C465 1.399 . S
C466 C467 1.385 . S
C467 H453 0.931 . S
C467 C466 1.385 . S
C467 C468 1.389 . S
C468 C467 1.389 . S
C468 C469 1.387 . S
C469 H454 0.930 . S
C469 C464 1.390 . S
C469 C468 1.387 . S
H470 C482 0.930 . S
H471 C484 0.930 . S
H472 C485 0.930 . S
H473 C489 0.959 . S
H474 C489 0.959 . S
H475 C489 0.961 . S
H476 C490 0.960 . S
H477 C490 0.961 . S
H478 C490 0.959 . S
H479 C493 0.929 . S
H480 C494 0.931 . S
H481 C496 0.930 . S
C482 H470 0.930 . S
C482 C483 1.399 . S
C482 C487 1.399 . S
C483 C482 1.399 . S
C483 C484 1.376 . S
C484 H471 0.930 . S
C484 C483 1.376 . S
C484 C485 1.388 . S
C485 H472 0.930 . S
C485 C484 1.388 . S
C485 C486 1.390 . S
C486 C485 1.390 . S
C486 C487 1.394 . S
C486 C492 1.465 . S
C487 C482 1.399 . S
C487 C486 1.394 . S
C487 C488 1.516 . S
C488 C487 1.516 . S
C488 C489 1.502 . S
C488 C490 1.561 . S
C488 C491 1.526 . S
C489 H473 0.959 . S
C489 H474 0.959 . S
C489 H475 0.961 . S
C489 C488 1.502 . S
C490 H476 0.960 . S
C490 H477 0.961 . S
C490 H478 0.959 . S
C490 C488 1.561 . S
C491 C488 1.526 . S
C491 C492 1.396 . S
C491 C496 1.390 . S
C492 C486 1.465 . S
C492 C491 1.396 . S
C492 C493 1.399 . S
C493 H479 0.929 . S
C493 C492 1.399 . S
C493 C494 1.385 . S
C494 H480 0.931 . S
C494 C493 1.385 . S
C494 C495 1.389 . S
C495 C494 1.389 . S
C495 C496 1.387 . S
C496 H481 0.930 . S
C496 C491 1.390 . S
C496 C495 1.387 . S
H497 C509 0.930 . S
H498 C511 0.930 . S
H499 C512 0.930 . S
H500 C516 0.959 . S
H501 C516 0.959 . S
H502 C516 0.961 . S
H503 C517 0.960 . S
H504 C517 0.961 . S
H505 C517 0.959 . S
H506 C520 0.929 . S
H507 C521 0.931 . S
H508 C523 0.930 . S
C509 H497 0.930 . S
C509 C510 1.399 1_655 S
C509 C514 1.399 . S
C510 C509 1.399 1_455 S
C510 C511 1.376 . S
C511 H498 0.930 . S
C511 C510 1.376 . S
C511 C512 1.388 . S
C512 H499 0.930 . S
C512 C511 1.388 . S
C512 C513 1.390 . S
C513 C512 1.390 . S
C513 C514 1.394 1_455 S
C513 C519 1.465 . S
C514 C509 1.399 . S
C514 C513 1.394 1_655 S
C514 C515 1.516 . S
C515 C514 1.516 . S
C515 C516 1.502 . S
C515 C517 1.561 . S
C515 C518 1.526 . S
C516 H500 0.959 . S
C516 H501 0.959 . S
C516 H502 0.961 . S
C516 C515 1.502 . S
C517 H503 0.960 . S
C517 H504 0.961 . S
C517 H505 0.959 . S
C517 C515 1.561 . S
C518 C515 1.526 . S
C518 C519 1.396 1_655 S
C518 C523 1.390 . S
C519 C513 1.465 . S
C519 C518 1.396 1_455 S
C519 C520 1.399 . S
C520 H506 0.929 . S
C520 C519 1.399 . S
C520 C521 1.385 . S
C521 H507 0.931 . S
C521 C520 1.385 . S
C521 C522 1.389 . S
C522 C521 1.389 . S
C522 C523 1.387 1_455 S
C523 H508 0.930 . S
C523 C518 1.390 . S
C523 C522 1.387 1_655 S
H524 C536 0.930 . S
H525 C538 0.930 . S
H526 C539 0.930 . S
H527 C543 0.959 . S
H528 C543 0.959 . S
H529 C543 0.961 . S
H530 C544 0.960 . S
H531 C544 0.961 . S
H532 C544 0.959 . S
H533 C547 0.929 . S
H534 C548 0.931 . S
H535 C550 0.930 . S
C536 H524 0.930 . S
C536 C537 1.409 . S
C536 C541 1.399 . S
C537 C536 1.409 . S
C537 C538 1.365 1_565 S
C538 H525 0.930 . S
C538 C537 1.365 1_545 S
C538 C539 1.388 . S
C539 H526 0.930 . S
C539 C538 1.388 . S
C539 C540 1.390 . S
C540 C539 1.390 . S
C540 C541 1.394 1_545 S
C540 C546 1.465 . S
C541 C536 1.399 . S
C541 C540 1.394 1_565 S
C541 C542 1.516 . S
C542 C541 1.516 . S
C542 C543 1.502 . S
C542 C544 1.561 . S
C542 C545 1.526 1_554 S
C543 H527 0.959 . S
C543 H528 0.959 . S
C543 H529 0.961 . S
C543 C542 1.502 . S
C544 H530 0.960 . S
C544 H531 0.961 . S
C544 H532 0.959 . S
C544 C542 1.561 . S
C545 C542 1.526 1_556 S
C545 C546 1.396 1_566 S
C545 C550 1.390 . S
C546 C540 1.465 . S
C546 C545 1.396 1_544 S
C546 C547 1.399 1_554 S
C547 H533 0.929 . S
C547 C546 1.399 1_556 S
C547 C548 1.385 . S
C548 H534 0.931 . S
C548 C547 1.385 . S
C548 C549 1.389 . S
C549 C548 1.389 . S
C549 C550 1.387 1_545 S
C550 H535 0.930 . S
C550 C545 1.390 . S
C550 C549 1.387 1_565 S
H551 C563 0.930 . S
H552 C565 0.930 . S
H553 C566 0.930 . S
H554 C570 0.959 . S
H555 C570 0.959 . S
H556 C570 0.961 1_554 S
H557 C571 0.960 1_554 S
H558 C571 0.961 . S
H559 C571 0.959 . S
H560 C574 0.929 . S
H561 C575 0.931 . S
H562 C577 0.930 . S
C563 H551 0.930 . S
C563 C564 1.399 . S
C563 C568 1.399 . S
C564 C563 1.399 . S
C564 C565 1.376 . S
C565 H552 0.930 . S
C565 C564 1.376 . S
C565 C566 1.388 . S
C566 H553 0.930 . S
C566 C565 1.388 . S
C566 C567 1.390 . S
C567 C566 1.390 . S
C567 C568 1.394 . S
C567 C573 1.465 . S
C568 C563 1.399 . S
C568 C567 1.394 . S
C568 C569 1.516 . S
C569 C568 1.516 . S
C569 C570 1.502 1_554 S
C569 C571 1.561 1_554 S
C569 C572 1.526 1_554 S
C570 H554 0.959 . S
C570 H555 0.959 . S
C570 H556 0.961 1_556 S
C570 C569 1.502 1_556 S
C571 H557 0.960 1_556 S
C571 H558 0.961 . S
C571 H559 0.959 . S
C571 C569 1.561 1_556 S
C572 C569 1.526 1_556 S
C572 C573 1.396 1_556 S
C572 C577 1.390 . S
C573 C567 1.465 . S
C573 C572 1.396 1_554 S
C573 C574 1.399 . S
C574 H560 0.929 . S
C574 C573 1.399 . S
C574 C575 1.385 1_554 S
C575 H561 0.931 . S
C575 C574 1.385 1_556 S
C575 C576 1.389 . S
C576 C575 1.389 . S
C576 C577 1.387 . S
C577 H562 0.930 . S
C577 C572 1.390 . S
C577 C576 1.387 . S
H578 C590 0.930 . S
H579 C592 0.930 . S
H580 C593 0.930 . S
H581 C597 0.959 . S
H582 C597 0.959 . S
H583 C597 0.961 1_554 S
H584 C598 0.960 . S
H585 C598 0.961 . S
H586 C598 0.959 . S
H587 C601 0.929 1_554 S
H588 C602 0.931 . S
H589 C604 0.930 . S
C590 H578 0.930 . S
C590 C591 1.399 . S
C590 C595 1.399 . S
C591 C590 1.399 . S
C591 C592 1.376 . S
C592 H579 0.930 . S
C592 C591 1.376 . S
C592 C593 1.388 . S
C593 H580 0.930 . S
C593 C592 1.388 . S
C593 C594 1.390 . S
C594 C593 1.390 . S
C594 C595 1.394 . S
C594 C600 1.465 . S
C595 C590 1.399 . S
C595 C594 1.394 . S
C595 C596 1.516 . S
C596 C595 1.516 . S
C596 C597 1.502 1_554 S
C596 C598 1.561 . S
C596 C599 1.526 1_554 S
C597 H581 0.959 . S
C597 H582 0.959 . S
C597 H583 0.961 1_556 S
C597 C596 1.502 1_556 S
C598 H584 0.960 . S
C598 H585 0.961 . S
C598 H586 0.959 . S
C598 C596 1.561 . S
C599 C596 1.526 1_556 S
C599 C600 1.396 1_556 S
C599 C604 1.390 . S
C600 C594 1.465 . S
C600 C599 1.396 1_554 S
C600 C601 1.399 1_554 S
C601 H587 0.929 1_556 S
C601 C600 1.399 1_556 S
C601 C602 1.385 . S
C602 H588 0.931 . S
C602 C601 1.385 . S
C602 C603 1.389 . S
C603 C602 1.389 . S
C603 C604 1.387 . S
C604 H589 0.930 . S
C604 C599 1.390 . S
C604 C603 1.387 . S
H605 C617 0.930 . S
H606 C619 0.930 . S
H607 C620 0.930 . S
H608 C624 0.959 . S
H609 C624 0.959 1_556 S
H610 C624 0.961 . S
H611 C625 0.959 1_654 S
H612 C625 0.959 1_655 S
H613 C625 0.965 . S
H614 C628 0.929 . S
H615 C629 0.931 . S
H616 C631 0.930 . S
C617 H605 0.930 . S
C617 C618 1.392 1_655 S
C617 C622 1.399 . S
C618 C617 1.392 1_455 S
C618 C619 1.386 . S
C619 H606 0.930 . S
C619 C618 1.386 . S
C619 C620 1.388 . S
C620 H607 0.930 . S
C620 C619 1.388 . S
C620 C621 1.390 . S
C621 C620 1.390 . S
C621 C622 1.394 1_455 S
C621 C627 1.465 . S
C622 C617 1.399 . S
C622 C621 1.394 1_655 S
C622 C623 1.516 . S
C623 C622 1.516 . S
C623 C624 1.502 . S
C623 C625 1.558 1_654 S
C623 C626 1.526 1_554 S
C624 H608 0.959 . S
C624 H609 0.959 1_554 S
C624 H610 0.961 . S
C624 C623 1.502 . S
C625 H611 0.959 1_456 S
C625 H612 0.959 1_455 S
C625 H613 0.965 . S
C625 C623 1.558 1_456 S
C626 C623 1.526 1_556 S
C626 C627 1.396 1_656 S
C626 C631 1.390 . S
C627 C621 1.465 . S
C627 C626 1.396 1_454 S
C627 C628 1.399 . S
C628 H614 0.929 . S
C628 C627 1.399 . S
C628 C629 1.385 1_554 S
C629 H615 0.931 . S
C629 C628 1.385 1_556 S
C629 C630 1.384 1_455 S
C630 C629 1.384 1_655 S
C630 C631 1.391 . S
C631 H616 0.930 . S
C631 C626 1.390 . S
C631 C630 1.391 . S
H632 C644 0.930 . S
H633 C646 0.930 . S
H634 C647 0.930 . S
H635 C651 0.959 . S
H636 C651 0.959 . S
H637 C651 0.961 . S
H638 C652 0.960 . S
H639 C652 0.961 . S
H640 C652 0.959 . S
H641 C655 0.929 . S
H642 C656 0.931 . S
H643 C658 0.930 . S
C644 H632 0.930 . S
C644 C645 1.399 1_655 S
C644 C649 1.399 . S
C645 C644 1.399 1_455 S
C645 C646 1.376 . S
C646 H633 0.930 . S
C646 C645 1.376 . S
C646 C647 1.388 . S
C647 H634 0.930 . S
C647 C646 1.388 . S
C647 C648 1.390 1_455 S
C648 C647 1.390 1_655 S
C648 C649 1.394 . S
C648 C654 1.465 . S
C649 C644 1.399 . S
C649 C648 1.394 . S
C649 C650 1.516 . S
C650 C649 1.516 . S
C650 C651 1.502 . S
C650 C652 1.561 . S
C650 C653 1.526 . S
C651 H635 0.959 . S
C651 H636 0.959 . S
C651 H637 0.961 . S
C651 C650 1.502 . S
C652 H638 0.960 . S
C652 H639 0.961 . S
C652 H640 0.959 . S
C652 C650 1.561 . S
C653 C650 1.526 . S
C653 C654 1.396 . S
C653 C658 1.390 . S
C654 C648 1.465 . S
C654 C653 1.396 . S
C654 C655 1.399 . S
C655 H641 0.929 . S
C655 C654 1.399 . S
C655 C656 1.385 . S
C656 H642 0.931 . S
C656 C655 1.385 . S
C656 C657 1.389 . S
C657 C656 1.389 . S
C657 C658 1.387 . S
C658 H643 0.930 . S
C658 C653 1.390 . S
C658 C657 1.387 . S
H659 C671 0.930 . S
H660 C673 0.930 . S
H661 C674 0.930 . S
H662 C678 0.959 . S
H663 C678 0.959 . S
H664 C678 0.961 1_545 S
H665 C679 0.960 . S
H666 C679 0.961 . S
H667 C679 0.959 . S
H668 C682 0.929 . S
H669 C683 0.931 . S
H670 C685 0.930 . S
C671 H659 0.930 . S
C671 C672 1.399 . S
C671 C676 1.399 1_545 S
C672 C671 1.399 . S
C672 C673 1.376 1_545 S
C673 H660 0.930 . S
C673 C672 1.376 1_565 S
C673 C674 1.388 . S
C674 H661 0.930 . S
C674 C673 1.388 . S
C674 C675 1.390 . S
C675 C674 1.390 . S
C675 C676 1.394 . S
C675 C681 1.465 . S
C676 C671 1.399 1_565 S
C676 C675 1.394 . S
C676 C677 1.516 . S
C677 C676 1.516 . S
C677 C678 1.501 . S
C677 C679 1.563 1_565 S
C677 C680 1.524 . S
C678 H662 0.959 . S
C678 H663 0.959 . S
C678 H664 0.961 1_565 S
C678 C677 1.501 . S
C679 H665 0.960 . S
C679 H666 0.961 . S
C679 H667 0.959 . S
C679 C677 1.563 1_545 S
C680 C677 1.524 . S
C680 C681 1.396 . S
C680 C685 1.390 . S
C681 C675 1.465 . S
C681 C680 1.396 . S
C681 C682 1.399 . S
C682 H668 0.929 . S
C682 C681 1.399 . S
C682 C683 1.385 . S
C683 H669 0.931 . S
C683 C682 1.385 . S
C683 C684 1.389 . S
C684 C683 1.389 . S
C684 C685 1.387 . S
C685 H670 0.930 . S
C685 C680 1.390 . S
C685 C684 1.387 . S
H686 C698 0.930 . S
H687 C700 0.930 . S
H688 C701 0.930 . S
H689 C705 0.959 . S
H690 C705 0.959 . S
H691 C705 0.961 . S
H692 C706 0.960 . S
H693 C706 0.961 . S
H694 C706 0.959 . S
H695 C709 0.929 . S
H696 C710 0.931 . S
H697 C712 0.930 . S
C698 H686 0.930 . S
C698 C699 1.399 . S
C698 C703 1.399 . S
C699 C698 1.399 . S
C699 C700 1.376 . S
C700 H687 0.930 . S
C700 C699 1.376 . S
C700 C701 1.388 . S
C701 H688 0.930 . S
C701 C700 1.388 . S
C701 C702 1.390 . S
C702 C701 1.390 . S
C702 C703 1.394 . S
C702 C708 1.465 . S
C703 C698 1.399 . S
C703 C702 1.394 . S
C703 C704 1.516 . S
C704 C703 1.516 . S
C704 C705 1.502 . S
C704 C706 1.561 . S
C704 C707 1.526 . S
C705 H689 0.959 . S
C705 H690 0.959 . S
C705 H691 0.961 . S
C705 C704 1.502 . S
C706 H692 0.960 . S
C706 H693 0.961 . S
C706 H694 0.959 . S
C706 C704 1.561 . S
C707 C704 1.526 . S
C707 C708 1.396 . S
C707 C712 1.390 . S
C708 C702 1.465 . S
C708 C707 1.396 . S
C708 C709 1.399 . S
C709 H695 0.929 . S
C709 C708 1.399 . S
C709 C710 1.385 . S
C710 H696 0.931 . S
C710 C709 1.385 . S
C710 C711 1.389 . S
C711 C710 1.389 . S
C711 C712 1.387 . S
C712 H697 0.930 . S
C712 C707 1.390 . S
C712 C711 1.387 . S
H713 C725 0.930 . S
H714 C727 0.930 . S
H715 C728 0.930 . S
H716 C732 0.959 . S
H717 C732 0.959 . S
H718 C732 0.961 . S
H719 C733 0.960 . S
H720 C733 0.961 . S
H721 C733 0.959 . S
H722 C736 0.929 . S
H723 C737 0.931 . S
H724 C739 0.930 . S
C725 H713 0.930 . S
C725 C726 1.399 . S
C725 C730 1.399 . S
C726 C725 1.399 . S
C726 C727 1.376 . S
C727 H714 0.930 . S
C727 C726 1.376 . S
C727 C728 1.388 . S
C728 H715 0.930 . S
C728 C727 1.388 . S
C728 C729 1.390 . S
C729 C728 1.390 . S
C729 C730 1.394 . S
C729 C735 1.465 . S
C730 C725 1.399 . S
C730 C729 1.394 . S
C730 C731 1.516 . S
C731 C730 1.516 . S
C731 C732 1.502 . S
C731 C733 1.561 . S
C731 C734 1.526 . S
C732 H716 0.959 . S
C732 H717 0.959 . S
C732 H718 0.961 . S
C732 C731 1.502 . S
C733 H719 0.960 . S
C733 H720 0.961 . S
C733 H721 0.959 . S
C733 C731 1.561 . S
C734 C731 1.526 . S
C734 C735 1.396 . S
C734 C739 1.390 . S
C735 C729 1.465 . S
C735 C734 1.396 . S
C735 C736 1.399 . S
C736 H722 0.929 . S
C736 C735 1.399 . S
C736 C737 1.385 . S
C737 H723 0.931 . S
C737 C736 1.385 . S
C737 C738 1.389 . S
C738 C737 1.389 . S
C738 C739 1.387 . S
C739 H724 0.930 . S
C739 C734 1.390 . S
C739 C738 1.387 . S
H740 C752 0.930 . S
H741 C754 0.930 . S
H742 C755 0.930 . S
H743 C759 0.959 . S
H744 C759 0.959 . S
H745 C759 0.961 . S
H746 C760 0.960 . S
H747 C760 0.961 . S
H748 C760 0.959 . S
H749 C763 0.929 . S
H750 C764 0.931 . S
H751 C766 0.930 . S
C752 H740 0.930 . S
C752 C753 1.399 . S
C752 C757 1.399 1_655 S
C753 C752 1.399 . S
C753 C754 1.376 1_655 S
C754 H741 0.930 . S
C754 C753 1.376 1_455 S
C754 C755 1.388 . S
C755 H742 0.930 . S
C755 C754 1.388 . S
C755 C756 1.390 . S
C756 C755 1.390 . S
C756 C757 1.394 . S
C756 C762 1.465 . S
C757 C752 1.399 1_455 S
C757 C756 1.394 . S
C757 C758 1.516 . S
C758 C757 1.516 . S
C758 C759 1.502 1_455 S
C758 C760 1.561 . S
C758 C761 1.526 . S
C759 H743 0.959 . S
C759 H744 0.959 . S
C759 H745 0.961 . S
C759 C758 1.502 1_655 S
C760 H746 0.960 . S
C760 H747 0.961 . S
C760 H748 0.959 . S
C760 C758 1.561 . S
C761 C758 1.526 . S
C761 C762 1.396 . S
C761 C766 1.390 . S
C762 C756 1.465 . S
C762 C761 1.396 . S
C762 C763 1.399 1_554 S
C763 H749 0.929 . S
C763 C762 1.399 1_556 S
C763 C764 1.385 . S
C764 H750 0.931 . S
C764 C763 1.385 . S
C764 C765 1.389 . S
C765 C764 1.389 . S
C765 C766 1.387 1_556 S
C766 H751 0.930 . S
C766 C761 1.390 . S
C766 C765 1.387 1_554 S
H767 C779 0.930 . S
H768 C781 0.930 . S
H769 C782 0.930 . S
H770 C786 0.959 . S
H771 C786 0.959 . S
H772 C786 0.961 1_554 S
H773 C787 0.960 . S
H774 C787 0.961 . S
H775 C787 0.959 . S
H776 C790 0.929 . S
H777 C791 0.931 . S
H778 C793 0.930 . S
C779 H767 0.930 . S
C779 C780 1.399 . S
C779 C784 1.399 . S
C780 C779 1.399 . S
C780 C781 1.376 1_565 S
C781 H768 0.930 . S
C781 C780 1.376 1_545 S
C781 C782 1.388 . S
C782 H769 0.930 . S
C782 C781 1.388 . S
C782 C783 1.390 . S
C783 C782 1.390 . S
C783 C784 1.394 1_545 S
C783 C789 1.465 . S
C784 C779 1.399 . S
C784 C783 1.394 1_565 S
C784 C785 1.516 . S
C785 C784 1.516 . S
C785 C786 1.502 1_554 S
C785 C787 1.561 . S
C785 C788 1.526 1_565 S
C786 H770 0.959 . S
C786 H771 0.959 . S
C786 H772 0.961 1_556 S
C786 C785 1.502 1_556 S
C787 H773 0.960 . S
C787 H774 0.961 . S
C787 H775 0.959 . S
C787 C785 1.561 . S
C788 C785 1.526 1_545 S
C788 C789 1.396 . S
C788 C793 1.390 1_554 S
C789 C783 1.465 . S
C789 C788 1.396 . S
C789 C790 1.399 . S
C790 H776 0.929 . S
C790 C789 1.399 . S
C790 C791 1.385 . S
C791 H777 0.931 . S
C791 C790 1.385 . S
C791 C792 1.389 1_554 S
C792 C791 1.389 1_556 S
C792 C793 1.387 . S
C793 H778 0.930 . S
C793 C788 1.390 1_556 S
C793 C792 1.387 . S
H794 C806 0.930 . S
H795 C808 0.930 . S
H796 C809 0.930 1_556 S
H797 C813 0.959 . S
H798 C813 0.959 . S
H799 C813 0.961 . S
H800 C814 0.960 . S
H801 C814 0.961 . S
H802 C814 0.959 . S
H803 C817 0.929 . S
H804 C818 0.931 . S
H805 C820 0.930 . S
C806 H794 0.930 . S
C806 C807 1.399 . S
C806 C811 1.399 . S
C807 C806 1.399 . S
C807 C808 1.376 . S
C808 H795 0.930 . S
C808 C807 1.376 . S
C808 C809 1.388 . S
C809 H796 0.930 1_554 S
C809 C808 1.388 . S
C809 C810 1.390 . S
C810 C809 1.390 . S
C810 C811 1.394 . S
C810 C816 1.465 . S
C811 C806 1.399 . S
C811 C810 1.394 . S
C811 C812 1.516 . S
C812 C811 1.516 . S
C812 C813 1.502 . S
C812 C814 1.561 . S
C812 C815 1.526 . S
C813 H797 0.959 . S
C813 H798 0.959 . S
C813 H799 0.961 . S
C813 C812 1.502 . S
C814 H800 0.960 . S
C814 H801 0.961 . S
C814 H802 0.959 . S
C814 C812 1.561 . S
C815 C812 1.526 . S
C815 C816 1.396 . S
C815 C820 1.390 . S
C816 C810 1.465 . S
C816 C815 1.396 . S
C816 C817 1.399 1_554 S
C817 H803 0.929 . S
C817 C816 1.399 1_556 S
C817 C818 1.385 . S
C818 H804 0.931 . S
C818 C817 1.385 . S
C818 C819 1.389 . S
C819 C818 1.389 . S
C819 C820 1.387 1_556 S
C820 H805 0.930 . S
C820 C815 1.390 . S
C820 C819 1.387 1_554 S
H821 C833 0.930 . S
H822 C835 0.930 . S
H823 C836 0.930 1_556 S
H824 C840 0.959 . S
H825 C840 0.959 . S
H826 C840 0.961 . S
H827 C841 0.960 . S
H828 C841 0.961 . S
H829 C841 0.959 . S
H830 C844 0.929 . S
H831 C845 0.931 . S
H832 C847 0.930 . S
C833 H821 0.930 . S
C833 C834 1.399 . S
C833 C838 1.399 . S
C834 C833 1.399 . S
C834 C835 1.376 . S
C835 H822 0.930 . S
C835 C834 1.376 . S
C835 C836 1.388 . S
C836 H823 0.930 1_554 S
C836 C835 1.388 . S
C836 C837 1.390 . S
C837 C836 1.390 . S
C837 C838 1.394 . S
C837 C843 1.465 . S
C838 C833 1.399 . S
C838 C837 1.394 . S
C838 C839 1.516 . S
C839 C838 1.516 . S
C839 C840 1.502 . S
C839 C841 1.561 . S
C839 C842 1.526 . S
C840 H824 0.959 . S
C840 H825 0.959 . S
C840 H826 0.961 . S
C840 C839 1.502 . S
C841 H827 0.960 . S
C841 H828 0.961 . S
C841 H829 0.959 . S
C841 C839 1.561 . S
C842 C839 1.526 . S
C842 C843 1.396 . S
C842 C847 1.390 . S
C843 C837 1.465 . S
C843 C842 1.396 . S
C843 C844 1.399 1_554 S
C844 H830 0.929 . S
C844 C843 1.399 1_556 S
C844 C845 1.385 . S
C845 H831 0.931 . S
C845 C844 1.385 . S
C845 C846 1.389 . S
C846 C845 1.389 . S
C846 C847 1.387 1_556 S
C847 H832 0.930 . S
C847 C842 1.390 . S
C847 C846 1.387 1_554 S
H848 C860 0.942 . S
H849 C862 0.930 . S
H850 C863 0.930 . S
H851 C867 0.959 . S
H852 C867 0.959 . S
H853 C867 0.961 . S
H854 C868 0.960 . S
H855 C868 0.961 . S
H856 C868 0.959 . S
H857 C871 0.929 . S
H858 C872 0.931 . S
H859 C874 0.930 1_655 S
C860 H848 0.942 . S
C860 C861 1.392 1_655 S
C860 C865 1.395 1_655 S
C861 C860 1.392 1_455 S
C861 C862 1.376 . S
C862 H849 0.930 . S
C862 C861 1.376 . S
C862 C863 1.388 . S
C863 H850 0.930 . S
C863 C862 1.388 . S
C863 C864 1.390 . S
C864 C863 1.390 . S
C864 C865 1.394 . S
C864 C870 1.465 . S
C865 C860 1.395 1_455 S
C865 C864 1.394 . S
C865 C866 1.510 1_455 S
C866 C865 1.510 1_655 S
C866 C867 1.539 . S
C866 C868 1.537 1_655 S
C866 C869 1.516 1_655 S
C867 H851 0.959 . S
C867 H852 0.959 . S
C867 H853 0.961 . S
C867 C866 1.539 . S
C868 H854 0.960 . S
C868 H855 0.961 . S
C868 H856 0.959 . S
C868 C866 1.537 1_455 S
C869 C866 1.516 1_455 S
C869 C870 1.396 . S
C869 C874 1.390 . S
C870 C864 1.465 . S
C870 C869 1.396 . S
C870 C871 1.399 . S
C871 H857 0.929 . S
C871 C870 1.399 . S
C871 C872 1.385 . S
C872 H858 0.931 . S
C872 C871 1.385 . S
C872 C873 1.389 . S
C873 C872 1.389 . S
C873 C874 1.387 . S
C874 H859 0.930 1_455 S
C874 C869 1.390 . S
C874 C873 1.387 . S
H875 C887 0.930 . S
H876 C889 0.930 . S
H877 C890 0.930 . S
H878 C894 0.959 . S
H879 C894 0.959 . S
H880 C894 0.961 . S
H881 C895 0.960 . S
H882 C895 0.961 . S
H883 C895 0.959 1_565 S
H884 C898 0.929 . S
H885 C899 0.931 . S
H886 C901 0.930 . S
C887 H875 0.930 . S
C887 C888 1.399 . S
C887 C892 1.399 . S
C888 C887 1.399 . S
C888 C889 1.376 1_545 S
C889 H876 0.930 . S
C889 C888 1.376 1_565 S
C889 C890 1.388 . S
C890 H877 0.930 . S
C890 C889 1.388 . S
C890 C891 1.402 . S
C891 C890 1.402 . S
C891 C892 1.380 1_565 S
C891 C897 1.463 1_565 S
C892 C887 1.399 . S
C892 C891 1.380 1_545 S
C892 C893 1.516 . S
C893 C892 1.516 . S
C893 C894 1.502 . S
C893 C895 1.561 . S
C893 C896 1.526 . S
C894 H878 0.959 . S
C894 H879 0.959 . S
C894 H880 0.961 . S
C894 C893 1.502 . S
C895 H881 0.960 . S
C895 H882 0.961 . S
C895 H883 0.959 1_545 S
C895 C893 1.561 . S
C896 C893 1.526 . S
C896 C897 1.396 . S
C896 C901 1.390 . S
C897 C891 1.463 1_545 S
C897 C896 1.396 . S
C897 C898 1.399 1_545 S
C898 H884 0.929 . S
C898 C897 1.399 1_565 S
C898 C899 1.385 . S
C899 H885 0.931 . S
C899 C898 1.385 . S
C899 C900 1.389 1_565 S
C900 C899 1.389 1_545 S
C900 C901 1.387 . S
C901 H886 0.930 . S
C901 C896 1.390 . S
C901 C900 1.387 . S
H902 C914 0.930 . S
H903 C916 0.930 . S
H904 C917 0.930 . S
H905 C921 0.959 . S
H906 C921 0.959 . S
H907 C921 0.961 . S
H908 C922 0.960 . S
H909 C922 0.961 . S
H910 C922 0.959 . S
H911 C925 0.929 . S
H912 C926 0.931 . S
H913 C928 0.930 . S
C914 H902 0.930 . S
C914 C915 1.399 . S
C914 C919 1.399 . S
C915 C914 1.399 . S
C915 C916 1.376 . S
C916 H903 0.930 . S
C916 C915 1.376 . S
C916 C917 1.388 . S
C917 H904 0.930 . S
C917 C916 1.388 . S
C917 C918 1.390 . S
C918 C917 1.390 . S
C918 C919 1.394 . S
C918 C924 1.465 . S
C919 C914 1.399 . S
C919 C918 1.394 . S
C919 C920 1.516 . S
C920 C919 1.516 . S
C920 C921 1.502 . S
C920 C922 1.561 . S
C920 C923 1.526 . S
C921 H905 0.959 . S
C921 H906 0.959 . S
C921 H907 0.961 . S
C921 C920 1.502 . S
C922 H908 0.960 . S
C922 H909 0.961 . S
C922 H910 0.959 . S
C922 C920 1.561 . S
C923 C920 1.526 . S
C923 C924 1.396 . S
C923 C928 1.390 . S
C924 C918 1.465 . S
C924 C923 1.396 . S
C924 C925 1.399 . S
C925 H911 0.929 . S
C925 C924 1.399 . S
C925 C926 1.385 . S
C926 H912 0.931 . S
C926 C925 1.385 . S
C926 C927 1.389 . S
C927 C926 1.389 . S
C927 C928 1.387 . S
C928 H913 0.930 . S
C928 C923 1.390 . S
C928 C927 1.387 . S
H929 C941 0.930 . S
H930 C943 0.930 . S
H931 C944 0.930 . S
H932 C948 0.959 . S
H933 C948 0.959 . S
H934 C948 0.961 . S
H935 C949 0.960 . S
H936 C949 0.961 . S
H937 C949 0.959 . S
H938 C952 0.929 . S
H939 C953 0.931 . S
H940 C955 0.930 . S
C941 H929 0.930 . S
C941 C942 1.399 . S
C941 C946 1.399 . S
C942 C941 1.399 . S
C942 C943 1.376 . S
C943 H930 0.930 . S
C943 C942 1.376 . S
C943 C944 1.388 . S
C944 H931 0.930 . S
C944 C943 1.388 . S
C944 C945 1.390 . S
C945 C944 1.390 . S
C945 C946 1.394 . S
C945 C951 1.465 . S
C946 C941 1.399 . S
C946 C945 1.394 . S
C946 C947 1.516 . S
C947 C946 1.516 . S
C947 C948 1.502 . S
C947 C949 1.561 . S
C947 C950 1.526 . S
C948 H932 0.959 . S
C948 H933 0.959 . S
C948 H934 0.961 . S
C948 C947 1.502 . S
C949 H935 0.960 . S
C949 H936 0.961 . S
C949 H937 0.959 . S
C949 C947 1.561 . S
C950 C947 1.526 . S
C950 C951 1.396 . S
C950 C955 1.390 . S
C951 C945 1.465 . S
C951 C950 1.396 . S
C951 C952 1.399 . S
C952 H938 0.929 . S
C952 C951 1.399 . S
C952 C953 1.385 . S
C953 H939 0.931 . S
C953 C952 1.385 . S
C953 C954 1.389 . S
C954 C953 1.389 . S
C954 C955 1.387 . S
C955 H940 0.930 . S
C955 C950 1.390 . S
C955 C954 1.387 . S
H956 C968 0.930 . S
H957 C970 0.930 . S
H958 C971 0.930 . S
H959 C975 0.959 . S
H960 C975 0.959 . S
H961 C975 0.961 . S
H962 C976 0.965 . S
H963 C976 0.965 . S
H964 C976 0.946 1_655 S
H965 C979 0.929 . S
H966 C980 0.931 . S
H967 C982 0.929 . S
C968 H956 0.930 . S
C968 C969 1.399 1_455 S
C968 C973 1.398 . S
C969 C968 1.399 1_655 S
C969 C970 1.376 . S
C970 H957 0.930 . S
C970 C969 1.376 . S
C970 C971 1.388 . S
C971 H958 0.930 . S
C971 C970 1.388 . S
C971 C972 1.390 . S
C972 C971 1.390 . S
C972 C973 1.397 1_655 S
C972 C978 1.465 . S
C973 C968 1.398 . S
C973 C972 1.397 1_455 S
C973 C974 1.515 . S
C974 C973 1.515 . S
C974 C975 1.502 . S
C974 C976 1.566 . S
C974 C977 1.526 1_455 S
C975 H959 0.959 . S
C975 H960 0.959 . S
C975 H961 0.961 . S
C975 C974 1.502 . S
C976 H962 0.965 . S
C976 H963 0.965 . S
C976 H964 0.946 1_455 S
C976 C974 1.566 . S
C977 C974 1.526 1_655 S
C977 C978 1.396 . S
C977 C982 1.390 1_655 S
C978 C972 1.465 . S
C978 C977 1.396 . S
C978 C979 1.399 . S
C979 H965 0.929 . S
C979 C978 1.399 . S
C979 C980 1.385 . S
C980 H966 0.931 . S
C980 C979 1.385 . S
C980 C981 1.389 . S
C981 C980 1.389 . S
C981 C982 1.387 1_655 S
C982 H967 0.929 . S
C982 C977 1.390 1_455 S
C982 C981 1.387 1_455 S
H983 C995 0.930 . S
H984 C997 0.930 . S
H985 C998 0.930 . S
H986 C1002 0.959 . S
H987 C1002 0.959 . S
H988 C1002 0.961 . S
H989 C1003 0.960 . S
H990 C1003 0.961 . S
H991 C1003 0.959 . S
H992 C1006 0.929 . S
H993 C1007 0.931 . S
H994 C1009 0.930 . S
C995 H983 0.930 . S
C995 C996 1.399 . S
C995 C1000 1.399 . S
C996 C995 1.399 . S
C996 C997 1.376 1_565 S
C997 H984 0.930 . S
C997 C996 1.376 1_545 S
C997 C998 1.388 . S
C998 H985 0.930 . S
C998 C997 1.388 . S
C998 C999 1.390 . S
C999 C998 1.390 . S
C999 C1000 1.394 1_545 S
C999 C1005 1.465 . S
C1000 C995 1.399 . S
C1000 C999 1.394 1_565 S
C1000 C1001 1.516 . S
C1001 C1000 1.516 . S
C1001 C1002 1.502 . S
C1001 C1003 1.561 . S
C1001 C1004 1.526 . S
C1002 H986 0.959 . S
C1002 H987 0.959 . S
C1002 H988 0.961 . S
C1002 C1001 1.502 . S
C1003 H989 0.960 . S
C1003 H990 0.961 . S
C1003 H991 0.959 . S
C1003 C1001 1.561 . S
C1004 C1001 1.526 . S
C1004 C1005 1.396 1_565 S
C1004 C1009 1.390 . S
C1005 C999 1.465 . S
C1005 C1004 1.396 1_545 S
C1005 C1006 1.399 . S
C1006 H992 0.929 . S
C1006 C1005 1.399 . S
C1006 C1007 1.385 . S
C1007 H993 0.931 . S
C1007 C1006 1.385 . S
C1007 C1008 1.389 1_545 S
C1008 C1007 1.389 1_565 S
C1008 C1009 1.387 . S
C1009 H994 0.930 . S
C1009 C1004 1.390 . S
C1009 C1008 1.387 . S
H1010 C1022 0.930 . S
H1011 C1024 0.930 . S
H1012 C1025 0.930 . S
H1013 C1029 0.959 . S
H1014 C1029 0.959 . S
H1015 C1029 0.961 . S
H1016 C1030 0.960 . S
H1017 C1030 0.961 . S
H1018 C1030 0.959 . S
H1019 C1033 0.929 . S
H1020 C1034 0.931 . S
H1021 C1036 0.930 . S
C1022 H1010 0.930 . S
C1022 C1023 1.399 . S
C1022 C1027 1.399 . S
C1023 C1022 1.399 . S
C1023 C1024 1.376 . S
C1024 H1011 0.930 . S
C1024 C1023 1.376 . S
C1024 C1025 1.388 . S
C1025 H1012 0.930 . S
C1025 C1024 1.388 . S
C1025 C1026 1.390 . S
C1026 C1025 1.390 . S
C1026 C1027 1.394 . S
C1026 C1032 1.465 . S
C1027 C1022 1.399 . S
C1027 C1026 1.394 . S
C1027 C1028 1.516 . S
C1028 C1027 1.516 . S
C1028 C1029 1.502 . S
C1028 C1030 1.561 . S
C1028 C1031 1.526 . S
C1029 H1013 0.959 . S
C1029 H1014 0.959 . S
C1029 H1015 0.961 . S
C1029 C1028 1.502 . S
C1030 H1016 0.960 . S
C1030 H1017 0.961 . S
C1030 H1018 0.959 . S
C1030 C1028 1.561 . S
C1031 C1028 1.526 . S
C1031 C1032 1.396 . S
C1031 C1036 1.390 . S
C1032 C1026 1.465 . S
C1032 C1031 1.396 . S
C1032 C1033 1.399 . S
C1033 H1019 0.929 . S
C1033 C1032 1.399 . S
C1033 C1034 1.385 . S
C1034 H1020 0.931 . S
C1034 C1033 1.385 . S
C1034 C1035 1.389 . S
C1035 C1034 1.389 . S
C1035 C1036 1.387 . S
C1036 H1021 0.930 . S
C1036 C1031 1.390 . S
C1036 C1035 1.387 . S
H1037 C1049 0.930 . S
H1038 C1051 0.930 . S
H1039 C1052 0.930 . S
H1040 C1056 0.959 . S
H1041 C1056 0.959 . S
H1042 C1056 0.961 . S
H1043 C1057 0.960 . S
H1044 C1057 0.961 . S
H1045 C1057 0.959 . S
H1046 C1060 0.929 . S
H1047 C1061 0.931 . S
H1048 C1063 0.930 . S
C1049 H1037 0.930 . S
C1049 C1050 1.399 . S
C1049 C1054 1.399 . S
C1050 C1049 1.399 . S
C1050 C1051 1.376 . S
C1051 H1038 0.930 . S
C1051 C1050 1.376 . S
C1051 C1052 1.388 . S
C1052 H1039 0.930 . S
C1052 C1051 1.388 . S
C1052 C1053 1.390 . S
C1053 C1052 1.390 . S
C1053 C1054 1.394 . S
C1053 C1059 1.465 . S
C1054 C1049 1.399 . S
C1054 C1053 1.394 . S
C1054 C1055 1.516 . S
C1055 C1054 1.516 . S
C1055 C1056 1.502 . S
C1055 C1057 1.561 . S
C1055 C1058 1.526 . S
C1056 H1040 0.959 . S
C1056 H1041 0.959 . S
C1056 H1042 0.961 . S
C1056 C1055 1.502 . S
C1057 H1043 0.960 . S
C1057 H1044 0.961 . S
C1057 H1045 0.959 . S
C1057 C1055 1.561 . S
C1058 C1055 1.526 . S
C1058 C1059 1.396 . S
C1058 C1063 1.390 . S
C1059 C1053 1.465 . S
C1059 C1058 1.396 . S
C1059 C1060 1.399 . S
C1060 H1046 0.929 . S
C1060 C1059 1.399 . S
C1060 C1061 1.385 . S
C1061 H1047 0.931 . S
C1061 C1060 1.385 . S
C1061 C1062 1.389 . S
C1062 C1061 1.389 . S
C1062 C1063 1.387 . S
C1063 H1048 0.930 . S
C1063 C1058 1.390 . S
C1063 C1062 1.387 . S
C429 C215 2.060 . S
C441 C266 2.162 1_545 S
C468 C306 2.168 . S
C456 C247 2.024 . S
C495 C346 2.164 . S
C483 C151 2.055 . S
C522 C386 2.184 1_455 S
C510 C183 1.984 . S
C549 C275 2.169 . S
C537 C87 1.973 1_565 S
C564 C119 2.037 . S
C576 C315 2.169 . S
C591 C23 2.054 . S
C603 C355 2.183 . S
C618 C55 2.018 . S
C630 C395 2.163 1_655 S
C657 C272 0.451 . S
C645 C189 0.389 . S
C684 C312 0.564 . S
C672 C221 0.483 . S
C711 C352 0.422 . S
C699 C253 0.438 . S
C726 C157 0.469 . S
C738 C392 0.615 . S
C753 C61 0.463 1_655 S
C765 C263 0.595 . S
C792 C303 0.611 . S
C780 C93 0.430 1_565 S
C819 C343 0.559 . S
C807 C125 0.521 . S
C834 C29 0.600 . S
C846 C383 0.497 . S
C861 C177 2.438 . S
C873 C267 2.810 . S
C888 C209 2.511 . S
C900 C307 2.788 . S
C927 C347 2.810 . S
C915 C241 2.438 . S
C954 C387 2.811 . S
C942 C145 2.439 . S
C969 C49 2.527 1_655 S
C981 C258 2.807 . S
C1008 C298 2.790 . S
C996 C81 2.479 1_565 S
C1035 C338 2.807 . S
C1023 C113 2.528 . S
C1050 C17 2.538 . S
C1062 C378 2.799 . S
