# Generated by pormake.
# Topology zzz, (3,6)-cn, num edge types: 1
# Building blocks:
#     Node 0, Type 0, BuildingBlock: VETTIZ_charged_linker_0, # of connection points: 3
#     Node 1, Type 0, BuildingBlock: VETTIZ_charged_linker_0, # of connection points: 3
#     Node 2, Type 0, BuildingBlock: VETTIZ_charged_linker_0, # of connection points: 3
#     Node 3, Type 0, BuildingBlock: VETTIZ_charged_linker_0, # of connection points: 3
#     Node 4, Type 0, BuildingBlock: VETTIZ_charged_linker_0, # of connection points: 3
#     Node 5, Type 0, BuildingBlock: VETTIZ_charged_linker_0, # of connection points: 3
#     Node 6, Type 0, BuildingBlock: VETTIZ_charged_linker_0, # of connection points: 3
#     Node 7, Type 0, BuildingBlock: VETTIZ_charged_linker_0, # of connection points: 3
#     Node 8, Type 1, BuildingBlock: VOLQOD_clean_sbu_1, # of connection points: 6
#     Node 9, Type 1, BuildingBlock: VOLQOD_clean_sbu_1, # of connection points: 6
#     Node 10, Type 1, BuildingBlock: VOLQOD_clean_sbu_1, # of connection points: 6
#     Node 11, Type 1, BuildingBlock: VOLQOD_clean_sbu_1, # of connection points: 6
#     Edge 12, Type (0, 1), BuildingBlock: ZUJKAS_clean_linker_0, # of connection points: 2
#     Edge 13, Type (0, 1), BuildingBlock: ZUJKAS_clean_linker_0, # of connection points: 2
#     Edge 14, Type (0, 1), BuildingBlock: ZUJKAS_clean_linker_0, # of connection points: 2
#     Edge 15, Type (0, 1), BuildingBlock: ZUJKAS_clean_linker_0, # of connection points: 2
#     Edge 16, Type (0, 1), BuildingBlock: ZUJKAS_clean_linker_0, # of connection points: 2
#     Edge 17, Type (0, 1), BuildingBlock: ZUJKAS_clean_linker_0, # of connection points: 2
#     Edge 18, Type (0, 1), BuildingBlock: ZUJKAS_clean_linker_0, # of connection points: 2
#     Edge 19, Type (0, 1), BuildingBlock: ZUJKAS_clean_linker_0, # of connection points: 2
#     Edge 20, Type (0, 1), BuildingBlock: ZUJKAS_clean_linker_0, # of connection points: 2
#     Edge 21, Type (0, 1), BuildingBlock: ZUJKAS_clean_linker_0, # of connection points: 2
#     Edge 22, Type (0, 1), BuildingBlock: ZUJKAS_clean_linker_0, # of connection points: 2
#     Edge 23, Type (0, 1), BuildingBlock: ZUJKAS_clean_linker_0, # of connection points: 2
#     Edge 24, Type (0, 1), BuildingBlock: ZUJKAS_clean_linker_0, # of connection points: 2
#     Edge 25, Type (0, 1), BuildingBlock: ZUJKAS_clean_linker_0, # of connection points: 2
#     Edge 26, Type (0, 1), BuildingBlock: ZUJKAS_clean_linker_0, # of connection points: 2
#     Edge 27, Type (0, 1), BuildingBlock: ZUJKAS_clean_linker_0, # of connection points: 2
#     Edge 28, Type (0, 1), BuildingBlock: ZUJKAS_clean_linker_0, # of connection points: 2
#     Edge 29, Type (0, 1), BuildingBlock: ZUJKAS_clean_linker_0, # of connection points: 2
#     Edge 30, Type (0, 1), BuildingBlock: ZUJKAS_clean_linker_0, # of connection points: 2
#     Edge 31, Type (0, 1), BuildingBlock: ZUJKAS_clean_linker_0, # of connection points: 2
#     Edge 32, Type (0, 1), BuildingBlock: ZUJKAS_clean_linker_0, # of connection points: 2
#     Edge 33, Type (0, 1), BuildingBlock: ZUJKAS_clean_linker_0, # of connection points: 2
#     Edge 34, Type (0, 1), BuildingBlock: ZUJKAS_clean_linker_0, # of connection points: 2
#     Edge 35, Type (0, 1), BuildingBlock: ZUJKAS_clean_linker_0, # of connection points: 2
# Relax obj value: 0.368
# Max RMSD: 0.260
# Mean RMSD: 0.211
data_MOF--net-zzz--node1-VOLQOD_clean_sbu_1--node2-VETTIZ_charged_linker_0--edge1-ZUJKAS_clean_linker_0
_symmetry_space_group_name_H-M    P1
_symmetry_Int_Tables_number       1
_symmetry_cell_setting            triclinic
loop_
_symmetry_equiv_pos_as_xyz
'x, y, z'
_cell_length_a     70.874515
_cell_length_b     69.840362
_cell_length_c     28.056359
_cell_angle_alpha  90.155062
_cell_angle_beta   90.302622
_cell_angle_gamma 92.293233
loop_
_atom_site_label
_atom_site_type_symbol
_atom_site_fract_x
_atom_site_fract_y
_atom_site_fract_z
_atom_type_partial_charge
C0 C 0.81964 0.51003 0.25134 0.0
C1 C 0.83845 0.50619 0.26383 0.0
C2 C 0.84792 0.49225 0.2379 0.0
C3 C 0.82092 0.4872 0.18591 0.0
C4 C 0.81116 0.50037 0.21198 0.0
C5 C 0.79153 0.50274 0.19182 0.0
H6 H 0.72699 0.47842 0.01817 0.0
C7 C 0.8088 0.48015 0.14628 0.0
C8 C 0.79141 0.489 0.14936 0.0
H9 H 0.71984 0.51784 0.13501 0.0
H10 H 0.75147 0.51181 0.16361 0.0
H11 H 0.76752 0.49326 0.9924 0.0
H12 H 0.74779 0.44571 0.07835 0.0
H13 H 0.7662 0.43772 0.0425 0.0
H14 H 0.74514 0.44623 0.01469 0.0
H15 H 0.7581 0.47139 0.96647 0.0
H16 H 0.78281 0.47467 0.98142 0.0
C17 C 0.78993 0.5238 0.17599 0.0
C18 C 0.77703 0.49629 0.23004 0.0
C19 C 0.83712 0.4375 0.02159 0.0
C20 C 0.83053 0.43025 0.97751 0.0
C21 C 0.81137 0.43221 0.9653 0.0
C22 C 0.7993 0.4421 0.99539 0.0
C23 C 0.8065 0.45028 0.038 0.0
C24 C 0.825 0.44746 0.05088 0.0
C25 C 0.83053 0.45758 0.0964 0.0
C26 C 0.81243 0.46742 0.10823 0.0
C27 C 0.79843 0.46313 0.07402 0.0
C28 C 0.84699 0.47222 0.08519 0.0
C29 C 0.83525 0.44215 0.13389 0.0
C30 C 0.73206 0.48556 0.05037 0.0
C31 C 0.72079 0.49844 0.07466 0.0
C32 C 0.72825 0.50786 0.1156 0.0
C33 C 0.74658 0.50429 0.13221 0.0
C34 C 0.75764 0.4913 0.10734 0.0
C35 C 0.75024 0.48226 0.06708 0.0
C36 C 0.76395 0.46942 0.04377 0.0
C37 C 0.78073 0.47182 0.07708 0.0
C38 C 0.77712 0.4847 0.11443 0.0
C39 C 0.76832 0.47739 0.99326 0.0
C40 C 0.7554 0.44865 0.04438 0.0
H41 H 0.8475 0.47252 0.18113 0.0
H42 H 0.81195 0.52055 0.27096 0.0
H43 H 0.7815 0.48301 0.24798 0.0
H44 H 0.76293 0.49269 0.21495 0.0
H45 H 0.7757 0.50751 0.25782 0.0
H46 H 0.80308 0.529 0.15788 0.0
H47 H 0.78769 0.53328 0.20714 0.0
H48 H 0.77848 0.52573 0.1499 0.0
H49 H 0.85181 0.43664 0.03187 0.0
H50 H 0.80585 0.42659 0.93178 0.0
H51 H 0.785 0.44351 0.98358 0.0
H52 H 0.8453 0.47845 0.04903 0.0
H53 H 0.86082 0.46529 0.08622 0.0
H54 H 0.8476 0.48473 0.10931 0.0
H55 H 0.82732 0.42836 0.12672 0.0
H56 H 0.83102 0.44615 0.1704 0.0
H57 H 0.85053 0.43918 0.13378 0.0
H58 H 0.86216 0.48861 0.24753 0.0
C59 C 0.8393 0.48277 0.19936 0.0
C60 C 0.08738 0.8022 0.03307 0.0
C61 C 0.09274 0.82108 0.04648 0.0
C62 C 0.0899 0.82694 0.09392 0.0
C63 C 0.07407 0.79642 0.11143 0.0
C64 C 0.07806 0.79017 0.06603 0.0
C65 C 0.07015 0.77018 0.05673 0.0
H66 H 0.01725 0.69275 0.12802 0.0
C67 C 0.06206 0.78145 0.1347 0.0
C68 C 0.05983 0.76597 0.10319 0.0
H69 H 0.0506 0.70049 1.00023 0.0
H70 H 0.06012 0.73221 0.02496 0.0
H71 H 0.04817 0.71428 0.20284 0.0
H72 H 1.0009 0.73745 0.12668 0.0
H73 H 0.00128 0.74541 0.18633 0.0
H74 H 0.99747 0.72023 0.17363 0.0
H75 H 0.02422 0.70591 0.21308 0.0
H76 H 0.03371 0.72732 0.24142 0.0
C77 C 0.08695 0.75691 0.04924 0.0
C78 C 0.05629 0.77095 0.01388 0.0
C79 C 0.03345 0.79679 0.29363 0.0
C80 C 0.01986 0.78774 0.32287 0.0
C81 C 0.01207 0.76962 0.30901 0.0
C82 C 0.01805 0.76068 0.26676 0.0
C83 C 0.0317 0.77011 0.23781 0.0
C84 C 0.039 0.78793 0.25174 0.0
C85 C 0.05234 0.79676 0.21618 0.0
C86 C 0.0522 0.78129 0.17846 0.0
C87 C 0.04023 0.76553 0.19098 0.0
C88 C 0.07202 0.79949 0.24029 0.0
C89 C 0.04377 0.81552 0.19776 0.0
C90 C 0.02655 0.7014 0.1055 0.0
C91 C 0.03345 0.69392 0.06241 0.0
C92 C 0.04546 0.70565 0.03403 0.0
C93 C 0.05094 0.72418 0.04837 0.0
C94 C 0.04434 0.73135 0.09162 0.0
C95 C 0.03232 0.72014 0.11959 0.0
C96 C 0.027 0.73057 0.16465 0.0
C97 C 0.0384 0.74945 0.15953 0.0
C98 C 0.04829 0.74975 0.11617 0.0
C99 C 0.0335 0.71894 0.20805 0.0
C100 C 0.00551 0.73354 0.16323 0.0
H101 H 0.07832 0.82032 0.16143 0.0
H102 H 0.08963 0.79718 0.99706 0.0
H103 H 0.04766 0.78388 0.01619 0.0
H104 H 0.04596 0.75871 0.01257 0.0
H105 H 0.06405 0.77162 0.97958 0.0
H106 H 0.10016 0.76292 0.06606 0.0
H107 H 0.08987 0.75482 0.01077 0.0
H108 H 0.08459 0.74274 0.06629 0.0
H109 H 0.03929 0.81096 0.30232 0.0
H110 H 0.00146 0.7624 0.33089 0.0
H111 H 0.01175 0.74687 0.25801 0.0
H112 H 0.07459 0.78764 0.26569 0.0
H113 H 0.07318 0.81315 0.26063 0.0
H114 H 0.08378 0.79905 0.21463 0.0
H115 H 0.02806 0.81463 0.19896 0.0
H116 H 0.047 0.81851 0.15998 0.0
H117 H 0.04858 0.82805 0.21972 0.0
H118 H 0.09375 0.84143 0.10519 0.0
C119 C 0.08066 0.81471 0.12644 0.0
C120 C 0.80633 0.00609 0.07669 0.0
C121 C 0.81589 0.01456 0.03762 0.0
C122 C 0.80756 0.02964 0.01308 0.0
C123 C 0.78044 0.02747 0.06508 0.0
C124 C 0.78871 0.01298 0.09024 0.0
C125 C 0.77673 0.00654 0.13215 0.0
H126 H 0.69377 0.01344 0.25215 0.0
C127 C 0.76218 0.03138 0.08733 0.0
C128 C 0.75994 0.01941 0.12737 0.0
H129 H 0.73895 0.97611 0.28636 0.0
H130 H 0.75767 0.98972 0.22107 0.0
H131 H 0.71913 0.0504 0.23594 0.0
H132 H 0.69515 0.00749 0.14149 0.0
H133 H 0.69232 0.02949 0.11311 0.0
H134 H 0.68146 0.0252 0.17014 0.0
H135 H 0.69488 0.05036 0.21739 0.0
H136 H 0.71332 0.06276 0.18388 0.0
C137 C 0.78808 0.01073 0.17847 0.0
C138 C 0.77091 0.98516 0.12501 0.0
C139 C 0.71652 0.0745 0.0027 0.0
C140 C 0.69798 0.07961 0.0134 0.0
C141 C 0.69056 0.07508 0.05868 0.0
C142 C 0.7008 0.06445 0.09128 0.0
C143 C 0.71863 0.05807 0.07853 0.0
C144 C 0.72657 0.06378 0.0358 0.0
C145 C 0.74595 0.05607 0.02928 0.0
C146 C 0.74771 0.04384 0.07387 0.0
C147 C 0.73155 0.04492 0.10202 0.0
C148 C 0.76054 0.07324 0.0289 0.0
C149 C 0.74567 0.04375 0.98324 0.0
C150 C 0.70767 0.0081 0.24554 0.0
C151 C 0.71478 0.99349 0.27374 0.0
C152 C 0.73314 0.9873 0.26476 0.0
C153 C 0.74391 0.99517 0.22683 0.0
C154 C 0.73628 0.0095 0.19804 0.0
C155 C 0.71851 0.01582 0.20841 0.0
C156 C 0.7123 0.03104 0.17505 0.0
C157 C 0.72919 0.03295 0.14244 0.0
C158 C 0.74327 0.02026 0.15547 0.0
C159 C 0.7096 0.04962 0.20429 0.0
C160 C 0.69432 0.02312 0.14859 0.0
H161 H 0.78437 0.04749 0.00601 0.0
H162 H 0.81254 0.99463 0.09654 0.0
H163 H 0.76617 0.98245 0.08764 0.0
H164 H 0.75898 0.98042 0.14767 0.0
H165 H 0.78299 0.97593 0.13233 0.0
H166 H 0.79601 0.02476 0.17608 0.0
H167 H 0.79846 0.99951 0.18502 0.0
H168 H 0.77897 0.01188 0.21003 0.0
H169 H 0.72274 0.07807 0.96853 0.0
H170 H 0.67631 0.07867 0.06792 0.0
H171 H 0.694 0.06086 0.12429 0.0
H172 H 0.7549 0.0862 0.04603 0.0
H173 H 0.76461 0.07724 0.99196 0.0
H174 H 0.77343 0.07029 0.0497 0.0
H175 H 0.73272 0.03422 0.98179 0.0
H176 H 0.75762 0.03418 0.98083 0.0
H177 H 0.74574 0.05297 0.95102 0.0
H178 H 0.81459 0.03629 0.98279 0.0
C179 C 0.78996 0.0361 0.02652 0.0
C180 C 0.52983 0.71501 0.30828 0.0
C181 C 0.52249 0.69778 0.32845 0.0
C182 C 0.50762 0.68758 0.30502 0.0
C183 C 0.50752 0.71122 0.24243 0.0
C184 C 0.52189 0.72161 0.26539 0.0
C185 C 0.52706 0.73992 0.23883 0.0
H186 H 0.50905 0.79803 0.04956 0.0
C187 C 0.50242 0.72141 0.19867 0.0
C188 C 0.51354 0.73848 0.19626 0.0
H189 H 0.55098 0.80831 0.15967 0.0
H190 H 0.54188 0.77783 0.19677 0.0
H191 H 0.51963 0.7567 0.03148 0.0
H192 H 0.47521 0.77952 0.11535 0.0
H193 H 0.46553 0.76029 0.08112 0.0
H194 H 0.47627 0.78076 0.05148 0.0
H195 H 0.49773 0.76315 0.00494 0.0
H196 H 0.50103 0.73944 0.02835 0.0
C197 C 0.54791 0.73924 0.2233 0.0
C198 C 0.52293 0.75706 0.27154 0.0
C199 C 0.45724 0.68822 0.08173 0.0
C200 C 0.4515 0.69273 0.03525 0.0
C201 C 0.45587 0.71121 0.01732 0.0
C202 C 0.4667 0.72458 0.04434 0.0
C203 C 0.47345 0.71934 0.08952 0.0
C204 C 0.4683 0.70158 0.10786 0.0
C205 C 0.47733 0.69806 0.15538 0.0
C206 C 0.48937 0.71637 0.16178 0.0
C207 C 0.48699 0.72878 0.12335 0.0
C208 C 0.48956 0.6802 0.15055 0.0
C209 C 0.46142 0.6962 0.19313 0.0
C210 C 0.51608 0.79384 0.08209 0.0
C211 C 0.53043 0.80565 0.10238 0.0
C212 C 0.53975 0.79944 0.14374 0.0
C213 C 0.5344 0.78181 0.16519 0.0
C214 C 0.5198 0.77021 0.14455 0.0
C215 C 0.51115 0.77629 0.10324 0.0
C216 C 0.49695 0.7618 0.08375 0.0
C217 C 0.49774 0.74632 0.1212 0.0
C218 C 0.51109 0.75119 0.1571 0.0
C219 C 0.504 0.75492 0.03448 0.0
C220 C 0.47742 0.77099 0.08244 0.0
H221 H 0.48897 0.68554 0.24658 0.0
H222 H 0.5412 0.72317 0.32572 0.0
H223 H 0.50911 0.75467 0.28962 0.0
H224 H 0.52186 0.77062 0.25189 0.0
H225 H 0.53399 0.75898 0.29955 0.0
H226 H 0.55106 0.7247 0.20993 0.0
H227 H 0.55759 0.74263 0.2537 0.0
H228 H 0.55138 0.74909 0.19369 0.0
H229 H 0.4544 0.67405 0.09627 0.0
H230 H 0.45149 0.71505 0.98168 0.0
H231 H 0.46992 0.73825 0.02833 0.0
H232 H 0.49665 0.68002 0.11527 0.0
H233 H 0.48077 0.66674 0.15367 0.0
H234 H 0.50118 0.67987 0.1768 0.0
H235 H 0.44857 0.70366 0.18173 0.0
H236 H 0.46551 0.70307 0.22749 0.0
H237 H 0.45713 0.68095 0.19952 0.0
H238 H 0.50193 0.67418 0.31939 0.0
C239 C 0.50013 0.69418 0.26246 0.0
C240 C 0.30052 0.51268 0.28985 0.0
C241 C 0.30705 0.51927 0.33487 0.0
C242 C 0.29727 0.53374 0.35814 0.0
C243 C 0.27487 0.53476 0.29297 0.0
C244 C 0.28434 0.5206 0.26963 0.0
C245 C 0.27488 0.51518 0.22276 0.0
H246 H 0.20593 0.53351 0.06031 0.0
C247 C 0.25899 0.54043 0.26266 0.0
C248 C 0.25902 0.52928 0.22082 0.0
H249 H 0.24348 0.48642 0.05707 0.0
H250 H 0.25888 0.49828 0.12999 0.0
H251 H 0.19463 0.52791 0.15707 0.0
H252 H 0.23651 0.56731 0.10099 0.0
H253 H 0.22383 0.57987 0.14397 0.0
H254 H 0.21151 0.5693 0.09328 0.0
H255 H 0.18859 0.55118 0.13684 0.0
H256 H 0.19506 0.54681 0.19799 0.0
C257 C 0.26716 0.49419 0.22641 0.0
C258 C 0.28921 0.51858 0.1821 0.0
C259 C 0.21108 0.58608 0.32641 0.0
C260 C 0.19447 0.59308 0.30627 0.0
C261 C 0.19154 0.59126 0.25671 0.0
C262 C 0.20381 0.58091 0.22862 0.0
C263 C 0.21918 0.57221 0.25024 0.0
C264 C 0.22323 0.57572 0.29772 0.0
C265 C 0.24061 0.56576 0.31388 0.0
C266 C 0.24521 0.55439 0.26935 0.0
C267 C 0.23245 0.55808 0.23259 0.0
C268 C 0.23515 0.55244 0.35612 0.0
C269 C 0.2562 0.58131 0.32584 0.0
C270 C 0.21778 0.52599 0.07461 0.0
C271 C 0.22377 0.50928 0.05263 0.0
C272 C 0.23873 0.49943 0.07339 0.0
C273 C 0.24754 0.50628 0.11572 0.0
C274 C 0.24092 0.52281 0.13804 0.0
C275 C 0.2262 0.53224 0.11725 0.0
C276 C 0.21936 0.54819 0.14757 0.0
C277 C 0.23244 0.54701 0.19017 0.0
C278 C 0.24537 0.53241 0.18438 0.0
C279 C 0.19834 0.54349 0.16049 0.0
C280 C 0.2228 0.56723 0.12017 0.0
H281 H 0.27461 0.55245 0.35721 0.0
H282 H 0.30767 0.5015 0.27122 0.0
H283 H 0.29633 0.533 0.18566 0.0
H284 H 0.2825 0.51812 0.14654 0.0
H285 H 0.30026 0.50774 0.18307 0.0
H286 H 0.26226 0.49088 0.2632 0.0
H287 H 0.27822 0.48398 0.21732 0.0
H288 H 0.25465 0.49126 0.20353 0.0
H289 H 0.21383 0.58733 0.36431 0.0
H290 H 0.17913 0.59697 0.2401 0.0
H291 H 0.2003 0.57926 0.19158 0.0
H292 H 0.22151 0.54453 0.34869 0.0
H293 H 0.23352 0.5608 0.38947 0.0
H294 H 0.24547 0.54133 0.36281 0.0
H295 H 0.25346 0.59523 0.30839 0.0
H296 H 0.27024 0.57745 0.31251 0.0
H297 H 0.25718 0.58404 0.36482 0.0
H298 H 0.30214 0.53931 0.39232 0.0
C299 C 0.28134 0.54152 0.33747 0.0
C300 C 0.05831 0.19678 0.32587 0.0
C301 C 0.05654 0.17689 0.31838 0.0
C302 C 0.06309 0.1691 0.27549 0.0
C303 C 0.07019 0.201 0.24557 0.0
C304 C 0.06526 0.20854 0.28905 0.0
C305 C 0.06741 0.23006 0.28989 0.0
H306 H 0.07182 0.31355 0.16968 0.0
C307 C 0.07381 0.21706 0.21246 0.0
C308 C 0.0723 0.23414 0.23796 0.0
H309 H 0.07427 0.30394 0.32174 0.0
H310 H 0.0748 0.27005 0.30887 0.0
H311 H 0.10423 0.27963 0.14355 0.0
H312 H 0.04295 0.27591 0.14263 0.0
H313 H 0.05226 0.26569 0.09064 0.0
H314 H 0.05592 0.291 0.10142 0.0
H315 H 0.09055 0.29437 0.10517 0.0
H316 H 0.09498 0.27003 0.08936 0.0
C317 C 0.08394 0.2358 0.32434 0.0
C318 C 0.04821 0.23821 0.304 0.0
C319 C 0.0794 0.20124 0.03814 0.0
C320 C 0.07758 0.21168 0.9961 0.0
C321 C 0.07551 0.23166 0.99883 0.0
C322 C 0.07543 0.24104 0.04357 0.0
C323 C 0.07692 0.23018 0.08568 0.0
C324 C 0.07863 0.21056 0.08199 0.0
C325 C 0.07752 0.20059 0.12898 0.0
C326 C 0.0757 0.21743 0.16228 0.0
C327 C 0.07563 0.23491 0.13733 0.0
C328 C 0.09633 0.1905 0.13735 0.0
C329 C 0.05959 0.18691 0.12864 0.0
C330 C 0.07251 0.30399 0.1999 0.0
C331 C 0.07292 0.3113 0.24688 0.0
C332 C 0.07402 0.29859 0.28542 0.0
C333 C 0.07425 0.27889 0.27793 0.0
C334 C 0.07336 0.27164 0.23137 0.0
C335 C 0.07315 0.28399 0.19296 0.0
C336 C 0.07371 0.27312 0.14617 0.0
C337 C 0.07448 0.25243 0.16342 0.0
C338 C 0.07356 0.25188 0.21348 0.0
C339 C 0.09177 0.27962 0.11926 0.0
C340 C 0.05532 0.27663 0.11833 0.0
H341 H 0.07429 0.17428 0.2069 0.0
H342 H 0.05387 0.20304 0.35913 0.0
H343 H 0.03656 0.23128 0.2826 0.0
H344 H 0.04749 0.25374 0.29779 0.0
H345 H 0.04517 0.23555 0.34227 0.0
H346 H 0.09255 0.2234 0.33412 0.0
H347 H 0.07868 0.24189 0.35815 0.0
H348 H 0.0941 0.24629 0.30789 0.0
H349 H 0.0803 0.18578 0.03701 0.0
H350 H 0.07379 0.2399 0.96657 0.0
H351 H 0.07377 0.25625 0.04383 0.0
H352 H 0.10855 0.19974 0.12539 0.0
H353 H 0.09658 0.17682 0.1171 0.0
H354 H 0.0991 0.1876 0.17541 0.0
H355 H 0.04948 0.19049 0.09985 0.0
H356 H 0.05123 0.18795 0.16167 0.0
H357 H 0.0633 0.17177 0.12311 0.0
H358 H 0.06196 0.1538 0.26902 0.0
C359 C 0.07 0.18104 0.23917 0.0
C360 C 0.31031 0.00569 0.06928 0.0
C361 C 0.32659 0.99917 0.04644 0.0
C362 C 0.33538 0.983 0.06434 0.0
C363 C 0.31314 0.98086 0.12917 0.0
C364 C 0.30359 0.99599 0.11035 0.0
C365 C 0.28603 0.99978 0.139 0.0
H366 H 0.23242 0.97615 0.33427 0.0
C367 C 0.30379 0.97464 0.17353 0.0
C368 C 0.28757 0.98531 0.17952 0.0
H369 H 0.21898 0.01684 0.22493 0.0
H370 H 0.2487 0.01097 0.18506 0.0
H371 H 0.2492 0.94339 0.2671 0.0
H372 H 0.27345 0.99087 0.34686 0.0
H373 H 0.29101 0.97388 0.34609 0.0
H374 H 0.26864 0.96807 0.37426 0.0
H375 H 0.2494 0.94504 0.33102 0.0
H376 H 0.26885 0.93539 0.29922 0.0
C377 C 0.26863 0.99527 0.10692 0.0
C378 C 0.28737 0.02064 0.15741 0.0
C379 C 0.33871 0.93088 0.28396 0.0
C380 C 0.33604 0.92582 0.33198 0.0
C381 C 0.31868 0.92966 0.35371 0.0
C382 C 0.30483 0.93953 0.32897 0.0
C383 C 0.30845 0.9459 0.28227 0.0
C384 C 0.32504 0.94124 0.26034 0.0
C385 C 0.32724 0.95028 0.2121 0.0
C386 C 0.30945 0.96167 0.20922 0.0
C387 C 0.29844 0.95889 0.25005 0.0
C388 C 0.32729 0.93403 0.17423 0.0
C389 C 0.34542 0.96345 0.21335 0.0
C390 C 0.23569 0.98359 0.3013 0.0
C391 C 0.22317 0.99661 0.28211 0.0
C392 C 0.22834 0.00658 0.24015 0.0
C393 C 0.2455 0.00304 0.21692 0.0
C394 C 0.25763 0.9895 0.23611 0.0
C395 C 0.25265 0.98031 0.27811 0.0
C396 C 0.26737 0.96714 0.29539 0.0
C397 C 0.28154 0.96884 0.25538 0.0
C398 C 0.27601 0.98205 0.22055 0.0
C399 C 0.25833 0.94662 0.29874 0.0
C400 C 0.27553 0.97522 0.34322 0.0
H401 H 0.33638 0.96183 0.11736 0.0
H402 H 0.3031 0.0179 0.05553 0.0
H403 H 0.30159 0.024 0.17293 0.0
H404 H 0.27714 0.0233 0.18593 0.0
H405 H 0.28503 0.03089 0.12795 0.0
H406 H 0.2706 0.98205 0.08562 0.0
H407 H 0.26633 0.00718 0.08163 0.0
H408 H 0.2556 0.99244 0.12743 0.0
H409 H 0.35169 0.92783 0.26577 0.0
H410 H 0.31618 0.92604 0.39069 0.0
H411 H 0.29213 0.94243 0.34785 0.0
H412 H 0.32033 0.92054 0.18758 0.0
H413 H 0.34191 0.93068 0.16393 0.0
H414 H 0.31915 0.93756 0.1418 0.0
H415 H 0.34662 0.97134 0.24783 0.0
H416 H 0.34576 0.97469 0.18591 0.0
H417 H 0.35824 0.95495 0.20949 0.0
H418 H 0.34784 0.97774 0.04718 0.0
C419 C 0.32875 0.97382 0.10529 0.0
C420 C 0.46947 0.27467 0.06004 0.0
C421 C 0.46859 0.29454 0.05151 0.0
C422 C 0.47128 0.30748 0.08952 0.0
C423 C 0.47731 0.28141 0.14302 0.0
C424 C 0.47357 0.26838 0.10669 0.0
C425 C 0.47455 0.24795 0.12455 0.0
H426 H 0.49233 0.18947 0.31433 0.0
C427 C 0.48257 0.27089 0.18611 0.0
C428 C 0.48075 0.25115 0.17637 0.0
H429 H 0.4728 0.17128 0.17503 0.0
H430 H 0.47397 0.20458 0.14796 0.0
H431 H 0.52356 0.21751 0.27723 0.0
H432 H 0.46719 0.22632 0.32568 0.0
H433 H 0.48231 0.24389 0.35257 0.0
H434 H 0.48612 0.21898 0.36339 0.0
H435 H 0.5184 0.21995 0.33935 0.0
H436 H 0.5245 0.24049 0.30267 0.0
C437 C 0.48952 0.23757 0.09552 0.0
C438 C 0.45457 0.23839 0.12088 0.0
C439 C 0.50872 0.30894 0.32731 0.0
C440 C 0.51674 0.30366 0.3709 0.0
C441 C 0.51758 0.2841 0.3824 0.0
C442 C 0.51038 0.27 0.35078 0.0
C443 C 0.50247 0.27554 0.30703 0.0
C444 C 0.50184 0.29474 0.29599 0.0
C445 C 0.49375 0.29807 0.24737 0.0
C446 C 0.48977 0.27762 0.23059 0.0
C447 C 0.49468 0.26456 0.26576 0.0
C448 C 0.50929 0.30857 0.21734 0.0
C449 C 0.47532 0.30916 0.25335 0.0
C450 C 0.48813 0.1927 0.2781 0.0
C451 C 0.48216 0.178 0.24698 0.0
C452 C 0.47726 0.18256 0.19968 0.0
C453 C 0.47784 0.20183 0.18426 0.0
C454 C 0.48348 0.21652 0.21652 0.0
C455 C 0.48876 0.21162 0.26235 0.0
C456 C 0.49519 0.22853 0.29184 0.0
C457 C 0.49198 0.24466 0.25738 0.0
C458 C 0.48514 0.23778 0.21297 0.0
C459 C 0.51645 0.22659 0.30382 0.0
C460 C 0.48217 0.22955 0.33595 0.0
H461 H 0.47785 0.31181 0.16191 0.0
H462 H 0.46716 0.26445 0.03131 0.0
H463 H 0.44378 0.24837 0.13342 0.0
H464 H 0.45282 0.22554 0.14337 0.0
H465 H 0.4511 0.23441 0.08338 0.0
H466 H 0.50268 0.24672 0.09265 0.0
H467 H 0.4843 0.23433 0.05886 0.0
H468 H 0.49362 0.22409 0.11231 0.0
H469 H 0.50817 0.32388 0.31724 0.0
H470 H 0.52363 0.27976 0.41602 0.0
H471 H 0.51124 0.25536 0.36169 0.0
H472 H 0.52342 0.30291 0.22537 0.0
H473 H 0.51002 0.32417 0.22528 0.0
H474 H 0.50746 0.30655 0.17859 0.0
H475 H 0.46901 0.30689 0.28924 0.0
H476 H 0.46405 0.30415 0.22822 0.0
H477 H 0.47798 0.32482 0.24883 0.0
H478 H 0.47058 0.32278 0.08358 0.0
C479 C 0.4756 0.30107 0.135 0.0
O480 O 0.06417 0.00487 0.63498 0.0
Zn481 Zn 0.04634 0.00342 0.69171 0.0
O482 O 0.02025 0.99614 0.67163 0.0
Zn483 Zn 0.00359 0.01658 0.68928 0.0
Zn484 Zn 0.01976 0.99217 0.60243 0.0
Zn485 Zn 0.01084 0.97255 0.70271 0.0
O486 O 0.9825 0.00738 0.73246 0.0
O487 O 0.98821 0.97684 0.74565 0.0
O488 O 0.0478 0.02956 0.72429 0.0
O489 O 0.01804 0.03826 0.72246 0.0
O490 O 0.99253 0.02826 0.6311 0.0
O491 O 0.00379 0.01169 0.5707 0.0
O492 O 0.01039 0.96538 0.5849 0.0
O493 O 0.05613 0.98331 0.73642 0.0
O494 O 0.00362 0.95175 0.65442 0.0
O495 O 0.03182 0.96225 0.74194 0.0
C496 C 0.06193 0.00121 0.5907 0.0
C497 C 0.97836 0.99147 0.75272 0.0
C498 C 0.99397 0.02518 0.58657 0.0
C499 C 0.03531 0.04168 0.73345 0.0
C500 C 0.00455 0.95093 0.6091 0.0
C501 C 0.04875 0.96764 0.75221 0.0
O502 O 0.04579 0.9959 0.57405 0.0
O503 O 0.50985 0.03264 0.62219 0.0
Zn504 Zn 0.51484 0.01863 0.68446 0.0
O505 O 0.52202 0.99195 0.67165 0.0
Zn506 Zn 0.50388 0.97416 0.70198 0.0
Zn507 Zn 0.52228 0.98723 0.60267 0.0
Zn508 Zn 0.54711 0.98711 0.6976 0.0
O509 O 0.5163 0.9569 0.74898 0.0
O510 O 0.54658 0.96618 0.74812 0.0
O511 O 0.49094 0.01927 0.72517 0.0
O512 O 0.48416 0.98837 0.73742 0.0
O513 O 0.49039 0.95743 0.65341 0.0
O514 O 0.50345 0.96597 0.58452 0.0
O515 O 0.54829 0.98061 0.57957 0.0
O516 O 0.53627 0.03332 0.71914 0.0
O517 O 0.56547 0.98023 0.64583 0.0
O518 O 0.55781 0.01122 0.72706 0.0
C519 C 0.51047 0.02762 0.57845 0.0
C520 C 0.53313 0.95539 0.76413 0.0
C521 C 0.4917 0.95563 0.6084 0.0
C522 C 0.48052 0.00592 0.74352 0.0
C523 C 0.56402 0.97843 0.60073 0.0
C524 C 0.5525 0.02826 0.73308 0.0
O525 O 0.51495 0.01078 0.56659 0.0
O526 O 0.46952 0.49477 0.66663 0.0
Zn527 Zn 0.48715 0.49591 0.72418 0.0
O528 O 0.5135 0.50171 0.7042 0.0
Zn529 Zn 0.52936 0.48146 0.72687 0.0
Zn530 Zn 0.51459 0.50336 0.63445 0.0
Zn531 Zn 0.52354 0.52591 0.73143 0.0
O532 O 0.54916 0.49099 0.77376 0.0
O533 O 0.54537 0.5223 0.77765 0.0
O534 O 0.48439 0.47004 0.75833 0.0
O535 O 0.51385 0.46046 0.75835 0.0
O536 O 0.54213 0.46896 0.67247 0.0
O537 O 0.53053 0.48257 0.6078 0.0
O538 O 0.52519 0.52923 0.61291 0.0
O539 O 0.47814 0.51731 0.7665 0.0
O540 O 0.53222 0.54466 0.68033 0.0
O541 O 0.5027 0.53822 0.76649 0.0
C542 C 0.47209 0.49672 0.6219 0.0
C543 C 0.55392 0.50744 0.79058 0.0
C544 C 0.54089 0.4703 0.62737 0.0
C545 C 0.49648 0.45758 0.76841 0.0
C546 C 0.53164 0.5441 0.63495 0.0
C547 C 0.48582 0.53348 0.77832 0.0
O548 O 0.48857 0.49999 0.60509 0.0
O549 O 0.995 0.52492 0.61118 0.0
Zn550 Zn 0.01946 0.52401 0.65007 0.0
O551 O 0.02641 0.49734 0.66301 0.0
Zn552 Zn 0.02608 0.49272 0.73203 0.0
Zn553 Zn 0.00845 0.47968 0.63101 0.0
Zn554 Zn 0.05158 0.49242 0.63849 0.0
O555 O 0.05187 0.48556 0.75647 0.0
O556 O 0.06968 0.48599 0.69162 0.0
O557 O 0.01585 0.53854 0.71176 0.0
O558 O 0.01949 0.51669 0.76805 0.0
O559 O 0.00642 0.4721 0.74872 0.0
O560 O 0.99456 0.46296 0.67846 0.0
O561 O 0.0208 0.46307 0.58234 0.0
O562 O 0.0405 0.53824 0.61428 0.0
O563 O 0.05123 0.47138 0.58812 0.0
O564 O 0.06219 0.51627 0.60772 0.0
C565 C 0.98473 0.51158 0.59189 0.0
C566 C 0.06783 0.48382 0.73648 0.0
C567 C 0.99498 0.46164 0.72371 0.0
C568 C 0.0161 0.53375 0.75557 0.0
C569 C 0.0378 0.46131 0.56909 0.0
C570 C 0.05667 0.53315 0.60047 0.0
O571 O 0.98872 0.49407 0.59639 0.0
H572 H 0.20729 0.03039 0.30805 0.0
H573 H 0.17954 0.03414 0.3592 0.0
H574 H 0.17031 0.97276 0.36258 0.0
H575 H 0.19795 0.96897 0.31232 0.0
H576 H 0.14121 0.02253 0.35268 0.0
H577 H 0.17573 0.98653 0.5035 0.0
H578 H 0.18851 0.99451 0.45127 0.0
H579 H 0.1749 0.9722 0.45031 0.0
C580 C 0.19913 0.01776 0.31916 0.0
C581 C 0.20493 0.99938 0.30674 0.0
C582 C 0.18335 0.01989 0.34853 0.0
C583 C 0.17314 0.0037 0.3658 0.0
C584 C 0.17826 0.98544 0.35089 0.0
H585 H 0.06318 0.99127 0.49623 0.0
H586 H 0.09013 0.99369 0.44254 0.0
C587 C 0.19402 0.9833 0.32196 0.0
C588 C 0.1575 0.00562 0.40053 0.0
H589 H 0.1426 0.99066 0.51044 0.0
C590 C 0.14156 0.01571 0.38734 0.0
C591 C 0.15809 0.99706 0.4462 0.0
C592 C 0.1753 0.98714 0.46394 0.0
C593 C 0.12591 0.01681 0.41782 0.0
C594 C 0.12606 0.00724 0.46234 0.0
C595 C 0.14232 0.9978 0.47616 0.0
C596 C 0.10943 0.00644 0.49476 0.0
C597 C 0.10944 0.02833 0.40213 0.0
C598 C 0.11133 0.01227 0.5426 0.0
C599 C 0.09595 0.01065 0.57375 0.0
C600 C 0.07831 0.00311 0.55776 0.0
C601 C 0.07647 0.99728 0.50981 0.0
C602 C 0.09187 0.99881 0.47882 0.0
H603 H 0.11386 0.03947 0.37579 0.0
H604 H 0.09867 0.01865 0.38476 0.0
H605 H 0.1028 0.03543 0.4329 0.0
H606 H 0.12475 0.01807 0.55591 0.0
H607 H 0.09792 0.01529 0.61036 0.0
H608 H 0.45692 0.16291 0.30975 0.0
H609 H 0.4605 0.13413 0.35825 0.0
H610 H 0.51008 0.12064 0.27836 0.0
H611 H 0.50646 0.14954 0.2297 0.0
H612 H 0.46455 0.09349 0.33942 0.0
H613 H 0.52864 0.12994 0.41841 0.0
H614 H 0.51182 0.1425 0.38292 0.0
H615 H 0.5284 0.12744 0.35459 0.0
C616 C 0.46815 0.15338 0.30145 0.0
C617 C 0.48129 0.15823 0.26574 0.0
C618 C 0.47026 0.13703 0.32931 0.0
C619 C 0.4857 0.1254 0.32237 0.0
C620 C 0.49815 0.12952 0.28456 0.0
H621 H 0.50841 0.0213 0.48204 0.0
H622 H 0.50206 0.04436 0.41922 0.0
C623 C 0.49597 0.14587 0.25644 0.0
C624 C 0.48969 0.11025 0.35771 0.0
H625 H 0.5201 0.09927 0.44765 0.0
C626 C 0.47677 0.09464 0.36285 0.0
C627 C 0.50544 0.11201 0.38888 0.0
C628 C 0.51934 0.12892 0.38642 0.0
C629 C 0.47924 0.08068 0.39819 0.0
C630 C 0.49512 0.08234 0.429 0.0
C631 C 0.508 0.09798 0.42388 0.0
C632 C 0.49851 0.06818 0.46731 0.0
C633 C 0.4646 0.06454 0.40312 0.0
C634 C 0.49894 0.07395 0.51532 0.0
C635 C 0.50261 0.0608 0.55149 0.0
C636 C 0.50612 0.04161 0.54035 0.0
C637 C 0.50572 0.03592 0.4921 0.0
C638 C 0.50198 0.04907 0.45603 0.0
H639 H 0.45123 0.06769 0.38437 0.0
H640 H 0.47012 0.0513 0.38737 0.0
H641 H 0.46145 0.06168 0.44124 0.0
H642 H 0.49639 0.08867 0.52483 0.0
H643 H 0.50285 0.06572 0.58814 0.0
H644 H 0.31113 0.50844 0.42755 0.0
H645 H 0.34027 0.50099 0.46924 0.0
H646 H 0.37085 0.50533 0.337 0.0
H647 H 0.34165 0.51323 0.29504 0.0
H648 H 0.36688 0.47239 0.45789 0.0
H649 H 0.39827 0.54531 0.42363 0.0
H650 H 0.37356 0.53932 0.41381 0.0
H651 H 0.39082 0.53181 0.37178 0.0
C652 C 0.32404 0.50769 0.40723 0.0
C653 C 0.32414 0.5117 0.35809 0.0
C654 C 0.34067 0.50334 0.43109 0.0
C655 C 0.35782 0.50297 0.40646 0.0
C656 C 0.35783 0.50588 0.35688 0.0
H657 H 0.47221 0.4996 0.52442 0.0
H658 H 0.44507 0.4993 0.47028 0.0
C659 C 0.34112 0.5102 0.33286 0.0
C660 C 0.37566 0.50054 0.43354 0.0
H661 H 0.4165 0.52439 0.46834 0.0
C662 C 0.3778 0.48369 0.45994 0.0
C663 C 0.38988 0.51533 0.43632 0.0
C664 C 0.38806 0.53405 0.41024 0.0
C665 C 0.39373 0.48127 0.48913 0.0
C666 C 0.40772 0.49626 0.4928 0.0
C667 C 0.40578 0.51291 0.46556 0.0
C668 C 0.42421 0.49528 0.52572 0.0
C669 C 0.39546 0.46263 0.51552 0.0
C670 C 0.42156 0.4932 0.57506 0.0
C671 C 0.43707 0.49333 0.60622 0.0
C672 C 0.4556 0.49572 0.58876 0.0
C673 C 0.45818 0.49771 0.53925 0.0
C674 C 0.44267 0.49755 0.50815 0.0
H675 H 0.38691 0.45084 0.49828 0.0
H676 H 0.41039 0.45843 0.51748 0.0
H677 H 0.3902 0.46433 0.5524 0.0
H678 H 0.40745 0.49189 0.58964 0.0
H679 H 0.4345 0.49187 0.64408 0.0
H680 H 0.09929 0.33488 0.28935 0.0
H681 H 0.09315 0.36449 0.33264 0.0
H682 H 0.0362 0.3628 0.27757 0.0
H683 H 0.04237 0.33312 0.23403 0.0
H684 H 0.07646 0.40254 0.30995 0.0
H685 H 0.03304 0.354 0.42665 0.0
H686 H 0.04986 0.34511 0.38476 0.0
H687 H 0.02763 0.35336 0.36393 0.0
C688 C 0.08574 0.34133 0.28482 0.0
C689 C 0.07133 0.33186 0.25816 0.0
C690 C 0.08221 0.35816 0.30974 0.0
C691 C 0.06415 0.36566 0.30882 0.0
C692 C 0.05021 0.35716 0.27889 0.0
H693 H 0.0123 0.44139 0.51242 0.0
H694 H 0.01865 0.41964 0.44676 0.0
C695 C 0.05379 0.34035 0.25365 0.0
C696 C 0.05932 0.38054 0.34409 0.0
H697 H 0.03571 0.38641 0.44858 0.0
C698 C 0.06745 0.39911 0.34011 0.0
C699 C 0.04768 0.37595 0.38358 0.0
C700 C 0.03911 0.35601 0.39048 0.0
C701 C 0.06407 0.4133 0.37444 0.0
C702 C 0.05267 0.4086 0.41444 0.0
C703 C 0.04444 0.39004 0.41801 0.0
C704 C 0.04907 0.42257 0.45326 0.0
C705 C 0.07249 0.43325 0.36709 0.0
C706 C 0.06404 0.43136 0.47935 0.0
C707 C 0.06045 0.44394 0.51695 0.0
C708 C 0.04179 0.44778 0.52971 0.0
C709 C 0.02685 0.43877 0.50379 0.0
C710 C 0.03045 0.42633 0.46607 0.0
H711 H 0.07582 0.43595 0.32898 0.0
H712 H 0.06278 0.44427 0.37957 0.0
H713 H 0.08587 0.4349 0.3877 0.0
H714 H 0.07852 0.4283 0.47112 0.0
H715 H 0.0723 0.45053 0.53625 0.0
H716 H 0.82507 0.97823 0.01222 0.0
H717 H 0.85396 0.96877 0.9715 0.0
H718 H 0.87683 0.02674 0.98332 0.0
H719 H 0.84809 0.0362 0.02354 0.0
H720 H 0.86622 0.98645 0.88325 0.0
H721 H 0.92148 0.99341 0.02353 0.0
H722 H 0.89662 0.99041 0.03704 0.0
H723 H 0.90647 0.0135 0.02002 0.0
C724 C 0.83651 0.98878 0.00721 0.0
C725 C 0.8344 0.00793 0.02105 0.0
C726 C 0.85293 0.98341 0.98377 0.0
C727 C 0.86762 0.99702 0.97472 0.0
C728 C 0.86583 0.01593 0.99054 0.0
H729 H 0.95063 0.01724 0.76272 0.0
H730 H 0.92376 0.01571 0.81691 0.0
C731 C 0.84939 0.02134 0.01335 0.0
C732 C 0.88396 0.99219 0.94459 0.0
H733 H 0.93223 0.99351 0.94254 0.0
C734 C 0.88064 0.98765 0.89641 0.0
C735 C 0.90277 0.99371 0.96178 0.0
C736 C 0.90711 0.99785 0.01354 0.0
C737 C 0.89564 0.98558 0.86449 0.0
C738 C 0.91444 0.98812 0.88116 0.0
C739 C 0.91779 0.99168 0.9298 0.0
C740 C 0.93067 0.98856 0.84791 0.0
C741 C 0.89135 0.98118 0.81282 0.0
C742 C 0.94355 0.9738 0.84757 0.0
C743 C 0.95893 0.97453 0.81623 0.0
C744 C 0.96184 0.9902 0.78523 0.0
C745 C 0.94889 0.00497 0.78604 0.0
C746 C 0.93347 0.00411 0.81692 0.0
H747 H 0.87655 0.9757 0.80756 0.0
H748 H 0.89346 0.99447 0.79157 0.0
H749 H 0.90106 0.97044 0.79884 0.0
H750 H 0.94166 0.96171 0.8714 0.0
H751 H 0.96866 0.96296 0.81672 0.0
H752 H 0.56492 0.818 0.06832 0.0
H753 H 0.57159 0.84599 0.017 0.0
H754 H 0.51383 0.86228 0.03102 0.0
H755 H 0.50713 0.83438 0.08162 0.0
H756 H 0.55078 0.85124 0.92846 0.0
H757 H 0.54555 0.91334 0.05061 0.0
H758 H 0.55045 0.88955 0.07138 0.0
H759 H 0.5267 0.89553 0.05651 0.0
C760 C 0.55384 0.82789 0.06141 0.0
C761 C 0.53554 0.82413 0.07897 0.0
C762 C 0.55762 0.84378 0.03198 0.0
C763 C 0.54325 0.85631 0.02057 0.0
C764 C 0.52521 0.853 0.03996 0.0
H765 H 0.50967 0.92578 0.79319 0.0
H766 H 0.51532 0.90217 0.85513 0.0
C767 C 0.52137 0.83704 0.06872 0.0
C768 C 0.54627 0.87164 0.98454 0.0
H769 H 0.54201 0.91969 0.967 0.0
C770 C 0.54926 0.86626 0.93701 0.0
C771 C 0.54429 0.89122 0.99574 0.0
C772 C 0.54173 0.89784 0.0464 0.0
C773 C 0.54925 0.87981 0.90009 0.0
C774 C 0.54621 0.8992 0.91101 0.0
C775 C 0.54426 0.90478 0.95876 0.0
C776 C 0.54331 0.91348 0.87295 0.0
C777 C 0.55184 0.87327 0.84936 0.0
C778 C 0.55721 0.9277 0.86256 0.0
C779 C 0.5541 0.94121 0.82671 0.0
C780 C 0.53691 0.94085 0.80123 0.0
C781 C 0.52305 0.92655 0.81207 0.0
C782 C 0.52625 0.91299 0.84741 0.0
H783 H 0.55751 0.85868 0.84754 0.0
H784 H 0.538 0.873 0.83065 0.0
H785 H 0.56155 0.88341 0.83012 0.0
H786 H 0.57045 0.92831 0.88207 0.0
H787 H 0.56505 0.95206 0.81943 0.0
H788 H 0.69422 0.47202 0.04296 0.0
H789 H 0.66434 0.47784 0.00287 0.0
H790 H 0.67355 0.53865 0.02467 0.0
H791 H 0.70387 0.53293 0.06394 0.0
H792 H 0.63191 0.49608 0.03206 0.0
H793 H 0.66659 0.53398 0.87957 0.0
H794 H 0.67967 0.52037 0.92216 0.0
H795 H 0.67175 0.54365 0.93784 0.0
C796 C 0.68989 0.48665 0.03932 0.0
C797 C 0.70154 0.50204 0.05607 0.0
C798 C 0.67276 0.48995 0.01661 0.0
C799 C 0.66686 0.50869 0.00997 0.0
C800 C 0.67799 0.52408 0.02862 0.0
H801 H 0.57042 0.54017 0.83019 0.0
H802 H 0.59678 0.54244 0.8873 0.0
C803 C 0.6952 0.52078 0.05151 0.0
C804 C 0.64939 0.51184 0.98201 0.0
H805 H 0.63364 0.52901 0.87558 0.0
C806 C 0.63225 0.50346 0.99808 0.0
C807 C 0.64983 0.52151 0.93769 0.0
C808 C 0.66793 0.5303 0.91791 0.0
C809 C 0.61566 0.50408 0.97057 0.0
C810 C 0.61628 0.51304 0.92541 0.0
C811 C 0.63321 0.52212 0.91019 0.0
C812 C 0.59995 0.51183 0.89195 0.0
C813 C 0.59765 0.49493 0.98989 0.0
C814 C 0.59316 0.4939 0.87515 0.0
C815 C 0.57821 0.49254 0.84252 0.0
C816 C 0.5697 0.50911 0.8257 0.0
C817 C 0.57657 0.52711 0.84249 0.0
C818 C 0.59164 0.52845 0.87511 0.0
H819 H 0.59806 0.49397 0.02941 0.0
H820 H 0.58519 0.50308 0.97914 0.0
H821 H 0.59581 0.48015 0.9755 0.0
H822 H 0.59962 0.48091 0.88683 0.0
H823 H 0.57339 0.47844 0.83035 0.0
H824 H 0.99856 0.67509 0.05962 0.0
H825 H 0.9905 0.6442 0.02071 0.0
H826 H 0.0492 0.63799 0.9863 0.0
H827 H 0.05732 0.66807 0.02654 0.0
H828 H 0.99408 0.63589 0.92939 0.0
H829 H 0.03622 0.58501 0.02946 0.0
H830 H 0.03221 0.60877 0.05167 0.0
H831 H 0.05124 0.60477 0.01081 0.0
C832 C 0.00976 0.66679 0.045 0.0
C833 C 0.02855 0.67407 0.04589 0.0
C834 C 0.00514 0.64923 0.02248 0.0
C835 C 0.01926 0.63858 0.00097 0.0
C836 C 0.03808 0.64557 0.00354 0.0
H837 H 0.01841 0.57273 0.74587 0.0
H838 H 0.01618 0.59691 0.8082 0.0
C839 C 0.04268 0.66296 0.02609 0.0
C840 C 0.01445 0.62123 0.97164 0.0
H841 H 0.02969 0.57658 0.94641 0.0
C842 C 0.00158 0.62276 0.93373 0.0
C843 C 0.02385 0.60387 0.97764 0.0
C844 C 0.03647 0.60046 0.01999 0.0
C845 C 0.99883 0.60798 0.89998 0.0
C846 C 0.00972 0.59144 0.90327 0.0
C847 C 0.0216 0.58938 0.94303 0.0
C848 C 0.00986 0.57666 0.86482 0.0
C849 C 0.98436 0.61037 0.86104 0.0
C850 C 0.00761 0.55707 0.87576 0.0
C851 C 0.00933 0.54314 0.84022 0.0
C852 C 0.01323 0.54848 0.79284 0.0
C853 C 0.01517 0.56809 0.78182 0.0
C854 C 0.01373 0.58199 0.81748 0.0
H855 H 0.97277 0.6194 0.87333 0.0
H856 H 0.99119 0.61773 0.83025 0.0
H857 H 0.97815 0.59634 0.84884 0.0
H858 H 0.00473 0.55254 0.91199 0.0
H859 H 0.00773 0.52817 0.84995 0.0
H860 H 0.067 0.14233 0.35243 0.0
H861 H 0.04796 0.11978 0.40074 0.0
H862 H 0.00387 0.16043 0.40922 0.0
H863 H 0.0228 0.18307 0.36061 0.0
H864 H 0.02977 0.12774 0.49723 0.0
H865 H 0.98071 0.10772 0.34754 0.0
H866 H 0.0042 0.11772 0.33682 0.0
H867 H 0.98638 0.13267 0.35972 0.0
C868 C 0.05333 0.14651 0.365 0.0
C869 C 0.04634 0.16438 0.35281 0.0
C870 C 0.04251 0.13368 0.39251 0.0
C871 C 0.0245 0.13846 0.40785 0.0
C872 C 0.01771 0.15653 0.39727 0.0
H873 H 0.97346 0.05658 0.60699 0.0
H874 H 0.97417 0.08622 0.56098 0.0
C875 C 0.0286 0.16945 0.36998 0.0
C876 C 0.01281 0.12415 0.43393 0.0
H877 H 0.97834 0.08919 0.41734 0.0
C878 C 0.01822 0.11955 0.48037 0.0
C879 C 0.99789 0.11356 0.41127 0.0
C880 C 0.99186 0.11801 0.36101 0.0
C881 C 0.00971 0.10392 0.5042 0.0
C882 C 0.99524 0.0928 0.48091 0.0
C883 C 0.98925 0.09793 0.43515 0.0
C884 C 0.98859 0.07422 0.50084 0.0
C885 C 0.01717 0.09866 0.55279 0.0
C886 C 0.99487 0.05735 0.48014 0.0
C887 C 0.99441 0.04034 0.50614 0.0
C888 C 0.98781 0.04012 0.55333 0.0
C889 C 0.97902 0.05638 0.57111 0.0
C890 C 0.97941 0.07336 0.54493 0.0
H891 H 0.03014 0.10723 0.56272 0.0
H892 H 0.00626 0.10122 0.58006 0.0
H893 H 0.02041 0.08324 0.5539 0.0
H894 H 0.00184 0.05774 0.44585 0.0
H895 H 1.00102 0.02801 0.49103 0.0
H896 H 0.33567 0.89934 0.40506 0.0
H897 H 0.36203 0.89215 0.45846 0.0
H898 H 0.39902 0.93001 0.37734 0.0
H899 H 0.37304 0.93767 0.32518 0.0
H900 H 0.41514 0.89365 0.4082 0.0
H901 H 0.3816 0.93544 0.55257 0.0
H902 H 0.36825 0.91599 0.52458 0.0
H903 H 0.37403 0.9373 0.49131 0.0
C904 C 0.34946 0.906 0.39841 0.0
C905 C 0.35217 0.9191 0.36074 0.0
C906 C 0.3645 0.90179 0.42877 0.0
C907 C 0.38241 0.9106 0.42177 0.0
C908 C 0.38533 0.92291 0.38299 0.0
H909 H 0.48604 0.95221 0.51224 0.0
H910 H 0.46019 0.93483 0.47166 0.0
C911 C 0.3704 0.9272 0.35298 0.0
C912 C 0.39783 0.90898 0.45696 0.0
H913 H 0.41353 0.92936 0.56103 0.0
C914 C 0.41471 0.90099 0.44228 0.0
C915 C 0.39714 0.91845 0.50146 0.0
C916 C 0.37935 0.92738 0.51869 0.0
C917 C 0.43129 0.90337 0.46954 0.0
C918 C 0.43102 0.91442 0.51184 0.0
C919 C 0.41376 0.92098 0.52845 0.0
C920 C 0.44857 0.92181 0.53566 0.0
C921 C 0.44907 0.89463 0.45184 0.0
C922 C 0.45072 0.92031 0.58524 0.0
C923 C 0.46537 0.93054 0.60874 0.0
C924 C 0.4781 0.9425 0.58306 0.0
C925 C 0.47653 0.94311 0.53313 0.0
C926 C 0.46183 0.93299 0.50975 0.0
H927 H 0.44572 0.88109 0.4321 0.0
H928 H 0.45632 0.9047 0.42673 0.0
H929 H 0.45891 0.89161 0.48158 0.0
H930 H 0.44059 0.91188 0.60598 0.0
H931 H 0.46623 0.92965 0.64722 0.0
H932 H 0.49941 0.33564 0.39921 0.0
H933 H 0.51278 0.36216 0.4472 0.0
H934 H 0.56453 0.33238 0.46406 0.0
H935 H 0.55118 0.30564 0.4156 0.0
H936 H 0.53138 0.35804 0.54767 0.0
H937 H 0.57588 0.38936 0.40184 0.0
H938 H 0.55485 0.37484 0.38843 0.0
H939 H 0.57514 0.36389 0.41298 0.0
C940 C 0.5136 0.33471 0.4133 0.0
C941 C 0.52432 0.3187 0.40362 0.0
C942 C 0.52119 0.3498 0.44069 0.0
C943 C 0.53964 0.34918 0.4586 0.0
C944 C 0.55028 0.33304 0.45016 0.0
H945 H 0.56618 0.44386 0.65512 0.0
H946 H 0.57244 0.41393 0.61386 0.0
C947 C 0.54262 0.3178 0.4229 0.0
C948 C 0.54748 0.3658 0.48551 0.0
H949 H 0.57131 0.40868 0.46948 0.0
C950 C 0.54054 0.36894 0.53134 0.0
C951 C 0.55925 0.37991 0.46346 0.0
C952 C 0.56679 0.377 0.41392 0.0
C953 C 0.54415 0.38643 0.55483 0.0
C954 C 0.55522 0.40098 0.53188 0.0
C955 C 0.563 0.39741 0.48702 0.0
C956 C 0.55628 0.4207 0.551 0.0
C957 C 0.53491 0.38969 0.60242 0.0
C958 C 0.54635 0.43493 0.52762 0.0
C959 C 0.54283 0.4521 0.55086 0.0
C960 C 0.54912 0.45518 0.59797 0.0
C961 C 0.56085 0.44176 0.61915 0.0
C962 C 0.56445 0.42465 0.5957 0.0
H963 H 0.52456 0.37795 0.61174 0.0
H964 H 0.54589 0.39056 0.63076 0.0
H965 H 0.52751 0.40341 0.60234 0.0
H966 H 0.54002 0.43214 0.49291 0.0
H967 H 0.5339 0.4622 0.53336 0.0
H968 H 0.15731 0.58285 0.29764 0.0
H969 H 0.13274 0.58656 0.35586 0.0
H970 H 0.17138 0.61994 0.4454 0.0
H971 H 0.19651 0.61586 0.3868 0.0
H972 H 0.15691 0.59259 0.49414 0.0
H973 H 0.09684 0.6235 0.40358 0.0
H974 H 0.10449 0.60463 0.36603 0.0
H975 H 0.12024 0.62507 0.37832 0.0
C976 C 0.16049 0.59167 0.32871 0.0
C977 C 0.17891 0.59909 0.33748 0.0
C978 C 0.14628 0.5939 0.36209 0.0
C979 C 0.14999 0.60387 0.40484 0.0
C980 C 0.16811 0.61231 0.41252 0.0
H981 H 0.05328 0.57209 0.58956 0.0
H982 H 0.07591 0.59472 0.55137 0.0
C983 C 0.18247 0.60991 0.37915 0.0
C984 C 0.13603 0.60209 0.44408 0.0
H985 H 0.08844 0.59677 0.46036 0.0
C986 C 0.14197 0.59417 0.48733 0.0
C987 C 0.11652 0.60462 0.43645 0.0
C988 C 0.10926 0.61516 0.3937 0.0
C989 C 0.12888 0.58653 0.52008 0.0
C990 C 0.10942 0.58627 0.50854 0.0
C991 C 0.1034 0.59638 0.46847 0.0
C992 C 0.09572 0.57313 0.53302 0.0
C993 C 0.13611 0.57782 0.56546 0.0
C994 C 0.09912 0.55349 0.53414 0.0
C995 C 0.08636 0.54064 0.55577 0.0
C996 C 0.0697 0.54705 0.57629 0.0
C997 C 0.06602 0.5667 0.57417 0.0
C998 C 0.07894 0.57965 0.55256 0.0
H999 H 0.14919 0.58562 0.578 0.0
H1000 H 0.12543 0.57801 0.59424 0.0
H1001 H 0.13971 0.56275 0.55851 0.0
H1002 H 0.11163 0.54802 0.51777 0.0
H1003 H 0.08958 0.52561 0.55615 0.0
H1004 H 0.12061 0.84958 0.05283 0.0
H1005 H 0.12502 0.8771 0.99925 0.0
H1006 H 0.08172 0.85295 0.90584 0.0
H1007 H 0.07739 0.82556 0.95848 0.0
H1008 H 0.1108 0.87141 0.85642 0.0
H1009 H 0.08472 0.91696 0.00399 0.0
H1010 H 0.10599 0.90445 0.01471 0.0
H1011 H 0.08392 0.89118 0.00764 0.0
C1012 C 0.11231 0.85001 0.02035 0.0
C1013 C 0.09852 0.8355 0.01012 0.0
C1014 C 0.11481 0.86574 0.9899 0.0
C1015 C 0.1034 0.86725 0.94917 0.0
C1016 C 0.09068 0.85208 0.93711 0.0
H1017 H 0.04094 0.93003 0.7713 0.0
H1018 H 0.05983 0.90818 0.81699 0.0
C1019 C 0.08827 0.83635 0.96722 0.0
C1020 C 0.10281 0.88526 0.92157 0.0
H1021 H 0.0851 0.92997 0.92757 0.0
C1022 C 0.10568 0.88442 0.87215 0.0
C1023 C 0.09614 0.90224 0.9422 0.0
C1024 C 0.09238 0.90387 0.99496 0.0
C1025 C 0.10066 0.89952 0.84244 0.0
C1026 C 0.0926 0.91578 0.86275 0.0
C1027 C 0.09132 0.91741 0.91237 0.0
C1028 C 0.08215 0.92925 0.8332 0.0
C1029 C 0.10286 0.89751 0.78927 0.0
C1030 C 0.08837 0.94844 0.82793 0.0
C1031 C 0.07759 0.96106 0.80147 0.0
C1032 C 0.06028 0.9547 0.78088 0.0
C1033 C 0.05412 0.93547 0.78685 0.0
C1034 C 0.06497 0.92289 0.8126 0.0
H1035 H 0.11367 0.88702 0.78019 0.0
H1036 H 0.08919 0.89234 0.77348 0.0
H1037 H 0.10684 0.91153 0.77283 0.0
H1038 H 0.10151 0.95359 0.84419 0.0
H1039 H 0.08269 0.9758 0.79753 0.0
H1040 H 0.69492 0.06745 0.9214 0.0
H1041 H 0.6691 0.07276 0.86652 0.0
H1042 H 0.64566 0.11269 0.96542 0.0
H1043 H 0.67166 0.10734 0.02106 0.0
H1044 H 0.62114 0.0845 0.94531 0.0
H1045 H 0.64945 0.1108 0.77467 0.0
H1046 H 0.66289 0.09105 0.79393 0.0
H1047 H 0.66302 0.11268 0.82933 0.0
C1048 C 0.68478 0.07802 0.93074 0.0
C1049 C 0.68528 0.08686 0.97581 0.0
C1050 C 0.66997 0.08111 0.8991 0.0
C1051 C 0.65546 0.09327 0.91154 0.0
C1052 C 0.65672 0.1033 0.95496 0.0
H1053 H 0.54552 0.06399 0.76978 0.0
H1054 H 0.56824 0.08607 0.8108 0.0
C1055 C 0.67154 0.10017 0.98678 0.0
C1056 C 0.63761 0.09241 0.88353 0.0
H1057 H 0.62176 0.08802 0.76887 0.0
C1058 C 0.62104 0.08599 0.90684 0.0
C1059 C 0.63739 0.0945 0.8334 0.0
C1060 C 0.65414 0.10285 0.80659 0.0
C1061 C 0.60501 0.07953 0.881 0.0
C1062 C 0.6056 0.07961 0.8307 0.0
C1063 C 0.62143 0.08783 0.80752 0.0
C1064 C 0.5919 0.06774 0.80241 0.0
C1065 C 0.58824 0.07095 0.90744 0.0
C1066 C 0.5978 0.05037 0.78379 0.0
C1067 C 0.58498 0.03778 0.76097 0.0
C1068 C 0.56592 0.04232 0.75592 0.0
C1069 C 0.56009 0.06006 0.77329 0.0
C1070 C 0.57301 0.07267 0.79663 0.0
H1071 H 0.59021 0.07162 0.94673 0.0
H1072 H 0.57541 0.07875 0.898 0.0
H1073 H 0.58574 0.05574 0.89672 0.0
H1074 H 0.61231 0.04629 0.7881 0.0
H1075 H 0.59005 0.02436 0.74763 0.0
H1076 H 0.42401 0.6651 0.05511 0.0
H1077 H 0.41738 0.63542 0.00998 0.0
H1078 H 0.45595 0.65525 0.90065 0.0
H1079 H 0.46232 0.68486 0.94481 0.0
H1080 H 0.42576 0.63408 0.86351 0.0
H1081 H 0.45819 0.59648 0.01693 0.0
H1082 H 0.43714 0.60912 0.02872 0.0
H1083 H 0.45854 0.62224 0.01316 0.0
C1084 C 0.43068 0.66327 0.02084 0.0
C1085 C 0.44384 0.6772 0.00371 0.0
C1086 C 0.42696 0.6463 0.99525 0.0
C1087 C 0.43656 0.64293 0.95261 0.0
C1088 C 0.44842 0.65752 0.93356 0.0
H1089 H 0.49352 0.57178 0.78468 0.0
H1090 H 0.47571 0.59569 0.82622 0.0
C1091 C 0.452 0.67451 0.9588 0.0
C1092 C 0.43637 0.62367 0.9303 0.0
H1093 H 0.45468 0.57957 0.94557 0.0
C1094 C 0.4316 0.62198 0.88179 0.0
C1095 C 0.444 0.60785 0.95423 0.0
C1096 C 0.44989 0.60892 0.00602 0.0
C1097 C 0.43561 0.60546 0.85578 0.0
C1098 C 0.44455 0.59034 0.87894 0.0
C1099 C 0.44776 0.59126 0.92818 0.0
C1100 C 0.4541 0.57553 0.85152 0.0
C1101 C 0.43142 0.60476 0.80306 0.0
C1102 C 0.44791 0.55621 0.85258 0.0
C1103 C 0.45807 0.54238 0.82845 0.0
C1104 C 0.47475 0.54772 0.804 0.0
C1105 C 0.48084 0.56712 0.80342 0.0
C1106 C 0.47058 0.58086 0.82678 0.0
H1107 H 0.42029 0.6148 0.79313 0.0
H1108 H 0.44444 0.60895 0.78321 0.0
H1109 H 0.42687 0.59003 0.79177 0.0
H1110 H 0.43531 0.55187 0.87209 0.0
H1111 H 0.45305 0.52753 0.82953 0.0
H1112 H 0.83195 0.43776 0.88207 0.0
H1113 H 0.85883 0.43389 0.82964 0.0
H1114 H 0.88804 0.40476 0.94162 0.0
H1115 H 0.86081 0.40775 0.99364 0.0
H1116 H 0.89108 0.45256 0.8566 0.0
H1117 H 0.90556 0.37626 0.82447 0.0
H1118 H 0.88287 0.38397 0.84446 0.0
H1119 H 0.90198 0.38167 0.88626 0.0
C1120 C 0.84368 0.42971 0.89491 0.0
C1121 C 0.84434 0.42332 0.94235 0.0
C1122 C 0.85912 0.42761 0.8649 0.0
C1123 C 0.87548 0.41909 0.88171 0.0
C1124 C 0.87551 0.41115 0.92758 0.0
H1125 H 0.98878 0.4579 0.81961 0.0
H1126 H 0.96045 0.4441 0.85759 0.0
C1127 C 0.86 0.41311 0.95753 0.0
C1128 C 0.89343 0.42189 0.85532 0.0
H1129 H 0.93142 0.39907 0.81115 0.0
C1130 C 0.89974 0.44081 0.84612 0.0
C1131 C 0.90479 0.40657 0.84192 0.0
C1132 C 0.89838 0.38596 0.84936 0.0
C1133 C 0.91724 0.4449 0.82487 0.0
C1134 C 0.9289 0.42967 0.81308 0.0
C1135 C 0.92249 0.41068 0.82098 0.0
C1136 C 0.94766 0.43366 0.79188 0.0
C1137 C 0.92321 0.46553 0.8154 0.0
C1138 C 0.95013 0.43154 0.74269 0.0
C1139 C 0.96628 0.43945 0.72076 0.0
C1140 C 0.98017 0.44966 0.74777 0.0
C1141 C 0.97832 0.45029 0.79765 0.0
C1142 C 0.96217 0.44238 0.81949 0.0
H1143 H 0.91127 0.47526 0.81883 0.0
H1144 H 0.93433 0.47018 0.84144 0.0
H1145 H 0.92924 0.46711 0.7791 0.0
H1146 H 0.93903 0.42488 0.72089 0.0
H1147 H 0.96731 0.43855 0.68232 0.0
H1148 H 0.04632 0.20524 0.94094 0.0
H1149 H 0.0411 0.17826 0.88548 0.0
H1150 H 0.09989 0.16521 0.89722 0.0
H1151 H 0.10499 0.19186 0.95342 0.0
H1152 H 0.05675 0.16409 0.79902 0.0
H1153 H 0.07205 0.11812 0.95472 0.0
H1154 H 0.06853 0.14345 0.96041 0.0
H1155 H 0.09074 0.13512 0.93977 0.0
C1156 C 0.05826 0.19711 0.92996 0.0
C1157 C 0.07607 0.20066 0.95105 0.0
C1158 C 0.05525 0.18159 0.89866 0.0
C1159 C 0.07001 0.16944 0.88815 0.0
C1160 C 0.08822 0.17417 0.90556 0.0
H1161 H 0.07058 0.05451 0.76377 0.0
H1162 H 0.07963 0.08587 0.7981 0.0
C1163 C 0.09119 0.18954 0.93709 0.0
C1164 C 0.06597 0.15078 0.86371 0.0
H1165 H 0.06604 0.10236 0.88148 0.0
C1166 C 0.05882 0.15059 0.81696 0.0
C1167 C 0.06854 0.13315 0.88731 0.0
C1168 C 0.07522 0.13236 0.93846 0.0
C1169 C 0.0544 0.13323 0.79298 0.0
C1170 C 0.05693 0.11563 0.81669 0.0
C1171 C 0.06421 0.11585 0.86327 0.0
C1172 C 0.05152 0.0968 0.79458 0.0
C1173 C 0.04727 0.13388 0.74228 0.0
C1174 C 0.03266 0.09238 0.78199 0.0
C1175 C 0.02742 0.07446 0.76261 0.0
C1176 C 0.04093 0.06048 0.75552 0.0
C1177 C 0.05981 0.06489 0.76864 0.0
C1178 C 0.06502 0.08284 0.78818 0.0
H1179 H 0.05101 0.14783 0.72512 0.0
H1180 H 0.05308 0.1222 0.72058 0.0
H1181 H 0.03165 0.13198 0.74215 0.0
H1182 H 0.02191 0.10273 0.78765 0.0
H1183 H 0.01275 0.07161 0.7531 0.0
H1184 H 0.34606 0.0335 0.04687 0.0
H1185 H 0.37018 0.04375 0.98872 0.0
H1186 H 0.35333 0.99599 0.89823 0.0
H1187 H 0.3293 0.98589 0.95605 0.0
H1188 H 0.39894 0.02013 0.97126 0.0
H1189 H 0.3649 0.03723 0.79984 0.0
H1190 H 0.35227 0.03704 0.85564 0.0
H1191 H 0.35568 0.01502 0.82386 0.0
C1192 C 0.34688 0.02584 0.01336 0.0
C1193 C 0.33566 0.00909 0.00549 0.0
C1194 C 0.36079 0.03157 0.98037 0.0
C1195 C 0.36355 0.02073 0.93883 0.0
C1196 C 0.35127 0.00487 0.92931 0.0
H1197 H 0.45922 0.9816 0.79931 0.0
H1198 H 0.43154 0.98865 0.84642 0.0
C1199 C 0.33748 0.9991 0.96235 0.0
C1200 C 0.381 0.02374 0.90994 0.0
H1201 H 0.39701 0.02643 0.79525 0.0
C1202 C 0.39851 0.02197 0.9329 0.0
C1203 C 0.38055 0.02618 0.85987 0.0
C1204 C 0.36234 0.02917 0.83343 0.0
C1205 C 0.41537 0.02138 0.90694 0.0
C1206 C 0.41475 0.02245 0.85667 0.0
C1207 C 0.39744 0.02543 0.83381 0.0
C1208 C 0.43161 0.01863 0.82744 0.0
C1209 C 0.4337 0.01892 0.93337 0.0
C1210 C 0.44079 0.03315 0.80066 0.0
C1211 C 0.45683 0.0292 0.7737 0.0
C1212 C 0.46377 0.01058 0.77256 0.0
C1213 C 0.45434 0.9961 0.7992 0.0
C1214 C 0.4385 1.0001 0.82633 0.0
H1215 H 0.43259 0.02301 0.97153 0.0
H1216 H 0.43746 0.00366 0.93157 0.0
H1217 H 0.44534 0.02768 0.91687 0.0
H1218 H 0.43563 0.04754 0.80096 0.0
H1219 H 0.46367 0.04066 0.75346 0.0
H1220 H 0.49552 0.30028 0.98456 0.0
H1221 H 0.49544 0.3254 0.92376 0.0
H1222 H 0.43674 0.33437 0.95253 0.0
H1223 H 0.43701 0.30961 0.01433 0.0
H1224 H 0.47534 0.33614 0.84215 0.0
H1225 H 0.46273 0.38471 0.99514 0.0
H1226 H 0.46824 0.35994 0.00308 0.0
H1227 H 0.44481 0.36616 0.98583 0.0
C1228 C 0.48238 0.30697 0.97618 0.0
C1229 C 0.46622 0.30291 0.00366 0.0
C1230 C 0.48238 0.32147 0.9418 0.0
C1231 C 0.46622 0.33214 0.9345 0.0
C1232 C 0.44948 0.32662 0.95828 0.0
H1233 H 0.46111 0.44589 0.80038 0.0
H1234 H 0.45172 0.41497 0.83645 0.0
C1235 C 0.44953 0.31225 0.99297 0.0
C1236 C 0.46767 0.35034 0.90699 0.0
H1237 H 0.46645 0.399 0.92002 0.0
C1238 C 0.47323 0.34987 0.85905 0.0
C1239 C 0.46504 0.36832 0.92912 0.0
C1240 C 0.46004 0.36994 0.9812 0.0
C1241 C 0.47635 0.36684 0.83282 0.0
C1242 C 0.47413 0.38479 0.85532 0.0
C1243 C 0.46805 0.38525 0.90277 0.0
C1244 C 0.47945 0.40325 0.83162 0.0
C1245 C 0.4821 0.36543 0.78129 0.0
C1246 C 0.4982 0.40707 0.81772 0.0
C1247 C 0.50362 0.42469 0.79751 0.0
C1248 C 0.49044 0.43902 0.79078 0.0
C1249 C 0.47163 0.43521 0.80494 0.0
C1250 C 0.46623 0.41753 0.82546 0.0
H1251 H 0.4777 0.3513 0.76566 0.0
H1252 H 0.4759 0.37691 0.75966 0.0
H1253 H 0.49771 0.36702 0.77889 0.0
H1254 H 0.50876 0.39649 0.82318 0.0
H1255 H 0.51823 0.42704 0.78719 0.0
H1256 H 0.2058 0.47417 0.04179 0.0
H1257 H 0.1814 0.46542 0.98232 0.0
H1258 H 0.19235 0.51927 0.9107 0.0
H1259 H 0.21641 0.52814 0.97047 0.0
H1260 H 0.15575 0.51415 0.9365 0.0
H1261 H 0.17877 0.44917 0.84248 0.0
H1262 H 0.17936 0.44752 0.90635 0.0
H1263 H 0.19485 0.46459 0.87668 0.0
C1264 C 0.20346 0.48378 0.01228 0.0
C1265 C 0.21299 0.5018 0.0106 0.0
C1266 C 0.1895 0.47879 0.97833 0.0
C1267 C 0.18504 0.49167 0.94189 0.0
C1268 C 0.19551 0.5091 0.93845 0.0
H1269 H 0.10475 0.48274 0.70776 0.0
H1270 H 0.13299 0.48275 0.75823 0.0
C1271 C 0.20931 0.51413 0.97246 0.0
C1272 C 0.16799 0.48829 0.91129 0.0
H1273 H 0.14694 0.45778 0.82961 0.0
C1274 C 0.15388 0.50183 0.91304 0.0
C1275 C 0.16555 0.47226 0.88059 0.0
C1276 C 0.18049 0.45762 0.87594 0.0
C1277 C 0.13745 0.49984 0.8851 0.0
C1278 C 0.13477 0.48362 0.85514 0.0
C1279 C 0.14891 0.47009 0.85303 0.0
C1280 C 0.11765 0.48102 0.8246 0.0
C1281 C 0.12327 0.51539 0.88714 0.0
C1282 C 0.09961 0.47936 0.84504 0.0
C1283 C 0.08341 0.47943 0.81632 0.0
C1284 C 0.08489 0.48105 0.76646 0.0
C1285 C 0.10302 0.48157 0.74598 0.0
C1286 C 0.11921 0.48154 0.77478 0.0
H1287 H 0.12947 0.52887 0.90281 0.0
H1288 H 0.11774 0.51856 0.85102 0.0
H1289 H 0.1112 0.51053 0.90969 0.0
H1290 H 0.09807 0.47859 0.88338 0.0
H1291 H 0.06972 0.47884 0.83338 0.0
H1292 H 0.98361 0.79363 0.35268 0.0
H1293 H 0.97406 0.81699 0.41274 0.0
H1294 H 0.03263 0.82964 0.44742 0.0
H1295 H 0.04206 0.80582 0.38968 0.0
H1296 H 0.01188 0.8318 0.5249 0.0
H1297 H 0.97839 0.87282 0.3796 0.0
H1298 H 0.96826 0.84924 0.38977 0.0
H1299 H 0.992 0.85211 0.36785 0.0
C1300 C 0.99436 0.80097 0.37428 0.0
C1301 C 0.0136 0.79815 0.36593 0.0
C1302 C 0.98892 0.81454 0.40807 0.0
C1303 C 0.00265 0.82559 0.43353 0.0
C1304 C 0.02174 0.82151 0.42797 0.0
H1305 H 0.01317 0.94144 0.5175 0.0
H1306 H 0.0095 0.91019 0.47911 0.0
C1307 C 0.02714 0.80792 0.39476 0.0
C1308 C 0.99772 0.84246 0.46297 0.0
H1309 H 0.98049 0.88736 0.45465 0.0
C1310 C 0.00478 0.84387 0.50979 0.0
C1311 C 0.98862 0.85831 0.44307 0.0
C1312 C 0.9815 0.85821 0.39224 0.0
C1313 C 0.00393 0.86094 0.53629 0.0
C1314 C 0.99515 0.8769 0.51603 0.0
C1315 C 0.98718 0.87513 0.4702 0.0
C1316 C 0.99592 0.89614 0.53928 0.0
C1317 C 0.01356 0.86203 0.58441 0.0
C1318 C 0.9891 0.89892 0.58564 0.0
C1319 C 0.99145 0.91682 0.60811 0.0
C1320 C 1.00033 0.93241 0.58426 0.0
C1321 C 0.00627 0.9298 0.53702 0.0
C1322 C 0.00416 0.91188 0.51493 0.0
H1323 H 0.02335 0.85017 0.58968 0.0
H1324 H 0.02169 0.87585 0.58889 0.0
H1325 H 0.00273 0.86096 0.61278 0.0
H1326 H 0.98219 0.88718 0.60475 0.0
H1327 H 0.98653 0.91838 0.64435 0.0
H1328 H 0.72304 0.9889 0.36871 0.0
H1329 H 0.70056 0.9803 0.43252 0.0
H1330 H 0.65631 0.97157 0.32763 0.0
H1331 H 0.67862 0.97977 0.26435 0.0
H1332 H 0.66931 1.00072 0.45213 0.0
H1333 H 0.64653 0.92579 0.41275 0.0
H1334 H 0.66765 0.93689 0.3876 0.0
H1335 H 0.64491 0.94062 0.36094 0.0
C1336 C 0.70865 0.98455 0.35937 0.0
C1337 C 0.70255 0.98501 0.31166 0.0
C1338 C 0.69579 0.97976 0.39577 0.0
C1339 C 0.67675 0.97507 0.38489 0.0
C1340 C 0.67095 0.9747 0.337 0.0
H1341 H 0.56659 0.97378 0.50388 0.0
H1342 H 0.5952 0.9713 0.45636 0.0
C1343 C 0.6837 0.97954 0.30084 0.0
C1344 C 0.66237 0.97274 0.42313 0.0
H1345 H 0.62473 0.9442 0.4585 0.0
C1346 C 0.65981 0.98819 0.45427 0.0
C1347 C 0.64991 0.95642 0.42579 0.0
C1348 C 0.65251 0.93892 0.39527 0.0
C1349 C 0.64453 0.98822 0.48602 0.0
C1350 C 0.6316 0.97225 0.48716 0.0
C1351 C 0.63458 0.95648 0.4574 0.0
C1352 C 0.61428 0.97223 0.51682 0.0
C1353 C 0.64179 0.00578 0.51633 0.0
C1354 C 0.61544 0.97309 0.56674 0.0
C1355 C 0.59909 0.97451 0.59412 0.0
C1356 C 0.5812 0.97507 0.5721 0.0
C1357 C 0.58008 0.97348 0.52212 0.0
C1358 C 0.59644 0.97202 0.49483 0.0
H1359 H 0.65087 0.01821 0.50463 0.0
H1360 H 0.62682 0.0099 0.51524 0.0
H1361 H 0.64545 0.00256 0.55388 0.0
H1362 H 0.62904 0.97296 0.58451 0.0
H1363 H 0.60053 0.97561 0.63248 0.0
H1364 H 0.50258 0.68632 0.40609 0.0
H1365 H 0.5126 0.66465 0.46802 0.0
H1366 H 0.56948 0.66829 0.4136 0.0
H1367 H 0.55911 0.68957 0.34971 0.0
H1368 H 0.55862 0.63271 0.42062 0.0
H1369 H 0.54 0.6658 0.59063 0.0
H1370 H 0.51969 0.66591 0.55251 0.0
H1371 H 0.54094 0.67935 0.53594 0.0
C1372 C 0.51736 0.68298 0.40821 0.0
C1373 C 0.53005 0.68954 0.373 0.0
C1374 C 0.52315 0.67067 0.444 0.0
C1375 C 0.54189 0.6649 0.44611 0.0
C1376 C 0.55496 0.67258 0.41294 0.0
H1377 H 0.55216 0.57599 0.66585 0.0
H1378 H 0.55943 0.6055 0.62146 0.0
C1379 C 0.5491 0.68487 0.37671 0.0
C1380 C 0.54674 0.64879 0.47812 0.0
H1381 H 0.53721 0.63052 0.58853 0.0
C1382 C 0.55438 0.63243 0.45771 0.0
C1383 C 0.54171 0.64837 0.52691 0.0
C1384 C 0.53535 0.66593 0.55275 0.0
C1385 C 0.55563 0.6153 0.48349 0.0
C1386 C 0.54842 0.61424 0.53045 0.0
C1387 C 0.5423 0.63105 0.55214 0.0
C1388 C 0.5457 0.59569 0.55621 0.0
C1389 C 0.56442 0.59847 0.45964 0.0
C1390 C 0.53559 0.58026 0.53452 0.0
C1391 C 0.53168 0.56329 0.55953 0.0
C1392 C 0.53738 0.56148 0.60734 0.0
C1393 C 0.54757 0.57689 0.62906 0.0
C1394 C 0.55173 0.59379 0.60372 0.0
H1395 H 0.57553 0.60338 0.43415 0.0
H1396 H 0.57079 0.58878 0.48601 0.0
H1397 H 0.55343 0.59024 0.43898 0.0
H1398 H 0.53016 0.58151 0.49858 0.0
H1399 H 0.52358 0.55184 0.54184 0.0
H1400 H 0.82679 0.51182 0.35604 0.0
H1401 H 0.84692 0.52175 0.42409 0.0
H1402 H 0.89393 0.5313 0.3287 0.0
H1403 H 0.8738 0.52247 0.26132 0.0
H1404 H 0.87459 0.50295 0.45453 0.0
H1405 H 0.90503 0.5745 0.41545 0.0
H1406 H 0.88474 0.56472 0.38318 0.0
H1407 H 0.90839 0.5599 0.36397 0.0
C1408 C 0.84122 0.51682 0.34962 0.0
C1409 C 0.84878 0.51621 0.30348 0.0
C1410 C 0.85276 0.52237 0.38851 0.0
C1411 C 0.872 0.52747 0.38178 0.0
C1412 C 0.87911 0.528 0.33517 0.0
H1413 H 0.96597 0.48869 0.52736 0.0
H1414 H 0.93719 0.49496 0.48362 0.0
C1415 C 0.86761 0.52266 0.29654 0.0
C1416 C 0.88542 0.52924 0.42286 0.0
H1417 H 0.92628 0.55295 0.45816 0.0
C1418 C 0.88557 0.51421 0.456 0.0
C1419 C 0.89962 0.54409 0.4261 0.0
C1420 C 0.89926 0.56179 0.3955 0.0
C1421 C 0.90034 0.51272 0.48916 0.0
C1422 C 0.91577 0.52624 0.48813 0.0
C1423 C 0.91478 0.54223 0.45812 0.0
C1424 C 0.93365 0.52302 0.51455 0.0
C1425 C 0.89939 0.49637 0.52422 0.0
C1426 C 0.94196 0.53713 0.54472 0.0
C1427 C 0.95882 0.53372 0.56927 0.0
C1428 C 0.96759 0.51611 0.5641 0.0
C1429 C 0.95946 0.50228 0.53286 0.0
C1430 C 0.94285 0.50579 0.50807 0.0
H1431 H 0.88451 0.4923 0.53312 0.0
H1432 H 0.90571 0.48364 0.50794 0.0
H1433 H 0.90712 0.50006 0.55773 0.0
H1434 H 0.93527 0.55066 0.54981 0.0
H1435 H 0.96474 0.54467 0.59299 0.0
loop_
_geom_bond_atom_site_label_1
_geom_bond_atom_site_label_2
_geom_bond_distance
_geom_bond_site_symmetry_2
_ccdc_geom_bond_type
C0 C1 1.391 . S
C0 C4 1.391 . S
C0 H42 0.948 . S
C1 C0 1.391 . S
C1 C2 1.391 . S
C2 C1 1.391 . S
C2 H58 0.947 . S
C2 C59 1.392 . S
C3 C4 1.391 . S
C3 C7 1.397 . S
C3 C59 1.419 . S
C4 C0 1.391 . S
C4 C3 1.391 . S
C4 C5 1.399 . S
C5 C4 1.399 . S
C5 C8 1.396 . S
C5 C17 1.453 . S
C5 C18 1.684 . S
H6 C30 0.948 . S
C7 C3 1.397 . S
C7 C8 1.394 . S
C7 C26 1.723 . S
C8 C5 1.396 . S
C8 C7 1.394 . S
C8 C38 1.723 . S
H9 C32 0.947 . S
H10 C33 0.948 . S
H11 C39 0.982 . S
H12 C40 0.979 . S
H13 C40 0.980 . S
H14 C40 0.983 . S
H15 C39 0.979 . S
H16 C39 0.977 . S
C17 C5 1.453 . S
C17 H46 0.982 . S
C17 H47 0.979 . S
C17 H48 0.977 . S
C18 C5 1.684 . S
C18 H43 0.979 . S
C18 H44 0.980 . S
C18 H45 0.983 . S
C19 C20 1.391 . S
C19 C24 1.391 . S
C19 H49 0.948 . S
C20 C19 1.391 . S
C20 C21 1.391 . S
C21 C20 1.391 . S
C21 C22 1.392 . S
C21 H50 0.947 . S
C22 C21 1.392 . S
C22 C23 1.419 . S
C22 H51 0.948 . S
C23 C22 1.419 . S
C23 C24 1.391 . S
C23 C27 1.397 . S
C24 C19 1.391 . S
C24 C23 1.391 . S
C24 C25 1.399 1_556 S
C25 C24 1.399 1_554 S
C25 C26 1.396 . S
C25 C28 1.453 . S
C25 C29 1.684 . S
C26 C7 1.723 . S
C26 C25 1.396 . S
C26 C27 1.394 1_554 S
C27 C23 1.397 . S
C27 C26 1.394 1_556 S
C27 C37 1.723 . S
C28 C25 1.453 . S
C28 H52 0.982 . S
C28 H53 0.979 . S
C28 H54 0.977 . S
C29 C25 1.684 . S
C29 H55 0.979 . S
C29 H56 0.980 . S
C29 H57 0.983 . S
C30 H6 0.948 . S
C30 C31 1.391 . S
C30 C35 1.391 . S
C31 C30 1.391 . S
C31 C32 1.391 1_556 S
C32 H9 0.947 . S
C32 C31 1.391 1_554 S
C32 C33 1.392 . S
C33 H10 0.948 . S
C33 C32 1.392 . S
C33 C34 1.419 . S
C34 C33 1.419 . S
C34 C35 1.391 1_554 S
C34 C38 1.397 . S
C35 C30 1.391 . S
C35 C34 1.391 1_556 S
C35 C36 1.399 . S
C36 C35 1.399 . S
C36 C37 1.396 . S
C36 C39 1.453 . S
C36 C40 1.684 . S
C37 C27 1.723 . S
C37 C36 1.396 . S
C37 C38 1.394 1_556 S
C38 C8 1.723 . S
C38 C34 1.397 . S
C38 C37 1.394 1_554 S
C39 H11 0.982 . S
C39 H15 0.979 . S
C39 H16 0.977 . S
C39 C36 1.453 . S
C40 H12 0.979 . S
C40 H13 0.980 . S
C40 H14 0.983 . S
C40 C36 1.684 . S
H41 C59 0.948 . S
H42 C0 0.948 . S
H43 C18 0.979 . S
H44 C18 0.980 . S
H45 C18 0.983 . S
H46 C17 0.982 . S
H47 C17 0.979 . S
H48 C17 0.977 . S
H49 C19 0.948 . S
H50 C21 0.947 . S
H51 C22 0.948 . S
H52 C28 0.982 . S
H53 C28 0.979 . S
H54 C28 0.977 . S
H55 C29 0.979 . S
H56 C29 0.980 . S
H57 C29 0.983 . S
H58 C2 0.947 . S
C59 C2 1.392 . S
C59 C3 1.419 . S
C59 H41 0.948 . S
C60 C61 1.391 . S
C60 C64 1.391 . S
C60 H102 0.948 . S
C61 C60 1.391 . S
C61 C62 1.391 1_556 S
C62 C61 1.391 1_554 S
C62 H118 0.947 . S
C62 C119 1.392 . S
C63 C64 1.391 1_554 S
C63 C67 1.397 . S
C63 C119 1.419 . S
C64 C60 1.391 . S
C64 C63 1.391 1_556 S
C64 C65 1.399 . S
C65 C64 1.399 . S
C65 C68 1.396 1_556 S
C65 C77 1.453 1_655 S
C65 C78 1.684 . S
H66 C90 0.948 . S
C67 C63 1.397 . S
C67 C68 1.394 . S
C67 C86 1.723 . S
C68 C65 1.396 1_554 S
C68 C67 1.394 . S
C68 C98 1.723 . S
H69 C92 0.947 1_556 S
H70 C93 0.948 1_556 S
H71 C99 0.982 . S
H72 C100 0.979 . S
H73 C100 0.980 . S
H74 C100 0.983 . S
H75 C99 0.979 . S
H76 C99 0.977 . S
C77 C65 1.453 1_455 S
C77 H106 0.982 . S
C77 H107 0.979 . S
C77 H108 0.977 . S
C78 C65 1.684 . S
C78 H103 0.979 . S
C78 H104 0.980 . S
C78 H105 0.983 . S
C79 C80 1.391 . S
C79 C84 1.391 . S
C79 H109 0.948 . S
C80 C79 1.391 . S
C80 C81 1.391 . S
C81 C80 1.391 . S
C81 C82 1.392 . S
C81 H110 0.947 . S
C82 C81 1.392 . S
C82 C83 1.419 . S
C82 H111 0.948 . S
C83 C82 1.419 . S
C83 C84 1.391 . S
C83 C87 1.397 . S
C84 C79 1.391 . S
C84 C83 1.391 . S
C84 C85 1.399 . S
C85 C84 1.399 . S
C85 C86 1.396 . S
C85 C88 1.453 1_655 S
C85 C89 1.684 . S
C86 C67 1.723 . S
C86 C85 1.396 . S
C86 C87 1.394 . S
C87 C83 1.397 . S
C87 C86 1.394 . S
C87 C97 1.723 . S
C88 C85 1.453 1_455 S
C88 H112 0.982 . S
C88 H113 0.979 . S
C88 H114 0.977 . S
C89 C85 1.684 . S
C89 H115 0.979 . S
C89 H116 0.980 . S
C89 H117 0.983 . S
C90 H66 0.948 . S
C90 C91 1.391 . S
C90 C95 1.391 . S
C91 C90 1.391 . S
C91 C92 1.391 . S
C92 H69 0.947 1_554 S
C92 C91 1.391 . S
C92 C93 1.392 . S
C93 H70 0.948 1_554 S
C93 C92 1.392 . S
C93 C94 1.419 . S
C94 C93 1.419 . S
C94 C95 1.391 . S
C94 C98 1.397 . S
C95 C90 1.391 . S
C95 C94 1.391 . S
C95 C96 1.399 . S
C96 C95 1.399 . S
C96 C97 1.396 . S
C96 C99 1.453 1_655 S
C96 C100 1.684 . S
C97 C87 1.723 . S
C97 C96 1.396 . S
C97 C98 1.394 . S
C98 C68 1.723 . S
C98 C94 1.397 . S
C98 C97 1.394 . S
C99 H71 0.982 . S
C99 H75 0.979 . S
C99 H76 0.977 . S
C99 C96 1.453 1_455 S
C100 H72 0.979 . S
C100 H73 0.980 . S
C100 H74 0.983 . S
C100 C96 1.684 . S
H101 C119 0.948 . S
H102 C60 0.948 . S
H103 C78 0.979 . S
H104 C78 0.980 . S
H105 C78 0.983 . S
H106 C77 0.982 . S
H107 C77 0.979 . S
H108 C77 0.977 . S
H109 C79 0.948 . S
H110 C81 0.947 . S
H111 C82 0.948 . S
H112 C88 0.982 . S
H113 C88 0.979 . S
H114 C88 0.977 . S
H115 C89 0.979 . S
H116 C89 0.980 . S
H117 C89 0.983 . S
H118 C62 0.947 . S
C119 C62 1.392 . S
C119 C63 1.419 . S
C119 H101 0.948 . S
C120 C121 1.391 . S
C120 C124 1.391 . S
C120 H162 0.948 . S
C121 C120 1.391 . S
C121 C122 1.391 1_554 S
C122 C121 1.391 1_556 S
C122 H178 0.947 . S
C122 C179 1.392 . S
C123 C124 1.391 . S
C123 C127 1.396 . S
C123 C179 1.419 1_554 S
C124 C120 1.391 . S
C124 C123 1.391 . S
C124 C125 1.399 . S
C125 C124 1.399 . S
C125 C128 1.387 1_565 S
C125 C137 1.453 1_565 S
C125 C138 1.684 . S
H126 C150 0.948 . S
C127 C123 1.396 . S
C127 C128 1.393 1_565 S
C127 C146 1.720 1_565 S
C128 C125 1.387 1_545 S
C128 C127 1.393 1_545 S
C128 C158 1.724 . S
H129 C152 0.947 . S
H130 C153 0.948 . S
H131 C159 0.982 . S
H132 C160 0.979 . S
H133 C160 0.980 . S
H134 C160 0.983 . S
H135 C159 0.979 . S
H136 C159 0.977 . S
C137 C125 1.453 1_545 S
C137 H166 0.982 . S
C137 H167 0.979 . S
C137 H168 0.977 . S
C138 C125 1.684 . S
C138 H163 0.979 . S
C138 H164 0.980 . S
C138 H165 0.983 . S
C139 C140 1.391 . S
C139 C144 1.391 . S
C139 H169 0.948 . S
C140 C139 1.391 . S
C140 C141 1.391 . S
C141 C140 1.391 . S
C141 C142 1.392 1_556 S
C141 H170 0.947 . S
C142 C141 1.392 1_554 S
C142 C143 1.422 . S
C142 H171 0.948 . S
C143 C142 1.422 . S
C143 C144 1.400 1_554 S
C143 C147 1.397 1_565 S
C144 C139 1.391 . S
C144 C143 1.400 1_556 S
C144 C145 1.399 . S
C145 C144 1.399 . S
C145 C146 1.389 1_566 S
C145 C148 1.453 1_565 S
C145 C149 1.684 . S
C146 C127 1.720 1_545 S
C146 C145 1.389 1_544 S
C146 C147 1.395 . S
C147 C143 1.397 1_545 S
C147 C146 1.395 . S
C147 C157 1.722 . S
C148 C145 1.453 1_545 S
C148 H172 0.982 . S
C148 H173 0.979 . S
C148 H174 0.977 . S
C149 C145 1.684 . S
C149 H175 0.979 . S
C149 H176 0.980 . S
C149 H177 0.983 . S
C150 H126 0.948 . S
C150 C151 1.391 . S
C150 C155 1.391 . S
C151 C150 1.391 . S
C151 C152 1.391 . S
C152 H129 0.947 . S
C152 C151 1.391 . S
C152 C153 1.392 . S
C153 H130 0.948 . S
C153 C152 1.392 . S
C153 C154 1.419 . S
C154 C153 1.419 . S
C154 C155 1.391 . S
C154 C158 1.397 1_565 S
C155 C150 1.391 . S
C155 C154 1.391 . S
C155 C156 1.399 . S
C156 C155 1.399 . S
C156 C157 1.389 1_565 S
C156 C159 1.453 1_565 S
C156 C160 1.684 . S
C157 C147 1.722 . S
C157 C156 1.389 1_545 S
C157 C158 1.390 . S
C158 C128 1.724 . S
C158 C154 1.397 1_545 S
C158 C157 1.390 . S
C159 H131 0.982 . S
C159 H135 0.979 . S
C159 H136 0.977 . S
C159 C156 1.453 1_545 S
C160 H132 0.979 . S
C160 H133 0.980 . S
C160 H134 0.983 . S
C160 C156 1.684 . S
H161 C179 0.948 . S
H162 C120 0.948 . S
H163 C138 0.979 . S
H164 C138 0.980 . S
H165 C138 0.983 . S
H166 C137 0.982 . S
H167 C137 0.979 . S
H168 C137 0.977 . S
H169 C139 0.948 . S
H170 C141 0.947 . S
H171 C142 0.948 . S
H172 C148 0.982 . S
H173 C148 0.979 . S
H174 C148 0.977 . S
H175 C149 0.979 . S
H176 C149 0.980 . S
H177 C149 0.983 . S
H178 C122 0.947 . S
C179 C122 1.392 . S
C179 C123 1.419 1_556 S
C179 H161 0.948 . S
C180 C181 1.391 . S
C180 C184 1.391 . S
C180 H222 0.948 . S
C181 C180 1.391 . S
C181 C182 1.391 . S
C182 C181 1.391 . S
C182 H238 0.947 . S
C182 C239 1.392 . S
C183 C184 1.391 . S
C183 C187 1.397 . S
C183 C239 1.419 . S
C184 C180 1.391 . S
C184 C183 1.391 . S
C184 C185 1.399 . S
C185 C184 1.399 . S
C185 C188 1.396 . S
C185 C197 1.453 . S
C185 C198 1.684 . S
H186 C210 0.948 . S
C187 C183 1.397 . S
C187 C188 1.394 . S
C187 C206 1.723 . S
C188 C185 1.396 . S
C188 C187 1.394 . S
C188 C218 1.723 . S
H189 C212 0.947 . S
H190 C213 0.948 . S
H191 C219 0.982 . S
H192 C220 0.979 . S
H193 C220 0.980 . S
H194 C220 0.983 . S
H195 C219 0.979 . S
H196 C219 0.977 . S
C197 C185 1.453 . S
C197 H226 0.982 . S
C197 H227 0.979 . S
C197 H228 0.977 . S
C198 C185 1.684 . S
C198 H223 0.979 . S
C198 H224 0.980 . S
C198 H225 0.983 . S
C199 C200 1.391 . S
C199 C204 1.391 . S
C199 H229 0.948 . S
C200 C199 1.391 . S
C200 C201 1.391 . S
C201 C200 1.391 . S
C201 C202 1.392 . S
C201 H230 0.947 . S
C202 C201 1.392 . S
C202 C203 1.419 . S
C202 H231 0.948 . S
C203 C202 1.419 . S
C203 C204 1.391 . S
C203 C207 1.397 1_556 S
C204 C199 1.391 . S
C204 C203 1.391 . S
C204 C205 1.399 1_556 S
C205 C204 1.399 1_554 S
C205 C206 1.396 . S
C205 C208 1.453 . S
C205 C209 1.684 . S
C206 C187 1.723 . S
C206 C205 1.396 . S
C206 C207 1.394 . S
C207 C203 1.397 1_554 S
C207 C206 1.394 . S
C207 C217 1.723 . S
C208 C205 1.453 . S
C208 H232 0.982 . S
C208 H233 0.979 . S
C208 H234 0.977 . S
C209 C205 1.684 . S
C209 H235 0.979 . S
C209 H236 0.980 . S
C209 H237 0.983 . S
C210 H186 0.948 . S
C210 C211 1.391 1_556 S
C210 C215 1.391 . S
C211 C210 1.391 1_554 S
C211 C212 1.391 . S
C212 H189 0.947 . S
C212 C211 1.391 . S
C212 C213 1.392 . S
C213 H190 0.948 . S
C213 C212 1.392 . S
C213 C214 1.419 . S
C214 C213 1.419 . S
C214 C215 1.391 1_554 S
C214 C218 1.397 . S
C215 C210 1.391 . S
C215 C214 1.391 1_556 S
C215 C216 1.399 . S
C216 C215 1.399 . S
C216 C217 1.396 1_556 S
C216 C219 1.453 . S
C216 C220 1.684 . S
C217 C207 1.723 . S
C217 C216 1.396 1_554 S
C217 C218 1.394 . S
C218 C188 1.723 . S
C218 C214 1.397 . S
C218 C217 1.394 . S
C219 H191 0.982 . S
C219 H195 0.979 . S
C219 H196 0.977 . S
C219 C216 1.453 . S
C220 H192 0.979 . S
C220 H193 0.980 . S
C220 H194 0.983 . S
C220 C216 1.684 . S
H221 C239 0.948 . S
H222 C180 0.948 . S
H223 C198 0.979 . S
H224 C198 0.980 . S
H225 C198 0.983 . S
H226 C197 0.982 . S
H227 C197 0.979 . S
H228 C197 0.977 . S
H229 C199 0.948 . S
H230 C201 0.947 . S
H231 C202 0.948 . S
H232 C208 0.982 . S
H233 C208 0.979 . S
H234 C208 0.977 . S
H235 C209 0.979 . S
H236 C209 0.980 . S
H237 C209 0.983 . S
H238 C182 0.947 . S
C239 C182 1.392 . S
C239 C183 1.419 . S
C239 H221 0.948 . S
C240 C241 1.391 . S
C240 C244 1.391 . S
C240 H282 0.948 . S
C241 C240 1.391 . S
C241 C242 1.391 . S
C242 C241 1.391 . S
C242 H298 0.947 . S
C242 C299 1.392 . S
C243 C244 1.391 . S
C243 C247 1.397 . S
C243 C299 1.419 . S
C244 C240 1.391 . S
C244 C243 1.391 . S
C244 C245 1.399 . S
C245 C244 1.399 . S
C245 C248 1.396 . S
C245 C257 1.453 . S
C245 C258 1.684 . S
H246 C270 0.948 . S
C247 C243 1.397 . S
C247 C248 1.394 . S
C247 C266 1.723 . S
C248 C245 1.396 . S
C248 C247 1.394 . S
C248 C278 1.723 . S
H249 C272 0.947 . S
H250 C273 0.948 . S
H251 C279 0.982 . S
H252 C280 0.979 . S
H253 C280 0.980 . S
H254 C280 0.983 . S
H255 C279 0.979 . S
H256 C279 0.977 . S
C257 C245 1.453 . S
C257 H286 0.982 . S
C257 H287 0.979 . S
C257 H288 0.977 . S
C258 C245 1.684 . S
C258 H283 0.979 . S
C258 H284 0.980 . S
C258 H285 0.983 . S
C259 C260 1.391 . S
C259 C264 1.391 . S
C259 H289 0.948 . S
C260 C259 1.391 . S
C260 C261 1.391 . S
C261 C260 1.391 . S
C261 C262 1.392 . S
C261 H290 0.947 . S
C262 C261 1.392 . S
C262 C263 1.419 . S
C262 H291 0.948 . S
C263 C262 1.419 . S
C263 C264 1.391 . S
C263 C267 1.397 . S
C264 C259 1.391 . S
C264 C263 1.391 . S
C264 C265 1.399 . S
C265 C264 1.399 . S
C265 C266 1.396 . S
C265 C268 1.453 . S
C265 C269 1.684 . S
C266 C247 1.723 . S
C266 C265 1.396 . S
C266 C267 1.394 . S
C267 C263 1.397 . S
C267 C266 1.394 . S
C267 C277 1.723 . S
C268 C265 1.453 . S
C268 H292 0.982 . S
C268 H293 0.979 . S
C268 H294 0.977 . S
C269 C265 1.684 . S
C269 H295 0.979 . S
C269 H296 0.980 . S
C269 H297 0.983 . S
C270 H246 0.948 . S
C270 C271 1.391 . S
C270 C275 1.391 . S
C271 C270 1.391 . S
C271 C272 1.391 . S
C272 H249 0.947 . S
C272 C271 1.391 . S
C272 C273 1.392 . S
C273 H250 0.948 . S
C273 C272 1.392 . S
C273 C274 1.419 . S
C274 C273 1.419 . S
C274 C275 1.391 . S
C274 C278 1.397 . S
C275 C270 1.391 . S
C275 C274 1.391 . S
C275 C276 1.399 . S
C276 C275 1.399 . S
C276 C277 1.396 . S
C276 C279 1.453 . S
C276 C280 1.684 . S
C277 C267 1.723 . S
C277 C276 1.396 . S
C277 C278 1.394 . S
C278 C248 1.723 . S
C278 C274 1.397 . S
C278 C277 1.394 . S
C279 H251 0.982 . S
C279 H255 0.979 . S
C279 H256 0.977 . S
C279 C276 1.453 . S
C280 H252 0.979 . S
C280 H253 0.980 . S
C280 H254 0.983 . S
C280 C276 1.684 . S
H281 C299 0.948 . S
H282 C240 0.948 . S
H283 C258 0.979 . S
H284 C258 0.980 . S
H285 C258 0.983 . S
H286 C257 0.982 . S
H287 C257 0.979 . S
H288 C257 0.977 . S
H289 C259 0.948 . S
H290 C261 0.947 . S
H291 C262 0.948 . S
H292 C268 0.982 . S
H293 C268 0.979 . S
H294 C268 0.977 . S
H295 C269 0.979 . S
H296 C269 0.980 . S
H297 C269 0.983 . S
H298 C242 0.947 . S
C299 C242 1.392 . S
C299 C243 1.419 . S
C299 H281 0.948 . S
C300 C301 1.391 . S
C300 C304 1.391 . S
C300 H342 0.948 . S
C301 C300 1.391 . S
C301 C302 1.391 . S
C302 C301 1.391 . S
C302 H358 0.947 . S
C302 C359 1.392 . S
C303 C304 1.391 . S
C303 C307 1.397 . S
C303 C359 1.419 . S
C304 C300 1.391 . S
C304 C303 1.391 . S
C304 C305 1.399 . S
C305 C304 1.399 . S
C305 C308 1.396 . S
C305 C317 1.453 . S
C305 C318 1.684 . S
H306 C330 0.948 . S
C307 C303 1.397 . S
C307 C308 1.394 . S
C307 C326 1.723 . S
C308 C305 1.396 . S
C308 C307 1.394 . S
C308 C338 1.723 . S
H309 C332 0.947 . S
H310 C333 0.948 . S
H311 C339 0.982 . S
H312 C340 0.979 . S
H313 C340 0.980 . S
H314 C340 0.983 . S
H315 C339 0.979 . S
H316 C339 0.977 . S
C317 C305 1.453 . S
C317 H346 0.982 . S
C317 H347 0.979 . S
C317 H348 0.977 . S
C318 C305 1.684 . S
C318 H343 0.979 . S
C318 H344 0.980 . S
C318 H345 0.983 . S
C319 C320 1.391 . S
C319 C324 1.391 . S
C319 H349 0.948 . S
C320 C319 1.391 . S
C320 C321 1.391 . S
C321 C320 1.391 . S
C321 C322 1.392 . S
C321 H350 0.947 . S
C322 C321 1.392 . S
C322 C323 1.419 . S
C322 H351 0.948 . S
C323 C322 1.419 . S
C323 C324 1.391 . S
C323 C327 1.397 . S
C324 C319 1.391 . S
C324 C323 1.391 . S
C324 C325 1.399 . S
C325 C324 1.399 . S
C325 C326 1.396 . S
C325 C328 1.453 . S
C325 C329 1.684 . S
C326 C307 1.723 . S
C326 C325 1.396 . S
C326 C327 1.394 . S
C327 C323 1.397 . S
C327 C326 1.394 . S
C327 C337 1.723 . S
C328 C325 1.453 . S
C328 H352 0.982 . S
C328 H353 0.979 . S
C328 H354 0.977 . S
C329 C325 1.684 . S
C329 H355 0.979 . S
C329 H356 0.980 . S
C329 H357 0.983 . S
C330 H306 0.948 . S
C330 C331 1.391 . S
C330 C335 1.391 . S
C331 C330 1.391 . S
C331 C332 1.391 . S
C332 H309 0.947 . S
C332 C331 1.391 . S
C332 C333 1.392 . S
C333 H310 0.948 . S
C333 C332 1.392 . S
C333 C334 1.419 . S
C334 C333 1.419 . S
C334 C335 1.391 . S
C334 C338 1.397 . S
C335 C330 1.391 . S
C335 C334 1.391 . S
C335 C336 1.399 . S
C336 C335 1.399 . S
C336 C337 1.396 . S
C336 C339 1.453 . S
C336 C340 1.684 . S
C337 C327 1.723 . S
C337 C336 1.396 . S
C337 C338 1.394 . S
C338 C308 1.723 . S
C338 C334 1.397 . S
C338 C337 1.394 . S
C339 H311 0.982 . S
C339 H315 0.979 . S
C339 H316 0.977 . S
C339 C336 1.453 . S
C340 H312 0.979 . S
C340 H313 0.980 . S
C340 H314 0.983 . S
C340 C336 1.684 . S
H341 C359 0.948 . S
H342 C300 0.948 . S
H343 C318 0.979 . S
H344 C318 0.980 . S
H345 C318 0.983 . S
H346 C317 0.982 . S
H347 C317 0.979 . S
H348 C317 0.977 . S
H349 C319 0.948 . S
H350 C321 0.947 . S
H351 C322 0.948 . S
H352 C328 0.982 . S
H353 C328 0.979 . S
H354 C328 0.977 . S
H355 C329 0.979 . S
H356 C329 0.980 . S
H357 C329 0.983 . S
H358 C302 0.947 . S
C359 C302 1.392 . S
C359 C303 1.419 . S
C359 H341 0.948 . S
C360 C361 1.391 . S
C360 C364 1.391 . S
C360 H402 0.948 . S
C361 C360 1.391 . S
C361 C362 1.391 . S
C362 C361 1.391 . S
C362 H418 0.947 . S
C362 C419 1.392 . S
C363 C364 1.391 . S
C363 C367 1.397 . S
C363 C419 1.419 . S
C364 C360 1.391 . S
C364 C363 1.391 . S
C364 C365 1.399 . S
C365 C364 1.399 . S
C365 C368 1.387 1_545 S
C365 C377 1.453 1_545 S
C365 C378 1.684 . S
H366 C390 0.948 . S
C367 C363 1.397 . S
C367 C368 1.395 1_545 S
C367 C386 1.721 1_545 S
C368 C365 1.387 1_565 S
C368 C367 1.395 1_565 S
C368 C398 1.721 . S
H369 C392 0.947 . S
H370 C393 0.948 . S
H371 C399 0.982 . S
H372 C400 0.979 . S
H373 C400 0.980 . S
H374 C400 0.983 . S
H375 C399 0.979 . S
H376 C399 0.977 . S
C377 C365 1.453 1_565 S
C377 H406 0.982 . S
C377 H407 0.979 . S
C377 H408 0.977 . S
C378 C365 1.684 . S
C378 H403 0.979 . S
C378 H404 0.980 . S
C378 H405 0.983 . S
C379 C380 1.391 . S
C379 C384 1.391 . S
C379 H409 0.948 . S
C380 C379 1.391 . S
C380 C381 1.391 . S
C381 C380 1.391 . S
C381 C382 1.392 . S
C381 H410 0.947 . S
C382 C381 1.392 . S
C382 C383 1.419 . S
C382 H411 0.948 . S
C383 C382 1.419 . S
C383 C384 1.391 . S
C383 C387 1.397 . S
C384 C379 1.391 . S
C384 C383 1.391 . S
C384 C385 1.399 . S
C385 C384 1.399 . S
C385 C386 1.391 1_545 S
C385 C388 1.453 1_545 S
C385 C389 1.684 . S
C386 C367 1.721 1_565 S
C386 C385 1.391 1_565 S
C386 C387 1.392 1_565 S
C387 C383 1.397 . S
C387 C386 1.392 1_545 S
C387 C397 1.724 1_545 S
C388 C385 1.453 1_565 S
C388 H412 0.982 . S
C388 H413 0.979 . S
C388 H414 0.977 . S
C389 C385 1.684 . S
C389 H415 0.979 . S
C389 H416 0.980 . S
C389 H417 0.983 . S
C390 H366 0.948 . S
C390 C391 1.391 . S
C390 C395 1.391 . S
C391 C390 1.391 . S
C391 C392 1.391 . S
C392 H369 0.947 . S
C392 C391 1.391 . S
C392 C393 1.392 . S
C393 H370 0.948 . S
C393 C392 1.392 . S
C393 C394 1.426 . S
C394 C393 1.426 . S
C394 C395 1.399 . S
C394 C398 1.393 1_545 S
C395 C390 1.391 . S
C395 C394 1.399 . S
C395 C396 1.399 . S
C396 C395 1.399 . S
C396 C397 1.386 1_545 S
C396 C399 1.453 1_545 S
C396 C400 1.684 . S
C397 C387 1.724 1_565 S
C397 C396 1.386 1_565 S
C397 C398 1.392 . S
C398 C368 1.721 . S
C398 C394 1.393 1_565 S
C398 C397 1.392 . S
C399 H371 0.982 . S
C399 H375 0.979 . S
C399 H376 0.977 . S
C399 C396 1.453 1_565 S
C400 H372 0.979 . S
C400 H373 0.980 . S
C400 H374 0.983 . S
C400 C396 1.684 . S
H401 C419 0.948 . S
H402 C360 0.948 . S
H403 C378 0.979 . S
H404 C378 0.980 . S
H405 C378 0.983 . S
H406 C377 0.982 . S
H407 C377 0.979 . S
H408 C377 0.977 . S
H409 C379 0.948 . S
H410 C381 0.947 . S
H411 C382 0.948 . S
H412 C388 0.982 . S
H413 C388 0.979 . S
H414 C388 0.977 . S
H415 C389 0.979 . S
H416 C389 0.980 . S
H417 C389 0.983 . S
H418 C362 0.947 . S
C419 C362 1.392 . S
C419 C363 1.419 . S
C419 H401 0.948 . S
C420 C421 1.391 . S
C420 C424 1.391 . S
C420 H462 0.948 . S
C421 C420 1.391 . S
C421 C422 1.391 . S
C422 C421 1.391 . S
C422 H478 0.947 . S
C422 C479 1.392 . S
C423 C424 1.391 . S
C423 C427 1.397 . S
C423 C479 1.419 . S
C424 C420 1.391 . S
C424 C423 1.391 . S
C424 C425 1.399 . S
C425 C424 1.399 . S
C425 C428 1.396 . S
C425 C437 1.453 . S
C425 C438 1.684 . S
H426 C450 0.948 . S
C427 C423 1.397 . S
C427 C428 1.394 . S
C427 C446 1.723 . S
C428 C425 1.396 . S
C428 C427 1.394 . S
C428 C458 1.723 . S
H429 C452 0.947 . S
H430 C453 0.948 . S
H431 C459 0.982 . S
H432 C460 0.979 . S
H433 C460 0.980 . S
H434 C460 0.983 . S
H435 C459 0.979 . S
H436 C459 0.977 . S
C437 C425 1.453 . S
C437 H466 0.982 . S
C437 H467 0.979 . S
C437 H468 0.977 . S
C438 C425 1.684 . S
C438 H463 0.979 . S
C438 H464 0.980 . S
C438 H465 0.983 . S
C439 C440 1.391 . S
C439 C444 1.391 . S
C439 H469 0.948 . S
C440 C439 1.391 . S
C440 C441 1.391 . S
C441 C440 1.391 . S
C441 C442 1.392 . S
C441 H470 0.947 . S
C442 C441 1.392 . S
C442 C443 1.419 . S
C442 H471 0.948 . S
C443 C442 1.419 . S
C443 C444 1.391 . S
C443 C447 1.397 . S
C444 C439 1.391 . S
C444 C443 1.391 . S
C444 C445 1.399 . S
C445 C444 1.399 . S
C445 C446 1.396 . S
C445 C448 1.453 . S
C445 C449 1.684 . S
C446 C427 1.723 . S
C446 C445 1.396 . S
C446 C447 1.394 . S
C447 C443 1.397 . S
C447 C446 1.394 . S
C447 C457 1.723 . S
C448 C445 1.453 . S
C448 H472 0.982 . S
C448 H473 0.979 . S
C448 H474 0.977 . S
C449 C445 1.684 . S
C449 H475 0.979 . S
C449 H476 0.980 . S
C449 H477 0.983 . S
C450 H426 0.948 . S
C450 C451 1.391 . S
C450 C455 1.391 . S
C451 C450 1.391 . S
C451 C452 1.391 . S
C452 H429 0.947 . S
C452 C451 1.391 . S
C452 C453 1.392 . S
C453 H430 0.948 . S
C453 C452 1.392 . S
C453 C454 1.419 . S
C454 C453 1.419 . S
C454 C455 1.391 . S
C454 C458 1.397 . S
C455 C450 1.391 . S
C455 C454 1.391 . S
C455 C456 1.399 . S
C456 C455 1.399 . S
C456 C457 1.396 . S
C456 C459 1.453 . S
C456 C460 1.684 . S
C457 C447 1.723 . S
C457 C456 1.396 . S
C457 C458 1.394 . S
C458 C428 1.723 . S
C458 C454 1.397 . S
C458 C457 1.394 . S
C459 H431 0.982 . S
C459 H435 0.979 . S
C459 H436 0.977 . S
C459 C456 1.453 . S
C460 H432 0.979 . S
C460 H433 0.980 . S
C460 H434 0.983 . S
C460 C456 1.684 . S
H461 C479 0.948 . S
H462 C420 0.948 . S
H463 C438 0.979 . S
H464 C438 0.980 . S
H465 C438 0.983 . S
H466 C437 0.982 . S
H467 C437 0.979 . S
H468 C437 0.977 . S
H469 C439 0.948 . S
H470 C441 0.947 . S
H471 C442 0.948 . S
H472 C448 0.982 . S
H473 C448 0.979 . S
H474 C448 0.977 . S
H475 C449 0.979 . S
H476 C449 0.980 . S
H477 C449 0.983 . S
H478 C422 0.947 . S
C479 C422 1.392 . S
C479 C423 1.419 . S
C479 H461 0.948 . S
O480 Zn481 1.953 . S
O480 C496 1.236 . S
Zn481 O480 1.953 . S
Zn481 O482 1.947 . S
Zn481 O488 1.879 1_565 S
Zn481 O493 1.972 . S
O482 Zn481 1.947 . S
O482 Zn483 1.904 1_565 S
O482 Zn484 1.952 . S
O482 Zn485 1.960 . S
Zn483 O482 1.904 1_545 S
Zn483 O486 1.933 1_455 S
Zn483 O489 1.941 . S
Zn483 O490 1.965 . S
Zn484 O482 1.952 . S
Zn484 O491 1.938 1_565 S
Zn484 O492 1.906 . S
Zn484 O502 1.953 . S
Zn485 O482 1.960 . S
Zn485 O487 1.932 1_455 S
Zn485 O494 1.977 . S
Zn485 O495 1.910 . S
O486 Zn483 1.933 1_655 S
O486 C497 1.226 . S
O487 Zn485 1.932 1_655 S
O487 C497 1.307 1_565 S
O488 Zn481 1.879 1_545 S
O488 C499 1.253 . S
O489 Zn483 1.941 . S
O489 C499 1.283 . S
O490 Zn483 1.965 . S
O490 C498 1.303 . S
O491 Zn484 1.938 1_545 S
O491 C498 1.247 . S
O492 Zn484 1.906 . S
O492 C500 1.304 . S
O493 Zn481 1.972 . S
O493 C501 1.311 . S
O494 Zn485 1.977 . S
O494 C500 1.272 . S
O495 Zn485 1.910 . S
O495 C501 1.231 . S
C496 O480 1.236 . S
C496 O502 1.298 . S
C497 O486 1.226 . S
C497 O487 1.307 1_545 S
C498 O490 1.303 . S
C498 O491 1.247 . S
C499 O488 1.253 . S
C499 O489 1.283 . S
C500 O492 1.304 . S
C500 O494 1.272 . S
C501 O493 1.311 . S
C501 O495 1.231 . S
O502 Zn484 1.953 . S
O502 C496 1.298 . S
O503 Zn504 1.953 . S
O503 C519 1.225 . S
Zn504 O503 1.953 . S
Zn504 O505 1.949 . S
Zn504 O511 1.919 . S
Zn504 O516 1.924 . S
O505 Zn504 1.949 . S
O505 Zn506 1.923 1_545 S
O505 Zn507 1.950 . S
O505 Zn508 1.945 1_545 S
Zn506 O505 1.923 1_565 S
Zn506 O509 1.933 . S
Zn506 O512 1.941 . S
Zn506 O513 1.965 . S
Zn507 O505 1.950 . S
Zn507 O514 1.938 . S
Zn507 O515 1.894 1_545 S
Zn507 O525 1.953 . S
Zn508 O505 1.945 1_565 S
Zn508 O510 1.932 . S
Zn508 O517 1.977 . S
Zn508 O518 1.910 1_565 S
O509 Zn506 1.933 . S
O509 C520 1.226 . S
O510 Zn508 1.932 . S
O510 C520 1.307 . S
O511 Zn504 1.919 . S
O511 C522 1.253 . S
O512 Zn506 1.941 . S
O512 C522 1.283 1_565 S
O513 Zn506 1.965 . S
O513 C521 1.303 . S
O514 Zn507 1.938 . S
O514 C521 1.247 1_545 S
O515 Zn507 1.894 1_565 S
O515 C523 1.322 . S
O516 Zn504 1.924 . S
O516 C524 1.311 . S
O517 Zn508 1.977 . S
O517 C523 1.272 . S
O518 Zn508 1.910 1_545 S
O518 C524 1.231 . S
C519 O503 1.225 . S
C519 O525 1.298 . S
C520 O509 1.226 . S
C520 O510 1.307 . S
C521 O513 1.303 . S
C521 O514 1.247 1_565 S
C522 O511 1.253 . S
C522 O512 1.283 1_545 S
C523 O515 1.322 . S
C523 O517 1.272 . S
C524 O516 1.311 . S
C524 O518 1.231 . S
O525 Zn507 1.953 . S
O525 C519 1.298 . S
O526 Zn527 1.953 . S
O526 C542 1.225 . S
Zn527 O526 1.953 . S
Zn527 O528 1.949 . S
Zn527 O534 1.919 . S
Zn527 O539 1.924 . S
O528 Zn527 1.949 . S
O528 Zn529 1.923 . S
O528 Zn530 1.950 . S
O528 Zn531 1.945 . S
Zn529 O528 1.923 . S
Zn529 O532 1.933 . S
Zn529 O535 1.941 . S
Zn529 O536 1.965 . S
Zn530 O528 1.950 . S
Zn530 O537 1.938 . S
Zn530 O538 1.906 . S
Zn530 O548 1.953 . S
Zn531 O528 1.945 . S
Zn531 O533 1.932 . S
Zn531 O540 1.977 . S
Zn531 O541 1.910 . S
O532 Zn529 1.933 . S
O532 C543 1.226 . S
O533 Zn531 1.932 . S
O533 C543 1.307 . S
O534 Zn527 1.919 . S
O534 C545 1.253 . S
O535 Zn529 1.941 . S
O535 C545 1.283 . S
O536 Zn529 1.965 . S
O536 C544 1.303 . S
O537 Zn530 1.938 . S
O537 C544 1.247 . S
O538 Zn530 1.906 . S
O538 C546 1.304 . S
O539 Zn527 1.924 . S
O539 C547 1.311 . S
O540 Zn531 1.977 . S
O540 C546 1.272 . S
O541 Zn531 1.910 . S
O541 C547 1.231 . S
C542 O526 1.225 . S
C542 O548 1.298 . S
C543 O532 1.226 . S
C543 O533 1.307 . S
C544 O536 1.303 . S
C544 O537 1.247 . S
C545 O534 1.253 . S
C545 O535 1.283 . S
C546 O538 1.304 . S
C546 O540 1.272 . S
C547 O539 1.311 . S
C547 O541 1.231 . S
O548 Zn530 1.953 . S
O548 C542 1.298 . S
O549 Zn550 1.953 1_655 S
O549 C565 1.225 . S
Zn550 O549 1.953 1_455 S
Zn550 O551 1.949 . S
Zn550 O557 1.919 . S
Zn550 O562 1.924 . S
O551 Zn550 1.949 . S
O551 Zn552 1.923 . S
O551 Zn553 1.950 1_455 S
O551 Zn554 1.945 . S
Zn552 O551 1.923 . S
Zn552 O555 1.933 . S
Zn552 O558 1.941 . S
Zn552 O559 1.965 1_455 S
Zn553 O551 1.950 1_655 S
Zn553 O560 1.938 . S
Zn553 O561 1.906 1_655 S
Zn553 O571 1.953 . S
Zn554 O551 1.945 . S
Zn554 O556 1.932 . S
Zn554 O563 1.977 . S
Zn554 O564 1.910 . S
O555 Zn552 1.933 . S
O555 C566 1.226 . S
O556 Zn554 1.932 . S
O556 C566 1.307 . S
O557 Zn550 1.919 . S
O557 C568 1.253 . S
O558 Zn552 1.941 . S
O558 C568 1.283 . S
O559 Zn552 1.965 1_655 S
O559 C567 1.303 . S
O560 Zn553 1.938 . S
O560 C567 1.247 . S
O561 Zn553 1.906 1_455 S
O561 C569 1.304 . S
O562 Zn550 1.924 . S
O562 C570 1.311 . S
O563 Zn554 1.977 . S
O563 C569 1.272 . S
O564 Zn554 1.910 . S
O564 C570 1.231 . S
C565 O549 1.225 . S
C565 O571 1.298 . S
C566 O555 1.226 . S
C566 O556 1.307 . S
C567 O559 1.303 . S
C567 O560 1.247 . S
C568 O557 1.253 . S
C568 O558 1.283 . S
C569 O561 1.304 . S
C569 O563 1.272 . S
C570 O562 1.311 . S
C570 O564 1.231 . S
O571 Zn553 1.953 . S
O571 C565 1.298 . S
H572 C580 0.929 . S
H573 C582 0.930 . S
H574 C584 0.930 . S
H575 C587 0.929 . S
H576 C590 0.935 . S
H577 C592 0.962 . S
H578 C592 0.937 1_545 S
H579 C592 0.982 . S
C580 H572 0.929 . S
C580 C581 1.369 1_545 S
C580 C582 1.384 . S
C581 C580 1.369 1_565 S
C581 C587 1.398 . S
C582 H573 0.930 . S
C582 C580 1.384 . S
C582 C583 1.340 1_545 S
C583 C582 1.340 1_565 S
C583 C584 1.432 . S
C583 C588 1.491 . S
C584 H574 0.930 . S
C584 C583 1.432 . S
C584 C587 1.386 . S
H585 C601 0.930 . S
H586 C602 0.931 . S
C587 H575 0.929 . S
C587 C581 1.398 . S
C587 C584 1.386 . S
C588 C583 1.491 . S
C588 C590 1.395 . S
C588 C591 1.403 . S
H589 C595 0.930 . S
C590 H576 0.935 . S
C590 C588 1.395 . S
C590 C593 1.403 . S
C591 C588 1.403 . S
C591 C592 1.524 . S
C591 C595 1.400 . S
C592 H577 0.962 . S
C592 H578 0.937 1_565 S
C592 H579 0.982 . S
C592 C591 1.524 . S
C593 C590 1.403 . S
C593 C594 1.392 . S
C593 C597 1.495 . S
C594 C593 1.392 . S
C594 C595 1.385 . S
C594 C596 1.478 . S
C595 H589 0.930 . S
C595 C591 1.400 . S
C595 C594 1.385 . S
C596 C594 1.478 . S
C596 C598 1.381 1_565 S
C596 C602 1.383 . S
C597 C593 1.495 . S
C597 H603 0.959 . S
C597 H604 0.961 . S
C597 H605 0.960 1_565 S
C598 C596 1.381 1_545 S
C598 C599 1.394 . S
C598 H606 0.930 . S
C599 C598 1.394 . S
C599 C600 1.383 1_545 S
C599 H607 0.929 . S
C600 C599 1.383 1_565 S
C600 C601 1.377 . S
C601 H585 0.930 . S
C601 C600 1.377 . S
C601 C602 1.379 . S
C602 H586 0.931 . S
C602 C596 1.383 . S
C602 C601 1.379 . S
H603 C597 0.959 . S
H604 C597 0.961 . S
H605 C597 0.960 1_545 S
H606 C598 0.930 . S
H607 C599 0.929 . S
H608 C616 0.929 . S
H609 C618 0.930 . S
H610 C620 0.930 . S
H611 C623 0.929 . S
H612 C626 0.930 . S
H613 C628 0.960 . S
H614 C628 0.960 . S
H615 C628 0.960 . S
C616 H608 0.929 . S
C616 C617 1.377 . S
C616 C618 1.384 . S
C617 C616 1.377 . S
C617 C623 1.390 . S
C618 H609 0.930 . S
C618 C616 1.384 . S
C618 C619 1.372 . S
C619 C618 1.372 . S
C619 C620 1.400 . S
C619 C624 1.490 . S
C620 H610 0.930 . S
C620 C619 1.400 . S
C620 C623 1.386 . S
H621 C637 0.930 . S
H622 C638 0.931 . S
C623 H611 0.929 . S
C623 C617 1.390 . S
C623 C620 1.386 . S
C624 C619 1.490 . S
C624 C626 1.395 . S
C624 C627 1.403 . S
H625 C631 0.930 . S
C626 H612 0.930 . S
C626 C624 1.395 . S
C626 C629 1.403 . S
C627 C624 1.403 . S
C627 C628 1.524 . S
C627 C631 1.400 . S
C628 H613 0.960 . S
C628 H614 0.960 . S
C628 H615 0.960 . S
C628 C627 1.524 . S
C629 C626 1.403 . S
C629 C630 1.392 . S
C629 C633 1.495 . S
C630 C629 1.392 . S
C630 C631 1.385 . S
C630 C632 1.478 . S
C631 H625 0.930 . S
C631 C627 1.400 . S
C631 C630 1.385 . S
C632 C630 1.478 . S
C632 C634 1.381 . S
C632 C638 1.383 . S
C633 C629 1.495 . S
C633 H639 0.959 . S
C633 H640 0.961 . S
C633 H641 0.960 . S
C634 C632 1.381 . S
C634 C635 1.394 . S
C634 H642 0.930 . S
C635 C634 1.394 . S
C635 C636 1.383 . S
C635 H643 0.929 . S
C636 C635 1.383 . S
C636 C637 1.377 . S
C637 H621 0.930 . S
C637 C636 1.377 . S
C637 C638 1.379 . S
C638 H622 0.931 . S
C638 C632 1.383 . S
C638 C637 1.379 . S
H639 C633 0.959 . S
H640 C633 0.961 . S
H641 C633 0.960 . S
H642 C634 0.930 . S
H643 C635 0.929 . S
H644 C652 0.929 . S
H645 C654 0.930 . S
H646 C656 0.930 . S
H647 C659 0.929 . S
H648 C662 0.930 . S
H649 C664 0.960 . S
H650 C664 0.960 . S
H651 C664 0.960 . S
C652 H644 0.929 . S
C652 C653 1.377 . S
C652 C654 1.384 . S
C653 C652 1.377 . S
C653 C659 1.390 . S
C654 H645 0.930 . S
C654 C652 1.384 . S
C654 C655 1.372 . S
C655 C654 1.372 . S
C655 C656 1.400 . S
C655 C660 1.490 . S
C656 H646 0.930 . S
C656 C655 1.400 . S
C656 C659 1.386 . S
H657 C673 0.930 . S
H658 C674 0.931 . S
C659 H647 0.929 . S
C659 C653 1.390 . S
C659 C656 1.386 . S
C660 C655 1.490 . S
C660 C662 1.395 . S
C660 C663 1.403 . S
H661 C667 0.930 . S
C662 H648 0.930 . S
C662 C660 1.395 . S
C662 C665 1.403 . S
C663 C660 1.403 . S
C663 C664 1.524 . S
C663 C667 1.400 . S
C664 H649 0.960 . S
C664 H650 0.960 . S
C664 H651 0.960 . S
C664 C663 1.524 . S
C665 C662 1.403 . S
C665 C666 1.392 . S
C665 C669 1.495 . S
C666 C665 1.392 . S
C666 C667 1.385 . S
C666 C668 1.478 . S
C667 H661 0.930 . S
C667 C663 1.400 . S
C667 C666 1.385 . S
C668 C666 1.478 . S
C668 C670 1.381 . S
C668 C674 1.383 . S
C669 C665 1.495 . S
C669 H675 0.959 . S
C669 H676 0.961 . S
C669 H677 0.960 . S
C670 C668 1.381 . S
C670 C671 1.394 . S
C670 H678 0.930 . S
C671 C670 1.394 . S
C671 C672 1.383 . S
C671 H679 0.929 . S
C672 C671 1.383 . S
C672 C673 1.377 . S
C673 H657 0.930 . S
C673 C672 1.377 . S
C673 C674 1.379 . S
C674 H658 0.931 . S
C674 C668 1.383 . S
C674 C673 1.379 . S
H675 C669 0.959 . S
H676 C669 0.961 . S
H677 C669 0.960 . S
H678 C670 0.930 . S
H679 C671 0.929 . S
H680 C688 0.929 . S
H681 C690 0.930 . S
H682 C692 0.930 . S
H683 C695 0.929 . S
H684 C698 0.930 . S
H685 C700 0.960 . S
H686 C700 0.960 . S
H687 C700 0.960 . S
C688 H680 0.929 . S
C688 C689 1.377 . S
C688 C690 1.384 . S
C689 C688 1.377 . S
C689 C695 1.390 . S
C690 H681 0.930 . S
C690 C688 1.384 . S
C690 C691 1.372 . S
C691 C690 1.372 . S
C691 C692 1.400 . S
C691 C696 1.490 . S
C692 H682 0.930 . S
C692 C691 1.400 . S
C692 C695 1.386 . S
H693 C709 0.930 . S
H694 C710 0.931 . S
C695 H683 0.929 . S
C695 C689 1.390 . S
C695 C692 1.386 . S
C696 C691 1.490 . S
C696 C698 1.395 . S
C696 C699 1.403 . S
H697 C703 0.930 . S
C698 H684 0.930 . S
C698 C696 1.395 . S
C698 C701 1.403 . S
C699 C696 1.403 . S
C699 C700 1.524 . S
C699 C703 1.400 . S
C700 H685 0.960 . S
C700 H686 0.960 . S
C700 H687 0.960 . S
C700 C699 1.524 . S
C701 C698 1.403 . S
C701 C702 1.392 . S
C701 C705 1.495 . S
C702 C701 1.392 . S
C702 C703 1.385 . S
C702 C704 1.478 . S
C703 H697 0.930 . S
C703 C699 1.400 . S
C703 C702 1.385 . S
C704 C702 1.478 . S
C704 C706 1.381 . S
C704 C710 1.383 . S
C705 C701 1.495 . S
C705 H711 0.959 . S
C705 H712 0.961 . S
C705 H713 0.960 . S
C706 C704 1.381 . S
C706 C707 1.394 . S
C706 H714 0.930 . S
C707 C706 1.394 . S
C707 C708 1.383 . S
C707 H715 0.929 . S
C708 C707 1.383 . S
C708 C709 1.377 . S
C709 H693 0.930 . S
C709 C708 1.377 . S
C709 C710 1.379 . S
C710 H694 0.931 . S
C710 C704 1.383 . S
C710 C709 1.379 . S
H711 C705 0.959 . S
H712 C705 0.961 . S
H713 C705 0.960 . S
H714 C706 0.930 . S
H715 C707 0.929 . S
H716 C724 0.929 . S
H717 C726 0.930 . S
H718 C728 0.930 1_554 S
H719 C731 0.929 . S
H720 C734 0.930 . S
H721 C736 0.960 . S
H722 C736 0.960 . S
H723 C736 0.960 . S
C724 H716 0.929 . S
C724 C725 1.377 1_556 S
C724 C726 1.384 . S
C725 C724 1.377 1_554 S
C725 C731 1.390 1_565 S
C726 H717 0.930 . S
C726 C724 1.384 . S
C726 C727 1.372 1_565 S
C727 C726 1.372 1_545 S
C727 C728 1.400 . S
C727 C732 1.490 . S
C728 H718 0.930 1_556 S
C728 C727 1.400 . S
C728 C731 1.386 1_556 S
H729 C745 0.930 . S
H730 C746 0.931 . S
C731 H719 0.929 . S
C731 C725 1.390 1_545 S
C731 C728 1.386 1_554 S
C732 C727 1.490 . S
C732 C734 1.395 . S
C732 C735 1.403 1_545 S
H733 C739 0.930 . S
C734 H720 0.930 . S
C734 C732 1.395 . S
C734 C737 1.403 . S
C735 C732 1.403 1_565 S
C735 C736 1.524 . S
C735 C739 1.400 . S
C736 H721 0.960 . S
C736 H722 0.960 . S
C736 H723 0.960 . S
C736 C735 1.524 . S
C737 C734 1.403 . S
C737 C738 1.392 . S
C737 C741 1.495 . S
C738 C737 1.392 . S
C738 C739 1.385 1_545 S
C738 C740 1.478 . S
C739 H733 0.930 . S
C739 C735 1.400 . S
C739 C738 1.385 1_565 S
C740 C738 1.478 . S
C740 C742 1.381 . S
C740 C746 1.383 . S
C741 C737 1.495 . S
C741 H747 0.959 . S
C741 H748 0.961 . S
C741 H749 0.960 . S
C742 C740 1.381 . S
C742 C743 1.397 . S
C742 H750 0.930 1_545 S
C743 C742 1.397 . S
C743 C744 1.394 . S
C743 H751 0.918 1_545 S
C744 C743 1.394 . S
C744 C745 1.377 . S
C745 H729 0.930 . S
C745 C744 1.377 . S
C745 C746 1.379 . S
C746 H730 0.931 . S
C746 C740 1.383 . S
C746 C745 1.379 . S
H747 C741 0.959 . S
H748 C741 0.961 . S
H749 C741 0.960 . S
H750 C742 0.930 1_565 S
H751 C743 0.918 1_565 S
H752 C760 0.929 . S
H753 C762 0.930 . S
H754 C764 0.930 . S
H755 C767 0.918 1_554 S
H756 C770 0.930 . S
H757 C772 0.960 . S
H758 C772 0.960 . S
H759 C772 0.960 . S
C760 H752 0.929 . S
C760 C761 1.377 . S
C760 C762 1.384 . S
C761 C760 1.377 . S
C761 C767 1.393 . S
C762 H753 0.930 . S
C762 C760 1.384 . S
C762 C763 1.372 . S
C763 C762 1.372 . S
C763 C764 1.400 . S
C763 C768 1.490 . S
C764 H754 0.930 . S
C764 C763 1.400 . S
C764 C767 1.393 . S
H765 C781 0.930 . S
H766 C782 0.931 . S
C767 H755 0.918 1_556 S
C767 C761 1.393 . S
C767 C764 1.393 . S
C768 C763 1.490 . S
C768 C770 1.395 . S
C768 C771 1.403 . S
H769 C775 0.930 . S
C770 H756 0.930 . S
C770 C768 1.395 . S
C770 C773 1.403 . S
C771 C768 1.403 . S
C771 C772 1.524 . S
C771 C775 1.400 . S
C772 H757 0.960 . S
C772 H758 0.960 . S
C772 H759 0.960 . S
C772 C771 1.524 . S
C773 C770 1.403 . S
C773 C774 1.392 . S
C773 C777 1.495 . S
C774 C773 1.392 . S
C774 C775 1.385 . S
C774 C776 1.478 . S
C775 H769 0.930 . S
C775 C771 1.400 . S
C775 C774 1.385 . S
C776 C774 1.478 . S
C776 C778 1.381 . S
C776 C782 1.383 . S
C777 C773 1.495 . S
C777 H783 0.959 . S
C777 H784 0.961 . S
C777 H785 0.960 . S
C778 C776 1.381 . S
C778 C779 1.394 . S
C778 H786 0.930 . S
C779 C778 1.394 . S
C779 C780 1.383 . S
C779 H787 0.929 . S
C780 C779 1.383 . S
C780 C781 1.377 . S
C781 H765 0.930 . S
C781 C780 1.377 . S
C781 C782 1.379 . S
C782 H766 0.931 . S
C782 C776 1.383 . S
C782 C781 1.379 . S
H783 C777 0.959 . S
H784 C777 0.961 . S
H785 C777 0.960 . S
H786 C778 0.930 . S
H787 C779 0.929 . S
H788 C796 0.929 . S
H789 C798 0.930 . S
H790 C800 0.930 . S
H791 C803 0.929 1_554 S
H792 C806 0.930 . S
H793 C808 0.960 . S
H794 C808 0.960 . S
H795 C808 0.960 . S
C796 H788 0.929 . S
C796 C797 1.377 . S
C796 C798 1.384 . S
C797 C796 1.377 . S
C797 C803 1.390 . S
C798 H789 0.930 . S
C798 C796 1.384 . S
C798 C799 1.372 . S
C799 C798 1.372 . S
C799 C800 1.400 . S
C799 C804 1.490 . S
C800 H790 0.930 . S
C800 C799 1.400 . S
C800 C803 1.386 . S
H801 C817 0.930 . S
H802 C818 0.931 . S
C803 H791 0.929 1_556 S
C803 C797 1.390 . S
C803 C800 1.386 . S
C804 C799 1.490 . S
C804 C806 1.395 . S
C804 C807 1.403 . S
H805 C811 0.930 . S
C806 H792 0.930 . S
C806 C804 1.395 . S
C806 C809 1.403 . S
C807 C804 1.403 . S
C807 C808 1.524 . S
C807 C811 1.400 . S
C808 H793 0.960 . S
C808 H794 0.960 . S
C808 H795 0.960 . S
C808 C807 1.524 . S
C809 C806 1.403 . S
C809 C810 1.392 . S
C809 C813 1.495 . S
C810 C809 1.392 . S
C810 C811 1.385 . S
C810 C812 1.478 . S
C811 H805 0.930 . S
C811 C807 1.400 . S
C811 C810 1.385 . S
C812 C810 1.478 . S
C812 C814 1.381 . S
C812 C818 1.383 . S
C813 C809 1.495 . S
C813 H819 0.959 . S
C813 H820 0.961 . S
C813 H821 0.960 . S
C814 C812 1.381 . S
C814 C815 1.394 . S
C814 H822 0.930 . S
C815 C814 1.394 . S
C815 C816 1.383 . S
C815 H823 0.929 . S
C816 C815 1.383 . S
C816 C817 1.377 . S
C817 H801 0.930 . S
C817 C816 1.377 . S
C817 C818 1.379 . S
C818 H802 0.931 . S
C818 C812 1.383 . S
C818 C817 1.379 . S
H819 C813 0.959 . S
H820 C813 0.961 . S
H821 C813 0.960 . S
H822 C814 0.930 . S
H823 C815 0.929 . S
H824 C832 0.929 . S
H825 C834 0.930 1_554 S
H826 C836 0.949 . S
H827 C839 0.929 1_455 S
H828 C842 0.930 . S
H829 C844 0.960 . S
H830 C844 0.960 . S
H831 C844 0.960 . S
C832 H824 0.929 . S
C832 C833 1.377 . S
C832 C834 1.384 1_554 S
C833 C832 1.377 . S
C833 C839 1.390 1_554 S
C834 H825 0.930 1_556 S
C834 C832 1.384 1_556 S
C834 C835 1.372 . S
C835 C834 1.372 . S
C835 C836 1.388 1_655 S
C835 C840 1.490 . S
C836 H826 0.949 . S
C836 C835 1.388 1_455 S
C836 C839 1.380 1_455 S
H837 C853 0.930 . S
H838 C854 0.931 . S
C839 H827 0.929 1_655 S
C839 C833 1.390 1_556 S
C839 C836 1.380 1_655 S
C840 C835 1.490 . S
C840 C842 1.395 . S
C840 C843 1.403 1_655 S
H841 C847 0.930 . S
C842 H828 0.930 . S
C842 C840 1.395 . S
C842 C845 1.403 . S
C843 C840 1.403 1_455 S
C843 C844 1.524 . S
C843 C847 1.400 . S
C844 H829 0.960 . S
C844 H830 0.960 . S
C844 H831 0.960 . S
C844 C843 1.524 . S
C845 C842 1.403 . S
C845 C846 1.392 . S
C845 C849 1.495 . S
C846 C845 1.392 . S
C846 C847 1.385 1_655 S
C846 C848 1.474 1_655 S
C847 H841 0.930 . S
C847 C843 1.400 . S
C847 C846 1.385 1_455 S
C848 C846 1.474 1_455 S
C848 C850 1.377 1_455 S
C848 C854 1.393 . S
C849 C845 1.495 . S
C849 H855 0.959 . S
C849 H856 0.961 . S
C849 H857 0.960 . S
C850 C848 1.377 1_655 S
C850 C851 1.393 1_655 S
C850 H858 0.930 . S
C851 C850 1.393 1_455 S
C851 C852 1.386 . S
C851 H859 0.928 1_455 S
C852 C851 1.386 . S
C852 C853 1.377 . S
C853 H837 0.930 . S
C853 C852 1.377 . S
C853 C854 1.379 . S
C854 H838 0.931 . S
C854 C848 1.393 . S
C854 C853 1.379 . S
H855 C849 0.959 . S
H856 C849 0.961 . S
H857 C849 0.960 . S
H858 C850 0.930 . S
H859 C851 0.928 1_655 S
H860 C868 0.929 . S
H861 C870 0.930 . S
H862 C872 0.930 . S
H863 C875 0.929 . S
H864 C878 0.930 . S
H865 C880 0.960 . S
H866 C880 0.960 . S
H867 C880 0.960 . S
C868 H860 0.929 . S
C868 C869 1.377 . S
C868 C870 1.384 . S
C869 C868 1.377 . S
C869 C875 1.390 . S
C870 H861 0.930 . S
C870 C868 1.384 . S
C870 C871 1.372 . S
C871 C870 1.372 . S
C871 C872 1.400 . S
C871 C876 1.490 . S
C872 H862 0.930 . S
C872 C871 1.400 . S
C872 C875 1.386 . S
H873 C889 0.930 . S
H874 C890 0.931 . S
C875 H863 0.929 . S
C875 C869 1.390 . S
C875 C872 1.386 . S
C876 C871 1.490 . S
C876 C878 1.395 . S
C876 C879 1.403 . S
H877 C883 0.930 . S
C878 H864 0.930 . S
C878 C876 1.395 . S
C878 C881 1.403 . S
C879 C876 1.403 . S
C879 C880 1.524 . S
C879 C883 1.400 . S
C880 H865 0.960 . S
C880 H866 0.960 . S
C880 H867 0.960 . S
C880 C879 1.524 . S
C881 C878 1.403 . S
C881 C882 1.392 . S
C881 C885 1.495 . S
C882 C881 1.392 . S
C882 C883 1.385 . S
C882 C884 1.478 . S
C883 H877 0.930 . S
C883 C879 1.400 . S
C883 C882 1.385 . S
C884 C882 1.478 . S
C884 C886 1.381 . S
C884 C890 1.383 . S
C885 C881 1.495 . S
C885 H891 0.959 . S
C885 H892 0.961 . S
C885 H893 0.960 . S
C886 C884 1.381 . S
C886 C887 1.394 . S
C886 H894 0.930 . S
C887 C886 1.394 . S
C887 C888 1.383 . S
C887 H895 0.929 . S
C888 C887 1.383 . S
C888 C889 1.377 . S
C889 H873 0.930 . S
C889 C888 1.377 . S
C889 C890 1.379 . S
C890 H874 0.931 . S
C890 C884 1.383 . S
C890 C889 1.379 . S
H891 C885 0.959 . S
H892 C885 0.961 . S
H893 C885 0.960 . S
H894 C886 0.930 . S
H895 C887 0.929 . S
H896 C904 0.929 . S
H897 C906 0.930 . S
H898 C908 0.930 . S
H899 C911 0.929 . S
H900 C914 0.930 . S
H901 C916 0.960 . S
H902 C916 0.960 1_565 S
H903 C916 0.960 . S
C904 H896 0.929 . S
C904 C905 1.365 1_565 S
C904 C906 1.384 . S
C905 C904 1.365 1_545 S
C905 C911 1.401 . S
C906 H897 0.930 . S
C906 C904 1.384 . S
C906 C907 1.372 . S
C907 C906 1.372 . S
C907 C908 1.400 1_565 S
C907 C912 1.490 . S
C908 H898 0.930 . S
C908 C907 1.400 1_545 S
C908 C911 1.386 . S
H909 C925 0.930 . S
H910 C926 0.931 . S
C911 H899 0.929 . S
C911 C905 1.401 . S
C911 C908 1.386 . S
C912 C907 1.490 . S
C912 C914 1.395 . S
C912 C915 1.403 1_565 S
H913 C919 0.930 1_545 S
C914 H900 0.930 . S
C914 C912 1.395 . S
C914 C917 1.403 . S
C915 C912 1.403 1_545 S
C915 C916 1.523 . S
C915 C919 1.400 1_545 S
C916 H901 0.960 . S
C916 H902 0.960 1_545 S
C916 H903 0.960 . S
C916 C915 1.523 . S
C917 C914 1.403 . S
C917 C918 1.392 . S
C917 C921 1.495 . S
C918 C917 1.392 . S
C918 C919 1.386 . S
C918 C920 1.478 . S
C919 H913 0.930 1_565 S
C919 C915 1.400 1_565 S
C919 C918 1.386 . S
C920 C918 1.478 . S
C920 C922 1.381 . S
C920 C926 1.383 1_565 S
C921 C917 1.495 . S
C921 H927 0.959 . S
C921 H928 0.961 1_565 S
C921 H929 0.960 . S
C922 C920 1.381 . S
C922 C923 1.394 . S
C922 H930 0.930 . S
C923 C922 1.394 . S
C923 C924 1.383 . S
C923 H931 0.929 . S
C924 C923 1.383 . S
C924 C925 1.377 1_565 S
C925 H909 0.930 . S
C925 C924 1.377 1_545 S
C925 C926 1.379 . S
C926 H910 0.931 . S
C926 C920 1.383 1_545 S
C926 C925 1.379 . S
H927 C921 0.959 . S
H928 C921 0.961 1_545 S
H929 C921 0.960 . S
H930 C922 0.930 . S
H931 C923 0.929 . S
H932 C940 0.929 . S
H933 C942 0.930 . S
H934 C944 0.930 . S
H935 C947 0.929 . S
H936 C950 0.930 . S
H937 C952 0.960 . S
H938 C952 0.960 . S
H939 C952 0.960 . S
C940 H932 0.929 . S
C940 C941 1.377 . S
C940 C942 1.384 . S
C941 C940 1.377 . S
C941 C947 1.390 . S
C942 H933 0.930 . S
C942 C940 1.384 . S
C942 C943 1.372 . S
C943 C942 1.372 . S
C943 C944 1.400 . S
C943 C948 1.490 . S
C944 H934 0.930 . S
C944 C943 1.400 . S
C944 C947 1.386 . S
H945 C961 0.930 . S
H946 C962 0.931 . S
C947 H935 0.929 . S
C947 C941 1.390 . S
C947 C944 1.386 . S
C948 C943 1.490 . S
C948 C950 1.395 . S
C948 C951 1.403 . S
H949 C955 0.930 . S
C950 H936 0.930 . S
C950 C948 1.395 . S
C950 C953 1.403 . S
C951 C948 1.403 . S
C951 C952 1.524 . S
C951 C955 1.400 . S
C952 H937 0.960 . S
C952 H938 0.960 . S
C952 H939 0.960 . S
C952 C951 1.524 . S
C953 C950 1.403 . S
C953 C954 1.392 . S
C953 C957 1.495 . S
C954 C953 1.392 . S
C954 C955 1.385 . S
C954 C956 1.478 . S
C955 H949 0.930 . S
C955 C951 1.400 . S
C955 C954 1.385 . S
C956 C954 1.478 . S
C956 C958 1.381 . S
C956 C962 1.383 . S
C957 C953 1.495 . S
C957 H963 0.959 . S
C957 H964 0.961 . S
C957 H965 0.960 . S
C958 C956 1.381 . S
C958 C959 1.394 . S
C958 H966 0.930 . S
C959 C958 1.394 . S
C959 C960 1.383 . S
C959 H967 0.929 . S
C960 C959 1.383 . S
C960 C961 1.377 . S
C961 H945 0.930 . S
C961 C960 1.377 . S
C961 C962 1.379 . S
C962 H946 0.931 . S
C962 C956 1.383 . S
C962 C961 1.379 . S
H963 C957 0.959 . S
H964 C957 0.961 . S
H965 C957 0.960 . S
H966 C958 0.930 . S
H967 C959 0.929 . S
H968 C976 0.929 . S
H969 C978 0.930 . S
H970 C980 0.930 . S
H971 C983 0.929 . S
H972 C986 0.930 . S
H973 C988 0.960 . S
H974 C988 0.960 . S
H975 C988 0.960 . S
C976 H968 0.929 . S
C976 C977 1.377 . S
C976 C978 1.384 . S
C977 C976 1.377 . S
C977 C983 1.390 . S
C978 H969 0.930 . S
C978 C976 1.384 . S
C978 C979 1.372 . S
C979 C978 1.372 . S
C979 C980 1.400 . S
C979 C984 1.490 . S
C980 H970 0.930 . S
C980 C979 1.400 . S
C980 C983 1.386 . S
H981 C997 0.930 . S
H982 C998 0.931 . S
C983 H971 0.929 . S
C983 C977 1.390 . S
C983 C980 1.386 . S
C984 C979 1.490 . S
C984 C986 1.395 . S
C984 C987 1.403 . S
H985 C991 0.930 . S
C986 H972 0.930 . S
C986 C984 1.395 . S
C986 C989 1.403 . S
C987 C984 1.403 . S
C987 C988 1.524 . S
C987 C991 1.400 . S
C988 H973 0.960 . S
C988 H974 0.960 . S
C988 H975 0.960 . S
C988 C987 1.524 . S
C989 C986 1.403 . S
C989 C990 1.392 . S
C989 C993 1.495 . S
C990 C989 1.392 . S
C990 C991 1.385 . S
C990 C992 1.478 . S
C991 H985 0.930 . S
C991 C987 1.400 . S
C991 C990 1.385 . S
C992 C990 1.478 . S
C992 C994 1.381 . S
C992 C998 1.383 . S
C993 C989 1.495 . S
C993 H999 0.959 . S
C993 H1000 0.961 . S
C993 H1001 0.960 . S
C994 C992 1.381 . S
C994 C995 1.394 . S
C994 H1002 0.930 . S
C995 C994 1.394 . S
C995 C996 1.383 . S
C995 H1003 0.929 . S
C996 C995 1.383 . S
C996 C997 1.377 . S
C997 H981 0.930 . S
C997 C996 1.377 . S
C997 C998 1.379 . S
C998 H982 0.931 . S
C998 C992 1.383 . S
C998 C997 1.379 . S
H999 C993 0.959 . S
H1000 C993 0.961 . S
H1001 C993 0.960 . S
H1002 C994 0.930 . S
H1003 C995 0.929 . S
H1004 C1012 0.929 1_554 S
H1005 C1014 0.930 . S
H1006 C1016 0.930 . S
H1007 C1019 0.929 . S
H1008 C1022 0.930 . S
H1009 C1024 0.960 . S
H1010 C1024 0.960 . S
H1011 C1024 0.960 . S
C1012 H1004 0.929 1_556 S
C1012 C1013 1.377 1_455 S
C1012 C1014 1.384 . S
C1013 C1012 1.377 1_655 S
C1013 C1019 1.390 . S
C1014 H1005 0.930 . S
C1014 C1012 1.384 . S
C1014 C1015 1.372 . S
C1015 C1014 1.372 . S
C1015 C1016 1.400 1_455 S
C1015 C1020 1.490 . S
C1016 H1006 0.930 . S
C1016 C1015 1.400 1_655 S
C1016 C1019 1.386 . S
H1017 C1033 0.930 . S
H1018 C1034 0.931 . S
C1019 H1007 0.929 . S
C1019 C1013 1.390 . S
C1019 C1016 1.386 . S
C1020 C1015 1.490 . S
C1020 C1022 1.395 . S
C1020 C1023 1.403 . S
H1021 C1027 0.930 . S
C1022 H1008 0.930 . S
C1022 C1020 1.395 . S
C1022 C1025 1.403 . S
C1023 C1020 1.403 . S
C1023 C1024 1.524 1_455 S
C1023 C1027 1.400 . S
C1024 H1009 0.960 . S
C1024 H1010 0.960 . S
C1024 H1011 0.960 . S
C1024 C1023 1.524 1_655 S
C1025 C1022 1.403 . S
C1025 C1026 1.392 . S
C1025 C1029 1.495 . S
C1026 C1025 1.392 . S
C1026 C1027 1.385 . S
C1026 C1028 1.478 . S
C1027 H1021 0.930 . S
C1027 C1023 1.400 . S
C1027 C1026 1.385 . S
C1028 C1026 1.478 . S
C1028 C1030 1.381 . S
C1028 C1034 1.383 . S
C1029 C1025 1.495 . S
C1029 H1035 0.959 . S
C1029 H1036 0.961 . S
C1029 H1037 0.960 . S
C1030 C1028 1.381 . S
C1030 C1031 1.394 . S
C1030 H1038 0.930 . S
C1031 C1030 1.394 . S
C1031 C1032 1.383 . S
C1031 H1039 0.929 . S
C1032 C1031 1.383 . S
C1032 C1033 1.377 . S
C1033 H1017 0.930 . S
C1033 C1032 1.377 . S
C1033 C1034 1.379 . S
C1034 H1018 0.931 . S
C1034 C1028 1.383 . S
C1034 C1033 1.379 . S
H1035 C1029 0.959 . S
H1036 C1029 0.961 . S
H1037 C1029 0.960 . S
H1038 C1030 0.930 . S
H1039 C1031 0.929 . S
H1040 C1048 0.929 . S
H1041 C1050 0.930 . S
H1042 C1052 0.930 . S
H1043 C1055 0.929 . S
H1044 C1058 0.930 . S
H1045 C1060 0.960 . S
H1046 C1060 0.960 . S
H1047 C1060 0.960 . S
C1048 H1040 0.929 . S
C1048 C1049 1.377 . S
C1048 C1050 1.384 . S
C1049 C1048 1.377 . S
C1049 C1055 1.390 1_565 S
C1050 H1041 0.930 . S
C1050 C1048 1.384 . S
C1050 C1051 1.372 1_565 S
C1051 C1050 1.372 1_545 S
C1051 C1052 1.400 . S
C1051 C1056 1.490 . S
C1052 H1042 0.930 . S
C1052 C1051 1.400 . S
C1052 C1055 1.386 . S
H1053 C1069 0.930 . S
H1054 C1070 0.931 . S
C1055 H1043 0.929 . S
C1055 C1049 1.390 1_545 S
C1055 C1052 1.386 . S
C1056 C1051 1.490 . S
C1056 C1058 1.395 1_545 S
C1056 C1059 1.403 . S
H1057 C1063 0.930 . S
C1058 H1044 0.930 . S
C1058 C1056 1.395 1_565 S
C1058 C1061 1.403 . S
C1059 C1056 1.403 . S
C1059 C1060 1.524 . S
C1059 C1063 1.400 . S
C1060 H1045 0.960 . S
C1060 H1046 0.960 . S
C1060 H1047 0.960 . S
C1060 C1059 1.524 . S
C1061 C1058 1.403 . S
C1061 C1062 1.392 1_565 S
C1061 C1065 1.495 . S
C1062 C1061 1.392 1_545 S
C1062 C1063 1.385 . S
C1062 C1064 1.478 . S
C1063 H1057 0.930 . S
C1063 C1059 1.400 . S
C1063 C1062 1.385 . S
C1064 C1062 1.478 . S
C1064 C1066 1.381 . S
C1064 C1070 1.383 . S
C1065 C1061 1.495 . S
C1065 H1071 0.959 . S
C1065 H1072 0.961 . S
C1065 H1073 0.960 . S
C1066 C1064 1.381 . S
C1066 C1067 1.394 . S
C1066 H1074 0.930 1_545 S
C1067 C1066 1.394 . S
C1067 C1068 1.383 . S
C1067 H1075 0.929 . S
C1068 C1067 1.383 . S
C1068 C1069 1.377 . S
C1069 H1053 0.930 . S
C1069 C1068 1.377 . S
C1069 C1070 1.379 . S
C1070 H1054 0.931 . S
C1070 C1064 1.383 . S
C1070 C1069 1.379 . S
H1071 C1065 0.959 . S
H1072 C1065 0.961 . S
H1073 C1065 0.960 . S
H1074 C1066 0.930 1_565 S
H1075 C1067 0.929 . S
H1076 C1084 0.929 . S
H1077 C1086 0.930 . S
H1078 C1088 0.930 . S
H1079 C1091 0.929 . S
H1080 C1094 0.930 . S
H1081 C1096 0.960 . S
H1082 C1096 0.960 . S
H1083 C1096 0.960 . S
C1084 H1076 0.929 . S
C1084 C1085 1.377 . S
C1084 C1086 1.384 . S
C1085 C1084 1.377 . S
C1085 C1091 1.390 . S
C1086 H1077 0.930 . S
C1086 C1084 1.384 . S
C1086 C1087 1.372 . S
C1087 C1086 1.372 . S
C1087 C1088 1.400 . S
C1087 C1092 1.490 . S
C1088 H1078 0.930 . S
C1088 C1087 1.400 . S
C1088 C1091 1.386 . S
H1089 C1105 0.930 . S
H1090 C1106 0.931 . S
C1091 H1079 0.929 . S
C1091 C1085 1.390 . S
C1091 C1088 1.386 . S
C1092 C1087 1.490 . S
C1092 C1094 1.395 . S
C1092 C1095 1.403 . S
H1093 C1099 0.930 . S
C1094 H1080 0.930 . S
C1094 C1092 1.395 . S
C1094 C1097 1.403 . S
C1095 C1092 1.403 . S
C1095 C1096 1.524 . S
C1095 C1099 1.400 . S
C1096 H1081 0.960 . S
C1096 H1082 0.960 . S
C1096 H1083 0.960 . S
C1096 C1095 1.524 . S
C1097 C1094 1.403 . S
C1097 C1098 1.392 . S
C1097 C1101 1.495 . S
C1098 C1097 1.392 . S
C1098 C1099 1.385 . S
C1098 C1100 1.478 . S
C1099 H1093 0.930 . S
C1099 C1095 1.400 . S
C1099 C1098 1.385 . S
C1100 C1098 1.478 . S
C1100 C1102 1.381 . S
C1100 C1106 1.383 . S
C1101 C1097 1.495 . S
C1101 H1107 0.959 . S
C1101 H1108 0.961 . S
C1101 H1109 0.960 . S
C1102 C1100 1.381 . S
C1102 C1103 1.394 . S
C1102 H1110 0.930 . S
C1103 C1102 1.394 . S
C1103 C1104 1.383 . S
C1103 H1111 0.929 . S
C1104 C1103 1.383 . S
C1104 C1105 1.377 . S
C1105 H1089 0.930 . S
C1105 C1104 1.377 . S
C1105 C1106 1.379 . S
C1106 H1090 0.931 . S
C1106 C1100 1.383 . S
C1106 C1105 1.379 . S
H1107 C1101 0.959 . S
H1108 C1101 0.961 . S
H1109 C1101 0.960 . S
H1110 C1102 0.930 . S
H1111 C1103 0.929 . S
H1112 C1120 0.929 . S
H1113 C1122 0.930 . S
H1114 C1124 0.930 . S
H1115 C1127 0.929 . S
H1116 C1130 0.930 . S
H1117 C1132 0.960 . S
H1118 C1132 0.960 . S
H1119 C1132 0.960 . S
C1120 H1112 0.929 . S
C1120 C1121 1.377 . S
C1120 C1122 1.384 . S
C1121 C1120 1.377 . S
C1121 C1127 1.390 . S
C1122 H1113 0.930 . S
C1122 C1120 1.384 . S
C1122 C1123 1.372 . S
C1123 C1122 1.372 . S
C1123 C1124 1.400 . S
C1123 C1128 1.490 . S
C1124 H1114 0.930 . S
C1124 C1123 1.400 . S
C1124 C1127 1.386 . S
H1125 C1141 0.930 . S
H1126 C1142 0.931 . S
C1127 H1115 0.929 . S
C1127 C1121 1.390 . S
C1127 C1124 1.386 . S
C1128 C1123 1.490 . S
C1128 C1130 1.395 . S
C1128 C1131 1.403 . S
H1129 C1135 0.930 . S
C1130 H1116 0.930 . S
C1130 C1128 1.395 . S
C1130 C1133 1.403 . S
C1131 C1128 1.403 . S
C1131 C1132 1.524 . S
C1131 C1135 1.400 . S
C1132 H1117 0.960 . S
C1132 H1118 0.960 . S
C1132 H1119 0.960 . S
C1132 C1131 1.524 . S
C1133 C1130 1.403 . S
C1133 C1134 1.392 . S
C1133 C1137 1.495 . S
C1134 C1133 1.392 . S
C1134 C1135 1.385 . S
C1134 C1136 1.478 . S
C1135 H1129 0.930 . S
C1135 C1131 1.400 . S
C1135 C1134 1.385 . S
C1136 C1134 1.478 . S
C1136 C1138 1.381 . S
C1136 C1142 1.383 . S
C1137 C1133 1.495 . S
C1137 H1143 0.959 . S
C1137 H1144 0.961 . S
C1137 H1145 0.960 . S
C1138 C1136 1.381 . S
C1138 C1139 1.394 . S
C1138 H1146 0.930 . S
C1139 C1138 1.394 . S
C1139 C1140 1.383 . S
C1139 H1147 0.929 . S
C1140 C1139 1.383 . S
C1140 C1141 1.377 . S
C1141 H1125 0.930 . S
C1141 C1140 1.377 . S
C1141 C1142 1.379 . S
C1142 H1126 0.931 . S
C1142 C1136 1.383 . S
C1142 C1141 1.379 . S
H1143 C1137 0.959 . S
H1144 C1137 0.961 . S
H1145 C1137 0.960 . S
H1146 C1138 0.930 . S
H1147 C1139 0.929 . S
H1148 C1156 0.929 . S
H1149 C1158 0.930 . S
H1150 C1160 0.930 1_556 S
H1151 C1163 0.929 . S
H1152 C1166 0.930 1_554 S
H1153 C1168 0.960 . S
H1154 C1168 0.960 1_554 S
H1155 C1168 0.960 . S
C1156 H1148 0.929 . S
C1156 C1157 1.377 . S
C1156 C1158 1.384 . S
C1157 C1156 1.377 . S
C1157 C1163 1.390 . S
C1158 H1149 0.930 . S
C1158 C1156 1.384 . S
C1158 C1159 1.372 . S
C1159 C1158 1.372 . S
C1159 C1160 1.400 . S
C1159 C1164 1.490 . S
C1160 H1150 0.930 1_554 S
C1160 C1159 1.400 . S
C1160 C1163 1.386 . S
H1161 C1177 0.930 . S
H1162 C1178 0.931 . S
C1163 H1151 0.929 . S
C1163 C1157 1.390 . S
C1163 C1160 1.386 . S
C1164 C1159 1.490 . S
C1164 C1166 1.395 1_554 S
C1164 C1167 1.403 1_554 S
H1165 C1171 0.930 . S
C1166 H1152 0.930 1_556 S
C1166 C1164 1.395 1_556 S
C1166 C1169 1.403 . S
C1167 C1164 1.403 1_556 S
C1167 C1168 1.524 . S
C1167 C1171 1.400 . S
C1168 H1153 0.960 . S
C1168 H1154 0.960 1_556 S
C1168 H1155 0.960 . S
C1168 C1167 1.524 . S
C1169 C1166 1.403 . S
C1169 C1170 1.392 . S
C1169 C1173 1.495 . S
C1170 C1169 1.392 . S
C1170 C1171 1.385 . S
C1170 C1172 1.478 . S
C1171 H1165 0.930 . S
C1171 C1167 1.400 . S
C1171 C1170 1.385 . S
C1172 C1170 1.478 . S
C1172 C1174 1.381 . S
C1172 C1178 1.383 . S
C1173 C1169 1.495 . S
C1173 H1179 0.959 . S
C1173 H1180 0.961 . S
C1173 H1181 0.960 . S
C1174 C1172 1.381 . S
C1174 C1175 1.394 . S
C1174 H1182 0.930 . S
C1175 C1174 1.394 . S
C1175 C1176 1.383 . S
C1175 H1183 0.929 . S
C1176 C1175 1.383 . S
C1176 C1177 1.377 . S
C1177 H1161 0.930 . S
C1177 C1176 1.377 . S
C1177 C1178 1.379 . S
C1178 H1162 0.931 . S
C1178 C1172 1.383 . S
C1178 C1177 1.379 . S
H1179 C1173 0.959 . S
H1180 C1173 0.961 . S
H1181 C1173 0.960 . S
H1182 C1174 0.930 . S
H1183 C1175 0.929 . S
H1184 C1192 0.929 . S
H1185 C1194 0.930 . S
H1186 C1196 0.930 . S
H1187 C1199 0.929 1_556 S
H1188 C1202 0.930 1_554 S
H1189 C1204 0.960 . S
H1190 C1204 0.960 . S
H1191 C1204 0.960 . S
C1192 H1184 0.929 . S
C1192 C1193 1.388 . S
C1192 C1194 1.384 . S
C1193 C1192 1.388 . S
C1193 C1199 1.379 1_545 S
C1194 H1185 0.930 . S
C1194 C1192 1.384 . S
C1194 C1195 1.397 1_554 S
C1195 C1194 1.397 1_556 S
C1195 C1196 1.378 1_545 S
C1195 C1200 1.489 . S
C1196 H1186 0.930 . S
C1196 C1195 1.378 1_565 S
C1196 C1199 1.386 1_556 S
H1197 C1213 0.930 . S
H1198 C1214 0.931 . S
C1199 H1187 0.929 1_554 S
C1199 C1193 1.379 1_565 S
C1199 C1196 1.386 1_554 S
C1200 C1195 1.489 . S
C1200 C1202 1.383 1_545 S
C1200 C1203 1.413 . S
H1201 C1207 0.930 . S
C1202 H1188 0.930 1_556 S
C1202 C1200 1.383 1_565 S
C1202 C1205 1.403 . S
C1203 C1200 1.413 . S
C1203 C1204 1.524 . S
C1203 C1207 1.400 . S
C1204 H1189 0.960 . S
C1204 H1190 0.960 . S
C1204 H1191 0.960 . S
C1204 C1203 1.524 . S
C1205 C1202 1.403 . S
C1205 C1206 1.392 . S
C1205 C1209 1.495 . S
C1206 C1205 1.392 . S
C1206 C1207 1.385 1_565 S
C1206 C1208 1.478 . S
C1207 H1201 0.930 . S
C1207 C1203 1.400 . S
C1207 C1206 1.385 1_545 S
C1208 C1206 1.478 . S
C1208 C1210 1.381 1_565 S
C1208 C1214 1.383 . S
C1209 C1205 1.495 . S
C1209 H1215 0.959 1_556 S
C1209 H1216 0.961 . S
C1209 H1217 0.960 . S
C1210 C1208 1.381 1_545 S
C1210 C1211 1.394 . S
C1210 H1218 0.930 . S
C1211 C1210 1.394 . S
C1211 C1212 1.354 1_545 S
C1211 H1219 0.929 . S
C1212 C1211 1.354 1_565 S
C1212 C1213 1.406 . S
C1213 H1197 0.930 . S
C1213 C1212 1.406 . S
C1213 C1214 1.379 . S
C1214 H1198 0.931 . S
C1214 C1208 1.383 . S
C1214 C1213 1.379 . S
H1215 C1209 0.959 1_554 S
H1216 C1209 0.961 . S
H1217 C1209 0.960 . S
H1218 C1210 0.930 . S
H1219 C1211 0.929 . S
H1220 C1228 0.929 . S
H1221 C1230 0.930 . S
H1222 C1232 0.930 . S
H1223 C1235 0.929 . S
H1224 C1238 0.930 . S
H1225 C1240 0.960 . S
H1226 C1240 0.960 . S
H1227 C1240 0.960 . S
C1228 H1220 0.929 . S
C1228 C1229 1.377 . S
C1228 C1230 1.384 . S
C1229 C1228 1.377 . S
C1229 C1235 1.390 1_554 S
C1230 H1221 0.930 . S
C1230 C1228 1.384 . S
C1230 C1231 1.372 1_554 S
C1231 C1230 1.372 1_556 S
C1231 C1232 1.400 . S
C1231 C1236 1.490 . S
C1232 H1222 0.930 . S
C1232 C1231 1.400 . S
C1232 C1235 1.386 . S
H1233 C1249 0.930 . S
H1234 C1250 0.931 . S
C1235 H1223 0.929 . S
C1235 C1229 1.390 1_556 S
C1235 C1232 1.386 . S
C1236 C1231 1.490 . S
C1236 C1238 1.395 . S
C1236 C1239 1.403 . S
H1237 C1243 0.930 . S
C1238 H1224 0.930 . S
C1238 C1236 1.395 . S
C1238 C1241 1.403 . S
C1239 C1236 1.403 . S
C1239 C1240 1.524 . S
C1239 C1243 1.400 . S
C1240 H1225 0.960 . S
C1240 H1226 0.960 . S
C1240 H1227 0.960 . S
C1240 C1239 1.524 . S
C1241 C1238 1.403 . S
C1241 C1242 1.392 . S
C1241 C1245 1.495 . S
C1242 C1241 1.392 . S
C1242 C1243 1.385 . S
C1242 C1244 1.478 . S
C1243 H1237 0.930 . S
C1243 C1239 1.400 . S
C1243 C1242 1.385 . S
C1244 C1242 1.478 . S
C1244 C1246 1.381 . S
C1244 C1250 1.383 . S
C1245 C1241 1.495 . S
C1245 H1251 0.959 . S
C1245 H1252 0.961 . S
C1245 H1253 0.960 . S
C1246 C1244 1.381 . S
C1246 C1247 1.394 . S
C1246 H1254 0.930 . S
C1247 C1246 1.394 . S
C1247 C1248 1.383 . S
C1247 H1255 0.929 . S
C1248 C1247 1.383 . S
C1248 C1249 1.377 . S
C1249 H1233 0.930 . S
C1249 C1248 1.377 . S
C1249 C1250 1.379 . S
C1250 H1234 0.931 . S
C1250 C1244 1.383 . S
C1250 C1249 1.379 . S
H1251 C1245 0.959 . S
H1252 C1245 0.961 . S
H1253 C1245 0.960 . S
H1254 C1246 0.930 . S
H1255 C1247 0.929 . S
H1256 C1264 0.929 . S
H1257 C1266 0.930 . S
H1258 C1268 0.930 . S
H1259 C1271 0.929 . S
H1260 C1274 0.930 . S
H1261 C1276 0.960 . S
H1262 C1276 0.960 . S
H1263 C1276 0.960 . S
C1264 H1256 0.929 . S
C1264 C1265 1.377 . S
C1264 C1266 1.384 . S
C1265 C1264 1.377 . S
C1265 C1271 1.390 1_554 S
C1266 H1257 0.930 . S
C1266 C1264 1.384 . S
C1266 C1267 1.372 1_554 S
C1267 C1266 1.372 1_556 S
C1267 C1268 1.400 . S
C1267 C1272 1.490 . S
C1268 H1258 0.930 . S
C1268 C1267 1.400 . S
C1268 C1271 1.386 . S
H1269 C1285 0.930 . S
H1270 C1286 0.931 . S
C1271 H1259 0.929 . S
C1271 C1265 1.390 1_556 S
C1271 C1268 1.386 . S
C1272 C1267 1.490 . S
C1272 C1274 1.395 . S
C1272 C1275 1.403 . S
H1273 C1279 0.930 . S
C1274 H1260 0.930 . S
C1274 C1272 1.395 . S
C1274 C1277 1.403 . S
C1275 C1272 1.403 . S
C1275 C1276 1.524 . S
C1275 C1279 1.400 . S
C1276 H1261 0.960 . S
C1276 H1262 0.960 . S
C1276 H1263 0.960 . S
C1276 C1275 1.524 . S
C1277 C1274 1.403 . S
C1277 C1278 1.392 . S
C1277 C1281 1.495 . S
C1278 C1277 1.392 . S
C1278 C1279 1.385 . S
C1278 C1280 1.478 . S
C1279 H1273 0.930 . S
C1279 C1275 1.400 . S
C1279 C1278 1.385 . S
C1280 C1278 1.478 . S
C1280 C1282 1.381 . S
C1280 C1286 1.383 . S
C1281 C1277 1.495 . S
C1281 H1287 0.959 . S
C1281 H1288 0.961 . S
C1281 H1289 0.960 . S
C1282 C1280 1.381 . S
C1282 C1283 1.394 . S
C1282 H1290 0.930 . S
C1283 C1282 1.394 . S
C1283 C1284 1.383 . S
C1283 H1291 0.929 . S
C1284 C1283 1.383 . S
C1284 C1285 1.377 . S
C1285 H1269 0.930 . S
C1285 C1284 1.377 . S
C1285 C1286 1.379 . S
C1286 H1270 0.931 . S
C1286 C1280 1.383 . S
C1286 C1285 1.379 . S
H1287 C1281 0.959 . S
H1288 C1281 0.961 . S
H1289 C1281 0.960 . S
H1290 C1282 0.930 . S
H1291 C1283 0.929 . S
H1292 C1300 0.929 . S
H1293 C1302 0.930 . S
H1294 C1304 0.930 . S
H1295 C1307 0.940 . S
H1296 C1310 0.930 . S
H1297 C1312 0.960 . S
H1298 C1312 0.960 . S
H1299 C1312 0.960 . S
C1300 H1292 0.929 . S
C1300 C1301 1.377 . S
C1300 C1302 1.384 . S
C1301 C1300 1.377 . S
C1301 C1307 1.379 1_655 S
C1302 H1293 0.930 . S
C1302 C1300 1.384 . S
C1302 C1303 1.372 . S
C1303 C1302 1.372 . S
C1303 C1304 1.400 1_655 S
C1303 C1308 1.490 . S
C1304 H1294 0.930 . S
C1304 C1303 1.400 1_455 S
C1304 C1307 1.386 . S
H1305 C1321 0.930 . S
H1306 C1322 0.931 . S
C1307 H1295 0.940 . S
C1307 C1301 1.379 1_455 S
C1307 C1304 1.386 . S
C1308 C1303 1.490 . S
C1308 C1310 1.395 1_655 S
C1308 C1311 1.403 . S
H1309 C1315 0.930 . S
C1310 H1296 0.930 . S
C1310 C1308 1.395 1_455 S
C1310 C1313 1.403 . S
C1311 C1308 1.403 . S
C1311 C1312 1.524 . S
C1311 C1315 1.400 . S
C1312 H1297 0.960 . S
C1312 H1298 0.960 . S
C1312 H1299 0.960 . S
C1312 C1311 1.524 . S
C1313 C1310 1.403 . S
C1313 C1314 1.392 . S
C1313 C1317 1.495 . S
C1314 C1313 1.392 . S
C1314 C1315 1.385 1_455 S
C1314 C1316 1.478 . S
C1315 H1309 0.930 . S
C1315 C1311 1.400 . S
C1315 C1314 1.385 1_655 S
C1316 C1314 1.478 . S
C1316 C1318 1.381 1_455 S
C1316 C1322 1.383 . S
C1317 C1313 1.495 . S
C1317 H1323 0.959 . S
C1317 H1324 0.961 . S
C1317 H1325 0.960 . S
C1318 C1316 1.381 1_655 S
C1318 C1319 1.394 . S
C1318 H1326 0.930 . S
C1319 C1318 1.394 . S
C1319 C1320 1.383 1_655 S
C1319 H1327 0.929 . S
C1320 C1319 1.383 1_455 S
C1320 C1321 1.377 . S
C1321 H1305 0.930 . S
C1321 C1320 1.377 . S
C1321 C1322 1.379 . S
C1322 H1306 0.931 . S
C1322 C1316 1.383 . S
C1322 C1321 1.379 . S
H1323 C1317 0.959 . S
H1324 C1317 0.961 . S
H1325 C1317 0.960 . S
H1326 C1318 0.930 . S
H1327 C1319 0.929 . S
H1328 C1336 0.932 . S
H1329 C1338 0.929 1_545 S
H1330 C1340 0.930 . S
H1331 C1343 0.929 . S
H1332 C1346 0.930 . S
H1333 C1348 0.960 . S
H1334 C1348 0.960 . S
H1335 C1348 0.960 . S
C1336 H1328 0.932 . S
C1336 C1337 1.376 1_545 S
C1336 C1338 1.383 1_545 S
C1337 C1336 1.376 1_565 S
C1337 C1343 1.390 . S
C1338 H1329 0.929 1_565 S
C1338 C1336 1.383 1_565 S
C1338 C1339 1.372 . S
C1339 C1338 1.372 . S
C1339 C1340 1.400 . S
C1339 C1344 1.490 . S
C1340 H1330 0.930 . S
C1340 C1339 1.400 . S
C1340 C1343 1.386 . S
H1341 C1357 0.930 . S
H1342 C1358 0.931 . S
C1343 H1331 0.929 . S
C1343 C1337 1.390 . S
C1343 C1340 1.386 . S
C1344 C1339 1.490 . S
C1344 C1346 1.395 1_565 S
C1344 C1347 1.403 . S
H1345 C1351 0.930 . S
C1346 H1332 0.930 . S
C1346 C1344 1.395 1_545 S
C1346 C1349 1.403 . S
C1347 C1344 1.403 . S
C1347 C1348 1.524 . S
C1347 C1351 1.400 . S
C1348 H1333 0.960 . S
C1348 H1334 0.960 . S
C1348 H1335 0.960 . S
C1348 C1347 1.524 . S
C1349 C1346 1.403 . S
C1349 C1350 1.392 1_545 S
C1349 C1353 1.495 . S
C1350 C1349 1.392 1_565 S
C1350 C1351 1.385 . S
C1350 C1352 1.478 . S
C1351 H1345 0.930 . S
C1351 C1347 1.400 . S
C1351 C1350 1.385 . S
C1352 C1350 1.478 . S
C1352 C1354 1.381 . S
C1352 C1358 1.383 . S
C1353 C1349 1.495 . S
C1353 H1359 0.959 . S
C1353 H1360 0.961 . S
C1353 H1361 0.960 . S
C1354 C1352 1.381 . S
C1354 C1355 1.394 . S
C1354 H1362 0.930 . S
C1355 C1354 1.394 . S
C1355 C1356 1.383 . S
C1355 H1363 0.929 . S
C1356 C1355 1.383 . S
C1356 C1357 1.377 . S
C1357 H1341 0.930 . S
C1357 C1356 1.377 . S
C1357 C1358 1.379 . S
C1358 H1342 0.931 . S
C1358 C1352 1.383 . S
C1358 C1357 1.379 . S
H1359 C1353 0.959 . S
H1360 C1353 0.961 . S
H1361 C1353 0.960 . S
H1362 C1354 0.930 . S
H1363 C1355 0.929 . S
H1364 C1372 0.929 . S
H1365 C1374 0.930 . S
H1366 C1376 0.930 . S
H1367 C1379 0.929 . S
H1368 C1382 0.930 . S
H1369 C1384 0.960 . S
H1370 C1384 0.960 . S
H1371 C1384 0.960 . S
C1372 H1364 0.929 . S
C1372 C1373 1.377 . S
C1372 C1374 1.384 . S
C1373 C1372 1.377 . S
C1373 C1379 1.390 . S
C1374 H1365 0.930 . S
C1374 C1372 1.384 . S
C1374 C1375 1.372 . S
C1375 C1374 1.372 . S
C1375 C1376 1.400 . S
C1375 C1380 1.490 . S
C1376 H1366 0.930 . S
C1376 C1375 1.400 . S
C1376 C1379 1.386 . S
H1377 C1393 0.930 . S
H1378 C1394 0.931 . S
C1379 H1367 0.929 . S
C1379 C1373 1.390 . S
C1379 C1376 1.386 . S
C1380 C1375 1.490 . S
C1380 C1382 1.395 . S
C1380 C1383 1.403 . S
H1381 C1387 0.930 . S
C1382 H1368 0.930 . S
C1382 C1380 1.395 . S
C1382 C1385 1.403 . S
C1383 C1380 1.403 . S
C1383 C1384 1.524 . S
C1383 C1387 1.400 . S
C1384 H1369 0.960 . S
C1384 H1370 0.960 . S
C1384 H1371 0.960 . S
C1384 C1383 1.524 . S
C1385 C1382 1.403 . S
C1385 C1386 1.392 . S
C1385 C1389 1.495 . S
C1386 C1385 1.392 . S
C1386 C1387 1.385 . S
C1386 C1388 1.478 . S
C1387 H1381 0.930 . S
C1387 C1383 1.400 . S
C1387 C1386 1.385 . S
C1388 C1386 1.478 . S
C1388 C1390 1.381 . S
C1388 C1394 1.383 . S
C1389 C1385 1.495 . S
C1389 H1395 0.959 . S
C1389 H1396 0.961 . S
C1389 H1397 0.960 . S
C1390 C1388 1.381 . S
C1390 C1391 1.394 . S
C1390 H1398 0.930 . S
C1391 C1390 1.394 . S
C1391 C1392 1.383 . S
C1391 H1399 0.929 . S
C1392 C1391 1.383 . S
C1392 C1393 1.377 . S
C1393 H1377 0.930 . S
C1393 C1392 1.377 . S
C1393 C1394 1.379 . S
C1394 H1378 0.931 . S
C1394 C1388 1.383 . S
C1394 C1393 1.379 . S
H1395 C1389 0.959 . S
H1396 C1389 0.961 . S
H1397 C1389 0.960 . S
H1398 C1390 0.930 . S
H1399 C1391 0.929 . S
H1400 C1408 0.929 . S
H1401 C1410 0.930 . S
H1402 C1412 0.930 . S
H1403 C1415 0.929 . S
H1404 C1418 0.930 . S
H1405 C1420 0.960 . S
H1406 C1420 0.960 . S
H1407 C1420 0.960 . S
C1408 H1400 0.929 . S
C1408 C1409 1.377 . S
C1408 C1410 1.384 . S
C1409 C1408 1.377 . S
C1409 C1415 1.390 . S
C1410 H1401 0.930 . S
C1410 C1408 1.384 . S
C1410 C1411 1.372 . S
C1411 C1410 1.372 . S
C1411 C1412 1.400 . S
C1411 C1416 1.490 . S
C1412 H1402 0.930 . S
C1412 C1411 1.400 . S
C1412 C1415 1.386 . S
H1413 C1429 0.930 . S
H1414 C1430 0.931 . S
C1415 H1403 0.929 . S
C1415 C1409 1.390 . S
C1415 C1412 1.386 . S
C1416 C1411 1.490 . S
C1416 C1418 1.395 . S
C1416 C1419 1.403 . S
H1417 C1423 0.930 . S
C1418 H1404 0.930 . S
C1418 C1416 1.395 . S
C1418 C1421 1.403 . S
C1419 C1416 1.403 . S
C1419 C1420 1.524 . S
C1419 C1423 1.400 . S
C1420 H1405 0.960 . S
C1420 H1406 0.960 . S
C1420 H1407 0.960 . S
C1420 C1419 1.524 . S
C1421 C1418 1.403 . S
C1421 C1422 1.392 . S
C1421 C1425 1.495 . S
C1422 C1421 1.392 . S
C1422 C1423 1.385 . S
C1422 C1424 1.478 . S
C1423 H1417 0.930 . S
C1423 C1419 1.400 . S
C1423 C1422 1.385 . S
C1424 C1422 1.478 . S
C1424 C1426 1.381 . S
C1424 C1430 1.383 . S
C1425 C1421 1.495 . S
C1425 H1431 0.959 . S
C1425 H1432 0.961 . S
C1425 H1433 0.960 . S
C1426 C1424 1.381 . S
C1426 C1427 1.394 . S
C1426 H1434 0.930 . S
C1427 C1426 1.394 . S
C1427 C1428 1.383 . S
C1427 H1435 0.929 . S
C1428 C1427 1.383 . S
C1428 C1429 1.377 . S
C1429 H1413 0.930 . S
C1429 C1428 1.377 . S
C1429 C1430 1.379 . S
C1430 H1414 0.931 . S
C1430 C1424 1.383 . S
C1430 C1429 1.379 . S
H1431 C1425 0.959 . S
H1432 C1425 0.961 . S
H1433 C1425 0.960 . S
H1434 C1426 0.930 . S
H1435 C1427 0.929 . S
C581 C391 1.611 1_565 S
C600 C496 1.555 . S
C636 C519 1.777 . S
C617 C451 1.840 . S
C672 C542 1.692 . S
C653 C241 1.593 . S
C708 C569 1.536 . S
C689 C331 1.539 . S
C744 C497 1.556 . S
C725 C121 1.459 . S
C761 C211 1.564 1_556 S
C780 C520 1.586 . S
C797 C31 1.410 . S
C816 C543 1.389 . S
C833 C91 1.570 . S
C852 C568 1.631 . S
C888 C498 0.448 . S
C869 C301 0.966 . S
C924 C521 0.728 . S
C905 C380 0.724 . S
C960 C544 0.446 . S
C941 C440 0.426 . S
C977 C260 0.733 . S
C996 C570 0.733 . S
C1013 C61 0.501 . S
C1032 C501 0.791 . S
C1068 C524 0.765 . S
C1049 C140 0.679 . S
C1104 C547 0.812 . S
C1085 C200 0.566 . S
C1121 C20 0.524 . S
C1140 C567 0.558 . S
C1157 C320 1.934 . S
C1176 C499 1.931 . S
C1193 C361 1.675 . S
C1212 C522 1.838 1_565 S
C1248 C545 1.859 . S
C1229 C421 1.706 . S
C1284 C566 1.505 . S
C1265 C271 1.497 . S
C1301 C80 1.927 . S
C1320 C500 1.807 . S
C1356 C523 1.682 . S
C1337 C151 1.787 . S
C1392 C546 1.703 . S
C1373 C181 1.604 . S
C1409 C1 1.822 . S
C1428 C565 1.991 . S
