# Generated by pormake.
# Topology pyr, (3,6)-cn, num edge types: 1
# Building blocks:
#     Node 0, Type 0, BuildingBlock: BETDIP_clean_linker_0, # of connection points: 3
#     Node 1, Type 0, BuildingBlock: BETDIP_clean_linker_0, # of connection points: 3
#     Node 2, Type 0, BuildingBlock: BETDIP_clean_linker_0, # of connection points: 3
#     Node 3, Type 0, BuildingBlock: BETDIP_clean_linker_0, # of connection points: 3
#     Node 4, Type 0, BuildingBlock: BETDIP_clean_linker_0, # of connection points: 3
#     Node 5, Type 0, BuildingBlock: BETDIP_clean_linker_0, # of connection points: 3
#     Node 6, Type 0, BuildingBlock: BETDIP_clean_linker_0, # of connection points: 3
#     Node 7, Type 0, BuildingBlock: BETDIP_clean_linker_0, # of connection points: 3
#     Node 8, Type 1, BuildingBlock: BETDEL_clean_sbu_0, # of connection points: 6
#     Node 9, Type 1, BuildingBlock: BETDEL_clean_sbu_0, # of connection points: 6
#     Node 10, Type 1, BuildingBlock: BETDEL_clean_sbu_0, # of connection points: 6
#     Node 11, Type 1, BuildingBlock: BETDEL_clean_sbu_0, # of connection points: 6
#     Edge 12, Type (0, 1), BuildingBlock: OJICUG_clean_linker_0, # of connection points: 2
#     Edge 13, Type (0, 1), BuildingBlock: OJICUG_clean_linker_0, # of connection points: 2
#     Edge 14, Type (0, 1), BuildingBlock: OJICUG_clean_linker_0, # of connection points: 2
#     Edge 15, Type (0, 1), BuildingBlock: OJICUG_clean_linker_0, # of connection points: 2
#     Edge 16, Type (0, 1), BuildingBlock: OJICUG_clean_linker_0, # of connection points: 2
#     Edge 17, Type (0, 1), BuildingBlock: OJICUG_clean_linker_0, # of connection points: 2
#     Edge 18, Type (0, 1), BuildingBlock: OJICUG_clean_linker_0, # of connection points: 2
#     Edge 19, Type (0, 1), BuildingBlock: OJICUG_clean_linker_0, # of connection points: 2
#     Edge 20, Type (0, 1), BuildingBlock: OJICUG_clean_linker_0, # of connection points: 2
#     Edge 21, Type (0, 1), BuildingBlock: OJICUG_clean_linker_0, # of connection points: 2
#     Edge 22, Type (0, 1), BuildingBlock: OJICUG_clean_linker_0, # of connection points: 2
#     Edge 23, Type (0, 1), BuildingBlock: OJICUG_clean_linker_0, # of connection points: 2
#     Edge 24, Type (0, 1), BuildingBlock: OJICUG_clean_linker_0, # of connection points: 2
#     Edge 25, Type (0, 1), BuildingBlock: OJICUG_clean_linker_0, # of connection points: 2
#     Edge 26, Type (0, 1), BuildingBlock: OJICUG_clean_linker_0, # of connection points: 2
#     Edge 27, Type (0, 1), BuildingBlock: OJICUG_clean_linker_0, # of connection points: 2
#     Edge 28, Type (0, 1), BuildingBlock: OJICUG_clean_linker_0, # of connection points: 2
#     Edge 29, Type (0, 1), BuildingBlock: OJICUG_clean_linker_0, # of connection points: 2
#     Edge 30, Type (0, 1), BuildingBlock: OJICUG_clean_linker_0, # of connection points: 2
#     Edge 31, Type (0, 1), BuildingBlock: OJICUG_clean_linker_0, # of connection points: 2
#     Edge 32, Type (0, 1), BuildingBlock: OJICUG_clean_linker_0, # of connection points: 2
#     Edge 33, Type (0, 1), BuildingBlock: OJICUG_clean_linker_0, # of connection points: 2
#     Edge 34, Type (0, 1), BuildingBlock: OJICUG_clean_linker_0, # of connection points: 2
#     Edge 35, Type (0, 1), BuildingBlock: OJICUG_clean_linker_0, # of connection points: 2
# Relax obj value: 0.070
# Max RMSD: 0.174
# Mean RMSD: 0.128
data_MOF--net-pyr--node1-BETDEL_clean_sbu_0--node2-BETDIP_clean_linker_0--edge1-OJICUG_clean_linker_0
_symmetry_space_group_name_H-M    P1
_symmetry_Int_Tables_number       1
_symmetry_cell_setting            triclinic
loop_
_symmetry_equiv_pos_as_xyz
'x, y, z'
_cell_length_a     26.237476
_cell_length_b     26.89275
_cell_length_c     26.837126
_cell_angle_alpha  93.33842
_cell_angle_beta   85.96532
_cell_angle_gamma 102.18526
loop_
_atom_site_label
_atom_site_type_symbol
_atom_site_fract_x
_atom_site_fract_y
_atom_site_fract_z
_atom_type_partial_charge
H0 H 0.16194 0.22014 0.21874 0.0
H1 H 0.28058 0.21974 0.10023 0.0
H2 H 0.26905 0.11931 0.22096 0.0
H3 H 0.23656 0.26506 0.06001 0.0
C4 C 0.20407 0.27342 0.0839 0.0
C5 C 0.19534 0.20581 0.20245 0.0
C6 C 0.21249 0.16745 0.22538 0.0
C7 C 0.21888 0.22428 0.15723 0.0
C8 C 0.26173 0.20585 0.13533 0.0
C9 C 0.28053 0.16878 0.15898 0.0
C10 C 0.25605 0.1498 0.20411 0.0
N11 N 0.19575 0.25916 0.13423 0.0
H12 H 0.23701 0.86758 0.74589 0.0
H13 H 0.26155 0.76563 0.62109 0.0
H14 H 0.35944 0.78349 0.74517 0.0
H15 H 0.20527 0.79958 0.58382 0.0
C16 C 0.18975 0.82716 0.60814 0.0
C17 C 0.2583 0.84027 0.72811 0.0
C18 C 0.30002 0.82827 0.7516 0.0
C19 C 0.24436 0.81881 0.68095 0.0
C20 C 0.27149 0.78276 0.65749 0.0
C21 C 0.31304 0.76965 0.68088 0.0
C22 C 0.32677 0.79265 0.72774 0.0
N23 N 0.20462 0.83689 0.65827 0.0
H24 H 0.72066 0.4301 0.84279 0.0
H25 H 0.59484 0.3001 0.83295 0.0
H26 H 0.71703 0.30173 0.93292 0.0
H27 H 0.60127 0.32762 0.74999 0.0
C28 C 0.60606 0.36861 0.75602 0.0
C29 C 0.70183 0.3927 0.85524 0.0
C30 C 0.7247 0.3694 0.89105 0.0
C31 C 0.65598 0.36764 0.83322 0.0
C32 C 0.63141 0.31856 0.84841 0.0
C33 C 0.65285 0.29405 0.88474 0.0
C34 C 0.69974 0.32003 0.90552 0.0
N35 N 0.63552 0.39332 0.79644 0.0
H36 H 0.78743 0.58893 0.34612 0.0
H37 H 0.89867 0.72765 0.31756 0.0
H38 H 0.79733 0.7168 0.45108 0.0
H39 H 0.90206 0.69572 0.24001 0.0
C40 C 0.89179 0.65453 0.24107 0.0
C41 C 0.80493 0.62776 0.35751 0.0
C42 C 0.78686 0.64999 0.40201 0.0
C43 C 0.84478 0.65539 0.32665 0.0
C44 C 0.86783 0.70592 0.34106 0.0
C45 C 0.85097 0.72859 0.38618 0.0
C46 C 0.81082 0.69991 0.41641 0.0
N47 N 0.86062 0.63053 0.28184 0.0
H48 H 0.70346 0.7948 0.91802 0.0
H49 H 0.83213 0.78557 0.81213 0.0
H50 H 0.77434 0.92391 0.832 0.0
H51 H 0.79229 0.69362 0.81558 0.0
C52 C 0.79384 0.70101 0.85577 0.0
C53 C 0.73246 0.81233 0.89 0.0
C54 C 0.73604 0.86313 0.87853 0.0
C55 C 0.76638 0.78395 0.8659 0.0
C56 C 0.80469 0.80681 0.83012 0.0
C57 C 0.80806 0.85739 0.81761 0.0
C58 C 0.77356 0.88536 0.84228 0.0
N59 N 0.76216 0.73301 0.8794 0.0
H60 H 0.79042 0.17424 0.29262 0.0
H61 H 0.75627 0.26661 0.42211 0.0
H62 H 0.6703 0.26068 0.29081 0.0
H63 H 0.80576 0.22448 0.46129 0.0
C64 C 0.82421 0.19998 0.43567 0.0
C65 C 0.76815 0.20058 0.31073 0.0
C66 C 0.72912 0.21531 0.28539 0.0
C67 C 0.77784 0.21767 0.36011 0.0
C68 C 0.74939 0.25255 0.3841 0.0
C69 C 0.71059 0.26849 0.35873 0.0
C70 C 0.70102 0.24953 0.30969 0.0
N71 N 0.81483 0.19653 0.38394 0.0
H72 H 0.31244 0.62267 0.17369 0.0
H73 H 0.43731 0.75158 0.19489 0.0
H74 H 0.31605 0.7607 0.09799 0.0
H75 H 0.42625 0.71908 0.27688 0.0
C76 C 0.42121 0.6783 0.269 0.0
C77 C 0.33015 0.66172 0.16574 0.0
C78 C 0.30773 0.68841 0.13217 0.0
C79 C 0.37525 0.68483 0.1903 0.0
C80 C 0.40093 0.73472 0.17822 0.0
C81 C 0.38087 0.7619 0.14312 0.0
C82 C 0.33348 0.73871 0.12188 0.0
N83 N 0.39398 0.65639 0.22612 0.0
H84 H 0.13075 0.28564 0.72189 0.0
H85 H 0.24608 0.42248 0.69659 0.0
H86 H 0.23468 0.29587 0.59013 0.0
H87 H 0.23467 0.43842 0.77768 0.0
C88 C 0.19428 0.421 0.78748 0.0
C89 C 0.16351 0.30641 0.69952 0.0
C90 C 0.17905 0.28549 0.65333 0.0
C91 C 0.18846 0.35511 0.71625 0.0
C92 C 0.22877 0.38361 0.68575 0.0
C93 C 0.2457 0.36264 0.63992 0.0
C94 C 0.22115 0.31316 0.62466 0.0
N95 N 0.16943 0.37545 0.76216 0.0
Dy96 Dy 0.03572 0.02463 0.4724 0.0
C97 C 0.93471 0.95143 0.65161 0.0
C98 C 0.09173 0.07043 0.39282 0.0
Dy99 Dy 0.97827 0.99797 0.56693 0.0
O100 O 0.11151 0.0579 0.43189 0.0
O101 O 0.04108 0.05789 0.39693 0.0
O102 O 0.06848 0.95428 0.47115 0.0
O103 O 0.05717 0.99279 0.54002 0.0
C104 C 0.07083 0.9539 0.51915 0.0
C105 C 0.93997 0.06738 0.52142 0.0
O106 O 0.0454 0.05645 0.59419 0.0
O107 O 0.05609 0.09579 0.51974 0.0
O108 O 0.9419 0.99979 0.64503 0.0
O109 O 0.95107 0.92828 0.61191 0.0
O110 O 0.93947 0.06431 0.56941 0.0
O111 O 0.95608 0.03004 0.49956 0.0
O112 O 0.97972 0.96014 0.4396 0.0
O113 O 0.94247 0.93168 0.51642 0.0
C114 C 0.06403 0.09685 0.56772 0.0
C115 C 0.94824 0.92618 0.46707 0.0
Dy116 Dy 0.55729 0.05322 0.05771 0.0
C117 C 0.40263 0.94259 0.91713 0.0
C118 C 0.63245 0.11196 0.1127 0.0
Dy119 Dy 0.47601 1.00357 0.97266 0.0
O120 O 0.62811 0.06354 0.10217 0.0
O121 O 0.59604 0.12867 0.09239 0.0
O122 O 0.52915 0.99173 0.11388 0.0
O123 O 0.49499 0.98734 0.04662 0.0
C124 C 0.49403 0.9642 0.08633 0.0
C125 C 0.54043 0.09221 0.9438 0.0
O126 O 0.42627 0.03795 0.0297 0.0
O127 O 0.49006 0.09089 0.077 0.0
O128 O 0.40529 0.99089 0.92734 0.0
O129 O 0.43967 0.92745 0.93788 0.0
O130 O 0.50565 0.06449 0.91602 0.0
O131 O 0.5386 0.0694 0.98378 0.0
O132 O 0.60638 0.01754 0.00039 0.0
O133 O 0.54071 0.96255 0.95745 0.0
C134 C 0.44124 0.07509 0.06375 0.0
C135 C 0.58995 0.97816 0.9691 0.0
Dy136 Dy 0.52286 0.47607 0.47613 0.0
C137 C 0.43493 0.62503 0.59718 0.0
C138 C 0.58415 0.41305 0.43214 0.0
Dy139 Dy 0.49378 0.56205 0.54932 0.0
O140 O 0.53354 0.40533 0.43055 0.0
O141 O 0.60122 0.45618 0.45586 0.0
O142 O 0.43777 0.43785 0.47456 0.0
O143 O 0.46643 0.48082 0.53795 0.0
C144 C 0.4257 0.45733 0.51832 0.0
C145 C 0.59144 0.57842 0.50998 0.0
O146 O 0.51616 0.51441 0.60732 0.0
O147 O 0.55156 0.46006 0.55042 0.0
O148 O 0.48574 0.63352 0.59455 0.0
O149 O 0.41631 0.58134 0.57503 0.0
O150 O 0.5791 0.59791 0.55363 0.0
O151 O 0.551 0.55691 0.48864 0.0
O152 O 0.50165 0.5247 0.41798 0.0
O153 O 0.46621 0.57914 0.4748 0.0
C154 C 0.54245 0.47737 0.5971 0.0
C155 C 0.47597 0.56231 0.42804 0.0
Dy156 Dy 0.02932 0.48466 0.0184 0.0
C157 C 0.96738 0.65681 0.94821 0.0
C158 C 0.07598 0.40561 0.02853 0.0
Dy159 Dy 0.01283 0.58269 0.97859 0.0
O160 O 0.03519 0.41385 0.05554 0.0
O161 O 0.09119 0.44052 0.99627 0.0
O162 O 0.9669 0.4862 0.07988 0.0
O163 O 0.01148 0.55463 0.05272 0.0
C164 C 0.97278 0.53556 0.08091 0.0
C165 C 0.07162 0.53211 0.91928 0.0
O166 O 0.08338 0.61789 0.02121 0.0
O167 O 0.10249 0.54055 0.04029 0.0
O168 O 1.00141 0.63624 0.92178 0.0
O169 O 0.96071 0.63903 0.99273 0.0
O170 O 0.08034 0.5815 0.92301 0.0
O171 O 0.0306 0.51288 0.94449 0.0
O172 O 0.95923 0.45043 0.97614 0.0
O173 O 0.93539 0.52741 0.96775 0.0
C174 C 0.11444 0.59113 0.03964 0.0
C175 C 0.92479 0.47678 0.9646 0.0
C176 C 0.12706 0.13009 0.26871 0.0
C177 C 0.18186 0.14299 0.26881 0.0
H178 H 0.05547 0.09689 0.30826 0.0
C179 C 0.20679 0.13159 0.30995 0.0
H180 H 0.10691 0.13758 0.23698 0.0
C181 C 0.17728 0.10794 0.35051 0.0
C182 C 0.12257 0.09533 0.35031 0.0
H183 H 0.24894 0.14137 0.31094 0.0
H184 H 0.19727 0.09961 0.38201 0.0
C185 C 0.09763 0.10654 0.30923 0.0
C186 C 0.34034 0.83133 0.83454 0.0
C187 C 0.31886 0.8559 0.79875 0.0
H188 H 0.38396 0.83974 0.90024 0.0
C189 C 0.31991 0.90835 0.80619 0.0
H190 H 0.3391 0.79079 0.83081 0.0
C191 C 0.34433 0.93596 0.84675 0.0
C192 C 0.36895 0.91191 0.88019 0.0
H193 H 0.30443 0.92884 0.77928 0.0
H194 H 0.34652 0.97669 0.85022 0.0
C195 C 0.36563 0.85919 0.87458 0.0
C196 C 0.57955 0.37383 0.66918 0.0
C197 C 0.58994 0.39782 0.71633 0.0
H198 H 0.55744 0.38007 0.59492 0.0
C199 C 0.58439 0.44867 0.72448 0.0
H200 H 0.58336 0.33471 0.66174 0.0
C201 C 0.56831 0.47465 0.68621 0.0
C202 C 0.55877 0.4507 0.63869 0.0
H203 H 0.59184 0.46817 0.76051 0.0
H204 H 0.56406 0.51363 0.69359 0.0
C205 C 0.56482 0.4 0.63078 0.0
C206 C 0.94365 0.64778 0.1606 0.0
C207 C 0.90994 0.62361 0.19886 0.0
H208 H 0.98998 0.63869 0.09314 0.0
C209 C 0.89485 0.57017 0.19677 0.0
H210 H 0.95572 0.6889 0.16134 0.0
C211 C 0.9141 0.54143 0.15757 0.0
C212 C 0.94894 0.56563 0.12004 0.0
H213 H 0.86866 0.55042 0.22561 0.0
H214 H 0.90256 0.50029 0.1572 0.0
C215 C 0.9631 0.61906 0.12159 0.0
C216 C 0.31745 0.12469 0.08582 0.0
C217 C 0.32276 0.14655 0.13436 0.0
H218 H 0.3509 0.08435 0.02557 0.0
C219 C 0.36748 0.14545 0.15963 0.0
H220 H 0.28292 0.12486 0.06597 0.0
C221 C 0.4067 0.12286 0.13637 0.0
C222 C 0.40095 0.10016 0.08807 0.0
H223 H 0.37204 0.16216 0.19719 0.0
H224 H 0.44092 0.12229 0.1565 0.0
C225 C 0.35607 0.10128 0.06298 0.0
C226 C 0.14509 0.85029 0.53637 0.0
C227 C 0.15638 0.85795 0.58691 0.0
H228 H 0.10895 0.87442 0.47554 0.0
C229 C 0.13713 0.89612 0.61591 0.0
H230 H 0.15927 0.82113 0.51319 0.0
C231 C 0.10827 0.92675 0.59434 0.0
C232 C 0.09824 0.91985 0.54341 0.0
H233 H 0.14497 0.90294 0.65507 0.0
H234 H 0.09463 0.95636 0.61728 0.0
C235 C 0.11633 0.88086 0.51485 0.0
C236 C 0.81446 0.36998 0.92081 0.0
C237 C 0.77528 0.39651 0.91204 0.0
H238 H 0.89189 0.37408 0.94391 0.0
C239 C 0.78564 0.44965 0.92183 0.0
H240 H 0.80849 0.32925 0.91314 0.0
C241 C 0.83387 0.47553 0.93889 0.0
C242 C 0.87319 0.44907 0.94705 0.0
H243 H 0.75633 0.47148 0.91647 0.0
H244 H 0.84022 0.51641 0.9457 0.0
C245 C 0.86264 0.39585 0.93815 0.0
C246 C 0.69636 0.59678 0.40599 0.0
C247 C 0.73971 0.62362 0.43111 0.0
H248 H 0.61549 0.56108 0.41159 0.0
C249 C 0.7352 0.63015 0.48357 0.0
H250 H 0.69816 0.59144 0.36564 0.0
C251 C 0.68724 0.61381 0.50979 0.0
C252 C 0.64339 0.58991 0.48405 0.0
H253 H 0.76823 0.64956 0.5042 0.0
H254 H 0.68411 0.62121 0.54989 0.0
C255 C 0.64875 0.57981 0.43227 0.0
C256 C 0.18319 0.33172 0.02315 0.0
C257 C 0.16844 0.30247 0.06528 0.0
H258 H 0.16471 0.38803 0.97814 0.0
C259 C 0.12025 0.30307 0.0915 0.0
H260 H 0.21997 0.33134 0.00223 0.0
C261 C 0.08879 0.33491 0.07776 0.0
C262 C 0.10508 0.36667 0.03771 0.0
H263 H 0.10728 0.27996 0.12354 0.0
H264 H 0.05275 0.33608 0.09972 0.0
C265 C 0.15168 0.36394 0.0095 0.0
C266 C 0.6263 0.22636 0.95011 0.0
C267 C 0.62645 0.24135 0.90042 0.0
H268 H 0.59962 0.16767 0.00299 0.0
C269 C 0.60042 0.2054 0.86556 0.0
H270 H 0.64533 0.2528 0.97839 0.0
C271 C 0.5739 0.15706 0.87997 0.0
C272 C 0.57287 0.14251 0.92959 0.0
H273 H 0.60045 0.21445 0.82677 0.0
H274 H 0.55369 0.13101 0.852 0.0
C275 C 0.59998 0.17748 0.96445 0.0
C276 C 0.84513 0.81243 0.43105 0.0
C277 C 0.87507 0.78179 0.40262 0.0
H278 H 0.84529 0.88178 0.47493 0.0
C279 C 0.92869 0.80154 0.39263 0.0
H280 H 0.80342 0.79967 0.43812 0.0
C281 C 0.95187 0.84977 0.41182 0.0
C282 C 0.92226 0.87848 0.44247 0.0
H283 H 0.95333 0.77916 0.37162 0.0
H284 H 0.99349 0.86361 0.4047 0.0
C285 C 0.86877 0.85978 0.45172 0.0
C286 C 0.39875 0.7445 0.65743 0.0
C287 C 0.3439 0.73326 0.65665 0.0
H288 H 0.4702 0.71905 0.63979 0.0
C289 C 0.31917 0.68609 0.63537 0.0
H290 H 0.41912 0.78079 0.67286 0.0
C291 C 0.34865 0.65057 0.61639 0.0
C292 C 0.40336 0.66169 0.61816 0.0
H293 H 0.27701 0.67617 0.63453 0.0
H294 H 0.32861 0.61437 0.6005 0.0
C295 C 0.42808 0.70915 0.6385 0.0
C296 C 0.86927 0.93236 0.78022 0.0
C297 C 0.84549 0.88034 0.7771 0.0
H298 H 0.91608 0.99572 0.74245 0.0
C299 C 0.85518 0.85116 0.73356 0.0
H300 H 0.86369 0.95568 0.81361 0.0
C301 C 0.88631 0.87393 0.69341 0.0
C302 C 0.90748 0.92633 0.69581 0.0
H303 H 0.83701 0.81118 0.72955 0.0
H304 H 0.89188 0.85097 0.65973 0.0
C305 C 0.89956 0.95524 0.73971 0.0
C306 C 0.69434 0.21842 0.20063 0.0
C307 C 0.71358 0.1912 0.23583 0.0
H308 H 0.65312 0.21443 0.13377 0.0
C309 C 0.71233 0.13905 0.22566 0.0
H310 H 0.69595 0.25889 0.20643 0.0
C311 C 0.68927 0.11413 0.18329 0.0
C312 C 0.66613 0.14055 0.15071 0.0
H313 H 0.72611 0.11654 0.25192 0.0
H314 H 0.68654 0.07343 0.1779 0.0
C315 C 0.67025 0.19317 0.15875 0.0
C316 C 0.44246 0.66879 0.35694 0.0
C317 C 0.43445 0.64678 0.3086 0.0
H318 H 0.46073 0.65967 0.43188 0.0
C319 C 0.44004 0.596 0.29939 0.0
H320 H 0.4386 0.70776 0.36536 0.0
C321 C 0.45398 0.56834 0.33768 0.0
C322 C 0.46132 0.59043 0.38632 0.0
H323 H 0.43442 0.57793 0.2625 0.0
H324 H 0.45847 0.52956 0.32935 0.0
C325 C 0.45505 0.64098 0.39523 0.0
C326 C 0.1146 0.4238 0.84389 0.0
C327 C 0.16394 0.44802 0.82391 0.0
H328 H 0.04673 0.43165 0.89046 0.0
C329 C 0.18352 0.49936 0.83715 0.0
H330 H 0.09873 0.38408 0.83455 0.0
C331 C 0.15349 0.52668 0.86852 0.0
C332 C 0.1038 0.50276 0.88772 0.0
H333 H 0.22149 0.51872 0.82218 0.0
H334 H 0.16902 0.56656 0.87752 0.0
C335 C 0.08489 0.45093 0.87586 0.0
C336 C 0.71712 0.9417 0.92352 0.0
C337 C 0.6991 0.89248 0.90281 0.0
H338 H 0.69648 1.00764 0.96129 0.0
C339 C 0.64541 0.87169 0.90422 0.0
H340 H 0.75854 0.95828 0.9229 0.0
C341 C 0.61008 0.89983 0.92562 0.0
C342 C 0.62788 0.94912 0.94642 0.0
H343 H 0.6307 0.83397 0.88801 0.0
H344 H 0.5688 0.88272 0.92606 0.0
C345 C 0.68173 0.96975 0.94554 0.0
C346 C 0.87786 0.13147 0.42555 0.0
C347 C 0.85613 0.16709 0.45614 0.0
H348 H 0.92161 0.07188 0.42203 0.0
C349 C 0.86376 0.17037 0.50752 0.0
H350 H 0.87278 0.12795 0.38571 0.0
C351 C 0.89164 0.13842 0.52812 0.0
C352 C 0.91253 0.10214 0.49791 0.0
H353 H 0.84763 0.1974 0.53199 0.0
H354 H 0.89635 0.14183 0.56804 0.0
C355 C 0.90582 0.0993 0.44626 0.0
C356 C 0.22025 0.62577 0.13234 0.0
C357 C 0.25735 0.66419 0.1084 0.0
H358 H 0.14696 0.57247 0.12907 0.0
C359 C 0.24547 0.67917 0.06161 0.0
H360 H 0.22626 0.6137 0.16883 0.0
C361 C 0.1983 0.65686 0.03999 0.0
C362 C 0.16253 0.61778 0.06363 0.0
H363 H 0.27286 0.70748 0.04083 0.0
H364 H 0.19063 0.66898 0.00395 0.0
C365 C 0.17411 0.60236 0.10985 0.0
C366 C 0.33241 0.42318 0.63007 0.0
C367 C 0.28932 0.39174 0.60809 0.0
H368 H 0.40871 0.46941 0.61871 0.0
C369 C 0.28959 0.38627 0.55549 0.0
H370 H 0.33396 0.42802 0.67031 0.0
C371 C 0.33325 0.40909 0.52585 0.0
C372 C 0.37695 0.43856 0.5482 0.0
H373 H 0.25646 0.36356 0.53714 0.0
H374 H 0.33326 0.40273 0.48561 0.0
C375 C 0.37552 0.4467 0.60042 0.0
C376 C 0.84229 0.69902 0.93229 0.0
C377 C 0.8405 0.69484 0.88 0.0
H378 H 0.88522 0.6911 0.99536 0.0
C379 C 0.88395 0.6854 0.85057 0.0
H380 H 0.80929 0.7068 0.95572 0.0
C381 C 0.9278 0.67787 0.87313 0.0
C382 C 0.92833 0.67868 0.92548 0.0
H383 H 0.88363 0.68294 0.81015 0.0
H384 H 0.95995 0.66841 0.84954 0.0
C385 C 0.88587 0.69069 0.95493 0.0
C386 C 0.40803 0.83055 0.0792 0.0
C387 C 0.40884 0.81441 0.12836 0.0
H388 H 0.43341 0.89027 0.02734 0.0
C389 C 0.4366 0.84908 0.16316 0.0
H390 H 0.38795 0.80499 0.05083 0.0
C391 C 0.46313 0.89765 0.14922 0.0
C392 C 0.46249 0.91348 0.10021 0.0
H393 H 0.43762 0.83899 0.20148 0.0
H394 H 0.48445 0.92293 0.17709 0.0
C395 C 0.43425 0.87951 0.06542 0.0
C396 C 0.13256 0.19406 0.66236 0.0
C397 C 0.1493 0.23657 0.63271 0.0
H398 H 0.09247 0.11582 0.66497 0.0
C399 C 0.13714 0.23267 0.58238 0.0
H400 H 0.14155 0.1961 0.7013 0.0
C401 C 0.10967 0.18721 0.56174 0.0
C402 C 0.09327 0.14441 0.59094 0.0
H403 H 0.14846 0.26507 0.55886 0.0
H404 H 0.10114 0.18591 0.52272 0.0
C405 C 0.10475 0.14819 0.64157 0.0
C406 C 0.62378 0.2928 0.37759 0.0
C407 C 0.67819 0.30388 0.38238 0.0
H408 H 0.5518 0.31867 0.38881 0.0
C409 C 0.70131 0.35088 0.40504 0.0
H410 H 0.60466 0.25669 0.36076 0.0
C411 C 0.67083 0.38661 0.42098 0.0
C412 C 0.6167 0.37589 0.41469 0.0
H413 H 0.7431 0.36069 0.40886 0.0
H414 H 0.68971 0.42281 0.43779 0.0
C415 C 0.59347 0.32836 0.39344 0.0
loop_
_geom_bond_atom_site_label_1
_geom_bond_atom_site_label_2
_geom_bond_distance
_geom_bond_site_symmetry_2
_ccdc_geom_bond_type
H0 C5 0.930 . S
H1 C8 0.930 . S
H2 C10 0.930 . S
H3 C4 1.016 . S
C4 H3 1.016 . S
C4 N11 1.286 . S
C5 H0 0.930 . S
C5 C6 1.397 . S
C5 C7 1.361 . S
C6 C5 1.397 . S
C6 C10 1.390 . S
C7 C5 1.361 . S
C7 C8 1.393 . S
C7 N11 1.413 . S
C8 H1 0.930 . S
C8 C7 1.393 . S
C8 C9 1.399 . S
C9 C8 1.399 . S
C9 C10 1.381 . S
C10 H2 0.930 . S
C10 C6 1.390 . S
C10 C9 1.381 . S
N11 C4 1.286 . S
N11 C7 1.413 . S
H12 C17 0.930 . S
H13 C20 0.930 . S
H14 C22 0.930 . S
H15 C16 1.016 . S
C16 H15 1.016 . S
C16 N23 1.286 . S
C17 H12 0.930 . S
C17 C18 1.397 . S
C17 C19 1.361 . S
C18 C17 1.397 . S
C18 C22 1.390 . S
C19 C17 1.361 . S
C19 C20 1.393 . S
C19 N23 1.413 . S
C20 H13 0.930 . S
C20 C19 1.393 . S
C20 C21 1.399 . S
C21 C20 1.399 . S
C21 C22 1.381 . S
C22 H14 0.930 . S
C22 C18 1.390 . S
C22 C21 1.381 . S
N23 C16 1.286 . S
N23 C19 1.413 . S
H24 C29 0.930 . S
H25 C32 0.930 . S
H26 C34 0.930 . S
H27 C28 1.016 . S
C28 H27 1.016 . S
C28 N35 1.286 . S
C29 H24 0.930 . S
C29 C30 1.397 . S
C29 C31 1.361 . S
C30 C29 1.397 . S
C30 C34 1.390 . S
C31 C29 1.361 . S
C31 C32 1.393 . S
C31 N35 1.413 . S
C32 H25 0.930 . S
C32 C31 1.393 . S
C32 C33 1.399 . S
C33 C32 1.399 . S
C33 C34 1.381 . S
C34 H26 0.930 . S
C34 C30 1.390 . S
C34 C33 1.381 . S
N35 C28 1.286 . S
N35 C31 1.413 . S
H36 C41 0.930 . S
H37 C44 0.930 . S
H38 C46 0.930 . S
H39 C40 1.016 . S
C40 H39 1.016 . S
C40 N47 1.286 . S
C41 H36 0.930 . S
C41 C42 1.397 . S
C41 C43 1.361 . S
C42 C41 1.397 . S
C42 C46 1.390 . S
C43 C41 1.361 . S
C43 C44 1.393 . S
C43 N47 1.413 . S
C44 H37 0.930 . S
C44 C43 1.393 . S
C44 C45 1.399 . S
C45 C44 1.399 . S
C45 C46 1.381 . S
C46 H38 0.930 . S
C46 C42 1.390 . S
C46 C45 1.381 . S
N47 C40 1.286 . S
N47 C43 1.413 . S
H48 C53 0.930 . S
H49 C56 0.930 . S
H50 C58 0.930 . S
H51 C52 1.016 . S
C52 H51 1.016 . S
C52 N59 1.286 . S
C53 H48 0.930 . S
C53 C54 1.397 . S
C53 C55 1.361 . S
C54 C53 1.397 . S
C54 C58 1.390 . S
C55 C53 1.361 . S
C55 C56 1.393 . S
C55 N59 1.413 . S
C56 H49 0.930 . S
C56 C55 1.393 . S
C56 C57 1.399 . S
C57 C56 1.399 . S
C57 C58 1.381 . S
C58 H50 0.930 . S
C58 C54 1.390 . S
C58 C57 1.381 . S
N59 C52 1.286 . S
N59 C55 1.413 . S
H60 C65 0.930 . S
H61 C68 0.930 . S
H62 C70 0.930 . S
H63 C64 1.016 . S
C64 H63 1.016 . S
C64 N71 1.286 . S
C65 H60 0.930 . S
C65 C66 1.397 . S
C65 C67 1.361 . S
C66 C65 1.397 . S
C66 C70 1.390 . S
C67 C65 1.361 . S
C67 C68 1.393 . S
C67 N71 1.413 . S
C68 H61 0.930 . S
C68 C67 1.393 . S
C68 C69 1.399 . S
C69 C68 1.399 . S
C69 C70 1.381 . S
C70 H62 0.930 . S
C70 C66 1.390 . S
C70 C69 1.381 . S
N71 C64 1.286 . S
N71 C67 1.413 . S
H72 C77 0.930 . S
H73 C80 0.930 . S
H74 C82 0.930 . S
H75 C76 1.016 . S
C76 H75 1.016 . S
C76 N83 1.286 . S
C77 H72 0.930 . S
C77 C78 1.397 . S
C77 C79 1.361 . S
C78 C77 1.397 . S
C78 C82 1.390 . S
C79 C77 1.361 . S
C79 C80 1.393 . S
C79 N83 1.413 . S
C80 H73 0.930 . S
C80 C79 1.393 . S
C80 C81 1.399 . S
C81 C80 1.399 . S
C81 C82 1.381 . S
C82 H74 0.930 . S
C82 C78 1.390 . S
C82 C81 1.381 . S
N83 C76 1.286 . S
N83 C79 1.413 . S
H84 C89 0.930 . S
H85 C92 0.930 . S
H86 C94 0.930 . S
H87 C88 1.016 . S
C88 H87 1.016 . S
C88 N95 1.286 . S
C89 H84 0.930 . S
C89 C90 1.397 . S
C89 C91 1.361 . S
C90 C89 1.397 . S
C90 C94 1.390 . S
C91 C89 1.361 . S
C91 C92 1.393 . S
C91 N95 1.413 . S
C92 H85 0.930 . S
C92 C91 1.393 . S
C92 C93 1.399 . S
C93 C92 1.399 . S
C93 C94 1.381 . S
C94 H86 0.930 . S
C94 C90 1.390 . S
C94 C93 1.381 . S
N95 C88 1.286 . S
N95 C91 1.413 . S
Dy96 O100 2.398 . S
Dy96 O101 2.491 . S
Dy96 O102 2.403 1_545 S
Dy96 O103 2.664 1_545 S
Dy96 O107 2.326 . S
Dy96 O111 2.310 1_455 S
Dy96 O112 2.351 1_445 S
C97 O108 1.185 . S
C97 O109 1.355 . S
C98 O100 1.185 . S
C98 O101 1.355 . S
Dy99 O103 2.310 1_655 S
Dy99 O106 2.351 1_665 S
Dy99 O108 2.398 . S
Dy99 O109 2.491 . S
Dy99 O110 2.403 1_565 S
Dy99 O111 2.664 1_565 S
Dy99 O113 2.326 . S
O100 Dy96 2.398 . S
O100 C98 1.185 . S
O101 Dy96 2.491 . S
O101 C98 1.355 . S
O102 Dy96 2.403 1_565 S
O102 C104 1.254 . S
O103 Dy96 2.664 1_565 S
O103 Dy99 2.310 1_455 S
O103 C104 1.268 . S
C104 O102 1.254 . S
C104 O103 1.268 . S
C105 O110 1.254 . S
C105 O111 1.268 . S
O106 Dy99 2.351 1_445 S
O106 C114 1.249 . S
O107 Dy96 2.326 . S
O107 C114 1.267 . S
O108 C97 1.185 . S
O108 Dy99 2.398 . S
O109 C97 1.355 . S
O109 Dy99 2.491 . S
O110 Dy99 2.403 1_545 S
O110 C105 1.254 . S
O111 Dy96 2.310 1_655 S
O111 Dy99 2.664 1_545 S
O111 C105 1.268 . S
O112 Dy96 2.351 1_665 S
O112 C115 1.249 . S
O113 Dy99 2.326 . S
O113 C115 1.267 . S
C114 O106 1.249 . S
C114 O107 1.267 . S
C115 O112 1.249 . S
C115 O113 1.267 . S
Dy116 O120 2.398 . S
Dy116 O121 2.491 . S
Dy116 O122 2.403 1_545 S
Dy116 O123 2.664 1_545 S
Dy116 O127 2.326 . S
Dy116 O131 2.310 . S
Dy116 O132 2.351 1_544 S
C117 O128 1.185 . S
C117 O129 1.355 . S
C118 O120 1.185 . S
C118 O121 1.355 . S
Dy119 O123 2.310 1_546 S
Dy119 O126 2.351 1_556 S
Dy119 O128 2.398 1_545 S
Dy119 O129 2.491 1_545 S
Dy119 O130 2.403 . S
Dy119 O131 2.664 1_556 S
Dy119 O133 2.326 1_545 S
O120 Dy116 2.398 . S
O120 C118 1.185 . S
O121 Dy116 2.491 . S
O121 C118 1.355 . S
O122 Dy116 2.403 1_565 S
O122 C124 1.254 . S
O123 Dy116 2.664 1_565 S
O123 Dy119 2.310 1_564 S
O123 C124 1.268 . S
C124 O122 1.254 . S
C124 O123 1.268 . S
C125 O130 1.254 . S
C125 O131 1.268 1_556 S
O126 Dy119 2.351 1_554 S
O126 C134 1.249 . S
O127 Dy116 2.326 . S
O127 C134 1.267 . S
O128 C117 1.185 . S
O128 Dy119 2.398 1_565 S
O129 C117 1.355 . S
O129 Dy119 2.491 1_565 S
O130 Dy119 2.403 . S
O130 C125 1.254 . S
O131 Dy116 2.310 . S
O131 Dy119 2.664 1_554 S
O131 C125 1.268 1_554 S
O132 Dy116 2.351 1_566 S
O132 C135 1.249 . S
O133 Dy119 2.326 1_565 S
O133 C135 1.267 . S
C134 O126 1.249 . S
C134 O127 1.267 . S
C135 O132 1.249 . S
C135 O133 1.267 . S
Dy136 O140 2.398 . S
Dy136 O141 2.491 . S
Dy136 O142 2.403 . S
Dy136 O143 2.664 . S
Dy136 O147 2.326 . S
Dy136 O151 2.310 . S
Dy136 O152 2.351 . S
C137 O148 1.185 . S
C137 O149 1.355 . S
C138 O140 1.185 . S
C138 O141 1.355 . S
Dy139 O143 2.310 . S
Dy139 O146 2.351 . S
Dy139 O148 2.398 . S
Dy139 O149 2.491 . S
Dy139 O150 2.403 . S
Dy139 O151 2.664 . S
Dy139 O153 2.326 . S
O140 Dy136 2.398 . S
O140 C138 1.185 . S
O141 Dy136 2.491 . S
O141 C138 1.355 . S
O142 Dy136 2.403 . S
O142 C144 1.254 . S
O143 Dy136 2.664 . S
O143 Dy139 2.310 . S
O143 C144 1.268 . S
C144 O142 1.254 . S
C144 O143 1.268 . S
C145 O150 1.254 . S
C145 O151 1.268 . S
O146 Dy139 2.351 . S
O146 C154 1.249 . S
O147 Dy136 2.326 . S
O147 C154 1.267 . S
O148 C137 1.185 . S
O148 Dy139 2.398 . S
O149 C137 1.355 . S
O149 Dy139 2.491 . S
O150 Dy139 2.403 . S
O150 C145 1.254 . S
O151 Dy136 2.310 . S
O151 Dy139 2.664 . S
O151 C145 1.268 . S
O152 Dy136 2.351 . S
O152 C155 1.249 . S
O153 Dy139 2.326 . S
O153 C155 1.267 . S
C154 O146 1.249 . S
C154 O147 1.267 . S
C155 O152 1.249 . S
C155 O153 1.267 . S
Dy156 O160 2.398 . S
Dy156 O161 2.491 . S
Dy156 O162 2.403 1_455 S
Dy156 O163 2.664 1_455 S
Dy156 O167 2.326 . S
Dy156 O171 2.310 1_554 S
Dy156 O172 2.353 1_454 S
C157 O168 1.185 . S
C157 O169 1.355 . S
C158 O160 1.185 . S
C158 O161 1.355 . S
Dy159 O163 2.310 1_456 S
Dy159 O166 2.351 1_556 S
Dy159 O168 2.398 1_455 S
Dy159 O169 2.491 1_455 S
Dy159 O170 2.403 . S
Dy159 O171 2.664 . S
Dy159 O173 2.326 1_455 S
O160 Dy156 2.398 . S
O160 C158 1.185 . S
O161 Dy156 2.491 . S
O161 C158 1.355 . S
O162 Dy156 2.403 1_655 S
O162 C164 1.254 . S
O163 Dy156 2.664 1_655 S
O163 Dy159 2.310 1_654 S
O163 C164 1.268 . S
C164 O162 1.254 . S
C164 O163 1.268 . S
C165 O170 1.254 . S
C165 O171 1.268 . S
O166 Dy159 2.351 1_554 S
O166 C174 1.249 . S
O167 Dy156 2.326 . S
O167 C174 1.267 . S
O168 C157 1.185 . S
O168 Dy159 2.398 1_655 S
O169 C157 1.355 . S
O169 Dy159 2.491 1_655 S
O170 Dy159 2.403 . S
O170 C165 1.254 . S
O171 Dy156 2.310 1_556 S
O171 Dy159 2.664 . S
O171 C165 1.268 . S
O172 Dy156 2.353 1_656 S
O172 C175 1.247 . S
O173 Dy159 2.326 1_655 S
O173 C175 1.267 . S
C174 O166 1.249 . S
C174 O167 1.267 . S
C175 O172 1.247 . S
C175 O173 1.267 . S
C176 C177 1.387 . S
C176 H180 0.950 . S
C176 C185 1.390 . S
C177 C176 1.387 . S
C177 C179 1.387 . S
H178 C185 0.950 . S
C179 C177 1.387 . S
C179 C181 1.390 . S
C179 H183 0.950 . S
H180 C176 0.950 . S
C181 C179 1.390 . S
C181 C182 1.387 . S
C181 H184 0.950 . S
C182 C181 1.387 . S
C182 C185 1.387 . S
H183 C179 0.950 . S
H184 C181 0.950 . S
C185 C176 1.390 . S
C185 H178 0.950 . S
C185 C182 1.387 . S
C186 C187 1.387 . S
C186 H190 0.950 . S
C186 C195 1.390 . S
C187 C186 1.387 . S
C187 C189 1.387 . S
H188 C195 0.950 . S
C189 C187 1.387 . S
C189 C191 1.390 . S
C189 H193 0.950 . S
H190 C186 0.950 . S
C191 C189 1.390 . S
C191 C192 1.387 . S
C191 H194 0.950 . S
C192 C191 1.387 . S
C192 C195 1.387 . S
H193 C189 0.950 . S
H194 C191 0.950 . S
C195 C186 1.390 . S
C195 H188 0.950 . S
C195 C192 1.387 . S
C196 C197 1.387 . S
C196 H200 0.950 . S
C196 C205 1.390 . S
C197 C196 1.387 . S
C197 C199 1.387 . S
H198 C205 0.950 . S
C199 C197 1.387 . S
C199 C201 1.390 . S
C199 H203 0.950 . S
H200 C196 0.950 . S
C201 C199 1.390 . S
C201 C202 1.387 . S
C201 H204 0.950 . S
C202 C201 1.387 . S
C202 C205 1.387 . S
H203 C199 0.950 . S
H204 C201 0.950 . S
C205 C196 1.390 . S
C205 H198 0.950 . S
C205 C202 1.387 . S
C206 C207 1.387 . S
C206 H210 0.950 . S
C206 C215 1.390 . S
C207 C206 1.387 . S
C207 C209 1.387 . S
H208 C215 0.950 . S
C209 C207 1.387 . S
C209 C211 1.390 . S
C209 H213 0.950 . S
H210 C206 0.950 . S
C211 C209 1.390 . S
C211 C212 1.387 . S
C211 H214 0.950 . S
C212 C211 1.387 . S
C212 C215 1.387 . S
H213 C209 0.950 . S
H214 C211 0.950 . S
C215 C206 1.390 . S
C215 H208 0.950 . S
C215 C212 1.387 . S
C216 C217 1.387 . S
C216 H220 0.950 . S
C216 C225 1.390 . S
C217 C216 1.387 . S
C217 C219 1.387 . S
H218 C225 0.950 . S
C219 C217 1.387 . S
C219 C221 1.390 . S
C219 H223 0.950 . S
H220 C216 0.950 . S
C221 C219 1.390 . S
C221 C222 1.387 . S
C221 H224 0.950 . S
C222 C221 1.387 . S
C222 C225 1.387 . S
H223 C219 0.950 . S
H224 C221 0.950 . S
C225 C216 1.390 . S
C225 H218 0.950 . S
C225 C222 1.387 . S
C226 C227 1.387 . S
C226 H230 0.950 . S
C226 C235 1.390 . S
C227 C226 1.387 . S
C227 C229 1.387 . S
H228 C235 0.950 . S
C229 C227 1.387 . S
C229 C231 1.390 . S
C229 H233 0.950 . S
H230 C226 0.950 . S
C231 C229 1.390 . S
C231 C232 1.387 . S
C231 H234 0.950 . S
C232 C231 1.387 . S
C232 C235 1.387 . S
H233 C229 0.950 . S
H234 C231 0.950 . S
C235 C226 1.390 . S
C235 H228 0.950 . S
C235 C232 1.387 . S
C236 C237 1.387 . S
C236 H240 0.950 . S
C236 C245 1.390 . S
C237 C236 1.387 . S
C237 C239 1.387 . S
H238 C245 0.950 . S
C239 C237 1.387 . S
C239 C241 1.390 . S
C239 H243 0.950 . S
H240 C236 0.950 . S
C241 C239 1.390 . S
C241 C242 1.387 . S
C241 H244 0.950 . S
C242 C241 1.387 . S
C242 C245 1.387 . S
H243 C239 0.950 . S
H244 C241 0.950 . S
C245 C236 1.390 . S
C245 H238 0.950 . S
C245 C242 1.387 . S
C246 C247 1.387 . S
C246 H250 0.950 . S
C246 C255 1.390 . S
C247 C246 1.387 . S
C247 C249 1.387 . S
H248 C255 0.950 . S
C249 C247 1.387 . S
C249 C251 1.390 . S
C249 H253 0.950 . S
H250 C246 0.950 . S
C251 C249 1.390 . S
C251 C252 1.387 . S
C251 H254 0.950 . S
C252 C251 1.387 . S
C252 C255 1.387 . S
H253 C249 0.950 . S
H254 C251 0.950 . S
C255 C246 1.390 . S
C255 H248 0.950 . S
C255 C252 1.387 . S
C256 C257 1.387 . S
C256 H260 0.950 . S
C256 C265 1.390 . S
C257 C256 1.387 . S
C257 C259 1.387 . S
H258 C265 0.950 . S
C259 C257 1.387 . S
C259 C261 1.390 . S
C259 H263 0.950 . S
H260 C256 0.950 . S
C261 C259 1.390 . S
C261 C262 1.387 . S
C261 H264 0.950 . S
C262 C261 1.387 . S
C262 C265 1.387 . S
H263 C259 0.950 . S
H264 C261 0.950 . S
C265 C256 1.390 . S
C265 H258 0.950 . S
C265 C262 1.387 . S
C266 C267 1.387 . S
C266 H270 0.950 . S
C266 C275 1.390 . S
C267 C266 1.387 . S
C267 C269 1.387 . S
H268 C275 0.950 1_554 S
C269 C267 1.387 . S
C269 C271 1.390 . S
C269 H273 0.950 . S
H270 C266 0.950 . S
C271 C269 1.390 . S
C271 C272 1.387 . S
C271 H274 0.950 . S
C272 C271 1.387 . S
C272 C275 1.387 . S
H273 C269 0.950 . S
H274 C271 0.950 . S
C275 C266 1.390 . S
C275 H268 0.950 1_556 S
C275 C272 1.387 . S
C276 C277 1.387 . S
C276 H280 0.950 . S
C276 C285 1.390 . S
C277 C276 1.387 . S
C277 C279 1.387 . S
H278 C285 0.950 . S
C279 C277 1.387 . S
C279 C281 1.390 . S
C279 H283 0.950 . S
H280 C276 0.950 . S
C281 C279 1.390 . S
C281 C282 1.387 . S
C281 H284 0.950 . S
C282 C281 1.387 . S
C282 C285 1.387 . S
H283 C279 0.950 . S
H284 C281 0.950 . S
C285 C276 1.390 . S
C285 H278 0.950 . S
C285 C282 1.387 . S
C286 C287 1.387 . S
C286 H290 0.950 . S
C286 C295 1.390 . S
C287 C286 1.387 . S
C287 C289 1.387 . S
H288 C295 0.950 . S
C289 C287 1.387 . S
C289 C291 1.390 . S
C289 H293 0.950 . S
H290 C286 0.950 . S
C291 C289 1.390 . S
C291 C292 1.387 . S
C291 H294 0.950 . S
C292 C291 1.387 . S
C292 C295 1.387 . S
H293 C289 0.950 . S
H294 C291 0.950 . S
C295 C286 1.390 . S
C295 H288 0.950 . S
C295 C292 1.387 . S
C296 C297 1.387 . S
C296 H300 0.950 . S
C296 C305 1.390 . S
C297 C296 1.387 . S
C297 C299 1.387 . S
H298 C305 0.950 . S
C299 C297 1.387 . S
C299 C301 1.390 . S
C299 H303 0.950 . S
H300 C296 0.950 . S
C301 C299 1.390 . S
C301 C302 1.387 . S
C301 H304 0.950 . S
C302 C301 1.387 . S
C302 C305 1.387 . S
H303 C299 0.950 . S
H304 C301 0.950 . S
C305 C296 1.390 . S
C305 H298 0.950 . S
C305 C302 1.387 . S
C306 C307 1.387 . S
C306 H310 0.950 . S
C306 C315 1.390 . S
C307 C306 1.387 . S
C307 C309 1.387 . S
H308 C315 0.950 . S
C309 C307 1.387 . S
C309 C311 1.390 . S
C309 H313 0.950 . S
H310 C306 0.950 . S
C311 C309 1.390 . S
C311 C312 1.387 . S
C311 H314 0.950 . S
C312 C311 1.387 . S
C312 C315 1.387 . S
H313 C309 0.950 . S
H314 C311 0.950 . S
C315 C306 1.390 . S
C315 H308 0.950 . S
C315 C312 1.387 . S
C316 C317 1.387 . S
C316 H320 0.950 . S
C316 C325 1.390 . S
C317 C316 1.387 . S
C317 C319 1.387 . S
H318 C325 0.950 . S
C319 C317 1.387 . S
C319 C321 1.390 . S
C319 H323 0.950 . S
H320 C316 0.950 . S
C321 C319 1.390 . S
C321 C322 1.387 . S
C321 H324 0.950 . S
C322 C321 1.387 . S
C322 C325 1.387 . S
H323 C319 0.950 . S
H324 C321 0.950 . S
C325 C316 1.390 . S
C325 H318 0.950 . S
C325 C322 1.387 . S
C326 C327 1.387 . S
C326 H330 0.950 . S
C326 C335 1.390 . S
C327 C326 1.387 . S
C327 C329 1.387 . S
H328 C335 0.950 . S
C329 C327 1.387 . S
C329 C331 1.390 . S
C329 H333 0.950 . S
H330 C326 0.950 . S
C331 C329 1.390 . S
C331 C332 1.387 . S
C331 H334 0.950 . S
C332 C331 1.387 . S
C332 C335 1.387 . S
H333 C329 0.950 . S
H334 C331 0.950 . S
C335 C326 1.390 . S
C335 H328 0.950 . S
C335 C332 1.387 . S
C336 C337 1.387 . S
C336 H340 0.950 . S
C336 C345 1.390 . S
C337 C336 1.387 . S
C337 C339 1.387 . S
H338 C345 0.950 . S
C339 C337 1.387 . S
C339 C341 1.390 . S
C339 H343 0.950 . S
H340 C336 0.950 . S
C341 C339 1.390 . S
C341 C342 1.387 . S
C341 H344 0.950 . S
C342 C341 1.387 . S
C342 C345 1.387 . S
H343 C339 0.950 . S
H344 C341 0.950 . S
C345 C336 1.390 . S
C345 H338 0.950 . S
C345 C342 1.387 . S
C346 C347 1.387 . S
C346 H350 0.950 . S
C346 C355 1.390 . S
C347 C346 1.387 . S
C347 C349 1.387 . S
H348 C355 0.950 . S
C349 C347 1.387 . S
C349 C351 1.390 . S
C349 H353 0.950 . S
H350 C346 0.950 . S
C351 C349 1.390 . S
C351 C352 1.387 . S
C351 H354 0.950 . S
C352 C351 1.387 . S
C352 C355 1.387 . S
H353 C349 0.950 . S
H354 C351 0.950 . S
C355 C346 1.390 . S
C355 H348 0.950 . S
C355 C352 1.387 . S
C356 C357 1.387 . S
C356 H360 0.950 . S
C356 C365 1.390 . S
C357 C356 1.387 . S
C357 C359 1.387 . S
H358 C365 0.950 . S
C359 C357 1.387 . S
C359 C361 1.390 . S
C359 H363 0.950 . S
H360 C356 0.950 . S
C361 C359 1.390 . S
C361 C362 1.387 . S
C361 H364 0.950 . S
C362 C361 1.387 . S
C362 C365 1.387 . S
H363 C359 0.950 . S
H364 C361 0.950 . S
C365 C356 1.390 . S
C365 H358 0.950 . S
C365 C362 1.387 . S
C366 C367 1.387 . S
C366 H370 0.950 . S
C366 C375 1.390 . S
C367 C366 1.387 . S
C367 C369 1.387 . S
H368 C375 0.950 . S
C369 C367 1.387 . S
C369 C371 1.390 . S
C369 H373 0.950 . S
H370 C366 0.950 . S
C371 C369 1.390 . S
C371 C372 1.387 . S
C371 H374 0.950 . S
C372 C371 1.387 . S
C372 C375 1.387 . S
H373 C369 0.950 . S
H374 C371 0.950 . S
C375 C366 1.390 . S
C375 H368 0.950 . S
C375 C372 1.387 . S
C376 C377 1.387 . S
C376 H380 0.950 . S
C376 C385 1.390 . S
C377 C376 1.387 . S
C377 C379 1.387 . S
H378 C385 0.950 . S
C379 C377 1.387 . S
C379 C381 1.390 . S
C379 H383 0.950 . S
H380 C376 0.950 . S
C381 C379 1.390 . S
C381 C382 1.387 . S
C381 H384 0.950 . S
C382 C381 1.387 . S
C382 C385 1.387 . S
H383 C379 0.950 . S
H384 C381 0.950 . S
C385 C376 1.390 . S
C385 H378 0.950 . S
C385 C382 1.387 . S
C386 C387 1.387 . S
C386 H390 0.950 . S
C386 C395 1.390 . S
C387 C386 1.387 . S
C387 C389 1.387 . S
H388 C395 0.950 . S
C389 C387 1.387 . S
C389 C391 1.390 . S
C389 H393 0.950 . S
H390 C386 0.950 . S
C391 C389 1.390 . S
C391 C392 1.387 . S
C391 H394 0.950 . S
C392 C391 1.387 . S
C392 C395 1.387 . S
H393 C389 0.950 . S
H394 C391 0.950 . S
C395 C386 1.390 . S
C395 H388 0.950 . S
C395 C392 1.387 . S
C396 C397 1.387 . S
C396 H400 0.950 . S
C396 C405 1.390 . S
C397 C396 1.387 . S
C397 C399 1.387 . S
H398 C405 0.950 . S
C399 C397 1.387 . S
C399 C401 1.390 . S
C399 H403 0.950 . S
H400 C396 0.950 . S
C401 C399 1.390 . S
C401 C402 1.387 . S
C401 H404 0.950 . S
C402 C401 1.387 . S
C402 C405 1.387 . S
H403 C399 0.950 . S
H404 C401 0.950 . S
C405 C396 1.390 . S
C405 H398 0.950 . S
C405 C402 1.387 . S
C406 C407 1.387 . S
C406 H410 0.950 . S
C406 C415 1.390 . S
C407 C406 1.387 . S
C407 C409 1.387 . S
H408 C415 0.950 . S
C409 C407 1.387 . S
C409 C411 1.390 . S
C409 H413 0.950 . S
H410 C406 0.950 . S
C411 C409 1.390 . S
C411 C412 1.387 . S
C411 H414 0.950 . S
C412 C411 1.387 . S
C412 C415 1.387 . S
H413 C409 0.950 . S
H414 C411 0.950 . S
C415 C406 1.390 . S
C415 H408 0.950 . S
C415 C412 1.387 . S
C177 C6 1.439 . S
C182 C98 1.454 . S
C187 C18 1.521 . S
C192 C117 1.490 . S
C202 C154 1.811 . S
C197 C28 1.841 . S
C207 C40 1.354 . S
C212 C164 1.316 . S
C222 C134 1.942 . S
C217 C9 1.882 . S
C232 C104 1.392 . S
C227 C16 1.456 . S
C242 C175 1.556 . S
C237 C30 1.579 . S
C252 C145 1.237 . S
C247 C42 1.265 . S
C257 C4 1.559 . S
C262 C158 1.591 . S
C272 C125 1.810 . S
C267 C33 1.873 . S
C277 C45 1.605 . S
C282 C115 1.595 . S
C287 C21 1.395 . S
C292 C137 1.395 . S
C302 C97 1.458 . S
C297 C57 1.465 . S
C307 C66 1.534 . S
C312 C118 1.482 . S
C317 C76 1.881 . S
C322 C155 1.840 . S
C327 C88 1.304 . S
C332 C165 1.276 . S
C337 C54 1.860 . S
C342 C135 1.918 . S
C352 C105 1.446 . S
C347 C64 1.511 . S
C362 C174 1.474 . S
C357 C78 1.506 . S
C372 C144 1.253 . S
C367 C93 1.283 . S
C377 C52 1.511 . S
C382 C157 1.579 . S
C392 C124 1.801 . S
C387 C81 1.867 . S
C402 C114 1.596 . S
C397 C90 1.601 . S
C407 C69 1.408 . S
C412 C138 1.413 . S
