# Generated by pormake.
# Topology zzz, (3,6)-cn, num edge types: 1
# Building blocks:
#     Node 0, Type 0, BuildingBlock: KAKCAD_clean_linker_0, # of connection points: 3
#     Node 1, Type 0, BuildingBlock: KAKCAD_clean_linker_0, # of connection points: 3
#     Node 2, Type 0, BuildingBlock: KAKCAD_clean_linker_0, # of connection points: 3
#     Node 3, Type 0, BuildingBlock: KAKCAD_clean_linker_0, # of connection points: 3
#     Node 4, Type 0, BuildingBlock: KAKCAD_clean_linker_0, # of connection points: 3
#     Node 5, Type 0, BuildingBlock: KAKCAD_clean_linker_0, # of connection points: 3
#     Node 6, Type 0, BuildingBlock: KAKCAD_clean_linker_0, # of connection points: 3
#     Node 7, Type 0, BuildingBlock: KAKCAD_clean_linker_0, # of connection points: 3
#     Node 8, Type 1, BuildingBlock: BETDIP_clean_sbu_0, # of connection points: 6
#     Node 9, Type 1, BuildingBlock: BETDIP_clean_sbu_0, # of connection points: 6
#     Node 10, Type 1, BuildingBlock: BETDIP_clean_sbu_0, # of connection points: 6
#     Node 11, Type 1, BuildingBlock: BETDIP_clean_sbu_0, # of connection points: 6
#     Edge 12, Type (0, 1), BuildingBlock: XUDNAN_clean_linker_2, # of connection points: 2
#     Edge 13, Type (0, 1), BuildingBlock: XUDNAN_clean_linker_2, # of connection points: 2
#     Edge 14, Type (0, 1), BuildingBlock: XUDNAN_clean_linker_2, # of connection points: 2
#     Edge 15, Type (0, 1), BuildingBlock: XUDNAN_clean_linker_2, # of connection points: 2
#     Edge 16, Type (0, 1), BuildingBlock: XUDNAN_clean_linker_2, # of connection points: 2
#     Edge 17, Type (0, 1), BuildingBlock: XUDNAN_clean_linker_2, # of connection points: 2
#     Edge 18, Type (0, 1), BuildingBlock: XUDNAN_clean_linker_2, # of connection points: 2
#     Edge 19, Type (0, 1), BuildingBlock: XUDNAN_clean_linker_2, # of connection points: 2
#     Edge 20, Type (0, 1), BuildingBlock: XUDNAN_clean_linker_2, # of connection points: 2
#     Edge 21, Type (0, 1), BuildingBlock: XUDNAN_clean_linker_2, # of connection points: 2
#     Edge 22, Type (0, 1), BuildingBlock: XUDNAN_clean_linker_2, # of connection points: 2
#     Edge 23, Type (0, 1), BuildingBlock: XUDNAN_clean_linker_2, # of connection points: 2
#     Edge 24, Type (0, 1), BuildingBlock: XUDNAN_clean_linker_2, # of connection points: 2
#     Edge 25, Type (0, 1), BuildingBlock: XUDNAN_clean_linker_2, # of connection points: 2
#     Edge 26, Type (0, 1), BuildingBlock: XUDNAN_clean_linker_2, # of connection points: 2
#     Edge 27, Type (0, 1), BuildingBlock: XUDNAN_clean_linker_2, # of connection points: 2
#     Edge 28, Type (0, 1), BuildingBlock: XUDNAN_clean_linker_2, # of connection points: 2
#     Edge 29, Type (0, 1), BuildingBlock: XUDNAN_clean_linker_2, # of connection points: 2
#     Edge 30, Type (0, 1), BuildingBlock: XUDNAN_clean_linker_2, # of connection points: 2
#     Edge 31, Type (0, 1), BuildingBlock: XUDNAN_clean_linker_2, # of connection points: 2
#     Edge 32, Type (0, 1), BuildingBlock: XUDNAN_clean_linker_2, # of connection points: 2
#     Edge 33, Type (0, 1), BuildingBlock: XUDNAN_clean_linker_2, # of connection points: 2
#     Edge 34, Type (0, 1), BuildingBlock: XUDNAN_clean_linker_2, # of connection points: 2
#     Edge 35, Type (0, 1), BuildingBlock: XUDNAN_clean_linker_2, # of connection points: 2
# Relax obj value: 0.438
# Max RMSD: 0.264
# Mean RMSD: 0.241
data_MOF--net-zzz--node1-BETDIP_clean_sbu_0--node2-KAKCAD_clean_linker_0--edge1-XUDNAN_clean_linker_2
_symmetry_space_group_name_H-M    P1
_symmetry_Int_Tables_number       1
_symmetry_cell_setting            triclinic
loop_
_symmetry_equiv_pos_as_xyz
'x, y, z'
_cell_length_a     59.812141
_cell_length_b     59.917454
_cell_length_c     18.599342
_cell_angle_alpha  89.85494
_cell_angle_beta   89.698036
_cell_angle_gamma 89.994495
loop_
_atom_site_label
_atom_site_type_symbol
_atom_site_fract_x
_atom_site_fract_y
_atom_site_fract_z
_atom_type_partial_charge
C0 C 0.77124 0.41898 0.03753 0.0
C1 C 0.78746 0.40413 0.06409 0.0
C2 C 0.75893 0.43243 0.08451 0.0
C3 C 0.76224 0.43099 0.1592 0.0
C4 C 0.77652 0.41432 0.18589 0.0
C5 C 0.78913 0.40118 0.13896 0.0
C6 C 0.75303 0.44841 0.20796 0.0
C7 C 0.73193 0.45781 0.19586 0.0
C8 C 0.7243 0.47609 0.2363 0.0
C9 C 0.73807 0.48487 0.29124 0.0
C10 C 0.75901 0.47489 0.30584 0.0
C11 C 0.76627 0.45697 0.26351 0.0
C12 C 0.77404 0.48209 0.36502 0.0
C13 C 0.78928 0.49967 0.35473 0.0
C14 C 0.77691 0.4679 0.42445 0.0
C15 C 0.795 0.47067 0.47116 0.0
C16 C 0.81093 0.48768 0.4597 0.0
C17 C 0.70227 0.4859 0.2165 0.0
C18 C 0.70106 0.50717 0.18506 0.0
C19 C 0.68312 0.47229 0.21564 0.0
C20 C 0.6635 0.47936 0.18153 0.0
C21 C 0.66255 0.50017 0.14621 0.0
C22 C 0.6815 0.5142 0.15012 0.0
C23 C 0.80748 0.50249 0.40162 0.0
H24 H 0.76909 0.4213 0.98022 0.0
H25 H 0.74802 0.44499 0.06178 0.0
H26 H 0.77895 0.41227 0.24319 0.0
H27 H 0.8014 0.38999 0.16187 0.0
H28 H 0.7215 0.45122 0.15339 0.0
H29 H 0.78278 0.45011 0.27294 0.0
H30 H 0.7324 0.49896 0.32286 0.0
H31 H 0.78782 0.51048 0.30822 0.0
H32 H 0.76582 0.4538 0.43238 0.0
H33 H 0.7971 0.45863 0.51407 0.0
H34 H 0.71571 0.5178 0.18345 0.0
H35 H 0.68364 0.4557 0.23896 0.0
H36 H 0.81914 0.51595 0.39125 0.0
H37 H 0.68171 0.5302 0.12305 0.0
H38 H 0.64924 0.46824 0.18151 0.0
C39 C 0.08921 0.75407 0.00916 0.0
C40 C 0.09871 0.77526 0.02123 0.0
C41 C 0.07805 0.74268 0.06423 0.0
C42 C 0.07724 0.75137 0.13451 0.0
C43 C 0.08973 0.77072 0.14876 0.0
C44 C 0.09977 0.78277 0.09303 0.0
C45 C 0.06186 0.7417 0.19047 0.0
C46 C 0.055 0.71935 0.18754 0.0
C47 C 0.03806 0.71091 0.23302 0.0
C48 C 0.02863 0.72527 0.2858 0.0
C49 C 0.03636 0.74752 0.29261 0.0
C50 C 0.05236 0.75548 0.24336 0.0
C51 C 0.02763 0.76376 0.3472 0.0
C52 C 1.0047 0.76843 0.3535 0.0
C53 C 0.04277 0.77765 0.38389 0.0
C54 C 0.03546 0.79677 0.42027 0.0
C55 C 0.01268 0.80259 0.42186 0.0
C56 C 0.02955 0.68772 0.21858 0.0
C57 C 1.00654 0.68312 0.21634 0.0
C58 C 0.04439 0.67094 0.19501 0.0
C59 C 0.03655 0.65149 0.16201 0.0
C60 C 0.01347 0.64764 0.15364 0.0
C61 C 0.99863 0.66327 0.18523 0.0
C62 C 0.99731 0.78756 0.39055 0.0
H63 H 0.08916 0.74659 0.95638 0.0
H64 H 0.06905 0.72773 0.04972 0.0
H65 H 0.09087 0.77741 0.2026 0.0
H66 H 0.10703 0.79864 0.10717 0.0
H67 H 0.06224 0.70856 0.14724 0.0
H68 H 0.05656 0.77304 0.24472 0.0
H69 H 0.01565 0.71916 0.32158 0.0
H70 H 0.99259 0.75815 0.32591 0.0
H71 H 0.06058 0.77446 0.38056 0.0
H72 H 0.04795 0.8077 0.44307 0.0
H73 H 0.99453 0.69543 0.23454 0.0
H74 H 0.0623 0.67343 0.19798 0.0
H75 H 0.97955 0.79098 0.39215 0.0
H76 H 0.98075 0.66072 0.18375 0.0
H77 H 0.04884 0.64024 0.13952 0.0
C78 C 0.75564 0.0991 0.05757 0.0
C79 C 0.73726 0.11156 0.0825 0.0
C80 C 0.76655 0.08418 0.10316 0.0
C81 C 0.76001 0.08208 0.17575 0.0
C82 C 0.74412 0.09722 0.20301 0.0
C83 C 0.73264 0.11156 0.15681 0.0
C84 C 0.76739 0.06248 0.21947 0.0
C85 C 0.78819 0.05245 0.20706 0.0
C86 C 0.79396 0.03181 0.23831 0.0
C87 C 0.77834 0.02141 0.28567 0.0
C88 C 0.75768 0.03196 0.30205 0.0
C89 C 0.75248 0.05218 0.26765 0.0
C90 C 0.74018 0.02217 0.35098 0.0
C91 C 0.73143 1.00073 0.3394 0.0
C92 C 0.72927 0.03601 0.40136 0.0
C93 C 0.70932 0.02935 0.43503 0.0
C94 C 0.69956 0.00853 0.41975 0.0
C95 C 0.81554 0.02111 0.21441 0.0
C96 C 0.81675 0.99831 0.1975 0.0
C97 C 0.83424 0.03451 0.19742 0.0
C98 C 0.85217 0.02617 0.15685 0.0
C99 C 0.85265 1.00375 0.13411 0.0
C100 C 0.83515 0.9897 0.15904 0.0
C101 C 0.7114 0.99399 0.37337 0.0
H102 H 0.76028 0.0993 1.00121 0.0
H103 H 0.77877 0.07309 0.07938 0.0
H104 H 0.73934 0.09691 0.25923 0.0
H105 H 0.71881 0.12103 0.17879 0.0
H106 H 0.79963 0.06037 0.16975 0.0
H107 H 0.73599 0.05925 0.27569 0.0
H108 H 0.78227 1.00547 0.31008 0.0
H109 H 0.73927 0.98969 0.30074 0.0
H110 H 0.73556 0.05265 0.4117 0.0
H111 H 0.7009 0.04118 0.46975 0.0
H112 H 0.80293 0.9873 0.21031 0.0
H113 H 0.8345 0.052 0.21188 0.0
H114 H 0.70483 0.9776 0.36128 0.0
H115 H 0.83506 0.97206 0.14709 0.0
H116 H 0.86493 0.0379 0.14057 0.0
C117 C 0.48871 0.71721 0.46476 0.0
C118 C 0.50614 0.70167 0.45508 0.0
C119 C 0.48542 0.73458 0.41547 0.0
C120 C 0.49949 0.73703 0.35526 0.0
C121 C 0.51782 0.72254 0.3479 0.0
C122 C 0.52113 0.70505 0.39726 0.0
C123 C 0.49129 0.74978 0.29197 0.0
C124 C 0.5024 0.76853 0.26252 0.0
C125 C 0.49431 0.77874 0.19885 0.0
C126 C 0.47553 0.76933 0.16468 0.0
C127 C 0.46477 0.75038 0.19257 0.0
C128 C 0.47229 0.74142 0.25771 0.0
C129 C 0.44723 0.7385 0.15059 0.0
C130 C 0.43226 0.75 0.10528 0.0
C131 C 0.4465 0.71503 0.15189 0.0
C132 C 0.43167 0.70341 0.10868 0.0
C133 C 0.41741 0.7148 0.06156 0.0
C134 C 0.50481 0.7992 0.16652 0.0
C135 C 0.51152 0.81726 0.2094 0.0
C136 C 0.50586 0.80177 0.09127 0.0
C137 C 0.51145 0.82227 0.05989 0.0
C138 C 0.51686 0.84087 0.10251 0.0
C139 C 0.51761 0.83776 0.17784 0.0
C140 C 0.41768 0.73822 0.06038 0.0
H141 H 0.47661 0.71515 0.50776 0.0
H142 H 0.47083 0.74516 0.42147 0.0
H143 H 0.52862 0.72371 0.3011 0.0
H144 H 0.53494 0.69368 0.38853 0.0
H145 H 0.51721 0.77497 0.28858 0.0
H146 H 0.46381 0.72713 0.28107 0.0
H147 H 0.46948 0.7766 0.11516 0.0
H148 H 0.43208 0.76805 0.10338 0.0
H149 H 0.45814 0.70539 0.18374 0.0
H150 H 0.43231 0.68533 0.10917 0.0
H151 H 0.51108 0.81594 0.26747 0.0
H152 H 0.50148 0.78809 0.0561 0.0
H153 H 0.40694 0.74733 0.0239 0.0
H154 H 0.52235 0.8513 0.21297 0.0
H155 H 0.51042 0.82359 1.002 0.0
C156 C 0.23571 0.58192 0.35507 0.0
C157 C 0.23014 0.57169 0.42109 0.0
C158 C 0.24635 0.56976 0.30082 0.0
C159 C 0.25224 0.54742 0.31247 0.0
C160 C 0.2484 0.53768 0.3799 0.0
C161 C 0.23729 0.54961 0.43353 0.0
C162 C 0.26111 0.53373 0.25332 0.0
C163 C 0.28235 0.52431 0.25857 0.0
C164 C 0.29079 0.51056 0.20403 0.0
C165 C 0.27721 0.5056 0.14382 0.0
C166 C 0.25548 0.51499 0.13868 0.0
C167 C 0.24786 0.52923 0.19335 0.0
C168 C 0.23993 0.5106 0.07796 0.0
C169 C 0.23535 0.52773 0.02848 0.0
C170 C 0.22596 0.49173 0.07885 0.0
C171 C 0.20744 0.49033 0.03263 0.0
C172 C 0.20241 0.50781 0.98438 0.0
C173 C 0.31418 0.50268 0.21282 0.0
C174 C 0.33177 0.5174 0.19659 0.0
C175 C 0.31863 0.48408 0.25661 0.0
C176 C 0.33994 0.48092 0.28651 0.0
C177 C 0.35726 0.49648 0.27426 0.0
C178 C 0.353 0.51436 0.22673 0.0
C179 C 0.21698 0.52631 0.98211 0.0
H180 H 0.23096 0.59902 0.34405 0.0
H181 H 0.24951 0.5776 0.24921 0.0
H182 H 0.25287 0.52041 0.38969 0.0
H183 H 0.23306 0.54091 0.48282 0.0
H184 H 0.29254 0.52797 0.3052 0.0
H185 H 0.23124 0.53641 0.19012 0.0
H186 H 0.2835 0.49487 0.10153 0.0
H187 H 0.24541 0.54277 0.02815 0.0
H188 H 0.22872 0.47856 0.11784 0.0
H189 H 0.19682 0.47572 0.03569 0.0
H190 H 0.32861 0.53229 0.16506 0.0
H191 H 0.30523 0.47282 0.27165 0.0
H192 H 0.21361 0.5403 0.94683 0.0
H193 H 0.3656 0.52695 0.21641 0.0
H194 H 0.34254 0.46672 0.32158 0.0
C195 C 0.92524 0.23556 0.37679 0.0
C196 C 0.93076 0.21497 0.40808 0.0
C197 C 0.93944 0.24511 0.3251 0.0
C198 C 0.95889 0.23382 0.3029 0.0
C199 C 0.9642 0.21317 0.33378 0.0
C200 C 0.95034 0.20389 0.38614 0.0
C201 C 0.9743 0.24372 0.24957 0.0
C202 C 0.98377 0.26456 0.26253 0.0
C203 C 1.00033 0.27341 0.21685 0.0
C204 C 1.00668 0.2612 0.15452 0.0
C205 C 0.99681 0.24007 0.14065 0.0
C206 C 0.98086 0.23158 0.18897 0.0
C207 C 1.0023 0.22586 0.07721 0.0
C208 C 0.98707 0.22472 0.02015 0.0
C209 C 0.01886 0.20927 0.08221 0.0
C210 C 0.01975 0.1916 0.03243 0.0
C211 C 1.00393 0.18991 0.97666 0.0
C212 C 0.0105 0.29513 0.23891 0.0
C213 C 0.00844 0.3144 0.19635 0.0
C214 C 0.01797 0.29756 0.31011 0.0
C215 C 0.0213 0.31868 0.34017 0.0
C216 C 0.01764 0.33823 0.2997 0.0
C217 C 0.0121 0.33569 0.22624 0.0
C218 C 0.98789 0.2071 0.97059 0.0
H219 H 0.91008 0.2442 0.39246 0.0
H220 H 0.93513 0.26112 0.30178 0.0
H221 H 0.97922 0.2043 0.31789 0.0
H222 H 0.9547 0.18776 0.40853 0.0
H223 H 0.97865 0.2737 0.31015 0.0
H224 H 0.9735 0.21531 0.17936 0.0
H225 H 0.01928 0.26782 0.11829 0.0
H226 H 0.97361 0.23676 0.01646 0.0
H227 H 0.03037 0.20931 0.12697 0.0
H228 H 0.03254 0.17898 0.03881 0.0
H229 H 1.00259 0.31313 0.1415 0.0
H230 H 0.01968 0.28303 0.34445 0.0
H231 H 0.97509 0.2064 0.92973 0.0
H232 H 0.00973 0.35015 0.19219 0.0
H233 H 0.02533 0.31948 0.39672 0.0
C234 C 0.25153 0.07336 0.41458 0.0
C235 C 0.27432 0.07877 0.4183 0.0
C236 C 0.24155 0.06936 0.34831 0.0
C237 C 0.25381 0.07189 0.28371 0.0
C238 C 0.27516 0.08161 0.28756 0.0
C239 C 0.28549 0.08458 0.35396 0.0
C240 C 0.24597 0.06102 0.21593 0.0
C241 C 0.22323 0.05654 0.20595 0.0
C242 C 0.21589 0.04086 0.15531 0.0
C243 C 0.23178 0.03114 0.10773 0.0
C244 C 0.25462 0.03737 0.11193 0.0
C245 C 0.2614 0.05179 0.16703 0.0
C246 C 0.27269 0.02808 0.06494 0.0
C247 C 0.28668 0.01129 0.09242 0.0
C248 C 0.28003 0.04008 1.00401 0.0
C249 C 0.3014 0.03626 0.97398 0.0
C250 C 0.31608 0.02064 1.00515 0.0
C251 C 0.19208 0.0334 0.16246 0.0
C252 C 0.18707 0.01118 0.18116 0.0
C253 C 0.17514 0.04958 0.17077 0.0
C254 C 0.15474 0.04423 0.20389 0.0
C255 C 0.1504 0.02242 0.22788 0.0
C256 C 0.16636 1.00571 0.2131 0.0
C257 C 0.30803 0.00761 0.06295 0.0
H258 H 0.24194 0.06992 0.4629 0.0
H259 H 0.22494 0.06228 0.34936 0.0
H260 H 0.28475 0.08518 0.23939 0.0
H261 H 0.30294 0.08931 0.35347 0.0
H262 H 0.21108 0.06407 0.24172 0.0
H263 H 0.27914 0.05468 0.1736 0.0
H264 H 0.22651 0.01885 0.06874 0.0
H265 H 0.28179 1.00218 0.14038 0.0
H266 H 0.26994 0.05358 0.98298 0.0
H267 H 0.30705 0.04673 0.92995 0.0
H268 H 0.1998 0.99839 0.17671 0.0
H269 H 0.17844 0.06686 0.15708 0.0
H270 H 0.31876 0.99534 0.0881 0.0
H271 H 0.16345 0.98871 0.23073 0.0
H272 H 0.14266 0.05739 0.21338 0.0
C273 C 0.49866 0.30698 0.02964 0.0
C274 C 0.51435 0.30958 0.97336 0.0
C275 C 0.50022 0.28907 0.07821 0.0
C276 C 0.51725 0.27306 0.07121 0.0
C277 C 0.53213 0.27482 0.01287 0.0
C278 C 0.53071 0.29281 0.96455 0.0
C279 C 0.52336 0.25899 0.13405 0.0
C280 C 0.51825 0.23595 0.14004 0.0
C281 C 0.52587 0.22361 0.20034 0.0
C282 C 0.53833 0.23456 0.25346 0.0
C283 C 0.54305 0.2573 0.24827 0.0
C284 C 0.5355 0.26939 0.18878 0.0
C285 C 0.55545 0.26861 0.30604 0.0
C286 C 0.54666 0.28801 0.33705 0.0
C287 C 0.57612 0.26031 0.32989 0.0
C288 C 0.58816 0.27175 0.38251 0.0
C289 C 0.57943 0.29134 0.4129 0.0
C290 C 0.52094 0.19951 0.21264 0.0
C291 C 0.49887 0.19202 0.22298 0.0
C292 C 0.53862 0.18515 0.23124 0.0
C293 C 0.53447 0.16481 0.26568 0.0
C294 C 0.5125 0.15808 0.28142 0.0
C295 C 0.49468 0.17137 0.25682 0.0
C296 C 0.55847 0.29921 0.39015 0.0
H297 H 0.48554 0.31918 0.03774 0.0
H298 H 0.48888 0.28843 0.12378 0.0
H299 H 0.54587 0.26315 0.00761 0.0
H300 H 0.54333 0.2942 0.92287 0.0
H301 H 0.50876 0.22774 0.09831 0.0
H302 H 0.53946 0.28702 0.18436 0.0
H303 H 0.54384 0.22545 0.30064 0.0
H304 H 0.53068 0.2946 0.31984 0.0
H305 H 0.5832 0.24535 0.3064 0.0
H306 H 0.60436 0.26549 0.39885 0.0
H307 H 0.48493 0.20284 0.21019 0.0
H308 H 0.55581 0.19048 0.22404 0.0
H309 H 0.55154 0.31453 0.41161 0.0
H310 H 0.47757 0.16657 0.2683 0.0
H311 H 0.54851 0.15479 0.28319 0.0
Tb312 Tb 0.01515 0.99402 0.72064 0.0
Tb313 Tb 0.9808 1.00482 0.62432 0.0
C314 C 0.04019 0.9752 0.81049 0.0
C315 C 0.05176 0.95347 0.81067 0.0
C316 C 0.03997 0.93364 0.79768 0.0
C317 C 0.05118 0.91329 0.79519 0.0
C318 C 0.07445 0.91225 0.80479 0.0
C319 C 0.08626 0.93208 0.81808 0.0
C320 C 0.07499 0.95254 0.82094 0.0
C321 C 0.03081 0.00943 0.59529 0.0
C322 C 0.99698 0.95651 0.61242 0.0
C323 C 0.9538 0.02251 0.53823 0.0
C324 C 0.93802 0.04087 0.54924 0.0
C325 C 0.92675 0.05023 0.49083 0.0
C326 C 0.91329 0.06904 0.50077 0.0
C327 C 0.91103 0.07874 0.56933 0.0
C328 C 0.92149 0.06854 0.62834 0.0
C329 C 0.93487 0.04972 0.61836 0.0
C330 C 0.96524 0.98826 0.74728 0.0
C331 C 0.99957 0.04304 0.72781 0.0
O332 O 0.01835 0.97472 0.81415 0.0
O333 O 0.04736 0.98957 0.7629 0.0
O334 O 0.01483 0.99601 0.6046 0.0
O335 O 0.03844 0.01476 0.65786 0.0
O336 O 1.00631 0.96056 0.67566 0.0
O337 O 0.98907 0.97329 0.57446 0.0
O338 O 0.97494 0.02797 0.54159 0.0
O339 O 0.94939 1.00451 0.57516 0.0
O340 O 0.98074 1.00249 0.74086 0.0
O341 O 0.95839 0.98306 0.68403 0.0
O342 O 0.98967 0.03807 0.66649 0.0
O343 O 0.0089 0.02705 0.76618 0.0
H344 H 0.02206 0.93375 0.78952 0.0
H345 H 0.04147 0.89827 0.78733 0.0
H346 H 0.10419 0.93179 0.82587 0.0
H347 H 0.08442 0.96766 0.83069 0.0
H348 H 0.929 0.04352 0.43724 0.0
H349 H 0.9058 0.07677 0.45403 0.0
H350 H 0.92005 0.07567 0.68164 0.0
H351 H 0.94334 0.04251 0.66423 0.0
Tb352 Tb 0.52236 0.02057 0.7839 0.0
Tb353 Tb 0.49743 0.99251 0.66991 0.0
C354 C 0.54538 0.0333 0.88722 0.0
C355 C 0.56384 0.04951 0.89257 0.0
C356 C 0.58488 0.0422 0.91547 0.0
C357 C 0.60288 0.05697 0.91719 0.0
C358 C 0.60015 0.0794 0.89645 0.0
C359 C 0.57902 0.08686 0.87468 0.0
C360 C 0.56102 0.072 0.87226 0.0
C361 C 0.51154 0.04596 0.67043 0.0
C362 C 0.54904 1.00057 0.64829 0.0
C363 C 0.46871 0.98049 0.58139 0.0
C364 C 0.44663 0.99082 0.57264 0.0
C365 C 0.44369 0.01313 0.59347 0.0
C366 C 0.42249 0.0225 0.59664 0.0
C367 C 0.40363 0.00985 0.57858 0.0
C368 C 0.40656 0.98757 0.55623 0.0
C369 C 0.42796 0.97808 0.55364 0.0
C370 C 0.51698 0.96969 0.77457 0.0
C371 C 0.47024 0.0147 0.80063 0.0
O372 O 0.54985 0.01498 0.85099 0.0
O373 O 0.52558 0.04158 0.87253 0.0
O374 O 0.5073 0.02582 0.68308 0.0
O375 O 0.52228 0.053 0.72612 0.0
O376 O 0.54988 0.00805 0.71555 0.0
O377 O 0.52989 0.99529 0.61668 0.0
O378 O 0.48579 0.99315 0.56383 0.0
O379 O 0.47151 0.97048 0.64339 0.0
O380 O 0.50724 0.98827 0.77943 0.0
O381 O 0.5148 0.9626 0.70899 0.0
O382 O 0.4699 0.00752 0.7333 0.0
O383 O 0.48935 0.01842 0.83418 0.0
H384 H 0.58745 0.02499 0.93146 0.0
H385 H 0.61893 0.05089 0.9356 0.0
H386 H 0.57651 0.10406 0.85855 0.0
H387 H 0.54501 0.07814 0.85387 0.0
H388 H 0.45768 0.02317 0.61049 0.0
H389 H 0.42088 0.0395 0.61569 0.0
H390 H 0.39235 0.97746 0.54101 0.0
H391 H 0.42986 0.96073 0.53855 0.0
Tb392 Tb 0.49285 0.50819 0.76551 0.0
Tb393 Tb 0.52728 0.50343 0.66292 0.0
C394 C 0.46692 0.52206 0.8623 0.0
C395 C 0.45078 0.54049 0.86316 0.0
C396 C 0.44593 0.55132 0.92785 0.0
C397 C 0.43251 0.57038 0.92821 0.0
C398 C 0.42357 0.5789 0.86372 0.0
C399 C 0.42791 0.56748 0.79917 0.0
C400 C 0.44151 0.54851 0.79883 0.0
C401 C 0.47728 0.49595 0.63756 0.0
C402 C 0.50772 0.55046 0.67072 0.0
C403 C 0.55482 0.49009 0.57016 0.0
C404 C 0.57066 0.47153 0.57485 0.0
C405 C 0.58106 0.46322 0.51295 0.0
C406 C 0.59379 0.44368 0.51669 0.0
C407 C 0.59603 0.43218 0.58235 0.0
C408 C 0.58658 0.44131 0.64495 0.0
C409 C 0.57406 0.46089 0.64126 0.0
C410 C 0.542 0.5164 0.79102 0.0
C411 C 0.51228 0.46099 0.75619 0.0
O412 O 0.48787 0.52806 0.85702 0.0
O413 O 0.46216 0.50546 0.81971 0.0
O414 O 0.49248 0.51005 0.6491 0.0
O415 O 0.47 0.48881 0.69884 0.0
O416 O 0.49944 0.54321 0.73271 0.0
O417 O 0.51666 0.5361 0.62541 0.0
O418 O 0.53375 0.48427 0.57079 0.0
O419 O 0.55875 0.50659 0.61386 0.0
O420 O 0.52773 0.50142 0.77914 0.0
O421 O 0.54855 0.52437 0.73011 0.0
O422 O 0.52049 0.46835 0.69431 0.0
O423 O 0.50319 0.47524 0.80155 0.0
H424 H 0.45317 0.5455 0.97779 0.0
H425 H 0.43007 0.57899 0.97875 0.0
H426 H 0.42123 0.57348 0.74869 0.0
H427 H 0.44526 0.54044 0.74809 0.0
H428 H 0.57856 0.47126 0.46137 0.0
H429 H 0.60059 0.43679 0.46743 0.0
H430 H 0.58803 0.43274 0.69609 0.0
H431 H 0.56623 0.46721 0.68979 0.0
Tb432 Tb 1.0043 0.47957 0.77368 0.0
Tb433 Tb 0.00929 0.51276 0.66727 0.0
C434 C 0.99046 0.45408 0.87199 0.0
C435 C 0.97182 0.43823 0.87396 0.0
C436 C 0.95891 0.43476 0.8122 0.0
C437 C 0.93972 0.42156 0.81566 0.0
C438 C 0.93336 0.4114 0.88071 0.0
C439 C 0.94701 0.41393 0.94149 0.0
C440 C 0.96609 0.42738 0.93818 0.0
C441 C 0.0167 0.46297 0.64628 0.0
C442 C 0.96202 0.49346 0.67736 0.0
C443 C 0.02395 0.53801 0.57045 0.0
C444 C 0.04346 0.55279 0.57274 0.0
C445 C 0.05635 0.55615 0.51081 0.0
C446 C 0.0768 0.56726 0.51514 0.0
C447 C 0.08465 0.57529 0.58163 0.0
C448 C 0.07115 0.57268 0.64309 0.0
C449 C 0.05079 0.56141 0.63876 0.0
C450 C 0.99526 0.52933 0.79158 0.0
C451 C 0.05145 0.49966 0.76496 0.0
O452 O 0.98471 0.47506 0.86647 0.0
O453 O 1.00671 0.44897 0.82804 0.0
O454 O 1.00249 0.47804 0.65782 0.0
O455 O 0.0243 0.45652 0.70771 0.0
O456 O 0.96922 0.48588 0.74019 0.0
O457 O 0.97647 0.50205 0.63125 0.0
O458 O 0.02863 0.51671 0.57361 0.0
O459 O 1.00744 0.54342 0.61319 0.0
O460 O 0.01039 0.51477 0.78373 0.0
O461 O 0.98785 0.53486 0.72904 0.0
O462 O 0.04425 0.50743 0.70252 0.0
O463 O 0.03715 0.4903 0.80988 0.0
H464 H 0.96329 0.44278 0.76183 0.0
H465 H 0.92948 0.41984 0.76812 0.0
H466 H 0.94229 0.40653 0.99254 0.0
H467 H 0.97594 0.42988 0.98622 0.0
H468 H 0.05111 0.54929 0.45975 0.0
H469 H 0.08696 0.56846 0.46694 0.0
H470 H 0.07662 0.57874 0.69491 0.0
H471 H 0.04119 0.5587 0.68758 0.0
H472 H 0.13664 0.04368 0.35099 0.0
H473 H 0.11858 0.99003 0.20674 0.0
H474 H 0.08487 0.98227 0.28107 0.0
H475 H 0.12055 0.01498 0.51301 0.0
H476 H 0.1106 0.03976 0.55764 0.0
H477 H 0.13239 0.04181 0.49076 0.0
H478 H 0.10869 0.07044 0.4197 0.0
H479 H 0.08678 0.0684 0.48624 0.0
H480 H 0.0807 0.06317 0.39297 0.0
H481 H 0.0526 0.98088 0.3714 0.0
H482 H 0.02689 0.98317 0.47566 0.0
H483 H 0.06729 0.03617 0.5658 0.0
C484 C 0.12544 0.03044 0.33472 0.0
C485 C 0.13007 0.01762 0.27244 0.0
C486 C 0.11531 1.0001 0.25393 0.0
C487 C 0.09609 0.99565 0.29574 0.0
C488 C 0.09198 0.00866 0.3567 0.0
C489 C 0.10643 0.02551 0.37665 0.0
C490 C 0.09893 0.03619 0.44681 0.0
C491 C 0.11667 0.03298 0.50552 0.0
C492 C 0.09345 0.06103 0.43574 0.0
C493 C 0.07796 0.02278 0.46333 0.0
C494 C 0.07407 0.00718 0.41017 0.0
C495 C 0.05559 0.99299 0.41333 0.0
C496 C 0.04099 0.99448 0.47275 0.0
C497 C 0.04503 0.00982 0.52912 0.0
C498 C 0.06371 0.02427 0.52365 0.0
H499 H 0.52977 0.15156 0.41494 0.0
H500 H 0.48631 0.12092 0.25797 0.0
H501 H 0.48123 0.08822 0.33912 0.0
H502 H 0.55692 0.10203 0.47715 0.0
H503 H 0.55762 0.1109 0.56963 0.0
H504 H 0.55788 0.13135 0.49852 0.0
H505 H 0.52294 0.1504 0.55403 0.0
H506 H 0.52262 0.13004 0.62541 0.0
H507 H 0.49812 0.13408 0.57084 0.0
H508 H 0.48301 0.05766 0.43778 0.0
H509 H 0.48848 0.03452 0.54681 0.0
H510 H 0.52823 0.0871 0.64104 0.0
C511 C 0.51924 0.13791 0.39754 0.0
C512 C 0.50862 0.13859 0.32986 0.0
C513 C 0.49463 0.12065 0.30954 0.0
C514 C 0.49173 0.10202 0.35522 0.0
C515 C 0.50265 0.1018 0.42154 0.0
C516 C 0.51587 0.11949 0.44286 0.0
C517 C 0.52523 0.11573 0.51741 0.0
C518 C 0.55094 0.11495 0.51552 0.0
C519 C 0.51671 0.13362 0.57002 0.0
C520 C 0.51543 0.09305 0.53486 0.0
C521 C 0.50263 0.08509 0.47884 0.0
C522 C 0.49271 0.06399 0.48225 0.0
C523 C 0.4958 0.05091 0.5446 0.0
C524 C 0.50831 0.05909 0.60325 0.0
C525 C 0.51826 0.08043 0.59765 0.0
H526 H 0.3643 0.48222 0.41426 0.0
H527 H 0.39967 0.50833 0.22767 0.0
H528 H 0.43442 0.50988 0.29835 0.0
H529 H 0.39139 0.51439 0.54505 0.0
H530 H 0.39257 0.49252 0.61163 0.0
H531 H 0.37069 0.49251 0.54556 0.0
H532 H 0.38202 0.45264 0.50608 0.0
H533 H 0.40388 0.45246 0.57241 0.0
H534 H 0.41052 0.44717 0.47936 0.0
H535 H 0.4651 0.51123 0.39344 0.0
H536 H 0.48894 0.51023 0.50218 0.0
H537 H 0.43413 0.48104 0.62348 0.0
C538 C 0.37939 0.48777 0.38732 0.0
C539 C 0.37895 0.49523 0.31484 0.0
C540 C 0.39923 0.50284 0.28315 0.0
C541 C 0.41919 0.50365 0.32285 0.0
C542 C 0.41887 0.49655 0.39433 0.0
C543 C 0.39952 0.48849 0.42596 0.0
C544 C 0.40349 0.48226 0.50403 0.0
C545 C 0.38865 0.49626 0.55452 0.0
C546 C 0.39976 0.45714 0.51617 0.0
C547 C 0.42798 0.48838 0.5118 0.0
C548 C 0.43659 0.49665 0.448 0.0
C549 C 0.45857 0.50447 0.44332 0.0
C550 C 0.472 0.50387 0.50532 0.0
C551 C 0.46353 0.49535 0.5711 0.0
C552 C 0.44126 0.48734 0.57378 0.0
H553 H 0.0423 0.35255 0.41825 0.0
H554 H 0.99222 0.37538 0.26627 0.0
H555 H 0.98933 0.41084 0.33178 0.0
H556 H 0.01465 0.37361 0.57203 0.0
H557 H 0.03987 0.38119 0.61863 0.0
H558 H 0.04029 0.35871 0.55464 0.0
H559 H 0.07221 0.37833 0.48424 0.0
H560 H 0.07188 0.40091 0.5481 0.0
H561 H 0.06844 0.40665 0.45363 0.0
H562 H 0.98962 0.44319 0.4195 0.0
H563 H 0.99254 0.46879 0.52311 0.0
H564 H 0.04054 0.42424 0.62241 0.0
C565 C 0.03072 0.3649 0.39812 0.0
C566 C 0.01764 0.36079 0.33585 0.0
C567 C 1.00296 0.37792 0.31214 0.0
C568 C 1.00101 0.39822 0.3496 0.0
C569 C 0.01373 0.40137 0.41135 0.0
C570 C 0.0283 0.38516 0.43549 0.0
C571 C 0.03894 0.39207 0.50611 0.0
C572 C 0.03308 0.37541 0.5664 0.0
C573 C 0.06438 0.39464 0.49748 0.0
C574 C 0.02778 0.41453 0.51859 0.0
C575 C 0.0135 0.41971 0.4628 0.0
C576 C 1.00087 0.43931 0.46317 0.0
C577 C 1.00265 0.4538 0.52232 0.0
C578 C 0.01679 0.4486 0.58094 0.0
C579 C 0.02969 0.42878 0.5783 0.0
H580 H 0.89521 0.02169 0.10046 0.0
H581 H 0.85014 0.96773 0.04078 0.0
H582 H 0.87677 0.95583 0.94908 0.0
H583 H 0.90834 0.0362 0.92021 0.0
H584 H 0.93698 0.04365 0.938 0.0
H585 H 0.91619 0.04623 0.00784 0.0
H586 H 0.93995 0.021 0.09088 0.0
H587 H 0.96077 0.01827 0.02099 0.0
H588 H 0.94828 0.99369 0.0603 0.0
H589 H 0.90638 0.95081 0.85702 0.0
H590 H 0.93566 0.95492 0.76457 0.0
H591 H 0.96071 0.01391 0.87229 0.0
C592 C 0.89064 0.00734 0.06874 0.0
C593 C 0.87015 0.99562 0.08079 0.0
C594 C 0.86569 0.97681 0.03659 0.0
C595 C 0.88077 0.96991 0.98302 0.0
C596 C 0.90035 0.98204 0.97237 0.0
C597 C 0.90528 1.0005 0.01336 0.0
C598 C 0.92653 0.01181 0.98573 0.0
C599 C 0.92171 0.0359 0.96151 0.0
C600 C 0.94498 0.01115 0.0429 0.0
C601 C 0.93246 0.997 0.92198 0.0
C602 C 0.91725 0.97971 0.91648 0.0
C603 C 0.91845 0.96419 0.86104 0.0
C604 C 0.93519 0.96668 0.80871 0.0
C605 C 0.95057 0.98463 0.81117 0.0
C606 C 0.94946 0.99979 0.86957 0.0
H607 H 0.53287 0.85145 0.96538 0.0
H608 H 0.50732 0.88228 0.16066 0.0
H609 H 0.50924 0.919 0.10197 0.0
H610 H 0.5688 0.89747 0.90421 0.0
H611 H 0.5614 0.89368 0.81122 0.0
H612 H 0.56145 0.87013 0.87172 0.0
H613 H 0.52029 0.86162 0.83883 0.0
H614 H 0.52014 0.88506 0.77822 0.0
H615 H 0.49948 0.88317 0.84888 0.0
H616 H 0.51087 0.9524 0.01892 0.0
H617 H 0.51001 0.97888 0.91681 0.0
H618 H 0.53144 0.92611 0.77292 0.0
C619 C 0.52769 0.86579 0.99645 0.0
C620 C 0.5201 0.86354 0.06864 0.0
C621 C 0.51382 0.88319 0.10635 0.0
C622 C 0.51467 0.90428 0.07314 0.0
C623 C 0.52169 0.90569 1.0017 0.0
C624 C 0.52801 0.88694 0.9637 0.0
C625 C 0.53295 0.89269 0.88562 0.0
C626 C 0.55762 0.88822 0.86713 0.0
C627 C 0.51728 0.87988 0.83492 0.0
C628 C 0.52789 0.91751 0.88522 0.0
C629 C 0.52183 0.92477 0.95308 0.0
C630 C 0.51572 0.94689 0.9657 0.0
C631 C 0.51531 0.96184 0.90734 0.0
C632 C 0.52066 0.95458 0.83689 0.0
C633 C 0.52741 0.93219 0.82621 0.0
H634 H 0.63442 0.47305 0.06611 0.0
H635 H 0.64475 0.54228 0.12651 0.0
H636 H 0.6135 0.55342 0.0485 0.0
H637 H 0.62092 0.4824 0.88483 0.0
H638 H 0.59959 0.46121 0.88035 0.0
H639 H 0.62216 0.4584 0.94337 0.0
H640 H 0.59361 0.45473 0.04791 0.0
H641 H 0.57093 0.45751 0.98508 0.0
H642 H 0.5728 0.47614 0.06076 0.0
H643 H 0.58337 0.55758 0.95512 0.0
H644 H 0.55551 0.55403 0.85778 0.0
H645 H 0.56214 0.48209 0.86522 0.0
C646 C 0.62988 0.49052 0.06455 0.0
C647 C 0.64239 0.50674 0.10288 0.0
C648 C 0.63592 0.52947 0.09716 0.0
C649 C 0.61798 0.53599 0.05331 0.0
C650 C 0.60628 0.51962 0.01588 0.0
C651 C 0.6118 0.49732 0.02164 0.0
C652 C 0.59684 0.48312 0.97418 0.0
C653 C 0.61071 0.47055 0.91733 0.0
C654 C 0.58271 0.46692 0.01971 0.0
C655 C 0.58233 0.50097 0.93982 0.0
C656 C 0.58811 0.52193 0.96458 0.0
C657 C 0.57837 0.54123 0.93659 0.0
C658 C 0.56255 0.53908 0.88147 0.0
C659 C 0.55626 0.51783 0.85566 0.0
C660 C 0.56609 0.49851 0.88588 0.0
H661 H 0.03419 0.60679 0.11909 0.0
H662 H 0.97397 0.64546 0.07725 0.0
H663 H 0.96137 0.61669 0.99404 0.0
H664 H 0.04316 0.59242 0.93699 0.0
H665 H 0.05391 0.56489 0.95527 0.0
H666 H 0.05701 0.58669 0.0209 0.0
H667 H 0.03726 0.56193 0.11622 0.0
H668 H 0.03405 0.54007 0.05061 0.0
H669 H 0.00991 0.55076 0.09766 0.0
H670 H 0.95623 0.58594 0.90679 0.0
H671 H 0.95999 0.55612 0.81667 0.0
H672 H 0.02439 0.53778 0.90517 0.0
C673 C 0.01829 0.60939 0.09304 0.0
C674 C 1.00509 0.62874 0.10713 0.0
C675 C 0.98431 0.6308 0.07088 0.0
C676 C 0.97698 0.6145 0.02236 0.0
C677 C 0.99056 0.59609 0.00915 0.0
C678 C 0.01085 0.59344 0.04299 0.0
C679 C 0.02309 0.57301 0.01385 0.0
C680 C 0.04563 0.57966 0.97972 0.0
C681 C 0.02626 0.5554 0.07313 0.0
C682 C 1.00668 0.56495 0.95726 0.0
C683 C 0.98789 0.5784 0.95657 0.0
C684 C 0.97076 0.57518 0.90729 0.0
C685 C 0.97305 0.55816 0.85625 0.0
C686 C 0.99236 0.54449 0.85411 0.0
C687 C 0.00924 0.54766 0.90634 0.0
H688 H 0.9414 0.19942 0.53963 0.0
H689 H 0.88728 0.20349 0.38742 0.0
H690 H 0.86803 0.17256 0.44933 0.0
H691 H 0.94978 0.14881 0.53059 0.0
H692 H 0.95575 0.14163 0.62277 0.0
H693 H 0.95962 0.16965 0.59279 0.0
H694 H 0.93299 0.18401 0.69235 0.0
H695 H 0.92925 0.15573 0.72365 0.0
H696 H 0.90526 0.1725 0.70101 0.0
H697 H 0.86312 0.13437 0.49048 0.0
H698 H 0.87214 0.09472 0.51037 0.0
H699 H 0.92918 0.11386 0.63831 0.0
C700 C 0.9248 0.19459 0.52278 0.0
C701 C 0.9157 0.20364 0.45944 0.0
C702 C 0.89428 0.1969 0.4367 0.0
C703 C 0.88326 0.1793 0.47172 0.0
C704 C 0.89378 0.16894 0.52986 0.0
C705 C 0.91385 0.17684 0.55687 0.0
C706 C 0.92431 0.16018 0.60805 0.0
C707 C 0.94876 0.15474 0.58711 0.0
C708 C 0.92284 0.16861 0.68588 0.0
C709 C 0.90889 0.14048 0.59702 0.0
C710 C 0.89073 0.14617 0.55478 0.0
C711 C 0.87671 0.12989 0.52588 0.0
C712 C 0.88203 0.10737 0.53692 0.0
C713 C 0.90128 0.10135 0.5762 0.0
C714 C 0.91398 0.11809 0.61003 0.0
H715 H 0.31381 0.09744 0.46573 0.0
H716 H 0.2654 0.0457 0.51736 0.0
H717 H 0.29273 0.0272 0.59299 0.0
H718 H 0.35274 0.06368 0.42182 0.0
H719 H 0.37681 0.07824 0.45601 0.0
H720 H 0.35204 0.09353 0.43414 0.0
H721 H 0.3499 0.10956 0.5632 0.0
H722 H 0.3752 0.09471 0.58528 0.0
H723 H 0.35039 0.09088 0.63932 0.0
H724 H 0.32682 0.00733 0.6256 0.0
H725 H 0.36435 0.99038 0.62397 0.0
H726 H 0.39195 0.05243 0.54189 0.0
C727 C 0.30868 0.08268 0.49506 0.0
C728 C 0.28743 0.07304 0.48388 0.0
C729 C 0.28133 0.05389 0.52472 0.0
C730 C 0.29692 0.04301 0.56809 0.0
C731 C 0.31856 0.05142 0.57062 0.0
C732 C 0.32437 0.07119 0.53662 0.0
C733 C 0.34951 0.07418 0.53453 0.0
C734 C 0.35826 0.07757 0.45706 0.0
C735 C 0.35667 0.09348 0.58353 0.0
C736 C 0.35682 0.05197 0.56525 0.0
C737 C 0.33878 0.03944 0.58842 0.0
C738 C 0.34115 0.01725 0.60988 0.0
C739 C 0.36248 0.00762 0.60754 0.0
C740 C 0.38113 0.02013 0.58327 0.0
C741 C 0.37816 0.04264 0.5628 0.0
H742 H 0.5654 0.30957 0.53845 0.0
H743 H 0.62246 0.30539 0.39533 0.0
H744 H 0.63937 0.33792 0.45475 0.0
H745 H 0.55724 0.36111 0.51672 0.0
H746 H 0.54851 0.36933 0.60549 0.0
H747 H 0.54515 0.341 0.57796 0.0
H748 H 0.56832 0.32671 0.68505 0.0
H749 H 0.57134 0.35504 0.7161 0.0
H750 H 0.59577 0.33799 0.70132 0.0
H751 H 0.64319 0.37658 0.49588 0.0
H752 H 0.63464 0.41616 0.52086 0.0
H753 H 0.57533 0.39618 0.63875 0.0
C754 C 0.58203 0.31485 0.52266 0.0
C755 C 0.59268 0.30512 0.46275 0.0
C756 C 0.61421 0.31248 0.44195 0.0
C757 C 0.62392 0.33099 0.47549 0.0
C758 C 0.61202 0.34164 0.53032 0.0
C759 C 0.59172 0.33345 0.55519 0.0
C760 C 0.5799 0.35023 0.60271 0.0
C761 C 0.55635 0.35573 0.57394 0.0
C762 C 0.57878 0.342 0.68095 0.0
C763 C 0.59563 0.36986 0.59525 0.0
C764 C 0.6144 0.36444 0.55511 0.0
C765 C 0.62909 0.38083 0.52989 0.0
C766 C 0.62408 0.40328 0.54385 0.0
C767 C 0.60456 0.40905 0.58271 0.0
C768 C 0.5908 0.39208 0.61128 0.0
H769 H 0.19462 0.59805 0.38617 0.0
H770 H 0.22804 0.56833 0.56934 0.0
H771 H 0.19472 0.57554 0.64394 0.0
H772 H 0.15863 0.64035 0.49949 0.0
H773 H 0.13607 0.6367 0.43675 0.0
H774 H 0.16466 0.63619 0.40541 0.0
H775 H 0.1575 0.59765 0.34743 0.0
H776 H 0.12928 0.59768 0.37957 0.0
H777 H 0.14761 0.57492 0.40294 0.0
H778 H 0.15539 0.5742 0.68428 0.0
H779 H 0.11492 0.56738 0.68913 0.0
H780 H 0.10709 0.60161 0.48514 0.0
C781 C 0.1956 0.5943 0.44296 0.0
C782 C 0.2139 0.58233 0.47136 0.0
C783 C 0.21406 0.57712 0.54573 0.0
C784 C 0.19527 0.58142 0.58888 0.0
C785 C 0.17676 0.59162 0.55754 0.0
C786 C 0.17709 0.59872 0.48669 0.0
C787 C 0.15409 0.60594 0.46222 0.0
C788 C 0.15332 0.6313 0.4503 0.0
C789 C 0.14671 0.59327 0.39415 0.0
C790 C 0.14037 0.5993 0.52729 0.0
C791 C 0.15378 0.59174 0.58268 0.0
C792 C 0.14474 0.58101 0.64278 0.0
C793 C 0.12163 0.5772 0.64509 0.0
C794 C 0.1078 0.58403 0.58743 0.0
C795 C 0.11725 0.59624 0.52996 0.0
H796 H 0.12499 0.81388 0.02045 0.0
H797 H 0.084 0.77296 0.87956 0.0
H798 H 0.08438 0.80244 0.79067 0.0
H799 H 0.09175 0.85699 0.00744 0.0
H800 H 0.11252 0.87876 0.01129 0.0
H801 H 0.11823 0.85206 0.05058 0.0
H802 H 0.154 0.84842 0.97222 0.0
H803 H 0.14837 0.87534 0.93263 0.0
H804 H 0.15214 0.85127 0.87593 0.0
H805 H 0.07913 0.83832 0.73195 0.0
H806 H 0.06744 0.87722 0.71379 0.0
H807 H 0.10617 0.89729 0.89891 0.0
C808 C 0.11627 0.81071 0.97089 0.0
C809 C 0.10418 0.79066 0.9595 0.0
C810 C 0.09385 0.78756 0.89149 0.0
C811 C 0.09387 0.80449 0.83961 0.0
C812 C 0.10399 0.82472 0.85595 0.0
C813 C 0.11511 0.82792 0.92002 0.0
C814 C 0.11988 0.85247 0.93241 0.0
C815 C 0.10998 0.86052 1.00462 0.0
C816 C 0.1451 0.85715 0.928 0.0
C817 C 0.1078 0.86264 0.86886 0.0
C818 C 0.09978 0.84626 0.82349 0.0
C819 C 0.08577 0.8513 0.7661 0.0
C820 C 0.079 0.87344 0.7566 0.0
C821 C 0.0858 0.89024 0.80518 0.0
C822 C 0.10114 0.88488 0.86004 0.0
H823 H 0.72529 0.09234 0.95613 0.0
H824 H 0.70915 0.1482 0.09477 0.0
H825 H 0.67295 0.15224 0.03355 0.0
H826 H 0.68999 0.1126 0.79035 0.0
H827 H 0.68298 0.08389 0.77255 0.0
H828 H 0.71024 0.09092 0.80674 0.0
H829 H 0.70412 0.06306 0.91145 0.0
H830 H 0.67683 0.05639 0.87942 0.0
H831 H 0.6802 0.06646 0.96998 0.0
H832 H 0.63538 0.14235 0.98794 0.0
H833 H 0.60147 0.12081 0.9582 0.0
H834 H 0.64215 0.07216 0.84624 0.0
C835 C 0.71493 0.10641 0.97078 0.0
C836 C 0.72009 0.11977 0.03099 0.0
C837 C 0.7055 0.13749 0.04954 0.0
C838 C 0.68493 0.14006 0.01448 0.0
C839 C 0.67947 0.12516 0.95972 0.0
C840 C 0.69443 0.10907 0.93641 0.0
C841 C 0.68337 0.09245 0.88682 0.0
C842 C 0.69216 0.09514 0.80952 0.0
C843 C 0.68629 0.0682 0.91366 0.0
C844 C 0.65938 0.10009 0.89267 0.0
C845 C 0.6575 0.1195 0.93249 0.0
C846 C 0.63669 0.12766 0.95445 0.0
C847 C 0.6175 0.1153 0.93753 0.0
C848 C 0.61936 0.09487 0.90009 0.0
C849 C 0.64041 0.08782 0.87466 0.0
H850 H 0.39001 0.67968 0.08744 0.0
H851 H 0.41905 0.71917 0.91609 0.0
H852 H 0.41195 0.68875 0.83052 0.0
H853 H 0.41645 0.6358 0.05811 0.0
H854 H 0.39557 0.61477 0.07593 0.0
H855 H 0.39277 0.64178 0.11544 0.0
H856 H 0.3537 0.64674 0.05864 0.0
H857 H 0.35605 0.61926 0.01986 0.0
H858 H 0.35019 0.64299 0.96324 0.0
H859 H 0.41575 0.65153 0.77878 0.0
H860 H 0.42732 0.61252 0.76389 0.0
H861 H 0.39473 0.59542 0.96536 0.0
C862 C 0.39345 0.68231 0.03084 0.0
C863 C 0.40495 0.70162 0.00799 0.0
C864 C 0.40986 0.70461 0.93425 0.0
C865 C 0.40593 0.68731 0.88531 0.0
C866 C 0.39672 0.66738 0.91091 0.0
C867 C 0.38983 0.66504 0.98181 0.0
C868 C 0.38493 0.64085 0.99994 0.0
C869 C 0.39825 0.63286 0.06614 0.0
C870 C 0.35971 0.63725 0.01104 0.0
C871 C 0.39291 0.6297 0.93157 0.0
C872 C 0.39877 0.64529 0.87976 0.0
C873 C 0.41033 0.63914 0.81754 0.0
C874 C 0.41686 0.61681 0.80948 0.0
C875 C 0.41193 0.60084 0.86359 0.0
C876 C 0.39874 0.60726 0.92319 0.0
H877 H 0.8068 0.42494 0.94901 0.0
H878 H 0.8093 0.36354 0.07283 0.0
H879 H 0.84553 0.35441 0.0164 0.0
H880 H 0.83871 0.40221 0.7822 0.0
H881 H 0.85192 0.42904 0.77075 0.0
H882 H 0.82364 0.42734 0.80444 0.0
H883 H 0.83526 0.45047 0.91556 0.0
H884 H 0.86348 0.45185 0.88327 0.0
H885 H 0.85777 0.4406 0.97148 0.0
H886 H 0.88504 0.35754 0.97493 0.0
H887 H 0.9229 0.37108 0.94286 0.0
H888 H 0.8938 0.42906 0.84017 0.0
C889 C 0.81419 0.4089 0.9613 0.0
C890 C 0.80517 0.39505 0.01581 0.0
C891 C 0.81598 0.37461 0.03195 0.0
C892 C 0.8365 0.36917 0.99961 0.0
C893 C 0.84569 0.38403 0.94978 0.0
C894 C 0.83453 0.4032 0.92906 0.0
C895 C 0.8492 0.41805 0.88276 0.0
C896 C 0.84034 0.41921 0.80544 0.0
C897 C 0.85157 0.4416 0.9153 0.0
C898 C 0.87093 0.40523 0.88593 0.0
C899 C 0.86851 0.38539 0.92345 0.0
C900 C 0.887 0.37256 0.94307 0.0
C901 C 0.90842 0.38041 0.92516 0.0
C902 C 0.91112 0.40087 0.88798 0.0
C903 C 0.8921 0.41297 0.86628 0.0
H904 H 0.01389 0.14528 1.00605 0.0
H905 H 0.99268 0.18915 0.83301 0.0
H906 H 0.98907 0.15672 0.75297 0.0
H907 H 0.04719 0.10804 0.89299 0.0
H908 H 0.03959 0.08334 0.94295 0.0
H909 H 0.04048 0.11001 0.98737 0.0
H910 H 0.99949 0.10472 0.02943 0.0
H911 H 0.99843 0.07809 0.98482 0.0
H912 H 0.97811 0.0993 0.96375 0.0
H913 H 0.98646 0.11933 0.69178 0.0
H914 H 0.98692 0.08012 0.65226 0.0
H915 H 0.01166 0.05991 0.86161 0.0
C916 C 0.00883 0.14821 0.95106 0.0
C917 C 1.00341 0.17008 0.9267 0.0
C918 C 0.99653 0.17276 0.85419 0.0
C919 C 0.99455 0.15437 0.80784 0.0
C920 C 0.99972 0.13316 0.83391 0.0
C921 C 1.00692 0.12997 0.90362 0.0
C922 C 0.01142 0.10532 0.91783 0.0
C923 C 0.03614 0.10145 0.93638 0.0
C924 C 0.99594 0.09633 0.9775 0.0
C925 C 1.00563 0.09518 0.84529 0.0
C926 C 0.99878 0.11159 0.7979 0.0
C927 C 0.99197 0.1064 0.72833 0.0
C928 C 0.99228 0.08397 0.70636 0.0
C929 C 0.99951 0.06675 0.75333 0.0
C930 C 1.00626 0.07259 0.82393 0.0
H931 H 0.33617 0.0184 0.86871 0.0
H932 H 0.35143 0.02191 0.09626 0.0
H933 H 0.39168 0.02181 0.06795 0.0
H934 H 0.38153 0.98076 0.82376 0.0
H935 H 0.38817 0.99335 0.73829 0.0
H936 H 0.35998 0.99464 0.77302 0.0
H937 H 0.36011 0.0373 0.762 0.0
H938 H 0.38837 0.0371 0.72791 0.0
H939 H 0.3815 0.05333 0.80621 0.0
H940 H 0.43035 0.02212 0.01658 0.0
H941 H 0.46514 0.02006 0.94571 0.0
H942 H 0.42634 0.01441 0.74997 0.0
C943 C 0.34802 0.01916 0.91244 0.0
C944 C 0.34046 0.02002 0.98504 0.0
C945 C 0.35663 0.02091 0.04049 0.0
C946 C 0.37961 0.02102 0.02489 0.0
C947 C 0.3865 0.02007 0.9533 0.0
C948 C 0.37127 0.01893 0.89779 0.0
C949 C 0.38348 0.01728 0.82572 0.0
C950 C 0.37794 0.9952 0.78795 0.0
C951 C 0.37802 0.03744 0.77761 0.0
C952 C 0.40783 0.01776 0.84965 0.0
C953 C 0.40907 0.0196 0.92351 0.0
C954 C 0.42957 0.0206 0.95868 0.0
C955 C 0.44933 0.01948 0.91768 0.0
C956 C 0.44873 0.0171 0.84185 0.0
C957 C 0.42753 0.01627 0.80763 0.0
H958 H 0.50379 0.35307 0.01171 0.0
H959 H 0.52559 0.31331 0.82936 0.0
H960 H 0.52806 0.34746 0.75541 0.0
H961 H 0.46898 0.39112 0.90945 0.0
H962 H 0.47599 0.41493 0.9639 0.0
H963 H 0.4762 0.38735 1.00268 0.0
H964 H 0.51722 0.39317 0.04265 0.0
H965 H 0.51717 0.42071 1.00359 0.0
H966 H 0.53808 0.40072 0.97662 0.0
H967 H 0.52904 0.38646 0.70165 0.0
H968 H 0.52661 0.4265 0.67062 0.0
H969 H 0.50233 0.44069 0.88607 0.0
C970 C 0.50873 0.35135 0.95595 0.0
C971 C 0.51454 0.33021 0.92696 0.0
C972 C 0.52138 0.32915 0.85378 0.0
C973 C 0.52273 0.34852 0.811 0.0
C974 C 0.51707 0.369 0.84162 0.0
C975 C 0.51003 0.37051 0.91229 0.0
C976 C 0.50476 0.39454 0.9321 0.0
C977 C 0.48001 0.39713 0.95327 0.0
C978 C 0.52023 0.40276 0.99231 0.0
C979 C 0.50987 0.40632 0.86152 0.0
C980 C 0.51711 0.39131 0.81016 0.0
C981 C 0.52327 0.39831 0.74128 0.0
C982 C 0.52182 0.42115 0.72419 0.0
C983 C 0.51408 0.43686 0.77554 0.0
C984 C 0.50812 0.42919 0.84522 0.0
H985 H 0.15989 0.49225 0.01932 0.0
H986 H 0.19779 0.52249 0.8448 0.0
H987 H 0.16364 0.52393 0.77118 0.0
H988 H 0.12437 0.45766 0.90721 0.0
H989 H 0.09995 0.46141 0.9631 0.0
H990 H 0.12742 0.46266 1.0022 0.0
H991 H 0.11848 0.50184 0.05336 0.0
H992 H 0.09103 0.50075 0.01411 0.0
H993 H 0.10947 0.52368 0.99327 0.0
H994 H 0.12493 0.52288 0.71655 0.0
H995 H 0.08524 0.51823 0.68423 0.0
H996 H 0.07224 0.4878 0.8924 0.0
C997 C 0.16115 0.49889 0.96527 0.0
C998 C 0.18176 0.50733 0.93837 0.0
C999 C 0.18232 0.5162 0.86751 0.0
C1000 C 0.16295 0.517 0.82494 0.0
C1001 C 0.14295 0.5088 0.85342 0.0
C1002 C 0.14192 0.49981 0.92185 0.0
C1003 C 0.11822 0.49228 0.9397 0.0
C1004 C 0.11745 0.467 0.95387 0.0
C1005 C 0.10875 0.50542 1.00392 0.0
C1006 C 0.10615 0.49832 0.87055 0.0
C1007 C 0.12073 0.50793 0.82161 0.0
C1008 C 0.11344 0.51523 0.75438 0.0
C1009 C 0.09077 0.5125 0.73647 0.0
C1010 C 0.07547 0.50247 0.78534 0.0
C1011 C 0.08342 0.49538 0.85344 0.0
H1012 H 0.03037 0.8281 0.53417 0.0
H1013 H 0.97898 0.82917 0.36975 0.0
H1014 H 0.96861 0.86716 0.40598 0.0
H1015 H 1.00005 0.86072 0.66795 0.0
H1016 H 0.02416 0.87613 0.69719 0.0
H1017 H 0.02745 0.84824 0.66286 0.0
H1018 H 0.0558 0.86223 0.56934 0.0
H1019 H 0.05289 0.89061 0.59997 0.0
H1020 H 0.048 0.88397 0.50709 0.0
H1021 H 0.96532 0.90591 0.4524 0.0
H1022 H 0.96835 0.94274 0.50921 0.0
H1023 H 0.02186 0.91817 0.64502 0.0
C1024 C 0.01685 0.8362 0.50584 0.0
C1025 C 1.00538 0.82514 0.44923 0.0
C1026 C 0.98774 0.83667 0.41435 0.0
C1027 C 0.98181 0.85848 0.43413 0.0
C1028 C 0.99361 0.86887 0.48909 0.0
C1029 C 0.0107 0.85815 0.5248 0.0
C1030 C 0.02111 0.8736 0.58042 0.0
C1031 C 0.01801 0.86409 0.65662 0.0
C1032 C 0.04593 0.87783 0.5632 0.0
C1033 C 1.00731 0.89471 0.56984 0.0
C1034 C 0.99159 0.89148 0.51664 0.0
C1035 C 0.97744 0.90857 0.4945 0.0
C1036 C 0.97938 0.92954 0.52711 0.0
C1037 C 0.9953 0.93351 0.58191 0.0
C1038 C 0.00934 0.91568 0.60397 0.0
H1039 H 0.67925 0.01983 0.55053 0.0
H1040 H 0.66651 0.98531 0.34974 0.0
H1041 H 0.62775 0.97836 0.38859 0.0
H1042 H 0.64392 0.98465 0.6648 0.0
H1043 H 0.63412 0.00762 0.71884 0.0
H1044 H 0.66142 0.00879 0.67759 0.0
H1045 H 0.65096 0.0461 0.6159 0.0
H1046 H 0.62364 0.045 0.65688 0.0
H1047 H 0.62633 0.04748 0.56061 0.0
H1048 H 0.58944 0.9769 0.44553 0.0
H1049 H 0.55494 0.98012 0.51778 0.0
H1050 H 0.59162 0.01589 0.68216 0.0
C1051 C 0.6684 0.01074 0.5146 0.0
C1052 C 0.67637 1.00297 0.44689 0.0
C1053 C 0.66133 0.99104 0.40239 0.0
C1054 C 0.63907 0.98716 0.42376 0.0
C1055 C 0.63179 0.99526 0.49009 0.0
C1056 C 0.64602 1.00672 0.53511 0.0
C1057 C 0.63371 0.0141 0.60295 0.0
C1058 C 0.6439 1.00313 0.67001 0.0
C1059 C 0.63366 0.03969 0.60943 0.0
C1060 C 0.61032 1.00519 0.58859 0.0
C1061 C 0.60964 0.99436 0.52314 0.0
C1062 C 0.58984 0.98522 0.49707 0.0
C1063 C 0.57024 0.98719 0.53867 0.0
C1064 C 0.57036 0.99818 0.60615 0.0
C1065 C 0.59085 0.0072 0.63127 0.0
H1066 H 0.51726 0.65846 0.41605 0.0
H1067 H 0.49754 0.69831 0.60047 0.0
H1068 H 0.49574 0.66422 0.67487 0.0
H1069 H 0.48284 0.61174 0.45312 0.0
H1070 H 0.50302 0.5912 0.42467 0.0
H1071 H 0.50353 0.61878 0.38596 0.0
H1072 H 0.54489 0.62348 0.42362 0.0
H1073 H 0.54458 0.59582 0.46184 0.0
H1074 H 0.55255 0.61932 0.51631 0.0
H1075 H 0.49397 0.62533 0.72807 0.0
H1076 H 0.49511 0.58515 0.75783 0.0
H1077 H 0.51759 0.5706 0.54063 0.0
C1078 C 0.51302 0.66017 0.47242 0.0
C1079 C 0.50745 0.68128 0.50195 0.0
C1080 C 0.50157 0.68245 0.57589 0.0
C1081 C 0.50059 0.66313 0.61884 0.0
C1082 C 0.50571 0.64262 0.5876 0.0
C1083 C 0.51209 0.64104 0.51628 0.0
C1084 C 0.51656 0.61691 0.49576 0.0
C1085 C 0.50053 0.60921 0.43636 0.0
C1086 C 0.54111 0.6137 0.47305 0.0
C1087 C 0.51156 0.60517 0.56649 0.0
C1088 C 0.50523 0.6203 0.6187 0.0
C1089 C 0.49914 0.61338 0.68775 0.0
C1090 C 0.49978 0.59046 0.70411 0.0
C1091 C 0.50657 0.57463 0.65187 0.0
C1092 C 0.51248 0.58222 0.58208 0.0
H1093 H 0.85438 0.49912 0.42033 0.0
H1094 H 0.81434 0.47917 0.60507 0.0
H1095 H 0.84828 0.47815 0.67949 0.0
H1096 H 0.90218 0.46588 0.45933 0.0
H1097 H 0.92226 0.48651 0.43048 0.0
H1098 H 0.8948 0.48603 0.39131 0.0
H1099 H 0.88875 0.52732 0.42732 0.0
H1100 H 0.91628 0.52798 0.46612 0.0
H1101 H 0.89226 0.53548 0.5198 0.0
H1102 H 0.88711 0.47768 0.73353 0.0
H1103 H 0.92716 0.48027 0.76416 0.0
H1104 H 0.94201 0.50223 0.54651 0.0
C1105 C 0.8526 0.49492 0.47669 0.0
C1106 C 0.83143 0.48906 0.50618 0.0
C1107 C 0.83022 0.48333 0.58026 0.0
C1108 C 0.84947 0.48282 0.62334 0.0
C1109 C 0.87001 0.48829 0.59223 0.0
C1110 C 0.87168 0.49447 0.52077 0.0
C1111 C 0.89582 0.49956 0.50063 0.0
C1112 C 0.90426 0.48354 0.44196 0.0
C1113 C 0.89842 0.52404 0.47709 0.0
C1114 C 0.90746 0.49521 0.57178 0.0
C1115 C 0.89226 0.4886 0.62383 0.0
C1116 C 0.89909 0.48307 0.69329 0.0
C1117 C 0.92195 0.48455 0.71018 0.0
C1118 C 0.93786 0.49163 0.65812 0.0
C1119 C 0.93035 0.49696 0.5879 0.0
loop_
_geom_bond_atom_site_label_1
_geom_bond_atom_site_label_2
_geom_bond_distance
_geom_bond_site_symmetry_2
_ccdc_geom_bond_type
C0 C1 1.386 . S
C0 C2 1.397 . S
C0 H24 0.931 . S
C1 C0 1.386 . S
C1 C5 1.397 . S
C2 C0 1.397 . S
C2 C3 1.384 . S
C2 H25 0.930 . S
C3 C2 1.384 . S
C3 C4 1.377 . S
C3 C6 1.481 . S
C4 C3 1.377 . S
C4 C5 1.389 . S
C4 H26 0.929 . S
C5 C1 1.397 . S
C5 C4 1.389 . S
C5 H27 0.931 . S
C6 C3 1.481 . S
C6 C7 1.387 . S
C6 C11 1.390 . S
C7 C6 1.387 . S
C7 C8 1.401 . S
C7 H28 0.930 . S
C8 C7 1.401 . S
C8 C9 1.376 . S
C8 C17 1.511 . S
C9 C8 1.376 . S
C9 C10 1.392 . S
C9 H30 0.931 . S
C10 C9 1.392 . S
C10 C11 1.361 . S
C10 C12 1.500 . S
C11 C6 1.390 . S
C11 C10 1.361 . S
C11 H29 0.931 . S
C12 C10 1.500 . S
C12 C13 1.371 . S
C12 C14 1.365 . S
C13 C12 1.371 . S
C13 C23 1.386 . S
C13 H31 0.931 . S
C14 C12 1.365 . S
C14 C15 1.409 . S
C14 H32 0.929 . S
C15 C14 1.409 . S
C15 C16 1.380 . S
C15 H33 0.930 . S
C16 C15 1.380 . S
C16 C23 1.357 . S
C17 C8 1.511 . S
C17 C18 1.341 . S
C17 C19 1.371 . S
C18 C17 1.341 . S
C18 C22 1.394 . S
C18 H34 0.930 . S
C19 C17 1.371 . S
C19 C20 1.392 . S
C19 H35 0.931 . S
C20 C19 1.392 . S
C20 C21 1.331 . S
C20 H38 0.932 . S
C21 C20 1.331 . S
C21 C22 1.336 . S
C22 C18 1.394 . S
C22 C21 1.336 . S
C22 H37 0.929 . S
C23 C13 1.386 . S
C23 C16 1.357 . S
C23 H36 0.928 . S
H24 C0 0.931 . S
H25 C2 0.930 . S
H26 C4 0.929 . S
H27 C5 0.931 . S
H28 C7 0.930 . S
H29 C11 0.931 . S
H30 C9 0.931 . S
H31 C13 0.931 . S
H32 C14 0.929 . S
H33 C15 0.930 . S
H34 C18 0.930 . S
H35 C19 0.931 . S
H36 C23 0.928 . S
H37 C22 0.929 . S
H38 C20 0.932 . S
C39 C40 1.394 . S
C39 C41 1.397 . S
C39 H63 0.931 . S
C40 C39 1.394 . S
C40 C44 1.389 1_655 S
C41 C39 1.397 . S
C41 C42 1.389 . S
C41 H64 0.930 . S
C42 C41 1.389 . S
C42 C43 1.373 1_655 S
C42 C45 1.480 . S
C43 C42 1.373 1_455 S
C43 C44 1.389 . S
C43 H65 0.929 . S
C44 C40 1.389 1_455 S
C44 C43 1.389 . S
C44 H66 0.931 . S
C45 C42 1.480 . S
C45 C46 1.388 . S
C45 C50 1.390 . S
C46 C45 1.388 . S
C46 C47 1.402 . S
C46 H67 0.930 . S
C47 C46 1.402 . S
C47 C48 1.376 . S
C47 C56 1.513 . S
C48 C47 1.376 . S
C48 C49 1.392 . S
C48 H69 0.934 . S
C49 C48 1.392 . S
C49 C50 1.361 . S
C49 C51 1.499 1_655 S
C50 C45 1.390 . S
C50 C49 1.361 . S
C50 H68 0.931 . S
C51 C49 1.499 1_455 S
C51 C52 1.362 1_455 S
C51 C53 1.374 . S
C52 C51 1.362 1_655 S
C52 C62 1.386 . S
C52 H70 0.931 . S
C53 C51 1.374 . S
C53 C54 1.409 . S
C53 H71 0.929 . S
C54 C53 1.409 . S
C54 C55 1.379 . S
C54 H72 0.930 . S
C55 C54 1.379 . S
C55 C62 1.359 1_455 S
C56 C47 1.513 . S
C56 C57 1.341 . S
C56 C58 1.371 1_655 S
C57 C56 1.341 . S
C57 C61 1.394 . S
C57 H73 0.930 . S
C58 C56 1.371 1_455 S
C58 C59 1.392 . S
C58 H74 0.931 . S
C59 C58 1.392 . S
C59 C60 1.322 1_455 S
C59 H77 0.932 . S
C60 C59 1.322 1_655 S
C60 C61 1.345 . S
C61 C57 1.394 . S
C61 C60 1.345 . S
C61 H76 0.929 . S
C62 C52 1.386 . S
C62 C55 1.359 1_655 S
C62 H75 0.928 . S
H63 C39 0.931 . S
H64 C41 0.930 . S
H65 C43 0.929 . S
H66 C44 0.931 . S
H67 C46 0.930 . S
H68 C50 0.931 . S
H69 C48 0.934 . S
H70 C52 0.931 . S
H71 C53 0.929 . S
H72 C54 0.930 . S
H73 C57 0.930 . S
H74 C58 0.931 . S
H75 C62 0.928 . S
H76 C61 0.929 . S
H77 C59 0.932 . S
C78 C79 1.394 . S
C78 C80 1.397 . S
C78 H102 0.931 . S
C79 C78 1.394 . S
C79 C83 1.389 1_565 S
C80 C78 1.397 . S
C80 C81 1.389 . S
C80 H103 0.930 . S
C81 C80 1.389 . S
C81 C82 1.373 1_565 S
C81 C84 1.481 . S
C82 C81 1.373 1_545 S
C82 C83 1.389 . S
C82 H104 0.929 . S
C83 C79 1.389 1_545 S
C83 C82 1.389 . S
C83 H105 0.931 . S
C84 C81 1.481 . S
C84 C85 1.388 . S
C84 C89 1.390 . S
C85 C84 1.388 . S
C85 C86 1.402 . S
C85 H106 0.930 . S
C86 C85 1.402 . S
C86 C87 1.376 . S
C86 C95 1.513 . S
C87 C86 1.376 . S
C87 C88 1.391 . S
C87 H108 0.934 . S
C88 C87 1.391 . S
C88 C89 1.361 . S
C88 C90 1.499 1_565 S
C89 C84 1.390 . S
C89 C88 1.361 . S
C89 H107 0.931 . S
C90 C88 1.499 1_545 S
C90 C91 1.362 1_545 S
C90 C92 1.374 . S
C91 C90 1.362 1_565 S
C91 C101 1.386 . S
C91 H109 0.931 . S
C92 C90 1.374 . S
C92 C93 1.409 . S
C92 H110 0.929 . S
C93 C92 1.409 . S
C93 C94 1.379 . S
C93 H111 0.930 . S
C94 C93 1.379 . S
C94 C101 1.359 1_545 S
C95 C86 1.513 . S
C95 C96 1.341 . S
C95 C97 1.371 1_565 S
C96 C95 1.341 . S
C96 C100 1.394 . S
C96 H112 0.930 . S
C97 C95 1.371 1_545 S
C97 C98 1.392 . S
C97 H113 0.931 . S
C98 C97 1.392 . S
C98 C99 1.322 1_545 S
C98 H116 0.932 . S
C99 C98 1.322 1_565 S
C99 C100 1.345 . S
C100 C96 1.394 . S
C100 C99 1.345 . S
C100 H115 0.929 . S
C101 C91 1.386 . S
C101 C94 1.359 1_565 S
C101 H114 0.928 . S
H102 C78 0.931 . S
H103 C80 0.930 . S
H104 C82 0.929 . S
H105 C83 0.931 . S
H106 C85 0.930 . S
H107 C89 0.931 . S
H108 C87 0.934 . S
H109 C91 0.931 . S
H110 C92 0.929 . S
H111 C93 0.930 . S
H112 C96 0.930 . S
H113 C97 0.931 . S
H114 C101 0.928 . S
H115 C100 0.929 . S
H116 C98 0.932 . S
C117 C118 1.386 . S
C117 C119 1.397 . S
C117 H141 0.931 . S
C118 C117 1.386 . S
C118 C122 1.397 . S
C119 C117 1.397 . S
C119 C120 1.384 . S
C119 H142 0.930 . S
C120 C119 1.384 . S
C120 C121 1.377 . S
C120 C123 1.481 . S
C121 C120 1.377 . S
C121 C122 1.389 . S
C121 H143 0.929 . S
C122 C118 1.397 . S
C122 C121 1.389 . S
C122 H144 0.931 . S
C123 C120 1.481 . S
C123 C124 1.387 . S
C123 C128 1.390 . S
C124 C123 1.387 . S
C124 C125 1.401 . S
C124 H145 0.930 . S
C125 C124 1.401 . S
C125 C126 1.376 . S
C125 C134 1.511 . S
C126 C125 1.376 . S
C126 C127 1.392 . S
C126 H147 0.931 . S
C127 C126 1.392 . S
C127 C128 1.361 . S
C127 C129 1.500 . S
C128 C123 1.390 . S
C128 C127 1.361 . S
C128 H146 0.931 . S
C129 C127 1.500 . S
C129 C130 1.371 . S
C129 C131 1.365 . S
C130 C129 1.371 . S
C130 C140 1.386 . S
C130 H148 0.931 . S
C131 C129 1.365 . S
C131 C132 1.409 . S
C131 H149 0.929 . S
C132 C131 1.409 . S
C132 C133 1.380 . S
C132 H150 0.930 . S
C133 C132 1.380 . S
C133 C140 1.357 . S
C134 C125 1.511 . S
C134 C135 1.341 . S
C134 C136 1.371 . S
C135 C134 1.341 . S
C135 C139 1.394 . S
C135 H151 0.930 . S
C136 C134 1.371 . S
C136 C137 1.392 . S
C136 H152 0.931 . S
C137 C136 1.392 . S
C137 C138 1.331 . S
C137 H155 0.932 . S
C138 C137 1.331 . S
C138 C139 1.336 . S
C139 C135 1.394 . S
C139 C138 1.336 . S
C139 H154 0.929 . S
C140 C130 1.386 . S
C140 C133 1.357 . S
C140 H153 0.928 . S
H141 C117 0.931 . S
H142 C119 0.930 . S
H143 C121 0.929 . S
H144 C122 0.931 . S
H145 C124 0.930 . S
H146 C128 0.931 . S
H147 C126 0.931 . S
H148 C130 0.931 . S
H149 C131 0.929 . S
H150 C132 0.930 . S
H151 C135 0.930 . S
H152 C136 0.931 . S
H153 C140 0.928 . S
H154 C139 0.929 . S
H155 C137 0.932 . S
C156 C157 1.386 . S
C156 C158 1.397 . S
C156 H180 0.931 . S
C157 C156 1.386 . S
C157 C161 1.397 . S
C158 C156 1.397 . S
C158 C159 1.384 . S
C158 H181 0.930 . S
C159 C158 1.384 . S
C159 C160 1.377 . S
C159 C162 1.481 . S
C160 C159 1.377 . S
C160 C161 1.389 . S
C160 H182 0.929 . S
C161 C157 1.397 . S
C161 C160 1.389 . S
C161 H183 0.931 . S
C162 C159 1.481 . S
C162 C163 1.387 . S
C162 C167 1.390 . S
C163 C162 1.387 . S
C163 C164 1.401 . S
C163 H184 0.930 . S
C164 C163 1.401 . S
C164 C165 1.379 . S
C164 C173 1.511 . S
C165 C164 1.379 . S
C165 C166 1.392 1_554 S
C165 H186 0.929 1_554 S
C166 C165 1.392 1_556 S
C166 C167 1.361 1_556 S
C166 C168 1.500 . S
C167 C162 1.390 . S
C167 C166 1.361 1_554 S
C167 H185 0.931 . S
C168 C166 1.500 . S
C168 C169 1.371 . S
C168 C170 1.365 . S
C169 C168 1.371 . S
C169 C179 1.386 . S
C169 H187 0.931 . S
C170 C168 1.365 . S
C170 C171 1.409 . S
C170 H188 0.929 . S
C171 C170 1.409 . S
C171 C172 1.380 . S
C171 H189 0.930 . S
C172 C171 1.380 . S
C172 C179 1.357 . S
C173 C164 1.511 . S
C173 C174 1.341 . S
C173 C175 1.371 . S
C174 C173 1.341 . S
C174 C178 1.394 . S
C174 H190 0.930 . S
C175 C173 1.371 . S
C175 C176 1.392 . S
C175 H191 0.931 1_554 S
C176 C175 1.392 . S
C176 C177 1.331 . S
C176 H194 0.932 . S
C177 C176 1.331 . S
C177 C178 1.336 . S
C178 C174 1.394 . S
C178 C177 1.336 . S
C178 H193 0.929 . S
C179 C169 1.386 . S
C179 C172 1.357 . S
C179 H192 0.928 . S
H180 C156 0.931 . S
H181 C158 0.930 . S
H182 C160 0.929 . S
H183 C161 0.931 . S
H184 C163 0.930 . S
H185 C167 0.931 . S
H186 C165 0.929 1_556 S
H187 C169 0.931 . S
H188 C170 0.929 . S
H189 C171 0.930 . S
H190 C174 0.930 . S
H191 C175 0.931 1_556 S
H192 C179 0.928 . S
H193 C178 0.929 . S
H194 C176 0.932 . S
C195 C196 1.387 . S
C195 C197 1.397 . S
C195 H219 0.931 . S
C196 C195 1.387 . S
C196 C200 1.396 1_655 S
C197 C195 1.397 . S
C197 C198 1.381 . S
C197 H220 0.930 . S
C198 C197 1.381 . S
C198 C199 1.380 1_655 S
C198 C201 1.480 . S
C199 C198 1.380 1_455 S
C199 C200 1.389 . S
C199 H221 0.929 . S
C200 C196 1.396 1_455 S
C200 C199 1.389 . S
C200 H222 0.931 . S
C201 C198 1.480 . S
C201 C202 1.388 . S
C201 C206 1.390 . S
C202 C201 1.388 . S
C202 C203 1.402 . S
C202 H223 0.930 . S
C203 C202 1.402 . S
C203 C204 1.376 . S
C203 C212 1.512 . S
C204 C203 1.376 . S
C204 C205 1.392 1_654 S
C204 H225 0.933 1_554 S
C205 C204 1.392 1_456 S
C205 C206 1.361 1_456 S
C205 C207 1.499 . S
C206 C201 1.390 . S
C206 C205 1.361 1_654 S
C206 H224 0.931 . S
C207 C205 1.499 . S
C207 C208 1.357 1_455 S
C207 C209 1.380 . S
C208 C207 1.357 1_655 S
C208 C218 1.386 . S
C208 H226 0.931 . S
C209 C207 1.380 . S
C209 C210 1.409 . S
C209 H227 0.929 . S
C210 C209 1.409 . S
C210 C211 1.384 . S
C210 H228 0.930 . S
C211 C210 1.384 . S
C211 C218 1.353 1_455 S
C212 C203 1.512 . S
C212 C213 1.341 . S
C212 C214 1.371 1_655 S
C213 C212 1.341 . S
C213 C217 1.394 . S
C213 H229 0.930 . S
C214 C212 1.371 1_455 S
C214 C215 1.392 . S
C214 H230 0.931 1_554 S
C215 C214 1.392 . S
C215 C216 1.326 1_455 S
C215 H233 0.932 . S
C216 C215 1.326 1_655 S
C216 C217 1.341 . S
C217 C213 1.394 . S
C217 C216 1.341 . S
C217 H232 0.929 . S
C218 C208 1.386 . S
C218 C211 1.353 1_655 S
C218 H231 0.928 . S
H219 C195 0.931 . S
H220 C197 0.930 . S
H221 C199 0.929 . S
H222 C200 0.931 . S
H223 C202 0.930 . S
H224 C206 0.931 . S
H225 C204 0.933 1_556 S
H226 C208 0.931 . S
H227 C209 0.929 . S
H228 C210 0.930 . S
H229 C213 0.930 . S
H230 C214 0.931 1_556 S
H231 C218 0.928 . S
H232 C217 0.929 . S
H233 C215 0.932 . S
C234 C235 1.387 . S
C234 C236 1.397 . S
C234 H258 0.931 . S
C235 C234 1.387 . S
C235 C239 1.396 1_565 S
C236 C234 1.397 . S
C236 C237 1.382 . S
C236 H259 0.930 . S
C237 C236 1.382 . S
C237 C238 1.380 1_565 S
C237 C240 1.480 . S
C238 C237 1.380 1_545 S
C238 C239 1.389 . S
C238 H260 0.929 . S
C239 C235 1.396 1_545 S
C239 C238 1.389 . S
C239 H261 0.931 . S
C240 C237 1.480 . S
C240 C241 1.388 . S
C240 C245 1.390 . S
C241 C240 1.388 . S
C241 C242 1.402 . S
C241 H262 0.930 . S
C242 C241 1.402 . S
C242 C243 1.376 . S
C242 C251 1.512 . S
C243 C242 1.376 . S
C243 C244 1.392 1_564 S
C243 H264 0.933 1_554 S
C244 C243 1.392 1_546 S
C244 C245 1.361 1_546 S
C244 C246 1.499 . S
C245 C240 1.390 . S
C245 C244 1.361 1_564 S
C245 H263 0.931 . S
C246 C244 1.499 . S
C246 C247 1.357 1_545 S
C246 C248 1.380 . S
C247 C246 1.357 1_565 S
C247 C257 1.386 . S
C247 H265 0.931 . S
C248 C246 1.380 . S
C248 C249 1.409 . S
C248 H266 0.929 . S
C249 C248 1.409 . S
C249 C250 1.384 . S
C249 H267 0.930 . S
C250 C249 1.384 . S
C250 C257 1.353 1_545 S
C251 C242 1.512 . S
C251 C252 1.341 . S
C251 C253 1.371 1_565 S
C252 C251 1.341 . S
C252 C256 1.394 . S
C252 H268 0.930 . S
C253 C251 1.371 1_545 S
C253 C254 1.392 . S
C253 H269 0.931 1_554 S
C254 C253 1.392 . S
C254 C255 1.326 1_545 S
C254 H272 0.932 . S
C255 C254 1.326 1_565 S
C255 C256 1.341 . S
C256 C252 1.394 . S
C256 C255 1.341 . S
C256 H271 0.929 . S
C257 C247 1.386 . S
C257 C250 1.353 1_565 S
C257 H270 0.928 . S
H258 C234 0.931 . S
H259 C236 0.930 . S
H260 C238 0.929 . S
H261 C239 0.931 . S
H262 C241 0.930 . S
H263 C245 0.931 . S
H264 C243 0.933 1_556 S
H265 C247 0.931 . S
H266 C248 0.929 . S
H267 C249 0.930 . S
H268 C252 0.930 . S
H269 C253 0.931 1_556 S
H270 C257 0.928 . S
H271 C256 0.929 . S
H272 C254 0.932 . S
C273 C274 1.386 . S
C273 C275 1.397 . S
C273 H297 0.931 . S
C274 C273 1.386 . S
C274 C278 1.397 . S
C275 C273 1.397 . S
C275 C276 1.384 . S
C275 H298 0.930 . S
C276 C275 1.384 . S
C276 C277 1.377 . S
C276 C279 1.481 . S
C277 C276 1.377 . S
C277 C278 1.389 . S
C277 H299 0.929 . S
C278 C274 1.397 . S
C278 C277 1.389 . S
C278 H300 0.931 . S
C279 C276 1.481 . S
C279 C280 1.383 1_556 S
C279 C284 1.390 1_556 S
C280 C279 1.383 1_554 S
C280 C281 1.416 . S
C280 H301 0.918 1_554 S
C281 C280 1.416 . S
C281 C282 1.376 . S
C281 C290 1.511 . S
C282 C281 1.376 . S
C282 C283 1.392 . S
C282 H303 0.931 . S
C283 C282 1.392 . S
C283 C284 1.361 . S
C283 C285 1.500 . S
C284 C279 1.390 1_554 S
C284 C283 1.361 . S
C284 H302 0.931 . S
C285 C283 1.500 . S
C285 C286 1.371 . S
C285 C287 1.365 . S
C286 C285 1.371 . S
C286 C296 1.386 . S
C286 H304 0.931 . S
C287 C285 1.365 . S
C287 C288 1.409 . S
C287 H305 0.929 . S
C288 C287 1.409 . S
C288 C289 1.380 . S
C288 H306 0.930 . S
C289 C288 1.380 . S
C289 C296 1.357 . S
C290 C281 1.511 . S
C290 C291 1.341 . S
C290 C292 1.371 . S
C291 C290 1.341 . S
C291 C295 1.394 . S
C291 H307 0.930 1_554 S
C292 C290 1.371 . S
C292 C293 1.392 . S
C292 H308 0.931 . S
C293 C292 1.392 . S
C293 C294 1.331 . S
C293 H311 0.932 . S
C294 C293 1.331 . S
C294 C295 1.336 . S
C295 C291 1.394 . S
C295 C294 1.336 . S
C295 H310 0.929 . S
C296 C286 1.386 . S
C296 C289 1.357 . S
C296 H309 0.928 . S
H297 C273 0.931 . S
H298 C275 0.930 . S
H299 C277 0.929 . S
H300 C278 0.931 . S
H301 C280 0.918 1_556 S
H302 C284 0.931 . S
H303 C282 0.931 . S
H304 C286 0.931 . S
H305 C287 0.929 . S
H306 C288 0.930 . S
H307 C291 0.930 1_556 S
H308 C292 0.931 . S
H309 C296 0.928 . S
H310 C295 0.929 . S
H311 C293 0.932 . S
Tb312 C314 2.809 . S
Tb312 O332 2.484 . S
Tb312 O333 2.440 . S
Tb312 O334 2.658 1_565 S
Tb312 O335 2.409 . S
Tb312 O336 2.378 . S
Tb312 O340 2.325 1_455 S
Tb312 O343 2.341 1_565 S
Tb313 C323 2.809 . S
Tb313 O334 2.325 1_655 S
Tb313 O337 2.341 1_545 S
Tb313 O338 2.484 . S
Tb313 O339 2.440 . S
Tb313 O340 2.658 1_545 S
Tb313 O341 2.409 . S
Tb313 O342 2.378 . S
C314 Tb312 2.809 . S
C314 C315 1.514 . S
C314 O332 1.248 . S
C314 O333 1.266 . S
C315 C314 1.514 . S
C315 C316 1.359 . S
C315 C320 1.348 . S
C316 C315 1.359 . S
C316 C317 1.380 . S
C316 H344 0.929 1_455 S
C317 C316 1.380 . S
C317 C318 1.347 . S
C317 H345 0.931 1_455 S
C318 C317 1.347 . S
C318 C319 1.369 . S
C319 C318 1.369 . S
C319 C320 1.408 . S
C319 H346 0.930 . S
C320 C315 1.348 . S
C320 C319 1.408 . S
C320 H347 0.930 . S
C321 O334 1.281 1_565 S
C321 O335 1.254 . S
C322 O336 1.236 1_655 S
C322 O337 1.266 . S
C323 Tb313 2.809 . S
C323 C324 1.514 . S
C323 O338 1.248 . S
C323 O339 1.266 . S
C324 C323 1.514 . S
C324 C325 1.359 . S
C324 C329 1.348 . S
C325 C324 1.359 . S
C325 C326 1.380 . S
C325 H348 0.929 1_655 S
C326 C325 1.380 . S
C326 C327 1.347 . S
C326 H349 0.931 1_655 S
C327 C326 1.347 . S
C327 C328 1.369 . S
C328 C327 1.369 . S
C328 C329 1.408 . S
C328 H350 0.930 . S
C329 C324 1.348 . S
C329 C328 1.408 . S
C329 H351 0.930 . S
C330 O340 1.281 1_545 S
C330 O341 1.254 . S
C331 O342 1.236 1_455 S
C331 O343 1.266 . S
O332 Tb312 2.484 . S
O332 C314 1.248 . S
O333 Tb312 2.440 . S
O333 C314 1.266 . S
O334 Tb312 2.658 1_545 S
O334 Tb313 2.325 1_455 S
O334 C321 1.281 1_545 S
O335 Tb312 2.409 . S
O335 C321 1.254 . S
O336 Tb312 2.378 . S
O336 C322 1.236 1_455 S
O337 Tb313 2.341 1_565 S
O337 C322 1.266 . S
O338 Tb313 2.484 . S
O338 C323 1.248 . S
O339 Tb313 2.440 . S
O339 C323 1.266 . S
O340 Tb312 2.325 1_655 S
O340 Tb313 2.658 1_565 S
O340 C330 1.281 1_565 S
O341 Tb313 2.409 . S
O341 C330 1.254 . S
O342 Tb313 2.378 . S
O342 C331 1.236 1_655 S
O343 Tb312 2.341 1_545 S
O343 C331 1.266 . S
H344 C316 0.929 1_655 S
H345 C317 0.931 1_655 S
H346 C319 0.930 . S
H347 C320 0.930 . S
H348 C325 0.929 1_455 S
H349 C326 0.931 1_455 S
H350 C328 0.930 . S
H351 C329 0.930 . S
Tb352 C354 2.809 . S
Tb352 O372 2.484 . S
Tb352 O373 2.440 . S
Tb352 O374 2.658 . S
Tb352 O375 2.409 . S
Tb352 O376 2.378 . S
Tb352 O380 2.325 1_545 S
Tb352 O383 2.341 . S
Tb353 C363 2.809 . S
Tb353 O374 2.325 1_565 S
Tb353 O377 2.341 . S
Tb353 O378 2.484 . S
Tb353 O379 2.440 . S
Tb353 O380 2.658 . S
Tb353 O381 2.409 . S
Tb353 O382 2.378 . S
C354 Tb352 2.809 . S
C354 C355 1.514 . S
C354 O372 1.248 . S
C354 O373 1.266 . S
C355 C354 1.514 . S
C355 C356 1.359 . S
C355 C360 1.348 . S
C356 C355 1.359 . S
C356 C357 1.380 . S
C356 H384 0.929 1_545 S
C357 C356 1.380 . S
C357 C358 1.347 . S
C357 H385 0.931 1_545 S
C358 C357 1.347 . S
C358 C359 1.369 . S
C359 C358 1.369 . S
C359 C360 1.408 . S
C359 H386 0.930 . S
C360 C355 1.348 . S
C360 C359 1.408 . S
C360 H387 0.930 . S
C361 O374 1.281 . S
C361 O375 1.254 . S
C362 O376 1.236 1_565 S
C362 O377 1.266 . S
C363 Tb353 2.809 . S
C363 C364 1.514 . S
C363 O378 1.248 . S
C363 O379 1.266 . S
C364 C363 1.514 . S
C364 C365 1.359 . S
C364 C369 1.348 . S
C365 C364 1.359 . S
C365 C366 1.380 . S
C365 H388 0.929 1_565 S
C366 C365 1.380 . S
C366 C367 1.347 . S
C366 H389 0.931 1_565 S
C367 C366 1.347 . S
C367 C368 1.369 . S
C368 C367 1.369 . S
C368 C369 1.408 . S
C368 H390 0.930 . S
C369 C364 1.348 . S
C369 C368 1.408 . S
C369 H391 0.930 . S
C370 O380 1.281 . S
C370 O381 1.254 . S
C371 O382 1.236 1_545 S
C371 O383 1.266 . S
O372 Tb352 2.484 . S
O372 C354 1.248 . S
O373 Tb352 2.440 . S
O373 C354 1.266 . S
O374 Tb352 2.658 . S
O374 Tb353 2.325 1_545 S
O374 C361 1.281 . S
O375 Tb352 2.409 . S
O375 C361 1.254 . S
O376 Tb352 2.378 . S
O376 C362 1.236 1_545 S
O377 Tb353 2.341 . S
O377 C362 1.266 . S
O378 Tb353 2.484 . S
O378 C363 1.248 . S
O379 Tb353 2.440 . S
O379 C363 1.266 . S
O380 Tb352 2.325 1_565 S
O380 Tb353 2.658 . S
O380 C370 1.281 . S
O381 Tb353 2.409 . S
O381 C370 1.254 . S
O382 Tb353 2.378 . S
O382 C371 1.236 1_565 S
O383 Tb352 2.341 . S
O383 C371 1.266 . S
H384 C356 0.929 1_565 S
H385 C357 0.931 1_565 S
H386 C359 0.930 . S
H387 C360 0.930 . S
H388 C365 0.929 1_545 S
H389 C366 0.931 1_545 S
H390 C368 0.930 . S
H391 C369 0.930 . S
Tb392 C394 2.809 . S
Tb392 O412 2.484 . S
Tb392 O413 2.440 . S
Tb392 O414 2.658 . S
Tb392 O415 2.409 . S
Tb392 O416 2.378 . S
Tb392 O420 2.325 . S
Tb392 O423 2.341 . S
Tb393 C403 2.809 . S
Tb393 O414 2.325 . S
Tb393 O417 2.341 . S
Tb393 O418 2.484 . S
Tb393 O419 2.440 . S
Tb393 O420 2.658 . S
Tb393 O421 2.409 . S
Tb393 O422 2.378 . S
C394 Tb392 2.809 . S
C394 C395 1.514 . S
C394 O412 1.248 . S
C394 O413 1.266 . S
C395 C394 1.514 . S
C395 C396 1.359 . S
C395 C400 1.348 . S
C396 C395 1.359 . S
C396 C397 1.380 . S
C396 H424 0.929 . S
C397 C396 1.380 . S
C397 C398 1.347 . S
C397 H425 0.931 . S
C398 C397 1.347 . S
C398 C399 1.369 . S
C399 C398 1.369 . S
C399 C400 1.408 . S
C399 H426 0.930 . S
C400 C395 1.348 . S
C400 C399 1.408 . S
C400 H427 0.930 . S
C401 O414 1.281 . S
C401 O415 1.254 . S
C402 O416 1.236 . S
C402 O417 1.266 . S
C403 Tb393 2.809 . S
C403 C404 1.514 . S
C403 O418 1.248 . S
C403 O419 1.266 . S
C404 C403 1.514 . S
C404 C405 1.359 . S
C404 C409 1.348 . S
C405 C404 1.359 . S
C405 C406 1.380 . S
C405 H428 0.929 . S
C406 C405 1.380 . S
C406 C407 1.347 . S
C406 H429 0.931 . S
C407 C406 1.347 . S
C407 C408 1.369 . S
C408 C407 1.369 . S
C408 C409 1.408 . S
C408 H430 0.930 . S
C409 C404 1.348 . S
C409 C408 1.408 . S
C409 H431 0.930 . S
C410 O420 1.281 . S
C410 O421 1.254 . S
C411 O422 1.236 . S
C411 O423 1.266 . S
O412 Tb392 2.484 . S
O412 C394 1.248 . S
O413 Tb392 2.440 . S
O413 C394 1.266 . S
O414 Tb392 2.658 . S
O414 Tb393 2.325 . S
O414 C401 1.281 . S
O415 Tb392 2.409 . S
O415 C401 1.254 . S
O416 Tb392 2.378 . S
O416 C402 1.236 . S
O417 Tb393 2.341 . S
O417 C402 1.266 . S
O418 Tb393 2.484 . S
O418 C403 1.248 . S
O419 Tb393 2.440 . S
O419 C403 1.266 . S
O420 Tb392 2.325 . S
O420 Tb393 2.658 . S
O420 C410 1.281 . S
O421 Tb393 2.409 . S
O421 C410 1.254 . S
O422 Tb393 2.378 . S
O422 C411 1.236 . S
O423 Tb392 2.341 . S
O423 C411 1.266 . S
H424 C396 0.929 . S
H425 C397 0.931 . S
H426 C399 0.930 . S
H427 C400 0.930 . S
H428 C405 0.929 . S
H429 C406 0.931 . S
H430 C408 0.930 . S
H431 C409 0.930 . S
Tb432 C434 2.809 . S
Tb432 O452 2.484 . S
Tb432 O453 2.440 . S
Tb432 O454 2.658 1_655 S
Tb432 O455 2.409 . S
Tb432 O456 2.378 . S
Tb432 O460 2.325 . S
Tb432 O463 2.341 1_655 S
Tb433 C443 2.809 . S
Tb433 O454 2.325 . S
Tb433 O457 2.341 1_455 S
Tb433 O458 2.484 . S
Tb433 O459 2.440 . S
Tb433 O460 2.658 1_455 S
Tb433 O461 2.409 . S
Tb433 O462 2.378 . S
C434 Tb432 2.809 . S
C434 C435 1.514 . S
C434 O452 1.248 . S
C434 O453 1.266 . S
C435 C434 1.514 . S
C435 C436 1.359 . S
C435 C440 1.348 . S
C436 C435 1.359 . S
C436 C437 1.380 . S
C436 H464 0.929 . S
C437 C436 1.380 . S
C437 C438 1.347 . S
C437 H465 0.931 . S
C438 C437 1.347 . S
C438 C439 1.369 . S
C439 C438 1.369 . S
C439 C440 1.408 . S
C439 H466 0.930 . S
C440 C435 1.348 . S
C440 C439 1.408 . S
C440 H467 0.930 . S
C441 O454 1.276 1_655 S
C441 O455 1.261 . S
C442 O456 1.236 . S
C442 O457 1.266 . S
C443 Tb433 2.809 . S
C443 C444 1.514 . S
C443 O458 1.248 . S
C443 O459 1.266 . S
C444 C443 1.514 . S
C444 C445 1.359 . S
C444 C449 1.348 . S
C445 C444 1.359 . S
C445 C446 1.380 . S
C445 H468 0.929 . S
C446 C445 1.380 . S
C446 C447 1.347 . S
C446 H469 0.931 . S
C447 C446 1.347 . S
C447 C448 1.369 . S
C448 C447 1.369 . S
C448 C449 1.408 . S
C448 H470 0.930 . S
C449 C444 1.348 . S
C449 C448 1.408 . S
C449 H471 0.930 . S
C450 O460 1.272 1_455 S
C450 O461 1.266 . S
C451 O462 1.236 . S
C451 O463 1.266 . S
O452 Tb432 2.484 . S
O452 C434 1.248 . S
O453 Tb432 2.440 . S
O453 C434 1.266 . S
O454 Tb432 2.658 1_455 S
O454 Tb433 2.325 . S
O454 C441 1.276 1_455 S
O455 Tb432 2.409 . S
O455 C441 1.261 . S
O456 Tb432 2.378 . S
O456 C442 1.236 . S
O457 Tb433 2.341 1_655 S
O457 C442 1.266 . S
O458 Tb433 2.484 . S
O458 C443 1.248 . S
O459 Tb433 2.440 . S
O459 C443 1.266 . S
O460 Tb432 2.325 . S
O460 Tb433 2.658 1_655 S
O460 C450 1.272 1_655 S
O461 Tb433 2.409 . S
O461 C450 1.266 . S
O462 Tb433 2.378 . S
O462 C451 1.236 . S
O463 Tb432 2.341 1_455 S
O463 C451 1.266 . S
H464 C436 0.929 . S
H465 C437 0.931 . S
H466 C439 0.930 . S
H467 C440 0.930 . S
H468 C445 0.929 . S
H469 C446 0.931 . S
H470 C448 0.930 . S
H471 C449 0.930 . S
H472 C484 0.930 . S
H473 C486 0.930 . S
H474 C487 0.930 . S
H475 C491 0.959 . S
H476 C491 0.959 . S
H477 C491 0.961 . S
H478 C492 0.960 . S
H479 C492 0.961 . S
H480 C492 0.959 . S
H481 C495 0.929 . S
H482 C496 0.931 . S
H483 C498 0.930 . S
C484 H472 0.930 . S
C484 C485 1.399 1_545 S
C484 C489 1.399 . S
C485 C484 1.399 1_565 S
C485 C486 1.376 . S
C486 H473 0.930 . S
C486 C485 1.376 . S
C486 C487 1.388 . S
C487 H474 0.930 . S
C487 C486 1.388 . S
C487 C488 1.390 . S
C488 C487 1.390 . S
C488 C489 1.394 1_565 S
C488 C494 1.465 . S
C489 C484 1.399 . S
C489 C488 1.394 1_545 S
C489 C490 1.516 . S
C490 C489 1.516 . S
C490 C491 1.502 . S
C490 C492 1.561 . S
C490 C493 1.526 . S
C491 H475 0.959 . S
C491 H476 0.959 . S
C491 H477 0.961 . S
C491 C490 1.502 . S
C492 H478 0.960 . S
C492 H479 0.961 . S
C492 H480 0.959 . S
C492 C490 1.561 . S
C493 C490 1.526 . S
C493 C494 1.396 1_545 S
C493 C498 1.390 . S
C494 C488 1.465 . S
C494 C493 1.396 1_565 S
C494 C495 1.399 . S
C495 H481 0.929 . S
C495 C494 1.399 . S
C495 C496 1.385 . S
C496 H482 0.931 . S
C496 C495 1.385 . S
C496 C497 1.389 . S
C497 C496 1.389 . S
C497 C498 1.387 1_565 S
C498 H483 0.930 . S
C498 C493 1.390 . S
C498 C497 1.387 1_545 S
H499 C511 0.930 . S
H500 C513 0.930 . S
H501 C514 0.930 . S
H502 C518 0.959 . S
H503 C518 0.959 . S
H504 C518 0.961 . S
H505 C519 0.960 . S
H506 C519 0.961 . S
H507 C519 0.959 . S
H508 C522 0.929 . S
H509 C523 0.931 . S
H510 C525 0.930 . S
C511 H499 0.930 . S
C511 C512 1.399 . S
C511 C516 1.399 . S
C512 C511 1.399 . S
C512 C513 1.376 . S
C513 H500 0.930 . S
C513 C512 1.376 . S
C513 C514 1.388 . S
C514 H501 0.930 . S
C514 C513 1.388 . S
C514 C515 1.390 . S
C515 C514 1.390 . S
C515 C516 1.394 . S
C515 C521 1.465 . S
C516 C511 1.399 . S
C516 C515 1.394 . S
C516 C517 1.516 . S
C517 C516 1.516 . S
C517 C518 1.502 . S
C517 C519 1.561 . S
C517 C520 1.526 . S
C518 H502 0.959 . S
C518 H503 0.959 . S
C518 H504 0.961 . S
C518 C517 1.502 . S
C519 H505 0.960 . S
C519 H506 0.961 . S
C519 H507 0.959 . S
C519 C517 1.561 . S
C520 C517 1.526 . S
C520 C521 1.396 . S
C520 C525 1.390 . S
C521 C515 1.465 . S
C521 C520 1.396 . S
C521 C522 1.399 . S
C522 H508 0.929 . S
C522 C521 1.399 . S
C522 C523 1.385 . S
C523 H509 0.931 . S
C523 C522 1.385 . S
C523 C524 1.389 . S
C524 C523 1.389 . S
C524 C525 1.387 . S
C525 H510 0.930 . S
C525 C520 1.390 . S
C525 C524 1.387 . S
H526 C538 0.930 . S
H527 C540 0.930 . S
H528 C541 0.930 . S
H529 C545 0.959 . S
H530 C545 0.959 . S
H531 C545 0.961 . S
H532 C546 0.960 . S
H533 C546 0.961 . S
H534 C546 0.959 . S
H535 C549 0.929 . S
H536 C550 0.931 . S
H537 C552 0.930 . S
C538 H526 0.930 . S
C538 C539 1.399 . S
C538 C543 1.399 . S
C539 C538 1.399 . S
C539 C540 1.376 . S
C540 H527 0.930 . S
C540 C539 1.376 . S
C540 C541 1.388 . S
C541 H528 0.930 . S
C541 C540 1.388 . S
C541 C542 1.390 . S
C542 C541 1.390 . S
C542 C543 1.394 . S
C542 C548 1.465 . S
C543 C538 1.399 . S
C543 C542 1.394 . S
C543 C544 1.516 . S
C544 C543 1.516 . S
C544 C545 1.502 . S
C544 C546 1.561 . S
C544 C547 1.526 . S
C545 H529 0.959 . S
C545 H530 0.959 . S
C545 H531 0.961 . S
C545 C544 1.502 . S
C546 H532 0.960 . S
C546 H533 0.961 . S
C546 H534 0.959 . S
C546 C544 1.561 . S
C547 C544 1.526 . S
C547 C548 1.396 . S
C547 C552 1.390 . S
C548 C542 1.465 . S
C548 C547 1.396 . S
C548 C549 1.399 . S
C549 H535 0.929 . S
C549 C548 1.399 . S
C549 C550 1.385 . S
C550 H536 0.931 . S
C550 C549 1.385 . S
C550 C551 1.389 . S
C551 C550 1.389 . S
C551 C552 1.387 . S
C552 H537 0.930 . S
C552 C547 1.390 . S
C552 C551 1.387 . S
H553 C565 0.930 . S
H554 C567 0.930 . S
H555 C568 0.930 . S
H556 C572 0.959 . S
H557 C572 0.959 . S
H558 C572 0.961 . S
H559 C573 0.960 . S
H560 C573 0.961 . S
H561 C573 0.959 . S
H562 C576 0.929 . S
H563 C577 0.931 . S
H564 C579 0.930 . S
C565 H553 0.930 . S
C565 C566 1.399 1_455 S
C565 C570 1.399 . S
C566 C565 1.399 1_655 S
C566 C567 1.376 . S
C567 H554 0.930 . S
C567 C566 1.376 . S
C567 C568 1.388 . S
C568 H555 0.930 . S
C568 C567 1.388 . S
C568 C569 1.390 . S
C569 C568 1.390 . S
C569 C570 1.394 1_655 S
C569 C575 1.465 . S
C570 C565 1.399 . S
C570 C569 1.394 1_455 S
C570 C571 1.516 . S
C571 C570 1.516 . S
C571 C572 1.502 . S
C571 C573 1.561 1_455 S
C571 C574 1.526 . S
C572 H556 0.959 . S
C572 H557 0.959 . S
C572 H558 0.961 . S
C572 C571 1.502 . S
C573 H559 0.960 . S
C573 H560 0.961 . S
C573 H561 0.959 . S
C573 C571 1.561 1_655 S
C574 C571 1.526 . S
C574 C575 1.396 1_455 S
C574 C579 1.390 . S
C575 C569 1.465 . S
C575 C574 1.396 1_655 S
C575 C576 1.399 . S
C576 H562 0.929 . S
C576 C575 1.399 . S
C576 C577 1.385 . S
C577 H563 0.931 . S
C577 C576 1.385 . S
C577 C578 1.390 1_655 S
C578 C577 1.390 1_455 S
C578 C579 1.387 . S
C579 H564 0.930 . S
C579 C574 1.390 . S
C579 C578 1.387 . S
H580 C592 0.930 . S
H581 C594 0.930 . S
H582 C595 0.930 . S
H583 C599 0.959 . S
H584 C599 0.959 1_556 S
H585 C599 0.961 . S
H586 C600 0.960 . S
H587 C600 0.961 . S
H588 C600 0.959 . S
H589 C603 0.929 . S
H590 C604 0.931 . S
H591 C606 0.930 . S
C592 H580 0.930 . S
C592 C593 1.399 1_545 S
C592 C597 1.399 . S
C593 C592 1.399 1_565 S
C593 C594 1.376 . S
C594 H581 0.930 . S
C594 C593 1.376 . S
C594 C595 1.388 . S
C595 H582 0.930 . S
C595 C594 1.388 . S
C595 C596 1.390 . S
C596 C595 1.390 . S
C596 C597 1.394 1_565 S
C596 C602 1.465 . S
C597 C592 1.399 . S
C597 C596 1.394 1_545 S
C597 C598 1.516 . S
C598 C597 1.516 . S
C598 C599 1.502 . S
C598 C600 1.561 . S
C598 C601 1.526 1_554 S
C599 H583 0.959 . S
C599 H584 0.959 1_554 S
C599 H585 0.961 . S
C599 C598 1.502 . S
C600 H586 0.960 . S
C600 H587 0.961 . S
C600 H588 0.959 . S
C600 C598 1.561 . S
C601 C598 1.526 1_556 S
C601 C602 1.396 1_546 S
C601 C606 1.390 . S
C602 C596 1.465 . S
C602 C601 1.396 1_564 S
C602 C603 1.399 1_554 S
C603 H589 0.929 . S
C603 C602 1.399 1_556 S
C603 C604 1.385 . S
C604 H590 0.931 . S
C604 C603 1.385 . S
C604 C605 1.389 . S
C605 C604 1.389 . S
C605 C606 1.387 1_565 S
C606 H591 0.930 . S
C606 C601 1.390 . S
C606 C605 1.387 1_545 S
H607 C619 0.930 . S
H608 C621 0.930 . S
H609 C622 0.930 . S
H610 C626 0.959 . S
H611 C626 0.959 . S
H612 C626 0.961 . S
H613 C627 0.960 . S
H614 C627 0.961 . S
H615 C627 0.959 . S
H616 C630 0.929 . S
H617 C631 0.931 . S
H618 C633 0.930 . S
C619 H607 0.930 . S
C619 C620 1.399 . S
C619 C624 1.399 . S
C620 C619 1.399 . S
C620 C621 1.376 . S
C621 H608 0.930 . S
C621 C620 1.376 . S
C621 C622 1.388 . S
C622 H609 0.930 . S
C622 C621 1.388 . S
C622 C623 1.390 . S
C623 C622 1.390 . S
C623 C624 1.394 . S
C623 C629 1.466 1_554 S
C624 C619 1.399 . S
C624 C623 1.394 . S
C624 C625 1.516 . S
C625 C624 1.516 . S
C625 C626 1.502 . S
C625 C627 1.561 . S
C625 C628 1.526 1_554 S
C626 H610 0.959 . S
C626 H611 0.959 . S
C626 H612 0.961 . S
C626 C625 1.502 . S
C627 H613 0.960 . S
C627 H614 0.961 . S
C627 H615 0.959 . S
C627 C625 1.561 . S
C628 C625 1.526 1_556 S
C628 C629 1.396 . S
C628 C633 1.390 . S
C629 C623 1.466 1_556 S
C629 C628 1.396 . S
C629 C630 1.398 . S
C630 H616 0.929 . S
C630 C629 1.398 . S
C630 C631 1.385 . S
C631 H617 0.931 . S
C631 C630 1.385 . S
C631 C632 1.389 . S
C632 C631 1.389 . S
C632 C633 1.387 . S
C633 H618 0.930 . S
C633 C628 1.390 . S
C633 C632 1.387 . S
H634 C646 0.930 . S
H635 C648 0.930 . S
H636 C649 0.930 . S
H637 C653 0.959 1_556 S
H638 C653 0.959 1_556 S
H639 C653 0.961 . S
H640 C654 0.960 . S
H641 C654 0.961 . S
H642 C654 0.959 . S
H643 C657 0.929 1_554 S
H644 C658 0.931 . S
H645 C660 0.930 . S
C646 H634 0.930 . S
C646 C647 1.399 . S
C646 C651 1.399 . S
C647 C646 1.399 . S
C647 C648 1.376 . S
C648 H635 0.930 . S
C648 C647 1.376 . S
C648 C649 1.388 . S
C649 H636 0.930 . S
C649 C648 1.388 . S
C649 C650 1.390 . S
C650 C649 1.390 . S
C650 C651 1.394 . S
C650 C656 1.465 . S
C651 C646 1.399 . S
C651 C650 1.394 . S
C651 C652 1.516 . S
C652 C651 1.516 . S
C652 C653 1.502 . S
C652 C654 1.561 . S
C652 C655 1.526 1_554 S
C653 H637 0.959 1_554 S
C653 H638 0.959 1_554 S
C653 H639 0.961 . S
C653 C652 1.502 . S
C654 H640 0.960 . S
C654 H641 0.961 . S
C654 H642 0.959 . S
C654 C652 1.561 . S
C655 C652 1.526 1_556 S
C655 C656 1.396 1_556 S
C655 C660 1.390 . S
C656 C650 1.465 . S
C656 C655 1.396 1_554 S
C656 C657 1.399 1_554 S
C657 H643 0.929 1_556 S
C657 C656 1.399 1_556 S
C657 C658 1.385 . S
C658 H644 0.931 . S
C658 C657 1.385 . S
C658 C659 1.389 . S
C659 C658 1.389 . S
C659 C660 1.387 . S
C660 H645 0.930 . S
C660 C655 1.390 . S
C660 C659 1.387 . S
H661 C673 0.930 . S
H662 C675 0.930 . S
H663 C676 0.930 . S
H664 C680 0.959 . S
H665 C680 0.959 . S
H666 C680 0.961 . S
H667 C681 0.960 . S
H668 C681 0.961 . S
H669 C681 0.959 . S
H670 C684 0.929 . S
H671 C685 0.931 . S
H672 C687 0.934 . S
C673 H661 0.930 . S
C673 C674 1.399 1_455 S
C673 C678 1.396 1_455 S
C674 C673 1.399 1_655 S
C674 C675 1.376 . S
C675 H662 0.930 . S
C675 C674 1.376 . S
C675 C676 1.388 . S
C676 H663 0.930 . S
C676 C675 1.388 . S
C676 C677 1.390 . S
C677 C676 1.390 . S
C677 C678 1.401 . S
C677 C683 1.465 1_554 S
C678 C673 1.396 1_655 S
C678 C677 1.401 . S
C678 C679 1.514 1_655 S
C679 C678 1.514 1_455 S
C679 C680 1.533 . S
C679 C681 1.531 1_455 S
C679 C682 1.528 1_455 S
C680 H664 0.959 . S
C680 H665 0.959 . S
C680 H666 0.961 . S
C680 C679 1.533 . S
C681 H667 0.960 . S
C681 H668 0.961 . S
C681 H669 0.959 . S
C681 C679 1.531 1_655 S
C682 C679 1.528 1_655 S
C682 C683 1.404 1_554 S
C682 C687 1.382 1_654 S
C683 C677 1.465 1_556 S
C683 C682 1.404 1_556 S
C683 C684 1.399 . S
C684 H670 0.929 . S
C684 C683 1.399 . S
C684 C685 1.385 . S
C685 H671 0.931 . S
C685 C684 1.385 . S
C685 C686 1.389 . S
C686 C685 1.389 . S
C686 C687 1.384 1_655 S
C687 H672 0.934 . S
C687 C682 1.382 1_456 S
C687 C686 1.384 1_455 S
H688 C700 0.930 . S
H689 C702 0.930 . S
H690 C703 0.930 . S
H691 C707 0.959 . S
H692 C707 0.959 . S
H693 C707 0.961 . S
H694 C708 0.960 . S
H695 C708 0.961 . S
H696 C708 0.959 . S
H697 C711 0.929 . S
H698 C712 0.931 . S
H699 C714 0.930 . S
C700 H688 0.930 . S
C700 C701 1.403 . S
C700 C705 1.399 1_455 S
C701 C700 1.403 . S
C701 C702 1.359 1_455 S
C702 H689 0.930 . S
C702 C701 1.359 1_655 S
C702 C703 1.388 . S
C703 H690 0.930 . S
C703 C702 1.388 . S
C703 C704 1.390 . S
C704 C703 1.390 . S
C704 C705 1.394 . S
C704 C710 1.465 . S
C705 C700 1.399 1_655 S
C705 C704 1.394 . S
C705 C706 1.516 . S
C706 C705 1.516 . S
C706 C707 1.502 1_655 S
C706 C708 1.561 . S
C706 C709 1.526 . S
C707 H691 0.959 . S
C707 H692 0.959 . S
C707 H693 0.961 . S
C707 C706 1.502 1_455 S
C708 H694 0.960 . S
C708 H695 0.961 . S
C708 H696 0.959 . S
C708 C706 1.561 . S
C709 C706 1.526 . S
C709 C710 1.396 . S
C709 C714 1.390 . S
C710 C704 1.465 . S
C710 C709 1.396 . S
C710 C711 1.399 . S
C711 H697 0.929 . S
C711 C710 1.399 . S
C711 C712 1.385 . S
C712 H698 0.931 . S
C712 C711 1.385 . S
C712 C713 1.389 . S
C713 C712 1.389 . S
C713 C714 1.387 . S
C714 H699 0.930 . S
C714 C709 1.390 . S
C714 C713 1.387 . S
H715 C727 0.930 . S
H716 C729 0.930 . S
H717 C730 0.930 . S
H718 C734 0.959 . S
H719 C734 0.959 . S
H720 C734 0.961 . S
H721 C735 0.960 . S
H722 C735 0.961 . S
H723 C735 0.959 . S
H724 C738 0.929 . S
H725 C739 0.931 . S
H726 C741 0.930 . S
C727 H715 0.930 . S
C727 C728 1.419 . S
C727 C732 1.416 . S
C728 C727 1.419 . S
C728 C729 1.338 1_545 S
C729 H716 0.930 . S
C729 C728 1.338 1_565 S
C729 C730 1.388 . S
C730 H717 0.930 . S
C730 C729 1.388 . S
C730 C731 1.390 . S
C731 C730 1.390 . S
C731 C732 1.360 1_565 S
C731 C737 1.465 . S
C732 C727 1.416 . S
C732 C731 1.360 1_545 S
C732 C733 1.529 . S
C733 C732 1.529 . S
C733 C734 1.502 . S
C733 C735 1.561 . S
C733 C736 1.526 1_545 S
C734 H718 0.959 . S
C734 H719 0.959 . S
C734 H720 0.961 . S
C734 C733 1.502 . S
C735 H721 0.960 . S
C735 H722 0.961 . S
C735 H723 0.959 . S
C735 C733 1.561 . S
C736 C733 1.526 1_565 S
C736 C737 1.396 . S
C736 C741 1.390 . S
C737 C731 1.465 . S
C737 C736 1.396 . S
C737 C738 1.399 . S
C738 H724 0.929 . S
C738 C737 1.399 . S
C738 C739 1.385 . S
C739 H725 0.931 . S
C739 C738 1.385 . S
C739 C740 1.389 . S
C740 C739 1.389 . S
C740 C741 1.387 . S
C741 H726 0.930 . S
C741 C736 1.390 . S
C741 C740 1.387 . S
H742 C754 0.930 . S
H743 C756 0.930 . S
H744 C757 0.930 . S
H745 C761 0.959 . S
H746 C761 0.959 . S
H747 C761 0.961 . S
H748 C762 0.960 . S
H749 C762 0.961 . S
H750 C762 0.959 . S
H751 C765 0.929 . S
H752 C766 0.931 . S
H753 C768 0.930 . S
C754 H742 0.930 . S
C754 C755 1.399 . S
C754 C759 1.399 . S
C755 C754 1.399 . S
C755 C756 1.376 . S
C756 H743 0.930 . S
C756 C755 1.376 . S
C756 C757 1.388 . S
C757 H744 0.930 . S
C757 C756 1.388 . S
C757 C758 1.390 . S
C758 C757 1.390 . S
C758 C759 1.394 . S
C758 C764 1.465 . S
C759 C754 1.399 . S
C759 C758 1.394 . S
C759 C760 1.516 . S
C760 C759 1.516 . S
C760 C761 1.502 . S
C760 C762 1.561 . S
C760 C763 1.526 . S
C761 H745 0.959 . S
C761 H746 0.959 . S
C761 H747 0.961 . S
C761 C760 1.502 . S
C762 H748 0.960 . S
C762 H749 0.961 . S
C762 H750 0.959 . S
C762 C760 1.561 . S
C763 C760 1.526 . S
C763 C764 1.396 . S
C763 C768 1.390 . S
C764 C758 1.465 . S
C764 C763 1.396 . S
C764 C765 1.399 . S
C765 H751 0.929 . S
C765 C764 1.399 . S
C765 C766 1.385 . S
C766 H752 0.931 . S
C766 C765 1.385 . S
C766 C767 1.389 . S
C767 C766 1.389 . S
C767 C768 1.387 . S
C768 H753 0.930 . S
C768 C763 1.390 . S
C768 C767 1.387 . S
H769 C781 0.930 . S
H770 C783 0.930 . S
H771 C784 0.930 . S
H772 C788 0.959 . S
H773 C788 0.959 . S
H774 C788 0.961 . S
H775 C789 0.960 . S
H776 C789 0.961 . S
H777 C789 0.959 . S
H778 C792 0.929 . S
H779 C793 0.931 . S
H780 C795 0.930 . S
C781 H769 0.930 . S
C781 C782 1.399 . S
C781 C786 1.399 . S
C782 C781 1.399 . S
C782 C783 1.376 . S
C783 H770 0.930 . S
C783 C782 1.376 . S
C783 C784 1.388 . S
C784 H771 0.930 . S
C784 C783 1.388 . S
C784 C785 1.390 . S
C785 C784 1.390 . S
C785 C786 1.394 . S
C785 C791 1.465 . S
C786 C781 1.399 . S
C786 C785 1.394 . S
C786 C787 1.516 . S
C787 C786 1.516 . S
C787 C788 1.502 . S
C787 C789 1.561 . S
C787 C790 1.526 . S
C788 H772 0.959 . S
C788 H773 0.959 . S
C788 H774 0.961 . S
C788 C787 1.502 . S
C789 H775 0.960 . S
C789 H776 0.961 . S
C789 H777 0.959 . S
C789 C787 1.561 . S
C790 C787 1.526 . S
C790 C791 1.396 . S
C790 C795 1.390 . S
C791 C785 1.465 . S
C791 C790 1.396 . S
C791 C792 1.399 . S
C792 H778 0.929 . S
C792 C791 1.399 . S
C792 C793 1.385 . S
C793 H779 0.931 . S
C793 C792 1.385 . S
C793 C794 1.389 . S
C794 C793 1.389 . S
C794 C795 1.387 . S
C795 H780 0.930 . S
C795 C790 1.390 . S
C795 C794 1.387 . S
H796 C808 0.930 . S
H797 C810 0.930 . S
H798 C811 0.930 . S
H799 C815 0.959 . S
H800 C815 0.959 . S
H801 C815 0.961 . S
H802 C816 0.960 . S
H803 C816 0.961 . S
H804 C816 0.959 . S
H805 C819 0.929 . S
H806 C820 0.931 . S
H807 C822 0.930 . S
C808 H796 0.930 . S
C808 C809 1.399 1_455 S
C808 C813 1.399 . S
C809 C808 1.399 1_655 S
C809 C810 1.376 . S
C810 H797 0.930 . S
C810 C809 1.376 . S
C810 C811 1.388 1_655 S
C811 H798 0.930 . S
C811 C810 1.388 1_455 S
C811 C812 1.390 . S
C812 C811 1.390 . S
C812 C813 1.394 . S
C812 C818 1.465 . S
C813 C808 1.399 . S
C813 C812 1.394 . S
C813 C814 1.516 1_554 S
C814 C813 1.516 1_556 S
C814 C815 1.502 . S
C814 C816 1.561 1_455 S
C814 C817 1.526 . S
C815 H799 0.959 . S
C815 H800 0.959 . S
C815 H801 0.961 . S
C815 C814 1.502 . S
C816 H802 0.960 . S
C816 H803 0.961 . S
C816 H804 0.959 . S
C816 C814 1.561 1_655 S
C817 C814 1.526 . S
C817 C818 1.396 1_556 S
C817 C822 1.390 . S
C818 C812 1.465 . S
C818 C817 1.396 1_554 S
C818 C819 1.399 . S
C819 H805 0.929 . S
C819 C818 1.399 . S
C819 C820 1.385 . S
C820 H806 0.931 . S
C820 C819 1.385 . S
C820 C821 1.389 1_554 S
C821 C820 1.389 1_556 S
C821 C822 1.387 . S
C822 H807 0.930 . S
C822 C817 1.390 . S
C822 C821 1.387 . S
H823 C835 0.930 . S
H824 C837 0.930 . S
H825 C838 0.930 . S
H826 C842 0.959 1_545 S
H827 C842 0.959 . S
H828 C842 0.961 . S
H829 C843 0.960 . S
H830 C843 0.961 1_556 S
H831 C843 0.959 . S
H832 C846 0.929 . S
H833 C847 0.931 . S
H834 C849 0.930 . S
C835 H823 0.930 . S
C835 C836 1.399 . S
C835 C840 1.389 1_565 S
C836 C835 1.399 . S
C836 C837 1.376 1_565 S
C837 H824 0.930 . S
C837 C836 1.376 1_545 S
C837 C838 1.388 . S
C838 H825 0.930 . S
C838 C837 1.388 . S
C838 C839 1.390 . S
C839 C838 1.390 . S
C839 C840 1.412 . S
C839 C845 1.465 . S
C840 C835 1.389 1_545 S
C840 C839 1.412 . S
C840 C841 1.510 1_544 S
C841 C840 1.510 1_566 S
C841 C842 1.502 . S
C841 C843 1.561 1_556 S
C841 C844 1.526 1_565 S
C842 H826 0.959 1_565 S
C842 H827 0.959 . S
C842 H828 0.961 . S
C842 C841 1.502 . S
C843 H829 0.960 . S
C843 H830 0.961 1_554 S
C843 H831 0.959 . S
C843 C841 1.561 1_554 S
C844 C841 1.526 1_545 S
C844 C845 1.396 1_556 S
C844 C849 1.390 . S
C845 C839 1.465 . S
C845 C844 1.396 1_554 S
C845 C846 1.399 . S
C846 H832 0.929 . S
C846 C845 1.399 . S
C846 C847 1.385 . S
C847 H833 0.931 . S
C847 C846 1.385 . S
C847 C848 1.389 1_554 S
C848 C847 1.389 1_556 S
C848 C849 1.387 . S
C849 H834 0.930 . S
C849 C844 1.390 . S
C849 C848 1.387 . S
H850 C862 0.930 . S
H851 C864 0.930 . S
H852 C865 0.930 1_556 S
H853 C869 0.959 . S
H854 C869 0.959 . S
H855 C869 0.961 . S
H856 C870 0.960 . S
H857 C870 0.961 . S
H858 C870 0.959 . S
H859 C873 0.929 . S
H860 C874 0.931 . S
H861 C876 0.930 . S
C862 H850 0.930 . S
C862 C863 1.399 . S
C862 C867 1.399 . S
C863 C862 1.399 . S
C863 C864 1.376 . S
C864 H851 0.930 . S
C864 C863 1.376 . S
C864 C865 1.388 . S
C865 H852 0.930 1_554 S
C865 C864 1.388 . S
C865 C866 1.390 . S
C866 C865 1.390 . S
C866 C867 1.394 . S
C866 C872 1.465 . S
C867 C862 1.399 . S
C867 C866 1.394 . S
C867 C868 1.516 . S
C868 C867 1.516 . S
C868 C869 1.502 . S
C868 C870 1.561 . S
C868 C871 1.526 . S
C869 H853 0.959 . S
C869 H854 0.959 . S
C869 H855 0.961 . S
C869 C868 1.502 . S
C870 H856 0.960 . S
C870 H857 0.961 . S
C870 H858 0.959 . S
C870 C868 1.561 . S
C871 C868 1.526 . S
C871 C872 1.396 . S
C871 C876 1.390 . S
C872 C866 1.465 . S
C872 C871 1.396 . S
C872 C873 1.399 1_554 S
C873 H859 0.929 . S
C873 C872 1.399 1_556 S
C873 C874 1.385 . S
C874 H860 0.931 . S
C874 C873 1.385 . S
C874 C875 1.389 . S
C875 C874 1.389 . S
C875 C876 1.387 1_556 S
C876 H861 0.930 . S
C876 C871 1.390 . S
C876 C875 1.387 1_554 S
H877 C889 0.930 . S
H878 C891 0.930 . S
H879 C892 0.930 1_556 S
H880 C896 0.959 . S
H881 C896 0.959 . S
H882 C896 0.961 . S
H883 C897 0.960 . S
H884 C897 0.961 . S
H885 C897 0.959 . S
H886 C900 0.929 . S
H887 C901 0.931 . S
H888 C903 0.930 . S
C889 H877 0.930 . S
C889 C890 1.399 . S
C889 C894 1.399 . S
C890 C889 1.399 . S
C890 C891 1.376 . S
C891 H878 0.930 . S
C891 C890 1.376 . S
C891 C892 1.388 . S
C892 H879 0.930 1_554 S
C892 C891 1.388 . S
C892 C893 1.390 . S
C893 C892 1.390 . S
C893 C894 1.394 . S
C893 C899 1.465 . S
C894 C889 1.399 . S
C894 C893 1.394 . S
C894 C895 1.516 . S
C895 C894 1.516 . S
C895 C896 1.502 . S
C895 C897 1.561 . S
C895 C898 1.526 . S
C896 H880 0.959 . S
C896 H881 0.959 . S
C896 H882 0.961 . S
C896 C895 1.502 . S
C897 H883 0.960 . S
C897 H884 0.961 . S
C897 H885 0.959 . S
C897 C895 1.561 . S
C898 C895 1.526 . S
C898 C899 1.396 . S
C898 C903 1.390 . S
C899 C893 1.465 . S
C899 C898 1.396 . S
C899 C900 1.399 1_554 S
C900 H886 0.929 . S
C900 C899 1.399 1_556 S
C900 C901 1.385 . S
C901 H887 0.931 . S
C901 C900 1.385 . S
C901 C902 1.389 . S
C902 C901 1.389 . S
C902 C903 1.387 1_556 S
C903 H888 0.930 . S
C903 C898 1.390 . S
C903 C902 1.387 1_554 S
H904 C916 0.930 . S
H905 C918 0.930 . S
H906 C919 0.930 . S
H907 C923 0.959 . S
H908 C923 0.959 . S
H909 C923 0.961 . S
H910 C924 0.960 . S
H911 C924 0.972 . S
H912 C924 0.959 . S
H913 C927 0.929 . S
H914 C928 0.931 . S
H915 C930 0.930 . S
C916 H904 0.930 . S
C916 C917 1.407 . S
C916 C921 1.399 . S
C917 C916 1.407 . S
C917 C918 1.367 1_455 S
C918 H905 0.930 . S
C918 C917 1.367 1_655 S
C918 C919 1.388 . S
C919 H906 0.930 . S
C919 C918 1.388 . S
C919 C920 1.390 . S
C920 C919 1.390 . S
C920 C921 1.394 1_655 S
C920 C926 1.466 . S
C921 C916 1.399 . S
C921 C920 1.394 1_455 S
C921 C922 1.516 . S
C922 C921 1.516 . S
C922 C923 1.502 . S
C922 C924 1.561 1_455 S
C922 C925 1.526 . S
C923 H907 0.959 . S
C923 H908 0.959 . S
C923 H909 0.961 . S
C923 C922 1.502 . S
C924 H910 0.960 . S
C924 H911 0.972 . S
C924 H912 0.959 . S
C924 C922 1.561 1_655 S
C925 C922 1.526 . S
C925 C926 1.392 1_455 S
C925 C930 1.390 . S
C926 C920 1.466 . S
C926 C925 1.392 1_655 S
C926 C927 1.402 . S
C927 H913 0.929 . S
C927 C926 1.402 . S
C927 C928 1.385 . S
C928 H914 0.931 . S
C928 C927 1.385 . S
C928 C929 1.389 1_655 S
C929 C928 1.389 1_455 S
C929 C930 1.387 . S
C930 H915 0.930 . S
C930 C925 1.390 . S
C930 C929 1.387 . S
H931 C943 0.930 . S
H932 C945 0.930 . S
H933 C946 0.930 . S
H934 C950 0.959 . S
H935 C950 0.959 . S
H936 C950 0.961 . S
H937 C951 0.960 . S
H938 C951 0.961 . S
H939 C951 0.959 . S
H940 C954 0.929 . S
H941 C955 0.931 . S
H942 C957 0.930 . S
C943 H931 0.930 . S
C943 C944 1.399 . S
C943 C948 1.399 . S
C944 C943 1.399 . S
C944 C945 1.376 1_545 S
C945 H932 0.930 . S
C945 C944 1.376 1_565 S
C945 C946 1.388 . S
C946 H933 0.930 . S
C946 C945 1.388 . S
C946 C947 1.372 1_565 S
C947 C946 1.372 1_545 S
C947 C948 1.414 . S
C947 C953 1.467 . S
C948 C943 1.399 . S
C948 C947 1.414 . S
C948 C949 1.516 . S
C949 C948 1.516 . S
C949 C950 1.502 . S
C949 C951 1.561 . S
C949 C952 1.526 . S
C950 H934 0.959 . S
C950 H935 0.959 . S
C950 H936 0.961 . S
C950 C949 1.502 . S
C951 H937 0.960 . S
C951 H938 0.961 . S
C951 H939 0.959 . S
C951 C949 1.561 . S
C952 C949 1.526 . S
C952 C953 1.396 . S
C952 C957 1.390 . S
C953 C947 1.467 . S
C953 C952 1.396 . S
C953 C954 1.399 1_545 S
C954 H940 0.929 . S
C954 C953 1.399 1_565 S
C954 C955 1.385 . S
C955 H941 0.931 . S
C955 C954 1.385 . S
C955 C956 1.389 1_565 S
C956 C955 1.389 1_545 S
C956 C957 1.387 . S
C957 H942 0.930 . S
C957 C952 1.390 . S
C957 C956 1.387 . S
H958 C970 0.930 . S
H959 C972 0.930 . S
H960 C973 0.930 . S
H961 C977 0.959 . S
H962 C977 0.959 . S
H963 C977 0.961 . S
H964 C978 0.960 . S
H965 C978 0.961 . S
H966 C978 0.959 . S
H967 C981 0.929 . S
H968 C982 0.931 . S
H969 C984 0.930 . S
C970 H958 0.930 . S
C970 C971 1.399 . S
C970 C975 1.399 . S
C971 C970 1.399 . S
C971 C972 1.376 . S
C972 H959 0.930 . S
C972 C971 1.376 . S
C972 C973 1.388 . S
C973 H960 0.930 . S
C973 C972 1.388 . S
C973 C974 1.390 . S
C974 C973 1.390 . S
C974 C975 1.394 . S
C974 C980 1.465 . S
C975 C970 1.399 . S
C975 C974 1.394 . S
C975 C976 1.516 . S
C976 C975 1.516 . S
C976 C977 1.502 . S
C976 C978 1.561 . S
C976 C979 1.526 . S
C977 H961 0.959 . S
C977 H962 0.959 . S
C977 H963 0.961 . S
C977 C976 1.502 . S
C978 H964 0.960 . S
C978 H965 0.961 . S
C978 H966 0.959 . S
C978 C976 1.561 . S
C979 C976 1.526 . S
C979 C980 1.396 . S
C979 C984 1.390 . S
C980 C974 1.465 . S
C980 C979 1.396 . S
C980 C981 1.399 . S
C981 H967 0.929 . S
C981 C980 1.399 . S
C981 C982 1.385 . S
C982 H968 0.931 . S
C982 C981 1.385 . S
C982 C983 1.389 . S
C983 C982 1.389 . S
C983 C984 1.387 . S
C984 H969 0.930 . S
C984 C979 1.390 . S
C984 C983 1.387 . S
H985 C997 0.930 . S
H986 C999 0.930 . S
H987 C1000 0.930 . S
H988 C1004 0.959 . S
H989 C1004 0.959 . S
H990 C1004 0.961 . S
H991 C1005 0.960 . S
H992 C1005 0.961 . S
H993 C1005 0.959 . S
H994 C1008 0.929 . S
H995 C1009 0.931 . S
H996 C1011 0.930 . S
C997 H985 0.930 . S
C997 C998 1.399 . S
C997 C1002 1.399 . S
C998 C997 1.399 . S
C998 C999 1.376 . S
C999 H986 0.930 . S
C999 C998 1.376 . S
C999 C1000 1.388 . S
C1000 H987 0.930 . S
C1000 C999 1.388 . S
C1000 C1001 1.390 . S
C1001 C1000 1.390 . S
C1001 C1002 1.394 . S
C1001 C1007 1.465 . S
C1002 C997 1.399 . S
C1002 C1001 1.394 . S
C1002 C1003 1.516 . S
C1003 C1002 1.516 . S
C1003 C1004 1.502 . S
C1003 C1005 1.561 . S
C1003 C1006 1.526 . S
C1004 H988 0.959 . S
C1004 H989 0.959 . S
C1004 H990 0.961 . S
C1004 C1003 1.502 . S
C1005 H991 0.960 . S
C1005 H992 0.961 . S
C1005 H993 0.959 . S
C1005 C1003 1.561 . S
C1006 C1003 1.526 . S
C1006 C1007 1.396 . S
C1006 C1011 1.390 . S
C1007 C1001 1.465 . S
C1007 C1006 1.396 . S
C1007 C1008 1.399 . S
C1008 H994 0.929 . S
C1008 C1007 1.399 . S
C1008 C1009 1.385 . S
C1009 H995 0.931 . S
C1009 C1008 1.385 . S
C1009 C1010 1.389 . S
C1010 C1009 1.389 . S
C1010 C1011 1.387 . S
C1011 H996 0.930 . S
C1011 C1006 1.390 . S
C1011 C1010 1.387 . S
H1012 C1024 0.930 . S
H1013 C1026 0.930 . S
H1014 C1027 0.930 . S
H1015 C1031 0.959 . S
H1016 C1031 0.959 . S
H1017 C1031 0.961 . S
H1018 C1032 0.960 . S
H1019 C1032 0.961 . S
H1020 C1032 0.959 . S
H1021 C1035 0.929 . S
H1022 C1036 0.931 . S
H1023 C1038 0.930 . S
C1024 H1012 0.930 . S
C1024 C1025 1.407 . S
C1024 C1029 1.399 . S
C1025 C1024 1.407 . S
C1025 C1026 1.367 1_655 S
C1026 H1013 0.930 . S
C1026 C1025 1.367 1_455 S
C1026 C1027 1.388 . S
C1027 H1014 0.930 . S
C1027 C1026 1.388 . S
C1027 C1028 1.390 . S
C1028 C1027 1.390 . S
C1028 C1029 1.394 1_455 S
C1028 C1034 1.465 . S
C1029 C1024 1.399 . S
C1029 C1028 1.394 1_655 S
C1029 C1030 1.516 . S
C1030 C1029 1.516 . S
C1030 C1031 1.502 . S
C1030 C1032 1.561 1_655 S
C1030 C1033 1.526 . S
C1031 H1015 0.959 . S
C1031 H1016 0.959 . S
C1031 H1017 0.961 . S
C1031 C1030 1.502 . S
C1032 H1018 0.960 . S
C1032 H1019 0.961 . S
C1032 H1020 0.959 . S
C1032 C1030 1.561 1_455 S
C1033 C1030 1.526 . S
C1033 C1034 1.395 1_655 S
C1033 C1038 1.390 . S
C1034 C1028 1.465 . S
C1034 C1033 1.395 1_455 S
C1034 C1035 1.399 . S
C1035 H1021 0.929 . S
C1035 C1034 1.399 . S
C1035 C1036 1.385 . S
C1036 H1022 0.931 . S
C1036 C1035 1.385 . S
C1036 C1037 1.389 1_455 S
C1037 C1036 1.389 1_655 S
C1037 C1038 1.387 . S
C1038 H1023 0.930 . S
C1038 C1033 1.390 . S
C1038 C1037 1.387 . S
H1039 C1051 0.930 . S
H1040 C1053 0.930 . S
H1041 C1054 0.930 . S
H1042 C1058 0.959 . S
H1043 C1058 0.959 . S
H1044 C1058 0.961 . S
H1045 C1059 0.960 . S
H1046 C1059 0.961 . S
H1047 C1059 0.959 . S
H1048 C1062 0.929 . S
H1049 C1063 0.931 . S
H1050 C1065 0.930 . S
C1051 H1039 0.930 . S
C1051 C1052 1.399 1_545 S
C1051 C1056 1.399 . S
C1052 C1051 1.399 1_565 S
C1052 C1053 1.376 . S
C1053 H1040 0.930 . S
C1053 C1052 1.376 . S
C1053 C1054 1.388 . S
C1054 H1041 0.930 . S
C1054 C1053 1.388 . S
C1054 C1055 1.390 . S
C1055 C1054 1.390 . S
C1055 C1056 1.394 1_565 S
C1055 C1061 1.465 . S
C1056 C1051 1.399 . S
C1056 C1055 1.394 1_545 S
C1056 C1057 1.516 . S
C1057 C1056 1.516 . S
C1057 C1058 1.502 . S
C1057 C1059 1.561 . S
C1057 C1060 1.526 . S
C1058 H1042 0.959 . S
C1058 H1043 0.959 . S
C1058 H1044 0.961 . S
C1058 C1057 1.502 . S
C1059 H1045 0.960 . S
C1059 H1046 0.961 . S
C1059 H1047 0.959 . S
C1059 C1057 1.561 . S
C1060 C1057 1.526 . S
C1060 C1061 1.396 1_545 S
C1060 C1065 1.390 . S
C1061 C1055 1.465 . S
C1061 C1060 1.396 1_565 S
C1061 C1062 1.399 . S
C1062 H1048 0.929 . S
C1062 C1061 1.399 . S
C1062 C1063 1.385 . S
C1063 H1049 0.931 . S
C1063 C1062 1.385 . S
C1063 C1064 1.389 . S
C1064 C1063 1.389 . S
C1064 C1065 1.387 1_565 S
C1065 H1050 0.930 . S
C1065 C1060 1.390 . S
C1065 C1064 1.387 1_545 S
H1066 C1078 0.930 . S
H1067 C1080 0.930 . S
H1068 C1081 0.930 . S
H1069 C1085 0.959 . S
H1070 C1085 0.959 . S
H1071 C1085 0.961 . S
H1072 C1086 0.960 . S
H1073 C1086 0.961 . S
H1074 C1086 0.959 . S
H1075 C1089 0.929 . S
H1076 C1090 0.931 . S
H1077 C1092 0.930 . S
C1078 H1066 0.930 . S
C1078 C1079 1.399 . S
C1078 C1083 1.399 . S
C1079 C1078 1.399 . S
C1079 C1080 1.376 . S
C1080 H1067 0.930 . S
C1080 C1079 1.376 . S
C1080 C1081 1.388 . S
C1081 H1068 0.930 . S
C1081 C1080 1.388 . S
C1081 C1082 1.390 . S
C1082 C1081 1.390 . S
C1082 C1083 1.394 . S
C1082 C1088 1.465 . S
C1083 C1078 1.399 . S
C1083 C1082 1.394 . S
C1083 C1084 1.516 . S
C1084 C1083 1.516 . S
C1084 C1085 1.502 . S
C1084 C1086 1.561 . S
C1084 C1087 1.526 . S
C1085 H1069 0.959 . S
C1085 H1070 0.959 . S
C1085 H1071 0.961 . S
C1085 C1084 1.502 . S
C1086 H1072 0.960 . S
C1086 H1073 0.961 . S
C1086 H1074 0.959 . S
C1086 C1084 1.561 . S
C1087 C1084 1.526 . S
C1087 C1088 1.396 . S
C1087 C1092 1.390 . S
C1088 C1082 1.465 . S
C1088 C1087 1.396 . S
C1088 C1089 1.399 . S
C1089 H1075 0.929 . S
C1089 C1088 1.399 . S
C1089 C1090 1.385 . S
C1090 H1076 0.931 . S
C1090 C1089 1.385 . S
C1090 C1091 1.389 . S
C1091 C1090 1.389 . S
C1091 C1092 1.387 . S
C1092 H1077 0.930 . S
C1092 C1087 1.390 . S
C1092 C1091 1.387 . S
H1093 C1105 0.930 . S
H1094 C1107 0.930 . S
H1095 C1108 0.930 . S
H1096 C1112 0.959 . S
H1097 C1112 0.959 . S
H1098 C1112 0.961 . S
H1099 C1113 0.960 . S
H1100 C1113 0.961 . S
H1101 C1113 0.959 . S
H1102 C1116 0.929 . S
H1103 C1117 0.931 . S
H1104 C1119 0.930 . S
C1105 H1093 0.930 . S
C1105 C1106 1.399 . S
C1105 C1110 1.399 . S
C1106 C1105 1.399 . S
C1106 C1107 1.376 . S
C1107 H1094 0.930 . S
C1107 C1106 1.376 . S
C1107 C1108 1.388 . S
C1108 H1095 0.930 . S
C1108 C1107 1.388 . S
C1108 C1109 1.390 . S
C1109 C1108 1.390 . S
C1109 C1110 1.394 . S
C1109 C1115 1.465 . S
C1110 C1105 1.399 . S
C1110 C1109 1.394 . S
C1110 C1111 1.516 . S
C1111 C1110 1.516 . S
C1111 C1112 1.502 . S
C1111 C1113 1.561 . S
C1111 C1114 1.526 . S
C1112 H1096 0.959 . S
C1112 H1097 0.959 . S
C1112 H1098 0.961 . S
C1112 C1111 1.502 . S
C1113 H1099 0.960 . S
C1113 H1100 0.961 . S
C1113 H1101 0.959 . S
C1113 C1111 1.561 . S
C1114 C1111 1.526 . S
C1114 C1115 1.396 . S
C1114 C1119 1.390 . S
C1115 C1109 1.465 . S
C1115 C1114 1.396 . S
C1115 C1116 1.399 . S
C1116 H1102 0.929 . S
C1116 C1115 1.399 . S
C1116 C1117 1.385 . S
C1117 H1103 0.931 . S
C1117 C1116 1.385 . S
C1117 C1118 1.389 . S
C1118 C1117 1.389 . S
C1118 C1119 1.387 . S
C1119 H1104 0.930 . S
C1119 C1114 1.390 . S
C1119 C1118 1.387 . S
C485 C255 2.188 . S
C497 C321 2.346 . S
C524 C361 2.386 . S
C512 C294 2.177 . S
C551 C401 2.373 . S
C539 C177 2.184 . S
C578 C441 2.366 1_455 S
C566 C216 2.141 . S
C605 C330 2.361 1_565 S
C593 C99 2.177 . S
C620 C138 2.127 . S
C632 C370 2.384 . S
C647 C21 2.204 . S
C659 C410 2.385 . S
C674 C60 2.138 . S
C686 C450 2.370 1_655 S
C713 C327 0.492 . S
C701 C196 0.282 1_455 S
C740 C367 0.516 . S
C728 C235 0.442 1_545 S
C767 C407 0.453 . S
C755 C289 0.292 . S
C782 C157 0.502 . S
C794 C447 0.400 . S
C809 C40 0.384 . S
C821 C318 0.409 . S
C848 C358 0.505 . S
C836 C79 0.309 . S
C875 C398 0.489 . S
C863 C133 0.392 . S
C890 C1 0.397 . S
C902 C438 0.486 . S
C917 C211 2.874 . S
C929 C331 3.225 . S
C944 C250 2.768 . S
C956 C371 3.197 . S
C983 C411 3.178 . S
C971 C274 2.831 . S
C1010 C451 3.207 . S
C998 C172 2.842 . S
C1025 C55 2.823 1_655 S
C1037 C322 3.246 . S
C1064 C362 3.209 . S
C1052 C94 2.802 1_565 S
C1091 C402 3.191 . S
C1079 C118 2.827 . S
C1106 C16 2.857 . S
C1118 C442 3.212 . S
