# Generated by pormake.
# Topology ssc, (4,4)-cn, num edge types: 1
# Building blocks:
#     Node 0, Type 0, BuildingBlock: CEKHIL_clean_sbu_0, # of connection points: 4
#     Node 1, Type 0, BuildingBlock: CEKHIL_clean_sbu_0, # of connection points: 4
#     Node 2, Type 0, BuildingBlock: CEKHIL_clean_sbu_0, # of connection points: 4
#     Node 3, Type 0, BuildingBlock: CEKHIL_clean_sbu_0, # of connection points: 4
#     Node 4, Type 0, BuildingBlock: CEKHIL_clean_sbu_0, # of connection points: 4
#     Node 5, Type 0, BuildingBlock: CEKHIL_clean_sbu_0, # of connection points: 4
#     Node 6, Type 0, BuildingBlock: CEKHIL_clean_sbu_0, # of connection points: 4
#     Node 7, Type 0, BuildingBlock: CEKHIL_clean_sbu_0, # of connection points: 4
#     Node 8, Type 0, BuildingBlock: CEKHIL_clean_sbu_0, # of connection points: 4
#     Node 9, Type 0, BuildingBlock: CEKHIL_clean_sbu_0, # of connection points: 4
#     Node 10, Type 0, BuildingBlock: CEKHIL_clean_sbu_0, # of connection points: 4
#     Node 11, Type 0, BuildingBlock: CEKHIL_clean_sbu_0, # of connection points: 4
#     Node 12, Type 1, BuildingBlock: KUFVIS_clean_linker_0, # of connection points: 4
#     Node 13, Type 1, BuildingBlock: KUFVIS_clean_linker_0, # of connection points: 4
#     Node 14, Type 1, BuildingBlock: KUFVIS_clean_linker_0, # of connection points: 4
#     Node 15, Type 1, BuildingBlock: KUFVIS_clean_linker_0, # of connection points: 4
#     Node 16, Type 1, BuildingBlock: KUFVIS_clean_linker_0, # of connection points: 4
#     Node 17, Type 1, BuildingBlock: KUFVIS_clean_linker_0, # of connection points: 4
#     Node 18, Type 1, BuildingBlock: KUFVIS_clean_linker_0, # of connection points: 4
#     Node 19, Type 1, BuildingBlock: KUFVIS_clean_linker_0, # of connection points: 4
#     Node 20, Type 1, BuildingBlock: KUFVIS_clean_linker_0, # of connection points: 4
#     Node 21, Type 1, BuildingBlock: KUFVIS_clean_linker_0, # of connection points: 4
#     Node 22, Type 1, BuildingBlock: KUFVIS_clean_linker_0, # of connection points: 4
#     Node 23, Type 1, BuildingBlock: KUFVIS_clean_linker_0, # of connection points: 4
#     Edge 24, Type (0, 1), BuildingBlock: XUDNAN_clean_linker_2, # of connection points: 2
#     Edge 25, Type (0, 1), BuildingBlock: XUDNAN_clean_linker_2, # of connection points: 2
#     Edge 26, Type (0, 1), BuildingBlock: XUDNAN_clean_linker_2, # of connection points: 2
#     Edge 27, Type (0, 1), BuildingBlock: XUDNAN_clean_linker_2, # of connection points: 2
#     Edge 28, Type (0, 1), BuildingBlock: XUDNAN_clean_linker_2, # of connection points: 2
#     Edge 29, Type (0, 1), BuildingBlock: XUDNAN_clean_linker_2, # of connection points: 2
#     Edge 30, Type (0, 1), BuildingBlock: XUDNAN_clean_linker_2, # of connection points: 2
#     Edge 31, Type (0, 1), BuildingBlock: XUDNAN_clean_linker_2, # of connection points: 2
#     Edge 32, Type (0, 1), BuildingBlock: XUDNAN_clean_linker_2, # of connection points: 2
#     Edge 33, Type (0, 1), BuildingBlock: XUDNAN_clean_linker_2, # of connection points: 2
#     Edge 34, Type (0, 1), BuildingBlock: XUDNAN_clean_linker_2, # of connection points: 2
#     Edge 35, Type (0, 1), BuildingBlock: XUDNAN_clean_linker_2, # of connection points: 2
#     Edge 36, Type (0, 1), BuildingBlock: XUDNAN_clean_linker_2, # of connection points: 2
#     Edge 37, Type (0, 1), BuildingBlock: XUDNAN_clean_linker_2, # of connection points: 2
#     Edge 38, Type (0, 1), BuildingBlock: XUDNAN_clean_linker_2, # of connection points: 2
#     Edge 39, Type (0, 1), BuildingBlock: XUDNAN_clean_linker_2, # of connection points: 2
#     Edge 40, Type (0, 1), BuildingBlock: XUDNAN_clean_linker_2, # of connection points: 2
#     Edge 41, Type (0, 1), BuildingBlock: XUDNAN_clean_linker_2, # of connection points: 2
#     Edge 42, Type (0, 1), BuildingBlock: XUDNAN_clean_linker_2, # of connection points: 2
#     Edge 43, Type (0, 1), BuildingBlock: XUDNAN_clean_linker_2, # of connection points: 2
#     Edge 44, Type (0, 1), BuildingBlock: XUDNAN_clean_linker_2, # of connection points: 2
#     Edge 45, Type (0, 1), BuildingBlock: XUDNAN_clean_linker_2, # of connection points: 2
#     Edge 46, Type (0, 1), BuildingBlock: XUDNAN_clean_linker_2, # of connection points: 2
#     Edge 47, Type (0, 1), BuildingBlock: XUDNAN_clean_linker_2, # of connection points: 2
#     Edge 48, Type (0, 1), BuildingBlock: XUDNAN_clean_linker_2, # of connection points: 2
#     Edge 49, Type (0, 1), BuildingBlock: XUDNAN_clean_linker_2, # of connection points: 2
#     Edge 50, Type (0, 1), BuildingBlock: XUDNAN_clean_linker_2, # of connection points: 2
#     Edge 51, Type (0, 1), BuildingBlock: XUDNAN_clean_linker_2, # of connection points: 2
#     Edge 52, Type (0, 1), BuildingBlock: XUDNAN_clean_linker_2, # of connection points: 2
#     Edge 53, Type (0, 1), BuildingBlock: XUDNAN_clean_linker_2, # of connection points: 2
#     Edge 54, Type (0, 1), BuildingBlock: XUDNAN_clean_linker_2, # of connection points: 2
#     Edge 55, Type (0, 1), BuildingBlock: XUDNAN_clean_linker_2, # of connection points: 2
#     Edge 56, Type (0, 1), BuildingBlock: XUDNAN_clean_linker_2, # of connection points: 2
#     Edge 57, Type (0, 1), BuildingBlock: XUDNAN_clean_linker_2, # of connection points: 2
#     Edge 58, Type (0, 1), BuildingBlock: XUDNAN_clean_linker_2, # of connection points: 2
#     Edge 59, Type (0, 1), BuildingBlock: XUDNAN_clean_linker_2, # of connection points: 2
#     Edge 60, Type (0, 1), BuildingBlock: XUDNAN_clean_linker_2, # of connection points: 2
#     Edge 61, Type (0, 1), BuildingBlock: XUDNAN_clean_linker_2, # of connection points: 2
#     Edge 62, Type (0, 1), BuildingBlock: XUDNAN_clean_linker_2, # of connection points: 2
#     Edge 63, Type (0, 1), BuildingBlock: XUDNAN_clean_linker_2, # of connection points: 2
#     Edge 64, Type (0, 1), BuildingBlock: XUDNAN_clean_linker_2, # of connection points: 2
#     Edge 65, Type (0, 1), BuildingBlock: XUDNAN_clean_linker_2, # of connection points: 2
#     Edge 66, Type (0, 1), BuildingBlock: XUDNAN_clean_linker_2, # of connection points: 2
#     Edge 67, Type (0, 1), BuildingBlock: XUDNAN_clean_linker_2, # of connection points: 2
#     Edge 68, Type (0, 1), BuildingBlock: XUDNAN_clean_linker_2, # of connection points: 2
#     Edge 69, Type (0, 1), BuildingBlock: XUDNAN_clean_linker_2, # of connection points: 2
#     Edge 70, Type (0, 1), BuildingBlock: XUDNAN_clean_linker_2, # of connection points: 2
#     Edge 71, Type (0, 1), BuildingBlock: XUDNAN_clean_linker_2, # of connection points: 2
# Relax obj value: 0.121
# Max RMSD: 0.311
# Mean RMSD: 0.273
data_MOF--net-ssc--node1-CEKHIL_clean_sbu_0--node2-KUFVIS_clean_linker_0--edge1-XUDNAN_clean_linker_2
_symmetry_space_group_name_H-M    P1
_symmetry_Int_Tables_number       1
_symmetry_cell_setting            triclinic
loop_
_symmetry_equiv_pos_as_xyz
'x, y, z'
_cell_length_a     30.848688
_cell_length_b     30.910367
_cell_length_c     30.752837
_cell_angle_alpha  91.17801
_cell_angle_beta   90.078561
_cell_angle_gamma 92.882847
loop_
_atom_site_label
_atom_site_type_symbol
_atom_site_fract_x
_atom_site_fract_y
_atom_site_fract_z
_atom_type_partial_charge
Co0 Co 0.02362 0.22864 0.12052 0.0
O1 O 0.05286 0.24367 0.06693 0.0
O2 O 0.98566 0.25993 0.08375 0.0
C3 C 0.07756 0.24908 0.16779 0.0
O4 O 0.98271 0.22061 0.17182 0.0
Co5 Co 0.05552 0.15542 0.17786 0.0
O6 O 0.00606 0.16956 0.21622 0.0
C7 C 0.01855 0.13426 0.09235 0.0
C8 C 0.01723 0.2614 0.05587 0.0
C9 C 0.97926 0.19785 0.20626 0.0
O10 O 0.00225 0.17175 0.09265 0.0
O11 O 0.04561 0.12291 0.12098 0.0
O12 O 0.05277 0.27755 0.15159 0.0
O13 O 0.07229 0.21036 0.15113 0.0
Co14 Co 0.06814 0.75937 0.37709 0.0
O15 O 0.1124 0.73877 0.4154 0.0
O16 O 0.04426 0.71349 0.41397 0.0
C17 C 0.10959 0.75936 0.31605 0.0
O18 O 0.01341 0.76854 0.34083 0.0
Co19 Co 0.07918 0.84582 0.32628 0.0
O20 O 0.0256 0.82411 0.29561 0.0
C21 C 0.05931 0.8484 0.42024 0.0
C22 C 0.08318 0.71072 0.42946 0.0
C23 C 0.00206 0.79212 0.30899 0.0
O24 O 0.05247 0.8067 0.42059 0.0
O25 O 0.07421 0.86867 0.38715 0.0
O26 O 0.09091 0.72349 0.32959 0.0
O27 O 0.10534 0.79272 0.34108 0.0
Co28 Co 0.53643 0.80975 0.65235 0.0
O29 O 0.56954 0.85807 0.62772 0.0
O30 O 0.49791 0.85336 0.63463 0.0
C31 C 0.57888 0.79989 0.7102 0.0
O32 O 0.49029 0.76804 0.67753 0.0
Co33 Co 0.57154 0.71822 0.66021 0.0
O34 O 0.51736 0.70407 0.69295 0.0
C35 C 0.54803 0.7494 0.57431 0.0
C36 C 0.53233 0.87489 0.62109 0.0
C37 C 0.48653 0.73 0.69372 0.0
O38 O 0.53084 0.78194 0.59286 0.0
O39 O 0.56862 0.72141 0.5951 0.0
O40 O 0.55104 0.83017 0.71115 0.0
O41 O 0.58327 0.77961 0.6735 0.0
Co42 Co 0.50407 0.28462 0.91515 0.0
O43 O 0.54047 0.25027 0.95029 0.0
O44 O 0.46954 0.23802 0.94072 0.0
C45 C 0.54858 0.29164 0.85781 0.0
O46 O 0.45586 0.3102 0.87984 0.0
Co47 Co 0.53062 0.37866 0.89035 0.0
O48 O 0.47809 0.37464 0.85299 0.0
C49 C 0.50866 0.35911 0.98064 0.0
C50 C 0.50514 0.22775 0.95969 0.0
C51 C 0.45018 0.34303 0.85576 0.0
O52 O 0.49295 0.3217 0.96805 0.0
O53 O 0.52797 0.38596 0.95518 0.0
O54 O 0.52381 0.25659 0.86178 0.0
O55 O 0.54869 0.31909 0.88998 0.0
Co56 Co 0.09107 0.98458 0.27181 0.0
O57 O 0.11329 0.93887 0.23537 0.0
O58 O 0.12923 0.95008 0.30505 0.0
C59 C 0.02074 0.97898 0.25267 0.0
O60 O 0.0745 0.0259 0.32078 0.0
Co61 Co 0.05188 0.06629 0.23255 0.0
O62 O 0.0396 0.08195 0.29417 0.0
C63 C 0.14521 0.05532 0.22657 0.0
C64 C 0.13516 0.92801 0.26935 0.0
C65 C 0.05387 0.06077 0.32585 0.0
O66 O 0.14151 0.02401 0.25356 0.0
O67 O 0.11279 0.0741 0.21102 0.0
O68 O 0.03561 0.95246 0.28083 0.0
O69 O 0.04941 0.00345 0.23339 0.0
Co70 Co 0.21335 0.87619 0.61418 0.0
O71 O 0.18555 0.92176 0.6453 0.0
O72 O 0.17387 0.90291 0.57602 0.0
C73 C 0.20549 0.82623 0.66604 0.0
O74 O 0.23166 0.83024 0.57105 0.0
Co75 Co 0.29792 0.83644 0.64475 0.0
O76 O 0.28964 0.79607 0.59391 0.0
C77 C 0.30259 0.92294 0.60691 0.0
C78 C 0.16466 0.92729 0.60922 0.0
C79 C 0.25916 0.80068 0.56666 0.0
O80 O 0.26227 0.91784 0.59595 0.0
O81 O 0.32184 0.89584 0.63009 0.0
O82 O 0.17332 0.83333 0.64028 0.0
O83 O 0.23979 0.85157 0.662 0.0
Co84 Co 0.39908 0.08414 0.72716 0.0
O85 O 0.3563 0.11536 0.69601 0.0
O86 O 0.36709 0.11906 0.7672 0.0
C87 C 0.45547 0.09632 0.68242 0.0
O88 O 0.44053 0.06004 0.77145 0.0
Co89 Co 0.4417 0.00299 0.68868 0.0
O90 O 0.48066 0.00926 0.74006 0.0
C91 C 0.35151 0.99539 0.71927 0.0
C92 C 0.34488 0.1306 0.73382 0.0
C93 C 0.4719 0.03415 0.77201 0.0
O94 O 0.35492 0.03451 0.73435 0.0
O95 O 0.38172 0.97713 0.69852 0.0
O96 O 0.44551 0.12576 0.71108 0.0
O97 O 0.42881 0.06294 0.67869 0.0
Co98 Co 0.34876 0.13695 0.06208 0.0
O99 O 0.38414 0.10492 0.10069 0.0
O100 O 0.38674 0.10082 0.02885 0.0
C101 C 0.3554 0.20157 0.09637 0.0
O102 O 0.31948 0.16665 0.01166 0.0
Co103 Co 0.26363 0.17596 0.09469 0.0
O104 O 0.27131 0.21081 0.04116 0.0
C105 C 0.2674 0.08186 0.0836 0.0
C106 C 0.40005 0.087 0.06604 0.0
C107 C 0.29451 0.19878 0.00922 0.0
O108 O 0.30331 0.08788 0.06275 0.0
O109 O 0.24784 0.11273 0.10213 0.0
O110 O 0.38577 0.18981 0.06995 0.0
O111 O 0.3254 0.17245 0.10456 0.0
Co112 Co 0.78703 0.38994 0.06262 0.0
O113 O 0.7646 0.42894 0.10628 0.0
O114 O 0.74428 0.42535 0.03716 0.0
C115 C 0.78391 0.33099 0.10461 0.0
O116 O 0.79858 0.35399 0.00798 0.0
Co117 Co 0.87002 0.3377 0.07186 0.0
O118 O 0.84434 0.30208 0.02291 0.0
C119 C 0.87694 0.43121 0.05057 0.0
C120 C 0.74001 0.44268 0.0756 0.0
C121 C 0.81692 0.31876 0.99815 0.0
O122 O 0.83541 0.43337 0.04789 0.0
O123 O 0.896 0.39722 0.06158 0.0
O124 O 0.74927 0.34231 0.08442 0.0
O125 O 0.81809 0.35602 0.10043 0.0
Co126 Co 0.85402 0.51692 0.27776 0.0
O127 O 0.81 0.55013 0.25082 0.0
O128 O 0.82553 0.55066 0.32134 0.0
C129 C 0.90494 0.53078 0.22697 0.0
O130 O 0.89689 0.49176 0.31929 0.0
Co131 Co 0.90275 0.44016 0.23799 0.0
O132 O 0.94844 0.46085 0.28037 0.0
C133 C 0.81072 0.42852 0.26546 0.0
C134 C 0.80272 0.56505 0.28989 0.0
C135 C 0.93575 0.47959 0.31493 0.0
O136 O 0.8112 0.46624 0.28423 0.0
O137 O 0.84259 0.41367 0.24425 0.0
O138 O 0.89911 0.55922 0.25809 0.0
O139 O 0.87994 0.49636 0.22742 0.0
Co140 Co 0.73157 0.60722 0.53707 0.0
O141 O 0.75797 0.55834 0.5633 0.0
O142 O 0.77092 0.58126 0.49656 0.0
C143 C 0.74065 0.65524 0.59329 0.0
O144 O 0.71442 0.65654 0.49852 0.0
Co145 Co 0.64809 0.6476 0.57279 0.0
O146 O 0.66677 0.69613 0.53493 0.0
C147 C 0.64081 0.56408 0.52534 0.0
C148 C 0.77892 0.55423 0.52688 0.0
C149 C 0.69314 0.691 0.50364 0.0
O150 O 0.68144 0.56794 0.51552 0.0
O151 O 0.62176 0.59117 0.54978 0.0
O152 O 0.77267 0.64741 0.56728 0.0
O153 O 0.70598 0.63052 0.58745 0.0
Co154 Co 0.63278 0.56975 0.77553 0.0
O155 O 0.67937 0.54831 0.74163 0.0
O156 O 0.6645 0.53001 0.80959 0.0
C157 C 0.58238 0.56032 0.72239 0.0
O158 O 0.58688 0.58196 0.82036 0.0
Co159 Co 0.58765 0.65217 0.75281 0.0
O160 O 0.55032 0.64058 0.80439 0.0
C161 C 0.67789 0.65756 0.78132 0.0
C162 C 0.68834 0.52545 0.77518 0.0
C163 C 0.55731 0.60861 0.82844 0.0
O164 O 0.67188 0.61961 0.79697 0.0
O165 O 0.65 0.67483 0.75727 0.0
O166 O 0.59241 0.52848 0.74684 0.0
O167 O 0.60481 0.59647 0.72894 0.0
H168 H 0.8941 0.37999 0.6275 0.0
H169 H 0.92624 0.28053 0.71608 0.0
H170 H 0.99015 0.29141 0.5913 0.0
H171 H 0.95276 0.19894 0.63223 0.0
H172 H 0.06659 0.15678 0.69627 0.0
H173 H 0.03905 0.29134 0.70084 0.0
C174 C 0.91133 0.35133 0.63505 0.0
C175 C 0.94027 0.33639 0.60419 0.0
C176 C 0.90375 0.33036 0.67445 0.0
C177 C 0.93053 0.29671 0.68534 0.0
C178 C 0.96266 0.28346 0.6559 0.0
C179 C 0.96667 0.30254 0.61464 0.0
C180 C 0.99104 0.24861 0.66777 0.0
C181 C 0.98077 0.20594 0.65302 0.0
C182 C 0.00758 0.17259 0.66415 0.0
C183 C 0.04449 0.18215 0.68963 0.0
C184 C 0.05663 0.2246 0.70204 0.0
C185 C 0.02958 0.25814 0.69169 0.0
H186 H 0.9375 0.68224 0.92436 0.0
H187 H 0.0672 0.72146 0.96257 0.0
H188 H 0.00138 0.79262 0.86471 0.0
H189 H 0.08151 0.79298 0.84227 0.0
H190 H 0.17807 0.87195 0.91107 0.0
H191 H 0.08146 0.79851 0.98279 0.0
C192 C 0.96532 0.70502 0.922 0.0
C193 C 0.96472 0.73834 0.89198 0.0
C194 C 0.00189 0.699 0.94743 0.0
C195 C 0.03863 0.72679 0.94317 0.0
C196 C 0.03864 0.76126 0.91395 0.0
C197 C 0.00176 0.76639 0.88752 0.0
C198 C 0.07695 0.79216 0.91265 0.0
C199 C 0.09539 0.80516 0.8728 0.0
C200 C 0.13283 0.83283 0.87262 0.0
C201 C 0.1507 0.84857 0.91203 0.0
C202 C 0.13271 0.83643 0.95206 0.0
C203 C 0.09582 0.808 0.95207 0.0
H204 H 0.41019 0.84926 0.17888 0.0
H205 H 0.41341 0.72378 0.23683 0.0
H206 H 0.52223 0.7749 0.16189 0.0
H207 H 0.49116 0.6719 0.15469 0.0
H208 H 0.58066 0.62603 0.24841 0.0
H209 H 0.51695 0.74322 0.27451 0.0
C210 C 0.426 0.81924 0.18407 0.0
C211 C 0.46727 0.8151 0.16653 0.0
C212 C 0.40505 0.78632 0.20808 0.0
C213 C 0.42817 0.74919 0.21719 0.0
C214 C 0.47071 0.74497 0.20074 0.0
C215 C 0.48965 0.77769 0.17444 0.0
C216 C 0.49761 0.70926 0.21487 0.0
C217 C 0.50622 0.67404 0.18655 0.0
C218 C 0.53589 0.64295 0.19877 0.0
C219 C 0.55543 0.64748 0.23988 0.0
C220 C 0.54899 0.68321 0.26742 0.0
C221 C 0.52006 0.71413 0.2547 0.0
H222 H 0.38193 0.09339 0.36641 0.0
H223 H 0.4818 0.17006 0.43445 0.0
H224 H 0.45248 0.19582 0.30086 0.0
H225 H 0.53409 0.20062 0.30708 0.0
H226 H 0.58751 0.32035 0.3611 0.0
H227 H 0.4822 0.25308 0.4267 0.0
C228 C 0.40739 0.11888 0.36657 0.0
C229 C 0.41477 0.14321 0.32905 0.0
C230 C 0.43113 0.12848 0.40491 0.0
C231 C 0.46343 0.16215 0.40502 0.0
C232 C 0.47151 0.18619 0.36738 0.0
C233 C 0.44714 0.1765 0.32959 0.0
C234 C 0.50449 0.22237 0.36719 0.0
C235 C 0.53413 0.22547 0.33249 0.0
C236 C 0.56391 0.26073 0.33074 0.0
C237 C 0.56449 0.29271 0.36337 0.0
C238 C 0.53579 0.29003 0.39839 0.0
C239 C 0.50532 0.25486 0.40021 0.0
H240 H 0.59623 0.93711 0.39772 0.0
H241 H 0.67897 0.96483 0.28866 0.0
H242 H 0.57933 0.05203 0.3256 0.0
H243 H 0.57204 0.03944 0.24232 0.0
H244 H 0.66439 0.10605 0.16102 0.0
H245 H 0.70843 0.04246 0.27484 0.0
C246 C 0.60574 0.95758 0.37075 0.0
C247 C 0.58413 0.99561 0.3649 0.0
C248 C 0.64148 0.94731 0.34525 0.0
C249 C 0.65228 0.97319 0.30949 0.0
C250 C 0.62881 0.01026 0.30105 0.0
C251 C 0.59561 0.02214 0.32992 0.0
C252 C 0.63917 0.03675 0.2624 0.0
C253 C 0.60544 0.04894 0.23492 0.0
C254 C 0.61497 0.07258 0.19743 0.0
C255 C 0.65798 0.08524 0.18848 0.0
C256 C 0.69209 0.07476 0.21591 0.0
C257 C 0.68251 0.0501 0.25289 0.0
H258 H 0.15791 0.41369 0.40508 0.0
H259 H 0.2173 0.46264 0.52309 0.0
H260 H 0.28032 0.36622 0.44518 0.0
H261 H 0.24901 0.38049 0.56877 0.0
H262 H 0.37431 0.42921 0.61287 0.0
H263 H 0.33438 0.45281 0.48187 0.0
C264 C 0.18522 0.41434 0.42744 0.0
C265 C 0.21949 0.38723 0.4196 0.0
C266 C 0.1845 0.44184 0.46395 0.0
C267 C 0.21799 0.44154 0.49458 0.0
C268 C 0.25289 0.41446 0.48797 0.0
C269 C 0.2536 0.38717 0.45035 0.0
C270 C 0.28807 0.41541 0.52097 0.0
C271 C 0.27982 0.39754 0.56231 0.0
C272 C 0.311 0.40292 0.59557 0.0
C273 C 0.35038 0.42516 0.58698 0.0
C274 C 0.35975 0.44247 0.54617 0.0
C275 C 0.32818 0.43811 0.51309 0.0
H276 H 0.87006 0.11112 0.85522 0.0
H277 H 0.81712 0.08668 0.72746 0.0
H278 H 0.90484 0.99772 0.78282 0.0
H279 H 0.91524 0.03272 0.68006 0.0
H280 H 0.84015 0.93059 0.61367 0.0
H281 H 0.80051 0.97503 0.73965 0.0
C282 C 0.86735 0.09072 0.82606 0.0
C283 C 0.88992 0.05264 0.82366 0.0
C284 C 0.84083 0.10305 0.79207 0.0
C285 C 0.83809 0.07767 0.75374 0.0
C286 C 0.86161 0.03976 0.75012 0.0
C287 C 0.8877 0.02744 0.7851 0.0
C288 C 0.85556 0.01069 0.71166 0.0
C289 C 0.88651 0.01109 0.67782 0.0
C290 C 0.88153 0.98125 0.64274 0.0
C291 C 0.84425 0.95359 0.64072 0.0
C292 C 0.81659 0.94913 0.67646 0.0
C293 C 0.82135 0.97869 0.71147 0.0
H294 H 0.34637 0.5744 0.8999 0.0
H295 H 0.2763 0.57259 0.01973 0.0
H296 H 0.22296 0.63229 0.90774 0.0
H297 H 0.24228 0.68175 0.99998 0.0
H298 H 0.11896 0.66653 0.06273 0.0
H299 H 0.17617 0.55605 0.0029 0.0
C300 C 0.31627 0.57921 0.91696 0.0
C301 C 0.28444 0.60306 0.89717 0.0
C302 C 0.31374 0.56794 0.96091 0.0
C303 C 0.27729 0.57867 0.98514 0.0
C304 C 0.24408 0.60101 0.96559 0.0
C305 C 0.24769 0.61312 0.92177 0.0
C306 C 0.20951 0.61831 0.99285 0.0
C307 C 0.21324 0.66195 0.00708 0.0
C308 C 0.1809 0.67883 0.03336 0.0
C309 C 0.14414 0.65275 0.04295 0.0
C310 C 0.14413 0.60779 0.03641 0.0
C311 C 0.17603 0.59064 0.00937 0.0
H312 H 0.65463 0.89868 0.93041 0.0
H313 H 0.66494 0.95539 0.05834 0.0
H314 H 0.73366 0.83993 0.02435 0.0
H315 H 0.72957 0.82843 0.09498 0.0
H316 H 0.77458 0.89944 0.20778 0.0
H317 H 0.72634 0.96857 0.10011 0.0
C318 C 0.66836 0.89884 0.96298 0.0
C319 C 0.69497 0.86584 0.97445 0.0
C320 C 0.65719 0.93083 0.99285 0.0
C321 C 0.67454 0.93086 0.03514 0.0
C322 C 0.70277 0.89821 0.04758 0.0
C323 C 0.71236 0.86542 0.01654 0.0
C324 C 0.72174 0.89827 0.09266 0.0
C325 C 0.73377 0.85929 0.11207 0.0
C326 C 0.75264 0.86004 0.15367 0.0
C327 C 0.75779 0.8992 0.17669 0.0
C328 C 0.74903 0.93849 0.15751 0.0
C329 C 0.73093 0.93795 0.11555 0.0
H330 H 0.36554 0.68664 0.3524 0.0
H331 H 0.3106 0.56261 0.31275 0.0
H332 H 0.44424 0.6005 0.28178 0.0
H333 H 0.45375 0.53343 0.27692 0.0
H334 H 0.39668 0.41418 0.22849 0.0
H335 H 0.31493 0.5194 0.25309 0.0
C336 C 0.36825 0.65703 0.33316 0.0
C337 C 0.40878 0.6462 0.3176 0.0
C338 C 0.33295 0.62694 0.33127 0.0
C339 C 0.33737 0.58651 0.31084 0.0
C340 C 0.37715 0.57612 0.29129 0.0
C341 C 0.41262 0.60701 0.29461 0.0
C342 C 0.38272 0.5316 0.2723 0.0
C343 C 0.42444 0.51453 0.26865 0.0
C344 C 0.42932 0.47271 0.25184 0.0
C345 C 0.39256 0.44616 0.24283 0.0
C346 C 0.35159 0.46321 0.24165 0.0
C347 C 0.34653 0.50601 0.25603 0.0
H348 H 0.9125 0.24026 0.4503 0.0
H349 H 0.87385 0.20674 0.57996 0.0
H350 H 0.78306 0.26111 0.49257 0.0
H351 H 0.79351 0.29727 0.59812 0.0
H352 H 0.69794 0.2115 0.65613 0.0
H353 H 0.77869 0.16356 0.55408 0.0
C354 C 0.88949 0.24199 0.47687 0.0
C355 C 0.84772 0.25483 0.46743 0.0
C356 C 0.89903 0.223 0.51659 0.0
C357 C 0.86744 0.22223 0.54945 0.0
C358 C 0.82617 0.23793 0.54157 0.0
C359 C 0.81605 0.25328 0.50014 0.0
C360 C 0.79146 0.23074 0.57386 0.0
C361 C 0.77831 0.26509 0.60083 0.0
C362 C 0.74482 0.25747 0.63087 0.0
C363 C 0.72516 0.21609 0.63403 0.0
C364 C 0.73658 0.18201 0.6065 0.0
C365 C 0.77004 0.18941 0.57628 0.0
H366 H 0.14192 0.32445 0.82078 0.0
H367 H 0.217 0.41329 0.74326 0.0
H368 H 0.07803 0.42267 0.75127 0.0
H369 H 0.11785 0.44015 0.65842 0.0
H370 H 0.16093 0.57447 0.66394 0.0
H371 H 0.18748 0.49353 0.77132 0.0
C372 C 0.14265 0.34996 0.79702 0.0
C373 C 0.10444 0.37037 0.78682 0.0
C374 C 0.18307 0.36531 0.78205 0.0
C375 C 0.18549 0.40014 0.75351 0.0
C376 C 0.14732 0.42019 0.74091 0.0
C377 C 0.10688 0.40534 0.75805 0.0
C378 C 0.15104 0.46209 0.71807 0.0
C379 C 0.13346 0.46748 0.67587 0.0
C380 C 0.1374 0.50847 0.65623 0.0
C381 C 0.15811 0.54298 0.67904 0.0
C382 C 0.17735 0.53757 0.71961 0.0
C383 C 0.17322 0.4974 0.73947 0.0
H384 H 0.03714 0.22773 0.97641 0.0
H385 H 0.9881 0.34148 0.04005 0.0
H386 H 0.98903 0.37892 0.9693 0.0
H387 H 0.10838 0.2782 0.90898 0.0
H388 H 0.09956 0.24246 0.86256 0.0
H389 H 0.0885 0.22294 0.91608 0.0
H390 H 0.00962 0.20032 0.89291 0.0
H391 H 0.02 0.22024 0.83901 0.0
H392 H 0.97553 0.23996 0.87035 0.0
H393 H 0.0111 0.40875 0.89698 0.0
H394 H 0.05192 0.42628 0.8301 0.0
H395 H 0.0727 0.29039 0.80866 0.0
C396 C 0.02545 0.26014 0.97509 0.0
C397 C 0.0128 0.28195 0.01336 0.0
C398 C 0.99775 0.32429 0.01086 0.0
C399 C 0.9978 0.34565 0.97094 0.0
C400 C 0.01105 0.32358 0.93367 0.0
C401 C 0.02362 0.2813 0.93529 0.0
C402 C 0.03979 0.26593 0.89149 0.0
C403 C 0.08681 0.25156 0.895 0.0
C404 C 0.00942 0.22945 0.87231 0.0
C405 C 0.03721 0.30706 0.86578 0.0
C406 C 0.02031 0.34001 0.89049 0.0
C407 C 0.02284 0.38288 0.87663 0.0
C408 C 0.04573 0.3926 0.83818 0.0
C409 C 0.0655 0.3595 0.81399 0.0
C410 C 0.05753 0.31603 0.82621 0.0
H411 H 0.98184 0.80835 0.225 0.0
H412 H 0.92593 0.75757 0.34384 0.0
H413 H 0.85306 0.75408 0.30931 0.0
H414 H 0.90293 0.87736 0.20145 0.0
H415 H 0.90484 0.86887 0.14332 0.0
H416 H 0.95186 0.86022 0.17573 0.0
H417 H 0.95338 0.78198 0.14317 0.0
H418 H 0.90546 0.79063 0.11151 0.0
H419 H 0.90615 0.74561 0.14781 0.0
H420 H 0.7858 0.77282 0.26758 0.0
H421 H 0.73193 0.80738 0.22179 0.0
H422 H 0.83192 0.83936 0.1279 0.0
C423 C 0.9544 0.79546 0.24344 0.0
C424 C 0.95948 0.78333 0.28714 0.0
C425 C 0.92283 0.76673 0.31022 0.0
C426 C 0.88134 0.76464 0.29081 0.0
C427 C 0.87729 0.7782 0.24795 0.0
C428 C 0.91313 0.79253 0.22436 0.0
C429 C 0.90019 0.80886 0.18036 0.0
C430 C 0.91585 0.85664 0.17497 0.0
C431 C 0.91731 0.78004 0.14354 0.0
C432 C 0.85121 0.80383 0.18359 0.0
C433 C 0.83847 0.78572 0.22266 0.0
C434 C 0.79514 0.78481 0.23598 0.0
C435 C 0.76458 0.8042 0.20961 0.0
C436 C 0.77744 0.82405 0.17029 0.0
C437 C 0.82086 0.82201 0.1564 0.0
H438 H 0.54162 0.67259 0.52922 0.0
H439 H 0.53735 0.81141 0.51365 0.0
H440 H 0.51666 0.79953 0.43638 0.0
H441 H 0.5783 0.64644 0.41778 0.0
H442 H 0.54433 0.59707 0.4138 0.0
H443 H 0.56636 0.61599 0.46565 0.0
H444 H 0.48996 0.61655 0.49937 0.0
H445 H 0.46701 0.59626 0.44889 0.0
H446 H 0.44852 0.64572 0.47294 0.0
H447 H 0.48039 0.77264 0.36809 0.0
H448 H 0.43314 0.73261 0.31454 0.0
H449 H 0.46529 0.61151 0.3715 0.0
C450 C 0.5376 0.70053 0.50919 0.0
C451 C 0.54124 0.74285 0.52716 0.0
C452 C 0.53462 0.77865 0.50035 0.0
C453 C 0.52308 0.77227 0.45647 0.0
C454 C 0.51812 0.72996 0.44006 0.0
C455 C 0.52524 0.69473 0.46566 0.0
C456 C 0.51265 0.65261 0.44215 0.0
C457 C 0.55273 0.62633 0.43432 0.0
C458 C 0.47744 0.62629 0.46731 0.0
C459 C 0.49537 0.66955 0.39999 0.0
C460 C 0.49925 0.71431 0.39916 0.0
C461 C 0.47875 0.73758 0.36735 0.0
C462 C 0.45217 0.71466 0.33683 0.0
C463 C 0.44717 0.66898 0.33779 0.0
C464 C 0.4706 0.64624 0.36858 0.0
H465 H 0.63574 0.28665 0.85127 0.0
H466 H 0.52096 0.31439 0.77786 0.0
H467 H 0.56636 0.32815 0.71253 0.0
H468 H 0.71574 0.36144 0.79686 0.0
H469 H 0.75725 0.32235 0.79667 0.0
H470 H 0.7176 0.32257 0.83964 0.0
H471 H 0.69666 0.24243 0.82314 0.0
H472 H 0.73509 0.24067 0.77945 0.0
H473 H 0.67891 0.22558 0.76929 0.0
H474 H 0.62206 0.32915 0.65381 0.0
H475 H 0.6802 0.30631 0.60468 0.0
H476 H 0.75927 0.27759 0.71554 0.0
C477 C 0.62054 0.29661 0.82157 0.0
C478 C 0.57525 0.3 0.81918 0.0
C479 C 0.55581 0.31184 0.77989 0.0
C480 C 0.58139 0.32018 0.74296 0.0
C481 C 0.62622 0.31643 0.7461 0.0
C482 C 0.64556 0.30443 0.78435 0.0
C483 C 0.69292 0.29563 0.77747 0.0
C484 C 0.72264 0.32742 0.80427 0.0
C485 C 0.70138 0.24828 0.78796 0.0
C486 C 0.69722 0.30381 0.72926 0.0
C487 C 0.65856 0.3166 0.71189 0.0
C488 C 0.65278 0.32026 0.66715 0.0
C489 C 0.68625 0.30795 0.63941 0.0
C490 C 0.72461 0.29161 0.65655 0.0
C491 C 0.73112 0.29202 0.70194 0.0
H492 H 0.03487 0.66927 0.49392 0.0
H493 H 0.15809 0.66873 0.42662 0.0
H494 H 0.17844 0.60566 0.46867 0.0
H495 H 0.07859 0.64772 0.598 0.0
H496 H 0.03223 0.61475 0.61542 0.0
H497 H 0.02552 0.65608 0.576 0.0
H498 H 0.98966 0.59809 0.52354 0.0
H499 H 0.99779 0.55627 0.56234 0.0
H500 H 0.01894 0.55124 0.50801 0.0
H501 H 0.18857 0.54711 0.52231 0.0
H502 H 0.19068 0.50238 0.58775 0.0
H503 H 0.06337 0.54252 0.62455 0.0
C504 C 0.06605 0.65568 0.48807 0.0
C505 C 0.09509 0.67407 0.45706 0.0
C506 C 0.13577 0.65572 0.45071 0.0
C507 C 0.14742 0.61958 0.47421 0.0
C508 C 0.11837 0.60236 0.50478 0.0
C509 C 0.07874 0.62012 0.51227 0.0
C510 C 0.05557 0.59813 0.55015 0.0
C511 C 0.04753 0.63113 0.58708 0.0
C512 C 0.01297 0.57455 0.53509 0.0
C513 C 0.08872 0.56596 0.56335 0.0
C514 C 0.12425 0.56832 0.53599 0.0
C515 C 0.1605 0.54428 0.54333 0.0
C516 C 0.16113 0.51821 0.58018 0.0
C517 C 0.12643 0.51727 0.61026 0.0
C518 C 0.08927 0.54065 0.60096 0.0
H519 H 0.65502 0.83845 0.7362 0.0
H520 H 0.5578 0.73994 0.77122 0.0
H521 H 0.59595 0.72974 0.84092 0.0
H522 H 0.7503 0.78918 0.79766 0.0
H523 H 0.77222 0.8422 0.81402 0.0
H524 H 0.74595 0.83413 0.762 0.0
H525 H 0.69217 0.89326 0.77914 0.0
H526 H 0.71906 0.90377 0.83008 0.0
H527 H 0.66139 0.89084 0.82898 0.0
H528 H 0.63275 0.74339 0.91176 0.0
H529 H 0.65881 0.78419 0.97727 0.0
H530 H 0.73478 0.87214 0.89688 0.0
C531 C 0.64318 0.81345 0.75787 0.0
C532 C 0.60421 0.78953 0.74862 0.0
C533 C 0.58807 0.75815 0.77794 0.0
C534 C 0.60977 0.75193 0.81731 0.0
C535 C 0.64787 0.77692 0.82633 0.0
C536 C 0.66473 0.80679 0.79706 0.0
C537 C 0.70136 0.83489 0.81717 0.0
C538 C 0.74504 0.82444 0.7965 0.0
C539 C 0.6929 0.8835 0.81369 0.0
C540 C 0.69906 0.81974 0.86365 0.0
C541 C 0.66956 0.7848 0.8679 0.0
C542 C 0.65699 0.76969 0.90871 0.0
C543 C 0.67237 0.79271 0.94593 0.0
C544 C 0.69942 0.83066 0.94186 0.0
C545 C 0.71537 0.84227 0.90054 0.0
H546 H 0.48809 0.43688 0.01532 0.0
H547 H 0.52201 0.30784 0.05008 0.0
H548 H 0.52143 0.32974 0.12812 0.0
H549 H 0.54645 0.49767 0.0934 0.0
H550 H 0.50551 0.53491 0.10862 0.0
H551 H 0.5068 0.51208 0.05428 0.0
H552 H 0.42999 0.47812 0.05665 0.0
H553 H 0.42366 0.50487 0.10852 0.0
H554 H 0.4125 0.44722 0.1031 0.0
H555 H 0.51211 0.36475 0.20203 0.0
H556 H 0.48158 0.40482 0.26428 0.0
H557 H 0.45805 0.51205 0.18063 0.0
C558 C 0.49599 0.41352 0.0393 0.0
C559 C 0.5058 0.3711 0.02695 0.0
C560 C 0.51451 0.34067 0.0592 0.0
C561 C 0.51468 0.35293 0.10342 0.0
C562 C 0.50557 0.3955 0.11453 0.0
C563 C 0.4954 0.42495 0.08333 0.0
C564 C 0.48192 0.46708 0.10351 0.0
C565 C 0.51198 0.50524 0.0892 0.0
C566 C 0.43421 0.47473 0.09231 0.0
C567 C 0.48737 0.4574 0.1512 0.0
C568 C 0.5007 0.41578 0.15697 0.0
C569 C 0.50222 0.39754 0.19803 0.0
C570 C 0.48585 0.42087 0.23348 0.0
C571 C 0.46831 0.46173 0.22725 0.0
C572 C 0.47281 0.48162 0.18651 0.0
H573 H 0.96246 0.27283 0.24915 0.0
H574 H 0.91726 0.1387 0.2327 0.0
H575 H 0.86021 0.14952 0.28769 0.0
H576 H 0.95847 0.27288 0.35943 0.0
H577 H 0.94298 0.32803 0.36658 0.0
H578 H 0.97158 0.31233 0.31853 0.0
H579 H 0.9099 0.34165 0.27265 0.0
H580 H 0.87878 0.3547 0.32034 0.0
H581 H 0.85529 0.31922 0.27828 0.0
H582 H 0.81314 0.17229 0.34829 0.0
H583 H 0.79733 0.19539 0.42337 0.0
H584 H 0.87822 0.31224 0.40689 0.0
C585 C 0.93927 0.24639 0.25608 0.0
C586 C 0.94307 0.20532 0.23607 0.0
C587 C 0.91398 0.17061 0.24718 0.0
C588 C 0.88124 0.17667 0.27796 0.0
C589 C 0.87814 0.21763 0.2974 0.0
C590 C 0.90712 0.25167 0.28763 0.0
C591 C 0.903 0.28935 0.31946 0.0
C592 C 0.94657 0.3013 0.34236 0.0
C593 C 0.88569 0.32857 0.29634 0.0
C594 C 0.86947 0.27 0.35054 0.0
C595 C 0.85367 0.22968 0.33562 0.0
C596 C 0.82506 0.20387 0.3602 0.0
C597 C 0.81563 0.2176 0.4027 0.0
C598 C 0.83636 0.25572 0.4207 0.0
C599 C 0.86098 0.2837 0.39333 0.0
H600 H 0.06509 0.14252 0.35981 0.0
H601 H 0.01734 0.01268 0.3905 0.0
H602 H 0.98635 0.04036 0.45916 0.0
H603 H 0.08787 0.17861 0.47982 0.0
H604 H 0.072 0.23253 0.46829 0.0
H605 H 0.09865 0.20116 0.42708 0.0
H606 H 0.03472 0.21137 0.37377 0.0
H607 H 0.00879 0.24302 0.41461 0.0
H608 H 0.98018 0.19609 0.39062 0.0
H609 H 0.94464 0.08408 0.51151 0.0
H610 H 0.89827 0.139 0.5427 0.0
H611 H 0.98125 0.24041 0.48694 0.0
C612 C 0.04968 0.11982 0.38205 0.0
C613 C 0.04359 0.07563 0.37028 0.0
C614 C 0.02274 0.04662 0.39944 0.0
C615 C 0.00528 0.06204 0.43858 0.0
C616 C 0.01062 0.10619 0.44884 0.0
C617 C 0.03345 0.13451 0.42193 0.0
C618 C 0.03055 0.18097 0.4378 0.0
C619 C 0.07492 0.19939 0.45423 0.0
C620 C 0.01245 0.20945 0.40209 0.0
C621 C 0.99901 0.17485 0.47516 0.0
C622 C 0.98844 0.13139 0.48154 0.0
C623 C 0.95378 0.11809 0.50804 0.0
C624 C 0.92776 0.14971 0.52619 0.0
C625 C 0.93617 0.1941 0.5172 0.0
C626 C 0.97454 0.20673 0.49476 0.0
H627 H 0.24276 0.75356 0.63977 0.0
H628 H 0.16711 0.80659 0.74376 0.0
H629 H 0.17252 0.73826 0.78426 0.0
H630 H 0.18719 0.65513 0.64097 0.0
H631 H 0.23277 0.62526 0.62298 0.0
H632 H 0.2295 0.68089 0.60879 0.0
H633 H 0.3049 0.69859 0.64335 0.0
H634 H 0.30807 0.64263 0.65747 0.0
H635 H 0.31446 0.68468 0.69881 0.0
H636 H 0.17337 0.66024 0.80409 0.0
H637 H 0.16022 0.58103 0.79561 0.0
H638 H 0.24488 0.58069 0.68389 0.0
C639 C 0.22937 0.75176 0.6719 0.0
C640 C 0.20689 0.78596 0.69001 0.0
C641 C 0.18609 0.78102 0.73053 0.0
C642 C 0.18924 0.74248 0.75361 0.0
C643 C 0.21291 0.70936 0.73512 0.0
C644 C 0.23196 0.71366 0.69467 0.0
C645 C 0.24771 0.67143 0.67713 0.0
C646 C 0.22279 0.65737 0.63508 0.0
C647 C 0.29675 0.67448 0.66878 0.0
C648 C 0.2356 0.64226 0.71456 0.0
C649 C 0.21496 0.6645 0.7476 0.0
C650 C 0.19072 0.64262 0.77944 0.0
C651 C 0.18382 0.59749 0.77487 0.0
C652 C 0.20177 0.57531 0.73915 0.0
C653 C 0.23192 0.59725 0.71205 0.0
H654 H 0.47509 0.9657 0.82506 0.0
H655 H 0.52796 0.09654 0.80763 0.0
H656 H 0.57649 0.0891 0.87143 0.0
H657 H 0.47487 0.97138 0.94211 0.0
H658 H 0.48974 0.9162 0.94965 0.0
H659 H 0.45879 0.92993 0.90255 0.0
H660 H 0.5153 0.90118 0.84922 0.0
H661 H 0.5456 0.88348 0.89494 0.0
H662 H 0.57165 0.91855 0.85569 0.0
H663 H 0.62724 0.06131 0.93031 0.0
H664 H 0.67019 0.01833 0.98064 0.0
H665 H 0.57586 0.91072 0.96549 0.0
C666 C 0.49652 0.99292 0.83516 0.0
C667 C 0.49803 0.03164 0.81186 0.0
C668 C 0.52636 0.06671 0.82558 0.0
C669 C 0.55398 0.0627 0.86163 0.0
C670 C 0.55198 0.02375 0.88396 0.0
C671 C 0.5234 0.98979 0.87147 0.0
C672 C 0.52751 0.95117 0.90016 0.0
C673 C 0.48521 0.94154 0.92516 0.0
C674 C 0.54082 0.91128 0.87341 0.0
C675 C 0.56359 0.96805 0.93025 0.0
C676 C 0.57799 0.00972 0.92014 0.0
C677 C 0.61542 0.0292 0.93937 0.0
C678 C 0.63932 0.0049 0.96843 0.0
C679 C 0.62553 0.96178 0.97785 0.0
C680 C 0.58606 0.94425 0.96015 0.0
H681 H 0.32941 0.22978 0.17461 0.0
H682 H 0.36679 0.2744 0.04707 0.0
H683 H 0.34638 0.34874 0.06808 0.0
H684 H 0.2397 0.29975 0.19642 0.0
H685 H 0.25576 0.30833 0.25255 0.0
H686 H 0.26684 0.25842 0.22466 0.0
H687 H 0.34922 0.27077 0.24377 0.0
H688 H 0.33623 0.31916 0.27306 0.0
H689 H 0.37657 0.32168 0.23068 0.0
H690 H 0.32635 0.41837 0.10511 0.0
H691 H 0.33066 0.47873 0.15856 0.0
H692 H 0.30742 0.38881 0.26267 0.0
C693 C 0.3331 0.25531 0.15124 0.0
C694 C 0.34946 0.24679 0.10949 0.0
C695 C 0.35464 0.28071 0.07951 0.0
C696 C 0.34233 0.32267 0.09091 0.0
C697 C 0.32525 0.32985 0.13241 0.0
C698 C 0.32196 0.29723 0.16244 0.0
C699 C 0.30938 0.31413 0.20681 0.0
C700 C 0.26525 0.29394 0.22086 0.0
C701 C 0.34496 0.306 0.24053 0.0
C702 C 0.30678 0.36188 0.19763 0.0
C703 C 0.31466 0.37011 0.15413 0.0
C704 C 0.31949 0.41227 0.139 0.0
C705 C 0.32089 0.44663 0.16959 0.0
C706 C 0.3193 0.43821 0.21464 0.0
C707 C 0.30753 0.39597 0.22833 0.0
H708 H 0.97978 0.00531 0.18076 0.0
H709 H 0.95756 0.97117 0.31498 0.0
H710 H 0.88002 0.98667 0.30707 0.0
H711 H 0.89009 0.08757 0.17221 0.0
H712 H 0.87716 0.06847 0.1179 0.0
H713 H 0.93242 0.06867 0.13741 0.0
H714 H 0.93514 0.98676 0.11845 0.0
H715 H 0.88056 0.98593 0.09871 0.0
H716 H 0.89457 0.9495 0.14081 0.0
H717 H 0.80468 0.99492 0.28249 0.0
H718 H 0.74035 0.9691 0.24069 0.0
H719 H 0.80925 0.99262 0.12072 0.0
C720 C 0.95862 0.0022 0.20871 0.0
C721 C 0.97434 0.98727 0.24846 0.0
C722 C 0.94589 0.9824 0.28416 0.0
C723 C 0.90207 0.99206 0.28017 0.0
C724 C 0.88726 0.00649 0.24025 0.0
C725 C 0.91468 0.01072 0.20487 0.0
C726 C 0.88951 0.01691 0.16334 0.0
C727 C 0.89782 0.06314 0.14671 0.0
C728 C 0.90058 0.98274 0.12833 0.0
C729 C 0.84342 0.01054 0.17997 0.0
C730 C 0.84283 0.00816 0.22494 0.0
C731 C 0.80476 0.99724 0.24743 0.0
C732 C 0.76795 0.98319 0.22339 0.0
C733 C 0.77043 0.978 0.17764 0.0
C734 C 0.80666 0.99658 0.15566 0.0
H735 H 0.296 0.72237 0.5555 0.0
H736 H 0.21011 0.80951 0.49338 0.0
H737 H 0.20398 0.76008 0.42957 0.0
H738 H 0.35577 0.69908 0.46595 0.0
H739 H 0.36264 0.64316 0.4787 0.0
H740 H 0.35318 0.68167 0.52155 0.0
H741 H 0.28789 0.63269 0.54627 0.0
H742 H 0.29535 0.59487 0.50177 0.0
H743 H 0.24392 0.61914 0.50922 0.0
H744 H 0.2202 0.71153 0.36757 0.0
H745 H 0.26022 0.66969 0.31288 0.0
H746 H 0.32942 0.60919 0.41561 0.0
C747 C 0.27529 0.73067 0.52878 0.0
C748 C 0.25381 0.76994 0.52932 0.0
C749 C 0.22693 0.7796 0.49375 0.0
C750 C 0.22288 0.7515 0.45748 0.0
C751 C 0.2451 0.71336 0.45762 0.0
C752 C 0.27051 0.70273 0.49255 0.0
C753 C 0.29519 0.66268 0.48262 0.0
C754 C 0.34457 0.67227 0.48745 0.0
C755 C 0.27964 0.62511 0.51165 0.0
C756 C 0.28205 0.65419 0.43556 0.0
C757 C 0.25243 0.68332 0.42193 0.0
C758 C 0.24202 0.68741 0.37801 0.0
C759 C 0.26451 0.66328 0.34707 0.0
C760 C 0.29653 0.63535 0.36046 0.0
C761 C 0.30333 0.62877 0.40511 0.0
H762 H 0.53389 0.10379 0.72258 0.0
H763 H 0.47255 0.08805 0.59638 0.0
H764 H 0.54489 0.08947 0.5611 0.0
H765 H 0.61632 0.17621 0.69586 0.0
H766 H 0.65671 0.15361 0.72987 0.0
H767 H 0.60037 0.14606 0.74333 0.0
H768 H 0.60908 0.0629 0.74315 0.0
H769 H 0.6654 0.07066 0.72814 0.0
H770 H 0.62917 0.03612 0.69516 0.0
H771 H 0.62194 0.10826 0.54039 0.0
H772 H 0.69459 0.14453 0.53622 0.0
H773 H 0.70861 0.13543 0.67565 0.0
C774 C 0.536 0.10007 0.68757 0.0
C775 C 0.49824 0.0964 0.66177 0.0
C776 C 0.50157 0.09107 0.61624 0.0
C777 C 0.54241 0.09143 0.59616 0.0
C778 C 0.57941 0.09517 0.62245 0.0
C779 C 0.57648 0.09876 0.66728 0.0
C780 C 0.62078 0.10569 0.68807 0.0
C781 C 0.62368 0.1479 0.71584 0.0
C782 C 0.63175 0.06649 0.71523 0.0
C783 C 0.64896 0.10888 0.64781 0.0
C784 C 0.62462 0.10203 0.6102 0.0
C785 C 0.64179 0.11178 0.56935 0.0
C786 C 0.68345 0.13209 0.56716 0.0
C787 C 0.70712 0.1426 0.60565 0.0
C788 C 0.69133 0.12689 0.64574 0.0
H789 H 0.26515 0.27987 0.9993 0.0
H790 H 0.31983 0.17411 0.92649 0.0
H791 H 0.3118 0.21462 0.85846 0.0
H792 H 0.18484 0.30075 0.92856 0.0
H793 H 0.18816 0.35883 0.93594 0.0
H794 H 0.20551 0.32502 0.97871 0.0
H795 H 0.28131 0.36544 0.97927 0.0
H796 H 0.26418 0.39951 0.93621 0.0
H797 H 0.31214 0.36908 0.9296 0.0
H798 H 0.28431 0.26085 0.79734 0.0
H799 H 0.23903 0.30568 0.75126 0.0
H800 H 0.20818 0.38373 0.86413 0.0
C801 C 0.27591 0.26528 0.96913 0.0
C802 C 0.29261 0.22349 0.96825 0.0
C803 C 0.30672 0.20595 0.92806 0.0
C804 C 0.30238 0.2288 0.88923 0.0
C805 C 0.28464 0.2695 0.89118 0.0
C806 C 0.27224 0.28775 0.93036 0.0
C807 C 0.25086 0.33014 0.92382 0.0
C808 C 0.20462 0.32856 0.94285 0.0
C809 C 0.2788 0.3683 0.94339 0.0
C810 C 0.25034 0.33156 0.87465 0.0
C811 C 0.27069 0.29682 0.85621 0.0
C812 C 0.26884 0.28835 0.81142 0.0
C813 C 0.24374 0.3144 0.78527 0.0
C814 C 0.22143 0.34888 0.80405 0.0
C815 C 0.22654 0.35861 0.84887 0.0
H816 H 0.4411 0.05777 0.13809 0.0
H817 H 0.41561 0.0271 0.00197 0.0
H818 H 0.44746 0.95607 0.01083 0.0
H819 H 0.54391 0.99822 0.14954 0.0
H820 H 0.52889 0.97757 0.20209 0.0
H821 H 0.51115 0.02948 0.18616 0.0
H822 H 0.43259 0.00771 0.19923 0.0
H823 H 0.44749 0.95576 0.21728 0.0
H824 H 0.40865 0.95893 0.17375 0.0
H825 H 0.47219 0.8848 0.03586 0.0
H826 H 0.47677 0.81799 0.07839 0.0
H827 H 0.48969 0.89529 0.19679 0.0
C828 C 0.44414 0.03699 0.10958 0.0
C829 C 0.42672 0.0485 0.06911 0.0
C830 C 0.42973 0.01961 0.03302 0.0
C831 C 0.44823 0.97931 0.03753 0.0
C832 C 0.4648 0.96869 0.0779 0.0
C833 C 0.46298 0.99683 0.11337 0.0
C834 C 0.47603 0.97489 0.1547 0.0
C835 C 0.51759 0.99637 0.17419 0.0
C836 C 0.43892 0.9742 0.18815 0.0
C837 C 0.48417 0.92996 0.1373 0.0
C838 C 0.47831 0.92699 0.09277 0.0
C839 C 0.47816 0.88707 0.07054 0.0
C840 C 0.48145 0.84923 0.0948 0.0
C841 C 0.48485 0.85176 0.14065 0.0
C842 C 0.48892 0.89278 0.1616 0.0
H843 H 0.8641 0.5179 0.06464 0.0
H844 H 0.95276 0.42841 0.00794 0.0
H845 H 0.00176 0.48941 0.9861 0.0
H846 H 0.87524 0.5963 0.98464 0.0
H847 H 0.87267 0.64217 0.02152 0.0
H848 H 0.84679 0.591 0.0356 0.0
H849 H 0.89139 0.59247 0.10784 0.0
H850 H 0.9173 0.64369 0.09309 0.0
H851 H 0.94973 0.5987 0.10553 0.0
H852 H 0.03915 0.55875 0.96744 0.0
H853 H 0.05592 0.63271 0.94152 0.0
H854 H 0.94458 0.67809 0.01136 0.0
C855 C 0.89414 0.51137 0.04813 0.0
C856 C 0.90508 0.4686 0.03808 0.0
C857 C 0.94428 0.46103 0.01611 0.0
C858 C 0.9724 0.49541 0.00398 0.0
C859 C 0.96168 0.53719 0.01566 0.0
C860 C 0.92333 0.54546 0.03686 0.0
C861 C 0.91777 0.59364 0.04174 0.0
C862 C 0.87565 0.60651 0.01953 0.0
C863 C 0.91912 0.60795 0.08992 0.0
C864 C 0.95783 0.61088 0.01801 0.0
C865 C 0.98346 0.57778 0.00453 0.0
C866 C 0.02007 0.58517 0.97867 0.0
C867 C 0.02954 0.62723 0.9643 0.0
C868 C 0.0017 0.66071 0.97495 0.0
C869 C 0.96674 0.65292 0.00375 0.0
H870 H 0.7275 0.55241 0.33403 0.0
H871 H 0.80492 0.64903 0.26492 0.0
H872 H 0.74955 0.70269 0.2797 0.0
H873 H 0.62995 0.57763 0.28839 0.0
H874 H 0.59954 0.56348 0.33627 0.0
H875 H 0.65047 0.53965 0.32642 0.0
H876 H 0.68067 0.57479 0.40447 0.0
H877 H 0.62521 0.58777 0.40871 0.0
H878 H 0.66714 0.62992 0.41571 0.0
H879 H 0.68281 0.74054 0.28889 0.0
H880 H 0.60665 0.75179 0.2725 0.0
H881 H 0.56879 0.63176 0.33451 0.0
C882 C 0.73298 0.58531 0.32308 0.0
C883 C 0.77017 0.59707 0.29875 0.0
C884 C 0.7764 0.63973 0.28373 0.0
C885 C 0.74552 0.67052 0.29267 0.0
C886 C 0.70864 0.65802 0.31657 0.0
C887 C 0.70192 0.61609 0.33084 0.0
C888 C 0.65626 0.60814 0.34783 0.0
C889 C 0.63278 0.56985 0.32327 0.0
C890 C 0.65738 0.59993 0.39701 0.0
C891 C 0.63684 0.65109 0.33715 0.0
C892 C 0.6685 0.68017 0.32141 0.0
C893 C 0.65785 0.71859 0.30183 0.0
C894 C 0.61418 0.72507 0.29302 0.0
C895 C 0.58217 0.69219 0.3018 0.0
C896 C 0.59293 0.6576 0.32856 0.0
H897 H 0.67118 0.48533 0.50393 0.0
H898 H 0.55261 0.55486 0.51238 0.0
H899 H 0.51034 0.48888 0.48733 0.0
H900 H 0.66941 0.3736 0.4303 0.0
H901 H 0.68902 0.42699 0.44745 0.0
H902 H 0.64406 0.42043 0.40995 0.0
H903 H 0.67797 0.40498 0.5278 0.0
H904 H 0.65695 0.3519 0.51072 0.0
H905 H 0.62506 0.38532 0.54568 0.0
H906 H 0.4816 0.41475 0.45956 0.0
H907 H 0.47078 0.34206 0.42426 0.0
H908 H 0.60728 0.32059 0.44207 0.0
C909 C 0.63635 0.4868 0.50029 0.0
C910 C 0.61526 0.52534 0.50934 0.0
C911 C 0.56951 0.52576 0.50497 0.0
C912 C 0.5452 0.4884 0.49103 0.0
C913 C 0.56701 0.45059 0.48324 0.0
C914 C 0.61157 0.44962 0.48781 0.0
C915 C 0.62748 0.40519 0.47756 0.0
C916 C 0.65934 0.40666 0.43902 0.0
C917 C 0.64806 0.38572 0.51785 0.0
C918 C 0.58502 0.38138 0.46559 0.0
C919 C 0.55033 0.40783 0.46945 0.0
C920 C 0.50841 0.39358 0.45684 0.0
C921 C 0.50238 0.35213 0.43738 0.0
C922 C 0.53815 0.32586 0.43095 0.0
C923 C 0.57934 0.33993 0.44728 0.0
H924 H 0.18744 0.91192 0.2003 0.0
H925 H 0.16152 0.87419 0.33298 0.0
H926 H 0.22375 0.82637 0.33021 0.0
H927 H 0.23309 0.81062 0.15568 0.0
H928 H 0.27158 0.84204 0.12554 0.0
H929 H 0.21936 0.8635 0.13764 0.0
H930 H 0.26399 0.93056 0.17199 0.0
H931 H 0.31455 0.90527 0.16285 0.0
H932 H 0.3 0.92222 0.21707 0.0
H933 H 0.29381 0.78597 0.31338 0.0
H934 H 0.36478 0.76241 0.28598 0.0
H935 H 0.34163 0.82671 0.16453 0.0
C936 C 0.19404 0.89253 0.22827 0.0
C937 C 0.1691 0.89584 0.26649 0.0
C938 C 0.17997 0.87158 0.30319 0.0
C939 C 0.21523 0.84434 0.30187 0.0
C940 C 0.23989 0.84249 0.26391 0.0
C941 C 0.22971 0.86622 0.22785 0.0
C942 C 0.26417 0.86336 0.19315 0.0
C943 C 0.2457 0.84398 0.15038 0.0
C944 C 0.28704 0.908 0.18588 0.0
C945 C 0.29421 0.83289 0.21432 0.0
C946 C 0.28034 0.82134 0.25527 0.0
C947 C 0.30473 0.7948 0.28118 0.0
C948 C 0.34481 0.78101 0.26514 0.0
C949 C 0.35971 0.79332 0.22334 0.0
C950 C 0.33251 0.8178 0.19725 0.0
H951 H 0.1127 0.95578 0.67414 0.0
H952 H 0.14183 0.97061 0.53721 0.0
H953 H 0.08878 0.02771 0.53289 0.0
H954 H 0.99483 0.97442 0.6645 0.0
H955 H 0.99295 0.00425 0.71538 0.0
H956 H 0.03018 0.96147 0.70839 0.0
H957 H 0.09612 0.0129 0.7282 0.0
H958 H 0.05957 0.05535 0.7382 0.0
H959 H 0.10375 0.06355 0.70046 0.0
H960 H 0.04405 0.09058 0.54667 0.0
H961 H 0.01236 0.15574 0.57813 0.0
H962 H 0.00363 0.09492 0.70335 0.0
C963 C 0.1072 0.97057 0.64311 0.0
C964 C 0.13131 0.95929 0.60607 0.0
C965 C 0.12348 0.97899 0.56591 0.0
C966 C 0.09324 0.01112 0.56309 0.0
C967 C 0.07003 0.02177 0.60028 0.0
C968 C 0.07615 0.00167 0.6394 0.0
C969 C 0.04957 0.02139 0.67528 0.0
C970 C 0.01479 0.98844 0.69187 0.0
C971 C 0.07901 0.03938 0.71269 0.0
C972 C 0.02931 0.05727 0.65075 0.0
C973 C 0.04137 0.05676 0.60745 0.0
C974 C 0.03293 0.09068 0.58001 0.0
C975 C 0.01412 0.12727 0.59789 0.0
C976 C 0.00443 0.12957 0.6427 0.0
C977 C 0.00916 0.09294 0.6686 0.0
H978 H 0.79276 0.35422 0.30856 0.0
H979 H 0.73961 0.44272 0.21779 0.0
H980 H 0.67418 0.39345 0.2084 0.0
H981 H 0.74212 0.24883 0.25755 0.0
H982 H 0.73669 0.22817 0.31159 0.0
H983 H 0.78079 0.26646 0.29909 0.0
H984 H 0.70818 0.27557 0.37301 0.0
H985 H 0.69865 0.33164 0.36342 0.0
H986 H 0.75329 0.31345 0.3653 0.0
H987 H 0.61154 0.34118 0.21709 0.0
H988 H 0.55288 0.29802 0.25287 0.0
H989 H 0.647 0.24147 0.33584 0.0
C990 C 0.76744 0.36268 0.28634 0.0
C991 C 0.77044 0.4019 0.26404 0.0
C992 C 0.73694 0.41284 0.23561 0.0
C993 C 0.7003 0.38475 0.22948 0.0
C994 C 0.69814 0.3459 0.25182 0.0
C995 C 0.73066 0.33509 0.28008 0.0
C996 C 0.71779 0.29501 0.30518 0.0
C997 C 0.7461 0.25738 0.29262 0.0
C998 C 0.71953 0.30453 0.35462 0.0
C999 C 0.67193 0.28646 0.28866 0.0
C1000 C 0.6617 0.31515 0.25665 0.0
C1001 C 0.61943 0.31761 0.24103 0.0
C1002 C 0.58632 0.29255 0.26101 0.0
C1003 C 0.59605 0.26593 0.29613 0.0
C1004 C 0.63947 0.26037 0.30778 0.0
H1005 H 0.7138 0.68757 0.8579 0.0
H1006 H 0.73887 0.67272 0.72012 0.0
H1007 H 0.8154 0.69696 0.73225 0.0
H1008 H 0.78436 0.78575 0.87946 0.0
H1009 H 0.80202 0.76654 0.93109 0.0
H1010 H 0.74893 0.74999 0.9108 0.0
H1011 H 0.76688 0.66962 0.91813 0.0
H1012 H 0.82014 0.68607 0.9381 0.0
H1013 H 0.81428 0.65022 0.89128 0.0
H1014 H 0.89066 0.72306 0.76022 0.0
H1015 H 0.95796 0.73855 0.803 0.0
H1016 H 0.88207 0.74012 0.92135 0.0
C1017 C 0.73514 0.69145 0.83016 0.0
C1018 C 0.72059 0.67966 0.78793 0.0
C1019 C 0.74941 0.68322 0.75243 0.0
C1020 C 0.79282 0.69738 0.759 0.0
C1021 C 0.80632 0.70992 0.80091 0.0
C1022 C 0.77823 0.707 0.83595 0.0
C1023 C 0.80169 0.71805 0.87826 0.0
C1024 C 0.78308 0.75749 0.90123 0.0
C1025 C 0.80069 0.67865 0.90818 0.0
C1026 C 0.84694 0.72867 0.86158 0.0
C1027 C 0.84928 0.72362 0.81695 0.0
C1028 C 0.88883 0.72835 0.79499 0.0
C1029 C 0.92691 0.73747 0.81944 0.0
C1030 C 0.92501 0.74123 0.86529 0.0
C1031 C 0.88429 0.73821 0.88621 0.0
H1032 H 0.4815 0.87883 0.55027 0.0
H1033 H 0.57873 0.95265 0.62588 0.0
H1034 H 0.58173 0.00916 0.57003 0.0
H1035 H 0.53775 0.88901 0.45933 0.0
H1036 H 0.49264 0.88957 0.42203 0.0
H1037 H 0.48557 0.86429 0.4735 0.0
H1038 H 0.42203 0.91322 0.49261 0.0
H1039 H 0.42863 0.93733 0.43991 0.0
H1040 H 0.43006 0.97102 0.48819 0.0
H1041 H 0.58514 0.04927 0.50176 0.0
H1042 H 0.60259 0.05906 0.42453 0.0
H1043 H 0.50748 0.95706 0.38929 0.0
C1044 C 0.50149 0.90823 0.55602 0.0
C1045 C 0.52878 0.91242 0.59282 0.0
C1046 C 0.55683 0.94962 0.5983 0.0
C1047 C 0.55829 0.98204 0.56694 0.0
C1048 C 0.53193 0.97646 0.53001 0.0
C1049 C 0.5044 0.94 0.52418 0.0
C1050 C 0.48873 0.93536 0.47746 0.0
C1051 C 0.50206 0.89208 0.45688 0.0
C1052 C 0.43943 0.93947 0.47441 0.0
C1053 C 0.513 0.97387 0.45743 0.0
C1054 C 0.53629 0.99819 0.48866 0.0
C1055 C 0.5662 0.03135 0.47722 0.0
C1056 C 0.57552 0.0372 0.43305 0.0
C1057 C 0.55604 0.00899 0.40113 0.0
C1058 C 0.52163 0.97984 0.41317 0.0
H1059 H 0.40691 0.41188 0.82639 0.0
H1060 H 0.40972 0.272 0.81684 0.0
H1061 H 0.35797 0.27127 0.75559 0.0
H1062 H 0.28741 0.41809 0.79189 0.0
H1063 H 0.29978 0.46692 0.76238 0.0
H1064 H 0.32946 0.45621 0.81127 0.0
H1065 H 0.40092 0.46545 0.7698 0.0
H1066 H 0.37356 0.47473 0.7196 0.0
H1067 H 0.41042 0.43141 0.72292 0.0
H1068 H 0.32157 0.287 0.68626 0.0
H1069 H 0.30117 0.31781 0.61595 0.0
H1070 H 0.31563 0.4468 0.67288 0.0
C1071 C 0.39504 0.38101 0.81261 0.0
C1072 C 0.4121 0.34201 0.82641 0.0
C1073 C 0.39665 0.30222 0.80712 0.0
C1074 C 0.36725 0.30151 0.77226 0.0
C1075 C 0.35206 0.34069 0.75835 0.0
C1076 C 0.36455 0.37968 0.77871 0.0
C1077 C 0.34775 0.41758 0.75433 0.0
C1078 C 0.31408 0.44107 0.78159 0.0
C1079 C 0.38537 0.44915 0.74082 0.0
C1080 C 0.32664 0.39397 0.7154 0.0
C1081 C 0.32874 0.34958 0.71876 0.0
C1082 C 0.31789 0.32151 0.68386 0.0
C1083 C 0.30594 0.33917 0.6441 0.0
C1084 C 0.3056 0.38448 0.63947 0.0
C1085 C 0.31399 0.41194 0.67623 0.0
H1086 H 0.93746 0.10888 0.0645 0.0
H1087 H 0.07357 0.09397 0.03761 0.0
H1088 H 0.05418 0.05488 0.96859 0.0
H1089 H 0.89988 -0.00079 0.0127 0.0
H1090 H 0.85076 0.02073 0.99223 0.0
H1091 H 0.87346 0.04084 0.04311 0.0
H1092 H 0.87768 0.11962 0.0169 0.0
H1093 H 0.85204 0.09992 0.96766 0.0
H1094 H 0.90282 0.13147 0.96524 0.0
H1095 H 0.02041 0.03446 0.8956 0.0
H1096 H 0.97541 0.03163 0.82865 0.0
H1097 H 0.86097 0.05072 0.90667 0.0
C1098 C 0.96294 0.09579 0.04478 0.0
C1099 C 0.00685 0.10406 0.05609 0.0
C1100 C 0.03967 0.08734 0.02948 0.0
C1101 C 0.02893 0.06506 0.99034 0.0
C1102 C 0.98517 0.05841 0.97926 0.0
C1103 C 0.95265 0.07218 0.0065 0.0
C1104 C 0.90842 0.06432 0.98581 0.0
C1105 C 0.8816 0.02914 0.0099 0.0
C1106 C 0.88394 0.10643 0.98376 0.0
C1107 C 0.92133 0.04822 0.94108 0.0
C1108 C 0.96564 0.04402 0.93801 0.0
C1109 C 0.98553 0.03609 0.89796 0.0
C1110 C 0.95978 0.03432 0.86004 0.0
C1111 C 0.9148 0.04072 0.86264 0.0
C1112 C 0.89527 0.04519 0.90392 0.0
H1113 H 0.16934 0.70872 0.27745 0.0
H1114 H 0.09349 0.82047 0.2561 0.0
H1115 H 0.11577 0.82137 0.17944 0.0
H1116 H 0.26147 0.74732 0.19861 0.0
H1117 H 0.27035 0.69161 0.18554 0.0
H1118 H 0.25238 0.70679 0.23929 0.0
H1119 H 0.18846 0.64903 0.22804 0.0
H1120 H 0.20463 0.63749 0.17305 0.0
H1121 H 0.15109 0.6558 0.18395 0.0
H1122 H 0.13348 0.7999 0.10247 0.0
H1123 H 0.1498 0.76043 0.03402 0.0
H1124 H 0.22608 0.67258 0.10617 0.0
C1125 C 0.15822 0.73381 0.25668 0.0
C1126 C 0.12822 0.76337 0.2721 0.0
C1127 C 0.11503 0.79642 0.24458 0.0
C1128 C 0.12803 0.79758 0.20101 0.0
C1129 C 0.15621 0.76686 0.18614 0.0
C1130 C 0.1729 0.73691 0.21364 0.0
C1131 C 0.20192 0.70684 0.18912 0.0
C1132 C 0.24933 0.71354 0.2041 0.0
C1133 C 0.18562 0.6594 0.19382 0.0
C1134 C 0.19618 0.72247 0.14314 0.0
C1135 C 0.16954 0.75705 0.14203 0.0
C1136 C 0.15507 0.77338 0.10284 0.0
C1137 C 0.16525 0.75151 0.06397 0.0
C1138 C 0.19032 0.71449 0.0649 0.0
C1139 C 0.20857 0.70204 0.10459 0.0
H1140 H 0.55119 0.15528 0.96879 0.0
H1141 H 0.45995 0.23615 0.03409 0.0
H1142 H 0.46882 0.19563 0.1019 0.0
H1143 H 0.51686 0.05155 0.03365 0.0
H1144 H 0.57183 0.03542 0.02939 0.0
H1145 H 0.54804 0.06589 0.9865 0.0
H1146 H 0.61536 0.12152 0.99598 0.0
H1147 H 0.63518 0.09198 0.04086 0.0
H1148 H 0.62392 0.14832 0.04819 0.0
H1149 H 0.4971 0.15508 0.16496 0.0
H1150 H 0.5436 0.11864 0.21734 0.0
H1151 H 0.61231 0.06068 0.10997 0.0
C1152 C 0.53185 0.16311 0.99698 0.0
C1153 C 0.50433 0.19805 0.99638 0.0
C1154 C 0.4803 0.20857 0.0339 0.0
C1155 C 0.4851 0.18576 0.07245 0.0
C1156 C 0.51289 0.1516 0.07237 0.0
C1157 C 0.53525 0.13976 0.03532 0.0
C1158 C 0.5658 0.10434 0.04473 0.0
C1159 C 0.5498 0.06172 0.02219 0.0
C1160 C 0.61281 0.11737 0.0317 0.0
C1161 C 0.56055 0.10142 0.09347 0.0
C1162 C 0.52883 0.12779 0.10878 0.0
C1163 C 0.52121 0.13343 0.15327 0.0
C1164 C 0.54761 0.11261 0.18279 0.0
C1165 C 0.58108 0.08666 0.1675 0.0
C1166 C 0.58649 0.07998 0.12234 0.0
H1167 H 0.10528 0.32999 0.19595 0.0
H1168 H 0.11839 0.19405 0.22191 0.0
H1169 H 0.16647 0.21412 0.28465 0.0
H1170 H 0.21458 0.36952 0.22557 0.0
H1171 H 0.1968 0.41824 0.25129 0.0
H1172 H 0.16624 0.39329 0.20665 0.0
H1173 H 0.09643 0.38818 0.25323 0.0
H1174 H 0.12671 0.41514 0.29659 0.0
H1175 H 0.09813 0.3639 0.30601 0.0
H1176 H 0.20617 0.25079 0.35069 0.0
H1177 H 0.2317 0.29941 0.41177 0.0
H1178 H 0.19689 0.41048 0.33793 0.0
C1179 C 0.11876 0.30437 0.21441 0.0
C1180 C 0.10836 0.26042 0.20387 0.0
C1181 C 0.12642 0.22793 0.22909 0.0
C1182 C 0.15367 0.23908 0.26484 0.0
C1183 C 0.16288 0.28292 0.2747 0.0
C1184 C 0.14616 0.31496 0.24978 0.0
C1185 C 0.15829 0.3596 0.26833 0.0
C1186 C 0.18562 0.38672 0.23605 0.0
C1187 C 0.1174 0.383 0.28187 0.0
C1188 C 0.18462 0.34797 0.30762 0.0
C1189 C 0.18667 0.30363 0.31125 0.0
C1190 C 0.20533 0.28556 0.34774 0.0
C1191 C 0.22025 0.31342 0.38215 0.0
C1192 C 0.21651 0.35877 0.37969 0.0
C1193 C 0.2005 0.37597 0.34081 0.0
H1194 H 0.0134 0.82314 0.49314 0.0
H1195 H 0.07182 0.93651 0.43068 0.0
H1196 H 0.03746 0.98366 0.48424 0.0
H1197 H 0.91655 0.86735 0.50834 0.0
H1198 H 0.90242 0.84576 0.56027 0.0
H1199 H 0.93712 0.81649 0.52451 0.0
H1200 H 3e-05 0.81597 0.57926 0.0
H1201 H 0.96539 0.8404 0.61892 0.0
H1202 H 0.01802 0.86551 0.60725 0.0
H1203 H 0.98675 0.01897 0.53781 0.0
H1204 H 0.93222 0.03852 0.59355 0.0
H1205 H 0.91106 0.90226 0.62223 0.0
C1206 C 0.02035 0.85776 0.49162 0.0
C1207 C 0.0454 0.87577 0.45753 0.0
C1208 C 0.05271 0.92155 0.45634 0.0
C1209 C 0.03335 0.94886 0.48675 0.0
C1210 C 0.00739 0.93014 0.51887 0.0
C1211 C 0.00167 0.8856 0.52204 0.0
C1212 C 0.96898 0.87366 0.55679 0.0
C1213 C 0.92897 0.84931 0.5363 0.0
C1214 C 0.98934 0.84733 0.59269 0.0
C1215 C 0.95802 0.91823 0.5733 0.0
C1216 C 0.97971 0.95056 0.55059 0.0
C1217 C 0.97078 0.99411 0.55713 0.0
C1218 C 0.93976 0.00493 0.58864 0.0
C1219 C 0.91745 0.97202 0.61228 0.0
C1220 C 0.92752 0.92831 0.60475 0.0
H1221 H 0.45695 0.64769 0.71492 0.0
H1222 H 0.42327 0.7823 0.72297 0.0
H1223 H 0.3584 0.76131 0.76589 0.0
H1224 H 0.34188 0.60017 0.70976 0.0
H1225 H 0.35587 0.55502 0.74189 0.0
H1226 H 0.39573 0.58023 0.70638 0.0
H1227 H 0.44919 0.59444 0.77276 0.0
H1228 H 0.40883 0.56589 0.80421 0.0
H1229 H 0.42852 0.6195 0.82149 0.0
H1230 H 0.30341 0.72779 0.816 0.0
H1231 H 0.26607 0.68533 0.87255 0.0
H1232 H 0.33026 0.57079 0.82744 0.0
C1233 C 0.43551 0.67267 0.72507 0.0
C1234 C 0.44535 0.71666 0.71568 0.0
C1235 C 0.41644 0.74836 0.72958 0.0
C1236 C 0.37943 0.73679 0.75398 0.0
C1237 C 0.37121 0.6933 0.76353 0.0
C1238 C 0.39802 0.6616 0.74892 0.0
C1239 C 0.38338 0.61763 0.76598 0.0
C1240 C 0.36836 0.58647 0.72874 0.0
C1241 C 0.41965 0.59839 0.7928 0.0
C1242 C 0.34536 0.62997 0.79414 0.0
C1243 C 0.33831 0.67361 0.7915 0.0
C1244 C 0.30806 0.69343 0.81785 0.0
C1245 C 0.28651 0.66874 0.84976 0.0
C1246 C 0.2953 0.62455 0.8551 0.0
C1247 C 0.323 0.60455 0.82476 0.0
H1248 H 0.51161 0.53455 0.84811 0.0
H1249 H 0.54144 0.66585 0.89427 0.0
H1250 H 0.49487 0.65281 0.95859 0.0
H1251 H 0.40238 0.53114 0.86742 0.0
H1252 H 0.40025 0.4752 0.88215 0.0
H1253 H 0.44312 0.49557 0.84791 0.0
H1254 H 0.4939 0.46325 0.90551 0.0
H1255 H 0.45028 0.45054 0.94288 0.0
H1256 H 0.49591 0.48589 0.95988 0.0
H1257 H 0.43642 0.632 0.00805 0.0
H1258 H 0.35887 0.61728 0.0204 0.0
H1259 H 0.36267 0.49888 0.94409 0.0
C1260 C 0.50898 0.56 0.87256 0.0
C1261 C 0.53021 0.60095 0.86698 0.0
C1262 C 0.52542 0.63421 0.89843 0.0
C1263 C 0.49966 0.62676 0.93533 0.0
C1264 C 0.47868 0.58598 0.94004 0.0
C1265 C 0.48233 0.55343 0.90887 0.0
C1266 C 0.45012 0.51583 0.91683 0.0
C1267 C 0.42244 0.50385 0.8761 0.0
C1268 C 0.47393 0.4765 0.93224 0.0
C1269 C 0.4236 0.53501 0.95344 0.0
C1270 C 0.44296 0.57394 0.96872 0.0
C1271 C 0.42128 0.60144 0.99684 0.0
C1272 C 0.37704 0.59249 0.00431 0.0
C1273 C 0.35501 0.5576 0.98193 0.0
C1274 C 0.37944 0.52549 0.96162 0.0
H1275 H 0.76645 0.24936 0.07172 0.0
H1276 H 0.81061 0.32087 0.18729 0.0
H1277 H 0.81638 0.25221 0.22627 0.0
H1278 H 0.69984 0.17514 0.11436 0.0
H1279 H 0.7146 0.12914 0.08162 0.0
H1280 H 0.72384 0.18266 0.06142 0.0
H1281 H 0.80545 0.16805 0.0506 0.0
H1282 H 0.79595 0.11428 0.07146 0.0
H1283 H 0.83692 0.15067 0.09585 0.0
H1284 H 0.79087 0.18225 0.25773 0.0
H1285 H 0.74512 0.11796 0.27549 0.0
H1286 H 0.73383 0.08406 0.13865 0.0
C1287 C 0.77745 0.25015 0.1052 0.0
C1288 C 0.78673 0.28992 0.12722 0.0
C1289 C 0.80243 0.29041 0.17042 0.0
C1290 C 0.80616 0.25164 0.1926 0.0
C1291 C 0.79519 0.21268 0.17067 0.0
C1292 C 0.7826 0.21155 0.1274 0.0
C1293 C 0.77 0.16576 0.1122 0.0
C1294 C 0.72438 0.16305 0.09127 0.0
C1295 C 0.80411 0.14869 0.08067 0.0
C1296 C 0.77119 0.14251 0.15516 0.0
C1297 C 0.78695 0.16992 0.1884 0.0
C1298 C 0.78073 0.15959 0.23204 0.0
C1299 C 0.75476 0.12258 0.24199 0.0
C1300 C 0.73541 0.0965 0.20829 0.0
C1301 C 0.74837 0.10375 0.16488 0.0
H1302 H 0.01673 0.51757 0.31396 0.0
H1303 H 0.92181 0.45541 0.39874 0.0
H1304 H 0.97516 0.45998 0.45897 0.0
H1305 H 0.10283 0.46708 0.34352 0.0
H1306 H 0.14201 0.51228 0.34137 0.0
H1307 H 0.09335 0.51269 0.30967 0.0
H1308 H 0.07587 0.58591 0.34705 0.0
H1309 H 0.12409 0.58462 0.38013 0.0
H1310 H 0.07178 0.58951 0.40544 0.0
H1311 H 0.04232 0.45305 0.50179 0.0
H1312 H 0.1164 0.43268 0.51983 0.0
H1313 H 0.16724 0.5081 0.41308 0.0
C1314 C 0.00708 0.50604 0.34571 0.0
C1315 C 0.96576 0.48571 0.35194 0.0
C1316 C 0.95357 0.47103 0.39357 0.0
C1317 C 0.98343 0.47402 0.42808 0.0
C1318 C 0.02456 0.49343 0.42089 0.0
C1319 C 0.03602 0.51011 0.38085 0.0
C1320 C 0.08357 0.5245 0.37971 0.0
C1321 C 0.1068 0.50284 0.34128 0.0
C1322 C 0.08916 0.5741 0.378 0.0
C1323 C 0.09829 0.50827 0.42323 0.0
C1324 C 0.06349 0.49189 0.44734 0.0
C1325 C 0.06967 0.4672 0.48422 0.0
C1326 C 0.11192 0.45593 0.49453 0.0
C1327 C 0.14718 0.46957 0.46811 0.0
C1328 C 0.14064 0.49879 0.43443 0.0
H1329 H 0.8116 0.70228 0.62337 0.0
H1330 H 0.67099 0.69914 0.6242 0.0
H1331 H 0.67331 0.7735 0.65564 0.0
H1332 H 0.83042 0.7731 0.72696 0.0
H1333 H 0.87757 0.79713 0.70134 0.0
H1334 H 0.86144 0.7416 0.68859 0.0
H1335 H 0.8617 0.76378 0.60641 0.0
H1336 H 0.8753 0.81865 0.62342 0.0
H1337 H 0.82772 0.80656 0.59024 0.0
H1338 H 0.6927 0.85484 0.6705 0.0
H1339 H 0.7277 0.92892 0.6802 0.0
H1340 H 0.85379 0.8736 0.67841 0.0
C1341 C 0.78129 0.71669 0.63146 0.0
C1342 C 0.74122 0.69531 0.62057 0.0
C1343 C 0.70217 0.71514 0.6317 0.0
C1344 C 0.70313 0.75738 0.64974 0.0
C1345 C 0.74338 0.77858 0.65793 0.0
C1346 C 0.78174 0.75813 0.6506 0.0
C1347 C 0.82081 0.78864 0.65874 0.0
C1348 C 0.84914 0.77406 0.69616 0.0
C1349 C 0.84786 0.79473 0.61712 0.0
C1350 C 0.79866 0.82932 0.67129 0.0
C1351 C 0.75402 0.82368 0.66996 0.0
C1352 C 0.72756 0.8591 0.67392 0.0
C1353 C 0.74752 0.90099 0.67947 0.0
C1354 C 0.79327 0.90653 0.68087 0.0
C1355 C 0.81866 0.87 0.67843 0.0
H1356 H 0.55842 0.48265 0.68467 0.0
H1357 H 0.54254 0.62044 0.67315 0.0
H1358 H 0.49404 0.60571 0.60946 0.0
H1359 H 0.56147 0.45606 0.57335 0.0
H1360 H 0.52773 0.40655 0.57285 0.0
H1361 H 0.56087 0.42188 0.61955 0.0
H1362 H 0.50032 0.42513 0.67517 0.0
H1363 H 0.46583 0.40041 0.63367 0.0
H1364 H 0.45064 0.44965 0.66066 0.0
H1365 H 0.43557 0.57364 0.55815 0.0
H1366 H 0.37416 0.52837 0.52747 0.0
H1367 H 0.4386 0.41295 0.56198 0.0
C1368 C 0.54513 0.50986 0.66854 0.0
C1369 C 0.55388 0.55267 0.68399 0.0
C1370 C 0.53605 0.58735 0.66183 0.0
C1371 C 0.50878 0.57926 0.62548 0.0
C1372 C 0.5007 0.5364 0.6111 0.0
C1373 C 0.51874 0.5024 0.63198 0.0
C1374 C 0.50271 0.4591 0.61296 0.0
C1375 C 0.54032 0.43442 0.59339 0.0
C1376 C 0.47846 0.43198 0.64768 0.0
C1377 C 0.4718 0.47369 0.57847 0.0
C1378 C 0.47057 0.51846 0.57811 0.0
C1379 C 0.43726 0.53875 0.55682 0.0
C1380 C 0.40262 0.51281 0.53885 0.0
C1381 C 0.40202 0.46721 0.542 0.0
C1382 C 0.4391 0.44774 0.55807 0.0
H1383 H 0.77599 0.24042 0.98315 0.0
H1384 H 0.83832 0.34964 0.91835 0.0
H1385 H 0.83228 0.30933 0.84787 0.0
H1386 H 0.82769 0.16367 0.93244 0.0
H1387 H 0.78339 0.12335 0.92822 0.0
H1388 H 0.78303 0.16428 0.97022 0.0
H1389 H 0.70851 0.18698 0.94367 0.0
H1390 H 0.7083 0.14667 0.90041 0.0
H1391 H 0.70147 0.20267 0.88819 0.0
H1392 H 0.83728 0.25135 0.79069 0.0
H1393 H 0.85267 0.18189 0.75393 0.0
H1394 H 0.77884 0.11251 0.8519 0.0
C1395 C 0.78676 0.25624 0.95368 0.0
C1396 C 0.80745 0.29783 0.95565 0.0
C1397 C 0.82203 0.31776 0.91704 0.0
C1398 C 0.81842 0.29525 0.87694 0.0
C1399 C 0.79884 0.25352 0.87599 0.0
C1400 C 0.78228 0.23463 0.91333 0.0
C1401 C 0.76812 0.18765 0.9051 0.0
C1402 C 0.79199 0.15801 0.93578 0.0
C1403 C 0.71867 0.1806 0.90956 0.0
C1404 C 0.78243 0.18193 0.8583 0.0
C1405 C 0.79952 0.22045 0.84171 0.0
C1406 C 0.82259 0.22133 0.80257 0.0
C1407 C 0.83082 0.18178 0.78148 0.0
C1408 C 0.81601 0.14217 0.79973 0.0
C1409 C 0.78891 0.14264 0.83663 0.0
H1410 H 0.97846 0.58522 0.22938 0.0
H1411 H 0.91357 0.48008 0.1549 0.0
H1412 H 0.97525 0.4791 0.10442 0.0
H1413 H 0.07258 0.65853 0.16929 0.0
H1414 H 0.02535 0.64728 0.202 0.0
H1415 H 0.02124 0.64416 0.1435 0.0
H1416 H 0.06604 0.58932 0.2425 0.0
H1417 H 0.11364 0.59695 0.20928 0.0
H1418 H 0.08709 0.54423 0.21265 0.0
H1419 H 0.04131 0.49351 0.05806 0.0
H1420 H 0.09915 0.53044 0.01443 0.0
H1421 H 0.12362 0.62212 0.12128 0.0
C1422 C 0.97723 0.5622 0.20232 0.0
C1423 C 0.94134 0.53287 0.19607 0.0
C1424 C 0.94095 0.50286 0.16047 0.0
C1425 C 0.97583 0.50187 0.13158 0.0
C1426 C 0.01093 0.53102 0.13863 0.0
C1427 C 0.01183 0.5607 0.17302 0.0
C1428 C 0.05273 0.58945 0.17244 0.0
C1429 C 0.04235 0.63768 0.17174 0.0
C1430 C 0.08157 0.57948 0.21148 0.0
C1431 C 0.07228 0.57427 0.12995 0.0
C1432 C 0.0487 0.53944 0.11174 0.0
C1433 C 0.0593 0.52163 0.07125 0.0
C1434 C 0.09249 0.54242 0.04693 0.0
C1435 C 0.11459 0.58029 0.06367 0.0
C1436 C 0.10609 0.5943 0.10684 0.0
H1437 H 0.68091 0.77595 0.51949 0.0
H1438 H 0.72102 0.68698 0.41818 0.0
H1439 H 0.72409 0.74705 0.36579 0.0
H1440 H 0.61222 0.83487 0.45957 0.0
H1441 H 0.62742 0.88623 0.48542 0.0
H1442 H 0.63297 0.83701 0.51444 0.0
H1443 H 0.71471 0.85804 0.52763 0.0
H1444 H 0.7093 0.90726 0.49812 0.0
H1445 H 0.74952 0.86984 0.48188 0.0
H1446 H 0.70518 0.81418 0.32164 0.0
H1447 H 0.67691 0.88251 0.29452 0.0
H1448 H 0.6638 0.92878 0.42772 0.0
C1449 C 0.69051 0.76899 0.48631 0.0
C1450 C 0.69932 0.72659 0.47253 0.0
C1451 C 0.71297 0.71907 0.42915 0.0
C1452 C 0.71483 0.75294 0.3992 0.0
C1453 C 0.70407 0.79415 0.41354 0.0
C1454 C 0.69352 0.80234 0.45653 0.0
C1455 C 0.68267 0.84884 0.46427 0.0
C1456 C 0.63609 0.85188 0.48194 0.0
C1457 C 0.71606 0.87238 0.49477 0.0
C1458 C 0.68654 0.86521 0.41848 0.0
C1459 C 0.69855 0.83343 0.38929 0.0
C1460 C 0.69701 0.83967 0.34436 0.0
C1461 C 0.68115 0.87865 0.32916 0.0
C1462 C 0.66758 0.91074 0.35898 0.0
C1463 C 0.67325 0.90466 0.40398 0.0
H1464 H 0.77252 0.46633 0.51129 0.0
H1465 H 0.86459 0.57508 0.53219 0.0
H1466 H 0.92499 0.52548 0.53066 0.0
H1467 H 0.81523 0.39153 0.57534 0.0
H1468 H 0.80543 0.34644 0.53822 0.0
H1469 H 0.77302 0.39268 0.53483 0.0
H1470 H 0.7961 0.39631 0.45274 0.0
H1471 H 0.8301 0.35129 0.45998 0.0
H1472 H 0.85297 0.40152 0.43924 0.0
H1473 H 0.97135 0.4652 0.54564 0.0
H1474 H 0.99776 0.4001 0.57936 0.0
H1475 H 0.87962 0.32831 0.54138 0.0
C1476 C 0.80561 0.47944 0.51447 0.0
C1477 C 0.81429 0.52423 0.52203 0.0
C1478 C 0.85762 0.54075 0.52629 0.0
C1479 C 0.89208 0.51288 0.52506 0.0
C1480 C 0.88277 0.46863 0.51828 0.0
C1481 C 0.84061 0.45198 0.51227 0.0
C1482 C 0.83928 0.40285 0.50931 0.0
C1483 C 0.80631 0.3823 0.54139 0.0
C1484 C 0.82904 0.3871 0.46252 0.0
C1485 C 0.88601 0.39453 0.52122 0.0
C1486 C 0.91101 0.43297 0.52416 0.0
C1487 C 0.95277 0.43469 0.54197 0.0
C1488 C 0.96803 0.39724 0.56048 0.0
C1489 C 0.9409 0.35917 0.56243 0.0
C1490 C 0.9015 0.35664 0.53862 0.0
H1491 H 0.27509 0.98722 0.55496 0.0
H1492 H 0.39035 0.94097 0.61639 0.0
H1493 H 0.43534 0.99689 0.57923 0.0
H1494 H 0.31985 -0.00023 0.45472 0.0
H1495 H 0.29239 0.04773 0.44084 0.0
H1496 H 0.26813 0.01045 0.47888 0.0
H1497 H 0.26372 0.07236 0.53667 0.0
H1498 H 0.28764 0.11011 0.49858 0.0
H1499 H 0.31208 0.10456 0.55132 0.0
H1500 H 0.46886 0.04925 0.52604 0.0
H1501 H 0.48764 0.09486 0.46295 0.0
H1502 H 0.35059 0.10679 0.43669 0.0
C1503 C 0.30961 0.98954 0.56162 0.0
C1504 C 0.32895 0.95989 0.58905 0.0
C1505 C 0.3745 0.96364 0.59608 0.0
C1506 C 0.40043 0.99541 0.57515 0.0
C1507 C 0.3804 0.02322 0.54723 0.0
C1508 C 0.33596 0.02075 0.54069 0.0
C1509 C 0.32288 0.0509 0.50542 0.0
C1510 C 0.29945 0.02569 0.46776 0.0
C1511 C 0.29493 0.08661 0.52413 0.0
C1512 C 0.36701 0.06916 0.49169 0.0
C1513 C 0.39981 0.05345 0.51658 0.0
C1514 C 0.44347 0.0628 0.50716 0.0
C1515 C 0.45382 0.08862 0.47125 0.0
C1516 C 0.42056 0.10437 0.44501 0.0
C1517 C 0.37672 0.09509 0.45608 0.0
H1518 H 0.29766 0.16903 0.67058 0.0
H1519 H 0.30215 0.14723 0.80936 0.0
H1520 H 0.23228 0.1817 0.81836 0.0
H1521 H 0.23996 0.27498 0.6741 0.0
H1522 H 0.211 0.25782 0.6256 0.0
H1523 H 0.26485 0.23969 0.63479 0.0
H1524 H 0.23026 0.16033 0.62392 0.0
H1525 H 0.17704 0.18087 0.61883 0.0
H1526 H 0.18743 0.14212 0.66007 0.0
H1527 H 0.15741 0.20781 0.81082 0.0
H1528 H 0.08296 0.22074 0.78595 0.0
H1529 H 0.12896 0.23378 0.65421 0.0
C1530 C 0.28459 0.17278 0.70303 0.0
C1531 C 0.30575 0.15608 0.73938 0.0
C1532 C 0.28694 0.16042 0.78113 0.0
C1533 C 0.24715 0.17986 0.78657 0.0
C1534 C 0.22704 0.19599 0.75012 0.0
C1535 C 0.24519 0.19286 0.70913 0.0
C1536 C 0.21447 0.20792 0.67469 0.0
C1537 C 0.23386 0.24742 0.65085 0.0
C1538 C 0.20154 0.1706 0.64251 0.0
C1539 C 0.17649 0.22021 0.70269 0.0
C1540 C 0.1843 0.21306 0.74616 0.0
C1541 C 0.15156 0.21562 0.77724 0.0
C1542 C 0.10956 0.22411 0.7632 0.0
C1543 C 0.10114 0.23196 0.71898 0.0
C1544 C 0.13538 0.23109 0.68868 0.0
H1545 H 0.2962 0.00901 0.0436 0.0
H1546 H 0.19065 0.05497 0.12235 0.0
H1547 H 0.15134 0.98404 0.11297 0.0
H1548 H 0.23294 0.96255 0.96592 0.0
H1549 H 0.26621 0.91747 0.95415 0.0
H1550 H 0.29044 0.96673 0.97697 0.0
H1551 H 0.32144 0.92337 0.03871 0.0
H1552 H 0.29513 0.87315 0.01932 0.0
H1553 H 0.28583 0.89274 0.07399 0.0
H1554 H 0.11579 0.91813 0.07892 0.0
H1555 H 0.08802 0.86517 0.02361 0.0
H1556 H 0.21797 0.85679 0.97155 0.0
C1557 C 0.26545 0.00378 0.06011 0.0
C1558 C 0.24655 0.03763 0.08365 0.0
C1559 C 0.20595 0.02954 0.10424 0.0
C1560 C 0.18346 0.98916 0.09929 0.0
C1561 C 0.2021 0.95708 0.07402 0.0
C1562 C 0.24248 0.9639 0.05509 0.0
C1563 C 0.25243 0.92748 0.02369 0.0
C1564 C 0.26095 0.94459 0.9775 0.0
C1565 C 0.29097 0.90264 0.03988 0.0
C1566 C 0.21026 0.90033 0.02581 0.0
C1567 C 0.18181 0.91752 0.05551 0.0
C1568 C 0.13815 0.90336 0.0567 0.0
C1569 C 0.12259 0.87301 0.02511 0.0
C1570 C 0.15073 0.85711 0.99283 0.0
C1571 C 0.19558 0.86862 0.99557 0.0
H1572 H 0.71991 0.49073 0.70171 0.0
H1573 H 0.73086 0.48644 0.84207 0.0
H1574 H 0.78503 0.4297 0.83437 0.0
H1575 H 0.71889 0.38486 0.68068 0.0
H1576 H 0.75238 0.38416 0.63246 0.0
H1577 H 0.72114 0.43031 0.64532 0.0
H1578 H 0.78561 0.48405 0.64795 0.0
H1579 H 0.82054 0.44213 0.63091 0.0
H1580 H 0.8329 0.47328 0.67964 0.0
H1581 H 0.84613 0.37891 0.80722 0.0
H1582 H 0.89843 0.336 0.76522 0.0
H1583 H 0.8273 0.36046 0.64711 0.0
C1584 C 0.73391 0.47829 0.73097 0.0
C1585 C 0.72173 0.49317 0.77239 0.0
C1586 C 0.74019 0.47548 0.80991 0.0
C1587 C 0.77095 0.44341 0.80583 0.0
C1588 C 0.78187 0.42904 0.7641 0.0
C1589 C 0.76338 0.44594 0.72755 0.0
C1590 C 0.77869 0.42492 0.68633 0.0
C1591 C 0.74056 0.40477 0.65952 0.0
C1592 C 0.806 0.458 0.65964 0.0
C1593 C 0.80662 0.39132 0.70519 0.0
C1594 C 0.81062 0.39568 0.74979 0.0
C1595 C 0.84219 0.37417 0.77246 0.0
C1596 C 0.87154 0.34948 0.74842 0.0
C1597 C 0.86787 0.34559 0.70251 0.0
C1598 C 0.83233 0.36375 0.68186 0.0
H1599 H 0.69354 0.45369 0.14987 0.0
H1600 H 0.7115 0.50336 0.02014 0.0
H1601 H 0.6553 0.55651 0.03447 0.0
H1602 H 0.58088 0.45857 0.14828 0.0
H1603 H 0.57251 0.47534 0.2042 0.0
H1604 H 0.61739 0.44293 0.18979 0.0
H1605 H 0.67833 0.49819 0.21688 0.0
H1606 H 0.63288 0.52292 0.24105 0.0
H1607 H 0.67088 0.55496 0.20864 0.0
H1608 H 0.60047 0.60792 0.06609 0.0
H1609 H 0.55258 0.65199 0.11119 0.0
H1610 H 0.56274 0.56086 0.21598 0.0
C1611 C 0.686 0.47616 0.12473 0.0
C1612 C 0.70728 0.47508 0.08425 0.0
C1613 C 0.69565 0.50397 0.05153 0.0
C1614 C 0.6638 0.5342 0.05939 0.0
C1615 C 0.64323 0.53437 0.09977 0.0
C1616 C 0.65368 0.50575 0.13166 0.0
C1617 C 0.62573 0.51097 0.17152 0.0
C1618 C 0.59734 0.46954 0.1789 0.0
C1619 C 0.65375 0.52266 0.21182 0.0
C1620 C 0.59888 0.54832 0.15794 0.0
C1621 C 0.60961 0.56156 0.11653 0.0
C1622 C 0.59151 0.5976 0.09841 0.0
C1623 C 0.56368 0.62218 0.12414 0.0
C1624 C 0.55377 0.61044 0.16748 0.0
C1625 C 0.56986 0.57139 0.18327 0.0
H1626 H 0.34551 0.9188 0.76005 0.0
H1627 H 0.26833 0.01519 0.70131 0.0
H1628 H 0.201 0.97341 0.72207 0.0
H1629 H 0.27595 0.8225 0.7392 0.0
H1630 H 0.28196 0.80038 0.79246 0.0
H1631 H 0.32559 0.83308 0.76885 0.0
H1632 H 0.32907 0.88725 0.83292 0.0
H1633 H 0.28839 0.85401 0.85987 0.0
H1634 H 0.28001 0.9106 0.85198 0.0
H1635 H 0.14269 0.92506 0.75575 0.0
H1636 H 0.09949 0.88211 0.80913 0.0
H1637 H 0.21535 0.81986 0.84866 0.0
C1638 C 0.31435 0.9302 0.75041 0.0
C1639 C 0.31163 0.96941 0.72842 0.0
C1640 C 0.27063 0.98475 0.7178 0.0
C1641 C 0.23242 0.96109 0.72913 0.0
C1642 C 0.23603 0.92249 0.75134 0.0
C1643 C 0.27607 0.90764 0.76253 0.0
C1644 C 0.27152 0.86987 0.79286 0.0
C1645 C 0.28976 0.82899 0.77212 0.0
C1646 C 0.29352 0.88114 0.83699 0.0
C1647 C 0.22268 0.86574 0.79723 0.0
C1648 C 0.2026 0.89579 0.77241 0.0
C1649 C 0.15792 0.9009 0.77474 0.0
C1650 C 0.13354 0.8762 0.80479 0.0
C1651 C 0.15417 0.84736 0.83221 0.0
C1652 C 0.19884 0.84097 0.82713 0.0
H1653 H 0.22091 0.014 0.22868 0.0
H1654 H 0.16791 0.13825 0.20391 0.0
H1655 H 0.24125 0.17317 0.2072 0.0
H1656 H 0.28481 0.0392 0.30489 0.0
H1657 H 0.33177 0.00952 0.29062 0.0
H1658 H 0.27963 0.99166 0.26976 0.0
H1659 H 0.30568 0.99882 0.18778 0.0
H1660 H 0.3582 0.00911 0.21241 0.0
H1661 H 0.33814 0.04624 0.17353 0.0
H1662 H 0.31064 0.19641 0.2394 0.0
H1663 H 0.37392 0.2063 0.28759 0.0
H1664 H 0.38543 0.06728 0.28935 0.0
C1665 C 0.2252 0.04825 0.22218 0.0
C1666 C 0.18901 0.07365 0.21694 0.0
C1667 C 0.19533 0.11827 0.20825 0.0
C1668 C 0.23698 0.13834 0.20975 0.0
C1669 C 0.27194 0.11297 0.21843 0.0
C1670 C 0.26669 0.06855 0.2229 0.0
C1671 C 0.30815 0.04965 0.23825 0.0
C1672 C 0.30057 0.02091 0.27826 0.0
C1673 C 0.32883 0.02451 0.20074 0.0
C1674 C 0.33487 0.09088 0.24903 0.0
C1675 C 0.3143 0.12695 0.23514 0.0
C1676 C 0.32873 0.16874 0.24774 0.0
C1677 C 0.36452 0.17399 0.27558 0.0
C1678 C 0.38476 0.1375 0.29162 0.0
C1679 C 0.37081 0.09561 0.27679 0.0
loop_
_geom_bond_atom_site_label_1
_geom_bond_atom_site_label_2
_geom_bond_distance
_geom_bond_site_symmetry_2
_ccdc_geom_bond_type
Co0 O1 2.216 . S
Co0 O2 2.091 . S
Co0 O4 2.004 1_455 S
Co0 O10 2.021 1_455 S
Co0 O12 2.137 . S
Co0 O13 2.244 . S
O1 Co0 2.216 . S
O1 C8 1.247 . S
O2 Co0 2.091 . S
O2 C8 1.261 . S
C3 O12 1.247 . S
C3 O13 1.272 . S
O4 Co0 2.004 1_655 S
O4 C9 1.259 . S
Co5 O6 2.061 1_455 S
Co5 O11 2.052 1_455 S
Co5 O13 2.135 . S
O6 Co5 2.061 1_655 S
O6 C9 1.235 . S
C7 O10 1.238 . S
C7 O11 1.241 . S
C8 O1 1.247 . S
C8 O2 1.261 . S
C9 O4 1.259 . S
C9 O6 1.235 . S
O10 Co0 2.021 1_655 S
O10 C7 1.238 . S
O11 Co5 2.052 1_655 S
O11 C7 1.241 . S
O12 Co0 2.137 . S
O12 C3 1.247 . S
O13 Co0 2.244 . S
O13 C3 1.272 . S
O13 Co5 2.135 . S
Co14 O15 2.216 . S
Co14 O16 2.091 1_455 S
Co14 O18 2.004 1_455 S
Co14 O24 2.021 1_455 S
Co14 O26 2.137 . S
Co14 O27 2.244 . S
O15 Co14 2.216 . S
O15 C22 1.247 . S
O16 Co14 2.091 1_655 S
O16 C22 1.253 1_655 S
C17 O26 1.247 . S
C17 O27 1.272 . S
O18 Co14 2.004 1_655 S
O18 C23 1.259 . S
Co19 O20 2.061 1_455 S
Co19 O25 2.052 1_455 S
Co19 O27 2.135 . S
O20 Co19 2.061 1_655 S
O20 C23 1.235 . S
C21 O24 1.238 . S
C21 O25 1.241 . S
C22 O15 1.247 . S
C22 O16 1.253 1_455 S
C23 O18 1.259 . S
C23 O20 1.235 . S
O24 Co14 2.021 1_655 S
O24 C21 1.238 . S
O25 Co19 2.052 1_655 S
O25 C21 1.241 . S
O26 Co14 2.137 . S
O26 C17 1.247 . S
O27 Co14 2.244 . S
O27 C17 1.272 . S
O27 Co19 2.135 . S
Co28 O29 2.216 . S
Co28 O30 2.091 . S
Co28 O32 2.004 . S
Co28 O38 2.021 . S
Co28 O40 2.137 . S
Co28 O41 2.244 . S
O29 Co28 2.216 . S
O29 C36 1.247 . S
O30 Co28 2.091 . S
O30 C36 1.261 . S
C31 O40 1.247 . S
C31 O41 1.272 . S
O32 Co28 2.004 . S
O32 C37 1.259 . S
Co33 O34 2.061 . S
Co33 O39 2.052 . S
Co33 O41 2.135 . S
O34 Co33 2.061 . S
O34 C37 1.235 . S
C35 O38 1.238 . S
C35 O39 1.241 . S
C36 O29 1.247 . S
C36 O30 1.261 . S
C37 O32 1.259 . S
C37 O34 1.235 . S
O38 Co28 2.021 . S
O38 C35 1.238 . S
O39 Co33 2.052 . S
O39 C35 1.241 . S
O40 Co28 2.137 . S
O40 C31 1.247 . S
O41 Co28 2.244 . S
O41 C31 1.272 . S
O41 Co33 2.135 . S
Co42 O43 2.216 . S
Co42 O44 2.091 . S
Co42 O46 2.004 . S
Co42 O52 2.021 . S
Co42 O54 2.137 . S
Co42 O55 2.244 . S
O43 Co42 2.216 . S
O43 C50 1.247 . S
O44 Co42 2.091 . S
O44 C50 1.261 . S
C45 O54 1.247 . S
C45 O55 1.272 . S
O46 Co42 2.004 . S
O46 C51 1.259 . S
Co47 O48 2.061 . S
Co47 O53 2.052 . S
Co47 O55 2.135 . S
O48 Co47 2.061 . S
O48 C51 1.235 . S
C49 O52 1.238 . S
C49 O53 1.241 . S
C50 O43 1.247 . S
C50 O44 1.261 . S
C51 O46 1.259 . S
C51 O48 1.235 . S
O52 Co42 2.021 . S
O52 C49 1.238 . S
O53 Co47 2.052 . S
O53 C49 1.241 . S
O54 Co42 2.137 . S
O54 C45 1.247 . S
O55 Co42 2.244 . S
O55 C45 1.272 . S
O55 Co47 2.135 . S
Co56 O57 2.216 . S
Co56 O58 2.091 . S
Co56 O60 2.004 1_565 S
Co56 O66 2.021 1_565 S
Co56 O68 2.137 . S
Co56 O69 2.244 1_565 S
O57 Co56 2.216 . S
O57 C64 1.247 . S
O58 Co56 2.091 . S
O58 C64 1.261 . S
C59 O68 1.247 . S
C59 O69 1.272 1_565 S
O60 Co56 2.004 1_545 S
O60 C65 1.259 . S
Co61 O62 2.061 . S
Co61 O67 2.052 . S
Co61 O69 2.135 . S
O62 Co61 2.061 . S
O62 C65 1.235 . S
C63 O66 1.238 . S
C63 O67 1.241 . S
C64 O57 1.247 . S
C64 O58 1.261 . S
C65 O60 1.259 . S
C65 O62 1.235 . S
O66 Co56 2.021 1_545 S
O66 C63 1.238 . S
O67 Co61 2.052 . S
O67 C63 1.241 . S
O68 Co56 2.137 . S
O68 C59 1.247 . S
O69 Co56 2.244 1_545 S
O69 C59 1.272 1_545 S
O69 Co61 2.135 . S
Co70 O71 2.216 . S
Co70 O72 2.091 . S
Co70 O74 2.004 . S
Co70 O80 2.021 . S
Co70 O82 2.137 . S
Co70 O83 2.244 . S
O71 Co70 2.216 . S
O71 C78 1.247 . S
O72 Co70 2.091 . S
O72 C78 1.261 . S
C73 O82 1.247 . S
C73 O83 1.272 . S
O74 Co70 2.004 . S
O74 C79 1.259 . S
Co75 O76 2.061 . S
Co75 O81 2.052 . S
Co75 O83 2.135 . S
O76 Co75 2.061 . S
O76 C79 1.235 . S
C77 O80 1.238 . S
C77 O81 1.241 . S
C78 O71 1.247 . S
C78 O72 1.261 . S
C79 O74 1.259 . S
C79 O76 1.235 . S
O80 Co70 2.021 . S
O80 C77 1.238 . S
O81 Co75 2.052 . S
O81 C77 1.241 . S
O82 Co70 2.137 . S
O82 C73 1.247 . S
O83 Co70 2.244 . S
O83 C73 1.272 . S
O83 Co75 2.135 . S
Co84 O85 2.216 . S
Co84 O86 2.091 . S
Co84 O88 2.004 . S
Co84 O94 2.021 . S
Co84 O96 2.137 . S
Co84 O97 2.244 . S
O85 Co84 2.216 . S
O85 C92 1.247 . S
O86 Co84 2.091 . S
O86 C92 1.261 . S
C87 O96 1.247 . S
C87 O97 1.272 . S
O88 Co84 2.004 . S
O88 C93 1.259 . S
Co89 O90 2.061 . S
Co89 O95 2.052 . S
Co89 O97 2.135 1_565 S
O90 Co89 2.061 . S
O90 C93 1.235 1_565 S
C91 O94 1.238 1_565 S
C91 O95 1.241 . S
C92 O85 1.247 . S
C92 O86 1.261 . S
C93 O88 1.259 . S
C93 O90 1.235 1_545 S
O94 Co84 2.021 . S
O94 C91 1.238 1_545 S
O95 Co89 2.052 . S
O95 C91 1.241 . S
O96 Co84 2.137 . S
O96 C87 1.247 . S
O97 Co84 2.244 . S
O97 C87 1.272 . S
O97 Co89 2.135 1_545 S
Co98 O99 2.216 . S
Co98 O100 2.091 1_554 S
Co98 O102 2.004 1_554 S
Co98 O108 2.021 1_554 S
Co98 O110 2.137 . S
Co98 O111 2.244 . S
O99 Co98 2.216 . S
O99 C106 1.247 . S
O100 Co98 2.091 1_556 S
O100 C106 1.261 1_556 S
C101 O110 1.247 . S
C101 O111 1.272 . S
O102 Co98 2.004 1_556 S
O102 C107 1.259 . S
Co103 O104 2.059 1_554 S
Co103 O109 2.052 1_554 S
Co103 O111 2.137 . S
O104 Co103 2.059 1_556 S
O104 C107 1.235 . S
C105 O108 1.238 . S
C105 O109 1.241 . S
C106 O99 1.247 . S
C106 O100 1.261 1_554 S
C107 O102 1.259 . S
C107 O104 1.235 . S
O108 Co98 2.021 1_556 S
O108 C105 1.238 . S
O109 Co103 2.052 1_556 S
O109 C105 1.241 . S
O110 Co98 2.137 . S
O110 C101 1.247 . S
O111 Co98 2.244 . S
O111 C101 1.272 . S
O111 Co103 2.137 . S
Co112 O113 2.216 . S
Co112 O114 2.091 . S
Co112 O116 2.004 1_554 S
Co112 O122 2.021 1_554 S
Co112 O124 2.137 . S
Co112 O125 2.244 . S
O113 Co112 2.216 . S
O113 C120 1.247 . S
O114 Co112 2.091 . S
O114 C120 1.261 . S
C115 O124 1.247 . S
C115 O125 1.272 . S
O116 Co112 2.004 1_556 S
O116 C121 1.259 . S
Co117 O118 2.061 1_554 S
Co117 O123 2.052 . S
Co117 O125 2.135 . S
O118 Co117 2.061 1_556 S
O118 C121 1.235 . S
C119 O122 1.238 . S
C119 O123 1.241 1_556 S
C120 O113 1.247 . S
C120 O114 1.261 . S
C121 O116 1.259 . S
C121 O118 1.235 . S
O122 Co112 2.021 1_556 S
O122 C119 1.238 . S
O123 Co117 2.052 . S
O123 C119 1.241 1_554 S
O124 Co112 2.137 . S
O124 C115 1.247 . S
O125 Co112 2.244 . S
O125 C115 1.272 . S
O125 Co117 2.135 . S
Co126 O127 2.216 . S
Co126 O128 2.091 . S
Co126 O130 2.004 . S
Co126 O136 2.021 . S
Co126 O138 2.137 . S
Co126 O139 2.244 . S
O127 Co126 2.216 . S
O127 C134 1.247 . S
O128 Co126 2.091 . S
O128 C134 1.261 . S
C129 O138 1.247 . S
C129 O139 1.272 . S
O130 Co126 2.004 . S
O130 C135 1.259 . S
Co131 O132 2.061 . S
Co131 O137 2.052 . S
Co131 O139 2.135 . S
O132 Co131 2.061 . S
O132 C135 1.235 . S
C133 O136 1.238 . S
C133 O137 1.241 . S
C134 O127 1.247 . S
C134 O128 1.261 . S
C135 O130 1.259 . S
C135 O132 1.235 . S
O136 Co126 2.021 . S
O136 C133 1.238 . S
O137 Co131 2.052 . S
O137 C133 1.241 . S
O138 Co126 2.137 . S
O138 C129 1.247 . S
O139 Co126 2.244 . S
O139 C129 1.272 . S
O139 Co131 2.135 . S
Co140 O141 2.216 . S
Co140 O142 2.091 . S
Co140 O144 2.004 . S
Co140 O150 2.021 . S
Co140 O152 2.137 . S
Co140 O153 2.244 . S
O141 Co140 2.216 . S
O141 C148 1.247 . S
O142 Co140 2.091 . S
O142 C148 1.261 . S
C143 O152 1.247 . S
C143 O153 1.272 . S
O144 Co140 2.004 . S
O144 C149 1.259 . S
Co145 O146 2.061 . S
Co145 O151 2.052 . S
Co145 O153 2.135 . S
O146 Co145 2.061 . S
O146 C149 1.235 . S
C147 O150 1.238 . S
C147 O151 1.241 . S
C148 O141 1.247 . S
C148 O142 1.261 . S
C149 O144 1.259 . S
C149 O146 1.235 . S
O150 Co140 2.021 . S
O150 C147 1.238 . S
O151 Co145 2.052 . S
O151 C147 1.241 . S
O152 Co140 2.137 . S
O152 C143 1.247 . S
O153 Co140 2.244 . S
O153 C143 1.272 . S
O153 Co145 2.135 . S
Co154 O155 2.216 . S
Co154 O156 2.091 . S
Co154 O158 2.004 . S
Co154 O164 2.021 . S
Co154 O166 2.137 . S
Co154 O167 2.244 . S
O155 Co154 2.216 . S
O155 C162 1.247 . S
O156 Co154 2.091 . S
O156 C162 1.261 . S
C157 O166 1.247 . S
C157 O167 1.272 . S
O158 Co154 2.004 . S
O158 C163 1.259 . S
Co159 O160 2.061 . S
Co159 O165 2.052 . S
Co159 O167 2.135 . S
O160 Co159 2.061 . S
O160 C163 1.235 . S
C161 O164 1.238 . S
C161 O165 1.241 . S
C162 O155 1.247 . S
C162 O156 1.261 . S
C163 O158 1.259 . S
C163 O160 1.235 . S
O164 Co154 2.021 . S
O164 C161 1.238 . S
O165 Co159 2.052 . S
O165 C161 1.241 . S
O166 Co154 2.137 . S
O166 C157 1.247 . S
O167 Co154 2.244 . S
O167 C157 1.272 . S
O167 Co159 2.135 . S
H168 C174 0.930 . S
H169 C177 0.931 . S
H170 C179 0.931 . S
H171 C181 0.930 . S
H172 C183 0.930 . S
H173 C185 0.931 . S
C174 H168 0.930 . S
C174 C175 1.380 . S
C174 C176 1.394 . S
C175 C174 1.380 . S
C175 C179 1.382 . S
C176 C174 1.394 . S
C176 C177 1.400 . S
C177 H169 0.931 . S
C177 C176 1.400 . S
C177 C178 1.375 . S
C178 C177 1.375 . S
C178 C179 1.415 . S
C178 C180 1.501 1_655 S
C179 H170 0.931 . S
C179 C175 1.382 . S
C179 C178 1.415 . S
C180 C178 1.501 1_455 S
C180 C181 1.384 . S
C180 C185 1.408 . S
C181 H171 0.930 . S
C181 C180 1.384 . S
C181 C182 1.389 . S
C182 C181 1.389 . S
C182 C183 1.405 . S
C183 H172 0.930 . S
C183 C182 1.405 . S
C183 C184 1.364 . S
C184 C183 1.364 . S
C184 C185 1.400 . S
C185 H173 0.931 . S
C185 C180 1.408 . S
C185 C184 1.400 . S
H186 C192 0.930 . S
H187 C195 0.931 1_455 S
H188 C197 0.931 . S
H189 C199 0.930 . S
H190 C201 0.930 . S
H191 C203 0.931 . S
C192 H186 0.930 . S
C192 C193 1.380 . S
C192 C194 1.394 . S
C193 C192 1.380 . S
C193 C197 1.382 . S
C194 C192 1.394 . S
C194 C195 1.400 . S
C195 H187 0.931 1_655 S
C195 C194 1.400 . S
C195 C196 1.375 . S
C196 C195 1.375 . S
C196 C197 1.415 . S
C196 C198 1.501 1_655 S
C197 H188 0.931 . S
C197 C193 1.382 . S
C197 C196 1.415 . S
C198 C196 1.501 1_455 S
C198 C199 1.384 . S
C198 C203 1.408 . S
C199 H189 0.930 . S
C199 C198 1.384 . S
C199 C200 1.389 . S
C200 C199 1.389 . S
C200 C201 1.405 . S
C201 H190 0.930 . S
C201 C200 1.405 . S
C201 C202 1.364 . S
C202 C201 1.364 . S
C202 C203 1.400 . S
C203 H191 0.931 . S
C203 C198 1.408 . S
C203 C202 1.400 . S
H204 C210 0.930 . S
H205 C213 0.931 . S
H206 C215 0.931 . S
H207 C217 0.930 . S
H208 C219 0.930 . S
H209 C221 0.931 . S
C210 H204 0.930 . S
C210 C211 1.380 . S
C210 C212 1.394 . S
C211 C210 1.380 . S
C211 C215 1.382 . S
C212 C210 1.394 . S
C212 C213 1.400 . S
C213 H205 0.931 . S
C213 C212 1.400 . S
C213 C214 1.375 . S
C214 C213 1.375 . S
C214 C215 1.415 . S
C214 C216 1.501 . S
C215 H206 0.931 . S
C215 C211 1.382 . S
C215 C214 1.415 . S
C216 C214 1.501 . S
C216 C217 1.384 . S
C216 C221 1.408 . S
C217 H207 0.930 . S
C217 C216 1.384 . S
C217 C218 1.389 . S
C218 C217 1.389 . S
C218 C219 1.405 . S
C219 H208 0.930 . S
C219 C218 1.405 . S
C219 C220 1.364 . S
C220 C219 1.364 . S
C220 C221 1.400 . S
C221 H209 0.931 . S
C221 C216 1.408 . S
C221 C220 1.400 . S
H222 C228 0.930 . S
H223 C231 0.931 . S
H224 C233 0.931 . S
H225 C235 0.930 . S
H226 C237 0.930 . S
H227 C239 0.931 . S
C228 H222 0.930 . S
C228 C229 1.380 . S
C228 C230 1.394 . S
C229 C228 1.380 . S
C229 C233 1.382 . S
C230 C228 1.394 . S
C230 C231 1.400 . S
C231 H223 0.931 . S
C231 C230 1.400 . S
C231 C232 1.375 . S
C232 C231 1.375 . S
C232 C233 1.415 . S
C232 C234 1.501 . S
C233 H224 0.931 . S
C233 C229 1.382 . S
C233 C232 1.415 . S
C234 C232 1.501 . S
C234 C235 1.384 . S
C234 C239 1.408 . S
C235 H225 0.930 . S
C235 C234 1.384 . S
C235 C236 1.389 . S
C236 C235 1.389 . S
C236 C237 1.405 . S
C237 H226 0.930 . S
C237 C236 1.405 . S
C237 C238 1.364 . S
C238 C237 1.364 . S
C238 C239 1.400 . S
C239 H227 0.931 . S
C239 C234 1.408 . S
C239 C238 1.400 . S
H240 C246 0.930 . S
H241 C249 0.928 1_545 S
H242 C251 0.934 . S
H243 C253 0.930 . S
H244 C255 0.930 . S
H245 C257 0.931 . S
C246 H240 0.930 . S
C246 C247 1.380 . S
C246 C248 1.394 . S
C247 C246 1.380 . S
C247 C251 1.377 1_565 S
C248 C246 1.394 . S
C248 C249 1.400 . S
C249 H241 0.928 1_565 S
C249 C248 1.400 . S
C249 C250 1.375 1_565 S
C250 C249 1.375 1_545 S
C250 C251 1.417 . S
C250 C252 1.501 . S
C251 H242 0.934 . S
C251 C247 1.377 1_545 S
C251 C250 1.417 . S
C252 C250 1.501 . S
C252 C253 1.384 . S
C252 C257 1.408 . S
C253 H243 0.930 . S
C253 C252 1.384 . S
C253 C254 1.389 . S
C254 C253 1.389 . S
C254 C255 1.405 . S
C255 H244 0.930 . S
C255 C254 1.405 . S
C255 C256 1.364 . S
C256 C255 1.364 . S
C256 C257 1.400 . S
C257 H245 0.931 . S
C257 C252 1.408 . S
C257 C256 1.400 . S
H258 C264 0.930 . S
H259 C267 0.931 . S
H260 C269 0.931 . S
H261 C271 0.930 . S
H262 C273 0.930 . S
H263 C275 0.931 . S
C264 H258 0.930 . S
C264 C265 1.380 . S
C264 C266 1.394 . S
C265 C264 1.380 . S
C265 C269 1.382 . S
C266 C264 1.394 . S
C266 C267 1.400 . S
C267 H259 0.931 . S
C267 C266 1.400 . S
C267 C268 1.375 . S
C268 C267 1.375 . S
C268 C269 1.415 . S
C268 C270 1.501 . S
C269 H260 0.931 . S
C269 C265 1.382 . S
C269 C268 1.415 . S
C270 C268 1.501 . S
C270 C271 1.384 . S
C270 C275 1.408 . S
C271 H261 0.930 . S
C271 C270 1.384 . S
C271 C272 1.389 . S
C272 C271 1.389 . S
C272 C273 1.405 . S
C273 H262 0.930 . S
C273 C272 1.405 . S
C273 C274 1.364 . S
C274 C273 1.364 . S
C274 C275 1.400 . S
C275 H263 0.931 . S
C275 C270 1.408 . S
C275 C274 1.400 . S
H276 C282 0.930 . S
H277 C285 0.931 . S
H278 C287 0.931 . S
H279 C289 0.930 . S
H280 C291 0.930 . S
H281 C293 0.931 . S
C282 H276 0.930 . S
C282 C283 1.380 . S
C282 C284 1.394 . S
C283 C282 1.380 . S
C283 C287 1.382 . S
C284 C282 1.394 . S
C284 C285 1.400 . S
C285 H277 0.931 . S
C285 C284 1.400 . S
C285 C286 1.375 . S
C286 C285 1.375 . S
C286 C287 1.415 . S
C286 C288 1.501 1_545 S
C287 H278 0.931 . S
C287 C283 1.382 . S
C287 C286 1.415 . S
C288 C286 1.501 1_565 S
C288 C289 1.384 . S
C288 C293 1.408 . S
C289 H279 0.930 . S
C289 C288 1.384 . S
C289 C290 1.389 . S
C290 C289 1.389 . S
C290 C291 1.405 . S
C291 H280 0.930 . S
C291 C290 1.405 . S
C291 C292 1.364 . S
C292 C291 1.364 . S
C292 C293 1.400 . S
C293 H281 0.931 . S
C293 C288 1.408 . S
C293 C292 1.400 . S
H294 C300 0.930 . S
H295 C303 0.931 . S
H296 C305 0.931 . S
H297 C307 0.930 . S
H298 C309 0.930 . S
H299 C311 0.931 . S
C300 H294 0.930 . S
C300 C301 1.380 . S
C300 C302 1.394 . S
C301 C300 1.380 . S
C301 C305 1.382 1_556 S
C302 C300 1.394 . S
C302 C303 1.400 1_556 S
C303 H295 0.931 . S
C303 C302 1.400 1_554 S
C303 C304 1.375 . S
C304 C303 1.375 . S
C304 C305 1.415 . S
C304 C306 1.501 . S
C305 H296 0.931 . S
C305 C301 1.382 1_554 S
C305 C304 1.415 . S
C306 C304 1.501 . S
C306 C307 1.384 . S
C306 C311 1.408 . S
C307 H297 0.930 . S
C307 C306 1.384 . S
C307 C308 1.389 . S
C308 C307 1.389 . S
C308 C309 1.405 . S
C309 H298 0.930 . S
C309 C308 1.405 . S
C309 C310 1.364 . S
C310 C309 1.364 . S
C310 C311 1.400 . S
C311 H299 0.931 . S
C311 C306 1.408 . S
C311 C310 1.400 . S
H312 C318 0.930 . S
H313 C321 0.931 . S
H314 C323 0.931 . S
H315 C325 0.930 . S
H316 C327 0.930 . S
H317 C329 0.931 . S
C318 H312 0.930 . S
C318 C319 1.380 . S
C318 C320 1.394 . S
C319 C318 1.380 . S
C319 C323 1.382 . S
C320 C318 1.394 . S
C320 C321 1.400 1_556 S
C321 H313 0.931 . S
C321 C320 1.400 1_554 S
C321 C322 1.375 . S
C322 C321 1.375 . S
C322 C323 1.415 1_554 S
C322 C324 1.501 . S
C323 H314 0.931 . S
C323 C319 1.382 . S
C323 C322 1.415 1_556 S
C324 C322 1.501 . S
C324 C325 1.384 . S
C324 C329 1.408 . S
C325 H315 0.930 . S
C325 C324 1.384 . S
C325 C326 1.389 . S
C326 C325 1.389 . S
C326 C327 1.405 . S
C327 H316 0.930 . S
C327 C326 1.405 . S
C327 C328 1.364 . S
C328 C327 1.364 . S
C328 C329 1.400 . S
C329 H317 0.931 . S
C329 C324 1.408 . S
C329 C328 1.400 . S
H330 C336 0.930 . S
H331 C339 0.931 . S
H332 C341 0.931 . S
H333 C343 0.930 . S
H334 C345 0.930 . S
H335 C347 0.931 . S
C336 H330 0.930 . S
C336 C337 1.380 . S
C336 C338 1.394 . S
C337 C336 1.380 . S
C337 C341 1.382 . S
C338 C336 1.394 . S
C338 C339 1.400 . S
C339 H331 0.931 . S
C339 C338 1.400 . S
C339 C340 1.375 . S
C340 C339 1.375 . S
C340 C341 1.415 . S
C340 C342 1.501 . S
C341 H332 0.931 . S
C341 C337 1.382 . S
C341 C340 1.415 . S
C342 C340 1.501 . S
C342 C343 1.384 . S
C342 C347 1.408 . S
C343 H333 0.930 . S
C343 C342 1.384 . S
C343 C344 1.389 . S
C344 C343 1.389 . S
C344 C345 1.405 . S
C345 H334 0.930 . S
C345 C344 1.405 . S
C345 C346 1.364 . S
C346 C345 1.364 . S
C346 C347 1.400 . S
C347 H335 0.931 . S
C347 C342 1.408 . S
C347 C346 1.400 . S
H348 C354 0.930 . S
H349 C357 0.931 . S
H350 C359 0.931 . S
H351 C361 0.930 . S
H352 C363 0.930 . S
H353 C365 0.931 . S
C354 H348 0.930 . S
C354 C355 1.380 . S
C354 C356 1.394 . S
C355 C354 1.380 . S
C355 C359 1.382 . S
C356 C354 1.394 . S
C356 C357 1.400 . S
C357 H349 0.931 . S
C357 C356 1.400 . S
C357 C358 1.375 . S
C358 C357 1.375 . S
C358 C359 1.415 . S
C358 C360 1.501 . S
C359 H350 0.931 . S
C359 C355 1.382 . S
C359 C358 1.415 . S
C360 C358 1.501 . S
C360 C361 1.384 . S
C360 C365 1.408 . S
C361 H351 0.930 . S
C361 C360 1.384 . S
C361 C362 1.389 . S
C362 C361 1.389 . S
C362 C363 1.405 . S
C363 H352 0.930 . S
C363 C362 1.405 . S
C363 C364 1.364 . S
C364 C363 1.364 . S
C364 C365 1.400 . S
C365 H353 0.931 . S
C365 C360 1.408 . S
C365 C364 1.400 . S
H366 C372 0.930 . S
H367 C375 0.931 . S
H368 C377 0.931 . S
H369 C379 0.930 . S
H370 C381 0.930 . S
H371 C383 0.931 . S
C372 H366 0.930 . S
C372 C373 1.380 . S
C372 C374 1.394 . S
C373 C372 1.380 . S
C373 C377 1.382 . S
C374 C372 1.394 . S
C374 C375 1.400 . S
C375 H367 0.931 . S
C375 C374 1.400 . S
C375 C376 1.375 . S
C376 C375 1.375 . S
C376 C377 1.415 . S
C376 C378 1.501 . S
C377 H368 0.931 . S
C377 C373 1.382 . S
C377 C376 1.415 . S
C378 C376 1.501 . S
C378 C379 1.384 . S
C378 C383 1.408 . S
C379 H369 0.930 . S
C379 C378 1.384 . S
C379 C380 1.389 . S
C380 C379 1.389 . S
C380 C381 1.405 . S
C381 H370 0.930 . S
C381 C380 1.405 . S
C381 C382 1.364 . S
C382 C381 1.364 . S
C382 C383 1.400 . S
C383 H371 0.931 . S
C383 C378 1.408 . S
C383 C382 1.400 . S
H384 C396 0.930 . S
H385 C398 0.930 . S
H386 C399 0.930 . S
H387 C403 0.959 . S
H388 C403 0.959 . S
H389 C403 0.961 . S
H390 C404 0.960 . S
H391 C404 0.961 . S
H392 C404 0.959 . S
H393 C407 0.929 . S
H394 C408 0.931 . S
H395 C410 0.930 . S
C396 H384 0.930 . S
C396 C397 1.399 . S
C396 C401 1.399 1_554 S
C397 C396 1.399 . S
C397 C398 1.376 . S
C398 H385 0.930 . S
C398 C397 1.376 . S
C398 C399 1.388 . S
C399 H386 0.930 . S
C399 C398 1.388 . S
C399 C400 1.390 1_554 S
C400 C399 1.390 1_556 S
C400 C401 1.394 . S
C400 C406 1.465 . S
C401 C396 1.399 1_556 S
C401 C400 1.394 . S
C401 C402 1.516 . S
C402 C401 1.516 . S
C402 C403 1.502 . S
C402 C404 1.561 . S
C402 C405 1.526 . S
C403 H387 0.959 . S
C403 H388 0.959 . S
C403 H389 0.961 . S
C403 C402 1.502 . S
C404 H390 0.960 . S
C404 H391 0.961 . S
C404 H392 0.959 . S
C404 C402 1.561 . S
C405 C402 1.526 . S
C405 C406 1.396 . S
C405 C410 1.390 . S
C406 C400 1.465 . S
C406 C405 1.396 . S
C406 C407 1.399 . S
C407 H393 0.929 . S
C407 C406 1.399 . S
C407 C408 1.385 . S
C408 H394 0.931 . S
C408 C407 1.385 . S
C408 C409 1.389 . S
C409 C408 1.389 . S
C409 C410 1.387 . S
C410 H395 0.930 . S
C410 C405 1.390 . S
C410 C409 1.387 . S
H411 C423 0.930 . S
H412 C425 0.930 . S
H413 C426 0.930 . S
H414 C430 0.959 . S
H415 C430 0.959 . S
H416 C430 0.961 . S
H417 C431 0.960 . S
H418 C431 0.961 . S
H419 C431 0.959 . S
H420 C434 0.929 . S
H421 C435 0.931 . S
H422 C437 0.930 . S
C423 H411 0.930 . S
C423 C424 1.399 . S
C423 C428 1.399 . S
C424 C423 1.399 . S
C424 C425 1.376 . S
C425 H412 0.930 . S
C425 C424 1.376 . S
C425 C426 1.388 . S
C426 H413 0.930 . S
C426 C425 1.388 . S
C426 C427 1.390 . S
C427 C426 1.390 . S
C427 C428 1.394 . S
C427 C433 1.465 . S
C428 C423 1.399 . S
C428 C427 1.394 . S
C428 C429 1.516 . S
C429 C428 1.516 . S
C429 C430 1.502 . S
C429 C431 1.561 . S
C429 C432 1.526 . S
C430 H414 0.959 . S
C430 H415 0.959 . S
C430 H416 0.961 . S
C430 C429 1.502 . S
C431 H417 0.960 . S
C431 H418 0.961 . S
C431 H419 0.959 . S
C431 C429 1.561 . S
C432 C429 1.526 . S
C432 C433 1.396 . S
C432 C437 1.390 . S
C433 C427 1.465 . S
C433 C432 1.396 . S
C433 C434 1.399 . S
C434 H420 0.929 . S
C434 C433 1.399 . S
C434 C435 1.385 . S
C435 H421 0.931 . S
C435 C434 1.385 . S
C435 C436 1.389 . S
C436 C435 1.389 . S
C436 C437 1.387 . S
C437 H422 0.930 . S
C437 C432 1.390 . S
C437 C436 1.387 . S
H438 C450 0.930 . S
H439 C452 0.930 . S
H440 C453 0.930 . S
H441 C457 0.959 . S
H442 C457 0.959 . S
H443 C457 0.961 . S
H444 C458 0.960 . S
H445 C458 0.961 . S
H446 C458 0.959 . S
H447 C461 0.929 . S
H448 C462 0.931 . S
H449 C464 0.930 . S
C450 H438 0.930 . S
C450 C451 1.399 . S
C450 C455 1.399 . S
C451 C450 1.399 . S
C451 C452 1.376 . S
C452 H439 0.930 . S
C452 C451 1.376 . S
C452 C453 1.388 . S
C453 H440 0.930 . S
C453 C452 1.388 . S
C453 C454 1.390 . S
C454 C453 1.390 . S
C454 C455 1.394 . S
C454 C460 1.465 . S
C455 C450 1.399 . S
C455 C454 1.394 . S
C455 C456 1.516 . S
C456 C455 1.516 . S
C456 C457 1.502 . S
C456 C458 1.561 . S
C456 C459 1.526 . S
C457 H441 0.959 . S
C457 H442 0.959 . S
C457 H443 0.961 . S
C457 C456 1.502 . S
C458 H444 0.960 . S
C458 H445 0.961 . S
C458 H446 0.959 . S
C458 C456 1.561 . S
C459 C456 1.526 . S
C459 C460 1.396 . S
C459 C464 1.390 . S
C460 C454 1.465 . S
C460 C459 1.396 . S
C460 C461 1.399 . S
C461 H447 0.929 . S
C461 C460 1.399 . S
C461 C462 1.385 . S
C462 H448 0.931 . S
C462 C461 1.385 . S
C462 C463 1.389 . S
C463 C462 1.389 . S
C463 C464 1.387 . S
C464 H449 0.930 . S
C464 C459 1.390 . S
C464 C463 1.387 . S
H465 C477 0.930 . S
H466 C479 0.930 . S
H467 C480 0.930 . S
H468 C484 0.959 . S
H469 C484 0.959 . S
H470 C484 0.961 . S
H471 C485 0.960 . S
H472 C485 0.961 . S
H473 C485 0.959 . S
H474 C488 0.929 . S
H475 C489 0.931 . S
H476 C491 0.930 . S
C477 H465 0.930 . S
C477 C478 1.399 . S
C477 C482 1.399 . S
C478 C477 1.399 . S
C478 C479 1.376 . S
C479 H466 0.930 . S
C479 C478 1.376 . S
C479 C480 1.388 . S
C480 H467 0.930 . S
C480 C479 1.388 . S
C480 C481 1.390 . S
C481 C480 1.390 . S
C481 C482 1.394 . S
C481 C487 1.465 . S
C482 C477 1.399 . S
C482 C481 1.394 . S
C482 C483 1.516 . S
C483 C482 1.516 . S
C483 C484 1.502 . S
C483 C485 1.561 . S
C483 C486 1.526 . S
C484 H468 0.959 . S
C484 H469 0.959 . S
C484 H470 0.961 . S
C484 C483 1.502 . S
C485 H471 0.960 . S
C485 H472 0.961 . S
C485 H473 0.959 . S
C485 C483 1.561 . S
C486 C483 1.526 . S
C486 C487 1.396 . S
C486 C491 1.390 . S
C487 C481 1.465 . S
C487 C486 1.396 . S
C487 C488 1.399 . S
C488 H474 0.929 . S
C488 C487 1.399 . S
C488 C489 1.385 . S
C489 H475 0.931 . S
C489 C488 1.385 . S
C489 C490 1.389 . S
C490 C489 1.389 . S
C490 C491 1.387 . S
C491 H476 0.930 . S
C491 C486 1.390 . S
C491 C490 1.387 . S
H492 C504 0.930 . S
H493 C506 0.930 . S
H494 C507 0.930 . S
H495 C511 0.959 . S
H496 C511 0.959 . S
H497 C511 0.961 1_655 S
H498 C512 0.960 . S
H499 C512 0.961 . S
H500 C512 0.959 . S
H501 C515 0.929 . S
H502 C516 0.931 . S
H503 C518 0.930 . S
C504 H492 0.930 . S
C504 C505 1.399 . S
C504 C509 1.399 . S
C505 C504 1.399 . S
C505 C506 1.376 . S
C506 H493 0.930 . S
C506 C505 1.376 . S
C506 C507 1.388 . S
C507 H494 0.930 . S
C507 C506 1.388 . S
C507 C508 1.390 . S
C508 C507 1.390 . S
C508 C509 1.394 . S
C508 C514 1.465 . S
C509 C504 1.399 . S
C509 C508 1.394 . S
C509 C510 1.516 . S
C510 C509 1.516 . S
C510 C511 1.502 . S
C510 C512 1.561 . S
C510 C513 1.526 . S
C511 H495 0.959 . S
C511 H496 0.959 . S
C511 H497 0.961 1_455 S
C511 C510 1.502 . S
C512 H498 0.960 . S
C512 H499 0.961 . S
C512 H500 0.959 . S
C512 C510 1.561 . S
C513 C510 1.526 . S
C513 C514 1.396 . S
C513 C518 1.390 . S
C514 C508 1.465 . S
C514 C513 1.396 . S
C514 C515 1.399 . S
C515 H501 0.929 . S
C515 C514 1.399 . S
C515 C516 1.385 . S
C516 H502 0.931 . S
C516 C515 1.385 . S
C516 C517 1.389 . S
C517 C516 1.389 . S
C517 C518 1.387 . S
C518 H503 0.930 . S
C518 C513 1.390 . S
C518 C517 1.387 . S
H519 C531 0.930 . S
H520 C533 0.930 . S
H521 C534 0.930 . S
H522 C538 0.959 . S
H523 C538 0.959 . S
H524 C538 0.961 . S
H525 C539 0.960 . S
H526 C539 0.961 . S
H527 C539 0.959 . S
H528 C542 0.929 . S
H529 C543 0.931 . S
H530 C545 0.930 . S
C531 H519 0.930 . S
C531 C532 1.399 . S
C531 C536 1.399 . S
C532 C531 1.399 . S
C532 C533 1.376 . S
C533 H520 0.930 . S
C533 C532 1.376 . S
C533 C534 1.388 . S
C534 H521 0.930 . S
C534 C533 1.388 . S
C534 C535 1.390 . S
C535 C534 1.390 . S
C535 C536 1.394 . S
C535 C541 1.465 . S
C536 C531 1.399 . S
C536 C535 1.394 . S
C536 C537 1.516 . S
C537 C536 1.516 . S
C537 C538 1.502 . S
C537 C539 1.561 . S
C537 C540 1.526 . S
C538 H522 0.959 . S
C538 H523 0.959 . S
C538 H524 0.961 . S
C538 C537 1.502 . S
C539 H525 0.960 . S
C539 H526 0.961 . S
C539 H527 0.959 . S
C539 C537 1.561 . S
C540 C537 1.526 . S
C540 C541 1.396 . S
C540 C545 1.390 . S
C541 C535 1.465 . S
C541 C540 1.396 . S
C541 C542 1.399 . S
C542 H528 0.929 . S
C542 C541 1.399 . S
C542 C543 1.385 . S
C543 H529 0.931 . S
C543 C542 1.385 . S
C543 C544 1.389 . S
C544 C543 1.389 . S
C544 C545 1.387 . S
C545 H530 0.930 . S
C545 C540 1.390 . S
C545 C544 1.387 . S
H546 C558 0.930 . S
H547 C560 0.930 1_556 S
H548 C561 0.930 . S
H549 C565 0.959 . S
H550 C565 0.959 . S
H551 C565 0.961 . S
H552 C566 0.960 . S
H553 C566 0.961 . S
H554 C566 0.959 . S
H555 C569 0.929 . S
H556 C570 0.931 . S
H557 C572 0.930 . S
C558 H546 0.930 . S
C558 C559 1.399 1_554 S
C558 C563 1.399 . S
C559 C558 1.399 1_556 S
C559 C560 1.376 1_556 S
C560 H547 0.930 1_554 S
C560 C559 1.376 1_554 S
C560 C561 1.388 . S
C561 H548 0.930 . S
C561 C560 1.388 . S
C561 C562 1.390 . S
C562 C561 1.390 . S
C562 C563 1.394 . S
C562 C568 1.465 . S
C563 C558 1.399 . S
C563 C562 1.394 . S
C563 C564 1.516 . S
C564 C563 1.516 . S
C564 C565 1.502 . S
C564 C566 1.561 . S
C564 C567 1.526 . S
C565 H549 0.959 . S
C565 H550 0.959 . S
C565 H551 0.961 . S
C565 C564 1.502 . S
C566 H552 0.960 . S
C566 H553 0.961 . S
C566 H554 0.959 . S
C566 C564 1.561 . S
C567 C564 1.526 . S
C567 C568 1.396 . S
C567 C572 1.390 . S
C568 C562 1.465 . S
C568 C567 1.396 . S
C568 C569 1.399 . S
C569 H555 0.929 . S
C569 C568 1.399 . S
C569 C570 1.385 . S
C570 H556 0.931 . S
C570 C569 1.385 . S
C570 C571 1.389 . S
C571 C570 1.389 . S
C571 C572 1.387 . S
C572 H557 0.930 . S
C572 C567 1.390 . S
C572 C571 1.387 . S
H573 C585 0.930 . S
H574 C587 0.930 . S
H575 C588 0.930 . S
H576 C592 0.959 . S
H577 C592 0.959 . S
H578 C592 0.961 . S
H579 C593 0.960 . S
H580 C593 0.961 . S
H581 C593 0.959 . S
H582 C596 0.929 . S
H583 C597 0.931 . S
H584 C599 0.930 . S
C585 H573 0.930 . S
C585 C586 1.399 . S
C585 C590 1.399 . S
C586 C585 1.399 . S
C586 C587 1.376 . S
C587 H574 0.930 . S
C587 C586 1.376 . S
C587 C588 1.388 . S
C588 H575 0.930 . S
C588 C587 1.388 . S
C588 C589 1.390 . S
C589 C588 1.390 . S
C589 C590 1.394 . S
C589 C595 1.465 . S
C590 C585 1.399 . S
C590 C589 1.394 . S
C590 C591 1.516 . S
C591 C590 1.516 . S
C591 C592 1.502 . S
C591 C593 1.561 . S
C591 C594 1.526 . S
C592 H576 0.959 . S
C592 H577 0.959 . S
C592 H578 0.961 . S
C592 C591 1.502 . S
C593 H579 0.960 . S
C593 H580 0.961 . S
C593 H581 0.959 . S
C593 C591 1.561 . S
C594 C591 1.526 . S
C594 C595 1.396 . S
C594 C599 1.390 . S
C595 C589 1.465 . S
C595 C594 1.396 . S
C595 C596 1.399 . S
C596 H582 0.929 . S
C596 C595 1.399 . S
C596 C597 1.385 . S
C597 H583 0.931 . S
C597 C596 1.385 . S
C597 C598 1.389 . S
C598 C597 1.389 . S
C598 C599 1.387 . S
C599 H584 0.930 . S
C599 C594 1.390 . S
C599 C598 1.387 . S
H600 C612 0.930 . S
H601 C614 0.930 1_565 S
H602 C615 0.930 . S
H603 C619 0.959 . S
H604 C619 0.959 . S
H605 C619 0.961 1_455 S
H606 C620 0.960 . S
H607 C620 0.961 . S
H608 C620 0.959 . S
H609 C623 0.929 . S
H610 C624 0.931 . S
H611 C626 0.930 . S
C612 H600 0.930 . S
C612 C613 1.399 . S
C612 C617 1.399 1_455 S
C613 C612 1.399 . S
C613 C614 1.376 . S
C614 H601 0.930 1_545 S
C614 C613 1.376 . S
C614 C615 1.388 1_455 S
C615 H602 0.930 . S
C615 C614 1.388 1_655 S
C615 C616 1.390 . S
C616 C615 1.390 . S
C616 C617 1.394 . S
C616 C622 1.465 . S
C617 C612 1.399 1_655 S
C617 C616 1.394 . S
C617 C618 1.516 . S
C618 C617 1.516 . S
C618 C619 1.502 . S
C618 C620 1.561 . S
C618 C621 1.526 . S
C619 H603 0.959 . S
C619 H604 0.959 . S
C619 H605 0.961 1_655 S
C619 C618 1.502 . S
C620 H606 0.960 . S
C620 H607 0.961 . S
C620 H608 0.959 . S
C620 C618 1.561 . S
C621 C618 1.526 . S
C621 C622 1.396 . S
C621 C626 1.390 . S
C622 C616 1.465 . S
C622 C621 1.396 . S
C622 C623 1.399 . S
C623 H609 0.929 . S
C623 C622 1.399 . S
C623 C624 1.385 . S
C624 H610 0.931 . S
C624 C623 1.385 . S
C624 C625 1.389 . S
C625 C624 1.389 . S
C625 C626 1.387 . S
C626 H611 0.930 . S
C626 C621 1.390 . S
C626 C625 1.387 . S
H627 C639 0.930 . S
H628 C641 0.930 . S
H629 C642 0.930 . S
H630 C646 0.959 . S
H631 C646 0.959 . S
H632 C646 0.961 . S
H633 C647 0.960 . S
H634 C647 0.961 . S
H635 C647 0.959 . S
H636 C650 0.929 . S
H637 C651 0.931 . S
H638 C653 0.930 . S
C639 H627 0.930 . S
C639 C640 1.399 . S
C639 C644 1.399 . S
C640 C639 1.399 . S
C640 C641 1.376 . S
C641 H628 0.930 . S
C641 C640 1.376 . S
C641 C642 1.388 . S
C642 H629 0.930 . S
C642 C641 1.388 . S
C642 C643 1.390 . S
C643 C642 1.390 . S
C643 C644 1.394 . S
C643 C649 1.465 . S
C644 C639 1.399 . S
C644 C643 1.394 . S
C644 C645 1.516 . S
C645 C644 1.516 . S
C645 C646 1.502 . S
C645 C647 1.561 . S
C645 C648 1.526 . S
C646 H630 0.959 . S
C646 H631 0.959 . S
C646 H632 0.961 . S
C646 C645 1.502 . S
C647 H633 0.960 . S
C647 H634 0.961 . S
C647 H635 0.959 . S
C647 C645 1.561 . S
C648 C645 1.526 . S
C648 C649 1.396 . S
C648 C653 1.390 . S
C649 C643 1.465 . S
C649 C648 1.396 . S
C649 C650 1.399 . S
C650 H636 0.929 . S
C650 C649 1.399 . S
C650 C651 1.385 . S
C651 H637 0.931 . S
C651 C650 1.385 . S
C651 C652 1.389 . S
C652 C651 1.389 . S
C652 C653 1.387 . S
C653 H638 0.930 . S
C653 C648 1.390 . S
C653 C652 1.387 . S
H654 C666 0.930 . S
H655 C668 0.930 . S
H656 C669 0.930 . S
H657 C673 0.959 . S
H658 C673 0.959 . S
H659 C673 0.961 . S
H660 C674 0.960 . S
H661 C674 0.961 . S
H662 C674 0.959 . S
H663 C677 0.929 1_545 S
H664 C678 0.931 . S
H665 C680 0.930 . S
C666 H654 0.930 . S
C666 C667 1.399 . S
C666 C671 1.399 . S
C667 C666 1.399 . S
C667 C668 1.376 1_565 S
C668 H655 0.930 . S
C668 C667 1.376 1_545 S
C668 C669 1.388 . S
C669 H656 0.930 . S
C669 C668 1.388 . S
C669 C670 1.390 1_545 S
C670 C669 1.390 1_565 S
C670 C671 1.394 . S
C670 C676 1.465 . S
C671 C666 1.399 . S
C671 C670 1.394 . S
C671 C672 1.516 . S
C672 C671 1.516 . S
C672 C673 1.502 . S
C672 C674 1.561 . S
C672 C675 1.526 . S
C673 H657 0.959 . S
C673 H658 0.959 . S
C673 H659 0.961 . S
C673 C672 1.502 . S
C674 H660 0.960 . S
C674 H661 0.961 . S
C674 H662 0.959 . S
C674 C672 1.561 . S
C675 C672 1.526 . S
C675 C676 1.396 . S
C675 C680 1.390 . S
C676 C670 1.465 . S
C676 C675 1.396 . S
C676 C677 1.399 . S
C677 H663 0.929 1_565 S
C677 C676 1.399 . S
C677 C678 1.385 . S
C678 H664 0.931 . S
C678 C677 1.385 . S
C678 C679 1.389 . S
C679 C678 1.389 . S
C679 C680 1.387 . S
C680 H665 0.930 . S
C680 C675 1.390 . S
C680 C679 1.387 . S
H681 C693 0.930 . S
H682 C695 0.930 . S
H683 C696 0.930 . S
H684 C700 0.959 . S
H685 C700 0.959 . S
H686 C700 0.961 . S
H687 C701 0.960 . S
H688 C701 0.961 . S
H689 C701 0.959 . S
H690 C704 0.929 . S
H691 C705 0.931 . S
H692 C707 0.930 . S
C693 H681 0.930 . S
C693 C694 1.399 . S
C693 C698 1.399 . S
C694 C693 1.399 . S
C694 C695 1.376 . S
C695 H682 0.930 . S
C695 C694 1.376 . S
C695 C696 1.388 . S
C696 H683 0.930 . S
C696 C695 1.388 . S
C696 C697 1.390 . S
C697 C696 1.390 . S
C697 C698 1.394 . S
C697 C703 1.465 . S
C698 C693 1.399 . S
C698 C697 1.394 . S
C698 C699 1.516 . S
C699 C698 1.516 . S
C699 C700 1.502 . S
C699 C701 1.561 . S
C699 C702 1.526 . S
C700 H684 0.959 . S
C700 H685 0.959 . S
C700 H686 0.961 . S
C700 C699 1.502 . S
C701 H687 0.960 . S
C701 H688 0.961 . S
C701 H689 0.959 . S
C701 C699 1.561 . S
C702 C699 1.526 . S
C702 C703 1.396 . S
C702 C707 1.390 . S
C703 C697 1.465 . S
C703 C702 1.396 . S
C703 C704 1.399 . S
C704 H690 0.929 . S
C704 C703 1.399 . S
C704 C705 1.385 . S
C705 H691 0.931 . S
C705 C704 1.385 . S
C705 C706 1.389 . S
C706 C705 1.389 . S
C706 C707 1.387 . S
C707 H692 0.930 . S
C707 C702 1.390 . S
C707 C706 1.387 . S
H708 C720 0.930 1_545 S
H709 C722 0.930 . S
H710 C723 0.930 . S
H711 C727 0.959 . S
H712 C727 0.959 . S
H713 C727 0.961 . S
H714 C728 0.960 1_455 S
H715 C728 0.961 . S
H716 C728 0.959 . S
H717 C731 0.929 . S
H718 C732 0.931 . S
H719 C734 0.930 . S
C720 H708 0.930 1_565 S
C720 C721 1.399 . S
C720 C725 1.399 1_455 S
C721 C720 1.399 . S
C721 C722 1.376 . S
C722 H709 0.930 . S
C722 C721 1.376 . S
C722 C723 1.388 1_455 S
C723 H710 0.930 . S
C723 C722 1.388 1_655 S
C723 C724 1.390 . S
C724 C723 1.390 . S
C724 C725 1.394 . S
C724 C730 1.465 . S
C725 C720 1.399 1_655 S
C725 C724 1.394 . S
C725 C726 1.516 . S
C726 C725 1.516 . S
C726 C727 1.502 1_565 S
C726 C728 1.561 . S
C726 C729 1.526 . S
C727 H711 0.959 . S
C727 H712 0.959 . S
C727 H713 0.961 . S
C727 C726 1.502 1_545 S
C728 H714 0.960 1_655 S
C728 H715 0.961 . S
C728 H716 0.959 . S
C728 C726 1.561 . S
C729 C726 1.526 . S
C729 C730 1.396 . S
C729 C734 1.390 . S
C730 C724 1.465 . S
C730 C729 1.396 . S
C730 C731 1.399 . S
C731 H717 0.929 . S
C731 C730 1.399 . S
C731 C732 1.385 . S
C732 H718 0.931 . S
C732 C731 1.385 . S
C732 C733 1.389 . S
C733 C732 1.389 . S
C733 C734 1.387 . S
C734 H719 0.930 . S
C734 C729 1.390 . S
C734 C733 1.387 . S
H735 C747 0.930 . S
H736 C749 0.930 . S
H737 C750 0.930 . S
H738 C754 0.959 . S
H739 C754 0.959 . S
H740 C754 0.961 . S
H741 C755 0.960 . S
H742 C755 0.961 . S
H743 C755 0.959 . S
H744 C758 0.929 . S
H745 C759 0.931 . S
H746 C761 0.930 . S
C747 H735 0.930 . S
C747 C748 1.399 . S
C747 C752 1.399 . S
C748 C747 1.399 . S
C748 C749 1.376 . S
C749 H736 0.930 . S
C749 C748 1.376 . S
C749 C750 1.388 . S
C750 H737 0.930 . S
C750 C749 1.388 . S
C750 C751 1.390 . S
C751 C750 1.390 . S
C751 C752 1.394 . S
C751 C757 1.465 . S
C752 C747 1.399 . S
C752 C751 1.394 . S
C752 C753 1.516 . S
C753 C752 1.516 . S
C753 C754 1.502 . S
C753 C755 1.561 . S
C753 C756 1.526 . S
C754 H738 0.959 . S
C754 H739 0.959 . S
C754 H740 0.961 . S
C754 C753 1.502 . S
C755 H741 0.960 . S
C755 H742 0.961 . S
C755 H743 0.959 . S
C755 C753 1.561 . S
C756 C753 1.526 . S
C756 C757 1.396 . S
C756 C761 1.390 . S
C757 C751 1.465 . S
C757 C756 1.396 . S
C757 C758 1.399 . S
C758 H744 0.929 . S
C758 C757 1.399 . S
C758 C759 1.385 . S
C759 H745 0.931 . S
C759 C758 1.385 . S
C759 C760 1.389 . S
C760 C759 1.389 . S
C760 C761 1.387 . S
C761 H746 0.930 . S
C761 C756 1.390 . S
C761 C760 1.387 . S
H762 C774 0.930 . S
H763 C776 0.930 . S
H764 C777 0.930 . S
H765 C781 0.959 . S
H766 C781 0.959 . S
H767 C781 0.961 . S
H768 C782 0.960 . S
H769 C782 0.961 . S
H770 C782 0.959 . S
H771 C785 0.929 . S
H772 C786 0.931 . S
H773 C788 0.930 . S
C774 H762 0.930 . S
C774 C775 1.399 . S
C774 C779 1.399 . S
C775 C774 1.399 . S
C775 C776 1.376 . S
C776 H763 0.930 . S
C776 C775 1.376 . S
C776 C777 1.388 . S
C777 H764 0.930 . S
C777 C776 1.388 . S
C777 C778 1.390 . S
C778 C777 1.390 . S
C778 C779 1.394 . S
C778 C784 1.465 . S
C779 C774 1.399 . S
C779 C778 1.394 . S
C779 C780 1.516 . S
C780 C779 1.516 . S
C780 C781 1.502 . S
C780 C782 1.561 . S
C780 C783 1.526 . S
C781 H765 0.959 . S
C781 H766 0.959 . S
C781 H767 0.961 . S
C781 C780 1.502 . S
C782 H768 0.960 . S
C782 H769 0.961 . S
C782 H770 0.959 . S
C782 C780 1.561 . S
C783 C780 1.526 . S
C783 C784 1.396 . S
C783 C788 1.390 . S
C784 C778 1.465 . S
C784 C783 1.396 . S
C784 C785 1.399 . S
C785 H771 0.929 . S
C785 C784 1.399 . S
C785 C786 1.385 . S
C786 H772 0.931 . S
C786 C785 1.385 . S
C786 C787 1.389 . S
C787 C786 1.389 . S
C787 C788 1.387 . S
C788 H773 0.930 . S
C788 C783 1.390 . S
C788 C787 1.387 . S
H789 C801 0.930 . S
H790 C803 0.930 . S
H791 C804 0.930 . S
H792 C808 0.959 . S
H793 C808 0.959 . S
H794 C808 0.961 . S
H795 C809 0.960 . S
H796 C809 0.961 . S
H797 C809 0.959 . S
H798 C812 0.929 . S
H799 C813 0.931 . S
H800 C815 0.930 . S
C801 H789 0.930 . S
C801 C802 1.399 . S
C801 C806 1.399 . S
C802 C801 1.399 . S
C802 C803 1.376 . S
C803 H790 0.930 . S
C803 C802 1.376 . S
C803 C804 1.388 . S
C804 H791 0.930 . S
C804 C803 1.388 . S
C804 C805 1.390 . S
C805 C804 1.390 . S
C805 C806 1.394 . S
C805 C811 1.465 . S
C806 C801 1.399 . S
C806 C805 1.394 . S
C806 C807 1.516 . S
C807 C806 1.516 . S
C807 C808 1.502 . S
C807 C809 1.561 . S
C807 C810 1.526 . S
C808 H792 0.959 . S
C808 H793 0.959 . S
C808 H794 0.961 . S
C808 C807 1.502 . S
C809 H795 0.960 . S
C809 H796 0.961 . S
C809 H797 0.959 . S
C809 C807 1.561 . S
C810 C807 1.526 . S
C810 C811 1.396 . S
C810 C815 1.390 . S
C811 C805 1.465 . S
C811 C810 1.396 . S
C811 C812 1.399 . S
C812 H798 0.929 . S
C812 C811 1.399 . S
C812 C813 1.385 . S
C813 H799 0.931 . S
C813 C812 1.385 . S
C813 C814 1.389 . S
C814 C813 1.389 . S
C814 C815 1.387 . S
C815 H800 0.930 . S
C815 C810 1.390 . S
C815 C814 1.387 . S
H816 C828 0.930 . S
H817 C830 0.930 1_556 S
H818 C831 0.930 . S
H819 C835 0.959 1_565 S
H820 C835 0.959 1_565 S
H821 C835 0.961 . S
H822 C836 0.960 1_545 S
H823 C836 0.961 . S
H824 C836 0.959 . S
H825 C839 0.929 . S
H826 C840 0.931 . S
H827 C842 0.930 . S
C828 H816 0.930 . S
C828 C829 1.399 . S
C828 C833 1.399 1_545 S
C829 C828 1.399 . S
C829 C830 1.376 . S
C830 H817 0.930 1_554 S
C830 C829 1.376 . S
C830 C831 1.388 1_545 S
C831 H818 0.930 . S
C831 C830 1.388 1_565 S
C831 C832 1.390 . S
C832 C831 1.390 . S
C832 C833 1.394 . S
C832 C838 1.465 . S
C833 C828 1.399 1_565 S
C833 C832 1.394 . S
C833 C834 1.516 . S
C834 C833 1.516 . S
C834 C835 1.502 1_565 S
C834 C836 1.561 . S
C834 C837 1.526 . S
C835 H819 0.959 1_545 S
C835 H820 0.959 1_545 S
C835 H821 0.961 . S
C835 C834 1.502 1_545 S
C836 H822 0.960 1_565 S
C836 H823 0.961 . S
C836 H824 0.959 . S
C836 C834 1.561 . S
C837 C834 1.526 . S
C837 C838 1.396 . S
C837 C842 1.390 . S
C838 C832 1.465 . S
C838 C837 1.396 . S
C838 C839 1.399 . S
C839 H825 0.929 . S
C839 C838 1.399 . S
C839 C840 1.385 . S
C840 H826 0.931 . S
C840 C839 1.385 . S
C840 C841 1.389 . S
C841 C840 1.389 . S
C841 C842 1.387 . S
C842 H827 0.930 . S
C842 C837 1.390 . S
C842 C841 1.387 . S
H843 C855 0.930 . S
H844 C857 0.930 . S
H845 C858 0.930 . S
H846 C862 0.959 . S
H847 C862 0.959 . S
H848 C862 0.961 . S
H849 C863 0.960 . S
H850 C863 0.961 . S
H851 C863 0.959 . S
H852 C866 0.929 . S
H853 C867 0.931 . S
H854 C869 0.930 . S
C855 H843 0.930 . S
C855 C856 1.399 . S
C855 C860 1.399 . S
C856 C855 1.399 . S
C856 C857 1.376 . S
C857 H844 0.930 . S
C857 C856 1.376 . S
C857 C858 1.388 . S
C858 H845 0.930 . S
C858 C857 1.388 . S
C858 C859 1.390 . S
C859 C858 1.390 . S
C859 C860 1.394 . S
C859 C865 1.465 . S
C860 C855 1.399 . S
C860 C859 1.394 . S
C860 C861 1.516 . S
C861 C860 1.516 . S
C861 C862 1.502 . S
C861 C863 1.561 1_556 S
C861 C864 1.526 . S
C862 H846 0.959 . S
C862 H847 0.959 . S
C862 H848 0.961 . S
C862 C861 1.502 . S
C863 H849 0.960 . S
C863 H850 0.961 . S
C863 H851 0.959 . S
C863 C861 1.561 1_554 S
C864 C861 1.526 . S
C864 C865 1.396 . S
C864 C869 1.390 . S
C865 C859 1.465 . S
C865 C864 1.396 . S
C865 C866 1.399 . S
C866 H852 0.929 . S
C866 C865 1.399 . S
C866 C867 1.385 . S
C867 H853 0.931 . S
C867 C866 1.385 . S
C867 C868 1.389 . S
C868 C867 1.389 . S
C868 C869 1.387 . S
C869 H854 0.930 . S
C869 C864 1.390 . S
C869 C868 1.387 . S
H870 C882 0.930 . S
H871 C884 0.930 . S
H872 C885 0.930 . S
H873 C889 0.959 . S
H874 C889 0.959 . S
H875 C889 0.961 . S
H876 C890 0.960 . S
H877 C890 0.961 . S
H878 C890 0.959 . S
H879 C893 0.929 . S
H880 C894 0.931 . S
H881 C896 0.930 . S
C882 H870 0.930 . S
C882 C883 1.399 . S
C882 C887 1.399 . S
C883 C882 1.399 . S
C883 C884 1.376 . S
C884 H871 0.930 . S
C884 C883 1.376 . S
C884 C885 1.388 . S
C885 H872 0.930 . S
C885 C884 1.388 . S
C885 C886 1.390 . S
C886 C885 1.390 . S
C886 C887 1.394 . S
C886 C892 1.465 . S
C887 C882 1.399 . S
C887 C886 1.394 . S
C887 C888 1.516 . S
C888 C887 1.516 . S
C888 C889 1.502 . S
C888 C890 1.561 . S
C888 C891 1.526 . S
C889 H873 0.959 . S
C889 H874 0.959 . S
C889 H875 0.961 . S
C889 C888 1.502 . S
C890 H876 0.960 . S
C890 H877 0.961 . S
C890 H878 0.959 . S
C890 C888 1.561 . S
C891 C888 1.526 . S
C891 C892 1.396 . S
C891 C896 1.390 . S
C892 C886 1.465 . S
C892 C891 1.396 . S
C892 C893 1.399 . S
C893 H879 0.929 . S
C893 C892 1.399 . S
C893 C894 1.385 . S
C894 H880 0.931 . S
C894 C893 1.385 . S
C894 C895 1.389 . S
C895 C894 1.389 . S
C895 C896 1.387 . S
C896 H881 0.930 . S
C896 C891 1.390 . S
C896 C895 1.387 . S
H897 C909 0.930 . S
H898 C911 0.930 . S
H899 C912 0.930 . S
H900 C916 0.959 . S
H901 C916 0.959 . S
H902 C916 0.961 . S
H903 C917 0.960 . S
H904 C917 0.961 . S
H905 C917 0.959 . S
H906 C920 0.929 . S
H907 C921 0.931 . S
H908 C923 0.930 . S
C909 H897 0.930 . S
C909 C910 1.399 . S
C909 C914 1.399 . S
C910 C909 1.399 . S
C910 C911 1.376 . S
C911 H898 0.930 . S
C911 C910 1.376 . S
C911 C912 1.388 . S
C912 H899 0.930 . S
C912 C911 1.388 . S
C912 C913 1.390 . S
C913 C912 1.390 . S
C913 C914 1.394 . S
C913 C919 1.465 . S
C914 C909 1.399 . S
C914 C913 1.394 . S
C914 C915 1.516 . S
C915 C914 1.516 . S
C915 C916 1.502 . S
C915 C917 1.561 . S
C915 C918 1.526 . S
C916 H900 0.959 . S
C916 H901 0.959 . S
C916 H902 0.961 . S
C916 C915 1.502 . S
C917 H903 0.960 . S
C917 H904 0.961 . S
C917 H905 0.959 . S
C917 C915 1.561 . S
C918 C915 1.526 . S
C918 C919 1.396 . S
C918 C923 1.390 . S
C919 C913 1.465 . S
C919 C918 1.396 . S
C919 C920 1.399 . S
C920 H906 0.929 . S
C920 C919 1.399 . S
C920 C921 1.385 . S
C921 H907 0.931 . S
C921 C920 1.385 . S
C921 C922 1.389 . S
C922 C921 1.389 . S
C922 C923 1.387 . S
C923 H908 0.930 . S
C923 C918 1.390 . S
C923 C922 1.387 . S
H924 C936 0.930 . S
H925 C938 0.930 . S
H926 C939 0.930 . S
H927 C943 0.959 . S
H928 C943 0.959 . S
H929 C943 0.961 . S
H930 C944 0.960 . S
H931 C944 0.961 . S
H932 C944 0.959 . S
H933 C947 0.929 . S
H934 C948 0.931 . S
H935 C950 0.930 . S
C936 H924 0.930 . S
C936 C937 1.399 . S
C936 C941 1.399 . S
C937 C936 1.399 . S
C937 C938 1.376 . S
C938 H925 0.930 . S
C938 C937 1.376 . S
C938 C939 1.388 . S
C939 H926 0.930 . S
C939 C938 1.388 . S
C939 C940 1.390 . S
C940 C939 1.390 . S
C940 C941 1.394 . S
C940 C946 1.465 . S
C941 C936 1.399 . S
C941 C940 1.394 . S
C941 C942 1.516 . S
C942 C941 1.516 . S
C942 C943 1.502 . S
C942 C944 1.561 . S
C942 C945 1.526 . S
C943 H927 0.959 . S
C943 H928 0.959 . S
C943 H929 0.961 . S
C943 C942 1.502 . S
C944 H930 0.960 . S
C944 H931 0.961 . S
C944 H932 0.959 . S
C944 C942 1.561 . S
C945 C942 1.526 . S
C945 C946 1.396 . S
C945 C950 1.390 . S
C946 C940 1.465 . S
C946 C945 1.396 . S
C946 C947 1.399 . S
C947 H933 0.929 . S
C947 C946 1.399 . S
C947 C948 1.385 . S
C948 H934 0.931 . S
C948 C947 1.385 . S
C948 C949 1.389 . S
C949 C948 1.389 . S
C949 C950 1.387 . S
C950 H935 0.930 . S
C950 C945 1.390 . S
C950 C949 1.387 . S
H951 C963 0.930 1_565 S
H952 C965 0.930 . S
H953 C966 0.930 . S
H954 C970 0.959 . S
H955 C970 0.959 . S
H956 C970 0.961 . S
H957 C971 0.960 . S
H958 C971 0.961 . S
H959 C971 0.959 . S
H960 C974 0.929 . S
H961 C975 0.931 . S
H962 C977 0.930 . S
C963 H951 0.930 1_545 S
C963 C964 1.399 1_545 S
C963 C968 1.399 . S
C964 C963 1.399 1_565 S
C964 C965 1.376 1_565 S
C965 H952 0.930 . S
C965 C964 1.376 1_545 S
C965 C966 1.388 . S
C966 H953 0.930 . S
C966 C965 1.388 . S
C966 C967 1.390 . S
C967 C966 1.390 . S
C967 C968 1.394 . S
C967 C973 1.465 . S
C968 C963 1.399 . S
C968 C967 1.394 . S
C968 C969 1.516 . S
C969 C968 1.516 . S
C969 C970 1.502 . S
C969 C971 1.561 . S
C969 C972 1.526 . S
C970 H954 0.959 . S
C970 H955 0.959 . S
C970 H956 0.961 . S
C970 C969 1.502 . S
C971 H957 0.960 . S
C971 H958 0.961 . S
C971 H959 0.959 . S
C971 C969 1.561 . S
C972 C969 1.526 . S
C972 C973 1.396 . S
C972 C977 1.390 . S
C973 C967 1.465 . S
C973 C972 1.396 . S
C973 C974 1.399 . S
C974 H960 0.929 . S
C974 C973 1.399 . S
C974 C975 1.385 . S
C975 H961 0.931 . S
C975 C974 1.385 . S
C975 C976 1.389 . S
C976 C975 1.389 . S
C976 C977 1.387 . S
C977 H962 0.930 . S
C977 C972 1.390 . S
C977 C976 1.387 . S
H978 C990 0.930 . S
H979 C992 0.930 . S
H980 C993 0.930 . S
H981 C997 0.959 . S
H982 C997 0.959 . S
H983 C997 0.961 . S
H984 C998 0.960 . S
H985 C998 0.961 . S
H986 C998 0.959 . S
H987 C1001 0.929 . S
H988 C1002 0.931 . S
H989 C1004 0.930 . S
C990 H978 0.930 . S
C990 C991 1.399 . S
C990 C995 1.399 . S
C991 C990 1.399 . S
C991 C992 1.376 . S
C992 H979 0.930 . S
C992 C991 1.376 . S
C992 C993 1.388 . S
C993 H980 0.930 . S
C993 C992 1.388 . S
C993 C994 1.390 . S
C994 C993 1.390 . S
C994 C995 1.394 . S
C994 C1000 1.465 . S
C995 C990 1.399 . S
C995 C994 1.394 . S
C995 C996 1.516 . S
C996 C995 1.516 . S
C996 C997 1.502 . S
C996 C998 1.561 . S
C996 C999 1.526 . S
C997 H981 0.959 . S
C997 H982 0.959 . S
C997 H983 0.961 . S
C997 C996 1.502 . S
C998 H984 0.960 . S
C998 H985 0.961 . S
C998 H986 0.959 . S
C998 C996 1.561 . S
C999 C996 1.526 . S
C999 C1000 1.396 . S
C999 C1004 1.390 . S
C1000 C994 1.465 . S
C1000 C999 1.396 . S
C1000 C1001 1.399 . S
C1001 H987 0.929 . S
C1001 C1000 1.399 . S
C1001 C1002 1.385 . S
C1002 H988 0.931 . S
C1002 C1001 1.385 . S
C1002 C1003 1.389 . S
C1003 C1002 1.389 . S
C1003 C1004 1.387 . S
C1004 H989 0.930 . S
C1004 C999 1.390 . S
C1004 C1003 1.387 . S
H1005 C1017 0.930 . S
H1006 C1019 0.930 . S
H1007 C1020 0.930 . S
H1008 C1024 0.959 . S
H1009 C1024 0.959 . S
H1010 C1024 0.961 . S
H1011 C1025 0.960 . S
H1012 C1025 0.961 . S
H1013 C1025 0.959 . S
H1014 C1028 0.929 . S
H1015 C1029 0.931 . S
H1016 C1031 0.930 . S
C1017 H1005 0.930 . S
C1017 C1018 1.399 . S
C1017 C1022 1.399 . S
C1018 C1017 1.399 . S
C1018 C1019 1.376 . S
C1019 H1006 0.930 . S
C1019 C1018 1.376 . S
C1019 C1020 1.388 . S
C1020 H1007 0.930 . S
C1020 C1019 1.388 . S
C1020 C1021 1.390 . S
C1021 C1020 1.390 . S
C1021 C1022 1.394 . S
C1021 C1027 1.465 . S
C1022 C1017 1.399 . S
C1022 C1021 1.394 . S
C1022 C1023 1.516 . S
C1023 C1022 1.516 . S
C1023 C1024 1.502 . S
C1023 C1025 1.561 . S
C1023 C1026 1.526 . S
C1024 H1008 0.959 . S
C1024 H1009 0.959 . S
C1024 H1010 0.961 . S
C1024 C1023 1.502 . S
C1025 H1011 0.960 . S
C1025 H1012 0.961 . S
C1025 H1013 0.959 . S
C1025 C1023 1.561 . S
C1026 C1023 1.526 . S
C1026 C1027 1.396 . S
C1026 C1031 1.390 . S
C1027 C1021 1.465 . S
C1027 C1026 1.396 . S
C1027 C1028 1.399 . S
C1028 H1014 0.929 . S
C1028 C1027 1.399 . S
C1028 C1029 1.385 . S
C1029 H1015 0.931 . S
C1029 C1028 1.385 . S
C1029 C1030 1.389 . S
C1030 C1029 1.389 . S
C1030 C1031 1.387 . S
C1031 H1016 0.930 . S
C1031 C1026 1.390 . S
C1031 C1030 1.387 . S
H1032 C1044 0.930 . S
H1033 C1046 0.930 . S
H1034 C1047 0.930 . S
H1035 C1051 0.959 . S
H1036 C1051 0.959 . S
H1037 C1051 0.961 . S
H1038 C1052 0.960 . S
H1039 C1052 0.961 . S
H1040 C1052 0.959 . S
H1041 C1055 0.929 . S
H1042 C1056 0.931 1_545 S
H1043 C1058 0.930 . S
C1044 H1032 0.930 . S
C1044 C1045 1.399 . S
C1044 C1049 1.399 . S
C1045 C1044 1.399 . S
C1045 C1046 1.376 . S
C1046 H1033 0.930 . S
C1046 C1045 1.376 . S
C1046 C1047 1.388 . S
C1047 H1034 0.930 . S
C1047 C1046 1.388 . S
C1047 C1048 1.390 . S
C1048 C1047 1.390 . S
C1048 C1049 1.394 . S
C1048 C1054 1.465 . S
C1049 C1044 1.399 . S
C1049 C1048 1.394 . S
C1049 C1050 1.516 . S
C1050 C1049 1.516 . S
C1050 C1051 1.502 . S
C1050 C1052 1.561 . S
C1050 C1053 1.526 . S
C1051 H1035 0.959 . S
C1051 H1036 0.959 . S
C1051 H1037 0.961 . S
C1051 C1050 1.502 . S
C1052 H1038 0.960 . S
C1052 H1039 0.961 . S
C1052 H1040 0.959 . S
C1052 C1050 1.561 . S
C1053 C1050 1.526 . S
C1053 C1054 1.396 . S
C1053 C1058 1.390 . S
C1054 C1048 1.465 . S
C1054 C1053 1.396 . S
C1054 C1055 1.399 . S
C1055 H1041 0.929 . S
C1055 C1054 1.399 . S
C1055 C1056 1.385 . S
C1056 H1042 0.931 1_565 S
C1056 C1055 1.385 . S
C1056 C1057 1.389 . S
C1057 C1056 1.389 . S
C1057 C1058 1.387 . S
C1058 H1043 0.930 . S
C1058 C1053 1.390 . S
C1058 C1057 1.387 . S
H1059 C1071 0.930 . S
H1060 C1073 0.930 . S
H1061 C1074 0.930 . S
H1062 C1078 0.959 . S
H1063 C1078 0.959 . S
H1064 C1078 0.961 . S
H1065 C1079 0.960 . S
H1066 C1079 0.961 . S
H1067 C1079 0.959 . S
H1068 C1082 0.929 . S
H1069 C1083 0.931 . S
H1070 C1085 0.930 . S
C1071 H1059 0.930 . S
C1071 C1072 1.399 . S
C1071 C1076 1.399 . S
C1072 C1071 1.399 . S
C1072 C1073 1.376 . S
C1073 H1060 0.930 . S
C1073 C1072 1.376 . S
C1073 C1074 1.388 . S
C1074 H1061 0.930 . S
C1074 C1073 1.388 . S
C1074 C1075 1.390 . S
C1075 C1074 1.390 . S
C1075 C1076 1.394 . S
C1075 C1081 1.465 . S
C1076 C1071 1.399 . S
C1076 C1075 1.394 . S
C1076 C1077 1.516 . S
C1077 C1076 1.516 . S
C1077 C1078 1.502 . S
C1077 C1079 1.561 . S
C1077 C1080 1.526 . S
C1078 H1062 0.959 . S
C1078 H1063 0.959 . S
C1078 H1064 0.961 . S
C1078 C1077 1.502 . S
C1079 H1065 0.960 . S
C1079 H1066 0.961 . S
C1079 H1067 0.959 . S
C1079 C1077 1.561 . S
C1080 C1077 1.526 . S
C1080 C1081 1.396 . S
C1080 C1085 1.390 . S
C1081 C1075 1.465 . S
C1081 C1080 1.396 . S
C1081 C1082 1.399 . S
C1082 H1068 0.929 . S
C1082 C1081 1.399 . S
C1082 C1083 1.385 . S
C1083 H1069 0.931 . S
C1083 C1082 1.385 . S
C1083 C1084 1.389 . S
C1084 C1083 1.389 . S
C1084 C1085 1.387 . S
C1085 H1070 0.930 . S
C1085 C1080 1.390 . S
C1085 C1084 1.387 . S
H1086 C1098 0.930 . S
H1087 C1100 0.930 . S
H1088 C1101 0.930 1_455 S
H1089 C1105 0.959 . S
H1090 C1105 0.959 . S
H1091 C1105 0.961 . S
H1092 C1106 0.960 1_554 S
H1093 C1106 0.961 . S
H1094 C1106 0.959 . S
H1095 C1109 0.929 . S
H1096 C1110 0.931 . S
H1097 C1112 0.930 . S
C1098 H1086 0.930 . S
C1098 C1099 1.399 . S
C1098 C1103 1.399 . S
C1099 C1098 1.399 . S
C1099 C1100 1.376 1_655 S
C1100 H1087 0.930 . S
C1100 C1099 1.376 1_455 S
C1100 C1101 1.388 1_454 S
C1101 H1088 0.930 1_655 S
C1101 C1100 1.388 1_656 S
C1101 C1102 1.390 . S
C1102 C1101 1.390 . S
C1102 C1103 1.394 1_556 S
C1102 C1108 1.465 . S
C1103 C1098 1.399 . S
C1103 C1102 1.394 1_554 S
C1103 C1104 1.516 1_554 S
C1104 C1103 1.516 1_556 S
C1104 C1105 1.502 1_556 S
C1104 C1106 1.561 . S
C1104 C1107 1.526 . S
C1105 H1089 0.959 . S
C1105 H1090 0.959 . S
C1105 H1091 0.961 . S
C1105 C1104 1.502 1_554 S
C1106 H1092 0.960 1_556 S
C1106 H1093 0.961 . S
C1106 H1094 0.959 . S
C1106 C1104 1.561 . S
C1107 C1104 1.526 . S
C1107 C1108 1.396 . S
C1107 C1112 1.390 . S
C1108 C1102 1.465 . S
C1108 C1107 1.396 . S
C1108 C1109 1.399 . S
C1109 H1095 0.929 . S
C1109 C1108 1.399 . S
C1109 C1110 1.385 . S
C1110 H1096 0.931 . S
C1110 C1109 1.385 . S
C1110 C1111 1.389 . S
C1111 C1110 1.389 . S
C1111 C1112 1.387 . S
C1112 H1097 0.930 . S
C1112 C1107 1.390 . S
C1112 C1111 1.387 . S
H1113 C1125 0.930 . S
H1114 C1127 0.930 . S
H1115 C1128 0.930 . S
H1116 C1132 0.959 . S
H1117 C1132 0.959 . S
H1118 C1132 0.961 . S
H1119 C1133 0.960 . S
H1120 C1133 0.961 . S
H1121 C1133 0.959 . S
H1122 C1136 0.929 . S
H1123 C1137 0.931 . S
H1124 C1139 0.930 . S
C1125 H1113 0.930 . S
C1125 C1126 1.399 . S
C1125 C1130 1.399 . S
C1126 C1125 1.399 . S
C1126 C1127 1.376 . S
C1127 H1114 0.930 . S
C1127 C1126 1.376 . S
C1127 C1128 1.388 . S
C1128 H1115 0.930 . S
C1128 C1127 1.388 . S
C1128 C1129 1.390 . S
C1129 C1128 1.390 . S
C1129 C1130 1.394 . S
C1129 C1135 1.465 . S
C1130 C1125 1.399 . S
C1130 C1129 1.394 . S
C1130 C1131 1.516 . S
C1131 C1130 1.516 . S
C1131 C1132 1.502 . S
C1131 C1133 1.561 . S
C1131 C1134 1.526 . S
C1132 H1116 0.959 . S
C1132 H1117 0.959 . S
C1132 H1118 0.961 . S
C1132 C1131 1.502 . S
C1133 H1119 0.960 . S
C1133 H1120 0.961 . S
C1133 H1121 0.959 . S
C1133 C1131 1.561 . S
C1134 C1131 1.526 . S
C1134 C1135 1.396 . S
C1134 C1139 1.390 . S
C1135 C1129 1.465 . S
C1135 C1134 1.396 . S
C1135 C1136 1.399 . S
C1136 H1122 0.929 . S
C1136 C1135 1.399 . S
C1136 C1137 1.385 . S
C1137 H1123 0.931 . S
C1137 C1136 1.385 . S
C1137 C1138 1.389 . S
C1138 C1137 1.389 . S
C1138 C1139 1.387 . S
C1139 H1124 0.930 . S
C1139 C1134 1.390 . S
C1139 C1138 1.387 . S
H1140 C1152 0.930 . S
H1141 C1154 0.930 . S
H1142 C1155 0.930 . S
H1143 C1159 0.959 . S
H1144 C1159 0.959 . S
H1145 C1159 0.961 . S
H1146 C1160 0.960 . S
H1147 C1160 0.961 . S
H1148 C1160 0.959 . S
H1149 C1163 0.929 . S
H1150 C1164 0.931 . S
H1151 C1166 0.930 . S
C1152 H1140 0.930 . S
C1152 C1153 1.399 . S
C1152 C1157 1.399 . S
C1153 C1152 1.399 . S
C1153 C1154 1.376 . S
C1154 H1141 0.930 . S
C1154 C1153 1.376 . S
C1154 C1155 1.388 . S
C1155 H1142 0.930 . S
C1155 C1154 1.388 . S
C1155 C1156 1.390 . S
C1156 C1155 1.390 . S
C1156 C1157 1.394 . S
C1156 C1162 1.465 . S
C1157 C1152 1.399 . S
C1157 C1156 1.394 . S
C1157 C1158 1.516 . S
C1158 C1157 1.516 . S
C1158 C1159 1.502 . S
C1158 C1160 1.561 . S
C1158 C1161 1.526 . S
C1159 H1143 0.959 . S
C1159 H1144 0.959 . S
C1159 H1145 0.961 . S
C1159 C1158 1.502 . S
C1160 H1146 0.960 . S
C1160 H1147 0.961 . S
C1160 H1148 0.959 . S
C1160 C1158 1.561 . S
C1161 C1158 1.526 . S
C1161 C1162 1.396 . S
C1161 C1166 1.390 . S
C1162 C1156 1.465 . S
C1162 C1161 1.396 . S
C1162 C1163 1.399 . S
C1163 H1149 0.929 . S
C1163 C1162 1.399 . S
C1163 C1164 1.385 . S
C1164 H1150 0.931 . S
C1164 C1163 1.385 . S
C1164 C1165 1.389 . S
C1165 C1164 1.389 . S
C1165 C1166 1.387 . S
C1166 H1151 0.930 . S
C1166 C1161 1.390 . S
C1166 C1165 1.387 . S
H1167 C1179 0.930 . S
H1168 C1181 0.930 . S
H1169 C1182 0.930 . S
H1170 C1186 0.959 . S
H1171 C1186 0.959 . S
H1172 C1186 0.961 . S
H1173 C1187 0.960 . S
H1174 C1187 0.961 . S
H1175 C1187 0.959 . S
H1176 C1190 0.929 . S
H1177 C1191 0.931 . S
H1178 C1193 0.930 . S
C1179 H1167 0.930 . S
C1179 C1180 1.399 . S
C1179 C1184 1.399 . S
C1180 C1179 1.399 . S
C1180 C1181 1.376 . S
C1181 H1168 0.930 . S
C1181 C1180 1.376 . S
C1181 C1182 1.388 . S
C1182 H1169 0.930 . S
C1182 C1181 1.388 . S
C1182 C1183 1.390 . S
C1183 C1182 1.390 . S
C1183 C1184 1.394 . S
C1183 C1189 1.465 . S
C1184 C1179 1.399 . S
C1184 C1183 1.394 . S
C1184 C1185 1.516 . S
C1185 C1184 1.516 . S
C1185 C1186 1.502 . S
C1185 C1187 1.561 . S
C1185 C1188 1.526 . S
C1186 H1170 0.959 . S
C1186 H1171 0.959 . S
C1186 H1172 0.961 . S
C1186 C1185 1.502 . S
C1187 H1173 0.960 . S
C1187 H1174 0.961 . S
C1187 H1175 0.959 . S
C1187 C1185 1.561 . S
C1188 C1185 1.526 . S
C1188 C1189 1.396 . S
C1188 C1193 1.390 . S
C1189 C1183 1.465 . S
C1189 C1188 1.396 . S
C1189 C1190 1.399 . S
C1190 H1176 0.929 . S
C1190 C1189 1.399 . S
C1190 C1191 1.385 . S
C1191 H1177 0.931 . S
C1191 C1190 1.385 . S
C1191 C1192 1.389 . S
C1192 C1191 1.389 . S
C1192 C1193 1.387 . S
C1193 H1178 0.930 . S
C1193 C1188 1.390 . S
C1193 C1192 1.387 . S
H1194 C1206 0.930 . S
H1195 C1208 0.930 . S
H1196 C1209 0.930 . S
H1197 C1213 0.959 . S
H1198 C1213 0.959 . S
H1199 C1213 0.961 . S
H1200 C1214 0.960 . S
H1201 C1214 0.961 . S
H1202 C1214 0.959 . S
H1203 C1217 0.929 . S
H1204 C1218 0.931 . S
H1205 C1220 0.930 . S
C1206 H1194 0.930 . S
C1206 C1207 1.399 . S
C1206 C1211 1.399 . S
C1207 C1206 1.399 . S
C1207 C1208 1.376 . S
C1208 H1195 0.930 . S
C1208 C1207 1.376 . S
C1208 C1209 1.388 . S
C1209 H1196 0.930 . S
C1209 C1208 1.388 . S
C1209 C1210 1.390 . S
C1210 C1209 1.390 . S
C1210 C1211 1.394 . S
C1210 C1216 1.465 . S
C1211 C1206 1.399 . S
C1211 C1210 1.394 . S
C1211 C1212 1.516 . S
C1212 C1211 1.516 . S
C1212 C1213 1.502 . S
C1212 C1214 1.561 . S
C1212 C1215 1.526 . S
C1213 H1197 0.959 . S
C1213 H1198 0.959 . S
C1213 H1199 0.961 . S
C1213 C1212 1.502 . S
C1214 H1200 0.960 . S
C1214 H1201 0.961 . S
C1214 H1202 0.959 . S
C1214 C1212 1.561 . S
C1215 C1212 1.526 . S
C1215 C1216 1.396 . S
C1215 C1220 1.390 . S
C1216 C1210 1.465 . S
C1216 C1215 1.396 . S
C1216 C1217 1.399 . S
C1217 H1203 0.929 . S
C1217 C1216 1.399 . S
C1217 C1218 1.385 . S
C1218 H1204 0.931 . S
C1218 C1217 1.385 . S
C1218 C1219 1.389 . S
C1219 C1218 1.389 . S
C1219 C1220 1.387 . S
C1220 H1205 0.930 . S
C1220 C1215 1.390 . S
C1220 C1219 1.387 . S
H1221 C1233 0.930 . S
H1222 C1235 0.930 . S
H1223 C1236 0.930 . S
H1224 C1240 0.959 . S
H1225 C1240 0.959 . S
H1226 C1240 0.961 . S
H1227 C1241 0.960 . S
H1228 C1241 0.961 . S
H1229 C1241 0.959 . S
H1230 C1244 0.929 . S
H1231 C1245 0.931 . S
H1232 C1247 0.930 . S
C1233 H1221 0.930 . S
C1233 C1234 1.399 . S
C1233 C1238 1.399 . S
C1234 C1233 1.399 . S
C1234 C1235 1.376 . S
C1235 H1222 0.930 . S
C1235 C1234 1.376 . S
C1235 C1236 1.388 . S
C1236 H1223 0.930 . S
C1236 C1235 1.388 . S
C1236 C1237 1.390 . S
C1237 C1236 1.390 . S
C1237 C1238 1.394 . S
C1237 C1243 1.465 . S
C1238 C1233 1.399 . S
C1238 C1237 1.394 . S
C1238 C1239 1.516 . S
C1239 C1238 1.516 . S
C1239 C1240 1.502 . S
C1239 C1241 1.561 . S
C1239 C1242 1.526 . S
C1240 H1224 0.959 . S
C1240 H1225 0.959 . S
C1240 H1226 0.961 . S
C1240 C1239 1.502 . S
C1241 H1227 0.960 . S
C1241 H1228 0.961 . S
C1241 H1229 0.959 . S
C1241 C1239 1.561 . S
C1242 C1239 1.526 . S
C1242 C1243 1.396 . S
C1242 C1247 1.390 . S
C1243 C1237 1.465 . S
C1243 C1242 1.396 . S
C1243 C1244 1.399 . S
C1244 H1230 0.929 . S
C1244 C1243 1.399 . S
C1244 C1245 1.385 . S
C1245 H1231 0.931 . S
C1245 C1244 1.385 . S
C1245 C1246 1.389 . S
C1246 C1245 1.389 . S
C1246 C1247 1.387 . S
C1247 H1232 0.930 . S
C1247 C1242 1.390 . S
C1247 C1246 1.387 . S
H1248 C1260 0.930 . S
H1249 C1262 0.930 . S
H1250 C1263 0.930 . S
H1251 C1267 0.959 . S
H1252 C1267 0.959 . S
H1253 C1267 0.961 . S
H1254 C1268 0.960 . S
H1255 C1268 0.961 . S
H1256 C1268 0.959 . S
H1257 C1271 0.929 . S
H1258 C1272 0.931 . S
H1259 C1274 0.930 . S
C1260 H1248 0.930 . S
C1260 C1261 1.399 . S
C1260 C1265 1.399 . S
C1261 C1260 1.399 . S
C1261 C1262 1.376 . S
C1262 H1249 0.930 . S
C1262 C1261 1.376 . S
C1262 C1263 1.388 . S
C1263 H1250 0.930 . S
C1263 C1262 1.388 . S
C1263 C1264 1.390 . S
C1264 C1263 1.390 . S
C1264 C1265 1.394 . S
C1264 C1270 1.465 . S
C1265 C1260 1.399 . S
C1265 C1264 1.394 . S
C1265 C1266 1.516 . S
C1266 C1265 1.516 . S
C1266 C1267 1.502 . S
C1266 C1268 1.561 . S
C1266 C1269 1.526 . S
C1267 H1251 0.959 . S
C1267 H1252 0.959 . S
C1267 H1253 0.961 . S
C1267 C1266 1.502 . S
C1268 H1254 0.960 . S
C1268 H1255 0.961 . S
C1268 H1256 0.959 . S
C1268 C1266 1.561 . S
C1269 C1266 1.526 . S
C1269 C1270 1.396 . S
C1269 C1274 1.390 . S
C1270 C1264 1.465 . S
C1270 C1269 1.396 . S
C1270 C1271 1.399 . S
C1271 H1257 0.929 . S
C1271 C1270 1.399 . S
C1271 C1272 1.385 . S
C1272 H1258 0.931 . S
C1272 C1271 1.385 . S
C1272 C1273 1.389 . S
C1273 C1272 1.389 . S
C1273 C1274 1.387 . S
C1274 H1259 0.930 . S
C1274 C1269 1.390 . S
C1274 C1273 1.387 . S
H1275 C1287 0.930 . S
H1276 C1289 0.930 . S
H1277 C1290 0.930 . S
H1278 C1294 0.959 . S
H1279 C1294 0.959 . S
H1280 C1294 0.961 . S
H1281 C1295 0.960 . S
H1282 C1295 0.961 . S
H1283 C1295 0.959 . S
H1284 C1298 0.929 . S
H1285 C1299 0.931 . S
H1286 C1301 0.930 . S
C1287 H1275 0.930 . S
C1287 C1288 1.399 . S
C1287 C1292 1.399 . S
C1288 C1287 1.399 . S
C1288 C1289 1.376 . S
C1289 H1276 0.930 . S
C1289 C1288 1.376 . S
C1289 C1290 1.388 . S
C1290 H1277 0.930 . S
C1290 C1289 1.388 . S
C1290 C1291 1.390 . S
C1291 C1290 1.390 . S
C1291 C1292 1.394 . S
C1291 C1297 1.465 . S
C1292 C1287 1.399 . S
C1292 C1291 1.394 . S
C1292 C1293 1.516 . S
C1293 C1292 1.516 . S
C1293 C1294 1.502 . S
C1293 C1295 1.561 . S
C1293 C1296 1.526 . S
C1294 H1278 0.959 . S
C1294 H1279 0.959 . S
C1294 H1280 0.961 . S
C1294 C1293 1.502 . S
C1295 H1281 0.960 . S
C1295 H1282 0.961 . S
C1295 H1283 0.959 . S
C1295 C1293 1.561 . S
C1296 C1293 1.526 . S
C1296 C1297 1.396 . S
C1296 C1301 1.390 . S
C1297 C1291 1.465 . S
C1297 C1296 1.396 . S
C1297 C1298 1.399 . S
C1298 H1284 0.929 . S
C1298 C1297 1.399 . S
C1298 C1299 1.385 . S
C1299 H1285 0.931 . S
C1299 C1298 1.385 . S
C1299 C1300 1.389 . S
C1300 C1299 1.389 . S
C1300 C1301 1.387 . S
C1301 H1286 0.930 . S
C1301 C1296 1.390 . S
C1301 C1300 1.387 . S
H1302 C1314 0.930 1_655 S
H1303 C1316 0.935 . S
H1304 C1317 0.930 . S
H1305 C1321 0.959 . S
H1306 C1321 0.959 . S
H1307 C1321 0.961 . S
H1308 C1322 0.960 . S
H1309 C1322 0.961 . S
H1310 C1322 0.959 . S
H1311 C1325 0.929 . S
H1312 C1326 0.931 . S
H1313 C1328 0.930 . S
C1314 H1302 0.930 1_455 S
C1314 C1315 1.399 1_455 S
C1314 C1319 1.399 . S
C1315 C1314 1.399 1_655 S
C1315 C1316 1.380 . S
C1316 H1303 0.935 . S
C1316 C1315 1.380 . S
C1316 C1317 1.380 1_655 S
C1317 H1304 0.930 . S
C1317 C1316 1.380 1_455 S
C1317 C1318 1.390 . S
C1318 C1317 1.390 . S
C1318 C1319 1.394 . S
C1318 C1324 1.465 . S
C1319 C1314 1.399 . S
C1319 C1318 1.394 . S
C1319 C1320 1.516 . S
C1320 C1319 1.516 . S
C1320 C1321 1.502 . S
C1320 C1322 1.561 . S
C1320 C1323 1.526 . S
C1321 H1305 0.959 . S
C1321 H1306 0.959 . S
C1321 H1307 0.961 . S
C1321 C1320 1.502 . S
C1322 H1308 0.960 . S
C1322 H1309 0.961 . S
C1322 H1310 0.959 . S
C1322 C1320 1.561 . S
C1323 C1320 1.526 . S
C1323 C1324 1.396 . S
C1323 C1328 1.390 . S
C1324 C1318 1.465 . S
C1324 C1323 1.396 . S
C1324 C1325 1.399 . S
C1325 H1311 0.929 . S
C1325 C1324 1.399 . S
C1325 C1326 1.385 . S
C1326 H1312 0.931 . S
C1326 C1325 1.385 . S
C1326 C1327 1.389 . S
C1327 C1326 1.389 . S
C1327 C1328 1.387 . S
C1328 H1313 0.930 . S
C1328 C1323 1.390 . S
C1328 C1327 1.387 . S
H1329 C1341 0.930 . S
H1330 C1343 0.930 . S
H1331 C1344 0.930 . S
H1332 C1348 0.959 . S
H1333 C1348 0.959 . S
H1334 C1348 0.961 . S
H1335 C1349 0.960 . S
H1336 C1349 0.961 . S
H1337 C1349 0.959 . S
H1338 C1352 0.929 . S
H1339 C1353 0.931 . S
H1340 C1355 0.930 . S
C1341 H1329 0.930 . S
C1341 C1342 1.399 . S
C1341 C1346 1.399 . S
C1342 C1341 1.399 . S
C1342 C1343 1.376 . S
C1343 H1330 0.930 . S
C1343 C1342 1.376 . S
C1343 C1344 1.388 . S
C1344 H1331 0.930 . S
C1344 C1343 1.388 . S
C1344 C1345 1.390 . S
C1345 C1344 1.390 . S
C1345 C1346 1.394 . S
C1345 C1351 1.465 . S
C1346 C1341 1.399 . S
C1346 C1345 1.394 . S
C1346 C1347 1.516 . S
C1347 C1346 1.516 . S
C1347 C1348 1.502 . S
C1347 C1349 1.561 . S
C1347 C1350 1.526 . S
C1348 H1332 0.959 . S
C1348 H1333 0.959 . S
C1348 H1334 0.961 . S
C1348 C1347 1.502 . S
C1349 H1335 0.960 . S
C1349 H1336 0.961 . S
C1349 H1337 0.959 . S
C1349 C1347 1.561 . S
C1350 C1347 1.526 . S
C1350 C1351 1.396 . S
C1350 C1355 1.390 . S
C1351 C1345 1.465 . S
C1351 C1350 1.396 . S
C1351 C1352 1.399 . S
C1352 H1338 0.929 . S
C1352 C1351 1.399 . S
C1352 C1353 1.385 . S
C1353 H1339 0.931 . S
C1353 C1352 1.385 . S
C1353 C1354 1.389 . S
C1354 C1353 1.389 . S
C1354 C1355 1.387 . S
C1355 H1340 0.930 . S
C1355 C1350 1.390 . S
C1355 C1354 1.387 . S
H1356 C1368 0.930 . S
H1357 C1370 0.930 . S
H1358 C1371 0.930 . S
H1359 C1375 0.959 . S
H1360 C1375 0.959 . S
H1361 C1375 0.961 . S
H1362 C1376 0.960 . S
H1363 C1376 0.961 . S
H1364 C1376 0.959 . S
H1365 C1379 0.929 . S
H1366 C1380 0.931 . S
H1367 C1382 0.930 . S
C1368 H1356 0.930 . S
C1368 C1369 1.399 . S
C1368 C1373 1.399 . S
C1369 C1368 1.399 . S
C1369 C1370 1.376 . S
C1370 H1357 0.930 . S
C1370 C1369 1.376 . S
C1370 C1371 1.388 . S
C1371 H1358 0.930 . S
C1371 C1370 1.388 . S
C1371 C1372 1.390 . S
C1372 C1371 1.390 . S
C1372 C1373 1.394 . S
C1372 C1378 1.465 . S
C1373 C1368 1.399 . S
C1373 C1372 1.394 . S
C1373 C1374 1.516 . S
C1374 C1373 1.516 . S
C1374 C1375 1.502 . S
C1374 C1376 1.561 . S
C1374 C1377 1.526 . S
C1375 H1359 0.959 . S
C1375 H1360 0.959 . S
C1375 H1361 0.961 . S
C1375 C1374 1.502 . S
C1376 H1362 0.960 . S
C1376 H1363 0.961 . S
C1376 H1364 0.959 . S
C1376 C1374 1.561 . S
C1377 C1374 1.526 . S
C1377 C1378 1.396 . S
C1377 C1382 1.390 . S
C1378 C1372 1.465 . S
C1378 C1377 1.396 . S
C1378 C1379 1.399 . S
C1379 H1365 0.929 . S
C1379 C1378 1.399 . S
C1379 C1380 1.385 . S
C1380 H1366 0.931 . S
C1380 C1379 1.385 . S
C1380 C1381 1.389 . S
C1381 C1380 1.389 . S
C1381 C1382 1.387 . S
C1382 H1367 0.930 . S
C1382 C1377 1.390 . S
C1382 C1381 1.387 . S
H1383 C1395 0.930 . S
H1384 C1397 0.930 . S
H1385 C1398 0.930 . S
H1386 C1402 0.959 . S
H1387 C1402 0.959 . S
H1388 C1402 0.961 . S
H1389 C1403 0.960 . S
H1390 C1403 0.961 . S
H1391 C1403 0.959 . S
H1392 C1406 0.929 . S
H1393 C1407 0.931 . S
H1394 C1409 0.930 . S
C1395 H1383 0.930 . S
C1395 C1396 1.399 . S
C1395 C1400 1.399 . S
C1396 C1395 1.399 . S
C1396 C1397 1.376 . S
C1397 H1384 0.930 . S
C1397 C1396 1.376 . S
C1397 C1398 1.388 . S
C1398 H1385 0.930 . S
C1398 C1397 1.388 . S
C1398 C1399 1.390 . S
C1399 C1398 1.390 . S
C1399 C1400 1.394 . S
C1399 C1405 1.465 . S
C1400 C1395 1.399 . S
C1400 C1399 1.394 . S
C1400 C1401 1.516 . S
C1401 C1400 1.516 . S
C1401 C1402 1.502 . S
C1401 C1403 1.561 . S
C1401 C1404 1.526 . S
C1402 H1386 0.959 . S
C1402 H1387 0.959 . S
C1402 H1388 0.961 . S
C1402 C1401 1.502 . S
C1403 H1389 0.960 . S
C1403 H1390 0.961 . S
C1403 H1391 0.959 . S
C1403 C1401 1.561 . S
C1404 C1401 1.526 . S
C1404 C1405 1.396 . S
C1404 C1409 1.390 . S
C1405 C1399 1.465 . S
C1405 C1404 1.396 . S
C1405 C1406 1.399 . S
C1406 H1392 0.929 . S
C1406 C1405 1.399 . S
C1406 C1407 1.385 . S
C1407 H1393 0.931 . S
C1407 C1406 1.385 . S
C1407 C1408 1.389 . S
C1408 C1407 1.389 . S
C1408 C1409 1.387 . S
C1409 H1394 0.930 . S
C1409 C1404 1.390 . S
C1409 C1408 1.387 . S
H1410 C1422 0.930 . S
H1411 C1424 0.930 . S
H1412 C1425 0.930 . S
H1413 C1429 0.959 . S
H1414 C1429 0.959 . S
H1415 C1429 0.961 . S
H1416 C1430 0.960 . S
H1417 C1430 0.961 . S
H1418 C1430 0.959 . S
H1419 C1433 0.929 . S
H1420 C1434 0.931 . S
H1421 C1436 0.930 . S
C1422 H1410 0.930 . S
C1422 C1423 1.399 1_455 S
C1422 C1427 1.399 . S
C1423 C1422 1.399 1_655 S
C1423 C1424 1.376 . S
C1424 H1411 0.930 . S
C1424 C1423 1.376 . S
C1424 C1425 1.388 1_655 S
C1425 H1412 0.930 . S
C1425 C1424 1.388 1_455 S
C1425 C1426 1.390 . S
C1426 C1425 1.390 . S
C1426 C1427 1.394 . S
C1426 C1432 1.465 . S
C1427 C1422 1.399 . S
C1427 C1426 1.394 . S
C1427 C1428 1.516 . S
C1428 C1427 1.516 . S
C1428 C1429 1.502 . S
C1428 C1430 1.561 . S
C1428 C1431 1.526 . S
C1429 H1413 0.959 . S
C1429 H1414 0.959 . S
C1429 H1415 0.961 . S
C1429 C1428 1.502 . S
C1430 H1416 0.960 . S
C1430 H1417 0.961 . S
C1430 H1418 0.959 . S
C1430 C1428 1.561 . S
C1431 C1428 1.526 . S
C1431 C1432 1.396 . S
C1431 C1436 1.390 . S
C1432 C1426 1.465 . S
C1432 C1431 1.396 . S
C1432 C1433 1.399 . S
C1433 H1419 0.929 . S
C1433 C1432 1.399 . S
C1433 C1434 1.385 . S
C1434 H1420 0.931 . S
C1434 C1433 1.385 . S
C1434 C1435 1.389 . S
C1435 C1434 1.389 . S
C1435 C1436 1.387 . S
C1436 H1421 0.930 . S
C1436 C1431 1.390 . S
C1436 C1435 1.387 . S
H1437 C1449 0.930 . S
H1438 C1451 0.930 . S
H1439 C1452 0.930 . S
H1440 C1456 0.959 . S
H1441 C1456 0.959 . S
H1442 C1456 0.961 . S
H1443 C1457 0.960 . S
H1444 C1457 0.961 . S
H1445 C1457 0.959 . S
H1446 C1460 0.929 . S
H1447 C1461 0.931 . S
H1448 C1463 0.930 . S
C1449 H1437 0.930 . S
C1449 C1450 1.399 . S
C1449 C1454 1.399 . S
C1450 C1449 1.399 . S
C1450 C1451 1.376 . S
C1451 H1438 0.930 . S
C1451 C1450 1.376 . S
C1451 C1452 1.388 . S
C1452 H1439 0.930 . S
C1452 C1451 1.388 . S
C1452 C1453 1.390 . S
C1453 C1452 1.390 . S
C1453 C1454 1.394 . S
C1453 C1459 1.465 . S
C1454 C1449 1.399 . S
C1454 C1453 1.394 . S
C1454 C1455 1.516 . S
C1455 C1454 1.516 . S
C1455 C1456 1.502 . S
C1455 C1457 1.561 . S
C1455 C1458 1.526 . S
C1456 H1440 0.959 . S
C1456 H1441 0.959 . S
C1456 H1442 0.961 . S
C1456 C1455 1.502 . S
C1457 H1443 0.960 . S
C1457 H1444 0.961 . S
C1457 H1445 0.959 . S
C1457 C1455 1.561 . S
C1458 C1455 1.526 . S
C1458 C1459 1.396 . S
C1458 C1463 1.390 . S
C1459 C1453 1.465 . S
C1459 C1458 1.396 . S
C1459 C1460 1.399 . S
C1460 H1446 0.929 . S
C1460 C1459 1.399 . S
C1460 C1461 1.385 . S
C1461 H1447 0.931 . S
C1461 C1460 1.385 . S
C1461 C1462 1.389 . S
C1462 C1461 1.389 . S
C1462 C1463 1.387 . S
C1463 H1448 0.930 . S
C1463 C1458 1.390 . S
C1463 C1462 1.387 . S
H1464 C1476 0.930 . S
H1465 C1478 0.930 . S
H1466 C1479 0.930 . S
H1467 C1483 0.959 . S
H1468 C1483 0.959 . S
H1469 C1483 0.961 . S
H1470 C1484 0.960 . S
H1471 C1484 0.961 . S
H1472 C1484 0.959 . S
H1473 C1487 0.929 . S
H1474 C1488 0.931 . S
H1475 C1490 0.930 . S
C1476 H1464 0.930 . S
C1476 C1477 1.399 . S
C1476 C1481 1.399 . S
C1477 C1476 1.399 . S
C1477 C1478 1.376 . S
C1478 H1465 0.930 . S
C1478 C1477 1.376 . S
C1478 C1479 1.388 . S
C1479 H1466 0.930 . S
C1479 C1478 1.388 . S
C1479 C1480 1.390 . S
C1480 C1479 1.390 . S
C1480 C1481 1.394 . S
C1480 C1486 1.465 . S
C1481 C1476 1.399 . S
C1481 C1480 1.394 . S
C1481 C1482 1.516 . S
C1482 C1481 1.516 . S
C1482 C1483 1.502 . S
C1482 C1484 1.561 . S
C1482 C1485 1.526 . S
C1483 H1467 0.959 . S
C1483 H1468 0.959 . S
C1483 H1469 0.961 . S
C1483 C1482 1.502 . S
C1484 H1470 0.960 . S
C1484 H1471 0.961 . S
C1484 H1472 0.959 . S
C1484 C1482 1.561 . S
C1485 C1482 1.526 . S
C1485 C1486 1.396 . S
C1485 C1490 1.390 . S
C1486 C1480 1.465 . S
C1486 C1485 1.396 . S
C1486 C1487 1.399 . S
C1487 H1473 0.929 . S
C1487 C1486 1.399 . S
C1487 C1488 1.385 . S
C1488 H1474 0.931 . S
C1488 C1487 1.385 . S
C1488 C1489 1.389 . S
C1489 C1488 1.389 . S
C1489 C1490 1.387 . S
C1490 H1475 0.930 . S
C1490 C1485 1.390 . S
C1490 C1489 1.387 . S
H1491 C1503 0.930 1_565 S
H1492 C1505 0.930 1_565 S
H1493 C1506 0.930 . S
H1494 C1510 0.959 . S
H1495 C1510 0.959 . S
H1496 C1510 0.961 . S
H1497 C1511 0.960 . S
H1498 C1511 0.961 . S
H1499 C1511 0.959 . S
H1500 C1514 0.929 . S
H1501 C1515 0.931 . S
H1502 C1517 0.930 . S
C1503 H1491 0.930 1_545 S
C1503 C1504 1.399 1_545 S
C1503 C1508 1.399 . S
C1504 C1503 1.399 1_565 S
C1504 C1505 1.376 1_565 S
C1505 H1492 0.930 1_545 S
C1505 C1504 1.376 1_545 S
C1505 C1506 1.388 . S
C1506 H1493 0.930 . S
C1506 C1505 1.388 . S
C1506 C1507 1.390 . S
C1507 C1506 1.390 . S
C1507 C1508 1.394 . S
C1507 C1513 1.465 . S
C1508 C1503 1.399 . S
C1508 C1507 1.394 . S
C1508 C1509 1.516 . S
C1509 C1508 1.516 . S
C1509 C1510 1.502 . S
C1509 C1511 1.561 . S
C1509 C1512 1.526 . S
C1510 H1494 0.959 . S
C1510 H1495 0.959 . S
C1510 H1496 0.961 . S
C1510 C1509 1.502 . S
C1511 H1497 0.960 . S
C1511 H1498 0.961 . S
C1511 H1499 0.959 . S
C1511 C1509 1.561 . S
C1512 C1509 1.526 . S
C1512 C1513 1.396 . S
C1512 C1517 1.390 . S
C1513 C1507 1.465 . S
C1513 C1512 1.396 . S
C1513 C1514 1.399 . S
C1514 H1500 0.929 . S
C1514 C1513 1.399 . S
C1514 C1515 1.385 . S
C1515 H1501 0.931 . S
C1515 C1514 1.385 . S
C1515 C1516 1.389 . S
C1516 C1515 1.389 . S
C1516 C1517 1.387 . S
C1517 H1502 0.930 . S
C1517 C1512 1.390 . S
C1517 C1516 1.387 . S
H1518 C1530 0.930 . S
H1519 C1532 0.930 . S
H1520 C1533 0.930 . S
H1521 C1537 0.959 . S
H1522 C1537 0.959 . S
H1523 C1537 0.961 . S
H1524 C1538 0.960 . S
H1525 C1538 0.961 . S
H1526 C1538 0.959 . S
H1527 C1541 0.929 . S
H1528 C1542 0.931 . S
H1529 C1544 0.930 . S
C1530 H1518 0.930 . S
C1530 C1531 1.399 . S
C1530 C1535 1.399 . S
C1531 C1530 1.399 . S
C1531 C1532 1.376 . S
C1532 H1519 0.930 . S
C1532 C1531 1.376 . S
C1532 C1533 1.388 . S
C1533 H1520 0.930 . S
C1533 C1532 1.388 . S
C1533 C1534 1.390 . S
C1534 C1533 1.390 . S
C1534 C1535 1.394 . S
C1534 C1540 1.465 . S
C1535 C1530 1.399 . S
C1535 C1534 1.394 . S
C1535 C1536 1.516 . S
C1536 C1535 1.516 . S
C1536 C1537 1.502 . S
C1536 C1538 1.561 . S
C1536 C1539 1.526 . S
C1537 H1521 0.959 . S
C1537 H1522 0.959 . S
C1537 H1523 0.961 . S
C1537 C1536 1.502 . S
C1538 H1524 0.960 . S
C1538 H1525 0.961 . S
C1538 H1526 0.959 . S
C1538 C1536 1.561 . S
C1539 C1536 1.526 . S
C1539 C1540 1.396 . S
C1539 C1544 1.390 . S
C1540 C1534 1.465 . S
C1540 C1539 1.396 . S
C1540 C1541 1.399 . S
C1541 H1527 0.929 . S
C1541 C1540 1.399 . S
C1541 C1542 1.385 . S
C1542 H1528 0.931 . S
C1542 C1541 1.385 . S
C1542 C1543 1.389 . S
C1543 C1542 1.389 . S
C1543 C1544 1.387 . S
C1544 H1529 0.930 . S
C1544 C1539 1.390 . S
C1544 C1543 1.387 . S
H1545 C1557 0.930 1_554 S
H1546 C1559 0.930 . S
H1547 C1560 0.930 . S
H1548 C1564 0.959 1_556 S
H1549 C1564 0.959 . S
H1550 C1564 0.961 . S
H1551 C1565 0.960 1_554 S
H1552 C1565 0.961 1_554 S
H1553 C1565 0.959 . S
H1554 C1568 0.929 . S
H1555 C1569 0.931 . S
H1556 C1571 0.930 . S
C1557 H1545 0.930 1_556 S
C1557 C1558 1.399 . S
C1557 C1562 1.399 1_545 S
C1558 C1557 1.399 . S
C1558 C1559 1.376 . S
C1559 H1546 0.930 . S
C1559 C1558 1.376 . S
C1559 C1560 1.388 . S
C1560 H1547 0.930 . S
C1560 C1559 1.388 . S
C1560 C1561 1.390 1_545 S
C1561 C1560 1.390 1_565 S
C1561 C1562 1.394 . S
C1561 C1567 1.465 . S
C1562 C1557 1.399 1_565 S
C1562 C1561 1.394 . S
C1562 C1563 1.516 . S
C1563 C1562 1.516 . S
C1563 C1564 1.502 1_556 S
C1563 C1565 1.561 . S
C1563 C1566 1.526 . S
C1564 H1548 0.959 1_554 S
C1564 H1549 0.959 . S
C1564 H1550 0.961 . S
C1564 C1563 1.502 1_554 S
C1565 H1551 0.960 1_556 S
C1565 H1552 0.961 1_556 S
C1565 H1553 0.959 . S
C1565 C1563 1.561 . S
C1566 C1563 1.526 . S
C1566 C1567 1.396 . S
C1566 C1571 1.390 . S
C1567 C1561 1.465 . S
C1567 C1566 1.396 . S
C1567 C1568 1.399 . S
C1568 H1554 0.929 . S
C1568 C1567 1.399 . S
C1568 C1569 1.385 . S
C1569 H1555 0.931 . S
C1569 C1568 1.385 . S
C1569 C1570 1.389 . S
C1570 C1569 1.389 . S
C1570 C1571 1.387 . S
C1571 H1556 0.930 . S
C1571 C1566 1.390 . S
C1571 C1570 1.387 . S
H1572 C1584 0.930 . S
H1573 C1586 0.930 . S
H1574 C1587 0.930 . S
H1575 C1591 0.959 . S
H1576 C1591 0.959 . S
H1577 C1591 0.961 . S
H1578 C1592 0.960 . S
H1579 C1592 0.961 . S
H1580 C1592 0.959 . S
H1581 C1595 0.929 . S
H1582 C1596 0.931 . S
H1583 C1598 0.930 . S
C1584 H1572 0.930 . S
C1584 C1585 1.399 . S
C1584 C1589 1.399 . S
C1585 C1584 1.399 . S
C1585 C1586 1.376 . S
C1586 H1573 0.930 . S
C1586 C1585 1.376 . S
C1586 C1587 1.388 . S
C1587 H1574 0.930 . S
C1587 C1586 1.388 . S
C1587 C1588 1.390 . S
C1588 C1587 1.390 . S
C1588 C1589 1.394 . S
C1588 C1594 1.465 . S
C1589 C1584 1.399 . S
C1589 C1588 1.394 . S
C1589 C1590 1.516 . S
C1590 C1589 1.516 . S
C1590 C1591 1.502 . S
C1590 C1592 1.561 . S
C1590 C1593 1.526 . S
C1591 H1575 0.959 . S
C1591 H1576 0.959 . S
C1591 H1577 0.961 . S
C1591 C1590 1.502 . S
C1592 H1578 0.960 . S
C1592 H1579 0.961 . S
C1592 H1580 0.959 . S
C1592 C1590 1.561 . S
C1593 C1590 1.526 . S
C1593 C1594 1.396 . S
C1593 C1598 1.390 . S
C1594 C1588 1.465 . S
C1594 C1593 1.396 . S
C1594 C1595 1.399 . S
C1595 H1581 0.929 . S
C1595 C1594 1.399 . S
C1595 C1596 1.385 . S
C1596 H1582 0.931 . S
C1596 C1595 1.385 . S
C1596 C1597 1.389 . S
C1597 C1596 1.389 . S
C1597 C1598 1.387 . S
C1598 H1583 0.930 . S
C1598 C1593 1.390 . S
C1598 C1597 1.387 . S
H1599 C1611 0.930 . S
H1600 C1613 0.930 . S
H1601 C1614 0.930 . S
H1602 C1618 0.959 . S
H1603 C1618 0.959 . S
H1604 C1618 0.961 . S
H1605 C1619 0.960 . S
H1606 C1619 0.961 . S
H1607 C1619 0.959 . S
H1608 C1622 0.929 . S
H1609 C1623 0.931 . S
H1610 C1625 0.930 . S
C1611 H1599 0.930 . S
C1611 C1612 1.399 . S
C1611 C1616 1.399 . S
C1612 C1611 1.399 . S
C1612 C1613 1.376 . S
C1613 H1600 0.930 . S
C1613 C1612 1.376 . S
C1613 C1614 1.388 . S
C1614 H1601 0.930 . S
C1614 C1613 1.388 . S
C1614 C1615 1.390 . S
C1615 C1614 1.390 . S
C1615 C1616 1.394 . S
C1615 C1621 1.465 . S
C1616 C1611 1.399 . S
C1616 C1615 1.394 . S
C1616 C1617 1.516 . S
C1617 C1616 1.516 . S
C1617 C1618 1.502 . S
C1617 C1619 1.561 . S
C1617 C1620 1.526 . S
C1618 H1602 0.959 . S
C1618 H1603 0.959 . S
C1618 H1604 0.961 . S
C1618 C1617 1.502 . S
C1619 H1605 0.960 . S
C1619 H1606 0.961 . S
C1619 H1607 0.959 . S
C1619 C1617 1.561 . S
C1620 C1617 1.526 . S
C1620 C1621 1.396 . S
C1620 C1625 1.390 . S
C1621 C1615 1.465 . S
C1621 C1620 1.396 . S
C1621 C1622 1.399 . S
C1622 H1608 0.929 . S
C1622 C1621 1.399 . S
C1622 C1623 1.385 . S
C1623 H1609 0.931 . S
C1623 C1622 1.385 . S
C1623 C1624 1.389 . S
C1624 C1623 1.389 . S
C1624 C1625 1.387 . S
C1625 H1610 0.930 . S
C1625 C1620 1.390 . S
C1625 C1624 1.387 . S
H1626 C1638 0.930 . S
H1627 C1640 0.930 . S
H1628 C1641 0.930 . S
H1629 C1645 0.959 . S
H1630 C1645 0.959 . S
H1631 C1645 0.961 . S
H1632 C1646 0.960 . S
H1633 C1646 0.961 . S
H1634 C1646 0.959 . S
H1635 C1649 0.929 . S
H1636 C1650 0.931 . S
H1637 C1652 0.930 . S
C1638 H1626 0.930 . S
C1638 C1639 1.399 . S
C1638 C1643 1.399 . S
C1639 C1638 1.399 . S
C1639 C1640 1.376 . S
C1640 H1627 0.930 . S
C1640 C1639 1.376 . S
C1640 C1641 1.388 . S
C1641 H1628 0.930 . S
C1641 C1640 1.388 . S
C1641 C1642 1.390 . S
C1642 C1641 1.390 . S
C1642 C1643 1.394 . S
C1642 C1648 1.465 . S
C1643 C1638 1.399 . S
C1643 C1642 1.394 . S
C1643 C1644 1.516 . S
C1644 C1643 1.516 . S
C1644 C1645 1.502 . S
C1644 C1646 1.561 . S
C1644 C1647 1.526 . S
C1645 H1629 0.959 . S
C1645 H1630 0.959 . S
C1645 H1631 0.961 . S
C1645 C1644 1.502 . S
C1646 H1632 0.960 . S
C1646 H1633 0.961 . S
C1646 H1634 0.959 . S
C1646 C1644 1.561 . S
C1647 C1644 1.526 . S
C1647 C1648 1.396 . S
C1647 C1652 1.390 . S
C1648 C1642 1.465 . S
C1648 C1647 1.396 . S
C1648 C1649 1.399 . S
C1649 H1635 0.929 . S
C1649 C1648 1.399 . S
C1649 C1650 1.385 . S
C1650 H1636 0.931 . S
C1650 C1649 1.385 . S
C1650 C1651 1.389 . S
C1651 C1650 1.389 . S
C1651 C1652 1.387 . S
C1652 H1637 0.930 . S
C1652 C1647 1.390 . S
C1652 C1651 1.387 . S
H1653 C1665 0.930 . S
H1654 C1667 0.930 . S
H1655 C1668 0.930 . S
H1656 C1672 0.959 . S
H1657 C1672 0.959 . S
H1658 C1672 0.961 . S
H1659 C1673 0.960 . S
H1660 C1673 0.961 . S
H1661 C1673 0.959 . S
H1662 C1676 0.929 . S
H1663 C1677 0.931 . S
H1664 C1679 0.930 . S
C1665 H1653 0.930 . S
C1665 C1666 1.399 . S
C1665 C1670 1.399 . S
C1666 C1665 1.399 . S
C1666 C1667 1.376 . S
C1667 H1654 0.930 . S
C1667 C1666 1.376 . S
C1667 C1668 1.388 . S
C1668 H1655 0.930 . S
C1668 C1667 1.388 . S
C1668 C1669 1.390 . S
C1669 C1668 1.390 . S
C1669 C1670 1.394 . S
C1669 C1675 1.465 . S
C1670 C1665 1.399 . S
C1670 C1669 1.394 . S
C1670 C1671 1.516 . S
C1671 C1670 1.516 . S
C1671 C1672 1.502 . S
C1671 C1673 1.561 . S
C1671 C1674 1.526 . S
C1672 H1656 0.959 . S
C1672 H1657 0.959 . S
C1672 H1658 0.961 . S
C1672 C1671 1.502 . S
C1673 H1659 0.960 . S
C1673 H1660 0.961 . S
C1673 H1661 0.959 . S
C1673 C1671 1.561 . S
C1674 C1671 1.526 . S
C1674 C1675 1.396 . S
C1674 C1679 1.390 . S
C1675 C1669 1.465 . S
C1675 C1674 1.396 . S
C1675 C1676 1.399 . S
C1676 H1662 0.929 . S
C1676 C1675 1.399 . S
C1676 C1677 1.385 . S
C1677 H1663 0.931 . S
C1677 C1676 1.385 . S
C1677 C1678 1.389 . S
C1678 C1677 1.389 . S
C1678 C1679 1.387 . S
C1679 H1664 0.930 . S
C1679 C1674 1.390 . S
C1679 C1678 1.387 . S
C409 C373 1.287 . S
C397 C8 1.315 . S
C424 C23 1.191 . S
C436 C326 0.982 . S
C451 C35 1.321 . S
C463 C337 1.218 . S
C490 C362 0.942 . S
C478 C45 1.150 . S
C505 C22 1.323 . S
C517 C380 1.194 . S
C544 C319 1.101 . S
C532 C31 1.096 . S
C571 C344 1.209 . S
C559 C49 1.336 . S
C598 C355 0.964 . S
C586 C9 1.147 . S
C613 C65 1.265 . S
C625 C356 1.332 . S
C652 C382 1.083 . S
C640 C73 1.203 . S
C679 C320 1.366 . S
C667 C93 1.306 1_565 S
C706 C346 0.938 . S
C694 C101 1.117 . S
C721 C59 1.271 . S
C733 C328 1.176 . S
C748 C79 1.204 . S
C760 C338 1.111 . S
C775 C87 1.289 . S
C787 C364 1.270 . S
C814 C374 1.166 . S
C802 C107 1.279 . S
C841 C211 1.377 . S
C829 C106 1.368 . S
C868 C194 1.204 . S
C856 C119 1.294 . S
C895 C220 1.109 . S
C883 C134 1.237 . S
C922 C238 1.249 . S
C910 C147 1.280 . S
C937 C64 1.156 . S
C949 C212 1.156 . S
C964 C78 1.339 . S
C976 C182 1.321 . S
C991 C133 1.207 . S
C1003 C236 1.110 . S
C1018 C161 1.177 . S
C1030 C193 1.112 . S
C1057 C247 1.273 . S
C1045 C36 1.319 . S
C1084 C272 1.158 . S
C1072 C51 1.162 . S
C1099 C7 1.335 . S
C1111 C283 1.309 . S
C1126 C17 1.149 . S
C1138 C308 1.109 . S
C1165 C254 1.246 . S
C1153 C50 1.299 1_554 S
C1192 C265 1.099 . S
C1180 C3 1.095 . S
C1207 C21 1.348 . S
C1219 C290 1.249 . S
C1246 C301 1.128 . S
C1234 C37 1.109 . S
C1261 C163 1.302 . S
C1273 C302 1.234 . S
C1288 C115 1.196 . S
C1300 C256 1.104 . S
C1327 C266 1.353 . S
C1315 C135 1.337 . S
C1342 C143 1.115 . S
C1354 C292 1.076 . S
C1381 C274 1.282 . S
C1369 C157 1.277 . S
C1396 C121 1.189 . S
C1408 C284 0.995 . S
C1435 C310 1.246 . S
C1423 C129 1.304 . S
C1462 C248 1.183 . S
C1450 C149 1.275 . S
C1489 C175 1.287 . S
C1477 C148 1.389 . S
C1516 C230 1.281 . S
C1504 C77 1.304 . S
C1531 C92 1.171 . S
C1543 C184 1.169 . S
C1570 C202 1.141 . S
C1558 C105 1.281 . S
C1597 C176 1.154 . S
C1585 C162 1.152 . S
C1612 C120 1.326 . S
C1624 C218 1.322 . S
C1639 C91 1.212 . S
C1651 C200 1.097 . S
C1666 C63 1.212 . S
C1678 C229 0.929 . S
