# Generated by pormake.
# Topology sqc, (4,8)-cn, num edge types: 1
# Building blocks:
#     Node 0, Type 0, BuildingBlock: NAWXER_clean_linker_0, # of connection points: 4
#     Node 1, Type 0, BuildingBlock: NAWXER_clean_linker_0, # of connection points: 4
#     Node 2, Type 0, BuildingBlock: NAWXER_clean_linker_0, # of connection points: 4
#     Node 3, Type 0, BuildingBlock: NAWXER_clean_linker_0, # of connection points: 4
#     Node 4, Type 0, BuildingBlock: NAWXER_clean_linker_0, # of connection points: 4
#     Node 5, Type 0, BuildingBlock: NAWXER_clean_linker_0, # of connection points: 4
#     Node 6, Type 0, BuildingBlock: NAWXER_clean_linker_0, # of connection points: 4
#     Node 7, Type 0, BuildingBlock: NAWXER_clean_linker_0, # of connection points: 4
#     Node 8, Type 1, BuildingBlock: VETTIZ_charged_sbu_0, # of connection points: 8
#     Node 9, Type 1, BuildingBlock: VETTIZ_charged_sbu_0, # of connection points: 8
#     Node 10, Type 1, BuildingBlock: VETTIZ_charged_sbu_0, # of connection points: 8
#     Node 11, Type 1, BuildingBlock: VETTIZ_charged_sbu_0, # of connection points: 8
#     Edge 12, Type (0, 1), BuildingBlock: EZIPEK_clean_linker_0, # of connection points: 2
#     Edge 13, Type (0, 1), BuildingBlock: EZIPEK_clean_linker_0, # of connection points: 2
#     Edge 14, Type (0, 1), BuildingBlock: EZIPEK_clean_linker_0, # of connection points: 2
#     Edge 15, Type (0, 1), BuildingBlock: EZIPEK_clean_linker_0, # of connection points: 2
#     Edge 16, Type (0, 1), BuildingBlock: EZIPEK_clean_linker_0, # of connection points: 2
#     Edge 17, Type (0, 1), BuildingBlock: EZIPEK_clean_linker_0, # of connection points: 2
#     Edge 18, Type (0, 1), BuildingBlock: EZIPEK_clean_linker_0, # of connection points: 2
#     Edge 19, Type (0, 1), BuildingBlock: EZIPEK_clean_linker_0, # of connection points: 2
#     Edge 20, Type (0, 1), BuildingBlock: EZIPEK_clean_linker_0, # of connection points: 2
#     Edge 21, Type (0, 1), BuildingBlock: EZIPEK_clean_linker_0, # of connection points: 2
#     Edge 22, Type (0, 1), BuildingBlock: EZIPEK_clean_linker_0, # of connection points: 2
#     Edge 23, Type (0, 1), BuildingBlock: EZIPEK_clean_linker_0, # of connection points: 2
#     Edge 24, Type (0, 1), BuildingBlock: EZIPEK_clean_linker_0, # of connection points: 2
#     Edge 25, Type (0, 1), BuildingBlock: EZIPEK_clean_linker_0, # of connection points: 2
#     Edge 26, Type (0, 1), BuildingBlock: EZIPEK_clean_linker_0, # of connection points: 2
#     Edge 27, Type (0, 1), BuildingBlock: EZIPEK_clean_linker_0, # of connection points: 2
#     Edge 28, Type (0, 1), BuildingBlock: EZIPEK_clean_linker_0, # of connection points: 2
#     Edge 29, Type (0, 1), BuildingBlock: EZIPEK_clean_linker_0, # of connection points: 2
#     Edge 30, Type (0, 1), BuildingBlock: EZIPEK_clean_linker_0, # of connection points: 2
#     Edge 31, Type (0, 1), BuildingBlock: EZIPEK_clean_linker_0, # of connection points: 2
#     Edge 32, Type (0, 1), BuildingBlock: EZIPEK_clean_linker_0, # of connection points: 2
#     Edge 33, Type (0, 1), BuildingBlock: EZIPEK_clean_linker_0, # of connection points: 2
#     Edge 34, Type (0, 1), BuildingBlock: EZIPEK_clean_linker_0, # of connection points: 2
#     Edge 35, Type (0, 1), BuildingBlock: EZIPEK_clean_linker_0, # of connection points: 2
#     Edge 36, Type (0, 1), BuildingBlock: EZIPEK_clean_linker_0, # of connection points: 2
#     Edge 37, Type (0, 1), BuildingBlock: EZIPEK_clean_linker_0, # of connection points: 2
#     Edge 38, Type (0, 1), BuildingBlock: EZIPEK_clean_linker_0, # of connection points: 2
#     Edge 39, Type (0, 1), BuildingBlock: EZIPEK_clean_linker_0, # of connection points: 2
#     Edge 40, Type (0, 1), BuildingBlock: EZIPEK_clean_linker_0, # of connection points: 2
#     Edge 41, Type (0, 1), BuildingBlock: EZIPEK_clean_linker_0, # of connection points: 2
#     Edge 42, Type (0, 1), BuildingBlock: EZIPEK_clean_linker_0, # of connection points: 2
#     Edge 43, Type (0, 1), BuildingBlock: EZIPEK_clean_linker_0, # of connection points: 2
# Relax obj value: 0.124
# Max RMSD: 0.266
# Mean RMSD: 0.155
data_MOF--net-sqc--node1-VETTIZ_charged_sbu_0--node2-NAWXER_clean_linker_0--edge1-EZIPEK_clean_linker_0
_symmetry_space_group_name_H-M    P1
_symmetry_Int_Tables_number       1
_symmetry_cell_setting            triclinic
loop_
_symmetry_equiv_pos_as_xyz
'x, y, z'
_cell_length_a     22.011588
_cell_length_b     22.045025
_cell_length_c     66.131689
_cell_angle_alpha  89.872478
_cell_angle_beta   90.018912
_cell_angle_gamma 89.082407
loop_
_atom_site_label
_atom_site_type_symbol
_atom_site_fract_x
_atom_site_fract_y
_atom_site_fract_z
_atom_type_partial_charge
C0 C 0.23308 0.01315 0.47464 0.0
C1 C 0.24375 0.95407 0.4675 0.0
C2 C 0.18252 0.02603 0.48679 0.0
C3 C 0.14181 0.98 0.49203 0.0
C4 C 0.20316 0.90802 0.47268 0.0
C5 C 0.15233 0.921 0.48472 0.0
C6 C 0.08631 0.99422 0.50396 0.0
C7 C 0.24167 0.02001 0.5477 0.0
C8 C 0.24563 0.07831 0.55603 0.0
C9 C 0.1909 1.00418 0.53617 0.0
C10 C 0.14368 0.04674 0.53256 0.0
C11 C 0.19885 0.12086 0.55238 0.0
C12 C 0.14829 0.10517 0.54083 0.0
C13 C 0.08712 0.02962 0.52176 0.0
C14 C 0.83717 0.04921 0.55425 0.0
C15 C 0.81647 0.10756 0.54853 0.0
C16 C 0.88977 0.02389 0.54556 0.0
C17 C 0.92374 0.05764 0.53173 0.0
C18 C 0.85044 0.14055 0.53437 0.0
C19 C 0.90504 0.11697 0.52681 0.0
C20 C 0.97856 0.03181 0.52207 0.0
C21 C 0.81368 0.98239 0.48575 0.0
C22 C 0.81409 0.92546 0.47635 0.0
C23 C 0.86658 1.00549 0.49409 0.0
C24 C 0.92019 0.97 0.49542 0.0
C25 C 0.86809 0.89047 0.47668 0.0
C26 C 0.92011 0.912 0.48646 0.0
C27 C 0.9773 0.99316 0.50492 0.0
H28 H 0.26352 0.04935 0.4706 0.0
H29 H 0.17456 0.07228 0.49174 0.0
H30 H 0.21049 0.86222 0.46718 0.0
H31 H 0.12124 0.88496 0.48835 0.0
H32 H 0.27726 0.98651 0.55047 0.0
H33 H 0.1879 0.95823 0.53056 0.0
H34 H 0.20118 0.16606 0.55871 0.0
H35 H 0.11245 0.1387 0.53846 0.0
H36 H 0.81232 0.02313 0.56531 0.0
H37 H 0.90417 0.97833 0.54972 0.0
H38 H 0.83549 0.1854 0.5296 0.0
H39 H 0.93103 0.14371 0.51623 0.0
H40 H 0.77314 0.01094 0.48544 0.0
H41 H 0.86504 0.05227 0.49845 0.0
H42 H 0.87011 0.84671 0.46928 0.0
H43 H 0.96067 0.88352 0.48672 0.0
N44 N 0.03163 0.97637 0.49654 0.0
N45 N 0.03311 0.04785 0.52983 0.0
C46 C 0.35063 0.56145 0.74968 0.0
C47 C 0.34235 0.55015 0.72902 0.0
C48 C 0.33253 0.61716 0.75789 0.0
C49 C 0.30467 0.66189 0.74565 0.0
C50 C 0.31605 0.59521 0.71665 0.0
C51 C 0.29759 0.65087 0.72489 0.0
C52 C 0.28272 0.71991 0.75449 0.0
C53 C 0.16787 0.57175 0.77815 0.0
C54 C 0.1737 0.5609 0.79896 0.0
C55 C 0.19047 0.6249 0.76962 0.0
C56 C 0.22086 0.6675 0.78165 0.0
C57 C 0.20255 0.604 0.81112 0.0
C58 C 0.22575 0.657 0.80254 0.0
C59 C 0.24772 0.7225 0.77236 0.0
C60 C 0.1654 0.96437 0.79329 0.0
C61 C 0.20725 0.98843 0.8071 0.0
C62 C 0.18154 0.91457 0.78119 0.0
C63 C 0.23943 0.88757 0.78292 0.0
C64 C 0.26584 0.96239 0.8083 0.0
C65 C 0.28096 0.91108 0.79685 0.0
C66 C 0.25412 0.83066 0.77211 0.0
C67 C 0.34132 0.98331 0.73635 0.0
C68 C 0.33103 0.9811 0.71539 0.0
C69 C 0.32698 0.93402 0.74872 0.0
C70 C 0.29909 0.88251 0.74063 0.0
C71 C 0.30508 0.92897 0.70712 0.0
C72 C 0.2888 0.88055 0.71962 0.0
C73 C 0.28432 0.82832 0.75316 0.0
H74 H 0.3713 0.52724 0.75938 0.0
H75 H 0.33997 0.62517 0.77385 0.0
H76 H 0.30968 0.58715 0.70064 0.0
H77 H 0.27669 0.68483 0.71515 0.0
H78 H 0.1453 0.5393 0.76856 0.0
H79 H 0.18439 0.63258 0.75356 0.0
H80 H 0.20712 0.59652 0.82725 0.0
H81 H 0.24847 0.68925 0.81216 0.0
H82 H 0.11991 0.98355 0.79214 0.0
H83 H 0.14835 0.89609 0.7709 0.0
H84 H 0.29895 0.98024 0.81875 0.0
H85 H 0.32531 0.88982 0.79878 0.0
H86 H 0.36221 0.02264 0.74305 0.0
H87 H 0.34015 0.93586 0.76438 0.0
H88 H 0.29728 0.92586 0.69098 0.0
H89 H 0.26838 0.84117 0.71279 0.0
N90 N 0.29804 0.77272 0.74531 0.0
N91 N 0.23601 0.77776 0.78076 0.0
C92 C 0.30759 0.02185 0.97646 0.0
C93 C 0.30171 0.07817 0.96662 0.0
C94 C 0.35874 0.00853 0.98838 0.0
C95 C 0.40373 0.05233 0.99141 0.0
C96 C 0.3484 0.12039 0.96859 0.0
C97 C 0.39865 0.10778 0.98095 0.0
C98 C 0.45702 0.04075 0.00491 0.0
C99 C 0.28961 0.02057 0.04198 0.0
C100 C 0.28313 0.96307 0.05076 0.0
C101 C 0.34552 0.03765 0.03396 0.0
C102 C 0.39502 0.99641 0.03371 0.0
C103 C 0.33297 0.92257 0.05114 0.0
C104 C 0.38847 0.93908 0.04266 0.0
C105 C 0.4535 0.01255 0.02412 0.0
C106 C 0.66393 0.97279 0.07214 0.0
C107 C 0.71959 0.95841 0.06271 0.0
C108 C 0.61369 0.99284 0.0607 0.0
C109 C 0.61712 0.99722 0.03946 0.0
C110 C 0.72341 0.9639 0.04158 0.0
C111 C 0.67231 0.98007 0.0301 0.0
C112 C 0.56204 0.01622 0.02743 0.0
C113 C 0.68863 0.07531 0.97104 0.0
C114 C 0.72865 0.1116 0.98195 0.0
C115 C 0.63503 0.05575 0.97989 0.0
C116 C 0.62092 0.07165 0.99988 0.0
C117 C 0.71419 0.12897 1.0018 0.0
C118 C 0.66033 0.1092 0.01073 0.0
C119 C 0.56452 0.04871 0.00891 0.0
H120 H 0.27248 0.98828 0.97495 0.0
H121 H 0.36259 0.96425 0.99541 0.0
H122 H 0.34547 0.16356 0.96084 0.0
H123 H 0.43311 0.14195 0.9826 0.0
H124 H 0.25177 0.0526 0.04176 0.0
H125 H 0.34985 0.08291 0.02779 0.0
H126 H 0.3288 0.87814 0.058 0.0
H127 H 0.42605 0.90675 0.04284 0.0
H128 H 0.65925 0.96821 0.08838 0.0
H129 H 0.57181 1.0043 0.0685 0.0
H130 H 0.76537 0.95243 0.03382 0.0
H131 H 0.67634 0.97763 0.01385 0.0
H132 H 0.69897 0.06217 0.95562 0.0
H133 H 0.60499 0.02726 0.97123 0.0
H134 H 0.74441 0.15774 0.01027 0.0
H135 H 0.64959 0.12279 0.02606 0.0
N136 N 0.51233 0.0585 0.99833 0.0
N137 N 0.50612 1.00044 0.0344 0.0
C138 C 0.22599 0.05325 0.23547 0.0
C139 C 0.16403 0.04372 0.23198 0.0
C140 C 0.24469 0.10636 0.24483 0.0
C141 C 0.20154 0.1504 0.25068 0.0
C142 C 0.12072 0.08655 0.23865 0.0
C143 C 0.13951 0.1401 0.24772 0.0
C144 C 0.22106 0.20864 0.25889 0.0
C145 C 0.24965 0.06351 0.30623 0.0
C146 C 0.31029 0.05687 0.31255 0.0
C147 C 0.23107 0.11443 0.2949 0.0
C148 C 0.27297 0.15932 0.28944 0.0
C149 C 0.35192 0.10201 0.30742 0.0
C150 C 0.33344 0.15273 0.29603 0.0
C151 C 0.25458 0.21321 0.27698 0.0
C152 C 0.25067 0.48609 0.28891 0.0
C153 C 0.30588 0.49072 0.29933 0.0
C154 C 0.23387 0.43065 0.28056 0.0
C155 C 0.27372 0.38001 0.28142 0.0
C156 C 0.3447 0.43973 0.30078 0.0
C157 C 0.32893 0.38504 0.29183 0.0
C158 C 0.25758 0.32092 0.27239 0.0
C159 C 0.25139 0.45886 0.22228 0.0
C160 C 0.19374 0.46781 0.21357 0.0
C161 C 0.26309 0.40864 0.23481 0.0
C162 C 0.21686 0.36723 0.23931 0.0
C163 C 0.14856 0.42483 0.21718 0.0
C164 C 0.16002 0.375 0.22988 0.0
C165 C 0.22746 0.31549 0.25355 0.0
H166 H 0.25982 0.02064 0.23027 0.0
H167 H 0.29279 0.11401 0.24692 0.0
H168 H 0.07276 0.07971 0.23595 0.0
H169 H 0.10581 0.17384 0.25217 0.0
H170 H 0.21656 0.02984 0.31037 0.0
H171 H 0.18373 0.11899 0.29063 0.0
H172 H 0.39874 0.09814 0.31238 0.0
H173 H 0.36663 0.18664 0.2922 0.0
H174 H 0.22017 0.52496 0.28763 0.0
H175 H 0.18971 0.42755 0.27347 0.0
H176 H 0.38757 0.44246 0.30876 0.0
H177 H 0.36014 0.34667 0.29297 0.0
H178 H 0.287 0.49128 0.21963 0.0
H179 H 0.30802 0.40277 0.24127 0.0
H180 H 0.10397 0.43063 0.21051 0.0
H181 H 0.12386 0.34337 0.23278 0.0
N182 N 0.20922 0.25952 0.2478 0.0
N183 N 0.27115 0.26944 0.2831 0.0
C184 C 0.84263 0.04926 0.2369 0.0
C185 C 0.83758 0.05213 0.21572 0.0
C186 C 0.82919 0.10008 0.24882 0.0
C187 C 0.8066 0.15411 0.24 0.0
C188 C 0.81855 0.10715 0.20676 0.0
C189 C 0.80273 0.15737 0.21877 0.0
C190 C 0.78793 0.20753 0.25263 0.0
C191 C 0.67873 0.05025 0.27405 0.0
C192 C 0.68788 0.03531 0.29447 0.0
C193 C 0.69941 0.10534 0.26645 0.0
C194 C 0.73187 0.14495 0.27895 0.0
C195 C 0.71912 0.07535 0.30706 0.0
C196 C 0.74096 0.12976 0.29935 0.0
C197 C 0.75551 0.20279 0.2711 0.0
C198 C 0.67378 0.45101 0.29307 0.0
C199 C 0.70255 0.46363 0.31156 0.0
C200 C 0.69336 0.40192 0.28116 0.0
C201 C 0.74124 0.36383 0.2877 0.0
C202 C 0.75215 0.42682 0.31764 0.0
C203 C 0.7705 0.37667 0.30602 0.0
C204 C 0.75999 0.31012 0.27558 0.0
C205 C 0.86528 0.46808 0.25198 0.0
C206 C 0.85108 0.48263 0.23188 0.0
C207 C 0.84521 0.41374 0.26035 0.0
C208 C 0.81018 0.37389 0.24875 0.0
C209 C 0.81617 0.44299 0.2203 0.0
C210 C 0.79599 0.38886 0.22867 0.0
C211 C 0.79082 0.31513 0.25701 0.0
H212 H 0.85802 1.00776 0.24421 0.0
H213 H 0.83604 0.09671 0.26499 0.0
H214 H 0.81518 0.11094 0.19046 0.0
H215 H 0.78671 0.19862 0.21145 0.0
H216 H 0.65419 0.02001 0.2642 0.0
H217 H 0.69019 0.1169 0.25081 0.0
H218 H 0.72614 0.06461 0.32289 0.0
H219 H 0.7653 0.15986 0.30931 0.0
H220 H 0.63541 0.47852 0.28806 0.0
H221 H 0.67023 0.39279 0.26706 0.0
H222 H 0.77519 0.43567 0.33178 0.0
H223 H 0.8077 0.348 0.31128 0.0
H224 H 0.8931 0.49793 0.26094 0.0
H225 H 0.85852 0.40214 0.27565 0.0
H226 H 0.8055 0.45356 0.20468 0.0
H227 H 0.76953 0.3585 0.21944 0.0
N228 N 0.80352 0.26389 0.24623 0.0
N229 N 0.74342 0.25413 0.28192 0.0
C230 C 0.6278 0.92242 0.73006 0.0
C231 C 0.67135 0.96562 0.72505 0.0
C232 C 0.64487 0.87021 0.74069 0.0
C233 C 0.70544 0.86106 0.74671 0.0
C234 C 0.73215 0.95628 0.73082 0.0
C235 C 0.74922 0.90405 0.74155 0.0
C236 C 0.7219 0.80586 0.75814 0.0
C237 C 0.84111 0.92117 0.80605 0.0
C238 C 0.80461 0.974 0.80502 0.0
C239 C 0.82116 0.86664 0.79775 0.0
C240 C 0.76402 0.86348 0.78838 0.0
C241 C 0.74682 0.97069 0.79611 0.0
C242 C 0.72605 0.9156 0.78841 0.0
C243 C 0.74653 0.80643 0.7779 0.0
C244 C 0.82789 0.55505 0.79627 0.0
C245 C 0.79261 0.53956 0.81317 0.0
C246 C 0.81183 0.60536 0.78433 0.0
C247 C 0.76081 0.64127 0.78933 0.0
C248 C 0.73964 0.57359 0.81743 0.0
C249 C 0.72446 0.62468 0.80579 0.0
C250 C 0.7469 0.69775 0.77808 0.0
C251 C 0.66461 0.54608 0.74051 0.0
C252 C 0.6877 0.54377 0.72072 0.0
C253 C 0.67797 0.59505 0.75312 0.0
C254 C 0.71479 0.64214 0.74609 0.0
C255 C 0.72517 0.59021 0.71382 0.0
C256 C 0.73828 0.63914 0.72636 0.0
C257 C 0.72441 0.69771 0.75812 0.0
H258 H 0.58077 0.92905 0.72561 0.0
H259 H 0.61065 0.83725 0.74446 0.0
H260 H 0.76624 0.98922 0.72692 0.0
H261 H 0.79632 0.89723 0.74587 0.0
H262 H 0.88574 0.92249 0.81293 0.0
H263 H 0.85126 0.82729 0.79815 0.0
H264 H 0.71769 0.01069 0.79523 0.0
H265 H 0.68067 0.91424 0.78215 0.0
H266 H 0.869 0.5295 0.79278 0.0
H267 H 0.84038 0.61755 0.77167 0.0
H268 H 0.71189 0.56239 0.83039 0.0
H269 H 0.68479 0.6518 0.80979 0.0
H270 H 0.63537 0.5106 0.74601 0.0
H271 H 0.65784 0.59711 0.76804 0.0
H272 H 0.74338 0.58903 0.6986 0.0
H273 H 0.76633 0.67517 0.72054 0.0
N274 N 0.71222 0.75179 0.74905 0.0
N275 N 0.75787 0.75202 0.78716 0.0
C276 C 0.71076 0.49127 0.97504 0.0
C277 C 0.72224 0.43177 0.96835 0.0
C278 C 0.66073 0.50406 0.98749 0.0
C279 C 0.62175 0.45742 0.99354 0.0
C280 C 0.6827 0.38548 0.97406 0.0
C281 C 0.63265 0.39827 0.98642 0.0
C282 C 0.56855 0.46981 0.00676 0.0
C283 C 0.73671 0.50187 0.04247 0.0
C284 C 0.74041 0.55965 0.05116 0.0
C285 C 0.68166 0.48192 0.0346 0.0
C286 C 0.63009 0.52055 0.03436 0.0
C287 C 0.68874 0.59778 0.05143 0.0
C288 C 0.63407 0.57844 0.04305 0.0
C289 C 0.57179 0.50086 0.0254 0.0
C290 C 0.35862 0.53705 0.07274 0.0
C291 C 0.3054 0.55667 0.06277 0.0
C292 C 0.40921 0.51628 0.06166 0.0
C293 C 0.40818 0.51578 0.04037 0.0
C294 C 0.30392 0.55503 0.04153 0.0
C295 C 0.35529 0.5372 0.0305 0.0
C296 C 0.4634 0.49609 0.02874 0.0
C297 C 0.30734 0.39021 1.0028 0.0
C298 C 0.29632 0.40556 0.98251 0.0
C299 C 0.36154 0.4075 0.01208 0.0
C300 C 0.40443 0.4411 1.00119 0.0
C301 C 0.33981 0.43758 0.97155 0.0
C302 C 0.3935 0.45505 0.9808 0.0
C303 C 0.4611 0.46231 0.01054 0.0
H304 H 0.74064 0.5276 0.97068 0.0
H305 H 0.65248 0.5503 0.99241 0.0
H306 H 0.6908 0.33939 0.96902 0.0
H307 H 0.60293 0.36172 0.99071 0.0
H308 H 0.77598 0.4716 0.04236 0.0
H309 H 0.67949 0.43612 0.02881 0.0
H310 H 0.69076 0.6424 0.05821 0.0
H311 H 0.59496 0.6089 0.04325 0.0
H312 H 0.36134 0.53873 0.08908 0.0
H313 H 0.4495 0.50121 0.06976 0.0
H314 H 0.26388 0.57086 0.03343 0.0
H315 H 0.35359 0.54154 0.01422 0.0
H316 H 0.2742 0.36493 0.01134 0.0
H317 H 0.36972 0.39529 0.02773 0.0
H318 H 0.33193 0.44932 0.95584 0.0
H319 H 0.4261 0.48057 0.97209 0.0
N320 N 0.51351 0.45124 1.00027 0.0
N321 N 0.51904 0.5133 0.03554 0.0
C322 C 0.78659 0.54134 0.55411 0.0
C323 C 0.78519 0.48406 0.56338 0.0
C324 C 0.83639 0.55767 0.5422 0.0
C325 C 0.88546 0.51682 0.53926 0.0
C326 C 0.83388 0.44316 0.56041 0.0
C327 C 0.88363 0.45947 0.54854 0.0
C328 C 0.94065 0.53497 0.52791 0.0
C329 C 0.79521 0.53449 0.47964 0.0
C330 C 0.78181 0.5916 0.47116 0.0
C331 C 0.84481 0.52684 0.49268 0.0
C332 C 0.88197 0.57615 0.49739 0.0
C333 C 0.81842 0.64106 0.47604 0.0
C334 C 0.86843 0.63325 0.48889 0.0
C335 C 0.93838 0.56701 0.50935 0.0
C336 C 0.19678 0.57144 0.48162 0.0
C337 C 0.20653 0.63369 0.47889 0.0
C338 C 0.14429 0.55161 0.49132 0.0
C339 C 0.101 0.59385 0.49847 0.0
C340 C 0.16306 0.67591 0.48591 0.0
C341 C 0.11027 0.65605 0.49543 0.0
C342 C 0.04656 0.5736 0.50945 0.0
C343 C 0.21332 0.53952 0.54672 0.0
C344 C 0.21913 0.48087 0.55487 0.0
C345 C 0.1576 0.5601 0.53889 0.0
C346 C 0.10773 0.52092 0.53759 0.0
C347 C 0.1686 0.44273 0.55454 0.0
C348 C 0.11371 0.46236 0.54588 0.0
C349 C 0.04943 0.53959 0.52762 0.0
H350 H 0.74981 0.57378 0.55648 0.0
H351 H 0.83726 0.60288 0.53579 0.0
H352 H 0.83378 0.39892 0.56759 0.0
H353 H 0.92097 0.42733 0.54671 0.0
H354 H 0.76769 0.49575 0.47594 0.0
H355 H 0.85522 0.48199 0.49858 0.0
H356 H 0.80882 0.68545 0.46961 0.0
H357 H 0.89688 0.67172 0.49209 0.0
H358 H 0.22972 0.53831 0.47617 0.0
H359 H 0.13761 0.5034 0.49338 0.0
H360 H 0.16981 0.7241 0.48381 0.0
H361 H 0.07724 0.68922 0.5008 0.0
H362 H 0.2516 0.5698 0.54682 0.0
H363 H 0.15397 0.60664 0.53379 0.0
H364 H 0.17199 0.39725 0.56073 0.0
H365 H 0.07614 0.43124 0.54536 0.0
N366 N 0.99616 0.52184 0.53612 0.0
N367 N 0.99135 0.58581 0.50105 0.0
Fe368 Fe 0.01529 0.76095 0.16185 0.0
O369 O 0.06347 0.79588 0.13933 0.0
Fe370 Fe 0.87628 0.73049 0.14045 0.0
Fe371 Fe 0.15244 0.7916 0.13894 0.0
O372 O 0.96532 0.72541 0.1399 0.0
O373 O 0.96586 0.72428 0.13789 0.0
O374 O 0.06287 0.79693 0.13743 0.0
Fe375 Fe 0.01291 0.76158 0.11516 0.0
C376 C 0.11242 0.84612 0.17878 0.0
O377 O 0.06845 0.6837 0.16226 0.0
O378 O 0.15995 0.72458 0.16138 0.0
O379 O 0.95405 0.71515 0.09541 0.0
O380 O 0.88342 0.67106 0.11654 0.0
O381 O 0.88797 0.66947 0.16372 0.0
O382 O 0.95978 0.71777 0.18301 0.0
O383 O 0.16069 0.72691 0.11687 0.0
O384 O 0.0698 0.68514 0.11293 0.0
C385 C 0.9188 0.67688 0.1802 0.0
O386 O 0.95635 0.83824 0.11458 0.0
O387 O 0.86597 0.79584 0.11847 0.0
O388 O 0.07242 0.80475 0.18223 0.0
O389 O 0.14251 0.85243 0.16211 0.0
C390 C 0.12477 0.68146 0.16629 0.0
C391 C 0.12722 0.68515 0.11013 0.0
C392 C 0.11143 0.84913 0.09857 0.0
O393 O 0.14254 0.85185 0.1153 0.0
O394 O 0.06861 0.81012 0.09493 0.0
C395 C 0.91211 0.67544 0.09937 0.0
O396 O 0.87124 0.79697 0.16302 0.0
O397 O 0.96227 0.8384 0.16232 0.0
C398 C 0.89897 0.83834 0.11195 0.0
C399 C 0.90657 0.8405 0.16724 0.0
Fe400 Fe 0.51253 0.76443 0.41186 0.0
O401 O 0.47124 0.7164 0.39044 0.0
Fe402 Fe 0.55296 0.89592 0.38709 0.0
Fe403 Fe 0.4675 0.6277 0.39109 0.0
O404 O 0.55057 0.80683 0.38843 0.0
O405 O 0.55021 0.80678 0.38634 0.0
O406 O 0.47033 0.71659 0.38849 0.0
Fe407 Fe 0.50658 0.76043 0.36502 0.0
C408 C 0.58094 0.64921 0.41773 0.0
O409 O 0.46323 0.71556 0.43363 0.0
O410 O 0.40935 0.6467 0.41471 0.0
O411 O 0.43401 0.82322 0.36467 0.0
O412 O 0.48488 0.90954 0.36619 0.0
O413 O 0.49001 0.90996 0.41054 0.0
O414 O 0.44081 0.82315 0.41193 0.0
O415 O 0.40699 0.63836 0.36741 0.0
O416 O 0.45498 0.70558 0.34598 0.0
C417 C 0.44435 0.87883 0.41604 0.0
O418 O 0.55112 0.81313 0.34338 0.0
O419 O 0.60713 0.88144 0.36193 0.0
O420 O 0.58399 0.70482 0.41303 0.0
O421 O 0.53551 0.61718 0.41281 0.0
C422 C 0.41786 0.67914 0.43082 0.0
C423 C 0.41611 0.66305 0.34979 0.0
C424 C 0.57443 0.64015 0.36122 0.0
O425 O 0.53026 0.61117 0.36872 0.0
O426 O 0.57881 0.69768 0.36318 0.0
C427 C 0.4381 0.88016 0.36114 0.0
O428 O 0.61658 0.88096 0.40937 0.0
O429 O 0.56381 0.82017 0.4314 0.0
C430 C 0.59139 0.85552 0.34509 0.0
C431 C 0.60896 0.85557 0.4269 0.0
Fe432 Fe 0.51168 0.26457 0.66169 0.0
O433 O 0.56327 0.23662 0.63854 0.0
Fe434 Fe 0.37332 0.29798 0.63997 0.0
Fe435 Fe 0.65239 0.24367 0.63856 0.0
O436 O 0.46191 0.30525 0.6403 0.0
O437 O 0.46226 0.30625 0.6383 0.0
O438 O 0.56367 0.2378 0.63651 0.0
Fe439 Fe 0.51427 0.27918 0.61498 0.0
C440 C 0.61776 0.34432 0.66882 0.0
O441 O 0.57017 0.21605 0.68104 0.0
O442 O 0.64454 0.17636 0.66012 0.0
O443 O 0.46477 0.20123 0.61102 0.0
O444 O 0.36963 0.23354 0.61718 0.0
O445 O 0.3703 0.23039 0.66187 0.0
O446 O 0.46106 0.18673 0.6599 0.0
O447 O 0.64787 0.19091 0.61292 0.0
O448 O 0.57725 0.24403 0.59352 0.0
C449 C 0.40563 0.18539 0.6653 0.0
O450 O 0.4536 0.32752 0.5957 0.0
O451 O 0.37633 0.36078 0.61689 0.0
O452 O 0.56135 0.34161 0.66502 0.0
O453 O 0.65539 0.3044 0.66235 0.0
C454 C 0.6129 0.17676 0.67672 0.0
C455 C 0.62298 0.20592 0.59576 0.0
C456 C 0.62213 0.3599 0.61421 0.0
O457 O 0.65767 0.31589 0.61885 0.0
O458 O 0.56492 0.35751 0.61711 0.0
C459 C 0.40753 0.19717 0.60873 0.0
O460 O 0.38137 0.35608 0.66426 0.0
O461 O 0.45191 0.30268 0.68332 0.0
C462 C 0.40485 0.36007 0.59969 0.0
C463 C 0.4115 0.34601 0.68092 0.0
Fe464 Fe 0.01341 0.25795 0.91242 0.0
O465 O 0.97679 0.20953 0.89033 0.0
Fe466 Fe 0.03562 0.39885 0.89064 0.0
Fe467 Fe 0.98392 0.12108 0.88998 0.0
O468 O 0.04495 0.30948 0.88994 0.0
O469 O 0.04365 0.31013 0.88786 0.0
O470 O 0.97521 0.21034 0.8884 0.0
Fe471 Fe 1.00451 0.2628 0.86562 0.0
C472 C 0.09267 0.14951 0.91741 0.0
O473 O 0.9713 0.20009 0.93319 0.0
O474 O 0.92254 0.12968 0.91336 0.0
O475 O 0.92539 0.31594 0.86683 0.0
O476 O 0.96674 0.40688 0.86998 0.0
O477 O 0.97188 0.40069 0.91419 0.0
O478 O 0.93473 0.3079 0.91397 0.0
O479 O 0.92361 0.12666 0.86624 0.0
O480 O 0.95836 0.20383 0.84558 0.0
C481 C 0.93028 0.36328 0.91867 0.0
O482 O 0.04225 0.32589 0.84504 0.0
O483 O 0.09065 0.39598 0.86537 0.0
O484 O 0.09184 0.20523 0.91235 0.0
O485 O 0.04869 0.11549 0.91286 0.0
C486 C 0.92953 0.16009 0.92999 0.0
C487 C 0.92563 0.15583 0.84919 0.0
C488 C 0.0877 0.15391 0.85989 0.0
O489 O 0.05103 0.11674 0.86805 0.0
O490 O 0.08312 0.21116 0.86225 0.0
C491 C 0.92384 0.37336 0.86411 0.0
O492 O 0.10076 0.38936 0.91275 0.0
O493 O 0.05838 0.31521 0.93275 0.0
C494 C 0.07807 0.37201 0.84792 0.0
C495 C 0.0973 0.35791 0.92927 0.0
C496 C 0.28521 0.92754 0.43327 0.0
C497 C 0.29615 0.94065 0.45389 0.0
C498 C 0.40595 0.92676 0.44835 0.0
C499 C 0.39423 0.90622 0.42834 0.0
N500 N 0.32087 0.87907 0.40272 0.0
N501 N 0.36563 0.94591 0.48196 0.0
C502 C 0.33332 0.90437 0.42108 0.0
C503 C 0.35627 0.93905 0.46165 0.0
N504 N 0.22903 0.93892 0.42513 0.0
N505 N 0.4644 0.93339 0.45487 0.0
H506 H 0.33052 0.9547 0.49218 0.0
H507 H 0.40734 0.93808 0.489 0.0
H508 H 0.50224 0.92105 0.44632 0.0
H509 H 0.47567 0.95506 0.4683 0.0
H510 H 0.22001 0.93675 0.40969 0.0
H511 H 0.19268 0.95635 0.43354 0.0
H512 H 0.27706 0.86916 0.39792 0.0
H513 H 0.35431 0.86409 0.39273 0.0
C514 C 0.40987 0.05275 0.70224 0.0
C515 C 0.34901 0.03284 0.70213 0.0
C516 C 0.32438 0.11031 0.67642 0.0
C517 C 0.38403 0.1341 0.6783 0.0
N518 N 0.4707 0.14186 0.70047 0.0
N519 N 0.24463 0.05358 0.69276 0.0
C520 C 0.4235 0.10909 0.69324 0.0
C521 C 0.30505 0.0647 0.69024 0.0
N522 N 0.45504 0.01811 0.7108 0.0
N523 N 0.28633 0.12972 0.66133 0.0
H524 H 0.22841 0.02225 0.7032 0.0
H525 H 0.21042 0.07992 0.68605 0.0
H526 H 0.29797 0.16214 0.65062 0.0
H527 H 0.24524 0.10894 0.65816 0.0
H528 H 0.50075 0.02961 0.7098 0.0
H529 H 0.44756 0.9752 0.7169 0.0
H530 H 0.498 0.12694 0.71244 0.0
H531 H 0.47537 0.18754 0.6969 0.0
C532 C 0.23231 0.06168 0.93681 0.0
C533 C 0.24574 0.09377 0.95477 0.0
C534 C 0.15438 0.15777 0.94968 0.0
C535 C 0.14167 0.12617 0.93139 0.0
N536 N 0.15554 0.03208 0.91293 0.0
N537 N 0.21251 0.16249 0.98094 0.0
C538 C 0.17636 0.07309 0.92663 0.0
C539 C 0.20477 0.13923 0.96195 0.0
N540 N 0.27428 0.02216 0.92881 0.0
N541 N 0.11664 0.20396 0.95576 0.0
H542 H 0.24781 0.1488 0.99052 0.0
H543 H 0.18182 0.19186 0.98799 0.0
H544 H 0.07433 0.21196 0.94922 0.0
H545 H 0.12703 0.2346 0.96714 0.0
H546 H 0.26962 1.00272 0.91456 0.0
H547 H 0.31639 0.01324 0.93551 0.0
H548 H 0.17561 0.98933 0.91099 0.0
H549 H 0.11609 0.03821 0.90448 0.0
C550 C 0.12384 1.00374 0.19944 0.0
C551 C 0.14524 0.99222 0.21933 0.0
C552 C 0.14269 0.88275 0.21325 0.0
C553 C 0.11867 0.89477 0.19375 0.0
N554 N 0.06879 0.96488 0.17081 0.0
N555 N 0.16334 0.92204 0.24678 0.0
C556 C 0.10371 0.95477 0.18764 0.0
C557 C 0.15094 0.93197 0.22678 0.0
N558 N 0.12547 0.06093 0.19141 0.0
N559 N 0.15999 0.82501 0.21849 0.0
H560 H 0.16951 0.95731 0.25704 0.0
H561 H 0.16238 0.87935 0.25352 0.0
H562 H 0.15434 0.78792 0.20895 0.0
H563 H 0.18378 0.81444 0.23168 0.0
H564 H 0.11647 0.07015 0.17623 0.0
H565 H 0.14137 0.09838 0.19928 0.0
H566 H 0.05124 1.00752 0.16693 0.0
H567 H 0.05186 0.92986 0.16196 0.0
C568 C 0.3462 0.12916 0.56063 0.0
C569 C 0.29796 0.09525 0.56902 0.0
C570 C 0.34138 0.10777 0.60288 0.0
C571 C 0.38234 0.1503 0.59497 0.0
N572 N 0.44091 0.18183 0.56617 0.0
N573 N 0.24988 0.04986 0.59801 0.0
C574 C 0.39035 0.1548 0.57374 0.0
C575 C 0.2964 0.08267 0.59009 0.0
N576 N 0.34767 0.13948 0.54024 0.0
N577 N 0.34813 0.08922 0.62244 0.0
H578 H 0.21693 0.02951 0.58907 0.0
H579 H 0.24202 0.04552 0.61347 0.0
H580 H 0.38303 0.1054 0.63155 0.0
H581 H 0.32408 0.05368 0.62883 0.0
H582 H 0.37654 0.17011 0.5333 0.0
H583 H 0.31775 0.11904 0.53019 0.0
H584 H 0.4527 0.1817 0.55094 0.0
H585 H 0.47415 0.20045 0.57535 0.0
C586 C 0.16763 0.09554 0.81261 0.0
C587 C 0.18857 0.03922 0.82082 0.0
C588 C 0.17232 0.08023 0.8547 0.0
C589 C 0.1361 0.12747 0.84665 0.0
N590 N 0.10663 0.18718 0.81753 0.0
N591 N 0.20544 0.97661 0.85061 0.0
C592 C 0.13671 0.138 0.82545 0.0
C593 C 0.19061 0.03146 0.84215 0.0
N594 N 0.17837 0.10864 0.79274 0.0
N595 N 0.19052 0.08306 0.87432 0.0
H596 H 0.21481 0.93775 0.84216 0.0
H597 H 0.20216 0.96849 0.86612 0.0
H598 H 0.1787 0.11999 0.88346 0.0
H599 H 0.2231 0.05322 0.88032 0.0
H600 H 0.16898 0.15075 0.78621 0.0
H601 H 0.20222 0.07906 0.78322 0.0
H602 H 0.09919 0.19344 0.80211 0.0
H603 H 0.08639 0.22063 0.82646 0.0
C604 C 0.18887 0.89978 0.05129 0.0
C605 C 0.22486 0.94552 0.0603 0.0
C606 C 0.15674 0.94778 0.08945 0.0
C607 C 0.13096 0.89309 0.0827 0.0
N608 N 0.09708 0.83999 0.0532 0.0
N609 N 0.24252 0.01464 0.088 0.0
C610 C 0.13906 0.87566 0.06231 0.0
C611 C 0.20757 0.9714 0.07914 0.0
N612 N 0.20378 0.87811 0.03257 0.0
N613 N 0.13205 0.97647 0.10586 0.0
H614 H 0.28102 0.03258 0.08123 0.0
H615 H 0.23597 0.02975 0.10276 0.0
H616 H 0.09362 0.95977 0.11315 0.0
H617 H 0.14517 0.01915 0.11078 0.0
H618 H 0.18458 0.83974 0.02622 0.0
H619 H 0.23745 0.89745 0.02364 0.0
H620 H 0.09806 0.82871 0.03793 0.0
H621 H 0.05691 0.82787 0.06036 0.0
C622 C 0.33609 0.01565 0.34689 0.0
C623 C 0.32989 1.00534 0.32591 0.0
C624 C 0.37025 0.90134 0.33062 0.0
C625 C 0.38857 0.9163 0.35065 0.0
N626 N 0.38703 0.98909 0.37801 0.0
N627 N 0.3414 0.93892 0.29731 0.0
C628 C 0.37006 0.97358 0.35888 0.0
C629 C 0.34615 0.94794 0.31768 0.0
N630 N 0.30907 0.06574 0.35539 0.0
N631 N 0.3763 0.84314 0.3238 0.0
H632 H 0.32262 0.97135 0.28753 0.0
H633 H 0.35964 0.90115 0.28993 0.0
H634 H 0.39383 0.80782 0.33256 0.0
H635 H 0.35857 0.82856 0.31008 0.0
H636 H 0.30607 0.07265 0.37093 0.0
H637 H 0.28437 0.09774 0.34697 0.0
H638 H 0.38296 0.03282 0.38382 0.0
H639 H 0.408 0.95865 0.38784 0.0
C640 C 0.76402 0.19428 0.56666 0.0
C641 C 0.76098 0.13552 0.55795 0.0
C642 C 0.6559 0.12764 0.57024 0.0
C643 C 0.65911 0.18734 0.57788 0.0
N644 N 0.70652 0.28431 0.57557 0.0
N645 N 0.69683 0.05453 0.54629 0.0
C646 C 0.70989 0.22302 0.57328 0.0
C647 C 0.70456 0.10454 0.5581 0.0
N648 N 0.81859 0.22111 0.57009 0.0
N649 N 0.60714 0.09287 0.57492 0.0
H650 H 0.7303 0.03837 0.53643 0.0
H651 H 0.65522 0.03316 0.54473 0.0
H652 H 0.56985 0.11023 0.58291 0.0
H653 H 0.60522 0.04672 0.57164 0.0
H654 H 0.82235 0.26199 0.57786 0.0
H655 H 0.86025 0.19936 0.5675 0.0
H656 H 0.74146 0.31314 0.57135 0.0
H657 H 0.66542 0.30585 0.57899 0.0
C658 C 0.7022 0.93304 0.31065 0.0
C659 C 0.66238 0.97918 0.30318 0.0
C660 C 0.5753 0.92178 0.31504 0.0
C661 C 0.61518 0.88403 0.32649 0.0
N662 N 0.71653 0.84942 0.33428 0.0
N663 N 0.56037 0.02064 0.29993 0.0
C664 C 0.6788 0.88786 0.32377 0.0
C665 C 0.59861 0.97399 0.30548 0.0
N666 N 0.76202 0.93263 0.30514 0.0
N667 N 0.51517 0.90843 0.31346 0.0
H668 H 0.57525 0.06071 0.29333 0.0
H669 H 0.51431 0.02197 0.30357 0.0
H670 H 0.49682 0.86932 0.31956 0.0
H671 H 0.48528 0.93193 0.30393 0.0
H672 H 0.79244 0.89765 0.30877 0.0
H673 H 0.77998 0.96496 0.29536 0.0
H674 H 0.76347 0.85415 0.33495 0.0
H675 H 0.69999 0.81361 0.34294 0.0
C676 C 0.80053 0.87766 0.06867 0.0
C677 C 0.77258 0.9334 0.07461 0.0
C678 C 0.84133 0.93595 0.10411 0.0
C679 C 0.86941 0.88136 0.09746 0.0
N680 N 0.89383 0.81896 0.06891 0.0
N681 N 0.77885 0.02387 0.09509 0.0
C682 C 0.85494 0.85849 0.07822 0.0
C683 C 0.79679 0.96531 0.0915 0.0
N684 N 0.77346 0.84052 0.05495 0.0
N685 N 0.85701 0.95928 0.12243 0.0
H686 H 0.74857 0.04739 0.08568 0.0
H687 H 0.79832 0.05085 0.10616 0.0
H688 H 0.89193 0.94015 0.13116 0.0
H689 H 0.83399 0.99552 0.1292 0.0
H690 H 0.79062 0.79734 0.05156 0.0
H691 H 0.73052 0.84939 0.04888 0.0
H692 H 0.88757 0.80512 0.054 0.0
H693 H 0.93622 0.80821 0.07511 0.0
C694 C 0.88255 0.05632 0.80478 0.0
C695 C 0.82829 0.03252 0.81302 0.0
C696 C 0.82712 0.11467 0.83796 0.0
C697 C 0.88798 0.1283 0.83297 0.0
N698 N 0.97485 0.11086 0.81141 0.0
N699 N 0.7504 0.03744 0.8388 0.0
C700 C 0.91568 0.09981 0.81601 0.0
C701 C 0.80008 0.06202 0.82973 0.0
N702 N 0.9023 0.03737 0.78623 0.0
N703 N 0.7961 0.15139 0.85112 0.0
H704 H 0.73045 0.99756 0.8339 0.0
H705 H 0.73221 0.0537 0.85232 0.0
H706 H 0.81549 0.19027 0.85721 0.0
H707 H 0.74999 0.14687 0.85422 0.0
H708 H 0.93869 0.05687 0.77869 0.0
H709 H 0.87832 1.00644 0.7775 0.0
H710 H 0.9999 0.08545 0.80097 0.0
H711 H 0.99978 0.14349 0.81888 0.0
C712 C 0.73203 0.84876 0.4683 0.0
C713 C 0.75933 0.9059 0.46475 0.0
C714 C 0.67444 0.93346 0.44262 0.0
C715 C 0.65414 0.87275 0.44269 0.0
N716 N 0.67079 0.76921 0.45416 0.0
N717 N 0.76325 0.99536 0.44345 0.0
C718 C 0.68453 0.82926 0.45524 0.0
C719 C 0.7324 0.94633 0.45049 0.0
N720 N 0.74989 0.81385 0.48439 0.0
N721 N 0.63822 0.97917 0.43518 0.0
H722 H 0.80827 1.00375 0.44731 0.0
H723 H 0.74651 0.02311 0.43186 0.0
H724 H 0.59382 0.97199 0.4303 0.0
H725 H 0.64987 0.02475 0.43619 0.0
H726 H 0.72769 0.77436 0.48859 0.0
H727 H 0.78257 0.82762 0.49475 0.0
H728 H 0.69649 0.73549 0.46139 0.0
H729 H 0.63716 0.75237 0.4448 0.0
C730 C 0.91202 0.96996 0.20507 0.0
C731 C 0.8538 0.99779 0.20306 0.0
C732 C 0.8289 0.9234 0.17665 0.0
C733 C 0.88503 0.89224 0.18026 0.0
N734 N 0.96722 0.87486 0.2039 0.0
N735 N 0.75115 0.99068 0.1904 0.0
C736 C 0.92301 0.91237 0.19621 0.0
C737 C 0.81047 0.97157 0.18983 0.0
N738 N 0.95754 0.99884 0.21505 0.0
N739 N 0.79389 0.90877 0.16038 0.0
H740 H 0.7353 0.02403 0.20033 0.0
H741 H 0.71664 0.96904 0.18257 0.0
H742 H 0.80582 0.87495 0.15009 0.0
H743 H 0.75596 0.93438 0.15594 0.0
H744 H 1.00188 0.98169 0.21569 0.0
H745 H 0.95265 0.04267 0.22079 0.0
H746 H 0.99306 0.88587 0.21655 0.0
H747 H 0.97182 0.82969 0.19948 0.0
C748 C 0.77841 0.17835 0.9568 0.0
C749 C 0.78436 0.1328 0.97181 0.0
C750 C 0.89105 0.11606 0.96241 0.0
C751 C 0.8817 0.15425 0.9454 0.0
N752 N 0.81594 0.2193 0.92533 0.0
N753 N 0.84467 0.05635 0.98898 0.0
C754 C 0.82539 0.18524 0.94239 0.0
C755 C 0.84056 0.10165 0.97488 0.0
N756 N 0.72778 0.21509 0.95645 0.0
N757 N 0.94793 0.09343 0.9665 0.0
H758 H 0.809 0.04564 0.99867 0.0
H759 H 0.88208 0.02716 0.99039 0.0
H760 H 0.98536 0.10213 0.95732 0.0
H761 H 0.95904 0.07001 0.97971 0.0
H762 H 0.72312 0.25286 0.94707 0.0
H763 H 0.69266 0.21117 0.96696 0.0
H764 H 0.77361 0.23684 0.92109 0.0
H765 H 0.84949 0.22652 0.91451 0.0
C766 C 0.64758 0.07716 0.72294 0.0
C767 C 0.6532 0.02003 0.71324 0.0
C768 C 0.6167 0.06484 0.68162 0.0
C769 C 0.62094 0.12347 0.69026 0.0
N770 N 0.6388 0.18633 0.71949 0.0
N771 N 0.64998 0.95994 0.6828 0.0
C772 C 0.6354 0.12998 0.7111 0.0
C773 C 0.63947 0.01392 0.69243 0.0
N774 N 0.65201 0.08052 0.74354 0.0
N775 N 0.58813 0.0575 0.66343 0.0
H776 H 0.66688 0.92132 0.69017 0.0
H777 H 0.64704 0.95499 0.66717 0.0
H778 H 0.56784 0.09345 0.65551 0.0
H779 H 0.57835 0.01516 0.65739 0.0
H780 H 0.64185 0.11954 0.75179 0.0
H781 H 0.66127 0.04279 0.75265 0.0
H782 H 0.65746 0.1945 0.73368 0.0
H783 H 0.62484 0.2256 0.71201 0.0
C784 C 0.76764 0.40404 0.93471 0.0
C785 C 0.77603 0.41728 0.95548 0.0
C786 C 0.88598 0.39934 0.95185 0.0
C787 C 0.87716 0.38276 0.93128 0.0
N788 N 0.80752 0.35628 0.90453 0.0
N789 N 0.84098 0.41946 0.98477 0.0
C790 C 0.81735 0.38117 0.92313 0.0
C791 C 0.83473 0.41322 0.96429 0.0
N792 N 0.71238 0.41513 0.92587 0.0
N793 N 0.94335 0.40009 0.95969 0.0
H794 H 0.80464 0.42971 0.99436 0.0
H795 H 0.88111 0.41038 0.9926 0.0
H796 H 0.98086 0.38252 0.95202 0.0
H797 H 0.95425 0.41975 0.97349 0.0
H798 H 0.70513 0.41307 0.91033 0.0
H799 H 0.67487 0.43187 0.93386 0.0
H800 H 0.76445 0.34722 0.89888 0.0
H801 H 0.84237 0.34001 0.8953 0.0
C802 C 0.84451 0.59344 0.22327 0.0
C803 C 0.87626 0.53707 0.22213 0.0
C804 C 0.94181 0.57586 0.19546 0.0
C805 C 0.90954 0.63198 0.19632 0.0
N806 N 0.84028 0.69984 0.21351 0.0
N807 N 0.96417 0.47911 0.21149 0.0
C808 C 0.86427 0.64271 0.21115 0.0
C809 C 0.92817 0.52994 0.20968 0.0
N810 N 0.79407 0.59882 0.23523 0.0
N811 N 0.98329 0.56543 0.18041 0.0
H812 H 0.95512 0.44441 0.22176 0.0
H813 H 1.00572 0.47374 0.20418 0.0
H814 H 0.99482 0.59819 0.16977 0.0
H815 H 1.0034 0.52326 0.17757 0.0
H816 H 0.76479 0.63635 0.23505 0.0
H817 H 0.77968 0.56409 0.24475 0.0
H818 H 0.81089 0.71208 0.22519 0.0
H819 H 0.8537 0.73649 0.20465 0.0
C820 C 0.74183 0.61207 0.4361 0.0
C821 C 0.73016 0.59949 0.45677 0.0
C822 C 0.62072 0.59986 0.44974 0.0
C823 C 0.63189 0.62265 0.42995 0.0
N824 N 0.70402 0.65227 0.40433 0.0
N825 N 0.65827 0.5897 0.48403 0.0
C826 C 0.69281 0.62913 0.42313 0.0
C827 C 0.66955 0.59508 0.46378 0.0
N828 N 0.79963 0.60593 0.42873 0.0
N829 N 0.56381 0.58258 0.45531 0.0
H830 H 0.6926 0.58687 0.49488 0.0
H831 H 0.61495 0.59377 0.49027 0.0
H832 H 0.5262 0.5852 0.44584 0.0
H833 H 0.55491 0.55979 0.46878 0.0
H834 H 0.8102 0.60823 0.4134 0.0
H835 H 0.8365 0.5928 0.43773 0.0
H836 H 0.74683 0.66585 0.39959 0.0
H837 H 0.67 0.66064 0.39367 0.0
C838 C 0.62961 0.50316 0.69113 0.0
C839 C 0.67188 0.49315 0.707 0.0
C840 C 0.67996 0.38555 0.69798 0.0
C841 C 0.64005 0.39599 0.68126 0.0
N842 N 0.58971 0.46865 0.65918 0.0
N843 N 0.74732 0.42882 0.72293 0.0
C844 C 0.6185 0.45598 0.67706 0.0
C845 C 0.70006 0.43553 0.70963 0.0
N846 N 0.59867 0.55732 0.6898 0.0
N847 N 0.69661 0.32788 0.7035 0.0
H848 H 0.76293 0.46419 0.7319 0.0
H849 H 0.77458 0.38984 0.72377 0.0
H850 H 0.685 0.28945 0.69543 0.0
H851 H 0.71832 0.3175 0.7171 0.0
H852 H 0.56209 0.56472 0.68006 0.0
H853 H 0.60564 0.59317 0.69976 0.0
H854 H 0.57886 0.51252 0.65438 0.0
H855 H 0.58262 0.43625 0.64803 0.0
C856 C 0.83202 0.62669 0.05213 0.0
C857 C 0.79749 0.57944 0.06096 0.0
C858 C 0.86616 0.57723 0.08999 0.0
C859 C 0.89089 0.63269 0.0834 0.0
N860 N 0.92276 0.68781 0.05395 0.0
N861 N 0.78144 0.50914 0.08854 0.0
C862 C 0.88165 0.65118 0.06312 0.0
C863 C 0.81551 0.55326 0.07971 0.0
N864 N 0.81604 0.64929 0.03359 0.0
N865 N 0.89211 0.54768 0.10607 0.0
H866 H 0.74294 0.491 0.08186 0.0
H867 H 0.78855 0.4937 0.10326 0.0
H868 H 0.9308 0.56421 0.11322 0.0
H869 H 0.87987 0.50441 0.11073 0.0
H870 H 0.83392 0.68872 0.02747 0.0
H871 H 0.78262 0.62978 0.02461 0.0
H872 H 0.92105 0.69956 0.03871 0.0
H873 H 0.96324 0.69992 0.06089 0.0
C874 C 0.65556 0.49727 0.3446 0.0
C875 C 0.6779 0.51251 0.32516 0.0
C876 C 0.64064 0.61762 0.33001 0.0
C877 C 0.62086 0.60255 0.34992 0.0
N878 N 0.63105 0.53311 0.37806 0.0
N879 N 0.70634 0.591 0.30174 0.0
C880 C 0.63573 0.54408 0.3578 0.0
C881 C 0.67519 0.57401 0.31864 0.0
N882 N 0.64936 0.4379 0.35013 0.0
N883 N 0.62384 0.6716 0.32133 0.0
H884 H 0.7326 0.5605 0.29327 0.0
H885 H 0.71102 0.63609 0.29733 0.0
H886 H 0.59893 0.70517 0.32877 0.0
H887 H 0.6307 0.68125 0.30608 0.0
H888 H 0.62743 0.42483 0.36337 0.0
H889 H 0.65984 0.40162 0.34061 0.0
H890 H 0.64662 0.49302 0.38482 0.0
H891 H 0.61821 0.5667 0.38828 0.0
C892 C 0.67832 0.44819 0.56965 0.0
C893 C 0.73493 0.46759 0.57734 0.0
C894 C 0.70562 0.43563 0.61141 0.0
C895 C 0.65053 0.41234 0.60354 0.0
N896 N 0.57519 0.41806 0.57699 0.0
N897 N 0.79465 0.49732 0.60602 0.0
C898 C 0.63352 0.42632 0.5833 0.0
C899 C 0.74581 0.46728 0.59845 0.0
N900 N 0.66864 0.44742 0.54924 0.0
N901 N 0.72053 0.42512 0.63116 0.0
H902 H 0.82486 0.52079 0.59683 0.0
H903 H 0.80229 0.5037 0.6214 0.0
H904 H 0.69027 0.40583 0.64129 0.0
H905 H 0.76315 0.43332 0.63731 0.0
H906 H 0.63156 0.42667 0.54254 0.0
H907 H 0.69994 0.46394 0.53884 0.0
H908 H 0.55927 0.43161 0.56283 0.0
H909 H 0.54073 0.4048 0.58669 0.0
C910 C 0.81903 0.43035 0.8216 0.0
C911 C 0.8149 0.49206 0.82759 0.0
C912 C 0.85597 0.46411 0.86071 0.0
C913 C 0.87278 0.40568 0.85334 0.0
N914 N 0.8699 0.33303 0.82589 0.0
N915 N 0.83771 0.56924 0.85225 0.0
C916 C 0.85304 0.38806 0.83369 0.0
C917 C 0.83471 0.50929 0.8471 0.0
N918 N 0.79019 0.41218 0.8044 0.0
N919 N 0.86173 0.47694 0.88079 0.0
H920 H 0.82525 0.60458 0.84254 0.0
H921 H 0.85842 0.58421 0.86546 0.0
H922 H 0.87837 0.44528 0.89115 0.0
H923 H 0.8444 0.51652 0.88736 0.0
H924 H 0.78631 0.36687 0.80023 0.0
H925 H 0.76516 0.44214 0.79529 0.0
H926 H 0.86423 0.32164 0.81074 0.0
H927 H 0.89246 0.29953 0.83416 0.0
C928 C 0.22109 0.55233 0.0893 0.0
C929 C 0.25349 0.58503 0.0742 0.0
C930 C 0.18049 0.66871 0.07775 0.0
C931 C 0.15692 0.64266 0.09552 0.0
N932 N 0.15213 0.55768 0.11816 0.0
N933 N 0.2701 0.68143 0.05754 0.0
C934 C 0.17613 0.58347 0.10125 0.0
C935 C 0.23472 0.64516 0.06931 0.0
N936 N 0.23212 0.49167 0.09184 0.0
N937 N 0.15003 0.7155 0.06866 0.0
H938 H 0.31282 0.66803 0.05223 0.0
H939 H 0.26002 0.72727 0.05512 0.0
H940 H 0.10697 0.72886 0.07361 0.0
H941 H 0.16313 0.73352 0.05477 0.0
H942 H 0.20671 0.46442 0.10141 0.0
H943 H 0.26343 0.46752 0.08304 0.0
H944 H 0.16842 0.51723 0.12445 0.0
H945 H 0.11736 0.5788 0.12642 0.0
C946 C 0.08471 0.4991 0.81046 0.0
C947 C 0.1485 0.50491 0.80819 0.0
C948 C 0.16525 0.41102 0.82762 0.0
C949 C 0.10158 0.40607 0.83022 0.0
N950 N 1.00078 0.43405 0.81899 0.0
N951 N 0.24855 0.45925 0.81 0.0
C952 C 0.06136 0.44618 0.81979 0.0
C953 C 0.18854 0.45837 0.81529 0.0
N954 N 0.04654 0.54569 0.8048 0.0
N955 N 0.20329 0.37137 0.83752 0.0
H956 H 0.26675 0.4932 0.80092 0.0
H957 H 0.27918 0.42403 0.81314 0.0
H958 H 0.18719 0.33403 0.84552 0.0
H959 H 0.25014 0.37655 0.83841 0.0
H960 H 1.00039 0.5472 0.80826 0.0
H961 H 0.06166 0.58547 0.79805 0.0
H962 H 0.96974 0.45874 0.81023 0.0
H963 H 0.98259 0.39509 0.82527 0.0
C964 C 0.30701 0.40649 0.55461 0.0
C965 C 0.278 0.45798 0.56346 0.0
C966 C 0.35634 0.45804 0.5898 0.0
C967 C 0.376 0.39926 0.5838 0.0
N968 N 0.37019 0.31711 0.55978 0.0
N969 N 0.27828 0.53365 0.59032 0.0
C970 C 0.35247 0.37388 0.56571 0.0
C971 C 0.30395 0.48466 0.58094 0.0
N972 N 0.29166 0.38936 0.53545 0.0
N973 N 0.3857 0.4872 0.60506 0.0
H974 H 0.23776 0.55484 0.58584 0.0
H975 H 0.23776 0.55484 0.58584 0.0
H976 H 0.42554 0.46967 0.61157 0.0
H977 H 0.37198 0.52998 0.61024 0.0
H978 H 0.31503 0.35572 0.52744 0.0
H979 H 0.25953 0.41311 0.52679 0.0
H980 H 0.34801 0.29268 0.54859 0.0
H981 H 0.40574 0.29337 0.56658 0.0
C982 C 0.38041 0.57397 0.30215 0.0
C983 C 0.32504 0.54862 0.3086 0.0
C984 C 0.31995 0.62288 0.33592 0.0
C985 C 0.38206 0.63595 0.33277 0.0
N986 N 0.47385 0.61876 0.31295 0.0
N987 N 0.24238 0.54727 0.33272 0.0
C988 C 0.41284 0.61146 0.31561 0.0
C989 C 0.29396 0.5734 0.32554 0.0
N990 N 0.40256 0.56094 0.28333 0.0
N991 N 0.28643 0.65713 0.34915 0.0
H992 H 0.2225 0.50979 0.326 0.0
H993 H 0.22212 0.55983 0.34635 0.0
H994 H 0.30461 0.69434 0.35665 0.0
H995 H 0.23968 0.65262 0.35092 0.0
H996 H 0.44029 0.58225 0.2772 0.0
H997 H 0.37919 0.53375 0.27313 0.0
H998 H 0.49887 0.59516 0.30205 0.0
H999 H 0.50097 0.64404 0.32248 0.0
C1000 C 0.18994 0.42948 0.9713 0.0
C1001 C 0.23984 0.388 0.9721 0.0
C1002 C 0.19653 0.32826 0.94478 0.0
C1003 C 0.14513 0.36785 0.94448 0.0
N1004 N 0.09033 0.45478 0.95751 0.0
N1005 N 0.28523 0.29189 0.96304 0.0
C1006 C 0.14084 0.41791 0.95789 0.0
C1007 C 0.24109 0.33522 0.96001 0.0
N1008 N 0.19108 0.48109 0.98273 0.0
N1009 N 0.20482 0.28665 0.92968 0.0
H1010 H 0.31894 0.29581 0.97404 0.0
H1011 H 0.28504 0.24982 0.95598 0.0
H1012 H 0.17448 0.28203 0.91771 0.0
H1013 H 0.24435 0.26066 0.92789 0.0
H1014 H 0.15985 0.51677 0.98137 0.0
H1015 H 0.22521 0.48944 0.99328 0.0
H1016 H 0.08066 0.48777 0.96831 0.0
H1017 H 0.05654 0.45103 0.94656 0.0
C1018 C 0.31726 0.44757 0.71533 0.0
C1019 C 0.36164 0.49113 0.72018 0.0
C1020 C 0.4417 0.42378 0.7069 0.0
C1021 C 0.39633 0.38661 0.69826 0.0
N1022 N 0.29166 0.35697 0.69651 0.0
N1023 N 0.46605 0.52251 0.72048 0.0
C1024 C 0.33424 0.39646 0.70336 0.0
C1025 C 0.42399 0.47935 0.71621 0.0
N1026 N 0.2593 0.4549 0.72248 0.0
N1027 N 0.50141 0.40603 0.70653 0.0
H1028 H 0.45508 0.56378 0.72734 0.0
H1029 H 0.51128 0.5194 0.716 0.0
H1030 H 0.51651 0.36493 0.70061 0.0
H1031 H 0.53537 0.42836 0.71439 0.0
H1032 H 0.22569 0.42255 0.72103 0.0
H1033 H 0.24577 0.49187 0.73132 0.0
H1034 H 0.24502 0.36495 0.69732 0.0
H1035 H 0.30346 0.31597 0.68956 0.0
C1036 C 0.25556 0.67782 0.44806 0.0
C1037 C 0.26142 0.65433 0.46795 0.0
C1038 C 0.3727 0.65835 0.46537 0.0
C1039 C 0.3664 0.68058 0.44532 0.0
N1040 N 0.30347 0.7312 0.42047 0.0
N1041 N 0.3236 0.63535 0.49736 0.0
C1042 C 0.3082 0.69678 0.43765 0.0
C1043 C 0.31954 0.64875 0.4772 0.0
N1044 N 0.20025 0.67882 0.43862 0.0
N1045 N 0.42912 0.64469 0.47281 0.0
H1046 H 0.28547 0.62833 0.5064 0.0
H1047 H 0.36402 0.63592 0.50552 0.0
H1048 H 0.46871 0.65592 0.46517 0.0
H1049 H 0.43677 0.62089 0.48621 0.0
H1050 H 0.19471 0.68888 0.42332 0.0
H1051 H 0.16037 0.6646 0.44554 0.0
H1052 H 0.26252 0.74967 0.41525 0.0
H1053 H 0.34138 0.74674 0.41267 0.0
C1054 C 0.14141 0.56974 0.21053 0.0
C1055 C 0.17929 0.52423 0.20178 0.0
C1056 C 0.19181 0.58809 0.1715 0.0
C1057 C 0.14774 0.62995 0.17913 0.0
N1058 N 0.07943 0.66033 0.20601 0.0
N1059 N 0.23523 0.48621 0.17306 0.0
C1060 C 0.12215 0.62051 0.19867 0.0
C1061 C 0.20346 0.53257 0.18208 0.0
N1062 N 0.12604 0.56579 0.23054 0.0
N1063 N 0.22289 0.60135 0.15421 0.0
H1064 H 0.24459 0.44501 0.1803 0.0
H1065 H 0.24798 0.48651 0.1579 0.0
H1066 H 0.21414 0.64001 0.14554 0.0
H1067 H 0.26026 0.57612 0.14914 0.0
H1068 H 0.10423 0.6005 0.2385 0.0
H1069 H 0.13978 0.52979 0.23982 0.0
H1070 H 0.05203 0.65121 0.21845 0.0
H1071 H 0.06944 0.70183 0.19919 0.0
loop_
_geom_bond_atom_site_label_1
_geom_bond_atom_site_label_2
_geom_bond_distance
_geom_bond_site_symmetry_2
_ccdc_geom_bond_type
C0 C1 1.384 . S
C0 C2 1.384 1_565 S
C0 H28 0.931 1_565 S
C1 C0 1.384 . S
C1 C4 1.382 . S
C2 C0 1.384 1_545 S
C2 C3 1.381 1_545 S
C2 H29 0.930 . S
C3 C2 1.381 1_565 S
C3 C5 1.381 . S
C3 C6 1.487 . S
C4 C1 1.382 . S
C4 C5 1.387 . S
C4 H30 0.930 . S
C5 C3 1.381 . S
C5 C4 1.387 . S
C5 H31 0.931 . S
C6 C3 1.487 . S
C6 C13 1.399 1_565 S
C6 N44 1.343 . S
C7 C8 1.384 . S
C7 C9 1.384 . S
C7 H32 0.931 . S
C8 C7 1.384 . S
C8 C11 1.382 . S
C9 C7 1.384 . S
C9 C10 1.381 . S
C9 H33 0.930 1_545 S
C10 C9 1.381 . S
C10 C12 1.381 . S
C10 C13 1.487 . S
C11 C8 1.382 . S
C11 C12 1.387 . S
C11 H34 0.930 . S
C12 C10 1.381 . S
C12 C11 1.387 . S
C12 H35 0.931 . S
C13 C6 1.399 1_545 S
C13 C10 1.487 . S
C13 N45 1.343 . S
C14 C15 1.384 . S
C14 C16 1.384 . S
C14 H36 0.931 . S
C15 C14 1.384 . S
C15 C18 1.382 . S
C16 C14 1.384 . S
C16 C17 1.381 . S
C16 H37 0.930 1_545 S
C17 C16 1.381 . S
C17 C19 1.381 . S
C17 C20 1.487 . S
C18 C15 1.382 . S
C18 C19 1.387 . S
C18 H38 0.930 . S
C19 C17 1.381 . S
C19 C18 1.387 . S
C19 H39 0.931 . S
C20 C17 1.487 . S
C20 C27 1.399 1_545 S
C20 N45 1.343 1_655 S
C21 C22 1.384 . S
C21 C23 1.384 1_565 S
C21 H40 0.931 1_565 S
C22 C21 1.384 . S
C22 C25 1.382 . S
C23 C21 1.384 1_545 S
C23 C24 1.381 1_545 S
C23 H41 0.930 . S
C24 C23 1.381 1_565 S
C24 C26 1.381 . S
C24 C27 1.487 . S
C25 C22 1.382 . S
C25 C26 1.387 . S
C25 H42 0.930 . S
C26 C24 1.381 . S
C26 C25 1.387 . S
C26 H43 0.931 . S
C27 C20 1.399 1_565 S
C27 C24 1.487 . S
C27 N44 1.343 1_655 S
H28 C0 0.931 1_545 S
H29 C2 0.930 . S
H30 C4 0.930 . S
H31 C5 0.931 . S
H32 C7 0.931 . S
H33 C9 0.930 1_565 S
H34 C11 0.930 . S
H35 C12 0.931 . S
H36 C14 0.931 . S
H37 C16 0.930 1_565 S
H38 C18 0.930 . S
H39 C19 0.931 . S
H40 C21 0.931 1_545 S
H41 C23 0.930 . S
H42 C25 0.930 . S
H43 C26 0.931 . S
N44 C6 1.343 . S
N44 C27 1.343 1_455 S
N45 C13 1.343 . S
N45 C20 1.343 1_455 S
C46 C47 1.384 . S
C46 C48 1.384 . S
C46 H74 0.931 . S
C47 C46 1.384 . S
C47 C50 1.382 . S
C48 C46 1.384 . S
C48 C49 1.381 . S
C48 H75 0.930 . S
C49 C48 1.381 . S
C49 C51 1.381 . S
C49 C52 1.487 . S
C50 C47 1.382 . S
C50 C51 1.387 . S
C50 H76 0.930 . S
C51 C49 1.381 . S
C51 C50 1.387 . S
C51 H77 0.931 . S
C52 C49 1.487 . S
C52 C59 1.399 . S
C52 N90 1.343 . S
C53 C54 1.384 . S
C53 C55 1.384 . S
C53 H78 0.931 . S
C54 C53 1.384 . S
C54 C57 1.382 . S
C55 C53 1.384 . S
C55 C56 1.381 . S
C55 H79 0.930 . S
C56 C55 1.381 . S
C56 C58 1.381 . S
C56 C59 1.487 . S
C57 C54 1.382 . S
C57 C58 1.387 . S
C57 H80 0.930 . S
C58 C56 1.381 . S
C58 C57 1.387 . S
C58 H81 0.931 . S
C59 C52 1.399 . S
C59 C56 1.487 . S
C59 N91 1.343 . S
C60 C61 1.384 . S
C60 C62 1.384 . S
C60 H82 0.931 . S
C61 C60 1.384 . S
C61 C64 1.382 . S
C62 C60 1.384 . S
C62 C63 1.381 . S
C62 H83 0.930 . S
C63 C62 1.381 . S
C63 C65 1.381 . S
C63 C66 1.487 . S
C64 C61 1.382 . S
C64 C65 1.387 . S
C64 H84 0.930 . S
C65 C63 1.381 . S
C65 C64 1.387 . S
C65 H85 0.931 . S
C66 C63 1.487 . S
C66 C73 1.399 . S
C66 N91 1.343 . S
C67 C68 1.384 . S
C67 C69 1.384 . S
C67 H86 0.931 . S
C68 C67 1.384 . S
C68 C71 1.382 . S
C69 C67 1.384 . S
C69 C70 1.381 . S
C69 H87 0.930 . S
C70 C69 1.381 . S
C70 C72 1.381 . S
C70 C73 1.487 . S
C71 C68 1.382 . S
C71 C72 1.387 . S
C71 H88 0.930 . S
C72 C70 1.381 . S
C72 C71 1.387 . S
C72 H89 0.931 . S
C73 C66 1.399 . S
C73 C70 1.487 . S
C73 N90 1.343 . S
H74 C46 0.931 . S
H75 C48 0.930 . S
H76 C50 0.930 . S
H77 C51 0.931 . S
H78 C53 0.931 . S
H79 C55 0.930 . S
H80 C57 0.930 . S
H81 C58 0.931 . S
H82 C60 0.931 . S
H83 C62 0.930 . S
H84 C64 0.930 . S
H85 C65 0.931 . S
H86 C67 0.931 . S
H87 C69 0.930 . S
H88 C71 0.930 . S
H89 C72 0.931 . S
N90 C52 1.343 . S
N90 C73 1.343 . S
N91 C59 1.343 . S
N91 C66 1.343 . S
C92 C93 1.384 . S
C92 C94 1.384 . S
C92 H120 0.931 1_545 S
C93 C92 1.384 . S
C93 C96 1.382 . S
C94 C92 1.384 . S
C94 C95 1.381 . S
C94 H121 0.930 1_545 S
C95 C94 1.381 . S
C95 C97 1.381 . S
C95 C98 1.487 1_556 S
C96 C93 1.382 . S
C96 C97 1.387 . S
C96 H122 0.930 . S
C97 C95 1.381 . S
C97 C96 1.387 . S
C97 H123 0.931 . S
C98 C95 1.487 1_554 S
C98 C105 1.399 1_545 S
C98 N136 1.343 1_554 S
C99 C100 1.384 . S
C99 C101 1.384 . S
C99 H124 0.931 1_565 S
C100 C99 1.384 . S
C100 C103 1.382 . S
C101 C99 1.384 . S
C101 C102 1.381 . S
C101 H125 0.930 1_565 S
C102 C101 1.381 . S
C102 C104 1.381 . S
C102 C105 1.487 . S
C103 C100 1.382 . S
C103 C104 1.387 . S
C103 H126 0.930 . S
C104 C102 1.381 . S
C104 C103 1.387 . S
C104 H127 0.931 . S
C105 C98 1.399 1_565 S
C105 C102 1.487 . S
C105 N137 1.343 . S
C106 C107 1.384 . S
C106 C108 1.384 . S
C106 H128 0.931 1_565 S
C107 C106 1.384 . S
C107 C110 1.382 . S
C108 C106 1.384 . S
C108 C109 1.381 . S
C108 H129 0.930 1_565 S
C109 C108 1.381 . S
C109 C111 1.381 . S
C109 C112 1.487 . S
C110 C107 1.382 . S
C110 C111 1.387 . S
C110 H130 0.930 . S
C111 C109 1.381 . S
C111 C110 1.387 . S
C111 H131 0.931 . S
C112 C109 1.487 . S
C112 C119 1.399 1_565 S
C112 N137 1.343 . S
C113 C114 1.384 . S
C113 C115 1.384 . S
C113 H132 0.931 1_545 S
C114 C113 1.384 . S
C114 C117 1.382 . S
C115 C113 1.384 . S
C115 C116 1.381 . S
C115 H133 0.930 1_545 S
C116 C115 1.381 . S
C116 C118 1.381 . S
C116 C119 1.487 1_556 S
C117 C114 1.382 . S
C117 C118 1.387 . S
C117 H134 0.930 . S
C118 C116 1.381 . S
C118 C117 1.387 . S
C118 H135 0.931 . S
C119 C112 1.399 1_545 S
C119 C116 1.487 1_554 S
C119 N136 1.343 1_554 S
H120 C92 0.931 1_565 S
H121 C94 0.930 1_565 S
H122 C96 0.930 . S
H123 C97 0.931 . S
H124 C99 0.931 1_545 S
H125 C101 0.930 1_545 S
H126 C103 0.930 . S
H127 C104 0.931 . S
H128 C106 0.931 1_545 S
H129 C108 0.930 1_545 S
H130 C110 0.930 . S
H131 C111 0.931 . S
H132 C113 0.931 1_565 S
H133 C115 0.930 1_565 S
H134 C117 0.930 . S
H135 C118 0.931 . S
N136 C98 1.343 1_556 S
N136 C119 1.343 1_556 S
N137 C105 1.343 . S
N137 C112 1.343 . S
C138 C139 1.384 . S
C138 C140 1.384 . S
C138 H166 0.931 . S
C139 C138 1.384 . S
C139 C142 1.382 . S
C140 C138 1.384 . S
C140 C141 1.381 . S
C140 H167 0.930 . S
C141 C140 1.381 . S
C141 C143 1.381 . S
C141 C144 1.487 . S
C142 C139 1.382 . S
C142 C143 1.387 . S
C142 H168 0.930 . S
C143 C141 1.381 . S
C143 C142 1.387 . S
C143 H169 0.931 . S
C144 C141 1.487 . S
C144 C151 1.399 . S
C144 N182 1.343 . S
C145 C146 1.384 . S
C145 C147 1.384 . S
C145 H170 0.931 . S
C146 C145 1.384 . S
C146 C149 1.382 . S
C147 C145 1.384 . S
C147 C148 1.381 . S
C147 H171 0.930 . S
C148 C147 1.381 . S
C148 C150 1.381 . S
C148 C151 1.487 . S
C149 C146 1.382 . S
C149 C150 1.387 . S
C149 H172 0.930 . S
C150 C148 1.381 . S
C150 C149 1.387 . S
C150 H173 0.931 . S
C151 C144 1.399 . S
C151 C148 1.487 . S
C151 N183 1.343 . S
C152 C153 1.384 . S
C152 C154 1.384 . S
C152 H174 0.931 . S
C153 C152 1.384 . S
C153 C156 1.382 . S
C154 C152 1.384 . S
C154 C155 1.381 . S
C154 H175 0.930 . S
C155 C154 1.381 . S
C155 C157 1.381 . S
C155 C158 1.487 . S
C156 C153 1.382 . S
C156 C157 1.387 . S
C156 H176 0.930 . S
C157 C155 1.381 . S
C157 C156 1.387 . S
C157 H177 0.931 . S
C158 C155 1.487 . S
C158 C165 1.399 . S
C158 N183 1.343 . S
C159 C160 1.384 . S
C159 C161 1.384 . S
C159 H178 0.931 . S
C160 C159 1.384 . S
C160 C163 1.382 . S
C161 C159 1.384 . S
C161 C162 1.381 . S
C161 H179 0.930 . S
C162 C161 1.381 . S
C162 C164 1.381 . S
C162 C165 1.487 . S
C163 C160 1.382 . S
C163 C164 1.387 . S
C163 H180 0.930 . S
C164 C162 1.381 . S
C164 C163 1.387 . S
C164 H181 0.931 . S
C165 C158 1.399 . S
C165 C162 1.487 . S
C165 N182 1.343 . S
H166 C138 0.931 . S
H167 C140 0.930 . S
H168 C142 0.930 . S
H169 C143 0.931 . S
H170 C145 0.931 . S
H171 C147 0.930 . S
H172 C149 0.930 . S
H173 C150 0.931 . S
H174 C152 0.931 . S
H175 C154 0.930 . S
H176 C156 0.930 . S
H177 C157 0.931 . S
H178 C159 0.931 . S
H179 C161 0.930 . S
H180 C163 0.930 . S
H181 C164 0.931 . S
N182 C144 1.343 . S
N182 C165 1.343 . S
N183 C151 1.343 . S
N183 C158 1.343 . S
C184 C185 1.384 . S
C184 C186 1.384 . S
C184 H212 0.931 . S
C185 C184 1.384 . S
C185 C188 1.382 . S
C186 C184 1.384 . S
C186 C187 1.381 . S
C186 H213 0.930 . S
C187 C186 1.381 . S
C187 C189 1.381 . S
C187 C190 1.487 . S
C188 C185 1.382 . S
C188 C189 1.387 . S
C188 H214 0.930 . S
C189 C187 1.381 . S
C189 C188 1.387 . S
C189 H215 0.931 . S
C190 C187 1.487 . S
C190 C197 1.399 . S
C190 N228 1.343 . S
C191 C192 1.384 . S
C191 C193 1.384 . S
C191 H216 0.931 . S
C192 C191 1.384 . S
C192 C195 1.382 . S
C193 C191 1.384 . S
C193 C194 1.381 . S
C193 H217 0.930 . S
C194 C193 1.381 . S
C194 C196 1.381 . S
C194 C197 1.487 . S
C195 C192 1.382 . S
C195 C196 1.387 . S
C195 H218 0.930 . S
C196 C194 1.381 . S
C196 C195 1.387 . S
C196 H219 0.931 . S
C197 C190 1.399 . S
C197 C194 1.487 . S
C197 N229 1.343 . S
C198 C199 1.384 . S
C198 C200 1.384 . S
C198 H220 0.931 . S
C199 C198 1.384 . S
C199 C202 1.382 . S
C200 C198 1.384 . S
C200 C201 1.381 . S
C200 H221 0.930 . S
C201 C200 1.381 . S
C201 C203 1.381 . S
C201 C204 1.487 . S
C202 C199 1.382 . S
C202 C203 1.387 . S
C202 H222 0.930 . S
C203 C201 1.381 . S
C203 C202 1.387 . S
C203 H223 0.931 . S
C204 C201 1.487 . S
C204 C211 1.399 . S
C204 N229 1.343 . S
C205 C206 1.384 . S
C205 C207 1.384 . S
C205 H224 0.931 . S
C206 C205 1.384 . S
C206 C209 1.382 . S
C207 C205 1.384 . S
C207 C208 1.381 . S
C207 H225 0.930 . S
C208 C207 1.381 . S
C208 C210 1.381 . S
C208 C211 1.487 . S
C209 C206 1.382 . S
C209 C210 1.387 . S
C209 H226 0.930 . S
C210 C208 1.381 . S
C210 C209 1.387 . S
C210 H227 0.931 . S
C211 C204 1.399 . S
C211 C208 1.487 . S
C211 N228 1.343 . S
H212 C184 0.931 . S
H213 C186 0.930 . S
H214 C188 0.930 . S
H215 C189 0.931 . S
H216 C191 0.931 . S
H217 C193 0.930 . S
H218 C195 0.930 . S
H219 C196 0.931 . S
H220 C198 0.931 . S
H221 C200 0.930 . S
H222 C202 0.930 . S
H223 C203 0.931 . S
H224 C205 0.931 . S
H225 C207 0.930 . S
H226 C209 0.930 . S
H227 C210 0.931 . S
N228 C190 1.343 . S
N228 C211 1.343 . S
N229 C197 1.343 . S
N229 C204 1.343 . S
C230 C231 1.384 . S
C230 C232 1.384 . S
C230 H258 0.931 . S
C231 C230 1.384 . S
C231 C234 1.382 . S
C232 C230 1.384 . S
C232 C233 1.381 . S
C232 H259 0.930 . S
C233 C232 1.381 . S
C233 C235 1.381 . S
C233 C236 1.487 . S
C234 C231 1.382 . S
C234 C235 1.387 . S
C234 H260 0.930 . S
C235 C233 1.381 . S
C235 C234 1.387 . S
C235 H261 0.931 . S
C236 C233 1.487 . S
C236 C243 1.399 . S
C236 N274 1.343 . S
C237 C238 1.384 . S
C237 C239 1.384 . S
C237 H262 0.931 . S
C238 C237 1.384 . S
C238 C241 1.382 . S
C239 C237 1.384 . S
C239 C240 1.381 . S
C239 H263 0.930 . S
C240 C239 1.381 . S
C240 C242 1.381 . S
C240 C243 1.487 . S
C241 C238 1.382 . S
C241 C242 1.387 . S
C241 H264 0.930 . S
C242 C240 1.381 . S
C242 C241 1.387 . S
C242 H265 0.931 . S
C243 C236 1.399 . S
C243 C240 1.487 . S
C243 N275 1.343 . S
C244 C245 1.384 . S
C244 C246 1.384 . S
C244 H266 0.931 . S
C245 C244 1.384 . S
C245 C248 1.382 . S
C246 C244 1.384 . S
C246 C247 1.381 . S
C246 H267 0.930 . S
C247 C246 1.381 . S
C247 C249 1.381 . S
C247 C250 1.487 . S
C248 C245 1.382 . S
C248 C249 1.387 . S
C248 H268 0.930 . S
C249 C247 1.381 . S
C249 C248 1.387 . S
C249 H269 0.931 . S
C250 C247 1.487 . S
C250 C257 1.399 . S
C250 N275 1.343 . S
C251 C252 1.384 . S
C251 C253 1.384 . S
C251 H270 0.931 . S
C252 C251 1.384 . S
C252 C255 1.382 . S
C253 C251 1.384 . S
C253 C254 1.381 . S
C253 H271 0.930 . S
C254 C253 1.381 . S
C254 C256 1.381 . S
C254 C257 1.487 . S
C255 C252 1.382 . S
C255 C256 1.387 . S
C255 H272 0.930 . S
C256 C254 1.381 . S
C256 C255 1.387 . S
C256 H273 0.931 . S
C257 C250 1.399 . S
C257 C254 1.487 . S
C257 N274 1.343 . S
H258 C230 0.931 . S
H259 C232 0.930 . S
H260 C234 0.930 . S
H261 C235 0.931 . S
H262 C237 0.931 . S
H263 C239 0.930 . S
H264 C241 0.930 . S
H265 C242 0.931 . S
H266 C244 0.931 . S
H267 C246 0.930 . S
H268 C248 0.930 . S
H269 C249 0.931 . S
H270 C251 0.931 . S
H271 C253 0.930 . S
H272 C255 0.930 . S
H273 C256 0.931 . S
N274 C236 1.343 . S
N274 C257 1.343 . S
N275 C243 1.343 . S
N275 C250 1.343 . S
C276 C277 1.384 . S
C276 C278 1.384 . S
C276 H304 0.931 . S
C277 C276 1.384 . S
C277 C280 1.382 . S
C278 C276 1.384 . S
C278 C279 1.381 . S
C278 H305 0.930 . S
C279 C278 1.381 . S
C279 C281 1.381 . S
C279 C282 1.487 1_556 S
C280 C277 1.382 . S
C280 C281 1.387 . S
C280 H306 0.930 . S
C281 C279 1.381 . S
C281 C280 1.387 . S
C281 H307 0.931 . S
C282 C279 1.487 1_554 S
C282 C289 1.399 . S
C282 N320 1.343 1_554 S
C283 C284 1.384 . S
C283 C285 1.384 . S
C283 H308 0.931 . S
C284 C283 1.384 . S
C284 C287 1.382 . S
C285 C283 1.384 . S
C285 C286 1.381 . S
C285 H309 0.930 . S
C286 C285 1.381 . S
C286 C288 1.381 . S
C286 C289 1.487 . S
C287 C284 1.382 . S
C287 C288 1.387 . S
C287 H310 0.930 . S
C288 C286 1.381 . S
C288 C287 1.387 . S
C288 H311 0.931 . S
C289 C282 1.399 . S
C289 C286 1.487 . S
C289 N321 1.343 . S
C290 C291 1.384 . S
C290 C292 1.384 . S
C290 H312 0.931 . S
C291 C290 1.384 . S
C291 C294 1.382 . S
C292 C290 1.384 . S
C292 C293 1.381 . S
C292 H313 0.930 . S
C293 C292 1.381 . S
C293 C295 1.381 . S
C293 C296 1.487 . S
C294 C291 1.382 . S
C294 C295 1.387 . S
C294 H314 0.930 . S
C295 C293 1.381 . S
C295 C294 1.387 . S
C295 H315 0.931 . S
C296 C293 1.487 . S
C296 C303 1.399 . S
C296 N321 1.343 . S
C297 C298 1.384 . S
C297 C299 1.384 . S
C297 H316 0.931 . S
C298 C297 1.384 . S
C298 C301 1.382 . S
C299 C297 1.384 . S
C299 C300 1.381 . S
C299 H317 0.930 . S
C300 C299 1.381 . S
C300 C302 1.381 . S
C300 C303 1.487 1_556 S
C301 C298 1.382 . S
C301 C302 1.387 . S
C301 H318 0.930 . S
C302 C300 1.381 . S
C302 C301 1.387 . S
C302 H319 0.931 . S
C303 C296 1.399 . S
C303 C300 1.487 1_554 S
C303 N320 1.343 1_554 S
H304 C276 0.931 . S
H305 C278 0.930 . S
H306 C280 0.930 . S
H307 C281 0.931 . S
H308 C283 0.931 . S
H309 C285 0.930 . S
H310 C287 0.930 . S
H311 C288 0.931 . S
H312 C290 0.931 . S
H313 C292 0.930 . S
H314 C294 0.930 . S
H315 C295 0.931 . S
H316 C297 0.931 . S
H317 C299 0.930 . S
H318 C301 0.930 . S
H319 C302 0.931 . S
N320 C282 1.343 1_556 S
N320 C303 1.343 1_556 S
N321 C289 1.343 . S
N321 C296 1.343 . S
C322 C323 1.384 . S
C322 C324 1.384 . S
C322 H350 0.931 . S
C323 C322 1.384 . S
C323 C326 1.382 . S
C324 C322 1.384 . S
C324 C325 1.381 . S
C324 H351 0.930 . S
C325 C324 1.381 . S
C325 C327 1.381 . S
C325 C328 1.487 . S
C326 C323 1.382 . S
C326 C327 1.387 . S
C326 H352 0.930 . S
C327 C325 1.381 . S
C327 C326 1.387 . S
C327 H353 0.931 . S
C328 C325 1.487 . S
C328 C335 1.399 . S
C328 N366 1.343 1_655 S
C329 C330 1.384 . S
C329 C331 1.384 . S
C329 H354 0.931 . S
C330 C329 1.384 . S
C330 C333 1.382 . S
C331 C329 1.384 . S
C331 C332 1.381 . S
C331 H355 0.930 . S
C332 C331 1.381 . S
C332 C334 1.381 . S
C332 C335 1.487 . S
C333 C330 1.382 . S
C333 C334 1.387 . S
C333 H356 0.930 . S
C334 C332 1.381 . S
C334 C333 1.387 . S
C334 H357 0.931 . S
C335 C328 1.399 . S
C335 C332 1.487 . S
C335 N367 1.343 1_655 S
C336 C337 1.384 . S
C336 C338 1.384 . S
C336 H358 0.931 . S
C337 C336 1.384 . S
C337 C340 1.382 . S
C338 C336 1.384 . S
C338 C339 1.381 . S
C338 H359 0.930 . S
C339 C338 1.381 . S
C339 C341 1.381 . S
C339 C342 1.487 . S
C340 C337 1.382 . S
C340 C341 1.387 . S
C340 H360 0.930 . S
C341 C339 1.381 . S
C341 C340 1.387 . S
C341 H361 0.931 . S
C342 C339 1.487 . S
C342 C349 1.399 . S
C342 N367 1.343 . S
C343 C344 1.384 . S
C343 C345 1.384 . S
C343 H362 0.931 . S
C344 C343 1.384 . S
C344 C347 1.382 . S
C345 C343 1.384 . S
C345 C346 1.381 . S
C345 H363 0.930 . S
C346 C345 1.381 . S
C346 C348 1.381 . S
C346 C349 1.487 . S
C347 C344 1.382 . S
C347 C348 1.387 . S
C347 H364 0.930 . S
C348 C346 1.381 . S
C348 C347 1.387 . S
C348 H365 0.931 . S
C349 C342 1.399 . S
C349 C346 1.487 . S
C349 N366 1.343 . S
H350 C322 0.931 . S
H351 C324 0.930 . S
H352 C326 0.930 . S
H353 C327 0.931 . S
H354 C329 0.931 . S
H355 C331 0.930 . S
H356 C333 0.930 . S
H357 C334 0.931 . S
H358 C336 0.931 . S
H359 C338 0.930 . S
H360 C340 0.930 . S
H361 C341 0.931 . S
H362 C343 0.931 . S
H363 C345 0.930 . S
H364 C347 0.930 . S
H365 C348 0.931 . S
N366 C328 1.343 1_455 S
N366 C349 1.343 . S
N367 C335 1.343 1_455 S
N367 C342 1.343 . S
Fe368 O369 1.886 . S
Fe368 O372 1.715 1_455 S
Fe368 O377 2.077 . S
Fe368 O382 1.935 1_455 S
Fe368 O388 2.077 . S
Fe368 O397 1.935 1_455 S
O369 Fe368 1.886 . S
O369 Fe371 1.715 . S
Fe370 O372 1.886 . S
Fe370 O373 1.715 . S
Fe370 O380 1.935 . S
Fe370 O381 2.077 . S
Fe370 O387 1.935 . S
Fe370 O396 2.077 . S
Fe371 O369 1.715 . S
Fe371 O374 1.886 . S
Fe371 O378 1.935 . S
Fe371 O383 2.077 . S
Fe371 O389 1.935 . S
Fe371 O393 2.077 . S
O372 Fe368 1.715 1_655 S
O372 Fe370 1.886 . S
O373 Fe370 1.715 . S
O373 Fe375 1.886 . S
O374 Fe371 1.886 . S
O374 Fe375 1.715 1_455 S
Fe375 O373 1.886 . S
Fe375 O374 1.715 1_655 S
Fe375 O379 2.077 . S
Fe375 O384 1.935 1_655 S
Fe375 O386 2.077 . S
Fe375 O394 1.935 1_655 S
C376 O388 1.381 . S
C376 O389 1.421 . S
O377 Fe368 2.077 . S
O377 C390 1.381 . S
O378 Fe371 1.935 . S
O378 C390 1.421 . S
O379 Fe375 2.077 . S
O379 C395 1.381 . S
O380 Fe370 1.935 . S
O380 C395 1.421 . S
O381 Fe370 2.077 . S
O381 C385 1.381 . S
O382 Fe368 1.935 1_655 S
O382 C385 1.421 . S
O383 Fe371 2.077 . S
O383 C391 1.381 . S
O384 Fe375 1.935 1_455 S
O384 C391 1.421 . S
C385 O381 1.381 . S
C385 O382 1.421 . S
O386 Fe375 2.077 . S
O386 C398 1.381 . S
O387 Fe370 1.935 . S
O387 C398 1.421 . S
O388 Fe368 2.077 . S
O388 C376 1.381 . S
O389 Fe371 1.935 . S
O389 C376 1.421 . S
C390 O377 1.381 . S
C390 O378 1.421 . S
C391 O383 1.381 . S
C391 O384 1.421 . S
C392 O393 1.381 . S
C392 O394 1.421 . S
O393 Fe371 2.077 . S
O393 C392 1.381 . S
O394 Fe375 1.935 1_455 S
O394 C392 1.421 . S
C395 O379 1.381 . S
C395 O380 1.421 . S
O396 Fe370 2.077 . S
O396 C399 1.381 . S
O397 Fe368 1.935 1_655 S
O397 C399 1.421 . S
C398 O386 1.381 . S
C398 O387 1.421 . S
C399 O396 1.381 . S
C399 O397 1.421 . S
Fe400 O401 1.886 . S
Fe400 O404 1.715 . S
Fe400 O409 2.077 . S
Fe400 O414 1.935 . S
Fe400 O420 2.077 . S
Fe400 O429 1.935 . S
O401 Fe400 1.886 . S
O401 Fe403 1.715 . S
Fe402 O404 1.886 . S
Fe402 O405 1.715 . S
Fe402 O412 1.935 . S
Fe402 O413 2.077 . S
Fe402 O419 1.935 . S
Fe402 O428 2.077 . S
Fe403 O401 1.715 . S
Fe403 O406 1.886 . S
Fe403 O410 1.935 . S
Fe403 O415 2.077 . S
Fe403 O421 1.935 . S
Fe403 O425 2.077 . S
O404 Fe400 1.715 . S
O404 Fe402 1.886 . S
O405 Fe402 1.715 . S
O405 Fe407 1.886 . S
O406 Fe403 1.886 . S
O406 Fe407 1.715 . S
Fe407 O405 1.886 . S
Fe407 O406 1.715 . S
Fe407 O411 2.077 . S
Fe407 O416 1.935 . S
Fe407 O418 2.077 . S
Fe407 O426 1.935 . S
C408 O420 1.381 . S
C408 O421 1.421 . S
O409 Fe400 2.077 . S
O409 C422 1.381 . S
O410 Fe403 1.935 . S
O410 C422 1.421 . S
O411 Fe407 2.077 . S
O411 C427 1.381 . S
O412 Fe402 1.935 . S
O412 C427 1.421 . S
O413 Fe402 2.077 . S
O413 C417 1.381 . S
O414 Fe400 1.935 . S
O414 C417 1.421 . S
O415 Fe403 2.077 . S
O415 C423 1.381 . S
O416 Fe407 1.935 . S
O416 C423 1.421 . S
C417 O413 1.381 . S
C417 O414 1.421 . S
O418 Fe407 2.077 . S
O418 C430 1.381 . S
O419 Fe402 1.935 . S
O419 C430 1.421 . S
O420 Fe400 2.077 . S
O420 C408 1.381 . S
O421 Fe403 1.935 . S
O421 C408 1.421 . S
C422 O409 1.381 . S
C422 O410 1.421 . S
C423 O415 1.381 . S
C423 O416 1.421 . S
C424 O425 1.381 . S
C424 O426 1.421 . S
O425 Fe403 2.077 . S
O425 C424 1.381 . S
O426 Fe407 1.935 . S
O426 C424 1.421 . S
C427 O411 1.381 . S
C427 O412 1.421 . S
O428 Fe402 2.077 . S
O428 C431 1.381 . S
O429 Fe400 1.935 . S
O429 C431 1.421 . S
C430 O418 1.381 . S
C430 O419 1.421 . S
C431 O428 1.381 . S
C431 O429 1.421 . S
Fe432 O433 1.886 . S
Fe432 O436 1.715 . S
Fe432 O441 2.077 . S
Fe432 O446 1.935 . S
Fe432 O452 2.077 . S
Fe432 O461 1.935 . S
O433 Fe432 1.886 . S
O433 Fe435 1.715 . S
Fe434 O436 1.886 . S
Fe434 O437 1.715 . S
Fe434 O444 1.935 . S
Fe434 O445 2.077 . S
Fe434 O451 1.935 . S
Fe434 O460 2.077 . S
Fe435 O433 1.715 . S
Fe435 O438 1.886 . S
Fe435 O442 1.935 . S
Fe435 O447 2.077 . S
Fe435 O453 1.935 . S
Fe435 O457 2.077 . S
O436 Fe432 1.715 . S
O436 Fe434 1.886 . S
O437 Fe434 1.715 . S
O437 Fe439 1.886 . S
O438 Fe435 1.886 . S
O438 Fe439 1.715 . S
Fe439 O437 1.886 . S
Fe439 O438 1.715 . S
Fe439 O443 2.077 . S
Fe439 O448 1.935 . S
Fe439 O450 2.077 . S
Fe439 O458 1.935 . S
C440 O452 1.381 . S
C440 O453 1.421 . S
O441 Fe432 2.077 . S
O441 C454 1.381 . S
O442 Fe435 1.935 . S
O442 C454 1.421 . S
O443 Fe439 2.077 . S
O443 C459 1.381 . S
O444 Fe434 1.935 . S
O444 C459 1.421 . S
O445 Fe434 2.077 . S
O445 C449 1.381 . S
O446 Fe432 1.935 . S
O446 C449 1.421 . S
O447 Fe435 2.077 . S
O447 C455 1.381 . S
O448 Fe439 1.935 . S
O448 C455 1.421 . S
C449 O445 1.381 . S
C449 O446 1.421 . S
O450 Fe439 2.077 . S
O450 C462 1.381 . S
O451 Fe434 1.935 . S
O451 C462 1.421 . S
O452 Fe432 2.077 . S
O452 C440 1.381 . S
O453 Fe435 1.935 . S
O453 C440 1.421 . S
C454 O441 1.381 . S
C454 O442 1.421 . S
C455 O447 1.381 . S
C455 O448 1.421 . S
C456 O457 1.381 . S
C456 O458 1.421 . S
O457 Fe435 2.077 . S
O457 C456 1.381 . S
O458 Fe439 1.935 . S
O458 C456 1.421 . S
C459 O443 1.381 . S
C459 O444 1.421 . S
O460 Fe434 2.077 . S
O460 C463 1.381 . S
O461 Fe432 1.935 . S
O461 C463 1.421 . S
C462 O450 1.381 . S
C462 O451 1.421 . S
C463 O460 1.381 . S
C463 O461 1.421 . S
Fe464 O465 1.886 . S
Fe464 O468 1.715 . S
Fe464 O473 2.077 1_455 S
Fe464 O478 1.935 1_455 S
Fe464 O484 2.077 . S
Fe464 O493 1.935 . S
O465 Fe464 1.886 . S
O465 Fe467 1.715 . S
Fe466 O468 1.886 . S
Fe466 O469 1.715 . S
Fe466 O476 1.935 1_455 S
Fe466 O477 2.077 1_455 S
Fe466 O483 1.935 . S
Fe466 O492 2.077 . S
Fe467 O465 1.715 . S
Fe467 O470 1.886 . S
Fe467 O474 1.935 1_455 S
Fe467 O479 2.077 1_455 S
Fe467 O485 1.935 . S
Fe467 O489 2.077 . S
O468 Fe464 1.715 . S
O468 Fe466 1.886 . S
O469 Fe466 1.715 . S
O469 Fe471 1.886 . S
O470 Fe467 1.886 . S
O470 Fe471 1.715 . S
Fe471 O469 1.886 . S
Fe471 O470 1.715 . S
Fe471 O475 2.077 1_455 S
Fe471 O480 1.935 1_455 S
Fe471 O482 2.077 . S
Fe471 O490 1.935 . S
C472 O484 1.381 . S
C472 O485 1.421 . S
O473 Fe464 2.077 1_655 S
O473 C486 1.381 . S
O474 Fe467 1.935 1_655 S
O474 C486 1.421 . S
O475 Fe471 2.077 1_655 S
O475 C491 1.381 . S
O476 Fe466 1.935 1_655 S
O476 C491 1.421 . S
O477 Fe466 2.077 1_655 S
O477 C481 1.381 . S
O478 Fe464 1.935 1_655 S
O478 C481 1.421 . S
O479 Fe467 2.077 1_655 S
O479 C487 1.381 . S
O480 Fe471 1.935 1_655 S
O480 C487 1.421 . S
C481 O477 1.381 . S
C481 O478 1.421 . S
O482 Fe471 2.077 . S
O482 C494 1.381 . S
O483 Fe466 1.935 . S
O483 C494 1.421 . S
O484 Fe464 2.077 . S
O484 C472 1.381 . S
O485 Fe467 1.935 . S
O485 C472 1.421 . S
C486 O473 1.381 . S
C486 O474 1.421 . S
C487 O479 1.381 . S
C487 O480 1.421 . S
C488 O489 1.381 . S
C488 O490 1.421 . S
O489 Fe467 2.077 . S
O489 C488 1.381 . S
O490 Fe471 1.935 . S
O490 C488 1.421 . S
C491 O475 1.381 . S
C491 O476 1.421 . S
O492 Fe466 2.077 . S
O492 C495 1.381 . S
O493 Fe464 1.935 . S
O493 C495 1.421 . S
C494 O482 1.381 . S
C494 O483 1.421 . S
C495 O492 1.381 . S
C495 O493 1.421 . S
C496 C497 1.363 . S
C496 C502 1.379 . S
C496 N504 1.356 . S
C497 C496 1.363 . S
C497 C503 1.363 . S
C498 C499 1.363 . S
C498 C503 1.379 . S
C498 N505 1.356 . S
C499 C498 1.363 . S
C499 C502 1.363 . S
N500 C502 1.356 . S
N500 H512 0.984 . S
N500 H513 0.985 . S
N501 C503 1.356 . S
N501 H506 0.984 . S
N501 H507 0.985 . S
C502 C496 1.379 . S
C502 C499 1.363 . S
C502 N500 1.356 . S
C503 C497 1.363 . S
C503 C498 1.379 . S
C503 N501 1.356 . S
N504 C496 1.356 . S
N504 H510 0.984 1_565 S
N504 H511 0.984 . S
N505 C498 1.356 . S
N505 H508 0.984 . S
N505 H509 0.985 . S
H506 N501 0.984 . S
H507 N501 0.985 . S
H508 N505 0.984 . S
H509 N505 0.985 . S
H510 N504 0.984 1_545 S
H511 N504 0.984 . S
H512 N500 0.984 . S
H513 N500 0.985 . S
C514 C515 1.363 . S
C514 C520 1.379 . S
C514 N522 1.356 . S
C515 C514 1.363 . S
C515 C521 1.363 . S
C516 C517 1.363 . S
C516 C521 1.379 . S
C516 N523 1.356 . S
C517 C516 1.363 . S
C517 C520 1.363 . S
N518 C520 1.356 . S
N518 H530 0.984 . S
N518 H531 0.985 . S
N519 C521 1.356 1_565 S
N519 H524 0.984 . S
N519 H525 0.985 . S
C520 C514 1.379 . S
C520 C517 1.363 . S
C520 N518 1.356 . S
C521 C515 1.363 . S
C521 C516 1.379 . S
C521 N519 1.356 1_545 S
N522 C514 1.356 . S
N522 H528 0.984 . S
N522 H529 0.984 1_545 S
N523 C516 1.356 . S
N523 H526 0.984 . S
N523 H527 0.985 . S
H524 N519 0.984 . S
H525 N519 0.985 . S
H526 N523 0.984 . S
H527 N523 0.985 . S
H528 N522 0.984 . S
H529 N522 0.984 1_565 S
H530 N518 0.984 . S
H531 N518 0.985 . S
C532 C533 1.363 . S
C532 C538 1.379 . S
C532 N540 1.356 . S
C533 C532 1.363 . S
C533 C539 1.363 . S
C534 C535 1.363 . S
C534 C539 1.379 . S
C534 N541 1.356 . S
C535 C534 1.363 . S
C535 C538 1.363 . S
N536 C538 1.356 . S
N536 H548 0.984 . S
N536 H549 0.985 . S
N537 C539 1.356 . S
N537 H542 0.984 . S
N537 H543 0.985 . S
C538 C532 1.379 . S
C538 C535 1.363 . S
C538 N536 1.356 . S
C539 C533 1.363 . S
C539 C534 1.379 . S
C539 N537 1.356 . S
N540 C532 1.356 . S
N540 H546 0.984 1_545 S
N540 H547 0.984 . S
N541 C534 1.356 . S
N541 H544 0.984 . S
N541 H545 0.985 . S
H542 N537 0.984 . S
H543 N537 0.985 . S
H544 N541 0.984 . S
H545 N541 0.985 . S
H546 N540 0.984 1_565 S
H547 N540 0.984 . S
H548 N536 0.984 . S
H549 N536 0.985 . S
C550 C551 1.363 . S
C550 C556 1.379 1_545 S
C550 N558 1.356 . S
C551 C550 1.363 . S
C551 C557 1.364 1_545 S
C552 C553 1.363 . S
C552 C557 1.379 . S
C552 N559 1.356 . S
C553 C552 1.363 . S
C553 C556 1.363 . S
N554 C556 1.356 . S
N554 H566 0.984 . S
N554 H567 0.985 . S
N555 C557 1.356 . S
N555 H560 0.973 1_565 S
N555 H561 0.985 . S
C556 C550 1.379 1_565 S
C556 C553 1.363 . S
C556 N554 1.356 . S
C557 C551 1.364 1_565 S
C557 C552 1.379 . S
C557 N555 1.356 . S
N558 C550 1.356 . S
N558 H564 0.984 . S
N558 H565 0.984 . S
N559 C552 1.356 . S
N559 H562 0.984 . S
N559 H563 0.985 . S
H560 N555 0.973 1_545 S
H561 N555 0.985 . S
H562 N559 0.984 . S
H563 N559 0.985 . S
H564 N558 0.984 . S
H565 N558 0.984 . S
H566 N554 0.984 . S
H567 N554 0.985 . S
C568 C569 1.363 . S
C568 C574 1.379 . S
C568 N576 1.356 . S
C569 C568 1.363 . S
C569 C575 1.363 . S
C570 C571 1.363 . S
C570 C575 1.379 . S
C570 N577 1.356 . S
C571 C570 1.363 . S
C571 C574 1.363 . S
N572 C574 1.356 . S
N572 H584 0.984 . S
N572 H585 0.985 . S
N573 C575 1.356 . S
N573 H578 0.984 . S
N573 H579 0.980 1_545 S
C574 C568 1.379 . S
C574 C571 1.363 . S
C574 N572 1.356 . S
C575 C569 1.363 . S
C575 C570 1.379 . S
C575 N573 1.356 . S
N576 C568 1.356 . S
N576 H582 0.984 . S
N576 H583 0.984 . S
N577 C570 1.356 . S
N577 H580 0.984 . S
N577 H581 0.985 . S
H578 N573 0.984 . S
H579 N573 0.980 1_565 S
H580 N577 0.984 . S
H581 N577 0.985 . S
H582 N576 0.984 . S
H583 N576 0.984 . S
H584 N572 0.984 . S
H585 N572 0.985 . S
C586 C587 1.363 . S
C586 C592 1.379 . S
C586 N594 1.356 . S
C587 C586 1.363 . S
C587 C593 1.363 . S
C588 C589 1.363 . S
C588 C593 1.379 . S
C588 N595 1.356 . S
C589 C588 1.363 . S
C589 C592 1.363 . S
N590 C592 1.356 . S
N590 H602 0.984 . S
N590 H603 0.985 . S
N591 C593 1.356 1_565 S
N591 H596 0.984 . S
N591 H597 0.985 . S
C592 C586 1.379 . S
C592 C589 1.363 . S
C592 N590 1.356 . S
C593 C587 1.363 . S
C593 C588 1.379 . S
C593 N591 1.356 1_545 S
N594 C586 1.356 . S
N594 H600 0.984 . S
N594 H601 0.984 . S
N595 C588 1.356 . S
N595 H598 0.984 . S
N595 H599 0.985 . S
H596 N591 0.984 . S
H597 N591 0.985 . S
H598 N595 0.984 . S
H599 N595 0.985 . S
H600 N594 0.984 . S
H601 N594 0.984 . S
H602 N590 0.984 . S
H603 N590 0.985 . S
C604 C605 1.363 . S
C604 C610 1.379 . S
C604 N612 1.356 . S
C605 C604 1.363 . S
C605 C611 1.363 . S
C606 C607 1.363 . S
C606 C611 1.379 . S
C606 N613 1.356 . S
C607 C606 1.363 . S
C607 C610 1.363 . S
N608 C610 1.356 . S
N608 H620 0.984 . S
N608 H621 0.985 . S
N609 C611 1.356 . S
N609 H614 0.984 . S
N609 H615 0.985 1_565 S
C610 C604 1.379 . S
C610 C607 1.363 . S
C610 N608 1.356 . S
C611 C605 1.363 . S
C611 C606 1.379 . S
C611 N609 1.356 . S
N612 C604 1.356 . S
N612 H618 0.984 . S
N612 H619 0.984 . S
N613 C606 1.356 . S
N613 H616 0.984 . S
N613 H617 0.985 . S
H614 N609 0.984 . S
H615 N609 0.985 1_545 S
H616 N613 0.984 . S
H617 N613 0.985 . S
H618 N612 0.984 . S
H619 N612 0.984 . S
H620 N608 0.984 . S
H621 N608 0.985 . S
C622 C623 1.364 . S
C622 C628 1.379 1_545 S
C622 N630 1.356 . S
C623 C622 1.364 . S
C623 C629 1.348 1_545 S
C624 C625 1.363 . S
C624 C629 1.379 . S
C624 N631 1.356 . S
C625 C624 1.363 . S
C625 C628 1.363 . S
N626 C628 1.356 . S
N626 H638 0.984 . S
N626 H639 0.985 . S
N627 C629 1.356 . S
N627 H632 0.976 1_565 S
N627 H633 0.985 . S
C628 C622 1.379 1_565 S
C628 C625 1.363 . S
C628 N626 1.356 . S
C629 C623 1.348 1_565 S
C629 C624 1.379 . S
C629 N627 1.356 . S
N630 C622 1.356 . S
N630 H636 0.984 . S
N630 H637 0.984 . S
N631 C624 1.356 . S
N631 H634 0.984 . S
N631 H635 0.985 . S
H632 N627 0.976 1_545 S
H633 N627 0.985 . S
H634 N631 0.984 . S
H635 N631 0.985 . S
H636 N630 0.984 . S
H637 N630 0.984 . S
H638 N626 0.984 . S
H639 N626 0.985 . S
C640 C641 1.363 . S
C640 C646 1.379 . S
C640 N648 1.356 . S
C641 C640 1.363 . S
C641 C647 1.363 . S
C642 C643 1.363 . S
C642 C647 1.379 . S
C642 N649 1.356 . S
C643 C642 1.363 . S
C643 C646 1.363 . S
N644 C646 1.356 . S
N644 H656 0.984 . S
N644 H657 0.985 . S
N645 C647 1.356 . S
N645 H650 0.984 . S
N645 H651 0.985 . S
C646 C640 1.379 . S
C646 C643 1.363 . S
C646 N644 1.356 . S
C647 C641 1.363 . S
C647 C642 1.379 . S
C647 N645 1.356 . S
N648 C640 1.356 . S
N648 H654 0.984 . S
N648 H655 0.984 . S
N649 C642 1.356 . S
N649 H652 0.984 . S
N649 H653 0.985 . S
H650 N645 0.984 . S
H651 N645 0.985 . S
H652 N649 0.984 . S
H653 N649 0.985 . S
H654 N648 0.984 . S
H655 N648 0.984 . S
H656 N644 0.984 . S
H657 N644 0.985 . S
C658 C659 1.352 1_565 S
C658 C664 1.379 . S
C658 N666 1.356 . S
C659 C658 1.352 1_545 S
C659 C665 1.360 1_545 S
C660 C661 1.363 . S
C660 C665 1.379 . S
C660 N667 1.356 . S
C661 C660 1.363 . S
C661 C664 1.363 . S
N662 C664 1.356 . S
N662 H674 0.984 . S
N662 H675 0.985 . S
N663 C665 1.356 1_545 S
N663 H668 0.984 . S
N663 H669 0.985 . S
C664 C658 1.379 . S
C664 C661 1.363 . S
C664 N662 1.356 . S
C665 C659 1.360 1_565 S
C665 C660 1.379 . S
C665 N663 1.356 1_565 S
N666 C658 1.356 . S
N666 H672 0.984 . S
N666 H673 0.984 1_565 S
N667 C660 1.356 . S
N667 H670 0.984 . S
N667 H671 0.985 . S
H668 N663 0.984 . S
H669 N663 0.985 . S
H670 N667 0.984 . S
H671 N667 0.985 . S
H672 N666 0.984 . S
H673 N666 0.984 1_545 S
H674 N662 0.984 . S
H675 N662 0.985 . S
C676 C677 1.363 . S
C676 C682 1.379 . S
C676 N684 1.356 . S
C677 C676 1.363 . S
C677 C683 1.363 . S
C678 C679 1.363 . S
C678 C683 1.379 . S
C678 N685 1.356 . S
C679 C678 1.363 . S
C679 C682 1.363 . S
N680 C682 1.356 . S
N680 H692 0.984 . S
N680 H693 0.985 . S
N681 C683 1.356 . S
N681 H686 0.984 . S
N681 H687 0.985 1_565 S
C682 C676 1.379 . S
C682 C679 1.363 . S
C682 N680 1.356 . S
C683 C677 1.363 . S
C683 C678 1.379 . S
C683 N681 1.356 . S
N684 C676 1.356 . S
N684 H690 0.984 . S
N684 H691 0.984 . S
N685 C678 1.356 . S
N685 H688 0.984 . S
N685 H689 0.985 . S
H686 N681 0.984 . S
H687 N681 0.985 1_545 S
H688 N685 0.984 . S
H689 N685 0.985 . S
H690 N684 0.984 . S
H691 N684 0.984 . S
H692 N680 0.984 . S
H693 N680 0.985 . S
C694 C695 1.363 . S
C694 C700 1.379 . S
C694 N702 1.356 . S
C695 C694 1.363 . S
C695 C701 1.363 . S
C696 C697 1.363 . S
C696 C701 1.379 . S
C696 N703 1.356 . S
C697 C696 1.363 . S
C697 C700 1.363 . S
N698 C700 1.356 . S
N698 H710 0.984 . S
N698 H711 0.985 . S
N699 C701 1.356 1_565 S
N699 H704 0.984 . S
N699 H705 0.985 . S
C700 C694 1.379 . S
C700 C697 1.363 . S
C700 N698 1.356 . S
C701 C695 1.363 . S
C701 C696 1.379 . S
C701 N699 1.356 1_545 S
N702 C694 1.356 . S
N702 H708 0.984 . S
N702 H709 0.984 . S
N703 C696 1.356 . S
N703 H706 0.984 . S
N703 H707 0.985 . S
H704 N699 0.984 . S
H705 N699 0.985 . S
H706 N703 0.984 . S
H707 N703 0.985 . S
H708 N702 0.984 . S
H709 N702 0.984 . S
H710 N698 0.984 . S
H711 N698 0.985 . S
C712 C713 1.363 . S
C712 C718 1.379 . S
C712 N720 1.356 . S
C713 C712 1.363 . S
C713 C719 1.363 . S
C714 C715 1.363 . S
C714 C719 1.379 . S
C714 N721 1.356 . S
C715 C714 1.363 . S
C715 C718 1.363 . S
N716 C718 1.356 . S
N716 H728 0.984 . S
N716 H729 0.985 . S
N717 C719 1.369 . S
N717 H722 0.985 . S
N717 H723 0.971 1_565 S
C718 C712 1.379 . S
C718 C715 1.363 . S
C718 N716 1.356 . S
C719 C713 1.363 . S
C719 C714 1.379 . S
C719 N717 1.369 . S
N720 C712 1.356 . S
N720 H726 0.984 . S
N720 H727 0.984 . S
N721 C714 1.356 . S
N721 H724 0.984 . S
N721 H725 0.985 1_565 S
H722 N717 0.985 . S
H723 N717 0.971 1_545 S
H724 N721 0.984 . S
H725 N721 0.985 1_545 S
H726 N720 0.984 . S
H727 N720 0.984 . S
H728 N716 0.984 . S
H729 N716 0.985 . S
C730 C731 1.364 1_565 S
C730 C736 1.379 . S
C730 N738 1.356 . S
C731 C730 1.364 1_545 S
C731 C737 1.363 1_545 S
C732 C733 1.363 . S
C732 C737 1.379 . S
C732 N739 1.356 . S
C733 C732 1.363 . S
C733 C736 1.363 . S
N734 C736 1.356 . S
N734 H746 0.984 . S
N734 H747 0.985 . S
N735 C737 1.356 1_545 S
N735 H740 0.984 . S
N735 H741 0.985 . S
C736 C730 1.379 . S
C736 C733 1.363 . S
C736 N734 1.356 . S
C737 C731 1.363 1_565 S
C737 C732 1.379 . S
C737 N735 1.356 1_565 S
N738 C730 1.356 . S
N738 H744 0.984 . S
N738 H745 0.984 1_565 S
N739 C732 1.356 . S
N739 H742 0.984 . S
N739 H743 0.985 . S
H740 N735 0.984 . S
H741 N735 0.985 . S
H742 N739 0.984 . S
H743 N739 0.985 . S
H744 N738 0.984 . S
H745 N738 0.984 1_545 S
H746 N734 0.984 . S
H747 N734 0.985 . S
C748 C749 1.363 . S
C748 C754 1.379 . S
C748 N756 1.356 . S
C749 C748 1.363 . S
C749 C755 1.363 . S
C750 C751 1.363 . S
C750 C755 1.379 . S
C750 N757 1.356 . S
C751 C750 1.363 . S
C751 C754 1.363 . S
N752 C754 1.356 . S
N752 H764 0.984 . S
N752 H765 0.985 . S
N753 C755 1.356 . S
N753 H758 0.984 . S
N753 H759 0.985 . S
C754 C748 1.379 . S
C754 C751 1.363 . S
C754 N752 1.356 . S
C755 C749 1.363 . S
C755 C750 1.379 . S
C755 N753 1.356 . S
N756 C748 1.356 . S
N756 H762 0.984 . S
N756 H763 0.984 . S
N757 C750 1.356 . S
N757 H760 0.984 . S
N757 H761 0.985 . S
H758 N753 0.984 . S
H759 N753 0.985 . S
H760 N757 0.984 . S
H761 N757 0.985 . S
H762 N756 0.984 . S
H763 N756 0.984 . S
H764 N752 0.984 . S
H765 N752 0.985 . S
C766 C767 1.363 . S
C766 C772 1.379 . S
C766 N774 1.356 . S
C767 C766 1.363 . S
C767 C773 1.363 . S
C768 C769 1.363 . S
C768 C773 1.379 . S
C768 N775 1.356 . S
C769 C768 1.363 . S
C769 C772 1.363 . S
N770 C772 1.356 . S
N770 H782 0.984 . S
N770 H783 0.985 . S
N771 C773 1.356 1_565 S
N771 H776 0.984 . S
N771 H777 0.985 . S
C772 C766 1.379 . S
C772 C769 1.363 . S
C772 N770 1.356 . S
C773 C767 1.363 . S
C773 C768 1.379 . S
C773 N771 1.356 1_545 S
N774 C766 1.356 . S
N774 H780 0.984 . S
N774 H781 0.984 . S
N775 C768 1.356 . S
N775 H778 0.984 . S
N775 H779 0.985 . S
H776 N771 0.984 . S
H777 N771 0.985 . S
H778 N775 0.984 . S
H779 N775 0.985 . S
H780 N774 0.984 . S
H781 N774 0.984 . S
H782 N770 0.984 . S
H783 N770 0.985 . S
C784 C785 1.363 . S
C784 C790 1.379 . S
C784 N792 1.356 . S
C785 C784 1.363 . S
C785 C791 1.363 . S
C786 C787 1.363 . S
C786 C791 1.379 . S
C786 N793 1.356 . S
C787 C786 1.363 . S
C787 C790 1.363 . S
N788 C790 1.356 . S
N788 H800 0.984 . S
N788 H801 0.985 . S
N789 C791 1.356 . S
N789 H794 0.984 . S
N789 H795 0.985 . S
C790 C784 1.379 . S
C790 C787 1.363 . S
C790 N788 1.356 . S
C791 C785 1.363 . S
C791 C786 1.379 . S
C791 N789 1.356 . S
N792 C784 1.356 . S
N792 H798 0.984 . S
N792 H799 0.984 . S
N793 C786 1.356 . S
N793 H796 0.984 . S
N793 H797 0.985 . S
H794 N789 0.984 . S
H795 N789 0.985 . S
H796 N793 0.984 . S
H797 N793 0.985 . S
H798 N792 0.984 . S
H799 N792 0.984 . S
H800 N788 0.984 . S
H801 N788 0.985 . S
C802 C803 1.363 . S
C802 C808 1.379 . S
C802 N810 1.356 . S
C803 C802 1.363 . S
C803 C809 1.363 . S
C804 C805 1.363 . S
C804 C809 1.379 . S
C804 N811 1.356 . S
C805 C804 1.363 . S
C805 C808 1.363 . S
N806 C808 1.356 . S
N806 H818 0.984 . S
N806 H819 0.985 . S
N807 C809 1.356 . S
N807 H812 0.984 . S
N807 H813 0.985 . S
C808 C802 1.379 . S
C808 C805 1.363 . S
C808 N806 1.356 . S
C809 C803 1.363 . S
C809 C804 1.379 . S
C809 N807 1.356 . S
N810 C802 1.356 . S
N810 H816 0.984 . S
N810 H817 0.984 . S
N811 C804 1.356 . S
N811 H814 0.984 . S
N811 H815 0.985 . S
H812 N807 0.984 . S
H813 N807 0.985 . S
H814 N811 0.984 . S
H815 N811 0.985 . S
H816 N810 0.984 . S
H817 N810 0.984 . S
H818 N806 0.984 . S
H819 N806 0.985 . S
C820 C821 1.363 . S
C820 C826 1.379 . S
C820 N828 1.356 . S
C821 C820 1.363 . S
C821 C827 1.363 . S
C822 C823 1.363 . S
C822 C827 1.379 . S
C822 N829 1.356 . S
C823 C822 1.363 . S
C823 C826 1.363 . S
N824 C826 1.356 . S
N824 H836 0.984 . S
N824 H837 0.985 . S
N825 C827 1.356 . S
N825 H830 0.984 . S
N825 H831 0.985 . S
C826 C820 1.379 . S
C826 C823 1.363 . S
C826 N824 1.356 . S
C827 C821 1.363 . S
C827 C822 1.379 . S
C827 N825 1.356 . S
N828 C820 1.356 . S
N828 H834 0.984 . S
N828 H835 0.984 . S
N829 C822 1.356 . S
N829 H832 0.984 . S
N829 H833 0.985 . S
H830 N825 0.984 . S
H831 N825 0.985 . S
H832 N829 0.984 . S
H833 N829 0.985 . S
H834 N828 0.984 . S
H835 N828 0.984 . S
H836 N824 0.984 . S
H837 N824 0.985 . S
C838 C839 1.363 . S
C838 C844 1.379 . S
C838 N846 1.356 . S
C839 C838 1.363 . S
C839 C845 1.363 . S
C840 C841 1.363 . S
C840 C845 1.379 . S
C840 N847 1.356 . S
C841 C840 1.363 . S
C841 C844 1.363 . S
N842 C844 1.356 . S
N842 H854 0.984 . S
N842 H855 0.985 . S
N843 C845 1.356 . S
N843 H848 0.984 . S
N843 H849 0.985 . S
C844 C838 1.379 . S
C844 C841 1.363 . S
C844 N842 1.356 . S
C845 C839 1.363 . S
C845 C840 1.379 . S
C845 N843 1.356 . S
N846 C838 1.356 . S
N846 H852 0.984 . S
N846 H853 0.984 . S
N847 C840 1.356 . S
N847 H850 0.984 . S
N847 H851 0.985 . S
H848 N843 0.984 . S
H849 N843 0.985 . S
H850 N847 0.984 . S
H851 N847 0.985 . S
H852 N846 0.984 . S
H853 N846 0.984 . S
H854 N842 0.984 . S
H855 N842 0.985 . S
C856 C857 1.363 . S
C856 C862 1.379 . S
C856 N864 1.356 . S
C857 C856 1.363 . S
C857 C863 1.363 . S
C858 C859 1.363 . S
C858 C863 1.379 . S
C858 N865 1.356 . S
C859 C858 1.363 . S
C859 C862 1.363 . S
N860 C862 1.356 . S
N860 H872 0.984 . S
N860 H873 0.985 . S
N861 C863 1.356 . S
N861 H866 0.984 . S
N861 H867 0.985 . S
C862 C856 1.379 . S
C862 C859 1.363 . S
C862 N860 1.356 . S
C863 C857 1.363 . S
C863 C858 1.379 . S
C863 N861 1.356 . S
N864 C856 1.356 . S
N864 H870 0.984 . S
N864 H871 0.984 . S
N865 C858 1.356 . S
N865 H868 0.984 . S
N865 H869 0.985 . S
H866 N861 0.984 . S
H867 N861 0.985 . S
H868 N865 0.984 . S
H869 N865 0.985 . S
H870 N864 0.984 . S
H871 N864 0.984 . S
H872 N860 0.984 . S
H873 N860 0.985 . S
C874 C875 1.363 . S
C874 C880 1.379 . S
C874 N882 1.356 . S
C875 C874 1.363 . S
C875 C881 1.363 . S
C876 C877 1.363 . S
C876 C881 1.379 . S
C876 N883 1.356 . S
C877 C876 1.363 . S
C877 C880 1.363 . S
N878 C880 1.356 . S
N878 H890 0.984 . S
N878 H891 0.985 . S
N879 C881 1.356 . S
N879 H884 0.984 . S
N879 H885 0.985 . S
C880 C874 1.379 . S
C880 C877 1.363 . S
C880 N878 1.356 . S
C881 C875 1.363 . S
C881 C876 1.379 . S
C881 N879 1.356 . S
N882 C874 1.356 . S
N882 H888 0.984 . S
N882 H889 0.984 . S
N883 C876 1.356 . S
N883 H886 0.984 . S
N883 H887 0.985 . S
H884 N879 0.984 . S
H885 N879 0.985 . S
H886 N883 0.984 . S
H887 N883 0.985 . S
H888 N882 0.984 . S
H889 N882 0.984 . S
H890 N878 0.984 . S
H891 N878 0.985 . S
C892 C893 1.363 . S
C892 C898 1.379 . S
C892 N900 1.356 . S
C893 C892 1.363 . S
C893 C899 1.363 . S
C894 C895 1.363 . S
C894 C899 1.379 . S
C894 N901 1.356 . S
C895 C894 1.363 . S
C895 C898 1.363 . S
N896 C898 1.356 . S
N896 H908 0.984 . S
N896 H909 0.985 . S
N897 C899 1.356 . S
N897 H902 0.984 . S
N897 H903 0.985 . S
C898 C892 1.379 . S
C898 C895 1.363 . S
C898 N896 1.356 . S
C899 C893 1.363 . S
C899 C894 1.379 . S
C899 N897 1.356 . S
N900 C892 1.356 . S
N900 H906 0.984 . S
N900 H907 0.984 . S
N901 C894 1.356 . S
N901 H904 0.984 . S
N901 H905 0.985 . S
H902 N897 0.984 . S
H903 N897 0.985 . S
H904 N901 0.984 . S
H905 N901 0.985 . S
H906 N900 0.984 . S
H907 N900 0.984 . S
H908 N896 0.984 . S
H909 N896 0.985 . S
C910 C911 1.363 . S
C910 C916 1.379 . S
C910 N918 1.356 . S
C911 C910 1.363 . S
C911 C917 1.363 . S
C912 C913 1.363 . S
C912 C917 1.379 . S
C912 N919 1.356 . S
C913 C912 1.363 . S
C913 C916 1.363 . S
N914 C916 1.356 . S
N914 H926 0.984 . S
N914 H927 0.985 . S
N915 C917 1.356 . S
N915 H920 0.984 . S
N915 H921 0.985 . S
C916 C910 1.379 . S
C916 C913 1.363 . S
C916 N914 1.356 . S
C917 C911 1.363 . S
C917 C912 1.379 . S
C917 N915 1.356 . S
N918 C910 1.356 . S
N918 H924 0.984 . S
N918 H925 0.984 . S
N919 C912 1.356 . S
N919 H922 0.984 . S
N919 H923 0.985 . S
H920 N915 0.984 . S
H921 N915 0.985 . S
H922 N919 0.984 . S
H923 N919 0.985 . S
H924 N918 0.984 . S
H925 N918 0.984 . S
H926 N914 0.984 . S
H927 N914 0.985 . S
C928 C929 1.363 . S
C928 C934 1.379 . S
C928 N936 1.356 . S
C929 C928 1.363 . S
C929 C935 1.363 . S
C930 C931 1.363 . S
C930 C935 1.379 . S
C930 N937 1.356 . S
C931 C930 1.363 . S
C931 C934 1.363 . S
N932 C934 1.356 . S
N932 H944 0.984 . S
N932 H945 0.985 . S
N933 C935 1.356 . S
N933 H938 0.984 . S
N933 H939 0.985 . S
C934 C928 1.379 . S
C934 C931 1.363 . S
C934 N932 1.356 . S
C935 C929 1.363 . S
C935 C930 1.379 . S
C935 N933 1.356 . S
N936 C928 1.356 . S
N936 H942 0.984 . S
N936 H943 0.984 . S
N937 C930 1.356 . S
N937 H940 0.984 . S
N937 H941 0.985 . S
H938 N933 0.984 . S
H939 N933 0.985 . S
H940 N937 0.984 . S
H941 N937 0.985 . S
H942 N936 0.984 . S
H943 N936 0.984 . S
H944 N932 0.984 . S
H945 N932 0.985 . S
C946 C947 1.363 . S
C946 C952 1.379 . S
C946 N954 1.356 . S
C947 C946 1.363 . S
C947 C953 1.363 . S
C948 C949 1.363 . S
C948 C953 1.379 . S
C948 N955 1.356 . S
C949 C948 1.363 . S
C949 C952 1.363 . S
N950 C952 1.356 . S
N950 H962 0.984 . S
N950 H963 0.985 . S
N951 C953 1.356 . S
N951 H956 0.984 . S
N951 H957 0.985 . S
C952 C946 1.379 . S
C952 C949 1.363 . S
C952 N950 1.356 . S
C953 C947 1.363 . S
C953 C948 1.379 . S
C953 N951 1.356 . S
N954 C946 1.356 . S
N954 H960 0.984 . S
N954 H961 0.984 . S
N955 C948 1.356 . S
N955 H958 0.984 . S
N955 H959 0.985 . S
H956 N951 0.984 . S
H957 N951 0.985 . S
H958 N955 0.984 . S
H959 N955 0.985 . S
H960 N954 0.984 . S
H961 N954 0.984 . S
H962 N950 0.984 . S
H963 N950 0.985 . S
C964 C965 1.363 . S
C964 C970 1.379 . S
C964 N972 1.356 . S
C965 C964 1.363 . S
C965 C971 1.363 . S
C966 C967 1.363 . S
C966 C971 1.379 . S
C966 N973 1.356 . S
C967 C966 1.363 . S
C967 C970 1.363 . S
N968 C970 1.356 . S
N968 H980 0.984 . S
N968 H981 0.985 . S
N969 C971 1.356 . S
N969 H974 0.984 . S
N969 H975 0.985 . S
C970 C964 1.379 . S
C970 C967 1.363 . S
C970 N968 1.356 . S
C971 C965 1.363 . S
C971 C966 1.379 . S
C971 N969 1.356 . S
N972 C964 1.356 . S
N972 H978 0.984 . S
N972 H979 0.984 . S
N973 C966 1.356 . S
N973 H976 0.984 . S
N973 H977 0.985 . S
H974 N969 0.984 . S
H975 N969 0.985 . S
H976 N973 0.984 . S
H977 N973 0.985 . S
H978 N972 0.984 . S
H979 N972 0.984 . S
H980 N968 0.984 . S
H981 N968 0.985 . S
C982 C983 1.363 . S
C982 C988 1.379 . S
C982 N990 1.356 . S
C983 C982 1.363 . S
C983 C989 1.363 . S
C984 C985 1.363 . S
C984 C989 1.379 . S
C984 N991 1.356 . S
C985 C984 1.363 . S
C985 C988 1.363 . S
N986 C988 1.356 . S
N986 H998 0.984 . S
N986 H999 0.985 . S
N987 C989 1.356 . S
N987 H992 0.984 . S
N987 H993 0.985 . S
C988 C982 1.379 . S
C988 C985 1.363 . S
C988 N986 1.356 . S
C989 C983 1.363 . S
C989 C984 1.379 . S
C989 N987 1.356 . S
N990 C982 1.356 . S
N990 H996 0.984 . S
N990 H997 0.984 . S
N991 C984 1.356 . S
N991 H994 0.984 . S
N991 H995 0.985 . S
H992 N987 0.984 . S
H993 N987 0.985 . S
H994 N991 0.984 . S
H995 N991 0.985 . S
H996 N990 0.984 . S
H997 N990 0.984 . S
H998 N986 0.984 . S
H999 N986 0.985 . S
C1000 C1001 1.363 . S
C1000 C1006 1.379 . S
C1000 N1008 1.356 . S
C1001 C1000 1.363 . S
C1001 C1007 1.363 . S
C1002 C1003 1.363 . S
C1002 C1007 1.379 . S
C1002 N1009 1.356 . S
C1003 C1002 1.363 . S
C1003 C1006 1.363 . S
N1004 C1006 1.356 . S
N1004 H1016 0.984 . S
N1004 H1017 0.985 . S
N1005 C1007 1.356 . S
N1005 H1010 0.984 . S
N1005 H1011 0.985 . S
C1006 C1000 1.379 . S
C1006 C1003 1.363 . S
C1006 N1004 1.356 . S
C1007 C1001 1.363 . S
C1007 C1002 1.379 . S
C1007 N1005 1.356 . S
N1008 C1000 1.356 . S
N1008 H1014 0.984 . S
N1008 H1015 0.984 . S
N1009 C1002 1.356 . S
N1009 H1012 0.984 . S
N1009 H1013 0.985 . S
H1010 N1005 0.984 . S
H1011 N1005 0.985 . S
H1012 N1009 0.984 . S
H1013 N1009 0.985 . S
H1014 N1008 0.984 . S
H1015 N1008 0.984 . S
H1016 N1004 0.984 . S
H1017 N1004 0.985 . S
C1018 C1019 1.363 . S
C1018 C1024 1.379 . S
C1018 N1026 1.356 . S
C1019 C1018 1.363 . S
C1019 C1025 1.363 . S
C1020 C1021 1.363 . S
C1020 C1025 1.379 . S
C1020 N1027 1.356 . S
C1021 C1020 1.363 . S
C1021 C1024 1.363 . S
N1022 C1024 1.356 . S
N1022 H1034 0.984 . S
N1022 H1035 0.985 . S
N1023 C1025 1.356 . S
N1023 H1028 0.984 . S
N1023 H1029 0.985 . S
C1024 C1018 1.379 . S
C1024 C1021 1.363 . S
C1024 N1022 1.356 . S
C1025 C1019 1.363 . S
C1025 C1020 1.379 . S
C1025 N1023 1.356 . S
N1026 C1018 1.356 . S
N1026 H1032 0.984 . S
N1026 H1033 0.984 . S
N1027 C1020 1.356 . S
N1027 H1030 0.984 . S
N1027 H1031 0.985 . S
H1028 N1023 0.984 . S
H1029 N1023 0.985 . S
H1030 N1027 0.984 . S
H1031 N1027 0.985 . S
H1032 N1026 0.984 . S
H1033 N1026 0.984 . S
H1034 N1022 0.984 . S
H1035 N1022 0.985 . S
C1036 C1037 1.363 . S
C1036 C1042 1.379 . S
C1036 N1044 1.356 . S
C1037 C1036 1.363 . S
C1037 C1043 1.363 . S
C1038 C1039 1.363 . S
C1038 C1043 1.379 . S
C1038 N1045 1.356 . S
C1039 C1038 1.363 . S
C1039 C1042 1.363 . S
N1040 C1042 1.356 . S
N1040 H1052 0.984 . S
N1040 H1053 0.985 . S
N1041 C1043 1.356 . S
N1041 H1046 0.984 . S
N1041 H1047 0.985 . S
C1042 C1036 1.379 . S
C1042 C1039 1.363 . S
C1042 N1040 1.356 . S
C1043 C1037 1.363 . S
C1043 C1038 1.379 . S
C1043 N1041 1.356 . S
N1044 C1036 1.356 . S
N1044 H1050 0.984 . S
N1044 H1051 0.984 . S
N1045 C1038 1.356 . S
N1045 H1048 0.984 . S
N1045 H1049 0.985 . S
H1046 N1041 0.984 . S
H1047 N1041 0.985 . S
H1048 N1045 0.984 . S
H1049 N1045 0.985 . S
H1050 N1044 0.984 . S
H1051 N1044 0.984 . S
H1052 N1040 0.984 . S
H1053 N1040 0.985 . S
C1054 C1055 1.363 . S
C1054 C1060 1.379 . S
C1054 N1062 1.356 . S
C1055 C1054 1.363 . S
C1055 C1061 1.363 . S
C1056 C1057 1.363 . S
C1056 C1061 1.379 . S
C1056 N1063 1.356 . S
C1057 C1056 1.363 . S
C1057 C1060 1.363 . S
N1058 C1060 1.356 . S
N1058 H1070 0.984 . S
N1058 H1071 0.985 . S
N1059 C1061 1.356 . S
N1059 H1064 0.984 . S
N1059 H1065 0.985 . S
C1060 C1054 1.379 . S
C1060 C1057 1.363 . S
C1060 N1058 1.356 . S
C1061 C1055 1.363 . S
C1061 C1056 1.379 . S
C1061 N1059 1.356 . S
N1062 C1054 1.356 . S
N1062 H1068 0.984 . S
N1062 H1069 0.984 . S
N1063 C1056 1.356 . S
N1063 H1066 0.984 . S
N1063 H1067 0.985 . S
H1064 N1059 0.984 . S
H1065 N1059 0.985 . S
H1066 N1063 0.984 . S
H1067 N1063 0.985 . S
H1068 N1062 0.984 . S
H1069 N1062 0.984 . S
H1070 N1058 0.984 . S
H1071 N1058 0.985 . S
C499 C417 1.527 . S
C497 C1 1.551 . S
C515 C68 1.548 1_545 S
C517 C449 1.527 . S
C533 C93 1.552 . S
C535 C472 1.543 . S
C553 C376 1.544 . S
C551 C139 1.551 . S
C571 C459 1.362 . S
C569 C8 1.531 . S
C589 C488 1.373 . S
C587 C61 1.525 1_545 S
C607 C392 1.373 . S
C605 C100 1.531 . S
C625 C427 1.362 . S
C623 C146 1.546 . S
C641 C15 1.533 . S
C643 C455 1.374 . S
C659 C192 1.539 . S
C661 C430 1.362 . S
C677 C107 1.532 . S
C679 C398 1.364 . S
C697 C487 1.373 . S
C695 C238 1.526 1_545 S
C715 C431 1.527 . S
C713 C22 1.554 . S
C731 C185 1.547 . S
C733 C399 1.527 . S
C749 C114 1.552 . S
C751 C486 1.546 . S
C769 C454 1.545 . S
C767 C231 1.548 1_545 S
C785 C277 1.552 . S
C787 C481 1.529 . S
C803 C206 1.548 . S
C805 C385 1.527 . S
C821 C330 1.552 . S
C823 C408 1.546 . S
C839 C252 1.548 . S
C841 C440 1.544 . S
C859 C395 1.362 . S
C857 C284 1.534 . S
C875 C199 1.526 . S
C877 C424 1.373 . S
C893 C323 1.533 . S
C895 C456 1.374 . S
C913 C491 1.362 . S
C911 C245 1.526 . S
C929 C291 1.533 . S
C931 C391 1.371 . S
C947 C54 1.525 . S
C949 C494 1.361 . S
C965 C344 1.533 . S
C967 C462 1.361 . S
C985 C423 1.373 . S
C983 C153 1.533 . S
C1003 C495 1.527 . S
C1001 C298 1.551 . S
C1021 C463 1.527 . S
C1019 C47 1.548 . S
C1039 C422 1.544 . S
C1037 C337 1.551 . S
C1057 C390 1.544 . S
C1055 C160 1.552 . S
