# Generated by pormake.
# Topology hwx, (6,3)-cn, num edge types: 1
# Building blocks:
#     Node 0, Type 0, BuildingBlock: OJICUG_clean_sbu_0, # of connection points: 6
#     Node 1, Type 0, BuildingBlock: OJICUG_clean_sbu_0, # of connection points: 6
#     Node 2, Type 0, BuildingBlock: OJICUG_clean_sbu_0, # of connection points: 6
#     Node 3, Type 0, BuildingBlock: OJICUG_clean_sbu_0, # of connection points: 6
#     Node 4, Type 1, BuildingBlock: BETDIP_clean_linker_0, # of connection points: 3
#     Node 5, Type 1, BuildingBlock: BETDIP_clean_linker_0, # of connection points: 3
#     Node 6, Type 1, BuildingBlock: BETDIP_clean_linker_0, # of connection points: 3
#     Node 7, Type 1, BuildingBlock: BETDIP_clean_linker_0, # of connection points: 3
#     Node 8, Type 1, BuildingBlock: BETDIP_clean_linker_0, # of connection points: 3
#     Node 9, Type 1, BuildingBlock: BETDIP_clean_linker_0, # of connection points: 3
#     Node 10, Type 1, BuildingBlock: BETDIP_clean_linker_0, # of connection points: 3
#     Node 11, Type 1, BuildingBlock: BETDIP_clean_linker_0, # of connection points: 3
#     Edge 12, Type (0, 1), BuildingBlock: XIVTED_clean_linker_0, # of connection points: 2
#     Edge 13, Type (0, 1), BuildingBlock: XIVTED_clean_linker_0, # of connection points: 2
#     Edge 14, Type (0, 1), BuildingBlock: XIVTED_clean_linker_0, # of connection points: 2
#     Edge 15, Type (0, 1), BuildingBlock: XIVTED_clean_linker_0, # of connection points: 2
#     Edge 16, Type (0, 1), BuildingBlock: XIVTED_clean_linker_0, # of connection points: 2
#     Edge 17, Type (0, 1), BuildingBlock: XIVTED_clean_linker_0, # of connection points: 2
#     Edge 18, Type (0, 1), BuildingBlock: XIVTED_clean_linker_0, # of connection points: 2
#     Edge 19, Type (0, 1), BuildingBlock: XIVTED_clean_linker_0, # of connection points: 2
#     Edge 20, Type (0, 1), BuildingBlock: XIVTED_clean_linker_0, # of connection points: 2
#     Edge 21, Type (0, 1), BuildingBlock: XIVTED_clean_linker_0, # of connection points: 2
#     Edge 22, Type (0, 1), BuildingBlock: XIVTED_clean_linker_0, # of connection points: 2
#     Edge 23, Type (0, 1), BuildingBlock: XIVTED_clean_linker_0, # of connection points: 2
#     Edge 24, Type (0, 1), BuildingBlock: XIVTED_clean_linker_0, # of connection points: 2
#     Edge 25, Type (0, 1), BuildingBlock: XIVTED_clean_linker_0, # of connection points: 2
#     Edge 26, Type (0, 1), BuildingBlock: XIVTED_clean_linker_0, # of connection points: 2
#     Edge 27, Type (0, 1), BuildingBlock: XIVTED_clean_linker_0, # of connection points: 2
#     Edge 28, Type (0, 1), BuildingBlock: XIVTED_clean_linker_0, # of connection points: 2
#     Edge 29, Type (0, 1), BuildingBlock: XIVTED_clean_linker_0, # of connection points: 2
#     Edge 30, Type (0, 1), BuildingBlock: XIVTED_clean_linker_0, # of connection points: 2
#     Edge 31, Type (0, 1), BuildingBlock: XIVTED_clean_linker_0, # of connection points: 2
#     Edge 32, Type (0, 1), BuildingBlock: XIVTED_clean_linker_0, # of connection points: 2
#     Edge 33, Type (0, 1), BuildingBlock: XIVTED_clean_linker_0, # of connection points: 2
#     Edge 34, Type (0, 1), BuildingBlock: XIVTED_clean_linker_0, # of connection points: 2
#     Edge 35, Type (0, 1), BuildingBlock: XIVTED_clean_linker_0, # of connection points: 2
# Relax obj value: 0.006
# Max RMSD: 0.045
# Mean RMSD: 0.041
data_MOF--net-hwx--node1-OJICUG_clean_sbu_0--node2-BETDIP_clean_linker_0--edge1-XIVTED_clean_linker_0
_symmetry_space_group_name_H-M    P1
_symmetry_Int_Tables_number       1
_symmetry_cell_setting            triclinic
loop_
_symmetry_equiv_pos_as_xyz
'x, y, z'
_cell_length_a     53.407662
_cell_length_b     53.35038
_cell_length_c     20.397667
_cell_angle_alpha  91.582398
_cell_angle_beta   91.644594
_cell_angle_gamma 89.98364
loop_
_atom_site_label
_atom_site_type_symbol
_atom_site_fract_x
_atom_site_fract_y
_atom_site_fract_z
_atom_type_partial_charge
Sc0 Sc 0.22421 0.21767 0.09329 0.0
Sc1 Sc 0.17994 0.18047 0.00333 0.0
Sc2 Sc 0.21956 0.22158 0.92182 0.0
O3 O 0.20789 0.20656 0.00612 0.0
C4 C 0.22181 0.26933 0.0198 0.0
C5 C 0.1664 0.21444 0.12825 0.0
C6 C 0.16043 0.22028 0.89903 0.0
C7 C 0.2181 0.15876 0.11051 0.0
C8 C 0.27111 0.21318 -0.00012 0.0
C9 C 0.21029 0.16432 0.87777 0.0
O10 O 0.22242 0.25682 0.07184 0.0
O11 O 0.16051 0.19909 0.08161 0.0
O12 O 0.18193 0.22955 0.8901 0.0
O13 O 0.2283 0.17982 0.12414 0.0
O14 O 0.25841 0.21513 0.94658 0.0
O15 O 0.19642 0.15909 0.92497 0.0
O16 O 0.26137 0.21432 0.05604 0.0
O17 O 0.19987 0.15609 0.06947 0.0
O18 O 0.2191 0.18607 0.8694 0.0
O19 O 0.18864 0.22231 0.13912 0.0
O20 O 0.22127 0.25908 0.96286 0.0
O21 O 0.15691 0.20189 0.93615 0.0
Sc22 Sc 0.27126 0.72464 0.43095 0.0
Sc23 Sc 0.31263 0.68258 0.50858 0.0
Sc24 Sc 0.27177 0.72022 0.60213 0.0
O25 O 0.28527 0.70913 0.51392 0.0
C26 C 0.2754 0.77192 0.53104 0.0
C27 C 0.32993 0.72289 0.40626 0.0
C28 C 0.32988 0.71261 0.63829 0.0
C29 C 0.27783 0.66752 0.38426 0.0
C30 C 0.22189 0.71942 0.5114 0.0
C31 C 0.27541 0.66096 0.61334 0.0
O32 O 0.27209 0.76179 0.4743 0.0
O33 O 0.33435 0.70446 0.44318 0.0
O34 O 0.30804 0.72048 0.6506 0.0
O35 O 0.26863 0.68931 0.3782 0.0
O36 O 0.23346 0.72123 0.5666 0.0
O37 O 0.29342 0.65833 0.57409 0.0
O38 O 0.23306 0.71906 0.45728 0.0
O39 O 0.29388 0.66229 0.42891 0.0
O40 O 0.26549 0.68205 0.62718 0.0
O41 O 0.30813 0.73193 0.397 0.0
O42 O 0.2769 0.75936 0.58311 0.0
O43 O 0.33478 0.69947 0.58752 0.0
Sc44 Sc 0.77008 0.77783 0.92978 0.0
Sc45 Sc 0.80882 0.81852 0.02652 0.0
Sc46 Sc 0.77358 0.77178 0.10106 0.0
O47 O 0.78413 0.78939 0.01914 0.0
C48 C 0.72224 0.77351 0.01958 0.0
C49 C 0.7688 0.83721 0.91912 0.0
C50 C 0.77511 0.82934 0.14989 0.0
C51 C 0.82718 0.78951 0.89883 0.0
C52 C 0.77901 0.7257 -0.00141 0.0
C53 C 0.83198 0.77991 0.12867 0.0
O54 O 0.73258 0.77468 0.96444 0.0
O55 O 0.7869 0.8412 0.95999 0.0
O56 O 0.76886 0.80654 0.15613 0.0
O57 O 0.8059 0.77993 0.88407 0.0
O58 O 0.77705 0.73506 0.05618 0.0
O59 O 0.83359 0.79918 0.09369 0.0
O60 O 0.77778 0.73886 0.94752 0.0
O61 O 0.83135 0.80335 0.94953 0.0
O62 O 0.81162 0.76809 0.13531 0.0
O63 O 0.76063 0.81539 0.90407 0.0
O64 O 0.73443 0.77297 0.07393 0.0
O65 O 0.78894 0.83665 0.10457 0.0
Sc66 Sc 0.71819 0.27467 0.55953 0.0
Sc67 Sc 0.68281 0.31743 0.4661 0.0
Sc68 Sc 0.72144 0.27268 0.38799 0.0
O69 O 0.70743 0.28826 0.47118 0.0
C70 C 0.76944 0.2716 0.48247 0.0
C71 C 0.71963 0.33371 0.58629 0.0
C72 C 0.72121 0.33099 0.3556 0.0
C73 C 0.66057 0.28717 0.5826 0.0
C74 C 0.71149 0.22445 0.47415 0.0
C75 C 0.66381 0.28094 0.34845 0.0
O76 O 0.75666 0.27073 0.53384 0.0
O77 O 0.70284 0.33869 0.54294 0.0
O78 O 0.72857 0.30854 0.34628 0.0
O79 O 0.6813 0.27703 0.59825 0.0
O80 O 0.71621 0.23496 0.42062 0.0
O81 O 0.66042 0.29893 0.38946 0.0
O82 O 0.71034 0.23648 0.52872 0.0
O83 O 0.65776 0.30152 0.53443 0.0
O84 O 0.68477 0.26995 0.34238 0.0
O85 O 0.72728 0.31157 0.59683 0.0
O86 O 0.75952 0.27354 0.42551 0.0
O87 O 0.70478 0.33699 0.39698 0.0
H88 H 0.22482 0.49731 0.88324 0.0
H89 H 0.22541 0.50527 0.09436 0.0
H90 H 0.22693 0.57042 0.97648 0.0
H91 H 0.23435 0.46556 0.09402 0.0
C92 C 0.22869 0.45685 0.04729 0.0
C93 C 0.22491 0.50906 0.92747 0.0
C94 C 0.22511 0.53518 0.92289 0.0
C95 C 0.22504 0.49795 0.98894 0.0
C96 C 0.22557 0.5133 0.04635 0.0
C97 C 0.22617 0.53949 0.0421 0.0
C98 C 0.22561 0.55023 0.98021 0.0
N99 N 0.22463 0.47137 0.99063 0.0
H100 H 0.9899 0.73863 0.6309 0.0
H101 H 0.99427 0.72173 0.42352 0.0
H102 H 0.92483 0.74566 0.50331 0.0
H103 H 0.02555 0.69636 0.45634 0.0
C104 C 0.03478 0.70732 0.49567 0.0
C105 C 0.98089 0.73679 0.58274 0.0
C106 C 0.95565 0.74365 0.5736 0.0
C107 C 0.99483 0.72805 0.52938 0.0
C108 C 0.98357 0.72697 0.46598 0.0
C109 C 0.95828 0.73311 0.45695 0.0
C110 C 0.94443 0.74094 0.51086 0.0
N111 N 0.02043 0.72183 0.54034 0.0
H112 H 0.78263 0.49304 0.09472 0.0
H113 H 0.78033 0.49425 0.88324 0.0
H114 H 0.77405 0.42454 0.98035 0.0
H115 H 0.79943 0.53086 0.89788 0.0
C116 C 0.79294 0.53893 0.94375 0.0
C117 C 0.78149 0.4832 0.04752 0.0
C118 C 0.77866 0.45704 0.04447 0.0
C119 C 0.78298 0.49681 0.9898 0.0
C120 C 0.78052 0.4841 0.9284 0.0
C121 C 0.77778 0.45798 0.92502 0.0
C122 C 0.77715 0.44464 0.98307 0.0
N123 N 0.78594 0.52326 -0.00455 0.0
H124 H 0.00432 0.27079 0.39317 0.0
H125 H 0.00019 0.27389 0.60397 0.0
H126 H 0.07163 0.27236 0.51411 0.0
H127 H 0.96339 0.2557 0.58351 0.0
C128 C 0.95609 0.2635 0.53823 0.0
C129 C 0.01355 0.27188 0.44119 0.0
C130 C 0.0398 0.27216 0.44678 0.0
C131 C -0.00095 0.27217 0.49735 0.0
C132 C 0.01097 0.27327 0.55988 0.0
C133 C 0.03715 0.27367 0.56593 0.0
C134 C 0.05138 0.27333 0.50932 0.0
N135 N 0.9726 0.27102 0.4891 0.0
H136 H 0.70754 -0.00101 0.64154 0.0
H137 H 0.72235 0.98943 0.43581 0.0
H138 H 0.72023 0.92551 0.55892 0.0
H139 H 0.70435 0.02667 0.4262 0.0
C140 C 0.70663 0.0367 0.473 0.0
C141 C 0.71103 0.98686 0.59928 0.0
C142 C 0.71358 0.96101 0.60701 0.0
C143 C 0.71292 0.99719 0.53716 0.0
C144 C 0.71899 0.98152 0.48295 0.0
C145 C 0.72212 0.95557 0.4906 0.0
C146 C 0.71835 0.94552 0.55237 0.0
N147 N 0.70983 0.02352 0.53222 0.0
H148 H 0.49787 0.23571 0.84819 0.0
H149 H 0.49995 0.21923 0.05431 0.0
H150 H 0.56522 0.2478 0.96571 0.0
H151 H 0.46782 0.194 0.02664 0.0
C152 C 0.45775 0.20339 0.9874 0.0
C153 C 0.5081 0.23477 0.89472 0.0
C154 C 0.5329 0.24339 0.90042 0.0
C155 C 0.49615 0.2254 0.94935 0.0
C156 C 0.50904 0.2252 0.01069 0.0
C157 C 0.534 0.23309 0.016 0.0
C158 C 0.54582 0.24182 0.96092 0.0
N159 N 0.47082 0.21759 0.94148 0.0
H160 H 0.28401 -0.00208 0.38992 0.0
H161 H 0.26658 0.00422 0.5947 0.0
H162 H 0.26106 0.06858 0.4736 0.0
H163 H 0.28891 0.96918 0.60416 0.0
C164 C 0.2866 0.95924 0.55722 0.0
C165 C 0.27865 0.00924 0.43218 0.0
C166 C 0.27282 0.03459 0.42496 0.0
C167 C 0.27752 -0.00165 0.4938 0.0
C168 C 0.26919 0.01275 0.54795 0.0
C169 C 0.26285 0.03808 0.54076 0.0
C170 C 0.26556 0.04894 0.47958 0.0
N171 N 0.28329 0.9725 0.49818 0.0
H172 H 0.49429 0.78184 0.14592 0.0
H173 H 0.49068 0.75651 0.94368 0.0
H174 H 0.42323 0.76373 0.05279 0.0
H175 H 0.52851 0.73499 -0.00033 0.0
C176 C 0.5367 0.75313 0.01317 0.0
C177 C 0.48328 0.77614 0.10257 0.0
C178 C 0.45727 0.7736 0.10596 0.0
C179 C 0.49531 0.77013 0.04407 0.0
C180 C 0.48126 0.7616 0.98846 0.0
C181 C 0.45516 0.75914 0.99136 0.0
C182 C 0.44337 0.76575 0.04988 0.0
N183 N 0.52171 0.77196 0.04277 0.0
H184 H 0.11703 0.2001 0.1282 0.0
H185 H 0.08272 0.29695 0.41796 0.0
H186 H 0.16975 0.25185 0.22281 0.0
H187 H 0.03292 0.2383 0.34467 0.0
H188 H 0.11252 0.28489 0.33413 0.0
H189 H 0.0841 0.21743 0.19662 0.0
C190 C 0.12172 0.21507 0.16334 0.0
C191 C 0.1463 0.22436 0.17012 0.0
C192 C 0.09495 0.27483 0.33586 0.0
C193 C 0.10859 0.24442 0.24804 0.0
C194 C 0.07793 0.28176 0.38354 0.0
C195 C 0.05548 0.26841 0.38866 0.0
C196 C 0.08952 0.25436 0.2931 0.0
C197 C 0.04999 0.24913 0.3423 0.0
C198 C 0.10287 0.225 0.20223 0.0
C199 C 0.15117 0.2439 0.21623 0.0
N200 N 0.06706 0.24247 0.29688 0.0
N201 N 0.1325 0.25323 0.25346 0.0
H202 H 0.29614 0.61381 0.62108 0.0
H203 H 0.19434 0.57077 0.87264 0.0
H204 H 0.23126 0.65704 0.67607 0.0
H205 H 0.26073 0.52797 0.83101 0.0
H206 H 0.20331 0.59797 0.78198 0.0
H207 H 0.27989 0.57835 0.68083 0.0
C208 C 0.27841 0.61579 0.64519 0.0
C209 C 0.2653 0.63861 0.6447 0.0
C210 C 0.21574 0.58239 0.79172 0.0
C211 C 0.24657 0.59816 0.71244 0.0
C212 C 0.21051 0.56682 0.84317 0.0
C213 C 0.22697 0.54737 0.85928 0.0
C214 C 0.23786 0.57874 0.75698 0.0
C215 C 0.24764 0.54286 0.81982 0.0
C216 C 0.26913 0.59554 0.67914 0.0
C217 C 0.24231 0.64003 0.67622 0.0
N218 N 0.25281 0.55878 0.77108 0.0
N219 N 0.23382 0.62018 0.70915 0.0
H220 H 0.87812 0.80258 0.14416 0.0
H221 H 0.97273 0.75884 0.35046 0.0
H222 H 0.83777 0.73553 0.19079 0.0
H223 H 0.91574 0.70892 0.41582 0.0
H224 H 0.94641 0.76784 0.25379 0.0
H225 H 0.91407 0.78773 0.20806 0.0
C226 C 0.87694 0.78457 0.16711 0.0
C227 C 0.8547 0.77053 0.16308 0.0
C228 C 0.9396 0.75486 0.28893 0.0
C229 C 0.89612 0.75292 0.2351 0.0
C230 C 0.95487 0.74936 0.34344 0.0
C231 C 0.9461 0.73346 0.39125 0.0
C232 C 0.91539 0.74447 0.28311 0.0
C233 C 0.92293 0.72159 0.38028 0.0
C234 C 0.89767 0.7759 0.20317 0.0
C235 C 0.85432 0.74726 0.19348 0.0
N236 N 0.90824 0.7276 0.3278 0.0
N237 N 0.87459 0.73937 0.22867 0.0
H238 H 0.76251 0.33222 0.66186 0.0
H239 H 0.74381 0.46798 0.82608 0.0
H240 H 0.70327 0.38246 0.60158 0.0
H241 H 0.80226 0.41632 0.88157 0.0
H242 H 0.73216 0.43998 0.73267 0.0
H243 H 0.78032 0.36539 0.73244 0.0
C244 C 0.75321 0.35027 0.66341 0.0
C245 C 0.7311 0.35441 0.62645 0.0
C246 C 0.7478 0.43499 0.76466 0.0
C247 C 0.75154 0.39269 0.70764 0.0
C248 C 0.75456 0.45104 0.81755 0.0
C249 C 0.77382 0.44422 0.8617 0.0
C250 C 0.76045 0.41207 0.75626 0.0
C251 C 0.78707 0.42203 0.84901 0.0
C252 C 0.7635 0.36929 0.7036 0.0
C253 C 0.72022 0.37837 0.62965 0.0
N254 N 0.77996 0.40662 0.79789 0.0
N255 N 0.7304 0.39657 0.67021 0.0
H256 H 0.61576 0.29959 0.34151 0.0
H257 H 0.57447 0.20507 0.0486 0.0
H258 H 0.66256 0.24064 0.26262 0.0
H259 H 0.52652 0.26355 0.12294 0.0
H260 H 0.60427 0.21374 0.13946 0.0
H261 H 0.58081 0.28365 0.27228 0.0
C262 C 0.61872 0.28331 0.30976 0.0
C263 C 0.64229 0.27168 0.3073 0.0
C264 C 0.58704 0.22441 0.13688 0.0
C265 C 0.60229 0.25321 0.22859 0.0
C266 C 0.56998 0.21927 0.08543 0.0
C267 C 0.54816 0.2336 0.07892 0.0
C268 C 0.58242 0.24438 0.18129 0.0
C269 C 0.54315 0.25202 0.12701 0.0
C270 C 0.5987 0.27415 0.27052 0.0
C271 C 0.64488 0.25048 0.26569 0.0
N272 N 0.56041 0.2572 0.17582 0.0
N273 N 0.6252 0.24205 0.22784 0.0
H274 H 0.21559 0.16872 0.74675 0.0
H275 H 0.27676 0.03853 0.6722 0.0
H276 H 0.21899 0.11473 0.90044 0.0
H277 H 0.22483 0.07224 0.53426 0.0
H278 H 0.26182 0.06761 0.75822 0.0
H279 H 0.22626 0.1355 0.66731 0.0
C280 C 0.21864 0.14985 0.76365 0.0
C281 C 0.21638 0.14432 0.82991 0.0
C282 C 0.25368 0.06834 0.70905 0.0
C283 C 0.22889 0.10656 0.73996 0.0
C284 C 0.26209 0.05179 0.6601 0.0
C285 C 0.25248 0.05336 0.59551 0.0
C286 C 0.23594 0.08669 0.69266 0.0
C287 C 0.23348 0.07093 0.58268 0.0
C288 C 0.22456 0.13096 0.71843 0.0
C289 C 0.22041 0.11959 0.84949 0.0
N290 N 0.22617 0.0872 0.6305 0.0
N291 N 0.22681 0.10153 0.80465 0.0
H292 H 0.32893 0.76553 0.33475 0.0
H293 H 0.46871 0.74847 0.21714 0.0
H294 H 0.37929 0.70815 0.40494 0.0
H295 H 0.41581 0.80101 0.13576 0.0
H296 H 0.43979 0.74043 0.30512 0.0
H297 H 0.36342 0.78445 0.27853 0.0
C298 C 0.34724 0.75686 0.33842 0.0
C299 C 0.35105 0.73487 0.37366 0.0
C300 C 0.43476 0.75419 0.26897 0.0
C301 C 0.3908 0.75668 0.30946 0.0
C302 C 0.4514 0.75902 0.21931 0.0
C303 C 0.44441 0.7752 0.16899 0.0
C304 C 0.41104 0.7656 0.26781 0.0
C305 C 0.42169 0.78819 0.17347 0.0
C306 C 0.367 0.76782 0.30657 0.0
C307 C 0.37536 0.72487 0.37759 0.0
N308 N 0.4056 0.78279 0.22135 0.0
N309 N 0.39426 0.73571 0.34524 0.0
H310 H 0.72358 0.83772 0.85348 0.0
H311 H 0.74465 0.97294 0.71144 0.0
H312 H 0.78546 0.88593 0.91393 0.0
H313 H 0.68509 0.92259 0.64841 0.0
H314 H 0.75438 0.94578 0.80376 0.0
H315 H 0.70456 0.87228 0.79498 0.0
C316 C 0.73319 0.85561 0.85456 0.0
C317 C 0.75646 0.85875 0.88751 0.0
C318 C 0.73877 0.941 0.77073 0.0
C319 C 0.73464 0.89858 0.82038 0.0
C320 C 0.73305 0.95664 0.71857 0.0
C321 C 0.71423 0.94975 0.67226 0.0
C322 C 0.72558 0.91838 0.77604 0.0
C323 C 0.6999 0.92835 0.68297 0.0
C324 C 0.7222 0.87543 0.82141 0.0
C325 C 0.76767 0.88257 0.88845 0.0
N326 N 0.70613 0.91319 0.73316 0.0
N327 N 0.75682 0.9015 0.85449 0.0
H328 H 0.87641 0.78179 0.93274 0.0
H329 H 0.92257 0.78257 0.56894 0.0
H330 H 0.82524 0.78532 0.76568 0.0
H331 H 0.95447 0.72889 0.70225 0.0
H332 H 0.89261 0.79498 0.65163 0.0
H333 H 0.91076 0.77242 0.85776 0.0
C334 C 0.87249 0.78076 0.88032 0.0
C335 C 0.84805 0.78427 0.85501 0.0
C336 C 0.90633 0.78064 0.6628 0.0
C337 C 0.88697 0.77425 0.77014 0.0
C338 C 0.92337 0.77344 0.61573 0.0
C339 C 0.94058 0.75408 0.62795 0.0
C340 C 0.90682 0.76889 0.72325 0.0
C341 C 0.94139 0.74373 0.69058 0.0
C342 C 0.89199 0.77533 0.83795 0.0
C343 C 0.84381 0.78258 0.78698 0.0
N344 N 0.92454 0.75116 0.73607 0.0
N345 N 0.86316 0.77794 0.74676 0.0
H346 H 0.76074 0.32711 0.27327 0.0
H347 H 0.74732 0.46673 0.14607 0.0
H348 H 0.70784 0.38069 0.3509 0.0
H349 H 0.80191 0.4134 0.07689 0.0
H350 H 0.73591 0.43753 0.23103 0.0
H351 H 0.77862 0.36 0.20869 0.0
C352 C 0.75285 0.34578 0.27681 0.0
C353 C 0.73253 0.35101 0.31712 0.0
C354 C 0.75066 0.43238 0.19789 0.0
C355 C 0.75306 0.38893 0.24315 0.0
C356 C 0.75731 0.44914 0.14985 0.0
C357 C 0.77536 0.44229 0.10406 0.0
C358 C 0.76212 0.40867 0.19983 0.0
C359 C 0.78761 0.4192 0.11069 0.0
C360 C 0.76318 0.36463 0.24008 0.0
C361 C 0.72336 0.37571 0.32016 0.0
N362 N 0.78056 0.4031 0.15708 0.0
N363 N 0.73357 0.3937 0.28327 0.0
H364 H 0.1123 0.20204 0.88453 0.0
H365 H 0.07579 0.30228 0.61594 0.0
H366 H 0.15913 0.26408 0.83299 0.0
H367 H 0.02845 0.23999 0.66103 0.0
H368 H 0.10281 0.29287 0.71062 0.0
H369 H 0.07816 0.21937 0.81713 0.0
C370 C 0.11535 0.21939 0.8596 0.0
C371 C 0.13879 0.23134 0.86342 0.0
C372 C 0.08631 0.28146 0.70061 0.0
C373 C 0.09984 0.25129 0.78664 0.0
C374 C 0.07087 0.2869 0.64672 0.0
C375 C 0.05012 0.27169 0.63049 0.0
C376 C 0.08114 0.26041 0.7379 0.0
C377 C 0.04435 0.25213 0.67206 0.0
C378 C 0.09584 0.22929 0.82123 0.0
C379 C 0.14158 0.25391 0.83054 0.0
N380 N 0.06006 0.24674 0.72332 0.0
N381 N 0.12244 0.26299 0.79316 0.0
H382 H 0.29385 0.61862 0.37611 0.0
H383 H 0.20174 0.58322 0.07159 0.0
H384 H 0.24099 0.67007 0.28852 0.0
H385 H 0.25867 0.53332 0.14649 0.0
H386 H 0.21246 0.6134 0.16011 0.0
H387 H 0.27836 0.58558 0.30018 0.0
C388 C 0.27901 0.62301 0.34098 0.0
C389 C 0.26887 0.64727 0.33842 0.0
C390 C 0.22246 0.59575 0.15765 0.0
C391 C 0.25094 0.60944 0.25177 0.0
C392 C 0.21632 0.57853 0.1072 0.0
C393 C 0.22952 0.55588 0.10142 0.0
C394 C 0.24203 0.59035 0.20251 0.0
C395 C 0.24798 0.55054 0.14935 0.0
C396 C 0.27013 0.60409 0.29777 0.0
C397 C 0.24955 0.65175 0.29206 0.0
N398 N 0.25389 0.56779 0.19754 0.0
N399 N 0.24128 0.63304 0.25054 0.0
H400 H 0.37994 0.71892 0.61648 0.0
H401 H 0.41741 0.72493 -0.00474 0.0
H402 H 0.32599 0.71893 0.77006 0.0
H403 H 0.45831 0.769 0.85974 0.0
H404 H 0.38837 0.71221 0.90631 0.0
H405 H 0.41323 0.72821 0.6998 0.0
C406 C 0.37516 0.72079 0.66764 0.0
C407 C 0.35024 0.71827 0.68664 0.0
C408 C 0.40379 0.72457 0.89605 0.0
C409 C 0.38794 0.72822 0.7811 0.0
C410 C 0.42032 0.73193 0.9467 0.0
C411 C 0.43989 0.74867 0.93527 0.0
C412 C 0.40703 0.73359 0.83308 0.0
C413 C 0.44333 0.75625 0.87073 0.0
C414 C 0.39407 0.72614 0.71479 0.0
C415 C 0.34493 0.72094 0.75333 0.0
N416 N 0.42687 0.74878 0.8218 0.0
N417 N 0.36367 0.72556 0.79822 0.0
H418 H 0.76456 0.82237 0.27807 0.0
H419 H 0.70943 0.95674 0.35813 0.0
H420 H 0.76561 0.8791 0.13131 0.0
H421 H 0.75479 0.91617 0.49841 0.0
H422 H 0.72215 0.92657 0.27195 0.0
H423 H 0.75167 0.85429 0.35881 0.0
C424 C 0.76189 0.8415 0.26277 0.0
C425 C 0.7663 0.84819 0.19817 0.0
C426 C 0.7292 0.92446 0.32181 0.0
C427 C 0.75132 0.88454 0.28976 0.0
C428 C 0.72208 0.94167 0.3709 0.0
C429 C 0.73058 0.93876 0.43611 0.0
C430 C 0.7445 0.90408 0.33852 0.0
C431 C 0.74694 0.91875 0.44957 0.0
C432 C 0.75468 0.85967 0.30882 0.0
C433 C 0.76263 0.87328 0.18092 0.0
N434 N 0.75306 0.90204 0.40149 0.0
N435 N 0.75517 0.89061 0.22646 0.0
H436 H 0.66173 0.28622 0.71489 0.0
H437 H 0.53324 0.22608 0.77185 0.0
H438 H 0.61133 0.2789 0.54636 0.0
H439 H 0.56229 0.28507 0.90176 0.0
H440 H 0.56173 0.23991 0.68712 0.0
H441 H 0.62661 0.27919 0.78633 0.0
C442 C 0.64322 0.28306 0.69306 0.0
C443 C 0.63927 0.28309 0.62496 0.0
C444 C 0.56139 0.25 0.73389 0.0
C445 C 0.59928 0.27478 0.70597 0.0
C446 C 0.54517 0.24221 0.78204 0.0
C447 C 0.54592 0.25405 0.84442 0.0
C448 C 0.57851 0.26938 0.74914 0.0
C449 C 0.56171 0.27488 0.85508 0.0
C450 C 0.62324 0.27926 0.7337 0.0
C451 C 0.61494 0.27909 0.59887 0.0
N452 N 0.57779 0.28152 0.80849 0.0
N453 N 0.59575 0.27467 0.63956 0.0
H454 H 0.19812 0.11126 0.11379 0.0
H455 H 0.24583 0.01911 0.31561 0.0
H456 H 0.26222 0.15531 0.18034 0.0
H457 H 0.29624 0.07705 0.38899 0.0
H458 H 0.23467 0.04493 0.22215 0.0
H459 H 0.21493 0.07579 0.17329 0.0
C460 C 0.21587 0.11337 0.14038 0.0
C461 C 0.2285 0.13647 0.14308 0.0
C462 C 0.24827 0.05208 0.25819 0.0
C463 C 0.24839 0.09564 0.21033 0.0
C464 C 0.25501 0.03705 0.3109 0.0
C465 C 0.27165 0.04623 0.36022 0.0
C466 C 0.25815 0.07649 0.25567 0.0
C467 C 0.28305 0.06953 0.35223 0.0
C468 C 0.22568 0.09294 0.17405 0.0
C469 C 0.25152 0.13806 0.17786 0.0
N470 N 0.2758 0.084 0.30155 0.0
N471 N 0.26055 0.11804 0.21043 0.0
H472 H 0.2267 0.299 0.13155 0.0
H473 H 0.21759 0.42721 0.93814 0.0
H474 H 0.2171 0.30286 0.92098 0.0
H475 H 0.2352 0.424 0.14557 0.0
H476 H 0.21504 0.38159 0.9323 0.0
H477 H 0.22755 0.34475 0.13899 0.0
C478 C 0.22473 0.30943 0.08688 0.0
C479 C 0.22192 0.29701 0.02549 0.0
C480 C 0.21946 0.39082 0.97915 0.0
C481 C 0.22286 0.34938 0.03379 0.0
C482 C 0.2209 0.41689 0.98254 0.0
C483 C 0.22669 0.42932 0.04253 0.0
C484 C 0.22378 0.3771 0.03615 0.0
C485 C 0.23075 0.41502 0.09842 0.0
C486 C 0.22525 0.33555 0.0912 0.0
C487 C 0.21942 0.31156 0.96935 0.0
N488 N 0.22922 0.38961 0.09392 0.0
N489 N 0.21996 0.33695 0.97489 0.0
H490 H 0.19035 0.72813 0.61303 0.0
H491 H 0.06669 0.68743 0.40756 0.0
H492 H 0.19047 0.70586 0.40779 0.0
H493 H 0.06541 0.72837 0.59282 0.0
H494 H 0.11253 0.68972 0.41134 0.0
H495 H 0.14481 0.72425 0.61071 0.0
C496 C 0.18083 0.72241 0.56746 0.0
C497 C 0.19428 0.71738 0.51043 0.0
C498 C 0.1022 0.69818 0.45116 0.0
C499 C 0.14214 0.71278 0.50769 0.0
C500 C 0.07612 0.69679 0.44913 0.0
C501 C 0.06236 0.70779 0.49975 0.0
C502 C 0.11454 0.71047 0.50458 0.0
C503 C 0.07534 0.71972 0.55259 0.0
C504 C 0.15482 0.72026 0.56619 0.0
C505 C 0.18088 0.71007 0.45282 0.0
N506 N 0.10075 0.72073 0.55366 0.0
N507 N 0.15555 0.70792 0.45298 0.0
H508 H 0.77852 0.69087 0.09461 0.0
H509 H 0.8023 0.57337 0.85214 0.0
H510 H 0.78718 0.6977 0.88588 0.0
H511 H 0.78156 0.56704 0.05388 0.0
H512 H 0.80006 0.61915 0.86475 0.0
H513 H 0.78294 0.64562 0.08173 0.0
C514 C 0.78141 0.68291 0.04599 0.0
C515 C 0.78238 0.69821 0.99117 0.0
C516 C 0.79602 0.60773 0.90623 0.0
C517 C 0.78746 0.64618 0.9762 0.0
C518 C 0.79734 0.58167 0.89908 0.0
C519 C 0.79205 0.56648 0.95192 0.0
C520 C 0.7895 0.61862 0.96685 0.0
C521 C 0.78572 0.57804 0.01175 0.0
C522 C 0.78389 0.657 0.03871 0.0
C523 C 0.78621 0.68668 0.92951 0.0
N524 N 0.78463 0.60344 0.01757 0.0
N525 N 0.7886 0.66135 0.9237 0.0
H526 H 0.7971 0.26226 0.5939 0.0
H527 H 0.92962 0.27811 0.42794 0.0
H528 H 0.80473 0.27786 0.38866 0.0
H529 H 0.92054 0.25174 0.62395 0.0
H530 H 0.88405 0.27995 0.41327 0.0
H531 H 0.84244 0.26024 0.60648 0.0
C532 C 0.80829 0.26527 0.55136 0.0
C533 C 0.79702 0.27024 0.49004 0.0
C534 C 0.89203 0.27372 0.45943 0.0
C535 C 0.84914 0.26794 0.50434 0.0
C536 C 0.91803 0.27271 0.46789 0.0
C537 C 0.92875 0.26476 0.52737 0.0
C538 C 0.87677 0.26688 0.51094 0.0
C539 C 0.91292 0.25796 0.57739 0.0
C540 C 0.83423 0.26406 0.55863 0.0
C541 C 0.81258 0.27392 0.4368 0.0
N542 N 0.8877 0.25922 0.56813 0.0
N543 N 0.83789 0.27276 0.44523 0.0
H544 H 0.70854 0.19226 0.36697 0.0
H545 H 0.70821 0.06891 0.58061 0.0
H546 H 0.70694 0.1936 0.57869 0.0
H547 H 0.70257 0.06736 0.36908 0.0
H548 H 0.70728 0.11463 0.58071 0.0
H549 H 0.70564 0.14663 0.36656 0.0
C550 C 0.70748 0.18301 0.41342 0.0
C551 C 0.70815 0.19687 0.47302 0.0
C552 C 0.70616 0.10433 0.53423 0.0
C553 C 0.70491 0.1445 0.47276 0.0
C554 C 0.70673 0.07819 0.53411 0.0
C555 C 0.70555 0.06437 0.47458 0.0
C556 C 0.70452 0.11674 0.47442 0.0
C557 C 0.70357 0.07739 0.41595 0.0
C558 C 0.70581 0.15692 0.41308 0.0
C559 C 0.70655 0.18376 0.53155 0.0
N560 N 0.70322 0.10288 0.41728 0.0
N561 N 0.70516 0.15833 0.52993 0.0
H562 H 0.30373 0.19932 0.09837 0.0
H563 H 0.42564 0.22005 0.89046 0.0
H564 H 0.30092 0.2187 0.89403 0.0
H565 H 0.42731 0.18459 0.07813 0.0
H566 H 0.37994 0.22041 0.89145 0.0
H567 H 0.34907 0.19469 0.09289 0.0
C568 C 0.31262 0.2026 0.05231 0.0
C569 C 0.29849 0.20957 -0.00335 0.0
C570 C 0.39028 0.21239 0.93223 0.0
C571 C 0.35041 0.2043 0.99017 0.0
C572 C 0.41636 0.21223 0.93177 0.0
C573 C 0.43018 0.20239 0.9846 0.0
C574 C 0.37798 0.20289 0.98617 0.0
C575 C 0.41724 0.19238 0.0366 0.0
C576 C 0.33851 0.19983 0.04918 0.0
C577 C 0.31104 0.21333 0.93818 0.0
N578 N 0.39182 0.19306 0.03639 0.0
N579 N 0.33632 0.21081 0.93661 0.0
H580 H 0.27534 0.80463 0.43045 0.0
H581 H 0.29002 0.92797 0.66033 0.0
H582 H 0.28129 0.80225 0.64195 0.0
H583 H 0.28315 0.92778 0.44898 0.0
H584 H 0.28826 0.88195 0.65603 0.0
H585 H 0.27939 0.84989 0.43772 0.0
C586 C 0.27747 0.8136 0.47858 0.0
C587 C 0.27787 0.79952 0.53574 0.0
C588 C 0.28722 0.89203 0.61069 0.0
C589 C 0.28258 0.85168 0.54433 0.0
C590 C 0.28826 0.91821 0.61314 0.0
C591 C 0.28665 0.93161 0.55506 0.0
C592 C 0.28457 0.87933 0.54962 0.0
C593 C 0.28437 0.91822 0.49508 0.0
C594 C 0.27983 0.83954 0.48266 0.0
C595 C 0.28081 0.81233 0.59659 0.0
N596 N 0.28335 0.89284 0.494 0.0
N597 N 0.28302 0.83773 0.59932 0.0
H598 H 0.68849 0.79848 0.94295 0.0
H599 H 0.57187 0.71668 0.0232 0.0
H600 H 0.69394 0.74447 0.09629 0.0
H601 H 0.56325 0.79647 0.00235 0.0
H602 H 0.61763 0.72219 0.02686 0.0
H603 H 0.64265 0.79403 0.94153 0.0
C604 C 0.67998 0.78573 0.97626 0.0
C605 C 0.6948 0.77187 0.02001 0.0
C606 C 0.60562 0.73841 0.02147 0.0
C607 C 0.64299 0.76628 0.01727 0.0
C608 C 0.57969 0.73529 0.01903 0.0
C609 C 0.56402 0.75619 0.01295 0.0
C610 C 0.61573 0.76247 0.01566 0.0
C611 C 0.57484 0.77996 0.00769 0.0
C612 C 0.65398 0.78328 0.97552 0.0
C613 C 0.68303 0.75561 0.06229 0.0
N614 N 0.60016 0.78247 0.00851 0.0
N615 N 0.65773 0.75297 0.0593 0.0
loop_
_geom_bond_atom_site_label_1
_geom_bond_atom_site_label_2
_geom_bond_distance
_geom_bond_site_symmetry_2
_ccdc_geom_bond_type
Sc0 O3 2.025 . S
Sc0 O10 2.105 . S
Sc0 O13 2.105 . S
Sc0 O16 2.105 . S
Sc0 O19 2.105 . S
Sc1 O3 2.025 . S
Sc1 O11 2.105 . S
Sc1 O15 2.105 1_554 S
Sc1 O17 2.105 . S
Sc1 O21 2.105 1_554 S
Sc2 O3 2.025 1_556 S
Sc2 O12 2.105 . S
Sc2 O14 2.105 . S
Sc2 O18 2.105 . S
Sc2 O20 2.105 . S
O3 Sc0 2.025 . S
O3 Sc1 2.025 . S
O3 Sc2 2.025 1_554 S
C4 O10 1.268 . S
C4 O20 1.268 1_554 S
C5 O11 1.268 . S
C5 O19 1.268 . S
C6 O12 1.268 . S
C6 O21 1.268 . S
C7 O13 1.268 . S
C7 O17 1.268 . S
C8 O14 1.268 1_554 S
C8 O16 1.268 . S
C9 O15 1.268 . S
C9 O18 1.268 . S
O10 Sc0 2.105 . S
O10 C4 1.268 . S
O11 Sc1 2.105 . S
O11 C5 1.268 . S
O12 Sc2 2.105 . S
O12 C6 1.268 . S
O13 Sc0 2.105 . S
O13 C7 1.268 . S
O14 Sc2 2.105 . S
O14 C8 1.268 1_556 S
O15 Sc1 2.105 1_556 S
O15 C9 1.268 . S
O16 Sc0 2.105 . S
O16 C8 1.268 . S
O17 Sc1 2.105 . S
O17 C7 1.268 . S
O18 Sc2 2.105 . S
O18 C9 1.268 . S
O19 Sc0 2.105 . S
O19 C5 1.268 . S
O20 Sc2 2.105 . S
O20 C4 1.268 1_556 S
O21 Sc1 2.105 1_556 S
O21 C6 1.268 . S
Sc22 O25 2.025 . S
Sc22 O32 2.105 . S
Sc22 O35 2.105 . S
Sc22 O38 2.105 . S
Sc22 O41 2.105 . S
Sc23 O25 2.025 . S
Sc23 O33 2.105 . S
Sc23 O37 2.105 . S
Sc23 O39 2.105 . S
Sc23 O43 2.105 . S
Sc24 O25 2.025 . S
Sc24 O34 2.105 . S
Sc24 O36 2.105 . S
Sc24 O40 2.105 . S
Sc24 O42 2.105 . S
O25 Sc22 2.025 . S
O25 Sc23 2.025 . S
O25 Sc24 2.025 . S
C26 O32 1.268 . S
C26 O42 1.268 . S
C27 O33 1.268 . S
C27 O41 1.268 . S
C28 O34 1.268 . S
C28 O43 1.268 . S
C29 O35 1.268 . S
C29 O39 1.268 . S
C30 O36 1.268 . S
C30 O38 1.268 . S
C31 O37 1.268 . S
C31 O40 1.268 . S
O32 Sc22 2.105 . S
O32 C26 1.268 . S
O33 Sc23 2.105 . S
O33 C27 1.268 . S
O34 Sc24 2.105 . S
O34 C28 1.268 . S
O35 Sc22 2.105 . S
O35 C29 1.268 . S
O36 Sc24 2.105 . S
O36 C30 1.268 . S
O37 Sc23 2.105 . S
O37 C31 1.268 . S
O38 Sc22 2.105 . S
O38 C30 1.268 . S
O39 Sc23 2.105 . S
O39 C29 1.268 . S
O40 Sc24 2.105 . S
O40 C31 1.268 . S
O41 Sc22 2.105 . S
O41 C27 1.268 . S
O42 Sc24 2.105 . S
O42 C26 1.268 . S
O43 Sc23 2.105 . S
O43 C28 1.268 . S
Sc44 O47 2.025 1_556 S
Sc44 O54 2.105 . S
Sc44 O57 2.105 . S
Sc44 O60 2.105 . S
Sc44 O63 2.105 . S
Sc45 O47 2.025 . S
Sc45 O55 2.105 1_554 S
Sc45 O59 2.105 . S
Sc45 O61 2.105 1_554 S
Sc45 O65 2.105 . S
Sc46 O47 2.025 . S
Sc46 O56 2.105 . S
Sc46 O58 2.105 . S
Sc46 O62 2.105 . S
Sc46 O64 2.105 . S
O47 Sc44 2.025 1_554 S
O47 Sc45 2.025 . S
O47 Sc46 2.025 . S
C48 O54 1.268 1_554 S
C48 O64 1.268 . S
C49 O55 1.268 . S
C49 O63 1.268 . S
C50 O56 1.268 . S
C50 O65 1.268 . S
C51 O57 1.268 . S
C51 O61 1.268 . S
C52 O58 1.268 . S
C52 O60 1.268 1_554 S
C53 O59 1.268 . S
C53 O62 1.268 . S
O54 Sc44 2.105 . S
O54 C48 1.268 1_556 S
O55 Sc45 2.105 1_556 S
O55 C49 1.268 . S
O56 Sc46 2.105 . S
O56 C50 1.268 . S
O57 Sc44 2.105 . S
O57 C51 1.268 . S
O58 Sc46 2.105 . S
O58 C52 1.268 . S
O59 Sc45 2.105 . S
O59 C53 1.268 . S
O60 Sc44 2.105 . S
O60 C52 1.268 1_556 S
O61 Sc45 2.105 1_556 S
O61 C51 1.268 . S
O62 Sc46 2.105 . S
O62 C53 1.268 . S
O63 Sc44 2.105 . S
O63 C49 1.268 . S
O64 Sc46 2.105 . S
O64 C48 1.268 . S
O65 Sc45 2.105 . S
O65 C50 1.268 . S
Sc66 O69 2.025 . S
Sc66 O76 2.105 . S
Sc66 O79 2.105 . S
Sc66 O82 2.105 . S
Sc66 O85 2.105 . S
Sc67 O69 2.025 . S
Sc67 O77 2.105 . S
Sc67 O81 2.105 . S
Sc67 O83 2.105 . S
Sc67 O87 2.105 . S
Sc68 O69 2.025 . S
Sc68 O78 2.105 . S
Sc68 O80 2.105 . S
Sc68 O84 2.105 . S
Sc68 O86 2.105 . S
O69 Sc66 2.025 . S
O69 Sc67 2.025 . S
O69 Sc68 2.025 . S
C70 O76 1.268 . S
C70 O86 1.268 . S
C71 O77 1.268 . S
C71 O85 1.268 . S
C72 O78 1.268 . S
C72 O87 1.268 . S
C73 O79 1.268 . S
C73 O83 1.268 . S
C74 O80 1.268 . S
C74 O82 1.268 . S
C75 O81 1.268 . S
C75 O84 1.268 . S
O76 Sc66 2.105 . S
O76 C70 1.268 . S
O77 Sc67 2.105 . S
O77 C71 1.268 . S
O78 Sc68 2.105 . S
O78 C72 1.268 . S
O79 Sc66 2.105 . S
O79 C73 1.268 . S
O80 Sc68 2.105 . S
O80 C74 1.268 . S
O81 Sc67 2.105 . S
O81 C75 1.268 . S
O82 Sc66 2.105 . S
O82 C74 1.268 . S
O83 Sc67 2.105 . S
O83 C73 1.268 . S
O84 Sc68 2.105 . S
O84 C75 1.268 . S
O85 Sc66 2.105 . S
O85 C71 1.268 . S
O86 Sc68 2.105 . S
O86 C70 1.268 . S
O87 Sc67 2.105 . S
O87 C72 1.268 . S
H88 C93 0.930 . S
H89 C96 0.930 . S
H90 C98 0.931 . S
H91 C92 1.016 . S
C92 H91 1.016 . S
C92 N99 1.286 1_554 S
C93 H88 0.930 . S
C93 C94 1.397 . S
C93 C95 1.361 . S
C94 C93 1.397 . S
C94 C98 1.377 1_556 S
C95 C93 1.361 . S
C95 C96 1.393 1_556 S
C95 N99 1.413 . S
C96 H89 0.930 . S
C96 C95 1.393 1_554 S
C96 C97 1.399 . S
C97 C96 1.399 . S
C97 C98 1.393 . S
C98 H90 0.931 . S
C98 C94 1.377 1_554 S
C98 C97 1.393 . S
N99 C92 1.286 1_556 S
N99 C95 1.413 . S
H100 C105 0.930 . S
H101 C108 0.930 . S
H102 C110 0.930 . S
H103 C104 1.016 . S
C104 H103 1.016 . S
C104 N111 1.286 . S
C105 H100 0.930 . S
C105 C106 1.397 . S
C105 C107 1.369 . S
C106 C105 1.397 . S
C106 C110 1.390 . S
C107 C105 1.369 . S
C107 C108 1.399 . S
C107 N111 1.399 1_655 S
C108 H101 0.930 . S
C108 C107 1.399 . S
C108 C109 1.399 . S
C109 C108 1.399 . S
C109 C110 1.381 . S
C110 H102 0.930 . S
C110 C106 1.390 . S
C110 C109 1.381 . S
N111 C104 1.286 . S
N111 C107 1.399 1_455 S
H112 C117 0.930 . S
H113 C120 0.930 . S
H114 C122 0.930 . S
H115 C116 1.016 1_556 S
C116 H115 1.016 1_554 S
C116 N123 1.286 . S
C117 H112 0.930 . S
C117 C118 1.397 . S
C117 C119 1.361 . S
C118 C117 1.397 . S
C118 C122 1.390 . S
C119 C117 1.361 . S
C119 C120 1.393 1_554 S
C119 N123 1.413 . S
C120 H113 0.930 . S
C120 C119 1.393 1_556 S
C120 C121 1.399 . S
C121 C120 1.399 . S
C121 C122 1.381 1_556 S
C122 H114 0.930 . S
C122 C118 1.390 . S
C122 C121 1.381 1_554 S
N123 C116 1.286 . S
N123 C119 1.413 . S
H124 C129 0.930 . S
H125 C132 0.930 . S
H126 C134 0.930 . S
H127 C128 1.016 . S
C128 H127 1.016 . S
C128 N135 1.286 . S
C129 H124 0.930 . S
C129 C130 1.397 . S
C129 C131 1.361 . S
C130 C129 1.397 . S
C130 C134 1.390 . S
C131 C129 1.361 . S
C131 C132 1.393 . S
C131 N135 1.413 1_455 S
C132 H125 0.930 . S
C132 C131 1.393 . S
C132 C133 1.399 . S
C133 C132 1.399 . S
C133 C134 1.381 . S
C134 H126 0.930 . S
C134 C130 1.390 . S
C134 C133 1.381 . S
N135 C128 1.286 . S
N135 C131 1.413 1_655 S
H136 C141 0.930 . S
H137 C144 0.930 . S
H138 C146 0.930 . S
H139 C140 1.016 . S
C140 H139 1.016 . S
C140 N147 1.286 . S
C141 H136 0.930 . S
C141 C142 1.397 . S
C141 C143 1.361 . S
C142 C141 1.397 . S
C142 C146 1.390 . S
C143 C141 1.361 . S
C143 C144 1.393 . S
C143 N147 1.413 1_565 S
C144 H137 0.930 . S
C144 C143 1.393 . S
C144 C145 1.399 . S
C145 C144 1.399 . S
C145 C146 1.381 . S
C146 H138 0.930 . S
C146 C142 1.390 . S
C146 C145 1.381 . S
N147 C140 1.286 . S
N147 C143 1.413 1_545 S
H148 C153 0.930 . S
H149 C156 0.930 . S
H150 C158 0.931 . S
H151 C152 1.016 . S
C152 H151 1.016 . S
C152 N159 1.286 1_554 S
C153 H148 0.930 . S
C153 C154 1.397 . S
C153 C155 1.361 . S
C154 C153 1.397 . S
C154 C158 1.382 1_556 S
C155 C153 1.361 . S
C155 C156 1.393 1_556 S
C155 N159 1.413 . S
C156 H149 0.930 . S
C156 C155 1.393 1_554 S
C156 C157 1.399 . S
C157 C156 1.399 . S
C157 C158 1.389 . S
C158 H150 0.931 . S
C158 C154 1.382 1_554 S
C158 C157 1.389 . S
N159 C152 1.286 1_556 S
N159 C155 1.413 . S
H160 C165 0.930 . S
H161 C168 0.930 . S
H162 C170 0.930 . S
H163 C164 1.016 . S
C164 H163 1.016 . S
C164 N171 1.286 . S
C165 H160 0.930 . S
C165 C166 1.397 . S
C165 C167 1.374 . S
C166 C165 1.397 . S
C166 C170 1.390 . S
C167 C165 1.374 . S
C167 C168 1.402 . S
C167 N171 1.391 1_545 S
C168 H161 0.930 . S
C168 C167 1.402 . S
C168 C169 1.399 . S
C169 C168 1.399 . S
C169 C170 1.381 . S
C170 H162 0.930 . S
C170 C166 1.390 . S
C170 C169 1.381 . S
N171 C164 1.286 . S
N171 C167 1.391 1_565 S
H172 C177 0.930 . S
H173 C180 0.930 . S
H174 C182 0.930 . S
H175 C176 1.016 1_556 S
C176 H175 1.016 1_554 S
C176 N183 1.286 . S
C177 H172 0.930 . S
C177 C178 1.397 . S
C177 C179 1.361 . S
C178 C177 1.397 . S
C178 C182 1.390 . S
C179 C177 1.361 . S
C179 C180 1.393 1_554 S
C179 N183 1.413 . S
C180 H173 0.930 . S
C180 C179 1.393 1_556 S
C180 C181 1.399 . S
C181 C180 1.399 . S
C181 C182 1.381 1_556 S
C182 H174 0.930 . S
C182 C178 1.390 . S
C182 C181 1.381 1_554 S
N183 C176 1.286 . S
N183 C179 1.413 . S
H184 C190 0.930 . S
H185 C194 0.930 . S
H186 C199 0.929 . S
H187 C197 0.929 . S
H188 C192 0.929 . S
H189 C198 0.929 . S
C190 H184 0.930 . S
C190 C191 1.367 . S
C190 C198 1.378 . S
C191 C190 1.367 . S
C191 C199 1.433 . S
C192 H188 0.929 . S
C192 C194 1.378 . S
C192 C196 1.350 . S
C193 C196 1.463 . S
C193 C198 1.350 . S
C193 N201 1.427 . S
C194 H185 0.930 . S
C194 C192 1.378 . S
C194 C195 1.367 . S
C195 C194 1.367 . S
C195 C197 1.433 . S
C196 C192 1.350 . S
C196 C193 1.463 . S
C196 N200 1.427 . S
C197 H187 0.929 . S
C197 C195 1.433 . S
C197 N200 1.384 . S
C198 H189 0.929 . S
C198 C190 1.378 . S
C198 C193 1.350 . S
C199 H186 0.929 . S
C199 C191 1.433 . S
C199 N201 1.384 . S
N200 C196 1.427 . S
N200 C197 1.384 . S
N201 C193 1.427 . S
N201 C199 1.384 . S
H202 C208 0.930 . S
H203 C212 0.930 . S
H204 C217 0.929 . S
H205 C215 0.929 . S
H206 C210 0.929 . S
H207 C216 0.929 . S
C208 H202 0.930 . S
C208 C209 1.367 . S
C208 C216 1.378 . S
C209 C208 1.367 . S
C209 C217 1.433 . S
C210 H206 0.929 . S
C210 C212 1.378 . S
C210 C214 1.350 . S
C211 C214 1.463 . S
C211 C216 1.350 . S
C211 N219 1.427 . S
C212 H203 0.930 . S
C212 C210 1.378 . S
C212 C213 1.367 . S
C213 C212 1.367 . S
C213 C215 1.433 . S
C214 C210 1.350 . S
C214 C211 1.463 . S
C214 N218 1.427 . S
C215 H205 0.929 . S
C215 C213 1.433 . S
C215 N218 1.384 . S
C216 H207 0.929 . S
C216 C208 1.378 . S
C216 C211 1.350 . S
C217 H204 0.929 . S
C217 C209 1.433 . S
C217 N219 1.384 . S
N218 C214 1.427 . S
N218 C215 1.384 . S
N219 C211 1.427 . S
N219 C217 1.384 . S
H220 C226 0.930 . S
H221 C230 0.930 . S
H222 C235 0.929 . S
H223 C233 0.929 . S
H224 C228 0.929 . S
H225 C234 0.929 . S
C226 H220 0.930 . S
C226 C227 1.367 . S
C226 C234 1.378 . S
C227 C226 1.367 . S
C227 C235 1.433 . S
C228 H224 0.929 . S
C228 C230 1.378 . S
C228 C232 1.350 . S
C229 C232 1.463 . S
C229 C234 1.350 . S
C229 N237 1.427 . S
C230 H221 0.930 . S
C230 C228 1.378 . S
C230 C231 1.367 . S
C231 C230 1.367 . S
C231 C233 1.433 . S
C232 C228 1.350 . S
C232 C229 1.463 . S
C232 N236 1.427 . S
C233 H223 0.929 . S
C233 C231 1.433 . S
C233 N236 1.384 . S
C234 H225 0.929 . S
C234 C226 1.378 . S
C234 C229 1.350 . S
C235 H222 0.929 . S
C235 C227 1.433 . S
C235 N237 1.384 . S
N236 C232 1.427 . S
N236 C233 1.384 . S
N237 C229 1.427 . S
N237 C235 1.384 . S
H238 C244 0.930 . S
H239 C248 0.930 . S
H240 C253 0.929 . S
H241 C251 0.929 . S
H242 C246 0.929 . S
H243 C252 0.929 . S
C244 H238 0.930 . S
C244 C245 1.367 . S
C244 C252 1.378 . S
C245 C244 1.367 . S
C245 C253 1.433 . S
C246 H242 0.929 . S
C246 C248 1.378 . S
C246 C250 1.350 . S
C247 C250 1.463 . S
C247 C252 1.350 . S
C247 N255 1.427 . S
C248 H239 0.930 . S
C248 C246 1.378 . S
C248 C249 1.367 . S
C249 C248 1.367 . S
C249 C251 1.433 . S
C250 C246 1.350 . S
C250 C247 1.463 . S
C250 N254 1.427 . S
C251 H241 0.929 . S
C251 C249 1.433 . S
C251 N254 1.384 . S
C252 H243 0.929 . S
C252 C244 1.378 . S
C252 C247 1.350 . S
C253 H240 0.929 . S
C253 C245 1.433 . S
C253 N255 1.384 . S
N254 C250 1.427 . S
N254 C251 1.384 . S
N255 C247 1.427 . S
N255 C253 1.384 . S
H256 C262 0.930 . S
H257 C266 0.930 . S
H258 C271 0.929 . S
H259 C269 0.929 . S
H260 C264 0.929 . S
H261 C270 0.929 . S
C262 H256 0.930 . S
C262 C263 1.367 . S
C262 C270 1.378 . S
C263 C262 1.367 . S
C263 C271 1.433 . S
C264 H260 0.929 . S
C264 C266 1.378 . S
C264 C268 1.350 . S
C265 C268 1.463 . S
C265 C270 1.350 . S
C265 N273 1.427 . S
C266 H257 0.930 . S
C266 C264 1.378 . S
C266 C267 1.367 . S
C267 C266 1.367 . S
C267 C269 1.433 . S
C268 C264 1.350 . S
C268 C265 1.463 . S
C268 N272 1.427 . S
C269 H259 0.929 . S
C269 C267 1.433 . S
C269 N272 1.384 . S
C270 H261 0.929 . S
C270 C262 1.378 . S
C270 C265 1.350 . S
C271 H258 0.929 . S
C271 C263 1.433 . S
C271 N273 1.384 . S
N272 C268 1.427 . S
N272 C269 1.384 . S
N273 C265 1.427 . S
N273 C271 1.384 . S
H274 C280 0.930 . S
H275 C284 0.930 . S
H276 C289 0.929 . S
H277 C287 0.929 . S
H278 C282 0.929 . S
H279 C288 0.929 . S
C280 H274 0.930 . S
C280 C281 1.367 . S
C280 C288 1.378 . S
C281 C280 1.367 . S
C281 C289 1.433 . S
C282 H278 0.929 . S
C282 C284 1.378 . S
C282 C286 1.350 . S
C283 C286 1.463 . S
C283 C288 1.350 . S
C283 N291 1.427 . S
C284 H275 0.930 . S
C284 C282 1.378 . S
C284 C285 1.367 . S
C285 C284 1.367 . S
C285 C287 1.433 . S
C286 C282 1.350 . S
C286 C283 1.463 . S
C286 N290 1.427 . S
C287 H277 0.929 . S
C287 C285 1.433 . S
C287 N290 1.384 . S
C288 H279 0.929 . S
C288 C280 1.378 . S
C288 C283 1.350 . S
C289 H276 0.929 . S
C289 C281 1.433 . S
C289 N291 1.384 . S
N290 C286 1.427 . S
N290 C287 1.384 . S
N291 C283 1.427 . S
N291 C289 1.384 . S
H292 C298 0.930 . S
H293 C302 0.930 . S
H294 C307 0.929 . S
H295 C305 0.929 . S
H296 C300 0.929 . S
H297 C306 0.929 . S
C298 H292 0.930 . S
C298 C299 1.367 . S
C298 C306 1.378 . S
C299 C298 1.367 . S
C299 C307 1.433 . S
C300 H296 0.929 . S
C300 C302 1.378 . S
C300 C304 1.350 . S
C301 C304 1.463 . S
C301 C306 1.350 . S
C301 N309 1.427 . S
C302 H293 0.930 . S
C302 C300 1.378 . S
C302 C303 1.367 . S
C303 C302 1.367 . S
C303 C305 1.433 . S
C304 C300 1.350 . S
C304 C301 1.463 . S
C304 N308 1.427 . S
C305 H295 0.929 . S
C305 C303 1.433 . S
C305 N308 1.384 . S
C306 H297 0.929 . S
C306 C298 1.378 . S
C306 C301 1.350 . S
C307 H294 0.929 . S
C307 C299 1.433 . S
C307 N309 1.384 . S
N308 C304 1.427 . S
N308 C305 1.384 . S
N309 C301 1.427 . S
N309 C307 1.384 . S
H310 C316 0.930 . S
H311 C320 0.930 . S
H312 C325 0.929 . S
H313 C323 0.929 . S
H314 C318 0.929 . S
H315 C324 0.929 . S
C316 H310 0.930 . S
C316 C317 1.367 . S
C316 C324 1.378 . S
C317 C316 1.367 . S
C317 C325 1.433 . S
C318 H314 0.929 . S
C318 C320 1.378 . S
C318 C322 1.350 . S
C319 C322 1.463 . S
C319 C324 1.350 . S
C319 N327 1.427 . S
C320 H311 0.930 . S
C320 C318 1.378 . S
C320 C321 1.367 . S
C321 C320 1.367 . S
C321 C323 1.433 . S
C322 C318 1.350 . S
C322 C319 1.463 . S
C322 N326 1.427 . S
C323 H313 0.929 . S
C323 C321 1.433 . S
C323 N326 1.384 . S
C324 H315 0.929 . S
C324 C316 1.378 . S
C324 C319 1.350 . S
C325 H312 0.929 . S
C325 C317 1.433 . S
C325 N327 1.384 . S
N326 C322 1.427 . S
N326 C323 1.384 . S
N327 C319 1.427 . S
N327 C325 1.384 . S
H328 C334 0.930 . S
H329 C338 0.930 . S
H330 C343 0.929 . S
H331 C341 0.929 . S
H332 C336 0.929 . S
H333 C342 0.929 . S
C334 H328 0.930 . S
C334 C335 1.367 . S
C334 C342 1.378 . S
C335 C334 1.367 . S
C335 C343 1.433 . S
C336 H332 0.929 . S
C336 C338 1.378 . S
C336 C340 1.350 . S
C337 C340 1.463 . S
C337 C342 1.350 . S
C337 N345 1.427 . S
C338 H329 0.930 . S
C338 C336 1.378 . S
C338 C339 1.367 . S
C339 C338 1.367 . S
C339 C341 1.433 . S
C340 C336 1.350 . S
C340 C337 1.463 . S
C340 N344 1.427 . S
C341 H331 0.929 . S
C341 C339 1.433 . S
C341 N344 1.384 . S
C342 H333 0.929 . S
C342 C334 1.378 . S
C342 C337 1.350 . S
C343 H330 0.929 . S
C343 C335 1.433 . S
C343 N345 1.384 . S
N344 C340 1.427 . S
N344 C341 1.384 . S
N345 C337 1.427 . S
N345 C343 1.384 . S
H346 C352 0.930 . S
H347 C356 0.930 . S
H348 C361 0.929 . S
H349 C359 0.929 . S
H350 C354 0.929 . S
H351 C360 0.929 . S
C352 H346 0.930 . S
C352 C353 1.367 . S
C352 C360 1.378 . S
C353 C352 1.367 . S
C353 C361 1.433 . S
C354 H350 0.929 . S
C354 C356 1.378 . S
C354 C358 1.350 . S
C355 C358 1.463 . S
C355 C360 1.350 . S
C355 N363 1.427 . S
C356 H347 0.930 . S
C356 C354 1.378 . S
C356 C357 1.367 . S
C357 C356 1.367 . S
C357 C359 1.433 . S
C358 C354 1.350 . S
C358 C355 1.463 . S
C358 N362 1.427 . S
C359 H349 0.929 . S
C359 C357 1.433 . S
C359 N362 1.384 . S
C360 H351 0.929 . S
C360 C352 1.378 . S
C360 C355 1.350 . S
C361 H348 0.929 . S
C361 C353 1.433 . S
C361 N363 1.384 . S
N362 C358 1.427 . S
N362 C359 1.384 . S
N363 C355 1.427 . S
N363 C361 1.384 . S
H364 C370 0.930 . S
H365 C374 0.930 . S
H366 C379 0.929 . S
H367 C377 0.929 . S
H368 C372 0.929 . S
H369 C378 0.929 . S
C370 H364 0.930 . S
C370 C371 1.367 . S
C370 C378 1.378 . S
C371 C370 1.367 . S
C371 C379 1.433 . S
C372 H368 0.929 . S
C372 C374 1.378 . S
C372 C376 1.350 . S
C373 C376 1.463 . S
C373 C378 1.350 . S
C373 N381 1.427 . S
C374 H365 0.930 . S
C374 C372 1.378 . S
C374 C375 1.367 . S
C375 C374 1.367 . S
C375 C377 1.433 . S
C376 C372 1.350 . S
C376 C373 1.463 . S
C376 N380 1.427 . S
C377 H367 0.929 . S
C377 C375 1.433 . S
C377 N380 1.384 . S
C378 H369 0.929 . S
C378 C370 1.378 . S
C378 C373 1.350 . S
C379 H366 0.929 . S
C379 C371 1.433 . S
C379 N381 1.384 . S
N380 C376 1.427 . S
N380 C377 1.384 . S
N381 C373 1.427 . S
N381 C379 1.384 . S
H382 C388 0.930 . S
H383 C392 0.930 . S
H384 C397 0.929 . S
H385 C395 0.929 . S
H386 C390 0.929 . S
H387 C396 0.929 . S
C388 H382 0.930 . S
C388 C389 1.367 . S
C388 C396 1.378 . S
C389 C388 1.367 . S
C389 C397 1.433 . S
C390 H386 0.929 . S
C390 C392 1.378 . S
C390 C394 1.350 . S
C391 C394 1.463 . S
C391 C396 1.350 . S
C391 N399 1.427 . S
C392 H383 0.930 . S
C392 C390 1.378 . S
C392 C393 1.367 . S
C393 C392 1.367 . S
C393 C395 1.433 . S
C394 C390 1.350 . S
C394 C391 1.463 . S
C394 N398 1.427 . S
C395 H385 0.929 . S
C395 C393 1.433 . S
C395 N398 1.384 . S
C396 H387 0.929 . S
C396 C388 1.378 . S
C396 C391 1.350 . S
C397 H384 0.929 . S
C397 C389 1.433 . S
C397 N399 1.384 . S
N398 C394 1.427 . S
N398 C395 1.384 . S
N399 C391 1.427 . S
N399 C397 1.384 . S
H400 C406 0.930 . S
H401 C410 0.930 . S
H402 C415 0.929 . S
H403 C413 0.929 . S
H404 C408 0.929 . S
H405 C414 0.929 . S
C406 H400 0.930 . S
C406 C407 1.367 . S
C406 C414 1.378 . S
C407 C406 1.367 . S
C407 C415 1.433 . S
C408 H404 0.929 . S
C408 C410 1.378 . S
C408 C412 1.350 . S
C409 C412 1.463 . S
C409 C414 1.350 . S
C409 N417 1.427 . S
C410 H401 0.930 . S
C410 C408 1.378 . S
C410 C411 1.367 . S
C411 C410 1.367 . S
C411 C413 1.433 . S
C412 C408 1.350 . S
C412 C409 1.463 . S
C412 N416 1.427 . S
C413 H403 0.929 . S
C413 C411 1.433 . S
C413 N416 1.384 . S
C414 H405 0.929 . S
C414 C406 1.378 . S
C414 C409 1.350 . S
C415 H402 0.929 . S
C415 C407 1.433 . S
C415 N417 1.384 . S
N416 C412 1.427 . S
N416 C413 1.384 . S
N417 C409 1.427 . S
N417 C415 1.384 . S
H418 C424 0.930 . S
H419 C428 0.930 . S
H420 C433 0.929 . S
H421 C431 0.929 . S
H422 C426 0.929 . S
H423 C432 0.929 . S
C424 H418 0.930 . S
C424 C425 1.367 . S
C424 C432 1.378 . S
C425 C424 1.367 . S
C425 C433 1.433 . S
C426 H422 0.929 . S
C426 C428 1.378 . S
C426 C430 1.350 . S
C427 C430 1.463 . S
C427 C432 1.350 . S
C427 N435 1.427 . S
C428 H419 0.930 . S
C428 C426 1.378 . S
C428 C429 1.367 . S
C429 C428 1.367 . S
C429 C431 1.433 . S
C430 C426 1.350 . S
C430 C427 1.463 . S
C430 N434 1.427 . S
C431 H421 0.929 . S
C431 C429 1.433 . S
C431 N434 1.384 . S
C432 H423 0.929 . S
C432 C424 1.378 . S
C432 C427 1.350 . S
C433 H420 0.929 . S
C433 C425 1.433 . S
C433 N435 1.384 . S
N434 C430 1.427 . S
N434 C431 1.384 . S
N435 C427 1.427 . S
N435 C433 1.384 . S
H436 C442 0.930 . S
H437 C446 0.930 . S
H438 C451 0.929 . S
H439 C449 0.929 . S
H440 C444 0.929 . S
H441 C450 0.929 . S
C442 H436 0.930 . S
C442 C443 1.367 . S
C442 C450 1.378 . S
C443 C442 1.367 . S
C443 C451 1.433 . S
C444 H440 0.929 . S
C444 C446 1.378 . S
C444 C448 1.350 . S
C445 C448 1.463 . S
C445 C450 1.350 . S
C445 N453 1.427 . S
C446 H437 0.930 . S
C446 C444 1.378 . S
C446 C447 1.367 . S
C447 C446 1.367 . S
C447 C449 1.433 . S
C448 C444 1.350 . S
C448 C445 1.463 . S
C448 N452 1.427 . S
C449 H439 0.929 . S
C449 C447 1.433 . S
C449 N452 1.384 . S
C450 H441 0.929 . S
C450 C442 1.378 . S
C450 C445 1.350 . S
C451 H438 0.929 . S
C451 C443 1.433 . S
C451 N453 1.384 . S
N452 C448 1.427 . S
N452 C449 1.384 . S
N453 C445 1.427 . S
N453 C451 1.384 . S
H454 C460 0.930 . S
H455 C464 0.930 . S
H456 C469 0.929 . S
H457 C467 0.929 . S
H458 C462 0.929 . S
H459 C468 0.929 . S
C460 H454 0.930 . S
C460 C461 1.367 . S
C460 C468 1.378 . S
C461 C460 1.367 . S
C461 C469 1.433 . S
C462 H458 0.929 . S
C462 C464 1.378 . S
C462 C466 1.350 . S
C463 C466 1.463 . S
C463 C468 1.350 . S
C463 N471 1.427 . S
C464 H455 0.930 . S
C464 C462 1.378 . S
C464 C465 1.367 . S
C465 C464 1.367 . S
C465 C467 1.433 . S
C466 C462 1.350 . S
C466 C463 1.463 . S
C466 N470 1.427 . S
C467 H457 0.929 . S
C467 C465 1.433 . S
C467 N470 1.384 . S
C468 H459 0.929 . S
C468 C460 1.378 . S
C468 C463 1.350 . S
C469 H456 0.929 . S
C469 C461 1.433 . S
C469 N471 1.384 . S
N470 C466 1.427 . S
N470 C467 1.384 . S
N471 C463 1.427 . S
N471 C469 1.384 . S
H472 C478 0.930 . S
H473 C482 0.930 . S
H474 C487 0.929 . S
H475 C485 0.929 . S
H476 C480 0.929 . S
H477 C486 0.929 . S
C478 H472 0.930 . S
C478 C479 1.367 . S
C478 C486 1.378 . S
C479 C478 1.367 . S
C479 C487 1.433 1_554 S
C480 H476 0.929 . S
C480 C482 1.378 . S
C480 C484 1.350 1_556 S
C481 C484 1.463 . S
C481 C486 1.350 . S
C481 N489 1.427 1_554 S
C482 H473 0.930 . S
C482 C480 1.378 . S
C482 C483 1.367 1_556 S
C483 C482 1.367 1_554 S
C483 C485 1.433 . S
C484 C480 1.350 1_554 S
C484 C481 1.463 . S
C484 N488 1.427 . S
C485 H475 0.929 . S
C485 C483 1.433 . S
C485 N488 1.384 . S
C486 H477 0.929 . S
C486 C478 1.378 . S
C486 C481 1.350 . S
C487 H474 0.929 . S
C487 C479 1.433 1_556 S
C487 N489 1.384 . S
N488 C484 1.427 . S
N488 C485 1.384 . S
N489 C481 1.427 1_556 S
N489 C487 1.384 . S
H490 C496 0.930 . S
H491 C500 0.930 . S
H492 C505 0.929 . S
H493 C503 0.929 . S
H494 C498 0.929 . S
H495 C504 0.929 . S
C496 H490 0.930 . S
C496 C497 1.367 . S
C496 C504 1.378 . S
C497 C496 1.367 . S
C497 C505 1.433 . S
C498 H494 0.929 . S
C498 C500 1.378 . S
C498 C502 1.350 . S
C499 C502 1.463 . S
C499 C504 1.350 . S
C499 N507 1.427 . S
C500 H491 0.930 . S
C500 C498 1.378 . S
C500 C501 1.367 . S
C501 C500 1.367 . S
C501 C503 1.433 . S
C502 C498 1.350 . S
C502 C499 1.463 . S
C502 N506 1.427 . S
C503 H493 0.929 . S
C503 C501 1.433 . S
C503 N506 1.384 . S
C504 H495 0.929 . S
C504 C496 1.378 . S
C504 C499 1.350 . S
C505 H492 0.929 . S
C505 C497 1.433 . S
C505 N507 1.384 . S
N506 C502 1.427 . S
N506 C503 1.384 . S
N507 C499 1.427 . S
N507 C505 1.384 . S
H508 C514 0.930 . S
H509 C518 0.930 . S
H510 C523 0.929 . S
H511 C521 0.929 . S
H512 C516 0.929 . S
H513 C522 0.929 . S
C514 H508 0.930 . S
C514 C515 1.367 . S
C514 C522 1.378 . S
C515 C514 1.367 . S
C515 C523 1.433 1_554 S
C516 H512 0.929 . S
C516 C518 1.378 . S
C516 C520 1.350 1_556 S
C517 C520 1.463 . S
C517 C522 1.350 . S
C517 N525 1.427 1_554 S
C518 H509 0.930 . S
C518 C516 1.378 . S
C518 C519 1.367 1_556 S
C519 C518 1.367 1_554 S
C519 C521 1.433 . S
C520 C516 1.350 1_554 S
C520 C517 1.463 . S
C520 N524 1.427 . S
C521 H511 0.929 . S
C521 C519 1.433 . S
C521 N524 1.384 . S
C522 H513 0.929 . S
C522 C514 1.378 . S
C522 C517 1.350 . S
C523 H510 0.929 . S
C523 C515 1.433 1_556 S
C523 N525 1.384 . S
N524 C520 1.427 . S
N524 C521 1.384 . S
N525 C517 1.427 1_556 S
N525 C523 1.384 . S
H526 C532 0.930 . S
H527 C536 0.930 . S
H528 C541 0.929 . S
H529 C539 0.929 . S
H530 C534 0.929 . S
H531 C540 0.929 . S
C532 H526 0.930 . S
C532 C533 1.367 . S
C532 C540 1.378 . S
C533 C532 1.367 . S
C533 C541 1.433 . S
C534 H530 0.929 . S
C534 C536 1.378 . S
C534 C538 1.350 . S
C535 C538 1.463 . S
C535 C540 1.350 . S
C535 N543 1.427 . S
C536 H527 0.930 . S
C536 C534 1.378 . S
C536 C537 1.367 . S
C537 C536 1.367 . S
C537 C539 1.433 . S
C538 C534 1.350 . S
C538 C535 1.463 . S
C538 N542 1.427 . S
C539 H529 0.929 . S
C539 C537 1.433 . S
C539 N542 1.384 . S
C540 H531 0.929 . S
C540 C532 1.378 . S
C540 C535 1.350 . S
C541 H528 0.929 . S
C541 C533 1.433 . S
C541 N543 1.384 . S
N542 C538 1.427 . S
N542 C539 1.384 . S
N543 C535 1.427 . S
N543 C541 1.384 . S
H544 C550 0.930 . S
H545 C554 0.930 . S
H546 C559 0.929 . S
H547 C557 0.929 . S
H548 C552 0.929 . S
H549 C558 0.929 . S
C550 H544 0.930 . S
C550 C551 1.367 . S
C550 C558 1.378 . S
C551 C550 1.367 . S
C551 C559 1.433 . S
C552 H548 0.929 . S
C552 C554 1.378 . S
C552 C556 1.350 . S
C553 C556 1.463 . S
C553 C558 1.350 . S
C553 N561 1.427 . S
C554 H545 0.930 . S
C554 C552 1.378 . S
C554 C555 1.367 . S
C555 C554 1.367 . S
C555 C557 1.433 . S
C556 C552 1.350 . S
C556 C553 1.463 . S
C556 N560 1.427 . S
C557 H547 0.929 . S
C557 C555 1.433 . S
C557 N560 1.384 . S
C558 H549 0.929 . S
C558 C550 1.378 . S
C558 C553 1.350 . S
C559 H546 0.929 . S
C559 C551 1.433 . S
C559 N561 1.384 . S
N560 C556 1.427 . S
N560 C557 1.384 . S
N561 C553 1.427 . S
N561 C559 1.384 . S
H562 C568 0.930 . S
H563 C572 0.930 . S
H564 C577 0.929 . S
H565 C575 0.929 . S
H566 C570 0.929 . S
H567 C576 0.929 . S
C568 H562 0.930 . S
C568 C569 1.367 . S
C568 C576 1.378 . S
C569 C568 1.367 . S
C569 C577 1.433 1_554 S
C570 H566 0.929 . S
C570 C572 1.378 . S
C570 C574 1.350 1_556 S
C571 C574 1.463 . S
C571 C576 1.350 . S
C571 N579 1.427 1_554 S
C572 H563 0.930 . S
C572 C570 1.378 . S
C572 C573 1.367 1_556 S
C573 C572 1.367 1_554 S
C573 C575 1.433 . S
C574 C570 1.350 1_554 S
C574 C571 1.463 . S
C574 N578 1.427 . S
C575 H565 0.929 . S
C575 C573 1.433 . S
C575 N578 1.384 . S
C576 H567 0.929 . S
C576 C568 1.378 . S
C576 C571 1.350 . S
C577 H564 0.929 . S
C577 C569 1.433 1_556 S
C577 N579 1.384 . S
N578 C574 1.427 . S
N578 C575 1.384 . S
N579 C571 1.427 1_556 S
N579 C577 1.384 . S
H580 C586 0.930 . S
H581 C590 0.930 . S
H582 C595 0.929 . S
H583 C593 0.929 . S
H584 C588 0.929 . S
H585 C594 0.929 . S
C586 H580 0.930 . S
C586 C587 1.367 . S
C586 C594 1.378 . S
C587 C586 1.367 . S
C587 C595 1.433 . S
C588 H584 0.929 . S
C588 C590 1.378 . S
C588 C592 1.350 . S
C589 C592 1.463 . S
C589 C594 1.350 . S
C589 N597 1.427 . S
C590 H581 0.930 . S
C590 C588 1.378 . S
C590 C591 1.367 . S
C591 C590 1.367 . S
C591 C593 1.433 . S
C592 C588 1.350 . S
C592 C589 1.463 . S
C592 N596 1.427 . S
C593 H583 0.929 . S
C593 C591 1.433 . S
C593 N596 1.384 . S
C594 H585 0.929 . S
C594 C586 1.378 . S
C594 C589 1.350 . S
C595 H582 0.929 . S
C595 C587 1.433 . S
C595 N597 1.384 . S
N596 C592 1.427 . S
N596 C593 1.384 . S
N597 C589 1.427 . S
N597 C595 1.384 . S
H598 C604 0.930 . S
H599 C608 0.930 . S
H600 C613 0.929 . S
H601 C611 0.929 . S
H602 C606 0.929 . S
H603 C612 0.929 . S
C604 H598 0.930 . S
C604 C605 1.367 1_556 S
C604 C612 1.378 . S
C605 C604 1.367 1_554 S
C605 C613 1.433 . S
C606 H602 0.929 . S
C606 C608 1.378 . S
C606 C610 1.350 . S
C607 C610 1.463 . S
C607 C612 1.350 1_554 S
C607 N615 1.427 . S
C608 H599 0.930 . S
C608 C606 1.378 . S
C608 C609 1.367 . S
C609 C608 1.367 . S
C609 C611 1.433 1_554 S
C610 C606 1.350 . S
C610 C607 1.463 . S
C610 N614 1.427 1_554 S
C611 H601 0.929 . S
C611 C609 1.433 1_556 S
C611 N614 1.384 . S
C612 H603 0.929 . S
C612 C604 1.378 . S
C612 C607 1.350 1_556 S
C613 H600 0.929 . S
C613 C605 1.433 . S
C613 N615 1.384 . S
N614 C610 1.427 1_556 S
N614 C611 1.384 . S
N615 C607 1.427 . S
N615 C613 1.384 . S
C191 C5 1.453 . S
C195 C130 1.461 . S
C209 C31 1.468 . S
C213 C94 1.472 . S
C231 C109 1.466 . S
C227 C53 1.489 . S
C245 C71 1.470 . S
C249 C121 1.464 . S
C267 C157 1.467 . S
C263 C75 1.466 . S
C285 C169 1.477 . S
C281 C9 1.481 . S
C303 C178 1.475 . S
C299 C27 1.466 . S
C321 C142 1.465 . S
C317 C49 1.452 . S
C335 C51 1.454 . S
C339 C106 1.454 . S
C353 C72 1.461 . S
C357 C118 1.469 . S
C371 C6 1.482 . S
C375 C133 1.478 . S
C393 C97 1.467 . S
C389 C29 1.468 . S
C407 C28 1.476 . S
C411 C181 1.460 . S
C429 C145 1.481 . S
C425 C50 1.480 . S
C447 C154 1.470 . S
C443 C73 1.460 . S
C461 C7 1.454 . S
C465 C166 1.454 . S
C483 C92 1.509 . S
C479 C4 1.499 . S
C501 C104 1.509 . S
C497 C30 1.500 . S
C515 C52 1.501 . S
C519 C116 1.509 . S
C533 C70 1.499 . S
C537 C128 1.508 . S
C555 C140 1.508 . S
C551 C74 1.499 . S
C569 C8 1.501 . S
C573 C152 1.513 . S
C587 C26 1.501 . S
C591 C164 1.508 . S
C605 C48 1.506 . S
C609 C176 1.504 . S
