# Generated by pormake.
# Topology pth, (4,4)-cn, num edge types: 1
# Building blocks:
#     Node 0, Type 0, BuildingBlock: NAHDIM_clean_sbu_0, # of connection points: 4
#     Node 1, Type 0, BuildingBlock: NAHDIM_clean_sbu_0, # of connection points: 4
#     Node 2, Type 0, BuildingBlock: NAHDIM_clean_sbu_0, # of connection points: 4
#     Node 3, Type 1, BuildingBlock: NAWXER_clean_linker_0, # of connection points: 4
#     Node 4, Type 1, BuildingBlock: NAWXER_clean_linker_0, # of connection points: 4
#     Node 5, Type 1, BuildingBlock: NAWXER_clean_linker_0, # of connection points: 4
#     Edge 6, Type (0, 1), BuildingBlock: XIVTED_clean_linker_0, # of connection points: 2
#     Edge 7, Type (0, 1), BuildingBlock: XIVTED_clean_linker_0, # of connection points: 2
#     Edge 8, Type (0, 1), BuildingBlock: XIVTED_clean_linker_0, # of connection points: 2
#     Edge 9, Type (0, 1), BuildingBlock: XIVTED_clean_linker_0, # of connection points: 2
#     Edge 10, Type (0, 1), BuildingBlock: XIVTED_clean_linker_0, # of connection points: 2
#     Edge 11, Type (0, 1), BuildingBlock: XIVTED_clean_linker_0, # of connection points: 2
#     Edge 12, Type (0, 1), BuildingBlock: XIVTED_clean_linker_0, # of connection points: 2
#     Edge 13, Type (0, 1), BuildingBlock: XIVTED_clean_linker_0, # of connection points: 2
#     Edge 14, Type (0, 1), BuildingBlock: XIVTED_clean_linker_0, # of connection points: 2
#     Edge 15, Type (0, 1), BuildingBlock: XIVTED_clean_linker_0, # of connection points: 2
#     Edge 16, Type (0, 1), BuildingBlock: XIVTED_clean_linker_0, # of connection points: 2
#     Edge 17, Type (0, 1), BuildingBlock: XIVTED_clean_linker_0, # of connection points: 2
# Relax obj value: 0.041
# Max RMSD: 0.165
# Mean RMSD: 0.085
data_MOF--net-pth--node1-NAHDIM_clean_sbu_0--node2-NAWXER_clean_linker_0--edge1-XIVTED_clean_linker_0
_symmetry_space_group_name_H-M    P1
_symmetry_Int_Tables_number       1
_symmetry_cell_setting            triclinic
loop_
_symmetry_equiv_pos_as_xyz
'x, y, z'
_cell_length_a     29.249306
_cell_length_b     29.425502
_cell_length_c     64.982315
_cell_angle_alpha  91.8489
_cell_angle_beta   90.027641
_cell_angle_gamma 120.48699
loop_
_atom_site_label
_atom_site_type_symbol
_atom_site_fract_x
_atom_site_fract_y
_atom_site_fract_z
_atom_type_partial_charge
C0 C 0.0538 0.98944 0.07181 0.0
O1 O 0.06474 0.03432 0.08105 0.0
O2 O -0.00137 0.06684 0.06139 0.0
Zn3 Zn 0.01442 0.0267 0.03975 0.0
O4 O 0.94911 0.98093 0.02234 0.0
C5 C 0.05795 0.10109 0.00856 0.0
O6 O 0.00768 0.08704 0.00695 0.0
O7 O 0.03465 0.97904 0.05357 0.0
C8 C 0.95321 0.9644 0.00453 0.0
O9 O 0.00041 0.97692 -0.00218 0.0
C10 C 0.96453 0.08077 0.0587 0.0
O11 O 0.93688 0.06725 0.04136 0.0
O12 O 0.07215 0.07985 0.02195 0.0
C13 C 0.029 0.12298 0.34633 0.0
O14 O 0.98498 0.07872 0.34988 0.0
O15 O 0.04175 0.00939 0.35332 0.0
Zn16 Zn 0.05876 0.07107 0.37265 0.0
O17 O -0.00168 0.05829 0.39101 0.0
C18 C 0.11767 0.04217 0.39696 0.0
O19 O 0.07756 -0.00339 0.39036 0.0
O20 O 0.07188 0.13165 0.35499 0.0
C21 C 0.96835 0.01804 0.40126 0.0
O22 O 0.97448 0.9768 0.40029 0.0
C23 C -0.00318 0.9708 0.34757 0.0
O24 O 0.95322 0.96785 0.35446 0.0
O25 O 0.12077 0.08437 0.39093 0.0
C26 C 0.10899 0.97391 0.69843 0.0
O27 O 0.1255 -0.0015 0.71649 0.0
O28 O 0.97478 -0.00576 0.6844 0.0
Zn29 Zn 0.01595 0.98292 0.70622 0.0
O30 O 0.05976 0.05027 0.72313 0.0
C31 C 0.92838 0.93913 0.73129 0.0
O32 O 0.93305 0.98435 0.72653 0.0
O33 O 0.06304 0.96128 0.69177 0.0
C34 C 0.06728 0.0487 0.74229 0.0
O35 O 0.04698 0.00269 0.75083 0.0
C36 C 0.98605 0.03868 0.67762 0.0
O37 O 0.02827 0.08175 0.68487 0.0
O38 O 0.96179 0.92738 0.72423 0.0
C39 C 0.96713 0.35925 0.23801 0.0
C40 C 0.00956 0.37711 0.25229 0.0
C41 C 0.96182 0.39495 0.22601 0.0
C42 C -0.00067 0.44912 0.22781 0.0
C43 C 0.04668 0.43144 0.25416 0.0
C44 C 0.0415 0.46701 0.2421 0.0
C45 C -0.00574 0.48806 0.21566 0.0
C46 C 0.01294 0.38173 0.16895 0.0
C47 C 0.96753 0.35264 0.15621 0.0
C48 C 0.01893 0.42401 0.18145 0.0
C49 C 0.97956 0.43783 0.18146 0.0
C50 C 0.92823 0.36676 0.15633 0.0
C51 C 0.93445 0.40924 0.16871 0.0
C52 C 0.98578 0.48318 0.1941 0.0
C53 C 0.05065 0.70449 0.17438 0.0
C54 C 0.01627 0.69623 0.15773 0.0
C55 C 0.04225 0.66264 0.18643 0.0
C56 C -0.00103 0.61167 0.18225 0.0
C57 C 0.9733 0.645 0.15339 0.0
C58 C 0.96494 0.60305 0.16548 0.0
C59 C -0.00842 0.56695 0.19449 0.0
C60 C 0.95873 0.66774 0.23773 0.0
C61 C -0.00483 0.69164 0.25426 0.0
C62 C 0.95912 0.62842 0.22524 0.0
C63 C -0.00377 0.61258 0.22896 0.0
C64 C 0.03175 0.67516 0.25812 0.0
C65 C 0.03206 0.6358 0.24565 0.0
C66 C -0.00395 0.56997 0.21619 0.0
H67 H 0.93797 0.31764 0.23608 0.0
H68 H 0.92808 0.38023 0.21552 0.0
H69 H 0.07921 0.44671 0.26527 0.0
H70 H 0.07057 0.50871 0.24393 0.0
H71 H 0.04448 0.37265 0.16894 0.0
H72 H 0.05459 0.44635 0.19088 0.0
H73 H 0.89247 0.34485 0.14693 0.0
H74 H 0.90373 0.41951 0.16848 0.0
H75 H 0.0848 0.74314 0.17786 0.0
H76 H 0.07028 0.67001 0.1988 0.0
H77 H 0.94582 0.63737 0.14078 0.0
H78 H 0.93168 0.56393 0.16182 0.0
H79 H 0.93019 0.67972 0.23433 0.0
H80 H 0.93003 0.61005 0.21281 0.0
H81 H 0.05973 0.6922 0.27096 0.0
H82 H 0.06054 0.62367 0.24898 0.0
N83 N -0.00158 0.53102 0.22589 0.0
N84 N 0.98534 0.52306 0.1843 0.0
C85 C 0.71386 0.07726 0.50574 0.0
C86 C 0.69856 0.03577 0.491 0.0
C87 C 0.67614 0.07909 0.51834 0.0
C88 C 0.62255 0.03934 0.51648 0.0
C89 C 0.64469 -0.00332 0.48889 0.0
C90 C 0.60698 -0.00131 0.50143 0.0
C91 C 0.58241 0.03955 0.53017 0.0
C92 C 0.68821 0.00714 0.5693 0.0
C93 C 0.71572 0.04547 0.5851 0.0
C94 C 0.64665 0.00637 0.55845 0.0
C95 C 0.6324 0.04451 0.56291 0.0
C96 C 0.70105 0.08335 0.58965 0.0
C97 C 0.65958 0.08268 0.5787 0.0
C98 C 0.58767 0.04332 0.55184 0.0
C99 C 0.36965 0.97774 0.57945 0.0
C100 C 0.38147 0.0103 0.59733 0.0
C101 C 0.40889 0.98772 0.56509 0.0
C102 C 0.46064 0.03064 0.56825 0.0
C103 C 0.43323 0.05361 0.60031 0.0
C104 C 0.47247 0.0634 0.58598 0.0
C105 C 0.50378 0.038 0.55441 0.0
C106 C 0.39926 0.07221 0.51445 0.0
C107 C 0.37692 0.03814 0.49701 0.0
C108 C 0.43793 0.07053 0.52653 0.0
C109 C 0.45479 0.03464 0.52141 0.0
C110 C 0.39362 0.00202 0.49206 0.0
C111 C 0.4323 0.0005 0.50407 0.0
C112 C 0.49919 0.03562 0.53271 0.0
H113 H 0.75511 0.10784 0.50775 0.0
H114 H 0.68884 0.11135 0.52963 0.0
H115 H 0.63166 0.96474 0.47744 0.0
H116 H 0.56572 0.9679 0.49965 0.0
H117 H 0.69869 0.97758 0.56533 0.0
H118 H 0.62529 0.97557 0.54672 0.0
H119 H 0.72079 0.1128 0.60197 0.0
H120 H 0.6487 0.11201 0.58257 0.0
H121 H 0.3305 0.94353 0.57685 0.0
H122 H 0.39917 0.96076 0.55189 0.0
H123 H 0.44352 0.07996 0.61373 0.0
H124 H 0.51228 0.09641 0.58883 0.0
H125 H 0.38704 0.10032 0.51868 0.0
H126 H 0.45566 0.09826 0.53952 0.0
H127 H 0.37786 0.97584 0.47855 0.0
H128 H 0.44513 0.97294 0.49967 0.0
N129 N 0.53846 0.03591 0.52145 0.0
N130 N 0.54817 0.04239 0.56312 0.0
C131 C 0.33385 0.37526 0.84099 0.0
C132 C 0.30289 0.38023 0.82567 0.0
C133 C 0.37142 0.41941 0.85249 0.0
C134 C 0.37842 0.46938 0.8491 0.0
C135 C 0.31061 0.43052 0.82204 0.0
C136 C 0.3483 0.47479 0.83361 0.0
C137 C 0.41912 0.51619 0.86099 0.0
C138 C 0.29361 0.41523 0.90577 0.0
C139 C 0.31198 0.39248 0.91991 0.0
C140 C 0.32928 0.45634 0.89365 0.0
C141 C 0.38392 0.47554 0.89551 0.0
C142 C 0.36689 0.41233 0.92177 0.0
C143 C 0.40245 0.45374 0.90984 0.0
C144 C 0.42242 0.51833 0.88269 0.0
C145 C 0.61236 0.73655 0.90135 0.0
C146 C 0.63161 0.72347 0.91862 0.0
C147 C 0.57023 0.69702 0.88945 0.0
C148 C 0.54793 0.6437 0.89428 0.0
C149 C 0.60829 0.67043 0.92377 0.0
C150 C 0.56699 0.63098 0.9117 0.0
C151 C 0.50363 0.6006 0.88195 0.0
C152 C 0.63791 0.67713 0.838 0.0
C153 C 0.62845 0.70148 0.8216 0.0
C154 C 0.59659 0.64384 0.85065 0.0
C155 C 0.54512 0.63475 0.84731 0.0
C156 C 0.57672 0.69181 0.81815 0.0
C157 C 0.53535 0.65841 0.83081 0.0
C158 C 0.50095 0.59795 0.86017 0.0
H159 H 0.32992 0.33737 0.84381 0.0
H160 H 0.39557 0.41457 0.86386 0.0
H161 H 0.28725 0.43558 0.81038 0.0
H162 H 0.35365 0.51318 0.8306 0.0
H163 H 0.25173 0.40172 0.90421 0.0
H164 H 0.31426 0.47331 0.88291 0.0
H165 H 0.38253 0.39532 0.93219 0.0
H166 H 0.44452 0.46799 0.91146 0.0
H167 H 0.62941 0.77734 0.89725 0.0
H168 H 0.55502 0.70824 0.87658 0.0
H169 H 0.62274 0.65935 0.93693 0.0
H170 H 0.55034 0.59028 0.91588 0.0
H171 H 0.67734 0.68403 0.84115 0.0
H172 H 0.60478 0.62484 0.86294 0.0
H173 H 0.56802 0.70934 0.80544 0.0
H174 H 0.49572 0.65116 0.82777 0.0
N175 N 0.45843 0.55615 0.85053 0.0
N176 N 0.4644 0.56039 0.89229 0.0
H177 H 0.00816 0.10822 0.09758 0.0
H178 H 0.92676 0.32643 0.11674 0.0
H179 H 0.90931 0.13253 0.05528 0.0
H180 H -0.00442 0.27871 0.16415 0.0
H181 H 0.92025 0.25581 0.09398 0.0
H182 H 0.0045 0.17079 0.12215 0.0
C183 C 0.98541 0.12648 0.0935 0.0
C184 C 0.95924 0.11537 0.07429 0.0
C185 C 0.93648 0.26058 0.10941 0.0
C186 C 0.95523 0.1873 0.1023 0.0
C187 C 0.93999 0.30078 0.12248 0.0
C188 C 0.96187 0.30871 0.14243 0.0
C189 C 0.9554 0.22824 0.11622 0.0
C190 C 0.97929 0.27474 0.1488 0.0
C191 C 0.98328 0.16214 0.10756 0.0
C192 C 0.93017 0.13999 0.06989 0.0
N193 N 0.97593 0.23618 0.1357 0.0
N194 N 0.92931 0.17516 0.08372 0.0
H195 H 0.89355 0.93844 0.42435 0.0
H196 H 0.78074 0.11644 0.47121 0.0
H197 H 0.95049 0.0996 0.40831 0.0
H198 H 0.70746 0.94954 0.48084 0.0
H199 H 0.84642 0.11167 0.44954 0.0
H200 H 0.8275 0.9421 0.4464 0.0
C201 C 0.89216 0.97452 0.42544 0.0
C202 C 0.9276 0.01876 0.41447 0.0
C203 C 0.81596 0.07603 0.45636 0.0
C204 C 0.85244 0.02327 0.43966 0.0
C205 C 0.77867 0.07883 0.46883 0.0
C206 C 0.73861 0.03333 0.47782 0.0
C207 C 0.81342 0.02741 0.45291 0.0
C208 C 0.73737 0.98546 0.474 0.0
C209 C 0.85444 0.97657 0.43801 0.0
C210 C 0.92399 0.06449 0.41646 0.0
N211 N 0.77432 0.98375 0.46187 0.0
N212 N 0.8872 0.06556 0.42883 0.0
H213 H 0.90701 0.84315 0.74519 0.0
H214 H 0.64958 0.79588 0.80646 0.0
H215 H 0.85039 0.95312 0.74768 0.0
H216 H 0.70739 0.68694 0.80597 0.0
H217 H 0.72233 0.85317 0.78433 0.0
H218 H 0.83382 0.78464 0.76712 0.0
C219 C 0.87924 0.85499 0.75034 0.0
C220 C 0.88483 0.90309 0.74459 0.0
C221 C 0.71916 0.81674 0.78905 0.0
C222 C 0.80109 0.83644 0.76962 0.0
C223 C 0.67742 0.78387 0.8016 0.0
C224 C 0.67238 0.73655 0.80809 0.0
C225 C 0.75617 0.80221 0.78288 0.0
C226 C 0.71013 0.72338 0.80155 0.0
C227 C 0.83749 0.82161 0.76285 0.0
C228 C 0.8477 0.91645 0.75172 0.0
N229 N 0.7504 0.75601 0.78929 0.0
N230 N 0.80746 0.88332 0.76383 0.0
H231 H 0.03097 0.89101 0.05792 0.0
H232 H 0.04784 0.79782 0.17049 0.0
H233 H 0.08185 -0.00594 0.11236 0.0
H234 H 0.00625 0.69673 0.11571 0.0
H235 H 0.06368 0.87099 0.14918 0.0
H236 H 0.02577 0.82052 0.07847 0.0
C237 C 0.04157 0.89902 0.07415 0.0
C238 C 0.05651 0.94846 0.08346 0.0
C239 C 0.05125 0.83286 0.14179 0.0
C240 C 0.05012 0.86771 0.10711 0.0
C241 C 0.04237 0.79106 0.15396 0.0
C242 C 0.02562 0.74095 0.14489 0.0
C243 C 0.04319 0.82463 0.12037 0.0
C244 C 0.01836 0.73443 0.12341 0.0
C245 C 0.03845 0.85867 0.08589 0.0
C246 C 0.06992 0.95654 0.10453 0.0
N247 N 0.0271 0.77575 0.11189 0.0
N248 N 0.06601 0.91647 0.11567 0.0
H249 H 0.11971 0.95776 0.41164 0.0
H250 H 0.37756 0.1263 0.48382 0.0
H251 H 0.20387 0.12808 0.41614 0.0
H252 H 0.28645 0.95611 0.47946 0.0
H253 H 0.31444 0.12908 0.4598 0.0
H254 H 0.18129 0.95779 0.43665 0.0
C255 C 0.15128 -0.00467 0.41787 0.0
C256 C 0.15658 0.04305 0.41175 0.0
C257 C 0.30825 0.09119 0.46417 0.0
C258 C 0.22763 0.0433 0.44065 0.0
C259 C 0.34401 0.08954 0.47798 0.0
C260 C 0.33741 0.04086 0.48357 0.0
C261 C 0.26561 0.0438 0.45593 0.0
C262 C 0.2936 -0.00549 0.47534 0.0
C263 C 0.18649 -0.00472 0.43223 0.0
C264 C 0.19838 0.09039 0.4204 0.0
N265 N 0.25957 -0.00283 0.46192 0.0
N266 N 0.2324 0.08934 0.43445 0.0
H267 H 0.0857 0.05924 0.78388 0.0
H268 H 0.28195 0.37174 0.78409 0.0
H269 H 0.12085 0.15032 0.72929 0.0
H270 H 0.23489 0.2811 0.839 0.0
H271 H 0.22135 0.29187 0.76377 0.0
H272 H 0.13931 0.14067 0.80432 0.0
C273 C 0.10466 0.09638 0.77618 0.0
C274 C 0.09895 0.09794 0.75483 0.0
C275 C 0.22411 0.28954 0.78028 0.0
C276 C 0.1605 0.19147 0.77816 0.0
C277 C 0.25846 0.33519 0.79191 0.0
C278 C 0.26379 0.33304 0.81327 0.0
C279 C 0.19498 0.24138 0.79008 0.0
C280 C 0.2328 0.28442 0.82253 0.0
C281 C 0.1352 0.14293 0.78788 0.0
C282 C 0.12427 0.14727 0.74571 0.0
N283 N 0.19996 0.24053 0.81087 0.0
N284 N 0.15414 0.19208 0.75742 0.0
H285 H -0.00752 0.12676 0.66134 0.0
H286 H 0.71679 0.95935 0.5991 0.0
H287 H 0.89733 0.95659 0.6593 0.0
H288 H 0.81091 0.12942 0.59916 0.0
H289 H 0.78531 0.95822 0.61994 0.0
H290 H 0.92904 0.12929 0.63746 0.0
C291 C 0.95846 0.08997 0.6558 0.0
C292 C 0.95005 0.04142 0.66242 0.0
C293 C 0.79119 -0.00415 0.61535 0.0
C294 C 0.87744 0.04403 0.6352 0.0
C295 C 0.75216 -0.00351 0.60331 0.0
C296 C 0.75808 0.04456 0.59734 0.0
C297 C 0.83657 0.04363 0.62159 0.0
C298 C 0.80438 0.09149 0.60364 0.0
C299 C 0.92227 0.09145 0.64219 0.0
C300 C 0.90534 -0.00503 0.65472 0.0
N301 N 0.84183 0.08987 0.61547 0.0
N302 N 0.8707 -0.00252 0.6416 0.0
H303 H 0.94871 0.93943 0.96338 0.0
H304 H 0.63765 0.73877 0.96034 0.0
H305 H 0.8493 0.91712 0.01566 0.0
H306 H 0.72785 0.80047 0.90534 0.0
H307 H 0.7155 0.8013 0.98115 0.0
H308 H 0.8691 0.88543 0.94198 0.0
C309 C 0.91015 0.92317 0.97036 0.0
C310 C 0.90557 0.9325 0.99135 0.0
C311 C 0.71816 0.80155 0.96453 0.0
C312 C 0.81455 0.87075 0.96699 0.0
C313 C 0.67387 0.76584 0.95269 0.0
C314 C 0.67664 0.76452 0.93116 0.0
C315 C 0.76576 0.83556 0.95477 0.0
C316 C 0.72421 0.80054 0.92192 0.0
C317 C 0.86477 0.89264 0.95811 0.0
C318 C 0.85464 0.91082 -0.00045 0.0
N319 N 0.76722 0.83428 0.9338 0.0
N320 N 0.81109 0.88058 0.98738 0.0
H321 H 0.90869 0.88097 0.33201 0.0
H322 H 0.08076 0.78359 0.26903 0.0
H323 H 0.07995 0.96641 0.33074 0.0
H324 H 0.90956 0.69537 0.26954 0.0
H325 H 0.08041 0.8515 0.2914 0.0
H326 H 0.90723 0.813 0.30874 0.0
C327 C 0.94593 0.8855 0.32683 0.0
C328 C -0.0055 0.92943 0.33335 0.0
C329 C 0.04284 0.81735 0.28662 0.0
C330 C -0.00688 0.85199 0.3068 0.0
C331 C 0.04306 0.77841 0.27394 0.0
C332 C -0.00486 0.73363 0.26749 0.0
C333 C -0.00567 0.81157 0.29299 0.0
C334 C 0.94742 0.72949 0.27401 0.0
C335 C 0.94506 0.84671 0.31356 0.0
C336 C 0.04153 0.93325 0.32615 0.0
N337 N 0.94822 0.76791 0.28646 0.0
N338 N 0.03962 0.89507 0.31331 0.0
H339 H 0.09017 0.93292 0.65887 0.0
H340 H 0.39302 0.01849 0.63947 0.0
H341 H 0.21273 0.00312 0.70622 0.0
H342 H 0.2757 0.97523 0.59092 0.0
H343 H 0.32524 0.00208 0.66485 0.0
H344 H 0.15511 0.93532 0.63472 0.0
C345 C 0.13061 0.9483 0.66428 0.0
C346 C 0.14615 0.96843 0.68456 0.0
C347 C 0.31433 -0.004 0.64864 0.0
C348 C 0.22081 0.97161 0.65689 0.0
C349 C 0.35309 0.00574 0.63412 0.0
C350 C 0.34025 -0.00124 0.61297 0.0
C351 C 0.26222 0.97895 0.64202 0.0
C352 C 0.28745 0.98082 0.60702 0.0
C353 C 0.16772 0.94985 0.65043 0.0
C354 C 0.19905 0.98756 0.69069 0.0
N355 N 0.25048 0.97176 0.62146 0.0
N356 N 0.2346 0.98907 0.67686 0.0
H357 H 0.1662 0.15944 0.01357 0.0
H358 H 0.21271 0.31021 0.90886 0.0
H359 H 0.03821 0.135 0.97295 0.0
H360 H 0.32501 0.37303 0.95998 0.0
H361 H 0.15151 0.23783 0.93004 0.0
H362 H 0.22904 0.22961 0.99162 0.0
C363 C 0.15141 0.1686 -2e-05 0.0
C364 C 0.09696 0.14162 -0.00489 0.0
C365 C 0.18961 0.26753 0.93658 0.0
C366 C 0.16833 0.22128 0.97 0.0
C367 C 0.22447 0.30912 0.92455 0.0
C368 C 0.27421 0.3481 0.93261 0.0
C369 C 0.2047 0.26443 0.95675 0.0
C370 C 0.28755 0.3436 0.95294 0.0
C371 C 0.18717 0.20873 0.98754 0.0
C372 C 0.07984 0.1551 0.97735 0.0
N373 N 0.25307 0.30248 0.96428 0.0
N374 N 0.11542 0.19391 0.96541 0.0
H375 H 0.94146 0.11744 0.32919 0.0
H376 H 0.09993 0.37747 0.26442 0.0
H377 H 0.11228 0.21491 0.33184 0.0
H378 H 0.92976 0.29129 0.27091 0.0
H379 H 0.10625 0.31665 0.28747 0.0
H380 H 0.93755 0.17872 0.30612 0.0
C381 C 0.9783 0.15182 0.32492 0.0
C382 C 0.02734 0.16104 0.33249 0.0
C383 C 0.06758 0.31112 0.28381 0.0
C384 C 0.02303 0.23169 0.3059 0.0
C385 C 0.0639 0.34591 0.27072 0.0
C386 C 0.01418 0.33956 0.26568 0.0
C387 C 0.02121 0.26954 0.29188 0.0
C388 C 0.96885 0.29737 0.27405 0.0
C389 C 0.97597 0.18692 0.31173 0.0
C390 C 0.07363 0.20636 0.3264 0.0
N391 N 0.97349 0.26408 0.28671 0.0
N392 N 0.07037 0.24004 0.3134 0.0
loop_
_geom_bond_atom_site_label_1
_geom_bond_atom_site_label_2
_geom_bond_distance
_geom_bond_site_symmetry_2
_ccdc_geom_bond_type
C0 O1 1.160 . S
C0 O7 1.185 . S
O1 C0 1.160 . S
O2 Zn3 1.899 . S
O2 C10 1.260 1_455 S
Zn3 O2 1.899 . S
Zn3 O4 2.032 1_445 S
Zn3 O7 2.086 1_545 S
Zn3 O12 1.977 . S
O4 Zn3 2.032 1_665 S
O4 C8 1.278 . S
C5 O6 1.203 . S
C5 O12 1.267 . S
O6 C5 1.203 . S
O7 C0 1.185 . S
O7 Zn3 2.086 1_565 S
C8 O4 1.278 . S
C8 O9 1.211 1_565 S
O9 C8 1.211 1_545 S
C10 O2 1.260 1_655 S
C10 O11 1.287 . S
O11 C10 1.287 . S
O12 Zn3 1.977 . S
O12 C5 1.267 . S
C13 O14 1.160 . S
C13 O20 1.185 . S
O14 C13 1.160 . S
O15 Zn16 1.899 . S
O15 C23 1.284 1_545 S
Zn16 O15 1.899 . S
Zn16 O17 2.032 1_455 S
Zn16 O20 2.086 . S
Zn16 O25 1.977 . S
O17 Zn16 2.032 1_655 S
O17 C21 1.278 . S
C18 O19 1.203 . S
C18 O25 1.267 . S
O19 C18 1.203 . S
O20 C13 1.185 . S
O20 Zn16 2.086 . S
C21 O17 1.278 . S
C21 O22 1.211 . S
O22 C21 1.211 . S
C23 O15 1.284 1_565 S
C23 O24 1.273 1_455 S
O24 C23 1.273 1_655 S
O25 Zn16 1.977 . S
O25 C18 1.267 . S
C26 O27 1.160 . S
C26 O33 1.185 1_545 S
O27 C26 1.160 . S
O28 Zn29 1.899 1_655 S
O28 C36 1.284 . S
Zn29 O28 1.899 1_455 S
Zn29 O30 2.032 . S
Zn29 O33 2.086 1_545 S
Zn29 O38 1.977 1_445 S
O30 Zn29 2.032 . S
O30 C34 1.278 . S
C31 O32 1.203 . S
C31 O38 1.267 . S
O32 C31 1.203 . S
O33 C26 1.185 1_565 S
O33 Zn29 2.086 1_565 S
C34 O30 1.278 . S
C34 O35 1.211 . S
O35 C34 1.211 . S
C36 O28 1.284 . S
C36 O37 1.273 . S
O37 C36 1.273 . S
O38 Zn29 1.977 1_665 S
O38 C31 1.267 . S
C39 C40 1.384 1_655 S
C39 C41 1.384 . S
C39 H67 0.931 . S
C40 C39 1.384 1_455 S
C40 C43 1.382 . S
C41 C39 1.384 . S
C41 C42 1.381 1_655 S
C41 H68 0.930 . S
C42 C41 1.381 1_455 S
C42 C44 1.381 . S
C42 C45 1.487 . S
C43 C40 1.382 . S
C43 C44 1.387 . S
C43 H69 0.930 . S
C44 C42 1.381 . S
C44 C43 1.387 . S
C44 H70 0.931 . S
C45 C42 1.487 . S
C45 C52 1.399 . S
C45 N83 1.343 . S
C46 C47 1.384 . S
C46 C48 1.384 . S
C46 H71 0.931 . S
C47 C46 1.384 . S
C47 C50 1.382 1_455 S
C48 C46 1.384 . S
C48 C49 1.381 . S
C48 H72 0.930 . S
C49 C48 1.381 . S
C49 C51 1.381 1_455 S
C49 C52 1.487 . S
C50 C47 1.382 1_655 S
C50 C51 1.387 . S
C50 H73 0.930 . S
C51 C49 1.381 1_655 S
C51 C50 1.387 . S
C51 H74 0.931 . S
C52 C45 1.399 . S
C52 C49 1.487 . S
C52 N84 1.343 . S
C53 C54 1.384 . S
C53 C55 1.384 . S
C53 H75 0.931 . S
C54 C53 1.384 . S
C54 C57 1.382 1_455 S
C55 C53 1.384 . S
C55 C56 1.381 . S
C55 H76 0.930 . S
C56 C55 1.381 . S
C56 C58 1.381 1_455 S
C56 C59 1.487 . S
C57 C54 1.382 1_655 S
C57 C58 1.387 . S
C57 H77 0.930 . S
C58 C56 1.381 1_655 S
C58 C57 1.387 . S
C58 H78 0.931 . S
C59 C56 1.487 . S
C59 C66 1.399 . S
C59 N84 1.343 . S
C60 C61 1.384 1_655 S
C60 C62 1.384 . S
C60 H79 0.931 . S
C61 C60 1.384 1_455 S
C61 C64 1.382 . S
C62 C60 1.384 . S
C62 C63 1.381 1_655 S
C62 H80 0.930 . S
C63 C62 1.381 1_455 S
C63 C65 1.381 . S
C63 C66 1.487 . S
C64 C61 1.382 . S
C64 C65 1.387 . S
C64 H81 0.930 . S
C65 C63 1.381 . S
C65 C64 1.387 . S
C65 H82 0.931 . S
C66 C59 1.399 . S
C66 C63 1.487 . S
C66 N83 1.343 . S
H67 C39 0.931 . S
H68 C41 0.930 . S
H69 C43 0.930 . S
H70 C44 0.931 . S
H71 C46 0.931 . S
H72 C48 0.930 . S
H73 C50 0.930 . S
H74 C51 0.931 . S
H75 C53 0.931 . S
H76 C55 0.930 . S
H77 C57 0.930 . S
H78 C58 0.931 . S
H79 C60 0.931 . S
H80 C62 0.930 . S
H81 C64 0.930 . S
H82 C65 0.931 . S
N83 C45 1.343 . S
N83 C66 1.343 . S
N84 C52 1.343 . S
N84 C59 1.343 . S
C85 C86 1.384 . S
C85 C87 1.384 . S
C85 H113 0.931 . S
C86 C85 1.384 . S
C86 C89 1.382 1_545 S
C87 C85 1.384 . S
C87 C88 1.381 . S
C87 H114 0.930 . S
C88 C87 1.381 . S
C88 C90 1.381 1_545 S
C88 C91 1.487 . S
C89 C86 1.382 1_565 S
C89 C90 1.387 . S
C89 H115 0.930 . S
C90 C88 1.381 1_565 S
C90 C89 1.387 . S
C90 H116 0.931 . S
C91 C88 1.487 . S
C91 C98 1.399 . S
C91 N129 1.343 . S
C92 C93 1.384 1_565 S
C92 C94 1.384 . S
C92 H117 0.931 . S
C93 C92 1.384 1_545 S
C93 C96 1.382 . S
C94 C92 1.384 . S
C94 C95 1.381 1_565 S
C94 H118 0.930 . S
C95 C94 1.381 1_545 S
C95 C97 1.381 . S
C95 C98 1.487 . S
C96 C93 1.382 . S
C96 C97 1.387 . S
C96 H119 0.930 . S
C97 C95 1.381 . S
C97 C96 1.387 . S
C97 H120 0.931 . S
C98 C91 1.399 . S
C98 C95 1.487 . S
C98 N130 1.343 . S
C99 C100 1.384 1_565 S
C99 C101 1.384 . S
C99 H121 0.931 . S
C100 C99 1.384 1_545 S
C100 C103 1.382 . S
C101 C99 1.384 . S
C101 C102 1.381 1_565 S
C101 H122 0.930 . S
C102 C101 1.381 1_545 S
C102 C104 1.381 . S
C102 C105 1.487 . S
C103 C100 1.382 . S
C103 C104 1.387 . S
C103 H123 0.930 . S
C104 C102 1.381 . S
C104 C103 1.387 . S
C104 H124 0.931 . S
C105 C102 1.487 . S
C105 C112 1.399 . S
C105 N130 1.343 . S
C106 C107 1.384 . S
C106 C108 1.384 . S
C106 H125 0.931 . S
C107 C106 1.384 . S
C107 C110 1.382 1_545 S
C108 C106 1.384 . S
C108 C109 1.381 . S
C108 H126 0.930 . S
C109 C108 1.381 . S
C109 C111 1.381 1_545 S
C109 C112 1.487 . S
C110 C107 1.382 1_565 S
C110 C111 1.387 . S
C110 H127 0.930 . S
C111 C109 1.381 1_565 S
C111 C110 1.387 . S
C111 H128 0.931 . S
C112 C105 1.399 . S
C112 C109 1.487 . S
C112 N129 1.343 . S
H113 C85 0.931 . S
H114 C87 0.930 . S
H115 C89 0.930 . S
H116 C90 0.931 . S
H117 C92 0.931 . S
H118 C94 0.930 . S
H119 C96 0.930 . S
H120 C97 0.931 . S
H121 C99 0.931 . S
H122 C101 0.930 . S
H123 C103 0.930 . S
H124 C104 0.931 . S
H125 C106 0.931 . S
H126 C108 0.930 . S
H127 C110 0.930 . S
H128 C111 0.931 . S
N129 C91 1.343 . S
N129 C112 1.343 . S
N130 C98 1.343 . S
N130 C105 1.343 . S
C131 C132 1.384 . S
C131 C133 1.384 . S
C131 H159 0.931 . S
C132 C131 1.384 . S
C132 C135 1.382 . S
C133 C131 1.384 . S
C133 C134 1.381 . S
C133 H160 0.930 . S
C134 C133 1.381 . S
C134 C136 1.381 . S
C134 C137 1.487 . S
C135 C132 1.382 . S
C135 C136 1.387 . S
C135 H161 0.930 . S
C136 C134 1.381 . S
C136 C135 1.387 . S
C136 H162 0.931 . S
C137 C134 1.487 . S
C137 C144 1.399 . S
C137 N175 1.343 . S
C138 C139 1.384 . S
C138 C140 1.384 . S
C138 H163 0.931 . S
C139 C138 1.384 . S
C139 C142 1.382 . S
C140 C138 1.384 . S
C140 C141 1.381 . S
C140 H164 0.930 . S
C141 C140 1.381 . S
C141 C143 1.381 . S
C141 C144 1.487 . S
C142 C139 1.382 . S
C142 C143 1.387 . S
C142 H165 0.930 . S
C143 C141 1.381 . S
C143 C142 1.387 . S
C143 H166 0.931 . S
C144 C137 1.399 . S
C144 C141 1.487 . S
C144 N176 1.343 . S
C145 C146 1.384 . S
C145 C147 1.384 . S
C145 H167 0.931 . S
C146 C145 1.384 . S
C146 C149 1.382 . S
C147 C145 1.384 . S
C147 C148 1.381 . S
C147 H168 0.930 . S
C148 C147 1.381 . S
C148 C150 1.381 . S
C148 C151 1.487 . S
C149 C146 1.382 . S
C149 C150 1.387 . S
C149 H169 0.930 . S
C150 C148 1.381 . S
C150 C149 1.387 . S
C150 H170 0.931 . S
C151 C148 1.487 . S
C151 C158 1.399 . S
C151 N176 1.343 . S
C152 C153 1.384 . S
C152 C154 1.384 . S
C152 H171 0.931 . S
C153 C152 1.384 . S
C153 C156 1.382 . S
C154 C152 1.384 . S
C154 C155 1.381 . S
C154 H172 0.930 . S
C155 C154 1.381 . S
C155 C157 1.381 . S
C155 C158 1.487 . S
C156 C153 1.382 . S
C156 C157 1.387 . S
C156 H173 0.930 . S
C157 C155 1.381 . S
C157 C156 1.387 . S
C157 H174 0.931 . S
C158 C151 1.399 . S
C158 C155 1.487 . S
C158 N175 1.343 . S
H159 C131 0.931 . S
H160 C133 0.930 . S
H161 C135 0.930 . S
H162 C136 0.931 . S
H163 C138 0.931 . S
H164 C140 0.930 . S
H165 C142 0.930 . S
H166 C143 0.931 . S
H167 C145 0.931 . S
H168 C147 0.930 . S
H169 C149 0.930 . S
H170 C150 0.931 . S
H171 C152 0.931 . S
H172 C154 0.930 . S
H173 C156 0.930 . S
H174 C157 0.931 . S
N175 C137 1.343 . S
N175 C158 1.343 . S
N176 C144 1.343 . S
N176 C151 1.343 . S
H177 C183 0.930 . S
H178 C187 0.930 . S
H179 C192 0.929 . S
H180 C190 0.929 . S
H181 C185 0.929 . S
H182 C191 0.929 . S
C183 H177 0.930 . S
C183 C184 1.367 . S
C183 C191 1.378 . S
C184 C183 1.367 . S
C184 C192 1.433 1_455 S
C185 H181 0.929 . S
C185 C187 1.378 . S
C185 C189 1.350 1_655 S
C186 C189 1.463 . S
C186 C191 1.350 . S
C186 N194 1.427 1_455 S
C187 H178 0.930 . S
C187 C185 1.378 . S
C187 C188 1.367 1_655 S
C188 C187 1.367 1_455 S
C188 C190 1.433 . S
C189 C185 1.350 1_455 S
C189 C186 1.463 . S
C189 N193 1.427 . S
C190 H180 0.929 . S
C190 C188 1.433 . S
C190 N193 1.384 . S
C191 H182 0.929 . S
C191 C183 1.378 . S
C191 C186 1.350 . S
C192 H179 0.929 . S
C192 C184 1.433 1_655 S
C192 N194 1.384 . S
N193 C189 1.427 . S
N193 C190 1.384 . S
N194 C186 1.427 1_655 S
N194 C192 1.384 . S
H195 C201 0.930 . S
H196 C205 0.930 . S
H197 C210 0.929 . S
H198 C208 0.929 . S
H199 C203 0.929 . S
H200 C209 0.929 . S
C201 H195 0.930 . S
C201 C202 1.367 1_565 S
C201 C209 1.378 . S
C202 C201 1.367 1_545 S
C202 C210 1.433 . S
C203 H199 0.929 . S
C203 C205 1.378 . S
C203 C207 1.350 . S
C204 C207 1.463 . S
C204 C209 1.350 1_545 S
C204 N212 1.427 . S
C205 H196 0.930 . S
C205 C203 1.378 . S
C205 C206 1.367 . S
C206 C205 1.367 . S
C206 C208 1.433 1_545 S
C207 C203 1.350 . S
C207 C204 1.463 . S
C207 N211 1.427 1_545 S
C208 H198 0.929 . S
C208 C206 1.433 1_565 S
C208 N211 1.384 . S
C209 H200 0.929 . S
C209 C201 1.378 . S
C209 C204 1.350 1_565 S
C210 H197 0.929 . S
C210 C202 1.433 . S
C210 N212 1.384 . S
N211 C207 1.427 1_565 S
N211 C208 1.384 . S
N212 C204 1.427 . S
N212 C210 1.384 . S
H213 C219 0.930 . S
H214 C223 0.930 . S
H215 C228 0.929 . S
H216 C226 0.929 . S
H217 C221 0.929 . S
H218 C227 0.929 . S
C219 H213 0.930 . S
C219 C220 1.367 . S
C219 C227 1.378 . S
C220 C219 1.367 . S
C220 C228 1.433 . S
C221 H217 0.929 . S
C221 C223 1.378 . S
C221 C225 1.350 . S
C222 C225 1.463 . S
C222 C227 1.350 . S
C222 N230 1.427 . S
C223 H214 0.930 . S
C223 C221 1.378 . S
C223 C224 1.367 . S
C224 C223 1.367 . S
C224 C226 1.433 . S
C225 C221 1.350 . S
C225 C222 1.463 . S
C225 N229 1.427 . S
C226 H216 0.929 . S
C226 C224 1.433 . S
C226 N229 1.384 . S
C227 H218 0.929 . S
C227 C219 1.378 . S
C227 C222 1.350 . S
C228 H215 0.929 . S
C228 C220 1.433 . S
C228 N230 1.384 . S
N229 C225 1.427 . S
N229 C226 1.384 . S
N230 C222 1.427 . S
N230 C228 1.384 . S
H231 C237 0.930 . S
H232 C241 0.930 1_655 S
H233 C246 0.929 . S
H234 C244 0.929 . S
H235 C239 0.929 . S
H236 C245 0.929 . S
C237 H231 0.930 . S
C237 C238 1.367 . S
C237 C245 1.378 . S
C238 C237 1.367 . S
C238 C246 1.433 . S
C239 H235 0.929 . S
C239 C241 1.378 . S
C239 C243 1.350 . S
C240 C243 1.463 . S
C240 C245 1.350 . S
C240 N248 1.427 . S
C241 H232 0.930 1_455 S
C241 C239 1.378 . S
C241 C242 1.367 . S
C242 C241 1.367 . S
C242 C244 1.433 . S
C243 C239 1.350 . S
C243 C240 1.463 . S
C243 N247 1.427 . S
C244 H234 0.929 . S
C244 C242 1.433 . S
C244 N247 1.384 . S
C245 H236 0.929 . S
C245 C237 1.378 . S
C245 C240 1.350 . S
C246 H233 0.929 . S
C246 C238 1.433 . S
C246 N248 1.384 . S
N247 C243 1.427 . S
N247 C244 1.384 . S
N248 C240 1.427 . S
N248 C246 1.384 . S
H249 C255 0.930 . S
H250 C259 0.930 . S
H251 C264 0.929 . S
H252 C262 0.945 . S
H253 C257 0.929 . S
H254 C263 0.929 1_565 S
C255 H249 0.930 . S
C255 C256 1.367 . S
C255 C263 1.378 . S
C256 C255 1.367 . S
C256 C264 1.433 . S
C257 H253 0.929 . S
C257 C259 1.378 . S
C257 C261 1.350 . S
C258 C261 1.463 . S
C258 C263 1.350 . S
C258 N266 1.427 . S
C259 H250 0.930 . S
C259 C257 1.378 . S
C259 C260 1.367 . S
C260 C259 1.367 . S
C260 C262 1.426 1_545 S
C261 C257 1.350 . S
C261 C258 1.463 . S
C261 N265 1.427 . S
C262 H252 0.945 . S
C262 C260 1.426 1_565 S
C262 N265 1.375 1_565 S
C263 H254 0.929 1_545 S
C263 C255 1.378 . S
C263 C258 1.350 . S
C264 H251 0.929 . S
C264 C256 1.433 . S
C264 N266 1.384 . S
N265 C261 1.427 . S
N265 C262 1.375 1_545 S
N266 C258 1.427 . S
N266 C264 1.384 . S
H267 C273 0.930 . S
H268 C277 0.930 . S
H269 C282 0.929 . S
H270 C280 0.929 . S
H271 C275 0.929 . S
H272 C281 0.929 . S
C273 H267 0.930 . S
C273 C274 1.367 . S
C273 C281 1.378 . S
C274 C273 1.367 . S
C274 C282 1.433 . S
C275 H271 0.929 . S
C275 C277 1.378 . S
C275 C279 1.350 . S
C276 C279 1.463 . S
C276 C281 1.350 . S
C276 N284 1.427 . S
C277 H268 0.930 . S
C277 C275 1.378 . S
C277 C278 1.367 . S
C278 C277 1.367 . S
C278 C280 1.433 . S
C279 C275 1.350 . S
C279 C276 1.463 . S
C279 N283 1.427 . S
C280 H270 0.929 . S
C280 C278 1.433 . S
C280 N283 1.384 . S
C281 H272 0.929 . S
C281 C273 1.378 . S
C281 C276 1.350 . S
C282 H269 0.929 . S
C282 C274 1.433 . S
C282 N284 1.384 . S
N283 C279 1.427 . S
N283 C280 1.384 . S
N284 C276 1.427 . S
N284 C282 1.384 . S
H285 C291 0.930 . S
H286 C295 0.930 . S
H287 C300 0.931 1_565 S
H288 C298 0.929 . S
H289 C293 0.929 . S
H290 C299 0.929 . S
C291 H285 0.930 . S
C291 C292 1.367 . S
C291 C299 1.378 . S
C292 C291 1.367 . S
C292 C300 1.432 . S
C293 H289 0.929 . S
C293 C295 1.378 . S
C293 C297 1.350 1_565 S
C294 C297 1.463 . S
C294 C299 1.350 . S
C294 N302 1.427 1_545 S
C295 H286 0.930 . S
C295 C293 1.378 . S
C295 C296 1.367 1_565 S
C296 C295 1.367 1_545 S
C296 C298 1.433 . S
C297 C293 1.350 1_545 S
C297 C294 1.463 . S
C297 N301 1.427 . S
C298 H288 0.929 . S
C298 C296 1.433 . S
C298 N301 1.384 . S
C299 H290 0.929 . S
C299 C291 1.378 . S
C299 C294 1.350 . S
C300 H287 0.931 1_545 S
C300 C292 1.432 . S
C300 N302 1.383 1_545 S
N301 C297 1.427 . S
N301 C298 1.384 . S
N302 C294 1.427 1_565 S
N302 C300 1.383 1_565 S
H303 C309 0.930 . S
H304 C313 0.930 . S
H305 C318 0.929 . S
H306 C316 0.929 . S
H307 C311 0.929 . S
H308 C317 0.929 . S
C309 H303 0.930 . S
C309 C310 1.367 1_556 S
C309 C317 1.378 . S
C310 C309 1.367 1_554 S
C310 C318 1.433 . S
C311 H307 0.929 . S
C311 C313 1.378 . S
C311 C315 1.350 . S
C312 C315 1.463 . S
C312 C317 1.350 . S
C312 N320 1.427 1_556 S
C313 H304 0.930 . S
C313 C311 1.378 . S
C313 C314 1.367 . S
C314 C313 1.367 . S
C314 C316 1.433 . S
C315 C311 1.350 . S
C315 C312 1.463 . S
C315 N319 1.427 . S
C316 H306 0.929 . S
C316 C314 1.433 . S
C316 N319 1.384 . S
C317 H308 0.929 . S
C317 C309 1.378 . S
C317 C312 1.350 . S
C318 H305 0.929 . S
C318 C310 1.433 . S
C318 N320 1.384 . S
N319 C315 1.427 . S
N319 C316 1.384 . S
N320 C312 1.427 1_554 S
N320 C318 1.384 . S
H321 C327 0.930 . S
H322 C331 0.930 . S
H323 C336 0.929 . S
H324 C334 0.929 . S
H325 C329 0.929 . S
H326 C335 0.929 . S
C327 H321 0.930 . S
C327 C328 1.367 1_655 S
C327 C335 1.378 . S
C328 C327 1.367 1_455 S
C328 C336 1.433 . S
C329 H325 0.929 . S
C329 C331 1.378 . S
C329 C333 1.350 . S
C330 C333 1.463 . S
C330 C335 1.350 1_455 S
C330 N338 1.427 . S
C331 H322 0.930 . S
C331 C329 1.378 . S
C331 C332 1.367 . S
C332 C331 1.367 . S
C332 C334 1.433 1_455 S
C333 C329 1.350 . S
C333 C330 1.463 . S
C333 N337 1.427 1_455 S
C334 H324 0.929 . S
C334 C332 1.433 1_655 S
C334 N337 1.384 . S
C335 H326 0.929 . S
C335 C327 1.378 . S
C335 C330 1.350 1_655 S
C336 H323 0.929 . S
C336 C328 1.433 . S
C336 N338 1.384 . S
N337 C333 1.427 1_655 S
N337 C334 1.384 . S
N338 C330 1.427 . S
N338 C336 1.384 . S
H339 C345 0.930 . S
H340 C349 0.930 . S
H341 C354 0.929 . S
H342 C352 0.929 . S
H343 C347 0.929 . S
H344 C353 0.929 . S
C345 H339 0.930 . S
C345 C346 1.360 1_565 S
C345 C353 1.378 . S
C346 C345 1.360 1_545 S
C346 C354 1.435 . S
C347 H343 0.929 . S
C347 C349 1.378 . S
C347 C351 1.350 . S
C348 C351 1.463 . S
C348 C353 1.350 1_545 S
C348 N356 1.427 . S
C349 H340 0.930 . S
C349 C347 1.378 . S
C349 C350 1.367 . S
C350 C349 1.367 . S
C350 C352 1.433 1_545 S
C351 C347 1.350 . S
C351 C348 1.463 . S
C351 N355 1.427 1_545 S
C352 H342 0.929 . S
C352 C350 1.433 1_565 S
C352 N355 1.384 . S
C353 H344 0.929 . S
C353 C345 1.378 . S
C353 C348 1.350 1_565 S
C354 H341 0.929 . S
C354 C346 1.435 . S
C354 N356 1.384 . S
N355 C351 1.427 1_565 S
N355 C352 1.384 . S
N356 C348 1.427 . S
N356 C354 1.384 . S
H357 C363 0.930 . S
H358 C367 0.930 . S
H359 C372 0.929 . S
H360 C370 0.929 . S
H361 C365 0.929 . S
H362 C371 0.929 1_554 S
C363 H357 0.930 . S
C363 C364 1.367 . S
C363 C371 1.378 1_554 S
C364 C363 1.367 . S
C364 C372 1.433 1_554 S
C365 H361 0.929 . S
C365 C367 1.378 . S
C365 C369 1.350 . S
C366 C369 1.463 . S
C366 C371 1.350 . S
C366 N374 1.427 . S
C367 H358 0.930 . S
C367 C365 1.378 . S
C367 C368 1.367 . S
C368 C367 1.367 . S
C368 C370 1.433 . S
C369 C365 1.350 . S
C369 C366 1.463 . S
C369 N373 1.427 . S
C370 H360 0.929 . S
C370 C368 1.433 . S
C370 N373 1.384 . S
C371 H362 0.929 1_556 S
C371 C363 1.378 1_556 S
C371 C366 1.350 . S
C372 H359 0.929 . S
C372 C364 1.433 1_556 S
C372 N374 1.384 . S
N373 C369 1.427 . S
N373 C370 1.384 . S
N374 C366 1.427 . S
N374 C372 1.384 . S
H375 C381 0.930 1_655 S
H376 C385 0.930 . S
H377 C390 0.929 . S
H378 C388 0.929 . S
H379 C383 0.929 . S
H380 C389 0.929 . S
C381 H375 0.930 1_455 S
C381 C382 1.367 . S
C381 C389 1.378 1_455 S
C382 C381 1.367 . S
C382 C390 1.433 . S
C383 H379 0.929 . S
C383 C385 1.378 . S
C383 C387 1.350 . S
C384 C387 1.463 . S
C384 C389 1.350 1_455 S
C384 N392 1.427 . S
C385 H376 0.930 . S
C385 C383 1.378 . S
C385 C386 1.367 . S
C386 C385 1.367 . S
C386 C388 1.433 1_455 S
C387 C383 1.350 . S
C387 C384 1.463 . S
C387 N391 1.427 1_455 S
C388 H378 0.929 . S
C388 C386 1.433 1_655 S
C388 N391 1.384 . S
C389 H380 0.929 . S
C389 C381 1.378 1_655 S
C389 C384 1.350 1_655 S
C390 H377 0.929 . S
C390 C382 1.433 . S
C390 N392 1.384 . S
N391 C387 1.427 1_655 S
N391 C388 1.384 . S
N392 C384 1.427 . S
N392 C390 1.384 . S
C188 C47 1.403 . S
C184 C10 1.413 1_455 S
C202 C21 1.430 . S
C206 C86 1.460 . S
C220 C31 1.387 . S
C224 C153 1.452 . S
C238 C0 1.384 . S
C242 C54 1.424 . S
C260 C107 1.446 . S
C256 C18 1.369 . S
C274 C34 1.386 . S
C278 C132 1.422 . S
C296 C93 1.391 . S
C292 C36 1.392 . S
C310 C8 1.387 . S
C314 C146 1.422 . S
C332 C61 1.406 . S
C328 C23 1.405 . S
C350 C100 1.369 . S
C346 C26 1.331 . S
C368 C139 1.447 . S
C364 C5 1.383 . S
C382 C13 1.376 . S
C386 C40 1.422 . S
