# Generated by pormake.
# Topology pto, (3,4)-cn, num edge types: 1
# Building blocks:
#     Node 0, Type 0, BuildingBlock: OLANEW_clean_sbu_2, # of connection points: 3
#     Node 1, Type 0, BuildingBlock: OLANEW_clean_sbu_2, # of connection points: 3
#     Node 2, Type 0, BuildingBlock: OLANEW_clean_sbu_2, # of connection points: 3
#     Node 3, Type 0, BuildingBlock: OLANEW_clean_sbu_2, # of connection points: 3
#     Node 4, Type 0, BuildingBlock: OLANEW_clean_sbu_2, # of connection points: 3
#     Node 5, Type 0, BuildingBlock: OLANEW_clean_sbu_2, # of connection points: 3
#     Node 6, Type 0, BuildingBlock: OLANEW_clean_sbu_2, # of connection points: 3
#     Node 7, Type 0, BuildingBlock: OLANEW_clean_sbu_2, # of connection points: 3
#     Node 8, Type 1, BuildingBlock: GIZVER_clean_linker_0, # of connection points: 4
#     Node 9, Type 1, BuildingBlock: GIZVER_clean_linker_0, # of connection points: 4
#     Node 10, Type 1, BuildingBlock: GIZVER_clean_linker_0, # of connection points: 4
#     Node 11, Type 1, BuildingBlock: GIZVER_clean_linker_0, # of connection points: 4
#     Node 12, Type 1, BuildingBlock: GIZVER_clean_linker_0, # of connection points: 4
#     Node 13, Type 1, BuildingBlock: GIZVER_clean_linker_0, # of connection points: 4
#     Edge 14, Type (0, 1), BuildingBlock: OJICUG_clean_linker_0, # of connection points: 2
#     Edge 15, Type (0, 1), BuildingBlock: OJICUG_clean_linker_0, # of connection points: 2
#     Edge 16, Type (0, 1), BuildingBlock: OJICUG_clean_linker_0, # of connection points: 2
#     Edge 17, Type (0, 1), BuildingBlock: OJICUG_clean_linker_0, # of connection points: 2
#     Edge 18, Type (0, 1), BuildingBlock: OJICUG_clean_linker_0, # of connection points: 2
#     Edge 19, Type (0, 1), BuildingBlock: OJICUG_clean_linker_0, # of connection points: 2
#     Edge 20, Type (0, 1), BuildingBlock: OJICUG_clean_linker_0, # of connection points: 2
#     Edge 21, Type (0, 1), BuildingBlock: OJICUG_clean_linker_0, # of connection points: 2
#     Edge 22, Type (0, 1), BuildingBlock: OJICUG_clean_linker_0, # of connection points: 2
#     Edge 23, Type (0, 1), BuildingBlock: OJICUG_clean_linker_0, # of connection points: 2
#     Edge 24, Type (0, 1), BuildingBlock: OJICUG_clean_linker_0, # of connection points: 2
#     Edge 25, Type (0, 1), BuildingBlock: OJICUG_clean_linker_0, # of connection points: 2
#     Edge 26, Type (0, 1), BuildingBlock: OJICUG_clean_linker_0, # of connection points: 2
#     Edge 27, Type (0, 1), BuildingBlock: OJICUG_clean_linker_0, # of connection points: 2
#     Edge 28, Type (0, 1), BuildingBlock: OJICUG_clean_linker_0, # of connection points: 2
#     Edge 29, Type (0, 1), BuildingBlock: OJICUG_clean_linker_0, # of connection points: 2
#     Edge 30, Type (0, 1), BuildingBlock: OJICUG_clean_linker_0, # of connection points: 2
#     Edge 31, Type (0, 1), BuildingBlock: OJICUG_clean_linker_0, # of connection points: 2
#     Edge 32, Type (0, 1), BuildingBlock: OJICUG_clean_linker_0, # of connection points: 2
#     Edge 33, Type (0, 1), BuildingBlock: OJICUG_clean_linker_0, # of connection points: 2
#     Edge 34, Type (0, 1), BuildingBlock: OJICUG_clean_linker_0, # of connection points: 2
#     Edge 35, Type (0, 1), BuildingBlock: OJICUG_clean_linker_0, # of connection points: 2
#     Edge 36, Type (0, 1), BuildingBlock: OJICUG_clean_linker_0, # of connection points: 2
#     Edge 37, Type (0, 1), BuildingBlock: OJICUG_clean_linker_0, # of connection points: 2
# Relax obj value: 0.018
# Max RMSD: 0.159
# Mean RMSD: 0.071
data_MOF--net-pto--node1-OLANEW_clean_sbu_2--node2-GIZVER_clean_linker_0--edge1-OJICUG_clean_linker_0
_symmetry_space_group_name_H-M    P1
_symmetry_Int_Tables_number       1
_symmetry_cell_setting            triclinic
loop_
_symmetry_equiv_pos_as_xyz
'x, y, z'
_cell_length_a     38.505077
_cell_length_b     33.067452
_cell_length_c     23.464645
_cell_angle_alpha  94.361957
_cell_angle_beta   90.025675
_cell_angle_gamma 100.70005
loop_
_atom_site_label
_atom_site_type_symbol
_atom_site_fract_x
_atom_site_fract_y
_atom_site_fract_z
_atom_type_partial_charge
O0 O 0.31845 0.30083 0.08442 0.0
Cd1 Cd 0.25763 0.26574 0.09665 0.0
O2 O 0.3077 0.35371 0.13989 0.0
Cd3 Cd 0.25001 0.34144 0.12762 0.0
O4 O 0.20089 0.36499 0.11582 0.0
C5 C 0.18923 0.36994 0.06654 0.0
O6 O 0.20562 0.3578 0.02109 0.0
C7 C 0.32965 0.33451 0.11425 0.0
C8 C 0.25863 0.23971 0.20644 0.0
O9 O 0.26174 0.21477 0.16299 0.0
O10 O 0.25282 0.27563 0.19758 0.0
O11 O 0.32706 0.9988 0.96051 0.0
Cd12 Cd 0.2876 0.0479 0.95115 0.0
O13 O 0.28064 0.94956 0.96019 0.0
Cd14 Cd 0.24718 0.88885 0.96663 0.0
O15 O 0.20574 0.83383 0.9556 0.0
C16 C 0.19666 0.80893 0.99397 0.0
O17 O 0.21298 0.81571 0.04392 0.0
C18 C 0.31415 0.9606 0.96139 0.0
C19 C 0.28738 0.06378 0.83662 0.0
O20 O 0.30946 0.08613 0.87235 0.0
O21 O 0.26445 0.03491 0.85565 0.0
O22 O 0.8492 0.81683 0.17947 0.0
Cd23 Cd 0.82981 0.75778 0.1092 0.0
O24 O 0.79588 0.81056 0.21631 0.0
Cd25 Cd 0.76469 0.75859 0.16522 0.0
O26 O 0.70863 0.73913 0.14257 0.0
C27 C 0.68749 0.75654 0.17316 0.0
O28 O 0.70042 0.78224 0.21676 0.0
C29 C 0.8279 0.82917 0.21539 0.0
C30 C 0.87609 0.70174 0.09263 0.0
O31 O 0.87654 0.73058 0.05894 0.0
O32 O 0.85448 0.70007 0.13431 0.0
O33 O 0.90389 0.34789 0.86398 0.0
Cd34 Cd 0.87761 0.27423 0.86561 0.0
O35 O 0.8516 0.36454 0.8738 0.0
Cd36 Cd 0.8121 0.40473 0.87596 0.0
O37 O 0.75856 0.4179 0.88496 0.0
C38 C 0.75055 0.45311 0.89748 0.0
O39 O 0.77587 0.4858 0.90429 0.0
C40 C 0.88488 0.37554 0.86952 0.0
C41 C 0.87902 0.2271 0.76152 0.0
O42 O 0.85261 0.24435 0.77473 0.0
O43 O 0.90503 0.23261 0.79714 0.0
O44 O 0.82539 0.84111 0.72144 0.0
Cd45 Cd 0.80422 0.79279 0.79435 0.0
O46 O 0.77252 0.84753 0.69083 0.0
Cd47 Cd 0.73719 0.80852 0.74536 0.0
O48 O 0.6857 0.79015 0.78469 0.0
C49 C 0.66385 0.81468 0.78415 0.0
O50 O 0.67298 0.84957 0.75996 0.0
C51 C 0.80605 0.85671 0.68841 0.0
C52 C 0.8484 0.73613 0.81384 0.0
O53 O 0.8226 0.72707 0.77775 0.0
O54 O 0.85372 0.77216 0.84026 0.0
O55 O 0.84719 0.3195 0.13055 0.0
Cd56 Cd 0.80143 0.26716 0.16913 0.0
O57 O 0.83657 0.36591 0.19743 0.0
Cd58 Cd 0.78584 0.33248 0.22643 0.0
O59 O 0.73124 0.34309 0.23043 0.0
C60 C 0.70567 0.31944 0.20358 0.0
O61 O 0.7113 0.28488 0.17696 0.0
C62 C 0.85494 0.35559 0.15554 0.0
C63 C 0.82763 0.22491 0.25365 0.0
O64 O 0.82369 0.20915 0.20191 0.0
O65 O 0.81932 0.26038 0.26518 0.0
O66 O 0.34425 0.49917 0.8755 0.0
Cd67 Cd 0.28962 0.46238 0.82636 0.0
O68 O 0.37916 0.48499 0.80559 0.0
Cd69 Cd 0.33689 0.44911 0.75126 0.0
O70 O 0.32048 0.39222 0.69711 0.0
C71 C 0.34393 0.36981 0.69126 0.0
O72 O 0.37454 0.38237 0.71779 0.0
C73 C 0.3752 0.50148 0.85526 0.0
C74 C 0.22931 0.49706 0.84664 0.0
O75 O 0.23946 0.47417 0.88256 0.0
O76 O 0.24793 0.50407 0.80193 0.0
O77 O 0.37223 0.75964 0.33815 0.0
Cd78 Cd 0.35613 0.77046 0.43754 0.0
O79 O 0.31616 0.74859 0.31288 0.0
Cd80 Cd 0.27313 0.73543 0.24888 0.0
O81 O 0.2338 0.70082 0.18725 0.0
C82 C 0.20074 0.70049 0.18977 0.0
O83 O 0.18868 0.72368 0.23021 0.0
C84 C 0.34855 0.75315 0.29917 0.0
C85 C 0.34603 0.85185 0.45657 0.0
O86 O 0.37686 0.8428 0.46028 0.0
O87 O 0.31979 0.82232 0.44486 0.0
H88 H 0.98707 0.46372 0.02039 0.0
H89 H 0.99409 0.59346 -0.00018 0.0
H90 H 0.90858 0.52786 0.09384 0.0
H91 H 0.02236 0.50085 0.93931 0.0
H92 H 0.0322 0.55601 0.94546 0.0
H93 H 0.05748 0.46223 0.99151 0.0
H94 H 0.14319 0.52785 0.09876 0.0
H95 H 0.06873 0.59387 0.02968 0.0
C96 C 0.97664 0.49189 0.02811 0.0
C97 C 0.94619 0.4918 0.06103 0.0
C98 C 0.99414 0.52856 0.00607 0.0
C99 C 0.98055 0.56517 0.0165 0.0
C100 C 0.9499 0.56539 0.04902 0.0
C101 C 0.93287 0.52841 0.07033 0.0
C102 C 0.02684 0.52841 0.97057 0.0
C103 C 0.05889 0.52795 0.00759 0.0
C104 C 0.0712 0.49081 0.01331 0.0
C105 C 0.10141 0.49066 0.04682 0.0
C106 C 0.11938 0.52779 0.07395 0.0
C107 C 0.10822 0.56515 0.06734 0.0
C108 C 0.07745 0.56504 0.03516 0.0
H109 H 0.06117 0.6742 0.88968 0.0
H110 H 0.07616 0.55369 0.82462 0.0
H111 H 0.15076 0.62602 0.94536 0.0
H112 H 0.0386 0.6418 0.79298 0.0
H113 H 0.03713 0.58821 0.77544 0.0
H114 H 0.98606 0.66125 0.82595 0.0
H115 H 0.8983 0.5682 0.86778 0.0
H116 H 1.00209 0.53828 0.84677 0.0
C117 C 0.07535 0.64884 0.89083 0.0
C118 C 0.10681 0.65407 0.92324 0.0
C119 C 0.06389 0.61258 0.85552 0.0
C120 C 0.08375 0.58083 0.85403 0.0
C121 C 0.11484 0.58529 0.88714 0.0
C122 C 0.12556 0.62146 0.92285 0.0
C123 C 0.03494 0.61136 0.81161 0.0
C124 C 0.99827 0.6011 0.83581 0.0
C125 C 0.97584 0.63018 0.83744 0.0
C126 C 0.9397 0.61855 0.84897 0.0
C127 C 0.92634 0.57749 0.86063 0.0
C128 C 0.94853 0.54804 0.8602 0.0
C129 C 0.98463 0.56051 0.84853 0.0
H130 H 0.3227 0.14806 0.39519 0.0
H131 H 0.35893 0.19362 0.56492 0.0
H132 H 0.29024 0.25635 0.47546 0.0
H133 H 0.36967 0.12204 0.43931 0.0
H134 H 0.38721 0.14303 0.50817 0.0
H135 H 0.3552 0.05008 0.44556 0.0
H136 H 0.30373 0.99759 0.5922 0.0
H137 H 0.32938 0.12903 0.58759 0.0
C138 C 0.32198 0.16973 0.43197 0.0
C139 C 0.3042 0.20311 0.42854 0.0
C140 C 0.34101 0.16557 0.48164 0.0
C141 C 0.34285 0.19565 0.52772 0.0
C142 C 0.32431 0.2283 0.52605 0.0
C143 C 0.30432 0.231 0.47695 0.0
C144 C 0.36222 0.13142 0.48351 0.0
C145 C 0.34261 0.09417 0.51158 0.0
C146 C 0.34284 0.05413 0.48657 0.0
C147 C 0.32823 0.01923 0.51513 0.0
C148 C 0.31334 0.0245 0.56904 0.0
C149 C 0.31391 0.06408 0.59559 0.0
C150 C 0.32837 0.09867 0.56644 0.0
H151 H 0.45482 0.8764 0.97789 0.0
H152 H 0.45958 0.79735 0.11284 0.0
H153 H 0.35883 0.80993 0.04328 0.0
H154 H 0.50931 0.8777 0.02329 0.0
H155 H 0.50726 0.86039 0.0931 0.0
H156 H 0.52213 0.8312 0.9396 0.0
H157 H 0.59519 0.75498 0.98395 0.0
H158 H 0.53136 0.80148 0.11376 0.0
C159 C 0.44149 0.85333 0.0049 0.0
C160 C 0.40441 0.84559 0.0069 0.0
C161 C 0.4615 0.83454 0.04152 0.0
C162 C 0.44392 0.80814 0.08092 0.0
C163 C 0.40666 0.79961 0.08306 0.0
C164 C 0.38742 0.81624 0.04266 0.0
C165 C 0.50092 0.84992 0.04745 0.0
C166 C 0.5226 0.81777 0.0282 0.0
C167 C 0.53263 0.81378 0.97062 0.0
C168 C 0.55855 0.79049 0.95417 0.0
C169 C 0.57319 0.76997 0.9956 0.0
C170 C 0.56401 0.77388 0.05329 0.0
C171 C 0.53789 0.79703 0.06908 0.0
H172 H 0.89755 0.09394 0.38455 0.0
H173 H 0.91099 0.08978 0.56575 0.0
H174 H 0.85811 0.18088 0.50166 0.0
H175 H 0.94113 0.05666 0.42321 0.0
H176 H 0.94574 0.05388 0.49849 0.0
H177 H 0.90293 0.00205 0.36748 0.0
H178 H 0.84031 0.90317 0.45156 0.0
H179 H 0.89579 0.00972 0.55163 0.0
C180 C 0.89291 0.10554 0.42777 0.0
C181 C 0.87606 0.13977 0.43717 0.0
C182 C 0.90541 0.08725 0.47401 0.0
C183 C 0.9009 0.10341 0.53015 0.0
C184 C 0.88393 0.13735 0.54047 0.0
C185 C 0.87116 0.15472 0.49378 0.0
C186 C 0.92601 0.05269 0.46345 0.0
C187 C 0.90196 0.01087 0.45995 0.0
C188 C 0.89285 0.98891 0.40647 0.0
C189 C 0.87051 0.95007 0.40338 0.0
C190 C 0.85728 0.9334 0.45381 0.0
C191 C 0.86626 0.95453 0.50722 0.0
C192 C 0.88878 0.99324 0.51031 0.0
H193 H 0.52594 0.52619 0.02339 0.0
H194 H 0.50601 0.42747 0.13704 0.0
H195 H 0.42374 0.44792 0.0256 0.0
H196 H 0.56916 0.52291 0.09626 0.0
H197 H 0.55584 0.49259 0.15493 0.0
H198 H 0.59713 0.49272 0.01082 0.0
H199 H 0.64769 0.39081 0.04047 0.0
H200 H 0.57472 0.42743 0.16307 0.0
C201 C 0.50846 0.50028 0.03991 0.0
C202 C 0.47325 0.4899 0.02036 0.0
C203 C 0.52061 0.4778 0.08226 0.0
C204 C 0.49726 0.44442 0.10375 0.0
C205 C 0.46245 0.43353 0.08262 0.0
C206 C 0.45087 0.4563 0.04132 0.0
C207 C 0.55742 0.49122 0.10749 0.0
C208 C 0.58147 0.46187 0.08752 0.0
C209 C 0.60009 0.46742 0.03607 0.0
C210 C 0.62372 0.44141 0.01867 0.0
C211 C 0.62802 0.40946 0.0523 0.0
C212 C 0.61091 0.40444 0.10453 0.0
C213 C 0.58739 0.43055 0.122 0.0
C214 C 0.14697 0.41247 0.10977 0.0
C215 C 0.16113 0.39474 0.06081 0.0
H216 H 0.11635 0.45648 0.1434 0.0
C217 C 0.15074 0.40436 0.00664 0.0
H218 H 0.15418 0.40564 0.15212 0.0
C219 C 0.12868 0.43324 0.00177 0.0
C220 C 0.11676 0.45308 0.05094 0.0
H221 H 0.16105 0.39118 0.96803 0.0
H222 H 0.12294 0.44211 0.95976 0.0
C223 C 0.12518 0.44147 0.10486 0.0
C224 C 0.16488 0.73863 0.01661 0.0
C225 C 0.16968 0.77123 0.98053 0.0
H226 H 0.14044 0.67596 0.02703 0.0
C227 C 0.14987 0.76654 0.92935 0.0
H228 H 0.17955 0.74133 0.05656 0.0
C229 C 0.1274 0.72929 0.91289 0.0
C230 C 0.1243 0.69576 0.94711 0.0
H231 H 0.15267 0.79117 0.90082 0.0
H232 H 0.11417 0.72601 0.87159 0.0
C233 C 0.1425 0.7012 -0.00014 0.0
C234 C 0.9026 0.64405 0.12585 0.0
C235 C 0.89857 0.67005 0.08272 0.0
H236 H 0.92304 0.5919 0.14973 0.0
C237 C 0.91448 0.6638 0.02956 0.0
H238 H 0.89115 0.64836 0.16753 0.0
C239 C 0.93248 0.63082 0.01896 0.0
C240 C 0.93499 0.60361 0.06143 0.0
H241 H 0.91186 0.68338 0.99546 0.0
H242 H 0.94313 0.62566 0.97692 0.0
C243 C 0.92078 0.61151 0.1155 0.0
C244 C 0.8889 0.4501 0.90349 0.0
C245 C 0.90147 0.41951 0.8689 0.0
H246 H 0.89485 0.51451 0.92997 0.0
C247 C 0.93065 0.43109 0.83409 0.0
H248 H 0.86709 0.44181 0.93205 0.0
C249 C 0.94613 0.4726 0.832 0.0
C250 C 0.93335 0.5036 0.86578 0.0
H251 H 0.94091 0.40809 0.80711 0.0
H252 H 0.96748 0.48032 0.80244 0.0
C253 C 0.90487 0.4917 0.90233 0.0
C254 C 0.27844 0.26137 0.30658 0.0
C255 C 0.2658 0.2294 0.26487 0.0
H256 H 0.30201 0.27853 0.38869 0.0
C257 C 0.26365 0.18831 0.27815 0.0
H258 H 0.28101 0.29339 0.29729 0.0
C259 C 0.27461 0.17947 0.33205 0.0
C260 C 0.2888 0.2116 0.37317 0.0
H261 H 0.25396 0.16305 0.24664 0.0
H262 H 0.27244 0.14747 0.341 0.0
C263 C 0.29028 0.25267 0.35955 0.0
C264 C 0.37298 0.94501 0.98666 0.0
C265 C 0.33821 0.93075 0.96625 0.0
H266 H 0.42118 0.92936 0.01478 0.0
C267 C 0.32725 0.88835 0.95096 0.0
H268 H 0.38251 0.97754 -0.00181 0.0
C269 C 0.3497 0.86054 0.96003 0.0
C270 C 0.38371 0.87466 0.98395 0.0
H271 H 0.30138 0.87648 0.93236 0.0
H272 H 0.34006 0.82784 0.95015 0.0
C273 C 0.39542 0.91736 0.99546 0.0
C274 C 0.81426 0.88063 0.29133 0.0
C275 C 0.83966 0.86472 0.25783 0.0
H276 H 0.80434 0.92083 0.36275 0.0
C277 C 0.87565 0.8817 0.2678 0.0
H278 H 0.78627 0.86889 0.28438 0.0
C279 C 0.88596 0.91202 0.3129 0.0
C280 C 0.86041 0.92566 0.34844 0.0
H281 H 0.89583 0.87031 0.24251 0.0
H282 H 0.91384 0.923 0.32203 0.0
C283 C 0.82452 0.91064 0.33605 0.0
C284 C 0.70653 0.4898 0.94824 0.0
C285 C 0.71387 0.45542 0.91457 0.0
H286 H 0.67084 0.51255 0.00734 0.0
C287 C 0.6868 0.42069 0.90426 0.0
H288 H 0.72668 0.5172 0.95655 0.0
C289 C 0.65473 0.41834 0.93265 0.0
C290 C 0.64916 0.45061 0.97201 0.0
H291 H 0.69134 0.39398 0.87767 0.0
H292 H 0.63565 0.38969 0.92817 0.0
C293 C 0.67436 0.48737 0.97688 0.0
C294 C 0.26757 0.04232 0.7354 0.0
C295 C 0.29048 0.06864 0.77463 0.0
H296 H 0.25655 0.02088 0.64766 0.0
C297 C 0.31859 0.09685 0.75388 0.0
H298 H 0.2455 0.02044 0.75002 0.0
C299 C 0.32506 0.09686 0.69535 0.0
C300 C 0.30345 0.06879 0.6563 0.0
H301 H 0.3367 0.11759 0.78297 0.0
H302 H 0.34821 0.11729 0.68113 0.0
C303 C 0.27397 0.04243 0.6768 0.0
C304 C 0.6348 0.72346 0.11245 0.0
C305 C 0.65062 0.75444 0.15356 0.0
H306 H 0.593 0.70378 0.05072 0.0
C307 C 0.63258 0.7865 0.17068 0.0
H308 H 0.6477 0.69788 0.09931 0.0
C309 C 0.60166 0.79039 0.14209 0.0
C310 C 0.58792 0.76192 0.0964 0.0
H311 H 0.6439 0.81065 0.20275 0.0
H312 H 0.59064 0.81786 0.1523 0.0
C313 C 0.60342 0.72683 0.08476 0.0
C314 C 0.84997 0.19406 0.6695 0.0
C315 C 0.87955 0.20189 0.70656 0.0
H316 H 0.82775 0.16657 0.58893 0.0
C317 C 0.90972 0.18583 0.69022 0.0
H318 H 0.82615 0.20557 0.681 0.0
C319 C 0.91071 0.16361 0.6372 0.0
C320 C 0.88151 0.15686 0.59936 0.0
H321 H 0.93293 0.19117 0.71784 0.0
H322 H 0.93484 0.15303 0.62504 0.0
C323 C 0.85091 0.17174 0.61664 0.0
C324 C 0.38039 0.38767 0.15462 0.0
C325 C 0.36771 0.35349 0.11585 0.0
H326 H 0.42209 0.43936 0.17571 0.0
C327 C 0.39092 0.34059 0.07506 0.0
H328 H 0.36335 0.39809 0.18707 0.0
C329 C 0.4247 0.36414 0.06907 0.0
C330 C 0.43593 0.40048 0.10434 0.0
H331 H 0.38206 0.31427 0.04481 0.0
H332 H 0.44073 0.35613 0.03354 0.0
C333 C 0.41425 0.41093 0.14892 0.0
C334 C 0.90233 0.71758 0.85815 0.0
C335 C 0.87127 0.70584 0.82463 0.0
H336 H 0.94824 0.69918 0.89236 0.0
C337 C 0.86229 0.66479 0.80117 0.0
H338 H 0.90997 0.74891 0.87705 0.0
C339 C 0.88402 0.63631 0.81041 0.0
C340 C 0.91544 0.64823 0.84293 0.0
H341 H 0.83852 0.65463 0.7753 0.0
H342 H 0.87669 0.60516 0.79073 0.0
C343 C 0.9243 0.68916 0.86687 0.0
C344 C 0.89517 0.42427 0.16711 0.0
C345 C 0.88308 0.38733 0.13348 0.0
H346 H 0.9252 0.48567 0.17081 0.0
C347 C 0.89548 0.3832 0.07724 0.0
H348 H 0.88653 0.42837 0.21076 0.0
C349 C 0.91767 0.41641 0.05411 0.0
C350 C 0.9278 0.45416 0.08695 0.0
H351 H 0.88661 0.35515 0.05018 0.0
H352 H 0.92531 0.41331 0.0098 0.0
C353 C 0.91728 0.45717 0.1442 0.0
C354 C 0.18088 0.52999 0.81095 0.0
C355 C 0.1974 0.51547 0.85663 0.0
H356 H 0.14106 0.56244 0.78487 0.0
C357 C 0.1839 0.52016 0.91194 0.0
H358 H 0.19048 0.52651 0.7678 0.0
C359 C 0.15581 0.54118 0.92171 0.0
C360 C 0.14008 0.55683 0.87625 0.0
H361 H 0.19598 0.50918 0.948 0.0
H362 H 0.14707 0.54636 0.96493 0.0
C363 C 0.15233 0.55013 0.8206 0.0
C364 C 0.13923 0.66436 0.15989 0.0
C365 C 0.17606 0.67009 0.15224 0.0
H366 H 0.08853 0.62649 0.13835 0.0
C367 C 0.18949 0.64398 0.11133 0.0
H368 H 0.12801 0.68415 0.19077 0.0
C369 C 0.167 0.61122 0.08174 0.0
C370 C 0.13051 0.60388 0.09202 0.0
H371 H 0.2176 0.64778 0.10367 0.0
H372 H 0.17831 0.59071 0.05202 0.0
C373 C 0.11659 0.63151 0.12986 0.0
C374 C 0.85889 0.89884 0.64313 0.0
C375 C 0.82207 0.88521 0.64564 0.0
H376 H 0.90191 0.93258 0.59748 0.0
C377 C 0.80018 0.89838 0.60563 0.0
H378 H 0.87647 0.88951 0.67352 0.0
C379 C 0.8147 0.92282 0.56261 0.0
C380 C 0.85142 0.9351 0.55878 0.0
H381 H 0.77172 0.88882 0.60633 0.0
H382 H 0.79722 0.93112 0.53106 0.0
C383 C 0.87345 0.92378 0.60009 0.0
C384 C 0.64966 0.31557 0.14737 0.0
C385 C 0.6732 0.33554 0.19094 0.0
H386 H 0.6101 0.32198 0.08612 0.0
C387 C 0.66857 0.37437 0.21539 0.0
H388 H 0.65215 0.28547 0.12799 0.0
C389 C 0.644 0.39495 0.19187 0.0
C390 C 0.62383 0.3771 0.14344 0.0
H391 H 0.68594 0.39039 0.24954 0.0
H392 H 0.6436 0.42653 0.20759 0.0
C393 C 0.6253 0.33628 0.12363 0.0
C394 C 0.30441 0.31536 0.62867 0.0
C395 C 0.33798 0.33158 0.65272 0.0
H396 H 0.27344 0.26912 0.57131 0.0
C397 C 0.36634 0.31171 0.63811 0.0
H398 H 0.28195 0.32972 0.63957 0.0
C399 C 0.3616 0.27739 0.59849 0.0
C400 C 0.32829 0.26184 0.57293 0.0
H401 H 0.39256 0.32342 0.65588 0.0
H402 H 0.38444 0.26411 0.58626 0.0
C403 C 0.29958 0.28072 0.58942 0.0
C404 C 0.3888 0.74211 0.21801 0.0
C405 C 0.35914 0.75706 0.23932 0.0
H406 H 0.42588 0.74144 0.15017 0.0
C407 C 0.34297 0.78195 0.20625 0.0
H408 H 0.40179 0.72295 0.24313 0.0
C409 C 0.35751 0.79413 0.15459 0.0
C410 C 0.38816 0.78071 0.13348 0.0
H411 H 0.32074 0.79493 0.2225 0.0
H412 H 0.34576 0.81644 0.13369 0.0
C413 C 0.40279 0.75319 0.16507 0.0
C414 C 0.8556 0.22498 0.34967 0.0
C415 C 0.84118 0.20295 0.29906 0.0
H416 H 0.87932 0.22294 0.43122 0.0
C417 C 0.83938 0.15997 0.29292 0.0
H418 H 0.85784 0.25819 0.35536 0.0
C419 C 0.85085 0.13933 0.33735 0.0
C420 C 0.86484 0.16135 0.38854 0.0
H421 H 0.82831 0.14215 0.25436 0.0
H422 H 0.84801 0.10606 0.33202 0.0
C423 C 0.86765 0.20458 0.39346 0.0
C424 C 0.43933 0.50476 0.87753 0.0
C425 C 0.4066 0.5152 0.8934 0.0
H426 H 0.48767 0.48949 0.9071 0.0
C427 C 0.40247 0.53046 0.95003 0.0
H428 H 0.44366 0.49346 0.83406 0.0
C429 C 0.42816 0.52899 0.9915 0.0
C430 C 0.45813 0.51198 0.97698 0.0
H431 H 0.37791 0.53942 0.96354 0.0
H432 H 0.42243 0.53606 0.03597 0.0
C433 C 0.46488 0.50292 0.91922 0.0
C434 C 0.36996 0.92789 0.46656 0.0
C435 C 0.34091 0.89507 0.46649 0.0
H436 H 0.38846 0.99317 0.48084 0.0
C437 C 0.30712 0.9039 0.4775 0.0
H438 H 0.39629 0.92208 0.45781 0.0
C439 C 0.30273 0.94455 0.49098 0.0
C440 C 0.33193 0.97718 0.49266 0.0
H441 H 0.28422 0.8793 0.47758 0.0
H442 H 0.27663 0.95044 0.50141 0.0
C443 C 0.36546 0.9686 0.47913 0.0
C444 C 0.61474 0.83963 0.83771 0.0
C445 C 0.63082 0.8067 0.81697 0.0
H446 H 0.57875 0.8603 0.89766 0.0
C447 C 0.617 0.7668 0.83246 0.0
H448 H 0.6246 0.87071 0.82605 0.0
C449 C 0.58983 0.76058 0.87211 0.0
C450 C 0.57669 0.79432 0.89829 0.0
H451 H 0.62834 0.74068 0.81614 0.0
H452 H 0.58113 0.72981 0.88581 0.0
C453 C 0.58806 0.83357 0.87832 0.0
loop_
_geom_bond_atom_site_label_1
_geom_bond_atom_site_label_2
_geom_bond_distance
_geom_bond_site_symmetry_2
_ccdc_geom_bond_type
O0 Cd1 2.300 . S
O0 C7 1.275 . S
Cd1 O0 2.300 . S
Cd1 O9 2.381 . S
Cd1 O10 2.378 . S
O2 Cd3 2.385 . S
O2 C7 1.255 . S
Cd3 O2 2.385 . S
Cd3 O4 2.317 . S
O4 Cd3 2.317 . S
O4 C5 1.232 . S
C5 O4 1.232 . S
C5 O6 1.218 . S
O6 C5 1.218 . S
C7 O0 1.275 . S
C7 O2 1.255 . S
C8 O9 1.258 . S
C8 O10 1.256 . S
O9 Cd1 2.381 . S
O9 C8 1.258 . S
O10 Cd1 2.378 . S
O10 C8 1.256 . S
O11 Cd12 2.300 . S
O11 C18 1.275 . S
Cd12 O11 2.300 . S
Cd12 O20 2.381 . S
Cd12 O21 2.378 . S
O13 Cd14 2.385 . S
O13 C18 1.255 . S
Cd14 O13 2.385 . S
Cd14 O15 2.317 . S
O15 Cd14 2.317 . S
O15 C16 1.232 . S
C16 O15 1.232 . S
C16 O17 1.218 . S
O17 C16 1.218 . S
C18 O11 1.275 . S
C18 O13 1.255 . S
C19 O20 1.258 . S
C19 O21 1.256 . S
O20 Cd12 2.381 . S
O20 C19 1.258 . S
O21 Cd12 2.378 . S
O21 C19 1.256 . S
O22 Cd23 2.300 . S
O22 C29 1.275 . S
Cd23 O22 2.300 . S
Cd23 O31 2.381 . S
Cd23 O32 2.378 . S
O24 Cd25 2.385 . S
O24 C29 1.255 . S
Cd25 O24 2.385 . S
Cd25 O26 2.317 . S
O26 Cd25 2.317 . S
O26 C27 1.232 . S
C27 O26 1.232 . S
C27 O28 1.218 . S
O28 C27 1.218 . S
C29 O22 1.275 . S
C29 O24 1.255 . S
C30 O31 1.258 . S
C30 O32 1.256 . S
O31 Cd23 2.381 . S
O31 C30 1.258 . S
O32 Cd23 2.378 . S
O32 C30 1.256 . S
O33 Cd34 2.300 . S
O33 C40 1.275 . S
Cd34 O33 2.300 . S
Cd34 O42 2.381 . S
Cd34 O43 2.378 . S
O35 Cd36 2.385 . S
O35 C40 1.255 . S
Cd36 O35 2.385 . S
Cd36 O37 2.317 . S
O37 Cd36 2.317 . S
O37 C38 1.232 . S
C38 O37 1.232 . S
C38 O39 1.218 . S
O39 C38 1.218 . S
C40 O33 1.275 . S
C40 O35 1.255 . S
C41 O42 1.258 . S
C41 O43 1.256 . S
O42 Cd34 2.381 . S
O42 C41 1.258 . S
O43 Cd34 2.378 . S
O43 C41 1.256 . S
O44 Cd45 2.300 . S
O44 C51 1.275 . S
Cd45 O44 2.300 . S
Cd45 O53 2.381 . S
Cd45 O54 2.378 . S
O46 Cd47 2.385 . S
O46 C51 1.255 . S
Cd47 O46 2.385 . S
Cd47 O48 2.317 . S
O48 Cd47 2.317 . S
O48 C49 1.232 . S
C49 O48 1.232 . S
C49 O50 1.218 . S
O50 C49 1.218 . S
C51 O44 1.275 . S
C51 O46 1.255 . S
C52 O53 1.258 . S
C52 O54 1.256 . S
O53 Cd45 2.381 . S
O53 C52 1.258 . S
O54 Cd45 2.378 . S
O54 C52 1.256 . S
O55 Cd56 2.300 . S
O55 C62 1.275 . S
Cd56 O55 2.300 . S
Cd56 O64 2.381 . S
Cd56 O65 2.378 . S
O57 Cd58 2.385 . S
O57 C62 1.255 . S
Cd58 O57 2.385 . S
Cd58 O59 2.317 . S
O59 Cd58 2.317 . S
O59 C60 1.232 . S
C60 O59 1.232 . S
C60 O61 1.218 . S
O61 C60 1.218 . S
C62 O55 1.275 . S
C62 O57 1.255 . S
C63 O64 1.258 . S
C63 O65 1.256 . S
O64 Cd56 2.381 . S
O64 C63 1.258 . S
O65 Cd56 2.378 . S
O65 C63 1.256 . S
O66 Cd67 2.300 . S
O66 C73 1.275 . S
Cd67 O66 2.300 . S
Cd67 O75 2.381 . S
Cd67 O76 2.378 . S
O68 Cd69 2.385 . S
O68 C73 1.255 . S
Cd69 O68 2.385 . S
Cd69 O70 2.317 . S
O70 Cd69 2.317 . S
O70 C71 1.232 . S
C71 O70 1.232 . S
C71 O72 1.218 . S
O72 C71 1.218 . S
C73 O66 1.275 . S
C73 O68 1.255 . S
C74 O75 1.258 . S
C74 O76 1.256 . S
O75 Cd67 2.381 . S
O75 C74 1.258 . S
O76 Cd67 2.378 . S
O76 C74 1.256 . S
O77 Cd78 2.300 . S
O77 C84 1.275 . S
Cd78 O77 2.300 . S
Cd78 O86 2.381 . S
Cd78 O87 2.378 . S
O79 Cd80 2.385 . S
O79 C84 1.255 . S
Cd80 O79 2.385 . S
Cd80 O81 2.317 . S
O81 Cd80 2.317 . S
O81 C82 1.232 . S
C82 O81 1.232 . S
C82 O83 1.218 . S
O83 C82 1.218 . S
C84 O77 1.275 . S
C84 O79 1.255 . S
C85 O86 1.258 . S
C85 O87 1.256 . S
O86 Cd78 2.381 . S
O86 C85 1.258 . S
O87 Cd78 2.378 . S
O87 C85 1.256 . S
H88 C96 0.930 1_455 S
H89 C99 0.930 1_455 S
H90 C101 0.930 . S
H91 C102 0.970 . S
H92 C102 0.970 . S
H93 C104 0.930 . S
H94 C106 0.930 . S
H95 C108 0.930 . S
C96 H88 0.930 1_655 S
C96 C97 1.382 . S
C96 C98 1.426 1_655 S
C97 C96 1.382 . S
C97 C101 1.389 . S
C98 C96 1.426 1_455 S
C98 C99 1.375 1_455 S
C98 C102 1.532 . S
C99 H89 0.930 1_655 S
C99 C98 1.375 1_655 S
C99 C100 1.416 . S
C100 C99 1.416 . S
C100 C101 1.371 . S
C101 H90 0.930 . S
C101 C97 1.389 . S
C101 C100 1.371 . S
C102 H91 0.970 . S
C102 H92 0.970 . S
C102 C98 1.532 . S
C102 C103 1.499 . S
C103 C102 1.499 . S
C103 C104 1.370 . S
C103 C108 1.415 . S
C104 H93 0.930 . S
C104 C103 1.370 . S
C104 C105 1.407 . S
C105 C104 1.407 . S
C105 C106 1.365 . S
C106 H94 0.930 . S
C106 C105 1.365 . S
C106 C107 1.393 . S
C107 C106 1.393 . S
C107 C108 1.387 . S
C108 H95 0.930 . S
C108 C103 1.415 . S
C108 C107 1.387 . S
H109 C117 0.930 . S
H110 C120 0.930 . S
H111 C122 0.930 . S
H112 C123 0.970 . S
H113 C123 0.970 . S
H114 C125 0.930 . S
H115 C127 0.930 . S
H116 C129 0.930 . S
C117 H109 0.930 . S
C117 C118 1.382 . S
C117 C119 1.426 . S
C118 C117 1.382 . S
C118 C122 1.389 . S
C119 C117 1.426 . S
C119 C120 1.375 . S
C119 C123 1.532 . S
C120 H110 0.930 . S
C120 C119 1.375 . S
C120 C121 1.416 . S
C121 C120 1.416 . S
C121 C122 1.371 . S
C122 H111 0.930 . S
C122 C118 1.389 . S
C122 C121 1.371 . S
C123 H112 0.970 . S
C123 H113 0.970 . S
C123 C119 1.532 . S
C123 C124 1.499 1_455 S
C124 C123 1.499 1_655 S
C124 C125 1.370 . S
C124 C129 1.415 . S
C125 H114 0.930 . S
C125 C124 1.370 . S
C125 C126 1.407 . S
C126 C125 1.407 . S
C126 C127 1.365 . S
C127 H115 0.930 . S
C127 C126 1.365 . S
C127 C128 1.393 . S
C128 C127 1.393 . S
C128 C129 1.387 . S
C129 H116 0.930 . S
C129 C124 1.415 . S
C129 C128 1.387 . S
H130 C138 0.930 . S
H131 C141 0.930 . S
H132 C143 0.930 . S
H133 C144 0.970 . S
H134 C144 0.970 . S
H135 C146 0.930 . S
H136 C148 0.930 . S
H137 C150 0.930 . S
C138 H130 0.930 . S
C138 C139 1.382 . S
C138 C140 1.426 . S
C139 C138 1.382 . S
C139 C143 1.389 . S
C140 C138 1.426 . S
C140 C141 1.375 . S
C140 C144 1.532 . S
C141 H131 0.930 . S
C141 C140 1.375 . S
C141 C142 1.416 . S
C142 C141 1.416 . S
C142 C143 1.371 . S
C143 H132 0.930 . S
C143 C139 1.389 . S
C143 C142 1.371 . S
C144 H133 0.970 . S
C144 H134 0.970 . S
C144 C140 1.532 . S
C144 C145 1.499 . S
C145 C144 1.499 . S
C145 C146 1.370 . S
C145 C150 1.415 . S
C146 H135 0.930 . S
C146 C145 1.370 . S
C146 C147 1.407 . S
C147 C146 1.407 . S
C147 C148 1.365 . S
C148 H136 0.930 . S
C148 C147 1.365 . S
C148 C149 1.393 . S
C149 C148 1.393 . S
C149 C150 1.387 . S
C150 H137 0.930 . S
C150 C145 1.415 . S
C150 C149 1.387 . S
H151 C159 0.930 . S
H152 C162 0.930 . S
H153 C164 0.930 . S
H154 C165 0.970 1_556 S
H155 C165 0.970 . S
H156 C167 0.930 . S
H157 C169 0.930 . S
H158 C171 0.930 . S
C159 H151 0.930 . S
C159 C160 1.382 . S
C159 C161 1.426 1_556 S
C160 C159 1.382 . S
C160 C164 1.389 1_556 S
C161 C159 1.426 1_554 S
C161 C162 1.375 . S
C161 C165 1.532 . S
C162 H152 0.930 . S
C162 C161 1.375 . S
C162 C163 1.416 . S
C163 C162 1.416 . S
C163 C164 1.371 . S
C164 H153 0.930 . S
C164 C160 1.389 1_554 S
C164 C163 1.371 . S
C165 H154 0.970 1_554 S
C165 H155 0.970 . S
C165 C161 1.532 . S
C165 C166 1.499 . S
C166 C165 1.499 . S
C166 C167 1.370 1_554 S
C166 C171 1.415 . S
C167 H156 0.930 . S
C167 C166 1.370 1_556 S
C167 C168 1.407 . S
C168 C167 1.407 . S
C168 C169 1.365 . S
C169 H157 0.930 . S
C169 C168 1.365 . S
C169 C170 1.393 1_556 S
C170 C169 1.393 1_554 S
C170 C171 1.387 . S
C171 H158 0.930 . S
C171 C166 1.415 . S
C171 C170 1.387 . S
H172 C180 0.930 . S
H173 C183 0.930 . S
H174 C185 0.930 . S
H175 C186 0.970 . S
H176 C186 0.970 . S
H177 C188 0.930 . S
H178 C190 0.930 . S
H179 C192 0.930 . S
C180 H172 0.930 . S
C180 C181 1.382 . S
C180 C182 1.426 . S
C181 C180 1.382 . S
C181 C185 1.389 . S
C182 C180 1.426 . S
C182 C183 1.375 . S
C182 C186 1.532 . S
C183 H173 0.930 . S
C183 C182 1.375 . S
C183 C184 1.416 . S
C184 C183 1.416 . S
C184 C185 1.371 . S
C185 H174 0.930 . S
C185 C181 1.389 . S
C185 C184 1.371 . S
C186 H175 0.970 . S
C186 H176 0.970 . S
C186 C182 1.532 . S
C186 C187 1.499 1_545 S
C187 C186 1.499 1_565 S
C187 C188 1.370 . S
C187 C192 1.415 . S
C188 H177 0.930 . S
C188 C187 1.370 . S
C188 C189 1.407 . S
C189 C188 1.407 . S
C189 C190 1.365 . S
C190 H178 0.930 . S
C190 C189 1.365 . S
C190 C191 1.393 . S
C191 C190 1.393 . S
C191 C192 1.387 . S
C192 H179 0.930 . S
C192 C187 1.415 . S
C192 C191 1.387 . S
H193 C201 0.930 . S
H194 C204 0.930 . S
H195 C206 0.930 . S
H196 C207 0.970 1_556 S
H197 C207 0.970 . S
H198 C209 0.930 . S
H199 C211 0.930 . S
H200 C213 0.930 . S
C201 H193 0.930 . S
C201 C202 1.382 . S
C201 C203 1.426 1_556 S
C202 C201 1.382 . S
C202 C206 1.389 1_556 S
C203 C201 1.426 1_554 S
C203 C204 1.375 . S
C203 C207 1.532 . S
C204 H194 0.930 . S
C204 C203 1.375 . S
C204 C205 1.416 . S
C205 C204 1.416 . S
C205 C206 1.371 . S
C206 H195 0.930 . S
C206 C202 1.389 1_554 S
C206 C205 1.371 . S
C207 H196 0.970 1_554 S
C207 H197 0.970 . S
C207 C203 1.532 . S
C207 C208 1.499 . S
C208 C207 1.499 . S
C208 C209 1.370 1_554 S
C208 C213 1.415 . S
C209 H198 0.930 . S
C209 C208 1.370 1_556 S
C209 C210 1.407 . S
C210 C209 1.407 . S
C210 C211 1.365 1_556 S
C211 H199 0.930 . S
C211 C210 1.365 1_554 S
C211 C212 1.393 . S
C212 C211 1.393 . S
C212 C213 1.387 . S
C213 H200 0.930 . S
C213 C208 1.415 . S
C213 C212 1.387 . S
C214 C215 1.387 . S
C214 H218 0.950 . S
C214 C223 1.390 . S
C215 C214 1.387 . S
C215 C217 1.387 . S
H216 C223 0.950 . S
C217 C215 1.387 . S
C217 C219 1.390 . S
C217 H221 0.950 . S
H218 C214 0.950 . S
C219 C217 1.390 . S
C219 C220 1.387 . S
C219 H222 0.950 . S
C220 C219 1.387 . S
C220 C223 1.387 . S
H221 C217 0.950 . S
H222 C219 0.950 . S
C223 C214 1.390 . S
C223 H216 0.950 . S
C223 C220 1.387 . S
C224 C225 1.387 . S
C224 H228 0.950 . S
C224 C233 1.390 . S
C225 C224 1.387 . S
C225 C227 1.387 . S
H226 C233 0.950 . S
C227 C225 1.387 . S
C227 C229 1.390 . S
C227 H231 0.950 . S
H228 C224 0.950 . S
C229 C227 1.390 . S
C229 C230 1.387 . S
C229 H232 0.950 . S
C230 C229 1.387 . S
C230 C233 1.387 . S
H231 C227 0.950 . S
H232 C229 0.950 . S
C233 C224 1.390 . S
C233 H226 0.950 . S
C233 C230 1.387 . S
C234 C235 1.387 . S
C234 H238 0.950 . S
C234 C243 1.390 . S
C235 C234 1.387 . S
C235 C237 1.387 . S
H236 C243 0.950 . S
C237 C235 1.387 . S
C237 C239 1.390 . S
C237 H241 0.950 . S
H238 C234 0.950 . S
C239 C237 1.390 . S
C239 C240 1.387 . S
C239 H242 0.950 . S
C240 C239 1.387 . S
C240 C243 1.387 . S
H241 C237 0.950 . S
H242 C239 0.950 . S
C243 C234 1.390 . S
C243 H236 0.950 . S
C243 C240 1.387 . S
C244 C245 1.387 . S
C244 H248 0.950 . S
C244 C253 1.390 . S
C245 C244 1.387 . S
C245 C247 1.387 . S
H246 C253 0.950 . S
C247 C245 1.387 . S
C247 C249 1.390 . S
C247 H251 0.950 . S
H248 C244 0.950 . S
C249 C247 1.390 . S
C249 C250 1.387 . S
C249 H252 0.950 . S
C250 C249 1.387 . S
C250 C253 1.387 . S
H251 C247 0.950 . S
H252 C249 0.950 . S
C253 C244 1.390 . S
C253 H246 0.950 . S
C253 C250 1.387 . S
C254 C255 1.387 . S
C254 H258 0.950 . S
C254 C263 1.390 . S
C255 C254 1.387 . S
C255 C257 1.387 . S
H256 C263 0.950 . S
C257 C255 1.387 . S
C257 C259 1.390 . S
C257 H261 0.950 . S
H258 C254 0.950 . S
C259 C257 1.390 . S
C259 C260 1.387 . S
C259 H262 0.950 . S
C260 C259 1.387 . S
C260 C263 1.387 . S
H261 C257 0.950 . S
H262 C259 0.950 . S
C263 C254 1.390 . S
C263 H256 0.950 . S
C263 C260 1.387 . S
C264 C265 1.387 . S
C264 H268 0.950 . S
C264 C273 1.390 . S
C265 C264 1.387 . S
C265 C267 1.387 . S
H266 C273 0.950 . S
C267 C265 1.387 . S
C267 C269 1.390 . S
C267 H271 0.950 . S
H268 C264 0.950 . S
C269 C267 1.390 . S
C269 C270 1.387 . S
C269 H272 0.950 . S
C270 C269 1.387 . S
C270 C273 1.387 . S
H271 C267 0.950 . S
H272 C269 0.950 . S
C273 C264 1.390 . S
C273 H266 0.950 . S
C273 C270 1.387 . S
C274 C275 1.387 . S
C274 H278 0.950 . S
C274 C283 1.390 . S
C275 C274 1.387 . S
C275 C277 1.387 . S
H276 C283 0.950 . S
C277 C275 1.387 . S
C277 C279 1.390 . S
C277 H281 0.950 . S
H278 C274 0.950 . S
C279 C277 1.390 . S
C279 C280 1.387 . S
C279 H282 0.950 . S
C280 C279 1.387 . S
C280 C283 1.387 . S
H281 C277 0.950 . S
H282 C279 0.950 . S
C283 C274 1.390 . S
C283 H276 0.950 . S
C283 C280 1.387 . S
C284 C285 1.387 . S
C284 H288 0.950 . S
C284 C293 1.390 . S
C285 C284 1.387 . S
C285 C287 1.387 . S
H286 C293 0.950 . S
C287 C285 1.387 . S
C287 C289 1.390 . S
C287 H291 0.950 . S
H288 C284 0.950 . S
C289 C287 1.390 . S
C289 C290 1.387 . S
C289 H292 0.950 . S
C290 C289 1.387 . S
C290 C293 1.387 . S
H291 C287 0.950 . S
H292 C289 0.950 . S
C293 C284 1.390 . S
C293 H286 0.950 . S
C293 C290 1.387 . S
C294 C295 1.387 . S
C294 H298 0.950 . S
C294 C303 1.390 1_565 S
C295 C294 1.387 . S
C295 C297 1.387 1_565 S
H296 C303 0.950 . S
C297 C295 1.387 1_545 S
C297 C299 1.390 . S
C297 H301 0.950 1_545 S
H298 C294 0.950 . S
C299 C297 1.390 . S
C299 C300 1.387 . S
C299 H302 0.950 . S
C300 C299 1.387 . S
C300 C303 1.387 . S
H301 C297 0.950 1_565 S
H302 C299 0.950 . S
C303 C294 1.390 1_545 S
C303 H296 0.950 . S
C303 C300 1.387 . S
C304 C305 1.387 . S
C304 H308 0.950 . S
C304 C313 1.390 . S
C305 C304 1.387 . S
C305 C307 1.387 . S
H306 C313 0.950 . S
C307 C305 1.387 . S
C307 C309 1.390 . S
C307 H311 0.950 . S
H308 C304 0.950 . S
C309 C307 1.390 . S
C309 C310 1.387 . S
C309 H312 0.950 . S
C310 C309 1.387 . S
C310 C313 1.387 . S
H311 C307 0.950 . S
H312 C309 0.950 . S
C313 C304 1.390 . S
C313 H306 0.950 . S
C313 C310 1.387 . S
C314 C315 1.387 . S
C314 H318 0.950 . S
C314 C323 1.390 . S
C315 C314 1.387 . S
C315 C317 1.387 . S
H316 C323 0.950 . S
C317 C315 1.387 . S
C317 C319 1.390 . S
C317 H321 0.950 . S
H318 C314 0.950 . S
C319 C317 1.390 . S
C319 C320 1.387 . S
C319 H322 0.950 . S
C320 C319 1.387 . S
C320 C323 1.387 . S
H321 C317 0.950 . S
H322 C319 0.950 . S
C323 C314 1.390 . S
C323 H316 0.950 . S
C323 C320 1.387 . S
C324 C325 1.387 . S
C324 H328 0.950 . S
C324 C333 1.390 . S
C325 C324 1.387 . S
C325 C327 1.387 . S
H326 C333 0.950 . S
C327 C325 1.387 . S
C327 C329 1.390 . S
C327 H331 0.950 . S
H328 C324 0.950 . S
C329 C327 1.390 . S
C329 C330 1.387 . S
C329 H332 0.950 . S
C330 C329 1.387 . S
C330 C333 1.387 . S
H331 C327 0.950 . S
H332 C329 0.950 . S
C333 C324 1.390 . S
C333 H326 0.950 . S
C333 C330 1.387 . S
C334 C335 1.387 . S
C334 H338 0.950 . S
C334 C343 1.390 . S
C335 C334 1.387 . S
C335 C337 1.387 . S
H336 C343 0.950 . S
C337 C335 1.387 . S
C337 C339 1.390 . S
C337 H341 0.950 . S
H338 C334 0.950 . S
C339 C337 1.390 . S
C339 C340 1.387 . S
C339 H342 0.950 . S
C340 C339 1.387 . S
C340 C343 1.387 . S
H341 C337 0.950 . S
H342 C339 0.950 . S
C343 C334 1.390 . S
C343 H336 0.950 . S
C343 C340 1.387 . S
C344 C345 1.387 . S
C344 H348 0.950 . S
C344 C353 1.390 . S
C345 C344 1.387 . S
C345 C347 1.387 . S
H346 C353 0.950 . S
C347 C345 1.387 . S
C347 C349 1.390 . S
C347 H351 0.950 . S
H348 C344 0.950 . S
C349 C347 1.390 . S
C349 C350 1.387 . S
C349 H352 0.950 . S
C350 C349 1.387 . S
C350 C353 1.387 . S
H351 C347 0.950 . S
H352 C349 0.950 . S
C353 C344 1.390 . S
C353 H346 0.950 . S
C353 C350 1.387 . S
C354 C355 1.387 . S
C354 H358 0.950 . S
C354 C363 1.390 . S
C355 C354 1.387 . S
C355 C357 1.387 . S
H356 C363 0.950 . S
C357 C355 1.387 . S
C357 C359 1.390 . S
C357 H361 0.950 . S
H358 C354 0.950 . S
C359 C357 1.390 . S
C359 C360 1.387 . S
C359 H362 0.950 . S
C360 C359 1.387 . S
C360 C363 1.387 . S
H361 C357 0.950 . S
H362 C359 0.950 . S
C363 C354 1.390 . S
C363 H356 0.950 . S
C363 C360 1.387 . S
C364 C365 1.387 . S
C364 H368 0.950 . S
C364 C373 1.390 . S
C365 C364 1.387 . S
C365 C367 1.387 . S
H366 C373 0.950 . S
C367 C365 1.387 . S
C367 C369 1.390 . S
C367 H371 0.950 . S
H368 C364 0.950 . S
C369 C367 1.390 . S
C369 C370 1.387 . S
C369 H372 0.950 . S
C370 C369 1.387 . S
C370 C373 1.387 . S
H371 C367 0.950 . S
H372 C369 0.950 . S
C373 C364 1.390 . S
C373 H366 0.950 . S
C373 C370 1.387 . S
C374 C375 1.387 . S
C374 H378 0.950 . S
C374 C383 1.390 . S
C375 C374 1.387 . S
C375 C377 1.387 . S
H376 C383 0.950 . S
C377 C375 1.387 . S
C377 C379 1.390 . S
C377 H381 0.950 . S
H378 C374 0.950 . S
C379 C377 1.390 . S
C379 C380 1.387 . S
C379 H382 0.950 . S
C380 C379 1.387 . S
C380 C383 1.387 . S
H381 C377 0.950 . S
H382 C379 0.950 . S
C383 C374 1.390 . S
C383 H376 0.950 . S
C383 C380 1.387 . S
C384 C385 1.387 . S
C384 H388 0.950 . S
C384 C393 1.390 . S
C385 C384 1.387 . S
C385 C387 1.387 . S
H386 C393 0.950 . S
C387 C385 1.387 . S
C387 C389 1.390 . S
C387 H391 0.950 . S
H388 C384 0.950 . S
C389 C387 1.390 . S
C389 C390 1.387 . S
C389 H392 0.950 . S
C390 C389 1.387 . S
C390 C393 1.387 . S
H391 C387 0.950 . S
H392 C389 0.950 . S
C393 C384 1.390 . S
C393 H386 0.950 . S
C393 C390 1.387 . S
C394 C395 1.387 . S
C394 H398 0.950 . S
C394 C403 1.390 . S
C395 C394 1.387 . S
C395 C397 1.387 . S
H396 C403 0.950 . S
C397 C395 1.387 . S
C397 C399 1.390 . S
C397 H401 0.950 . S
H398 C394 0.950 . S
C399 C397 1.390 . S
C399 C400 1.387 . S
C399 H402 0.950 . S
C400 C399 1.387 . S
C400 C403 1.387 . S
H401 C397 0.950 . S
H402 C399 0.950 . S
C403 C394 1.390 . S
C403 H396 0.950 . S
C403 C400 1.387 . S
C404 C405 1.387 . S
C404 H408 0.950 . S
C404 C413 1.390 . S
C405 C404 1.387 . S
C405 C407 1.387 . S
H406 C413 0.950 . S
C407 C405 1.387 . S
C407 C409 1.390 . S
C407 H411 0.950 . S
H408 C404 0.950 . S
C409 C407 1.390 . S
C409 C410 1.387 . S
C409 H412 0.950 . S
C410 C409 1.387 . S
C410 C413 1.387 . S
H411 C407 0.950 . S
H412 C409 0.950 . S
C413 C404 1.390 . S
C413 H406 0.950 . S
C413 C410 1.387 . S
C414 C415 1.387 . S
C414 H418 0.950 . S
C414 C423 1.390 . S
C415 C414 1.387 . S
C415 C417 1.387 . S
H416 C423 0.950 . S
C417 C415 1.387 . S
C417 C419 1.390 . S
C417 H421 0.950 . S
H418 C414 0.950 . S
C419 C417 1.390 . S
C419 C420 1.387 . S
C419 H422 0.950 . S
C420 C419 1.387 . S
C420 C423 1.387 . S
H421 C417 0.950 . S
H422 C419 0.950 . S
C423 C414 1.390 . S
C423 H416 0.950 . S
C423 C420 1.387 . S
C424 C425 1.387 . S
C424 H428 0.950 . S
C424 C433 1.390 . S
C425 C424 1.387 . S
C425 C427 1.387 . S
H426 C433 0.950 . S
C427 C425 1.387 . S
C427 C429 1.390 . S
C427 H431 0.950 . S
H428 C424 0.950 . S
C429 C427 1.390 . S
C429 C430 1.387 . S
C429 H432 0.950 . S
C430 C429 1.387 . S
C430 C433 1.387 . S
H431 C427 0.950 . S
H432 C429 0.950 . S
C433 C424 1.390 . S
C433 H426 0.950 . S
C433 C430 1.387 . S
C434 C435 1.387 . S
C434 H438 0.950 . S
C434 C443 1.390 1_565 S
C435 C434 1.387 . S
C435 C437 1.387 . S
H436 C443 0.950 . S
C437 C435 1.387 . S
C437 C439 1.390 1_565 S
C437 H441 0.950 . S
H438 C434 0.950 . S
C439 C437 1.390 1_545 S
C439 C440 1.387 . S
C439 H442 0.950 . S
C440 C439 1.387 . S
C440 C443 1.387 . S
H441 C437 0.950 . S
H442 C439 0.950 . S
C443 C434 1.390 1_545 S
C443 H436 0.950 . S
C443 C440 1.387 . S
C444 C445 1.387 . S
C444 H448 0.950 . S
C444 C453 1.390 . S
C445 C444 1.387 . S
C445 C447 1.387 . S
H446 C453 0.950 . S
C447 C445 1.387 . S
C447 C449 1.390 . S
C447 H451 0.950 . S
H448 C444 0.950 . S
C449 C447 1.390 . S
C449 C450 1.387 . S
C449 H452 0.950 . S
C450 C449 1.387 . S
C450 C453 1.387 . S
H451 C447 0.950 . S
H452 C449 0.950 . S
C453 C444 1.390 . S
C453 H446 0.950 . S
C453 C450 1.387 . S
C220 C105 1.697 . S
C215 C5 1.763 . S
C230 C118 1.380 . S
C225 C16 1.286 . S
C240 C100 1.645 . S
C235 C30 1.711 . S
C250 C128 1.559 . S
C245 C40 1.625 . S
C260 C139 1.457 . S
C255 C8 1.539 . S
C270 C160 1.304 . S
C265 C18 1.397 . S
C275 C29 1.662 . S
C280 C189 1.588 . S
C290 C210 1.614 . S
C285 C38 1.462 . S
C300 C149 1.444 . S
C295 C19 1.458 . S
C305 C27 1.415 . S
C310 C170 1.472 . S
C320 C184 1.448 . S
C315 C41 1.561 . S
C330 C205 1.779 . S
C325 C7 1.763 . S
C335 C52 1.690 . S
C340 C126 1.536 . S
C350 C97 1.829 . S
C345 C62 1.884 . S
C355 C74 1.688 . S
C360 C121 1.410 . S
C365 C82 1.241 . S
C370 C107 1.559 . S
C380 C191 1.703 . S
C375 C51 1.656 . S
C390 C212 1.799 . S
C385 C60 1.573 . S
C400 C142 1.393 . S
C395 C71 1.380 . S
C405 C84 1.508 . S
C410 C163 1.436 . S
C420 C181 1.588 . S
C415 C63 1.662 . S
C430 C202 1.647 . S
C425 C73 1.660 . S
C440 C147 1.459 . S
C435 C85 1.524 . S
C445 C49 1.363 . S
C450 C168 1.505 . S
