# Generated by pormake.
# Topology pth, (4,4)-cn, num edge types: 1
# Building blocks:
#     Node 0, Type 0, BuildingBlock: KUFVIS_clean_sbu_0, # of connection points: 4
#     Node 1, Type 0, BuildingBlock: KUFVIS_clean_sbu_0, # of connection points: 4
#     Node 2, Type 0, BuildingBlock: KUFVIS_clean_sbu_0, # of connection points: 4
#     Node 3, Type 1, BuildingBlock: NAHDIM_clean_linker_0, # of connection points: 4
#     Node 4, Type 1, BuildingBlock: NAHDIM_clean_linker_0, # of connection points: 4
#     Node 5, Type 1, BuildingBlock: NAHDIM_clean_linker_0, # of connection points: 4
#     Edge 6, Type (0, 1), BuildingBlock: TEMPAE_clean_linker_10, # of connection points: 2
#     Edge 7, Type (0, 1), BuildingBlock: TEMPAE_clean_linker_10, # of connection points: 2
#     Edge 8, Type (0, 1), BuildingBlock: TEMPAE_clean_linker_10, # of connection points: 2
#     Edge 9, Type (0, 1), BuildingBlock: TEMPAE_clean_linker_10, # of connection points: 2
#     Edge 10, Type (0, 1), BuildingBlock: TEMPAE_clean_linker_10, # of connection points: 2
#     Edge 11, Type (0, 1), BuildingBlock: TEMPAE_clean_linker_10, # of connection points: 2
#     Edge 12, Type (0, 1), BuildingBlock: TEMPAE_clean_linker_10, # of connection points: 2
#     Edge 13, Type (0, 1), BuildingBlock: TEMPAE_clean_linker_10, # of connection points: 2
#     Edge 14, Type (0, 1), BuildingBlock: TEMPAE_clean_linker_10, # of connection points: 2
#     Edge 15, Type (0, 1), BuildingBlock: TEMPAE_clean_linker_10, # of connection points: 2
#     Edge 16, Type (0, 1), BuildingBlock: TEMPAE_clean_linker_10, # of connection points: 2
#     Edge 17, Type (0, 1), BuildingBlock: TEMPAE_clean_linker_10, # of connection points: 2
# Relax obj value: 0.013
# Max RMSD: 0.083
# Mean RMSD: 0.063
data_MOF--net-pth--node1-KUFVIS_clean_sbu_0--node2-NAHDIM_clean_linker_0--edge1-TEMPAE_clean_linker_10
_symmetry_space_group_name_H-M    P1
_symmetry_Int_Tables_number       1
_symmetry_cell_setting            triclinic
loop_
_symmetry_equiv_pos_as_xyz
'x, y, z'
_cell_length_a     31.73946
_cell_length_b     31.805253
_cell_length_c     82.127206
_cell_angle_alpha  90.089729
_cell_angle_beta   92.540465
_cell_angle_gamma 120.27978
loop_
_atom_site_label
_atom_site_type_symbol
_atom_site_fract_x
_atom_site_fract_y
_atom_site_fract_z
_atom_type_partial_charge
Mn0 Mn 0.05393 0.07777 0.05348 0.0
Mn1 Mn 0.98833 0.12189 0.03453 0.0
C2 C 0.00686 0.03859 0.03025 0.0
C3 C 0.06074 0.03098 0.07406 0.0
C4 C 0.09691 0.16429 0.03067 0.0
O5 O 0.056 0.12567 0.07012 0.0
O6 O 0.00845 0.15002 0.0572 0.0
C7 C 0.90211 0.07362 0.05469 0.0
N8 N 0.92162 0.08217 0.03979 0.0
C9 C 0.84248 0.0314 0.02638 0.0
C10 C 0.82146 0.02227 0.04158 0.0
C11 C 0.85145 0.04335 0.0558 0.0
C12 C 0.8932 0.06162 0.02606 0.0
H13 H 0.92505 0.08971 0.06565 0.0
C14 C 0.03475 0.15053 0.06958 0.0
O15 O 0.09926 0.066 0.06775 0.0
O16 O 0.01857 0.02339 0.06845 0.0
N17 N 0.96577 0.09863 0.01257 0.0
C18 C 0.99184 0.11069 0.99889 0.0
C19 C 0.96724 0.09325 0.98359 0.0
C20 C 0.91611 0.06413 0.9825 0.0
C21 C 0.89004 0.05209 0.99673 0.0
C22 C 0.9165 0.07101 0.01162 0.0
H23 H 0.03109 0.13337 0.99963 0.0
O24 O 0.04152 0.0309 0.03543 0.0
O25 O 0.99899 0.06742 0.03932 0.0
O26 O 0.10195 0.1344 0.0398 0.0
O27 O 0.05635 0.16334 0.02817 0.0
C28 C 0.83887 0.02217 0.99672 0.0
C29 C 0.81513 0.01153 0.01155 0.0
H30 H 0.7824 0.999 0.04248 0.0
H31 H 0.83553 0.03632 0.06758 0.0
H32 H 0.9876 0.10253 0.97265 0.0
H33 H 0.89723 0.05151 0.97065 0.0
H34 H 0.81744 0.00685 0.9854 0.0
H35 H 0.77583 0.98808 0.01142 0.0
Mn36 Mn 0.0354 0.04992 0.39684 0.0
Mn37 Mn 0.11095 0.15211 0.41917 0.0
C38 C 0.07409 0.04486 0.42068 0.0
C39 C 0.0208 0.99501 0.37553 0.0
C40 C 0.00055 0.10058 0.41989 0.0
O41 O 0.04713 0.10364 0.38113 0.0
O42 O 0.10052 0.16905 0.39662 0.0
C43 C 0.20027 0.18131 0.4013 0.0
N44 N 0.1771 0.17072 0.41556 0.0
C45 C 0.251 0.18941 0.43097 0.0
C46 C 0.27582 0.20096 0.41647 0.0
C47 C 0.25025 0.19659 0.40156 0.0
C48 C 0.20109 0.17383 0.42992 0.0
H49 H 0.18074 0.17806 0.38983 0.0
C50 C 0.07557 0.14938 0.38329 0.0
O51 O 0.98589 0.99993 0.38115 0.0
O52 O 0.06445 0.02282 0.38206 0.0
N53 N 0.12544 0.14276 0.44125 0.0
C54 C 0.09565 0.12824 0.45402 0.0
C55 C 0.11555 0.13084 0.46984 0.0
C56 C 0.16588 0.14883 0.47238 0.0
C57 C 0.19569 0.16278 0.45903 0.0
C58 C 0.17388 0.1598 0.44356 0.0
H59 H 0.05709 0.11516 0.45217 0.0
O60 O 0.03533 0.00687 0.4144 0.0
O61 O 0.09031 0.08477 0.41254 0.0
O62 O 0.99182 0.06621 0.40983 0.0
O63 O 0.04367 0.13499 0.42405 0.0
C64 C 0.24621 0.17974 0.46045 0.0
C65 C 0.27374 0.19254 0.44641 0.0
H66 H 0.31442 0.21298 0.41663 0.0
H67 H 0.26908 0.20517 0.3903 0.0
H68 H 0.09227 0.11962 0.48009 0.0
H69 H 0.18124 0.15182 0.48466 0.0
H70 H 0.26418 0.1826 0.47227 0.0
H71 H 0.31238 0.20476 0.44763 0.0
Mn72 Mn 0.03392 0.06589 0.72085 0.0
Mn73 Mn 0.97009 0.10777 0.7401 0.0
C74 C 0.06579 0.11217 0.74468 0.0
C75 C 0.08959 0.07452 0.70166 0.0
C76 C 0.94702 0.00318 0.74166 0.0
O77 O 0.98409 0.05988 0.70325 0.0
O78 O 0.94477 0.09014 0.71697 0.0
C79 C 0.0015 0.1984 0.72195 0.0
N80 N 0.99754 0.17572 0.73633 0.0
C81 C 0.03354 0.25186 0.75146 0.0
C82 C 0.03776 0.276 0.73683 0.0
C83 C 0.02183 0.24916 0.722 0.0
C84 C 0.01305 0.20123 0.75065 0.0
H85 H 0.98928 0.17793 0.71052 0.0
C86 C 0.95192 0.07256 0.704 0.0
O87 O 0.05751 0.03192 0.70664 0.0
O88 O 0.08851 0.1118 0.70756 0.0
N89 N 0.99157 0.12699 0.76241 0.0
C90 C 0.98837 0.09871 0.77528 0.0
C91 C 0.00461 0.1203 0.79094 0.0
C92 C 0.02349 0.17056 0.79322 0.0
C93 C 0.02634 0.19888 0.77978 0.0
C94 C 0.00975 0.17539 0.76447 0.0
H95 H 0.97383 0.06006 0.77361 0.0
O96 O 0.08081 0.08305 0.74012 0.0
O97 O 0.03233 0.11294 0.7352 0.0
O98 O 0.98087 0.00805 0.73267 0.0
O99 O 0.93964 0.03802 0.74511 0.0
C100 C 0.04543 0.24955 0.78096 0.0
C101 C 0.0494 0.2761 0.76681 0.0
H102 H 0.0535 0.31516 0.73682 0.0
H103 H 0.02517 0.26756 0.71065 0.0
H104 H 0.00251 0.09824 0.80123 0.0
H105 H 0.03603 0.18709 0.80531 0.0
H106 H 0.05752 0.26853 0.7927 0.0
H107 H 0.06506 0.31519 0.76784 0.0
C108 C 0.90391 0.71984 0.28059 0.0
C109 C 0.94008 0.72201 0.29409 0.0
C110 C 0.99067 0.69458 0.28081 0.0
C111 C 0.03819 0.70925 0.2766 0.0
C112 C 0.04951 0.67651 0.26931 0.0
C113 C 0.01183 0.62802 0.26567 0.0
C114 C 0.96367 0.6126 0.27008 0.0
C115 C 0.95363 0.64586 0.27777 0.0
C116 C 0.1017 0.69403 0.26532 0.0
C117 C 0.92264 0.56117 0.2664 0.0
C118 C 0.15917 0.41143 0.28856 0.0
C119 C 0.12062 0.40272 0.30091 0.0
C120 C 0.06965 0.42921 0.28574 0.0
C121 C 0.02445 0.41316 0.27748 0.0
C122 C 0.01422 0.44568 0.26908 0.0
C123 C 0.05053 0.49551 0.26875 0.0
C124 C 0.0958 0.5124 0.27751 0.0
C125 C 0.10475 0.47924 0.28605 0.0
C126 C 0.96508 0.42659 0.26019 0.0
C127 C 0.13528 0.56539 0.27752 0.0
C128 C 0.12256 0.45237 0.17003 0.0
C129 C 0.07266 0.43659 0.17074 0.0
C130 C 0.0574 0.46766 0.1769 0.0
C131 C 0.09281 0.51529 0.18249 0.0
C132 C 0.14303 0.53205 0.18097 0.0
C133 C 0.15721 0.5004 0.17456 0.0
C134 C 0.00351 0.44923 0.17786 0.0
C135 C 0.18172 0.58277 0.18664 0.0
C136 C 0.02457 0.79952 0.17219 0.0
C137 C 0.06431 0.80672 0.16068 0.0
C138 C 0.0569 0.72655 0.16246 0.0
C139 C 0.02008 0.67817 0.15955 0.0
C140 C 0.02019 0.64028 0.16827 0.0
C141 C 0.05907 0.65113 0.17978 0.0
C142 C 0.09782 0.69986 0.18215 0.0
C143 C 0.09603 0.73714 0.17359 0.0
C144 C 0.97838 0.58883 0.16536 0.0
C145 C 0.14112 0.71267 0.19375 0.0
C146 C 0.02273 0.59407 0.25683 0.0
C147 C 0.02891 0.56008 0.26584 0.0
C148 C 0.04253 0.52943 0.25841 0.0
C149 C 0.0506 0.53285 0.24153 0.0
C150 C 0.06579 0.50366 0.23376 0.0
C151 C 0.07425 0.50771 0.21721 0.0
C152 C 0.06819 0.54134 0.20778 0.0
C153 C 0.07748 0.54624 0.19099 0.0
C154 C 0.07332 0.5816 0.18214 0.0
C155 C 0.05913 0.61184 0.18954 0.0
C156 C 0.04766 0.60602 0.20615 0.0
C157 C 0.03123 0.63432 0.21381 0.0
C158 C 0.02222 0.6299 0.23033 0.0
C159 C 0.02942 0.5971 0.23986 0.0
C160 C 0.04404 0.56683 0.23224 0.0
C161 C 0.05304 0.57121 0.21536 0.0
C162 C 0.15471 0.36417 0.17747 0.0
C163 C 0.11713 0.37309 0.16825 0.0
O164 O 0.98247 0.72883 0.2875 0.0
O165 O 0.05375 0.76191 0.15419 0.0
O166 O 0.13853 0.42231 0.16508 0.0
O167 O 0.07789 0.3952 0.29291 0.0
H168 H 0.92244 0.68717 0.3007 0.0
H169 H 0.89185 0.68776 0.27233 0.0
H170 H 0.92088 0.75294 0.27313 0.0
H171 H 0.871 0.71663 0.28603 0.0
H172 H 0.06661 0.74673 0.27909 0.0
H173 H 0.91669 0.63355 0.28108 0.0
H174 H 0.11253 0.66722 0.2692 0.0
H175 H 0.12761 0.72991 0.27127 0.0
H176 H 0.10504 0.6977 0.25193 0.0
H177 H 0.88657 0.55575 0.26954 0.0
H178 H 0.9297 0.53537 0.27343 0.0
H179 H 0.92101 0.55196 0.25325 0.0
H180 H 0.13617 0.43573 0.30905 0.0
H181 H 0.19099 0.41132 0.29473 0.0
H182 H 0.17288 0.44734 0.28288 0.0
H183 H 0.14331 0.38322 0.2786 0.0
H184 H 0.99731 0.37471 0.27743 0.0
H185 H 0.13957 0.49285 0.29265 0.0
H186 H 0.96962 0.42817 0.24684 0.0
H187 H 0.94938 0.44976 0.26321 0.0
H188 H 0.93884 0.38835 0.26325 0.0
H189 H 0.16924 0.57249 0.28442 0.0
H190 H 0.12188 0.58807 0.28304 0.0
H191 H 0.14421 0.57718 0.26479 0.0
H192 H 0.08621 0.36148 0.17641 0.0
H193 H 0.04565 0.40004 0.16654 0.0
H194 H 0.1956 0.51243 0.17365 0.0
H195 H 0.99403 0.44514 0.19083 0.0
H196 H 0.98064 0.41348 0.17138 0.0
H197 H 0.99442 0.47596 0.17255 0.0
H198 H 0.21925 0.5901 0.18473 0.0
H199 H 0.17852 0.58793 0.19981 0.0
H200 H 0.17608 0.60999 0.17994 0.0
H201 H 0.10015 0.82432 0.16765 0.0
H202 H 0.0325 0.835 0.17758 0.0
H203 H 0.02315 0.7759 0.18235 0.0
H204 H 0.98825 0.78204 0.16552 0.0
H205 H 0.99039 0.67036 0.15076 0.0
H206 H 0.12571 0.77424 0.17545 0.0
H207 H 0.96284 0.57247 0.17713 0.0
H208 H 0.99204 0.56637 0.15984 0.0
H209 H 0.94882 0.58708 0.15711 0.0
H210 H 0.17165 0.75038 0.19216 0.0
H211 H 0.15465 0.68696 0.19196 0.0
H212 H 0.12983 0.70961 0.20649 0.0
H213 H 0.02398 0.5581 0.27886 0.0
H214 H 0.07155 0.47743 0.24038 0.0
H215 H 0.08606 0.48437 0.21196 0.0
H216 H 0.08189 0.58606 0.16939 0.0
H217 H 0.02541 0.66045 0.20714 0.0
H218 H 0.00991 0.65285 0.23556 0.0
H219 H 0.1873 0.37559 0.1702 0.0
H220 H 0.13841 0.32494 0.18022 0.0
H221 H 0.1667 0.38546 0.18919 0.0
C222 C 0.40896 0.18902 0.63836 0.0
C223 C 0.36787 0.14027 0.63097 0.0
C224 C 0.41189 0.10081 0.62089 0.0
C225 C 0.43412 0.13294 0.60813 0.0
C226 C 0.46571 0.1275 0.59805 0.0
C227 C 0.47435 0.08835 0.60044 0.0
C228 C 0.45162 0.05557 0.6131 0.0
C229 C 0.42094 0.06248 0.62323 0.0
C230 C 0.49005 0.16386 0.58488 0.0
C231 C 0.45965 0.01321 0.61591 0.0
C232 C 0.84651 0.14748 0.58851 0.0
C233 C 0.80401 0.12223 0.59979 0.0
C234 C 0.73682 0.13901 0.60015 0.0
C235 C 0.69876 0.09106 0.60217 0.0
C236 C 0.65004 0.07778 0.59827 0.0
C237 C 0.63923 0.11325 0.59236 0.0
C238 C 0.67713 0.16228 0.59147 0.0
C239 C 0.72554 0.17457 0.59549 0.0
C240 C 0.61028 0.02543 0.59981 0.0
C241 C 0.66673 0.20111 0.58549 0.0
C242 C 0.64709 0.04082 0.49086 0.0
C243 C 0.62128 0.00033 0.50066 0.0
C244 C 0.58179 0.99489 0.50932 0.0
C245 C 0.56842 0.03109 0.50839 0.0
C246 C 0.59249 0.07038 0.49779 0.0
C247 C 0.63121 0.07435 0.48898 0.0
C248 C 0.55569 0.9515 0.52002 0.0
C249 C 0.57881 0.10933 0.49637 0.0
C250 C 0.17212 0.89001 0.51685 0.0
C251 C 0.21792 0.93319 0.51038 0.0
C252 C 0.29752 0.94018 0.50873 0.0
C253 C 0.31897 0.91189 0.51198 0.0
C254 C 0.36858 0.93361 0.51696 0.0
C255 C 0.39765 0.98505 0.51815 0.0
C256 C 0.37675 0.01393 0.51379 0.0
C257 C 0.32667 0.99115 0.50933 0.0
C258 C 0.38956 0.90154 0.52135 0.0
C259 C 0.40704 0.06881 0.51414 0.0
C260 C 0.50733 0.08213 0.58965 0.0
C261 C 0.55546 0.09877 0.59545 0.0
C262 C 0.58941 0.09786 0.5854 0.0
C263 C 0.57571 0.08157 0.56895 0.0
C264 C 0.6098 0.08314 0.55824 0.0
C265 C 0.5961 0.06719 0.54209 0.0
C266 C 0.54747 0.04789 0.53608 0.0
C267 C 0.53301 0.03049 0.51975 0.0
C268 C 0.48432 0.01115 0.51419 0.0
C269 C 0.44924 0.00834 0.52458 0.0
C270 C 0.46313 0.02592 0.54094 0.0
C271 C 0.42894 0.02371 0.55176 0.0
C272 C 0.44327 0.04217 0.5677 0.0
C273 C 0.49215 0.06253 0.57356 0.0
C274 C 0.52677 0.0633 0.56307 0.0
C275 C 0.51245 0.04579 0.54667 0.0
C276 C 0.74802 0.0693 0.50554 0.0
C277 C 0.72299 0.03893 0.48984 0.0
O278 O 0.38209 0.10555 0.63127 0.0
O279 O 0.24862 0.91725 0.50523 0.0
O280 O 0.68819 0.04951 0.48349 0.0
O281 O 0.78462 0.15209 0.60235 0.0
H282 H 0.35925 0.14582 0.61815 0.0
H283 H 0.44183 0.20379 0.63107 0.0
H284 H 0.41965 0.1845 0.65101 0.0
H285 H 0.3968 0.21622 0.63852 0.0
H286 H 0.42752 0.16268 0.60597 0.0
H287 H 0.40369 0.03778 0.63305 0.0
H288 H 0.52988 0.17721 0.58535 0.0
H289 H 0.48468 0.19564 0.58597 0.0
H290 H 0.47463 0.14588 0.57275 0.0
H291 H 0.43581 0.98843 0.62526 0.0
H292 H 0.49834 0.0271 0.62002 0.0
H293 H 0.45254 0.99205 0.60434 0.0
H294 H 0.77675 0.08783 0.5932 0.0
H295 H 0.86328 0.1246 0.58658 0.0
H296 H 0.87495 0.18362 0.59367 0.0
H297 H 0.83289 0.15302 0.57648 0.0
H298 H 0.70699 0.06379 0.60657 0.0
H299 H 0.75509 0.2117 0.59432 0.0
H300 H 0.58012 0.02361 0.60672 0.0
H301 H 0.62392 0.00327 0.60604 0.0
H302 H 0.59489 0.00909 0.58748 0.0
H303 H 0.69965 0.23807 0.58654 0.0
H304 H 0.63753 0.20079 0.59255 0.0
H305 H 0.65324 0.19324 0.5725 0.0
H306 H 0.70516 0.99963 0.49263 0.0
H307 H 0.63201 0.97311 0.50176 0.0
H308 H 0.65089 0.10507 0.4812 0.0
H309 H 0.56601 0.96349 0.533 0.0
H310 H 0.56511 0.92298 0.51746 0.0
H311 H 0.51551 0.93528 0.51826 0.0
H312 H 0.60059 0.13719 0.48741 0.0
H313 H 0.58456 0.12771 0.50845 0.0
H314 H 0.53946 0.09251 0.49262 0.0
H315 H 0.23586 0.95966 0.52086 0.0
H316 H 0.14689 0.90197 0.52104 0.0
H317 H 0.18248 0.87458 0.52737 0.0
H318 H 0.15272 0.86087 0.50728 0.0
H319 H 0.29619 0.87256 0.51124 0.0
H320 H 0.31035 0.01312 0.5063 0.0
H321 H 0.4081 0.91187 0.53369 0.0
H322 H 0.41736 0.90687 0.51258 0.0
H323 H 0.36114 0.86231 0.52112 0.0
H324 H 0.3876 0.08549 0.50781 0.0
H325 H 0.44217 0.08097 0.50832 0.0
H326 H 0.41568 0.08259 0.52698 0.0
H327 H 0.56672 0.11289 0.60789 0.0
H328 H 0.64768 0.0972 0.56215 0.0
H329 H 0.62421 0.06993 0.53443 0.0
H330 H 0.47344 0.99748 0.5017 0.0
H331 H 0.39072 0.00808 0.54802 0.0
H332 H 0.41546 0.03992 0.57542 0.0
H333 H 0.77657 0.06164 0.51047 0.0
H334 H 0.72101 0.06006 0.51501 0.0
H335 H 0.7652 0.10881 0.50312 0.0
C336 C 0.74278 0.63571 0.777 0.0
C337 C 0.73348 0.66963 0.78751 0.0
C338 C 0.71228 0.65021 0.81568 0.0
C339 C 0.68116 0.669 0.81755 0.0
C340 C 0.64683 0.6517 0.82966 0.0
C341 C 0.64308 0.61421 0.83988 0.0
C342 C 0.67521 0.59591 0.83815 0.0
C343 C 0.71023 0.61512 0.8263 0.0
C344 C 0.61406 0.67291 0.83135 0.0
C345 C 0.67165 0.55496 0.8484 0.0
C346 C 0.34183 0.44473 0.7926 0.0
C347 C 0.34051 0.40397 0.80286 0.0
C348 C 0.38039 0.44028 0.82893 0.0
C349 C 0.41405 0.42452 0.83157 0.0
C350 C 0.45811 0.45355 0.84064 0.0
C351 C 0.46869 0.49944 0.847 0.0
C352 C 0.43389 0.51462 0.84478 0.0
C353 C 0.38966 0.48432 0.83594 0.0
C354 C 0.49381 0.43569 0.8431 0.0
C355 C 0.44414 0.5635 0.85125 0.0
C356 C 0.43792 0.45582 0.95383 0.0
C357 C 0.46608 0.43979 0.94614 0.0
C358 C 0.50502 0.47151 0.93676 0.0
C359 C 0.51542 0.52001 0.93485 0.0
C360 C 0.48836 0.5368 0.94318 0.0
C361 C 0.45025 0.5045 0.95277 0.0
C362 C 0.53442 0.45287 0.92864 0.0
C363 C 0.49873 0.58835 0.94153 0.0
C364 C 0.9037 0.80943 0.93018 0.0
C365 C 0.85596 0.79921 0.93742 0.0
C366 C 0.78276 0.71871 0.93814 0.0
C367 C 0.76833 0.66951 0.93641 0.0
C368 C 0.72041 0.63493 0.93107 0.0
C369 C 0.68609 0.6501 0.92768 0.0
C370 C 0.69963 0.69935 0.93045 0.0
C371 C 0.74791 0.73323 0.93569 0.0
C372 C 0.70693 0.58254 0.92846 0.0
C373 C 0.66344 0.71635 0.9274 0.0
C374 C 0.6032 0.59142 0.85144 0.0
C375 C 0.55617 0.55907 0.84493 0.0
C376 C 0.51738 0.53285 0.855 0.0
C377 C 0.52562 0.53811 0.87212 0.0
C378 C 0.48794 0.51058 0.8826 0.0
C379 C 0.49667 0.51549 0.89944 0.0
C380 C 0.54345 0.54808 0.90645 0.0
C381 C 0.55307 0.55226 0.92356 0.0
C382 C 0.59963 0.58601 0.93012 0.0
C383 C 0.63733 0.61533 0.92003 0.0
C384 C 0.62882 0.61065 0.90288 0.0
C385 C 0.66635 0.63864 0.89236 0.0
C386 C 0.65794 0.63287 0.87552 0.0
C387 C 0.6117 0.59893 0.86853 0.0
C388 C 0.57294 0.5715 0.8789 0.0
C389 C 0.58168 0.57692 0.89609 0.0
C390 C 0.33078 0.38768 0.94242 0.0
C391 C 0.36109 0.38011 0.95592 0.0
O392 O 0.74448 0.66512 0.80371 0.0
O393 O 0.83056 0.75103 0.94199 0.0
O394 O 0.39822 0.42492 0.96208 0.0
O395 O 0.33948 0.41409 0.81921 0.0
H396 H 0.69399 0.65777 0.78556 0.0
H397 H 0.71966 0.5975 0.78079 0.0
H398 H 0.78174 0.64562 0.77838 0.0
H399 H 0.73339 0.63784 0.76394 0.0
H400 H 0.68381 0.69719 0.80954 0.0
H401 H 0.73486 0.60129 0.8248 0.0
H402 H 0.57661 0.64612 0.82651 0.0
H403 H 0.62707 0.70709 0.82454 0.0
H404 H 0.61182 0.6805 0.84439 0.0
H405 H 0.69416 0.54015 0.84386 0.0
H406 H 0.63312 0.52484 0.84858 0.0
H407 H 0.6845 0.56848 0.86115 0.0
H408 H 0.37411 0.40245 0.80062 0.0
H409 H 0.34258 0.43711 0.77944 0.0
H410 H 0.37524 0.47991 0.79608 0.0
H411 H 0.30935 0.44831 0.79457 0.0
H412 H 0.40596 0.38975 0.82636 0.0
H413 H 0.36305 0.4958 0.83387 0.0
H414 H 0.50675 0.4402 0.85612 0.0
H415 H 0.52618 0.45783 0.83585 0.0
H416 H 0.47752 0.39681 0.83928 0.0
H417 H 0.41429 0.57088 0.84777 0.0
H418 H 0.47877 0.59288 0.84654 0.0
H419 H 0.44881 0.56496 0.86475 0.0
H420 H 0.37689 0.35919 0.95066 0.0
H421 H 0.45784 0.40259 0.94748 0.0
H422 H 0.4286 0.51659 0.95895 0.0
H423 H 0.52576 0.4491 0.91529 0.0
H424 H 0.52646 0.41687 0.93321 0.0
H425 H 0.57413 0.47917 0.93068 0.0
H426 H 0.47305 0.59517 0.94826 0.0
H427 H 0.49614 0.59612 0.92846 0.0
H428 H 0.53658 0.61419 0.94629 0.0
H429 H 0.8351 0.80602 0.92753 0.0
H430 H 0.92483 0.84794 0.92644 0.0
H431 H 0.89556 0.78548 0.91923 0.0
H432 H 0.92646 0.80229 0.93915 0.0
H433 H 0.79532 0.65859 0.93864 0.0
H434 H 0.75838 0.77099 0.93772 0.0
H435 H 0.69618 0.57172 0.9154 0.0
H436 H 0.67497 0.5585 0.93563 0.0
H437 H 0.7375 0.57638 0.93207 0.0
H438 H 0.6784 0.75484 0.93147 0.0
H439 H 0.62961 0.69292 0.93385 0.0
H440 H 0.65316 0.71294 0.91417 0.0
H441 H 0.54978 0.55361 0.8318 0.0
H442 H 0.45134 0.48465 0.87789 0.0
H443 H 0.46626 0.49326 0.9069 0.0
H444 H 0.6068 0.58906 0.94324 0.0
H445 H 0.70284 0.66506 0.89702 0.0
H446 H 0.68819 0.6552 0.86801 0.0
H447 H 0.31492 0.40911 0.94722 0.0
H448 H 0.3007 0.35206 0.93745 0.0
H449 H 0.35415 0.40762 0.93224 0.0
C450 C 0.02314 0.21409 0.08358 0.0
C451 C 0.04194 0.18245 0.08391 0.0
C452 C 0.0319 0.246 0.09683 0.0
C453 C 0.06002 0.24621 0.11073 0.0
C454 C 0.07825 0.21376 0.11128 0.0
C455 C 0.06902 0.18235 0.0979 0.0
C456 C 0.01181 0.28006 0.09584 0.0
C457 C 0.10824 0.21272 0.12592 0.0
C458 C 0.12884 0.35722 0.13904 0.0
C459 C 0.09944 0.34302 0.15252 0.0
C460 C 0.11535 0.32689 0.12506 0.0
C461 C 0.07165 0.28108 0.12461 0.0
C462 C 0.04115 0.26715 0.13799 0.0
C463 C 0.05554 0.29822 0.15182 0.0
C464 C 0.14889 0.34302 0.11105 0.0
C465 C 0.99434 0.21857 0.13798 0.0
H466 H 0.00211 0.21448 0.07288 0.0
H467 H 0.08355 0.15797 0.09837 0.0
H468 H 0.98928 0.2751 0.10641 0.0
H469 H 0.04233 0.31837 0.09643 0.0
H470 H 0.98913 0.27416 0.08444 0.0
H471 H 0.11862 0.18439 0.1246 0.0
H472 H 0.14208 0.24869 0.12775 0.0
H473 H 0.08745 0.20567 0.13708 0.0
H474 H 0.16315 0.39151 0.13965 0.0
H475 H 0.03306 0.28692 0.16229 0.0
H476 H 0.12815 0.3399 0.09944 0.0
H477 H 0.1645 0.31891 0.10983 0.0
H478 H 0.17945 0.38119 0.11277 0.0
H479 H 0.97146 0.21335 0.12671 0.0
H480 H 0.9727 0.21503 0.1487 0.0
H481 H 0.00294 0.1888 0.13813 0.0
C482 C 0.91055 0.06538 0.42243 0.0
C483 C 0.95872 0.09825 0.42811 0.0
C484 C 0.87066 0.05849 0.4312 0.0
C485 C 0.87913 0.08457 0.4461 0.0
C486 C 0.92749 0.1194 0.45153 0.0
C487 C 0.96666 0.12613 0.44239 0.0
C488 C 0.81956 0.02168 0.42486 0.0
C489 C 0.93808 0.14764 0.46744 0.0
C490 C 0.77484 0.08694 0.46641 0.0
C491 C 0.76118 0.04938 0.47758 0.0
C492 C 0.81249 0.09821 0.45581 0.0
C493 C 0.83792 0.07226 0.45674 0.0
C494 C 0.82465 0.03476 0.46811 0.0
C495 C 0.78643 0.02376 0.47834 0.0
C496 C 0.8254 0.13814 0.44374 0.0
C497 C 0.8514 0.00677 0.46969 0.0
H498 H 0.90392 0.04408 0.41131 0.0
H499 H 0.00365 0.15181 0.44686 0.0
H500 H 0.80385 0.98999 0.43296 0.0
H501 H 0.79563 0.03776 0.42495 0.0
H502 H 0.81883 0.00837 0.41228 0.0
H503 H 0.97723 0.17606 0.46929 0.0
H504 H 0.91568 0.16534 0.46793 0.0
H505 H 0.92806 0.12229 0.47772 0.0
H506 H 0.75632 0.10773 0.46602 0.0
H507 H 0.77668 0.99551 0.48722 0.0
H508 H 0.82371 0.12407 0.43121 0.0
H509 H 0.86341 0.16817 0.44643 0.0
H510 H 0.80059 0.15324 0.44402 0.0
H511 H 0.84886 0.98847 0.45788 0.0
H512 H 0.83658 0.97877 0.47918 0.0
H513 H 0.89072 0.03221 0.47283 0.0
C514 C 0.91416 0.91315 0.74267 0.0
C515 C 0.9152 0.95496 0.74873 0.0
C516 C 0.88439 0.8674 0.74933 0.0
C517 C 0.85538 0.86339 0.7625 0.0
C518 C 0.85646 0.90542 0.76876 0.0
C519 C 0.88608 0.95061 0.76174 0.0
C520 C 0.88378 0.82328 0.7422 0.0
C521 C 0.82646 0.90266 0.78291 0.0
C522 C 0.74577 0.739 0.76972 0.0
C523 C 0.7642 0.72166 0.78216 0.0
C524 C 0.77481 0.78531 0.76336 0.0
C525 C 0.82355 0.81506 0.76962 0.0
C526 C 0.84225 0.79805 0.78233 0.0
C527 C 0.81254 0.75131 0.78832 0.0
C528 C 0.75374 0.80189 0.74967 0.0
C529 C 0.89393 0.82887 0.78938 0.0
H530 H 0.93632 0.91605 0.73259 0.0
H531 H 0.8868 0.98269 0.76659 0.0
H532 H 0.89536 0.80599 0.75173 0.0
H533 H 0.84607 0.79586 0.7378 0.0
H534 H 0.90821 0.8325 0.73188 0.0
H535 H 0.83207 0.93887 0.78654 0.0
H536 H 0.78708 0.87789 0.77967 0.0
H537 H 0.83613 0.88728 0.79359 0.0
H538 H 0.70876 0.71574 0.76472 0.0
H539 H 0.82736 0.73768 0.79768 0.0
H540 H 0.77503 0.80824 0.73867 0.0
H541 H 0.75653 0.83696 0.75314 0.0
H542 H 0.71482 0.77484 0.74645 0.0
H543 H 0.9201 0.83546 0.77984 0.0
H544 H 0.90203 0.81141 0.79981 0.0
H545 H 0.90035 0.86492 0.79356 0.0
C546 C 0.10522 0.99488 0.08874 0.0
C547 C 0.06424 0.00051 0.08698 0.0
C548 C 0.10748 0.96384 0.10047 0.0
C549 C 0.06839 0.93897 0.11091 0.0
C550 C 0.02753 0.94563 0.10943 0.0
C551 C 0.02568 0.97583 0.09734 0.0
C552 C 0.15116 0.95683 0.10146 0.0
C553 C 0.98566 0.92073 0.12059 0.0
C554 C 0.04579 0.82312 0.13157 0.0
C555 C 0.06753 0.84077 0.14722 0.0
C556 C 0.04736 0.85495 0.11947 0.0
C557 C 0.06968 0.90539 0.12325 0.0
C558 C 0.09134 0.92339 0.13903 0.0
C559 C 0.09036 0.89093 0.15076 0.0
C560 C 0.02452 0.83449 0.10269 0.0
C561 C 0.11437 0.97673 0.14367 0.0
H562 H 0.13493 0.0137 0.08066 0.0
H563 H 0.99411 0.98043 0.09608 0.0
H564 H 0.16919 0.96708 0.11386 0.0
H565 H 0.13906 0.91784 0.09924 0.0
H566 H 0.17847 0.97881 0.09245 0.0
H567 H 0.95774 0.93162 0.11835 0.0
H568 H 0.96771 0.88065 0.11885 0.0
H569 H 0.99954 0.9296 0.1335 0.0
H570 H 0.02732 0.78441 0.12873 0.0
H571 H 0.10662 0.90458 0.1629 0.0
H572 H 0.05118 0.85433 0.09328 0.0
H573 H 0.9928 0.83961 0.10019 0.0
H574 H 0.01189 0.79506 0.10136 0.0
H575 H 0.14355 0.99914 0.13531 0.0
H576 H 0.13033 0.98498 0.15639 0.0
H577 H 0.08652 0.988 0.14242 0.0
C578 C 0.07445 0.01146 0.44791 0.0
C579 C 0.10066 0.03891 0.43483 0.0
C580 C 0.09713 0.9987 0.46041 0.0
C581 C 0.14724 0.0135 0.45974 0.0
C582 C 0.17423 0.04246 0.44675 0.0
C583 C 0.15034 0.05412 0.43428 0.0
C584 C 0.06688 0.96758 0.47396 0.0
C585 C 0.22784 0.05964 0.44572 0.0
C586 C 0.20725 0.0012 0.49915 0.0
C587 C 0.20432 0.95626 0.49656 0.0
C588 C 0.19058 0.02121 0.48706 0.0
C589 C 0.17006 0.99552 0.47203 0.0
C590 C 0.16817 0.95061 0.46919 0.0
C591 C 0.18548 0.9316 0.48147 0.0
C592 C 0.19397 0.06931 0.49052 0.0
C593 C 0.1461 0.9217 0.45342 0.0
H594 H 0.03576 0.99899 0.44813 0.0
H595 H 0.1701 0.07378 0.42384 0.0
H596 H 0.06512 0.93185 0.47353 0.0
H597 H 0.08415 0.98517 0.48599 0.0
H598 H 0.02901 0.96109 0.47311 0.0
H599 H 0.24428 0.08472 0.4355 0.0
H600 H 0.24803 0.07863 0.45728 0.0
H601 H 0.23286 0.02787 0.44399 0.0
H602 H 0.22178 0.02033 0.51081 0.0
H603 H 0.18306 0.89673 0.47948 0.0
H604 H 0.15693 0.06478 0.48972 0.0
H605 H 0.21579 0.09548 0.48121 0.0
H606 H 0.21125 0.08495 0.50277 0.0
H607 H 0.1068 0.91034 0.45212 0.0
H608 H 0.14945 0.88861 0.45283 0.0
H609 H 0.16409 0.94457 0.44289 0.0
C610 C 0.11413 0.1432 0.77114 0.0
C611 C 0.09654 0.1522 0.75642 0.0
C612 C 0.14961 0.18193 0.78113 0.0
C613 C 0.16849 0.23041 0.77601 0.0
C614 C 0.14905 0.23953 0.76149 0.0
C615 C 0.11382 0.20024 0.75176 0.0
C616 C 0.16839 0.17102 0.7968 0.0
C617 C 0.16729 0.2907 0.75581 0.0
C618 C 0.24989 0.34227 0.80302 0.0
C619 C 0.29623 0.35565 0.79764 0.0
C620 C 0.208 0.30004 0.79679 0.0
C621 C 0.21246 0.27119 0.7846 0.0
C622 C 0.25936 0.2839 0.77945 0.0
C623 C 0.3006 0.326 0.786 0.0
C624 C 0.15912 0.28852 0.80269 0.0
C625 C 0.26583 0.25425 0.76646 0.0
H626 H 0.10096 0.1059 0.77462 0.0
H627 H 0.10125 0.20709 0.74011 0.0
H628 H 0.20699 0.18077 0.79571 0.0
H629 H 0.16755 0.19347 0.807 0.0
H630 H 0.14666 0.13197 0.79986 0.0
H631 H 0.1461 0.29164 0.74481 0.0
H632 H 0.16495 0.31322 0.76567 0.0
H633 H 0.20626 0.30765 0.7529 0.0
H634 H 0.24619 0.36556 0.81179 0.0
H635 H 0.33629 0.33664 0.78165 0.0
H636 H 0.13148 0.24923 0.80132 0.0
H637 H 0.14597 0.30951 0.79549 0.0
H638 H 0.16242 0.29994 0.81569 0.0
H639 H 0.24765 0.21537 0.76976 0.0
H640 H 0.30493 0.26722 0.76459 0.0
H641 H 0.2483 0.2563 0.75472 0.0
C642 C 0.88127 0.07336 0.68948 0.0
C643 C 0.92411 0.07094 0.6888 0.0
C644 C 0.85766 0.07755 0.67524 0.0
C645 C 0.87785 0.08024 0.65999 0.0
C646 C 0.92011 0.07614 0.65916 0.0
C647 C 0.9425 0.07113 0.67356 0.0
C648 C 0.8121 0.08083 0.67659 0.0
C649 C 0.94305 0.07939 0.64314 0.0
C650 C 0.80404 0.06282 0.62026 0.0
C651 C 0.82086 0.11116 0.61592 0.0
C652 C 0.82134 0.05208 0.63478 0.0
C653 C 0.85681 0.09065 0.64505 0.0
C654 C 0.87333 0.13952 0.64085 0.0
C655 C 0.8548 0.14916 0.62641 0.0
C656 C 0.80222 0.99954 0.639 0.0
C657 C 0.91143 0.18168 0.65142 0.0
H658 H 0.8666 0.07286 0.7012 0.0
H659 H 0.97574 0.06959 0.67292 0.0
H660 H 0.81989 0.11784 0.67336 0.0
H661 H 0.78275 0.05463 0.66787 0.0
H662 H 0.79841 0.07334 0.68908 0.0
H663 H 0.97428 0.07288 0.64445 0.0
H664 H 0.91556 0.05248 0.63412 0.0
H665 H 0.95631 0.11608 0.6381 0.0
H666 H 0.77762 0.03337 0.61221 0.0
H667 H 0.86756 0.18654 0.62314 0.0
H668 H 0.78801 0.99284 0.65141 0.0
H669 H 0.83236 0.99142 0.63912 0.0
H670 H 0.77264 0.97388 0.63021 0.0
H671 H 0.89857 0.17928 0.6639 0.0
H672 H 0.92012 0.21751 0.64647 0.0
H673 H 0.94554 0.18003 0.65247 0.0
C674 C 0.9998 0.01111 0.00166 0.0
C675 C 0.97661 0.01112 0.01574 0.0
C676 C 0.97388 0.97826 0.98866 0.0
C677 C 0.92365 0.94383 0.98995 0.0
C678 C 0.8995 0.94518 0.00388 0.0
C679 C 0.92653 0.97854 0.01675 0.0
C680 C 0.00108 0.97841 0.97401 0.0
C681 C 0.8459 0.90965 0.00561 0.0
C682 C 0.86102 0.8738 0.95038 0.0
C683 C 0.86652 0.83294 0.95197 0.0
C684 C 0.87655 0.90886 0.96307 0.0
C685 C 0.8987 0.90323 0.9776 0.0
C686 C 0.90226 0.86084 0.97954 0.0
C687 C 0.88616 0.82624 0.96669 0.0
C688 C 0.87155 0.95308 0.96058 0.0
C689 C 0.92565 0.85333 0.99482 0.0
H690 H 0.03879 0.03593 0.00107 0.0
H691 H 0.90902 0.97773 0.02788 0.0
H692 H 0.00324 0.94467 0.97364 0.0
H693 H 0.98131 0.97886 0.9626 0.0
H694 H 0.0388 0.01025 0.97427 0.0
H695 H 0.83128 0.91985 0.016 0.0
H696 H 0.82451 0.90759 0.99428 0.0
H697 H 0.84033 0.87274 0.00762 0.0
H698 H 0.84594 0.87911 0.93899 0.0
H699 H 0.89065 0.79476 0.9679 0.0
H700 H 0.90826 0.98549 0.95933 0.0
H701 H 0.85546 0.95968 0.97131 0.0
H702 H 0.84836 0.94927 0.94951 0.0
H703 H 0.96516 0.88105 0.99572 0.0
H704 H 0.92177 0.81661 0.99498 0.0
H705 H 0.90914 0.85814 0.00578 0.0
C706 C 0.04524 0.94352 0.36012 0.0
C707 C 0.0108 0.95771 0.36281 0.0
C708 C 0.03492 0.90588 0.34884 0.0
C709 C 0.9894 0.88247 0.33986 0.0
C710 C 0.95499 0.89752 0.34223 0.0
C711 C 0.96595 0.93469 0.35378 0.0
C712 C 0.07227 0.89041 0.34682 0.0
C713 C 0.9064 0.87401 0.33268 0.0
C714 C 0.97855 0.81211 0.30095 0.0
C715 C 0.95335 0.76375 0.30604 0.0
C716 C 0.99024 0.85108 0.31179 0.0
C717 C 0.97733 0.84157 0.32821 0.0
C718 C 0.95266 0.79293 0.3335 0.0
C719 C 0.94065 0.75459 0.32233 0.0
C720 C 0.01605 0.90238 0.30564 0.0
C721 C 0.93894 0.78139 0.35098 0.0
H722 H 0.07985 0.96099 0.36713 0.0
H723 H 0.93928 0.94568 0.35576 0.0
H724 H 0.05654 0.85164 0.35003 0.0
H725 H 0.08208 0.8934 0.33391 0.0
H726 H 0.10615 0.91271 0.35458 0.0
H727 H 0.88459 0.89136 0.33545 0.0
H728 H 0.91218 0.8763 0.31941 0.0
H729 H 0.88486 0.83482 0.3355 0.0
H730 H 0.98885 0.81938 0.28842 0.0
H731 H 0.92141 0.71735 0.32635 0.0
H732 H 0.05151 0.9246 0.31257 0.0
H733 H 0.9938 0.91971 0.30763 0.0
H734 H 0.02294 0.90353 0.29246 0.0
H735 H 0.97203 0.80078 0.35929 0.0
H736 H 0.92102 0.74175 0.35324 0.0
H737 H 0.91373 0.79435 0.35417 0.0
C738 C 0.16758 0.1272 0.68819 0.0
C739 C 0.12724 0.08077 0.69034 0.0
C740 C 0.205 0.13381 0.67818 0.0
C741 C 0.20168 0.09309 0.66989 0.0
C742 C 0.16059 0.0462 0.67176 0.0
C743 C 0.12398 0.04053 0.68208 0.0
C744 C 0.24849 0.18435 0.67666 0.0
C745 C 0.15544 0.00206 0.66293 0.0
C746 C 0.28191 0.12432 0.63373 0.0
C747 C 0.32241 0.12275 0.64053 0.0
C748 C 0.24136 0.11262 0.64294 0.0
C749 C 0.24169 0.0999 0.65944 0.0
C750 C 0.2819 0.09699 0.66625 0.0
C751 C 0.32163 0.10815 0.65668 0.0
C752 C 0.19889 0.11548 0.63517 0.0
C753 C 0.2839 0.08409 0.68384 0.0
H754 H 0.17048 0.15843 0.69462 0.0
H755 H 0.09279 0.00457 0.68366 0.0
H756 H 0.28249 0.18475 0.68076 0.0
H757 H 0.25208 0.19497 0.66372 0.0
H758 H 0.24561 0.21212 0.68398 0.0
H759 H 0.12052 0.96841 0.66527 0.0
H760 H 0.15729 0.00792 0.6496 0.0
H761 H 0.18614 0.99646 0.6668 0.0
H762 H 0.28234 0.13568 0.62127 0.0
H763 H 0.3529 0.10696 0.66197 0.0
H764 H 0.19676 0.14586 0.64095 0.0
H765 H 0.16403 0.08146 0.63717 0.0
H766 H 0.20225 0.12148 0.62185 0.0
H767 H 0.28489 0.11259 0.69193 0.0
H768 H 0.31647 0.08076 0.68701 0.0
H769 H 0.25061 0.04922 0.68642 0.0
C770 C 0.13237 0.22515 0.00871 0.0
C771 C 0.1394 0.20034 0.02172 0.0
C772 C 0.17101 0.25612 0.99913 0.0
C773 C 0.21825 0.26344 0.00283 0.0
C774 C 0.22619 0.24025 0.01634 0.0
C775 C 0.18657 0.20859 0.02555 0.0
C776 C 0.16083 0.2796 0.98468 0.0
C777 C 0.2763 0.24802 0.02084 0.0
C778 C 0.3009 0.29943 0.96729 0.0
C779 C 0.32817 0.35028 0.96926 0.0
C780 C 0.26604 0.27066 0.97839 0.0
C781 C 0.25846 0.29324 0.99193 0.0
C782 C 0.28679 0.34444 0.99428 0.0
C783 C 0.32077 0.37247 0.98277 0.0
C784 C 0.23588 0.21627 0.97526 0.0
C785 C 0.28014 0.36974 0.00867 0.0
H786 H 0.09622 0.21932 0.00565 0.0
H787 H 0.19253 0.19 0.03565 0.0
H788 H 0.18505 0.31972 0.98558 0.0
H789 H 0.1688 0.26681 0.97327 0.0
H790 H 0.12228 0.27111 0.9837 0.0
H791 H 0.2772 0.23058 0.03246 0.0
H792 H 0.28792 0.23266 0.01103 0.0
H793 H 0.3034 0.28755 0.02201 0.0
H794 H 0.3059 0.2823 0.9567 0.0
H795 H 0.34094 0.4118 0.98423 0.0
H796 H 0.19688 0.20532 0.97305 0.0
H797 H 0.23833 0.19673 0.9861 0.0
H798 H 0.24774 0.2042 0.96456 0.0
H799 H 0.24372 0.36662 0.00745 0.0
H800 H 0.30847 0.40898 0.00969 0.0
H801 H 0.2815 0.35202 0.02015 0.0
C802 C 0.03981 0.17059 0.35906 0.0
C803 C 0.07982 0.18207 0.36988 0.0
C804 C 0.04263 0.20341 0.34712 0.0
C805 C 0.0869 0.24807 0.34572 0.0
C806 C 0.12785 0.25898 0.35627 0.0
C807 C 0.1236 0.22618 0.36836 0.0
C808 C 0.99786 0.19102 0.33635 0.0
C809 C 0.17608 0.30563 0.35493 0.0
C810 C 0.1131 0.31993 0.30688 0.0
C811 C 0.10873 0.35989 0.31184 0.0
C812 C 0.10516 0.28271 0.31767 0.0
C813 C 0.09049 0.28428 0.33358 0.0
C814 C 0.08248 0.32244 0.33824 0.0
C815 C 0.09185 0.35978 0.32735 0.0
C816 C 0.11449 0.24283 0.31228 0.0
C817 C 0.06542 0.32464 0.35493 0.0
H818 H 0.00577 0.1367 0.36032 0.0
H819 H 0.15472 0.23507 0.37663 0.0
H820 H 0.98632 0.21808 0.33858 0.0
H821 H 0.00628 0.19297 0.32332 0.0
H822 H 0.96678 0.1541 0.33859 0.0
H823 H 0.20517 0.30724 0.3634 0.0
H824 H 0.18825 0.30932 0.34228 0.0
H825 H 0.17171 0.33734 0.35768 0.0
H826 H 0.12412 0.31811 0.29475 0.0
H827 H 0.08682 0.38962 0.33108 0.0
H828 H 0.08216 0.20655 0.31418 0.0
H829 H 0.14553 0.24507 0.3198 0.0
H830 H 0.12326 0.24536 0.29925 0.0
H831 H 0.03272 0.28932 0.35757 0.0
H832 H 0.05633 0.35395 0.35609 0.0
H833 H 0.09445 0.33136 0.36435 0.0
loop_
_geom_bond_atom_site_label_1
_geom_bond_atom_site_label_2
_geom_bond_distance
_geom_bond_site_symmetry_2
_ccdc_geom_bond_type
Mn0 O5 2.095 . S
Mn0 O15 2.162 . S
Mn0 O16 2.297 1_545 S
Mn0 O24 2.385 1_545 S
Mn0 O25 2.209 . S
Mn0 O26 2.094 . S
Mn1 O6 2.121 . S
Mn1 N8 2.257 1_455 S
Mn1 N17 2.282 1_455 S
Mn1 O25 2.215 . S
Mn1 O27 2.117 . S
C2 O24 1.234 1_645 S
C2 O25 1.283 1_655 S
C3 O15 1.281 1_565 S
C3 O16 1.236 . S
C4 O26 1.240 . S
C4 O27 1.264 . S
O5 Mn0 2.095 . S
O5 C14 1.250 . S
O6 Mn1 2.121 . S
O6 C14 1.258 . S
C7 N8 1.326 . S
C7 C11 1.460 . S
C7 H13 0.929 . S
N8 Mn1 2.257 1_655 S
N8 C7 1.326 . S
N8 C12 1.362 . S
C9 C10 1.258 . S
C9 C12 1.431 . S
C9 C29 1.449 1_554 S
C10 C9 1.258 . S
C10 C11 1.477 . S
C10 H30 0.931 . S
C11 C7 1.460 . S
C11 C10 1.477 . S
C11 H31 0.930 . S
C12 N8 1.362 . S
C12 C9 1.431 . S
C12 C22 1.476 . S
H13 C7 0.929 . S
C14 O5 1.250 . S
C14 O6 1.258 . S
O15 Mn0 2.162 . S
O15 C3 1.281 1_545 S
O16 Mn0 2.297 1_565 S
O16 C3 1.236 . S
N17 Mn1 2.282 1_655 S
N17 C18 1.328 1_654 S
N17 C22 1.318 . S
C18 N17 1.328 1_456 S
C18 C19 1.457 1_455 S
C18 H23 0.929 1_556 S
C19 C18 1.457 1_655 S
C19 C20 1.291 . S
C19 H32 0.931 1_655 S
C20 C19 1.291 . S
C20 C21 1.373 . S
C20 H33 0.929 . S
C21 C20 1.373 . S
C21 C22 1.396 1_556 S
C21 C28 1.403 . S
C22 C12 1.476 . S
C22 N17 1.318 . S
C22 C21 1.396 1_554 S
H23 C18 0.929 1_554 S
O24 Mn0 2.385 1_565 S
O24 C2 1.234 1_465 S
O25 Mn0 2.209 . S
O25 Mn1 2.215 . S
O25 C2 1.283 1_455 S
O26 Mn0 2.094 . S
O26 C4 1.240 . S
O27 Mn1 2.117 . S
O27 C4 1.264 . S
C28 C21 1.403 . S
C28 C29 1.399 . S
C28 H34 0.929 . S
C29 C9 1.449 1_556 S
C29 C28 1.399 . S
C29 H35 0.930 . S
H30 C10 0.931 . S
H31 C11 0.930 . S
H32 C19 0.931 1_455 S
H33 C20 0.929 . S
H34 C28 0.929 . S
H35 C29 0.930 . S
Mn36 O41 2.095 . S
Mn36 O51 2.162 1_445 S
Mn36 O52 2.297 . S
Mn36 O60 2.385 . S
Mn36 O61 2.209 . S
Mn36 O62 2.094 1_455 S
Mn37 O42 2.121 . S
Mn37 N44 2.257 . S
Mn37 N53 2.282 . S
Mn37 O61 2.215 . S
Mn37 O63 2.117 1_455 S
C38 O60 1.234 . S
C38 O61 1.283 . S
C39 O51 1.281 1_455 S
C39 O52 1.236 1_565 S
C40 O62 1.240 . S
C40 O63 1.264 . S
O41 Mn36 2.095 . S
O41 C50 1.250 . S
O42 Mn37 2.121 . S
O42 C50 1.258 . S
C43 N44 1.326 . S
C43 C47 1.460 . S
C43 H49 0.929 . S
N44 Mn37 2.257 . S
N44 C43 1.326 . S
N44 C48 1.362 . S
C45 C46 1.258 . S
C45 C48 1.431 . S
C45 C65 1.449 . S
C46 C45 1.258 . S
C46 C47 1.477 . S
C46 H66 0.931 . S
C47 C43 1.460 . S
C47 C46 1.477 . S
C47 H67 0.930 . S
C48 N44 1.362 . S
C48 C45 1.431 . S
C48 C58 1.476 . S
H49 C43 0.929 . S
C50 O41 1.250 . S
C50 O42 1.258 . S
O51 Mn36 2.162 1_665 S
O51 C39 1.281 1_655 S
O52 Mn36 2.297 . S
O52 C39 1.236 1_545 S
N53 Mn37 2.282 . S
N53 C54 1.328 . S
N53 C58 1.318 . S
C54 N53 1.328 . S
C54 C55 1.457 . S
C54 H59 0.929 . S
C55 C54 1.457 . S
C55 C56 1.291 . S
C55 H68 0.931 . S
C56 C55 1.291 . S
C56 C57 1.373 . S
C56 H69 0.929 . S
C57 C56 1.373 . S
C57 C58 1.396 . S
C57 C64 1.403 . S
C58 C48 1.476 . S
C58 N53 1.318 . S
C58 C57 1.396 . S
H59 C54 0.929 . S
O60 Mn36 2.385 . S
O60 C38 1.234 . S
O61 Mn36 2.209 . S
O61 Mn37 2.215 . S
O61 C38 1.283 . S
O62 Mn36 2.094 1_655 S
O62 C40 1.240 . S
O63 Mn37 2.117 1_655 S
O63 C40 1.264 . S
C64 C57 1.403 . S
C64 C65 1.399 . S
C64 H70 0.929 . S
C65 C45 1.449 . S
C65 C64 1.399 . S
C65 H71 0.930 . S
H66 C46 0.931 . S
H67 C47 0.930 . S
H68 C55 0.931 . S
H69 C56 0.929 . S
H70 C64 0.929 . S
H71 C65 0.930 . S
Mn72 O77 2.095 1_455 S
Mn72 O87 2.162 . S
Mn72 O88 2.297 . S
Mn72 O96 2.385 . S
Mn72 O97 2.209 . S
Mn72 O98 2.094 1_545 S
Mn73 O78 2.121 . S
Mn73 N80 2.257 1_655 S
Mn73 N89 2.282 1_655 S
Mn73 O97 2.215 1_655 S
Mn73 O99 2.117 . S
C74 O96 1.234 . S
C74 O97 1.283 . S
C75 O87 1.281 . S
C75 O88 1.236 . S
C76 O98 1.240 1_655 S
C76 O99 1.264 1_565 S
O77 Mn72 2.095 1_655 S
O77 C86 1.250 . S
O78 Mn73 2.121 . S
O78 C86 1.258 . S
C79 N80 1.326 . S
C79 C83 1.460 . S
C79 H85 0.929 1_455 S
N80 Mn73 2.257 1_455 S
N80 C79 1.326 . S
N80 C84 1.362 . S
C81 C82 1.258 . S
C81 C84 1.431 . S
C81 C101 1.449 . S
C82 C81 1.258 . S
C82 C83 1.477 . S
C82 H102 0.931 . S
C83 C79 1.460 . S
C83 C82 1.477 . S
C83 H103 0.930 . S
C84 N80 1.362 . S
C84 C81 1.431 . S
C84 C94 1.476 . S
H85 C79 0.929 1_655 S
C86 O77 1.250 . S
C86 O78 1.258 . S
O87 Mn72 2.162 . S
O87 C75 1.281 . S
O88 Mn72 2.297 . S
O88 C75 1.236 . S
N89 Mn73 2.282 1_455 S
N89 C90 1.328 . S
N89 C94 1.318 . S
C90 N89 1.328 . S
C90 C91 1.457 . S
C90 H95 0.929 . S
C91 C90 1.457 . S
C91 C92 1.291 . S
C91 H104 0.931 . S
C92 C91 1.291 . S
C92 C93 1.373 . S
C92 H105 0.929 . S
C93 C92 1.373 . S
C93 C94 1.396 . S
C93 C100 1.403 . S
C94 C84 1.476 . S
C94 N89 1.318 . S
C94 C93 1.396 . S
H95 C90 0.929 . S
O96 Mn72 2.385 . S
O96 C74 1.234 . S
O97 Mn72 2.209 . S
O97 Mn73 2.215 1_455 S
O97 C74 1.283 . S
O98 Mn72 2.094 1_565 S
O98 C76 1.240 1_455 S
O99 Mn73 2.117 . S
O99 C76 1.264 1_545 S
C100 C93 1.403 . S
C100 C101 1.399 . S
C100 H106 0.929 . S
C101 C81 1.449 . S
C101 C100 1.399 . S
C101 H107 0.930 . S
H102 C82 0.931 . S
H103 C83 0.930 . S
H104 C91 0.931 . S
H105 C92 0.929 . S
H106 C100 0.929 . S
H107 C101 0.930 . S
C108 C109 1.560 1_655 S
C108 H169 0.959 . S
C108 H170 0.959 . S
C108 H171 0.960 . S
C109 C108 1.560 1_455 S
C109 O164 1.426 1_455 S
C109 H168 0.980 . S
C110 C111 1.407 . S
C110 C115 1.418 1_455 S
C110 O164 1.334 1_455 S
C111 C110 1.407 . S
C111 C112 1.360 . S
C111 H172 0.929 . S
C112 C111 1.360 . S
C112 C113 1.401 . S
C112 C116 1.527 . S
C113 C112 1.401 . S
C113 C114 1.405 1_455 S
C113 C146 1.587 . S
C114 C113 1.405 1_655 S
C114 C115 1.332 . S
C114 C117 1.496 . S
C115 C110 1.418 1_655 S
C115 C114 1.332 . S
C115 H173 0.929 . S
C116 C112 1.527 . S
C116 H174 0.959 . S
C116 H175 0.961 . S
C116 H176 0.961 . S
C117 C114 1.496 . S
C117 H177 0.960 . S
C117 H178 0.960 . S
C117 H179 0.961 . S
C118 C119 1.517 . S
C118 H181 0.961 . S
C118 H182 0.960 . S
C118 H183 0.959 . S
C119 C118 1.517 . S
C119 O167 1.468 . S
C119 H180 0.980 . S
C120 C121 1.349 . S
C120 C125 1.367 . S
C120 O167 1.408 . S
C121 C120 1.349 . S
C121 C122 1.407 . S
C121 H184 0.930 . S
C122 C121 1.407 . S
C122 C123 1.449 . S
C122 C126 1.535 1_455 S
C123 C122 1.449 . S
C123 C124 1.384 . S
C123 C148 1.553 . S
C124 C123 1.384 . S
C124 C125 1.364 . S
C124 C127 1.450 . S
C125 C120 1.367 . S
C125 C124 1.364 . S
C125 H185 0.931 . S
C126 C122 1.535 1_655 S
C126 H186 0.959 . S
C126 H187 0.961 . S
C126 H188 0.959 . S
C127 C124 1.450 . S
C127 H189 0.960 . S
C127 H190 0.960 . S
C127 H191 0.960 . S
C128 C129 1.309 . S
C128 C133 1.304 . S
C128 O166 1.435 . S
C129 C128 1.309 . S
C129 C130 1.476 . S
C129 H193 0.930 . S
C130 C129 1.476 . S
C130 C131 1.400 . S
C130 C134 1.567 1_455 S
C131 C130 1.400 . S
C131 C132 1.373 . S
C131 C153 1.432 . S
C132 C131 1.373 . S
C132 C133 1.339 . S
C132 C135 1.530 . S
C133 C128 1.304 . S
C133 C132 1.339 . S
C133 H194 0.930 . S
C134 C130 1.567 1_655 S
C134 H195 0.961 . S
C134 H196 0.960 . S
C134 H197 0.958 . S
C135 C132 1.530 . S
C135 H198 0.961 . S
C135 H199 0.960 . S
C135 H200 0.960 . S
C136 C137 1.530 . S
C136 H202 0.961 . S
C136 H203 0.961 1_455 S
C136 H204 0.959 1_455 S
C137 C136 1.530 . S
C137 O165 1.412 . S
C137 H201 0.980 . S
C138 C139 1.288 1_455 S
C138 C143 1.377 . S
C138 O165 1.393 . S
C139 C138 1.288 1_655 S
C139 C140 1.369 . S
C139 H205 0.932 . S
C140 C139 1.369 . S
C140 C141 1.398 1_655 S
C140 C144 1.527 . S
C141 C140 1.398 1_455 S
C141 C142 1.380 . S
C141 C155 1.497 . S
C142 C141 1.380 . S
C142 C143 1.383 . S
C142 C145 1.603 . S
C143 C138 1.377 . S
C143 C142 1.383 . S
C143 H206 0.929 . S
C144 C140 1.527 . S
C144 H207 0.961 . S
C144 H208 0.959 . S
C144 H209 0.959 . S
C145 C142 1.603 . S
C145 H210 0.960 . S
C145 H211 0.962 . S
C145 H212 0.961 . S
C146 C113 1.587 . S
C146 C147 1.360 . S
C146 C159 1.412 . S
C147 C146 1.360 . S
C147 C148 1.365 . S
C147 H213 0.929 . S
C148 C123 1.553 . S
C148 C147 1.365 . S
C148 C149 1.404 . S
C149 C148 1.404 . S
C149 C150 1.395 . S
C149 C160 1.451 . S
C150 C149 1.395 . S
C150 C151 1.322 . S
C150 H214 0.930 . S
C151 C150 1.322 . S
C151 C152 1.459 . S
C151 H215 0.929 . S
C152 C151 1.459 . S
C152 C153 1.445 . S
C152 C161 1.395 . S
C153 C131 1.432 . S
C153 C152 1.445 . S
C153 C154 1.370 . S
C154 C153 1.370 . S
C154 C155 1.438 . S
C154 H216 0.930 . S
C155 C141 1.497 . S
C155 C154 1.438 . S
C155 C156 1.360 . S
C156 C155 1.360 . S
C156 C157 1.401 . S
C156 C161 1.446 . S
C157 C156 1.401 . S
C157 C158 1.347 . S
C157 H217 0.929 . S
C158 C157 1.347 . S
C158 C159 1.455 . S
C158 H218 0.930 . S
C159 C146 1.412 . S
C159 C158 1.455 . S
C159 C160 1.331 . S
C160 C149 1.451 . S
C160 C159 1.331 . S
C160 C161 1.497 . S
C161 C152 1.395 . S
C161 C156 1.446 . S
C161 C160 1.497 . S
C162 C163 1.582 . S
C162 H219 0.962 . S
C162 H220 0.959 . S
C162 H221 0.958 . S
C163 C162 1.582 . S
C163 O166 1.458 . S
C163 H192 0.980 . S
O164 C109 1.426 1_655 S
O164 C110 1.334 1_655 S
O165 C137 1.412 . S
O165 C138 1.393 . S
O166 C128 1.435 . S
O166 C163 1.458 . S
O167 C119 1.468 . S
O167 C120 1.408 . S
H168 C109 0.980 . S
H169 C108 0.959 . S
H170 C108 0.959 . S
H171 C108 0.960 . S
H172 C111 0.929 . S
H173 C115 0.929 . S
H174 C116 0.959 . S
H175 C116 0.961 . S
H176 C116 0.961 . S
H177 C117 0.960 . S
H178 C117 0.960 . S
H179 C117 0.961 . S
H180 C119 0.980 . S
H181 C118 0.961 . S
H182 C118 0.960 . S
H183 C118 0.959 . S
H184 C121 0.930 . S
H185 C125 0.931 . S
H186 C126 0.959 . S
H187 C126 0.961 . S
H188 C126 0.959 . S
H189 C127 0.960 . S
H190 C127 0.960 . S
H191 C127 0.960 . S
H192 C163 0.980 . S
H193 C129 0.930 . S
H194 C133 0.930 . S
H195 C134 0.961 . S
H196 C134 0.960 . S
H197 C134 0.958 . S
H198 C135 0.961 . S
H199 C135 0.960 . S
H200 C135 0.960 . S
H201 C137 0.980 . S
H202 C136 0.961 . S
H203 C136 0.961 1_655 S
H204 C136 0.959 1_655 S
H205 C139 0.932 . S
H206 C143 0.929 . S
H207 C144 0.961 . S
H208 C144 0.959 . S
H209 C144 0.959 . S
H210 C145 0.960 . S
H211 C145 0.962 . S
H212 C145 0.961 . S
H213 C147 0.929 . S
H214 C150 0.930 . S
H215 C151 0.929 . S
H216 C154 0.930 . S
H217 C157 0.929 . S
H218 C158 0.930 . S
H219 C162 0.962 . S
H220 C162 0.959 . S
H221 C162 0.958 . S
C222 C223 1.560 . S
C222 H283 0.959 . S
C222 H284 0.959 . S
C222 H285 0.960 . S
C223 C222 1.560 . S
C223 O278 1.426 . S
C223 H282 0.980 . S
C224 C225 1.407 . S
C224 C229 1.418 . S
C224 O278 1.334 . S
C225 C224 1.407 . S
C225 C226 1.360 . S
C225 H286 0.929 . S
C226 C225 1.360 . S
C226 C227 1.401 . S
C226 C230 1.527 . S
C227 C226 1.401 . S
C227 C228 1.405 . S
C227 C260 1.587 . S
C228 C227 1.405 . S
C228 C229 1.332 . S
C228 C231 1.496 . S
C229 C224 1.418 . S
C229 C228 1.332 . S
C229 H287 0.929 1_545 S
C230 C226 1.527 . S
C230 H288 0.959 . S
C230 H289 0.961 . S
C230 H290 0.961 . S
C231 C228 1.496 . S
C231 H291 0.960 1_545 S
C231 H292 0.960 . S
C231 H293 0.961 . S
C232 C233 1.517 . S
C232 H295 0.961 . S
C232 H296 0.960 . S
C232 H297 0.959 . S
C233 C232 1.517 . S
C233 O281 1.468 . S
C233 H294 0.980 . S
C234 C235 1.349 . S
C234 C239 1.367 . S
C234 O281 1.408 . S
C235 C234 1.349 . S
C235 C236 1.407 . S
C235 H298 0.930 . S
C236 C235 1.407 . S
C236 C237 1.449 . S
C236 C240 1.535 . S
C237 C236 1.449 . S
C237 C238 1.384 . S
C237 C262 1.553 . S
C238 C237 1.384 . S
C238 C239 1.364 . S
C238 C241 1.450 . S
C239 C234 1.367 . S
C239 C238 1.364 . S
C239 H299 0.931 . S
C240 C236 1.535 . S
C240 H300 0.959 . S
C240 H301 0.961 . S
C240 H302 0.959 . S
C241 C238 1.450 . S
C241 H303 0.960 . S
C241 H304 0.960 . S
C241 H305 0.960 . S
C242 C243 1.309 . S
C242 C247 1.304 . S
C242 O280 1.435 . S
C243 C242 1.309 . S
C243 C244 1.476 . S
C243 H307 0.930 . S
C244 C243 1.476 . S
C244 C245 1.400 . S
C244 C248 1.567 . S
C245 C244 1.400 . S
C245 C246 1.373 . S
C245 C267 1.432 . S
C246 C245 1.373 . S
C246 C247 1.339 . S
C246 C249 1.530 . S
C247 C242 1.304 . S
C247 C246 1.339 . S
C247 H308 0.930 . S
C248 C244 1.567 . S
C248 H309 0.961 . S
C248 H310 0.960 . S
C248 H311 0.958 . S
C249 C246 1.530 . S
C249 H312 0.961 . S
C249 H313 0.960 . S
C249 H314 0.960 . S
C250 C251 1.530 . S
C250 H316 0.961 . S
C250 H317 0.961 . S
C250 H318 0.959 . S
C251 C250 1.530 . S
C251 O279 1.412 . S
C251 H315 0.980 . S
C252 C253 1.288 . S
C252 C257 1.377 . S
C252 O279 1.393 . S
C253 C252 1.288 . S
C253 C254 1.369 . S
C253 H319 0.932 1_545 S
C254 C253 1.369 . S
C254 C255 1.398 . S
C254 C258 1.521 1_545 S
C255 C254 1.398 . S
C255 C256 1.380 . S
C255 C269 1.497 . S
C256 C255 1.380 . S
C256 C257 1.383 . S
C256 C259 1.603 . S
C257 C252 1.377 . S
C257 C256 1.383 . S
C257 H320 0.929 . S
C258 C254 1.521 1_565 S
C258 H321 0.961 1_565 S
C258 H322 0.967 1_565 S
C258 H323 0.962 . S
C259 C256 1.603 . S
C259 H324 0.960 . S
C259 H325 0.962 . S
C259 H326 0.961 . S
C260 C227 1.587 . S
C260 C261 1.360 . S
C260 C273 1.412 . S
C261 C260 1.360 . S
C261 C262 1.365 . S
C261 H327 0.929 . S
C262 C237 1.553 . S
C262 C261 1.365 . S
C262 C263 1.404 . S
C263 C262 1.404 . S
C263 C264 1.395 . S
C263 C274 1.451 . S
C264 C263 1.395 . S
C264 C265 1.322 . S
C264 H328 0.930 . S
C265 C264 1.322 . S
C265 C266 1.459 . S
C265 H329 0.929 . S
C266 C265 1.459 . S
C266 C267 1.445 . S
C266 C275 1.395 . S
C267 C245 1.432 . S
C267 C266 1.445 . S
C267 C268 1.370 . S
C268 C267 1.370 . S
C268 C269 1.438 . S
C268 H330 0.930 . S
C269 C255 1.497 . S
C269 C268 1.438 . S
C269 C270 1.360 . S
C270 C269 1.360 . S
C270 C271 1.401 . S
C270 C275 1.446 . S
C271 C270 1.401 . S
C271 C272 1.347 . S
C271 H331 0.929 . S
C272 C271 1.347 . S
C272 C273 1.455 . S
C272 H332 0.930 . S
C273 C260 1.412 . S
C273 C272 1.455 . S
C273 C274 1.331 . S
C274 C263 1.451 . S
C274 C273 1.331 . S
C274 C275 1.497 . S
C275 C266 1.395 . S
C275 C270 1.446 . S
C275 C274 1.497 . S
C276 C277 1.582 . S
C276 H333 0.962 . S
C276 H334 0.959 . S
C276 H335 0.958 . S
C277 C276 1.582 . S
C277 O280 1.458 . S
C277 H306 0.980 . S
O278 C223 1.426 . S
O278 C224 1.334 . S
O279 C251 1.412 . S
O279 C252 1.393 . S
O280 C242 1.435 . S
O280 C277 1.458 . S
O281 C233 1.468 . S
O281 C234 1.408 . S
H282 C223 0.980 . S
H283 C222 0.959 . S
H284 C222 0.959 . S
H285 C222 0.960 . S
H286 C225 0.929 . S
H287 C229 0.929 1_565 S
H288 C230 0.959 . S
H289 C230 0.961 . S
H290 C230 0.961 . S
H291 C231 0.960 1_565 S
H292 C231 0.960 . S
H293 C231 0.961 . S
H294 C233 0.980 . S
H295 C232 0.961 . S
H296 C232 0.960 . S
H297 C232 0.959 . S
H298 C235 0.930 . S
H299 C239 0.931 . S
H300 C240 0.959 . S
H301 C240 0.961 . S
H302 C240 0.959 . S
H303 C241 0.960 . S
H304 C241 0.960 . S
H305 C241 0.960 . S
H306 C277 0.980 . S
H307 C243 0.930 . S
H308 C247 0.930 . S
H309 C248 0.961 . S
H310 C248 0.960 . S
H311 C248 0.958 . S
H312 C249 0.961 . S
H313 C249 0.960 . S
H314 C249 0.960 . S
H315 C251 0.980 . S
H316 C250 0.961 . S
H317 C250 0.961 . S
H318 C250 0.959 . S
H319 C253 0.932 1_565 S
H320 C257 0.929 . S
H321 C258 0.961 1_545 S
H322 C258 0.967 1_545 S
H323 C258 0.962 . S
H324 C259 0.960 . S
H325 C259 0.962 . S
H326 C259 0.961 . S
H327 C261 0.929 . S
H328 C264 0.930 . S
H329 C265 0.929 . S
H330 C268 0.930 . S
H331 C271 0.929 . S
H332 C272 0.930 . S
H333 C276 0.962 . S
H334 C276 0.959 . S
H335 C276 0.958 . S
C336 C337 1.560 . S
C336 H397 0.959 . S
C336 H398 0.959 . S
C336 H399 0.960 . S
C337 C336 1.560 . S
C337 O392 1.426 . S
C337 H396 0.980 . S
C338 C339 1.407 . S
C338 C343 1.418 . S
C338 O392 1.334 . S
C339 C338 1.407 . S
C339 C340 1.360 . S
C339 H400 0.929 . S
C340 C339 1.360 . S
C340 C341 1.401 . S
C340 C344 1.527 . S
C341 C340 1.401 . S
C341 C342 1.405 . S
C341 C374 1.587 . S
C342 C341 1.405 . S
C342 C343 1.332 . S
C342 C345 1.496 . S
C343 C338 1.418 . S
C343 C342 1.332 . S
C343 H401 0.929 . S
C344 C340 1.527 . S
C344 H402 0.959 . S
C344 H403 0.961 . S
C344 H404 0.961 . S
C345 C342 1.496 . S
C345 H405 0.960 . S
C345 H406 0.960 . S
C345 H407 0.961 . S
C346 C347 1.517 . S
C346 H409 0.961 . S
C346 H410 0.960 . S
C346 H411 0.959 . S
C347 C346 1.517 . S
C347 O395 1.468 . S
C347 H408 0.980 . S
C348 C349 1.349 . S
C348 C353 1.367 . S
C348 O395 1.408 . S
C349 C348 1.349 . S
C349 C350 1.407 . S
C349 H412 0.930 . S
C350 C349 1.407 . S
C350 C351 1.449 . S
C350 C354 1.535 . S
C351 C350 1.449 . S
C351 C352 1.384 . S
C351 C376 1.553 . S
C352 C351 1.384 . S
C352 C353 1.364 . S
C352 C355 1.450 . S
C353 C348 1.367 . S
C353 C352 1.364 . S
C353 H413 0.931 . S
C354 C350 1.535 . S
C354 H414 0.959 . S
C354 H415 0.961 . S
C354 H416 0.959 . S
C355 C352 1.450 . S
C355 H417 0.960 . S
C355 H418 0.960 . S
C355 H419 0.960 . S
C356 C357 1.309 . S
C356 C361 1.304 . S
C356 O394 1.435 . S
C357 C356 1.309 . S
C357 C358 1.476 . S
C357 H421 0.930 . S
C358 C357 1.476 . S
C358 C359 1.400 . S
C358 C362 1.567 . S
C359 C358 1.400 . S
C359 C360 1.373 . S
C359 C381 1.432 . S
C360 C359 1.373 . S
C360 C361 1.339 . S
C360 C363 1.530 . S
C361 C356 1.304 . S
C361 C360 1.339 . S
C361 H422 0.930 . S
C362 C358 1.567 . S
C362 H423 0.961 . S
C362 H424 0.960 . S
C362 H425 0.958 . S
C363 C360 1.530 . S
C363 H426 0.961 . S
C363 H427 0.960 . S
C363 H428 0.960 . S
C364 C365 1.530 . S
C364 H430 0.961 . S
C364 H431 0.961 . S
C364 H432 0.959 . S
C365 C364 1.530 . S
C365 O393 1.412 . S
C365 H429 0.980 . S
C366 C367 1.288 . S
C366 C371 1.377 . S
C366 O393 1.393 . S
C367 C366 1.288 . S
C367 C368 1.369 . S
C367 H433 0.932 . S
C368 C367 1.369 . S
C368 C369 1.398 . S
C368 C372 1.527 . S
C369 C368 1.398 . S
C369 C370 1.380 . S
C369 C383 1.497 . S
C370 C369 1.380 . S
C370 C371 1.383 . S
C370 C373 1.603 . S
C371 C366 1.377 . S
C371 C370 1.383 . S
C371 H434 0.929 . S
C372 C368 1.527 . S
C372 H435 0.961 . S
C372 H436 0.959 . S
C372 H437 0.959 . S
C373 C370 1.603 . S
C373 H438 0.960 . S
C373 H439 0.962 . S
C373 H440 0.961 . S
C374 C341 1.587 . S
C374 C375 1.360 . S
C374 C387 1.412 . S
C375 C374 1.360 . S
C375 C376 1.365 . S
C375 H441 0.929 . S
C376 C351 1.553 . S
C376 C375 1.365 . S
C376 C377 1.404 . S
C377 C376 1.404 . S
C377 C378 1.395 . S
C377 C388 1.451 . S
C378 C377 1.395 . S
C378 C379 1.322 . S
C378 H442 0.930 . S
C379 C378 1.322 . S
C379 C380 1.459 . S
C379 H443 0.929 . S
C380 C379 1.459 . S
C380 C381 1.445 . S
C380 C389 1.395 . S
C381 C359 1.432 . S
C381 C380 1.445 . S
C381 C382 1.370 . S
C382 C381 1.370 . S
C382 C383 1.438 . S
C382 H444 0.930 . S
C383 C369 1.497 . S
C383 C382 1.438 . S
C383 C384 1.360 . S
C384 C383 1.360 . S
C384 C385 1.401 . S
C384 C389 1.446 . S
C385 C384 1.401 . S
C385 C386 1.347 . S
C385 H445 0.929 . S
C386 C385 1.347 . S
C386 C387 1.455 . S
C386 H446 0.930 . S
C387 C374 1.412 . S
C387 C386 1.455 . S
C387 C388 1.331 . S
C388 C377 1.451 . S
C388 C387 1.331 . S
C388 C389 1.497 . S
C389 C380 1.395 . S
C389 C384 1.446 . S
C389 C388 1.497 . S
C390 C391 1.582 . S
C390 H447 0.962 . S
C390 H448 0.959 . S
C390 H449 0.958 . S
C391 C390 1.582 . S
C391 O394 1.458 . S
C391 H420 0.980 . S
O392 C337 1.426 . S
O392 C338 1.334 . S
O393 C365 1.412 . S
O393 C366 1.393 . S
O394 C356 1.435 . S
O394 C391 1.458 . S
O395 C347 1.468 . S
O395 C348 1.408 . S
H396 C337 0.980 . S
H397 C336 0.959 . S
H398 C336 0.959 . S
H399 C336 0.960 . S
H400 C339 0.929 . S
H401 C343 0.929 . S
H402 C344 0.959 . S
H403 C344 0.961 . S
H404 C344 0.961 . S
H405 C345 0.960 . S
H406 C345 0.960 . S
H407 C345 0.961 . S
H408 C347 0.980 . S
H409 C346 0.961 . S
H410 C346 0.960 . S
H411 C346 0.959 . S
H412 C349 0.930 . S
H413 C353 0.931 . S
H414 C354 0.959 . S
H415 C354 0.961 . S
H416 C354 0.959 . S
H417 C355 0.960 . S
H418 C355 0.960 . S
H419 C355 0.960 . S
H420 C391 0.980 . S
H421 C357 0.930 . S
H422 C361 0.930 . S
H423 C362 0.961 . S
H424 C362 0.960 . S
H425 C362 0.958 . S
H426 C363 0.961 . S
H427 C363 0.960 . S
H428 C363 0.960 . S
H429 C365 0.980 . S
H430 C364 0.961 . S
H431 C364 0.961 . S
H432 C364 0.959 . S
H433 C367 0.932 . S
H434 C371 0.929 . S
H435 C372 0.961 . S
H436 C372 0.959 . S
H437 C372 0.959 . S
H438 C373 0.960 . S
H439 C373 0.962 . S
H440 C373 0.961 . S
H441 C375 0.929 . S
H442 C378 0.930 . S
H443 C379 0.929 . S
H444 C382 0.930 . S
H445 C385 0.929 . S
H446 C386 0.930 . S
H447 C390 0.962 . S
H448 C390 0.959 . S
H449 C390 0.958 . S
C450 C451 1.391 . S
C450 C452 1.403 . S
C450 H466 0.931 1_455 S
C451 C450 1.391 . S
C451 C455 1.376 . S
C452 C450 1.403 . S
C452 C453 1.381 . S
C452 C456 1.509 1_455 S
C453 C452 1.381 . S
C453 C454 1.410 . S
C453 C461 1.503 . S
C454 C453 1.410 . S
C454 C455 1.392 . S
C454 C457 1.511 . S
C455 C451 1.376 . S
C455 C454 1.392 . S
C455 H467 0.929 . S
C456 C452 1.509 1_655 S
C456 H468 0.960 . S
C456 H469 0.962 . S
C456 H470 0.960 . S
C457 C454 1.511 . S
C457 H471 0.961 . S
C457 H472 0.961 . S
C457 H473 0.961 . S
C458 C459 1.370 . S
C458 C460 1.363 . S
C458 H474 0.931 . S
C459 C458 1.370 . S
C459 C463 1.408 . S
C460 C458 1.363 . S
C460 C461 1.370 . S
C460 C464 1.524 . S
C461 C453 1.503 . S
C461 C460 1.370 . S
C461 C462 1.403 . S
C462 C461 1.403 . S
C462 C463 1.404 . S
C462 C465 1.539 . S
C463 C459 1.408 . S
C463 C462 1.404 . S
C463 H475 0.930 . S
C464 C460 1.524 . S
C464 H476 0.956 . S
C464 H477 0.961 . S
C464 H478 0.961 . S
C465 C462 1.539 . S
C465 H479 0.958 1_455 S
C465 H480 0.961 . S
C465 H481 0.960 . S
H466 C450 0.931 1_655 S
H467 C455 0.929 . S
H468 C456 0.960 . S
H469 C456 0.962 . S
H470 C456 0.960 . S
H471 C457 0.961 . S
H472 C457 0.961 . S
H473 C457 0.961 . S
H474 C458 0.931 . S
H475 C463 0.930 . S
H476 C464 0.956 . S
H477 C464 0.961 . S
H478 C464 0.961 . S
H479 C465 0.958 1_655 S
H480 C465 0.961 . S
H481 C465 0.960 . S
C482 C483 1.391 . S
C482 C484 1.394 . S
C482 H498 0.929 . S
C483 C482 1.391 . S
C483 C487 1.376 . S
C484 C482 1.394 . S
C484 C485 1.369 . S
C484 C488 1.531 1_545 S
C485 C484 1.369 . S
C485 C486 1.410 . S
C485 C493 1.503 . S
C486 C485 1.410 . S
C486 C487 1.392 . S
C486 C489 1.511 . S
C487 C483 1.376 . S
C487 C486 1.392 . S
C487 H499 0.929 . S
C488 C484 1.531 1_565 S
C488 H500 0.960 . S
C488 H501 0.962 1_565 S
C488 H502 0.960 . S
C489 C486 1.511 . S
C489 H503 0.961 . S
C489 H504 0.961 . S
C489 H505 0.961 . S
C490 C491 1.370 . S
C490 C492 1.363 . S
C490 H506 0.931 . S
C491 C490 1.370 . S
C491 C495 1.408 . S
C492 C490 1.363 . S
C492 C493 1.370 . S
C492 C496 1.524 . S
C493 C485 1.503 . S
C493 C492 1.370 . S
C493 C494 1.403 . S
C494 C493 1.403 . S
C494 C495 1.404 . S
C494 C497 1.520 1_545 S
C495 C491 1.408 . S
C495 C494 1.404 . S
C495 H507 0.930 . S
C496 C492 1.524 . S
C496 H508 0.956 . S
C496 H509 0.961 . S
C496 H510 0.961 . S
C497 C494 1.520 1_565 S
C497 H511 0.972 . S
C497 H512 0.963 . S
C497 H513 0.964 1_565 S
H498 C482 0.929 . S
H499 C487 0.929 . S
H500 C488 0.960 . S
H501 C488 0.962 1_545 S
H502 C488 0.960 . S
H503 C489 0.961 . S
H504 C489 0.961 . S
H505 C489 0.961 . S
H506 C490 0.931 . S
H507 C495 0.930 . S
H508 C496 0.956 . S
H509 C496 0.961 . S
H510 C496 0.961 . S
H511 C497 0.972 . S
H512 C497 0.963 . S
H513 C497 0.964 1_545 S
C514 C515 1.391 . S
C514 C516 1.394 . S
C514 H530 0.931 . S
C515 C514 1.391 . S
C515 C519 1.376 . S
C516 C514 1.394 . S
C516 C517 1.369 . S
C516 C520 1.531 . S
C517 C516 1.369 . S
C517 C518 1.410 . S
C517 C525 1.503 . S
C518 C517 1.410 . S
C518 C519 1.392 . S
C518 C521 1.511 . S
C519 C515 1.376 . S
C519 C518 1.392 . S
C519 H531 0.929 . S
C520 C516 1.531 . S
C520 H532 0.960 . S
C520 H533 0.962 . S
C520 H534 0.960 . S
C521 C518 1.511 . S
C521 H535 0.961 . S
C521 H536 0.961 . S
C521 H537 0.961 . S
C522 C523 1.370 . S
C522 C524 1.363 . S
C522 H538 0.931 . S
C523 C522 1.370 . S
C523 C527 1.408 . S
C524 C522 1.363 . S
C524 C525 1.370 . S
C524 C528 1.524 . S
C525 C517 1.503 . S
C525 C524 1.370 . S
C525 C526 1.403 . S
C526 C525 1.403 . S
C526 C527 1.404 . S
C526 C529 1.539 . S
C527 C523 1.408 . S
C527 C526 1.404 . S
C527 H539 0.930 . S
C528 C524 1.524 . S
C528 H540 0.956 . S
C528 H541 0.961 . S
C528 H542 0.961 . S
C529 C526 1.539 . S
C529 H543 0.958 . S
C529 H544 0.961 . S
C529 H545 0.960 . S
H530 C514 0.931 . S
H531 C519 0.929 . S
H532 C520 0.960 . S
H533 C520 0.962 . S
H534 C520 0.960 . S
H535 C521 0.961 . S
H536 C521 0.961 . S
H537 C521 0.961 . S
H538 C522 0.931 . S
H539 C527 0.930 . S
H540 C528 0.956 . S
H541 C528 0.961 . S
H542 C528 0.961 . S
H543 C529 0.958 . S
H544 C529 0.961 . S
H545 C529 0.960 . S
C546 C547 1.391 . S
C546 C548 1.394 . S
C546 H562 0.931 1_565 S
C547 C546 1.391 . S
C547 C551 1.376 . S
C548 C546 1.394 . S
C548 C549 1.369 . S
C548 C552 1.531 . S
C549 C548 1.369 . S
C549 C550 1.410 . S
C549 C557 1.503 . S
C550 C549 1.410 . S
C550 C551 1.392 . S
C550 C553 1.511 1_455 S
C551 C547 1.376 . S
C551 C550 1.392 . S
C551 H563 0.929 . S
C552 C548 1.531 . S
C552 H564 0.960 . S
C552 H565 0.962 . S
C552 H566 0.960 . S
C553 C550 1.511 1_655 S
C553 H567 0.961 . S
C553 H568 0.961 1_655 S
C553 H569 0.961 . S
C554 C555 1.370 . S
C554 C556 1.363 . S
C554 H570 0.931 . S
C555 C554 1.370 . S
C555 C559 1.408 . S
C556 C554 1.363 . S
C556 C557 1.370 . S
C556 C560 1.524 . S
C557 C549 1.503 . S
C557 C556 1.370 . S
C557 C558 1.403 . S
C558 C557 1.403 . S
C558 C559 1.404 . S
C558 C561 1.539 1_455 S
C559 C555 1.408 . S
C559 C558 1.404 . S
C559 H571 0.930 . S
C560 C556 1.524 . S
C560 H572 0.956 . S
C560 H573 0.961 . S
C560 H574 0.961 . S
C561 C558 1.539 1_655 S
C561 H575 0.958 . S
C561 H576 0.961 . S
C561 H577 0.960 . S
H562 C546 0.931 1_545 S
H563 C551 0.929 . S
H564 C552 0.960 . S
H565 C552 0.962 . S
H566 C552 0.960 . S
H567 C553 0.961 . S
H568 C553 0.961 1_455 S
H569 C553 0.961 . S
H570 C554 0.931 . S
H571 C559 0.930 . S
H572 C560 0.956 . S
H573 C560 0.961 . S
H574 C560 0.961 . S
H575 C561 0.958 . S
H576 C561 0.961 . S
H577 C561 0.960 . S
C578 C579 1.391 . S
C578 C580 1.394 . S
C578 H594 0.931 . S
C579 C578 1.391 . S
C579 C583 1.376 . S
C580 C578 1.394 . S
C580 C581 1.369 . S
C580 C584 1.531 . S
C581 C580 1.369 . S
C581 C582 1.410 . S
C581 C589 1.503 . S
C582 C581 1.410 . S
C582 C583 1.392 . S
C582 C585 1.511 . S
C583 C579 1.376 . S
C583 C582 1.392 . S
C583 H595 0.929 . S
C584 C580 1.531 . S
C584 H596 0.960 . S
C584 H597 0.962 . S
C584 H598 0.960 . S
C585 C582 1.511 . S
C585 H599 0.961 . S
C585 H600 0.961 . S
C585 H601 0.961 1_545 S
C586 C587 1.370 . S
C586 C588 1.363 . S
C586 H602 0.931 . S
C587 C586 1.370 . S
C587 C591 1.408 . S
C588 C586 1.363 . S
C588 C589 1.370 . S
C588 C592 1.524 . S
C589 C581 1.503 . S
C589 C588 1.370 . S
C589 C590 1.403 . S
C590 C589 1.403 . S
C590 C591 1.404 . S
C590 C593 1.539 1_545 S
C591 C587 1.408 . S
C591 C590 1.404 . S
C591 H603 0.930 . S
C592 C588 1.524 . S
C592 H604 0.956 . S
C592 H605 0.961 . S
C592 H606 0.961 . S
C593 C590 1.539 1_565 S
C593 H607 0.968 . S
C593 H608 0.961 . S
C593 H609 0.960 . S
H594 C578 0.931 . S
H595 C583 0.929 . S
H596 C584 0.960 . S
H597 C584 0.962 . S
H598 C584 0.960 . S
H599 C585 0.961 . S
H600 C585 0.961 . S
H601 C585 0.961 1_565 S
H602 C586 0.931 . S
H603 C591 0.930 . S
H604 C592 0.956 . S
H605 C592 0.961 . S
H606 C592 0.961 . S
H607 C593 0.968 . S
H608 C593 0.961 . S
H609 C593 0.960 . S
C610 C611 1.391 . S
C610 C612 1.394 . S
C610 H626 0.931 . S
C611 C610 1.391 . S
C611 C615 1.376 . S
C612 C610 1.394 . S
C612 C613 1.369 . S
C612 C616 1.531 . S
C613 C612 1.369 . S
C613 C614 1.410 . S
C613 C621 1.503 . S
C614 C613 1.410 . S
C614 C615 1.392 . S
C614 C617 1.511 . S
C615 C611 1.376 . S
C615 C614 1.392 . S
C615 H627 0.929 . S
C616 C612 1.531 . S
C616 H628 0.960 . S
C616 H629 0.962 . S
C616 H630 0.960 . S
C617 C614 1.511 . S
C617 H631 0.961 . S
C617 H632 0.961 . S
C617 H633 0.961 . S
C618 C619 1.370 . S
C618 C620 1.363 . S
C618 H634 0.931 . S
C619 C618 1.370 . S
C619 C623 1.408 . S
C620 C618 1.363 . S
C620 C621 1.370 . S
C620 C624 1.524 . S
C621 C613 1.503 . S
C621 C620 1.370 . S
C621 C622 1.403 . S
C622 C621 1.403 . S
C622 C623 1.404 . S
C622 C625 1.539 . S
C623 C619 1.408 . S
C623 C622 1.404 . S
C623 H635 0.930 . S
C624 C620 1.524 . S
C624 H636 0.956 . S
C624 H637 0.961 . S
C624 H638 0.961 . S
C625 C622 1.539 . S
C625 H639 0.958 . S
C625 H640 0.961 . S
C625 H641 0.960 . S
H626 C610 0.931 . S
H627 C615 0.929 . S
H628 C616 0.960 . S
H629 C616 0.962 . S
H630 C616 0.960 . S
H631 C617 0.961 . S
H632 C617 0.961 . S
H633 C617 0.961 . S
H634 C618 0.931 . S
H635 C623 0.930 . S
H636 C624 0.956 . S
H637 C624 0.961 . S
H638 C624 0.961 . S
H639 C625 0.958 . S
H640 C625 0.961 . S
H641 C625 0.960 . S
C642 C643 1.391 . S
C642 C644 1.394 . S
C642 H658 0.931 . S
C643 C642 1.391 . S
C643 C647 1.376 . S
C644 C642 1.394 . S
C644 C645 1.369 . S
C644 C648 1.531 . S
C645 C644 1.369 . S
C645 C646 1.410 . S
C645 C653 1.503 . S
C646 C645 1.410 . S
C646 C647 1.392 . S
C646 C649 1.511 . S
C647 C643 1.376 . S
C647 C646 1.392 . S
C647 H659 0.929 . S
C648 C644 1.531 . S
C648 H660 0.960 . S
C648 H661 0.962 . S
C648 H662 0.960 . S
C649 C646 1.511 . S
C649 H663 0.961 . S
C649 H664 0.961 . S
C649 H665 0.961 . S
C650 C651 1.370 . S
C650 C652 1.363 . S
C650 H666 0.931 . S
C651 C650 1.370 . S
C651 C655 1.408 . S
C652 C650 1.363 . S
C652 C653 1.370 . S
C652 C656 1.524 . S
C653 C645 1.503 . S
C653 C652 1.370 . S
C653 C654 1.403 . S
C654 C653 1.403 . S
C654 C655 1.404 . S
C654 C657 1.539 . S
C655 C651 1.408 . S
C655 C654 1.404 . S
C655 H667 0.930 . S
C656 C652 1.524 . S
C656 H668 0.956 1_545 S
C656 H669 0.961 . S
C656 H670 0.961 1_545 S
C657 C654 1.539 . S
C657 H671 0.958 . S
C657 H672 0.961 . S
C657 H673 0.960 . S
H658 C642 0.931 . S
H659 C647 0.929 . S
H660 C648 0.960 . S
H661 C648 0.962 . S
H662 C648 0.960 . S
H663 C649 0.961 . S
H664 C649 0.961 . S
H665 C649 0.961 . S
H666 C650 0.931 . S
H667 C655 0.930 . S
H668 C656 0.956 1_565 S
H669 C656 0.961 . S
H670 C656 0.961 1_565 S
H671 C657 0.958 . S
H672 C657 0.961 . S
H673 C657 0.960 . S
C674 C675 1.391 . S
C674 C676 1.394 . S
C674 H690 0.930 . S
C675 C674 1.391 . S
C675 C679 1.376 . S
C676 C674 1.394 . S
C676 C677 1.369 . S
C676 C680 1.531 1_554 S
C677 C676 1.369 . S
C677 C678 1.410 . S
C677 C685 1.503 1_554 S
C678 C677 1.410 . S
C678 C679 1.392 . S
C678 C681 1.511 . S
C679 C675 1.376 . S
C679 C678 1.392 . S
C679 H691 0.929 . S
C680 C676 1.531 1_556 S
C680 H692 0.960 . S
C680 H693 0.962 . S
C680 H694 0.960 . S
C681 C678 1.511 . S
C681 H695 0.961 . S
C681 H696 0.961 . S
C681 H697 0.961 . S
C682 C683 1.370 . S
C682 C684 1.363 . S
C682 H698 0.931 . S
C683 C682 1.370 . S
C683 C687 1.408 . S
C684 C682 1.363 . S
C684 C685 1.370 . S
C684 C688 1.524 . S
C685 C677 1.503 1_556 S
C685 C684 1.370 . S
C685 C686 1.403 . S
C686 C685 1.403 . S
C686 C687 1.404 . S
C686 C689 1.539 1_556 S
C687 C683 1.408 . S
C687 C686 1.404 . S
C687 H699 0.930 . S
C688 C684 1.524 . S
C688 H700 0.956 . S
C688 H701 0.961 . S
C688 H702 0.961 . S
C689 C686 1.539 1_554 S
C689 H703 0.958 . S
C689 H704 0.961 . S
C689 H705 0.960 . S
H690 C674 0.930 . S
H691 C679 0.929 . S
H692 C680 0.960 . S
H693 C680 0.962 . S
H694 C680 0.960 . S
H695 C681 0.961 . S
H696 C681 0.961 . S
H697 C681 0.961 . S
H698 C682 0.931 . S
H699 C687 0.930 . S
H700 C688 0.956 . S
H701 C688 0.961 . S
H702 C688 0.961 . S
H703 C689 0.958 . S
H704 C689 0.961 . S
H705 C689 0.960 . S
C706 C707 1.391 . S
C706 C708 1.394 . S
C706 H722 0.931 . S
C707 C706 1.391 . S
C707 C711 1.376 . S
C708 C706 1.394 . S
C708 C709 1.369 . S
C708 C712 1.531 . S
C709 C708 1.369 . S
C709 C710 1.410 . S
C709 C717 1.503 . S
C710 C709 1.410 . S
C710 C711 1.392 . S
C710 C713 1.511 . S
C711 C707 1.376 . S
C711 C710 1.392 . S
C711 H723 0.929 . S
C712 C708 1.531 . S
C712 H724 0.960 . S
C712 H725 0.962 . S
C712 H726 0.960 . S
C713 C710 1.511 . S
C713 H727 0.961 . S
C713 H728 0.961 . S
C713 H729 0.961 . S
C714 C715 1.370 1_655 S
C714 C716 1.363 . S
C714 H730 0.931 . S
C715 C714 1.370 1_455 S
C715 C719 1.408 . S
C716 C714 1.363 . S
C716 C717 1.370 1_655 S
C716 C720 1.524 . S
C717 C709 1.503 . S
C717 C716 1.370 1_455 S
C717 C718 1.403 . S
C718 C717 1.403 . S
C718 C719 1.404 . S
C718 C721 1.539 . S
C719 C715 1.408 . S
C719 C718 1.404 . S
C719 H731 0.930 . S
C720 C716 1.524 . S
C720 H732 0.956 . S
C720 H733 0.961 . S
C720 H734 0.961 . S
C721 C718 1.539 . S
C721 H735 0.958 . S
C721 H736 0.961 . S
C721 H737 0.960 . S
H722 C706 0.931 . S
H723 C711 0.929 . S
H724 C712 0.960 . S
H725 C712 0.962 . S
H726 C712 0.960 . S
H727 C713 0.961 . S
H728 C713 0.961 . S
H729 C713 0.961 . S
H730 C714 0.931 . S
H731 C719 0.930 . S
H732 C720 0.956 . S
H733 C720 0.961 . S
H734 C720 0.961 . S
H735 C721 0.958 . S
H736 C721 0.961 . S
H737 C721 0.960 . S
C738 C739 1.391 . S
C738 C740 1.394 . S
C738 H754 0.931 . S
C739 C738 1.391 . S
C739 C743 1.376 . S
C740 C738 1.394 . S
C740 C741 1.369 . S
C740 C744 1.531 . S
C741 C740 1.369 . S
C741 C742 1.410 . S
C741 C749 1.503 . S
C742 C741 1.410 . S
C742 C743 1.392 . S
C742 C745 1.511 . S
C743 C739 1.376 . S
C743 C742 1.392 . S
C743 H755 0.929 . S
C744 C740 1.531 . S
C744 H756 0.960 . S
C744 H757 0.962 . S
C744 H758 0.960 . S
C745 C742 1.511 . S
C745 H759 0.961 . S
C745 H760 0.961 . S
C745 H761 0.961 1_545 S
C746 C747 1.370 . S
C746 C748 1.363 . S
C746 H762 0.931 . S
C747 C746 1.370 . S
C747 C751 1.408 . S
C748 C746 1.363 . S
C748 C749 1.370 . S
C748 C752 1.524 . S
C749 C741 1.503 . S
C749 C748 1.370 . S
C749 C750 1.403 . S
C750 C749 1.403 . S
C750 C751 1.404 . S
C750 C753 1.539 1_545 S
C751 C747 1.408 . S
C751 C750 1.404 . S
C751 H763 0.930 . S
C752 C748 1.524 . S
C752 H764 0.956 . S
C752 H765 0.961 . S
C752 H766 0.961 . S
C753 C750 1.539 1_565 S
C753 H767 0.958 . S
C753 H768 0.961 . S
C753 H769 0.960 . S
H754 C738 0.931 . S
H755 C743 0.929 . S
H756 C744 0.960 . S
H757 C744 0.962 . S
H758 C744 0.960 . S
H759 C745 0.961 . S
H760 C745 0.961 . S
H761 C745 0.961 1_565 S
H762 C746 0.931 . S
H763 C751 0.930 . S
H764 C752 0.956 . S
H765 C752 0.961 . S
H766 C752 0.961 . S
H767 C753 0.958 . S
H768 C753 0.961 . S
H769 C753 0.960 . S
C770 C771 1.391 . S
C770 C772 1.394 . S
C770 H786 0.931 . S
C771 C770 1.391 . S
C771 C775 1.376 . S
C772 C770 1.394 . S
C772 C773 1.369 . S
C772 C776 1.531 . S
C773 C772 1.369 . S
C773 C774 1.410 . S
C773 C781 1.503 1_554 S
C774 C773 1.410 . S
C774 C775 1.392 . S
C774 C777 1.511 1_554 S
C775 C771 1.376 . S
C775 C774 1.392 . S
C775 H787 0.929 . S
C776 C772 1.531 . S
C776 H788 0.960 . S
C776 H789 0.962 1_554 S
C776 H790 0.960 . S
C777 C774 1.511 1_556 S
C777 H791 0.961 . S
C777 H792 0.961 . S
C777 H793 0.961 1_556 S
C778 C779 1.370 . S
C778 C780 1.363 . S
C778 H794 0.931 . S
C779 C778 1.370 . S
C779 C783 1.408 . S
C780 C778 1.363 . S
C780 C781 1.370 . S
C780 C784 1.524 . S
C781 C773 1.503 1_556 S
C781 C780 1.370 . S
C781 C782 1.403 . S
C782 C781 1.403 . S
C782 C783 1.404 . S
C782 C785 1.539 1_556 S
C783 C779 1.408 . S
C783 C782 1.404 . S
C783 H795 0.930 . S
C784 C780 1.524 . S
C784 H796 0.956 . S
C784 H797 0.961 . S
C784 H798 0.961 . S
C785 C782 1.539 1_554 S
C785 H799 0.958 . S
C785 H800 0.961 . S
C785 H801 0.960 . S
H786 C770 0.931 . S
H787 C775 0.929 . S
H788 C776 0.960 . S
H789 C776 0.962 1_556 S
H790 C776 0.960 . S
H791 C777 0.961 . S
H792 C777 0.961 . S
H793 C777 0.961 1_554 S
H794 C778 0.931 . S
H795 C783 0.930 . S
H796 C784 0.956 . S
H797 C784 0.961 . S
H798 C784 0.961 . S
H799 C785 0.958 . S
H800 C785 0.961 . S
H801 C785 0.960 . S
C802 C803 1.391 1_655 S
C802 C804 1.394 . S
C802 H818 0.931 . S
C803 C802 1.391 1_455 S
C803 C807 1.376 . S
C804 C802 1.394 . S
C804 C805 1.369 1_655 S
C804 C808 1.531 . S
C805 C804 1.369 1_455 S
C805 C806 1.410 . S
C805 C813 1.503 . S
C806 C805 1.410 . S
C806 C807 1.392 . S
C806 C809 1.511 . S
C807 C803 1.376 . S
C807 C806 1.392 . S
C807 H819 0.929 . S
C808 C804 1.531 . S
C808 H820 0.960 . S
C808 H821 0.962 . S
C808 H822 0.960 . S
C809 C806 1.511 . S
C809 H823 0.961 . S
C809 H824 0.961 . S
C809 H825 0.961 . S
C810 C811 1.370 . S
C810 C812 1.363 . S
C810 H826 0.931 . S
C811 C810 1.370 . S
C811 C815 1.408 . S
C812 C810 1.363 . S
C812 C813 1.370 . S
C812 C816 1.524 . S
C813 C805 1.503 . S
C813 C812 1.370 . S
C813 C814 1.403 . S
C814 C813 1.403 . S
C814 C815 1.404 . S
C814 C817 1.539 . S
C815 C811 1.408 . S
C815 C814 1.404 . S
C815 H827 0.930 . S
C816 C812 1.524 . S
C816 H828 0.956 . S
C816 H829 0.961 . S
C816 H830 0.961 . S
C817 C814 1.539 . S
C817 H831 0.958 . S
C817 H832 0.961 . S
C817 H833 0.960 . S
H818 C802 0.931 . S
H819 C807 0.929 . S
H820 C808 0.960 . S
H821 C808 0.962 . S
H822 C808 0.960 . S
H823 C809 0.961 . S
H824 C809 0.961 . S
H825 C809 0.961 . S
H826 C810 0.931 . S
H827 C815 0.930 . S
H828 C816 0.956 . S
H829 C816 0.961 . S
H830 C816 0.961 . S
H831 C817 0.958 . S
H832 C817 0.961 . S
H833 C817 0.960 . S
C459 C163 1.137 . S
C451 C14 1.548 . S
C483 C40 1.557 . S
C491 C277 1.199 . S
C515 C76 1.326 . S
C523 C337 1.002 . S
C547 C3 1.376 . S
C555 C137 1.077 . S
C587 C251 1.103 . S
C579 C38 1.422 . S
C611 C74 1.458 . S
C619 C347 0.926 . S
C651 C233 0.888 . S
C643 C86 1.420 . S
C675 C2 1.393 1_565 S
C683 C365 1.117 . S
C715 C109 1.042 . S
C707 C39 1.292 . S
C747 C223 0.991 . S
C739 C75 1.314 . S
C779 C391 1.198 . S
C771 C4 1.542 . S
C803 C50 1.424 . S
C811 C119 0.854 . S
