# Generated by pormake.
# Topology sqc, (4,8)-cn, num edge types: 1
# Building blocks:
#     Node 0, Type 0, BuildingBlock: AZAVOO_clean_linker_0, # of connection points: 4
#     Node 1, Type 0, BuildingBlock: AZAVOO_clean_linker_0, # of connection points: 4
#     Node 2, Type 0, BuildingBlock: AZAVOO_clean_linker_0, # of connection points: 4
#     Node 3, Type 0, BuildingBlock: AZAVOO_clean_linker_0, # of connection points: 4
#     Node 4, Type 0, BuildingBlock: AZAVOO_clean_linker_0, # of connection points: 4
#     Node 5, Type 0, BuildingBlock: AZAVOO_clean_linker_0, # of connection points: 4
#     Node 6, Type 0, BuildingBlock: AZAVOO_clean_linker_0, # of connection points: 4
#     Node 7, Type 0, BuildingBlock: AZAVOO_clean_linker_0, # of connection points: 4
#     Node 8, Type 1, BuildingBlock: TAGTUT_clean_sbu_3, # of connection points: 8
#     Node 9, Type 1, BuildingBlock: TAGTUT_clean_sbu_3, # of connection points: 8
#     Node 10, Type 1, BuildingBlock: TAGTUT_clean_sbu_3, # of connection points: 8
#     Node 11, Type 1, BuildingBlock: TAGTUT_clean_sbu_3, # of connection points: 8
#     Edge 12, Type (0, 1), BuildingBlock: OJICUG_clean_linker_0, # of connection points: 2
#     Edge 13, Type (0, 1), BuildingBlock: OJICUG_clean_linker_0, # of connection points: 2
#     Edge 14, Type (0, 1), BuildingBlock: OJICUG_clean_linker_0, # of connection points: 2
#     Edge 15, Type (0, 1), BuildingBlock: OJICUG_clean_linker_0, # of connection points: 2
#     Edge 16, Type (0, 1), BuildingBlock: OJICUG_clean_linker_0, # of connection points: 2
#     Edge 17, Type (0, 1), BuildingBlock: OJICUG_clean_linker_0, # of connection points: 2
#     Edge 18, Type (0, 1), BuildingBlock: OJICUG_clean_linker_0, # of connection points: 2
#     Edge 19, Type (0, 1), BuildingBlock: OJICUG_clean_linker_0, # of connection points: 2
#     Edge 20, Type (0, 1), BuildingBlock: OJICUG_clean_linker_0, # of connection points: 2
#     Edge 21, Type (0, 1), BuildingBlock: OJICUG_clean_linker_0, # of connection points: 2
#     Edge 22, Type (0, 1), BuildingBlock: OJICUG_clean_linker_0, # of connection points: 2
#     Edge 23, Type (0, 1), BuildingBlock: OJICUG_clean_linker_0, # of connection points: 2
#     Edge 24, Type (0, 1), BuildingBlock: OJICUG_clean_linker_0, # of connection points: 2
#     Edge 25, Type (0, 1), BuildingBlock: OJICUG_clean_linker_0, # of connection points: 2
#     Edge 26, Type (0, 1), BuildingBlock: OJICUG_clean_linker_0, # of connection points: 2
#     Edge 27, Type (0, 1), BuildingBlock: OJICUG_clean_linker_0, # of connection points: 2
#     Edge 28, Type (0, 1), BuildingBlock: OJICUG_clean_linker_0, # of connection points: 2
#     Edge 29, Type (0, 1), BuildingBlock: OJICUG_clean_linker_0, # of connection points: 2
#     Edge 30, Type (0, 1), BuildingBlock: OJICUG_clean_linker_0, # of connection points: 2
#     Edge 31, Type (0, 1), BuildingBlock: OJICUG_clean_linker_0, # of connection points: 2
#     Edge 32, Type (0, 1), BuildingBlock: OJICUG_clean_linker_0, # of connection points: 2
#     Edge 33, Type (0, 1), BuildingBlock: OJICUG_clean_linker_0, # of connection points: 2
#     Edge 34, Type (0, 1), BuildingBlock: OJICUG_clean_linker_0, # of connection points: 2
#     Edge 35, Type (0, 1), BuildingBlock: OJICUG_clean_linker_0, # of connection points: 2
#     Edge 36, Type (0, 1), BuildingBlock: OJICUG_clean_linker_0, # of connection points: 2
#     Edge 37, Type (0, 1), BuildingBlock: OJICUG_clean_linker_0, # of connection points: 2
#     Edge 38, Type (0, 1), BuildingBlock: OJICUG_clean_linker_0, # of connection points: 2
#     Edge 39, Type (0, 1), BuildingBlock: OJICUG_clean_linker_0, # of connection points: 2
#     Edge 40, Type (0, 1), BuildingBlock: OJICUG_clean_linker_0, # of connection points: 2
#     Edge 41, Type (0, 1), BuildingBlock: OJICUG_clean_linker_0, # of connection points: 2
#     Edge 42, Type (0, 1), BuildingBlock: OJICUG_clean_linker_0, # of connection points: 2
#     Edge 43, Type (0, 1), BuildingBlock: OJICUG_clean_linker_0, # of connection points: 2
# Relax obj value: 0.182
# Max RMSD: 0.278
# Mean RMSD: 0.228
data_MOF--net-sqc--node1-TAGTUT_clean_sbu_3--node2-AZAVOO_clean_linker_0--edge1-OJICUG_clean_linker_0
_symmetry_space_group_name_H-M    P1
_symmetry_Int_Tables_number       1
_symmetry_cell_setting            triclinic
loop_
_symmetry_equiv_pos_as_xyz
'x, y, z'
_cell_length_a     20.579701
_cell_length_b     20.556618
_cell_length_c     72.269553
_cell_angle_alpha  91.749998
_cell_angle_beta   89.777453
_cell_angle_gamma 90.91039
loop_
_atom_site_label
_atom_site_type_symbol
_atom_site_fract_x
_atom_site_fract_y
_atom_site_fract_z
_atom_type_partial_charge
H0 H 0.99762 0.33063 0.62259 0.0
H1 H 0.64075 0.79399 0.52005 0.0
H2 H 0.09828 0.19831 0.53436 0.0
H3 H 0.19012 0.24289 0.55243 0.0
H4 H 0.25411 0.04754 0.56184 0.0
H5 H 0.16166 0.00351 0.54414 0.0
H6 H 0.95838 0.20573 0.54964 0.0
H7 H 0.96745 0.27439 0.57779 0.0
H8 H 0.07391 0.12291 0.60405 0.0
H9 H 0.06338 0.05425 0.57591 0.0
H10 H 0.85217 0.13776 0.5291 0.0
H11 H 0.75162 0.16426 0.54542 0.0
H12 H 0.80559 0.03712 0.58929 0.0
H13 H 0.90397 0.00741 0.57207 0.0
H14 H 0.83058 0.05275 0.50409 0.0
H15 H 0.7257 0.99604 0.5007 0.0
H16 H 0.79843 0.83733 0.53221 0.0
H17 H 0.90259 0.89536 0.53585 0.0
H18 H 0.96391 0.0823 0.48224 0.0
H19 H 0.87835 0.05556 0.46003 0.0
H20 H 0.88632 0.85376 0.47487 0.0
H21 H 0.97071 0.88164 0.49753 0.0
H22 H 0.1356 0.11433 0.49791 0.0
H23 H 0.22758 0.08282 0.47797 0.0
H24 H 0.18464 0.88032 0.48764 0.0
H25 H 0.09396 0.91181 0.5077 0.0
O26 O 0.99612 0.30342 0.61143 0.0
O27 O 0.05714 0.22735 0.62357 0.0
O28 O 0.64613 0.90111 0.50548 0.0
O29 O 0.68147 0.81785 0.52139 0.0
C30 C 0.05862 0.07116 0.53216 0.0
C31 C 0.00404 0.08339 0.54365 0.0
C32 C 0.94362 0.05452 0.5391 0.0
C33 C 0.93678 0.01378 0.52335 0.0
C34 C 0.98902 0.00672 0.51088 0.0
C35 C 0.05099 0.03271 0.51565 0.0
C36 C 0.12305 0.09764 0.53808 0.0
C37 C 0.13334 0.16528 0.53986 0.0
C38 C 0.18545 0.19066 0.55026 0.0
C39 C 0.22883 0.14871 0.5587 0.0
C40 C 0.22176 0.08112 0.5554 0.0
C41 C 0.16909 0.05579 0.54523 0.0
C42 C 0.01005 0.125 0.56077 0.0
C43 C 0.9833 0.18736 0.56153 0.0
C44 C 0.98873 0.22653 0.5776 0.0
C45 C 0.02132 0.20409 0.59319 0.0
C46 C 0.04848 0.14165 0.5923 0.0
C47 C 0.04259 0.10236 0.57626 0.0
C48 C 0.88503 0.0715 0.54965 0.0
C49 C 0.84148 0.11498 0.54211 0.0
C50 C 0.78414 0.12964 0.55135 0.0
C51 C 0.77085 0.10275 0.56859 0.0
C52 C 0.81393 0.05757 0.57584 0.0
C53 C 0.87072 0.04173 0.56632 0.0
C54 C 0.87414 0.97804 0.52017 0.0
C55 C 0.82373 0.00577 0.51025 0.0
C56 C 0.76381 0.97337 0.5084 0.0
C57 C 0.75359 0.91218 0.51625 0.0
C58 C 0.80457 0.88436 0.52603 0.0
C59 C 0.86419 0.91722 0.52805 0.0
C60 C 0.97267 0.98419 0.49178 0.0
C61 C 0.95012 0.03162 0.4799 0.0
C62 C 0.90025 0.01637 0.46736 0.0
C63 C 0.87329 0.95315 0.46637 0.0
C64 C 0.90421 0.90357 0.47592 0.0
C65 C 0.95389 0.91898 0.48852 0.0
C66 C 0.10775 0.01529 0.50406 0.0
C67 C 0.14671 0.06327 0.4959 0.0
C68 C 0.19926 0.04532 0.48466 0.0
C69 C 0.21282 0.97924 0.48132 0.0
C70 C 0.17481 0.93155 0.48994 0.0
C71 C 0.12286 0.94945 0.50126 0.0
C72 C 0.02624 0.24551 0.61032 0.0
C73 C 0.6904 0.87699 0.51403 0.0
H74 H 0.52041 0.55299 0.67978 0.0
H75 H 0.2281 0.13791 0.80216 0.0
H76 H 0.27486 0.57301 0.77261 0.0
H77 H 0.29557 0.47239 0.75505 0.0
H78 H 0.50051 0.49398 0.76696 0.0
H79 H 0.47916 0.59507 0.78456 0.0
H80 H 0.33212 0.64529 0.73517 0.0
H81 H 0.39488 0.60192 0.7088 0.0
H82 H 0.57311 0.65868 0.73687 0.0
H83 H 0.50972 0.70277 0.76296 0.0
H84 H 0.25695 0.77557 0.74205 0.0
H85 H 0.26115 0.83267 0.71275 0.0
H86 H 0.46058 0.88967 0.72396 0.0
H87 H 0.45571 0.8329 0.75326 0.0
H88 H 0.2026 0.83009 0.77067 0.0
H89 H 0.15577 0.93835 0.77454 0.0
H90 H 0.33469 0.00937 0.79967 0.0
H91 H 0.38107 0.90092 0.79553 0.0
H92 H 0.18277 0.76916 0.80455 0.0
H93 H 0.13756 0.85838 0.82332 0.0
H94 H 0.32634 0.89581 0.84772 0.0
H95 H 0.37169 0.80867 0.82813 0.0
H96 H 0.21746 0.63566 0.80784 0.0
H97 H 0.19841 0.54518 0.82853 0.0
H98 H 0.40253 0.54622 0.84234 0.0
H99 H 0.42116 0.63706 0.82158 0.0
O100 O 0.49647 0.57145 0.69017 0.0
O101 O 0.58658 0.60227 0.70514 0.0
O102 O 0.15653 0.05737 0.78592 0.0
O103 O 0.24643 0.09543 0.79969 0.0
C104 C 0.36619 0.66236 0.78226 0.0
C105 C 0.37877 0.70232 0.7671 0.0
C106 C 0.35306 0.76512 0.76698 0.0
C107 C 0.32028 0.79055 0.78263 0.0
C108 C 0.31176 0.75218 0.79842 0.0
C109 C 0.33386 0.68747 0.79811 0.0
C110 C 0.37573 0.59162 0.77951 0.0
C111 C 0.32372 0.55406 0.77232 0.0
C112 C 0.33566 0.49661 0.76224 0.0
C113 C 0.3998 0.47654 0.75927 0.0
C114 C 0.45069 0.50922 0.76883 0.0
C115 C 0.43862 0.56659 0.77898 0.0
C116 C 0.41647 0.67714 0.7509 0.0
C117 C 0.38469 0.64869 0.7355 0.0
C118 C 0.42067 0.62397 0.72049 0.0
C119 C 0.48903 0.62717 0.72069 0.0
C120 C 0.52056 0.65581 0.73621 0.0
C121 C 0.48453 0.68093 0.75113 0.0
C122 C 0.35565 0.80155 0.74979 0.0
C123 C 0.30126 0.80095 0.73818 0.0
C124 C 0.30387 0.83283 0.72146 0.0
C125 C 0.36131 0.8648 0.71609 0.0
C126 C 0.4161 0.86427 0.72766 0.0
C127 C 0.41323 0.83285 0.74445 0.0
C128 C 0.29533 0.85795 0.78269 0.0
C129 C 0.23207 0.86949 0.77661 0.0
C130 C 0.20527 0.93122 0.77899 0.0
C131 C 0.24141 0.98247 0.78751 0.0
C132 C 0.30552 0.97101 0.79309 0.0
C133 C 0.3323 0.90928 0.79064 0.0
C134 C 0.28052 0.78243 0.81498 0.0
C135 C 0.21365 0.79467 0.81458 0.0
C136 C 0.18802 0.84621 0.82519 0.0
C137 C 0.22866 0.88533 0.83667 0.0
C138 C 0.29413 0.86794 0.83857 0.0
C139 C 0.31985 0.81695 0.82778 0.0
C140 C 0.32041 0.64347 0.81348 0.0
C141 C 0.25771 0.61741 0.81568 0.0
C142 C 0.24728 0.56488 0.82716 0.0
C143 C 0.29941 0.53777 0.83665 0.0
C144 C 0.36172 0.56587 0.83505 0.0
C145 C 0.37221 0.61811 0.82342 0.0
C146 C 0.52717 0.59975 0.70489 0.0
C147 C 0.21207 0.04727 0.79091 0.0
H148 H 0.60284 0.90858 0.14285 0.0
H149 H 0.96519 0.34215 -0.00369 0.0
H150 H 0.52076 0.98255 0.04824 0.0
H151 H 0.4373 0.94234 0.0689 0.0
H152 H 0.36737 0.13873 0.07748 0.0
H153 H 0.4556 0.17872 0.05796 0.0
H154 H 0.64703 0.98613 0.06668 0.0
H155 H 0.63646 0.93654 0.09687 0.0
H156 H 0.54622 0.11142 0.11874 0.0
H157 H 0.55833 0.16097 0.08849 0.0
H158 H 0.76398 0.03768 0.04514 0.0
H159 H 0.83071 0.99053 0.06886 0.0
H160 H 0.76853 0.14004 0.10814 0.0
H161 H 0.70492 0.18912 0.08391 0.0
H162 H 0.7731 0.08624 0.01335 0.0
H163 H 0.87129 0.13128 -0.00091 0.0
H164 H 0.82829 0.32036 0.0236 0.0
H165 H 0.73013 0.27457 0.03775 0.0
H166 H 0.65455 0.06562 0.99285 0.0
H167 H 0.7165 0.0899 0.96536 0.0
H168 H 0.69295 0.29603 0.97701 0.0
H169 H 0.63298 0.27037 0.00524 0.0
H170 H 0.54297 0.02626 0.00293 0.0
H171 H 0.44906 0.00844 0.98248 0.0
H172 H 0.37018 0.19172 0.00197 0.0
H173 H 0.46485 0.20964 0.02213 0.0
O174 O 0.60647 0.92925 0.13103 0.0
O175 O 0.55858 0.01943 0.14151 0.0
O176 O 0.95023 0.22354 0.99106 0.0
O177 O 0.92832 0.32248 0.00249 0.0
C178 C 0.55759 0.10836 0.04504 0.0
C179 C 0.61134 0.10721 0.05705 0.0
C180 C 0.67303 0.12889 0.05099 0.0
C181 C 0.68066 0.15229 0.033 0.0
C182 C 0.62719 0.15076 0.02067 0.0
C183 C 0.56574 0.12822 0.0267 0.0
C184 C 0.49428 0.08341 0.05174 0.0
C185 C 0.48606 0.0165 0.05414 0.0
C186 C 0.43803 0.9937 0.06604 0.0
C187 C 0.39592 0.03738 0.07528 0.0
C188 C 0.40015 0.10386 0.07115 0.0
C189 C 0.44954 0.12678 0.05964 0.0
C190 C 0.604 0.07733 0.07547 0.0
C191 C 0.62542 0.0138 0.07805 0.0
C192 C 0.6191 0.98551 0.09529 0.0
C193 C 0.59061 0.02007 0.11024 0.0
C194 C 0.56853 0.08355 0.10753 0.0
C195 C 0.57529 0.11195 0.09028 0.0
C196 C 0.72991 0.11701 0.06278 0.0
C197 C 0.7676 0.06234 0.05857 0.0
C198 C 0.80411 0.0343 0.07232 0.0
C199 C 0.80301 0.06017 0.09055 0.0
C200 C 0.77019 0.11867 0.09427 0.0
C201 C 0.73438 0.14727 0.0804 0.0
C202 C 0.7449 0.17707 0.0267 0.0
C203 C 0.78572 0.13706 0.01593 0.0
C204 C 0.84152 0.16303 0.0077 0.0
C205 C 0.85751 0.22954 0.01014 0.0
C206 C 0.81739 0.269 0.02141 0.0
C207 C 0.76158 0.2429 0.02964 0.0
C208 C 0.63931 0.16612 0.00105 0.0
C209 C 0.65982 0.11594 0.98898 0.0
C210 C 0.69578 0.13022 0.97319 0.0
C211 C 0.71133 0.19519 0.96905 0.0
C212 C 0.6836 0.24546 0.98002 0.0
C213 C 0.64818 0.23098 -0.00401 0.0
C214 C 0.51109 0.11986 0.01364 0.0
C215 C 0.50577 0.06288 0.00256 0.0
C216 C 0.45199 0.05248 0.99108 0.0
C217 C 0.40224 0.09841 0.99081 0.0
C218 C 0.40739 0.15507 0.00215 0.0
C219 C 0.46163 0.16581 0.01345 0.0
C220 C 0.58411 0.98981 0.12855 0.0
C221 C 0.91496 0.25803 0.00068 0.0
H222 H 0.13519 0.16675 0.16384 0.0
H223 H 0.51618 0.74742 0.25595 0.0
H224 H 0.26859 0.20152 0.2708 0.0
H225 H 0.22963 0.09111 0.26425 0.0
H226 H 0.38507 0.06462 0.22435 0.0
H227 H 0.42777 0.17278 0.23268 0.0
H228 H 0.2261 0.27517 0.23513 0.0
H229 H 0.17033 0.22796 0.20791 0.0
H230 H 0.35273 0.22592 0.17797 0.0
H231 H 0.40781 0.27315 0.20533 0.0
H232 H 0.25784 0.4419 0.24417 0.0
H233 H 0.21478 0.52186 0.22337 0.0
H234 H 0.37061 0.48213 0.18467 0.0
H235 H 0.41551 0.40322 0.20612 0.0
H236 H 0.32117 0.49493 0.27442 0.0
H237 H 0.34606 0.61152 0.27733 0.0
H238 H 0.52007 0.58279 0.24453 0.0
H239 H 0.49506 0.46603 0.24198 0.0
H240 H 0.3141 0.38372 0.29929 0.0
H241 H 0.32598 0.4567 0.3263 0.0
H242 H 0.52695 0.49248 0.31133 0.0
H243 H 0.51521 0.41605 0.28498 0.0
H244 H 0.30331 0.26652 0.29766 0.0
H245 H 0.31788 0.19523 0.32371 0.0
H246 H 0.51548 0.16015 0.30604 0.0
H247 H 0.50038 0.23205 0.27992 0.0
O248 O 0.15815 0.18549 0.17442 0.0
O249 O 0.25417 0.17921 0.16032 0.0
O250 O 0.41476 0.71373 0.27164 0.0
O251 O 0.50505 0.70151 0.25497 0.0
C252 C 0.36766 0.26564 0.25384 0.0
C253 C 0.3543 0.30557 0.23876 0.0
C254 C 0.36665 0.37317 0.2403 0.0
C255 C 0.39273 0.4009 0.25677 0.0
C256 C 0.40186 0.36179 0.27219 0.0
C257 C 0.39034 0.29418 0.27067 0.0
C258 C 0.35148 0.19508 0.25237 0.0
C259 C 0.2965 0.17058 0.26148 0.0
C260 C 0.27355 0.10763 0.25742 0.0
C261 C 0.30315 0.06913 0.24343 0.0
C262 C 0.36114 0.0922 0.23533 0.0
C263 C 0.38534 0.15449 0.23989 0.0
C264 C 0.32084 0.27767 0.22212 0.0
C265 C 0.25381 0.26455 0.22265 0.0
C266 C 0.22213 0.23758 0.20709 0.0
C267 C 0.25707 0.22318 0.19075 0.0
C268 C 0.32438 0.23643 0.19033 0.0
C269 C 0.35595 0.26355 0.20589 0.0
C270 C 0.33964 0.41706 0.2266 0.0
C271 C 0.28289 0.45061 0.23124 0.0
C272 C 0.25878 0.4965 0.21948 0.0
C273 C 0.29029 0.50865 0.20267 0.0
C274 C 0.34619 0.47377 0.1977 0.0
C275 C 0.37133 0.42857 0.20977 0.0
C276 C 0.40672 0.47205 0.25816 0.0
C277 C 0.36483 0.51388 0.26798 0.0
C278 C 0.37905 0.58048 0.26955 0.0
C279 C 0.43521 0.60647 0.2612 0.0
C280 C 0.47653 0.56439 0.25116 0.0
C281 C 0.46235 0.49773 0.24965 0.0
C282 C 0.41418 0.39382 0.29042 0.0
C283 C 0.36147 0.40492 0.30238 0.0
C284 C 0.36794 0.44783 0.31755 0.0
C285 C 0.42701 0.4812 0.32082 0.0
C286 C 0.48086 0.46714 0.30934 0.0
C287 C 0.47447 0.42348 0.29428 0.0
C288 C 0.40059 0.25363 0.28687 0.0
C289 C 0.34984 0.24377 0.29949 0.0
C290 C 0.35814 0.203 0.31429 0.0
C291 C 0.4176 0.17196 0.31677 0.0
C292 C 0.46926 0.18382 0.30446 0.0
C293 C 0.46066 0.22434 0.28954 0.0
C294 C 0.22331 0.1946 0.17422 0.0
C295 C 0.4508 0.67713 0.26295 0.0
H296 H 0.02962 0.0506 0.17821 0.0
H297 H 0.66435 0.61406 0.2928 0.0
H298 H 0.78396 0.04691 0.27006 0.0
H299 H 0.82522 0.94673 0.25629 0.0
H300 H 0.0221 0.01503 0.26642 0.0
H301 H 0.97972 0.11555 0.28063 0.0
H302 H 0.82719 0.12408 0.23176 0.0
H303 H 0.89704 0.0837 0.20651 0.0
H304 H 0.06251 0.18102 0.23241 0.0
H305 H 0.99209 0.221 0.25752 0.0
H306 H 0.73984 0.26743 0.23479 0.0
H307 H 0.74742 0.33506 0.20738 0.0
H308 H 0.94009 0.39872 0.22404 0.0
H309 H 0.9313 0.33283 0.25164 0.0
H310 H 0.67253 0.30328 0.26349 0.0
H311 H 0.61561 0.40687 0.26568 0.0
H312 H 0.78135 0.49514 0.29389 0.0
H313 H 0.83829 0.39157 0.29116 0.0
H314 H 0.65717 0.25568 0.3007 0.0
H315 H 0.61681 0.33878 0.32284 0.0
H316 H 0.8113 0.36781 0.3441 0.0
H317 H 0.85116 0.2853 0.32201 0.0
H318 H 0.69796 0.12092 0.30051 0.0
H319 H 0.67574 0.02726 0.31966 0.0
H320 H 0.87797 0.02464 0.33548 0.0
H321 H 0.89941 0.11979 0.3166 0.0
O322 O 0.00247 0.06836 0.18804 0.0
O323 O 0.08688 0.11245 0.2032 0.0
O324 O 0.60363 0.52619 0.27603 0.0
O325 O 0.6866 0.57317 0.29118 0.0
C326 C 0.85448 0.1556 0.27745 0.0
C327 C 0.8632 0.1966 0.26227 0.0
C328 C 0.8299 0.2557 0.26178 0.0
C329 C 0.79171 0.27607 0.27703 0.0
C330 C 0.78575 0.23641 0.29266 0.0
C331 C 0.81518 0.17493 0.29261 0.0
C332 C 0.87903 0.08868 0.27584 0.0
C333 C 0.83586 0.03879 0.27022 0.0
C334 C 0.85968 0.98137 0.26241 0.0
C335 C 0.92696 0.97389 0.25992 0.0
C336 C 0.97004 0.02019 0.26799 0.0
C337 C 0.94601 0.07745 0.27604 0.0
C338 C 0.90463 0.17566 0.24636 0.0
C339 C 0.8784 0.13712 0.23182 0.0
C340 C 0.91842 0.11409 0.21745 0.0
C341 C 0.98534 0.12922 0.21744 0.0
C342 C 0.0112 0.16853 0.23199 0.0
C343 C 0.9711 0.19162 0.2463 0.0
C344 C 0.83482 0.2959 0.24521 0.0
C345 C 0.78346 0.29631 0.23252 0.0
C346 C 0.78799 0.33439 0.21688 0.0
C347 C 0.84456 0.37137 0.21357 0.0
C348 C 0.89641 0.36972 0.22614 0.0
C349 C 0.89135 0.33262 0.24192 0.0
C350 C 0.75965 0.34024 0.27701 0.0
C351 C 0.69684 0.34539 0.26983 0.0
C352 C 0.66425 0.40445 0.27126 0.0
C353 C 0.69378 0.45923 0.28008 0.0
C354 C 0.75719 0.45395 0.28703 0.0
C355 C 0.78994 0.39499 0.28543 0.0
C356 C 0.75708 0.26477 0.30977 0.0
C357 C 0.69039 0.27798 0.31071 0.0
C358 C 0.6676 0.32579 0.32318 0.0
C359 C 0.71148 0.36057 0.33474 0.0
C360 C 0.77693 0.34246 0.33501 0.0
C361 C 0.79949 0.29456 0.32268 0.0
C362 C 0.80018 0.12756 0.30723 0.0
C363 C 0.73715 0.1012 0.30847 0.0
C364 C 0.72492 0.04665 0.31908 0.0
C365 C 0.77552 0.01727 0.3287 0.0
C366 C 0.83808 0.04573 0.32814 0.0
C367 C 0.85028 0.1004 0.3175 0.0
C368 C 0.02812 0.10311 0.20248 0.0
C369 C 0.65847 0.52142 0.28224 0.0
H370 H 0.58826 0.7695 0.67822 0.0
H371 H 0.87357 0.46014 0.84469 0.0
H372 H 0.89124 0.91187 0.73959 0.0
H373 H 0.85877 0.99075 0.71667 0.0
H374 H 0.68646 0.03307 0.74881 0.0
H375 H 0.71818 0.95272 0.77137 0.0
H376 H 0.81573 0.79535 0.72652 0.0
H377 H 0.73385 0.78383 0.70204 0.0
H378 H 0.58164 0.7977 0.74335 0.0
H379 H 0.66402 0.80859 0.76764 0.0
H380 H 0.86139 0.6816 0.74545 0.0
H381 H 0.83056 0.57043 0.73626 0.0
H382 H 0.68572 0.56848 0.77982 0.0
H383 H 0.71647 0.68111 0.78866 0.0
H384 H 0.94729 0.67146 0.77919 0.0
H385 H 0.96656 0.56763 0.79383 0.0
H386 H 0.8202 0.61411 0.83504 0.0
H387 H 0.80064 0.71708 0.82005 0.0
H388 H 0.01064 0.80468 0.79473 0.0
H389 H 0.06493 0.75448 0.82046 0.0
H390 H 0.89839 0.7944 0.85534 0.0
H391 H 0.84547 0.84583 0.82968 0.0
H392 H 0.98306 0.93604 0.78495 0.0
H393 H 0.01415 0.03683 0.802 0.0
H394 H 0.81338 0.06402 0.81793 0.0
H395 H 0.78318 0.96393 0.80102 0.0
O396 O 0.61987 0.77448 0.68807 0.0
O397 O 0.54361 0.78324 0.70984 0.0
O398 O 0.94373 0.48034 0.81759 0.0
O399 O 0.86842 0.50168 0.83898 0.0
C400 C 0.8211 0.87124 0.76879 0.0
C401 C 0.79483 0.80955 0.76368 0.0
C402 C 0.81274 0.75462 0.77347 0.0
C403 C 0.85582 0.76088 0.78846 0.0
C404 C 0.88061 0.82278 0.79395 0.0
C405 C 0.86272 0.87814 0.78424 0.0
C406 C 0.80737 0.92735 0.7572 0.0
C407 C 0.84738 0.93948 0.7419 0.0
C408 C 0.82877 0.98415 0.72884 0.0
C409 C 0.77043 0.01798 0.7311 0.0
C410 C 0.73217 0.00824 0.74695 0.0
C411 C 0.75019 0.96261 0.75983 0.0
C412 C 0.74563 0.80284 0.74878 0.0
C413 C 0.76467 0.79586 0.73021 0.0
C414 C 0.7178 0.78927 0.71629 0.0
C415 C 0.65116 0.78967 0.72074 0.0
C416 C 0.63248 0.79698 0.73943 0.0
C417 C 0.67937 0.80325 0.75333 0.0
C418 C 0.79013 0.68923 0.7674 0.0
C419 C 0.82283 0.65712 0.75292 0.0
C420 C 0.80622 0.59316 0.74803 0.0
C421 C 0.75655 0.56029 0.75759 0.0
C422 C 0.72448 0.59253 0.77234 0.0
C423 C 0.74125 0.65678 0.77722 0.0
C424 C 0.87301 0.70186 0.79867 0.0
C425 C 0.92004 0.65935 0.79151 0.0
C426 C 0.93062 0.59998 0.79982 0.0
C427 C 0.89448 0.58232 0.81552 0.0
C428 C 0.84862 0.62601 0.82293 0.0
C429 C 0.83774 0.6851 0.8145 0.0
C430 C 0.92361 0.82735 0.8103 0.0
C431 C 0.98782 0.80655 0.80827 0.0
C432 C 0.01849 0.77725 0.82296 0.0
C433 C 0.98483 0.76812 0.83968 0.0
C434 C 0.92555 0.80008 0.84261 0.0
C435 C 0.89508 0.8298 0.82793 0.0
C436 C 0.88088 0.94331 0.79169 0.0
C437 C 0.94584 0.96478 0.7918 0.0
C438 C 0.96343 0.02196 0.80156 0.0
C439 C 0.91611 0.05815 0.81127 0.0
C440 C 0.8507 0.03786 0.81032 0.0
C441 C 0.83333 0.98072 0.80067 0.0
C442 C 0.60147 0.78234 0.70595 0.0
C443 C 0.90391 0.51838 0.82404 0.0
H444 H 0.42041 0.48187 0.90074 0.0
H445 H 0.9002 0.60279 0.0606 0.0
H446 H 0.36564 0.67889 0.98651 0.0
H447 H 0.272 0.63802 0.96852 0.0
H448 H 0.25551 0.47334 0.00399 0.0
H449 H 0.35048 0.51195 0.02105 0.0
H450 H 0.50011 0.64021 0.96568 0.0
H451 H 0.47395 0.5891 0.9355 0.0
H452 H 0.40841 0.41535 0.96273 0.0
H453 H 0.4355 0.46676 0.99276 0.0
H454 H 0.6437 0.65969 0.98688 0.0
H455 H 0.73538 0.61056 0.97021 0.0
H456 H 0.66294 0.41903 0.98346 0.0
H457 H 0.57193 0.46864 0.00043 0.0
H458 H 0.64126 0.73522 0.02214 0.0
H459 H 0.7536 0.7455 0.03303 0.0
H460 H 0.74772 0.54358 0.04821 0.0
H461 H 0.63501 0.53449 0.03762 0.0
H462 H 0.53883 0.77408 0.04467 0.0
H463 H 0.61608 0.80479 0.06926 0.0
H464 H 0.60001 0.61081 0.09027 0.0
H465 H 0.52362 0.58042 0.06563 0.0
H466 H 0.37363 0.7457 0.03566 0.0
H467 H 0.27434 0.75402 0.05408 0.0
H468 H 0.29116 0.55099 0.06774 0.0
H469 H 0.39406 0.54676 0.05132 0.0
O470 O 0.43113 0.50087 0.91279 0.0
O471 O 0.39931 0.41224 0.92745 0.0
O472 O 0.85735 0.70298 0.04747 0.0
O473 O 0.85627 0.59983 0.05591 0.0
C474 C 0.43202 0.60988 0.01138 0.0
C475 C 0.48332 0.58937 -0.00033 0.0
C476 C 0.54796 0.5971 0.00566 0.0
C477 C 0.5616 0.62832 0.02286 0.0
C478 C 0.5101 0.64842 0.03464 0.0
C479 C 0.44527 0.63695 0.02916 0.0
C480 C 0.36444 0.59861 0.00515 0.0
C481 C 0.33971 0.63574 0.99092 0.0
C482 C 0.28627 0.61263 0.98074 0.0
C483 C 0.25687 0.55277 0.98496 0.0
C484 C 0.27662 0.52025 0.00071 0.0
C485 C 0.33086 0.54247 0.01056 0.0
C486 C 0.46919 0.55737 0.98137 0.0
C487 C 0.48037 0.59102 0.96506 0.0
C488 C 0.46527 0.56174 0.94787 0.0
C489 C 0.43893 0.49817 0.9467 0.0
C490 C 0.42857 0.46435 0.96312 0.0
C491 C 0.44377 0.49367 0.98029 0.0
C492 C 0.60125 0.56762 -0.00529 0.0
C493 C 0.64779 0.60719 0.98619 0.0
C494 C 0.70016 0.57914 0.97684 0.0
C495 C 0.70622 0.51112 0.97574 0.0
C496 C 0.65912 0.47155 0.98412 0.0
C497 C 0.60717 0.49971 -0.00633 0.0
C498 C 0.63002 0.63434 0.02927 0.0
C499 C 0.66433 0.69342 0.0279 0.0
C500 C 0.7285 0.69904 0.03406 0.0
C501 C 0.75965 0.64533 0.04151 0.0
C502 C 0.72524 0.58588 0.04256 0.0
C503 C 0.66089 0.58053 0.03655 0.0
C504 C 0.52642 0.67484 0.0533 0.0
C505 C 0.54898 0.73949 0.05526 0.0
C506 C 0.59354 0.75679 0.06919 0.0
C507 C 0.61529 0.70941 0.0812 0.0
C508 C 0.58483 0.64771 0.08088 0.0
C509 C 0.54042 0.63055 0.06701 0.0
C510 C 0.39104 0.6459 0.04236 0.0
C511 C 0.35644 0.70388 0.04314 0.0
C512 C 0.29857 0.7077 0.05328 0.0
C513 C 0.27311 0.65277 0.0623 0.0
C514 C 0.30886 0.59487 0.06141 0.0
C515 C 0.36795 0.59214 0.05197 0.0
C516 C 0.42191 0.46761 0.92844 0.0
C517 C 0.82738 0.65134 0.04841 0.0
H518 H 0.12338 0.34901 0.64234 0.0
H519 H 0.50586 0.7763 0.50886 0.0
H520 H 0.00865 0.46527 0.55287 0.0
H521 H 0.92938 0.43078 0.57596 0.0
H522 H 0.90328 0.63172 0.59342 0.0
H523 H 0.9813 0.66557 0.56993 0.0
H524 H 0.14724 0.45027 0.56791 0.0
H525 H 0.14036 0.38984 0.59651 0.0
H526 H 0.07095 0.56233 0.62557 0.0
H527 H 0.07931 0.62256 0.5969 0.0
H528 H 0.27061 0.50478 0.55027 0.0
H529 H 0.34369 0.46087 0.57306 0.0
H530 H 0.28538 0.61122 0.61267 0.0
H531 H 0.21553 0.65698 0.58934 0.0
H532 H 0.26717 0.55463 0.51571 0.0
H533 H 0.37171 0.58819 0.50256 0.0
H534 H 0.36456 0.76831 0.53497 0.0
H535 H 0.25982 0.73408 0.54799 0.0
H536 H 0.13308 0.55224 0.49676 0.0
H537 H 0.19928 0.57001 0.46922 0.0
H538 H 0.23835 0.76794 0.48841 0.0
H539 H 0.16927 0.75058 0.51532 0.0
H540 H 0.00408 0.50773 0.51981 0.0
H541 H 0.91941 0.50825 0.49615 0.0
H542 H 0.93432 0.71809 0.49518 0.0
H543 H 0.01853 0.71724 0.51905 0.0
O544 O 0.12498 0.37369 0.63117 0.0
O545 O 0.07908 0.46 0.64479 0.0
O546 O 0.46538 0.66873 0.49739 0.0
O547 O 0.46544 0.76108 0.51425 0.0
C548 C 0.06486 0.58574 0.55176 0.0
C549 C 0.11984 0.57708 0.56291 0.0
C550 C 0.18165 0.59756 0.55678 0.0
C551 C 0.18962 0.62435 0.5393 0.0
C552 C 0.13515 0.6305 0.52763 0.0
C553 C 0.07258 0.61111 0.5339 0.0
C554 C 0.00036 0.56803 0.55957 0.0
C555 C 0.98321 0.50202 0.561 0.0
C556 C 0.9391 0.48234 0.57456 0.0
C557 C 0.91132 0.52835 0.58693 0.0
C558 C 0.92368 0.59492 0.58418 0.0
C559 C 0.96773 0.61454 0.57057 0.0
C560 C 0.11375 0.54071 0.58036 0.0
C561 C 0.13065 0.4749 0.58049 0.0
C562 C 0.12666 0.44052 0.59683 0.0
C563 C 0.10527 0.47132 0.61333 0.0
C564 C 0.08762 0.53718 0.61309 0.0
C565 C 0.09216 0.57167 0.59675 0.0
C566 C 0.23834 0.58401 0.56824 0.0
C567 C 0.27608 0.52988 0.56358 0.0
C568 C 0.31643 0.50403 0.57675 0.0
C569 C 0.31867 0.53159 0.59477 0.0
C570 C 0.28463 0.58897 0.59889 0.0
C571 C 0.24507 0.61541 0.5856 0.0
C572 C 0.25589 0.64214 0.53271 0.0
C573 C 0.28855 0.60109 0.52005 0.0
C574 C 0.34813 0.62046 0.51252 0.0
C575 C 0.37624 0.68122 0.5176 0.0
C576 C 0.34415 0.72136 0.53071 0.0
C577 C 0.28452 0.70186 0.53824 0.0
C578 C 0.14729 0.64973 0.50822 0.0
C579 C 0.15271 0.60055 0.49446 0.0
C580 C 0.19179 0.61047 0.4789 0.0
C581 C 0.2263 0.6696 0.47697 0.0
C582 C 0.21292 0.72168 0.48944 0.0
C583 C 0.17305 0.71195 0.50485 0.0
C584 C 0.01684 0.61249 0.52121 0.0
C585 C 0.98784 0.55387 0.51483 0.0
C586 C 0.93982 0.55419 0.50129 0.0
C587 C 0.92089 0.61312 0.49382 0.0
C588 C 0.94878 0.67196 0.50061 0.0
C589 C 0.99642 0.67162 0.51425 0.0
C590 C 0.10212 0.43488 0.63073 0.0
C591 C 0.4384 0.703 0.50912 0.0
C592 C 0.12097 0.66408 0.16173 0.0
C593 C 0.88355 0.57903 0.16427 0.0
C594 C 0.84602 0.73064 0.1254 0.0
Mg595 Mg 0.18217 0.80309 0.15354 0.0
Mg596 Mg 0.10388 0.941 0.1557 0.0
O597 O 0.10356 0.8543 0.14754 0.0
Mg598 Mg 0.03434 0.7891 0.15336 0.0
O599 O 0.9718 0.71692 0.1585 0.0
Mg600 Mg 0.98866 0.65792 0.13659 0.0
Mg601 Mg 0.88575 0.72999 0.16545 0.0
C602 C 0.95902 0.92447 0.14167 0.0
O603 O 0.00958 0.83164 0.18235 0.0
O604 O 0.24096 0.88228 0.13869 0.0
O605 O 0.90718 0.79605 0.18828 0.0
O606 O 0.19819 0.85741 0.18224 0.0
O607 O 0.18349 0.9745 0.13888 0.0
O608 O 0.13101 0.94164 0.18381 0.0
O609 O 0.05344 0.7403 0.12487 0.0
O610 O 0.16198 0.7522 0.12614 0.0
C611 C 0.11028 0.73153 0.11797 0.0
C612 C 0.23296 0.94119 0.13391 0.0
O613 O 0.96042 0.86171 0.14155 0.0
O614 O 0.92782 0.57926 0.1517 0.0
O615 O 0.00581 0.96077 0.14788 0.0
O616 O 0.89439 0.69318 0.12211 0.0
O617 O 0.86012 0.63145 0.17135 0.0
O618 O 0.83693 0.75796 0.14125 0.0
O619 O 0.11267 0.72504 0.16502 0.0
O620 O 0.08043 0.62963 0.15201 0.0
C621 C 0.17334 0.90601 0.19111 0.0
C622 C 0.95905 0.82796 0.19283 0.0
C623 C 0.66433 0.85619 0.42583 0.0
C624 C 0.73347 0.63021 0.43552 0.0
C625 C 0.64839 0.57939 0.38259 0.0
Mg626 Mg 0.54585 0.92038 0.40482 0.0
Mg627 Mg 0.41861 0.84034 0.38602 0.0
O628 O 0.50719 0.84296 0.39126 0.0
Mg629 Mg 0.55682 0.77357 0.40294 0.0
O630 O 0.61411 0.70957 0.41431 0.0
Mg631 Mg 0.69625 0.72721 0.40035 0.0
Mg632 Mg 0.59427 0.62415 0.42056 0.0
C633 C 0.455 0.69695 0.3733 0.0
O634 O 0.47489 0.74281 0.4239 0.0
O635 O 0.49359 0.98365 0.38365 0.0
O636 O 0.49733 0.63977 0.43149 0.0
O637 O 0.45568 0.92719 0.42455 0.0
O638 O 0.41516 0.92424 0.36924 0.0
O639 O 0.3755 0.86598 0.4118 0.0
O640 O 0.63888 0.79667 0.38185 0.0
O641 O 0.62976 0.90546 0.38515 0.0
C642 C 0.65816 0.85506 0.37837 0.0
C643 C 0.44892 0.97678 0.37136 0.0
O644 O 0.50856 0.70145 0.38235 0.0
O645 O 0.74799 0.66712 0.42207 0.0
O646 O 0.41258 0.74219 0.37371 0.0
O647 O 0.68132 0.63288 0.38186 0.0
O648 O 0.67542 0.60949 0.4384 0.0
O649 O 0.60923 0.56781 0.39586 0.0
O650 O 0.60255 0.85048 0.42323 0.0
O651 O 0.70469 0.8155 0.41894 0.0
C652 C 0.39756 0.90352 0.42479 0.0
C653 C 0.46032 0.68953 0.43211 0.0
C654 C 0.6356 0.15362 0.67518 0.0
C655 C 0.40204 0.06191 0.66466 0.0
C656 C 0.39271 0.20212 0.6214 0.0
Mg657 Mg 0.70041 0.29266 0.66584 0.0
Mg658 Mg 0.61659 0.42683 0.66561 0.0
O659 O 0.62239 0.34094 0.65748 0.0
Mg660 Mg 0.55215 0.27418 0.66084 0.0
O661 O 0.48836 0.20039 0.6633 0.0
Mg662 Mg 0.52293 0.14016 0.6432 0.0
Mg663 Mg 0.39846 0.21308 0.66363 0.0
C664 C 0.47998 0.40477 0.64639 0.0
O665 O 0.50704 0.31899 0.68722 0.0
O666 O 0.7635 0.37497 0.65259 0.0
O667 O 0.40112 0.28685 0.68603 0.0
O668 O 0.70239 0.34464 0.69473 0.0
O669 O 0.70011 0.46249 0.65083 0.0
O670 O 0.63087 0.4251 0.69451 0.0
O671 O 0.58755 0.22512 0.63461 0.0
O672 O 0.69444 0.24221 0.6377 0.0
C673 C 0.64545 0.2194 0.62871 0.0
C674 C 0.75319 0.43297 0.64716 0.0
O675 O 0.48408 0.34228 0.64574 0.0
O676 O 0.45427 0.0621 0.65489 0.0
O677 O 0.52173 0.4423 0.65464 0.0
O678 O 0.4441 0.16828 0.62243 0.0
O679 O 0.37289 0.11429 0.66963 0.0
O680 O 0.36816 0.23036 0.63572 0.0
O681 O 0.62625 0.21498 0.6762 0.0
O682 O 0.60201 0.11617 0.66425 0.0
C683 C 0.6706 0.38988 0.70302 0.0
C684 C 0.44851 0.31931 0.69361 0.0
C685 C 0.15678 0.35875 0.93506 0.0
C686 C 0.20378 0.12341 0.93748 0.0
C687 C 0.14499 0.10695 0.88081 0.0
Mg688 Mg 0.06506 0.44449 0.91319 0.0
Mg689 Mg 0.94366 0.39517 0.88573 0.0
O690 O 0.02819 0.38281 0.89368 0.0
Mg691 Mg 0.06185 0.30053 0.9037 0.0
O692 O 0.10427 0.22484 0.91457 0.0
Mg693 Mg 0.19531 0.24087 0.90613 0.0
Mg694 Mg 0.0735 0.14015 0.91762 0.0
C695 C 0.97314 0.25718 0.86682 0.0
O696 O 0.96787 0.27182 0.91944 0.0
O697 O 0.03339 0.52964 0.89541 0.0
O698 O 0.97311 0.16391 0.92453 0.0
O699 O 0.96727 0.44711 0.92901 0.0
O700 O 0.96052 0.49031 0.87461 0.0
O701 O 0.88936 0.40239 0.91094 0.0
O702 O 0.15684 0.32446 0.88822 0.0
O703 O 0.15755 0.43112 0.89648 0.0
C704 C 0.18357 0.38164 0.88829 0.0
C705 C 0.99684 0.53637 0.88132 0.0
O706 O 0.0198 0.2472 0.8781 0.0
O707 O 0.22798 0.16445 0.9263 0.0
O708 O 0.93734 0.30785 0.86798 0.0
O709 O 0.18291 0.15677 0.88349 0.0
O710 O 0.14282 0.10984 0.93817 0.0
O711 O 0.09802 0.09404 0.89179 0.0
O712 O 0.09949 0.35733 0.92842 0.0
O713 O 0.20087 0.32015 0.92902 0.0
C714 C 0.90843 0.42777 0.92636 0.0
C715 C 0.94299 0.21826 0.92515 0.0
C716 C 0.24413 0.91462 0.45334 0.0
C717 C 0.26196 0.95939 0.46747 0.0
H718 H 0.27238 0.86243 0.42889 0.0
C719 C 0.32544 0.98554 0.46784 0.0
H720 H 0.1952 0.89445 0.45261 0.0
C721 C 0.37061 0.96655 0.45424 0.0
C722 C 0.35241 0.9219 0.43998 0.0
H723 H 0.34006 0.02031 0.47866 0.0
H724 H 0.41925 0.9874 0.45476 0.0
C725 C 0.28855 0.89648 0.4397 0.0
C726 C 0.41683 0.90185 0.6875 0.0
C727 C 0.36289 0.90403 0.6994 0.0
H728 H 0.4707 0.94971 0.66648 0.0
C729 C 0.31484 0.95051 0.69681 0.0
H730 H 0.45387 0.86556 0.68906 0.0
C731 C 0.32432 -0.0012 0.68392 0.0
C732 C 0.38194 0.00106 0.67345 0.0
H733 H 0.27265 0.95294 0.70581 0.0
H734 H 0.28898 0.03714 0.68324 0.0
C735 C 0.42611 0.9498 0.67449 0.0
C736 C 0.28343 0.10234 0.98334 0.0
C737 C 0.34767 0.09023 0.97766 0.0
H738 H 0.18568 0.11991 0.97476 0.0
C739 C 0.36068 0.07708 0.95886 0.0
H740 H 0.27223 0.11208 -0.00219 0.0
C741 C 0.31156 0.08187 0.94578 0.0
C742 C 0.24841 0.0987 0.95131 0.0
H743 H 0.40979 0.06791 0.95411 0.0
H744 H 0.32384 0.07659 0.93122 0.0
C745 C 0.23388 0.10596 0.97023 0.0
C746 C 0.29976 0.96094 0.22581 0.0
C747 C 0.26703 0.01303 0.23465 0.0
H748 H 0.29492 0.88406 0.20507 0.0
C749 C 0.19959 0.01774 0.23211 0.0
H750 H 0.35142 0.95494 0.22778 0.0
C751 C 0.16749 0.97688 0.21939 0.0
C752 C 0.20168 0.93035 0.2088 0.0
H753 H 0.17224 0.05719 0.23841 0.0
H754 H 0.11718 0.98649 0.21652 0.0
C755 C 0.26724 0.91977 0.21296 0.0
C756 C 0.33902 0.14886 0.57329 0.0
C757 C 0.27607 0.17392 0.57272 0.0
H758 H 0.426 0.1395 0.5889 0.0
C759 C 0.25572 0.21688 0.58705 0.0
H760 H 0.35624 0.11636 0.56232 0.0
C761 C 0.2956 0.23015 0.60238 0.0
C762 C 0.35659 0.20071 0.60366 0.0
H763 H 0.20725 0.23672 0.58703 0.0
H764 H 0.27701 0.26036 0.61369 0.0
C765 C 0.37898 0.16236 0.58854 0.0
C766 C 0.14125 0.94671 0.8538 0.0
C767 C 0.20383 0.94557 0.846 0.0
H768 H 0.0727 -0.00057 0.87036 0.0
C769 C 0.24297 0.00235 0.84737 0.0
H770 H 0.10954 0.90417 0.85289 0.0
C771 C 0.22199 0.05719 0.85753 0.0
C772 C 0.16128 0.0565 0.86648 0.0
H773 H 0.29056 0.00394 0.84094 0.0
H774 H 0.25473 0.09873 0.85913 0.0
C775 C 0.12016 0.00155 0.86385 0.0
C776 C 0.3261 0.95033 0.08931 0.0
C777 C 0.35178 0.01415 0.09015 0.0
H778 H 0.27029 0.87714 0.10284 0.0
C779 C 0.33794 0.05414 0.10586 0.0
H780 H 0.33385 0.91849 0.07732 0.0
C781 C 0.29927 0.03082 0.12025 0.0
C782 C 0.27585 0.9665 0.11948 0.0
H783 H 0.35787 0.10305 0.10729 0.0
H784 H 0.28868 0.06252 0.13209 0.0
C785 C 0.28953 0.92651 0.10393 0.0
C786 C 0.47962 0.12544 0.34285 0.0
C787 C 0.42432 0.12457 0.33154 0.0
H788 H 0.53037 0.07978 0.36458 0.0
C789 C 0.37584 0.07677 0.33401 0.0
H790 H 0.51744 0.16214 0.34126 0.0
C791 C 0.38316 0.02965 0.34726 0.0
C792 C 0.43891 0.02971 0.3584 0.0
H793 H 0.33301 0.07469 0.32533 0.0
H794 H 0.34549 0.99266 0.34859 0.0
C795 C 0.48668 0.07863 0.35626 0.0
C796 C 0.68512 0.09272 0.59299 0.0
C797 C 0.72029 0.13127 0.58057 0.0
H798 H 0.63163 0.09195 0.61855 0.0
C799 C 0.71689 0.19942 0.58218 0.0
H800 H 0.68649 0.04009 0.59185 0.0
C801 C 0.6858 0.22842 0.59723 0.0
C802 C 0.65729 0.18973 0.61067 0.0
H803 H 0.74394 0.23052 0.57298 0.0
H804 H 0.68895 0.28087 0.59922 0.0
C805 C 0.65355 0.12207 0.60809 0.0
C806 C 0.71726 0.91062 0.33367 0.0
C807 C 0.76149 0.95929 0.33998 0.0
H808 H 0.6513 0.83418 0.34131 0.0
C809 C 0.7857 0.95636 0.35808 0.0
H810 H 0.69898 0.91053 0.31963 0.0
C811 C 0.75948 0.9115 0.37031 0.0
C812 C 0.70869 0.86904 0.36466 0.0
H813 H 0.81993 0.99282 0.36339 0.0
H814 H 0.77295 0.91576 0.38479 0.0
C815 C 0.69115 0.86565 0.34593 0.0
C816 C 0.86897 0.0593 0.11958 0.0
C817 C 0.83451 0.02496 0.10561 0.0
H818 H 0.93335 0.05415 0.14249 0.0
C819 C 0.83233 0.95645 0.10575 0.0
H820 H 0.87137 0.11199 0.11997 0.0
C821 C 0.86877 0.92302 0.11854 0.0
C822 C 0.90745 0.95753 0.13156 0.0
H823 H 0.80424 0.92854 0.09555 0.0
H824 H 0.86979 0.87043 0.11745 0.0
C825 C 0.90466 0.02595 0.13249 0.0
C826 C 0.98734 0.10592 0.83613 0.0
C827 C 0.93498 0.11267 0.824 0.0
H828 H 0.04011 0.14608 0.85917 0.0
C829 C 0.89704 0.16882 0.82543 0.0
H830 H 0.01689 0.06274 0.83552 0.0
C831 C 0.90983 0.21631 0.83919 0.0
C832 C 0.96081 0.20844 0.85177 0.0
H833 H 0.85671 0.17544 0.81612 0.0
H834 H 0.87908 0.25856 0.84013 0.0
C835 C 0.00012 0.15334 0.84985 0.0
C836 C 0.76304 0.89945 0.46562 0.0
C837 C 0.80932 0.9405 0.45731 0.0
H838 H 0.67407 0.84531 0.46246 0.0
C839 C 0.79366 0.96868 0.44045 0.0
H840 H 0.77297 0.8775 0.47869 0.0
C841 C 0.73632 0.95028 0.43119 0.0
C842 C 0.69358 0.90404 0.43872 0.0
H843 H 0.8279 0.00083 0.43371 0.0
H844 H 0.72934 0.96613 0.41718 0.0
C845 C 0.70521 0.88241 0.45657 0.0
C846 C 0.9886 0.95332 0.23087 0.0
C847 C 0.94939 0.92875 0.24511 0.0
H848 H 0.02043 0.94113 0.20277 0.0
C849 C 0.92023 0.86694 0.24276 0.0
H850 H 0.0107 0.00134 0.23219 0.0
C851 C 0.92552 0.83295 0.22587 0.0
C852 C 0.96053 0.86007 0.21118 0.0
H853 H 0.88994 0.84689 0.25354 0.0
H854 H 0.90025 0.78656 0.22407 0.0
C855 C 0.99396 0.91923 0.214 0.0
C856 C 0.80935 0.26005 0.95897 0.0
C857 C 0.76389 0.20922 0.95538 0.0
H858 H 0.90153 0.30294 0.95198 0.0
C859 C 0.77479 0.16656 0.94009 0.0
H860 H 0.80369 0.29337 0.97074 0.0
C861 C 0.83215 0.17098 0.92977 0.0
C862 C 0.87867 0.21955 0.93408 0.0
H863 H 0.74033 0.12788 0.93654 0.0
H864 H 0.84095 0.13541 0.9187 0.0
C865 C 0.86587 0.26545 0.9483 0.0
C866 C 0.73707 0.02857 0.69829 0.0
C867 C 0.74536 0.05726 0.71601 0.0
H868 H 0.69563 0.03688 0.67137 0.0
C869 C 0.72368 0.12082 0.71957 0.0
H870 H 0.75295 0.97934 0.69529 0.0
C871 C 0.69183 0.15425 0.70578 0.0
C872 C 0.67979 0.12386 0.68841 0.0
H873 H 0.72969 0.1438 0.73316 0.0
H874 H 0.67339 0.2023 0.70909 0.0
C875 C 0.70409 0.06136 0.68465 0.0
C876 C 0.82381 0.50619 0.96744 0.0
C877 C 0.76014 0.482 0.96507 0.0
H878 H 0.92134 0.50686 0.95722 0.0
C879 C 0.74735 0.43376 0.95137 0.0
H880 H 0.83484 0.54276 0.97813 0.0
C881 C 0.79655 0.4136 0.93929 0.0
C882 C 0.8595 0.44075 0.9409 0.0
H883 H 0.6986 0.41425 0.94934 0.0
H884 H 0.78466 0.37844 0.92831 0.0
C885 C 0.87325 0.48537 0.95553 0.0
C886 C 0.79931 0.46187 0.19571 0.0
C887 C 0.8481 0.41589 0.19794 0.0
H888 H 0.77208 0.54991 0.18296 0.0
C889 C 0.90359 0.41789 0.18659 0.0
H890 H 0.75615 0.46135 0.20434 0.0
C891 C 0.91234 0.46799 0.17415 0.0
C892 C 0.86627 0.51748 0.17317 0.0
H893 H 0.94156 0.38248 0.18799 0.0
H894 H 0.95745 0.47064 0.16642 0.0
C895 C 0.80851 0.51254 0.18351 0.0
C896 C 0.81598 0.57723 0.47909 0.0
C897 C 0.87444 0.6132 0.47837 0.0
H898 H 0.72523 0.55389 0.46594 0.0
C899 C 0.88856 0.64985 0.46278 0.0
H900 H 0.80423 0.54848 0.491 0.0
C901 C 0.84401 0.65246 0.4484 0.0
C902 C 0.78407 0.6189 0.44941 0.0
H903 H 0.93394 0.677 0.46176 0.0
H904 H 0.85586 0.68267 0.43681 0.0
C905 C 0.77095 0.58027 0.46475 0.0
C906 C 0.66479 0.49137 0.74617 0.0
C907 C 0.73148 0.49771 0.74981 0.0
H908 H 0.59313 0.44974 0.72819 0.0
C909 C 0.77434 0.45211 0.7418 0.0
H910 H 0.63035 0.52539 0.75217 0.0
C911 C 0.75244 0.40857 0.7279 0.0
C912 C 0.68767 0.41075 0.72202 0.0
H913 H 0.82588 0.45508 0.74478 0.0
H914 H 0.78766 0.37948 0.72032 0.0
C915 C 0.64321 0.4481 0.73233 0.0
C916 C 0.68732 0.77462 0.1031 0.0
C917 C 0.6766 0.71957 0.09151 0.0
H918 H 0.75041 0.82172 0.12308 0.0
C919 C 0.72576 0.6733 0.0894 0.0
H920 H 0.65037 0.81131 0.10477 0.0
C921 C 0.78352 0.6802 0.09924 0.0
C922 C 0.79269 0.73269 0.11186 0.0
H923 H 0.71899 0.63084 0.08035 0.0
H924 H 0.81917 0.64215 0.09779 0.0
C925 C 0.74468 0.78072 0.11341 0.0
C926 C 0.72617 0.47734 0.34443 0.0
C927 C 0.69075 0.41857 0.3456 0.0
H928 H 0.73982 0.57499 0.35494 0.0
C929 C 0.63726 0.41522 0.35758 0.0
H930 H 0.76692 0.48129 0.33497 0.0
C931 C 0.6219 0.46861 0.36907 0.0
C932 C 0.65912 0.5267 0.36856 0.0
H933 H 0.60899 0.37055 0.35858 0.0
H934 H 0.58169 0.46371 0.37867 0.0
C935 C 0.71034 0.53105 0.35575 0.0
C936 C 0.89252 0.45214 0.6131 0.0
C937 C 0.8733 0.50674 0.6033 0.0
H938 H 0.87073 0.38654 0.63482 0.0
C939 C 0.81818 0.54072 0.60943 0.0
H940 H 0.93595 0.42608 0.60914 0.0
C941 C 0.7816 0.519 0.62445 0.0
C942 C 0.7989 0.46244 0.63367 0.0
H943 H 0.80193 0.58295 0.60225 0.0
H944 H 0.73809 0.54519 0.62829 0.0
C945 C 0.85567 0.43007 0.62805 0.0
C946 C 0.01592 0.65242 0.84259 0.0
C947 C 0.00099 0.71249 0.85134 0.0
H948 H 0.02493 0.54964 0.84533 0.0
C949 C 0.9905 0.71487 0.8706 0.0
H950 H 0.02385 0.64837 0.82779 0.0
C951 C 0.9914 0.65769 0.88065 0.0
C952 C 0.00126 0.59752 0.87147 0.0
H953 H 0.97922 0.76042 0.87774 0.0
H954 H 0.98145 0.66006 0.89539 0.0
C955 C 0.01543 0.59553 0.85253 0.0
C956 C 0.16567 0.70483 0.07046 0.0
C957 C 0.21291 0.65767 0.07387 0.0
H958 H 0.09117 0.76491 0.08236 0.0
C959 C 0.20616 0.62078 0.0899 0.0
H960 H 0.16683 0.73213 0.0579 0.0
C961 C 0.15984 0.637 0.10328 0.0
C962 C 0.12111 0.69169 0.10123 0.0
H963 H 0.24067 0.58391 0.09328 0.0
H964 H 0.16145 0.61315 0.11644 0.0
C965 C 0.12052 0.7223 0.08419 0.0
C966 C 0.30843 0.48633 0.86735 0.0
C967 C 0.28724 0.48251 0.84891 0.0
H968 H 0.29268 0.45325 0.8948 0.0
C969 C 0.24659 0.43024 0.84309 0.0
H970 H 0.34005 0.52587 0.87218 0.0
C971 C 0.22064 0.3877 0.856 0.0
C972 C 0.23432 0.39786 0.87487 0.0
H973 H 0.2307 0.42555 0.82883 0.0
H974 H 0.18353 0.35271 0.85154 0.0
C975 C 0.28192 0.44429 0.88027 0.0
C976 C 0.39097 0.53572 0.62234 0.0
C977 C 0.35437 0.49898 0.60936 0.0
H978 H 0.45774 0.53465 0.64469 0.0
C979 C 0.35285 0.43073 0.6102 0.0
H980 H 0.39299 0.58836 0.62204 0.0
C981 C 0.39097 0.39965 0.623 0.0
C982 C 0.43049 0.43635 0.6353 0.0
H983 H 0.32333 0.40125 0.60071 0.0
H984 H 0.39151 0.34707 0.62269 0.0
C985 C 0.42825 0.50473 0.63529 0.0
C986 C 0.48855 0.54248 0.34559 0.0
C987 C 0.4314 0.53347 0.33533 0.0
H988 H 0.54051 0.60156 0.36524 0.0
C989 C 0.37997 0.57703 0.33832 0.0
H990 H 0.52882 0.50975 0.34367 0.0
C991 C 0.38641 0.62927 0.35107 0.0
C992 C 0.4445 0.63902 0.36098 0.0
H993 H 0.33557 0.57217 0.33038 0.0
H994 H 0.34659 0.66275 0.3528 0.0
C995 C 0.495 0.5947 0.35816 0.0
C996 C 0.16382 0.48092 0.97481 0.0
C997 C 0.22147 0.51487 0.9706 0.0
H998 H 0.09711 0.40435 0.96635 0.0
C999 C 0.25374 0.50119 0.95382 0.0
H1000 H 0.13878 0.49039 0.98781 0.0
C1001 C 0.23181 0.45075 0.94212 0.0
C1002 C 0.1763 0.41456 0.94679 0.0
H1003 H 0.29869 0.52625 0.9504 0.0
H1004 H 0.25908 0.43898 0.92964 0.0
C1005 C 0.14062 0.43157 0.96274 0.0
C1006 C 0.46093 0.45229 0.73034 0.0
C1007 C 0.41442 0.43245 0.74333 0.0
H1008 H 0.50673 0.43295 0.70423 0.0
C1009 C 0.37765 0.3754 0.73968 0.0
H1010 H 0.4882 0.49727 0.73249 0.0
C1011 C 0.38816 0.33852 0.72337 0.0
C1012 C 0.43551 0.35835 0.71055 0.0
H1013 H 0.3407 0.35965 0.74934 0.0
H1014 H 0.35975 0.29433 0.72087 0.0
C1015 C 0.47139 0.41568 0.71414 0.0
C1016 C 0.29878 0.73159 0.45514 0.0
C1017 C 0.28277 0.67362 0.46404 0.0
H1018 H 0.36735 0.78198 0.4382 0.0
C1019 C 0.32493 0.62068 0.46193 0.0
H1020 H 0.26733 0.77312 0.45644 0.0
C1021 C 0.38184 0.62585 0.45146 0.0
C1022 C 0.39854 0.6842 0.44279 0.0
H1023 H 0.31533 0.57569 0.46893 0.0
H1024 H 0.41325 0.5841 0.45045 0.0
C1025 C 0.35597 0.73671 0.44465 0.0
C1026 C 0.24557 0.61767 0.19663 0.0
C1027 C 0.261 0.55473 0.1901 0.0
H1028 H 0.18962 0.70279 0.19243 0.0
C1029 C 0.23839 0.53245 0.17275 0.0
H1030 H 0.26283 0.63561 0.21002 0.0
C1031 C 0.19582 0.57024 0.16285 0.0
C1032 C 0.17602 0.63107 0.17009 0.0
H1033 H 0.24957 0.4839 0.16754 0.0
H1034 H 0.17575 0.55035 0.15 0.0
C1035 C 0.20379 0.65594 0.18659 0.0
loop_
_geom_bond_atom_site_label_1
_geom_bond_atom_site_label_2
_geom_bond_distance
_geom_bond_site_symmetry_2
_ccdc_geom_bond_type
H0 O26 0.856 . S
H1 O29 0.854 . S
H2 C37 0.930 . S
H3 C38 0.930 . S
H4 C40 0.930 1_565 S
H5 C41 0.930 1_565 S
H6 C43 0.931 . S
H7 C44 0.930 . S
H8 C46 0.930 . S
H9 C47 0.929 . S
H10 C49 0.930 . S
H11 C50 0.931 . S
H12 C52 0.930 . S
H13 C53 0.929 1_565 S
H14 C55 0.931 . S
H15 C56 0.930 . S
H16 C58 0.930 . S
H17 C59 0.932 . S
H18 C61 0.930 1_545 S
H19 C62 0.929 . S
H20 C64 0.931 . S
H21 C65 0.930 . S
H22 C67 0.929 . S
H23 C68 0.931 1_545 S
H24 C70 0.930 . S
H25 C71 0.929 . S
O26 H0 0.856 . S
O26 C72 1.300 . S
O27 C72 1.209 . S
O28 C73 1.199 . S
O29 H1 0.854 . S
O29 C73 1.297 . S
C30 C31 1.404 1_455 S
C30 C35 1.397 1_455 S
C30 C36 1.492 . S
C31 C30 1.404 1_655 S
C31 C32 1.396 . S
C31 C42 1.492 . S
C32 C31 1.396 . S
C32 C33 1.397 . S
C32 C48 1.509 . S
C33 C32 1.397 . S
C33 C34 1.412 1_545 S
C33 C54 1.484 1_545 S
C34 C33 1.412 1_565 S
C34 C35 1.388 1_565 S
C34 C60 1.490 . S
C35 C30 1.397 1_655 S
C35 C34 1.388 1_545 S
C35 C66 1.519 1_645 S
C36 C30 1.492 . S
C36 C37 1.363 . S
C36 C41 1.390 . S
C37 H2 0.930 . S
C37 C36 1.363 . S
C37 C38 1.372 . S
C38 H3 0.930 . S
C38 C37 1.372 . S
C38 C39 1.383 . S
C39 C38 1.383 . S
C39 C40 1.395 . S
C40 H4 0.930 1_545 S
C40 C39 1.395 . S
C40 C41 1.362 . S
C41 H5 0.930 1_545 S
C41 C36 1.390 . S
C41 C40 1.362 . S
C42 C31 1.492 . S
C42 C43 1.377 . S
C42 C47 1.397 1_655 S
C43 H6 0.931 . S
C43 C42 1.377 . S
C43 C44 1.376 . S
C44 H7 0.930 . S
C44 C43 1.376 . S
C44 C45 1.376 1_655 S
C45 C44 1.376 1_455 S
C45 C46 1.378 . S
C45 C72 1.486 . S
C46 H8 0.930 . S
C46 C45 1.378 . S
C46 C47 1.376 . S
C47 H9 0.929 . S
C47 C42 1.397 1_455 S
C47 C46 1.376 . S
C48 C32 1.509 . S
C48 C49 1.391 . S
C48 C53 1.386 . S
C49 H10 0.930 . S
C49 C48 1.391 . S
C49 C50 1.375 . S
C50 H11 0.931 . S
C50 C49 1.375 . S
C50 C51 1.375 . S
C51 C50 1.375 . S
C51 C52 1.361 . S
C52 H12 0.930 . S
C52 C51 1.361 . S
C52 C53 1.399 . S
C53 H13 0.929 1_545 S
C53 C48 1.386 . S
C53 C52 1.399 . S
C54 C33 1.484 1_565 S
C54 C55 1.391 1_565 S
C54 C59 1.364 . S
C55 H14 0.931 . S
C55 C54 1.391 1_545 S
C55 C56 1.372 . S
C56 H15 0.930 . S
C56 C55 1.372 . S
C56 C57 1.397 1_545 S
C57 C56 1.397 1_565 S
C57 C58 1.390 . S
C57 C73 1.476 . S
C58 H16 0.930 . S
C58 C57 1.390 . S
C58 C59 1.366 . S
C59 H17 0.932 . S
C59 C54 1.364 . S
C59 C58 1.366 . S
C60 C34 1.490 . S
C60 C61 1.380 . S
C60 C65 1.386 . S
C61 H18 0.930 1_565 S
C61 C60 1.380 . S
C61 C62 1.381 . S
C62 H19 0.929 . S
C62 C61 1.381 . S
C62 C63 1.371 . S
C63 C62 1.371 . S
C63 C64 1.380 . S
C64 H20 0.931 . S
C64 C63 1.380 . S
C64 C65 1.387 . S
C65 H21 0.930 . S
C65 C60 1.386 . S
C65 C64 1.387 . S
C66 C35 1.519 1_465 S
C66 C67 1.377 1_565 S
C66 C71 1.361 . S
C67 H22 0.929 . S
C67 C66 1.377 1_545 S
C67 C68 1.386 1_545 S
C68 H23 0.931 1_565 S
C68 C67 1.386 1_565 S
C68 C69 1.363 . S
C69 C68 1.363 . S
C69 C70 1.385 . S
C70 H24 0.930 . S
C70 C69 1.385 . S
C70 C71 1.396 . S
C71 H25 0.929 . S
C71 C66 1.361 . S
C71 C70 1.396 . S
C72 O26 1.300 . S
C72 O27 1.209 . S
C72 C45 1.486 . S
C73 O28 1.199 . S
C73 O29 1.297 . S
C73 C57 1.476 . S
H74 O100 0.856 . S
H75 O103 0.854 . S
H76 C111 0.930 . S
H77 C112 0.930 . S
H78 C114 0.930 . S
H79 C115 0.930 . S
H80 C117 0.931 . S
H81 C118 0.930 . S
H82 C120 0.930 . S
H83 C121 0.929 . S
H84 C123 0.930 . S
H85 C124 0.931 . S
H86 C126 0.930 . S
H87 C127 0.929 . S
H88 C129 0.931 . S
H89 C130 0.930 . S
H90 C132 0.930 1_545 S
H91 C133 0.932 . S
H92 C135 0.930 . S
H93 C136 0.929 . S
H94 C138 0.931 . S
H95 C139 0.930 . S
H96 C141 0.929 . S
H97 C142 0.931 . S
H98 C144 0.930 . S
H99 C145 0.929 . S
O100 H74 0.856 . S
O100 C146 1.300 . S
O101 C146 1.209 . S
O102 C147 1.199 . S
O103 H75 0.854 . S
O103 C147 1.297 . S
C104 C105 1.404 . S
C104 C109 1.397 . S
C104 C110 1.492 . S
C105 C104 1.404 . S
C105 C106 1.396 . S
C105 C116 1.492 . S
C106 C105 1.396 . S
C106 C107 1.397 . S
C106 C122 1.509 . S
C107 C106 1.397 . S
C107 C108 1.412 . S
C107 C128 1.485 . S
C108 C107 1.412 . S
C108 C109 1.388 . S
C108 C134 1.490 . S
C109 C104 1.397 . S
C109 C108 1.388 . S
C109 C140 1.519 . S
C110 C104 1.492 . S
C110 C111 1.363 . S
C110 C115 1.390 . S
C111 H76 0.930 . S
C111 C110 1.363 . S
C111 C112 1.372 . S
C112 H77 0.930 . S
C112 C111 1.372 . S
C112 C113 1.383 . S
C113 C112 1.383 . S
C113 C114 1.395 . S
C114 H78 0.930 . S
C114 C113 1.395 . S
C114 C115 1.362 . S
C115 H79 0.930 . S
C115 C110 1.390 . S
C115 C114 1.362 . S
C116 C105 1.492 . S
C116 C117 1.377 . S
C116 C121 1.397 . S
C117 H80 0.931 . S
C117 C116 1.377 . S
C117 C118 1.376 . S
C118 H81 0.930 . S
C118 C117 1.376 . S
C118 C119 1.376 . S
C119 C118 1.376 . S
C119 C120 1.378 . S
C119 C146 1.486 . S
C120 H82 0.930 . S
C120 C119 1.378 . S
C120 C121 1.376 . S
C121 H83 0.929 . S
C121 C116 1.397 . S
C121 C120 1.376 . S
C122 C106 1.509 . S
C122 C123 1.391 . S
C122 C127 1.386 . S
C123 H84 0.930 . S
C123 C122 1.391 . S
C123 C124 1.375 . S
C124 H85 0.931 . S
C124 C123 1.375 . S
C124 C125 1.375 . S
C125 C124 1.375 . S
C125 C126 1.361 . S
C126 H86 0.930 . S
C126 C125 1.361 . S
C126 C127 1.399 . S
C127 H87 0.929 . S
C127 C122 1.386 . S
C127 C126 1.399 . S
C128 C107 1.485 . S
C128 C129 1.394 . S
C128 C133 1.360 . S
C129 H88 0.931 . S
C129 C128 1.394 . S
C129 C130 1.372 . S
C130 H89 0.930 . S
C130 C129 1.372 . S
C130 C131 1.397 1_565 S
C131 C130 1.397 1_545 S
C131 C132 1.390 1_545 S
C131 C147 1.476 . S
C132 H90 0.930 1_565 S
C132 C131 1.390 1_565 S
C132 C133 1.366 . S
C133 H91 0.932 . S
C133 C128 1.360 . S
C133 C132 1.366 . S
C134 C108 1.490 . S
C134 C135 1.380 . S
C134 C139 1.386 . S
C135 H92 0.930 . S
C135 C134 1.380 . S
C135 C136 1.381 . S
C136 H93 0.929 . S
C136 C135 1.381 . S
C136 C137 1.371 . S
C137 C136 1.371 . S
C137 C138 1.380 . S
C138 H94 0.931 . S
C138 C137 1.380 . S
C138 C139 1.387 . S
C139 H95 0.930 . S
C139 C134 1.386 . S
C139 C138 1.387 . S
C140 C109 1.519 . S
C140 C141 1.377 . S
C140 C145 1.361 . S
C141 H96 0.929 . S
C141 C140 1.377 . S
C141 C142 1.386 . S
C142 H97 0.931 . S
C142 C141 1.386 . S
C142 C143 1.363 . S
C143 C142 1.363 . S
C143 C144 1.385 . S
C144 H98 0.930 . S
C144 C143 1.385 . S
C144 C145 1.396 . S
C145 H99 0.929 . S
C145 C140 1.361 . S
C145 C144 1.396 . S
C146 O100 1.300 . S
C146 O101 1.209 . S
C146 C119 1.486 . S
C147 O102 1.199 . S
C147 O103 1.297 . S
C147 C131 1.476 . S
H148 O174 0.856 . S
H149 O177 0.854 . S
H150 C185 0.930 . S
H151 C186 0.930 . S
H152 C188 0.930 . S
H153 C189 0.930 . S
H154 C191 0.931 . S
H155 C192 0.930 . S
H156 C194 0.930 . S
H157 C195 0.929 . S
H158 C197 0.930 . S
H159 C198 0.931 . S
H160 C200 0.930 . S
H161 C201 0.929 . S
H162 C203 0.931 . S
H163 C204 0.930 . S
H164 C206 0.930 . S
H165 C207 0.932 . S
H166 C209 0.930 . S
H167 C210 0.929 . S
H168 C212 0.931 . S
H169 C213 0.930 . S
H170 C215 0.929 . S
H171 C216 0.931 1_556 S
H172 C218 0.930 . S
H173 C219 0.929 . S
O174 H148 0.856 . S
O174 C220 1.300 . S
O175 C220 1.209 . S
O176 C221 1.199 . S
O177 H149 0.854 . S
O177 C221 1.297 . S
C178 C179 1.404 . S
C178 C183 1.397 . S
C178 C184 1.492 . S
C179 C178 1.404 . S
C179 C180 1.396 . S
C179 C190 1.492 . S
C180 C179 1.396 . S
C180 C181 1.397 . S
C180 C196 1.509 . S
C181 C180 1.397 . S
C181 C182 1.412 . S
C181 C202 1.485 . S
C182 C181 1.412 . S
C182 C183 1.388 . S
C182 C208 1.490 . S
C183 C178 1.397 . S
C183 C182 1.388 . S
C183 C214 1.519 . S
C184 C178 1.492 . S
C184 C185 1.363 1_545 S
C184 C189 1.390 . S
C185 H150 0.930 . S
C185 C184 1.363 1_565 S
C185 C186 1.372 . S
C186 H151 0.930 . S
C186 C185 1.372 . S
C186 C187 1.383 1_565 S
C187 C186 1.383 1_545 S
C187 C188 1.395 . S
C188 H152 0.930 . S
C188 C187 1.395 . S
C188 C189 1.362 . S
C189 H153 0.930 . S
C189 C184 1.390 . S
C189 C188 1.362 . S
C190 C179 1.492 . S
C190 C191 1.377 1_545 S
C190 C195 1.397 . S
C191 H154 0.931 . S
C191 C190 1.377 1_565 S
C191 C192 1.376 . S
C192 H155 0.930 . S
C192 C191 1.376 . S
C192 C193 1.376 . S
C193 C192 1.376 . S
C193 C194 1.378 1_565 S
C193 C220 1.486 . S
C194 H156 0.930 . S
C194 C193 1.378 1_545 S
C194 C195 1.376 . S
C195 H157 0.929 . S
C195 C190 1.397 . S
C195 C194 1.376 . S
C196 C180 1.509 . S
C196 C197 1.391 1_545 S
C196 C201 1.386 . S
C197 H158 0.930 . S
C197 C196 1.391 1_565 S
C197 C198 1.375 . S
C198 H159 0.931 . S
C198 C197 1.375 . S
C198 C199 1.375 . S
C199 C198 1.375 . S
C199 C200 1.361 1_565 S
C200 H160 0.930 . S
C200 C199 1.361 1_545 S
C200 C201 1.399 . S
C201 H161 0.929 . S
C201 C196 1.386 . S
C201 C200 1.399 . S
C202 C181 1.485 . S
C202 C203 1.394 . S
C202 C207 1.360 . S
C203 H162 0.931 . S
C203 C202 1.394 . S
C203 C204 1.372 . S
C204 H163 0.930 . S
C204 C203 1.372 . S
C204 C205 1.397 . S
C205 C204 1.397 . S
C205 C206 1.390 . S
C205 C221 1.476 1_655 S
C206 H164 0.930 . S
C206 C205 1.390 . S
C206 C207 1.366 . S
C207 H165 0.932 . S
C207 C202 1.360 . S
C207 C206 1.366 . S
C208 C182 1.490 . S
C208 C209 1.380 1_554 S
C208 C213 1.386 . S
C209 H166 0.930 . S
C209 C208 1.380 1_556 S
C209 C210 1.381 . S
C210 H167 0.929 . S
C210 C209 1.381 . S
C210 C211 1.371 . S
C211 C210 1.371 . S
C211 C212 1.380 . S
C212 H168 0.931 . S
C212 C211 1.380 . S
C212 C213 1.387 1_556 S
C213 H169 0.930 . S
C213 C208 1.386 . S
C213 C212 1.387 1_554 S
C214 C183 1.519 . S
C214 C215 1.377 . S
C214 C219 1.361 . S
C215 H170 0.929 . S
C215 C214 1.377 . S
C215 C216 1.386 . S
C216 H171 0.931 1_554 S
C216 C215 1.386 . S
C216 C217 1.363 . S
C217 C216 1.363 . S
C217 C218 1.385 . S
C218 H172 0.930 . S
C218 C217 1.385 . S
C218 C219 1.396 . S
C219 H173 0.929 . S
C219 C214 1.361 . S
C219 C218 1.396 . S
C220 O174 1.300 . S
C220 O175 1.209 . S
C220 C193 1.486 . S
C221 O176 1.199 . S
C221 O177 1.297 . S
C221 C205 1.476 1_455 S
H222 O248 0.856 . S
H223 O251 0.854 . S
H224 C259 0.930 . S
H225 C260 0.930 . S
H226 C262 0.930 . S
H227 C263 0.930 . S
H228 C265 0.931 . S
H229 C266 0.930 . S
H230 C268 0.930 . S
H231 C269 0.929 . S
H232 C271 0.930 . S
H233 C272 0.931 . S
H234 C274 0.930 . S
H235 C275 0.929 . S
H236 C277 0.931 . S
H237 C278 0.930 . S
H238 C280 0.930 . S
H239 C281 0.932 . S
H240 C283 0.930 . S
H241 C284 0.929 . S
H242 C286 0.931 . S
H243 C287 0.930 . S
H244 C289 0.929 . S
H245 C290 0.931 . S
H246 C292 0.930 . S
H247 C293 0.929 . S
O248 H222 0.856 . S
O248 C294 1.300 . S
O249 C294 1.209 . S
O250 C295 1.199 . S
O251 H223 0.854 . S
O251 C295 1.297 . S
C252 C253 1.404 . S
C252 C257 1.397 . S
C252 C258 1.492 . S
C253 C252 1.404 . S
C253 C254 1.396 . S
C253 C264 1.492 . S
C254 C253 1.396 . S
C254 C255 1.397 . S
C254 C270 1.509 . S
C255 C254 1.397 . S
C255 C256 1.412 . S
C255 C276 1.485 . S
C256 C255 1.412 . S
C256 C257 1.388 . S
C256 C282 1.490 . S
C257 C252 1.397 . S
C257 C256 1.388 . S
C257 C288 1.519 . S
C258 C252 1.492 . S
C258 C259 1.363 . S
C258 C263 1.390 . S
C259 H224 0.930 . S
C259 C258 1.363 . S
C259 C260 1.372 . S
C260 H225 0.930 . S
C260 C259 1.372 . S
C260 C261 1.383 . S
C261 C260 1.383 . S
C261 C262 1.395 . S
C262 H226 0.930 . S
C262 C261 1.395 . S
C262 C263 1.362 . S
C263 H227 0.930 . S
C263 C258 1.390 . S
C263 C262 1.362 . S
C264 C253 1.492 . S
C264 C265 1.377 . S
C264 C269 1.397 . S
C265 H228 0.931 . S
C265 C264 1.377 . S
C265 C266 1.376 . S
C266 H229 0.930 . S
C266 C265 1.376 . S
C266 C267 1.376 . S
C267 C266 1.376 . S
C267 C268 1.378 . S
C267 C294 1.486 . S
C268 H230 0.930 . S
C268 C267 1.378 . S
C268 C269 1.376 . S
C269 H231 0.929 . S
C269 C264 1.397 . S
C269 C268 1.376 . S
C270 C254 1.509 . S
C270 C271 1.391 . S
C270 C275 1.386 . S
C271 H232 0.930 . S
C271 C270 1.391 . S
C271 C272 1.375 . S
C272 H233 0.931 . S
C272 C271 1.375 . S
C272 C273 1.375 . S
C273 C272 1.375 . S
C273 C274 1.361 . S
C274 H234 0.930 . S
C274 C273 1.361 . S
C274 C275 1.399 . S
C275 H235 0.929 . S
C275 C270 1.386 . S
C275 C274 1.399 . S
C276 C255 1.485 . S
C276 C277 1.394 . S
C276 C281 1.360 . S
C277 H236 0.931 . S
C277 C276 1.394 . S
C277 C278 1.372 . S
C278 H237 0.930 . S
C278 C277 1.372 . S
C278 C279 1.397 . S
C279 C278 1.397 . S
C279 C280 1.390 . S
C279 C295 1.476 . S
C280 H238 0.930 . S
C280 C279 1.390 . S
C280 C281 1.366 . S
C281 H239 0.932 . S
C281 C276 1.360 . S
C281 C280 1.366 . S
C282 C256 1.490 . S
C282 C283 1.380 . S
C282 C287 1.386 . S
C283 H240 0.930 . S
C283 C282 1.380 . S
C283 C284 1.381 . S
C284 H241 0.929 . S
C284 C283 1.381 . S
C284 C285 1.371 . S
C285 C284 1.371 . S
C285 C286 1.380 . S
C286 H242 0.931 . S
C286 C285 1.380 . S
C286 C287 1.387 . S
C287 H243 0.930 . S
C287 C282 1.386 . S
C287 C286 1.387 . S
C288 C257 1.519 . S
C288 C289 1.377 . S
C288 C293 1.361 . S
C289 H244 0.929 . S
C289 C288 1.377 . S
C289 C290 1.386 . S
C290 H245 0.931 . S
C290 C289 1.386 . S
C290 C291 1.363 . S
C291 C290 1.363 . S
C291 C292 1.385 . S
C292 H246 0.930 . S
C292 C291 1.385 . S
C292 C293 1.396 . S
C293 H247 0.929 . S
C293 C288 1.361 . S
C293 C292 1.396 . S
C294 O248 1.300 . S
C294 O249 1.209 . S
C294 C267 1.486 . S
C295 O250 1.199 . S
C295 O251 1.297 . S
C295 C279 1.476 . S
H296 O322 0.856 1_455 S
H297 O325 0.854 . S
H298 C333 0.930 . S
H299 C334 0.930 . S
H300 C336 0.930 1_565 S
H301 C337 0.930 . S
H302 C339 0.931 . S
H303 C340 0.930 . S
H304 C342 0.930 1_455 S
H305 C343 0.929 . S
H306 C345 0.930 . S
H307 C346 0.931 . S
H308 C348 0.930 1_455 S
H309 C349 0.929 . S
H310 C351 0.931 . S
H311 C352 0.930 . S
H312 C354 0.930 . S
H313 C355 0.932 . S
H314 C357 0.930 . S
H315 C358 0.929 . S
H316 C360 0.931 . S
H317 C361 0.930 . S
H318 C363 0.929 . S
H319 C364 0.931 . S
H320 C366 0.930 . S
H321 C367 0.929 . S
O322 H296 0.856 1_655 S
O322 C368 1.300 1_655 S
O323 C368 1.209 . S
O324 C369 1.199 . S
O325 H297 0.854 . S
O325 C369 1.297 . S
C326 C327 1.404 . S
C326 C331 1.397 . S
C326 C332 1.492 . S
C327 C326 1.404 . S
C327 C328 1.396 . S
C327 C338 1.492 . S
C328 C327 1.396 . S
C328 C329 1.397 . S
C328 C344 1.509 . S
C329 C328 1.397 . S
C329 C330 1.412 . S
C329 C350 1.485 . S
C330 C329 1.412 . S
C330 C331 1.388 . S
C330 C356 1.490 . S
C331 C326 1.397 . S
C331 C330 1.388 . S
C331 C362 1.519 . S
C332 C326 1.492 . S
C332 C333 1.363 . S
C332 C337 1.390 . S
C333 H298 0.930 . S
C333 C332 1.363 . S
C333 C334 1.372 . S
C334 H299 0.930 . S
C334 C333 1.372 . S
C334 C335 1.383 1_545 S
C335 C334 1.383 1_565 S
C335 C336 1.395 1_565 S
C336 H300 0.930 1_545 S
C336 C335 1.395 1_545 S
C336 C337 1.362 . S
C337 H301 0.930 . S
C337 C332 1.390 . S
C337 C336 1.362 . S
C338 C327 1.492 . S
C338 C339 1.377 . S
C338 C343 1.397 . S
C339 H302 0.931 . S
C339 C338 1.377 . S
C339 C340 1.376 . S
C340 H303 0.930 . S
C340 C339 1.376 . S
C340 C341 1.376 . S
C341 C340 1.376 . S
C341 C342 1.378 . S
C341 C368 1.486 1_655 S
C342 H304 0.930 1_655 S
C342 C341 1.378 . S
C342 C343 1.376 . S
C343 H305 0.929 . S
C343 C338 1.397 . S
C343 C342 1.376 . S
C344 C328 1.509 . S
C344 C345 1.391 . S
C344 C349 1.386 . S
C345 H306 0.930 . S
C345 C344 1.391 . S
C345 C346 1.375 . S
C346 H307 0.931 . S
C346 C345 1.375 . S
C346 C347 1.375 . S
C347 C346 1.375 . S
C347 C348 1.361 . S
C348 H308 0.930 1_655 S
C348 C347 1.361 . S
C348 C349 1.399 . S
C349 H309 0.929 . S
C349 C344 1.386 . S
C349 C348 1.399 . S
C350 C329 1.485 . S
C350 C351 1.394 . S
C350 C355 1.360 . S
C351 H310 0.931 . S
C351 C350 1.394 . S
C351 C352 1.372 . S
C352 H311 0.930 . S
C352 C351 1.372 . S
C352 C353 1.397 . S
C353 C352 1.397 . S
C353 C354 1.390 . S
C353 C369 1.476 . S
C354 H312 0.930 . S
C354 C353 1.390 . S
C354 C355 1.366 . S
C355 H313 0.932 . S
C355 C350 1.360 . S
C355 C354 1.366 . S
C356 C330 1.490 . S
C356 C357 1.380 . S
C356 C361 1.386 . S
C357 H314 0.930 . S
C357 C356 1.380 . S
C357 C358 1.381 . S
C358 H315 0.929 . S
C358 C357 1.381 . S
C358 C359 1.371 . S
C359 C358 1.371 . S
C359 C360 1.380 . S
C360 H316 0.931 . S
C360 C359 1.380 . S
C360 C361 1.387 . S
C361 H317 0.930 . S
C361 C356 1.386 . S
C361 C360 1.387 . S
C362 C331 1.519 . S
C362 C363 1.377 . S
C362 C367 1.361 . S
C363 H318 0.929 . S
C363 C362 1.377 . S
C363 C364 1.386 . S
C364 H319 0.931 . S
C364 C363 1.386 . S
C364 C365 1.363 . S
C365 C364 1.363 . S
C365 C366 1.385 . S
C366 H320 0.930 . S
C366 C365 1.385 . S
C366 C367 1.396 . S
C367 H321 0.929 . S
C367 C362 1.361 . S
C367 C366 1.396 . S
C368 O322 1.300 1_455 S
C368 O323 1.209 . S
C368 C341 1.486 1_455 S
C369 O324 1.199 . S
C369 O325 1.297 . S
C369 C353 1.476 . S
H370 O396 0.856 . S
H371 O399 0.854 . S
H372 C407 0.930 . S
H373 C408 0.930 . S
H374 C410 0.930 . S
H375 C411 0.930 . S
H376 C413 0.931 . S
H377 C414 0.930 . S
H378 C416 0.930 . S
H379 C417 0.929 . S
H380 C419 0.930 . S
H381 C420 0.931 . S
H382 C422 0.930 . S
H383 C423 0.929 . S
H384 C425 0.931 . S
H385 C426 0.930 . S
H386 C428 0.930 . S
H387 C429 0.932 . S
H388 C431 0.930 . S
H389 C432 0.929 1_455 S
H390 C434 0.931 . S
H391 C435 0.930 . S
H392 C437 0.929 . S
H393 C438 0.931 . S
H394 C440 0.930 . S
H395 C441 0.929 . S
O396 H370 0.856 . S
O396 C442 1.300 . S
O397 C442 1.209 . S
O398 C443 1.199 . S
O399 H371 0.854 . S
O399 C443 1.297 . S
C400 C401 1.404 . S
C400 C405 1.397 . S
C400 C406 1.492 . S
C401 C400 1.404 . S
C401 C402 1.396 . S
C401 C412 1.492 . S
C402 C401 1.396 . S
C402 C403 1.397 . S
C402 C418 1.509 . S
C403 C402 1.397 . S
C403 C404 1.412 . S
C403 C424 1.485 . S
C404 C403 1.412 . S
C404 C405 1.388 . S
C404 C430 1.490 . S
C405 C400 1.397 . S
C405 C404 1.388 . S
C405 C436 1.519 . S
C406 C400 1.492 . S
C406 C407 1.363 . S
C406 C411 1.390 1_565 S
C407 H372 0.930 . S
C407 C406 1.363 . S
C407 C408 1.372 1_565 S
C408 H373 0.930 . S
C408 C407 1.372 1_545 S
C408 C409 1.383 . S
C409 C408 1.383 . S
C409 C410 1.395 . S
C410 H374 0.930 . S
C410 C409 1.395 . S
C410 C411 1.362 . S
C411 H375 0.930 . S
C411 C406 1.390 1_545 S
C411 C410 1.362 . S
C412 C401 1.492 . S
C412 C413 1.377 . S
C412 C417 1.397 . S
C413 H376 0.931 . S
C413 C412 1.377 . S
C413 C414 1.376 . S
C414 H377 0.930 . S
C414 C413 1.376 . S
C414 C415 1.376 . S
C415 C414 1.376 . S
C415 C416 1.378 . S
C415 C442 1.486 . S
C416 H378 0.930 . S
C416 C415 1.378 . S
C416 C417 1.376 . S
C417 H379 0.929 . S
C417 C412 1.397 . S
C417 C416 1.376 . S
C418 C402 1.509 . S
C418 C419 1.391 . S
C418 C423 1.386 . S
C419 H380 0.930 . S
C419 C418 1.391 . S
C419 C420 1.375 . S
C420 H381 0.931 . S
C420 C419 1.375 . S
C420 C421 1.375 . S
C421 C420 1.375 . S
C421 C422 1.361 . S
C422 H382 0.930 . S
C422 C421 1.361 . S
C422 C423 1.399 . S
C423 H383 0.929 . S
C423 C418 1.386 . S
C423 C422 1.399 . S
C424 C403 1.485 . S
C424 C425 1.394 . S
C424 C429 1.360 . S
C425 H384 0.931 . S
C425 C424 1.394 . S
C425 C426 1.372 . S
C426 H385 0.930 . S
C426 C425 1.372 . S
C426 C427 1.397 . S
C427 C426 1.397 . S
C427 C428 1.390 . S
C427 C443 1.476 . S
C428 H386 0.930 . S
C428 C427 1.390 . S
C428 C429 1.366 . S
C429 H387 0.932 . S
C429 C424 1.360 . S
C429 C428 1.366 . S
C430 C404 1.490 . S
C430 C431 1.380 . S
C430 C435 1.386 . S
C431 H388 0.930 . S
C431 C430 1.380 . S
C431 C432 1.381 . S
C432 H389 0.929 1_655 S
C432 C431 1.381 . S
C432 C433 1.371 . S
C433 C432 1.371 . S
C433 C434 1.380 . S
C434 H390 0.931 . S
C434 C433 1.380 . S
C434 C435 1.387 . S
C435 H391 0.930 . S
C435 C430 1.386 . S
C435 C434 1.387 . S
C436 C405 1.519 . S
C436 C437 1.377 . S
C436 C441 1.361 . S
C437 H392 0.929 . S
C437 C436 1.377 . S
C437 C438 1.386 1_565 S
C438 H393 0.931 . S
C438 C437 1.386 1_545 S
C438 C439 1.363 . S
C439 C438 1.363 . S
C439 C440 1.385 . S
C440 H394 0.930 . S
C440 C439 1.385 . S
C440 C441 1.396 1_545 S
C441 H395 0.929 . S
C441 C436 1.361 . S
C441 C440 1.396 1_565 S
C442 O396 1.300 . S
C442 O397 1.209 . S
C442 C415 1.486 . S
C443 O398 1.199 . S
C443 O399 1.297 . S
C443 C427 1.476 . S
H444 O470 0.856 . S
H445 O473 0.854 . S
H446 C481 0.930 1_556 S
H447 C482 0.930 . S
H448 C484 0.930 . S
H449 C485 0.930 . S
H450 C487 0.931 . S
H451 C488 0.930 . S
H452 C490 0.930 . S
H453 C491 0.929 1_554 S
H454 C493 0.930 . S
H455 C494 0.931 . S
H456 C496 0.930 . S
H457 C497 0.929 . S
H458 C499 0.931 . S
H459 C500 0.930 . S
H460 C502 0.930 . S
H461 C503 0.932 . S
H462 C505 0.930 . S
H463 C506 0.929 . S
H464 C508 0.931 . S
H465 C509 0.930 . S
H466 C511 0.929 . S
H467 C512 0.931 . S
H468 C514 0.930 . S
H469 C515 0.929 . S
O470 H444 0.856 . S
O470 C516 1.300 . S
O471 C516 1.209 . S
O472 C517 1.199 . S
O473 H445 0.854 . S
O473 C517 1.297 . S
C474 C475 1.404 . S
C474 C479 1.397 . S
C474 C480 1.492 . S
C475 C474 1.404 . S
C475 C476 1.396 . S
C475 C486 1.492 1_554 S
C476 C475 1.396 . S
C476 C477 1.397 . S
C476 C492 1.509 . S
C477 C476 1.397 . S
C477 C478 1.412 . S
C477 C498 1.485 . S
C478 C477 1.412 . S
C478 C479 1.388 . S
C478 C504 1.490 . S
C479 C474 1.397 . S
C479 C478 1.388 . S
C479 C510 1.519 . S
C480 C474 1.492 . S
C480 C481 1.363 . S
C480 C485 1.390 . S
C481 H446 0.930 1_554 S
C481 C480 1.363 . S
C481 C482 1.372 1_554 S
C482 H447 0.930 . S
C482 C481 1.372 1_556 S
C482 C483 1.383 1_556 S
C483 C482 1.383 1_554 S
C483 C484 1.395 . S
C484 H448 0.930 . S
C484 C483 1.395 . S
C484 C485 1.362 . S
C485 H449 0.930 . S
C485 C480 1.390 . S
C485 C484 1.362 . S
C486 C475 1.492 1_556 S
C486 C487 1.377 . S
C486 C491 1.397 . S
C487 H450 0.931 . S
C487 C486 1.377 . S
C487 C488 1.376 . S
C488 H451 0.930 . S
C488 C487 1.376 . S
C488 C489 1.376 . S
C489 C488 1.376 . S
C489 C490 1.378 . S
C489 C516 1.486 . S
C490 H452 0.930 . S
C490 C489 1.378 . S
C490 C491 1.376 . S
C491 H453 0.929 1_556 S
C491 C486 1.397 . S
C491 C490 1.376 . S
C492 C476 1.509 . S
C492 C493 1.391 1_554 S
C492 C497 1.386 . S
C493 H454 0.930 . S
C493 C492 1.391 1_556 S
C493 C494 1.375 . S
C494 H455 0.931 . S
C494 C493 1.375 . S
C494 C495 1.375 . S
C495 C494 1.375 . S
C495 C496 1.361 . S
C496 H456 0.930 . S
C496 C495 1.361 . S
C496 C497 1.399 1_556 S
C497 H457 0.929 . S
C497 C492 1.386 . S
C497 C496 1.399 1_554 S
C498 C477 1.485 . S
C498 C499 1.394 . S
C498 C503 1.360 . S
C499 H458 0.931 . S
C499 C498 1.394 . S
C499 C500 1.372 . S
C500 H459 0.930 . S
C500 C499 1.372 . S
C500 C501 1.397 . S
C501 C500 1.397 . S
C501 C502 1.390 . S
C501 C517 1.476 . S
C502 H460 0.930 . S
C502 C501 1.390 . S
C502 C503 1.366 . S
C503 H461 0.932 . S
C503 C498 1.360 . S
C503 C502 1.366 . S
C504 C478 1.490 . S
C504 C505 1.380 . S
C504 C509 1.386 . S
C505 H462 0.930 . S
C505 C504 1.380 . S
C505 C506 1.381 . S
C506 H463 0.929 . S
C506 C505 1.381 . S
C506 C507 1.371 . S
C507 C506 1.371 . S
C507 C508 1.380 . S
C508 H464 0.931 . S
C508 C507 1.380 . S
C508 C509 1.387 . S
C509 H465 0.930 . S
C509 C504 1.386 . S
C509 C508 1.387 . S
C510 C479 1.519 . S
C510 C511 1.377 . S
C510 C515 1.361 . S
C511 H466 0.929 . S
C511 C510 1.377 . S
C511 C512 1.386 . S
C512 H467 0.931 . S
C512 C511 1.386 . S
C512 C513 1.363 . S
C513 C512 1.363 . S
C513 C514 1.385 . S
C514 H468 0.930 . S
C514 C513 1.385 . S
C514 C515 1.396 . S
C515 H469 0.929 . S
C515 C510 1.361 . S
C515 C514 1.396 . S
C516 O470 1.300 . S
C516 O471 1.209 . S
C516 C489 1.486 . S
C517 O472 1.199 . S
C517 O473 1.297 . S
C517 C501 1.476 . S
H518 O544 0.856 . S
H519 O547 0.854 . S
H520 C555 0.930 . S
H521 C556 0.930 . S
H522 C558 0.930 . S
H523 C559 0.930 . S
H524 C561 0.931 . S
H525 C562 0.930 . S
H526 C564 0.930 . S
H527 C565 0.929 . S
H528 C567 0.930 . S
H529 C568 0.931 . S
H530 C570 0.930 . S
H531 C571 0.929 . S
H532 C573 0.931 . S
H533 C574 0.930 . S
H534 C576 0.930 . S
H535 C577 0.932 . S
H536 C579 0.930 . S
H537 C580 0.929 . S
H538 C582 0.931 . S
H539 C583 0.930 . S
H540 C585 0.929 . S
H541 C586 0.932 . S
H542 C588 0.930 . S
H543 C589 0.929 . S
O544 H518 0.856 . S
O544 C590 1.300 . S
O545 C590 1.209 . S
O546 C591 1.199 . S
O547 H519 0.854 . S
O547 C591 1.297 . S
C548 C549 1.404 . S
C548 C553 1.397 . S
C548 C554 1.492 . S
C549 C548 1.404 . S
C549 C550 1.396 . S
C549 C560 1.492 . S
C550 C549 1.396 . S
C550 C551 1.397 . S
C550 C566 1.509 . S
C551 C550 1.397 . S
C551 C552 1.412 . S
C551 C572 1.485 . S
C552 C551 1.412 . S
C552 C553 1.388 . S
C552 C578 1.490 . S
C553 C548 1.397 . S
C553 C552 1.388 . S
C553 C584 1.519 . S
C554 C548 1.492 . S
C554 C555 1.363 . S
C554 C559 1.390 . S
C555 H520 0.930 . S
C555 C554 1.363 . S
C555 C556 1.372 1_455 S
C556 H521 0.930 . S
C556 C555 1.372 1_655 S
C556 C557 1.383 . S
C557 C556 1.383 . S
C557 C558 1.395 . S
C558 H522 0.930 . S
C558 C557 1.395 . S
C558 C559 1.362 1_655 S
C559 H523 0.930 . S
C559 C554 1.390 . S
C559 C558 1.362 1_455 S
C560 C549 1.492 . S
C560 C561 1.377 . S
C560 C565 1.397 . S
C561 H524 0.931 . S
C561 C560 1.377 . S
C561 C562 1.376 . S
C562 H525 0.930 . S
C562 C561 1.376 . S
C562 C563 1.376 . S
C563 C562 1.376 . S
C563 C564 1.378 . S
C563 C590 1.486 . S
C564 H526 0.930 . S
C564 C563 1.378 . S
C564 C565 1.376 . S
C565 H527 0.929 . S
C565 C560 1.397 . S
C565 C564 1.376 . S
C566 C550 1.509 . S
C566 C567 1.391 . S
C566 C571 1.386 . S
C567 H528 0.930 . S
C567 C566 1.391 . S
C567 C568 1.375 . S
C568 H529 0.931 . S
C568 C567 1.375 . S
C568 C569 1.375 . S
C569 C568 1.375 . S
C569 C570 1.361 . S
C570 H530 0.930 . S
C570 C569 1.361 . S
C570 C571 1.399 . S
C571 H531 0.929 . S
C571 C566 1.386 . S
C571 C570 1.399 . S
C572 C551 1.485 . S
C572 C573 1.394 . S
C572 C577 1.360 . S
C573 H532 0.931 . S
C573 C572 1.394 . S
C573 C574 1.372 . S
C574 H533 0.930 . S
C574 C573 1.372 . S
C574 C575 1.397 . S
C575 C574 1.397 . S
C575 C576 1.390 . S
C575 C591 1.476 . S
C576 H534 0.930 . S
C576 C575 1.390 . S
C576 C577 1.366 . S
C577 H535 0.932 . S
C577 C572 1.360 . S
C577 C576 1.366 . S
C578 C552 1.490 . S
C578 C579 1.380 . S
C578 C583 1.386 . S
C579 H536 0.930 . S
C579 C578 1.380 . S
C579 C580 1.381 . S
C580 H537 0.929 . S
C580 C579 1.381 . S
C580 C581 1.371 . S
C581 C580 1.371 . S
C581 C582 1.380 . S
C582 H538 0.931 . S
C582 C581 1.380 . S
C582 C583 1.387 . S
C583 H539 0.930 . S
C583 C578 1.386 . S
C583 C582 1.387 . S
C584 C553 1.519 . S
C584 C585 1.377 . S
C584 C589 1.361 . S
C585 H540 0.929 . S
C585 C584 1.377 . S
C585 C586 1.385 1_455 S
C586 H541 0.932 . S
C586 C585 1.385 1_655 S
C586 C587 1.363 . S
C587 C586 1.363 . S
C587 C588 1.385 1_655 S
C588 H542 0.930 . S
C588 C587 1.385 1_455 S
C588 C589 1.396 . S
C589 H543 0.929 . S
C589 C584 1.361 . S
C589 C588 1.396 . S
C590 O544 1.300 . S
C590 O545 1.209 . S
C590 C563 1.486 . S
C591 O546 1.199 . S
C591 O547 1.297 . S
C591 C575 1.476 . S
C592 O619 1.312 . S
C592 O620 1.208 . S
C593 O614 1.331 . S
C593 O617 1.244 . S
C594 O616 1.264 . S
C594 O618 1.273 . S
Mg595 O597 1.936 . S
Mg595 O604 2.081 . S
Mg595 O606 2.023 . S
Mg595 O610 2.031 . S
Mg595 O619 2.291 . S
Mg596 O597 1.963 . S
Mg596 O607 1.942 . S
Mg596 O608 1.955 . S
Mg596 O615 1.986 . S
O597 Mg595 1.936 . S
O597 Mg596 1.963 . S
O597 Mg598 1.915 . S
Mg598 O597 1.915 . S
Mg598 O599 1.915 1_455 S
Mg598 O603 2.013 . S
Mg598 O609 2.114 . S
Mg598 O613 2.013 1_455 S
Mg598 O619 2.114 . S
O599 Mg598 1.915 1_655 S
O599 Mg600 1.936 1_655 S
O599 Mg601 1.963 . S
Mg600 O599 1.936 1_455 S
Mg600 O609 2.291 . S
Mg600 O614 2.081 1_455 S
Mg600 O616 2.023 1_455 S
Mg600 O620 2.031 . S
Mg601 O599 1.963 . S
Mg601 O605 1.986 . S
Mg601 O617 1.942 . S
Mg601 O618 1.955 . S
C602 O613 1.191 . S
C602 O615 1.307 1_655 S
O603 Mg598 2.013 . S
O603 C622 1.191 1_455 S
O604 Mg595 2.081 . S
O604 C612 1.331 . S
O605 Mg601 1.986 . S
O605 C622 1.307 . S
O606 Mg595 2.023 . S
O606 C621 1.264 . S
O607 Mg596 1.942 . S
O607 C612 1.244 . S
O608 Mg596 1.955 . S
O608 C621 1.273 . S
O609 Mg598 2.114 . S
O609 Mg600 2.291 . S
O609 C611 1.312 . S
O610 Mg595 2.031 . S
O610 C611 1.208 . S
C611 O609 1.312 . S
C611 O610 1.208 . S
C612 O604 1.331 . S
C612 O607 1.244 . S
O613 Mg598 2.013 1_655 S
O613 C602 1.191 . S
O614 C593 1.331 . S
O614 Mg600 2.081 1_655 S
O615 Mg596 1.986 . S
O615 C602 1.307 1_455 S
O616 C594 1.264 . S
O616 Mg600 2.023 1_655 S
O617 C593 1.244 . S
O617 Mg601 1.942 . S
O618 C594 1.273 . S
O618 Mg601 1.955 . S
O619 C592 1.312 . S
O619 Mg595 2.291 . S
O619 Mg598 2.114 . S
O620 C592 1.208 . S
O620 Mg600 2.031 . S
C621 O606 1.264 . S
C621 O608 1.273 . S
C622 O603 1.191 1_655 S
C622 O605 1.307 . S
C623 O650 1.312 . S
C623 O651 1.208 . S
C624 O645 1.331 . S
C624 O648 1.244 . S
C625 O647 1.264 . S
C625 O649 1.273 . S
Mg626 O628 1.936 . S
Mg626 O635 2.081 . S
Mg626 O637 2.023 . S
Mg626 O641 2.031 . S
Mg626 O650 2.291 . S
Mg627 O628 1.963 . S
Mg627 O638 1.942 . S
Mg627 O639 1.955 . S
Mg627 O646 1.986 . S
O628 Mg626 1.936 . S
O628 Mg627 1.963 . S
O628 Mg629 1.915 . S
Mg629 O628 1.915 . S
Mg629 O630 1.915 . S
Mg629 O634 2.013 . S
Mg629 O640 2.114 . S
Mg629 O644 2.013 . S
Mg629 O650 2.114 . S
O630 Mg629 1.915 . S
O630 Mg631 1.936 . S
O630 Mg632 1.963 . S
Mg631 O630 1.936 . S
Mg631 O640 2.291 . S
Mg631 O645 2.081 . S
Mg631 O647 2.023 . S
Mg631 O651 2.031 . S
Mg632 O630 1.963 . S
Mg632 O636 1.986 . S
Mg632 O648 1.942 . S
Mg632 O649 1.955 . S
C633 O644 1.191 . S
C633 O646 1.307 . S
O634 Mg629 2.013 . S
O634 C653 1.191 . S
O635 Mg626 2.081 . S
O635 C643 1.331 . S
O636 Mg632 1.986 . S
O636 C653 1.307 . S
O637 Mg626 2.023 . S
O637 C652 1.264 . S
O638 Mg627 1.942 . S
O638 C643 1.244 . S
O639 Mg627 1.955 . S
O639 C652 1.273 . S
O640 Mg629 2.114 . S
O640 Mg631 2.291 . S
O640 C642 1.312 . S
O641 Mg626 2.031 . S
O641 C642 1.208 . S
C642 O640 1.312 . S
C642 O641 1.208 . S
C643 O635 1.331 . S
C643 O638 1.244 . S
O644 Mg629 2.013 . S
O644 C633 1.191 . S
O645 C624 1.331 . S
O645 Mg631 2.081 . S
O646 Mg627 1.986 . S
O646 C633 1.307 . S
O647 C625 1.264 . S
O647 Mg631 2.023 . S
O648 C624 1.244 . S
O648 Mg632 1.942 . S
O649 C625 1.273 . S
O649 Mg632 1.955 . S
O650 C623 1.312 . S
O650 Mg626 2.291 . S
O650 Mg629 2.114 . S
O651 C623 1.208 . S
O651 Mg631 2.031 . S
C652 O637 1.264 . S
C652 O639 1.273 . S
C653 O634 1.191 . S
C653 O636 1.307 . S
C654 O681 1.312 . S
C654 O682 1.208 . S
C655 O676 1.331 . S
C655 O679 1.244 . S
C656 O678 1.264 . S
C656 O680 1.273 . S
Mg657 O659 1.936 . S
Mg657 O666 2.081 . S
Mg657 O668 2.023 . S
Mg657 O672 2.031 . S
Mg657 O681 2.291 . S
Mg658 O659 1.963 . S
Mg658 O669 1.942 . S
Mg658 O670 1.955 . S
Mg658 O677 1.986 . S
O659 Mg657 1.936 . S
O659 Mg658 1.963 . S
O659 Mg660 1.915 . S
Mg660 O659 1.915 . S
Mg660 O661 1.915 . S
Mg660 O665 2.013 . S
Mg660 O671 2.114 . S
Mg660 O675 2.013 . S
Mg660 O681 2.114 . S
O661 Mg660 1.915 . S
O661 Mg662 1.936 . S
O661 Mg663 1.963 . S
Mg662 O661 1.936 . S
Mg662 O671 2.291 . S
Mg662 O676 2.081 . S
Mg662 O678 2.023 . S
Mg662 O682 2.031 . S
Mg663 O661 1.963 . S
Mg663 O667 1.986 . S
Mg663 O679 1.942 . S
Mg663 O680 1.955 . S
C664 O675 1.191 . S
C664 O677 1.307 . S
O665 Mg660 2.013 . S
O665 C684 1.191 . S
O666 Mg657 2.081 . S
O666 C674 1.331 . S
O667 Mg663 1.986 . S
O667 C684 1.307 . S
O668 Mg657 2.023 . S
O668 C683 1.264 . S
O669 Mg658 1.942 . S
O669 C674 1.244 . S
O670 Mg658 1.955 . S
O670 C683 1.273 . S
O671 Mg660 2.114 . S
O671 Mg662 2.291 . S
O671 C673 1.312 . S
O672 Mg657 2.031 . S
O672 C673 1.208 . S
C673 O671 1.312 . S
C673 O672 1.208 . S
C674 O666 1.331 . S
C674 O669 1.244 . S
O675 Mg660 2.013 . S
O675 C664 1.191 . S
O676 C655 1.331 . S
O676 Mg662 2.081 . S
O677 Mg658 1.986 . S
O677 C664 1.307 . S
O678 C656 1.264 . S
O678 Mg662 2.023 . S
O679 C655 1.244 . S
O679 Mg663 1.942 . S
O680 C656 1.273 . S
O680 Mg663 1.955 . S
O681 C654 1.312 . S
O681 Mg657 2.291 . S
O681 Mg660 2.114 . S
O682 C654 1.208 . S
O682 Mg662 2.031 . S
C683 O668 1.264 . S
C683 O670 1.273 . S
C684 O665 1.191 . S
C684 O667 1.307 . S
C685 O712 1.312 . S
C685 O713 1.208 . S
C686 O707 1.331 . S
C686 O710 1.244 . S
C687 O709 1.264 . S
C687 O711 1.273 . S
Mg688 O690 1.936 1_455 S
Mg688 O697 2.081 1_455 S
Mg688 O699 2.023 1_455 S
Mg688 O703 2.031 . S
Mg688 O712 2.291 . S
Mg689 O690 1.963 . S
Mg689 O700 1.942 . S
Mg689 O701 1.955 . S
Mg689 O708 1.986 . S
O690 Mg688 1.936 1_655 S
O690 Mg689 1.963 . S
O690 Mg691 1.915 1_655 S
Mg691 O690 1.915 1_455 S
Mg691 O692 1.915 . S
Mg691 O696 2.013 1_455 S
Mg691 O702 2.114 . S
Mg691 O706 2.013 . S
Mg691 O712 2.114 . S
O692 Mg691 1.915 . S
O692 Mg693 1.936 . S
O692 Mg694 1.963 . S
Mg693 O692 1.936 . S
Mg693 O702 2.291 . S
Mg693 O707 2.081 . S
Mg693 O709 2.023 . S
Mg693 O713 2.031 . S
Mg694 O692 1.963 . S
Mg694 O698 1.986 . S
Mg694 O710 1.942 . S
Mg694 O711 1.955 . S
C695 O706 1.191 1_655 S
C695 O708 1.307 . S
O696 Mg691 2.013 1_655 S
O696 C715 1.191 . S
O697 Mg688 2.081 1_655 S
O697 C705 1.331 . S
O698 Mg694 1.986 . S
O698 C715 1.307 1_455 S
O699 Mg688 2.023 1_655 S
O699 C714 1.264 . S
O700 Mg689 1.942 . S
O700 C705 1.244 . S
O701 Mg689 1.955 . S
O701 C714 1.273 . S
O702 Mg691 2.114 . S
O702 Mg693 2.291 . S
O702 C704 1.312 . S
O703 Mg688 2.031 . S
O703 C704 1.208 . S
C704 O702 1.312 . S
C704 O703 1.208 . S
C705 O697 1.331 . S
C705 O700 1.244 . S
O706 Mg691 2.013 . S
O706 C695 1.191 1_455 S
O707 C686 1.331 . S
O707 Mg693 2.081 . S
O708 Mg689 1.986 . S
O708 C695 1.307 . S
O709 C687 1.264 . S
O709 Mg693 2.023 . S
O710 C686 1.244 . S
O710 Mg694 1.942 . S
O711 C687 1.273 . S
O711 Mg694 1.955 . S
O712 C685 1.312 . S
O712 Mg688 2.291 . S
O712 Mg691 2.114 . S
O713 C685 1.208 . S
O713 Mg693 2.031 . S
C714 O699 1.264 . S
C714 O701 1.273 . S
C715 O696 1.191 . S
C715 O698 1.307 1_655 S
C716 C717 1.387 . S
C716 H720 0.950 . S
C716 C725 1.390 . S
C717 C716 1.387 . S
C717 C719 1.387 . S
H718 C725 0.950 . S
C719 C717 1.387 . S
C719 C721 1.390 . S
C719 H723 0.950 . S
H720 C716 0.950 . S
C721 C719 1.390 . S
C721 C722 1.387 . S
C721 H724 0.950 1_565 S
C722 C721 1.387 . S
C722 C725 1.387 . S
H723 C719 0.950 . S
H724 C721 0.950 1_545 S
C725 C716 1.390 . S
C725 H718 0.950 . S
C725 C722 1.387 . S
C726 C727 1.387 . S
C726 H730 0.950 . S
C726 C735 1.390 1_565 S
C727 C726 1.387 . S
C727 C729 1.387 1_565 S
H728 C735 0.950 . S
C729 C727 1.387 1_545 S
C729 C731 1.390 . S
C729 H733 0.950 . S
H730 C726 0.950 . S
C731 C729 1.390 . S
C731 C732 1.387 . S
C731 H734 0.950 . S
C732 C731 1.387 . S
C732 C735 1.387 . S
H733 C729 0.950 . S
H734 C731 0.950 . S
C735 C726 1.390 1_545 S
C735 H728 0.950 . S
C735 C732 1.387 . S
C736 C737 1.387 . S
C736 H740 0.950 . S
C736 C745 1.390 . S
C737 C736 1.387 . S
C737 C739 1.387 . S
H738 C745 0.950 . S
C739 C737 1.387 . S
C739 C741 1.390 . S
C739 H743 0.950 . S
H740 C736 0.950 . S
C741 C739 1.390 . S
C741 C742 1.387 . S
C741 H744 0.950 . S
C742 C741 1.387 . S
C742 C745 1.387 . S
H743 C739 0.950 . S
H744 C741 0.950 . S
C745 C736 1.390 . S
C745 H738 0.950 . S
C745 C742 1.387 . S
C746 C747 1.387 . S
C746 H750 0.950 . S
C746 C755 1.390 . S
C747 C746 1.387 . S
C747 C749 1.387 . S
H748 C755 0.950 1_565 S
C749 C747 1.387 . S
C749 C751 1.390 . S
C749 H753 0.950 . S
H750 C746 0.950 . S
C751 C749 1.390 . S
C751 C752 1.387 1_545 S
C751 H754 0.950 . S
C752 C751 1.387 1_565 S
C752 C755 1.387 1_565 S
H753 C749 0.950 . S
H754 C751 0.950 . S
C755 C746 1.390 . S
C755 H748 0.950 1_545 S
C755 C752 1.387 1_545 S
C756 C757 1.387 . S
C756 H760 0.950 . S
C756 C765 1.390 . S
C757 C756 1.387 . S
C757 C759 1.387 . S
H758 C765 0.950 . S
C759 C757 1.387 . S
C759 C761 1.390 . S
C759 H763 0.950 . S
H760 C756 0.950 . S
C761 C759 1.390 . S
C761 C762 1.387 . S
C761 H764 0.950 . S
C762 C761 1.387 . S
C762 C765 1.387 . S
H763 C759 0.950 . S
H764 C761 0.950 . S
C765 C756 1.390 . S
C765 H758 0.950 . S
C765 C762 1.387 . S
C766 C767 1.387 . S
C766 H770 0.950 . S
C766 C775 1.390 1_565 S
C767 C766 1.387 . S
C767 C769 1.387 . S
H768 C775 0.950 . S
C769 C767 1.387 . S
C769 C771 1.390 1_565 S
C769 H773 0.950 . S
H770 C766 0.950 . S
C771 C769 1.390 1_545 S
C771 C772 1.387 . S
C771 H774 0.950 . S
C772 C771 1.387 . S
C772 C775 1.387 . S
H773 C769 0.950 . S
H774 C771 0.950 . S
C775 C766 1.390 1_545 S
C775 H768 0.950 . S
C775 C772 1.387 . S
C776 C777 1.387 . S
C776 H780 0.950 . S
C776 C785 1.390 . S
C777 C776 1.387 . S
C777 C779 1.387 1_565 S
H778 C785 0.950 . S
C779 C777 1.387 1_545 S
C779 C781 1.390 . S
C779 H783 0.950 . S
H780 C776 0.950 . S
C781 C779 1.390 . S
C781 C782 1.387 1_545 S
C781 H784 0.950 . S
C782 C781 1.387 1_565 S
C782 C785 1.387 . S
H783 C779 0.950 . S
H784 C781 0.950 . S
C785 C776 1.390 . S
C785 H778 0.950 . S
C785 C782 1.387 . S
C786 C787 1.387 . S
C786 H790 0.950 . S
C786 C795 1.390 . S
C787 C786 1.387 . S
C787 C789 1.387 . S
H788 C795 0.950 . S
C789 C787 1.387 . S
C789 C791 1.390 . S
C789 H793 0.950 . S
H790 C786 0.950 . S
C791 C789 1.390 . S
C791 C792 1.387 . S
C791 H794 0.950 . S
C792 C791 1.387 . S
C792 C795 1.387 . S
H793 C789 0.950 . S
H794 C791 0.950 . S
C795 C786 1.390 . S
C795 H788 0.950 . S
C795 C792 1.387 . S
C796 C797 1.387 . S
C796 H800 0.950 . S
C796 C805 1.390 . S
C797 C796 1.387 . S
C797 C799 1.387 . S
H798 C805 0.950 . S
C799 C797 1.387 . S
C799 C801 1.390 . S
C799 H803 0.950 . S
H800 C796 0.950 . S
C801 C799 1.390 . S
C801 C802 1.387 . S
C801 H804 0.950 . S
C802 C801 1.387 . S
C802 C805 1.387 . S
H803 C799 0.950 . S
H804 C801 0.950 . S
C805 C796 1.390 . S
C805 H798 0.950 . S
C805 C802 1.387 . S
C806 C807 1.387 . S
C806 H810 0.950 . S
C806 C815 1.390 . S
C807 C806 1.387 . S
C807 C809 1.387 . S
H808 C815 0.950 . S
C809 C807 1.387 . S
C809 C811 1.390 . S
C809 H813 0.950 . S
H810 C806 0.950 . S
C811 C809 1.390 . S
C811 C812 1.387 . S
C811 H814 0.950 . S
C812 C811 1.387 . S
C812 C815 1.387 . S
H813 C809 0.950 . S
H814 C811 0.950 . S
C815 C806 1.390 . S
C815 H808 0.950 . S
C815 C812 1.387 . S
C816 C817 1.387 1_545 S
C816 H820 0.950 . S
C816 C825 1.390 1_545 S
C817 C816 1.387 1_565 S
C817 C819 1.387 . S
H818 C825 0.950 . S
C819 C817 1.387 . S
C819 C821 1.390 . S
C819 H823 0.950 . S
H820 C816 0.950 . S
C821 C819 1.390 . S
C821 C822 1.387 . S
C821 H824 0.950 . S
C822 C821 1.387 . S
C822 C825 1.387 . S
H823 C819 0.950 . S
H824 C821 0.950 . S
C825 C816 1.390 1_565 S
C825 H818 0.950 . S
C825 C822 1.387 . S
C826 C827 1.387 . S
C826 H830 0.950 . S
C826 C835 1.390 . S
C827 C826 1.387 . S
C827 C829 1.387 . S
H828 C835 0.950 . S
C829 C827 1.387 . S
C829 C831 1.390 . S
C829 H833 0.950 . S
H830 C826 0.950 . S
C831 C829 1.390 . S
C831 C832 1.387 . S
C831 H834 0.950 . S
C832 C831 1.387 . S
C832 C835 1.387 . S
H833 C829 0.950 . S
H834 C831 0.950 . S
C835 C826 1.390 . S
C835 H828 0.950 . S
C835 C832 1.387 . S
C836 C837 1.387 . S
C836 H840 0.950 . S
C836 C845 1.390 . S
C837 C836 1.387 . S
C837 C839 1.387 . S
H838 C845 0.950 . S
C839 C837 1.387 . S
C839 C841 1.390 . S
C839 H843 0.950 . S
H840 C836 0.950 . S
C841 C839 1.390 . S
C841 C842 1.387 . S
C841 H844 0.950 . S
C842 C841 1.387 . S
C842 C845 1.387 . S
H843 C839 0.950 . S
H844 C841 0.950 . S
C845 C836 1.390 . S
C845 H838 0.950 . S
C845 C842 1.387 . S
C846 C847 1.387 . S
C846 H850 0.950 1_565 S
C846 C855 1.390 . S
C847 C846 1.387 . S
C847 C849 1.387 . S
H848 C855 0.950 1_545 S
C849 C847 1.387 . S
C849 C851 1.390 . S
C849 H853 0.950 . S
H850 C846 0.950 1_545 S
C851 C849 1.390 . S
C851 C852 1.387 . S
C851 H854 0.950 . S
C852 C851 1.387 . S
C852 C855 1.387 . S
H853 C849 0.950 . S
H854 C851 0.950 . S
C855 C846 1.390 . S
C855 H848 0.950 1_565 S
C855 C852 1.387 . S
C856 C857 1.387 . S
C856 H860 0.950 . S
C856 C865 1.390 . S
C857 C856 1.387 . S
C857 C859 1.387 . S
H858 C865 0.950 . S
C859 C857 1.387 . S
C859 C861 1.390 . S
C859 H863 0.950 . S
H860 C856 0.950 . S
C861 C859 1.390 . S
C861 C862 1.387 . S
C861 H864 0.950 . S
C862 C861 1.387 . S
C862 C865 1.387 . S
H863 C859 0.950 . S
H864 C861 0.950 . S
C865 C856 1.390 . S
C865 H858 0.950 . S
C865 C862 1.387 . S
C866 C867 1.387 . S
C866 H870 0.950 . S
C866 C875 1.390 . S
C867 C866 1.387 . S
C867 C869 1.387 . S
H868 C875 0.950 . S
C869 C867 1.387 . S
C869 C871 1.390 . S
C869 H873 0.950 . S
H870 C866 0.950 . S
C871 C869 1.390 . S
C871 C872 1.387 . S
C871 H874 0.950 . S
C872 C871 1.387 . S
C872 C875 1.387 . S
H873 C869 0.950 . S
H874 C871 0.950 . S
C875 C866 1.390 . S
C875 H868 0.950 . S
C875 C872 1.387 . S
C876 C877 1.387 . S
C876 H880 0.950 . S
C876 C885 1.390 . S
C877 C876 1.387 . S
C877 C879 1.387 . S
H878 C885 0.950 . S
C879 C877 1.387 . S
C879 C881 1.390 . S
C879 H883 0.950 . S
H880 C876 0.950 . S
C881 C879 1.390 . S
C881 C882 1.387 . S
C881 H884 0.950 . S
C882 C881 1.387 . S
C882 C885 1.387 . S
H883 C879 0.950 . S
H884 C881 0.950 . S
C885 C876 1.390 . S
C885 H878 0.950 . S
C885 C882 1.387 . S
C886 C887 1.387 . S
C886 H890 0.950 . S
C886 C895 1.390 . S
C887 C886 1.387 . S
C887 C889 1.387 . S
H888 C895 0.950 . S
C889 C887 1.387 . S
C889 C891 1.390 . S
C889 H893 0.950 . S
H890 C886 0.950 . S
C891 C889 1.390 . S
C891 C892 1.387 . S
C891 H894 0.950 . S
C892 C891 1.387 . S
C892 C895 1.387 . S
H893 C889 0.950 . S
H894 C891 0.950 . S
C895 C886 1.390 . S
C895 H888 0.950 . S
C895 C892 1.387 . S
C896 C897 1.387 . S
C896 H900 0.950 . S
C896 C905 1.390 . S
C897 C896 1.387 . S
C897 C899 1.387 . S
H898 C905 0.950 . S
C899 C897 1.387 . S
C899 C901 1.390 . S
C899 H903 0.950 . S
H900 C896 0.950 . S
C901 C899 1.390 . S
C901 C902 1.387 . S
C901 H904 0.950 . S
C902 C901 1.387 . S
C902 C905 1.387 . S
H903 C899 0.950 . S
H904 C901 0.950 . S
C905 C896 1.390 . S
C905 H898 0.950 . S
C905 C902 1.387 . S
C906 C907 1.387 . S
C906 H910 0.950 . S
C906 C915 1.390 . S
C907 C906 1.387 . S
C907 C909 1.387 . S
H908 C915 0.950 . S
C909 C907 1.387 . S
C909 C911 1.390 . S
C909 H913 0.950 . S
H910 C906 0.950 . S
C911 C909 1.390 . S
C911 C912 1.387 . S
C911 H914 0.950 . S
C912 C911 1.387 . S
C912 C915 1.387 . S
H913 C909 0.950 . S
H914 C911 0.950 . S
C915 C906 1.390 . S
C915 H908 0.950 . S
C915 C912 1.387 . S
C916 C917 1.387 . S
C916 H920 0.950 . S
C916 C925 1.390 . S
C917 C916 1.387 . S
C917 C919 1.387 . S
H918 C925 0.950 . S
C919 C917 1.387 . S
C919 C921 1.390 . S
C919 H923 0.950 . S
H920 C916 0.950 . S
C921 C919 1.390 . S
C921 C922 1.387 . S
C921 H924 0.950 . S
C922 C921 1.387 . S
C922 C925 1.387 . S
H923 C919 0.950 . S
H924 C921 0.950 . S
C925 C916 1.390 . S
C925 H918 0.950 . S
C925 C922 1.387 . S
C926 C927 1.387 . S
C926 H930 0.950 . S
C926 C935 1.390 . S
C927 C926 1.387 . S
C927 C929 1.387 . S
H928 C935 0.950 . S
C929 C927 1.387 . S
C929 C931 1.390 . S
C929 H933 0.950 . S
H930 C926 0.950 . S
C931 C929 1.390 . S
C931 C932 1.387 . S
C931 H934 0.950 . S
C932 C931 1.387 . S
C932 C935 1.387 . S
H933 C929 0.950 . S
H934 C931 0.950 . S
C935 C926 1.390 . S
C935 H928 0.950 . S
C935 C932 1.387 . S
C936 C937 1.387 . S
C936 H940 0.950 . S
C936 C945 1.390 . S
C937 C936 1.387 . S
C937 C939 1.387 . S
H938 C945 0.950 . S
C939 C937 1.387 . S
C939 C941 1.390 . S
C939 H943 0.950 . S
H940 C936 0.950 . S
C941 C939 1.390 . S
C941 C942 1.387 . S
C941 H944 0.950 . S
C942 C941 1.387 . S
C942 C945 1.387 . S
H943 C939 0.950 . S
H944 C941 0.950 . S
C945 C936 1.390 . S
C945 H938 0.950 . S
C945 C942 1.387 . S
C946 C947 1.387 . S
C946 H950 0.950 . S
C946 C955 1.390 . S
C947 C946 1.387 . S
C947 C949 1.387 . S
H948 C955 0.950 . S
C949 C947 1.387 . S
C949 C951 1.390 . S
C949 H953 0.950 . S
H950 C946 0.950 . S
C951 C949 1.390 . S
C951 C952 1.387 . S
C951 H954 0.950 . S
C952 C951 1.387 . S
C952 C955 1.387 . S
H953 C949 0.950 . S
H954 C951 0.950 . S
C955 C946 1.390 . S
C955 H948 0.950 . S
C955 C952 1.387 . S
C956 C957 1.387 . S
C956 H960 0.950 . S
C956 C965 1.390 . S
C957 C956 1.387 . S
C957 C959 1.387 . S
H958 C965 0.950 . S
C959 C957 1.387 . S
C959 C961 1.390 . S
C959 H963 0.950 . S
H960 C956 0.950 . S
C961 C959 1.390 . S
C961 C962 1.387 . S
C961 H964 0.950 . S
C962 C961 1.387 . S
C962 C965 1.387 . S
H963 C959 0.950 . S
H964 C961 0.950 . S
C965 C956 1.390 . S
C965 H958 0.950 . S
C965 C962 1.387 . S
C966 C967 1.387 . S
C966 H970 0.950 . S
C966 C975 1.390 . S
C967 C966 1.387 . S
C967 C969 1.387 . S
H968 C975 0.950 . S
C969 C967 1.387 . S
C969 C971 1.390 . S
C969 H973 0.950 . S
H970 C966 0.950 . S
C971 C969 1.390 . S
C971 C972 1.387 . S
C971 H974 0.950 . S
C972 C971 1.387 . S
C972 C975 1.387 . S
H973 C969 0.950 . S
H974 C971 0.950 . S
C975 C966 1.390 . S
C975 H968 0.950 . S
C975 C972 1.387 . S
C976 C977 1.387 . S
C976 H980 0.950 . S
C976 C985 1.390 . S
C977 C976 1.387 . S
C977 C979 1.387 . S
H978 C985 0.950 . S
C979 C977 1.387 . S
C979 C981 1.390 . S
C979 H983 0.950 . S
H980 C976 0.950 . S
C981 C979 1.390 . S
C981 C982 1.387 . S
C981 H984 0.950 . S
C982 C981 1.387 . S
C982 C985 1.387 . S
H983 C979 0.950 . S
H984 C981 0.950 . S
C985 C976 1.390 . S
C985 H978 0.950 . S
C985 C982 1.387 . S
C986 C987 1.387 . S
C986 H990 0.950 . S
C986 C995 1.390 . S
C987 C986 1.387 . S
C987 C989 1.387 . S
H988 C995 0.950 . S
C989 C987 1.387 . S
C989 C991 1.390 . S
C989 H993 0.950 . S
H990 C986 0.950 . S
C991 C989 1.390 . S
C991 C992 1.387 . S
C991 H994 0.950 . S
C992 C991 1.387 . S
C992 C995 1.387 . S
H993 C989 0.950 . S
H994 C991 0.950 . S
C995 C986 1.390 . S
C995 H988 0.950 . S
C995 C992 1.387 . S
C996 C997 1.387 . S
C996 H1000 0.950 1_556 S
C996 C1005 1.390 . S
C997 C996 1.387 . S
C997 C999 1.387 . S
H998 C1005 0.950 . S
C999 C997 1.387 . S
C999 C1001 1.390 . S
C999 H1003 0.950 . S
H1000 C996 0.950 1_554 S
C1001 C999 1.390 . S
C1001 C1002 1.387 . S
C1001 H1004 0.950 . S
C1002 C1001 1.387 . S
C1002 C1005 1.387 . S
H1003 C999 0.950 . S
H1004 C1001 0.950 . S
C1005 C996 1.390 . S
C1005 H998 0.950 . S
C1005 C1002 1.387 . S
C1006 C1007 1.387 . S
C1006 H1010 0.950 . S
C1006 C1015 1.390 . S
C1007 C1006 1.387 . S
C1007 C1009 1.387 . S
H1008 C1015 0.950 . S
C1009 C1007 1.387 . S
C1009 C1011 1.390 . S
C1009 H1013 0.950 . S
H1010 C1006 0.950 . S
C1011 C1009 1.390 . S
C1011 C1012 1.387 . S
C1011 H1014 0.950 . S
C1012 C1011 1.387 . S
C1012 C1015 1.387 . S
H1013 C1009 0.950 . S
H1014 C1011 0.950 . S
C1015 C1006 1.390 . S
C1015 H1008 0.950 . S
C1015 C1012 1.387 . S
C1016 C1017 1.387 . S
C1016 H1020 0.950 . S
C1016 C1025 1.390 . S
C1017 C1016 1.387 . S
C1017 C1019 1.387 . S
H1018 C1025 0.950 . S
C1019 C1017 1.387 . S
C1019 C1021 1.390 . S
C1019 H1023 0.950 . S
H1020 C1016 0.950 . S
C1021 C1019 1.390 . S
C1021 C1022 1.387 . S
C1021 H1024 0.950 . S
C1022 C1021 1.387 . S
C1022 C1025 1.387 . S
H1023 C1019 0.950 . S
H1024 C1021 0.950 . S
C1025 C1016 1.390 . S
C1025 H1018 0.950 . S
C1025 C1022 1.387 . S
C1026 C1027 1.387 . S
C1026 H1030 0.950 . S
C1026 C1035 1.390 . S
C1027 C1026 1.387 . S
C1027 C1029 1.387 . S
H1028 C1035 0.950 . S
C1029 C1027 1.387 . S
C1029 C1031 1.390 . S
C1029 H1033 0.950 . S
H1030 C1026 0.950 . S
C1031 C1029 1.390 . S
C1031 C1032 1.387 . S
C1031 H1034 0.950 . S
C1032 C1031 1.387 . S
C1032 C1035 1.387 . S
H1033 C1029 0.950 . S
H1034 C1031 0.950 . S
C1035 C1026 1.390 . S
C1035 H1028 0.950 . S
C1035 C1032 1.387 . S
C722 C652 2.203 . S
C717 C69 2.237 . S
C727 C125 1.199 . S
C732 C655 1.206 . S
C737 C217 2.141 1_556 S
C742 C686 2.128 . S
C752 C621 1.851 . S
C747 C261 1.720 . S
C762 C656 2.139 . S
C757 C39 1.999 . S
C772 C687 2.425 . S
C767 C137 2.306 . S
C782 C612 2.065 . S
C777 C187 1.916 1_565 S
C792 C643 2.346 1_545 S
C787 C291 2.357 . S
C797 C51 0.742 . S
C802 C673 0.739 . S
C807 C365 1.839 1_565 S
C812 C642 1.712 . S
C817 C199 0.698 . S
C822 C602 0.701 . S
C832 C695 1.507 . S
C827 C439 1.513 . S
C842 C623 1.457 . S
C837 C63 1.575 . S
C847 C335 1.461 . S
C852 C622 1.640 . S
C857 C211 1.427 . S
C862 C715 1.516 . S
C872 C654 1.926 . S
C867 C409 1.707 . S
C877 C495 1.289 . S
C882 C714 1.269 . S
C887 C347 1.363 . S
C892 C593 1.371 . S
C897 C587 2.156 . S
C902 C624 2.150 . S
C907 C421 1.217 . S
C912 C683 1.191 . S
C922 C594 2.375 . S
C917 C507 2.251 . S
C927 C359 2.064 . S
C932 C625 2.195 . S
C937 C557 1.897 . S
C942 C674 2.040 . S
C952 C705 2.383 . S
C947 C433 2.223 . S
C957 C513 1.671 . S
C962 C611 1.563 . S
C967 C143 1.637 . S
C972 C704 1.536 . S
C977 C569 0.712 . S
C982 C664 0.716 . S
C992 C633 1.363 . S
C987 C285 1.274 . S
C1002 C685 1.805 . S
C997 C483 1.600 1_556 S
C1012 C684 1.864 . S
C1007 C113 1.673 . S
C1022 C653 1.505 . S
C1017 C581 1.414 . S
C1032 C592 0.911 . S
C1027 C273 0.939 . S
