# Generated by pormake.
# Topology pto, (3,4)-cn, num edge types: 1
# Building blocks:
#     Node 0, Type 0, BuildingBlock: MIDCAF_clean_linker_0, # of connection points: 3
#     Node 1, Type 0, BuildingBlock: MIDCAF_clean_linker_0, # of connection points: 3
#     Node 2, Type 0, BuildingBlock: MIDCAF_clean_linker_0, # of connection points: 3
#     Node 3, Type 0, BuildingBlock: MIDCAF_clean_linker_0, # of connection points: 3
#     Node 4, Type 0, BuildingBlock: MIDCAF_clean_linker_0, # of connection points: 3
#     Node 5, Type 0, BuildingBlock: MIDCAF_clean_linker_0, # of connection points: 3
#     Node 6, Type 0, BuildingBlock: MIDCAF_clean_linker_0, # of connection points: 3
#     Node 7, Type 0, BuildingBlock: MIDCAF_clean_linker_0, # of connection points: 3
#     Node 8, Type 1, BuildingBlock: KOZSID_clean_sbu_0, # of connection points: 4
#     Node 9, Type 1, BuildingBlock: KOZSID_clean_sbu_0, # of connection points: 4
#     Node 10, Type 1, BuildingBlock: KOZSID_clean_sbu_0, # of connection points: 4
#     Node 11, Type 1, BuildingBlock: KOZSID_clean_sbu_0, # of connection points: 4
#     Node 12, Type 1, BuildingBlock: KOZSID_clean_sbu_0, # of connection points: 4
#     Node 13, Type 1, BuildingBlock: KOZSID_clean_sbu_0, # of connection points: 4
#     Edge 14, Type (0, 1), BuildingBlock: KIFKEQ_clean_linker_1, # of connection points: 2
#     Edge 15, Type (0, 1), BuildingBlock: KIFKEQ_clean_linker_1, # of connection points: 2
#     Edge 16, Type (0, 1), BuildingBlock: KIFKEQ_clean_linker_1, # of connection points: 2
#     Edge 17, Type (0, 1), BuildingBlock: KIFKEQ_clean_linker_1, # of connection points: 2
#     Edge 18, Type (0, 1), BuildingBlock: KIFKEQ_clean_linker_1, # of connection points: 2
#     Edge 19, Type (0, 1), BuildingBlock: KIFKEQ_clean_linker_1, # of connection points: 2
#     Edge 20, Type (0, 1), BuildingBlock: KIFKEQ_clean_linker_1, # of connection points: 2
#     Edge 21, Type (0, 1), BuildingBlock: KIFKEQ_clean_linker_1, # of connection points: 2
#     Edge 22, Type (0, 1), BuildingBlock: KIFKEQ_clean_linker_1, # of connection points: 2
#     Edge 23, Type (0, 1), BuildingBlock: KIFKEQ_clean_linker_1, # of connection points: 2
#     Edge 24, Type (0, 1), BuildingBlock: KIFKEQ_clean_linker_1, # of connection points: 2
#     Edge 25, Type (0, 1), BuildingBlock: KIFKEQ_clean_linker_1, # of connection points: 2
#     Edge 26, Type (0, 1), BuildingBlock: KIFKEQ_clean_linker_1, # of connection points: 2
#     Edge 27, Type (0, 1), BuildingBlock: KIFKEQ_clean_linker_1, # of connection points: 2
#     Edge 28, Type (0, 1), BuildingBlock: KIFKEQ_clean_linker_1, # of connection points: 2
#     Edge 29, Type (0, 1), BuildingBlock: KIFKEQ_clean_linker_1, # of connection points: 2
#     Edge 30, Type (0, 1), BuildingBlock: KIFKEQ_clean_linker_1, # of connection points: 2
#     Edge 31, Type (0, 1), BuildingBlock: KIFKEQ_clean_linker_1, # of connection points: 2
#     Edge 32, Type (0, 1), BuildingBlock: KIFKEQ_clean_linker_1, # of connection points: 2
#     Edge 33, Type (0, 1), BuildingBlock: KIFKEQ_clean_linker_1, # of connection points: 2
#     Edge 34, Type (0, 1), BuildingBlock: KIFKEQ_clean_linker_1, # of connection points: 2
#     Edge 35, Type (0, 1), BuildingBlock: KIFKEQ_clean_linker_1, # of connection points: 2
#     Edge 36, Type (0, 1), BuildingBlock: KIFKEQ_clean_linker_1, # of connection points: 2
#     Edge 37, Type (0, 1), BuildingBlock: KIFKEQ_clean_linker_1, # of connection points: 2
# Relax obj value: 0.000
# Max RMSD: 0.022
# Mean RMSD: 0.009
data_MOF--net-pto--node1-KOZSID_clean_sbu_0--node2-MIDCAF_clean_linker_0--edge1-KIFKEQ_clean_linker_1
_symmetry_space_group_name_H-M    P1
_symmetry_Int_Tables_number       1
_symmetry_cell_setting            triclinic
loop_
_symmetry_equiv_pos_as_xyz
'x, y, z'
_cell_length_a     47.198448
_cell_length_b     63.777657
_cell_length_c     55.602102
_cell_angle_alpha  87.564881
_cell_angle_beta   87.505632
_cell_angle_gamma 92.748905
loop_
_atom_site_label
_atom_site_type_symbol
_atom_site_fract_x
_atom_site_fract_y
_atom_site_fract_z
_atom_type_partial_charge
C0 C 0.33569 0.24067 0.23939 0.0
C1 C 0.34036 0.25912 0.22474 0.0
C2 C 0.3277 0.27752 0.23183 0.0
C3 C 0.31055 0.27743 0.25299 0.0
H4 H 0.26157 0.31514 0.29431 0.0
H5 H 0.23359 0.34532 0.30271 0.0
H6 H 0.18681 0.30922 0.36012 0.0
H7 H 0.21452 0.27891 0.3517 0.0
H8 H 0.24071 0.23515 0.36976 0.0
H9 H 0.23486 0.20303 0.39512 0.0
H10 H 0.27603 0.16884 0.33912 0.0
H11 H 0.2827 0.20101 0.3141 0.0
H12 H 0.31553 0.22603 0.27135 0.0
H13 H 0.34546 0.22631 0.23461 0.0
H14 H 0.33067 0.29194 0.22081 0.0
H15 H 0.301 0.29186 0.25779 0.0
N16 N 0.27341 0.27601 0.296 0.0
N17 N 0.25261 0.25779 0.33035 0.0
N18 N 0.28345 0.24088 0.30423 0.0
C19 C 0.25605 0.27571 0.31618 0.0
C20 C 0.26627 0.24031 0.32451 0.0
C21 C 0.28721 0.25866 0.28989 0.0
C22 C 0.24022 0.29449 0.32221 0.0
C23 C 0.24543 0.31361 0.30882 0.0
C24 C 0.22953 0.33099 0.31372 0.0
C25 C 0.20794 0.32962 0.33202 0.0
C26 C 0.20309 0.31067 0.34573 0.0
C27 C 0.21911 0.29333 0.34094 0.0
C28 C 0.26228 0.22073 0.33989 0.0
C29 C 0.24852 0.22079 0.36284 0.0
C30 C 0.24501 0.20232 0.37735 0.0
C31 C 0.25499 0.18331 0.36921 0.0
C32 C 0.26852 0.18325 0.34618 0.0
C33 C 0.27222 0.20172 0.33175 0.0
C34 C 0.30575 0.25893 0.2676 0.0
C35 C 0.31864 0.24058 0.26057 0.0
C36 C 0.21053 0.69184 0.73556 0.0
C37 C 0.19398 0.69037 0.71523 0.0
C38 C 0.19371 0.70787 0.69898 0.0
C39 C 0.20919 0.7265 0.70321 0.0
H40 H 0.22635 0.78771 0.67649 0.0
H41 H 0.22241 0.81932 0.65094 0.0
H42 H 0.26354 0.85627 0.70399 0.0
H43 H 0.26822 0.8247 0.7292 0.0
H44 H 0.28696 0.80186 0.77828 0.0
H45 H 0.31729 0.80324 0.81277 0.0
H46 H 0.32748 0.73648 0.81021 0.0
H47 H 0.29687 0.73492 0.77593 0.0
H48 H 0.23823 0.71099 0.75581 0.0
H49 H 0.21093 0.6788 0.74865 0.0
H50 H 0.18153 0.70718 0.68294 0.0
H51 H 0.20828 0.73969 0.6904 0.0
N52 N 0.2377 0.76578 0.71499 0.0
N53 N 0.26761 0.78498 0.73954 0.0
N54 N 0.25774 0.74901 0.74805 0.0
C55 C 0.25103 0.78431 0.72018 0.0
C56 C 0.27117 0.7674 0.75348 0.0
C57 C 0.24085 0.74807 0.72891 0.0
C58 C 0.24773 0.80359 0.70489 0.0
C59 C 0.23451 0.80257 0.68275 0.0
C60 C 0.23211 0.82074 0.66813 0.0
C61 C 0.24274 0.84036 0.67535 0.0
C62 C 0.25559 0.84139 0.69764 0.0
C63 C 0.25813 0.82324 0.71218 0.0
C64 C 0.2895 0.76827 0.77438 0.0
C65 C 0.29566 0.78746 0.78506 0.0
C66 C 0.31288 0.78826 0.80485 0.0
C67 C 0.32469 0.76997 0.81406 0.0
C68 C 0.31874 0.75082 0.80332 0.0
C69 C 0.30111 0.74994 0.7838 0.0
C70 C 0.2254 0.72805 0.72376 0.0
C71 C 0.22609 0.71041 0.73975 0.0
C72 C 0.72258 0.75349 0.232 0.0
C73 C 0.70246 0.76893 0.23016 0.0
C74 C 0.69989 0.7833 0.24849 0.0
C75 C 0.71728 0.78236 0.26819 0.0
H76 H 0.74664 0.81784 0.32254 0.0
H77 H 0.75149 0.84783 0.34784 0.0
H78 H 0.81581 0.81697 0.38719 0.0
H79 H 0.81059 0.78668 0.36223 0.0
H80 H 0.82534 0.74036 0.35008 0.0
H81 H 0.85164 0.70896 0.3577 0.0
H82 H 0.81362 0.68011 0.2972 0.0
H83 H 0.78698 0.71123 0.28975 0.0
H84 H 0.75502 0.74026 0.25268 0.0
H85 H 0.72483 0.74209 0.21823 0.0
H86 H 0.68468 0.79546 0.24743 0.0
H87 H 0.71482 0.79374 0.28196 0.0
N88 N 0.75824 0.78225 0.30566 0.0
N89 N 0.79019 0.76409 0.32895 0.0
N90 N 0.77078 0.74853 0.29551 0.0
C91 C 0.77541 0.78155 0.32465 0.0
C92 C 0.78792 0.74748 0.31449 0.0
C93 C 0.75585 0.76583 0.29098 0.0
C94 C 0.77824 0.79977 0.34027 0.0
C95 C 0.76183 0.81737 0.33658 0.0
C96 C 0.76472 0.83467 0.35101 0.0
C97 C 0.78413 0.83486 0.36949 0.0
C98 C 0.80044 0.81724 0.37329 0.0
C99 C 0.79752 0.7999 0.35887 0.0
C100 C 0.80399 0.7284 0.31928 0.0
C101 C 0.8225 0.72733 0.33841 0.0
C102 C 0.83771 0.70936 0.34273 0.0
C103 C 0.8347 0.69203 0.32808 0.0
C104 C 0.81612 0.69307 0.30904 0.0
C105 C 0.80098 0.71102 0.30467 0.0
C106 C 0.73737 0.76686 0.27012 0.0
C107 C 0.73974 0.75238 0.25183 0.0
C108 C 0.80121 0.21829 0.68194 0.0
C109 C 0.7872 0.19874 0.68813 0.0
C110 C 0.76979 0.19663 0.70933 0.0
C111 C 0.76645 0.21367 0.72401 0.0
H112 H 0.72445 0.23091 0.78583 0.0
H113 H 0.6938 0.22747 0.82236 0.0
H114 H 0.71444 0.29229 0.83688 0.0
H115 H 0.7454 0.29572 0.80073 0.0
H116 H 0.79544 0.31976 0.77171 0.0
H117 H 0.82429 0.35212 0.76363 0.0
H118 H 0.85096 0.33071 0.69399 0.0
H119 H 0.82194 0.2982 0.7019 0.0
H120 H 0.80916 0.25012 0.69132 0.0
H121 H 0.815 0.22037 0.66584 0.0
H122 H 0.75841 0.18185 0.71444 0.0
H123 H 0.75281 0.21143 0.74018 0.0
N124 N 0.75951 0.24938 0.75364 0.0
N125 N 0.77179 0.28406 0.7628 0.0
N126 N 0.79209 0.26981 0.72833 0.0
C127 C 0.75664 0.26572 0.76831 0.0
C128 C 0.78952 0.28627 0.74287 0.0
C129 C 0.77718 0.25128 0.7336 0.0
C130 C 0.73754 0.26358 0.79029 0.0
C131 C 0.72248 0.24445 0.79678 0.0
C132 C 0.70478 0.24249 0.81768 0.0
C133 C 0.70176 0.25959 0.83258 0.0
C134 C 0.71665 0.27872 0.82601 0.0
C135 C 0.73431 0.2807 0.80515 0.0
C136 C 0.80642 0.30627 0.73751 0.0
C137 C 0.80731 0.32189 0.75461 0.0
C138 C 0.82398 0.34043 0.75006 0.0
C139 C 0.83998 0.34388 0.72825 0.0
C140 C 0.8387 0.32851 0.71091 0.0
C141 C 0.82219 0.30984 0.71553 0.0
C142 C 0.7805 0.23324 0.71787 0.0
C143 C 0.79794 0.23533 0.69664 0.0
C144 C 0.69435 0.78633 0.80845 0.0
C145 C 0.69156 0.7685 0.82428 0.0
C146 C 0.70669 0.75075 0.81868 0.0
C147 C 0.72436 0.75089 0.79784 0.0
H148 H 0.77793 0.71443 0.76065 0.0
H149 H 0.80517 0.68396 0.75231 0.0
H150 H 0.84588 0.71718 0.68983 0.0
H151 H 0.81902 0.7479 0.69832 0.0
H152 H 0.8114 0.79804 0.6924 0.0
H153 H 0.81723 0.82988 0.66628 0.0
H154 H 0.7388 0.85169 0.69663 0.0
H155 H 0.73291 0.81998 0.72284 0.0
H156 H 0.71382 0.80059 0.77598 0.0
H157 H 0.68326 0.80035 0.81238 0.0
H158 H 0.7047 0.73666 0.83033 0.0
H159 H 0.73572 0.73693 0.79418 0.0
N160 N 0.76176 0.75212 0.7552 0.0
N161 N 0.78311 0.7701 0.72094 0.0
N162 N 0.74997 0.78662 0.74539 0.0
C163 C 0.77996 0.75243 0.73555 0.0
C164 C 0.76814 0.78723 0.72571 0.0
C165 C 0.74671 0.76914 0.76029 0.0
C166 C 0.79627 0.73372 0.73021 0.0
C167 C 0.79264 0.71531 0.7451 0.0
C168 C 0.80813 0.69774 0.74023 0.0
C169 C 0.82766 0.69812 0.72038 0.0
C170 C 0.83122 0.71646 0.70542 0.0
C171 C 0.81569 0.73405 0.71025 0.0
C172 C 0.77168 0.80645 0.70972 0.0
C173 C 0.79536 0.80959 0.69349 0.0
C174 C 0.79881 0.82786 0.67864 0.0
C175 C 0.77846 0.8432 0.67945 0.0
C176 C 0.7547 0.84002 0.69552 0.0
C177 C 0.75144 0.82191 0.71061 0.0
C178 C 0.72737 0.7688 0.78209 0.0
C179 C 0.71204 0.78649 0.78762 0.0
C180 C 0.80245 0.20591 0.38141 0.0
C181 C 0.79152 0.18631 0.37436 0.0
C182 C 0.77843 0.18528 0.35218 0.0
C183 C 0.77592 0.20341 0.33759 0.0
H184 H 0.7247 0.22753 0.28569 0.0
H185 H 0.69364 0.22637 0.25193 0.0
H186 H 0.72783 0.28763 0.22586 0.0
H187 H 0.75822 0.28911 0.26 0.0
H188 H 0.78343 0.31794 0.30385 0.0
H189 H 0.80986 0.3506 0.31066 0.0
H190 H 0.86895 0.31631 0.35252 0.0
H191 H 0.84172 0.28369 0.34652 0.0
H192 H 0.80854 0.23889 0.37282 0.0
H193 H 0.81233 0.20735 0.39851 0.0
H194 H 0.77026 0.17042 0.34593 0.0
H195 H 0.76564 0.20195 0.32066 0.0
N196 N 0.76607 0.24174 0.31048 0.0
N197 N 0.77719 0.27741 0.30108 0.0
N198 N 0.7978 0.26059 0.33384 0.0
C199 C 0.76282 0.25922 0.29627 0.0
C200 C 0.79471 0.27824 0.31981 0.0
C201 C 0.78348 0.24226 0.3293 0.0
C202 C 0.74397 0.25844 0.27564 0.0
C203 C 0.72561 0.24078 0.27278 0.0
C204 C 0.70788 0.24005 0.25331 0.0
C205 C 0.70821 0.2569 0.23612 0.0
C206 C 0.72665 0.27452 0.23895 0.0
C207 C 0.74422 0.27531 0.2585 0.0
C208 C 0.81051 0.29816 0.32456 0.0
C209 C 0.80201 0.31735 0.31457 0.0
C210 C 0.81731 0.33611 0.31837 0.0
C211 C 0.84175 0.33617 0.33199 0.0
C212 C 0.85004 0.31697 0.34222 0.0
C213 C 0.83451 0.29821 0.33867 0.0
C214 C 0.78665 0.22303 0.34469 0.0
C215 C 0.80013 0.22404 0.36671 0.0
C216 C 0.26827 0.19236 0.70001 0.0
C217 C 0.2522 0.19329 0.67935 0.0
C218 C 0.23901 0.21198 0.67335 0.0
C219 C 0.24174 0.22934 0.68775 0.0
H220 H 0.20853 0.28656 0.69954 0.0
H221 H 0.18114 0.31738 0.69195 0.0
H222 H 0.22386 0.34924 0.74813 0.0
H223 H 0.25154 0.31858 0.75564 0.0
H224 H 0.28293 0.28986 0.79429 0.0
H225 H 0.31284 0.28804 0.82891 0.0
H226 H 0.34873 0.23188 0.80268 0.0
H227 H 0.319 0.23363 0.76798 0.0
H228 H 0.28372 0.20841 0.73012 0.0
H229 H 0.279 0.17828 0.70494 0.0
H230 H 0.22625 0.21311 0.65766 0.0
H231 H 0.23118 0.24344 0.68261 0.0
N232 N 0.24615 0.26428 0.71916 0.0
N233 N 0.26547 0.28018 0.75243 0.0
N234 N 0.27767 0.24622 0.74294 0.0
C235 C 0.24845 0.28106 0.73335 0.0
C236 C 0.28018 0.26283 0.75733 0.0
C237 C 0.26069 0.24679 0.72383 0.0
C238 C 0.23223 0.3 0.72828 0.0
C239 C 0.21223 0.30014 0.71024 0.0
C240 C 0.1964 0.31777 0.70594 0.0
C241 C 0.20031 0.33572 0.71946 0.0
C242 C 0.22058 0.33573 0.73723 0.0
C243 C 0.23631 0.31806 0.74164 0.0
C244 C 0.29851 0.26189 0.7783 0.0
C245 C 0.29722 0.27713 0.79582 0.0
C246 C 0.31422 0.27604 0.81576 0.0
C247 C 0.33308 0.25981 0.8185 0.0
C248 C 0.33455 0.24466 0.80093 0.0
C249 C 0.31738 0.24563 0.78111 0.0
C250 C 0.25785 0.22843 0.70844 0.0
C251 C 0.27112 0.20973 0.71436 0.0
C252 C 0.21086 0.68661 0.302 0.0
C253 C 0.19339 0.68397 0.32315 0.0
C254 C 0.19237 0.70056 0.33898 0.0
C255 C 0.20825 0.7194 0.33368 0.0
H256 H 0.21879 0.78009 0.35529 0.0
H257 H 0.21314 0.81025 0.38019 0.0
H258 H 0.27608 0.84617 0.33475 0.0
H259 H 0.28138 0.81627 0.30955 0.0
H260 H 0.30575 0.79756 0.26243 0.0
H261 H 0.33788 0.8006 0.22683 0.0
H262 H 0.32054 0.73497 0.21427 0.0
H263 H 0.28873 0.73174 0.25 0.0
H264 H 0.23978 0.70685 0.28015 0.0
H265 H 0.21182 0.67429 0.28921 0.0
H266 H 0.17943 0.69896 0.35559 0.0
H267 H 0.20689 0.73184 0.34628 0.0
N268 N 0.23912 0.75891 0.32056 0.0
N269 N 0.27184 0.77903 0.29512 0.0
N270 N 0.26008 0.74409 0.2867 0.0
C271 C 0.25393 0.77741 0.315 0.0
C272 C 0.27506 0.76245 0.28088 0.0
C273 C 0.24207 0.74216 0.30649 0.0
C274 C 0.25054 0.79569 0.33034 0.0
C275 C 0.23143 0.79441 0.35055 0.0
C276 C 0.22827 0.81168 0.36493 0.0
C277 C 0.24412 0.83063 0.35945 0.0
C278 C 0.26322 0.83191 0.33927 0.0
C279 C 0.26638 0.81467 0.32489 0.0
C280 C 0.2946 0.76439 0.25917 0.0
C281 C 0.30877 0.78374 0.25214 0.0
C282 C 0.32708 0.78554 0.23163 0.0
C283 C 0.33176 0.76803 0.21774 0.0
C284 C 0.31765 0.74869 0.22477 0.0
C285 C 0.29926 0.74689 0.24521 0.0
C286 C 0.22558 0.72207 0.31243 0.0
C287 C 0.22679 0.70539 0.29673 0.0
C288 C 0.06017 0.5399 0.36572 0.0
C289 C 0.06869 0.54658 0.38784 0.0
C290 C 0.05322 0.53459 0.40507 0.0
C291 C 0.03612 0.52141 0.39257 0.0
N292 N 0.03993 0.52404 0.36834 0.0
Co293 Co 0.01824 0.50902 0.34336 0.0
N294 N 0.99416 0.4924 0.36876 0.0
C295 C 0.99559 0.49351 0.39293 0.0
C296 C 0.9766 0.47999 0.40581 0.0
C297 C 0.96238 0.46939 0.38888 0.0
C298 C 0.97369 0.47704 0.36656 0.0
N299 N 0.99634 0.49421 0.31834 0.0
C300 C 0.97561 0.4787 0.32092 0.0
C301 C 0.96686 0.47229 0.29872 0.0
C302 C 0.98253 0.48418 0.28155 0.0
C303 C 1.0 0.49703 0.29411 0.0
N304 N 0.04251 0.52547 0.31794 0.0
C305 C 0.04169 0.52394 0.29377 0.0
C306 C 0.0609 0.53731 0.28093 0.0
C307 C 0.07462 0.54825 0.29787 0.0
C308 C 0.0628 0.54095 0.32014 0.0
N309 N 0.04587 0.48645 0.34346 0.0
C310 C 0.08261 0.45288 0.34353 0.0
C311 C 0.07333 0.46157 0.32199 0.0
C312 C 0.05528 0.47825 0.32236 0.0
C313 C 0.07377 0.46159 0.36505 0.0
C314 C 0.05546 0.4782 0.36461 0.0
N315 N 0.99064 0.53157 0.34323 0.0
C316 C 0.96442 0.55724 0.32135 0.0
C317 C 0.95336 0.56484 0.34281 0.0
C318 C 0.96099 0.55529 0.3645 0.0
C319 C 0.97944 0.53879 0.3643 0.0
C320 C 0.98281 0.54076 0.32197 0.0
H321 H 0.98445 0.53222 0.38141 0.0
H322 H 0.99068 0.53591 0.30499 0.0
H323 H 0.04908 0.48407 0.30531 0.0
H324 H 0.04909 0.48388 0.38163 0.0
C325 C 0.01536 0.50712 0.40302 0.0
C326 C 0.07085 0.54978 0.34276 0.0
C327 C 0.9646 0.46888 0.34387 0.0
C328 C 0.02142 0.51078 0.28364 0.0
H329 H 0.08403 0.55913 0.39124 0.0
H330 H 0.05384 0.53573 0.42441 0.0
H331 H 0.97367 0.47792 0.42519 0.0
H332 H 0.94575 0.45725 0.39255 0.0
H333 H 0.95129 0.45995 0.29518 0.0
H334 H 0.98188 0.48311 0.2622 0.0
H335 H 0.06405 0.53924 0.26155 0.0
H336 H 0.0911 0.5605 0.29422 0.0
H337 H 0.08004 0.45557 0.30482 0.0
H338 H 0.08035 0.4553 0.38221 0.0
H339 H 0.95945 0.56427 0.30406 0.0
H340 H 0.95266 0.56042 0.38162 0.0
C341 C 0.05895 0.54821 0.72735 0.0
C342 C 0.06898 0.55399 0.74934 0.0
C343 C 0.05329 0.54233 0.76672 0.0
C344 C 0.0348 0.53004 0.75441 0.0
N345 N 0.03789 0.53299 0.73017 0.0
Co346 Co 0.01569 0.51819 0.70539 0.0
N347 N 0.99114 0.50227 0.73103 0.0
C348 C 0.99186 0.50421 0.75515 0.0
C349 C 0.97222 0.49131 0.76816 0.0
C350 C 0.95833 0.48027 0.7514 0.0
C351 C 0.97053 0.487 0.72905 0.0
N352 N 0.99386 0.50299 0.68065 0.0
C353 C 0.97363 0.48713 0.68352 0.0
C354 C 0.9653 0.48006 0.6615 0.0
C355 C 0.98085 0.49181 0.64411 0.0
C356 C 0.99785 0.50522 0.65642 0.0
N357 N 0.03988 0.5345 0.67976 0.0
C358 C 0.03803 0.53343 0.65562 0.0
C359 C 0.05639 0.54727 0.64256 0.0
C360 C 0.07063 0.55806 0.65932 0.0
C361 C 0.06019 0.55002 0.68176 0.0
N362 N 0.04293 0.4954 0.70579 0.0
C363 C 0.07876 0.46131 0.70643 0.0
C364 C 0.07303 0.47181 0.68476 0.0
C365 C 0.05514 0.48866 0.68485 0.0
C366 C 0.06687 0.4685 0.72778 0.0
C367 C 0.04931 0.48546 0.72706 0.0
N368 N 0.98837 0.54094 0.70504 0.0
C369 C 0.9594 0.56498 0.68337 0.0
C370 C 0.9503 0.5737 0.70483 0.0
C371 C 0.96057 0.56572 0.72635 0.0
C372 C 0.97939 0.54953 0.72604 0.0
C373 C 0.97823 0.54871 0.68389 0.0
H374 H 0.98653 0.54439 0.74306 0.0
H375 H 0.98431 0.54273 0.66695 0.0
H376 H 0.05118 0.49577 0.66773 0.0
H377 H 0.04093 0.49008 0.74397 0.0
C378 C 0.01284 0.5169 0.76511 0.0
C379 C 0.06935 0.55825 0.70439 0.0
C380 C 0.96276 0.47765 0.70663 0.0
C381 C 0.0184 0.51956 0.64577 0.0
H382 H 0.08555 0.56575 0.75251 0.0
H383 H 0.05467 0.54313 0.78605 0.0
H384 H 0.96899 0.48966 0.78756 0.0
H385 H 0.94159 0.46824 0.75521 0.0
H386 H 0.95 0.46743 0.65827 0.0
H387 H 0.98032 0.49039 0.6248 0.0
H388 H 0.05875 0.54953 0.62316 0.0
H389 H 0.08652 0.57067 0.65541 0.0
H390 H 0.08172 0.46673 0.66774 0.0
H391 H 0.07113 0.4611 0.74506 0.0
H392 H 0.95183 0.57053 0.66623 0.0
H393 H 0.95453 0.57219 0.74343 0.0
C394 C 0.26316 0.97974 0.55657 0.0
C395 C 0.28915 0.97262 0.56332 0.0
C396 C 0.30957 0.98416 0.54981 0.0
C397 C 0.29501 0.9975 0.53552 0.0
N398 N 0.26645 0.99537 0.53921 0.0
Co399 Co 0.23721 0.01072 0.52118 0.0
N400 N 0.26737 0.02707 0.5006 0.0
C401 C 0.29584 0.02586 0.50182 0.0
C402 C 0.31121 0.03976 0.48632 0.0
C403 C 0.29145 0.0507 0.47462 0.0
C404 C 0.265 0.04269 0.48359 0.0
N405 N 0.20798 0.02581 0.50291 0.0
C406 C 0.21125 0.04122 0.48531 0.0
C407 C 0.18528 0.04729 0.47731 0.0
C408 C 0.16484 0.03559 0.49065 0.0
C409 C 0.17941 0.02301 0.50585 0.0
N410 N 0.20708 0.99463 0.54199 0.0
C411 C 0.17866 0.99642 0.54143 0.0
C412 C 0.16335 0.98337 0.55793 0.0
C413 C 0.18312 0.97243 0.56965 0.0
C414 C 0.20946 0.97939 0.55944 0.0
N415 N 0.23823 0.03331 0.54467 0.0
C416 C 0.24009 0.06726 0.57549 0.0
C417 C 0.21421 0.05874 0.5682 0.0
C418 C 0.21377 0.04191 0.55291 0.0
C419 C 0.26494 0.05813 0.56764 0.0
C420 C 0.26353 0.04127 0.55247 0.0
N421 N 0.23622 0.98815 0.49763 0.0
C422 C 0.21 0.96204 0.47597 0.0
C423 C 0.23511 0.95498 0.46568 0.0
C424 C 0.26075 0.96499 0.4714 0.0
C425 C 0.26081 0.98137 0.48726 0.0
C426 C 0.21102 0.97855 0.49169 0.0
H427 H 0.28107 0.98812 0.49102 0.0
H428 H 0.19114 0.98318 0.4989 0.0
H429 H 0.19341 0.03634 0.54774 0.0
H430 H 0.28324 0.03509 0.54713 0.0
C431 C 0.30752 0.01187 0.51814 0.0
C432 C 0.23598 0.97063 0.56652 0.0
C433 C 0.23833 0.05098 0.47606 0.0
C434 C 0.16692 0.0095 0.52414 0.0
H435 H 0.29304 0.96014 0.57636 0.0
H436 H 0.33232 0.98273 0.55006 0.0
H437 H 0.33408 0.04196 0.48413 0.0
H438 H 0.29611 0.0634 0.46132 0.0
H439 H 0.18151 0.0592 0.46353 0.0
H440 H 0.14206 0.0365 0.48977 0.0
H441 H 0.1405 0.98168 0.56075 0.0
H442 H 0.17865 0.96043 0.58384 0.0
H443 H 0.19436 0.06535 0.57373 0.0
H444 H 0.28548 0.06392 0.5732 0.0
H445 H 0.18956 0.95497 0.47182 0.0
H446 H 0.28082 0.95994 0.46408 0.0
C447 C 0.47249 0.79454 0.05583 0.0
C448 C 0.46436 0.81426 0.06221 0.0
C449 C 0.48067 0.82859 0.04813 0.0
C450 C 0.49781 0.81687 0.03407 0.0
N451 N 0.49327 0.79589 0.03813 0.0
Co452 Co 0.51411 0.77312 0.0222 0.0
N453 N 0.53981 0.79428 0.00304 0.0
C454 C 0.53983 0.81546 0.0039 0.0
C455 C 0.55947 0.82586 0.98827 0.0
C456 C 0.57264 0.81044 0.97652 0.0
C457 C 0.56024 0.79143 0.98576 0.0
N458 N 0.53465 0.75034 0.00605 0.0
C459 C 0.5553 0.75171 0.98825 0.0
C460 C 0.56327 0.73202 0.98164 0.0
C461 C 0.5467 0.71765 0.99545 0.0
C462 C 0.5297 0.72934 0.00967 0.0
N463 N 0.48871 0.75194 0.04161 0.0
C464 C 0.48893 0.73075 0.04104 0.0
C465 C 0.4694 0.72037 0.05677 0.0
C466 C 0.45614 0.73582 0.06839 0.0
C467 C 0.46852 0.75481 0.05907 0.0
N468 N 0.48689 0.77331 0.99591 0.0
C469 C 0.45038 0.77322 0.95698 0.0
C470 C 0.45557 0.75464 0.96995 0.0
C471 C 0.47385 0.75502 0.989 0.0
C472 C 0.46341 0.79192 0.96424 0.0
C473 C 0.48118 0.79163 0.98369 0.0
N474 N 0.5413 0.77291 0.04848 0.0
C475 C 0.56651 0.75387 0.07868 0.0
C476 C 0.57762 0.7726 0.08738 0.0
C477 C 0.57069 0.79149 0.07603 0.0
C478 C 0.55253 0.79129 0.05685 0.0
C479 C 0.54873 0.75438 0.05927 0.0
H480 H 0.54764 0.80622 0.04929 0.0
H481 H 0.54112 0.73956 0.05345 0.0
H482 H 0.47721 0.74026 0.99773 0.0
H483 H 0.49031 0.80642 0.98828 0.0
C484 C 0.51975 0.82512 0.01829 0.0
C485 C 0.46094 0.77507 0.06795 0.0
C486 C 0.56745 0.77119 0.9766 0.0
C487 C 0.50831 0.72107 0.02598 0.0
H488 H 0.44876 0.81796 0.07602 0.0
H489 H 0.48067 0.84554 0.04864 0.0
H490 H 0.56315 0.84267 0.98525 0.0
H491 H 0.58902 0.81296 0.96233 0.0
H492 H 0.57914 0.72842 0.96799 0.0
H493 H 0.5467 0.70071 0.99488 0.0
H494 H 0.46558 0.70357 0.05972 0.0
H495 H 0.43953 0.73339 0.08241 0.0
H496 H 0.44556 0.73975 0.96554 0.0
H497 H 0.46044 0.80676 0.95473 0.0
H498 H 0.57167 0.73883 0.08671 0.0
H499 H 0.57869 0.80641 0.08227 0.0
C500 C 0.82355 0.98618 0.56528 0.0
C501 C 0.84959 0.97968 0.57268 0.0
C502 C 0.86997 0.99168 0.55964 0.0
C503 C 0.85535 0.00467 0.54498 0.0
N504 N 0.82678 0.00192 0.54802 0.0
Co505 Co 0.79751 0.01658 0.52927 0.0
N506 N 0.82761 0.03281 0.50858 0.0
C507 C 0.85607 0.03158 0.50971 0.0
C508 C 0.87137 0.04476 0.49334 0.0
C509 C 0.85154 0.05526 0.48117 0.0
C510 C 0.82518 0.04789 0.49097 0.0
N511 N 0.7682 0.03122 0.51053 0.0
C512 C 0.77142 0.04652 0.49279 0.0
C513 C 0.74537 0.05297 0.48535 0.0
C514 C 0.72499 0.04136 0.49882 0.0
C515 C 0.73963 0.02862 0.51375 0.0
N516 N 0.7674 1.00036 0.54994 0.0
C517 C 0.73893 0.00177 0.54905 0.0
C518 C 0.72367 0.98857 0.56542 0.0
C519 C 0.74351 0.97782 0.57727 0.0
C520 C 0.76984 0.98503 0.56726 0.0
N521 N 0.79779 0.03956 0.55236 0.0
C522 C 0.79797 0.07392 0.58267 0.0
C523 C 0.77253 0.06433 0.57588 0.0
C524 C 0.77292 0.04731 0.56094 0.0
C525 C 0.82336 0.06566 0.57455 0.0
C526 C 0.82279 0.04862 0.55953 0.0
N527 N 0.7972 0.99366 0.50619 0.0
C528 C 0.77124 0.96825 0.48341 0.0
C529 C 0.79645 0.96005 0.47482 0.0
C530 C 0.82208 0.96912 0.482 0.0
C531 C 0.82197 0.98581 0.49748 0.0
C532 C 0.77209 0.98488 0.49894 0.0
H533 H 0.84219 0.99202 0.50225 0.0
H534 H 0.75212 0.99019 0.50503 0.0
H535 H 0.75278 0.04087 0.55644 0.0
H536 H 0.84285 0.04327 0.5537 0.0
C537 C 0.8678 0.01846 0.52694 0.0
C538 C 0.7964 0.97621 0.57417 0.0
C539 C 0.79855 0.0561 0.48329 0.0
C540 C 0.72714 0.01491 0.53186 0.0
H541 H 0.85357 0.96718 0.58566 0.0
H542 H 0.89275 0.99054 0.56018 0.0
H543 H 0.89422 0.04675 0.49082 0.0
H544 H 0.85597 0.06719 0.4669 0.0
H545 H 0.74139 0.06515 0.47196 0.0
H546 H 0.70222 0.04248 0.49825 0.0
H547 H 0.70082 0.98667 0.56807 0.0
H548 H 0.73908 0.96574 0.59138 0.0
H549 H 0.75227 0.06987 0.58212 0.0
H550 H 0.84366 0.07261 0.57927 0.0
H551 H 0.75082 0.9616 0.47859 0.0
H552 H 0.84221 0.96348 0.47556 0.0
C553 C 0.47646 0.27555 0.06078 0.0
C554 C 0.46711 0.29512 0.06644 0.0
C555 C 0.48351 0.30963 0.05269 0.0
C556 C 0.50172 0.29814 0.03935 0.0
N557 N 0.49779 0.27712 0.04358 0.0
Co558 Co 0.51933 0.25461 0.02791 0.0
N559 N 0.54529 0.27603 0.0095 0.0
C560 C 0.54554 0.29715 0.01104 0.0
C561 C 0.56585 0.30774 0.9962 0.0
C562 C 0.57925 0.2925 0.98429 0.0
C563 C 0.56617 0.27343 0.99255 0.0
N564 N 0.54029 0.2321 0.01158 0.0
C565 C 0.5611 0.23374 0.99391 0.0
C566 C 0.56877 0.21417 0.98662 0.0
C567 C 0.55202 0.19962 1.0 0.0
C568 C 0.5351 0.21109 0.01455 0.0
N569 N 0.49396 0.23319 0.04697 0.0
C570 C 0.49502 0.21204 0.04664 0.0
C571 C 0.4761 0.20141 0.06271 0.0
C572 C 0.46237 0.21667 0.07429 0.0
C573 C 0.47364 0.23581 0.06444 0.0
N574 N 0.49265 0.25489 0.00125 0.0
C575 C 0.45686 0.25516 0.962 0.0
C576 C 0.461 0.23655 0.97524 0.0
C577 C 0.47893 0.23675 0.99459 0.0
C578 C 0.47051 0.27366 0.96898 0.0
C579 C 0.488 0.2732 0.98855 0.0
N580 N 0.54601 0.25434 0.05456 0.0
C581 C 0.57392 0.23537 0.08292 0.0
C582 C 0.58178 0.25395 0.09384 0.0
C583 C 0.57187 0.27275 0.08451 0.0
C584 C 0.55432 0.27261 0.06497 0.0
C585 C 0.55607 0.23591 0.06352 0.0
H586 H 0.54763 0.28749 0.05872 0.0
H587 H 0.55048 0.22118 0.05626 0.0
H588 H 0.48159 0.222 0.00369 0.0
H589 H 0.49766 0.28787 0.99294 0.0
C590 C 0.52452 0.30663 0.02463 0.0
C591 C 0.46522 0.25602 0.07295 0.0
C592 C 0.57347 0.25341 0.98292 0.0
C593 C 0.51417 0.20262 0.03116 0.0
H594 H 0.45058 0.29857 0.07959 0.0
H595 H 0.48287 0.32656 0.05297 0.0
H596 H 0.56977 0.32457 0.9937 0.0
H597 H 0.59625 0.29513 0.97064 0.0
H598 H 0.58457 0.21078 0.97282 0.0
H599 H 0.55192 0.1827 0.99902 0.0
H600 H 0.47301 0.18458 0.0659 0.0
H601 H 0.44624 0.21396 0.08865 0.0
H602 H 0.45095 0.22179 0.97038 0.0
H603 H 0.46756 0.28853 0.95946 0.0
H604 H 0.58098 0.2204 0.08964 0.0
H605 H 0.5778 0.28759 0.09216 0.0
H606 H 0.1503 0.32861 0.33893 0.0
H607 H 0.22444 0.37126 0.334 0.0
H608 H 0.11998 0.35823 0.34356 0.0
H609 H 0.19399 0.40098 0.33819 0.0
H610 H 0.13016 0.44679 0.369 0.0
H611 H 0.16055 0.41674 0.36806 0.0
H612 H 0.10671 0.38791 0.31661 0.0
H613 H 0.07622 0.41768 0.31782 0.0
C614 C 0.16014 0.3443 0.33908 0.0
C615 C 0.18975 0.34761 0.33607 0.0
C616 C 0.14276 0.36127 0.3415 0.0
C617 C 0.15461 0.38193 0.34112 0.0
C618 C 0.18427 0.38523 0.33871 0.0
C619 C 0.20167 0.36824 0.33609 0.0
C620 C 0.12475 0.43393 0.35766 0.0
C621 C 0.10089 0.4346 0.34343 0.0
C622 C 0.14224 0.41684 0.35698 0.0
C623 C 0.13598 0.39998 0.34228 0.0
C624 C 0.11192 0.40057 0.32829 0.0
C625 C 0.09463 0.41771 0.3288 0.0
H626 H 0.14005 0.68708 0.69901 0.0
H627 H 0.20805 0.6495 0.72307 0.0
H628 H 0.11058 0.65525 0.69437 0.0
H629 H 0.17805 0.61773 0.71962 0.0
H630 H 0.1255 0.56327 0.69066 0.0
H631 H 0.15616 0.59535 0.69124 0.0
H632 H 0.08522 0.62857 0.71968 0.0
H633 H 0.05467 0.59663 0.71825 0.0
C634 C 0.1488 0.67203 0.70316 0.0
C635 C 0.17643 0.67088 0.71146 0.0
C636 C 0.13175 0.65378 0.70081 0.0
C637 C 0.14184 0.63391 0.70678 0.0
C638 C 0.16966 0.63274 0.71465 0.0
C639 C 0.18675 0.65099 0.71693 0.0
C640 C 0.11662 0.57756 0.69681 0.0
C641 C 0.08788 0.57771 0.70426 0.0
C642 C 0.13411 0.59585 0.69733 0.0
C643 C 0.12316 0.61457 0.70548 0.0
C644 C 0.09426 0.61457 0.71291 0.0
C645 C 0.07681 0.59631 0.71228 0.0
H646 H 0.81612 0.65081 0.32663 0.0
H647 H 0.89052 0.69028 0.33907 0.0
H648 H 0.84365 0.61968 0.33182 0.0
H649 H 0.91808 0.65917 0.34418 0.0
H650 H 0.95361 0.59821 0.37224 0.0
H651 H 0.92375 0.62838 0.37062 0.0
H652 H 0.8814 0.60274 0.31026 0.0
H653 H 0.91046 0.57223 0.31248 0.0
C654 C 0.83838 0.65284 0.33039 0.0
C655 C 0.85115 0.67303 0.33233 0.0
C656 C 0.85416 0.635 0.33336 0.0
C657 C 0.8831 0.63692 0.33833 0.0
C658 C 0.89575 0.6571 0.34071 0.0
C659 C 0.87995 0.67495 0.33776 0.0
C660 C 0.93762 0.59886 0.35887 0.0
C661 C 0.93446 0.58283 0.34245 0.0
C662 C 0.92074 0.61627 0.35776 0.0
C663 C 0.90026 0.61802 0.34025 0.0
C664 C 0.89678 0.6018 0.32412 0.0
C665 C 0.91367 0.58442 0.32521 0.0
H666 H 0.84543 0.36978 0.68757 0.0
H667 H 0.87622 0.3617 0.75923 0.0
H668 H 0.87578 0.40193 0.68088 0.0
H669 H 0.90614 0.39386 0.75268 0.0
H670 H 0.97812 0.43944 0.72305 0.0
H671 H 0.94883 0.40662 0.7272 0.0
H672 H 0.87878 0.43836 0.69708 0.0
H673 H 0.90826 0.4712 0.69308 0.0
C674 C 0.85876 0.37484 0.70183 0.0
C675 C 0.85844 0.36328 0.72394 0.0
C676 C 0.87593 0.3933 0.69807 0.0
C677 C 0.89334 0.40037 0.71625 0.0
C678 C 0.89316 0.38869 0.73826 0.0
C679 C 0.87583 0.37039 0.74209 0.0
C680 C 0.9565 0.43925 0.71722 0.0
C681 C 0.94532 0.45763 0.70767 0.0
C682 C 0.93973 0.42058 0.71967 0.0
C683 C 0.91151 0.41996 0.7125 0.0
C684 C 0.90054 0.43834 0.70251 0.0
C685 C 0.91728 0.45707 0.70026 0.0
H686 H 0.2929 0.15243 0.37459 0.0
H687 H 0.20931 0.16964 0.39902 0.0
H688 H 0.28723 0.12014 0.39969 0.0
H689 H 0.204 0.13748 0.42455 0.0
H690 H 0.22308 0.09 0.48736 0.0
H691 H 0.22591 0.12201 0.46115 0.0
H692 H 0.25752 0.08649 0.40207 0.0
H693 H 0.25453 0.05457 0.42842 0.0
C694 C 0.2732 0.14926 0.38512 0.0
C695 C 0.25153 0.16365 0.38469 0.0
C696 C 0.26999 0.13076 0.39954 0.0
C697 C 0.24514 0.12627 0.41402 0.0
C698 C 0.22351 0.14064 0.41374 0.0
C699 C 0.22662 0.1591 0.39917 0.0
C700 C 0.2304 0.08915 0.4687 0.0
C701 C 0.23879 0.07005 0.45979 0.0
C702 C 0.23194 0.10735 0.45371 0.0
C703 C 0.24208 0.10675 0.4296 0.0
C704 C 0.24998 0.08747 0.42065 0.0
C705 C 0.24819 0.06925 0.4356 0.0
H706 H 0.37725 0.75463 0.81752 0.0
H707 H 0.31381 0.78731 0.85725 0.0
H708 H 0.40802 0.75613 0.85155 0.0
H709 H 0.34381 0.78799 0.89186 0.0
H710 H 0.41405 0.80317 0.94212 0.0
H711 H 0.38497 0.8031 0.90716 0.0
H712 H 0.41381 0.74189 0.89016 0.0
H713 H 0.4447 0.74278 0.92381 0.0
C714 C 0.36983 0.76194 0.8337 0.0
C715 C 0.34323 0.77085 0.83482 0.0
C716 C 0.38735 0.76272 0.85329 0.0
C717 C 0.37845 0.7721 0.87463 0.0
C718 C 0.35169 0.78097 0.87565 0.0
C719 C 0.33438 0.7805 0.85589 0.0
C720 C 0.41461 0.78984 0.93071 0.0
C721 C 0.43186 0.77299 0.93592 0.0
C722 C 0.3975 0.78964 0.91081 0.0
C723 C 0.39687 0.77246 0.89574 0.0
C724 C 0.41398 0.75556 0.90106 0.0
C725 C 0.43139 0.7559 0.92072 0.0
H726 H 0.79051 0.83519 0.41823 0.0
H727 H 0.78489 0.8765 0.35517 0.0
H728 H 0.79468 0.86561 0.44322 0.0
H729 H 0.78886 0.90688 0.3802 0.0
H730 H 0.76269 0.95368 0.4368 0.0
H731 H 0.76047 0.92346 0.41139 0.0
H732 H 0.82727 0.89567 0.45068 0.0
H733 H 0.82891 0.92563 0.47659 0.0
C734 C 0.79046 0.85075 0.40966 0.0
C735 C 0.78726 0.85339 0.3847 0.0
C736 C 0.79284 0.86818 0.42399 0.0
C737 C 0.79203 0.88865 0.4137 0.0
C738 C 0.78911 0.8913 0.38872 0.0
C739 C 0.78679 0.87389 0.37439 0.0
C740 C 0.7768 0.94107 0.4401 0.0
C741 C 0.79592 0.94203 0.45875 0.0
C742 C 0.77573 0.92386 0.42538 0.0
C743 C 0.7937 0.90717 0.42902 0.0
C744 C 0.81297 0.90819 0.44757 0.0
C745 C 0.81412 0.92545 0.46223 0.0
H746 H 0.71254 0.27479 0.87669 0.0
H747 H 0.64898 0.23982 0.839 0.0
H748 H 0.68145 0.27266 0.91295 0.0
H749 H 0.61824 0.23707 0.87558 0.0
H750 H 0.55904 0.25963 0.93664 0.0
H751 H 0.59024 0.2603 0.90019 0.0
H752 H 0.66137 0.24714 0.94393 0.0
H753 H 0.62996 0.24681 0.98028 0.0
C754 C 0.69193 0.26662 0.87615 0.0
C755 C 0.68318 0.25756 0.85491 0.0
C756 C 0.67425 0.2652 0.89702 0.0
C757 C 0.64737 0.2547 0.89715 0.0
C758 C 0.63871 0.24545 0.87599 0.0
C759 C 0.65644 0.24683 0.85511 0.0
C760 C 0.58135 0.25683 0.93826 0.0
C761 C 0.59233 0.25316 0.96098 0.0
C762 C 0.59916 0.25708 0.9175 0.0
C763 C 0.62828 0.25376 0.91917 0.0
C764 C 0.63911 0.24997 0.94206 0.0
C765 C 0.62124 0.24967 0.96281 0.0
H766 H 0.28272 0.87267 0.66698 0.0
H767 H 0.1985 0.85173 0.64794 0.0
H768 H 0.27966 0.90435 0.64139 0.0
H769 H 0.19571 0.88335 0.62198 0.0
H770 H 0.21816 0.9308 0.55719 0.0
H771 H 0.21874 0.89923 0.58389 0.0
H772 H 0.25272 0.93684 0.63977 0.0
H773 H 0.2521 0.96829 0.61291 0.0
C774 C 0.26343 0.8749 0.65754 0.0
C775 C 0.24081 0.85965 0.65961 0.0
C776 C 0.26171 0.89306 0.64284 0.0
C777 C 0.23742 0.89637 0.62974 0.0
C778 C 0.21483 0.88112 0.63168 0.0
C779 C 0.21647 0.86299 0.6465 0.0
C780 C 0.22555 0.93219 0.57526 0.0
C781 C 0.23526 0.95175 0.58311 0.0
C782 C 0.2258 0.91423 0.59054 0.0
C783 C 0.2359 0.91556 0.61388 0.0
C784 C 0.24518 0.93529 0.62178 0.0
C785 C 0.24473 0.95325 0.60655 0.0
H786 H 0.71854 0.76721 0.18256 0.0
H787 H 0.64512 0.77303 0.23047 0.0
H788 H 0.68827 0.76842 0.14797 0.0
H789 H 0.61488 0.77439 0.19586 0.0
H790 H 0.56885 0.74978 0.12987 0.0
H791 H 0.59913 0.74927 0.16444 0.0
H792 H 0.65792 0.79463 0.12686 0.0
H793 H 0.6277 0.79503 0.09218 0.0
C794 C 0.69593 0.76871 0.18566 0.0
C795 C 0.68416 0.76999 0.20918 0.0
C796 C 0.67867 0.76958 0.16589 0.0
C797 C 0.64924 0.77149 0.16926 0.0
C798 C 0.63747 0.77276 0.19277 0.0
C799 C 0.65478 0.77215 0.21253 0.0
C800 C 0.58832 0.75956 0.12897 0.0
C801 C 0.59598 0.77241 0.10834 0.0
C802 C 0.60549 0.7594 0.14881 0.0
C803 C 0.63085 0.77192 0.14832 0.0
C804 C 0.63858 0.78472 0.12765 0.0
C805 C 0.62121 0.78507 0.10791 0.0
H806 H 0.79455 0.15769 0.70182 0.0
H807 H 0.78727 0.19889 0.63892 0.0
H808 H 0.79818 0.12779 0.67608 0.0
H809 H 0.79179 0.16911 0.61316 0.0
H810 H 0.76459 0.10757 0.57873 0.0
H811 H 0.7631 0.13771 0.60414 0.0
H812 H 0.8302 0.11305 0.64575 0.0
H813 H 0.8311 0.08248 0.6207 0.0
C814 C 0.79377 0.16036 0.6825 0.0
C815 C 0.79049 0.18065 0.67242 0.0
C816 C 0.79617 0.14327 0.66774 0.0
C817 C 0.79524 0.14607 0.64258 0.0
C818 C 0.79229 0.1664 0.63249 0.0
C819 C 0.78999 0.1835 0.64724 0.0
C820 C 0.7789 0.10849 0.5934 0.0
C821 C 0.79785 0.09257 0.59779 0.0
C822 C 0.77827 0.1259 0.60779 0.0
C823 C 0.79655 0.12779 0.62695 0.0
C824 C 0.81567 0.11195 0.63125 0.0
C825 C 0.81638 0.09455 0.61677 0.0
H826 H 0.38061 0.28893 0.20739 0.0
H827 H 0.34061 0.22922 0.19093 0.0
H828 H 0.41015 0.28874 0.17026 0.0
H829 H 0.37074 0.22872 0.15422 0.0
H830 H 0.40852 0.24585 0.07806 0.0
H831 H 0.37772 0.24712 0.11458 0.0
H832 H 0.44963 0.26935 0.15365 0.0
H833 H 0.48012 0.26823 0.11697 0.0
C834 C 0.37806 0.27581 0.19581 0.0
C835 C 0.35829 0.25908 0.20212 0.0
C836 C 0.39519 0.27559 0.17467 0.0
C837 C 0.39282 0.2587 0.15932 0.0
C838 C 0.37289 0.24206 0.16554 0.0
C839 C 0.35586 0.24223 0.18671 0.0
C840 C 0.41755 0.25097 0.09454 0.0
C841 C 0.44651 0.25683 0.09497 0.0
C842 C 0.40006 0.25163 0.11541 0.0
C843 C 0.41126 0.2583 0.13702 0.0
C844 C 0.4403 0.26437 0.13724 0.0
C845 C 0.45776 0.26363 0.11639 0.0
H846 H 0.88409 0.69765 0.70698 0.0
H847 H 0.80958 0.65663 0.72316 0.0
H848 H 0.91245 0.66715 0.70125 0.0
H849 H 0.83795 0.62611 0.7174 0.0
H850 H 0.90524 0.57878 0.73622 0.0
H851 H 0.87504 0.60861 0.73826 0.0
H852 H 0.92002 0.63781 0.67525 0.0
H853 H 0.95096 0.60824 0.67373 0.0
C854 C 0.87368 0.68213 0.70896 0.0
C855 C 0.84461 0.67957 0.71565 0.0
C856 C 0.88993 0.66464 0.70566 0.0
C857 C 0.87748 0.64419 0.70895 0.0
C858 C 0.84828 0.64164 0.71512 0.0
C859 C 0.83203 0.65912 0.71843 0.0
C860 C 0.90875 0.59159 0.72284 0.0
C861 C 0.93063 0.5912 0.70492 0.0
C862 C 0.89121 0.60858 0.72384 0.0
C863 C 0.89514 0.62561 0.70694 0.0
C864 C 0.91665 0.62503 0.6887 0.0
C865 C 0.93417 0.60799 0.68767 0.0
H866 H 0.86958 0.34863 0.37185 0.0
H867 H 0.85292 0.3689 0.29882 0.0
H868 H 0.89859 0.3809 0.37605 0.0
H869 H 0.88103 0.40135 0.30347 0.0
H870 H 0.90994 0.46591 0.32999 0.0
H871 H 0.87912 0.43397 0.32826 0.0
H872 H 0.94532 0.39714 0.35703 0.0
H873 H 0.97615 0.42911 0.3584 0.0
C874 C 0.87211 0.35988 0.35667 0.0
C875 C 0.85882 0.35608 0.33498 0.0
C876 C 0.88863 0.3784 0.35915 0.0
C877 C 0.89194 0.39364 0.34013 0.0
C878 C 0.87848 0.39 0.31857 0.0
C879 C 0.86227 0.37141 0.31597 0.0
C880 C 0.91772 0.45094 0.33596 0.0
C881 C 0.94533 0.44977 0.34411 0.0
C882 C 0.90022 0.43273 0.33494 0.0
C883 C 0.90991 0.41309 0.34242 0.0
C884 C 0.93726 0.41208 0.35131 0.0
C885 C 0.95488 0.43027 0.35203 0.0
H886 H 0.21766 0.37737 0.71697 0.0
H887 H 0.14323 0.33571 0.71326 0.0
H888 H 0.18822 0.40767 0.71261 0.0
H889 H 0.11394 0.36596 0.70835 0.0
H890 H 0.06848 0.42433 0.73246 0.0
H891 H 0.0981 0.39408 0.73427 0.0
H892 H 0.15858 0.4258 0.68286 0.0
H893 H 0.12912 0.45634 0.68141 0.0
C894 C 0.19503 0.3747 0.71514 0.0
C895 C 0.18274 0.35416 0.71554 0.0
C896 C 0.17823 0.39203 0.7124 0.0
C897 C 0.14876 0.38919 0.7102 0.0
C898 C 0.13655 0.36865 0.71025 0.0
C899 C 0.15336 0.35133 0.71283 0.0
C900 C 0.08817 0.42489 0.72163 0.0
C901 C 0.09656 0.44275 0.70689 0.0
C902 C 0.10498 0.40748 0.72248 0.0
C903 C 0.13065 0.40755 0.70868 0.0
C904 C 0.13901 0.42536 0.69382 0.0
C905 C 0.12205 0.44275 0.69284 0.0
H906 H 0.13866 0.67939 0.34182 0.0
H907 H 0.20844 0.64365 0.31612 0.0
H908 H 0.10942 0.64702 0.34893 0.0
H909 H 0.17877 0.61139 0.32212 0.0
H910 H 0.12596 0.55493 0.35498 0.0
H911 H 0.15592 0.58749 0.35249 0.0
H912 H 0.08575 0.62123 0.32543 0.0
H913 H 0.05585 0.58875 0.32873 0.0
C914 C 0.14784 0.66462 0.33783 0.0
C915 C 0.17589 0.66415 0.32832 0.0
C916 C 0.13095 0.64607 0.34163 0.0
C917 C 0.14167 0.6266 0.33596 0.0
C918 C 0.16989 0.62608 0.32689 0.0
C919 C 0.1868 0.64462 0.32315 0.0
C920 C 0.11706 0.56943 0.34877 0.0
C921 C 0.08875 0.56956 0.34218 0.0
C922 C 0.13416 0.588 0.34715 0.0
C923 C 0.12325 0.60699 0.33875 0.0
C924 C 0.09472 0.60699 0.33234 0.0
C925 C 0.07765 0.58844 0.33405 0.0
H926 H 0.73896 0.86041 0.65132 0.0
H927 H 0.82572 0.86945 0.67185 0.0
H928 H 0.74436 0.89248 0.62549 0.0
H929 H 0.83114 0.90157 0.64597 0.0
H930 H 0.81317 0.97059 0.62027 0.0
H931 H 0.80988 0.93796 0.6455 0.0
H932 H 0.77313 0.90502 0.58718 0.0
H933 H 0.77693 0.93759 0.56194 0.0
C934 C 0.75915 0.8693 0.65032 0.0
C935 C 0.78192 0.86249 0.66357 0.0
C936 C 0.7623 0.88753 0.63543 0.0
C937 C 0.78817 0.89947 0.63375 0.0
C938 C 0.81093 0.89271 0.64706 0.0
C939 C 0.80789 0.8743 0.6617 0.0
C940 C 0.80474 0.95626 0.61288 0.0
C941 C 0.7955 0.95639 0.58924 0.0
C942 C 0.80287 0.93766 0.62722 0.0
C943 C 0.79124 0.919 0.61826 0.0
C944 C 0.78199 0.91921 0.59457 0.0
C945 C 0.78424 0.93773 0.58015 0.0
H946 H 0.67941 0.28899 0.21588 0.0
H947 H 0.69428 0.2231 0.20927 0.0
H948 H 0.64951 0.28802 0.1814 0.0
H949 H 0.66297 0.22183 0.17565 0.0
H950 H 0.63017 0.23279 0.09999 0.0
H951 H 0.66064 0.23332 0.13433 0.0
H952 H 0.60427 0.27491 0.1699 0.0
H953 H 0.57429 0.27471 0.13533 0.0
C954 C 0.67632 0.27428 0.20708 0.0
C955 C 0.68937 0.25614 0.21536 0.0
C956 C 0.65881 0.27365 0.18749 0.0
C957 C 0.65371 0.25483 0.17575 0.0
C958 C 0.66667 0.23666 0.18407 0.0
C959 C 0.68433 0.23732 0.20359 0.0
C960 C 0.62426 0.24193 0.11523 0.0
C961 C 0.59995 0.2538 0.11494 0.0
C962 C 0.64166 0.2422 0.13495 0.0
C963 C 0.63499 0.25422 0.1549 0.0
C964 C 0.6104 0.26583 0.15467 0.0
C965 C 0.59316 0.26569 0.13489 0.0
H966 H 0.24238 0.152 0.69398 0.0
H967 H 0.25568 0.19292 0.63015 0.0
H968 H 0.23913 0.12158 0.66886 0.0
H969 H 0.25165 0.16256 0.60502 0.0
H970 H 0.277 0.10163 0.57058 0.0
H971 H 0.27936 0.13197 0.59577 0.0
H972 H 0.20764 0.10549 0.63971 0.0
H973 H 0.20577 0.0748 0.61486 0.0
C974 C 0.2446 0.15449 0.67459 0.0
C975 C 0.24938 0.17485 0.66405 0.0
C976 C 0.24244 0.13709 0.6602 0.0
C977 C 0.24516 0.13967 0.63496 0.0
C978 C 0.24975 0.16005 0.62442 0.0
C979 C 0.25177 0.17745 0.6388 0.0
C980 C 0.26189 0.10219 0.58574 0.0
C981 C 0.24126 0.08578 0.59079 0.0
C982 C 0.26304 0.11969 0.6 0.0
C983 C 0.24365 0.12115 0.61969 0.0
C984 C 0.22302 0.10473 0.62477 0.0
C985 C 0.22178 0.08726 0.61042 0.0
H986 H 0.33617 0.79957 0.18262 0.0
H987 H 0.37146 0.74066 0.20373 0.0
H988 H 0.36815 0.80244 0.14677 0.0
H989 H 0.4028 0.74322 0.16758 0.0
H990 H 0.47487 0.7652 0.11367 0.0
H991 H 0.44414 0.76435 0.15038 0.0
H992 H 0.37477 0.78484 0.10841 0.0
H993 H 0.40584 0.78582 0.07182 0.0
C994 C 0.35083 0.78728 0.17965 0.0
C995 C 0.35128 0.76988 0.196 0.0
C996 C 0.36893 0.78882 0.159 0.0
C997 C 0.38799 0.77306 0.15434 0.0
C998 C 0.38857 0.75574 0.17079 0.0
C999 C 0.3704 0.75416 0.19136 0.0
C1000 C 0.45308 0.76964 0.11249 0.0
C1001 C 0.44256 0.77567 0.09018 0.0
C1002 C 0.43547 0.76904 0.13337 0.0
C1003 C 0.407 0.77448 0.13228 0.0
C1004 C 0.39667 0.7808 0.10988 0.0
C1005 C 0.41431 0.78132 0.08898 0.0
H1006 H 0.83574 0.17497 0.40187 0.0
H1007 H 0.75155 0.15395 0.38277 0.0
H1008 H 0.83849 0.14341 0.42791 0.0
H1009 H 0.75467 0.12227 0.40835 0.0
H1010 H 0.78317 0.05832 0.43665 0.0
H1011 H 0.78238 0.08979 0.40981 0.0
H1012 H 0.81471 0.12763 0.46616 0.0
H1013 H 0.81532 0.09608 0.49289 0.0
C1014 C 0.81777 0.16372 0.4033 0.0
C1015 C 0.79344 0.16703 0.39015 0.0
C1016 C 0.8194 0.14561 0.41816 0.0
C1017 C 0.79685 0.13034 0.42007 0.0
C1018 C 0.77258 0.1336 0.40693 0.0
C1019 C 0.77084 0.15175 0.39222 0.0
C1020 C 0.7901 0.07342 0.44314 0.0
C1021 C 0.7991 0.07499 0.46672 0.0
C1022 C 0.78958 0.09138 0.42791 0.0
C1023 C 0.79837 0.11117 0.43595 0.0
C1024 C 0.80802 0.11258 0.45943 0.0
C1025 C 0.80829 0.09463 0.47471 0.0
H1026 H 0.38962 0.25257 0.81884 0.0
H1027 H 0.3174 0.2645 0.86577 0.0
H1028 H 0.41951 0.25077 0.8536 0.0
H1029 H 0.34738 0.26298 0.9005 0.0
H1030 H 0.40436 0.23574 0.95841 0.0
H1031 H 0.37439 0.23634 0.9236 0.0
H1032 H 0.43837 0.27572 0.88332 0.0
H1033 H 0.46845 0.2749 0.91795 0.0
C1034 C 0.38014 0.25472 0.8366 0.0
C1035 C 0.3512 0.25869 0.83961 0.0
C1036 C 0.39728 0.25386 0.85645 0.0
C1037 C 0.38577 0.25675 0.87975 0.0
C1038 C 0.35677 0.26053 0.88278 0.0
C1039 C 0.33969 0.26159 0.8629 0.0
C1040 C 0.41206 0.2444 0.94205 0.0
C1041 C 0.4387 0.25531 0.94089 0.0
C1042 C 0.39483 0.24488 0.92222 0.0
C1043 C 0.40405 0.25609 0.90077 0.0
C1044 C 0.43081 0.26682 0.89955 0.0
C1045 C 0.4479 0.26651 0.91943 0.0
H1046 H 0.24203 0.87206 0.34494 0.0
H1047 H 0.23917 0.83071 0.4087 0.0
H1048 H 0.23845 0.90227 0.37016 0.0
H1049 H 0.23547 0.86092 0.43389 0.0
H1050 H 0.20275 0.91818 0.47087 0.0
H1051 H 0.20316 0.88838 0.44474 0.0
H1052 H 0.26777 0.9213 0.39811 0.0
H1053 H 0.26671 0.95133 0.42379 0.0
C1054 C 0.24078 0.86942 0.36434 0.0
C1055 C 0.241 0.84897 0.37481 0.0
C1056 C 0.2387 0.88673 0.37878 0.0
C1057 C 0.23674 0.884 0.40402 0.0
C1058 C 0.23655 0.86353 0.41449 0.0
C1059 C 0.23868 0.84622 0.40005 0.0
C1060 C 0.21676 0.91915 0.45486 0.0
C1061 C 0.23472 0.93711 0.44941 0.0
C1062 C 0.21721 0.902 0.44004 0.0
C1063 C 0.23555 0.90245 0.4194 0.0
C1064 C 0.25321 0.92053 0.41377 0.0
C1065 C 0.25282 0.93764 0.42862 0.0
H1066 H 0.70271 0.75281 0.86928 0.0
H1067 H 0.63885 0.78424 0.82995 0.0
H1068 H 0.67255 0.7528 0.90602 0.0
H1069 H 0.60915 0.78492 0.86688 0.0
H1070 H 0.55101 0.76232 0.9319 0.0
H1071 H 0.58095 0.7611 0.89492 0.0
H1072 H 0.65491 0.77747 0.93474 0.0
H1073 H 0.62477 0.7782 0.9717 0.0
C1074 C 0.6822 0.75966 0.86846 0.0
C1075 C 0.67317 0.76849 0.84667 0.0
C1076 C 0.66506 0.75987 0.88958 0.0
C1077 C 0.63847 0.76889 0.88939 0.0
C1078 C 0.62939 0.77766 0.86759 0.0
C1079 C 0.64655 0.77748 0.84648 0.0
C1080 C 0.5737 0.76559 0.93257 0.0
C1081 C 0.58578 0.77042 0.95437 0.0
C1082 C 0.5908 0.76503 0.91149 0.0
C1083 C 0.62031 0.76925 0.91188 0.0
C1084 C 0.63232 0.77392 0.93388 0.0
C1085 C 0.61517 0.77448 0.95496 0.0
loop_
_geom_bond_atom_site_label_1
_geom_bond_atom_site_label_2
_geom_bond_distance
_geom_bond_site_symmetry_2
_ccdc_geom_bond_type
C0 C1 1.384 . S
C0 H13 0.947 . S
C0 C35 1.382 . S
C1 C0 1.384 . S
C1 C2 1.378 . S
C2 C1 1.378 . S
C2 C3 1.378 . S
C2 H14 0.952 . S
C3 C2 1.378 . S
C3 H15 0.950 . S
C3 C34 1.383 . S
H4 C23 0.947 . S
H5 C24 0.946 . S
H6 C26 0.953 . S
H7 C27 0.945 . S
H8 C29 0.952 . S
H9 C30 0.949 . S
H10 C32 0.950 . S
H11 C33 0.948 . S
H12 C35 0.951 . S
H13 C0 0.947 . S
H14 C2 0.952 . S
H15 C3 0.950 . S
N16 C19 1.382 . S
N16 C21 1.363 . S
N17 C19 1.371 . S
N17 C20 1.372 . S
N18 C20 1.361 . S
N18 C21 1.377 . S
C19 N16 1.382 . S
C19 N17 1.371 . S
C19 C22 1.480 . S
C20 N17 1.372 . S
C20 N18 1.361 . S
C20 C28 1.457 . S
C21 N16 1.363 . S
C21 N18 1.377 . S
C21 C34 1.479 . S
C22 C19 1.480 . S
C22 C23 1.383 . S
C22 C27 1.385 . S
C23 H4 0.947 . S
C23 C22 1.383 . S
C23 C24 1.388 . S
C24 H5 0.946 . S
C24 C23 1.388 . S
C24 C25 1.384 . S
C25 C24 1.384 . S
C25 C26 1.377 . S
C26 H6 0.953 . S
C26 C25 1.377 . S
C26 C27 1.369 . S
C27 H7 0.945 . S
C27 C22 1.385 . S
C27 C26 1.369 . S
C28 C20 1.457 . S
C28 C29 1.372 . S
C28 C33 1.364 . S
C29 H8 0.952 . S
C29 C28 1.372 . S
C29 C30 1.389 . S
C30 H9 0.949 . S
C30 C29 1.389 . S
C30 C31 1.387 . S
C31 C30 1.387 . S
C31 C32 1.372 . S
C32 H10 0.950 . S
C32 C31 1.372 . S
C32 C33 1.379 . S
C33 H11 0.948 . S
C33 C28 1.364 . S
C33 C32 1.379 . S
C34 C3 1.383 . S
C34 C21 1.479 . S
C34 C35 1.398 . S
C35 C0 1.382 . S
C35 H12 0.951 . S
C35 C34 1.398 . S
C36 C37 1.384 . S
C36 H49 0.947 . S
C36 C71 1.382 . S
C37 C36 1.384 . S
C37 C38 1.378 . S
C38 C37 1.378 . S
C38 C39 1.378 . S
C38 H50 0.952 . S
C39 C38 1.378 . S
C39 H51 0.950 . S
C39 C70 1.383 . S
H40 C59 0.947 . S
H41 C60 0.946 . S
H42 C62 0.953 . S
H43 C63 0.945 . S
H44 C65 0.952 . S
H45 C66 0.949 . S
H46 C68 0.950 . S
H47 C69 0.948 . S
H48 C71 0.951 . S
H49 C36 0.947 . S
H50 C38 0.952 . S
H51 C39 0.950 . S
N52 C55 1.382 . S
N52 C57 1.363 . S
N53 C55 1.371 . S
N53 C56 1.372 . S
N54 C56 1.361 . S
N54 C57 1.377 . S
C55 N52 1.382 . S
C55 N53 1.371 . S
C55 C58 1.480 . S
C56 N53 1.372 . S
C56 N54 1.361 . S
C56 C64 1.457 . S
C57 N52 1.363 . S
C57 N54 1.377 . S
C57 C70 1.479 . S
C58 C55 1.480 . S
C58 C59 1.383 . S
C58 C63 1.385 . S
C59 H40 0.947 . S
C59 C58 1.383 . S
C59 C60 1.388 . S
C60 H41 0.946 . S
C60 C59 1.388 . S
C60 C61 1.384 . S
C61 C60 1.384 . S
C61 C62 1.377 . S
C62 H42 0.953 . S
C62 C61 1.377 . S
C62 C63 1.369 . S
C63 H43 0.945 . S
C63 C58 1.385 . S
C63 C62 1.369 . S
C64 C56 1.457 . S
C64 C65 1.372 . S
C64 C69 1.364 . S
C65 H44 0.952 . S
C65 C64 1.372 . S
C65 C66 1.389 . S
C66 H45 0.949 . S
C66 C65 1.389 . S
C66 C67 1.387 . S
C67 C66 1.387 . S
C67 C68 1.372 . S
C68 H46 0.950 . S
C68 C67 1.372 . S
C68 C69 1.379 . S
C69 H47 0.948 . S
C69 C64 1.364 . S
C69 C68 1.379 . S
C70 C39 1.383 . S
C70 C57 1.479 . S
C70 C71 1.398 . S
C71 C36 1.382 . S
C71 H48 0.951 . S
C71 C70 1.398 . S
C72 C73 1.384 . S
C72 H85 0.947 . S
C72 C107 1.382 . S
C73 C72 1.384 . S
C73 C74 1.378 . S
C74 C73 1.378 . S
C74 C75 1.378 . S
C74 H86 0.952 . S
C75 C74 1.378 . S
C75 H87 0.950 . S
C75 C106 1.383 . S
H76 C95 0.947 . S
H77 C96 0.946 . S
H78 C98 0.953 . S
H79 C99 0.945 . S
H80 C101 0.952 . S
H81 C102 0.949 . S
H82 C104 0.950 . S
H83 C105 0.948 . S
H84 C107 0.951 . S
H85 C72 0.947 . S
H86 C74 0.952 . S
H87 C75 0.950 . S
N88 C91 1.382 . S
N88 C93 1.363 . S
N89 C91 1.371 . S
N89 C92 1.372 . S
N90 C92 1.361 . S
N90 C93 1.377 . S
C91 N88 1.382 . S
C91 N89 1.371 . S
C91 C94 1.480 . S
C92 N89 1.372 . S
C92 N90 1.361 . S
C92 C100 1.457 . S
C93 N88 1.363 . S
C93 N90 1.377 . S
C93 C106 1.479 . S
C94 C91 1.480 . S
C94 C95 1.383 . S
C94 C99 1.385 . S
C95 H76 0.947 . S
C95 C94 1.383 . S
C95 C96 1.388 . S
C96 H77 0.946 . S
C96 C95 1.388 . S
C96 C97 1.384 . S
C97 C96 1.384 . S
C97 C98 1.377 . S
C98 H78 0.953 . S
C98 C97 1.377 . S
C98 C99 1.369 . S
C99 H79 0.945 . S
C99 C94 1.385 . S
C99 C98 1.369 . S
C100 C92 1.457 . S
C100 C101 1.372 . S
C100 C105 1.364 . S
C101 H80 0.952 . S
C101 C100 1.372 . S
C101 C102 1.389 . S
C102 H81 0.949 . S
C102 C101 1.389 . S
C102 C103 1.387 . S
C103 C102 1.387 . S
C103 C104 1.372 . S
C104 H82 0.950 . S
C104 C103 1.372 . S
C104 C105 1.379 . S
C105 H83 0.948 . S
C105 C100 1.364 . S
C105 C104 1.379 . S
C106 C75 1.383 . S
C106 C93 1.479 . S
C106 C107 1.398 . S
C107 C72 1.382 . S
C107 H84 0.951 . S
C107 C106 1.398 . S
C108 C109 1.384 . S
C108 H121 0.947 . S
C108 C143 1.382 . S
C109 C108 1.384 . S
C109 C110 1.378 . S
C110 C109 1.378 . S
C110 C111 1.378 . S
C110 H122 0.952 . S
C111 C110 1.378 . S
C111 H123 0.950 . S
C111 C142 1.383 . S
H112 C131 0.947 . S
H113 C132 0.946 . S
H114 C134 0.953 . S
H115 C135 0.945 . S
H116 C137 0.952 . S
H117 C138 0.949 . S
H118 C140 0.950 . S
H119 C141 0.948 . S
H120 C143 0.951 . S
H121 C108 0.947 . S
H122 C110 0.952 . S
H123 C111 0.950 . S
N124 C127 1.382 . S
N124 C129 1.363 . S
N125 C127 1.371 . S
N125 C128 1.372 . S
N126 C128 1.361 . S
N126 C129 1.377 . S
C127 N124 1.382 . S
C127 N125 1.371 . S
C127 C130 1.480 . S
C128 N125 1.372 . S
C128 N126 1.361 . S
C128 C136 1.457 . S
C129 N124 1.363 . S
C129 N126 1.377 . S
C129 C142 1.479 . S
C130 C127 1.480 . S
C130 C131 1.383 . S
C130 C135 1.385 . S
C131 H112 0.947 . S
C131 C130 1.383 . S
C131 C132 1.388 . S
C132 H113 0.946 . S
C132 C131 1.388 . S
C132 C133 1.384 . S
C133 C132 1.384 . S
C133 C134 1.377 . S
C134 H114 0.953 . S
C134 C133 1.377 . S
C134 C135 1.369 . S
C135 H115 0.945 . S
C135 C130 1.385 . S
C135 C134 1.369 . S
C136 C128 1.457 . S
C136 C137 1.372 . S
C136 C141 1.364 . S
C137 H116 0.952 . S
C137 C136 1.372 . S
C137 C138 1.389 . S
C138 H117 0.949 . S
C138 C137 1.389 . S
C138 C139 1.387 . S
C139 C138 1.387 . S
C139 C140 1.372 . S
C140 H118 0.950 . S
C140 C139 1.372 . S
C140 C141 1.379 . S
C141 H119 0.948 . S
C141 C136 1.364 . S
C141 C140 1.379 . S
C142 C111 1.383 . S
C142 C129 1.479 . S
C142 C143 1.398 . S
C143 C108 1.382 . S
C143 H120 0.951 . S
C143 C142 1.398 . S
C144 C145 1.384 . S
C144 H157 0.947 . S
C144 C179 1.382 . S
C145 C144 1.384 . S
C145 C146 1.378 . S
C146 C145 1.378 . S
C146 C147 1.378 . S
C146 H158 0.952 . S
C147 C146 1.378 . S
C147 H159 0.950 . S
C147 C178 1.383 . S
H148 C167 0.947 . S
H149 C168 0.946 . S
H150 C170 0.953 . S
H151 C171 0.945 . S
H152 C173 0.952 . S
H153 C174 0.949 . S
H154 C176 0.950 . S
H155 C177 0.948 . S
H156 C179 0.951 . S
H157 C144 0.947 . S
H158 C146 0.952 . S
H159 C147 0.950 . S
N160 C163 1.382 . S
N160 C165 1.363 . S
N161 C163 1.371 . S
N161 C164 1.372 . S
N162 C164 1.361 . S
N162 C165 1.377 . S
C163 N160 1.382 . S
C163 N161 1.371 . S
C163 C166 1.480 . S
C164 N161 1.372 . S
C164 N162 1.361 . S
C164 C172 1.457 . S
C165 N160 1.363 . S
C165 N162 1.377 . S
C165 C178 1.479 . S
C166 C163 1.480 . S
C166 C167 1.383 . S
C166 C171 1.385 . S
C167 H148 0.947 . S
C167 C166 1.383 . S
C167 C168 1.388 . S
C168 H149 0.946 . S
C168 C167 1.388 . S
C168 C169 1.384 . S
C169 C168 1.384 . S
C169 C170 1.377 . S
C170 H150 0.953 . S
C170 C169 1.377 . S
C170 C171 1.369 . S
C171 H151 0.945 . S
C171 C166 1.385 . S
C171 C170 1.369 . S
C172 C164 1.457 . S
C172 C173 1.372 . S
C172 C177 1.364 . S
C173 H152 0.952 . S
C173 C172 1.372 . S
C173 C174 1.389 . S
C174 H153 0.949 . S
C174 C173 1.389 . S
C174 C175 1.387 . S
C175 C174 1.387 . S
C175 C176 1.372 . S
C176 H154 0.950 . S
C176 C175 1.372 . S
C176 C177 1.379 . S
C177 H155 0.948 . S
C177 C172 1.364 . S
C177 C176 1.379 . S
C178 C147 1.383 . S
C178 C165 1.479 . S
C178 C179 1.398 . S
C179 C144 1.382 . S
C179 H156 0.951 . S
C179 C178 1.398 . S
C180 C181 1.384 . S
C180 H193 0.947 . S
C180 C215 1.382 . S
C181 C180 1.384 . S
C181 C182 1.378 . S
C182 C181 1.378 . S
C182 C183 1.378 . S
C182 H194 0.952 . S
C183 C182 1.378 . S
C183 H195 0.950 . S
C183 C214 1.383 . S
H184 C203 0.947 . S
H185 C204 0.946 . S
H186 C206 0.953 . S
H187 C207 0.945 . S
H188 C209 0.952 . S
H189 C210 0.949 . S
H190 C212 0.950 . S
H191 C213 0.948 . S
H192 C215 0.951 . S
H193 C180 0.947 . S
H194 C182 0.952 . S
H195 C183 0.950 . S
N196 C199 1.382 . S
N196 C201 1.363 . S
N197 C199 1.371 . S
N197 C200 1.372 . S
N198 C200 1.361 . S
N198 C201 1.377 . S
C199 N196 1.382 . S
C199 N197 1.371 . S
C199 C202 1.480 . S
C200 N197 1.372 . S
C200 N198 1.361 . S
C200 C208 1.457 . S
C201 N196 1.363 . S
C201 N198 1.377 . S
C201 C214 1.479 . S
C202 C199 1.480 . S
C202 C203 1.383 . S
C202 C207 1.385 . S
C203 H184 0.947 . S
C203 C202 1.383 . S
C203 C204 1.388 . S
C204 H185 0.946 . S
C204 C203 1.388 . S
C204 C205 1.384 . S
C205 C204 1.384 . S
C205 C206 1.377 . S
C206 H186 0.953 . S
C206 C205 1.377 . S
C206 C207 1.369 . S
C207 H187 0.945 . S
C207 C202 1.385 . S
C207 C206 1.369 . S
C208 C200 1.457 . S
C208 C209 1.372 . S
C208 C213 1.364 . S
C209 H188 0.952 . S
C209 C208 1.372 . S
C209 C210 1.389 . S
C210 H189 0.949 . S
C210 C209 1.389 . S
C210 C211 1.387 . S
C211 C210 1.387 . S
C211 C212 1.372 . S
C212 H190 0.950 . S
C212 C211 1.372 . S
C212 C213 1.379 . S
C213 H191 0.948 . S
C213 C208 1.364 . S
C213 C212 1.379 . S
C214 C183 1.383 . S
C214 C201 1.479 . S
C214 C215 1.398 . S
C215 C180 1.382 . S
C215 H192 0.951 . S
C215 C214 1.398 . S
C216 C217 1.384 . S
C216 H229 0.947 . S
C216 C251 1.382 . S
C217 C216 1.384 . S
C217 C218 1.378 . S
C218 C217 1.378 . S
C218 C219 1.378 . S
C218 H230 0.952 . S
C219 C218 1.378 . S
C219 H231 0.950 . S
C219 C250 1.383 . S
H220 C239 0.947 . S
H221 C240 0.946 . S
H222 C242 0.953 . S
H223 C243 0.945 . S
H224 C245 0.952 . S
H225 C246 0.949 . S
H226 C248 0.950 . S
H227 C249 0.948 . S
H228 C251 0.951 . S
H229 C216 0.947 . S
H230 C218 0.952 . S
H231 C219 0.950 . S
N232 C235 1.382 . S
N232 C237 1.363 . S
N233 C235 1.371 . S
N233 C236 1.372 . S
N234 C236 1.361 . S
N234 C237 1.377 . S
C235 N232 1.382 . S
C235 N233 1.371 . S
C235 C238 1.480 . S
C236 N233 1.372 . S
C236 N234 1.361 . S
C236 C244 1.457 . S
C237 N232 1.363 . S
C237 N234 1.377 . S
C237 C250 1.479 . S
C238 C235 1.480 . S
C238 C239 1.383 . S
C238 C243 1.385 . S
C239 H220 0.947 . S
C239 C238 1.383 . S
C239 C240 1.388 . S
C240 H221 0.946 . S
C240 C239 1.388 . S
C240 C241 1.384 . S
C241 C240 1.384 . S
C241 C242 1.377 . S
C242 H222 0.953 . S
C242 C241 1.377 . S
C242 C243 1.369 . S
C243 H223 0.945 . S
C243 C238 1.385 . S
C243 C242 1.369 . S
C244 C236 1.457 . S
C244 C245 1.372 . S
C244 C249 1.364 . S
C245 H224 0.952 . S
C245 C244 1.372 . S
C245 C246 1.389 . S
C246 H225 0.949 . S
C246 C245 1.389 . S
C246 C247 1.387 . S
C247 C246 1.387 . S
C247 C248 1.372 . S
C248 H226 0.950 . S
C248 C247 1.372 . S
C248 C249 1.379 . S
C249 H227 0.948 . S
C249 C244 1.364 . S
C249 C248 1.379 . S
C250 C219 1.383 . S
C250 C237 1.479 . S
C250 C251 1.398 . S
C251 C216 1.382 . S
C251 H228 0.951 . S
C251 C250 1.398 . S
C252 C253 1.384 . S
C252 H265 0.947 . S
C252 C287 1.382 . S
C253 C252 1.384 . S
C253 C254 1.378 . S
C254 C253 1.378 . S
C254 C255 1.378 . S
C254 H266 0.952 . S
C255 C254 1.378 . S
C255 H267 0.950 . S
C255 C286 1.383 . S
H256 C275 0.947 . S
H257 C276 0.946 . S
H258 C278 0.953 . S
H259 C279 0.945 . S
H260 C281 0.952 . S
H261 C282 0.949 . S
H262 C284 0.950 . S
H263 C285 0.948 . S
H264 C287 0.951 . S
H265 C252 0.947 . S
H266 C254 0.952 . S
H267 C255 0.950 . S
N268 C271 1.382 . S
N268 C273 1.363 . S
N269 C271 1.371 . S
N269 C272 1.372 . S
N270 C272 1.361 . S
N270 C273 1.377 . S
C271 N268 1.382 . S
C271 N269 1.371 . S
C271 C274 1.480 . S
C272 N269 1.372 . S
C272 N270 1.361 . S
C272 C280 1.457 . S
C273 N268 1.363 . S
C273 N270 1.377 . S
C273 C286 1.479 . S
C274 C271 1.480 . S
C274 C275 1.383 . S
C274 C279 1.385 . S
C275 H256 0.947 . S
C275 C274 1.383 . S
C275 C276 1.388 . S
C276 H257 0.946 . S
C276 C275 1.388 . S
C276 C277 1.384 . S
C277 C276 1.384 . S
C277 C278 1.377 . S
C278 H258 0.953 . S
C278 C277 1.377 . S
C278 C279 1.369 . S
C279 H259 0.945 . S
C279 C274 1.385 . S
C279 C278 1.369 . S
C280 C272 1.457 . S
C280 C281 1.372 . S
C280 C285 1.364 . S
C281 H260 0.952 . S
C281 C280 1.372 . S
C281 C282 1.389 . S
C282 H261 0.949 . S
C282 C281 1.389 . S
C282 C283 1.387 . S
C283 C282 1.387 . S
C283 C284 1.372 . S
C284 H262 0.950 . S
C284 C283 1.372 . S
C284 C285 1.379 . S
C285 H263 0.948 . S
C285 C280 1.364 . S
C285 C284 1.379 . S
C286 C255 1.383 . S
C286 C273 1.479 . S
C286 C287 1.398 . S
C287 C252 1.382 . S
C287 H264 0.951 . S
C287 C286 1.398 . S
C288 C289 1.443 . S
C288 N292 1.376 . S
C288 C326 1.389 . S
C289 C288 1.443 . S
C289 C290 1.340 . S
C289 H329 0.951 . S
C290 C289 1.340 . S
C290 C291 1.439 . S
C290 H330 0.950 . S
C291 C290 1.439 . S
C291 N292 1.374 . S
C291 C325 1.395 . S
N292 C288 1.376 . S
N292 C291 1.374 . S
N292 Co293 2.008 . S
Co293 N292 2.008 . S
Co293 N294 1.995 1_455 S
Co293 N299 2.008 . S
Co293 N304 1.995 . S
Co293 N309 2.282 . S
Co293 N315 2.282 1_455 S
N294 Co293 1.995 1_655 S
N294 C295 1.376 . S
N294 C298 1.383 . S
C295 N294 1.376 . S
C295 C296 1.446 . S
C295 C325 1.391 1_655 S
C296 C295 1.446 . S
C296 C297 1.339 . S
C296 H331 0.949 . S
C297 C296 1.339 . S
C297 C298 1.439 . S
C297 H332 0.950 . S
C298 N294 1.383 . S
C298 C297 1.439 . S
C298 C327 1.392 . S
N299 Co293 2.008 . S
N299 C300 1.376 1_455 S
N299 C303 1.374 . S
C300 N299 1.376 1_655 S
C300 C301 1.443 . S
C300 C327 1.389 . S
C301 C300 1.443 . S
C301 C302 1.340 . S
C301 H333 0.951 . S
C302 C301 1.340 . S
C302 C303 1.439 1_655 S
C302 H334 0.950 . S
C303 N299 1.374 . S
C303 C302 1.439 1_455 S
C303 C328 1.395 . S
N304 Co293 1.995 . S
N304 C305 1.376 . S
N304 C308 1.383 . S
C305 N304 1.376 . S
C305 C306 1.446 . S
C305 C328 1.391 . S
C306 C305 1.446 . S
C306 C307 1.339 . S
C306 H335 0.949 . S
C307 C306 1.339 . S
C307 C308 1.439 . S
C307 H336 0.950 . S
C308 N304 1.383 . S
C308 C307 1.439 . S
C308 C326 1.392 . S
N309 Co293 2.282 . S
N309 C312 1.332 . S
N309 C314 1.332 . S
C310 C311 1.386 . S
C310 C313 1.388 . S
C311 C310 1.386 . S
C311 C312 1.382 . S
C311 H337 0.950 . S
C312 N309 1.332 . S
C312 C311 1.382 . S
C312 H323 0.952 . S
C313 C310 1.388 . S
C313 C314 1.382 . S
C313 H338 0.950 . S
C314 N309 1.332 . S
C314 C313 1.382 . S
C314 H324 0.948 . S
N315 Co293 2.282 1_655 S
N315 C319 1.332 . S
N315 C320 1.332 . S
C316 C317 1.388 . S
C316 C320 1.382 . S
C316 H339 0.950 . S
C317 C316 1.388 . S
C317 C318 1.386 . S
C318 C317 1.386 . S
C318 C319 1.382 . S
C318 H340 0.950 . S
C319 N315 1.332 . S
C319 C318 1.382 . S
C319 H321 0.952 . S
C320 N315 1.332 . S
C320 C316 1.382 . S
C320 H322 0.948 . S
H321 C319 0.952 . S
H322 C320 0.948 . S
H323 C312 0.952 . S
H324 C314 0.948 . S
C325 C291 1.395 . S
C325 C295 1.391 1_455 S
C326 C288 1.389 . S
C326 C308 1.392 . S
C327 C298 1.392 . S
C327 C300 1.389 . S
C328 C303 1.395 . S
C328 C305 1.391 . S
H329 C289 0.951 . S
H330 C290 0.950 . S
H331 C296 0.949 . S
H332 C297 0.950 . S
H333 C301 0.951 . S
H334 C302 0.950 . S
H335 C306 0.949 . S
H336 C307 0.950 . S
H337 C311 0.950 . S
H338 C313 0.950 . S
H339 C316 0.950 . S
H340 C318 0.950 . S
C341 C342 1.443 . S
C341 N345 1.376 . S
C341 C379 1.389 . S
C342 C341 1.443 . S
C342 C343 1.340 . S
C342 H382 0.951 . S
C343 C342 1.340 . S
C343 C344 1.439 . S
C343 H383 0.950 . S
C344 C343 1.439 . S
C344 N345 1.374 . S
C344 C378 1.395 . S
N345 C341 1.376 . S
N345 C344 1.374 . S
N345 Co346 2.008 . S
Co346 N345 2.008 . S
Co346 N347 1.995 1_455 S
Co346 N352 2.008 1_455 S
Co346 N357 1.995 . S
Co346 N362 2.282 . S
Co346 N368 2.282 1_455 S
N347 Co346 1.995 1_655 S
N347 C348 1.376 . S
N347 C351 1.383 . S
C348 N347 1.376 . S
C348 C349 1.446 . S
C348 C378 1.391 1_655 S
C349 C348 1.446 . S
C349 C350 1.339 . S
C349 H384 0.949 . S
C350 C349 1.339 . S
C350 C351 1.439 . S
C350 H385 0.950 . S
C351 N347 1.383 . S
C351 C350 1.439 . S
C351 C380 1.392 . S
N352 Co346 2.008 1_655 S
N352 C353 1.376 . S
N352 C356 1.368 1_655 S
C353 N352 1.376 . S
C353 C354 1.443 . S
C353 C380 1.389 . S
C354 C353 1.443 . S
C354 C355 1.340 . S
C354 H386 0.951 . S
C355 C354 1.340 . S
C355 C356 1.422 1_655 S
C355 H387 0.950 . S
C356 N352 1.368 1_455 S
C356 C355 1.422 1_455 S
C356 C381 1.419 . S
N357 Co346 1.995 . S
N357 C358 1.376 . S
N357 C361 1.383 . S
C358 N357 1.376 . S
C358 C359 1.446 . S
C358 C381 1.391 . S
C359 C358 1.446 . S
C359 C360 1.339 . S
C359 H388 0.949 . S
C360 C359 1.339 . S
C360 C361 1.439 . S
C360 H389 0.950 . S
C361 N357 1.383 . S
C361 C360 1.439 . S
C361 C379 1.392 . S
N362 Co346 2.282 . S
N362 C365 1.332 . S
N362 C367 1.332 . S
C363 C364 1.386 . S
C363 C366 1.388 . S
C364 C363 1.386 . S
C364 C365 1.382 . S
C364 H390 0.950 . S
C365 N362 1.332 . S
C365 C364 1.382 . S
C365 H376 0.952 . S
C366 C363 1.388 . S
C366 C367 1.382 . S
C366 H391 0.950 . S
C367 N362 1.332 . S
C367 C366 1.382 . S
C367 H377 0.948 . S
N368 Co346 2.282 1_655 S
N368 C372 1.332 . S
N368 C373 1.332 . S
C369 C370 1.388 . S
C369 C373 1.382 . S
C369 H392 0.950 . S
C370 C369 1.388 . S
C370 C371 1.386 . S
C371 C370 1.386 . S
C371 C372 1.382 . S
C371 H393 0.950 . S
C372 N368 1.332 . S
C372 C371 1.382 . S
C372 H374 0.952 . S
C373 N368 1.332 . S
C373 C369 1.382 . S
C373 H375 0.948 . S
H374 C372 0.952 . S
H375 C373 0.948 . S
H376 C365 0.952 . S
H377 C367 0.948 . S
C378 C344 1.395 . S
C378 C348 1.391 1_455 S
C379 C341 1.389 . S
C379 C361 1.392 . S
C380 C351 1.392 . S
C380 C353 1.389 . S
C381 C356 1.419 . S
C381 C358 1.391 . S
H382 C342 0.951 . S
H383 C343 0.950 . S
H384 C349 0.949 . S
H385 C350 0.950 . S
H386 C354 0.951 . S
H387 C355 0.950 . S
H388 C359 0.949 . S
H389 C360 0.950 . S
H390 C364 0.950 . S
H391 C366 0.950 . S
H392 C369 0.950 . S
H393 C371 0.950 . S
C394 C395 1.443 . S
C394 N398 1.376 . S
C394 C432 1.389 . S
C395 C394 1.443 . S
C395 C396 1.340 . S
C395 H435 0.951 . S
C396 C395 1.340 . S
C396 C397 1.439 . S
C396 H436 0.950 . S
C397 C396 1.439 . S
C397 N398 1.374 . S
C397 C431 1.395 1_565 S
N398 C394 1.376 . S
N398 C397 1.374 . S
N398 Co399 2.008 1_565 S
Co399 N398 2.008 1_545 S
Co399 N400 1.995 . S
Co399 N405 2.008 . S
Co399 N410 1.995 1_545 S
Co399 N415 2.282 . S
Co399 N421 2.282 1_545 S
N400 Co399 1.995 . S
N400 C401 1.376 . S
N400 C404 1.383 . S
C401 N400 1.376 . S
C401 C402 1.446 . S
C401 C431 1.391 . S
C402 C401 1.446 . S
C402 C403 1.339 . S
C402 H437 0.949 . S
C403 C402 1.339 . S
C403 C404 1.439 . S
C403 H438 0.950 . S
C404 N400 1.383 . S
C404 C403 1.439 . S
C404 C433 1.392 . S
N405 Co399 2.008 . S
N405 C406 1.376 . S
N405 C409 1.374 . S
C406 N405 1.376 . S
C406 C407 1.443 . S
C406 C433 1.389 . S
C407 C406 1.443 . S
C407 C408 1.340 . S
C407 H439 0.951 . S
C408 C407 1.340 . S
C408 C409 1.439 . S
C408 H440 0.950 . S
C409 N405 1.374 . S
C409 C408 1.439 . S
C409 C434 1.395 . S
N410 Co399 1.995 1_565 S
N410 C411 1.376 . S
N410 C414 1.383 . S
C411 N410 1.376 . S
C411 C412 1.446 . S
C411 C434 1.391 1_565 S
C412 C411 1.446 . S
C412 C413 1.339 . S
C412 H441 0.949 . S
C413 C412 1.339 . S
C413 C414 1.439 . S
C413 H442 0.950 . S
C414 N410 1.383 . S
C414 C413 1.439 . S
C414 C432 1.392 . S
N415 Co399 2.282 . S
N415 C418 1.332 . S
N415 C420 1.332 . S
C416 C417 1.386 . S
C416 C419 1.388 . S
C417 C416 1.386 . S
C417 C418 1.382 . S
C417 H443 0.950 . S
C418 N415 1.332 . S
C418 C417 1.382 . S
C418 H429 0.952 . S
C419 C416 1.388 . S
C419 C420 1.382 . S
C419 H444 0.950 . S
C420 N415 1.332 . S
C420 C419 1.382 . S
C420 H430 0.948 . S
N421 Co399 2.282 1_565 S
N421 C425 1.332 . S
N421 C426 1.332 . S
C422 C423 1.388 . S
C422 C426 1.382 . S
C422 H445 0.950 . S
C423 C422 1.388 . S
C423 C424 1.386 . S
C424 C423 1.386 . S
C424 C425 1.382 . S
C424 H446 0.950 . S
C425 N421 1.332 . S
C425 C424 1.382 . S
C425 H427 0.952 . S
C426 N421 1.332 . S
C426 C422 1.382 . S
C426 H428 0.948 . S
H427 C425 0.952 . S
H428 C426 0.948 . S
H429 C418 0.952 . S
H430 C420 0.948 . S
C431 C397 1.395 1_545 S
C431 C401 1.391 . S
C432 C394 1.389 . S
C432 C414 1.392 . S
C433 C404 1.392 . S
C433 C406 1.389 . S
C434 C409 1.395 . S
C434 C411 1.391 1_545 S
H435 C395 0.951 . S
H436 C396 0.950 . S
H437 C402 0.949 . S
H438 C403 0.950 . S
H439 C407 0.951 . S
H440 C408 0.950 . S
H441 C412 0.949 . S
H442 C413 0.950 . S
H443 C417 0.950 . S
H444 C419 0.950 . S
H445 C422 0.950 . S
H446 C424 0.950 . S
C447 C448 1.443 . S
C447 N451 1.376 . S
C447 C485 1.389 . S
C448 C447 1.443 . S
C448 C449 1.340 . S
C448 H488 0.951 . S
C449 C448 1.340 . S
C449 C450 1.439 . S
C449 H489 0.950 . S
C450 C449 1.439 . S
C450 N451 1.374 . S
C450 C484 1.395 . S
N451 C447 1.376 . S
N451 C450 1.374 . S
N451 Co452 2.008 . S
Co452 N451 2.008 . S
Co452 N453 2.010 . S
Co452 N458 1.989 1_554 S
Co452 N463 1.995 . S
Co452 N468 2.282 1_554 S
Co452 N474 2.282 . S
N453 Co452 2.010 . S
N453 C454 1.382 . S
N453 C457 1.357 1_554 S
C454 N453 1.382 . S
C454 C455 1.446 1_554 S
C454 C484 1.391 . S
C455 C454 1.446 1_556 S
C455 C456 1.339 . S
C455 H490 0.949 . S
C456 C455 1.339 . S
C456 C457 1.439 . S
C456 H491 0.950 . S
C457 N453 1.357 1_556 S
C457 C456 1.439 . S
C457 C486 1.392 . S
N458 Co452 1.989 1_556 S
N458 C459 1.403 . S
N458 C462 1.375 1_556 S
C459 N458 1.403 . S
C459 C460 1.443 . S
C459 C486 1.389 . S
C460 C459 1.443 . S
C460 C461 1.340 . S
C460 H492 0.951 . S
C461 C460 1.340 . S
C461 C462 1.420 1_556 S
C461 H493 0.950 . S
C462 N458 1.375 1_554 S
C462 C461 1.420 1_554 S
C462 C487 1.411 . S
N463 Co452 1.995 . S
N463 C464 1.376 . S
N463 C467 1.383 . S
C464 N463 1.376 . S
C464 C465 1.446 . S
C464 C487 1.391 . S
C465 C464 1.446 . S
C465 C466 1.339 . S
C465 H494 0.949 . S
C466 C465 1.339 . S
C466 C467 1.439 . S
C466 H495 0.950 . S
C467 N463 1.383 . S
C467 C466 1.439 . S
C467 C485 1.392 . S
N468 Co452 2.282 1_556 S
N468 C471 1.332 . S
N468 C473 1.332 . S
C469 C470 1.386 . S
C469 C472 1.388 . S
C470 C469 1.386 . S
C470 C471 1.382 . S
C470 H496 0.950 . S
C471 N468 1.332 . S
C471 C470 1.382 . S
C471 H482 0.952 . S
C472 C469 1.388 . S
C472 C473 1.382 . S
C472 H497 0.950 . S
C473 N468 1.332 . S
C473 C472 1.382 . S
C473 H483 0.948 . S
N474 Co452 2.282 . S
N474 C478 1.332 . S
N474 C479 1.332 . S
C475 C476 1.388 . S
C475 C479 1.382 . S
C475 H498 0.950 . S
C476 C475 1.388 . S
C476 C477 1.386 . S
C477 C476 1.386 . S
C477 C478 1.382 . S
C477 H499 0.950 . S
C478 N474 1.332 . S
C478 C477 1.382 . S
C478 H480 0.952 . S
C479 N474 1.332 . S
C479 C475 1.382 . S
C479 H481 0.948 . S
H480 C478 0.952 . S
H481 C479 0.948 . S
H482 C471 0.952 . S
H483 C473 0.948 . S
C484 C450 1.395 . S
C484 C454 1.391 . S
C485 C447 1.389 . S
C485 C467 1.392 . S
C486 C457 1.392 . S
C486 C459 1.389 . S
C487 C462 1.411 . S
C487 C464 1.391 . S
H488 C448 0.951 . S
H489 C449 0.950 . S
H490 C455 0.949 . S
H491 C456 0.950 . S
H492 C460 0.951 . S
H493 C461 0.950 . S
H494 C465 0.949 . S
H495 C466 0.950 . S
H496 C470 0.950 . S
H497 C472 0.950 . S
H498 C475 0.950 . S
H499 C477 0.950 . S
C500 C501 1.443 . S
C500 N504 1.353 1_565 S
C500 C538 1.389 . S
C501 C500 1.443 . S
C501 C502 1.340 . S
C501 H541 0.951 . S
C502 C501 1.340 . S
C502 C503 1.439 1_565 S
C502 H542 0.950 . S
C503 C502 1.439 1_545 S
C503 N504 1.374 . S
C503 C537 1.395 . S
N504 C500 1.353 1_545 S
N504 C503 1.374 . S
N504 Co505 2.025 . S
Co505 N504 2.025 . S
Co505 N506 1.995 . S
Co505 N511 2.008 . S
Co505 N516 1.995 . S
Co505 N521 2.282 . S
Co505 N527 2.282 1_545 S
N506 Co505 1.995 . S
N506 C507 1.376 . S
N506 C510 1.383 . S
C507 N506 1.376 . S
C507 C508 1.446 . S
C507 C537 1.391 . S
C508 C507 1.446 . S
C508 C509 1.339 . S
C508 H543 0.949 . S
C509 C508 1.339 . S
C509 C510 1.439 . S
C509 H544 0.950 . S
C510 N506 1.383 . S
C510 C509 1.439 . S
C510 C539 1.392 . S
N511 Co505 2.008 . S
N511 C512 1.376 . S
N511 C515 1.374 . S
C512 N511 1.376 . S
C512 C513 1.443 . S
C512 C539 1.389 . S
C513 C512 1.443 . S
C513 C514 1.340 . S
C513 H545 0.951 . S
C514 C513 1.340 . S
C514 C515 1.439 . S
C514 H546 0.950 . S
C515 N511 1.374 . S
C515 C514 1.439 . S
C515 C540 1.395 . S
N516 Co505 1.995 . S
N516 C517 1.376 . S
N516 C520 1.383 1_545 S
C517 N516 1.376 . S
C517 C518 1.446 1_545 S
C517 C540 1.391 . S
C518 C517 1.446 1_565 S
C518 C519 1.339 . S
C518 H547 0.949 . S
C519 C518 1.339 . S
C519 C520 1.439 . S
C519 H548 0.950 . S
C520 N516 1.383 1_565 S
C520 C519 1.439 . S
C520 C538 1.392 . S
N521 Co505 2.282 . S
N521 C524 1.332 . S
N521 C526 1.332 . S
C522 C523 1.386 . S
C522 C525 1.388 . S
C523 C522 1.386 . S
C523 C524 1.382 . S
C523 H549 0.950 . S
C524 N521 1.332 . S
C524 C523 1.382 . S
C524 H535 0.952 . S
C525 C522 1.388 . S
C525 C526 1.382 . S
C525 H550 0.950 . S
C526 N521 1.332 . S
C526 C525 1.382 . S
C526 H536 0.948 . S
N527 Co505 2.282 1_565 S
N527 C531 1.332 . S
N527 C532 1.332 . S
C528 C529 1.388 . S
C528 C532 1.382 . S
C528 H551 0.950 . S
C529 C528 1.388 . S
C529 C530 1.386 . S
C530 C529 1.386 . S
C530 C531 1.382 . S
C530 H552 0.950 . S
C531 N527 1.332 . S
C531 C530 1.382 . S
C531 H533 0.952 . S
C532 N527 1.332 . S
C532 C528 1.382 . S
C532 H534 0.948 . S
H533 C531 0.952 . S
H534 C532 0.948 . S
H535 C524 0.952 . S
H536 C526 0.948 . S
C537 C503 1.395 . S
C537 C507 1.391 . S
C538 C500 1.389 . S
C538 C520 1.392 . S
C539 C510 1.392 . S
C539 C512 1.389 . S
C540 C515 1.395 . S
C540 C517 1.391 . S
H541 C501 0.951 . S
H542 C502 0.950 . S
H543 C508 0.949 . S
H544 C509 0.950 . S
H545 C513 0.951 . S
H546 C514 0.950 . S
H547 C518 0.949 . S
H548 C519 0.950 . S
H549 C523 0.950 . S
H550 C525 0.950 . S
H551 C528 0.950 . S
H552 C530 0.950 . S
C553 C554 1.443 . S
C553 N557 1.376 . S
C553 C591 1.389 . S
C554 C553 1.443 . S
C554 C555 1.340 . S
C554 H594 0.951 . S
C555 C554 1.340 . S
C555 C556 1.439 . S
C555 H595 0.950 . S
C556 C555 1.439 . S
C556 N557 1.374 . S
C556 C590 1.395 . S
N557 C553 1.376 . S
N557 C556 1.374 . S
N557 Co558 2.008 . S
Co558 N557 2.008 . S
Co558 N559 1.995 . S
Co558 N564 2.008 . S
Co558 N569 1.995 . S
Co558 N574 2.280 . S
Co558 N580 2.282 . S
N559 Co558 1.995 . S
N559 C560 1.376 . S
N559 C563 1.383 1_554 S
C560 N559 1.376 . S
C560 C561 1.446 1_554 S
C560 C590 1.391 . S
C561 C560 1.446 1_556 S
C561 C562 1.339 . S
C561 H596 0.949 . S
C562 C561 1.339 . S
C562 C563 1.439 . S
C562 H597 0.950 . S
C563 N559 1.383 1_556 S
C563 C562 1.439 . S
C563 C592 1.392 . S
N564 Co558 2.008 . S
N564 C565 1.376 1_554 S
N564 C568 1.374 . S
C565 N564 1.376 1_556 S
C565 C566 1.443 . S
C565 C592 1.389 . S
C566 C565 1.443 . S
C566 C567 1.340 . S
C566 H598 0.951 . S
C567 C566 1.340 . S
C567 C568 1.439 1_556 S
C567 H599 0.950 . S
C568 N564 1.374 . S
C568 C567 1.439 1_554 S
C568 C593 1.395 . S
N569 Co558 1.995 . S
N569 C570 1.376 . S
N569 C573 1.383 . S
C570 N569 1.376 . S
C570 C571 1.446 . S
C570 C593 1.391 . S
C571 C570 1.446 . S
C571 C572 1.339 . S
C571 H600 0.949 . S
C572 C571 1.339 . S
C572 C573 1.439 . S
C572 H601 0.950 . S
C573 N569 1.383 . S
C573 C572 1.439 . S
C573 C591 1.392 . S
N574 Co558 2.280 . S
N574 C577 1.333 1_554 S
N574 C579 1.334 1_554 S
C575 C576 1.386 . S
C575 C578 1.388 . S
C576 C575 1.386 . S
C576 C577 1.382 . S
C576 H602 0.950 . S
C577 N574 1.333 1_556 S
C577 C576 1.382 . S
C577 H588 0.952 1_556 S
C578 C575 1.388 . S
C578 C579 1.382 . S
C578 H603 0.950 . S
C579 N574 1.334 1_556 S
C579 C578 1.382 . S
C579 H589 0.948 . S
N580 Co558 2.282 . S
N580 C584 1.332 . S
N580 C585 1.332 . S
C581 C582 1.388 . S
C581 C585 1.382 . S
C581 H604 0.950 . S
C582 C581 1.388 . S
C582 C583 1.386 . S
C583 C582 1.386 . S
C583 C584 1.382 . S
C583 H605 0.950 . S
C584 N580 1.332 . S
C584 C583 1.382 . S
C584 H586 0.952 . S
C585 N580 1.332 . S
C585 C581 1.382 . S
C585 H587 0.948 . S
H586 C584 0.952 . S
H587 C585 0.948 . S
H588 C577 0.952 1_554 S
H589 C579 0.948 . S
C590 C556 1.395 . S
C590 C560 1.391 . S
C591 C553 1.389 . S
C591 C573 1.392 . S
C592 C563 1.392 . S
C592 C565 1.389 . S
C593 C568 1.395 . S
C593 C570 1.391 . S
H594 C554 0.951 . S
H595 C555 0.950 . S
H596 C561 0.949 . S
H597 C562 0.950 . S
H598 C566 0.951 . S
H599 C567 0.950 . S
H600 C571 0.949 . S
H601 C572 0.950 . S
H602 C576 0.950 . S
H603 C578 0.950 . S
H604 C581 0.950 . S
H605 C583 0.950 . S
H606 C614 0.950 . S
H607 C619 0.950 . S
H608 C616 0.950 . S
H609 C618 0.950 . S
H610 C620 0.950 . S
H611 C622 0.950 . S
H612 C624 0.950 . S
H613 C625 0.950 . S
C614 H606 0.950 . S
C614 C615 1.386 . S
C614 C616 1.391 . S
C615 C614 1.386 . S
C615 C619 1.393 . S
C616 H608 0.950 . S
C616 C614 1.391 . S
C616 C617 1.400 . S
C617 C616 1.400 . S
C617 C618 1.398 . S
C617 C623 1.491 . S
C618 H609 0.950 . S
C618 C617 1.398 . S
C618 C619 1.391 . S
C619 H607 0.950 . S
C619 C615 1.393 . S
C619 C618 1.391 . S
C620 H610 0.950 . S
C620 C621 1.386 . S
C620 C622 1.391 . S
C621 C620 1.386 . S
C621 C625 1.393 . S
C622 H611 0.950 . S
C622 C620 1.391 . S
C622 C623 1.400 . S
C623 C617 1.491 . S
C623 C622 1.400 . S
C623 C624 1.398 . S
C624 H612 0.950 . S
C624 C623 1.398 . S
C624 C625 1.391 . S
C625 H613 0.950 . S
C625 C621 1.393 . S
C625 C624 1.391 . S
H626 C634 0.950 . S
H627 C639 0.950 . S
H628 C636 0.950 . S
H629 C638 0.950 . S
H630 C640 0.950 . S
H631 C642 0.950 . S
H632 C644 0.950 . S
H633 C645 0.950 . S
C634 H626 0.950 . S
C634 C635 1.386 . S
C634 C636 1.391 . S
C635 C634 1.386 . S
C635 C639 1.393 . S
C636 H628 0.950 . S
C636 C634 1.391 . S
C636 C637 1.400 . S
C637 C636 1.400 . S
C637 C638 1.398 . S
C637 C643 1.491 . S
C638 H629 0.950 . S
C638 C637 1.398 . S
C638 C639 1.391 . S
C639 H627 0.950 . S
C639 C635 1.393 . S
C639 C638 1.391 . S
C640 H630 0.950 . S
C640 C641 1.386 . S
C640 C642 1.391 . S
C641 C640 1.386 . S
C641 C645 1.393 . S
C642 H631 0.950 . S
C642 C640 1.391 . S
C642 C643 1.400 . S
C643 C637 1.491 . S
C643 C642 1.400 . S
C643 C644 1.398 . S
C644 H632 0.950 . S
C644 C643 1.398 . S
C644 C645 1.391 . S
C645 H633 0.950 . S
C645 C641 1.393 . S
C645 C644 1.391 . S
H646 C654 0.950 . S
H647 C659 0.950 . S
H648 C656 0.950 . S
H649 C658 0.950 . S
H650 C660 0.950 . S
H651 C662 0.950 . S
H652 C664 0.950 . S
H653 C665 0.950 . S
C654 H646 0.950 . S
C654 C655 1.386 . S
C654 C656 1.391 . S
C655 C654 1.386 . S
C655 C659 1.393 . S
C656 H648 0.950 . S
C656 C654 1.391 . S
C656 C657 1.400 . S
C657 C656 1.400 . S
C657 C658 1.398 . S
C657 C663 1.491 . S
C658 H649 0.950 . S
C658 C657 1.398 . S
C658 C659 1.391 . S
C659 H647 0.950 . S
C659 C655 1.393 . S
C659 C658 1.391 . S
C660 H650 0.950 . S
C660 C661 1.386 . S
C660 C662 1.391 . S
C661 C660 1.386 . S
C661 C665 1.393 . S
C662 H651 0.950 . S
C662 C660 1.391 . S
C662 C663 1.400 . S
C663 C657 1.491 . S
C663 C662 1.400 . S
C663 C664 1.398 . S
C664 H652 0.950 . S
C664 C663 1.398 . S
C664 C665 1.391 . S
C665 H653 0.950 . S
C665 C661 1.393 . S
C665 C664 1.391 . S
H666 C674 0.950 . S
H667 C679 0.950 . S
H668 C676 0.950 . S
H669 C678 0.950 . S
H670 C680 0.950 . S
H671 C682 0.950 . S
H672 C684 0.950 . S
H673 C685 0.950 . S
C674 H666 0.950 . S
C674 C675 1.386 . S
C674 C676 1.391 . S
C675 C674 1.386 . S
C675 C679 1.393 . S
C676 H668 0.950 . S
C676 C674 1.391 . S
C676 C677 1.400 . S
C677 C676 1.400 . S
C677 C678 1.398 . S
C677 C683 1.491 . S
C678 H669 0.950 . S
C678 C677 1.398 . S
C678 C679 1.391 . S
C679 H667 0.950 . S
C679 C675 1.393 . S
C679 C678 1.391 . S
C680 H670 0.950 . S
C680 C681 1.386 . S
C680 C682 1.391 . S
C681 C680 1.386 . S
C681 C685 1.393 . S
C682 H671 0.950 . S
C682 C680 1.391 . S
C682 C683 1.400 . S
C683 C677 1.491 . S
C683 C682 1.400 . S
C683 C684 1.398 . S
C684 H672 0.950 . S
C684 C683 1.398 . S
C684 C685 1.391 . S
C685 H673 0.950 . S
C685 C681 1.393 . S
C685 C684 1.391 . S
H686 C694 0.950 . S
H687 C699 0.950 . S
H688 C696 0.950 . S
H689 C698 0.950 . S
H690 C700 0.950 . S
H691 C702 0.950 . S
H692 C704 0.950 . S
H693 C705 0.950 . S
C694 H686 0.950 . S
C694 C695 1.386 . S
C694 C696 1.391 . S
C695 C694 1.386 . S
C695 C699 1.393 . S
C696 H688 0.950 . S
C696 C694 1.391 . S
C696 C697 1.400 . S
C697 C696 1.400 . S
C697 C698 1.398 . S
C697 C703 1.491 . S
C698 H689 0.950 . S
C698 C697 1.398 . S
C698 C699 1.391 . S
C699 H687 0.950 . S
C699 C695 1.393 . S
C699 C698 1.391 . S
C700 H690 0.950 . S
C700 C701 1.386 . S
C700 C702 1.391 . S
C701 C700 1.386 . S
C701 C705 1.393 . S
C702 H691 0.950 . S
C702 C700 1.391 . S
C702 C703 1.400 . S
C703 C697 1.491 . S
C703 C702 1.400 . S
C703 C704 1.398 . S
C704 H692 0.950 . S
C704 C703 1.398 . S
C704 C705 1.391 . S
C705 H693 0.950 . S
C705 C701 1.393 . S
C705 C704 1.391 . S
H706 C714 0.950 . S
H707 C719 0.950 . S
H708 C716 0.950 . S
H709 C718 0.950 . S
H710 C720 0.950 . S
H711 C722 0.950 . S
H712 C724 0.950 . S
H713 C725 0.950 . S
C714 H706 0.950 . S
C714 C715 1.386 . S
C714 C716 1.391 . S
C715 C714 1.386 . S
C715 C719 1.393 . S
C716 H708 0.950 . S
C716 C714 1.391 . S
C716 C717 1.400 . S
C717 C716 1.400 . S
C717 C718 1.398 . S
C717 C723 1.491 . S
C718 H709 0.950 . S
C718 C717 1.398 . S
C718 C719 1.391 . S
C719 H707 0.950 . S
C719 C715 1.393 . S
C719 C718 1.391 . S
C720 H710 0.950 . S
C720 C721 1.386 . S
C720 C722 1.391 . S
C721 C720 1.386 . S
C721 C725 1.393 . S
C722 H711 0.950 . S
C722 C720 1.391 . S
C722 C723 1.400 . S
C723 C717 1.491 . S
C723 C722 1.400 . S
C723 C724 1.398 . S
C724 H712 0.950 . S
C724 C723 1.398 . S
C724 C725 1.391 . S
C725 H713 0.950 . S
C725 C721 1.393 . S
C725 C724 1.391 . S
H726 C734 0.950 . S
H727 C739 0.950 . S
H728 C736 0.950 . S
H729 C738 0.950 . S
H730 C740 0.950 . S
H731 C742 0.950 . S
H732 C744 0.950 . S
H733 C745 0.950 . S
C734 H726 0.950 . S
C734 C735 1.386 . S
C734 C736 1.391 . S
C735 C734 1.386 . S
C735 C739 1.393 . S
C736 H728 0.950 . S
C736 C734 1.391 . S
C736 C737 1.400 . S
C737 C736 1.400 . S
C737 C738 1.398 . S
C737 C743 1.491 . S
C738 H729 0.950 . S
C738 C737 1.398 . S
C738 C739 1.391 . S
C739 H727 0.950 . S
C739 C735 1.393 . S
C739 C738 1.391 . S
C740 H730 0.950 . S
C740 C741 1.386 . S
C740 C742 1.391 . S
C741 C740 1.386 . S
C741 C745 1.393 . S
C742 H731 0.950 . S
C742 C740 1.391 . S
C742 C743 1.400 . S
C743 C737 1.491 . S
C743 C742 1.400 . S
C743 C744 1.398 . S
C744 H732 0.950 . S
C744 C743 1.398 . S
C744 C745 1.391 . S
C745 H733 0.950 . S
C745 C741 1.393 . S
C745 C744 1.391 . S
H746 C754 0.950 . S
H747 C759 0.950 . S
H748 C756 0.950 . S
H749 C758 0.950 . S
H750 C760 0.950 . S
H751 C762 0.950 . S
H752 C764 0.950 . S
H753 C765 0.950 . S
C754 H746 0.950 . S
C754 C755 1.386 . S
C754 C756 1.391 . S
C755 C754 1.386 . S
C755 C759 1.393 . S
C756 H748 0.950 . S
C756 C754 1.391 . S
C756 C757 1.400 . S
C757 C756 1.400 . S
C757 C758 1.398 . S
C757 C763 1.491 . S
C758 H749 0.950 . S
C758 C757 1.398 . S
C758 C759 1.391 . S
C759 H747 0.950 . S
C759 C755 1.393 . S
C759 C758 1.391 . S
C760 H750 0.950 . S
C760 C761 1.386 . S
C760 C762 1.391 . S
C761 C760 1.386 . S
C761 C765 1.393 . S
C762 H751 0.950 . S
C762 C760 1.391 . S
C762 C763 1.400 . S
C763 C757 1.491 . S
C763 C762 1.400 . S
C763 C764 1.398 . S
C764 H752 0.950 . S
C764 C763 1.398 . S
C764 C765 1.391 . S
C765 H753 0.950 . S
C765 C761 1.393 . S
C765 C764 1.391 . S
H766 C774 0.950 . S
H767 C779 0.950 . S
H768 C776 0.950 . S
H769 C778 0.950 . S
H770 C780 0.950 . S
H771 C782 0.950 . S
H772 C784 0.950 . S
H773 C785 0.950 . S
C774 H766 0.950 . S
C774 C775 1.386 . S
C774 C776 1.391 . S
C775 C774 1.386 . S
C775 C779 1.393 . S
C776 H768 0.950 . S
C776 C774 1.391 . S
C776 C777 1.400 . S
C777 C776 1.400 . S
C777 C778 1.398 . S
C777 C783 1.491 . S
C778 H769 0.950 . S
C778 C777 1.398 . S
C778 C779 1.391 . S
C779 H767 0.950 . S
C779 C775 1.393 . S
C779 C778 1.391 . S
C780 H770 0.950 . S
C780 C781 1.386 . S
C780 C782 1.391 . S
C781 C780 1.386 . S
C781 C785 1.393 . S
C782 H771 0.950 . S
C782 C780 1.391 . S
C782 C783 1.400 . S
C783 C777 1.491 . S
C783 C782 1.400 . S
C783 C784 1.398 . S
C784 H772 0.950 . S
C784 C783 1.398 . S
C784 C785 1.391 . S
C785 H773 0.950 . S
C785 C781 1.393 . S
C785 C784 1.391 . S
H786 C794 0.950 . S
H787 C799 0.950 . S
H788 C796 0.950 . S
H789 C798 0.950 . S
H790 C800 0.950 . S
H791 C802 0.950 . S
H792 C804 0.950 . S
H793 C805 0.950 . S
C794 H786 0.950 . S
C794 C795 1.386 . S
C794 C796 1.391 . S
C795 C794 1.386 . S
C795 C799 1.393 . S
C796 H788 0.950 . S
C796 C794 1.391 . S
C796 C797 1.400 . S
C797 C796 1.400 . S
C797 C798 1.398 . S
C797 C803 1.491 . S
C798 H789 0.950 . S
C798 C797 1.398 . S
C798 C799 1.391 . S
C799 H787 0.950 . S
C799 C795 1.393 . S
C799 C798 1.391 . S
C800 H790 0.950 . S
C800 C801 1.386 . S
C800 C802 1.391 . S
C801 C800 1.386 . S
C801 C805 1.393 . S
C802 H791 0.950 . S
C802 C800 1.391 . S
C802 C803 1.400 . S
C803 C797 1.491 . S
C803 C802 1.400 . S
C803 C804 1.398 . S
C804 H792 0.950 . S
C804 C803 1.398 . S
C804 C805 1.391 . S
C805 H793 0.950 . S
C805 C801 1.393 . S
C805 C804 1.391 . S
H806 C814 0.950 . S
H807 C819 0.950 . S
H808 C816 0.950 . S
H809 C818 0.950 . S
H810 C820 0.950 . S
H811 C822 0.950 . S
H812 C824 0.950 . S
H813 C825 0.950 . S
C814 H806 0.950 . S
C814 C815 1.386 . S
C814 C816 1.391 . S
C815 C814 1.386 . S
C815 C819 1.393 . S
C816 H808 0.950 . S
C816 C814 1.391 . S
C816 C817 1.400 . S
C817 C816 1.400 . S
C817 C818 1.398 . S
C817 C823 1.491 . S
C818 H809 0.950 . S
C818 C817 1.398 . S
C818 C819 1.391 . S
C819 H807 0.950 . S
C819 C815 1.393 . S
C819 C818 1.391 . S
C820 H810 0.950 . S
C820 C821 1.386 . S
C820 C822 1.391 . S
C821 C820 1.386 . S
C821 C825 1.393 . S
C822 H811 0.950 . S
C822 C820 1.391 . S
C822 C823 1.400 . S
C823 C817 1.491 . S
C823 C822 1.400 . S
C823 C824 1.398 . S
C824 H812 0.950 . S
C824 C823 1.398 . S
C824 C825 1.391 . S
C825 H813 0.950 . S
C825 C821 1.393 . S
C825 C824 1.391 . S
H826 C834 0.950 . S
H827 C839 0.950 . S
H828 C836 0.950 . S
H829 C838 0.950 . S
H830 C840 0.950 . S
H831 C842 0.950 . S
H832 C844 0.950 . S
H833 C845 0.950 . S
C834 H826 0.950 . S
C834 C835 1.386 . S
C834 C836 1.391 . S
C835 C834 1.386 . S
C835 C839 1.393 . S
C836 H828 0.950 . S
C836 C834 1.391 . S
C836 C837 1.400 . S
C837 C836 1.400 . S
C837 C838 1.398 . S
C837 C843 1.491 . S
C838 H829 0.950 . S
C838 C837 1.398 . S
C838 C839 1.391 . S
C839 H827 0.950 . S
C839 C835 1.393 . S
C839 C838 1.391 . S
C840 H830 0.950 . S
C840 C841 1.386 . S
C840 C842 1.391 . S
C841 C840 1.386 . S
C841 C845 1.393 . S
C842 H831 0.950 . S
C842 C840 1.391 . S
C842 C843 1.400 . S
C843 C837 1.491 . S
C843 C842 1.400 . S
C843 C844 1.398 . S
C844 H832 0.950 . S
C844 C843 1.398 . S
C844 C845 1.391 . S
C845 H833 0.950 . S
C845 C841 1.393 . S
C845 C844 1.391 . S
H846 C854 0.950 . S
H847 C859 0.950 . S
H848 C856 0.950 . S
H849 C858 0.950 . S
H850 C860 0.950 . S
H851 C862 0.950 . S
H852 C864 0.950 . S
H853 C865 0.950 . S
C854 H846 0.950 . S
C854 C855 1.386 . S
C854 C856 1.391 . S
C855 C854 1.386 . S
C855 C859 1.393 . S
C856 H848 0.950 . S
C856 C854 1.391 . S
C856 C857 1.400 . S
C857 C856 1.400 . S
C857 C858 1.398 . S
C857 C863 1.491 . S
C858 H849 0.950 . S
C858 C857 1.398 . S
C858 C859 1.391 . S
C859 H847 0.950 . S
C859 C855 1.393 . S
C859 C858 1.391 . S
C860 H850 0.950 . S
C860 C861 1.386 . S
C860 C862 1.391 . S
C861 C860 1.386 . S
C861 C865 1.393 . S
C862 H851 0.950 . S
C862 C860 1.391 . S
C862 C863 1.400 . S
C863 C857 1.491 . S
C863 C862 1.400 . S
C863 C864 1.398 . S
C864 H852 0.950 . S
C864 C863 1.398 . S
C864 C865 1.391 . S
C865 H853 0.950 . S
C865 C861 1.393 . S
C865 C864 1.391 . S
H866 C874 0.950 . S
H867 C879 0.950 . S
H868 C876 0.950 . S
H869 C878 0.950 . S
H870 C880 0.950 . S
H871 C882 0.950 . S
H872 C884 0.950 . S
H873 C885 0.950 . S
C874 H866 0.950 . S
C874 C875 1.386 . S
C874 C876 1.391 . S
C875 C874 1.386 . S
C875 C879 1.393 . S
C876 H868 0.950 . S
C876 C874 1.391 . S
C876 C877 1.400 . S
C877 C876 1.400 . S
C877 C878 1.398 . S
C877 C883 1.491 . S
C878 H869 0.950 . S
C878 C877 1.398 . S
C878 C879 1.391 . S
C879 H867 0.950 . S
C879 C875 1.393 . S
C879 C878 1.391 . S
C880 H870 0.950 . S
C880 C881 1.386 . S
C880 C882 1.391 . S
C881 C880 1.386 . S
C881 C885 1.393 . S
C882 H871 0.950 . S
C882 C880 1.391 . S
C882 C883 1.400 . S
C883 C877 1.491 . S
C883 C882 1.400 . S
C883 C884 1.398 . S
C884 H872 0.950 . S
C884 C883 1.398 . S
C884 C885 1.391 . S
C885 H873 0.950 . S
C885 C881 1.393 . S
C885 C884 1.391 . S
H886 C894 0.950 . S
H887 C899 0.950 . S
H888 C896 0.950 . S
H889 C898 0.950 . S
H890 C900 0.950 . S
H891 C902 0.950 . S
H892 C904 0.950 . S
H893 C905 0.950 . S
C894 H886 0.950 . S
C894 C895 1.386 . S
C894 C896 1.391 . S
C895 C894 1.386 . S
C895 C899 1.393 . S
C896 H888 0.950 . S
C896 C894 1.391 . S
C896 C897 1.400 . S
C897 C896 1.400 . S
C897 C898 1.398 . S
C897 C903 1.491 . S
C898 H889 0.950 . S
C898 C897 1.398 . S
C898 C899 1.391 . S
C899 H887 0.950 . S
C899 C895 1.393 . S
C899 C898 1.391 . S
C900 H890 0.950 . S
C900 C901 1.386 . S
C900 C902 1.391 . S
C901 C900 1.386 . S
C901 C905 1.393 . S
C902 H891 0.950 . S
C902 C900 1.391 . S
C902 C903 1.400 . S
C903 C897 1.491 . S
C903 C902 1.400 . S
C903 C904 1.398 . S
C904 H892 0.950 . S
C904 C903 1.398 . S
C904 C905 1.391 . S
C905 H893 0.950 . S
C905 C901 1.393 . S
C905 C904 1.391 . S
H906 C914 0.950 . S
H907 C919 0.950 . S
H908 C916 0.950 . S
H909 C918 0.950 . S
H910 C920 0.950 . S
H911 C922 0.950 . S
H912 C924 0.950 . S
H913 C925 0.950 . S
C914 H906 0.950 . S
C914 C915 1.386 . S
C914 C916 1.391 . S
C915 C914 1.386 . S
C915 C919 1.393 . S
C916 H908 0.950 . S
C916 C914 1.391 . S
C916 C917 1.400 . S
C917 C916 1.400 . S
C917 C918 1.398 . S
C917 C923 1.491 . S
C918 H909 0.950 . S
C918 C917 1.398 . S
C918 C919 1.391 . S
C919 H907 0.950 . S
C919 C915 1.393 . S
C919 C918 1.391 . S
C920 H910 0.950 . S
C920 C921 1.386 . S
C920 C922 1.391 . S
C921 C920 1.386 . S
C921 C925 1.393 . S
C922 H911 0.950 . S
C922 C920 1.391 . S
C922 C923 1.400 . S
C923 C917 1.491 . S
C923 C922 1.400 . S
C923 C924 1.398 . S
C924 H912 0.950 . S
C924 C923 1.398 . S
C924 C925 1.391 . S
C925 H913 0.950 . S
C925 C921 1.393 . S
C925 C924 1.391 . S
H926 C934 0.950 . S
H927 C939 0.950 . S
H928 C936 0.950 . S
H929 C938 0.950 . S
H930 C940 0.950 . S
H931 C942 0.950 . S
H932 C944 0.950 . S
H933 C945 0.950 . S
C934 H926 0.950 . S
C934 C935 1.386 . S
C934 C936 1.391 . S
C935 C934 1.386 . S
C935 C939 1.393 . S
C936 H928 0.950 . S
C936 C934 1.391 . S
C936 C937 1.400 . S
C937 C936 1.400 . S
C937 C938 1.398 . S
C937 C943 1.491 . S
C938 H929 0.950 . S
C938 C937 1.398 . S
C938 C939 1.391 . S
C939 H927 0.950 . S
C939 C935 1.393 . S
C939 C938 1.391 . S
C940 H930 0.950 . S
C940 C941 1.386 . S
C940 C942 1.391 . S
C941 C940 1.386 . S
C941 C945 1.393 . S
C942 H931 0.950 . S
C942 C940 1.391 . S
C942 C943 1.400 . S
C943 C937 1.491 . S
C943 C942 1.400 . S
C943 C944 1.398 . S
C944 H932 0.950 . S
C944 C943 1.398 . S
C944 C945 1.391 . S
C945 H933 0.950 . S
C945 C941 1.393 . S
C945 C944 1.391 . S
H946 C954 0.950 . S
H947 C959 0.950 . S
H948 C956 0.950 . S
H949 C958 0.950 . S
H950 C960 0.950 . S
H951 C962 0.950 . S
H952 C964 0.950 . S
H953 C965 0.950 . S
C954 H946 0.950 . S
C954 C955 1.386 . S
C954 C956 1.391 . S
C955 C954 1.386 . S
C955 C959 1.393 . S
C956 H948 0.950 . S
C956 C954 1.391 . S
C956 C957 1.400 . S
C957 C956 1.400 . S
C957 C958 1.398 . S
C957 C963 1.491 . S
C958 H949 0.950 . S
C958 C957 1.398 . S
C958 C959 1.391 . S
C959 H947 0.950 . S
C959 C955 1.393 . S
C959 C958 1.391 . S
C960 H950 0.950 . S
C960 C961 1.386 . S
C960 C962 1.391 . S
C961 C960 1.386 . S
C961 C965 1.393 . S
C962 H951 0.950 . S
C962 C960 1.391 . S
C962 C963 1.400 . S
C963 C957 1.491 . S
C963 C962 1.400 . S
C963 C964 1.398 . S
C964 H952 0.950 . S
C964 C963 1.398 . S
C964 C965 1.391 . S
C965 H953 0.950 . S
C965 C961 1.393 . S
C965 C964 1.391 . S
H966 C974 0.950 . S
H967 C979 0.950 . S
H968 C976 0.950 . S
H969 C978 0.950 . S
H970 C980 0.950 . S
H971 C982 0.950 . S
H972 C984 0.950 . S
H973 C985 0.950 . S
C974 H966 0.950 . S
C974 C975 1.386 . S
C974 C976 1.391 . S
C975 C974 1.386 . S
C975 C979 1.393 . S
C976 H968 0.950 . S
C976 C974 1.391 . S
C976 C977 1.400 . S
C977 C976 1.400 . S
C977 C978 1.398 . S
C977 C983 1.491 . S
C978 H969 0.950 . S
C978 C977 1.398 . S
C978 C979 1.391 . S
C979 H967 0.950 . S
C979 C975 1.393 . S
C979 C978 1.391 . S
C980 H970 0.950 . S
C980 C981 1.386 . S
C980 C982 1.391 . S
C981 C980 1.386 . S
C981 C985 1.393 . S
C982 H971 0.950 . S
C982 C980 1.391 . S
C982 C983 1.400 . S
C983 C977 1.491 . S
C983 C982 1.400 . S
C983 C984 1.398 . S
C984 H972 0.950 . S
C984 C983 1.398 . S
C984 C985 1.391 . S
C985 H973 0.950 . S
C985 C981 1.393 . S
C985 C984 1.391 . S
H986 C994 0.950 . S
H987 C999 0.950 . S
H988 C996 0.950 . S
H989 C998 0.950 . S
H990 C1000 0.950 . S
H991 C1002 0.950 . S
H992 C1004 0.950 . S
H993 C1005 0.950 . S
C994 H986 0.950 . S
C994 C995 1.386 . S
C994 C996 1.391 . S
C995 C994 1.386 . S
C995 C999 1.393 . S
C996 H988 0.950 . S
C996 C994 1.391 . S
C996 C997 1.400 . S
C997 C996 1.400 . S
C997 C998 1.398 . S
C997 C1003 1.491 . S
C998 H989 0.950 . S
C998 C997 1.398 . S
C998 C999 1.391 . S
C999 H987 0.950 . S
C999 C995 1.393 . S
C999 C998 1.391 . S
C1000 H990 0.950 . S
C1000 C1001 1.386 . S
C1000 C1002 1.391 . S
C1001 C1000 1.386 . S
C1001 C1005 1.393 . S
C1002 H991 0.950 . S
C1002 C1000 1.391 . S
C1002 C1003 1.400 . S
C1003 C997 1.491 . S
C1003 C1002 1.400 . S
C1003 C1004 1.398 . S
C1004 H992 0.950 . S
C1004 C1003 1.398 . S
C1004 C1005 1.391 . S
C1005 H993 0.950 . S
C1005 C1001 1.393 . S
C1005 C1004 1.391 . S
H1006 C1014 0.950 . S
H1007 C1019 0.950 . S
H1008 C1016 0.950 . S
H1009 C1018 0.950 . S
H1010 C1020 0.950 . S
H1011 C1022 0.950 . S
H1012 C1024 0.950 . S
H1013 C1025 0.950 . S
C1014 H1006 0.950 . S
C1014 C1015 1.386 . S
C1014 C1016 1.391 . S
C1015 C1014 1.386 . S
C1015 C1019 1.393 . S
C1016 H1008 0.950 . S
C1016 C1014 1.391 . S
C1016 C1017 1.400 . S
C1017 C1016 1.400 . S
C1017 C1018 1.398 . S
C1017 C1023 1.491 . S
C1018 H1009 0.950 . S
C1018 C1017 1.398 . S
C1018 C1019 1.391 . S
C1019 H1007 0.950 . S
C1019 C1015 1.393 . S
C1019 C1018 1.391 . S
C1020 H1010 0.950 . S
C1020 C1021 1.386 . S
C1020 C1022 1.391 . S
C1021 C1020 1.386 . S
C1021 C1025 1.393 . S
C1022 H1011 0.950 . S
C1022 C1020 1.391 . S
C1022 C1023 1.400 . S
C1023 C1017 1.491 . S
C1023 C1022 1.400 . S
C1023 C1024 1.398 . S
C1024 H1012 0.950 . S
C1024 C1023 1.398 . S
C1024 C1025 1.391 . S
C1025 H1013 0.950 . S
C1025 C1021 1.393 . S
C1025 C1024 1.391 . S
H1026 C1034 0.950 . S
H1027 C1039 0.950 . S
H1028 C1036 0.950 . S
H1029 C1038 0.950 . S
H1030 C1040 0.950 . S
H1031 C1042 0.950 . S
H1032 C1044 0.950 . S
H1033 C1045 0.950 . S
C1034 H1026 0.950 . S
C1034 C1035 1.386 . S
C1034 C1036 1.391 . S
C1035 C1034 1.386 . S
C1035 C1039 1.393 . S
C1036 H1028 0.950 . S
C1036 C1034 1.391 . S
C1036 C1037 1.400 . S
C1037 C1036 1.400 . S
C1037 C1038 1.398 . S
C1037 C1043 1.491 . S
C1038 H1029 0.950 . S
C1038 C1037 1.398 . S
C1038 C1039 1.391 . S
C1039 H1027 0.950 . S
C1039 C1035 1.393 . S
C1039 C1038 1.391 . S
C1040 H1030 0.950 . S
C1040 C1041 1.386 . S
C1040 C1042 1.391 . S
C1041 C1040 1.386 . S
C1041 C1045 1.393 . S
C1042 H1031 0.950 . S
C1042 C1040 1.391 . S
C1042 C1043 1.400 . S
C1043 C1037 1.491 . S
C1043 C1042 1.400 . S
C1043 C1044 1.398 . S
C1044 H1032 0.950 . S
C1044 C1043 1.398 . S
C1044 C1045 1.391 . S
C1045 H1033 0.950 . S
C1045 C1041 1.393 . S
C1045 C1044 1.391 . S
H1046 C1054 0.950 . S
H1047 C1059 0.950 . S
H1048 C1056 0.950 . S
H1049 C1058 0.950 . S
H1050 C1060 0.950 . S
H1051 C1062 0.950 . S
H1052 C1064 0.950 . S
H1053 C1065 0.950 . S
C1054 H1046 0.950 . S
C1054 C1055 1.386 . S
C1054 C1056 1.391 . S
C1055 C1054 1.386 . S
C1055 C1059 1.393 . S
C1056 H1048 0.950 . S
C1056 C1054 1.391 . S
C1056 C1057 1.400 . S
C1057 C1056 1.400 . S
C1057 C1058 1.398 . S
C1057 C1063 1.491 . S
C1058 H1049 0.950 . S
C1058 C1057 1.398 . S
C1058 C1059 1.391 . S
C1059 H1047 0.950 . S
C1059 C1055 1.393 . S
C1059 C1058 1.391 . S
C1060 H1050 0.950 . S
C1060 C1061 1.386 . S
C1060 C1062 1.391 . S
C1061 C1060 1.386 . S
C1061 C1065 1.393 . S
C1062 H1051 0.950 . S
C1062 C1060 1.391 . S
C1062 C1063 1.400 . S
C1063 C1057 1.491 . S
C1063 C1062 1.400 . S
C1063 C1064 1.398 . S
C1064 H1052 0.950 . S
C1064 C1063 1.398 . S
C1064 C1065 1.391 . S
C1065 H1053 0.950 . S
C1065 C1061 1.393 . S
C1065 C1064 1.391 . S
H1066 C1074 0.950 . S
H1067 C1079 0.950 . S
H1068 C1076 0.950 . S
H1069 C1078 0.950 . S
H1070 C1080 0.950 . S
H1071 C1082 0.950 . S
H1072 C1084 0.950 . S
H1073 C1085 0.950 . S
C1074 H1066 0.950 . S
C1074 C1075 1.386 . S
C1074 C1076 1.391 . S
C1075 C1074 1.386 . S
C1075 C1079 1.393 . S
C1076 H1068 0.950 . S
C1076 C1074 1.391 . S
C1076 C1077 1.400 . S
C1077 C1076 1.400 . S
C1077 C1078 1.398 . S
C1077 C1083 1.491 . S
C1078 H1069 0.950 . S
C1078 C1077 1.398 . S
C1078 C1079 1.391 . S
C1079 H1067 0.950 . S
C1079 C1075 1.393 . S
C1079 C1078 1.391 . S
C1080 H1070 0.950 . S
C1080 C1081 1.386 . S
C1080 C1082 1.391 . S
C1081 C1080 1.386 . S
C1081 C1085 1.393 . S
C1082 H1071 0.950 . S
C1082 C1080 1.391 . S
C1082 C1083 1.400 . S
C1083 C1077 1.491 . S
C1083 C1082 1.400 . S
C1083 C1084 1.398 . S
C1084 H1072 0.950 . S
C1084 C1083 1.398 . S
C1084 C1085 1.391 . S
C1085 H1073 0.950 . S
C1085 C1081 1.393 . S
C1085 C1084 1.391 . S
C621 C310 1.550 . S
C615 C25 1.551 . S
C641 C379 1.538 . S
C635 C37 1.544 . S
C661 C317 1.562 . S
C655 C103 1.558 . S
C681 C380 1.552 . S
C675 C139 1.551 . S
C701 C433 1.545 . S
C695 C31 1.550 . S
C721 C469 1.523 . S
C715 C67 1.525 . S
C735 C97 1.551 . S
C741 C529 1.562 . S
C761 C592 1.516 . S
C755 C133 1.515 . S
C781 C432 1.536 . S
C775 C61 1.545 . S
C795 C73 1.526 . S
C801 C476 1.532 . S
C821 C522 1.561 . S
C815 C109 1.562 . S
C841 C591 1.518 . S
C835 C1 1.525 . S
C855 C169 1.546 . S
C861 C370 1.555 . S
C881 C327 1.548 . S
C875 C211 1.543 . S
C895 C241 1.547 . S
C901 C363 1.537 . S
C915 C253 1.546 . S
C921 C326 1.550 . S
C941 C538 1.567 . S
C935 C175 1.554 . S
C961 C582 1.524 . S
C955 C205 1.508 . S
C981 C416 1.540 . S
C975 C217 1.547 . S
C995 C283 1.522 . S
C1001 C485 1.527 . S
C1021 C539 1.559 . S
C1015 C181 1.561 . S
C1041 C575 1.527 . S
C1035 C247 1.528 . S
C1061 C423 1.544 . S
C1055 C277 1.535 . S
C1075 C145 1.525 . S
C1081 C486 1.529 . S
