# Generated by pormake.
# Topology ptr, (4,4)-cn, num edge types: 1
# Building blocks:
#     Node 0, Type 0, BuildingBlock: UXUYUI_clean_sbu_0, # of connection points: 4
#     Node 1, Type 0, BuildingBlock: UXUYUI_clean_sbu_0, # of connection points: 4
#     Node 2, Type 0, BuildingBlock: UXUYUI_clean_sbu_0, # of connection points: 4
#     Node 3, Type 0, BuildingBlock: UXUYUI_clean_sbu_0, # of connection points: 4
#     Node 4, Type 0, BuildingBlock: UXUYUI_clean_sbu_0, # of connection points: 4
#     Node 5, Type 0, BuildingBlock: UXUYUI_clean_sbu_0, # of connection points: 4
#     Node 6, Type 0, BuildingBlock: UXUYUI_clean_sbu_0, # of connection points: 4
#     Node 7, Type 0, BuildingBlock: UXUYUI_clean_sbu_0, # of connection points: 4
#     Node 8, Type 0, BuildingBlock: UXUYUI_clean_sbu_0, # of connection points: 4
#     Node 9, Type 0, BuildingBlock: UXUYUI_clean_sbu_0, # of connection points: 4
#     Node 10, Type 0, BuildingBlock: UXUYUI_clean_sbu_0, # of connection points: 4
#     Node 11, Type 0, BuildingBlock: UXUYUI_clean_sbu_0, # of connection points: 4
#     Node 12, Type 0, BuildingBlock: UXUYUI_clean_sbu_0, # of connection points: 4
#     Node 13, Type 0, BuildingBlock: UXUYUI_clean_sbu_0, # of connection points: 4
#     Node 14, Type 0, BuildingBlock: UXUYUI_clean_sbu_0, # of connection points: 4
#     Node 15, Type 0, BuildingBlock: UXUYUI_clean_sbu_0, # of connection points: 4
#     Node 16, Type 0, BuildingBlock: UXUYUI_clean_sbu_0, # of connection points: 4
#     Node 17, Type 0, BuildingBlock: UXUYUI_clean_sbu_0, # of connection points: 4
#     Node 18, Type 1, BuildingBlock: AZAVOO_clean_linker_0, # of connection points: 4
#     Node 19, Type 1, BuildingBlock: AZAVOO_clean_linker_0, # of connection points: 4
#     Node 20, Type 1, BuildingBlock: AZAVOO_clean_linker_0, # of connection points: 4
#     Node 21, Type 1, BuildingBlock: AZAVOO_clean_linker_0, # of connection points: 4
#     Node 22, Type 1, BuildingBlock: AZAVOO_clean_linker_0, # of connection points: 4
#     Node 23, Type 1, BuildingBlock: AZAVOO_clean_linker_0, # of connection points: 4
#     Node 24, Type 1, BuildingBlock: AZAVOO_clean_linker_0, # of connection points: 4
#     Node 25, Type 1, BuildingBlock: AZAVOO_clean_linker_0, # of connection points: 4
#     Node 26, Type 1, BuildingBlock: AZAVOO_clean_linker_0, # of connection points: 4
#     Node 27, Type 1, BuildingBlock: AZAVOO_clean_linker_0, # of connection points: 4
#     Node 28, Type 1, BuildingBlock: AZAVOO_clean_linker_0, # of connection points: 4
#     Node 29, Type 1, BuildingBlock: AZAVOO_clean_linker_0, # of connection points: 4
#     Node 30, Type 1, BuildingBlock: AZAVOO_clean_linker_0, # of connection points: 4
#     Node 31, Type 1, BuildingBlock: AZAVOO_clean_linker_0, # of connection points: 4
#     Node 32, Type 1, BuildingBlock: AZAVOO_clean_linker_0, # of connection points: 4
#     Node 33, Type 1, BuildingBlock: AZAVOO_clean_linker_0, # of connection points: 4
#     Node 34, Type 1, BuildingBlock: AZAVOO_clean_linker_0, # of connection points: 4
#     Node 35, Type 1, BuildingBlock: AZAVOO_clean_linker_0, # of connection points: 4
#     Edge 36, Type (0, 1), BuildingBlock: ZUJKAS_clean_linker_0, # of connection points: 2
#     Edge 37, Type (0, 1), BuildingBlock: ZUJKAS_clean_linker_0, # of connection points: 2
#     Edge 38, Type (0, 1), BuildingBlock: ZUJKAS_clean_linker_0, # of connection points: 2
#     Edge 39, Type (0, 1), BuildingBlock: ZUJKAS_clean_linker_0, # of connection points: 2
#     Edge 40, Type (0, 1), BuildingBlock: ZUJKAS_clean_linker_0, # of connection points: 2
#     Edge 41, Type (0, 1), BuildingBlock: ZUJKAS_clean_linker_0, # of connection points: 2
#     Edge 42, Type (0, 1), BuildingBlock: ZUJKAS_clean_linker_0, # of connection points: 2
#     Edge 43, Type (0, 1), BuildingBlock: ZUJKAS_clean_linker_0, # of connection points: 2
#     Edge 44, Type (0, 1), BuildingBlock: ZUJKAS_clean_linker_0, # of connection points: 2
#     Edge 45, Type (0, 1), BuildingBlock: ZUJKAS_clean_linker_0, # of connection points: 2
#     Edge 46, Type (0, 1), BuildingBlock: ZUJKAS_clean_linker_0, # of connection points: 2
#     Edge 47, Type (0, 1), BuildingBlock: ZUJKAS_clean_linker_0, # of connection points: 2
#     Edge 48, Type (0, 1), BuildingBlock: ZUJKAS_clean_linker_0, # of connection points: 2
#     Edge 49, Type (0, 1), BuildingBlock: ZUJKAS_clean_linker_0, # of connection points: 2
#     Edge 50, Type (0, 1), BuildingBlock: ZUJKAS_clean_linker_0, # of connection points: 2
#     Edge 51, Type (0, 1), BuildingBlock: ZUJKAS_clean_linker_0, # of connection points: 2
#     Edge 52, Type (0, 1), BuildingBlock: ZUJKAS_clean_linker_0, # of connection points: 2
#     Edge 53, Type (0, 1), BuildingBlock: ZUJKAS_clean_linker_0, # of connection points: 2
#     Edge 54, Type (0, 1), BuildingBlock: ZUJKAS_clean_linker_0, # of connection points: 2
#     Edge 55, Type (0, 1), BuildingBlock: ZUJKAS_clean_linker_0, # of connection points: 2
#     Edge 56, Type (0, 1), BuildingBlock: ZUJKAS_clean_linker_0, # of connection points: 2
#     Edge 57, Type (0, 1), BuildingBlock: ZUJKAS_clean_linker_0, # of connection points: 2
#     Edge 58, Type (0, 1), BuildingBlock: ZUJKAS_clean_linker_0, # of connection points: 2
#     Edge 59, Type (0, 1), BuildingBlock: ZUJKAS_clean_linker_0, # of connection points: 2
#     Edge 60, Type (0, 1), BuildingBlock: ZUJKAS_clean_linker_0, # of connection points: 2
#     Edge 61, Type (0, 1), BuildingBlock: ZUJKAS_clean_linker_0, # of connection points: 2
#     Edge 62, Type (0, 1), BuildingBlock: ZUJKAS_clean_linker_0, # of connection points: 2
#     Edge 63, Type (0, 1), BuildingBlock: ZUJKAS_clean_linker_0, # of connection points: 2
#     Edge 64, Type (0, 1), BuildingBlock: ZUJKAS_clean_linker_0, # of connection points: 2
#     Edge 65, Type (0, 1), BuildingBlock: ZUJKAS_clean_linker_0, # of connection points: 2
#     Edge 66, Type (0, 1), BuildingBlock: ZUJKAS_clean_linker_0, # of connection points: 2
#     Edge 67, Type (0, 1), BuildingBlock: ZUJKAS_clean_linker_0, # of connection points: 2
#     Edge 68, Type (0, 1), BuildingBlock: ZUJKAS_clean_linker_0, # of connection points: 2
#     Edge 69, Type (0, 1), BuildingBlock: ZUJKAS_clean_linker_0, # of connection points: 2
#     Edge 70, Type (0, 1), BuildingBlock: ZUJKAS_clean_linker_0, # of connection points: 2
#     Edge 71, Type (0, 1), BuildingBlock: ZUJKAS_clean_linker_0, # of connection points: 2
#     Edge 72, Type (0, 1), BuildingBlock: ZUJKAS_clean_linker_0, # of connection points: 2
#     Edge 73, Type (0, 1), BuildingBlock: ZUJKAS_clean_linker_0, # of connection points: 2
#     Edge 74, Type (0, 1), BuildingBlock: ZUJKAS_clean_linker_0, # of connection points: 2
#     Edge 75, Type (0, 1), BuildingBlock: ZUJKAS_clean_linker_0, # of connection points: 2
#     Edge 76, Type (0, 1), BuildingBlock: ZUJKAS_clean_linker_0, # of connection points: 2
#     Edge 77, Type (0, 1), BuildingBlock: ZUJKAS_clean_linker_0, # of connection points: 2
#     Edge 78, Type (0, 1), BuildingBlock: ZUJKAS_clean_linker_0, # of connection points: 2
#     Edge 79, Type (0, 1), BuildingBlock: ZUJKAS_clean_linker_0, # of connection points: 2
#     Edge 80, Type (0, 1), BuildingBlock: ZUJKAS_clean_linker_0, # of connection points: 2
#     Edge 81, Type (0, 1), BuildingBlock: ZUJKAS_clean_linker_0, # of connection points: 2
#     Edge 82, Type (0, 1), BuildingBlock: ZUJKAS_clean_linker_0, # of connection points: 2
#     Edge 83, Type (0, 1), BuildingBlock: ZUJKAS_clean_linker_0, # of connection points: 2
#     Edge 84, Type (0, 1), BuildingBlock: ZUJKAS_clean_linker_0, # of connection points: 2
#     Edge 85, Type (0, 1), BuildingBlock: ZUJKAS_clean_linker_0, # of connection points: 2
#     Edge 86, Type (0, 1), BuildingBlock: ZUJKAS_clean_linker_0, # of connection points: 2
#     Edge 87, Type (0, 1), BuildingBlock: ZUJKAS_clean_linker_0, # of connection points: 2
#     Edge 88, Type (0, 1), BuildingBlock: ZUJKAS_clean_linker_0, # of connection points: 2
#     Edge 89, Type (0, 1), BuildingBlock: ZUJKAS_clean_linker_0, # of connection points: 2
#     Edge 90, Type (0, 1), BuildingBlock: ZUJKAS_clean_linker_0, # of connection points: 2
#     Edge 91, Type (0, 1), BuildingBlock: ZUJKAS_clean_linker_0, # of connection points: 2
#     Edge 92, Type (0, 1), BuildingBlock: ZUJKAS_clean_linker_0, # of connection points: 2
#     Edge 93, Type (0, 1), BuildingBlock: ZUJKAS_clean_linker_0, # of connection points: 2
#     Edge 94, Type (0, 1), BuildingBlock: ZUJKAS_clean_linker_0, # of connection points: 2
#     Edge 95, Type (0, 1), BuildingBlock: ZUJKAS_clean_linker_0, # of connection points: 2
#     Edge 96, Type (0, 1), BuildingBlock: ZUJKAS_clean_linker_0, # of connection points: 2
#     Edge 97, Type (0, 1), BuildingBlock: ZUJKAS_clean_linker_0, # of connection points: 2
#     Edge 98, Type (0, 1), BuildingBlock: ZUJKAS_clean_linker_0, # of connection points: 2
#     Edge 99, Type (0, 1), BuildingBlock: ZUJKAS_clean_linker_0, # of connection points: 2
#     Edge 100, Type (0, 1), BuildingBlock: ZUJKAS_clean_linker_0, # of connection points: 2
#     Edge 101, Type (0, 1), BuildingBlock: ZUJKAS_clean_linker_0, # of connection points: 2
#     Edge 102, Type (0, 1), BuildingBlock: ZUJKAS_clean_linker_0, # of connection points: 2
#     Edge 103, Type (0, 1), BuildingBlock: ZUJKAS_clean_linker_0, # of connection points: 2
#     Edge 104, Type (0, 1), BuildingBlock: ZUJKAS_clean_linker_0, # of connection points: 2
#     Edge 105, Type (0, 1), BuildingBlock: ZUJKAS_clean_linker_0, # of connection points: 2
#     Edge 106, Type (0, 1), BuildingBlock: ZUJKAS_clean_linker_0, # of connection points: 2
#     Edge 107, Type (0, 1), BuildingBlock: ZUJKAS_clean_linker_0, # of connection points: 2
# Relax obj value: 0.127
# Max RMSD: 0.318
# Mean RMSD: 0.191
data_MOF--net-ptr--node1-UXUYUI_clean_sbu_0--node2-AZAVOO_clean_linker_0--edge1-ZUJKAS_clean_linker_0
_symmetry_space_group_name_H-M    P1
_symmetry_Int_Tables_number       1
_symmetry_cell_setting            triclinic
loop_
_symmetry_equiv_pos_as_xyz
'x, y, z'
_cell_length_a     118.45569
_cell_length_b     117.50299
_cell_length_c     96.816816
_cell_angle_alpha  92.33964
_cell_angle_beta   92.093159
_cell_angle_gamma 120.32028
loop_
_atom_site_label
_atom_site_type_symbol
_atom_site_fract_x
_atom_site_fract_y
_atom_site_fract_z
_atom_type_partial_charge
Li0 Li 0.99692 0.34871 0.00953 0.0
Li1 Li 0.01828 0.35978 0.02195 0.0
Li2 Li 0.00163 0.36672 0.02596 0.0
Li3 Li 0.01333 0.37186 0.00462 0.0
C4 C 0.99252 0.33732 0.03315 0.0
N5 N 0.97546 0.31153 0.03901 0.0
C6 C 0.99711 0.32856 0.03485 0.0
C7 C 0.9793 0.33301 0.03461 0.0
C8 C 0.98832 0.31555 0.03777 0.0
C9 C 0.97081 0.31992 0.03751 0.0
C10 C 0.02423 0.35592 0.99444 0.0
C11 C 0.04577 0.36824 0.98585 0.0
N12 N 0.04423 0.35687 0.97973 0.0
C13 C 0.02279 0.34439 0.98789 0.0
C14 C 0.03575 0.36796 0.99327 0.0
C15 C 0.03304 0.34506 0.98058 0.0
C16 C 0.97212 0.32929 0.9964 0.0
N17 N 0.98409 0.33185 0.00146 0.0
C18 C 0.97877 0.3098 0.9949 0.0
C19 C 0.98753 0.32244 0.00082 0.0
C20 C 0.96632 0.30681 0.98955 0.0
C21 C 0.96302 0.31675 0.99038 0.0
H22 H 0.96967 0.33699 0.99698 0.0
H23 H 0.99714 0.32479 0.0049 0.0
C24 C 0.03633 0.36321 0.04362 0.0
N25 N 0.031 0.35687 0.03098 0.0
C26 C 0.04463 0.36032 0.05136 0.0
C27 C 0.04185 0.34446 0.03288 0.0
C28 C 0.03361 0.34767 0.0255 0.0
C29 C 0.04735 0.3507 0.04607 0.0
H30 H 0.03388 0.37031 0.04782 0.0
H31 H 0.02887 0.34242 0.01568 0.0
C32 C 0.98552 0.36817 0.00688 0.0
N33 N 0.96831 0.37751 0.00806 0.0
C34 C 0.98858 0.38006 0.00116 0.0
C35 C 0.97364 0.36097 0.01305 0.0
C36 C 0.97976 0.38463 0.0019 0.0
C37 C 0.9651 0.36588 0.01359 0.0
C38 C 0.03233 0.38939 0.02718 0.0
C39 C 0.03228 0.40045 0.03302 0.0
C40 C 0.0443 0.39017 0.02497 0.0
C41 C 0.04417 0.41216 0.03626 0.0
C42 C 0.05598 0.40205 0.02836 0.0
N43 N 0.05567 0.41272 0.03387 0.0
C44 C 0.99104 0.36771 0.05146 0.0
C45 C 0.99597 0.38555 0.03749 0.0
C46 C 0.98752 0.37353 0.06204 0.0
N47 N 0.99528 0.37385 0.03955 0.0
C48 C 0.99248 0.39167 0.04773 0.0
C49 C 0.9884 0.38576 0.06031 0.0
H50 H 0.99074 0.35849 0.0529 0.0
H51 H -0.00034 0.39037 0.02806 0.0
C52 C 0.01495 0.379 0.97735 0.0
N53 N 0.0194 0.38408 0.99058 0.0
C54 C 0.01738 0.3874 0.96664 0.0
C55 C 0.02937 0.40609 0.98333 0.0
C56 C 0.02666 0.39733 0.99371 0.0
C57 C 0.02444 0.40117 0.96963 0.0
H58 H 0.00904 0.36841 0.97522 0.0
H59 H 0.02993 0.40116 0.00429 0.0
O60 O 0.00093 0.35003 0.03 0.0
O61 O 0.01423 0.3554 0.00158 0.0
O62 O 0.99408 0.36359 0.00636 0.0
O63 O 0.02075 0.37781 0.02405 0.0
H64 H 0.00732 0.33174 0.0338 0.0
H65 H 0.97561 0.33969 0.03345 0.0
H66 H 0.99172 0.30864 0.03902 0.0
H67 H 0.96053 0.31643 0.03858 0.0
H68 H 0.05474 0.3775 0.98491 0.0
H69 H 0.01388 0.335 0.98849 0.0
H70 H 0.0369 0.37703 0.99788 0.0
H71 H 0.03209 0.3362 0.97556 0.0
H72 H 0.98182 0.30253 0.99431 0.0
H73 H 0.95349 0.31484 0.98649 0.0
H74 H 0.04875 0.36544 0.06144 0.0
H75 H 0.04346 0.3368 0.02852 0.0
H76 H 0.99769 0.38576 0.9963 0.0
H77 H 0.97108 0.35173 0.01745 0.0
H78 H 0.98204 0.39384 0.99758 0.0
H79 H 0.95591 0.36044 0.01842 0.0
H80 H 0.02316 0.40004 0.03495 0.0
H81 H 0.04461 0.38166 0.02085 0.0
H82 H 0.04425 0.42081 0.04068 0.0
H83 H 0.06529 0.40278 0.02667 0.0
H84 H 0.98437 0.36862 0.07157 0.0
H85 H 0.99354 0.40121 0.04606 0.0
H86 H 0.01322 0.38315 0.95629 0.0
H87 H 0.03499 0.41662 0.98608 0.0
Li88 Li 0.64533 0.6311 0.05141 0.0
Li89 Li 0.63539 0.64187 0.06389 0.0
Li90 Li 0.62739 0.61786 0.06644 0.0
Li91 Li 0.62211 0.62554 0.04546 0.0
C92 C 0.65434 0.63301 0.07988 0.0
N93 N 0.67317 0.63189 0.09653 0.0
C94 C 0.66413 0.64438 0.0874 0.0
C95 C 0.65399 0.62102 0.08106 0.0
C96 C 0.67361 0.64363 0.09569 0.0
C97 C 0.66362 0.62067 0.08948 0.0
C98 C 0.64349 0.65525 0.04127 0.0
C99 C 0.64017 0.67369 0.03851 0.0
N100 N 0.65316 0.68156 0.03672 0.0
C101 C 0.65678 0.66349 0.03925 0.0
C102 C 0.63508 0.66035 0.04076 0.0
C103 C 0.66149 0.67678 0.03701 0.0
C104 C 0.66137 0.62848 0.03203 0.0
N105 N 0.66139 0.63453 0.0443 0.0
C106 C 0.68472 0.64791 0.0455 0.0
C107 C 0.67273 0.64404 0.05109 0.0
C108 C 0.68504 0.64202 0.03272 0.0
C109 C 0.67318 0.63203 0.02605 0.0
H110 H 0.65217 0.62118 0.02669 0.0
H111 H 0.67244 0.64902 0.06057 0.0
C112 C 0.63135 0.66069 0.07938 0.0
N113 N 0.64018 0.65829 0.07333 0.0
C114 C 0.63548 0.673 0.08626 0.0
C115 C 0.65765 0.68002 0.08046 0.0
C116 C 0.65311 0.66761 0.0738 0.0
C117 C 0.64882 0.68286 0.08687 0.0
H118 H 0.62113 0.65304 0.07894 0.0
H119 H 0.6599 0.66539 0.06891 0.0
C120 C 0.62901 0.60186 0.04393 0.0
N121 N 0.62848 0.57841 0.03769 0.0
C122 C 0.61804 0.59126 0.03672 0.0
C123 C 0.63981 0.6006 0.0477 0.0
C124 C 0.61793 0.57947 0.03374 0.0
C125 C 0.63933 0.58865 0.04452 0.0
C126 C 0.60415 0.62302 0.06293 0.0
C127 C 0.59468 0.61027 0.06599 0.0
C128 C 0.60023 0.6316 0.05803 0.0
C129 C 0.58142 0.60624 0.06386 0.0
C130 C 0.58688 0.62719 0.05602 0.0
N131 N 0.57782 0.61471 0.05894 0.0
C132 C 0.62324 0.6083 0.09285 0.0
C133 C 0.61314 0.5914 0.07472 0.0
C134 C 0.61787 0.59902 0.10278 0.0
N135 N 0.62076 0.60436 0.07914 0.0
C136 C 0.60758 0.58179 0.08429 0.0
C137 C 0.60978 0.58556 0.09854 0.0
H138 H 0.62917 0.6187 0.09605 0.0
H139 H 0.61104 0.58854 0.0638 0.0
C140 C 0.61121 0.62847 0.02018 0.0
N141 N 0.60907 0.62042 0.03068 0.0
C142 C 0.60207 0.62437 0.00884 0.0
C143 C 0.58864 0.60386 0.01944 0.0
C144 C 0.59803 0.60836 0.03055 0.0
C145 C 0.59068 0.61183 0.00829 0.0
H146 H 0.62018 0.63793 0.02042 0.0
H147 H 0.59662 0.6021 0.03896 0.0
O148 O 0.64494 0.63359 0.07177 0.0
O149 O 0.63873 0.64227 0.04374 0.0
O150 O 0.6293 0.61352 0.04683 0.0
O151 O 0.61719 0.62709 0.06481 0.0
H152 H 0.66446 0.65371 0.08682 0.0
H153 H 0.64626 0.61204 0.07574 0.0
H154 H 0.6813 0.65238 0.10147 0.0
H155 H 0.66346 0.61145 0.09045 0.0
H156 H 0.63379 0.67778 0.03819 0.0
H157 H 0.66341 0.65971 0.03948 0.0
H158 H 0.62476 0.65409 0.04216 0.0
H159 H 0.67177 0.68328 0.03553 0.0
H160 H 0.69364 0.6556 0.05102 0.0
H161 H 0.67297 0.62738 0.01608 0.0
H162 H 0.62836 0.6747 0.09119 0.0
H163 H 0.66796 0.68736 0.08043 0.0
H164 H 0.60967 0.59209 0.03352 0.0
H165 H 0.64857 0.6088 0.05284 0.0
H166 H 0.60945 0.57116 0.02827 0.0
H167 H 0.64762 0.58755 0.04742 0.0
H168 H 0.59752 0.60352 0.06986 0.0
H169 H 0.60742 0.64154 0.05577 0.0
H170 H 0.57399 0.59637 0.0661 0.0
H171 H 0.58371 0.63371 0.05215 0.0
H172 H 0.61965 0.60241 0.11364 0.0
H173 H 0.60148 0.57152 0.08056 0.0
H174 H 0.60413 0.63075 0.00038 0.0
H175 H 0.57994 0.59419 0.01952 0.0
Li176 Li 0.37741 0.9926 0.00532 0.0
Li177 Li 0.38313 0.00186 0.02923 0.0
Li178 Li 0.35968 0.9855 0.02145 0.0
Li179 Li 0.37055 0.00828 0.0148 0.0
C180 C 0.3741 0.97084 0.02084 0.0
N181 N 0.37198 0.94632 0.01785 0.0
C182 C 0.38422 0.96906 0.02609 0.0
C183 C 0.36281 0.96008 0.01432 0.0
C184 C 0.38299 0.95661 0.0244 0.0
C185 C 0.36195 0.94779 0.01284 0.0
C186 C 0.40158 0.02001 0.0148 0.0
C187 C 0.41955 0.04019 0.02578 0.0
N188 N 0.42813 0.03679 0.02086 0.0
C189 C 0.41058 0.01677 0.00975 0.0
C190 C 0.40609 0.03187 0.02277 0.0
C191 C 0.42396 0.02536 0.01297 0.0
C192 C 0.38187 0.99246 0.97722 0.0
N193 N 0.38361 0.98802 0.9894 0.0
C194 C 0.39571 0.97927 0.97861 0.0
C195 C 0.39031 0.98147 0.99029 0.0
C196 C 0.3943 0.98398 0.96592 0.0
C197 C 0.38712 0.99052 0.96529 0.0
H198 H 0.37666 0.99782 0.97688 0.0
H199 H 0.39185 0.97831 0.00012 0.0
C200 C 0.3947 0.01207 0.05636 0.0
N201 N 0.39613 0.00711 0.04406 0.0
C202 C 0.40373 0.01514 0.06759 0.0
C203 C 0.4156 0.00803 0.05323 0.0
C204 C 0.40635 0.00513 0.04228 0.0
C205 C 0.41426 0.01296 0.06615 0.0
H206 H 0.38636 0.01334 0.05759 0.0
H207 H 0.4072 0.00107 0.03242 0.0
C208 C 0.35046 0.98374 0.99297 0.0
N209 N 0.33074 0.96763 0.97311 0.0
C210 C 0.34098 0.98687 0.98879 0.0
C211 C 0.35005 0.97256 0.98681 0.0
C212 C 0.33104 0.97855 0.97882 0.0
C213 C 0.33998 0.9645 0.97685 0.0
C214 C 0.36289 0.00962 0.0402 0.0
C215 C 0.34986 0.0041 0.04356 0.0
C216 C 0.37165 0.02309 0.04336 0.0
C217 C 0.34575 0.0122 0.04981 0.0
C218 C 0.36716 0.03086 0.0496 0.0
N219 N 0.35441 0.02531 0.05266 0.0
C220 C 0.34323 0.96405 0.03702 0.0
C221 C 0.33222 0.9714 0.02216 0.0
C222 C 0.33148 0.95537 0.04272 0.0
N223 N 0.34338 0.97192 0.02703 0.0
C224 C 0.32028 0.96288 0.02755 0.0
C225 C 0.31983 0.9549 0.03817 0.0
H226 H 0.35231 0.96488 0.04092 0.0
H227 H 0.33269 0.97814 0.01464 0.0
C228 C 0.37587 0.03328 0.00578 0.0
N229 N 0.36672 0.02161 0.01047 0.0
C230 C 0.3725 0.04265 0.00224 0.0
C231 C 0.35045 0.02786 0.00865 0.0
C232 C 0.3542 0.01876 0.01191 0.0
C233 C 0.35962 0.03995 0.00365 0.0
H234 H 0.38573 0.03523 0.00464 0.0
H235 H 0.34708 0.00931 0.01544 0.0
O236 O 0.37514 0.98297 0.02249 0.0
O237 O 0.38842 0.01164 0.01191 0.0
O238 O 0.36033 0.99188 0.00265 0.0
O239 O 0.36705 0.00188 0.03387 0.0
H240 H 0.39295 0.97721 0.03135 0.0
H241 H 0.3547 0.96113 0.01061 0.0
H242 H 0.39079 0.95513 0.02832 0.0
H243 H 0.35327 0.93939 0.00778 0.0
H244 H 0.42317 0.04936 0.032 0.0
H245 H 0.40727 0.00766 0.00354 0.0
H246 H 0.39928 0.03462 0.02661 0.0
H247 H 0.43103 0.02293 0.00921 0.0
H248 H 0.40107 0.9741 0.97956 0.0
H249 H 0.38597 0.99451 0.95581 0.0
H250 H 0.4022 0.01872 0.07743 0.0
H251 H 0.42363 0.00631 0.05163 0.0
H252 H 0.34123 0.99558 0.99325 0.0
H253 H 0.35752 0.97019 0.98952 0.0
H254 H 0.32359 0.98081 0.97558 0.0
H255 H 0.33954 0.95581 0.97204 0.0
H256 H 0.34297 0.99368 0.04135 0.0
H257 H 0.38178 0.0275 0.04093 0.0
H258 H 0.33567 0.00806 0.0524 0.0
H259 H 0.37382 0.04132 0.052 0.0
H260 H 0.33156 0.94933 0.05083 0.0
H261 H 0.31162 0.96308 0.02395 0.0
H262 H 0.37985 0.05188 0.99844 0.0
H263 H 0.34037 0.02529 0.00964 0.0
Li264 Li 0.00683 0.65186 0.05016 0.0
Li265 Li 0.99042 0.62958 0.05591 0.0
Li266 Li 0.00042 0.63361 0.03297 0.0
Li267 Li 0.9843 0.64016 0.03786 0.0
C268 C 0.02117 0.64074 0.05794 0.0
N269 N 0.04587 0.65025 0.07057 0.0
C270 C 0.0226 0.63802 0.0716 0.0
C271 C 0.03229 0.64813 0.05064 0.0
C272 C 0.03517 0.64296 0.07782 0.0
C273 C 0.0447 0.6529 0.05723 0.0
C274 C 0.98294 0.64705 0.06854 0.0
C275 C 0.96276 0.6425 0.07836 0.0
N276 N 0.96965 0.64949 0.09028 0.0
C277 C 0.98983 0.65437 0.08081 0.0
C278 C 0.96931 0.64121 0.06723 0.0
C279 C 0.98293 0.65541 0.09172 0.0
C280 C 0.02306 0.67937 0.05044 0.0
N281 N 0.02016 0.66874 0.05783 0.0
C282 C 0.03454 0.68276 0.07689 0.0
C283 C 0.02567 0.67019 0.07082 0.0
C284 C 0.03756 0.69394 0.06959 0.0
C285 C 0.03179 0.69213 0.05614 0.0
H286 H 0.01833 0.67795 0.04024 0.0
H287 H 0.02285 0.66163 0.07668 0.0
C288 C 0.97937 0.60468 0.0671 0.0
N289 N 0.98489 0.61785 0.07044 0.0
C290 C 0.97662 0.59591 0.07749 0.0
C291 C 0.9852 0.6144 0.09457 0.0
C292 C 0.98775 0.6228 0.08385 0.0
C293 C 0.97976 0.60078 0.09143 0.0
H294 H 0.97754 0.60104 0.05634 0.0
H295 H 0.99257 0.63332 0.08623 0.0
C296 C 0.00705 0.6547 0.01782 0.0
N297 N 0.01784 0.66222 0.99261 0.0
C298 C 0.99897 0.65228 0.00587 0.0
C299 C 0.02063 0.66115 0.01699 0.0
C300 C 0.0046 0.65609 0.99321 0.0
C301 C 0.02589 0.66482 0.00414 0.0
C302 C 0.96887 0.61245 0.03458 0.0
C303 C 0.9646 0.60472 0.02205 0.0
C304 C 0.95995 0.61017 0.04466 0.0
C305 C 0.95139 0.595 0.01971 0.0
C306 C 0.94684 0.60035 0.04195 0.0
N307 N 0.94285 0.59304 0.02962 0.0
C308 C 0.01503 0.62297 0.02087 0.0
C309 C 0.99874 0.62314 0.00609 0.0
C310 C 0.01784 0.61642 0.01036 0.0
N311 N 0.00559 0.62613 0.01855 0.0
C312 C 0.00126 0.6167 0.9953 0.0
C313 C 0.01078 0.61305 0.9974 0.0
H314 H 0.02012 0.62517 0.03098 0.0
H315 H 0.99108 0.62551 0.00463 0.0
C316 C 0.97123 0.65414 0.03442 0.0
N317 N 0.97136 0.64318 0.02962 0.0
C318 C 0.96321 0.65799 0.02766 0.0
C319 C 0.95546 0.63907 0.01128 0.0
C320 C 0.96364 0.6356 0.01835 0.0
C321 C 0.95535 0.65054 0.01577 0.0
H322 H 0.97772 0.66016 0.04321 0.0
H323 H 0.96423 0.62719 0.01448 0.0
O324 O 0.00893 0.63607 0.05171 0.0
O325 O 0.98957 0.64606 0.05771 0.0
O326 O 0.0017 0.65097 0.0303 0.0
O327 O 0.98177 0.62205 0.037 0.0
H328 H 0.0141 0.63222 0.07736 0.0
H329 H 0.03135 0.65013 0.04 0.0
H330 H 0.03643 0.64099 0.08842 0.0
H331 H 0.05339 0.65869 0.05171 0.0
H332 H 0.95221 0.63799 0.0775 0.0
H333 H 0.00039 0.6591 0.08195 0.0
H334 H 0.96383 0.63587 0.05767 0.0
H335 H 0.98814 0.66095 0.10131 0.0
H336 H 0.0386 0.68375 0.08737 0.0
H337 H 0.03391 0.7005 0.05016 0.0
H338 H 0.97264 0.58552 0.07459 0.0
H339 H 0.98775 0.61857 0.10517 0.0
H340 H 0.98845 0.64739 0.00634 0.0
H341 H 0.02705 0.66338 0.02617 0.0
H342 H 0.99845 0.65418 0.98386 0.0
H343 H 0.03639 0.66977 0.00334 0.0
H344 H 0.97139 0.60626 0.01417 0.0
H345 H 0.96315 0.6158 0.05454 0.0
H346 H 0.94793 0.589 0.01003 0.0
H347 H 0.93983 0.5985 0.04966 0.0
H348 H 0.02512 0.61364 0.01252 0.0
H349 H 0.99569 0.61447 0.98545 0.0
H350 H 0.96362 0.66702 0.03136 0.0
H351 H 0.9495 0.633 0.00221 0.0
Li352 Li 0.35855 0.37332 0.01133 0.0
Li353 Li 0.38107 0.3784 0.01695 0.0
Li354 Li 0.37463 0.38441 0.99463 0.0
Li355 Li 0.36778 0.36138 0.99805 0.0
C356 C 0.37117 0.3987 0.02122 0.0
N357 N 0.36351 0.41392 0.03613 0.0
C358 C 0.37596 0.40309 0.03497 0.0
C359 C 0.36263 0.4022 0.015 0.0
C360 C 0.37194 0.41074 0.04235 0.0
C361 C 0.35883 0.40986 0.02272 0.0
C362 C 0.36439 0.35327 0.02774 0.0
C363 C 0.36964 0.33709 0.03537 0.0
N364 N 0.36384 0.33658 0.04738 0.0
C365 C 0.35831 0.35244 0.04007 0.0
C366 C 0.36996 0.3454 0.0253 0.0
C367 C 0.3582 0.34401 0.0499 0.0
C368 C 0.33146 0.3636 0.01163 0.0
N369 N 0.34303 0.3705 0.01934 0.0
C370 C 0.33195 0.37063 0.0394 0.0
C371 C 0.34349 0.37414 0.03294 0.0
C372 C 0.31978 0.36307 0.03185 0.0
C373 C 0.31965 0.35976 0.0177 0.0
H374 H 0.33138 0.36061 0.00089 0.0
H375 H 0.35278 0.37933 0.03893 0.0
C376 C 0.40711 0.39087 0.02895 0.0
N377 N 0.39424 0.38398 0.03167 0.0
C378 C 0.41684 0.39564 0.03977 0.0
C379 C 0.39989 0.38625 0.05597 0.0
C380 C 0.39051 0.38167 0.04485 0.0
C381 C 0.41328 0.3934 0.05352 0.0
H382 H 0.40981 0.39282 0.01839 0.0
H383 H 0.38024 0.37665 0.04678 0.0
C384 C 0.35254 0.37007 0.97846 0.0
N385 N 0.34423 0.37332 0.95266 0.0
C386 C 0.35354 0.36347 0.96666 0.0
C387 C 0.34713 0.37818 0.97717 0.0
C388 C 0.34933 0.36528 0.9537 0.0
C389 C 0.34304 0.37974 0.96402 0.0
C390 C 0.39485 0.37295 0.99435 0.0
C391 C 0.40053 0.37595 0.98161 0.0
C392 C 0.39845 0.36636 0.00364 0.0
C393 C 0.40952 0.37207 0.97827 0.0
C394 C 0.40748 0.36264 -7e-05 0.0
N395 N 0.41277 0.36554 0.98741 0.0
C396 C 0.38422 0.40996 0.9851 0.0
C397 C 0.38218 0.39374 0.96821 0.0
C398 C 0.38965 0.41973 0.97566 0.0
N399 N 0.38069 0.39729 0.98125 0.0
C400 C 0.38749 0.40316 0.95842 0.0
C401 C 0.39147 0.4164 0.96215 0.0
H402 H 0.38312 0.41257 0.99559 0.0
H403 H 0.37957 0.38366 0.96551 0.0
C404 C 0.35176 0.3343 0.99376 0.0
N405 N 0.36292 0.34457 0.98949 0.0
C406 C 0.34682 0.32157 0.98768 0.0
C407 C 0.36494 0.33023 0.97284 0.0
C408 C 0.36953 0.34281 0.97922 0.0
C409 C 0.35339 0.31941 0.97702 0.0
H410 H 0.34659 0.33605 0.00177 0.0
H411 H 0.37819 0.35116 0.97576 0.0
O412 O 0.37492 0.3911 0.01387 0.0
O413 O 0.36447 0.3614 0.01796 0.0
O414 O 0.35671 0.36851 0.99122 0.0
O415 O 0.38601 0.37667 0.99776 0.0
H416 H 0.38268 0.40058 0.03991 0.0
H417 H 0.35895 0.399 0.00433 0.0
H418 H 0.37551 0.41415 0.05302 0.0
H419 H 0.35216 0.41257 0.01805 0.0
H420 H 0.37394 0.33098 0.03362 0.0
H421 H 0.3538 0.35831 0.04209 0.0
H422 H 0.37434 0.34557 0.01566 0.0
H423 H 0.35363 0.34337 0.05953 0.0
H424 H 0.33256 0.37358 0.05027 0.0
H425 H 0.31053 0.35378 0.01152 0.0
H426 H 0.42704 0.40107 0.03741 0.0
H427 H 0.39668 0.38458 0.0664 0.0
H428 H 0.35766 0.35712 0.96747 0.0
H429 H 0.34608 0.38319 0.98621 0.0
H430 H 0.35014 0.3603 0.94446 0.0
H431 H 0.33889 0.38603 0.96286 0.0
H432 H 0.39797 0.38117 0.97435 0.0
H433 H 0.39445 0.36427 0.01368 0.0
H434 H 0.41392 0.37426 0.96841 0.0
H435 H 0.41033 0.35752 0.00702 0.0
H436 H 0.39254 0.42982 0.97893 0.0
H437 H 0.38894 0.40021 0.9482 0.0
H438 H 0.33776 0.31359 0.99105 0.0
H439 H 0.37036 0.329 0.96472 0.0
Li440 Li 0.63037 0.9924 0.04765 0.0
Li441 Li 0.62468 0.00857 0.05675 0.0
Li442 Li 0.61914 0.00024 0.03229 0.0
Li443 Li 0.64177 0.0153 0.04061 0.0
C444 C 0.60278 0.97735 0.04541 0.0
N445 N 0.58299 0.95182 0.03782 0.0
C446 C 0.59114 0.97176 0.05219 0.0
C447 C 0.60436 0.96998 0.03477 0.0
C448 C 0.58124 0.95883 0.04821 0.0
C449 C 0.59424 0.95709 0.03108 0.0
C450 C 0.65007 0.01922 0.06855 0.0
C451 C 0.65977 0.04189 0.07748 0.0
N452 N 0.66729 0.03994 0.08695 0.0
C453 C 0.6579 0.01743 0.07834 0.0
C454 C 0.65101 0.03154 0.06808 0.0
C455 C 0.66654 0.02803 0.08756 0.0
C456 C 0.64479 0.97987 0.04774 0.0
N457 N 0.63345 0.97866 0.05196 0.0
C458 C 0.62882 0.9595 0.06381 0.0
C459 C 0.62542 0.96872 0.05979 0.0
C460 C 0.64063 0.96065 0.05982 0.0
C461 C 0.64857 0.9709 0.05151 0.0
H462 H 0.65108 0.98805 0.04175 0.0
H463 H 0.61656 0.96814 0.06319 0.0
C464 C 0.61194 0.01961 0.0717 0.0
N465 N 0.61874 0.01317 0.07268 0.0
C466 C 0.60646 0.02174 0.08337 0.0
C467 C 0.61539 0.01084 0.0968 0.0
C468 C 0.62067 0.00892 0.0849 0.0
C469 C 0.60795 0.0171 0.09608 0.0
H470 H 0.61045 0.02273 0.06178 0.0
H471 H 0.62605 0.00375 0.0853 0.0
C472 C 0.63843 0.99673 0.01655 0.0
N473 N 0.64638 0.99285 0.99117 0.0
C474 C 0.6438 0.00696 0.0076 0.0
C475 C 0.63718 0.98454 0.01261 0.0
C476 C 0.64775 0.0048 0.99481 0.0
C477 C 0.64123 0.98277 -0.00027 0.0
C478 C 0.62889 0.02901 0.03249 0.0
C479 C 0.62835 0.02758 0.01803 0.0
C480 C 0.6313 0.04095 0.03898 0.0
C481 C 0.63039 0.03816 0.01031 0.0
C482 C 0.63329 0.05131 0.03089 0.0
N483 N 0.63281 0.04972 0.01685 0.0
C484 C 0.59776 0.99965 0.01831 0.0
C485 C 0.60596 0.98781 0.00599 0.0
C486 C 0.58864 0.99708 0.00734 0.0
N487 N 0.60629 0.99518 0.01735 0.0
C488 C 0.59701 0.98502 0.99476 0.0
C489 C 0.58831 0.98983 0.99528 0.0
H490 H 0.59828 0.0055 0.0275 0.0
H491 H 0.61271 0.9842 0.00554 0.0
C492 C 0.66762 0.02392 0.03821 0.0
N493 N 0.65887 0.02797 0.03582 0.0
C494 C 0.68018 0.03095 0.03355 0.0
C495 C 0.6747 0.04651 0.0244 0.0
C496 C 0.66224 0.03923 0.02939 0.0
C497 C 0.68375 0.04219 0.02615 0.0
H498 H 0.66464 0.01491 0.04335 0.0
H499 H 0.65516 0.04229 0.02757 0.0
O500 O 0.61252 0.99002 0.04918 0.0
O501 O 0.64159 0.00893 0.05944 0.0
O502 O 0.63463 0.99864 0.0292 0.0
O503 O 0.62683 0.01877 0.0403 0.0
H504 H 0.58977 0.97736 0.06044 0.0
H505 H 0.6133 0.97415 0.02942 0.0
H506 H 0.57217 0.95436 0.05337 0.0
H507 H 0.59534 0.95127 0.02286 0.0
H508 H 0.66059 0.05147 0.07725 0.0
H509 H 0.65729 0.00795 0.0788 0.0
H510 H 0.64505 0.0331 0.06056 0.0
H511 H 0.67266 0.0268 0.09521 0.0
H512 H 0.6224 0.95171 0.07016 0.0
H513 H 0.65786 0.97231 0.04843 0.0
H514 H 0.60068 0.02647 0.08232 0.0
H515 H 0.61693 0.00727 0.10641 0.0
H516 H 0.64501 0.0165 0.01049 0.0
H517 H 0.6331 0.97651 0.01941 0.0
H518 H 0.65193 0.01264 0.9878 0.0
H519 H 0.64028 0.97337 0.99655 0.0
H520 H 0.62642 0.01842 0.0128 0.0
H521 H 0.63163 0.0422 0.05016 0.0
H522 H 0.63005 0.03719 0.99912 0.0
H523 H 0.63521 0.06061 0.03579 0.0
H524 H 0.5822 0.00109 0.00812 0.0
H525 H 0.59695 0.97921 0.98575 0.0
H526 H 0.6869 0.02739 0.03542 0.0
H527 H 0.67696 0.05505 0.01866 0.0
Li528 Li 0.65914 0.68688 0.34519 0.0
Li529 Li 0.68014 0.69879 0.36008 0.0
Li530 Li 0.66207 0.70419 0.36151 0.0
Li531 Li 0.67496 0.70965 0.34207 0.0
C532 C 0.65449 0.67461 0.36836 0.0
N533 N 0.63976 0.64803 0.37274 0.0
C534 C 0.66068 0.66752 0.37167 0.0
C535 C 0.6408 0.66819 0.3674 0.0
C536 C 0.65306 0.65409 0.37383 0.0
C537 C 0.63353 0.65474 0.36961 0.0
C538 C 0.68293 0.69581 0.32769 0.0
C539 C 0.70198 0.70474 0.3143 0.0
N540 N 0.69404 0.70027 0.30245 0.0
C541 C 0.67495 0.69126 0.31539 0.0
C542 C 0.69655 0.70258 0.32718 0.0
C543 C 0.68076 0.69363 0.30273 0.0
C544 C 0.6364 0.66767 0.32884 0.0
N545 N 0.64758 0.6701 0.33594 0.0
C546 C 0.6431 0.64826 0.32977 0.0
C547 C 0.65115 0.66079 0.33635 0.0
C548 C 0.63138 0.64535 0.32248 0.0
C549 C 0.62809 0.65529 0.32201 0.0
H550 H 0.63399 0.67538 0.32835 0.0
H551 H 0.66025 0.66311 0.34185 0.0
C552 C 0.69465 0.69945 0.38404 0.0
N553 N 0.69269 0.69644 0.37014 0.0
C554 C 0.70293 0.69663 0.39192 0.0
C555 C 0.70719 0.68791 0.37096 0.0
C556 C 0.69876 0.69081 0.36351 0.0
C557 C 0.70925 0.69069 0.38538 0.0
H558 H 0.68954 0.70379 0.38902 0.0
H559 H 0.69675 0.68822 0.35249 0.0
C560 C 0.64654 0.70499 0.34296 0.0
N561 N 0.62829 0.71277 0.34636 0.0
C562 C 0.64971 0.7179 0.34056 0.0
C563 C 0.63407 0.69604 0.34707 0.0
C564 C 0.64034 0.72163 0.34232 0.0
C565 C 0.62499 0.70017 0.34875 0.0
C566 C 0.69192 0.72877 0.36098 0.0
C567 C 0.69004 0.73908 0.35719 0.0
C568 C 0.70461 0.73127 0.36419 0.0
C569 C 0.70092 0.75172 0.35657 0.0
C570 C 0.71523 0.74406 0.36347 0.0
N571 N 0.71319 0.75393 0.3597 0.0
C572 C 0.64602 0.7012 0.38375 0.0
C573 C 0.65603 0.72231 0.3747 0.0
C574 C 0.64026 0.70522 0.39369 0.0
N575 N 0.65375 0.70975 0.37453 0.0
C576 C 0.65039 0.72672 0.38437 0.0
C577 C 0.64248 0.71817 0.39412 0.0
H578 H 0.64448 0.69132 0.38355 0.0
H579 H 0.66232 0.72897 0.3674 0.0
C580 C 0.67364 0.72051 0.31738 0.0
N581 N 0.68235 0.72158 0.32761 0.0
C582 C 0.67785 0.72869 0.30641 0.0
C583 C 0.70009 0.73863 0.31629 0.0
C584 C 0.69543 0.73016 0.32706 0.0
C585 C 0.69122 0.73802 0.30584 0.0
H586 H 0.66335 0.71327 0.31774 0.0
H587 H 0.70228 0.73043 0.3349 0.0
O588 O 0.66178 0.68772 0.36595 0.0
O589 O 0.67741 0.69391 0.34017 0.0
O590 O 0.65566 0.7012 0.34153 0.0
O591 O 0.68141 0.71633 0.3618 0.0
H592 H 0.67124 0.67229 0.37246 0.0
H593 H 0.63584 0.67349 0.36483 0.0
H594 H 0.65772 0.64847 0.37633 0.0
H595 H 0.62293 0.64964 0.3688 0.0
H596 H 0.71251 0.71005 0.31373 0.0
H597 H 0.66438 0.6861 0.31563 0.0
H598 H 0.70286 0.70632 0.33661 0.0
H599 H 0.67471 0.69024 0.29312 0.0
H600 H 0.64599 0.6409 0.33054 0.0
H601 H 0.6193 0.6536 0.31627 0.0
H602 H 0.70433 0.699 0.40301 0.0
H603 H 0.7117 0.68313 0.36555 0.0
H604 H 0.65936 0.72504 0.3376 0.0
H605 H 0.63147 0.68605 0.34907 0.0
H606 H 0.64269 0.73161 0.34057 0.0
H607 H 0.61533 0.69336 0.35199 0.0
H608 H 0.68034 0.7373 0.35444 0.0
H609 H 0.70626 0.72343 0.36716 0.0
H610 H 0.69962 0.75977 0.35353 0.0
H611 H 0.72511 0.74613 0.3659 0.0
H612 H 0.63418 0.69831 0.401 0.0
H613 H 0.65253 0.73684 0.38447 0.0
H614 H 0.67066 0.7279 0.2986 0.0
H615 H 0.71051 0.74549 0.31608 0.0
Li616 Li 0.28415 0.95583 0.3802 0.0
Li617 Li 0.2893 0.94801 0.4031 0.0
Li618 Li 0.29837 0.97137 0.399 0.0
Li619 Li 0.30595 0.95939 0.38689 0.0
C620 C 0.27442 0.96394 0.40654 0.0
N621 N 0.2649 0.97763 0.42113 0.0
C622 C 0.27654 0.96593 0.42095 0.0
C623 C 0.26738 0.9688 0.39954 0.0
C624 C 0.27167 0.97292 0.42814 0.0
C625 C 0.26265 0.97572 0.40712 0.0
C626 C 0.29299 0.93441 0.37669 0.0
C627 C 0.29949 0.918 0.37661 0.0
N628 N 0.30142 0.91932 0.36286 0.0
C629 C 0.29494 0.93555 0.36255 0.0
C630 C 0.29521 0.92553 0.38379 0.0
C631 C 0.29925 0.92786 0.35575 0.0
C632 C 0.27633 0.95465 0.35249 0.0
N633 N 0.27163 0.95124 0.36518 0.0
C634 C 0.24956 0.9403 0.35539 0.0
C635 C 0.25855 0.94427 0.36687 0.0
C636 C 0.25413 0.94352 0.34209 0.0
C637 C 0.26772 0.95094 0.34077 0.0
H638 H 0.2868 0.96017 0.35148 0.0
H639 H 0.25512 0.94159 0.3771 0.0
C640 C 0.28629 0.93863 0.42968 0.0
N641 N 0.28195 0.93506 0.41615 0.0
C642 C 0.28073 0.92948 0.4397 0.0
C643 C 0.26624 0.9132 0.42165 0.0
C644 C 0.27215 0.92265 0.41196 0.0
C645 C 0.2705 0.9166 0.43573 0.0
H646 H 0.294 0.94864 0.4327 0.0
H647 H 0.26886 0.92016 0.40111 0.0
C648 C 0.3053 0.98448 0.3763 0.0
N649 N 0.31338 0.01037 0.37117 0.0
C650 C 0.31815 0.9945 0.3801 0.0
C651 C 0.29658 0.98761 0.36978 0.0
C652 C 0.32204 0.00753 0.37746 0.0
C653 C 0.30086 0.00076 0.36729 0.0
C654 C 0.31892 0.96363 0.41102 0.0
C655 C 0.3307 0.97518 0.40902 0.0
C656 C 0.31918 0.95305 0.41681 0.0
C657 C 0.34256 0.9759 0.41272 0.0
C658 C 0.33125 0.95418 0.42041 0.0
N659 N 0.34259 0.96547 0.41829 0.0
C660 C 0.31271 0.99212 0.41933 0.0
C661 C 0.29861 0.99581 0.40463 0.0
C662 C 0.31777 0.00458 0.42615 0.0
N663 N 0.30352 0.98809 0.40859 0.0
C664 C 0.3034 0.00836 0.41116 0.0
C665 C 0.31328 0.01297 0.42192 0.0
H666 H 0.31624 0.98572 0.42254 0.0
H667 H 0.29118 0.99236 0.39621 0.0
C668 C 0.32608 0.96892 0.36865 0.0
N669 N 0.32086 0.96024 0.37864 0.0
C670 C 0.33709 0.97054 0.36225 0.0
C671 C 0.33702 0.95391 0.37618 0.0
C672 C 0.32599 0.95264 0.38235 0.0
C673 C 0.34278 0.96306 0.36607 0.0
H674 H 0.32167 0.9746 0.36557 0.0
H675 H 0.32159 0.94563 0.39013 0.0
O676 O 0.27927 0.95731 0.3993 0.0
O677 O 0.28899 0.94201 0.38358 0.0
O678 O 0.30131 0.97165 0.37881 0.0
O679 O 0.3072 0.96275 0.40747 0.0
H680 H 0.282 0.96225 0.42649 0.0
H681 H 0.26571 0.96737 0.38838 0.0
H682 H 0.27331 0.97463 0.43928 0.0
H683 H 0.25724 0.97961 0.40184 0.0
H684 H 0.30132 0.91114 0.38198 0.0
H685 H 0.29329 0.94241 0.35693 0.0
H686 H 0.2938 0.92459 0.39476 0.0
H687 H 0.3009 0.9287 0.34483 0.0
H688 H 0.23918 0.93447 0.35687 0.0
H689 H 0.2717 0.95383 0.33077 0.0
H690 H 0.28417 0.93254 0.45047 0.0
H691 H 0.25844 0.90335 0.41816 0.0
H692 H 0.32504 0.99224 0.3851 0.0
H693 H 0.28657 0.98001 0.36686 0.0
H694 H 0.33194 0.01539 0.38043 0.0
H695 H 0.2942 0.00334 0.36234 0.0
H696 H 0.33068 0.98347 0.40459 0.0
H697 H 0.31018 0.944 0.41832 0.0
H698 H 0.35175 0.98475 0.41116 0.0
H699 H 0.3316 0.94604 0.42482 0.0
H700 H 0.32516 0.00762 0.4346 0.0
H701 H 0.29968 0.01452 0.40752 0.0
H702 H 0.34102 0.97748 0.35427 0.0
H703 H 0.34109 0.94794 0.37943 0.0
Li704 Li 0.05047 0.32086 0.34205 0.0
Li705 Li 0.05719 0.33099 0.36564 0.0
Li706 Li 0.03406 0.3165 0.3585 0.0
Li707 Li 0.0459 0.33838 0.34993 0.0
C708 C 0.04252 0.29846 0.35682 0.0
N709 N 0.03123 0.27152 0.35117 0.0
C710 C 0.04568 0.29107 0.36542 0.0
C711 C 0.03361 0.29215 0.34534 0.0
C712 C 0.03987 0.27746 0.36239 0.0
C713 C 0.02802 0.27853 0.34266 0.0
C714 C 0.07568 0.34821 0.34611 0.0
C715 C 0.0938 0.37056 0.34586 0.0
N716 N 0.10162 0.36583 0.34184 0.0
C717 C 0.08387 0.34358 0.34182 0.0
C718 C 0.08064 0.36182 0.34801 0.0
C719 C 0.09697 0.35264 0.33978 0.0
C720 C 0.05299 0.31751 0.31383 0.0
N721 N 0.05549 0.31449 0.32655 0.0
C722 C 0.06639 0.30397 0.31673 0.0
C723 C 0.06194 0.30776 0.3282 0.0
C724 C 0.06418 0.30717 0.30345 0.0
C725 C 0.05723 0.3139 0.30207 0.0
H726 H 0.04795 0.323 0.31289 0.0
H727 H 0.0639 0.3056 0.33847 0.0
C728 C 0.06607 0.33679 0.39372 0.0
N729 N 0.07 0.33632 0.38079 0.0
C730 C 0.07504 0.34123 0.40519 0.0
C731 C 0.09182 0.34384 0.39001 0.0
C732 C 0.08253 0.33949 0.37878 0.0
C733 C 0.08813 0.34492 0.40339 0.0
H734 H 0.05595 0.33376 0.39514 0.0
H735 H 0.08534 0.33863 0.36851 0.0
C736 C 0.02263 0.32101 0.33497 0.0
N737 N -0.0002 0.32052 0.32674 0.0
C738 C 0.01617 0.32458 0.3445 0.0
C739 C 0.01746 0.31718 0.32126 0.0
C740 C 0.00465 0.32427 0.34013 0.0
C741 C 0.00591 0.317 0.3173 0.0
C742 C 0.04513 0.34446 0.37798 0.0
C743 C 0.03572 0.34407 0.38657 0.0
C744 C 0.05743 0.35592 0.37819 0.0
C745 C 0.03879 0.3552 0.39522 0.0
C746 C 0.06013 0.36683 0.38699 0.0
N747 N 0.05083 0.36626 0.39525 0.0
C748 C 0.01612 0.30513 0.37857 0.0
C749 C 0.00746 0.29527 0.35594 0.0
C750 C 0.00384 0.29764 0.3838 0.0
N751 N 0.01762 0.30402 0.36484 0.0
C752 C 0.99498 0.28761 0.36072 0.0
C753 C 0.993 0.28897 0.37478 0.0
H754 H 0.02441 0.31215 0.38539 0.0
H755 H 0.00892 0.29464 0.34504 0.0
C756 C 0.05067 0.35866 0.33251 0.0
N757 N 0.04464 0.35296 0.34406 0.0
C758 C 0.04949 0.36896 0.32735 0.0
C759 C 0.03596 0.36735 0.34613 0.0
C760 C 0.03737 0.35707 0.35087 0.0
C761 C 0.04197 0.37337 0.33415 0.0
H762 H 0.05624 0.35504 0.32718 0.0
H763 H 0.03242 0.35222 0.35985 0.0
O764 O 0.04813 0.31178 0.35973 0.0
O765 O 0.06275 0.3395 0.34791 0.0
O766 O 0.03396 0.32125 0.33894 0.0
O767 O 0.04219 0.33367 0.36937 0.0
H768 H 0.05255 0.29581 0.37435 0.0
H769 H 0.03106 0.29768 0.33854 0.0
H770 H 0.04223 0.27162 0.36896 0.0
H771 H 0.02112 0.27352 0.33381 0.0
H772 H 0.09777 0.38111 0.34734 0.0
H773 H 0.08021 0.33311 0.34026 0.0
H774 H 0.0744 0.36563 0.35102 0.0
H775 H 0.10344 0.34918 0.33657 0.0
H776 H 0.07161 0.29871 0.31824 0.0
H777 H 0.05548 0.31674 0.29207 0.0
H778 H 0.07175 0.34162 0.4154 0.0
H779 H 0.10181 0.3465 0.38822 0.0
H780 H 0.01997 0.3275 0.35516 0.0
H781 H 0.02234 0.31438 0.31376 0.0
H782 H 0.99955 0.327 0.3474 0.0
H783 H 0.0018 0.31406 0.30672 0.0
H784 H 0.02612 0.33529 0.38648 0.0
H785 H 0.06483 0.35632 0.37172 0.0
H786 H 0.0316 0.35505 0.40189 0.0
H787 H 0.06962 0.37576 0.38727 0.0
H788 H 0.00281 0.29882 0.39475 0.0
H789 H 0.98689 0.28113 0.35338 0.0
H790 H 0.05412 0.37317 0.31796 0.0
H791 H 0.03017 0.3705 0.35178 0.0
Li792 Li 0.67354 0.97737 0.38305 0.0
Li793 Li 0.65907 0.95419 0.38804 0.0
Li794 Li 0.67122 0.9601 0.36774 0.0
Li795 Li 0.65364 0.96436 0.36888 0.0
C796 C 0.68975 0.96418 0.38592 0.0
N797 N 0.71259 0.96397 0.38174 0.0
C798 C 0.6907 0.95316 0.38896 0.0
C799 C 0.70044 0.97513 0.38083 0.0
C800 C 0.70233 0.95323 0.38675 0.0
C801 C 0.7119 0.97482 0.37877 0.0
C802 C 0.65691 0.97705 0.40037 0.0
C803 C 0.65431 0.99423 0.41154 0.0
N804 N 0.66157 0.99445 0.42287 0.0
C805 C 0.66429 0.97739 0.41215 0.0
C806 C 0.65182 0.98549 0.40007 0.0
C807 C 0.66656 0.98627 0.42341 0.0
C808 C 0.68303 0.00455 0.38657 0.0
N809 N 0.68482 0.99473 0.39107 0.0
C810 C 0.70191 0.00981 0.40756 0.0
C811 C 0.694 0.99708 0.40135 0.0
C812 C 0.70026 0.02017 0.40318 0.0
C813 C 0.69067 0.01741 0.39254 0.0
H814 H 0.67557 0.00232 0.37842 0.0
H815 H 0.69506 0.98902 0.40485 0.0
C816 C 0.654 0.93091 0.39957 0.0
N817 N 0.6523 0.94145 0.40146 0.0
C818 C 0.64972 0.92128 0.40919 0.0
C819 C 0.64164 0.93333 0.42231 0.0
C820 C 0.64601 0.94269 0.41237 0.0
C821 C 0.6436 0.92252 0.42085 0.0
H822 H 0.6588 0.93006 0.39062 0.0
H823 H 0.64441 0.95095 0.41341 0.0
C824 C 0.67051 0.97683 0.3487 0.0
N825 N 0.66866 0.97798 0.32031 0.0
C826 C 0.66305 0.96524 0.34018 0.0
C827 C 0.677 0.98899 0.34278 0.0
C828 C 0.66225 0.96603 0.32585 0.0
C829 C 0.67596 0.98937 0.3284 0.0
C830 C 0.63985 0.93668 0.36856 0.0
C831 C 0.63571 0.92496 0.36046 0.0
C832 C 0.63093 0.93797 0.37661 0.0
C833 C 0.62269 0.91473 0.3605 0.0
C834 C 0.61801 0.92751 0.37637 0.0
N835 N 0.61419 0.91621 0.36839 0.0
C836 C 0.67611 0.94119 0.35555 0.0
C837 C 0.68976 0.96269 0.34812 0.0
C838 C 0.68195 0.93608 0.34699 0.0
N839 N 0.68002 0.95424 0.35588 0.0
C840 C 0.69581 0.95799 0.33933 0.0
C841 C 0.69186 0.9445 0.33864 0.0
H842 H 0.66838 0.93474 0.36191 0.0
H843 H 0.6928 0.97307 0.34873 0.0
C844 C 0.64083 0.97732 0.35987 0.0
N845 N 0.64043 0.96557 0.35838 0.0
C846 C 0.63208 0.9795 0.352 0.0
C847 C 0.62283 0.95753 0.34094 0.0
C848 C 0.63175 0.95577 0.34905 0.0
C849 C 0.62293 0.96954 0.34233 0.0
H850 H 0.64814 0.9851 0.367 0.0
H851 H 0.63194 0.94671 0.34762 0.0
O852 O 0.67834 0.96417 0.38764 0.0
O853 O 0.65496 0.9687 0.38909 0.0
O854 O 0.6714 0.97642 0.36279 0.0
O855 O 0.65261 0.94669 0.36864 0.0
H856 H 0.68253 0.94461 0.39292 0.0
H857 H 0.69981 0.98368 0.37826 0.0
H858 H 0.70318 0.94474 0.38899 0.0
H859 H 0.72022 0.98319 0.37475 0.0
H860 H 0.65047 0.00085 0.41143 0.0
H861 H 0.66841 0.97101 0.4125 0.0
H862 H 0.64601 0.98531 0.39111 0.0
H863 H 0.67233 0.9867 0.43254 0.0
H864 H 0.70907 0.01148 0.41585 0.0
H865 H 0.68917 0.02514 0.38877 0.0
H866 H 0.65149 0.91314 0.4077 0.0
H867 H 0.63676 0.93452 0.43103 0.0
H868 H 0.65793 0.95573 0.34452 0.0
H869 H 0.68278 0.99806 0.34924 0.0
H870 H 0.65652 0.95714 0.31914 0.0
H871 H 0.68093 0.99872 0.32369 0.0
H872 H 0.64249 0.9238 0.3542 0.0
H873 H 0.6339 0.94692 0.38296 0.0
H874 H 0.61936 0.90561 0.35427 0.0
H875 H 0.61101 0.92838 0.38253 0.0
H876 H 0.67851 0.9256 0.34666 0.0
H877 H 0.70352 0.96482 0.33316 0.0
H878 H 0.63249 0.98889 0.35349 0.0
H879 H 0.61616 0.9497 0.3334 0.0
Li880 Li 0.04878 0.7176 0.3538 0.0
Li881 Li 0.02541 0.71021 0.34629 0.0
Li882 Li 0.03726 0.70194 0.33414 0.0
Li883 Li 0.04299 0.72439 0.33193 0.0
C884 C 0.02947 0.68711 0.35525 0.0
N885 N 0.02257 0.66098 0.35677 0.0
C886 C 0.01649 0.67706 0.35212 0.0
C887 C 0.0389 0.6839 0.35933 0.0
C888 C 0.01321 0.6639 0.3529 0.0
C889 C 0.03522 0.67062 0.36 0.0
C890 C 0.03641 0.73776 0.3513 0.0
C891 C 0.02207 0.74518 0.34253 0.0
N892 N 0.02861 0.7563 0.35118 0.0
C893 C 0.043 0.74926 0.36009 0.0
C894 C 0.02586 0.73569 0.34244 0.0
C895 C 0.0389 0.75851 0.35988 0.0
C896 C 0.07345 0.73367 0.36787 0.0
N897 N 0.06119 0.7233 0.36909 0.0
C898 C 0.06667 0.7213 0.39249 0.0
C899 C 0.05764 0.71709 0.38105 0.0
C900 C 0.07945 0.732 0.39159 0.0
C901 C 0.08281 0.73817 0.37903 0.0
H902 H 0.07596 0.7384 0.3582 0.0
H903 H 0.04777 0.70892 0.38171 0.0
C904 C 0.99803 0.69639 0.34496 0.0
N905 N 0.00887 0.7055 0.35278 0.0
C906 C 0.98562 0.69155 0.34995 0.0
C907 C 0.9958 0.70593 0.37075 0.0
C908 C 0.00802 0.71042 0.36539 0.0
C909 C 0.98442 0.6962 0.36309 0.0
H910 H 0.99906 0.6926 0.335 0.0
H911 H 0.01686 0.71757 0.37142 0.0
C912 C 0.0652 0.71599 0.33175 0.0
N913 N 0.08605 0.71302 0.32481 0.0
C914 C 0.0702 0.71914 0.3187 0.0
C915 C 0.07097 0.71155 0.34135 0.0
C916 C 0.08069 0.7175 0.31536 0.0
C917 C 0.08145 0.71005 0.33762 0.0
C918 C 0.0243 0.70697 0.31195 0.0
C919 C 0.03412 0.70738 0.30406 0.0
C920 C 0.01283 0.70529 0.30533 0.0
C921 C 0.03232 0.70612 0.28962 0.0
C922 C 0.01139 0.70407 0.29086 0.0
N923 N 0.02108 0.70451 0.28337 0.0
C924 C 0.02187 0.67792 0.3187 0.0
C925 C 0.04331 0.68209 0.32434 0.0
C926 C 0.01833 0.66569 0.31211 0.0
N927 N 0.0342 0.68588 0.32459 0.0
C928 C 0.04018 0.66991 0.31787 0.0
C929 C 0.02752 0.66152 0.31169 0.0
H930 H 0.01468 0.68096 0.31934 0.0
H931 H 0.05289 0.68828 0.32943 0.0
C932 C 0.06268 0.74639 0.32045 0.0
N933 N 0.04945 0.73859 0.32018 0.0
C934 C 0.06839 0.75656 0.31153 0.0
C935 C 0.0467 0.75072 0.30245 0.0
C936 C 0.04141 0.74063 0.31157 0.0
C937 C 0.06038 0.75876 0.30226 0.0
H938 H 0.06882 0.74453 0.32743 0.0
H939 H 0.0309 0.73435 0.31166 0.0
O940 O 0.03295 0.70003 0.35411 0.0
O941 O 0.04037 0.72866 0.35135 0.0
O942 O 0.05513 0.71784 0.3353 0.0
O943 O 0.02589 0.70835 0.32611 0.0
H944 H 0.00908 0.67938 0.34892 0.0
H945 H 0.04896 0.69157 0.36185 0.0
H946 H 0.00323 0.65601 0.35038 0.0
H947 H 0.04244 0.66799 0.36305 0.0
H948 H 0.01393 0.74371 0.33572 0.0
H949 H 0.0512 0.75101 0.36699 0.0
H950 H 0.02066 0.72687 0.33553 0.0
H951 H 0.04391 0.76746 0.36663 0.0
H952 H 0.06356 0.71639 0.40202 0.0
H953 H 0.09257 0.74634 0.3778 0.0
H954 H 0.97708 0.68415 0.34367 0.0
H955 H 0.9953 0.70966 0.38099 0.0
H956 H 0.0661 0.7229 0.31124 0.0
H957 H 0.06731 0.70913 0.35151 0.0
H958 H 0.08462 0.71985 0.30528 0.0
H959 H 0.08593 0.70653 0.34492 0.0
H960 H 0.043 0.70859 0.30902 0.0
H961 H 0.00516 0.705 0.31131 0.0
H962 H 0.03984 0.70641 0.28339 0.0
H963 H 0.00257 0.70279 0.28559 0.0
H964 H 0.00848 0.65959 0.30741 0.0
H965 H 0.04749 0.66697 0.31804 0.0
H966 H 0.07897 0.76238 0.31161 0.0
H967 H 0.04017 0.75217 0.2956 0.0
Li968 Li 0.288 0.34461 0.38923 0.0
Li969 Li 0.29541 0.33006 0.38209 0.0
Li970 Li 0.30414 0.35049 0.37196 0.0
Li971 Li 0.28115 0.3324 0.3658 0.0
C972 C 0.3136 0.35981 0.39879 0.0
N973 N 0.32893 0.3841 0.41318 0.0
C974 C 0.32251 0.36134 0.4096 0.0
C975 C 0.31248 0.37065 0.39532 0.0
C976 C 0.33017 0.3737 0.41674 0.0
C977 C 0.32032 0.38285 0.40271 0.0
C978 C 0.27097 0.3139 0.39052 0.0
C979 C 0.25537 0.29053 0.38981 0.0
N980 N 0.25883 0.29042 0.40333 0.0
C981 C 0.2743 0.31359 0.40443 0.0
C982 C 0.26138 0.30232 0.38314 0.0
C983 C 0.26808 0.3016 0.41072 0.0
C984 C 0.27392 0.35526 0.40227 0.0
N985 N 0.2823 0.3507 0.40436 0.0
C986 C 0.28218 0.3536 0.42888 0.0
C987 C 0.28655 0.34991 0.41731 0.0
C988 C 0.27331 0.35812 0.42712 0.0
C989 C 0.2693 0.35909 0.41358 0.0
H990 H 0.27065 0.35569 0.39183 0.0
H991 H 0.29324 0.34625 0.41864 0.0
C992 C 0.31366 0.32464 0.39382 0.0
N993 N 0.30102 0.31839 0.38851 0.0
C994 C 0.31929 0.31739 0.39829 0.0
C995 C 0.29888 0.29731 0.39156 0.0
C996 C 0.29362 0.30496 0.38724 0.0
C997 C 0.31188 0.30353 0.3972 0.0
H998 H 0.31947 0.3353 0.39433 0.0
H999 H 0.28373 0.30015 0.38264 0.0
C1000 C 0.28675 0.35767 0.35937 0.0
N1001 N 0.28415 0.36922 0.33609 0.0
C1002 C 0.28982 0.35453 0.34648 0.0
C1003 C 0.28235 0.36667 0.36041 0.0
C1004 C 0.28844 0.36047 0.33484 0.0
C1005 C 0.28112 0.37242 0.34853 0.0
C1006 C 0.29972 0.323 0.35785 0.0
C1007 C 0.31244 0.32547 0.35636 0.0
C1008 C 0.28909 0.31015 0.35525 0.0
C1009 C 0.31432 0.315 0.35241 0.0
C1010 C 0.29137 0.29996 0.35127 0.0
N1011 N 0.30384 0.30257 0.34997 0.0
C1012 C 0.33043 0.36242 0.36839 0.0
C1013 C 0.32139 0.37437 0.35835 0.0
C1014 C 0.34257 0.37082 0.36334 0.0
N1015 N 0.32006 0.36408 0.3655 0.0
C1016 C 0.33337 0.38298 0.35298 0.0
C1017 C 0.34407 0.38107 0.35524 0.0
H1018 H 0.32914 0.35434 0.3744 0.0
H1019 H 0.31319 0.37585 0.35661 0.0
C1020 C 0.25551 0.32284 0.35401 0.0
N1021 N 0.26746 0.32451 0.35155 0.0
C1022 C 0.24556 0.31782 0.34339 0.0
C1023 C 0.26037 0.31611 0.32804 0.0
C1024 C 0.27004 0.32127 0.33889 0.0
C1025 C 0.24797 0.31442 0.33019 0.0
H1026 H 0.2538 0.32563 0.36417 0.0
H1027 H 0.27971 0.32297 0.33713 0.0
O1028 O 0.30603 0.3477 0.39178 0.0
O1029 O 0.27689 0.32551 0.38417 0.0
O1030 O 0.28775 0.35179 0.37089 0.0
O1031 O 0.29767 0.33306 0.36198 0.0
H1032 H 0.32347 0.35305 0.41248 0.0
H1033 H 0.30565 0.36973 0.38704 0.0
H1034 H 0.3371 0.37501 0.42513 0.0
H1035 H 0.31955 0.39131 0.40012 0.0
H1036 H 0.24797 0.28147 0.38422 0.0
H1037 H 0.28172 0.32247 0.41026 0.0
H1038 H 0.25866 0.30243 0.37237 0.0
H1039 H 0.27062 0.30119 0.42146 0.0
H1040 H 0.28567 0.35287 0.43912 0.0
H1041 H 0.26237 0.36241 0.41177 0.0
H1042 H 0.32943 0.32259 0.40231 0.0
H1043 H 0.29281 0.28664 0.39057 0.0
H1044 H 0.29337 0.3477 0.34548 0.0
H1045 H 0.27991 0.36918 0.3703 0.0
H1046 H 0.2908 0.35815 0.32481 0.0
H1047 H 0.27773 0.3794 0.34918 0.0
H1048 H 0.32078 0.33533 0.35826 0.0
H1049 H 0.27919 0.30801 0.35657 0.0
H1050 H 0.32412 0.31676 0.35129 0.0
H1051 H 0.28324 0.28996 0.34933 0.0
H1052 H 0.35055 0.36897 0.36529 0.0
H1053 H 0.33422 0.39093 0.34699 0.0
H1054 H 0.23612 0.31664 0.34546 0.0
H1055 H 0.26272 0.31387 0.31795 0.0
Li1056 Li 0.32539 0.0208 0.67659 0.0
Li1057 Li 0.34626 0.03293 0.69019 0.0
Li1058 Li 0.32869 0.03771 0.69375 0.0
Li1059 Li 0.34096 0.04389 0.67297 0.0
C1060 C 0.32363 0.01822 0.70931 0.0
N1061 N 0.31364 0.01358 0.73516 0.0
C1062 C 0.33192 0.0208 0.72113 0.0
C1063 C 0.31025 0.01322 0.71064 0.0
C1064 C 0.32668 0.01839 0.73411 0.0
C1065 C 0.30539 0.01097 0.7238 0.0
C1066 C 0.35169 0.02417 0.66757 0.0
C1067 C 0.37372 0.02841 0.66577 0.0
N1068 N 0.369 0.01517 0.66423 0.0
C1069 C 0.34704 0.01061 0.66592 0.0
C1070 C 0.36512 0.03315 0.66743 0.0
C1071 C 0.35596 0.00626 0.66425 0.0
C1072 C 0.31269 0.0023 0.65365 0.0
N1073 N 0.31319 0.00406 0.66767 0.0
C1074 C 0.29675 0.98148 0.66924 0.0
C1075 C 0.30551 0.99398 0.67551 0.0
C1076 C 0.29596 0.97933 0.65477 0.0
C1077 C 0.30406 0.98995 0.64694 0.0
H1078 H 0.31907 0.01048 0.64771 0.0
H1079 H 0.30632 0.99558 0.68665 0.0
C1080 C 0.37045 0.04164 0.70561 0.0
N1081 N 0.35948 0.03097 0.69952 0.0
C1082 C 0.37963 0.03994 0.7133 0.0
C1083 C 0.3661 0.01635 0.70816 0.0
C1084 C 0.35716 0.0185 0.70065 0.0
C1085 C 0.37746 0.02714 0.71475 0.0
H1086 H 0.3719 0.05143 0.70478 0.0
H1087 H 0.34822 0.01019 0.6959 0.0
C1088 C 0.31119 0.02951 0.6652 0.0
N1089 N 0.28993 0.01654 0.64612 0.0
C1090 C 0.31277 0.03179 0.65116 0.0
C1091 C 0.29878 0.02069 0.66956 0.0
C1092 C 0.3019 0.02513 0.64167 0.0
C1093 C 0.28816 0.01421 0.65974 0.0
C1094 C 0.35517 0.06352 0.69147 0.0
C1095 C 0.35032 0.07181 0.69508 0.0
C1096 C 0.36756 0.06886 0.68626 0.0
C1097 C 0.35793 0.08533 0.69331 0.0
C1098 C 0.37486 0.08242 0.68461 0.0
N1099 N 0.36993 0.0903 0.68814 0.0
C1100 C 0.3276 0.04778 0.71997 0.0
C1101 C 0.30983 0.04347 0.70428 0.0
C1102 C 0.32274 0.05235 0.73034 0.0
N1103 N 0.32108 0.04339 0.70729 0.0
C1104 C 0.30465 0.04809 0.71434 0.0
C1105 C 0.31114 0.05259 0.72757 0.0
H1106 H 0.33668 0.04784 0.72195 0.0
H1107 H 0.30495 0.0401 0.69405 0.0
C1108 C 0.35543 0.05717 0.65001 0.0
N1109 N 0.34727 0.05683 0.65971 0.0
C1110 C 0.35947 0.06656 0.6401 0.0
C1111 C 0.34671 0.07507 0.65047 0.0
C1112 C 0.34286 0.06548 0.66008 0.0
C1113 C 0.35503 0.07563 0.64019 0.0
H1114 H 0.35863 0.05002 0.64984 0.0
H1115 H 0.33625 0.06485 0.66782 0.0
O1116 O 0.32861 0.02075 0.69654 0.0
O1117 O 0.34315 0.02862 0.66947 0.0
O1118 O 0.32175 0.03572 0.67462 0.0
O1119 O 0.34776 0.05023 0.69287 0.0
H1120 H 0.34231 0.02476 0.72034 0.0
H1121 H 0.30371 0.01129 0.70162 0.0
H1122 H 0.33298 0.0204 0.74335 0.0
H1123 H 0.29508 0.0072 0.72498 0.0
H1124 H 0.38415 0.03525 0.66573 0.0
H1125 H 0.33669 0.00351 0.66608 0.0
H1126 H 0.36888 0.04367 0.66876 0.0
H1127 H 0.35251 0.9958 0.66303 0.0
H1128 H 0.29088 0.97351 0.6757 0.0
H1129 H 0.3037 0.98876 0.63575 0.0
H1130 H 0.38814 0.04853 0.71839 0.0
H1131 H 0.36409 0.00632 0.70884 0.0
H1132 H 0.32231 0.03851 0.64759 0.0
H1133 H 0.29741 0.01874 0.68037 0.0
H1134 H 0.30299 0.02675 0.63076 0.0
H1135 H 0.27853 0.00729 0.66295 0.0
H1136 H 0.34072 0.06785 0.69906 0.0
H1137 H 0.37144 0.06258 0.68336 0.0
H1138 H 0.35427 0.09185 0.69599 0.0
H1139 H 0.38443 0.08667 0.6805 0.0
H1140 H 0.32817 0.05598 0.74032 0.0
H1141 H 0.29568 0.04811 0.71181 0.0
H1142 H 0.36573 0.06649 0.63226 0.0
H1143 H 0.34319 0.08196 0.65109 0.0
Li1144 Li 0.9767 0.28942 0.71362 0.0
Li1145 Li 0.96472 0.29789 0.7254 0.0
Li1146 Li 0.95964 0.2758 0.7287 0.0
Li1147 Li 0.95342 0.28157 0.70623 0.0
C1148 C 0.98813 0.30258 0.73926 0.0
N1149 N 0.0119 0.32359 0.74982 0.0
C1150 C 0.99399 0.31442 0.73268 0.0
C1151 C 0.99435 0.30143 0.75122 0.0
C1152 C 0.00601 0.32493 0.73817 0.0
C1153 C 0.00637 0.31216 0.75639 0.0
C1154 C 0.97021 0.3093 0.69818 0.0
C1155 C 0.96068 0.31961 0.68478 0.0
N1156 N 0.97291 0.32947 0.68233 0.0
C1157 C 0.98267 0.31948 0.69541 0.0
C1158 C 0.95911 0.3093 0.69272 0.0
C1159 C 0.98383 0.32961 0.68743 0.0
C1160 C 0.99359 0.29569 0.69249 0.0
N1161 N 0.99286 0.29364 0.70621 0.0
C1162 C 0.01531 0.29937 0.70829 0.0
C1163 C 0.00331 0.29513 0.71411 0.0
C1164 C 0.01645 0.30192 0.6942 0.0
C1165 C 0.00534 0.29984 0.68623 0.0
H1166 H 0.98509 0.29438 0.68648 0.0
H1167 H 0.00241 0.29323 0.72496 0.0
C1168 C 0.96896 0.31439 0.74917 0.0
N1169 N 0.9663 0.31321 0.73523 0.0
C1170 C 0.9708 0.32548 0.75706 0.0
C1171 C 0.96677 0.3338 0.73617 0.0
C1172 C 0.965 0.32255 0.7287 0.0
C1173 C 0.96984 0.33544 0.75053 0.0
H1174 H 0.96971 0.30672 0.75417 0.0
H1175 H 0.96265 0.32137 0.71772 0.0
C1176 C 0.967 0.26253 0.70949 0.0
N1177 N 0.97697 0.24576 0.70959 0.0
C1178 C 0.96323 0.25273 0.69878 0.0
C1179 C 0.97585 0.26382 0.72025 0.0
C1180 C 0.96838 0.24434 0.69901 0.0
C1181 C 0.98078 0.25524 0.72011 0.0
C1182 C 0.94049 0.28672 0.73177 0.0
C1183 C 0.93993 0.28605 0.74613 0.0
C1184 C 0.93477 0.2929 0.72476 0.0
C1185 C 0.93378 0.29176 0.75327 0.0
C1186 C 0.92871 0.29849 0.73228 0.0
N1187 N 0.92836 0.29782 0.74626 0.0
C1188 C 0.9575 0.26594 0.755 0.0
C1189 C 0.9455 0.24967 0.73666 0.0
C1190 C 0.95229 0.25644 0.76473 0.0
N1191 N 0.95387 0.26242 0.74132 0.0
C1192 C 0.94012 0.23983 0.74602 0.0
C1193 C 0.9433 0.24319 0.7603 0.0
H1194 H 0.96408 0.27621 0.75837 0.0
H1195 H 0.94276 0.2472 0.7257 0.0
C1196 C 0.94584 0.27762 0.67795 0.0
N1197 N 0.94117 0.2755 0.69077 0.0
C1198 C 0.9372 0.27347 0.6662 0.0
C1199 C 0.9191 0.26487 0.68108 0.0
C1200 C 0.92811 0.26926 0.69256 0.0
C1201 C 0.92363 0.267 0.66768 0.0
H1202 H 0.9563 0.28257 0.67689 0.0
H1203 H 0.92471 0.26772 0.70292 0.0
O1204 O 0.97638 0.2921 0.73409 0.0
O1205 O 0.96889 0.29914 0.70573 0.0
O1206 O 0.96207 0.27084 0.70934 0.0
O1207 O 0.94682 0.28155 0.72466 0.0
H1208 H 0.98929 0.3155 0.7235 0.0
H1209 H 0.98994 0.29231 0.75643 0.0
H1210 H 0.01064 0.33415 0.73319 0.0
H1211 H 0.0113 0.31141 0.76563 0.0
H1212 H 0.95218 0.31977 0.68058 0.0
H1213 H 0.99138 0.31955 0.69933 0.0
H1214 H 0.94939 0.30152 0.69471 0.0
H1215 H 0.99342 0.33757 0.68525 0.0
H1216 H 0.0236 0.30069 0.71474 0.0
H1217 H 0.00583 0.3018 0.67537 0.0
H1218 H 0.97292 0.32621 0.76814 0.0
H1219 H 0.96602 0.34126 0.73068 0.0
H1220 H 0.9564 0.25163 0.69036 0.0
H1221 H 0.9789 0.27135 0.72863 0.0
H1222 H 0.96555 0.2367 0.69079 0.0
H1223 H 0.98764 0.25613 0.72837 0.0
H1224 H 0.94435 0.28133 0.75171 0.0
H1225 H 0.9351 0.29348 0.71365 0.0
H1226 H 0.93336 0.29141 0.7644 0.0
H1227 H 0.92432 0.30339 0.727 0.0
H1228 H 0.95488 0.25954 0.77563 0.0
H1229 H 0.93338 0.22973 0.74212 0.0
H1230 H 0.9411 0.27513 0.65606 0.0
H1231 H 0.90872 0.26001 0.68267 0.0
Li1232 Li 0.70947 0.67288 0.68223 0.0
Li1233 Li 0.69991 0.6515 0.69054 0.0
Li1234 Li 0.72286 0.6676 0.69713 0.0
Li1235 Li 0.71508 0.65734 0.67235 0.0
C1236 C 0.70699 0.67674 0.71154 0.0
N1237 N 0.70641 0.69375 0.73172 0.0
C1238 C 0.6951 0.674 0.71684 0.0
C1239 C 0.71859 0.6881 0.71662 0.0
C1240 C 0.69501 0.68274 0.72699 0.0
C1241 C 0.71809 0.69658 0.72679 0.0
C1242 C 0.68535 0.65365 0.66889 0.0
C1243 C 0.66539 0.64464 0.65427 0.0
N1244 N 0.66028 0.64923 0.66387 0.0
C1245 C 0.67989 0.65827 0.6786 0.0
C1246 C 0.67804 0.64677 0.65662 0.0
C1247 C 0.66721 0.65594 0.67588 0.0
C1248 C 0.70239 0.68557 0.66298 0.0
N1249 N 0.70592 0.68636 0.67667 0.0
C1250 C 0.70192 0.70414 0.6811 0.0
C1251 C 0.70601 0.69561 0.68567 0.0
C1252 C 0.6978 0.70322 0.66712 0.0
C1253 C 0.6983 0.69395 0.65795 0.0
H1254 H 0.70243 0.67816 0.65601 0.0
H1255 H 0.70901 0.6963 0.69642 0.0
C1256 C 0.68397 0.63903 0.71185 0.0
N1257 N 0.68458 0.63795 0.69792 0.0
C1258 C 0.67237 0.63085 0.718 0.0
C1259 C 0.66243 0.62006 0.69543 0.0
C1260 C 0.67428 0.62846 0.68971 0.0
C1261 C 0.66128 0.62148 0.70971 0.0
H1262 H 0.6924 0.64657 0.71813 0.0
H1263 H 0.67508 0.62774 0.67866 0.0
C1264 C 0.73258 0.68796 0.67329 0.0
N1265 N 0.74216 0.71184 0.6614 0.0
C1266 C 0.7316 0.68829 0.6589 0.0
C1267 C 0.73855 0.69976 0.68163 0.0
C1268 C 0.73648 0.70047 0.65309 0.0
C1269 C 0.7433 0.71174 0.67542 0.0
C1270 C 0.70903 0.63584 0.69267 0.0
C1271 C 0.70912 0.63248 0.70634 0.0
C1272 C 0.70211 0.62591 0.68212 0.0
C1273 C 0.70217 0.61919 0.70925 0.0
C1274 C 0.69529 0.61273 0.68545 0.0
N1275 N 0.69545 0.60967 0.69883 0.0
C1276 C 0.73231 0.66954 0.72431 0.0
C1277 C 0.74907 0.68132 0.70911 0.0
C1278 C 0.74151 0.67385 0.73556 0.0
N1279 N 0.73622 0.67338 0.71145 0.0
C1280 C 0.75864 0.68582 0.72008 0.0
C1281 C 0.75487 0.68216 0.73354 0.0
H1282 H 0.722 0.66325 0.72582 0.0
H1283 H 0.75184 0.68426 0.69875 0.0
C1284 C 0.71347 0.65067 0.64386 0.0
N1285 N 0.71986 0.6517 0.6562 0.0
C1286 C 0.71743 0.64745 0.63163 0.0
C1287 C 0.73434 0.64622 0.64512 0.0
C1288 C 0.73003 0.64945 0.65709 0.0
C1289 C 0.72811 0.64533 0.63213 0.0
H1290 H 0.70549 0.65263 0.64349 0.0
H1291 H 0.73497 0.65046 0.66707 0.0
O1292 O 0.70726 0.66814 0.70177 0.0
O1293 O 0.69773 0.65573 0.67134 0.0
O1294 O 0.72754 0.67612 0.67917 0.0
O1295 O 0.71539 0.6488 0.68965 0.0
H1296 H 0.68603 0.6652 0.71317 0.0
H1297 H 0.72787 0.69044 0.71266 0.0
H1298 H 0.68588 0.68075 0.73115 0.0
H1299 H 0.72699 0.70542 0.73076 0.0
H1300 H 0.65962 0.63932 0.64483 0.0
H1301 H 0.68538 0.66361 0.68812 0.0
H1302 H 0.68208 0.64307 0.64902 0.0
H1303 H 0.66289 0.65948 0.68331 0.0
H1304 H 0.70187 0.71131 0.68846 0.0
H1305 H 0.69513 0.69285 0.6471 0.0
H1306 H 0.67199 0.63207 0.72909 0.0
H1307 H 0.65411 0.61298 0.68866 0.0
H1308 H 0.72699 0.67924 0.6523 0.0
H1309 H 0.73946 0.69968 0.69277 0.0
H1310 H 0.7357 0.70087 0.64197 0.0
H1311 H 0.74788 0.72095 0.68175 0.0
H1312 H 0.71438 0.64007 0.71462 0.0
H1313 H 0.70188 0.62837 0.6715 0.0
H1314 H 0.70209 0.61644 0.71979 0.0
H1315 H 0.68983 0.60493 0.67741 0.0
H1316 H 0.7382 0.67064 0.74572 0.0
H1317 H 0.76884 0.69227 0.71812 0.0
H1318 H 0.71226 0.64672 0.62188 0.0
H1319 H 0.74271 0.64486 0.64599 0.0
Li1320 Li 0.34288 0.31354 0.71786 0.0
Li1321 Li 0.32535 0.29068 0.72068 0.0
Li1322 Li 0.33808 0.29667 0.69935 0.0
Li1323 Li 0.32175 0.30317 0.70289 0.0
C1324 C 0.35523 0.30046 0.72714 0.0
N1325 N 0.37722 0.30673 0.74395 0.0
C1326 C 0.35394 0.29632 0.74062 0.0
C1327 C 0.3677 0.30763 0.72215 0.0
C1328 C 0.36518 0.29963 0.74897 0.0
C1329 C 0.3787 0.31076 0.73083 0.0
C1330 C 0.31795 0.30771 0.73411 0.0
C1331 C 0.29749 0.30183 0.74408 0.0
N1332 N 0.30419 0.30874 0.75611 0.0
C1333 C 0.32464 0.31488 0.74652 0.0
C1334 C 0.30427 0.30124 0.73282 0.0
C1335 C 0.31751 0.31523 0.75754 0.0
C1336 C 0.35818 0.34094 0.72069 0.0
N1337 N 0.35571 0.32992 0.72712 0.0
C1338 C 0.37018 0.34309 0.74654 0.0
C1339 C 0.36145 0.33076 0.73985 0.0
C1340 C 0.37283 0.35464 0.74017 0.0
C1341 C 0.36675 0.35346 0.72705 0.0
H1342 H 0.3533 0.34001 0.7107 0.0
H1343 H 0.35897 0.32191 0.74501 0.0
C1344 C 0.31304 0.26463 0.72854 0.0
N1345 N 0.31742 0.27728 0.73343 0.0
C1346 C 0.30794 0.25439 0.73748 0.0
C1347 C 0.31181 0.27036 0.7563 0.0
C1348 C 0.31692 0.28029 0.74702 0.0
C1349 C 0.30737 0.25722 0.75158 0.0
H1350 H 0.31373 0.26253 0.71772 0.0
H1351 H 0.32087 0.29043 0.75079 0.0
C1352 C 0.34798 0.31983 0.68712 0.0
N1353 N 0.36407 0.33072 0.66566 0.0
C1354 C 0.34261 0.31983 0.67402 0.0
C1355 C 0.36154 0.32555 0.68936 0.0
C1356 C 0.35091 0.32533 0.66329 0.0
C1357 C 0.36951 0.33095 0.67836 0.0
C1358 C 0.3063 0.27644 0.69582 0.0
C1359 C 0.3037 0.27123 0.68208 0.0
C1360 C 0.29595 0.27274 0.70443 0.0
C1361 C 0.29074 0.2626 0.6771 0.0
C1362 C 0.28313 0.26407 0.69908 0.0
N1363 N 0.28081 0.25924 0.68562 0.0
C1364 C 0.35365 0.28654 0.68885 0.0
C1365 C 0.34056 0.28969 0.67209 0.0
C1366 C 0.35816 0.28142 0.67856 0.0
N1367 N 0.34501 0.29054 0.68544 0.0
C1368 C 0.34484 0.2847 0.66149 0.0
C1369 C 0.35366 0.28035 0.66466 0.0
H1370 H 0.35681 0.28706 0.69958 0.0
H1371 H 0.33352 0.29272 0.6697 0.0
C1372 C 0.30691 0.31559 0.70044 0.0
N1373 N 0.30976 0.30704 0.69376 0.0
C1374 C 0.29913 0.31973 0.69371 0.0
C1375 C 0.29736 0.3062 0.67332 0.0
C1376 C 0.30518 0.30232 0.68046 0.0
C1377 C 0.29437 0.31515 0.6799 0.0
H1378 H 0.31096 0.31946 0.71089 0.0
H1379 H 0.30799 0.29591 0.67523 0.0
O1380 O 0.34433 0.29729 0.71881 0.0
O1381 O 0.3248 0.30731 0.72321 0.0
O1382 O 0.34 0.31439 0.69773 0.0
O1383 O 0.31892 0.28496 0.70084 0.0
H1384 H 0.34437 0.29067 0.74461 0.0
H1385 H 0.36887 0.31072 0.71168 0.0
H1386 H 0.36433 0.29655 0.75945 0.0
H1387 H 0.38841 0.31636 0.72712 0.0
H1388 H 0.2869 0.29684 0.74323 0.0
H1389 H 0.33522 0.32002 0.74767 0.0
H1390 H 0.29894 0.29594 0.72319 0.0
H1391 H 0.32256 0.32066 0.76723 0.0
H1392 H 0.3745 0.34358 0.75677 0.0
H1393 H 0.36859 0.36213 0.72176 0.0
H1394 H 0.30458 0.24438 0.73343 0.0
H1395 H 0.3118 0.273 0.76714 0.0
H1396 H 0.33214 0.31554 0.67214 0.0
H1397 H 0.36586 0.32586 0.69949 0.0
H1398 H 0.34688 0.32531 0.65307 0.0
H1399 H 0.38002 0.33536 0.67994 0.0
H1400 H 0.31159 0.27389 0.6753 0.0
H1401 H 0.29781 0.27644 0.71516 0.0
H1402 H 0.28858 0.25857 0.66645 0.0
H1403 H 0.27503 0.26116 0.70562 0.0
H1404 H 0.36479 0.278 0.68152 0.0
H1405 H 0.34123 0.28423 0.65092 0.0
H1406 H 0.29699 0.32656 0.69921 0.0
H1407 H 0.29411 0.30262 0.66261 0.0
Li1408 Li 0.69585 0.04034 0.67584 0.0
Li1409 Li 0.71818 0.04431 0.68024 0.0
Li1410 Li 0.71307 0.05151 0.65927 0.0
Li1411 Li 0.70392 0.02864 0.66249 0.0
C1412 C 0.71821 0.06541 0.69045 0.0
N1413 N 0.73032 0.08041 0.71493 0.0
C1414 C 0.71329 0.06047 0.70314 0.0
C1415 C 0.72924 0.07801 0.69021 0.0
C1416 C 0.71955 0.0682 0.7154 0.0
C1417 C 0.73524 0.08543 0.7027 0.0
C1418 C 0.69915 0.01589 0.68497 0.0
C1419 C 0.70714 0.00083 0.68784 0.0
N1420 N 0.6946 0.99071 0.68837 0.0
C1421 C 0.68635 0.00536 0.68561 0.0
C1422 C 0.70965 0.01363 0.68613 0.0
C1423 C 0.68425 0.9927 0.6873 0.0
C1424 C 0.66939 0.02705 0.68082 0.0
N1425 N 0.68065 0.03887 0.68333 0.0
C1426 C 0.66963 0.0473 0.69676 0.0
C1427 C 0.68092 0.04905 0.69082 0.0
C1428 C 0.65795 0.03501 0.69482 0.0
C1429 C 0.65788 0.02488 0.68651 0.0
H1430 H 0.6694 0.01929 0.67444 0.0
H1431 H 0.68991 0.05847 0.69232 0.0
C1432 C 0.74407 0.05832 0.69238 0.0
N1433 N 0.73154 0.04898 0.6945 0.0
C1434 C 0.75378 0.06297 0.70322 0.0
C1435 C 0.73752 0.04805 0.71806 0.0
C1436 C 0.72815 0.04369 0.70695 0.0
C1437 C 0.75051 0.05795 0.71634 0.0
H1438 H 0.74643 0.06242 0.68237 0.0
H1439 H 0.71805 0.03643 0.70839 0.0
C1440 C 0.68685 0.04174 0.64972 0.0
N1441 N 0.67163 0.05109 0.63829 0.0
C1442 C 0.67728 0.03427 0.63909 0.0
C1443 C 0.68866 0.05396 0.65457 0.0
C1444 C 0.66969 0.03917 0.63343 0.0
C1445 C 0.68087 0.05852 0.64865 0.0
C1446 C 0.72691 0.04052 0.64882 0.0
C1447 C 0.71847 0.03668 0.63688 0.0
C1448 C 0.7397 0.04305 0.64779 0.0
C1449 C 0.723 0.03544 0.6241 0.0
C1450 C 0.74385 0.0417 0.63482 0.0
N1451 N 0.73549 0.03796 0.62334 0.0
C1452 C 0.73269 0.07502 0.64946 0.0
C1453 C 0.71401 0.06344 0.63374 0.0
C1454 C 0.73901 0.08474 0.64013 0.0
N1455 N 0.72038 0.06472 0.6462 0.0
C1456 C 0.71993 0.07293 0.62412 0.0
C1457 C 0.73262 0.08375 0.62724 0.0
H1458 H 0.73775 0.07549 0.65918 0.0
H1459 H 0.70444 0.05492 0.63109 0.0
C1460 C 0.68518 0.00458 0.64891 0.0
N1461 N 0.69802 0.01173 0.65346 0.0
C1462 C 0.68004 0.99193 0.64253 0.0
C1463 C 0.70145 0.99421 0.64572 0.0
C1464 C 0.7062 0.00686 0.65198 0.0
C1465 C 0.6882 0.98658 0.64091 0.0
H1466 H 0.6789 0.00868 0.65041 0.0
H1467 H 0.71636 0.01275 0.65577 0.0
O1468 O 0.71243 0.05779 0.67838 0.0
O1469 O 0.7014 0.0283 0.68291 0.0
O1470 O 0.69423 0.03693 0.65538 0.0
O1471 O 0.72282 0.04192 0.66149 0.0
H1472 H 0.70486 0.05066 0.70353 0.0
H1473 H 0.73316 0.08203 0.68051 0.0
H1474 H 0.71591 0.06445 0.72529 0.0
H1475 H 0.74382 0.09518 0.70267 0.0
H1476 H 0.71516 0.99892 0.68866 0.0
H1477 H 0.67811 0.00692 0.68473 0.0
H1478 H 0.71961 0.02163 0.68546 0.0
H1479 H 0.67439 0.98444 0.68775 0.0
H1480 H 0.67016 0.05538 0.70311 0.0
H1481 H 0.64903 0.01536 0.68445 0.0
H1482 H 0.76368 0.07052 0.70139 0.0
H1483 H 0.73448 0.04406 0.72803 0.0
H1484 H 0.67574 0.02478 0.63522 0.0
H1485 H 0.696 0.05992 0.66278 0.0
H1486 H 0.66226 0.0335 0.62518 0.0
H1487 H 0.68218 0.06796 0.65229 0.0
H1488 H 0.70855 0.03467 0.63742 0.0
H1489 H 0.74635 0.04606 0.65694 0.0
H1490 H 0.71658 0.03249 0.61479 0.0
H1491 H 0.75373 0.04363 0.63388 0.0
H1492 H 0.74892 0.09272 0.64284 0.0
H1493 H 0.71462 0.07177 0.61432 0.0
H1494 H 0.66973 0.98631 0.63915 0.0
H1495 H 0.70808 0.99047 0.64457 0.0
Li1496 Li 0.94892 0.67811 0.72078 0.0
Li1497 Li 0.95409 0.66225 0.71265 0.0
Li1498 Li 0.96523 0.68405 0.70424 0.0
Li1499 Li 0.94168 0.66782 0.6964 0.0
C1500 C 0.96939 0.68461 0.73647 0.0
N1501 N 0.97518 0.69573 0.76336 0.0
C1502 C 0.96484 0.67655 0.74758 0.0
C1503 C 0.97697 0.69832 0.73905 0.0
C1504 C 0.96784 0.68236 0.76109 0.0
C1505 C 0.97978 0.70375 0.75271 0.0
C1506 C 0.92905 0.6463 0.71695 0.0
C1507 C 0.91321 0.62361 0.70968 0.0
N1508 N 0.91476 0.61994 0.72243 0.0
C1509 C 0.93043 0.6423 0.73 0.0
C1510 C 0.92035 0.63688 0.70671 0.0
C1511 C 0.92315 0.62893 0.73256 0.0
C1512 C 0.94852 0.69751 0.7393 0.0
N1513 N 0.94336 0.68436 0.73614 0.0
C1514 C 0.92968 0.6791 0.75518 0.0
C1515 C 0.93404 0.67519 0.74375 0.0
C1516 C 0.93489 0.69261 0.75879 0.0
C1517 C 0.94446 0.70188 0.7507 0.0
H1518 H 0.95583 0.70462 0.73303 0.0
H1519 H 0.92998 0.66482 0.74095 0.0
C1520 C 0.96827 0.65213 0.72572 0.0
N1521 N 0.95741 0.64843 0.71724 0.0
C1522 C 0.97172 0.64287 0.72931 0.0
C1523 C 0.95288 0.62614 0.71521 0.0
C1524 C 0.94986 0.63577 0.71176 0.0
C1525 C 0.96393 0.62967 0.72412 0.0
H1526 H 0.97434 0.66232 0.72962 0.0
H1527 H 0.94158 0.63314 0.70461 0.0
C1528 C 0.95463 0.69831 0.69671 0.0
N1529 N 0.96458 0.72133 0.68307 0.0
C1530 C 0.94965 0.69812 0.68333 0.0
C1531 C 0.96459 0.71023 0.70319 0.0
C1532 C 0.95483 0.70986 0.6766 0.0
C1533 C 0.96952 0.72175 0.69611 0.0
C1534 C 0.96212 0.65929 0.68818 0.0
C1535 C 0.97519 0.66297 0.69129 0.0
C1536 C 0.95381 0.64746 0.68035 0.0
C1537 C 0.97972 0.65469 0.68657 0.0
C1538 C 0.95872 0.63946 0.67581 0.0
N1539 N 0.97146 0.6432 0.679 0.0
C1540 C 0.99271 0.70062 0.70533 0.0
C1541 C 0.98164 0.69982 0.6841 0.0
C1542 C 0.00485 0.70811 0.69977 0.0
N1543 N 0.98144 0.6966 0.69744 0.0
C1544 C 0.99355 0.70739 0.67816 0.0
C1545 C 0.00538 0.71139 0.68592 0.0
H1546 H 0.99228 0.69745 0.71572 0.0
H1547 H 0.97254 0.6961 0.6779 0.0
C1548 C 0.91658 0.65949 0.68393 0.0
N1549 N 0.92886 0.6621 0.6815 0.0
C1550 C 0.90702 0.65522 0.67299 0.0
C1551 C 0.92303 0.65665 0.65729 0.0
C1552 C 0.93226 0.66086 0.66852 0.0
C1553 C 0.91019 0.65372 0.65945 0.0
H1554 H 0.9142 0.66064 0.69439 0.0
H1555 H 0.94218 0.66324 0.6669 0.0
O1556 O 0.96625 0.67911 0.72315 0.0
O1557 O 0.93605 0.65937 0.71425 0.0
O1558 O 0.94974 0.68689 0.70342 0.0
O1559 O 0.95744 0.66711 0.69298 0.0
H1560 H 0.95899 0.66593 0.74579 0.0
H1561 H 0.9805 0.70473 0.73059 0.0
H1562 H 0.96432 0.67624 0.76978 0.0
H1563 H 0.98556 0.71435 0.75485 0.0
H1564 H 0.90649 0.61622 0.70182 0.0
H1565 H 0.93717 0.64939 0.73804 0.0
H1566 H 0.91919 0.63972 0.69652 0.0
H1567 H 0.92419 0.6257 0.74258 0.0
H1568 H 0.9224 0.6716 0.76121 0.0
H1569 H 0.94863 0.71239 0.75302 0.0
H1570 H 0.9803 0.64598 0.73626 0.0
H1571 H 0.94674 0.61609 0.71083 0.0
H1572 H 0.9419 0.68901 0.67818 0.0
H1573 H 0.96864 0.71055 0.71348 0.0
H1574 H 0.9511 0.70985 0.66623 0.0
H1575 H 0.97731 0.73103 0.70096 0.0
H1576 H 0.98172 0.67204 0.69744 0.0
H1577 H 0.94363 0.6444 0.67798 0.0
H1578 H 0.98979 0.65737 0.68897 0.0
H1579 H 0.95238 0.63024 0.6698 0.0
H1580 H 0.01367 0.71071 0.70606 0.0
H1581 H 0.99347 0.70978 0.66749 0.0
H1582 H 0.89722 0.65298 0.67515 0.0
H1583 H 0.92599 0.6559 0.647 0.0
H1584 H 0.16747 0.33003 0.06152 0.0
H1585 H 0.22653 0.28126 0.16779 0.0
H1586 H 0.15721 0.32576 0.13601 0.0
H1587 H 0.14115 0.33087 0.12613 0.0
H1588 H 0.11139 0.2895 0.12487 0.0
H1589 H 0.12771 0.28446 0.13461 0.0
H1590 H 0.17894 0.32619 0.11986 0.0
H1591 H 0.1773 0.33154 0.09598 0.0
H1592 H 0.14366 0.2924 0.08693 0.0
H1593 H 0.1455 0.28714 0.11081 0.0
H1594 H 0.1988 0.3223 0.13964 0.0
H1595 H 0.2167 0.32806 0.1245 0.0
H1596 H 0.19128 0.29378 0.09703 0.0
H1597 H 0.17337 0.28789 0.11247 0.0
H1598 H 0.19529 0.31524 0.16851 0.0
H1599 H 0.21366 0.3128 0.17682 0.0
H1600 H 0.1981 0.27656 0.15087 0.0
H1601 H 0.1797 0.27904 0.14278 0.0
H1602 H 0.17074 0.31545 0.18059 0.0
H1603 H 0.1768 0.31477 0.20475 0.0
H1604 H 0.17153 0.27599 0.19559 0.0
H1605 H 0.16476 0.27649 0.17152 0.0
H1606 H 0.15094 0.31848 0.16475 0.0
H1607 H 0.13619 0.31719 0.18241 0.0
H1608 H 0.1219 0.27541 0.1841 0.0
H1609 H 0.13681 0.27685 0.16647 0.0
O1610 O 0.16796 0.32769 0.0709 0.0
O1611 O 0.15066 0.30748 0.06682 0.0
O1612 O 0.22691 0.3011 0.1779 0.0
O1613 O 0.21936 0.28245 0.1647 0.0
C1614 C 0.15382 0.30177 0.14069 0.0
C1615 C 0.16335 0.30303 0.13154 0.0
C1616 C 0.17396 0.30162 0.13631 0.0
C1617 C 0.17488 0.29866 0.15017 0.0
C1618 C 0.16532 0.29738 0.15933 0.0
C1619 C 0.15472 0.29882 0.15454 0.0
C1620 C 0.1436 0.30475 0.13596 0.0
C1621 C 0.14718 0.31783 0.13373 0.0
C1622 C 0.13798 0.32073 0.12817 0.0
C1623 C 0.125 0.31058 0.12472 0.0
C1624 C 0.12135 0.2975 0.12731 0.0
C1625 C 0.1306 0.29461 0.13294 0.0
C1626 C 0.16239 0.30626 0.11702 0.0
C1627 C 0.17128 0.31877 0.11267 0.0
C1628 C 0.17029 0.3218 0.09904 0.0
C1629 C 0.16036 0.31239 0.08954 0.0
C1630 C 0.15143 0.29987 0.09398 0.0
C1631 C 0.15246 0.29684 0.1076 0.0
C1632 C 0.18483 0.30461 0.12723 0.0
C1633 C 0.19715 0.3159 0.13048 0.0
C1634 C 0.20735 0.31918 0.12182 0.0
C1635 C 0.20538 0.31133 0.10963 0.0
C1636 C 0.19302 0.30002 0.10634 0.0
C1637 C 0.18283 0.29664 0.11514 0.0
C1638 C 0.18611 0.29725 0.15514 0.0
C1639 C 0.19583 0.30674 0.1647 0.0
C1640 C 0.20633 0.30534 0.16939 0.0
C1641 C 0.20734 0.29446 0.16452 0.0
C1642 C 0.19762 0.28503 0.15485 0.0
C1643 C 0.1871 0.28643 0.1502 0.0
C1644 C 0.1673 0.29602 0.17429 0.0
C1645 C 0.17053 0.30665 0.18388 0.0
C1646 C 0.17416 0.30631 0.19765 0.0
C1647 C 0.17485 0.29541 0.20207 0.0
C1648 C 0.17102 0.28449 0.19257 0.0
C1649 C 0.16722 0.28478 0.1788 0.0
C1650 C 0.14487 0.29774 0.16427 0.0
C1651 C 0.14443 0.309 0.16873 0.0
C1652 C 0.13599 0.30824 0.17882 0.0
C1653 C 0.12787 0.29619 0.18467 0.0
C1654 C 0.12813 0.28486 0.17992 0.0
C1655 C 0.13657 0.28564 0.1698 0.0
C1656 C 0.15932 0.31565 0.07507 0.0
C1657 C 0.21847 0.29292 0.16947 0.0
H1658 H 0.68183 0.84274 0.07786 0.0
H1659 H 0.72992 0.94781 0.19525 0.0
H1660 H 0.68366 0.83436 0.15092 0.0
H1661 H 0.67735 0.8122 0.1415 0.0
H1662 H 0.71676 0.82032 0.15096 0.0
H1663 H 0.72311 0.84272 0.1602 0.0
H1664 H 0.68418 0.8558 0.13723 0.0
H1665 H 0.67953 0.84984 0.11233 0.0
H1666 H 0.71805 0.85467 0.10948 0.0
H1667 H 0.72263 0.86077 0.13438 0.0
H1668 H 0.68703 0.87719 0.15944 0.0
H1669 H 0.68032 0.88919 0.14448 0.0
H1670 H 0.715 0.9016 0.1218 0.0
H1671 H 0.72164 0.8894 0.13694 0.0
H1672 H 0.69509 0.88189 0.18889 0.0
H1673 H 0.69793 0.90286 0.19841 0.0
H1674 H 0.73404 0.92396 0.17788 0.0
H1675 H 0.73116 0.9029 0.16858 0.0
H1676 H 0.69439 0.85701 0.2002 0.0
H1677 H 0.69518 0.8644 0.22433 0.0
H1678 H 0.73439 0.89712 0.2207 0.0
H1679 H 0.73371 0.8893 0.19667 0.0
H1680 H 0.68987 0.83355 0.18215 0.0
H1681 H 0.69007 0.8179 0.19787 0.0
H1682 H 0.73165 0.84402 0.20723 0.0
H1683 H 0.73135 0.85965 0.19138 0.0
O1684 O 0.6839 0.84517 0.08769 0.0
O1685 O 0.70377 0.84772 0.08679 0.0
O1686 O 0.70998 0.92805 0.20205 0.0
O1687 O 0.72857 0.93937 0.19164 0.0
C1688 C 0.70748 0.85366 0.16164 0.0
C1689 C 0.70666 0.86248 0.1527 0.0
C1690 C 0.70826 0.87455 0.1582 0.0
C1691 C 0.71136 0.87815 0.17252 0.0
C1692 C 0.71241 0.86945 0.18146 0.0
C1693 C 0.71039 0.85716 0.17602 0.0
C1694 C 0.70389 0.84021 0.15606 0.0
C1695 C 0.69098 0.83143 0.15081 0.0
C1696 C 0.68739 0.81878 0.14545 0.0
C1697 C 0.69659 0.8146 0.14541 0.0
C1698 C 0.70947 0.82331 0.15091 0.0
C1699 C 0.71312 0.83607 0.15614 0.0
C1700 C 0.7038 0.85885 0.13757 0.0
C1701 C 0.69164 0.85567 0.13118 0.0
C1702 C 0.689 0.85222 0.11697 0.0
C1703 C 0.69843 0.85181 0.1089 0.0
C1704 C 0.71058 0.85492 0.11538 0.0
C1705 C 0.71322 0.8584 0.12959 0.0
C1706 C 0.70488 0.88255 0.14935 0.0
C1707 C 0.69328 0.88266 0.15137 0.0
C1708 C 0.68948 0.88954 0.14282 0.0
C1709 C 0.69719 0.89643 0.13202 0.0
C1710 C 0.70884 0.89633 0.13 0.0
C1711 C 0.71268 0.88945 0.13865 0.0
C1712 C 0.71299 0.89089 0.17818 0.0
C1713 C 0.70365 0.89105 0.18655 0.0
C1714 C 0.70528 0.90304 0.19193 0.0
C1715 C 0.71624 0.91509 0.18893 0.0
C1716 C 0.72551 0.91487 0.18041 0.0
C1717 C 0.72388 0.90286 0.17508 0.0
C1718 C 0.71399 0.87261 0.19668 0.0
C1719 C 0.70331 0.86551 0.20475 0.0
C1720 C 0.70372 0.86986 0.21847 0.0
C1721 C 0.71477 0.88147 0.22436 0.0
C1722 C 0.72577 0.88811 0.21651 0.0
C1723 C 0.72539 0.88369 0.20277 0.0
C1724 C 0.71062 0.84766 0.18552 0.0
C1725 C 0.69905 0.83582 0.18748 0.0
C1726 C 0.69919 0.82689 0.19644 0.0
C1727 C 0.7109 0.82969 0.20371 0.0
C1728 C 0.72247 0.84163 0.20182 0.0
C1729 C 0.72233 0.85053 0.19276 0.0
C1730 C 0.69558 0.84812 0.0938 0.0
C1731 C 0.71802 0.92786 0.19463 0.0
H1732 H 0.14702 0.846 0.06624 0.0
H1733 H 0.24738 0.94154 0.17632 0.0
H1734 H 0.13386 0.8544 0.13568 0.0
H1735 H 0.11649 0.83249 0.12651 0.0
H1736 H 0.13271 0.81461 0.15274 0.0
H1737 H 0.15038 0.83654 0.16126 0.0
H1738 H 0.15835 0.8761 0.11961 0.0
H1739 H 0.15318 0.86645 0.09572 0.0
H1740 H 0.15782 0.83419 0.10873 0.0
H1741 H 0.16315 0.84404 0.13252 0.0
H1742 H 0.18473 0.90184 0.13355 0.0
H1743 H 0.20175 0.91138 0.11687 0.0
H1744 H 0.20663 0.87738 0.11828 0.0
H1745 H 0.18969 0.86798 0.13484 0.0
H1746 H 0.18211 0.9082 0.16682 0.0
H1747 H 0.20258 0.92896 0.17303 0.0
H1748 H 0.22436 0.90892 0.16663 0.0
H1749 H 0.20381 0.88822 0.16061 0.0
H1750 H 0.15955 0.88879 0.18635 0.0
H1751 H 0.166 0.89719 0.21073 0.0
H1752 H 0.1962 0.88684 0.21039 0.0
H1753 H 0.18957 0.87832 0.18625 0.0
H1754 H 0.13363 0.86094 0.1697 0.0
H1755 H 0.11914 0.84899 0.18796 0.0
H1756 H 0.14912 0.84246 0.20604 0.0
H1757 H 0.16339 0.85418 0.18771 0.0
O1758 O 0.14915 0.84968 0.07574 0.0
O1759 O 0.15157 0.83326 0.08297 0.0
O1760 O 0.22748 0.94329 0.17716 0.0
O1761 O 0.23914 0.93347 0.17394 0.0
C1762 C 0.15527 0.86021 0.15263 0.0
C1763 C 0.16408 0.86662 0.14229 0.0
C1764 C 0.17602 0.87848 0.14578 0.0
C1765 C 0.17901 0.88418 0.15951 0.0
C1766 C 0.17027 0.87775 0.16987 0.0
C1767 C 0.15841 0.86573 0.16645 0.0
C1768 C 0.1434 0.84707 0.14909 0.0
C1769 C 0.13351 0.84573 0.13959 0.0
C1770 C 0.12357 0.83319 0.13441 0.0
C1771 C 0.12329 0.82178 0.13876 0.0
C1772 C 0.13278 0.82319 0.14895 0.0
C1773 C 0.14278 0.83572 0.15399 0.0
C1774 C 0.16102 0.86072 0.1278 0.0
C1775 C 0.15827 0.86697 0.11726 0.0
C1776 C 0.1553 0.86142 0.10363 0.0
C1777 C 0.15505 0.84952 0.10032 0.0
C1778 C 0.1579 0.84334 0.11092 0.0
C1779 C 0.1609 0.84892 0.12453 0.0
C1780 C 0.18595 0.8842 0.13533 0.0
C1781 C 0.18946 0.89647 0.13018 0.0
C1782 C 0.19919 0.9019 0.12071 0.0
C1783 C 0.20548 0.89509 0.11622 0.0
C1784 C 0.20181 0.88275 0.12134 0.0
C1785 C 0.19217 0.87739 0.13082 0.0
C1786 C 0.19149 0.89675 0.16317 0.0
C1787 C 0.19132 0.90833 0.16678 0.0
C1788 C 0.20302 0.92016 0.1703 0.0
C1789 C 0.21512 0.9206 0.17029 0.0
C1790 C 0.21523 0.90894 0.16671 0.0
C1791 C 0.20351 0.89711 0.16322 0.0
C1792 C 0.17414 0.88302 0.18455 0.0
C1793 C 0.16754 0.88835 0.19159 0.0
C1794 C 0.17126 0.89317 0.20546 0.0
C1795 C 0.18157 0.89261 0.21248 0.0
C1796 C 0.1881 0.88723 0.20534 0.0
C1797 C 0.18442 0.88248 0.19152 0.0
C1798 C 0.14962 0.85857 0.17749 0.0
C1799 C 0.13703 0.85692 0.17762 0.0
C1800 C 0.12879 0.85009 0.18801 0.0
C1801 C 0.13306 0.84491 0.19848 0.0
C1802 C 0.14566 0.84655 0.19825 0.0
C1803 C 0.15381 0.85324 0.18781 0.0
C1804 C 0.15183 0.84363 0.08585 0.0
C1805 C 0.22758 0.93315 0.17401 0.0
H1806 H 0.2962 0.16096 0.98771 0.0
H1807 H 0.30567 0.06907 0.88117 0.0
H1808 H 0.27925 0.15629 0.91568 0.0
H1809 H 0.28389 0.17851 0.9233 0.0
H1810 H 0.31981 0.1955 0.90215 0.0
H1811 H 0.31517 0.17336 0.89474 0.0
H1812 H 0.27985 0.13287 0.93284 0.0
H1813 H 0.28318 0.14167 0.95694 0.0
H1814 H 0.32138 0.17388 0.94847 0.0
H1815 H 0.31799 0.16489 0.92446 0.0
H1816 H 0.28037 0.10672 0.91898 0.0
H1817 H 0.28668 0.09534 0.93559 0.0
H1818 H 0.32578 0.12941 0.94054 0.0
H1819 H 0.31948 0.14058 0.92384 0.0
H1820 H 0.27335 0.10183 0.88625 0.0
H1821 H 0.27326 0.08129 0.88053 0.0
H1822 H 0.31501 0.10143 0.89105 0.0
H1823 H 0.31497 0.12192 0.89657 0.0
H1824 H 0.27082 0.11962 0.86661 0.0
H1825 H 0.26947 0.11028 0.84295 0.0
H1826 H 0.31123 0.12558 0.84639 0.0
H1827 H 0.31245 0.13468 0.86993 0.0
H1828 H 0.27339 0.1498 0.88154 0.0
H1829 H 0.2725 0.16361 0.86374 0.0
H1830 H 0.30968 0.17046 0.85017 0.0
H1831 H 0.31075 0.15721 0.86837 0.0
O1832 O 0.29511 0.15762 0.97815 0.0
O1833 O 0.31464 0.17402 0.97324 0.0
O1834 O 0.284 0.0672 0.87793 0.0
O1835 O 0.30543 0.07706 0.88332 0.0
C1836 C 0.29501 0.14991 0.90144 0.0
C1837 C 0.29648 0.14292 0.91226 0.0
C1838 C 0.29622 0.13094 0.90915 0.0
C1839 C 0.29414 0.12576 0.89526 0.0
C1840 C 0.2926 0.13269 0.88448 0.0
C1841 C 0.29304 0.14477 0.88753 0.0
C1842 C 0.29685 0.16323 0.90463 0.0
C1843 C 0.28801 0.16484 0.91255 0.0
C1844 C 0.2907 0.1775 0.91693 0.0
C1845 C 0.30222 0.18873 0.91333 0.0
C1846 C 0.31077 0.18706 0.90493 0.0
C1847 C 0.30814 0.17442 0.90068 0.0
C1848 C 0.29863 0.1483 0.92689 0.0
C1849 C 0.28894 0.14181 0.93623 0.0
C1850 C 0.29086 0.14687 0.94998 0.0
C1851 C 0.30253 0.15851 0.95462 0.0
C1852 C 0.31226 0.16493 0.94523 0.0
C1853 C 0.31034 0.15984 0.9315 0.0
C1854 C 0.29946 0.12449 0.92024 0.0
C1855 C 0.29025 0.11175 0.92377 0.0
C1856 C 0.29387 0.10527 0.93321 0.0
C1857 C 0.30671 0.11151 0.93935 0.0
C1858 C 0.31576 0.12443 0.93612 0.0
C1859 C 0.31219 0.13083 0.9266 0.0
C1860 C 0.29415 0.11332 0.89187 0.0
C1861 C 0.28246 0.10177 0.88728 0.0
C1862 C 0.28244 0.09006 0.88404 0.0
C1863 C 0.29413 0.08971 0.88536 0.0
C1864 C 0.30583 0.10134 0.88994 0.0
C1865 C 0.30584 0.11305 0.89313 0.0
C1866 C 0.29173 0.12782 0.8699 0.0
C1867 C 0.27966 0.12103 0.86215 0.0
C1868 C 0.2789 0.11569 0.84872 0.0
C1869 C 0.29026 0.1173 0.84285 0.0
C1870 C 0.30236 0.12437 0.85058 0.0
C1871 C 0.30307 0.12951 0.86402 0.0
C1872 C 0.29206 0.15239 0.87615 0.0
C1873 C 0.28129 0.15425 0.87466 0.0
C1874 C 0.28078 0.16207 0.86443 0.0
C1875 C 0.29103 0.16816 0.85552 0.0
C1876 C 0.30171 0.16608 0.85696 0.0
C1877 C 0.30225 0.15835 0.86723 0.0
C1878 C 0.30451 0.16389 0.96921 0.0
C1879 C 0.29416 0.07729 0.88197 0.0
H1880 H 0.83651 0.15799 0.99164 0.0
H1881 H 0.76719 0.04607 0.88111 0.0
H1882 H 0.84286 0.16146 0.91622 0.0
H1883 H 0.86044 0.18333 0.92517 0.0
H1884 H 0.88831 0.16999 0.9226 0.0
H1885 H 0.87054 0.14799 0.91369 0.0
H1886 H 0.82178 0.14145 0.9328 0.0
H1887 H 0.82498 0.14919 0.95726 0.0
H1888 H 0.85668 0.14118 0.9625 0.0
H1889 H 0.85326 0.13332 0.93805 0.0
H1890 H 0.80053 0.1184 0.91385 0.0
H1891 H 0.7836 0.10804 0.93033 0.0
H1892 H 0.8073 0.09535 0.9523 0.0
H1893 H 0.82421 0.10569 0.93559 0.0
H1894 H 0.80163 0.11197 0.88321 0.0
H1895 H 0.78217 0.09108 0.8748 0.0
H1896 H 0.79687 0.06975 0.89747 0.0
H1897 H 0.81636 0.09071 0.90567 0.0
H1898 H 0.82562 0.1348 0.87019 0.0
H1899 H 0.81952 0.1271 0.84579 0.0
H1900 H 0.82569 0.0945 0.8529 0.0
H1901 H 0.83172 0.10228 0.87741 0.0
H1902 H 0.84713 0.15903 0.8869 0.0
H1903 H 0.8624 0.17266 0.87013 0.0
H1904 H 0.87482 0.14404 0.86443 0.0
H1905 H 0.85952 0.13047 0.88135 0.0
O1906 O 0.83539 0.15484 0.982 0.0
O1907 O 0.85165 0.15061 0.98413 0.0
O1908 O 0.76769 0.0659 0.87276 0.0
O1909 O 0.77479 0.05447 0.88427 0.0
C1910 C 0.84455 0.13986 0.90949 0.0
C1911 C 0.83529 0.13204 0.91886 0.0
C1912 C 0.82408 0.11997 0.91405 0.0
C1913 C 0.82231 0.1155 0.89994 0.0
C1914 C 0.83166 0.12326 0.89057 0.0
C1915 C 0.84279 0.13545 0.89536 0.0
C1916 C 0.85546 0.15318 0.91436 0.0
C1917 C 0.85278 0.16329 0.91754 0.0
C1918 C 0.86283 0.17578 0.92256 0.0
C1919 C 0.87575 0.17837 0.92454 0.0
C1920 C 0.87843 0.16823 0.92125 0.0
C1921 C 0.86834 0.15572 0.91612 0.0
C1922 C 0.83722 0.13673 0.93371 0.0
C1923 C 0.82934 0.14129 0.93928 0.0
C1924 C 0.83123 0.14575 0.95324 0.0
C1925 C 0.84107 0.14579 0.96184 0.0
C1926 C 0.84899 0.14127 0.95617 0.0
C1927 C 0.84707 0.13678 0.94222 0.0
C1928 C 0.81354 0.11273 0.92352 0.0
C1929 C 0.80199 0.11325 0.92212 0.0
C1930 C 0.79241 0.10745 0.93162 0.0
C1931 C 0.7942 0.10099 0.94266 0.0
C1932 C 0.80566 0.10022 0.94385 0.0
C1933 C 0.8153 0.10611 0.93436 0.0
C1934 C 0.81043 0.10283 0.89495 0.0
C1935 C 0.80066 0.10277 0.88628 0.0
C1936 C 0.78954 0.09083 0.88153 0.0
C1937 C 0.78798 0.07874 0.88545 0.0
C1938 C 0.79777 0.07887 0.89423 0.0
C1939 C 0.8089 0.09082 0.89895 0.0
C1940 C 0.82915 0.11912 0.87555 0.0
C1941 C 0.82588 0.12613 0.86642 0.0
C1942 C 0.82243 0.12173 0.85247 0.0
C1943 C 0.82213 0.11018 0.84739 0.0
C1944 C 0.82571 0.10335 0.85652 0.0
C1945 C 0.82921 0.1078 0.87049 0.0
C1946 C 0.85233 0.14384 0.88544 0.0
C1947 C 0.85329 0.1558 0.88218 0.0
C1948 C 0.86201 0.16357 0.87261 0.0
C1949 C 0.86985 0.15944 0.86602 0.0
C1950 C 0.86884 0.14743 0.86929 0.0
C1951 C 0.86017 0.1397 0.87896 0.0
C1952 C 0.84306 0.15055 0.97666 0.0
C1953 C 0.77619 0.06602 0.88041 0.0
H1954 H 0.8619 0.70634 0.00985 0.0
H1955 H 0.7602 0.6878 0.89803 0.0
H1956 H 0.87426 0.72148 0.93982 0.0
H1957 H 0.89161 0.71812 0.94974 0.0
H1958 H 0.87477 0.68066 0.92583 0.0
H1959 H 0.85748 0.68406 0.91609 0.0
H1960 H 0.84974 0.7195 0.95579 0.0
H1961 H 0.85523 0.7175 0.97984 0.0
H1962 H 0.85042 0.67929 0.96825 0.0
H1963 H 0.84477 0.68134 0.94428 0.0
H1964 H 0.82328 0.71708 0.94122 0.0
H1965 H 0.8057 0.7108 0.9571 0.0
H1966 H 0.80053 0.67165 0.95728 0.0
H1967 H 0.8181 0.67805 0.94157 0.0
H1968 H 0.82543 0.72256 0.90796 0.0
H1969 H 0.8048 0.72156 0.90126 0.0
H1970 H 0.78355 0.67998 0.90856 0.0
H1971 H 0.80425 0.68109 0.91507 0.0
H1972 H 0.84742 0.72463 0.88889 0.0
H1973 H 0.83981 0.72432 0.86485 0.0
H1974 H 0.8116 0.68263 0.86578 0.0
H1975 H 0.81909 0.68314 0.88973 0.0
H1976 H 0.87364 0.72561 0.90538 0.0
H1977 H 0.88825 0.72733 0.88723 0.0
H1978 H 0.85978 0.68769 0.87101 0.0
H1979 H 0.84548 0.68597 0.88936 0.0
O1980 O 0.85961 0.70688 0.0003 0.0
O1981 O 0.85711 0.68733 0.99377 0.0
O1982 O 0.77989 0.70985 0.89691 0.0
O1983 O 0.7685 0.68847 0.9006 0.0
C1984 C 0.85272 0.70368 0.92343 0.0
C1985 C 0.84388 0.70202 0.93366 0.0
C1986 C 0.83191 0.70136 0.92994 0.0
C1987 C 0.82888 0.7026 0.91605 0.0
C1988 C 0.83765 0.70412 0.9058 0.0
C1989 C 0.84957 0.70467 0.90948 0.0
C1990 C 0.86462 0.70301 0.92724 0.0
C1991 C 0.87452 0.71271 0.9365 0.0
C1992 C 0.88435 0.71073 0.94221 0.0
C1993 C 0.88448 0.69908 0.93863 0.0
C1994 C 0.87502 0.6898 0.92868 0.0
C1995 C 0.86514 0.69173 0.92307 0.0
C1996 C 0.84695 0.70061 0.94829 0.0
C1997 C 0.84983 0.71069 0.95849 0.0
C1998 C 0.85299 0.70953 0.97221 0.0
C1999 C 0.85331 0.69825 0.97596 0.0
C2000 C 0.8503 0.68812 0.96571 0.0
C2001 C 0.8471 0.68927 0.95201 0.0
C2002 C 0.82198 0.69803 0.94032 0.0
C2003 C 0.81841 0.7072 0.94483 0.0
C2004 C 0.80834 0.70358 0.95382 0.0
C2005 C 0.80173 0.69073 0.95846 0.0
C2006 C 0.80556 0.68168 0.9541 0.0
C2007 C 0.81557 0.6853 0.9451 0.0
C2008 C 0.81631 0.70193 0.91209 0.0
C2009 C 0.8163 0.71325 0.90809 0.0
C2010 C 0.80451 0.71265 0.90429 0.0
C2011 C 0.79251 0.70069 0.90441 0.0
C2012 C 0.7926 0.68935 0.90838 0.0
C2013 C 0.8044 0.68996 0.91215 0.0
C2014 C 0.8337 0.70394 0.89104 0.0
C2015 C 0.83964 0.71545 0.88382 0.0
C2016 C 0.83532 0.71523 0.87011 0.0
C2017 C 0.825 0.70347 0.86346 0.0
C2018 C 0.81936 0.6919 0.87068 0.0
C2019 C 0.82366 0.69215 0.88433 0.0
C2020 C 0.85849 0.7057 0.89861 0.0
C2021 C 0.87062 0.71731 0.89792 0.0
C2022 C 0.8789 0.71829 0.88752 0.0
C2023 C 0.87517 0.70765 0.87768 0.0
C2024 C 0.86302 0.696 0.87852 0.0
C2025 C 0.85478 0.69503 0.88891 0.0
C2026 C 0.85678 0.6971 0.99052 0.0
C2027 C 0.77996 0.7 0.9004 0.0
H2028 H 0.83367 0.66622 0.39049 0.0
H2029 H 0.8867 0.61277 0.49823 0.0
H2030 H 0.82286 0.6627 0.46362 0.0
H2031 H 0.8074 0.66878 0.45408 0.0
H2032 H 0.77582 0.62846 0.45569 0.0
H2033 H 0.79147 0.62242 0.46521 0.0
H2034 H 0.8441 0.66206 0.44902 0.0
H2035 H 0.84303 0.66745 0.42505 0.0
H2036 H 0.80811 0.62921 0.41609 0.0
H2037 H 0.80939 0.62389 0.44007 0.0
H2038 H 0.86273 0.6574 0.46958 0.0
H2039 H 0.88069 0.66304 0.45462 0.0
H2040 H 0.85496 0.62929 0.42658 0.0
H2041 H 0.83712 0.62339 0.44203 0.0
H2042 H 0.85858 0.64973 0.4983 0.0
H2043 H 0.87603 0.64601 0.50698 0.0
H2044 H 0.8593 0.60987 0.48067 0.0
H2045 H 0.84181 0.61363 0.4722 0.0
H2046 H 0.83507 0.6513 0.51001 0.0
H2047 H 0.83999 0.64963 0.53427 0.0
H2048 H 0.83097 0.60952 0.52485 0.0
H2049 H 0.82599 0.61128 0.50047 0.0
H2050 H 0.81583 0.65571 0.49374 0.0
H2051 H 0.80124 0.65521 0.51123 0.0
H2052 H 0.78503 0.6131 0.5129 0.0
H2053 H 0.79976 0.61374 0.49544 0.0
O2054 O 0.83393 0.66387 0.39991 0.0
O2055 O 0.81597 0.64412 0.39586 0.0
O2056 O 0.88808 0.63312 0.50837 0.0
O2057 O 0.87991 0.61449 0.49498 0.0
C2058 C 0.81802 0.63847 0.46981 0.0
C2059 C 0.8275 0.63927 0.46081 0.0
C2060 C 0.83768 0.63725 0.46576 0.0
C2061 C 0.83816 0.63404 0.47958 0.0
C2062 C 0.82864 0.63316 0.48856 0.0
C2063 C 0.81851 0.6353 0.48365 0.0
C2064 C 0.8083 0.6421 0.46495 0.0
C2065 C 0.8126 0.65518 0.46192 0.0
C2066 C 0.80378 0.65862 0.45644 0.0
C2067 C 0.79044 0.64906 0.454 0.0
C2068 C 0.78604 0.63603 0.4575 0.0
C2069 C 0.79494 0.63257 0.46291 0.0
C2070 C 0.82689 0.64254 0.44623 0.0
C2071 C 0.83629 0.65483 0.44183 0.0
C2072 C 0.83562 0.6579 0.42815 0.0
C2073 C 0.82549 0.64875 0.41864 0.0
C2074 C 0.81605 0.63647 0.42314 0.0
C2075 C 0.81675 0.6334 0.43682 0.0
C2076 C 0.84865 0.63996 0.45692 0.0
C2077 C 0.86103 0.6511 0.46033 0.0
C2078 C 0.87123 0.6544 0.45166 0.0
C2079 C 0.86923 0.6467 0.43932 0.0
C2080 C 0.85686 0.63537 0.43606 0.0
C2081 C 0.84665 0.63201 0.44482 0.0
C2082 C 0.84888 0.63189 0.48472 0.0
C2083 C 0.85866 0.64098 0.49449 0.0
C2084 C 0.86864 0.63885 0.4994 0.0
C2085 C 0.86904 0.62762 0.49454 0.0
C2086 C 0.85927 0.6186 0.48465 0.0
C2087 C 0.84928 0.62073 0.47978 0.0
C2088 C 0.83013 0.6314 0.50349 0.0
C2089 C 0.83385 0.64204 0.51324 0.0
C2090 C 0.83664 0.64106 0.5271 0.0
C2091 C 0.83586 0.62944 0.53148 0.0
C2092 C 0.83175 0.61863 0.52176 0.0
C2093 C 0.82886 0.61959 0.50787 0.0
C2094 C 0.8088 0.63475 0.49327 0.0
C2095 C 0.80896 0.64634 0.4977 0.0
C2096 C 0.80061 0.64603 0.50769 0.0
C2097 C 0.79199 0.63411 0.51347 0.0
C2098 C 0.79166 0.62246 0.50876 0.0
C2099 C 0.8 0.62278 0.49875 0.0
C2100 C 0.8248 0.65205 0.40411 0.0
C2101 C 0.8796 0.62529 0.49974 0.0
H2102 H 0.34946 0.16988 0.40459 0.0
H2103 H 0.38969 0.27936 0.51627 0.0
H2104 H 0.34883 0.16525 0.4788 0.0
H2105 H 0.34355 0.14311 0.47049 0.0
H2106 H 0.38342 0.15326 0.48129 0.0
H2107 H 0.38867 0.17558 0.48955 0.0
H2108 H 0.3491 0.18527 0.46271 0.0
H2109 H 0.34552 0.17815 0.43806 0.0
H2110 H 0.38503 0.18513 0.43805 0.0
H2111 H 0.38853 0.19238 0.46269 0.0
H2112 H 0.34976 0.20613 0.48223 0.0
H2113 H 0.34348 0.21805 0.46659 0.0
H2114 H 0.38055 0.23345 0.44783 0.0
H2115 H 0.38684 0.22148 0.46377 0.0
H2116 H 0.35727 0.21341 0.51251 0.0
H2117 H 0.35881 0.23422 0.52039 0.0
H2118 H 0.39576 0.25583 0.50146 0.0
H2119 H 0.39418 0.23493 0.49382 0.0
H2120 H 0.35779 0.19039 0.52671 0.0
H2121 H 0.35792 0.19923 0.55002 0.0
H2122 H 0.39684 0.23221 0.54567 0.0
H2123 H 0.39682 0.22296 0.52255 0.0
H2124 H 0.35416 0.16618 0.50997 0.0
H2125 H 0.35407 0.15175 0.52745 0.0
H2126 H 0.39508 0.17939 0.53853 0.0
H2127 H 0.39517 0.19353 0.52055 0.0
O2128 O 0.35112 0.1728 0.41433 0.0
O2129 O 0.37149 0.1765 0.41489 0.0
O2130 O 0.36987 0.25941 0.52296 0.0
O2131 O 0.38884 0.27098 0.51329 0.0
C2132 C 0.37218 0.18555 0.48924 0.0
C2133 C 0.37132 0.19373 0.47943 0.0
C2134 C 0.37227 0.20576 0.48393 0.0
C2135 C 0.37484 0.21003 0.49812 0.0
C2136 C 0.37604 0.20204 0.50793 0.0
C2137 C 0.37456 0.18971 0.5035 0.0
C2138 C 0.36917 0.17206 0.4846 0.0
C2139 C 0.35645 0.16273 0.47928 0.0
C2140 C 0.35346 0.15011 0.47452 0.0
C2141 C 0.36311 0.14651 0.47511 0.0
C2142 C 0.37579 0.15577 0.48075 0.0
C2143 C 0.37881 0.16849 0.48542 0.0
C2144 C 0.36913 0.18949 0.46443 0.0
C2145 C 0.35701 0.18539 0.45733 0.0
C2146 C 0.35497 0.18126 0.44326 0.0
C2147 C 0.365 0.1811 0.43607 0.0
C2148 C 0.37711 0.18516 0.44327 0.0
C2149 C 0.37914 0.18931 0.45733 0.0
C2150 C 0.36875 0.21301 0.47413 0.0
C2151 C 0.35652 0.21207 0.47473 0.0
C2152 C 0.35291 0.21877 0.46571 0.0
C2153 C 0.36148 0.22659 0.45591 0.0
C2154 C 0.37378 0.22752 0.45531 0.0
C2155 C 0.37736 0.2207 0.46434 0.0
C2156 C 0.37568 0.22268 0.50272 0.0
C2157 C 0.36572 0.22265 0.51016 0.0
C2158 C 0.36661 0.23455 0.5146 0.0
C2159 C 0.37743 0.2467 0.51158 0.0
C2160 C 0.38731 0.24666 0.50399 0.0
C2161 C 0.38643 0.23474 0.4996 0.0
C2162 C 0.37729 0.20603 0.52293 0.0
C2163 C 0.36652 0.19927 0.53098 0.0
C2164 C 0.36655 0.20444 0.54422 0.0
C2165 C 0.37731 0.21654 0.5496 0.0
C2166 C 0.38844 0.22284 0.54187 0.0
C2167 C 0.38844 0.21759 0.52864 0.0
C2168 C 0.3747 0.18084 0.51391 0.0
C2169 C 0.36317 0.16902 0.51603 0.0
C2170 C 0.36311 0.16087 0.52614 0.0
C2171 C 0.37456 0.16445 0.53444 0.0
C2172 C 0.38614 0.17627 0.53221 0.0
C2173 C 0.3862 0.18439 0.52202 0.0
C2174 C 0.36279 0.17668 0.42113 0.0
C2175 C 0.37844 0.25938 0.5163 0.0
H2176 H 0.8065 0.1769 0.39033 0.0
H2177 H 0.91538 0.27023 0.49456 0.0
H2178 H 0.79937 0.18292 0.46274 0.0
H2179 H 0.78121 0.16094 0.45474 0.0
H2180 H 0.80078 0.1432 0.47565 0.0
H2181 H 0.81906 0.16517 0.48308 0.0
H2182 H 0.82237 0.20558 0.44489 0.0
H2183 H 0.81514 0.19655 0.4209 0.0
H2184 H 0.82114 0.16411 0.42963 0.0
H2185 H 0.8285 0.17334 0.45353 0.0
H2186 H 0.8503 0.23129 0.45741 0.0
H2187 H 0.86706 0.2418 0.44063 0.0
H2188 H 0.87138 0.20739 0.43803 0.0
H2189 H 0.85472 0.19705 0.45469 0.0
H2190 H 0.84996 0.23669 0.49125 0.0
H2191 H 0.8707 0.25743 0.49642 0.0
H2192 H 0.89187 0.23768 0.48529 0.0
H2193 H 0.87107 0.21699 0.48031 0.0
H2194 H 0.82953 0.21673 0.51222 0.0
H2195 H 0.83842 0.22519 0.53613 0.0
H2196 H 0.86796 0.21442 0.53049 0.0
H2197 H 0.85918 0.20627 0.50669 0.0
H2198 H 0.80256 0.18896 0.49712 0.0
H2199 H 0.78968 0.17569 0.51566 0.0
H2200 H 0.82125 0.16911 0.52809 0.0
H2201 H 0.83376 0.18189 0.50924 0.0
O2202 O 0.80944 0.18033 0.39984 0.0
O2203 O 0.81263 0.16382 0.40489 0.0
O2204 O 0.8957 0.27183 0.49833 0.0
O2205 O 0.90704 0.26216 0.49262 0.0
C2206 C 0.82243 0.18883 0.4765 0.0
C2207 C 0.83016 0.19559 0.46553 0.0
C2208 C 0.84223 0.20746 0.46842 0.0
C2209 C 0.84638 0.21284 0.48222 0.0
C2210 C 0.83869 0.20608 0.49318 0.0
C2211 C 0.82674 0.19404 0.49034 0.0
C2212 C 0.81053 0.17563 0.47347 0.0
C2213 C 0.79961 0.17426 0.46574 0.0
C2214 C 0.78924 0.1617 0.46124 0.0
C2215 C 0.78962 0.15033 0.46445 0.0
C2216 C 0.80029 0.15177 0.4728 0.0
C2217 C 0.81067 0.1643 0.47721 0.0
C2218 C 0.82584 0.19006 0.45096 0.0
C2219 C 0.82213 0.19654 0.44158 0.0
C2220 C 0.81799 0.19135 0.4279 0.0
C2221 C 0.81752 0.17958 0.42336 0.0
C2222 C 0.82134 0.17316 0.4328 0.0
C2223 C 0.82551 0.17839 0.44646 0.0
C2224 C 0.85127 0.2134 0.45721 0.0
C2225 C 0.85476 0.22599 0.45304 0.0
C2226 C 0.86435 0.23198 0.44353 0.0
C2227 C 0.87053 0.22542 0.438 0.0
C2228 C 0.86666 0.21263 0.4419 0.0
C2229 C 0.85716 0.2067 0.45143 0.0
C2230 C 0.85902 0.22539 0.48531 0.0
C2231 C 0.85909 0.23688 0.48994 0.0
C2232 C 0.87095 0.2487 0.49288 0.0
C2233 C 0.88296 0.24922 0.49123 0.0
C2234 C 0.88282 0.23764 0.48663 0.0
C2235 C 0.87095 0.22582 0.48374 0.0
C2236 C 0.8438 0.21103 0.50772 0.0
C2237 C 0.83793 0.21624 0.51621 0.0
C2238 C 0.84298 0.221 0.52985 0.0
C2239 C 0.85398 0.22059 0.53518 0.0
C2240 C 0.85968 0.21516 0.52663 0.0
C2241 C 0.85465 0.21045 0.51305 0.0
C2242 C 0.81912 0.18646 0.50191 0.0
C2243 C 0.80667 0.18465 0.50388 0.0
C2244 C 0.79937 0.17714 0.51452 0.0
C2245 C 0.80443 0.17133 0.52336 0.0
C2246 C 0.81698 0.17329 0.52137 0.0
C2247 C 0.82422 0.18072 0.51071 0.0
C2248 C 0.81306 0.17406 0.40883 0.0
C2249 C 0.89558 0.26177 0.49429 0.0
H2250 H 0.99782 0.50904 0.32128 0.0
H2251 H 0.01619 0.4266 0.20981 0.0
H2252 H 0.97717 0.50218 0.24964 0.0
H2253 H 0.97829 0.52272 0.25806 0.0
H2254 H 0.01375 0.5452 0.2369 0.0
H2255 H 0.01255 0.52467 0.22859 0.0
H2256 H 0.98221 0.48155 0.26611 0.0
H2257 H 0.98543 0.48985 0.29039 0.0
H2258 H 0.0215 0.52474 0.28136 0.0
H2259 H 0.01824 0.51625 0.25716 0.0
H2260 H 0.9841 0.45745 0.25035 0.0
H2261 H 0.99117 0.446 0.26585 0.0
H2262 H 0.02933 0.48135 0.2724 0.0
H2263 H 0.02231 0.4925 0.25639 0.0
H2264 H 0.97801 0.45273 0.21793 0.0
H2265 H 0.9804 0.43382 0.21102 0.0
H2266 H 0.02212 0.45749 0.22145 0.0
H2267 H 0.01961 0.47636 0.22815 0.0
H2268 H 0.97208 0.47016 0.20004 0.0
H2269 H 0.96992 0.45906 0.17723 0.0
H2270 H 0.01192 0.4759 0.17864 0.0
H2271 H 0.01395 0.4868 0.2014 0.0
H2272 H 0.97089 0.49596 0.21604 0.0
H2273 H 0.96678 0.50855 0.19903 0.0
H2274 H 0.00512 0.52202 0.18396 0.0
H2275 H 0.00923 0.50961 0.20116 0.0
O2276 O 0.99677 0.50592 0.31165 0.0
O2277 O 0.0152 0.5237 0.30645 0.0
O2278 O 0.99348 0.4222 0.20716 0.0
O2279 O 0.01496 0.43392 0.21248 0.0
C2280 C 0.995 0.49972 0.23473 0.0
C2281 C 0.99788 0.49328 0.24514 0.0
C2282 C 0.99897 0.48214 0.2415 0.0
C2283 C 0.99717 0.47742 0.22747 0.0
C2284 C 0.99433 0.48387 0.21707 0.0
C2285 C 0.99315 0.49496 0.22069 0.0
C2286 C 0.99478 0.51196 0.23851 0.0
C2287 C 0.98507 0.51155 0.2467 0.0
C2288 C 0.98576 0.52327 0.25154 0.0
C2289 C 0.99613 0.53557 0.24818 0.0
C2290 C 0.00556 0.53588 0.23953 0.0
C2291 C 0.0049 0.52418 0.23478 0.0
C2292 C -5e-05 0.49832 0.25989 0.0
C2293 C 0.99082 0.49096 0.26942 0.0
C2294 C 0.99267 0.49574 0.28327 0.0
C2295 C 0.00371 0.50797 0.28781 0.0
C2296 C 0.01288 0.51529 0.2782 0.0
C2297 C 0.01103 0.51049 0.26437 0.0
C2298 C 0.00271 0.47577 0.25223 0.0
C2299 C 0.99394 0.46273 0.25526 0.0
C2300 C 0.99798 0.45625 0.26419 0.0
C2301 C 0.01084 0.46274 0.27033 0.0
C2302 C 0.01942 0.476 0.26768 0.0
C2303 C 0.0154 0.48244 0.25867 0.0
C2304 C 0.99863 0.46589 0.22356 0.0
C2305 C 0.98766 0.4538 0.2187 0.0
C2306 C 0.98905 0.44302 0.21477 0.0
C2307 C 0.00146 0.44415 0.21569 0.0
C2308 C 0.01243 0.45628 0.22063 0.0
C2309 C 0.01102 0.46706 0.2245 0.0
C2310 C 0.99316 0.47918 0.20236 0.0
C2311 C 0.98081 0.47166 0.19524 0.0
C2312 C 0.9796 0.46535 0.18225 0.0
C2313 C 0.99074 0.46646 0.17626 0.0
C2314 C 0.00315 0.47466 0.18311 0.0
C2315 C 0.00434 0.48097 0.19604 0.0
C2316 C 0.99033 0.50185 0.20979 0.0
C2317 C 0.97835 0.50156 0.20899 0.0
C2318 C 0.976 0.5087 0.19924 0.0
C2319 C 0.98564 0.5163 0.19018 0.0
C2320 C 0.99757 0.51638 0.1909 0.0
C2321 C -0.00011 0.50922 0.20062 0.0
C2322 C 0.00562 0.51305 0.30251 0.0
C2323 C 0.003 0.43274 0.21151 0.0
H2324 H 0.49702 0.49299 0.3263 0.0
H2325 H 0.43292 0.38447 0.21203 0.0
H2326 H 0.50695 0.49892 0.25372 0.0
H2327 H 0.52451 0.52049 0.26339 0.0
H2328 H 0.55282 0.5083 0.2566 0.0
H2329 H 0.53508 0.48654 0.2471 0.0
H2330 H 0.48467 0.47832 0.26691 0.0
H2331 H 0.48682 0.48519 0.29152 0.0
H2332 H 0.51899 0.478 0.29757 0.0
H2333 H 0.51662 0.47099 0.27296 0.0
H2334 H 0.46453 0.45632 0.24553 0.0
H2335 H 0.44649 0.44582 0.26065 0.0
H2336 H 0.46851 0.43257 0.28493 0.0
H2337 H 0.48669 0.44339 0.26977 0.0
H2338 H 0.46724 0.45042 0.21565 0.0
H2339 H 0.44825 0.42962 0.20618 0.0
H2340 H 0.46167 0.40795 0.23016 0.0
H2341 H 0.4807 0.42882 0.23942 0.0
H2342 H 0.49182 0.4733 0.20379 0.0
H2343 H 0.4863 0.46529 0.17941 0.0
H2344 H 0.49215 0.43276 0.18802 0.0
H2345 H 0.49769 0.44089 0.21246 0.0
H2346 H 0.51199 0.49762 0.22254 0.0
H2347 H 0.52761 0.51198 0.20645 0.0
H2348 H 0.54091 0.4841 0.20034 0.0
H2349 H 0.5252 0.46976 0.21652 0.0
O2350 O 0.49632 0.49019 0.31661 0.0
O2351 O 0.51286 0.48641 0.31915 0.0
O2352 O 0.4339 0.40444 0.20345 0.0
O2353 O 0.44034 0.39284 0.21562 0.0
C2354 C 0.50886 0.47793 0.24441 0.0
C2355 C 0.49911 0.46984 0.25325 0.0
C2356 C 0.48805 0.45791 0.24782 0.0
C2357 C 0.48703 0.45372 0.23372 0.0
C2358 C 0.49688 0.46169 0.22491 0.0
C2359 C 0.50773 0.47387 0.23023 0.0
C2360 C 0.51972 0.49111 0.24988 0.0
C2361 C 0.51693 0.50086 0.25442 0.0
C2362 C 0.52695 0.51316 0.25994 0.0
C2363 C 0.54 0.51601 0.26084 0.0
C2364 C 0.54284 0.50635 0.25597 0.0
C2365 C 0.53275 0.49395 0.25059 0.0
C2366 C 0.50041 0.47404 0.26819 0.0
C2367 C 0.4921 0.47813 0.27359 0.0
C2368 C 0.49339 0.4821 0.28764 0.0
C2369 C 0.50307 0.48212 0.29652 0.0
C2370 C 0.51142 0.47808 0.29103 0.0
C2371 C 0.5101 0.47408 0.27698 0.0
C2372 C 0.47686 0.45055 0.25653 0.0
C2373 C 0.46538 0.45099 0.25401 0.0
C2374 C 0.45507 0.44496 0.26264 0.0
C2375 C 0.45604 0.43832 0.27398 0.0
C2376 C 0.46752 0.43772 0.27637 0.0
C2377 C 0.47786 0.4438 0.26769 0.0
C2378 C 0.47539 0.4411 0.22813 0.0
C2379 C 0.46609 0.44116 0.21878 0.0
C2380 C 0.45524 0.42928 0.21342 0.0
C2381 C 0.45346 0.41711 0.21739 0.0
C2382 C 0.46275 0.41713 0.22687 0.0
C2383 C 0.47362 0.42902 0.23219 0.0
C2384 C 0.49518 0.45769 0.20988 0.0
C2385 C 0.49221 0.46462 0.20034 0.0
C2386 C 0.48907 0.46003 0.18642 0.0
C2387 C 0.48876 0.44837 0.18179 0.0
C2388 C 0.49218 0.4417 0.1913 0.0
C2389 C 0.49541 0.44635 0.20523 0.0
C2390 C 0.51753 0.4827 0.22076 0.0
C2391 C 0.51839 0.49469 0.21785 0.0
C2392 C 0.52734 0.50289 0.20869 0.0
C2393 C 0.53553 0.49919 0.20218 0.0
C2394 C 0.53466 0.48716 0.20513 0.0
C2395 C 0.52574 0.47899 0.21438 0.0
C2396 C 0.50442 0.48636 0.31144 0.0
C2397 C 0.44196 0.40445 0.21171 0.0
H2398 H 0.50385 0.99156 0.33549 0.0
H2399 H 0.4118 0.99061 0.22304 0.0
H2400 H 0.52197 0.01585 0.26759 0.0
H2401 H 0.53953 0.01239 0.27653 0.0
H2402 H 0.52365 0.97651 0.24997 0.0
H2403 H 0.50597 0.97993 0.2413 0.0
H2404 H 0.49704 0.01203 0.2837 0.0
H2405 H 0.50046 0.00693 0.3072 0.0
H2406 H 0.49435 0.96921 0.29112 0.0
H2407 H 0.49079 0.97437 0.2677 0.0
H2408 H 0.47352 0.01418 0.26788 0.0
H2409 H 0.45636 0.00911 0.28399 0.0
H2410 H 0.44743 0.96858 0.28295 0.0
H2411 H 0.46453 0.97372 0.26678 0.0
H2412 H 0.47662 0.02174 0.23659 0.0
H2413 H 0.45692 0.02252 0.22983 0.0
H2414 H 0.43341 0.98024 0.23267 0.0
H2415 H 0.45321 0.97959 0.23925 0.0
H2416 H 0.50025 0.02586 0.22025 0.0
H2417 H 0.49525 0.0304 0.19699 0.0
H2418 H 0.46447 0.98955 0.18986 0.0
H2419 H 0.46969 0.9851 0.21296 0.0
H2420 H 0.52361 0.0234 0.23569 0.0
H2421 H 0.53963 0.02742 0.21841 0.0
H2422 H 0.51211 0.99008 0.19646 0.0
H2423 H 0.49629 0.98606 0.21391 0.0
O2424 O 0.50242 0.99337 0.32612 0.0
O2425 O 0.49928 0.97412 0.31731 0.0
O2426 O 0.43229 0.01229 0.22426 0.0
O2427 O 0.41975 0.99058 0.22565 0.0
C2428 C 0.50107 0.99919 0.24995 0.0
C2429 C 0.49168 0.99676 0.25977 0.0
C2430 C 0.48031 0.99725 0.256 0.0
C2431 C 0.47833 0.00019 0.24244 0.0
C2432 C 0.48769 0.00257 0.23262 0.0
C2433 C 0.49907 0.0021 0.23638 0.0
C2434 C 0.51271 0.99812 0.25384 0.0
C2435 C 0.52243 0.00737 0.26356 0.0
C2436 C 0.53247 0.0054 0.2686 0.0
C2437 C 0.53292 0.99413 0.26401 0.0
C2438 C 0.52346 0.98519 0.25383 0.0
C2439 C 0.51344 0.98718 0.24877 0.0
C2440 C 0.49371 0.9936 0.27402 0.0
C2441 C 0.49641 0.00266 0.28529 0.0
C2442 C 0.49838 -0.00027 0.29869 0.0
C2443 C 0.4977 0.98767 0.30104 0.0
C2444 C 0.49496 0.97859 0.28968 0.0
C2445 C 0.49296 0.98153 0.27629 0.0
C2446 C 0.47026 0.99432 0.26617 0.0
C2447 C 0.46785 0.00422 0.27115 0.0
C2448 C 0.45804 0.0013 0.28031 0.0
C2449 C 0.45055 0.98845 0.28472 0.0
C2450 C 0.45314 0.9786 0.27987 0.0
C2451 C 0.46288 0.98151 0.27062 0.0
C2452 C 0.46633 0.00062 0.23842 0.0
C2453 C 0.46721 0.01266 0.2357 0.0
C2454 C 0.45594 0.01307 0.23187 0.0
C2455 C 0.44358 0.00143 0.23072 0.0
C2456 C 0.44276 0.98938 0.23347 0.0
C2457 C 0.45404 0.98898 0.23726 0.0
C2458 C 0.48531 0.00517 0.21825 0.0
C2459 C 0.49254 0.01789 0.21357 0.0
C2460 C 0.48962 0.02047 0.20035 0.0
C2461 C 0.47946 0.01034 0.1916 0.0
C2462 C 0.47246 0.99753 0.19626 0.0
C2463 C 0.47536 0.99498 0.20947 0.0
C2464 C 0.50881 0.00445 0.22601 0.0
C2465 C 0.52109 0.01609 0.22716 0.0
C2466 C 0.53018 0.0184 0.21725 0.0
C2467 C 0.52713 0.00907 0.20607 0.0
C2468 C 0.51481 0.99738 0.20503 0.0
C2469 C 0.50573 0.99511 0.21492 0.0
C2470 C 0.49984 0.9846 0.31528 0.0
C2471 C 0.43157 0.00182 0.22668 0.0
H2472 H 0.51028 0.02719 0.73073 0.0
H2473 H 0.5766 0.98473 0.83563 0.0
H2474 H 0.50146 0.02328 0.80432 0.0
H2475 H 0.48389 0.02612 0.79436 0.0
H2476 H 0.45647 0.98447 0.79717 0.0
H2477 H 0.47431 0.98167 0.80672 0.0
H2478 H 0.52419 0.02513 0.7888 0.0
H2479 H 0.52147 0.02977 0.76489 0.0
H2480 H 0.48856 0.98999 0.75725 0.0
H2481 H 0.49149 0.98543 0.78115 0.0
H2482 H 0.54513 0.02272 0.80604 0.0
H2483 H 0.56202 0.02722 0.78978 0.0
H2484 H 0.5359 0.98996 0.76689 0.0
H2485 H 0.51911 0.98546 0.78337 0.0
H2486 H 0.54255 0.01586 0.83725 0.0
H2487 H 0.56176 0.01464 0.84507 0.0
H2488 H 0.54726 0.97837 0.81944 0.0
H2489 H 0.52802 0.97963 0.81184 0.0
H2490 H 0.51805 0.0132 0.85163 0.0
H2491 H 0.52333 0.01027 0.87541 0.0
H2492 H 0.51727 0.97187 0.86228 0.0
H2493 H 0.51165 0.97475 0.8386 0.0
H2494 H 0.4961 0.01591 0.83502 0.0
H2495 H 0.47993 0.01284 0.8517 0.0
H2496 H 0.46901 0.97183 0.85327 0.0
H2497 H 0.48485 0.9749 0.83617 0.0
O2498 O 0.51122 0.02512 0.74013 0.0
O2499 O 0.49432 0.00459 0.73676 0.0
O2500 O 0.57608 0.00409 0.84578 0.0
O2501 O 0.56909 0.98545 0.83273 0.0
C2502 C 0.50023 0.00047 0.81068 0.0
C2503 C 0.50968 0.00216 0.80122 0.0
C2504 C 0.52069 0.00127 0.80561 0.0
C2505 C 0.52217 0.99852 0.81939 0.0
C2506 C 0.5126 0.9966 0.8288 0.0
C2507 C 0.5016 0.99755 0.82444 0.0
C2508 C 0.48916 0.00227 0.80615 0.0
C2509 C 0.49163 0.0148 0.80289 0.0
C2510 C 0.48155 0.01641 0.79729 0.0
C2511 C 0.46876 0.00551 0.79493 0.0
C2512 C 0.46624 0.99302 0.79869 0.0
C2513 C 0.47637 0.99142 0.80425 0.0
C2514 C 0.50807 0.00494 0.78667 0.0
C2515 C 0.51645 0.01741 0.78191 0.0
C2516 C 0.51485 0.02005 0.76826 0.0
C2517 C 0.5048 0.01025 0.75915 0.0
C2518 C 0.4964 0.99775 0.76399 0.0
C2519 C 0.49804 0.99513 0.77763 0.0
C2520 C 0.53095 0.00376 0.79588 0.0
C2521 C 0.5431 0.01551 0.79755 0.0
C2522 C 0.55268 0.01811 0.7882 0.0
C2523 C 0.55025 0.00896 0.77703 0.0
C2524 C 0.53807 0.99713 0.77546 0.0
C2525 C 0.52848 0.99457 0.7848 0.0
C2526 C 0.53389 0.99781 0.82402 0.0
C2527 C 0.54352 0.00764 0.83339 0.0
C2528 C 0.5545 0.00693 0.83781 0.0
C2529 C 0.55605 0.99639 0.83288 0.0
C2530 C 0.54638 0.9866 0.82344 0.0
C2531 C 0.53539 0.98731 0.81906 0.0
C2532 C 0.51449 0.9942 0.84341 0.0
C2533 C 0.51763 0.00406 0.85396 0.0
C2534 C 0.52075 0.00241 0.8675 0.0
C2535 C 0.52081 0.99087 0.87071 0.0
C2536 C 0.51719 0.98081 0.86018 0.0
C2537 C 0.51406 0.98246 0.84665 0.0
C2538 C 0.49161 0.99562 0.83436 0.0
C2539 C 0.4901 0.00624 0.83887 0.0
C2540 C 0.48095 0.00449 0.84849 0.0
C2541 C 0.47319 0.99209 0.85386 0.0
C2542 C 0.47469 0.98145 0.84922 0.0
C2543 C 0.4838 0.9832 0.83954 0.0
C2544 C 0.50309 0.01309 0.74467 0.0
C2545 C 0.56769 0.99559 0.83755 0.0
H2546 H 0.97197 0.47738 0.74294 0.0
H2547 H 0.02007 0.59293 0.84865 0.0
H2548 H 0.98113 0.47712 0.81793 0.0
H2549 H 0.97711 0.45522 0.81038 0.0
H2550 H 0.01881 0.47001 0.81404 0.0
H2551 H 0.02269 0.49189 0.82185 0.0
H2552 H 0.97814 0.49671 0.80094 0.0
H2553 H 0.9718 0.48784 0.77682 0.0
H2554 H 0.01108 0.49544 0.77169 0.0
H2555 H 0.01733 0.50441 0.7958 0.0
H2556 H 0.98085 0.51989 0.81737 0.0
H2557 H 0.97531 0.53256 0.80197 0.0
H2558 H 0.01215 0.54648 0.78302 0.0
H2559 H 0.01739 0.53339 0.79826 0.0
H2560 H 0.99026 0.52723 0.84893 0.0
H2561 H 0.99147 0.54799 0.85637 0.0
H2562 H 0.02612 0.56945 0.83364 0.0
H2563 H 0.02489 0.54863 0.82644 0.0
H2564 H 0.99446 0.50642 0.86432 0.0
H2565 H 0.99767 0.51695 0.88757 0.0
H2566 H 0.03454 0.54978 0.87679 0.0
H2567 H 0.03148 0.53888 0.85377 0.0
H2568 H 0.9903 0.48126 0.84835 0.0
H2569 H 0.99413 0.46822 0.86491 0.0
H2570 H 0.03535 0.49782 0.86881 0.0
H2571 H 0.03145 0.51057 0.85183 0.0
O2572 O 0.9747 0.48097 0.75244 0.0
O2573 O 0.99503 0.48504 0.75035 0.0
O2574 O 0.0016 0.57309 0.85749 0.0
O2575 O 0.01937 0.58458 0.84588 0.0
C2576 C 0.00445 0.49936 0.82456 0.0
C2577 C 0.00203 0.50657 0.81473 0.0
C2578 C 0.00307 0.51872 0.81891 0.0
C2579 C 0.00683 0.52383 0.83282 0.0
C2580 C 0.00953 0.51676 0.84261 0.0
C2581 C 0.00827 0.50448 0.83849 0.0
C2582 C 0.0022 0.48607 0.82035 0.0
C2583 C 0.98939 0.47561 0.8171 0.0
C2584 C 0.98712 0.46313 0.81273 0.0
C2585 C 0.99765 0.46089 0.8115 0.0
C2586 C 0.01049 0.47138 0.815 0.0
C2587 C 0.01274 0.48388 0.81939 0.0
C2588 C 0.99821 0.50128 0.80007 0.0
C2589 C 0.98538 0.49654 0.79455 0.0
C2590 C 0.98178 0.49143 0.78079 0.0
C2591 C 0.99094 0.49094 0.77232 0.0
C2592 C 0.00379 0.49569 0.77792 0.0
C2593 C 0.00738 0.50081 0.79168 0.0
C2594 C 0.99953 0.52581 0.80894 0.0
C2595 C 0.98765 0.5256 0.8098 0.0
C2596 C 0.98456 0.53291 0.80106 0.0
C2597 C 0.99335 0.54065 0.79135 0.0
C2598 C 0.00512 0.54053 0.79028 0.0
C2599 C 0.00817 0.53313 0.799 0.0
C2600 C 0.00752 0.53645 0.8372 0.0
C2601 C 0.99813 0.53644 0.84562 0.0
C2602 C 0.99883 0.5483 0.84983 0.0
C2603 C 0.0089 0.56039 0.8456 0.0
C2604 C 0.01824 0.56033 0.83709 0.0
C2605 C 0.01756 0.54846 0.83293 0.0
C2606 C 0.01271 0.52191 0.85735 0.0
C2607 C 0.00342 0.51568 0.86714 0.0
C2608 C 0.00521 0.5218 0.88035 0.0
C2609 C 0.01627 0.53431 0.88397 0.0
C2610 C 0.02596 0.54011 0.8744 0.0
C2611 C 0.02421 0.53394 0.86122 0.0
C2612 C 0.01061 0.4968 0.84884 0.0
C2613 C 0.00016 0.48487 0.85273 0.0
C2614 C 0.00236 0.47751 0.86228 0.0
C2615 C 0.01505 0.48199 0.8682 0.0
C2616 C 0.02549 0.49401 0.86432 0.0
C2617 C 0.02328 0.50136 0.85472 0.0
C2618 C 0.98707 0.48549 0.75771 0.0
C2619 C 0.00969 0.57303 0.85004 0.0
H2620 H 0.48623 0.50631 0.73274 0.0
H2621 H 0.58563 0.60414 0.84213 0.0
H2622 H 0.47261 0.51558 0.80178 0.0
H2623 H 0.45506 0.49345 0.79345 0.0
H2624 H 0.47156 0.47641 0.82053 0.0
H2625 H 0.4894 0.49854 0.82821 0.0
H2626 H 0.49694 0.53713 0.78551 0.0
H2627 H 0.49197 0.52711 0.76179 0.0
H2628 H 0.49721 0.49548 0.77575 0.0
H2629 H 0.50233 0.5057 0.79939 0.0
H2630 H 0.52275 0.56329 0.79931 0.0
H2631 H 0.53974 0.57304 0.78265 0.0
H2632 H 0.54581 0.53981 0.78474 0.0
H2633 H 0.52886 0.53019 0.80126 0.0
H2634 H 0.52039 0.57018 0.83218 0.0
H2635 H 0.54073 0.59112 0.83821 0.0
H2636 H 0.56287 0.57133 0.83291 0.0
H2637 H 0.54246 0.55045 0.82706 0.0
H2638 H 0.49818 0.55154 0.85151 0.0
H2639 H 0.50481 0.56102 0.87556 0.0
H2640 H 0.53461 0.55009 0.87678 0.0
H2641 H 0.52786 0.5406 0.85293 0.0
H2642 H 0.47206 0.5225 0.83513 0.0
H2643 H 0.45704 0.50994 0.85273 0.0
H2644 H 0.48719 0.5045 0.87233 0.0
H2645 H 0.50201 0.51682 0.85462 0.0
O2646 O 0.48827 0.51013 0.74218 0.0
O2647 O 0.49101 0.49405 0.7499 0.0
O2648 O 0.5656 0.60568 0.84246 0.0
O2649 O 0.57744 0.59599 0.8398 0.0
C2650 C 0.49406 0.52191 0.81893 0.0
C2651 C 0.50287 0.52823 0.80856 0.0
C2652 C 0.51468 0.54025 0.81192 0.0
C2653 C 0.51757 0.54616 0.82556 0.0
C2654 C 0.50882 0.53983 0.83594 0.0
C2655 C 0.49706 0.5277 0.83265 0.0
C2656 C 0.4823 0.50866 0.81556 0.0
C2657 C 0.47231 0.50705 0.80602 0.0
C2658 C 0.46226 0.49439 0.80134 0.0
C2659 C 0.46197 0.48313 0.80622 0.0
C2660 C 0.47163 0.48485 0.81635 0.0
C2661 C 0.48174 0.49749 0.8209 0.0
C2662 C 0.49991 0.5221 0.79417 0.0
C2663 C 0.49704 0.52806 0.78341 0.0
C2664 C 0.49418 0.5223 0.76988 0.0
C2665 C 0.49416 0.51047 0.76688 0.0
C2666 C 0.49711 0.50457 0.77771 0.0
C2667 C 0.5 0.51036 0.79122 0.0
C2668 C 0.52456 0.54603 0.80143 0.0
C2669 C 0.52773 0.55813 0.79608 0.0
C2670 C 0.53744 0.56367 0.78663 0.0
C2671 C 0.54408 0.55716 0.78235 0.0
C2672 C 0.54073 0.54496 0.78763 0.0
C2673 C 0.53109 0.53947 0.79711 0.0
C2674 C 0.52997 0.55884 0.8291 0.0
C2675 C 0.52965 0.57041 0.83234 0.0
C2676 C 0.54128 0.58234 0.83576 0.0
C2677 C 0.55344 0.58291 0.83601 0.0
C2678 C 0.55369 0.57126 0.83279 0.0
C2679 C 0.54205 0.55933 0.8294 0.0
C2680 C 0.51257 0.54543 0.85051 0.0
C2681 C 0.5061 0.55118 0.85703 0.0
C2682 C 0.50993 0.55662 0.8707 0.0
C2683 C 0.52019 0.55624 0.87805 0.0
C2684 C 0.52655 0.55037 0.87146 0.0
C2685 C 0.52279 0.54504 0.85782 0.0
C2686 C 0.48817 0.52069 0.84368 0.0
C2687 C 0.47542 0.51864 0.84327 0.0
C2688 C 0.46686 0.51145 0.85329 0.0
C2689 C 0.47098 0.50632 0.86393 0.0
C2690 C 0.48382 0.50853 0.86438 0.0
C2691 C 0.49229 0.51557 0.85429 0.0
C2692 C 0.49106 0.50435 0.7525 0.0
C2693 C 0.56582 0.59556 0.83962 0.0
H2694 H 0.63725 0.83061 0.65668 0.0
H2695 H 0.63605 0.73045 0.55322 0.0
H2696 H 0.61683 0.82299 0.58506 0.0
H2697 H 0.62261 0.84559 0.59235 0.0
H2698 H 0.65729 0.8607 0.56917 0.0
H2699 H 0.65177 0.83813 0.56254 0.0
H2700 H 0.61753 0.8002 0.6032 0.0
H2701 H 0.62229 0.81014 0.62695 0.0
H2702 H 0.66041 0.8407 0.61596 0.0
H2703 H 0.65558 0.83057 0.5923 0.0
H2704 H 0.6168 0.77327 0.5911 0.0
H2705 H 0.62426 0.76175 0.60623 0.0
H2706 H 0.66394 0.79464 0.6065 0.0
H2707 H 0.65648 0.80589 0.59121 0.0
H2708 H 0.6076 0.76703 0.55739 0.0
H2709 H 0.60586 0.74558 0.55246 0.0
H2710 H 0.64762 0.76356 0.56176 0.0
H2711 H 0.64924 0.78496 0.56645 0.0
H2712 H 0.60669 0.78694 0.53554 0.0
H2713 H 0.60421 0.77587 0.51255 0.0
H2714 H 0.64407 0.78413 0.51782 0.0
H2715 H 0.64653 0.79528 0.54053 0.0
H2716 H 0.60958 0.81489 0.55051 0.0
H2717 H 0.60854 0.82788 0.53184 0.0
H2718 H 0.64571 0.83421 0.51878 0.0
H2719 H 0.64647 0.82102 0.53725 0.0
O2720 O 0.63559 0.82681 0.64725 0.0
O2721 O 0.65506 0.84233 0.64106 0.0
O2722 O 0.61505 0.73007 0.55025 0.0
O2723 O 0.63646 0.73881 0.55507 0.0
C2724 C 0.63152 0.81533 0.57054 0.0
C2725 C 0.63314 0.80866 0.5816 0.0
C2726 C 0.63229 0.79635 0.57893 0.0
C2727 C 0.62949 0.79052 0.56526 0.0
C2728 C 0.62803 0.79723 0.55418 0.0
C2729 C 0.62898 0.80961 0.55681 0.0
C2730 C 0.63387 0.82892 0.57326 0.0
C2731 C 0.62558 0.83121 0.58143 0.0
C2732 C 0.62888 0.84412 0.58552 0.0
C2733 C 0.64048 0.85496 0.58144 0.0
C2734 C 0.64842 0.85258 0.57271 0.0
C2735 C 0.64518 0.83969 0.56874 0.0
C2736 C 0.63616 0.81473 0.59602 0.0
C2737 C 0.6269 0.80903 0.60596 0.0
C2738 C 0.62965 0.81474 0.61951 0.0
C2739 C 0.64172 0.82625 0.62335 0.0
C2740 C 0.65101 0.83187 0.61335 0.0
C2741 C 0.64826 0.82613 0.59982 0.0
C2742 C 0.63611 0.79039 0.59005 0.0
C2743 C 0.62704 0.77807 0.59469 0.0
C2744 C 0.63131 0.77154 0.60333 0.0
C2745 C 0.6447 0.77726 0.60739 0.0
C2746 C 0.65359 0.78993 0.60336 0.0
C2747 C 0.64934 0.79643 0.59476 0.0
C2748 C 0.62852 0.77751 0.56241 0.0
C2749 C 0.61635 0.7663 0.55836 0.0
C2750 C 0.61539 0.75407 0.55556 0.0
C2751 C 0.6266 0.75285 0.55676 0.0
C2752 C 0.63879 0.76414 0.56077 0.0
C2753 C 0.63974 0.77637 0.56352 0.0
C2754 C 0.62674 0.79175 0.53974 0.0
C2755 C 0.61492 0.7865 0.53161 0.0
C2756 C 0.61352 0.7802 0.51853 0.0
C2757 C 0.6239 0.77899 0.51354 0.0
C2758 C 0.63585 0.78472 0.52153 0.0
C2759 C 0.63728 0.79111 0.53446 0.0
C2760 C 0.62804 0.81695 0.54514 0.0
C2761 C 0.61741 0.81901 0.54351 0.0
C2762 C 0.61689 0.82649 0.53291 0.0
C2763 C 0.62704 0.83208 0.5238 0.0
C2764 C 0.63761 0.82986 0.52543 0.0
C2765 C 0.6381 0.82236 0.536 0.0
C2766 C 0.64458 0.83232 0.63773 0.0
C2767 C 0.62564 0.73988 0.55382 0.0
H2768 H 0.16117 0.82276 0.66504 0.0
H2769 H 0.10437 0.71193 0.55279 0.0
H2770 H 0.17169 0.82844 0.59178 0.0
H2771 H 0.18842 0.8508 0.60034 0.0
H2772 H 0.21828 0.84024 0.59634 0.0
H2773 H 0.20139 0.81784 0.58762 0.0
H2774 H 0.14985 0.80683 0.60582 0.0
H2775 H 0.15142 0.81399 0.63025 0.0
H2776 H 0.1853 0.8097 0.63736 0.0
H2777 H 0.18352 0.80241 0.61293 0.0
H2778 H 0.13035 0.78279 0.58368 0.0
H2779 H 0.11198 0.77105 0.59813 0.0
H2780 H 0.13629 0.76309 0.62572 0.0
H2781 H 0.1547 0.77467 0.61089 0.0
H2782 H 0.13355 0.77771 0.55539 0.0
H2783 H 0.11571 0.75603 0.54625 0.0
H2784 H 0.13231 0.73727 0.57049 0.0
H2785 H 0.15021 0.75902 0.57941 0.0
H2786 H 0.15658 0.80285 0.54477 0.0
H2787 H 0.15085 0.79583 0.52025 0.0
H2788 H 0.15981 0.76484 0.5257 0.0
H2789 H 0.16562 0.77204 0.5504 0.0
H2790 H 0.17558 0.82643 0.56111 0.0
H2791 H 0.18989 0.84095 0.54416 0.0
H2792 H 0.20739 0.81656 0.53969 0.0
H2793 H 0.19305 0.80209 0.55677 0.0
O2794 O 0.16072 0.81989 0.65542 0.0
O2795 O 0.17815 0.8176 0.65851 0.0
O2796 O 0.10323 0.73077 0.54392 0.0
O2797 O 0.11133 0.72064 0.55623 0.0
C2798 C 0.17503 0.80801 0.58394 0.0
C2799 C 0.16554 0.79961 0.59282 0.0
C2800 C 0.15497 0.78725 0.58749 0.0
C2801 C 0.15419 0.78309 0.5734 0.0
C2802 C 0.16361 0.79157 0.56449 0.0
C2803 C 0.17402 0.80403 0.56977 0.0
C2804 C 0.18533 0.82151 0.58921 0.0
C2805 C 0.18184 0.83094 0.59285 0.0
C2806 C 0.19141 0.84369 0.59777 0.0
C2807 C 0.20467 0.84727 0.59911 0.0
C2808 C 0.20816 0.83781 0.59533 0.0
C2809 C 0.19854 0.82502 0.59041 0.0
C2810 C 0.16651 0.804 0.60765 0.0
C2811 C 0.15755 0.80737 0.61269 0.0
C2812 C 0.1585 0.81149 0.62664 0.0
C2813 C 0.16847 0.8124 0.63577 0.0
C2814 C 0.17749 0.80909 0.63062 0.0
C2815 C 0.17651 0.80494 0.61668 0.0
C2816 C 0.14381 0.77945 0.59614 0.0
C2817 C 0.13166 0.77829 0.59268 0.0
C2818 C 0.12119 0.7716 0.60095 0.0
C2819 C 0.1227 0.7661 0.61299 0.0
C2820 C 0.13489 0.76727 0.6165 0.0
C2821 C 0.14536 0.77383 0.60805 0.0
C2822 C 0.14325 0.76993 0.56794 0.0
C2823 C 0.13337 0.76891 0.55862 0.0
C2824 C 0.12316 0.75651 0.55347 0.0
C2825 C 0.1226 0.74491 0.55761 0.0
C2826 C 0.13246 0.746 0.56706 0.0
C2827 C 0.14269 0.7584 0.57218 0.0
C2828 C 0.16162 0.78803 0.54934 0.0
C2829 C 0.15764 0.79477 0.54061 0.0
C2830 C 0.15437 0.79073 0.52659 0.0
C2831 C 0.15491 0.77979 0.52102 0.0
C2832 C 0.15923 0.77325 0.52972 0.0
C2833 C 0.1626 0.77737 0.54378 0.0
C2834 C 0.18334 0.81326 0.56019 0.0
C2835 C 0.18262 0.82432 0.5566 0.0
C2836 C 0.19071 0.83253 0.54685 0.0
C2837 C 0.1997 0.82984 0.54057 0.0
C2838 C 0.20062 0.81891 0.54445 0.0
C2839 C 0.19243 0.81064 0.55414 0.0
C2840 C 0.16945 0.81678 0.65059 0.0
C2841 C 0.11179 0.73171 0.55215 0.0
H2842 H 0.19263 0.36459 0.6774 0.0
H2843 H 0.09734 0.35363 0.5613 0.0
H2844 H 0.20915 0.38364 0.60764 0.0
H2845 H 0.22647 0.38011 0.61735 0.0
H2846 H 0.20896 0.34242 0.59377 0.0
H2847 H 0.19178 0.34604 0.58417 0.0
H2848 H 0.18405 0.38107 0.62371 0.0
H2849 H 0.18816 0.3777 0.64774 0.0
H2850 H 0.18227 0.33933 0.63469 0.0
H2851 H 0.17801 0.34276 0.61075 0.0
H2852 H 0.1588 0.38011 0.60924 0.0
H2853 H 0.14024 0.37324 0.62393 0.0
H2854 H 0.13312 0.33332 0.62094 0.0
H2855 H 0.1515 0.34022 0.60619 0.0
H2856 H 0.1619 0.38736 0.57713 0.0
H2857 H 0.14178 0.3871 0.56968 0.0
H2858 H 0.11984 0.34465 0.57178 0.0
H2859 H 0.14006 0.34506 0.57908 0.0
H2860 H 0.18204 0.39022 0.55881 0.0
H2861 H 0.17567 0.39122 0.53461 0.0
H2862 H 0.15199 0.3486 0.53066 0.0
H2863 H 0.15834 0.34773 0.55476 0.0
H2864 H 0.20805 0.38976 0.57138 0.0
H2865 H 0.22249 0.39154 0.55295 0.0
H2866 H 0.19676 0.35013 0.54061 0.0
H2867 H 0.18251 0.34847 0.55903 0.0
O2868 O 0.19091 0.36569 0.66784 0.0
O2869 O 0.18787 0.34608 0.66058 0.0
O2870 O 0.11718 0.37584 0.56325 0.0
O2871 O 0.10544 0.35402 0.56421 0.0
C2872 C 0.18767 0.36619 0.59104 0.0
C2873 C 0.1785 0.36441 0.60093 0.0
C2874 C 0.16691 0.36436 0.59688 0.0
C2875 C 0.16464 0.36647 0.58306 0.0
C2876 C 0.17377 0.36819 0.5732 0.0
C2877 C 0.18523 0.36798 0.57715 0.0
C2878 C 0.19928 0.36514 0.59513 0.0
C2879 C 0.20926 0.37477 0.60436 0.0
C2880 C 0.21906 0.37269 0.60996 0.0
C2881 C 0.21904 0.36096 0.60636 0.0
C2882 C 0.20936 0.35163 0.5966 0.0
C2883 C 0.19955 0.35369 0.59107 0.0
C2884 C 0.18084 0.36221 0.6155 0.0
C2885 C 0.18362 0.37194 0.62609 0.0
C2886 C 0.18598 0.36999 0.63979 0.0
C2887 C 0.18559 0.35826 0.64313 0.0
C2888 C 0.18269 0.34849 0.63247 0.0
C2889 C 0.1803 0.35044 0.61879 0.0
C2890 C 0.15647 0.36066 0.6067 0.0
C2891 C 0.15328 0.36993 0.6119 0.0
C2892 C 0.14274 0.366 0.6203 0.0
C2893 C 0.13521 0.35273 0.6235 0.0
C2894 C 0.13865 0.34357 0.61851 0.0
C2895 C 0.14919 0.3475 0.61019 0.0
C2896 C 0.15239 0.36625 0.57869 0.0
C2897 C 0.15273 0.37803 0.57596 0.0
C2898 C 0.14123 0.37784 0.57172 0.0
C2899 C 0.12919 0.36584 0.57015 0.0
C2900 C 0.12893 0.35405 0.5729 0.0
C2901 C 0.14045 0.35425 0.5771 0.0
C2902 C 0.17062 0.36891 0.55845 0.0
C2903 C 0.17557 0.38113 0.55263 0.0
C2904 C 0.1719 0.38168 0.53888 0.0
C2905 C 0.16339 0.36998 0.53077 0.0
C2906 C 0.15871 0.35775 0.53661 0.0
C2907 C 0.16226 0.35724 0.55035 0.0
C2908 C 0.19431 0.36898 0.56652 0.0
C2909 C 0.20564 0.38109 0.56473 0.0
C2910 C 0.21379 0.38209 0.55419 0.0
C2911 C 0.21076 0.37096 0.54537 0.0
C2912 C 0.19945 0.35882 0.54735 0.0
C2913 C 0.19128 0.35786 0.5578 0.0
C2914 C 0.18818 0.35626 0.65769 0.0
C2915 C 0.11695 0.36559 0.56566 0.0
H2916 H 0.99679 0.38857 0.0875 0.0
H2917 H 0.99505 0.40214 0.10617 0.0
H2918 H 0.97366 0.41307 0.07799 0.0
H2919 H 0.97522 0.39936 0.05921 0.0
H2920 H 0.00507 0.43108 0.10315 0.0
H2921 H 0.95245 0.4016 0.11452 0.0
H2922 H 0.96097 0.39403 0.10683 0.0
H2923 H 0.95653 0.40377 0.09669 0.0
C2924 C 0.99145 0.39361 0.08533 0.0
C2925 C 0.98612 0.39288 0.07189 0.0
C2926 C 0.99054 0.40141 0.09599 0.0
C2927 C 0.98418 0.40852 0.09343 0.0
C2928 C 0.97851 0.40755 0.08015 0.0
H2929 H 0.97545 0.46205 0.15236 0.0
H2930 H 0.97353 0.44859 0.13133 0.0
C2931 C 0.97948 0.39979 0.06944 0.0
C2932 C 0.98441 0.41771 0.10446 0.0
H2933 H 0.96559 0.4217 0.12783 0.0
C2934 C 0.99644 0.42909 0.10851 0.0
C2935 C 0.97308 0.41512 0.11125 0.0
C2936 C 0.95999 0.40295 0.10721 0.0
C2937 C 0.99751 0.43787 0.11941 0.0
C2938 C 0.9863 0.435 0.12665 0.0
C2939 C 0.97416 0.42384 0.12229 0.0
C2940 C 0.98723 0.44301 0.13931 0.0
C2941 C 0.01064 0.45015 0.12306 0.0
C2942 C 0.99535 0.4441 0.1508 0.0
C2943 C 0.99648 0.45175 0.16272 0.0
C2944 C 0.98942 0.45841 0.16346 0.0
C2945 C 0.98102 0.45705 0.15206 0.0
C2946 C 0.97993 0.4494 0.14006 0.0
H2947 H 0.01691 0.45299 0.11411 0.0
H2948 H 0.00949 0.45861 0.12655 0.0
H2949 H 0.01582 0.44822 0.1316 0.0
H2950 H 0.00078 0.43894 0.15057 0.0
H2951 H 0.00275 0.4523 0.17146 0.0
H2952 H 0.61979 0.58399 0.12394 0.0
H2953 H 0.60812 0.56862 0.14158 0.0
H2954 H 0.57313 0.54929 0.11414 0.0
H2955 H 0.58454 0.56486 0.09667 0.0
H2956 H 0.56891 0.55604 0.14024 0.0
H2957 H 0.59647 0.52944 0.1434 0.0
H2958 H 0.60653 0.54713 0.14543 0.0
H2959 H 0.5975 0.53933 0.12918 0.0
C2960 C 0.60962 0.57645 0.12165 0.0
C2961 C 0.60311 0.57565 0.10888 0.0
C2962 C 0.60302 0.56758 0.13168 0.0
C2963 C 0.58982 0.55771 0.12908 0.0
C2964 C 0.58335 0.55678 0.11629 0.0
H2965 H 0.54031 0.4916 0.17701 0.0
H2966 H 0.5541 0.50589 0.15957 0.0
C2967 C 0.58992 0.56563 0.10628 0.0
C2968 C 0.58246 0.54891 0.14 0.0
H2969 H 0.58128 0.52548 0.1606 0.0
C2970 C 0.57159 0.54934 0.14467 0.0
C2971 C 0.58593 0.5401 0.14566 0.0
C2972 C 0.59717 0.53884 0.1406 0.0
C2973 C 0.56416 0.54127 0.15496 0.0
C2974 C 0.56783 0.53273 0.1609 0.0
C2975 C 0.5786 0.53216 0.15612 0.0
C2976 C 0.5604 0.52412 0.17189 0.0
C2977 C 0.55229 0.54181 0.15921 0.0
C2978 C 0.55968 0.52965 0.1847 0.0
C2979 C 0.55184 0.52154 0.19467 0.0
C2980 C 0.54465 0.50773 0.19203 0.0
C2981 C 0.5458 0.5022 0.17939 0.0
C2982 C 0.55363 0.51033 0.1694 0.0
H2983 H 0.54902 0.54641 0.15142 0.0
H2984 H 0.54401 0.53176 0.1607 0.0
H2985 H 0.55477 0.54782 0.16919 0.0
H2986 H 0.56504 0.54027 0.18691 0.0
H2987 H 0.55134 0.52608 0.20442 0.0
H2988 H 0.42377 0.99708 0.07373 0.0
H2989 H 0.43742 -0.00029 0.09452 0.0
H2990 H 0.43886 0.03612 0.10685 0.0
H2991 H 0.42518 0.03358 0.08602 0.0
H2992 H 0.4625 0.02007 0.10461 0.0
H2993 H 0.42409 0.01369 0.14007 0.0
H2994 H 0.42067 0.00982 0.12162 0.0
H2995 H 0.42876 0.02671 0.12853 0.0
C2996 C 0.42715 0.00576 0.08075 0.0
C2997 C 0.42333 0.01509 0.07827 0.0
C2998 C 0.43491 0.00721 0.09265 0.0
C2999 C 0.43898 0.018 0.10231 0.0
C3000 C 0.43559 0.02759 0.09965 0.0
H3001 H 0.47681 0.03137 0.18531 0.0
H3002 H 0.46875 0.03496 0.16321 0.0
C3003 C 0.42778 0.02612 0.08776 0.0
C3004 C 0.44637 0.01888 0.11536 0.0
H3005 H 0.44413 0.01757 0.15037 0.0
C3006 C 0.45853 0.0196 0.11464 0.0
C3007 C 0.44116 0.01827 0.12841 0.0
C3008 C 0.42791 0.01697 0.12978 0.0
C3009 C 0.46558 0.01963 0.12663 0.0
C3010 C 0.46022 0.0187 0.13962 0.0
C3011 C 0.44823 0.01832 0.14038 0.0
C3012 C 0.46643 0.01731 0.15249 0.0
C3013 C 0.4787 0.02064 0.12528 0.0
C3014 C 0.46786 0.00624 0.15375 0.0
C3015 C 0.47249 0.00419 0.16633 0.0
C3016 C 0.47572 0.01314 0.17791 0.0
C3017 C 0.47457 0.02439 0.17653 0.0
C3018 C 0.4699 0.02642 0.16394 0.0
H3019 H 0.48311 0.02513 0.11556 0.0
H3020 H 0.48565 0.02661 0.13422 0.0
H3021 H 0.47737 0.01058 0.12503 0.0
H3022 H 0.46501 0.99896 0.14512 0.0
H3023 H 0.47336 0.99549 0.16705 0.0
H3024 H 0.38488 0.97842 0.93867 0.0
H3025 H 0.39641 0.97783 0.91841 0.0
H3026 H 0.43004 0.98618 0.94506 0.0
H3027 H 0.41874 0.98702 0.96531 0.0
H3028 H 0.4204 0.99873 0.9105 0.0
H3029 H 0.42377 0.95423 0.91969 0.0
H3030 H 0.41245 0.95776 0.92819 0.0
H3031 H 0.42941 0.96602 0.93438 0.0
C3032 C 0.39473 0.98012 0.94022 0.0
C3033 C 0.40087 0.98273 0.95363 0.0
C3034 C 0.40126 0.9797 0.92865 0.0
C3035 C 0.414 0.98177 0.93027 0.0
C3036 C 0.4201 0.98425 0.94362 0.0
H3037 H 0.47668 0.00914 0.8759 0.0
H3038 H 0.4613 0.00617 0.89347 0.0
C3039 C 0.41361 0.98471 0.95518 0.0
C3040 C 0.42126 0.98216 0.91801 0.0
H3041 H 0.43761 0.96839 0.90302 0.0
C3042 C 0.42405 0.99201 0.90877 0.0
C3043 C 0.42588 0.9733 0.91571 0.0
C3044 C 0.42263 0.96214 0.92494 0.0
C3045 C 0.43178 0.99355 0.89757 0.0
C3046 C 0.43694 0.98511 0.89568 0.0
C3047 C 0.43373 0.97493 0.90459 0.0
C3048 C 0.44606 0.98696 0.88479 0.0
C3049 C 0.43442 0.00424 0.88788 0.0
C3050 C 0.44265 0.97705 0.87422 0.0
C3051 C 0.45139 0.97873 0.8641 0.0
C3052 C 0.46376 0.99034 0.86445 0.0
C3053 C 0.46715 0.00021 0.87515 0.0
C3054 C 0.45839 0.99852 0.88522 0.0
H3055 H 0.42711 0.00749 0.88853 0.0
H3056 H 0.44427 0.01294 0.89073 0.0
H3057 H 0.43429 0.0008 0.87699 0.0
H3058 H 0.43319 0.96803 0.87376 0.0
H3059 H 0.44842 0.971 0.85593 0.0
H3060 H 0.02233 0.42324 0.97232 0.0
H3061 H 0.02282 0.43729 0.9542 0.0
H3062 H 0.02954 0.41363 0.92412 0.0
H3063 H 0.02929 0.39958 0.94228 0.0
H3064 H 0.04258 0.45206 0.93527 0.0
H3065 H 0.99555 0.41241 0.909 0.0
H3066 H 0.00084 0.41146 0.92642 0.0
H3067 H 0.00814 0.40834 0.91191 0.0
C3068 C 0.02418 0.42115 0.96192 0.0
C3069 C 0.02575 0.41026 0.95876 0.0
C3070 C 0.02438 0.42916 0.95157 0.0
C3071 C 0.02607 0.42639 0.93783 0.0
C3072 C 0.02803 0.41579 0.93465 0.0
H3073 H 0.03541 0.47718 0.87015 0.0
H3074 H 0.0389 0.46392 0.88679 0.0
C3075 C 0.02786 0.40777 0.94503 0.0
C3076 C 0.02525 0.43437 0.92683 0.0
H3077 H 0.00591 0.43294 0.89902 0.0
C3078 C 0.03463 0.44789 0.92726 0.0
C3079 C 0.01477 0.42888 0.91653 0.0
C3080 C 0.00417 0.4145 0.91592 0.0
C3081 C 0.03376 0.45611 0.91769 0.0
C3082 C 0.02328 0.45062 0.9074 0.0
C3083 C 0.01396 0.43708 0.9069 0.0
C3084 C 0.02141 0.45885 0.89747 0.0
C3085 C 0.04379 0.47068 0.91891 0.0
C3086 C 0.01036 0.46027 0.89792 0.0
C3087 C 0.00836 0.46786 0.8885 0.0
C3088 C 0.01734 0.47412 0.87837 0.0
C3089 C 0.02842 0.47267 0.87796 0.0
C3090 C 0.03042 0.46507 0.88742 0.0
H3091 H 0.04976 0.47375 0.92892 0.0
H3092 H 0.0505 0.473 0.9104 0.0
H3093 H 0.03894 0.47663 0.91791 0.0
H3094 H 0.00331 0.45554 0.90562 0.0
H3095 H -0.00016 0.46893 0.88923 0.0
H3096 H 0.57867 0.58708 0.99532 0.0
H3097 H 0.56427 0.579 0.97417 0.0
H3098 H 0.56724 0.61698 0.97175 0.0
H3099 H 0.5817 0.62517 0.99301 0.0
H3100 H 0.54014 0.57738 0.96763 0.0
H3101 H 0.57889 0.61093 0.93413 0.0
H3102 H 0.58259 0.60835 0.95156 0.0
H3103 H 0.57586 0.61881 0.94865 0.0
C3104 C 0.57613 0.59368 0.99042 0.0
C3105 C 0.58137 0.60679 0.99583 0.0
C3106 C 0.56793 0.58906 0.9783 0.0
C3107 C 0.56483 0.59744 0.97131 0.0
C3108 C 0.56973 0.61043 0.97685 0.0
H3109 H 0.52462 0.58023 0.88857 0.0
H3110 H 0.53369 0.5907 0.91188 0.0
C3111 C 0.57798 0.61509 0.98898 0.0
C3112 C 0.55674 0.59256 0.95803 0.0
H3113 H 0.55815 0.59618 0.92321 0.0
C3114 C 0.54403 0.58156 0.95793 0.0
C3115 C 0.56183 0.59806 0.94539 0.0
C3116 C 0.57557 0.60963 0.94483 0.0
C3117 C 0.53636 0.57573 0.94548 0.0
C3118 C 0.54164 0.58093 0.93282 0.0
C3119 C 0.55414 0.59224 0.93296 0.0
C3120 C 0.53488 0.57417 0.91925 0.0
C3121 C 0.52274 0.56397 0.94598 0.0
C3122 C 0.5325 0.56141 0.91572 0.0
C3123 C 0.52735 0.55544 0.90247 0.0
C3124 C 0.52452 0.56214 0.89246 0.0
C3125 C 0.52658 0.57479 0.89612 0.0
C3126 C 0.53181 0.58079 0.90939 0.0
H3127 H 0.51872 0.56378 0.95622 0.0
H3128 H 0.51595 0.56401 0.93779 0.0
H3129 H 0.52309 0.55477 0.94429 0.0
H3130 H 0.53503 0.55622 0.92309 0.0
H3131 H 0.52576 0.54565 0.89998 0.0
H3132 H 0.03405 0.61545 0.98999 0.0
H3133 H 0.03724 0.6027 0.9714 0.0
H3134 H 0.99557 0.58056 0.9612 0.0
H3135 H 0.99223 0.59293 0.97984 0.0
H3136 H 0.02467 0.57338 0.967 0.0
H3137 H 0.01294 0.59679 0.92445 0.0
H3138 H 0.01773 0.60422 0.94196 0.0
H3139 H 0.00129 0.59092 0.93757 0.0
C3140 C 0.02556 0.60779 0.98386 0.0
C3141 C 0.01289 0.60533 0.98631 0.0
C3142 C 0.02741 0.60056 0.97323 0.0
C3143 C 0.01665 0.59085 0.96485 0.0
C3144 C 0.00401 0.58819 0.96743 0.0
H3145 H 0.99644 0.53597 0.89547 0.0
H3146 H 0.99781 0.54967 0.91577 0.0
C3147 C 0.00214 0.59534 0.97804 0.0
C3148 C 0.01847 0.58344 0.95329 0.0
H3149 H 0.01337 0.57723 0.91822 0.0
C3150 C 0.02238 0.5743 0.9563 0.0
C3151 C 0.01549 0.58474 0.93939 0.0
C3152 C 0.01174 0.59478 0.93558 0.0
C3153 C 0.02278 0.56595 0.94576 0.0
C3154 C 0.01936 0.56696 0.93189 0.0
C3155 C 0.0159 0.57643 0.92888 0.0
C3156 C 0.01859 0.55787 0.92037 0.0
C3157 C 0.02629 0.55575 0.94957 0.0
C3158 C 0.02983 0.55783 0.9163 0.0
C3159 C 0.02906 0.54986 0.90473 0.0
C3160 C 0.01704 0.54185 0.89702 0.0
C3161 C 0.00579 0.54179 0.90131 0.0
C3162 C 0.00657 0.54971 0.91285 0.0
H3163 H 0.0261 0.5545 0.96088 0.0
H3164 H 0.01944 0.54603 0.94401 0.0
H3165 H 0.03632 0.55889 0.94646 0.0
H3166 H 0.03924 0.56421 0.92185 0.0
H3167 H 0.03788 0.5501 0.90172 0.0
H3168 H 0.41344 0.44063 0.96747 0.0
H3169 H 0.42571 0.45697 0.95087 0.0
H3170 H 0.39748 0.43177 0.91791 0.0
H3171 H 0.38502 0.41541 0.93449 0.0
H3172 H 0.43599 0.45056 0.92678 0.0
H3173 H 0.40265 0.46939 0.91298 0.0
H3174 H 0.40171 0.4614 0.92881 0.0
H3175 H 0.39538 0.45172 0.91262 0.0
C3176 C 0.40968 0.43869 0.95675 0.0
C3177 C 0.39825 0.42675 0.95228 0.0
C3178 C 0.41673 0.44799 0.94728 0.0
C3179 C 0.41242 0.4456 0.93322 0.0
C3180 C 0.40086 0.43385 0.92876 0.0
H3181 H 0.44556 0.48628 0.85933 0.0
H3182 H 0.43114 0.47184 0.87632 0.0
C3183 C 0.39383 0.42449 0.93821 0.0
C3184 C 0.42059 0.45492 0.92309 0.0
H3185 H 0.42144 0.47658 0.90012 0.0
C3186 C 0.43286 0.45631 0.92099 0.0
C3187 C 0.41637 0.46226 0.91549 0.0
C3188 C 0.40335 0.46125 0.9176 0.0
C3189 C 0.44101 0.46476 0.91134 0.0
C3190 C 0.43691 0.4723 0.90387 0.0
C3191 C 0.42459 0.47085 0.90592 0.0
C3192 C 0.44528 0.48163 0.89381 0.0
C3193 C 0.45378 0.46527 0.90899 0.0
C3194 C 0.45785 0.49213 0.89809 0.0
C3195 C 0.4661 0.50033 0.88842 0.0
C3196 C 0.46186 0.49828 0.87432 0.0
C3197 C 0.44906 0.48812 0.87014 0.0
C3198 C 0.44083 0.47986 0.87981 0.0
H3199 H 0.45374 0.45637 0.91253 0.0
H3200 H 0.45585 0.4661 0.89787 0.0
H3201 H 0.46189 0.47404 0.91497 0.0
H3202 H 0.46134 0.49388 0.90889 0.0
H3203 H 0.47584 0.50823 0.89195 0.0
H3204 H 0.56259 0.98339 0.99496 0.0
H3205 H 0.54826 0.98112 0.97483 0.0
H3206 H 0.57955 0.98968 0.94809 0.0
H3207 H 0.59388 0.99196 0.96808 0.0
H3208 H 0.5518 -0.00015 0.95691 0.0
H3209 H 0.5491 0.95675 0.92824 0.0
H3210 H 0.55504 0.9613 0.9462 0.0
H3211 H 0.56569 0.96962 0.93267 0.0
C3212 C 0.56639 0.98474 0.98478 0.0
C3213 C 0.57934 0.98778 0.9831 0.0
C3214 C 0.55818 0.98338 0.97329 0.0
C3215 C 0.56277 0.985 0.95994 0.0
C3216 C 0.57569 0.98803 0.95825 0.0
H3217 H 0.5418 0.00982 0.88691 0.0
H3218 H 0.55021 0.00761 0.9094 0.0
C3219 C 0.58387 0.98934 0.96969 0.0
C3220 C 0.55438 0.98433 0.94784 0.0
H3221 H 0.54309 0.97003 0.9151 0.0
C3222 C 0.54974 0.99321 0.94784 0.0
C3223 C 0.5515 0.97551 0.9361 0.0
C3224 C 0.55548 0.96516 0.93583 0.0
C3225 C 0.54284 0.99394 0.93614 0.0
C3226 C 0.54076 0.98575 0.92407 0.0
C3227 C 0.54483 0.97642 0.92431 0.0
C3228 C 0.53508 0.98721 0.91084 0.0
C3229 C 0.53794 0.00356 0.93679 0.0
C3230 C 0.52389 0.9764 0.90405 0.0
C3231 C 0.51906 0.97763 0.89113 0.0
C3232 C 0.52538 0.98967 0.88477 0.0
C3233 C 0.53653 0.00049 0.89166 0.0
C3234 C 0.54136 0.99925 0.90453 0.0
H3235 H 0.53656 0.00585 0.94763 0.0
H3236 H 0.54527 0.01295 0.9326 0.0
H3237 H 0.52851 0.99962 0.93055 0.0
H3238 H 0.51895 0.967 0.90871 0.0
H3239 H 0.51041 0.96914 0.88612 0.0
H3240 H 0.6053 0.03799 0.10536 0.0
H3241 H 0.5934 0.03903 0.12513 0.0
H3242 H 0.58326 0.99941 0.13394 0.0
H3243 H 0.59501 0.99826 0.11428 0.0
H3244 H 0.56706 0.0228 0.1293 0.0
H3245 H 0.59772 0.01942 0.17165 0.0
H3246 H 0.60316 0.0233 0.15439 0.0
H3247 H 0.59239 0.00642 0.15824 0.0
C3248 C 0.60056 0.02952 0.11154 0.0
C3249 C 0.6012 0.01809 0.10832 0.0
C3250 C 0.59382 0.03015 0.12285 0.0
C3251 C 0.58767 0.0194 0.13116 0.0
C3252 C 0.58825 0.00797 0.12791 0.0
H3253 H 0.53347 0.99158 0.19457 0.0
H3254 H 0.54873 0.99535 0.17657 0.0
C3255 C 0.59498 0.00733 0.11666 0.0
C3256 C 0.58002 0.01974 0.14277 0.0
H3257 H 0.57634 0.01488 0.17723 0.0
C3258 C 0.56919 0.02128 0.13983 0.0
C3259 C 0.58284 0.01775 0.15649 0.0
C3260 C 0.59474 0.01676 0.16043 0.0
C3261 C 0.56075 0.02028 0.15013 0.0
C3262 C 0.56333 0.01783 0.16373 0.0
C3263 C 0.57437 0.01669 0.16676 0.0
C3264 C 0.55433 0.01581 0.1748 0.0
C3265 C 0.54885 0.0213 0.14628 0.0
C3266 C 0.55257 0.02612 0.17987 0.0
C3267 C 0.54383 0.02399 0.19013 0.0
C3268 C 0.53671 0.01149 0.19548 0.0
C3269 C 0.53867 0.00125 0.19051 0.0
C3270 C 0.54744 0.00341 0.1803 0.0
H3271 H 0.54695 0.02073 0.13487 0.0
H3272 H 0.54001 0.01331 0.1507 0.0
H3273 H 0.55039 0.0309 0.15062 0.0
H3274 H 0.55794 0.03581 0.17586 0.0
H3275 H 0.54247 0.03205 0.19369 0.0
H3276 H 0.95931 0.57574 0.09441 0.0
H3277 H 0.95773 0.56064 0.11199 0.0
H3278 H 0.99543 0.59043 0.13076 0.0
H3279 H 0.99707 0.60551 0.11333 0.0
H3280 H 0.9744 0.55121 0.11678 0.0
H3281 H 0.97347 0.57871 0.16411 0.0
H3282 H 0.97055 0.58251 0.14693 0.0
H3283 H 0.98704 0.58869 0.15402 0.0
C3284 C 0.96721 0.57908 0.10235 0.0
C3285 C 0.97827 0.59185 0.10254 0.0
C3286 C 0.96628 0.57048 0.1124 0.0
C3287 C 0.97635 0.5745 0.12283 0.0
C3288 C 0.98736 0.58725 0.12306 0.0
H3289 H 0.00277 0.5417 0.18437 0.0
H3290 H 0.99927 0.55502 0.16788 0.0
C3291 C 0.98829 0.59586 0.11307 0.0
C3292 C 0.97586 0.56514 0.13292 0.0
H3293 H 0.97888 0.56185 0.16752 0.0
C3294 C 0.97517 0.55342 0.12788 0.0
C3295 C 0.97685 0.56805 0.14739 0.0
C3296 C 0.97689 0.58011 0.15344 0.0
C3297 C 0.97605 0.54482 0.13692 0.0
C3298 C 0.97752 0.54799 0.15136 0.0
C3299 C 0.97782 0.5595 0.15643 0.0
C3300 C 0.97941 0.53982 0.16136 0.0
C3301 C 0.97595 0.53269 0.13097 0.0
C3302 C 0.96935 0.5269 0.16321 0.0
C3303 C 0.97134 0.51924 0.17259 0.0
C3304 C 0.98343 0.52438 0.18025 0.0
C3305 C 0.99343 0.53738 0.17845 0.0
C3306 C 0.99141 0.54504 0.16913 0.0
H3307 H 0.97711 0.53292 0.11963 0.0
H3308 H 0.98392 0.53172 0.13613 0.0
H3309 H 0.96649 0.52378 0.13283 0.0
H3310 H 0.95997 0.52276 0.15742 0.0
H3311 H 0.96348 0.50924 0.17372 0.0
H3312 H 0.41382 0.38162 0.07716 0.0
H3313 H 0.4293 0.39159 0.09748 0.0
H3314 H 0.45116 0.42756 0.07682 0.0
H3315 H 0.4355 0.41783 0.05661 0.0
H3316 H 0.45712 0.40308 0.10065 0.0
H3317 H 0.4413 0.43942 0.11282 0.0
H3318 H 0.43198 0.42521 0.10075 0.0
H3319 H 0.44653 0.43942 0.09563 0.0
C3320 C 0.42191 0.39166 0.07694 0.0
C3321 C 0.42335 0.39897 0.06532 0.0
C3322 C 0.43079 0.3973 0.08852 0.0
C3323 C 0.44125 0.41036 0.08871 0.0
C3324 C 0.44303 0.41752 0.07694 0.0
H3325 H 0.49459 0.46143 0.15792 0.0
H3326 H 0.48464 0.45237 0.13451 0.0
C3327 C 0.43415 0.4119 0.06535 0.0
C3328 C 0.44991 0.41663 0.10147 0.0
H3329 H 0.45831 0.44068 0.12733 0.0
C3330 C 0.45745 0.41134 0.10647 0.0
C3331 C 0.4503 0.4274 0.10901 0.0
C3332 C 0.44203 0.43316 0.10438 0.0
C3333 C 0.46536 0.41654 0.11887 0.0
C3334 C 0.46554 0.42714 0.12655 0.0
C3335 C 0.4582 0.43259 0.12139 0.0
C3336 C 0.47264 0.43231 0.14034 0.0
C3337 C 0.4735 0.41069 0.1236 0.0
C3338 C 0.46924 0.42401 0.15136 0.0
C3339 C 0.47487 0.42915 0.16472 0.0
C3340 C 0.48393 0.44272 0.16735 0.0
C3341 C 0.48756 0.45095 0.15623 0.0
C3342 C 0.48194 0.44579 0.14286 0.0
H3343 H 0.4754 0.40565 0.1148 0.0
H3344 H 0.48303 0.4184 0.12875 0.0
H3345 H 0.46811 0.40323 0.13115 0.0
H3346 H 0.46184 0.41365 0.14973 0.0
H3347 H 0.47168 0.4226 0.1731 0.0
H3348 H 0.63097 0.73322 0.39141 0.0
H3349 H 0.62385 0.74253 0.40993 0.0
H3350 H 0.63519 0.72352 0.44011 0.0
H3351 H 0.64219 0.7141 0.42168 0.0
H3352 H 0.61146 0.72167 0.44492 0.0
H3353 H 0.64949 0.77344 0.43645 0.0
H3354 H 0.63856 0.76424 0.42165 0.0
H3355 H 0.64968 0.75938 0.42853 0.0
C3356 C 0.63191 0.73102 0.402 0.0
C3357 C 0.63721 0.723 0.40511 0.0
C3358 C 0.62787 0.73636 0.41256 0.0
C3359 C 0.62921 0.73391 0.42641 0.0
C3360 C 0.63408 0.72555 0.42948 0.0
H3361 H 0.63016 0.75995 0.50905 0.0
H3362 H 0.6291 0.74842 0.48703 0.0
C3363 C 0.63804 0.72014 0.41894 0.0
C3364 C 0.626 0.74034 0.43786 0.0
H3365 H 0.63572 0.77035 0.45453 0.0
C3366 C 0.61667 0.73232 0.44695 0.0
C3367 C 0.63279 0.75425 0.44046 0.0
C3368 C 0.64327 0.76336 0.43135 0.0
C3369 C 0.61421 0.73782 0.45878 0.0
C3370 C 0.62134 0.75167 0.46163 0.0
C3371 C 0.63024 0.75973 0.45225 0.0
C3372 C 0.62081 0.75789 0.475 0.0
C3373 C 0.60418 0.72877 0.4683 0.0
C3374 C 0.61658 0.7671 0.47549 0.0
C3375 C 0.61718 0.77372 0.48811 0.0
C3376 C 0.62226 0.77139 0.50031 0.0
C3377 C 0.62631 0.76202 0.49977 0.0
C3378 C 0.62559 0.75533 0.48724 0.0
H3379 H 0.59706 0.71908 0.46284 0.0
H3380 H 0.60926 0.72691 0.47702 0.0
H3381 H 0.59874 0.73332 0.47268 0.0
H3382 H 0.61298 0.76928 0.46611 0.0
H3383 H 0.61407 0.78096 0.48825 0.0
H3384 H 0.24428 0.89992 0.43773 0.0
H3385 H 0.23356 0.88468 0.45574 0.0
H3386 H 0.27134 0.89604 0.47554 0.0
H3387 H 0.28213 0.91144 0.45762 0.0
H3388 H 0.23507 0.86339 0.46364 0.0
H3389 H 0.25297 0.90196 0.50715 0.0
H3390 H 0.25441 0.9059 0.48925 0.0
H3391 H 0.26572 0.90202 0.49764 0.0
C3392 C 0.25031 0.8991 0.44587 0.0
C3393 C 0.26404 0.90692 0.44632 0.0
C3394 C 0.24417 0.89042 0.45617 0.0
C3395 C 0.25164 0.8894 0.46711 0.0
C3396 C 0.26537 0.89693 0.46739 0.0
H3397 H 0.226 0.84023 0.53804 0.0
H3398 H 0.23925 0.85423 0.52003 0.0
C3399 C 0.27152 0.90569 0.45713 0.0
C3400 C 0.24499 0.88042 0.47818 0.0
H3401 H 0.24087 0.87972 0.51295 0.0
C3402 C 0.23636 0.86696 0.47442 0.0
C3403 C 0.24669 0.8851 0.49225 0.0
C3404 C 0.25535 0.89955 0.49684 0.0
C3405 C 0.22933 0.85807 0.48434 0.0
C3406 C 0.23094 0.8628 0.49834 0.0
C3407 C 0.23975 0.87617 0.50218 0.0
C3408 C 0.22298 0.85414 0.50903 0.0
C3409 C 0.2202 0.8437 0.47982 0.0
C3410 C 0.20952 0.8496 0.50879 0.0
C3411 C 0.20199 0.84171 0.51905 0.0
C3412 C 0.20778 0.83819 0.52971 0.0
C3413 C 0.22128 0.84271 0.52989 0.0
C3414 C 0.22884 0.85072 0.51967 0.0
H3415 H 0.22212 0.84113 0.46933 0.0
H3416 H 0.22115 0.83725 0.48728 0.0
H3417 H 0.20993 0.84156 0.47954 0.0
H3418 H 0.20487 0.85225 0.50072 0.0
H3419 H 0.19159 0.83826 0.51858 0.0
H3420 H 0.10591 0.33738 0.41002 0.0
H3421 H 0.12071 0.3442 0.43095 0.0
H3422 H 0.1071 0.37032 0.44471 0.0
H3423 H 0.09212 0.36334 0.42397 0.0
H3424 H 0.14083 0.36819 0.44205 0.0
H3425 H 0.09993 0.34736 0.47702 0.0
H3426 H 0.09733 0.34398 0.45848 0.0
H3427 H 0.09982 0.35934 0.46619 0.0
C3428 C 0.10617 0.34465 0.41747 0.0
C3429 C 0.09777 0.34971 0.41549 0.0
C3430 C 0.1146 0.34853 0.42941 0.0
C3431 C 0.1148 0.35756 0.43951 0.0
C3432 C 0.10685 0.36307 0.43723 0.0
H3433 H 0.15411 0.38563 0.52184 0.0
H3434 H 0.14381 0.38432 0.49895 0.0
C3435 C 0.09832 0.3591 0.42538 0.0
C3436 C 0.123 0.36087 0.45262 0.0
H3437 H 0.12138 0.35959 0.4877 0.0
C3438 C 0.13659 0.36632 0.45204 0.0
C3439 C 0.11743 0.35836 0.46563 0.0
C3440 C 0.10282 0.35182 0.46691 0.0
C3441 C 0.14476 0.3694 0.46416 0.0
C3442 C 0.13916 0.3669 0.47711 0.0
C3443 C 0.12562 0.3616 0.47771 0.0
C3444 C 0.14699 0.369 0.4902 0.0
C3445 C 0.15931 0.37534 0.46306 0.0
C3446 C 0.15228 0.36092 0.49276 0.0
C3447 C 0.15811 0.36161 0.5058 0.0
C3448 C 0.15873 0.37041 0.5165 0.0
C3449 C 0.15388 0.37887 0.51374 0.0
C3450 C 0.14797 0.3781 0.50071 0.0
H3451 H 0.16243 0.37939 0.45281 0.0
H3452 H 0.16489 0.38334 0.47132 0.0
H3453 H 0.16191 0.36758 0.46441 0.0
H3454 H 0.15144 0.35371 0.48483 0.0
H3455 H 0.16183 0.35503 0.50764 0.0
H3456 H 0.05241 0.29783 0.27732 0.0
H3457 H 0.06214 0.29444 0.25681 0.0
H3458 H 0.09791 0.30619 0.28136 0.0
H3459 H 0.0884 0.30993 0.30182 0.0
H3460 H 0.10149 0.31936 0.25691 0.0
H3461 H 0.07028 0.26493 0.24679 0.0
H3462 H 0.06149 0.27362 0.24874 0.0
H3463 H 0.07125 0.27334 0.26322 0.0
C3464 C 0.06234 0.29965 0.27836 0.0
C3465 C 0.06963 0.30414 0.29121 0.0
C3466 C 0.06783 0.29758 0.26666 0.0
C3467 C 0.08068 0.29992 0.26762 0.0
C3468 C 0.08793 0.30424 0.28045 0.0
H3469 H 0.12405 0.28306 0.20831 0.0
H3470 H 0.11189 0.2835 0.228 0.0
C3471 C 0.08245 0.30628 0.29214 0.0
C3472 C 0.08689 0.29865 0.25512 0.0
H3473 H 0.08492 0.27662 0.22964 0.0
C3474 C 0.09788 0.31002 0.25095 0.0
C3475 C 0.0822 0.28643 0.24745 0.0
C3476 C 0.07073 0.27384 0.2518 0.0
C3477 C 0.10427 0.30952 0.23923 0.0
C3478 C 0.09942 0.29736 0.23138 0.0
C3479 C 0.08851 0.28595 0.23562 0.0
C3480 C 0.10584 0.29628 0.21898 0.0
C3481 C 0.11631 0.32196 0.23547 0.0
C3482 C 0.10617 0.30306 0.20727 0.0
C3483 C 0.11305 0.30277 0.19596 0.0
C3484 C 0.11968 0.29566 0.19617 0.0
C3485 C 0.11894 0.28851 0.20775 0.0
C3486 C 0.11205 0.2888 0.21904 0.0
H3487 H 0.1204 0.32969 0.24419 0.0
H3488 H 0.12404 0.31984 0.2324 0.0
H3489 H 0.11369 0.32599 0.22654 0.0
H3490 H 0.10125 0.3087 0.20695 0.0
H3491 H 0.11325 0.30819 0.1871 0.0
H3492 H 0.68352 0.73234 0.27826 0.0
H3493 H 0.68909 0.74795 0.26019 0.0
H3494 H 0.71445 0.78012 0.2899 0.0
H3495 H 0.70889 0.76457 0.30805 0.0
H3496 H 0.68389 0.7685 0.26131 0.0
H3497 H 0.73698 0.78767 0.25654 0.0
H3498 H 0.72658 0.77265 0.26479 0.0
H3499 H 0.73248 0.78845 0.27393 0.0
C3500 C 0.69036 0.74273 0.28092 0.0
C3501 C 0.69572 0.74724 0.29459 0.0
C3502 C 0.69359 0.75161 0.27058 0.0
C3503 C 0.70227 0.76516 0.27368 0.0
C3504 C 0.70794 0.76967 0.28722 0.0
H3505 H 0.72298 0.83526 0.22976 0.0
H3506 H 0.72148 0.8195 0.24644 0.0
C3507 C 0.70474 0.76077 0.29758 0.0
C3508 C 0.70439 0.77465 0.26307 0.0
H3509 H 0.7278 0.79894 0.24501 0.0
C3510 C 0.69347 0.77509 0.25766 0.0
C3511 C 0.71693 0.7833 0.25845 0.0
C3512 C 0.72891 0.78296 0.26362 0.0
C3513 C 0.69476 0.78406 0.24788 0.0
C3514 C 0.70728 0.79267 0.24319 0.0
C3515 C 0.71822 0.79229 0.24862 0.0
C3516 C 0.70911 0.80218 0.23271 0.0
C3517 C 0.68275 0.78447 0.24288 0.0
C3518 C 0.70295 0.79765 0.21937 0.0
C3519 C 0.70378 0.8066 0.20984 0.0
C3520 C 0.71088 0.82027 0.21346 0.0
C3521 C 0.7175 0.8248 0.22665 0.0
C3522 C 0.71663 0.81582 0.23619 0.0
H3523 H 0.67467 0.77962 0.24993 0.0
H3524 H 0.68507 0.79481 0.24198 0.0
H3525 H 0.67918 0.77916 0.23249 0.0
H3526 H 0.69732 0.78716 0.2164 0.0
H3527 H 0.6988 0.80283 0.19967 0.0
H3528 H 0.25684 0.9339 0.31705 0.0
H3529 H 0.24203 0.92667 0.29627 0.0
H3530 H 0.21545 0.93483 0.3179 0.0
H3531 H 0.23038 0.94234 0.33882 0.0
H3532 H 0.20331 0.90979 0.30231 0.0
H3533 H 0.23602 0.95089 0.27099 0.0
H3534 H 0.24395 0.94294 0.27885 0.0
H3535 H 0.2383 0.95165 0.28963 0.0
C3536 C 0.24795 0.93435 0.31738 0.0
C3537 C 0.24489 0.93886 0.32957 0.0
C3538 C 0.23948 0.93019 0.30549 0.0
C3539 C 0.22778 0.93045 0.30549 0.0
C3540 C 0.2245 0.93465 0.31769 0.0
H3541 H 0.18518 0.91578 0.22464 0.0
H3542 H 0.19418 0.92525 0.24824 0.0
C3543 C 0.23301 0.93887 0.32963 0.0
C3544 C 0.21895 0.92605 0.29274 0.0
H3545 H 0.21859 0.93158 0.25846 0.0
C3546 C 0.20654 0.91465 0.29275 0.0
C3547 C 0.2231 0.93255 0.28037 0.0
C3548 C 0.23602 0.94527 0.27994 0.0
C3549 C 0.19847 0.90913 0.28048 0.0
C3550 C 0.20305 0.9151 0.26791 0.0
C3551 C 0.21513 0.92694 0.26808 0.0
C3552 C 0.19606 0.90872 0.25429 0.0
C3553 C 0.18522 0.89686 0.28107 0.0
C3554 C 0.19405 0.89626 0.24992 0.0
C3555 C 0.1889 0.89084 0.2365 0.0
C3556 C 0.18575 0.89781 0.22714 0.0
C3557 C 0.1874 0.91012 0.23166 0.0
C3558 C 0.19258 0.91556 0.24511 0.0
H3559 H 0.18144 0.89613 0.29152 0.0
H3560 H 0.17798 0.89667 0.27331 0.0
H3561 H 0.18612 0.88802 0.27881 0.0
H3562 H 0.19691 0.89093 0.25672 0.0
H3563 H 0.18762 0.88128 0.23336 0.0
H3564 H 0.69962 0.92657 0.34338 0.0
H3565 H 0.70729 0.91628 0.32654 0.0
H3566 H 0.70429 0.93961 0.2949 0.0
H3567 H 0.69676 0.94998 0.31167 0.0
H3568 H 0.69374 0.90124 0.30381 0.0
H3569 H 0.73952 0.9438 0.2883 0.0
H3570 H 0.73159 0.94471 0.30354 0.0
H3571 H 0.72613 0.9468 0.28672 0.0
C3572 C 0.70073 0.92959 0.33286 0.0
C3573 C 0.6976 0.93909 0.32884 0.0
C3574 C 0.70517 0.92376 0.32327 0.0
C3575 C 0.70657 0.92733 0.30951 0.0
C3576 C 0.70366 0.93697 0.30555 0.0
H3577 H 0.69445 0.88335 0.23404 0.0
H3578 H 0.69368 0.89365 0.25604 0.0
C3579 C 0.69931 0.94287 0.31514 0.0
C3580 C 0.7098 0.9201 0.29895 0.0
H3581 H 0.72909 0.92461 0.27196 0.0
C3582 C 0.70163 0.90633 0.29701 0.0
C3583 C 0.72023 0.92668 0.29022 0.0
C3584 C 0.72995 0.9413 0.2924 0.0
C3585 C 0.70309 0.89909 0.28606 0.0
C3586 C 0.7128 0.90584 0.27664 0.0
C3587 C 0.72152 0.91947 0.27908 0.0
C3588 C 0.71332 0.89913 0.2636 0.0
C3589 C 0.69404 0.8843 0.28454 0.0
C3590 C 0.72474 0.89905 0.26038 0.0
C3591 C 0.72522 0.89313 0.24773 0.0
C3592 C 0.71428 0.88725 0.2381 0.0
C3593 C 0.70291 0.88744 0.24138 0.0
C3594 C 0.70246 0.89335 0.25396 0.0
H3595 H 0.69038 0.88028 0.29467 0.0
H3596 H 0.68542 0.88193 0.2775 0.0
H3597 H 0.69901 0.87926 0.28011 0.0
H3598 H 0.73327 0.90357 0.26765 0.0
H3599 H 0.73411 0.89313 0.2455 0.0
H3600 H 0.05253 0.75704 0.27491 0.0
H3601 H 0.06374 0.7731 0.25768 0.0
H3602 H 0.09307 0.79949 0.2892 0.0
H3603 H 0.08184 0.78363 0.30657 0.0
H3604 H 0.07231 0.80186 0.2574 0.0
H3605 H 0.11284 0.79087 0.25893 0.0
H3606 H 0.09707 0.77998 0.26542 0.0
H3607 H 0.10869 0.79488 0.27539 0.0
C3608 C 0.06121 0.76637 0.27825 0.0
C3609 C 0.06637 0.769 0.29209 0.0
C3610 C 0.06762 0.7755 0.26838 0.0
C3611 C 0.07929 0.78736 0.27218 0.0
C3612 C 0.08415 0.79029 0.28607 0.0
H3613 H 0.13948 0.84764 0.22623 0.0
H3614 H 0.12577 0.83439 0.24425 0.0
C3615 C 0.07776 0.7812 0.29594 0.0
C3616 C 0.08682 0.79633 0.26149 0.0
H3617 H 0.11524 0.80792 0.24515 0.0
C3618 C 0.08169 0.80321 0.25468 0.0
C3619 C 0.09902 0.798 0.258 0.0
C3620 C 0.10474 0.79049 0.26471 0.0
C3621 C 0.08863 0.81198 0.24459 0.0
C3622 C 0.10085 0.81364 0.24109 0.0
C3623 C 0.1059 0.80668 0.2479 0.0
C3624 C 0.1086 0.82243 0.23033 0.0
C3625 C 0.08296 0.81958 0.23802 0.0
C3626 C 0.10347 0.82017 0.21654 0.0
C3627 C 0.11129 0.82776 0.20623 0.0
C3628 C 0.12441 0.83761 0.20952 0.0
C3629 C 0.12944 0.84001 0.22337 0.0
C3630 C 0.12161 0.8325 0.23367 0.0
H3631 H 0.07563 0.82005 0.24448 0.0
H3632 H 0.09077 0.82981 0.2363 0.0
H3633 H 0.07795 0.81455 0.22782 0.0
H3634 H 0.09357 0.81224 0.21366 0.0
H3635 H 0.10722 0.82559 0.1956 0.0
H3636 H 0.24089 0.29397 0.31084 0.0
H3637 H 0.2262 0.28808 0.28999 0.0
H3638 H 0.21794 0.31875 0.30202 0.0
H3639 H 0.2325 0.32459 0.32296 0.0
H3640 H 0.19578 0.29553 0.29067 0.0
H3641 H 0.23798 0.31187 0.2576 0.0
H3642 H 0.23575 0.29921 0.26885 0.0
H3643 H 0.24006 0.31533 0.27613 0.0
C3644 C 0.23586 0.29939 0.30908 0.0
C3645 C 0.23794 0.30983 0.31844 0.0
C3646 C 0.22749 0.29602 0.29717 0.0
C3647 C 0.22119 0.30315 0.29434 0.0
C3648 C 0.22274 0.31314 0.30401 0.0
H3649 H 0.19589 0.3165 0.21608 0.0
H3650 H 0.20588 0.31741 0.23883 0.0
C3651 C 0.23104 0.31646 0.31597 0.0
C3652 C 0.21368 0.3008 0.28092 0.0
H3653 H 0.21707 0.30287 0.24612 0.0
C3654 C 0.20039 0.29706 0.2809 0.0
C3655 C 0.21979 0.30299 0.26824 0.0
C3656 C 0.2342 0.30768 0.26764 0.0
C3657 C 0.19306 0.29552 0.2685 0.0
C3658 C 0.19916 0.29761 0.25582 0.0
C3659 C 0.2124 0.3012 0.25586 0.0
C3660 C 0.19234 0.29698 0.24243 0.0
C3661 C 0.17899 0.29212 0.26911 0.0
C3662 C 0.18134 0.28517 0.23691 0.0
C3663 C 0.17546 0.28465 0.22391 0.0
C3664 C 0.18053 0.29592 0.2162 0.0
C3665 C 0.19153 0.30771 0.22184 0.0
C3666 C 0.19734 0.30823 0.2348 0.0
H3667 H 0.17667 0.2937 0.27978 0.0
H3668 H 0.17683 0.29815 0.26213 0.0
H3669 H 0.17242 0.28156 0.26563 0.0
H3670 H 0.17746 0.27631 0.24253 0.0
H3671 H 0.16698 0.27544 0.21988 0.0
H3672 H 0.26504 0.34436 0.45023 0.0
H3673 H 0.2561 0.34943 0.47035 0.0
H3674 H 0.26049 0.38412 0.45189 0.0
H3675 H 0.26947 0.3791 0.43164 0.0
H3676 H 0.26752 0.37189 0.48866 0.0
H3677 H 0.22201 0.3646 0.46119 0.0
H3678 H 0.23227 0.3591 0.45355 0.0
H3679 H 0.2371 0.37628 0.45416 0.0
C3680 C 0.2642 0.35313 0.45048 0.0
C3681 C 0.26796 0.36133 0.43934 0.0
C3682 C 0.25905 0.35598 0.46196 0.0
C3683 C 0.2575 0.36706 0.46254 0.0
C3684 C 0.26137 0.37537 0.45153 0.0
H3685 H 0.22117 0.39012 0.52687 0.0
H3686 H 0.23393 0.39092 0.50714 0.0
C3687 C 0.2665 0.3725 0.43998 0.0
C3688 C 0.25186 0.3698 0.47477 0.0
H3689 H 0.22517 0.37095 0.48505 0.0
C3690 C 0.2583 0.37176 0.48787 0.0
C3691 C 0.23986 0.36969 0.47369 0.0
C3692 C 0.23232 0.3672 0.45992 0.0
C3693 C 0.25294 0.37339 0.49996 0.0
C3694 C 0.24075 0.37287 0.49891 0.0
C3695 C 0.23452 0.37135 0.48579 0.0
C3696 C 0.23385 0.37294 0.51132 0.0
C3697 C 0.26031 0.37557 0.51376 0.0
C3698 C 0.2296 0.36256 0.52014 0.0
C3699 C 0.22234 0.36208 0.53137 0.0
C3700 C 0.21916 0.37196 0.53396 0.0
C3701 C 0.2236 0.38246 0.52522 0.0
C3702 C 0.23082 0.3829 0.51392 0.0
H3703 H 0.2709 0.3794 0.51258 0.0
H3704 H 0.25926 0.38261 0.52084 0.0
H3705 H 0.25626 0.36602 0.51867 0.0
H3706 H 0.23165 0.35466 0.51817 0.0
H3707 H 0.21912 0.35391 0.53797 0.0
H3708 H 0.6314 0.89557 0.41715 0.0
H3709 H 0.62672 0.87984 0.43498 0.0
H3710 H 0.64249 0.91184 0.46668 0.0
H3711 H 0.64738 0.92765 0.44891 0.0
H3712 H 0.65306 0.89451 0.46758 0.0
H3713 H 0.59857 0.86723 0.46437 0.0
H3714 H 0.60603 0.86907 0.44813 0.0
H3715 H 0.60822 0.88342 0.45794 0.0
C3716 C 0.6338 0.89924 0.42792 0.0
C3717 C 0.63976 0.91284 0.43164 0.0
C3718 C 0.63101 0.89024 0.43809 0.0
C3719 C 0.63414 0.89469 0.45213 0.0
C3720 C 0.63991 0.90822 0.45589 0.0
H3721 H 0.61937 0.85052 0.52574 0.0
H3722 H 0.6204 0.86538 0.50819 0.0
C3723 C 0.64263 0.91722 0.44574 0.0
C3724 C 0.63227 0.88534 0.4628 0.0
H3725 H 0.60902 0.85842 0.47809 0.0
C3726 C 0.64344 0.88665 0.46993 0.0
C3727 C 0.61969 0.87517 0.46586 0.0
C3728 C 0.6074 0.87364 0.45877 0.0
C3729 C 0.64237 0.87788 0.47987 0.0
C3730 C 0.62982 0.86752 0.48269 0.0
C3731 C 0.61862 0.86634 0.47578 0.0
C3732 C 0.62823 0.85785 0.49284 0.0
C3733 C 0.65464 0.87974 0.48736 0.0
C3734 C 0.63204 0.84854 0.48984 0.0
C3735 C 0.63134 0.83995 0.49977 0.0
C3736 C 0.62687 0.84055 0.5129 0.0
C3737 C 0.62272 0.84968 0.51569 0.0
C3738 C 0.62336 0.85822 0.50572 0.0
H3739 H 0.66334 0.8895 0.48575 0.0
H3740 H 0.65339 0.87882 0.49864 0.0
H3741 H 0.65657 0.8719 0.48345 0.0
H3742 H 0.63569 0.84805 0.47988 0.0
H3743 H 0.63438 0.83289 0.49718 0.0
H3744 H 0.09727 0.75768 0.40027 0.0
H3745 H 0.11251 0.76578 0.42079 0.0
H3746 H 0.09823 0.7257 0.4315 0.0
H3747 H 0.08336 0.71747 0.41066 0.0
H3748 H 0.10577 0.76216 0.44738 0.0
H3749 H 0.13755 0.74126 0.43641 0.0
H3750 H 0.12678 0.74196 0.42322 0.0
H3751 H 0.1204 0.72911 0.43514 0.0
C3752 C 0.09757 0.75056 0.4068 0.0
C3753 C 0.0891 0.73691 0.40378 0.0
C3754 C 0.10624 0.75522 0.41858 0.0
C3755 C 0.10664 0.74635 0.42757 0.0
C3756 C 0.09829 0.73272 0.42455 0.0
H3757 H 0.13915 0.75411 0.51097 0.0
H3758 H 0.1286 0.74613 0.4876 0.0
C3759 C 0.08965 0.72804 0.41274 0.0
C3760 C 0.11509 0.7514 0.44063 0.0
H3761 H 0.13927 0.7501 0.45958 0.0
C3762 C 0.11319 0.75963 0.44998 0.0
C3763 C 0.12471 0.74803 0.44402 0.0
C3764 C 0.12759 0.7397 0.43412 0.0
C3765 C 0.12046 0.76437 0.46276 0.0
C3766 C 0.12999 0.76091 0.4662 0.0
C3767 C 0.13195 0.75272 0.45686 0.0
C3768 C 0.13775 0.76553 0.47964 0.0
C3769 C 0.11768 0.7728 0.47264 0.0
C3770 C 0.14672 0.77902 0.48269 0.0
C3771 C 0.15281 0.7836 0.49598 0.0
C3772 C 0.15003 0.77476 0.50644 0.0
C3773 C 0.14158 0.76115 0.50311 0.0
C3774 C 0.13551 0.75658 0.4898 0.0
H3775 H 0.10835 0.7724 0.4696 0.0
H3776 H 0.11718 0.76958 0.48335 0.0
H3777 H 0.12575 0.78323 0.47274 0.0
H3778 H 0.14869 0.78604 0.4749 0.0
H3779 H 0.15943 0.7941 0.49817 0.0
H3780 H 0.30217 0.06978 0.72451 0.0
H3781 H 0.29632 0.08051 0.74283 0.0
H3782 H 0.30314 0.0584 0.77317 0.0
H3783 H 0.30906 0.04769 0.75495 0.0
H3784 H 0.27751 0.07096 0.76314 0.0
H3785 H 0.32857 0.09716 0.78651 0.0
H3786 H 0.32418 0.08874 0.76947 0.0
H3787 H 0.32128 0.07953 0.78462 0.0
C3788 C 0.30222 0.06705 0.73506 0.0
C3789 C 0.30623 0.05802 0.73834 0.0
C3790 C 0.2989 0.07321 0.7455 0.0
C3791 C 0.29954 0.07041 0.75936 0.0
C3792 C 0.30286 0.06089 0.76256 0.0
H3793 H 0.27345 0.09182 0.83303 0.0
H3794 H 0.2746 0.0808 0.81154 0.0
C3795 C 0.30625 0.05479 0.75216 0.0
C3796 C 0.29745 0.07795 0.77058 0.0
H3797 H 0.31269 0.09862 0.79945 0.0
C3798 C 0.2852 0.07707 0.77107 0.0
C3799 C 0.30758 0.0861 0.78073 0.0
C3800 C 0.32118 0.08808 0.78028 0.0
C3801 C 0.28272 0.08388 0.78169 0.0
C3802 C 0.2927 0.09158 0.79216 0.0
C3803 C 0.30502 0.09266 0.79146 0.0
C3804 C 0.29069 0.09849 0.80413 0.0
C3805 C 0.26951 0.08288 0.78152 0.0
C3806 C 0.29932 0.11208 0.80709 0.0
C3807 C 0.29879 0.11833 0.81941 0.0
C3808 C 0.28958 0.11111 0.82898 0.0
C3809 C 0.28053 0.09764 0.82573 0.0
C3810 C 0.28115 0.09135 0.81344 0.0
H3811 H 0.26454 0.08004 0.77095 0.0
H3812 H 0.26317 0.07515 0.78841 0.0
H3813 H 0.27042 0.09237 0.7853 0.0
H3814 H 0.30677 0.11777 0.80006 0.0
H3815 H 0.30581 0.12875 0.82164 0.0
H3816 H 0.95377 0.24034 0.78481 0.0
H3817 H 0.94212 0.22517 0.80259 0.0
H3818 H 0.90618 0.2081 0.77674 0.0
H3819 H 0.91758 0.22355 0.75921 0.0
H3820 H 0.90337 0.21509 0.80292 0.0
H3821 H 0.92817 0.18574 0.80441 0.0
H3822 H 0.93918 0.20328 0.80657 0.0
H3823 H 0.92965 0.19603 0.79044 0.0
C3824 C 0.9434 0.23333 0.78289 0.0
C3825 C 0.93662 0.23318 0.77057 0.0
C3826 C 0.93678 0.22456 0.79299 0.0
C3827 C 0.92332 0.21539 0.7909 0.0
C3828 C 0.9166 0.21503 0.77851 0.0
H3829 H 0.87352 0.15095 0.84076 0.0
H3830 H 0.88703 0.16454 0.82275 0.0
C3831 C 0.92317 0.22381 0.76844 0.0
C3832 C 0.91598 0.20686 0.80202 0.0
H3833 H 0.91404 0.18301 0.82248 0.0
C3834 C 0.90567 0.20804 0.80716 0.0
C3835 C 0.91894 0.19759 0.80744 0.0
C3836 C 0.9295 0.19546 0.80186 0.0
C3837 C 0.89831 0.20031 0.81768 0.0
C3838 C 0.90152 0.19135 0.82342 0.0
C3839 C 0.91172 0.19001 0.81816 0.0
C3840 C 0.89421 0.18312 0.83472 0.0
C3841 C 0.88699 0.20165 0.82239 0.0
C3842 C 0.89406 0.18907 0.84752 0.0
C3843 C 0.88636 0.18136 0.8578 0.0
C3844 C 0.87876 0.16754 0.8555 0.0
C3845 C 0.87934 0.16157 0.84286 0.0
C3846 C 0.88701 0.16931 0.83256 0.0
H3847 H 0.88377 0.20631 0.81464 0.0
H3848 H 0.8785 0.19186 0.82432 0.0
H3849 H 0.8901 0.20798 0.8322 0.0
H3850 H 0.89978 0.19971 0.84949 0.0
H3851 H 0.88629 0.18621 0.86753 0.0
H3852 H 0.77864 0.68343 0.73486 0.0
H3853 H 0.79397 0.68959 0.75527 0.0
H3854 H 0.76854 0.69743 0.77954 0.0
H3855 H 0.75333 0.69156 0.7592 0.0
H3856 H 0.7964 0.71668 0.78408 0.0
H3857 H 0.78408 0.66447 0.78764 0.0
H3858 H 0.7894 0.67164 0.77136 0.0
H3859 H 0.77407 0.66885 0.77724 0.0
C3860 C 0.77643 0.68667 0.74449 0.0
C3861 C 0.76471 0.68687 0.74548 0.0
C3862 C 0.78515 0.6901 0.75614 0.0
C3863 C 0.78229 0.6938 0.76891 0.0
C3864 C 0.77089 0.69455 0.76977 0.0
H3865 H 0.79941 0.69087 0.85357 0.0
H3866 H 0.79075 0.6895 0.82993 0.0
C3867 C 0.76216 0.69109 0.75818 0.0
C3868 C 0.79065 0.69613 0.78165 0.0
H3869 H 0.7984 0.67994 0.80525 0.0
C3870 C 0.79702 0.70872 0.78864 0.0
C3871 C 0.79129 0.68566 0.78757 0.0
C3872 C 0.7843 0.67185 0.78067 0.0
C3873 C 0.8038 0.71104 0.80161 0.0
C3874 C 0.80418 0.70049 0.80765 0.0
C3875 C 0.79811 0.688 0.80049 0.0
C3876 C 0.80971 0.70183 0.82195 0.0
C3877 C 0.81 0.72456 0.80908 0.0
C3878 C 0.82327 0.70926 0.82526 0.0
C3879 C 0.8283 0.70997 0.83879 0.0
C3880 C 0.81982 0.70322 0.84917 0.0
C3881 C 0.80623 0.69597 0.84578 0.0
C3882 C 0.80125 0.69523 0.8323 0.0
H3883 H 0.80761 0.7313 0.80363 0.0
H3884 H 0.80668 0.72376 0.81976 0.0
H3885 H 0.82081 0.72903 0.80991 0.0
H3886 H 0.82995 0.71431 0.81735 0.0
H3887 H 0.83881 0.71554 0.84105 0.0
H3888 H 0.73071 0.65702 0.60767 0.0
H3889 H 0.73975 0.6536 0.58668 0.0
H3890 H 0.74652 0.62515 0.60644 0.0
H3891 H 0.73704 0.62814 0.62733 0.0
H3892 H 0.76489 0.65833 0.58467 0.0
H3893 H 0.72859 0.60584 0.56906 0.0
H3894 H 0.72537 0.61556 0.58148 0.0
H3895 H 0.73525 0.60865 0.58665 0.0
C3896 C 0.73385 0.64981 0.60747 0.0
C3897 C 0.73309 0.6428 0.61918 0.0
C3898 C 0.7391 0.64794 0.59549 0.0
C3899 C 0.74365 0.639 0.59494 0.0
C3900 C 0.74284 0.63191 0.60655 0.0
H3901 H 0.78729 0.62089 0.53714 0.0
H3902 H 0.77497 0.62179 0.55648 0.0
C3903 C 0.73756 0.63376 0.61854 0.0
C3904 C 0.74999 0.63773 0.58252 0.0
H3905 H 0.74828 0.61569 0.55721 0.0
C3906 C 0.76121 0.64903 0.5786 0.0
C3907 C 0.74517 0.62557 0.57467 0.0
C3908 C 0.73287 0.61323 0.57807 0.0
C3909 C 0.7679 0.64846 0.56718 0.0
C3910 C 0.76312 0.6363 0.55936 0.0
C3911 C 0.75189 0.62499 0.56325 0.0
C3912 C 0.76981 0.63513 0.54723 0.0
C3913 C 0.78023 0.6608 0.5638 0.0
C3914 C 0.77071 0.64211 0.53551 0.0
C3915 C 0.77769 0.64158 0.52441 0.0
C3916 C 0.78383 0.634 0.52482 0.0
C3917 C 0.78256 0.62671 0.53643 0.0
C3918 C 0.77558 0.62725 0.54752 0.0
H3919 H 0.78421 0.66844 0.57259 0.0
H3920 H 0.78791 0.65851 0.56101 0.0
H3921 H 0.778 0.66504 0.55478 0.0
H3922 H 0.76611 0.64806 0.535 0.0
H3923 H 0.77831 0.64712 0.51552 0.0
H3924 H 0.37879 0.08975 0.62874 0.0
H3925 H 0.3846 0.10588 0.6111 0.0
H3926 H 0.34553 0.09985 0.60991 0.0
H3927 H 0.3395 0.0835 0.62715 0.0
H3928 H 0.37059 0.10146 0.58322 0.0
H3929 H 0.37137 0.14089 0.61763 0.0
H3930 H 0.37307 0.12761 0.62419 0.0
H3931 H 0.3572 0.12472 0.61838 0.0
C3932 C 0.3714 0.09176 0.62463 0.0
C3933 C 0.3587 0.0854 0.62946 0.0
C3934 C 0.37476 0.10103 0.61463 0.0
C3935 C 0.36554 0.10415 0.6094 0.0
C3936 C 0.35285 0.09772 0.61403 0.0
H3937 H 0.35531 0.15175 0.55225 0.0
H3938 H 0.3545 0.13745 0.57024 0.0
C3939 C 0.34945 0.08843 0.62394 0.0
C3940 C 0.36897 0.11398 0.5989 0.0
H3941 H 0.37124 0.14353 0.59341 0.0
C3942 C 0.37093 0.11076 0.58544 0.0
C3943 C 0.36937 0.12605 0.6019 0.0
C3944 C 0.36775 0.13013 0.61633 0.0
C3945 C 0.37265 0.11905 0.57468 0.0
C3946 C 0.37267 0.13097 0.5776 0.0
C3947 C 0.37117 0.13437 0.59119 0.0
C3948 C 0.37339 0.13965 0.56658 0.0
C3949 C 0.37379 0.11468 0.56018 0.0
C3950 C 0.38434 0.14573 0.55862 0.0
C3951 C 0.38477 0.1538 0.54818 0.0
C3952 C 0.37427 0.156 0.54559 0.0
C3953 C 0.36343 0.15005 0.55377 0.0
C3954 C 0.363 0.14197 0.56414 0.0
H3955 H 0.37067 0.10402 0.55917 0.0
H3956 H 0.36776 0.11651 0.55253 0.0
H3957 H 0.38416 0.12042 0.55752 0.0
H3958 H 0.39257 0.14426 0.56051 0.0
H3959 H 0.39323 0.15818 0.54203 0.0
H3960 H 0.92538 0.28015 0.64448 0.0
H3961 H 0.91085 0.27182 0.62336 0.0
H3962 H 0.88624 0.23506 0.6417 0.0
H3963 H 0.90089 0.24323 0.66279 0.0
H3964 H 0.89407 0.23217 0.6154 0.0
H3965 H 0.87364 0.2655 0.61531 0.0
H3966 H 0.89119 0.27401 0.61782 0.0
H3967 H 0.88134 0.26337 0.63067 0.0
C3968 C 0.91685 0.27031 0.64404 0.0
C3969 C 0.9143 0.26232 0.65528 0.0
C3970 C 0.90847 0.26563 0.63203 0.0
C3971 C 0.89738 0.2529 0.63106 0.0
C3972 C 0.89469 0.24496 0.64232 0.0
H3973 H 0.84083 0.21788 0.55874 0.0
H3974 H 0.85032 0.22546 0.58259 0.0
C3975 C 0.90303 0.24966 0.65437 0.0
C3976 C 0.88926 0.24751 0.61785 0.0
H3977 H 0.87114 0.25324 0.59388 0.0
C3978 C 0.88891 0.23667 0.61078 0.0
C3979 C 0.88247 0.25334 0.61191 0.0
C3980 C 0.88205 0.26462 0.61937 0.0
C3981 C 0.88241 0.23184 0.59763 0.0
C3982 C 0.87619 0.23809 0.59139 0.0
C3983 C 0.87604 0.24857 0.59868 0.0
C3984 C 0.8704 0.23424 0.577 0.0
C3985 C 0.8824 0.22023 0.59036 0.0
C3986 C 0.87859 0.23698 0.56603 0.0
C3987 C 0.87324 0.2328 0.55245 0.0
C3988 C 0.85958 0.22575 0.54957 0.0
C3989 C 0.85139 0.22336 0.56059 0.0
C3990 C 0.85677 0.22762 0.57421 0.0
H3991 H 0.88512 0.21481 0.59765 0.0
H3992 H 0.87261 0.21326 0.58517 0.0
H3993 H 0.88962 0.22384 0.58229 0.0
H3994 H 0.88914 0.24226 0.56801 0.0
H3995 H 0.87983 0.23507 0.54419 0.0
H3996 H 0.33856 0.26354 0.6426 0.0
H3997 H 0.3453 0.25399 0.62409 0.0
H3998 H 0.38462 0.2736 0.6431 0.0
H3999 H 0.37804 0.2835 0.6616 0.0
H4000 H 0.36657 0.26899 0.60602 0.0
H4001 H 0.37358 0.23357 0.63655 0.0
H4002 H 0.36381 0.24047 0.64229 0.0
H4003 H 0.38134 0.25048 0.64344 0.0
C4004 C 0.34868 0.26595 0.64281 0.0
C4005 C 0.35778 0.27436 0.65356 0.0
C4006 C 0.35248 0.2604 0.63227 0.0
C4007 C 0.36541 0.26302 0.63231 0.0
C4008 C 0.37454 0.27133 0.64302 0.0
H4009 H 0.39622 0.2302 0.57082 0.0
H4010 H 0.3948 0.24247 0.59119 0.0
C4011 C 0.37076 0.27695 0.65358 0.0
C4012 C 0.36927 0.25727 0.62084 0.0
H4013 H 0.37683 0.23344 0.6127 0.0
C4014 C 0.36892 0.26129 0.60748 0.0
C4015 C 0.37245 0.24733 0.62285 0.0
C4016 C 0.37278 0.2426 0.63702 0.0
C4017 C 0.37136 0.25541 0.59597 0.0
C4018 C 0.37393 0.24504 0.59787 0.0
C4019 C 0.3748 0.24136 0.6113 0.0
C4020 C 0.37479 0.23732 0.58592 0.0
C4021 C 0.37105 0.26028 0.58186 0.0
C4022 C 0.36393 0.23015 0.57643 0.0
C4023 C 0.36472 0.22322 0.56483 0.0
C4024 C 0.37636 0.22319 0.56253 0.0
C4025 C 0.38715 0.23012 0.57225 0.0
C4026 C 0.38635 0.23708 0.5839 0.0
H4027 H 0.37288 0.27054 0.58264 0.0
H4028 H 0.37846 0.25998 0.57539 0.0
H4029 H 0.36122 0.25383 0.57651 0.0
H4030 H 0.35486 0.23004 0.57792 0.0
H4031 H 0.35629 0.21817 0.55747 0.0
H4032 H 0.74823 0.11062 0.63194 0.0
H4033 H 0.7598 0.12684 0.61495 0.0
H4034 H 0.74377 0.09567 0.58234 0.0
H4035 H 0.73234 0.07939 0.59921 0.0
H4036 H 0.77845 0.12732 0.59741 0.0
H4037 H 0.73566 0.12327 0.56732 0.0
H4038 H 0.73454 0.11722 0.58437 0.0
H4039 H 0.73469 0.10769 0.56944 0.0
C4040 C 0.74718 0.10721 0.62115 0.0
C4041 C 0.73931 0.09371 0.61693 0.0
C4042 C 0.75373 0.1165 0.61146 0.0
C4043 C 0.75246 0.11246 0.59738 0.0
C4044 C 0.74462 0.09902 0.59312 0.0
H4045 H 0.80205 0.14813 0.53109 0.0
H4046 H 0.78964 0.13479 0.54971 0.0
C4047 C 0.73809 0.08973 0.60279 0.0
C4048 C 0.75987 0.12219 0.5872 0.0
H4049 H 0.75626 0.13452 0.55709 0.0
C4050 C 0.77361 0.129 0.58866 0.0
C4051 C 0.75352 0.12445 0.57589 0.0
C4052 C 0.73879 0.11787 0.57419 0.0
C4053 C 0.78118 0.13767 0.57883 0.0
C4054 C 0.77482 0.13944 0.56718 0.0
C4055 C 0.76109 0.13302 0.56597 0.0
C4056 C 0.78227 0.14759 0.55592 0.0
C4057 C 0.79592 0.14482 0.58094 0.0
C4058 C 0.782 0.15906 0.55308 0.0
C4059 C 0.78915 0.16678 0.54248 0.0
C4060 C 0.79662 0.16308 0.53449 0.0
C4061 C 0.79664 0.15142 0.53724 0.0
C4062 C 0.78954 0.14376 0.54785 0.0
H4063 H 0.79919 0.14502 0.5919 0.0
H4064 H 0.7997 0.13967 0.57439 0.0
H4065 H 0.80035 0.15514 0.57786 0.0
H4066 H 0.77639 0.16213 0.55918 0.0
H4067 H 0.78901 0.17574 0.54071 0.0
H4068 H 0.89185 0.66101 0.65471 0.0
H4069 H 0.8762 0.65451 0.63464 0.0
H4070 H 0.89086 0.63058 0.61699 0.0
H4071 H 0.90618 0.63661 0.63724 0.0
H4072 H 0.8826 0.65959 0.6079 0.0
H4073 H 0.85151 0.60559 0.61195 0.0
H4074 H 0.8623 0.61662 0.62617 0.0
H4075 H 0.86869 0.61113 0.6125 0.0
C4076 C 0.89155 0.65414 0.6467 0.0
C4077 C 0.90027 0.64933 0.64758 0.0
C4078 C 0.88264 0.65049 0.63521 0.0
C4079 C 0.88223 0.64191 0.62442 0.0
C4080 C 0.89081 0.63698 0.62533 0.0
H4081 H 0.85131 0.61963 0.54006 0.0
H4082 H 0.86107 0.62175 0.56342 0.0
C4083 C 0.89969 0.6406 0.63682 0.0
C4084 C 0.8736 0.63898 0.61172 0.0
H4085 H 0.84998 0.61379 0.59011 0.0
C4086 C 0.87534 0.64959 0.6041 0.0
C4087 C 0.86417 0.62591 0.60678 0.0
C4088 C 0.86145 0.61417 0.61485 0.0
C4089 C 0.86823 0.64748 0.59143 0.0
C4090 C 0.85899 0.63441 0.58635 0.0
C4091 C 0.85707 0.62379 0.59406 0.0
C4092 C 0.85172 0.63164 0.57273 0.0
C4093 C 0.87099 0.65923 0.58332 0.0
C4094 C 0.84288 0.63609 0.57038 0.0
C4095 C 0.83725 0.63485 0.55707 0.0
C4096 C 0.84032 0.62909 0.5459 0.0
C4097 C 0.84864 0.624 0.54846 0.0
C4098 C 0.85428 0.62525 0.56178 0.0
H4099 H 0.88019 0.6683 0.5873 0.0
H4100 H 0.87176 0.65721 0.57219 0.0
H4101 H 0.8628 0.6612 0.58412 0.0
H4102 H 0.84063 0.64085 0.57877 0.0
H4103 H 0.83071 0.63867 0.55545 0.0
H4104 H 0.90975 0.68203 0.76645 0.0
H4105 H 0.9022 0.68817 0.78701 0.0
H4106 H 0.94178 0.71916 0.79895 0.0
H4107 H 0.94952 0.71277 0.77855 0.0
H4108 H 0.92938 0.70381 0.8204 0.0
H4109 H 0.89769 0.71984 0.79487 0.0
H4110 H 0.89383 0.70369 0.78832 0.0
H4111 H 0.90964 0.71776 0.78579 0.0
C4112 C 0.91687 0.69014 0.77344 0.0
C4113 C 0.93025 0.69689 0.77088 0.0
C4114 C 0.91251 0.69375 0.7851 0.0
C4115 C 0.92139 0.70426 0.79438 0.0
C4116 C 0.93475 0.7111 0.79184 0.0
H4117 H 0.88913 0.72865 0.86197 0.0
H4118 H 0.90236 0.72976 0.84265 0.0
C4119 C 0.93914 0.70749 0.78015 0.0
C4120 C 0.91674 0.70751 0.80712 0.0
H4121 H 0.89366 0.71421 0.81852 0.0
C4122 C 0.92171 0.70629 0.82001 0.0
C4123 C 0.90691 0.71096 0.80662 0.0
C4124 C 0.9018 0.71328 0.79316 0.0
C4125 C 0.91658 0.70772 0.83238 0.0
C4126 C 0.90607 0.71019 0.83178 0.0
C4127 C 0.90161 0.71214 0.81896 0.0
C4128 C 0.899 0.70998 0.84417 0.0
C4129 C 0.92239 0.70642 0.84594 0.0
C4130 C 0.89273 0.6985 0.85142 0.0
C4131 C 0.88526 0.69786 0.86249 0.0
C4132 C 0.88379 0.70866 0.86646 0.0
C4133 C 0.89021 0.72023 0.85928 0.0
C4134 C 0.8977 0.72085 0.8482 0.0
H4135 H 0.9327 0.70889 0.8451 0.0
H4136 H 0.92211 0.71295 0.85438 0.0
H4137 H 0.91666 0.69605 0.84883 0.0
H4138 H 0.89337 0.68989 0.84831 0.0
H4139 H 0.88054 0.68886 0.86788 0.0
H4140 H 0.3139 0.23812 0.75325 0.0
H4141 H 0.30793 0.22188 0.77063 0.0
H4142 H 0.28485 0.23636 0.78979 0.0
H4143 H 0.29099 0.25282 0.7725 0.0
H4144 H 0.30058 0.23433 0.80852 0.0
H4145 H 0.27471 0.18774 0.77544 0.0
H4146 H 0.29068 0.19861 0.76971 0.0
H4147 H 0.27847 0.20345 0.76913 0.0
C4148 C 0.30734 0.23767 0.761 0.0
C4149 C 0.30287 0.24671 0.76149 0.0
C4150 C 0.30389 0.22835 0.77091 0.0
C4151 C 0.29574 0.22773 0.78137 0.0
C4152 C 0.29109 0.23661 0.78176 0.0
H4153 H 0.27004 0.16468 0.83898 0.0
H4154 H 0.26986 0.17925 0.82169 0.0
C4155 C 0.29463 0.24602 0.77191 0.0
C4156 C 0.29294 0.21851 0.79249 0.0
H4157 H 0.28271 0.18634 0.7982 0.0
C4158 C 0.2965 0.22381 0.80628 0.0
C4159 C 0.2874 0.20474 0.78961 0.0
C4160 C 0.28246 0.19829 0.77518 0.0
C4161 C 0.29524 0.21581 0.81717 0.0
C4162 C 0.29061 0.20222 0.81416 0.0
C4163 C 0.28645 0.19681 0.80047 0.0
C4164 C 0.29056 0.19361 0.82495 0.0
C4165 C 0.29891 0.22204 0.83179 0.0
C4166 C 0.30227 0.19678 0.83242 0.0
C4167 C 0.30238 0.18859 0.8424 0.0
C4168 C 0.2908 0.17691 0.84498 0.0
C4169 C 0.27909 0.17369 0.83739 0.0
C4170 C 0.27898 0.18195 0.82744 0.0
H4171 H 0.29798 0.23099 0.8328 0.0
H4172 H 0.29267 0.21499 0.83932 0.0
H4173 H 0.30928 0.22513 0.83457 0.0
H4174 H 0.31139 0.20556 0.83046 0.0
H4175 H 0.31154 0.19147 0.84815 0.0
H4176 H 0.76918 0.08383 0.72296 0.0
H4177 H 0.78416 0.09308 0.74367 0.0
H4178 H 0.76852 0.054 0.75812 0.0
H4179 H 0.75391 0.0446 0.73716 0.0
H4180 H 0.7767 0.09172 0.76992 0.0
H4181 H 0.8075 0.06883 0.76518 0.0
H4182 H 0.79734 0.06882 0.75081 0.0
H4183 H 0.79028 0.05693 0.76367 0.0
C4184 C 0.76917 0.07715 0.73035 0.0
C4185 C 0.76034 0.06346 0.72837 0.0
C4186 C 0.77768 0.08247 0.74224 0.0
C4187 C 0.77759 0.07422 0.75237 0.0
C4188 C 0.76898 0.06053 0.75032 0.0
H4189 H 0.80565 0.08448 0.83773 0.0
H4190 H 0.79608 0.0762 0.81409 0.0
C4191 C 0.76049 0.05519 0.73841 0.0
C4192 C 0.78564 0.08002 0.76561 0.0
H4193 H 0.8082 0.07878 0.78754 0.0
C4194 C 0.78371 0.08902 0.77369 0.0
C4195 C 0.79474 0.07644 0.77053 0.0
C4196 C 0.7977 0.06732 0.76203 0.0
C4197 C 0.79034 0.09424 0.78673 0.0
C4198 C 0.79926 0.09048 0.79175 0.0
C4199 C 0.80134 0.08162 0.78363 0.0
C4200 C 0.80616 0.09537 0.80564 0.0
C4201 C 0.78745 0.10342 0.79524 0.0
C4202 C 0.81528 0.10884 0.80859 0.0
C4203 C 0.82082 0.1136 0.82206 0.0
C4204 C 0.81736 0.10496 0.83282 0.0
C4205 C 0.80863 0.09138 0.82967 0.0
C4206 C 0.80311 0.08663 0.81619 0.0
H4207 H 0.77849 0.10324 0.79109 0.0
H4208 H 0.78619 0.10073 0.80617 0.0
H4209 H 0.79582 0.11368 0.79515 0.0
H4210 H 0.8179 0.1157 0.80052 0.0
H4211 H 0.82769 0.12407 0.82409 0.0
H4212 H 0.06605 0.34534 0.03743 0.0
H4213 H 0.07842 0.33776 0.0512 0.0
H4214 H 0.05936 0.33976 0.08756 0.0
H4215 H 0.04667 0.34696 0.07381 0.0
H4216 H 0.09561 0.35037 0.07465 0.0
H4217 H 0.05329 0.30206 0.08629 0.0
H4218 H 0.05229 0.31184 0.07291 0.0
H4219 H 0.05155 0.31605 0.09078 0.0
C4220 C 0.06442 0.34407 0.04833 0.0
C4221 C 0.05534 0.34671 0.05451 0.0
C4222 C 0.07153 0.3398 0.05619 0.0
C4223 C 0.06964 0.33801 0.07034 0.0
C4224 C 0.06078 0.34086 0.0766 0.0
H4225 H 0.12126 0.33129 0.13111 0.0
H4226 H 0.10745 0.33768 0.11813 0.0
C4227 C 0.05367 0.34513 0.06876 0.0
C4228 C 0.07713 0.33339 0.07859 0.0
H4229 H 0.07374 0.30845 0.09819 0.0
C4230 C 0.09085 0.3412 0.07978 0.0
C4231 C 0.07087 0.32133 0.08512 0.0
C4232 C 0.05619 0.31225 0.08364 0.0
C4233 C 0.09848 0.33738 0.08751 0.0
C4234 C 0.0922 0.32554 0.09439 0.0
C4235 C 0.0785 0.3176 0.09302 0.0
C4236 C 0.09976 0.32113 0.10284 0.0
C4237 C 0.11322 0.34596 0.08808 0.0
C4238 C 0.0996 0.30944 0.09883 0.0
C4239 C 0.10747 0.30575 0.10623 0.0
C4240 C 0.11559 0.31369 0.11779 0.0
C4241 C 0.11528 0.3251 0.12211 0.0
C4242 C 0.10741 0.32877 0.11471 0.0
H4243 H 0.11652 0.3529 0.07968 0.0
H4244 H 0.11673 0.35189 0.09815 0.0
H4245 H 0.11789 0.33982 0.08725 0.0
H4246 H 0.0937 0.3034 0.08972 0.0
H4247 H 0.10757 0.29697 0.10258 0.0
H4248 H 0.63686 0.69768 0.08704 0.0
H4249 H 0.64538 0.71992 0.09796 0.0
H4250 H 0.68015 0.72033 0.11349 0.0
H4251 H 0.6716 0.69797 0.103 0.0
H4252 H 0.65572 0.72936 0.12871 0.0
H4253 H 0.69144 0.75366 0.08858 0.0
H4254 H 0.67689 0.73758 0.08527 0.0
H4255 H 0.69053 0.73934 0.09576 0.0
C4256 C 0.64622 0.7024 0.09296 0.0
C4257 C 0.65359 0.69607 0.09405 0.0
C4258 C 0.65109 0.71512 0.09913 0.0
C4259 C 0.66341 0.72173 0.10638 0.0
C4260 C 0.67067 0.71538 0.10778 0.0
H4261 H 0.7014 0.79644 0.15686 0.0
H4262 H 0.6937 0.77372 0.14768 0.0
C4263 C 0.66579 0.70265 0.10171 0.0
C4264 C 0.66886 0.73543 0.11224 0.0
H4265 H 0.69171 0.76739 0.10721 0.0
C4266 C 0.66361 0.73769 0.12407 0.0
C4267 C 0.6791 0.7462 0.10605 0.0
C4268 C 0.68483 0.74419 0.09316 0.0
C4269 C 0.66841 0.75056 0.12995 0.0
C4270 C 0.67869 0.76133 0.1238 0.0
C4271 C 0.68389 0.75906 0.11193 0.0
C4272 C 0.68375 0.7751 0.1292 0.0
C4273 C 0.66233 0.75261 0.14253 0.0
C4274 C 0.68088 0.78337 0.12168 0.0
C4275 C 0.68523 0.79627 0.12688 0.0
C4276 C 0.69263 0.80115 0.13963 0.0
C4277 C 0.69578 0.79294 0.14697 0.0
C4278 C 0.69133 0.77997 0.14181 0.0
H4279 H 0.65328 0.74344 0.14488 0.0
H4280 H 0.66947 0.75589 0.15165 0.0
H4281 H 0.65992 0.76048 0.14098 0.0
H4282 H 0.6751 0.77977 0.11189 0.0
H4283 H 0.68279 0.80244 0.12093 0.0
H4284 H 0.29474 0.9402 0.02638 0.0
H4285 H 0.27439 0.92904 0.03832 0.0
H4286 H 0.29673 0.94075 0.07771 0.0
H4287 H 0.31707 0.95202 0.06592 0.0
H4288 H 0.27605 0.91418 0.07514 0.0
H4289 H 0.25967 0.94904 0.06026 0.0
H4290 H 0.26339 0.94133 0.04614 0.0
H4291 H 0.27625 0.95255 0.05862 0.0
C4292 C 0.29531 0.9404 0.03759 0.0
C4293 C 0.30753 0.94704 0.0452 0.0
C4294 C 0.28369 0.93403 0.04438 0.0
C4295 C 0.28408 0.93426 0.05889 0.0
C4296 C 0.29624 0.94049 0.06649 0.0
H4297 H 0.22567 0.92068 0.11676 0.0
H4298 H 0.24424 0.92986 0.10203 0.0
C4299 C 0.30785 0.94685 0.05973 0.0
C4300 C 0.27185 0.92823 0.06625 0.0
H4301 H 0.2452 0.93106 0.07281 0.0
C4302 C 0.26926 0.91781 0.0746 0.0
C4303 C 0.26314 0.93315 0.06563 0.0
C4304 C 0.26575 0.94471 0.05729 0.0
C4305 C 0.25816 0.91214 0.08237 0.0
C4306 C 0.24934 0.91692 0.0816 0.0
C4307 C 0.25194 0.92735 0.07326 0.0
C4308 C 0.23764 0.91153 0.0898 0.0
C4309 C 0.25613 0.90132 0.09163 0.0
C4310 C 0.22764 0.89828 0.08752 0.0
C4311 C 0.21701 0.89303 0.09587 0.0
C4312 C 0.21617 0.90096 0.10661 0.0
C4313 C 0.22598 0.91436 0.10851 0.0
C4314 C 0.23661 0.9196 0.10016 0.0
H4315 H 0.26521 0.90086 0.09341 0.0
H4316 H 0.25286 0.90278 0.10181 0.0
H4317 H 0.24841 0.89165 0.08667 0.0
H4318 H 0.22813 0.89197 0.07938 0.0
H4319 H 0.20948 0.88273 0.09399 0.0
H4320 H 0.3649 0.05302 0.97994 0.0
H4321 H 0.35622 0.06669 0.97176 0.0
H4322 H 0.33619 0.0616 0.00936 0.0
H4323 H 0.34471 0.04775 0.01751 0.0
H4324 H 0.32008 0.05654 0.98691 0.0
H4325 H 0.36581 0.10415 0.98245 0.0
H4326 H 0.366 0.09074 0.97315 0.0
H4327 H 0.36543 0.09095 0.99172 0.0
C4328 C 0.35888 0.05505 0.98658 0.0
C4329 C 0.35549 0.04934 0.99936 0.0
C4330 C 0.35394 0.06289 0.98192 0.0
C4331 C 0.34571 0.06533 0.99004 0.0
C4332 C 0.34256 0.05988 0.00295 0.0
H4333 H 0.32136 0.1206 0.96404 0.0
H4334 H 0.33001 0.10936 0.97789 0.0
C4335 C 0.34741 0.05196 0.00757 0.0
C4336 C 0.3396 0.07271 0.98459 0.0
H4337 H 0.34653 0.10131 0.97003 0.0
C4338 C 0.32587 0.0664 0.98338 0.0
C4339 C 0.34714 0.08565 0.98019 0.0
C4340 C 0.36191 0.09332 0.98208 0.0
C4341 C 0.31946 0.07247 0.97739 0.0
C4342 C 0.32701 0.08505 0.97217 0.0
C4343 C 0.34074 0.09159 0.97388 0.0
C4344 C 0.32091 0.09142 0.96442 0.0
C4345 C 0.30468 0.06533 0.97673 0.0
C4346 C 0.31289 0.08505 0.95229 0.0
C4347 C 0.30789 0.0914 0.94442 0.0
C4348 C 0.31097 0.10434 0.94844 0.0
C4349 C 0.31888 0.11065 0.96067 0.0
C4350 C 0.3238 0.10425 0.96859 0.0
H4351 H 0.30071 0.05823 0.98494 0.0
H4352 H 0.30107 0.07237 0.97785 0.0
H4353 H 0.30076 0.05963 0.96657 0.0
H4354 H 0.31082 0.0753 0.94866 0.0
H4355 H 0.30203 0.0864 0.9349 0.0
H4356 H 0.96135 0.28287 0.99806 0.0
H4357 H 0.94684 0.26101 0.98648 0.0
H4358 H 0.93529 0.27861 0.95484 0.0
H4359 H 0.95016 0.30056 0.96605 0.0
H4360 H 0.92013 0.24799 0.98061 0.0
H4361 H 0.94605 0.25606 0.93218 0.0
H4362 H 0.95326 0.26706 0.94758 0.0
H4363 H 0.94149 0.26817 0.93631 0.0
C4364 C 0.95584 0.28211 0.98855 0.0
C4365 C 0.957 0.29348 0.98291 0.0
C4366 C 0.94749 0.2696 0.982 0.0
C4367 C 0.94018 0.26822 0.96967 0.0
C4368 C 0.94106 0.27949 0.96419 0.0
H4369 H 0.88052 0.20255 0.9173 0.0
H4370 H 0.89665 0.22423 0.92835 0.0
C4371 C 0.94943 0.29201 0.97071 0.0
C4372 C 0.93143 0.25493 0.96273 0.0
H4373 H 0.9252 0.23644 0.93226 0.0
C4374 C 0.92129 0.24542 0.97008 0.0
C4375 C 0.933 0.25163 0.94899 0.0
C4376 C 0.94411 0.26122 0.94083 0.0
C4377 C 0.91248 0.23277 0.96394 0.0
C4378 C 0.91395 0.22954 0.95016 0.0
C4379 C 0.92413 0.239 0.94283 0.0
C4380 C 0.90477 0.21648 0.94307 0.0
C4381 C 0.90145 0.22306 0.97211 0.0
C4382 C 0.90424 0.20501 0.94753 0.0
C4383 C 0.89505 0.19263 0.94124 0.0
C4384 C 0.88624 0.19153 0.93043 0.0
C4385 C 0.88708 0.20309 0.92573 0.0
C4386 C 0.89631 0.21546 0.93197 0.0
H4387 H 0.90019 0.2279 0.98155 0.0
H4388 H 0.89207 0.21806 0.96563 0.0
H4389 H 0.9036 0.21536 0.97537 0.0
H4390 H 0.91082 0.20565 0.95599 0.0
H4391 H 0.89457 0.18389 0.94512 0.0
H4392 H 0.69371 0.62729 0.01903 0.0
H4393 H 0.71422 0.63539 0.00749 0.0
H4394 H 0.72506 0.67554 0.01961 0.0
H4395 H 0.70464 0.66755 0.03111 0.0
H4396 H 0.72267 0.65182 0.98596 0.0
H4397 H 0.7578 0.67454 0.03196 0.0
H4398 H 0.74053 0.6632 0.03331 0.0
H4399 H 0.74637 0.68026 0.03044 0.0
C4400 C 0.70048 0.63784 0.01925 0.0
C4401 C 0.69761 0.64678 0.02607 0.0
C4402 C 0.7122 0.64244 0.01271 0.0
C4403 C 0.72125 0.65605 0.01291 0.0
C4404 C 0.71837 0.66499 0.01965 0.0
H4405 H 0.78191 0.69622 0.95609 0.0
H4406 H 0.76263 0.68798 0.9697 0.0
C4407 C 0.70669 0.6604 0.02621 0.0
C4408 C 0.73342 0.66096 0.00552 0.0
H4409 H 0.76675 0.68 0.00987 0.0
C4410 C 0.73232 0.65791 0.99119 0.0
C4411 C 0.74598 0.66878 0.01241 0.0
C4412 C 0.74779 0.67179 0.0279 0.0
C4413 C 0.74345 0.66272 0.9835 0.0
C4414 C 0.75598 0.671 0.99029 0.0
C4415 C 0.75711 0.67379 0.00467 0.0
C4416 C 0.76805 0.67669 0.98266 0.0
C4417 C 0.7417 0.65877 0.9682 0.0
C4418 C 0.77772 0.67349 0.98582 0.0
C4419 C 0.78884 0.67833 0.9782 0.0
C4420 C 0.79049 0.68649 0.9673 0.0
C4421 C 0.78098 0.69003 0.96448 0.0
C4422 C 0.76988 0.6852 0.97212 0.0
H4423 H 0.73202 0.64978 0.96537 0.0
H4424 H 0.74226 0.66692 0.96229 0.0
H4425 H 0.74952 0.65687 0.96493 0.0
H4426 H 0.77654 0.66703 0.99401 0.0
H4427 H 0.79609 0.6756 0.98077 0.0
H4428 H 0.94127 0.66152 0.02552 0.0
H4429 H 0.92981 0.67025 0.012 0.0
H4430 H 0.94087 0.65894 0.9742 0.0
H4431 H 0.95249 0.65037 0.98759 0.0
H4432 H 0.94103 0.69043 0.99273 0.0
H4433 H 0.90082 0.64286 0.96792 0.0
H4434 H 0.91068 0.64371 0.98304 0.0
H4435 H 0.91707 0.64565 0.9662 0.0
C4436 C 0.94126 0.66089 0.01433 0.0
C4437 C 0.94774 0.65518 0.00764 0.0
C4438 C 0.93468 0.66584 0.00663 0.0
C4439 C 0.93438 0.66509 0.99212 0.0
C4440 C 0.94078 0.65937 0.98539 0.0
H4441 H 0.89849 0.68846 0.92787 0.0
H4442 H 0.91165 0.68117 0.94072 0.0
C4443 C 0.94738 0.65444 0.99307 0.0
C4444 C 0.92773 0.67068 0.984 0.0
H4445 H 0.90253 0.66242 0.96 0.0
C4446 C 0.93258 0.68433 0.9856 0.0
C4447 C 0.91678 0.66267 0.97467 0.0
C4448 C 0.91093 0.64789 0.97289 0.0
C4449 C 0.92685 0.69023 0.97795 0.0
C4450 C 0.91582 0.6822 0.96869 0.0
C4451 C 0.91102 0.66855 0.96706 0.0
C4452 C 0.90883 0.68764 0.96089 0.0
C4453 C 0.93279 0.70502 0.97968 0.0
C4454 C 0.90296 0.69375 0.96797 0.0
C4455 C 0.89548 0.69793 0.96067 0.0
C4456 C 0.89363 0.69597 0.94615 0.0
C4457 C 0.89971 0.69005 0.93906 0.0
C4458 C 0.90723 0.68591 0.94637 0.0
H4459 H 0.94316 0.71003 0.98388 0.0
H4460 H 0.93237 0.70913 0.96967 0.0
H4461 H 0.92721 0.70737 0.98709 0.0
H4462 H 0.90378 0.69488 0.97918 0.0
H4463 H 0.89068 0.70219 0.96644 0.0
H4464 H 0.35227 0.31276 0.94934 0.0
H4465 H 0.34278 0.2906 0.9379 0.0
H4466 H 0.33263 0.27361 0.97739 0.0
H4467 H 0.34227 0.29571 0.98897 0.0
H4468 H 0.3496 0.27091 0.94301 0.0
H4469 H 0.29777 0.25404 0.953 0.0
H4470 H 0.31045 0.27126 0.95449 0.0
H4471 H 0.30906 0.26071 0.96805 0.0
C4472 C 0.34814 0.30432 0.95562 0.0
C4473 C 0.34799 0.306 0.97007 0.0
C4474 C 0.34265 0.29168 0.94905 0.0
C4475 C 0.33682 0.2805 0.95679 0.0
C4476 C 0.33683 0.28212 0.97122 0.0
H4477 H 0.30073 0.19627 0.93991 0.0
H4478 H 0.30872 0.21872 0.94988 0.0
C4479 C 0.34234 0.29475 0.9778 0.0
C4480 C 0.33099 0.26712 0.94981 0.0
H4481 H 0.30223 0.23782 0.94372 0.0
C4482 C 0.33923 0.26369 0.94306 0.0
C4483 C 0.31747 0.25776 0.94996 0.0
C4484 C 0.30812 0.26112 0.95665 0.0
C4485 C 0.33437 0.25098 0.93674 0.0
C4486 C 0.32085 0.24158 0.93693 0.0
C4487 C 0.31259 0.24506 0.94358 0.0
C4488 C 0.31518 0.22796 0.93059 0.0
C4489 C 0.34382 0.2476 0.9303 0.0
C4490 C 0.31581 0.22571 0.91637 0.0
C4491 C 0.31124 0.21291 0.91065 0.0
C4492 C 0.30584 0.20213 0.91904 0.0
C4493 C 0.30472 0.20436 0.93317 0.0
C4494 C 0.30934 0.21718 0.93889 0.0
H4495 H 0.35414 0.25471 0.93404 0.0
H4496 H 0.34152 0.2375 0.93261 0.0
H4497 H 0.34302 0.24794 0.91889 0.0
H4498 H 0.32 0.23388 0.90974 0.0
H4499 H 0.31205 0.21145 0.89969 0.0
H4500 H 0.69586 0.03039 0.01352 0.0
H4501 H 0.71607 0.0408 0.00159 0.0
H4502 H 0.72015 0.079 0.01057 0.0
H4503 H 0.70021 0.06872 0.02321 0.0
H4504 H 0.72019 0.05432 0.97879 0.0
H4505 H 0.75682 0.08657 0.02106 0.0
H4506 H 0.74056 0.07354 0.02432 0.0
H4507 H 0.74317 0.08915 0.01908 0.0
C4508 C 0.70121 0.04105 0.01332 0.0
C4509 C 0.69643 0.04872 0.01946 0.0
C4510 C 0.71273 0.04697 0.00637 0.0
C4511 C 0.71972 0.06069 0.00534 0.0
C4512 C 0.71506 0.06843 0.0115 0.0
H4513 H 0.78186 0.11239 0.95542 0.0
H4514 H 0.76423 0.10242 0.97126 0.0
C4515 C 0.70356 0.06251 0.01856 0.0
C4516 C 0.73134 0.06669 0.99698 0.0
H4517 H 0.76387 0.09012 0.99803 0.0
C4518 C 0.72977 0.06207 0.98304 0.0
C4519 C 0.74382 0.07681 0.00255 0.0
C4520 C 0.74626 0.08173 0.01761 0.0
C4521 C 0.74026 0.06744 0.97444 0.0
C4522 C 0.75267 0.07764 0.97996 0.0
C4523 C 0.75431 0.08227 0.99389 0.0
C4524 C 0.76393 0.08388 0.97121 0.0
C4525 C 0.73797 0.0624 0.95941 0.0
C4526 C 0.76971 0.07678 0.96617 0.0
C4527 C 0.77978 0.08244 0.95712 0.0
C4528 C 0.78414 0.09524 0.95293 0.0
C4529 C 0.77855 0.10243 0.95832 0.0
C4530 C 0.76856 0.09681 0.96742 0.0
H4531 H 0.72737 0.05606 0.95623 0.0
H4532 H 0.74238 0.07077 0.95262 0.0
H4533 H 0.74276 0.05646 0.95773 0.0
H4534 H 0.76629 0.0668 0.96908 0.0
H4535 H 0.78388 0.07667 0.9531 0.0
H4536 H 0.65269 0.94943 0.04575 0.0
H4537 H 0.66195 0.93664 0.05523 0.0
H4538 H 0.6484 0.93953 0.09525 0.0
H4539 H 0.63922 0.95233 0.08594 0.0
H4540 H 0.68121 0.94512 0.07656 0.0
H4541 H 0.63608 0.90035 0.09002 0.0
H4542 H 0.63578 0.9119 0.07848 0.0
H4543 H 0.63709 0.91525 0.09696 0.0
C4544 C 0.6516 0.94725 0.05655 0.0
C4545 C 0.64517 0.95185 0.06509 0.0
C4546 C 0.65686 0.93991 0.06192 0.0
C4547 C 0.65568 0.93698 0.07587 0.0
C4548 C 0.64911 0.94139 0.08436 0.0
H4549 H 0.68679 0.91168 0.13946 0.0
H4550 H 0.67729 0.92117 0.12421 0.0
C4551 C 0.64386 0.9487 0.07901 0.0
C4552 C 0.66207 0.93011 0.08192 0.0
H4553 H 0.65628 0.90445 0.10152 0.0
C4554 C 0.67575 0.93609 0.0818 0.0
C4555 C 0.6549 0.9183 0.08868 0.0
C4556 C 0.64014 0.911 0.08843 0.0
C4557 C 0.68253 0.93095 0.08895 0.0
C4558 C 0.6754 0.91956 0.0963 0.0
C4559 C 0.66169 0.91326 0.09593 0.0
C4560 C 0.682 0.91453 0.10528 0.0
C4561 C 0.69728 0.93803 0.08917 0.0
C4562 C 0.68792 0.90781 0.09963 0.0
C4563 C 0.69329 0.90228 0.10832 0.0
C4564 C 0.69275 0.90337 0.12278 0.0
C4565 C 0.68716 0.91049 0.12837 0.0
C4566 C 0.68179 0.91595 0.11969 0.0
H4567 H 0.70144 0.94743 0.08394 0.0
H4568 H 0.70153 0.9402 0.10003 0.0
H4569 H 0.70033 0.93155 0.08387 0.0
H4570 H 0.68806 0.90654 0.0885 0.0
H4571 H 0.6974 0.89674 0.10372 0.0
H4572 H 0.06093 0.70327 0.08454 0.0
H4573 H 0.07486 0.72538 0.09607 0.0
H4574 H 0.04768 0.73703 0.08121 0.0
H4575 H 0.03367 0.71495 0.06969 0.0
H4576 H 0.08457 0.75197 0.08095 0.0
H4577 H 0.05432 0.74427 0.12623 0.0
H4578 H 0.05431 0.73067 0.11679 0.0
H4579 H 0.04623 0.73852 0.10914 0.0
C4580 C 0.05792 0.71054 0.08376 0.0
C4581 C 0.04623 0.7074 0.07621 0.0
C4582 C 0.06589 0.72314 0.0903 0.0
C4583 C 0.06221 0.73273 0.08952 0.0
C4584 C 0.05061 0.72969 0.08194 0.0
H4585 H 0.09732 0.81178 0.13064 0.0
H4586 H 0.0823 0.79047 0.11809 0.0
C4587 C 0.04269 0.71713 0.0753 0.0
C4588 C 0.07058 0.74597 0.09658 0.0
H4589 H 0.07335 0.76512 0.12541 0.0
C4590 C 0.08215 0.75489 0.09066 0.0
C4591 C 0.06724 0.74971 0.10913 0.0
C4592 C 0.05488 0.74033 0.11581 0.0
C4593 C 0.09056 0.76754 0.09703 0.0
C4594 C 0.08746 0.77117 0.10985 0.0
C4595 C 0.07573 0.76229 0.11563 0.0
C4596 C 0.09645 0.78398 0.1176 0.0
C4597 C 0.10259 0.77695 0.08987 0.0
C4598 C 0.10927 0.78727 0.12172 0.0
C4599 C 0.11788 0.79945 0.12873 0.0
C4600 C 0.1138 0.80855 0.13197 0.0
C4601 C 0.10082 0.80508 0.12815 0.0
C4602 C 0.09221 0.79288 0.12105 0.0
H4603 H 0.10143 0.7743 0.07855 0.0
H4604 H 0.10477 0.78729 0.0915 0.0
H4605 H 0.11114 0.77645 0.09415 0.0
H4606 H 0.11265 0.78043 0.11944 0.0
H4607 H 0.12785 0.80183 0.13133 0.0
H4608 H 0.29641 0.3603 0.02185 0.0
H4609 H 0.27584 0.35119 0.03348 0.0
H4610 H 0.29447 0.34539 0.06938 0.0
H4611 H 0.31487 0.354 0.05779 0.0
H4612 H 0.26223 0.32413 0.04671 0.0
H4613 H 0.27746 0.36848 0.08241 0.0
H4614 H 0.28474 0.36934 0.06612 0.0
H4615 H 0.28918 0.36312 0.0807 0.0
C4616 C 0.29611 0.357 0.03219 0.0
C4617 C 0.30735 0.35799 0.03892 0.0
C4618 C 0.28437 0.35185 0.03881 0.0
C4619 C 0.28373 0.34774 0.05229 0.0
C4620 C 0.29486 0.34867 0.05902 0.0
H4621 H 0.23077 0.31891 0.11681 0.0
H4622 H 0.24909 0.32711 0.10182 0.0
C4623 C 0.30654 0.35371 0.0524 0.0
C4624 C 0.27145 0.34236 0.05944 0.0
H4625 H 0.25796 0.34894 0.08693 0.0
C4626 C 0.26117 0.32956 0.05541 0.0
C4627 C 0.27023 0.34951 0.07078 0.0
C4628 C 0.28093 0.36342 0.07526 0.0
C4629 C 0.24983 0.32348 0.06282 0.0
C4630 C 0.24871 0.33055 0.07436 0.0
C4631 C 0.25887 0.34351 0.07812 0.0
C4632 C 0.23732 0.32463 0.08306 0.0
C4633 C 0.23942 0.30939 0.0586 0.0
C4634 C 0.22461 0.32039 0.07746 0.0
C4635 C 0.2141 0.31563 0.08601 0.0
C4636 C 0.2162 0.3152 0.10032 0.0
C4637 C 0.2289 0.31925 0.10584 0.0
C4638 C 0.23935 0.32391 0.09729 0.0
H4639 H 0.2432 0.30436 0.05184 0.0
H4640 H 0.23555 0.30362 0.06783 0.0
H4641 H 0.23116 0.30932 0.05274 0.0
H4642 H 0.22287 0.32113 0.06656 0.0
H4643 H 0.20444 0.31273 0.08153 0.0
H4644 H 0.70411 0.67865 0.40981 0.0
H4645 H 0.71751 0.67174 0.42284 0.0
H4646 H 0.74632 0.68701 0.3923 0.0
H4647 H 0.73308 0.69411 0.37932 0.0
H4648 H 0.726 0.65394 0.41198 0.0
H4649 H 0.76744 0.70356 0.43032 0.0
H4650 H 0.75155 0.7008 0.42444 0.0
H4651 H 0.76279 0.70147 0.4121 0.0
C4652 C 0.71339 0.68071 0.40598 0.0
C4653 C 0.71758 0.68697 0.39357 0.0
C4654 C 0.72098 0.67668 0.41338 0.0
C4655 C 0.73293 0.67899 0.40858 0.0
C4656 C 0.73718 0.6853 0.39625 0.0
H4657 H 0.79431 0.66365 0.43166 0.0
H4658 H 0.77965 0.67033 0.42119 0.0
C4659 C 0.72958 0.68926 0.3888 0.0
C4660 C 0.74079 0.67441 0.41618 0.0
H4661 H 0.7705 0.68533 0.43332 0.0
C4662 C 0.73569 0.66077 0.41677 0.0
C4663 C 0.7534 0.68338 0.42237 0.0
C4664 C 0.75912 0.69813 0.42242 0.0
C4665 C 0.7431 0.65584 0.42299 0.0
C4666 C 0.75581 0.66482 0.42902 0.0
C4667 C 0.76077 0.67847 0.42866 0.0
C4668 C 0.76437 0.66034 0.43528 0.0
C4669 C 0.73745 0.64108 0.42259 0.0
C4670 C 0.76064 0.6525 0.4467 0.0
C4671 C 0.76899 0.64863 0.45269 0.0
C4672 C 0.78129 0.6527 0.44747 0.0
C4673 C 0.78496 0.66051 0.43602 0.0
C4674 C 0.77659 0.6643 0.43 0.0
H4675 H 0.7291 0.63576 0.41469 0.0
H4676 H 0.74503 0.63849 0.42031 0.0
H4677 H 0.7338 0.63752 0.43285 0.0
H4678 H 0.75136 0.64957 0.45112 0.0
H4679 H 0.76598 0.64273 0.4616 0.0
H4680 H 0.33915 0.03049 0.42902 0.0
H4681 H 0.34896 0.05307 0.43937 0.0
H4682 H 0.31072 0.04909 0.43933 0.0
H4683 H 0.30076 0.02634 0.42933 0.0
H4684 H 0.34793 0.07402 0.42821 0.0
H4685 H 0.32606 0.06334 0.47917 0.0
H4686 H 0.3262 0.05083 0.46781 0.0
H4687 H 0.31428 0.05576 0.46461 0.0
C4688 C 0.33279 0.03433 0.43143 0.0
C4689 C 0.31916 0.02659 0.42844 0.0
C4690 C 0.33843 0.04726 0.43726 0.0
C4691 C 0.33054 0.05267 0.44028 0.0
C4692 C 0.31694 0.045 0.4373 0.0
H4693 H 0.34932 0.13317 0.45097 0.0
H4694 H 0.34259 0.11055 0.44279 0.0
C4695 C 0.31129 0.03207 0.43145 0.0
C4696 C 0.33662 0.06652 0.446 0.0
H4697 H 0.33653 0.08579 0.4733 0.0
C4698 C 0.34552 0.0766 0.43811 0.0
C4699 C 0.3336 0.06983 0.45901 0.0
C4700 C 0.32461 0.05938 0.46822 0.0
C4701 C 0.35116 0.08995 0.44269 0.0
C4702 C 0.34766 0.09327 0.4554 0.0
C4703 C 0.33911 0.0832 0.46351 0.0
C4704 C 0.35229 0.10715 0.46014 0.0
C4705 C 0.36079 0.10039 0.43389 0.0
C4706 C 0.35986 0.11266 0.4727 0.0
C4707 C 0.36368 0.12559 0.47744 0.0
C4708 C 0.35982 0.13311 0.46978 0.0
C4709 C 0.35234 0.12757 0.45716 0.0
C4710 C 0.34859 0.1147 0.4524 0.0
H4711 H 0.36512 0.09631 0.42663 0.0
H4712 H 0.35564 0.10432 0.42764 0.0
H4713 H 0.36884 0.10875 0.44043 0.0
H4714 H 0.36273 0.10693 0.47885 0.0
H4715 H 0.36933 0.12957 0.48727 0.0
H4716 H 0.97328 0.26344 0.368 0.0
H4717 H 0.95109 0.25226 0.37615 0.0
H4718 H 0.96045 0.28735 0.40147 0.0
H4719 H 0.98241 0.29871 0.39304 0.0
H4720 H 0.94387 0.24728 0.40308 0.0
H4721 H 0.92618 0.2786 0.3808 0.0
H4722 H 0.9407 0.2788 0.37538 0.0
H4723 H 0.94138 0.28796 0.39106 0.0
C4724 C 0.97055 0.26882 0.37517 0.0
C4725 C 0.97962 0.28197 0.37987 0.0
C4726 C 0.9579 0.2624 0.37985 0.0
C4727 C 0.95407 0.26906 0.38921 0.0
C4728 C 0.96312 0.28212 0.39401 0.0
H4729 H 0.89087 0.25095 0.44103 0.0
H4730 H 0.9104 0.26118 0.42775 0.0
C4731 C 0.97574 0.28854 0.38934 0.0
C4732 C 0.94081 0.2622 0.3945 0.0
H4733 H 0.9135 0.26458 0.39824 0.0
C4734 C 0.93715 0.25094 0.40187 0.0
C4735 C 0.93208 0.26703 0.3929 0.0
C4736 C 0.93522 0.27869 0.38449 0.0
C4737 C 0.92518 0.24467 0.40815 0.0
C4738 C 0.91661 0.2497 0.40684 0.0
C4739 C 0.92013 0.26079 0.39923 0.0
C4740 C 0.90419 0.24389 0.41384 0.0
C4741 C 0.92201 0.233 0.41657 0.0
C4742 C 0.89408 0.23093 0.41009 0.0
C4743 C 0.88288 0.22509 0.4176 0.0
C4744 C 0.88159 0.23212 0.42895 0.0
C4745 C 0.8915 0.24531 0.43226 0.0
C4746 C 0.90269 0.25115 0.42474 0.0
H4747 H 0.93072 0.23199 0.4188 0.0
H4748 H 0.91809 0.23391 0.42655 0.0
H4749 H 0.91437 0.22381 0.41073 0.0
H4750 H 0.89497 0.22526 0.40154 0.0
H4751 H 0.87531 0.21498 0.41466 0.0
H4752 H 0.01944 0.37447 0.33276 0.0
H4753 H 0.01609 0.39156 0.32326 0.0
H4754 H 0.05646 0.41294 0.31302 0.0
H4755 H 0.06003 0.39601 0.32279 0.0
H4756 H 0.03081 0.42031 0.33088 0.0
H4757 H 0.03386 0.40663 0.27595 0.0
H4758 H 0.03078 0.39553 0.28955 0.0
H4759 H 0.04698 0.40926 0.28807 0.0
C4760 C 0.02767 0.38289 0.32868 0.0
C4761 C 0.04001 0.38387 0.32854 0.0
C4762 C 0.02571 0.3926 0.32319 0.0
C4763 C 0.036 0.40341 0.31737 0.0
C4764 C 0.04837 0.40455 0.31734 0.0
H4765 H 0.03458 0.46411 0.2702 0.0
H4766 H 0.04173 0.45109 0.2829 0.0
C4767 C 0.05037 0.39486 0.32287 0.0
C4768 C 0.03365 0.41335 0.31114 0.0
H4769 H 0.03051 0.42452 0.28011 0.0
C4770 C 0.03079 0.42131 0.31979 0.0
C4771 C 0.03369 0.41459 0.29669 0.0
C4772 C 0.0364 0.40602 0.28695 0.0
C4773 C 0.02795 0.43053 0.31434 0.0
C4774 C 0.02766 0.43155 0.29983 0.0
C4775 C 0.03074 0.42373 0.29122 0.0
C4776 C 0.02376 0.44031 0.29325 0.0
C4777 C 0.02542 0.43918 0.32417 0.0
C4778 C 0.01129 0.43862 0.29493 0.0
C4779 C 0.00723 0.44618 0.28782 0.0
C4780 C 0.0155 0.45546 0.27877 0.0
C4781 C 0.02805 0.45723 0.27727 0.0
C4782 C 0.03212 0.44972 0.28443 0.0
H4783 H 0.02994 0.44012 0.33473 0.0
H4784 H 0.02929 0.44921 0.32042 0.0
H4785 H 0.01469 0.43466 0.32498 0.0
H4786 H 0.00456 0.43122 0.30145 0.0
H4787 H 0.99755 0.44464 0.28929 0.0
H4788 H 0.60452 0.63106 0.32069 0.0
H4789 H 0.5902 0.60906 0.3093 0.0
H4790 H 0.62397 0.60726 0.29729 0.0
H4791 H 0.63842 0.62945 0.30826 0.0
H4792 H 0.59097 0.60037 0.27923 0.0
H4793 H 0.60024 0.57329 0.31989 0.0
H4794 H 0.60276 0.58966 0.3234 0.0
H4795 H 0.61416 0.58746 0.31361 0.0
C4796 C 0.60893 0.62609 0.31547 0.0
C4797 C 0.62264 0.63204 0.31543 0.0
C4798 C 0.60073 0.61349 0.30905 0.0
C4799 C 0.60607 0.60657 0.30258 0.0
C4800 C 0.6197 0.61245 0.30238 0.0
H4801 H 0.56376 0.53246 0.25068 0.0
H4802 H 0.58064 0.55452 0.26044 0.0
C4803 C 0.62793 0.62509 0.30872 0.0
C4804 C 0.59733 0.59313 0.29609 0.0
H4805 H 0.58591 0.56053 0.30068 0.0
C4806 C 0.58991 0.59165 0.28383 0.0
C4807 C 0.59599 0.58184 0.30223 0.0
C4808 C 0.60363 0.58303 0.31555 0.0
C4809 C 0.58106 0.57907 0.27755 0.0
C4810 C 0.57965 0.56778 0.28373 0.0
C4811 C 0.58713 0.56926 0.29596 0.0
C4812 C 0.56986 0.55431 0.27808 0.0
C4813 C 0.573 0.57786 0.26455 0.0
C4814 C 0.55838 0.54691 0.28492 0.0
C4815 C 0.54876 0.5344 0.27938 0.0
C4816 C 0.55052 0.52904 0.26696 0.0
C4817 C 0.5622 0.53634 0.2603 0.0
C4818 C 0.57179 0.54893 0.26581 0.0
H4819 H 0.57421 0.58752 0.26192 0.0
H4820 H 0.57603 0.57389 0.25575 0.0
H4821 H 0.56246 0.57083 0.26577 0.0
H4822 H 0.55678 0.55092 0.29444 0.0
H4823 H 0.53993 0.52892 0.28481 0.0
H4824 H 0.34786 0.94388 0.35671 0.0
H4825 H 0.36695 0.9469 0.34467 0.0
H4826 H 0.38315 0.98911 0.34798 0.0
H4827 H 0.36434 0.98621 0.36029 0.0
H4828 H 0.37465 0.9588 0.31961 0.0
H4829 H 0.4142 0.98518 0.36123 0.0
H4830 H 0.39706 0.97614 0.36467 0.0
H4831 H 0.40421 0.99249 0.35863 0.0
C4832 C 0.35561 0.95381 0.35509 0.0
C4833 C 0.35459 0.96481 0.35943 0.0
C4834 C 0.36646 0.95552 0.34816 0.0
C4835 C 0.37652 0.96824 0.34559 0.0
C4836 C 0.37561 0.97923 0.35008 0.0
H4837 H 0.43202 0.99569 0.28303 0.0
H4838 H 0.41407 0.99001 0.29816 0.0
C4839 C 0.36478 0.97754 0.35696 0.0
C4840 C 0.38756 0.97004 0.33742 0.0
H4841 H 0.42096 0.98596 0.3381 0.0
C4842 C 0.38477 0.96461 0.32369 0.0
C4843 C 0.40073 0.97753 0.34282 0.0
C4844 C 0.40426 0.98307 0.35769 0.0
C4845 C 0.39485 0.96689 0.31504 0.0
C4846 C 0.40803 0.97492 0.32025 0.0
C4847 C 0.41083 0.97993 0.33412 0.0
C4848 C 0.41903 0.9785 0.3113 0.0
C4849 C 0.39134 0.96077 0.30038 0.0
C4850 C 0.4279 0.97413 0.31389 0.0
C4851 C 0.43819 0.9774 0.30529 0.0
C4852 C 0.43985 0.98521 0.29406 0.0
C4853 C 0.43105 0.98975 0.29166 0.0
C4854 C 0.42074 0.98642 0.30021 0.0
H4855 H 0.38106 0.95242 0.29905 0.0
H4856 H 0.39242 0.96835 0.29323 0.0
H4857 H 0.39798 0.95714 0.29735 0.0
H4858 H 0.42677 0.96809 0.32248 0.0
H4859 H 0.44491 0.97389 0.30747 0.0
H4860 H 0.62801 0.99209 0.33001 0.0
H4861 H 0.61272 0.99591 0.31617 0.0
H4862 H 0.58198 0.95578 0.32043 0.0
H4863 H 0.59706 0.95201 0.33476 0.0
H4864 H 0.59856 0.98325 0.29138 0.0
H4865 H 0.56531 0.97712 0.33303 0.0
H4866 H 0.58131 0.97914 0.3365 0.0
H4867 H 0.56774 0.96335 0.33009 0.0
C4868 C 0.61795 0.98412 0.32818 0.0
C4869 C 0.61373 0.97178 0.33362 0.0
C4870 C 0.60926 0.98629 0.32016 0.0
C4871 C 0.59617 0.9762 0.31746 0.0
C4872 C 0.59198 0.96379 0.32262 0.0
H4873 H 0.52876 0.97054 0.27251 0.0
H4874 H 0.54448 0.96607 0.28456 0.0
C4875 C 0.60065 0.96161 0.33068 0.0
C4876 C 0.58696 0.97865 0.30915 0.0
H4877 H 0.55833 0.97892 0.31037 0.0
C4878 C 0.58978 0.98235 0.29553 0.0
C4879 C 0.57554 0.97749 0.31462 0.0
C4880 C 0.57232 0.97418 0.3294 0.0
C4881 C 0.58136 0.98472 0.28715 0.0
C4882 C 0.56992 0.98349 0.29261 0.0
C4883 C 0.56709 0.97979 0.30621 0.0
C4884 C 0.56075 0.98609 0.28445 0.0
C4885 C 0.58462 0.98829 0.27245 0.0
C4886 C 0.56473 0.99884 0.28038 0.0
C4887 C 0.55579 0.00142 0.27345 0.0
C4888 C 0.5427 0.99129 0.27049 0.0
C4889 C 0.53882 0.9785 0.27443 0.0
C4890 C 0.54775 0.97594 0.28139 0.0
H4891 H 0.59201 0.98586 0.26885 0.0
H4892 H 0.57569 0.98307 0.26528 0.0
H4893 H 0.58872 0.99908 0.27187 0.0
H4894 H 0.57469 0.00685 0.28284 0.0
H4895 H 0.55908 0.01136 0.27051 0.0
H4896 H 0.00453 0.63814 0.31313 0.0
H4897 H 0.99844 0.61651 0.30218 0.0
H4898 H 0.03602 0.63342 0.28451 0.0
H4899 H 0.04214 0.65516 0.29525 0.0
H4900 H 0.99744 0.60926 0.27336 0.0
H4901 H 0.0329 0.60185 0.30523 0.0
H4902 H 0.02852 0.61404 0.31013 0.0
H4903 H 0.0399 0.6172 0.29701 0.0
C4904 C 0.01146 0.6373 0.30681 0.0
C4905 C 0.02383 0.64838 0.30507 0.0
C4906 C 0.00799 0.62492 0.30062 0.0
C4907 C 0.01684 0.62337 0.29268 0.0
C4908 C 0.02915 0.6344 0.29081 0.0
H4909 H 0.00285 0.5583 0.23539 0.0
H4910 H 0.00714 0.57945 0.24615 0.0
C4911 C 0.03263 0.64679 0.29698 0.0
C4912 C 0.01314 0.61022 0.28625 0.0
H4913 H 0.02126 0.5862 0.28631 0.0
C4914 C 0.00261 0.60418 0.27619 0.0
C4915 C 0.01983 0.6036 0.29012 0.0
C4916 C 0.03085 0.60942 0.3013 0.0
C4917 C 0.99873 0.59174 0.26969 0.0
C4918 C 0.00565 0.58528 0.2733 0.0
C4919 C 0.01603 0.59123 0.28353 0.0
C4920 C 0.00231 0.57233 0.2666 0.0
C4921 C 0.98716 0.58552 0.25916 0.0
C4922 C 0.99827 0.56138 0.27457 0.0
C4923 C 0.9959 0.54933 0.26848 0.0
C4924 C 0.99762 0.54805 0.25432 0.0
C4925 C 0.0015 0.55901 0.24633 0.0
C4926 C 0.00384 0.57105 0.25242 0.0
H4927 H 0.98104 0.59019 0.26002 0.0
H4928 H 0.99077 0.5868 0.2486 0.0
H4929 H 0.98092 0.57477 0.26039 0.0
H4930 H 0.99713 0.56222 0.28555 0.0
H4931 H 0.99312 0.54113 0.27496 0.0
H4932 H 0.3469 0.38797 0.3285 0.0
H4933 H 0.36718 0.39902 0.31656 0.0
H4934 H 0.38952 0.40327 0.35458 0.0
H4935 H 0.36921 0.39207 0.36659 0.0
H4936 H 0.38941 0.4235 0.32074 0.0
H4937 H 0.40103 0.38377 0.32827 0.0
H4938 H 0.38531 0.38184 0.33174 0.0
H4939 H 0.39916 0.39115 0.34398 0.0
C4940 C 0.35614 0.39144 0.33437 0.0
C4941 C 0.35646 0.38908 0.34846 0.0
C4942 C 0.36771 0.39769 0.32752 0.0
C4943 C 0.37982 0.40171 0.33462 0.0
C4944 C 0.38024 0.39993 0.34883 0.0
H4945 H 0.45786 0.43864 0.30234 0.0
H4946 H 0.43986 0.43004 0.31788 0.0
C4947 C 0.36865 0.39358 0.35568 0.0
C4948 C 0.3919 0.40748 0.32698 0.0
H4949 H 0.41638 0.40227 0.31696 0.0
C4950 C 0.39533 0.41889 0.31996 0.0
C4951 C 0.3996 0.40141 0.32597 0.0
C4952 C 0.39606 0.3888 0.33278 0.0
C4953 C 0.4062 0.42434 0.31185 0.0
C4954 C 0.41374 0.41816 0.31068 0.0
C4955 C 0.41054 0.40695 0.31794 0.0
C4956 C 0.42459 0.42283 0.30136 0.0
C4957 C 0.40952 0.43663 0.3045 0.0
C4958 C 0.42188 0.42128 0.28698 0.0
C4959 C 0.43207 0.426 0.2781 0.0
C4960 C 0.4452 0.43241 0.28344 0.0
C4961 C 0.44786 0.43364 0.29789 0.0
C4962 C 0.43762 0.42883 0.30678 0.0
H4963 H 0.4045 0.44172 0.30871 0.0
H4964 H 0.42027 0.44365 0.30537 0.0
H4965 H 0.4064 0.43388 0.29333 0.0
H4966 H 0.41184 0.41646 0.28264 0.0
H4967 H 0.42967 0.42466 0.26703 0.0
H4968 H 0.32734 0.30813 0.42077 0.0
H4969 H 0.33703 0.29524 0.42864 0.0
H4970 H 0.31909 0.26814 0.39252 0.0
H4971 H 0.3096 0.28118 0.38438 0.0
H4972 H 0.32301 0.26847 0.43434 0.0
H4973 H 0.35785 0.27753 0.3935 0.0
H4974 H 0.35071 0.28776 0.39656 0.0
H4975 H 0.34125 0.27187 0.3873 0.0
C4976 C 0.3256 0.29953 0.4144 0.0
C4977 C 0.31773 0.29568 0.40193 0.0
C4978 C 0.3311 0.29216 0.41893 0.0
C4979 C 0.32891 0.28086 0.41106 0.0
C4980 C 0.32107 0.27697 0.39862 0.0
H4981 H 0.33791 0.21764 0.44167 0.0
H4982 H 0.33041 0.23075 0.4296 0.0
C4983 C 0.31553 0.28432 0.39408 0.0
C4984 C 0.33426 0.27279 0.41633 0.0
H4985 H 0.35525 0.26166 0.40945 0.0
C4986 C 0.33007 0.26699 0.42891 0.0
C4987 C 0.34355 0.271 0.40925 0.0
C4988 C 0.34872 0.27744 0.39596 0.0
C4989 C 0.33481 0.2593 0.43457 0.0
C4990 C 0.34386 0.25725 0.42735 0.0
C4991 C 0.34821 0.26318 0.41485 0.0
C4992 C 0.34896 0.24906 0.43285 0.0
C4993 C 0.33023 0.25356 0.44832 0.0
C4994 C 0.36202 0.25496 0.43815 0.0
C4995 C 0.36633 0.2475 0.44509 0.0
C4996 C 0.35762 0.23405 0.4468 0.0
C4997 C 0.34477 0.22803 0.44073 0.0
C4998 C 0.34048 0.23548 0.4338 0.0
H4999 H 0.32543 0.25829 0.45385 0.0
H5000 H 0.32301 0.24283 0.44655 0.0
H5001 H 0.33857 0.25472 0.45509 0.0
H5002 H 0.36868 0.26544 0.43748 0.0
H5003 H 0.37626 0.2524 0.44972 0.0
H5004 H 0.72665 0.03333 0.40969 0.0
H5005 H 0.74038 0.05581 0.42024 0.0
H5006 H 0.70651 0.06038 0.42146 0.0
H5007 H 0.69264 0.03778 0.41112 0.0
H5008 H 0.74311 0.07966 0.4092 0.0
H5009 H 0.72395 0.07117 0.46176 0.0
H5010 H 0.72168 0.05782 0.44986 0.0
H5011 H 0.71205 0.0655 0.44725 0.0
C5012 C 0.7221 0.03906 0.41235 0.0
C5013 C 0.70856 0.03378 0.40962 0.0
C5014 C 0.72995 0.05191 0.4183 0.0
C5015 C 0.72442 0.05967 0.42174 0.0
C5016 C 0.71092 0.05447 0.41902 0.0
H5017 H 0.76297 0.13996 0.46149 0.0
H5018 H 0.74646 0.11832 0.45053 0.0
C5019 C 0.70305 0.04162 0.41301 0.0
C5020 C 0.7329 0.07332 0.42783 0.0
H5021 H 0.74024 0.0929 0.45769 0.0
C5022 C 0.74247 0.08259 0.41978 0.0
C5023 C 0.73191 0.07709 0.44159 0.0
C5024 C 0.72192 0.0674 0.45071 0.0
C5025 C 0.75122 0.09553 0.42518 0.0
C5026 C 0.75055 0.09919 0.4391 0.0
C5027 C 0.74074 0.09003 0.44704 0.0
C5028 C 0.76042 0.11223 0.4458 0.0
C5029 C 0.7611 0.10518 0.41593 0.0
C5030 C 0.77366 0.11583 0.44695 0.0
C5031 C 0.78308 0.12815 0.4531 0.0
C5032 C 0.77943 0.13707 0.45837 0.0
C5033 C 0.7661 0.13335 0.45741 0.0
C5034 C 0.75666 0.12099 0.45122 0.0
H5035 H 0.75784 0.1022 0.4048 0.0
H5036 H 0.76284 0.11531 0.41817 0.0
H5037 H 0.77054 0.10546 0.41774 0.0
H5038 H 0.77673 0.10911 0.44306 0.0
H5039 H 0.79326 0.13075 0.4535 0.0
H5040 H 0.96545 0.67017 0.36273 0.0
H5041 H 0.9445 0.66058 0.37358 0.0
H5042 H 0.95332 0.69955 0.38818 0.0
H5043 H 0.97422 0.70925 0.37719 0.0
H5044 H 0.94193 0.66415 0.40276 0.0
H5045 H 0.91547 0.68177 0.36947 0.0
H5046 H 0.92952 0.68102 0.36404 0.0
H5047 H 0.93173 0.69426 0.37588 0.0
C5048 C 0.96282 0.67672 0.36804 0.0
C5049 C 0.97145 0.69047 0.36906 0.0
C5050 C 0.9509 0.67121 0.37429 0.0
C5051 C 0.94733 0.67937 0.38153 0.0
C5052 C 0.95584 0.69311 0.38245 0.0
H5053 H 0.88656 0.67165 0.4323 0.0
H5054 H 0.90502 0.67854 0.41776 0.0
C5055 C 0.9678 0.69862 0.37628 0.0
C5056 C 0.93507 0.67349 0.3888 0.0
H5057 H 0.90584 0.67246 0.39029 0.0
C5058 C 0.93396 0.66583 0.39998 0.0
C5059 C 0.92476 0.67576 0.38511 0.0
C5060 C 0.92531 0.68356 0.3729 0.0
C5061 C 0.92297 0.66077 0.40793 0.0
C5062 C 0.9127 0.66318 0.40436 0.0
C5063 C 0.91371 0.67061 0.39299 0.0
C5064 C 0.90119 0.65873 0.41278 0.0
C5065 C 0.92271 0.65335 0.4204 0.0
C5066 C 0.89276 0.64527 0.41462 0.0
C5067 C 0.88228 0.6413 0.42312 0.0
C5068 C 0.87999 0.65073 0.42982 0.0
C5069 C 0.88822 0.66416 0.42756 0.0
C5070 C 0.8987 0.66811 0.41914 0.0
H5071 H 0.9326 0.65512 0.42359 0.0
H5072 H 0.91886 0.65626 0.42932 0.0
H5073 H 0.91618 0.6426 0.41782 0.0
H5074 H 0.89435 0.63785 0.40957 0.0
H5075 H 0.87614 0.63089 0.42466 0.0
H5076 H 0.37166 0.00749 0.73232 0.0
H5077 H 0.38692 0.00384 0.74639 0.0
H5078 H 0.4195 0.03853 0.73146 0.0
H5079 H 0.40432 0.04192 0.71683 0.0
H5080 H 0.42339 0.0176 0.731 0.0
H5081 H 0.40719 0.02414 0.78221 0.0
H5082 H 0.39408 0.01177 0.77075 0.0
H5083 H 0.4024 0.02875 0.76645 0.0
C5084 C 0.38208 0.01428 0.73191 0.0
C5085 C 0.38676 0.02501 0.72343 0.0
C5086 C 0.39077 0.01229 0.74012 0.0
C5087 C 0.40432 0.02105 0.74018 0.0
C5088 C 0.40906 0.03171 0.73167 0.0
H5089 H 0.46395 0.02587 0.79889 0.0
H5090 H 0.44827 0.02955 0.78557 0.0
C5091 C 0.40037 0.03368 0.72338 0.0
C5092 C 0.41358 0.01887 0.74878 0.0
H5093 H 0.42146 0.01537 0.78199 0.0
C5094 C 0.42302 0.01717 0.74216 0.0
C5095 C 0.41316 0.01848 0.76335 0.0
C5096 C 0.40375 0.02101 0.77114 0.0
C5097 C 0.43193 0.01488 0.74969 0.0
C5098 C 0.43118 0.01396 0.76419 0.0
C5099 C 0.42189 0.01589 0.77085 0.0
C5100 C 0.44018 0.01133 0.77267 0.0
C5101 C 0.44224 0.01371 0.74206 0.0
C5102 C 0.44058 -0.00029 0.77006 0.0
C5103 C 0.44963 0.99765 0.77754 0.0
C5104 C 0.45836 0.00712 0.78787 0.0
C5105 C 0.45753 0.0185 0.79084 0.0
C5106 C 0.44853 0.02057 0.7833 0.0
H5107 H 0.44374 0.01817 0.7319 0.0
H5108 H 0.45176 0.01859 0.74828 0.0
H5109 H 0.43904 0.00311 0.74008 0.0
H5110 H 0.43403 0.99232 0.7621 0.0
H5111 H 0.45005 0.98883 0.77492 0.0
H5112 H 0.98881 0.3497 0.7713 0.0
H5113 H 0.9934 0.37023 0.78389 0.0
H5114 H 0.9616 0.3696 0.76002 0.0
H5115 H 0.95661 0.34883 0.74779 0.0
H5116 H 0.00056 0.39386 0.77289 0.0
H5117 H 0.95446 0.37638 0.79927 0.0
H5118 H 0.95902 0.36519 0.79146 0.0
H5119 H 0.9517 0.37234 0.78092 0.0
C5120 C 0.98261 0.35378 0.76893 0.0
C5121 C 0.97231 0.34761 0.75857 0.0
C5122 C 0.98531 0.36556 0.77607 0.0
C5123 C 0.97773 0.37133 0.77303 0.0
C5124 C 0.96741 0.36517 0.76274 0.0
H5125 H 0.98034 0.44457 0.79039 0.0
H5126 H 0.976 0.42274 0.78206 0.0
C5127 C 0.96468 0.35339 0.75563 0.0
C5128 C 0.98104 0.38419 0.78002 0.0
H5129 H 0.96814 0.39981 0.79843 0.0
C5130 C 0.99354 0.39515 0.77864 0.0
C5131 C 0.97187 0.3858 0.78752 0.0
C5132 C 0.95856 0.37427 0.79002 0.0
C5133 C 0.99693 0.4078 0.7841 0.0
C5134 C 0.98761 0.40946 0.79123 0.0
C5135 C 0.97523 0.39847 0.7929 0.0
C5136 C 0.99031 0.42264 0.79649 0.0
C5137 C 0.01027 0.41937 0.7818 0.0
C5138 C -0.00026 0.42973 0.80744 0.0
C5139 C 0.00218 0.44219 0.81232 0.0
C5140 C 0.99519 0.44771 0.80634 0.0
C5141 C 0.98575 0.44052 0.79537 0.0
C5142 C 0.9833 0.42808 0.79054 0.0
H5143 H 0.01545 0.41678 0.77407 0.0
H5144 H 0.0094 0.42778 0.77824 0.0
H5145 H 0.01636 0.42273 0.79173 0.0
H5146 H 0.00512 0.42558 0.81227 0.0
H5147 H 0.00939 0.4474 0.82091 0.0
H5148 H 0.64258 0.59527 0.7045 0.0
H5149 H 0.62116 0.5832 0.71442 0.0
H5150 H 0.6297 0.61853 0.73874 0.0
H5151 H 0.65084 0.6307 0.72866 0.0
H5152 H 0.6161 0.57947 0.74263 0.0
H5153 H 0.59356 0.60639 0.71972 0.0
H5154 H 0.60804 0.60711 0.71334 0.0
H5155 H 0.60931 0.61712 0.72855 0.0
C5156 C 0.63982 0.60047 0.71186 0.0
C5157 C 0.64841 0.61393 0.71582 0.0
C5158 C 0.62762 0.59357 0.71754 0.0
C5159 C 0.62378 0.60004 0.72713 0.0
C5160 C 0.63237 0.61342 0.73116 0.0
H5161 H 0.56365 0.58301 0.78276 0.0
H5162 H 0.58226 0.59266 0.76812 0.0
C5163 C 0.64453 0.62031 0.72553 0.0
C5164 C 0.61102 0.59279 0.73341 0.0
H5165 H 0.58298 0.59339 0.73866 0.0
C5166 C 0.60875 0.58236 0.74161 0.0
C5167 C 0.6015 0.59662 0.73205 0.0
C5168 C 0.60314 0.60734 0.72283 0.0
C5169 C 0.59744 0.57604 0.74902 0.0
C5170 C 0.5881 0.58014 0.74797 0.0
C5171 C 0.5902 0.59032 0.73946 0.0
C5172 C 0.57636 0.57436 0.75612 0.0
C5173 C 0.59583 0.56539 0.75834 0.0
C5174 C 0.56674 0.56096 0.75396 0.0
C5175 C 0.55608 0.55543 0.76226 0.0
C5176 C 0.55483 0.56324 0.77282 0.0
C5177 C 0.56427 0.57677 0.77463 0.0
C5178 C 0.57493 0.58228 0.76633 0.0
H5179 H 0.60512 0.56533 0.76018 0.0
H5180 H 0.59242 0.56672 0.76849 0.0
H5181 H 0.58836 0.5556 0.75342 0.0
H5182 H 0.56755 0.55476 0.74594 0.0
H5183 H 0.54884 0.54503 0.76046 0.0
H5184 H 0.70294 0.7164 0.64343 0.0
H5185 H 0.69324 0.72906 0.63479 0.0
H5186 H 0.6707 0.72101 0.67085 0.0
H5187 H 0.68045 0.70843 0.6796 0.0
H5188 H 0.66719 0.71994 0.62832 0.0
H5189 H 0.68681 0.76073 0.66962 0.0
H5190 H 0.6932 0.74974 0.66757 0.0
H5191 H 0.67814 0.74446 0.67581 0.0
C5192 C 0.69597 0.71739 0.64954 0.0
C5193 C 0.69249 0.71149 0.66221 0.0
C5194 C 0.69046 0.72464 0.64462 0.0
C5195 C 0.68138 0.72611 0.65227 0.0
C5196 C 0.67792 0.72026 0.66495 0.0
H5197 H 0.63485 0.76254 0.62986 0.0
H5198 H 0.64293 0.74949 0.64139 0.0
C5199 C 0.68349 0.71308 0.66992 0.0
C5200 C 0.67513 0.73327 0.64662 0.0
H5201 H 0.6713 0.75992 0.65282 0.0
C5202 C 0.66809 0.72868 0.63368 0.0
C5203 C 0.67626 0.74462 0.65369 0.0
C5204 C 0.6841 0.75027 0.66739 0.0
C5205 C 0.66224 0.73521 0.62756 0.0
C5206 C 0.66354 0.74664 0.63452 0.0
C5207 C 0.67031 0.75109 0.64759 0.0
C5208 C 0.65873 0.75461 0.62789 0.0
C5209 C 0.65477 0.72991 0.61363 0.0
C5210 C 0.66506 0.76185 0.61665 0.0
C5211 C 0.66055 0.76929 0.61014 0.0
C5212 C 0.64959 0.76963 0.61475 0.0
C5213 C 0.64328 0.76241 0.62608 0.0
C5214 C 0.64789 0.75501 0.63268 0.0
H5215 H 0.65234 0.71959 0.61099 0.0
H5216 H 0.64555 0.73022 0.61342 0.0
H5217 H 0.66084 0.73618 0.60551 0.0
H5218 H 0.67348 0.76169 0.61288 0.0
H5219 H 0.66549 0.7746 0.60131 0.0
H5220 H 0.27082 0.9619 0.66084 0.0
H5221 H 0.25623 0.93959 0.65032 0.0
H5222 H 0.28573 0.94445 0.62249 0.0
H5223 H 0.30058 0.96663 0.63327 0.0
H5224 H 0.24664 0.93162 0.62267 0.0
H5225 H 0.27645 0.90978 0.63993 0.0
H5226 H 0.27927 0.92546 0.6472 0.0
H5227 H 0.28496 0.92435 0.63053 0.0
C5228 C 0.27426 0.95818 0.65258 0.0
C5229 C 0.2869 0.966 0.64796 0.0
C5230 C 0.26589 0.94547 0.64652 0.0
C5231 C 0.26999 0.94031 0.63578 0.0
C5232 C 0.28248 0.94817 0.63094 0.0
H5233 H 0.22898 0.86312 0.58962 0.0
H5234 H 0.2452 0.88587 0.59797 0.0
C5235 C 0.29088 0.96089 0.637 0.0
C5236 C 0.26107 0.92675 0.6296 0.0
H5237 H 0.25739 0.89603 0.6254 0.0
C5238 C 0.24899 0.92384 0.62325 0.0
C5239 C 0.26421 0.91665 0.63033 0.0
C5240 C 0.27687 0.91913 0.63746 0.0
C5241 C 0.23991 0.91106 0.61764 0.0
C5242 C 0.24294 0.90091 0.6186 0.0
C5243 C 0.25512 0.90386 0.6247 0.0
C5244 C 0.23336 0.88707 0.61381 0.0
C5245 C 0.22718 0.90854 0.61066 0.0
C5246 C 0.2215 0.88017 0.62019 0.0
C5247 C 0.21229 0.8672 0.61553 0.0
C5248 C 0.21477 0.86086 0.60441 0.0
C5249 C 0.22682 0.8677 0.59826 0.0
C5250 C 0.23605 0.8807 0.60296 0.0
H5251 H 0.2278 0.91784 0.60759 0.0
H5252 H 0.22434 0.90164 0.6013 0.0
H5253 H 0.2193 0.90397 0.61796 0.0
H5254 H 0.21938 0.88483 0.62879 0.0
H5255 H 0.20323 0.8621 0.62068 0.0
H5256 H 0.04053 0.32147 0.70498 0.0
H5257 H 0.06133 0.33109 0.69381 0.0
H5258 H 0.042 0.30374 0.65811 0.0
H5259 H 0.02118 0.29416 0.66915 0.0
H5260 H 0.07559 0.32015 0.68414 0.0
H5261 H 0.05932 0.33923 0.64102 0.0
H5262 H 0.0502 0.33337 0.65623 0.0
H5263 H 0.04874 0.32183 0.64248 0.0
C5264 C 0.04075 0.31744 0.6948 0.0
C5265 C 0.02921 0.30714 0.68788 0.0
C5266 C 0.05262 0.32298 0.68842 0.0
C5267 C 0.05314 0.31832 0.67501 0.0
C5268 C 0.04173 0.30773 0.6683 0.0
H5269 H 0.11107 0.33095 0.61776 0.0
H5270 H 0.09166 0.32334 0.63107 0.0
C5271 C 0.02986 0.30224 0.67463 0.0
C5272 C 0.0656 0.3245 0.66803 0.0
H5273 H 0.07931 0.33923 0.63859 0.0
C5274 C 0.07646 0.32445 0.67426 0.0
C5275 C 0.06672 0.3302 0.65518 0.0
C5276 C 0.05567 0.3313 0.64839 0.0
C5277 C 0.08828 0.32949 0.6677 0.0
C5278 C 0.08922 0.33478 0.65466 0.0
C5279 C 0.07848 0.3351 0.64858 0.0
C5280 C 0.10109 0.33948 0.64685 0.0
C5281 C 0.09955 0.32879 0.6745 0.0
C5282 C 0.11275 0.35114 0.65129 0.0
C5283 C 0.12387 0.35553 0.64369 0.0
C5284 C 0.12347 0.34827 0.63159 0.0
C5285 C 0.11173 0.33664 0.62716 0.0
C5286 C 0.10062 0.33232 0.63469 0.0
H5287 H 0.09663 0.32274 0.68365 0.0
H5288 H 0.10353 0.32454 0.66698 0.0
H5289 H 0.10754 0.33891 0.67797 0.0
H5290 H 0.11322 0.35686 0.66059 0.0
H5291 H 0.13281 0.36451 0.64735 0.0
H5292 H 0.29906 0.34045 0.68044 0.0
H5293 H 0.28664 0.34866 0.66788 0.0
H5294 H 0.26054 0.30951 0.64904 0.0
H5295 H 0.2727 0.30111 0.66189 0.0
H5296 H 0.28188 0.34782 0.639 0.0
H5297 H 0.23572 0.32057 0.66573 0.0
H5298 H 0.25106 0.32251 0.67243 0.0
H5299 H 0.24167 0.31044 0.65842 0.0
C5300 C 0.29057 0.33354 0.67378 0.0
C5301 C 0.28679 0.32009 0.67226 0.0
C5302 C 0.28356 0.33828 0.66653 0.0
C5303 C 0.2726 0.32966 0.65767 0.0
C5304 C 0.26886 0.31627 0.656 0.0
H5305 H 0.23242 0.34983 0.59508 0.0
H5306 H 0.24604 0.34282 0.60743 0.0
C5307 C 0.27588 0.31152 0.66325 0.0
C5308 C 0.2652 0.33477 0.65009 0.0
H5309 H 0.23519 0.33213 0.64646 0.0
C5310 C 0.27167 0.34442 0.64063 0.0
C5311 C 0.25194 0.33041 0.65238 0.0
C5312 C 0.24468 0.3205 0.66288 0.0
C5313 C 0.26517 0.34971 0.63324 0.0
C5314 C 0.25183 0.34511 0.63529 0.0
C5315 C 0.24541 0.33558 0.64487 0.0
C5316 C 0.24432 0.35008 0.62768 0.0
C5317 C 0.27268 0.36033 0.62349 0.0
C5318 C 0.23878 0.35641 0.63499 0.0
C5319 C 0.23093 0.36033 0.62799 0.0
C5320 C 0.2284 0.35792 0.61354 0.0
C5321 C 0.23415 0.35178 0.60622 0.0
C5322 C 0.24202 0.34787 0.61323 0.0
H5323 H 0.28344 0.36501 0.62563 0.0
H5324 H 0.27021 0.35587 0.61269 0.0
H5325 H 0.27 0.36812 0.62424 0.0
H5326 H 0.24037 0.35812 0.64616 0.0
H5327 H 0.22646 0.36483 0.63396 0.0
H5328 H 0.69262 0.96719 0.64942 0.0
H5329 H 0.68376 0.94486 0.63857 0.0
H5330 H 0.66267 0.953 0.60699 0.0
H5331 H 0.67164 0.97541 0.61765 0.0
H5332 H 0.6561 0.92485 0.63285 0.0
H5333 H 0.6843 0.93956 0.58564 0.0
H5334 H 0.68903 0.95039 0.60119 0.0
H5335 H 0.67556 0.94795 0.58983 0.0
C5336 C 0.6862 0.96426 0.64009 0.0
C5337 C 0.68287 0.97307 0.63434 0.0
C5338 C 0.68108 0.9515 0.63397 0.0
C5339 C 0.67266 0.94736 0.62194 0.0
C5340 C 0.66926 0.95608 0.61621 0.0
H5341 H 0.62537 0.86635 0.58518 0.0
H5342 H 0.63256 0.88875 0.59491 0.0
C5343 C 0.67432 0.96883 0.62236 0.0
C5344 C 0.66739 0.93388 0.61545 0.0
H5345 H 0.66879 0.91689 0.58675 0.0
C5346 C 0.65881 0.92308 0.62276 0.0
C5347 C 0.67106 0.93168 0.60233 0.0
C5348 C 0.68057 0.94297 0.59428 0.0
C5349 C 0.65379 0.91005 0.61725 0.0
C5350 C 0.6574 0.90785 0.60409 0.0
C5351 C 0.66598 0.91866 0.59679 0.0
C5352 C 0.65294 0.89438 0.59806 0.0
C5353 C 0.64492 0.89874 0.62567 0.0
C5354 C 0.66207 0.89025 0.59645 0.0
C5355 C 0.65801 0.8775 0.59099 0.0
C5356 C 0.64474 0.86864 0.58689 0.0
C5357 C 0.63563 0.87287 0.58838 0.0
C5358 C 0.63971 0.88565 0.59391 0.0
H5359 H 0.64493 0.90209 0.63658 0.0
H5360 H 0.63474 0.89392 0.62098 0.0
H5361 H 0.64795 0.89121 0.62565 0.0
H5362 H 0.67232 0.89685 0.59964 0.0
H5363 H 0.66525 0.8745 0.59024 0.0
H5364 H 0.02931 0.73126 0.69724 0.0
H5365 H 0.05035 0.74135 0.68646 0.0
H5366 H 0.03127 0.71675 0.64898 0.0
H5367 H 0.01035 0.70636 0.6597 0.0
H5368 H 0.06261 0.72681 0.67366 0.0
H5369 H 0.05187 0.75604 0.63731 0.0
H5370 H 0.04321 0.75009 0.65281 0.0
H5371 H 0.03922 0.73901 0.63773 0.0
C5372 C 0.02959 0.72796 0.68672 0.0
C5373 C 0.0181 0.71806 0.67931 0.0
C5374 C 0.0416 0.73376 0.68059 0.0
C5375 C 0.04228 0.72986 0.66691 0.0
C5376 C 0.03088 0.72002 0.65949 0.0
H5377 H 0.09737 0.7478 0.60504 0.0
H5378 H 0.07852 0.73893 0.61932 0.0
C5379 C 0.01891 0.71417 0.66562 0.0
C5380 C 0.05491 0.73585 0.66033 0.0
H5381 H 0.07048 0.75408 0.63338 0.0
C5382 C 0.06445 0.7329 0.66495 0.0
C5383 C 0.05718 0.74375 0.64899 0.0
C5384 C 0.0474 0.74753 0.64394 0.0
C5385 C 0.07605 0.73723 0.6581 0.0
C5386 C 0.07819 0.74489 0.64653 0.0
C5387 C 0.06878 0.74813 0.6422 0.0
C5388 C 0.08987 0.74931 0.63839 0.0
C5389 C 0.08565 0.73314 0.66296 0.0
C5390 C 0.10253 0.75793 0.64443 0.0
C5391 C 0.11335 0.76296 0.63629 0.0
C5392 C 0.1116 0.75957 0.62196 0.0
C5393 C 0.09896 0.75066 0.61604 0.0
C5394 C 0.08821 0.74558 0.62417 0.0
H5395 H 0.08114 0.72475 0.66974 0.0
H5396 H 0.0895 0.73026 0.65402 0.0
H5397 H 0.09405 0.7416 0.66898 0.0
H5398 H 0.10401 0.76114 0.65532 0.0
H5399 H 0.12297 0.76994 0.64107 0.0
H5400 H 0.94734 0.60521 0.73276 0.0
H5401 H 0.95314 0.58957 0.74191 0.0
H5402 H 0.99359 0.61578 0.7339 0.0
H5403 H 0.98788 0.63155 0.72494 0.0
H5404 H 0.96496 0.57627 0.73122 0.0
H5405 H 0.99558 0.61173 0.77528 0.0
H5406 H 0.98477 0.61441 0.76406 0.0
H5407 H 0.00043 0.61779 0.75851 0.0
C5408 C 0.95744 0.60754 0.73279 0.0
C5409 C 0.9672 0.61965 0.72831 0.0
C5410 C 0.96074 0.59862 0.73803 0.0
C5411 C 0.97383 0.60165 0.73882 0.0
C5412 C 0.98348 0.61341 0.73368 0.0
H5413 H 0.99782 0.54555 0.76397 0.0
H5414 H 0.99358 0.56031 0.75039 0.0
C5415 C 0.98021 0.62239 0.72856 0.0
C5416 C 0.97742 0.59278 0.74567 0.0
H5417 H 0.99519 0.59147 0.77346 0.0
C5418 C 0.97161 0.57957 0.74043 0.0
C5419 C 0.98597 0.59711 0.75778 0.0
C5420 C 0.99197 0.61099 0.76434 0.0
C5421 C 0.97404 0.57054 0.74705 0.0
C5422 C 0.98271 0.57493 0.75906 0.0
C5423 C 0.98862 0.58816 0.76419 0.0
C5424 C 0.9852 0.56584 0.76703 0.0
C5425 C 0.96699 0.55629 0.74141 0.0
C5426 C 0.98218 0.56432 0.78095 0.0
C5427 C 0.98479 0.55611 0.78877 0.0
C5428 C 0.99046 0.54921 0.78283 0.0
C5429 C 0.99351 0.55078 0.76887 0.0
C5430 C 0.99095 0.55907 0.76105 0.0
H5431 H 0.95846 0.55393 0.7342 0.0
H5432 H 0.97384 0.55438 0.73562 0.0
H5433 H 0.9635 0.54952 0.74994 0.0
H5434 H 0.97783 0.56953 0.78579 0.0
H5435 H 0.98257 0.55537 0.79957 0.0
H5436 H 0.39668 0.36353 0.75389 0.0
H5437 H 0.41121 0.38544 0.76557 0.0
H5438 H 0.3834 0.39741 0.7542 0.0
H5439 H 0.36878 0.37553 0.74256 0.0
H5440 H 0.42076 0.4113 0.75157 0.0
H5441 H 0.39232 0.40572 0.79793 0.0
H5442 H 0.39087 0.39168 0.7879 0.0
H5443 H 0.38346 0.40055 0.7812 0.0
C5444 C 0.39363 0.3708 0.75398 0.0
C5445 C 0.38162 0.36784 0.74731 0.0
C5446 C 0.40194 0.3833 0.76059 0.0
C5447 C 0.39829 0.39294 0.7608 0.0
C5448 C 0.3863 0.39002 0.75421 0.0
H5449 H 0.43589 0.47324 0.79874 0.0
H5450 H 0.42034 0.45153 0.78732 0.0
C5451 C 0.37804 0.37758 0.7475 0.0
C5452 C 0.4072 0.40621 0.76758 0.0
H5453 H 0.41122 0.4265 0.79588 0.0
C5454 C 0.41872 0.41465 0.76127 0.0
C5455 C 0.40436 0.41052 0.78012 0.0
C5456 C 0.39213 0.40167 0.78729 0.0
C5457 C 0.42752 0.4274 0.76717 0.0
C5458 C 0.42487 0.43163 0.77992 0.0
C5459 C 0.41324 0.42321 0.78614 0.0
C5460 C 0.43419 0.44466 0.78708 0.0
C5461 C 0.43944 0.43629 0.75955 0.0
C5462 C 0.44703 0.44788 0.79097 0.0
C5463 C 0.45596 0.46029 0.79732 0.0
C5464 C 0.45218 0.4697 0.80012 0.0
C5465 C 0.43918 0.4663 0.79656 0.0
C5466 C 0.43026 0.45388 0.79012 0.0
H5467 H 0.43799 0.43319 0.74832 0.0
H5468 H 0.44184 0.44673 0.76074 0.0
H5469 H 0.44796 0.43575 0.76384 0.0
H5470 H 0.45019 0.44081 0.789 0.0
H5471 H 0.46593 0.4626 0.79975 0.0
H5472 H 0.64839 0.05182 0.6985 0.0
H5473 H 0.62934 0.04805 0.71107 0.0
H5474 H 0.62151 0.00903 0.71936 0.0
H5475 H 0.6406 0.01275 0.70707 0.0
H5476 H 0.59893 0.01078 0.70962 0.0
H5477 H 0.62827 0.04671 0.75402 0.0
H5478 H 0.63177 0.05278 0.73703 0.0
H5479 H 0.63535 0.04032 0.74197 0.0
C5480 C 0.64266 0.04247 0.70307 0.0
C5481 C 0.64605 0.03261 0.70182 0.0
C5482 C 0.63178 0.04033 0.7102 0.0
C5483 C 0.62413 0.02832 0.71623 0.0
C5484 C 0.6273 0.01836 0.71475 0.0
H5485 H 0.55789 0.99212 0.7666 0.0
H5486 H 0.57527 0.99701 0.7509 0.0
C5487 C 0.63818 0.02049 0.70766 0.0
C5488 C 0.61295 0.02614 0.72432 0.0
H5489 H 0.60531 0.03583 0.75454 0.0
C5490 C 0.60028 0.01627 0.71942 0.0
C5491 C 0.6148 0.03337 0.73706 0.0
C5492 C 0.62827 0.04383 0.74294 0.0
C5493 C 0.58936 0.01342 0.72696 0.0
C5494 C 0.59125 0.02044 0.73987 0.0
C5495 C 0.6039 0.03047 0.74464 0.0
C5496 C 0.58031 0.01729 0.74884 0.0
C5497 C 0.57592 0.00302 0.72096 0.0
C5498 C 0.57756 0.02714 0.7531 0.0
C5499 C 0.56771 0.0244 0.76214 0.0
C5500 C 0.56045 0.01176 0.76711 0.0
C5501 C 0.56318 0.00189 0.76276 0.0
C5502 C 0.57307 0.00466 0.75377 0.0
H5503 H 0.57571 0.00152 0.70953 0.0
H5504 H 0.57314 0.99348 0.72545 0.0
H5505 H 0.56845 0.00573 0.72344 0.0
H5506 H 0.58307 0.03698 0.74945 0.0
H5507 H 0.56573 0.03217 0.76521 0.0
loop_
_geom_bond_atom_site_label_1
_geom_bond_atom_site_label_2
_geom_bond_distance
_geom_bond_site_symmetry_2
_ccdc_geom_bond_type
Li0 N17 1.990 . S
Li0 O60 1.931 1_655 S
Li0 O61 1.970 1_655 S
Li0 O62 1.961 . S
Li1 N25 1.990 . S
Li1 O60 2.024 . S
Li1 O61 1.956 . S
Li1 O63 1.961 . S
Li2 N47 1.987 . S
Li2 O60 1.926 1_655 S
Li2 O62 1.954 . S
Li2 O63 1.974 1_655 S
Li3 N53 1.990 1_554 S
Li3 O61 1.961 . S
Li3 O62 1.970 1_455 S
Li3 O63 1.956 . S
C4 C6 1.348 1_655 S
C4 C7 1.356 . S
C4 O60 1.328 1_655 S
N5 C8 1.314 . S
N5 C9 1.279 . S
C6 C4 1.348 1_455 S
C6 C8 1.353 1_455 S
C6 H64 0.929 . S
C7 C4 1.356 . S
C7 C9 1.358 . S
C7 H65 0.930 . S
C8 N5 1.314 . S
C8 C6 1.353 1_655 S
C8 H66 0.930 1_655 S
C9 N5 1.279 . S
C9 C7 1.358 . S
C9 H67 0.930 . S
C10 C13 1.348 . S
C10 C14 1.356 . S
C10 O61 1.325 1_556 S
C11 N12 1.279 . S
C11 C14 1.358 . S
C11 H68 0.930 . S
N12 C11 1.279 . S
N12 C15 1.314 . S
C13 C10 1.348 . S
C13 C15 1.353 . S
C13 H69 0.876 1_455 S
C14 C10 1.356 . S
C14 C11 1.358 . S
C14 H70 0.930 . S
C15 N12 1.314 . S
C15 C13 1.353 . S
C15 H71 0.930 . S
C16 N17 1.314 1_556 S
C16 C21 1.353 . S
C16 H22 0.930 . S
N17 Li0 1.990 . S
N17 C16 1.314 1_554 S
N17 C19 1.279 . S
C18 C19 1.358 . S
C18 C20 1.356 1_554 S
C18 H72 0.930 . S
C19 N17 1.279 . S
C19 C18 1.358 . S
C19 H23 0.930 . S
C20 C18 1.356 1_556 S
C20 C21 1.348 . S
C21 C16 1.353 . S
C21 C20 1.348 . S
C21 H73 0.929 . S
H22 C16 0.930 . S
H23 C19 0.930 . S
C24 N25 1.314 . S
C24 C26 1.353 . S
C24 H30 0.930 . S
N25 Li1 1.990 . S
N25 C24 1.314 . S
N25 C28 1.279 . S
C26 C24 1.353 . S
C26 C29 1.348 . S
C26 H74 0.929 . S
C27 C28 1.358 . S
C27 C29 1.356 . S
C27 H75 0.930 . S
C28 N25 1.279 . S
C28 C27 1.358 . S
C28 H31 0.930 . S
C29 C26 1.348 . S
C29 C27 1.356 . S
H30 C24 0.930 . S
H31 C28 0.930 . S
C32 C34 1.348 . S
C32 C35 1.356 . S
C32 O62 1.325 . S
N33 C36 1.314 . S
N33 C37 1.279 . S
C34 C32 1.348 . S
C34 C36 1.353 . S
C34 H76 0.929 . S
C35 C32 1.356 . S
C35 C37 1.358 . S
C35 H77 0.930 . S
C36 N33 1.314 . S
C36 C34 1.353 . S
C36 H78 0.930 1_554 S
C37 N33 1.279 . S
C37 C35 1.358 . S
C37 H79 0.930 . S
C38 C39 1.348 . S
C38 C40 1.356 . S
C38 O63 1.325 . S
C39 C38 1.348 . S
C39 C41 1.353 . S
C39 H80 0.929 . S
C40 C38 1.356 . S
C40 C42 1.358 . S
C40 H81 0.930 . S
C41 C39 1.353 . S
C41 N43 1.314 . S
C41 H82 0.930 . S
C42 C40 1.358 . S
C42 N43 1.279 . S
C42 H83 0.930 . S
N43 C41 1.314 . S
N43 C42 1.279 . S
C44 C46 1.353 . S
C44 N47 1.314 . S
C44 H50 0.930 1_655 S
C45 N47 1.279 . S
C45 C48 1.358 . S
C45 H51 0.930 . S
C46 C44 1.353 . S
C46 C49 1.348 . S
C46 H84 0.929 . S
N47 Li2 1.987 . S
N47 C44 1.314 . S
N47 C45 1.279 . S
C48 C45 1.358 . S
C48 C49 1.356 . S
C48 H85 0.930 . S
C49 C46 1.348 . S
C49 C48 1.356 . S
H50 C44 0.930 1_455 S
H51 C45 0.930 . S
C52 N53 1.314 . S
C52 C54 1.353 . S
C52 H58 0.930 . S
N53 Li3 1.990 1_556 S
N53 C52 1.314 . S
N53 C56 1.279 . S
C54 C52 1.353 . S
C54 C57 1.348 . S
C54 H86 0.929 . S
C55 C56 1.358 . S
C55 C57 1.356 . S
C55 H87 0.930 . S
C56 N53 1.279 . S
C56 C55 1.358 . S
C56 H59 0.930 1_556 S
C57 C54 1.348 . S
C57 C55 1.356 . S
H58 C52 0.930 . S
H59 C56 0.930 1_554 S
O60 Li0 1.931 1_455 S
O60 Li1 2.024 . S
O60 Li2 1.926 1_455 S
O60 C4 1.328 1_455 S
O61 Li0 1.970 1_455 S
O61 Li1 1.956 . S
O61 Li3 1.961 . S
O61 C10 1.325 1_554 S
O62 Li0 1.961 . S
O62 Li2 1.954 . S
O62 Li3 1.970 1_655 S
O62 C32 1.325 . S
O63 Li1 1.961 . S
O63 Li2 1.974 1_455 S
O63 Li3 1.956 . S
O63 C38 1.325 . S
H64 C6 0.929 . S
H65 C7 0.930 . S
H66 C8 0.930 1_455 S
H67 C9 0.930 . S
H68 C11 0.930 . S
H69 C13 0.876 1_655 S
H70 C14 0.930 . S
H71 C15 0.930 . S
H72 C18 0.930 . S
H73 C21 0.929 . S
H74 C26 0.929 . S
H75 C27 0.930 . S
H76 C34 0.929 . S
H77 C35 0.930 . S
H78 C36 0.930 1_556 S
H79 C37 0.930 . S
H80 C39 0.929 . S
H81 C40 0.930 . S
H82 C41 0.930 . S
H83 C42 0.930 . S
H84 C46 0.929 . S
H85 C48 0.930 . S
H86 C54 0.929 . S
H87 C55 0.930 . S
Li88 N105 1.990 . S
Li88 O148 1.956 . S
Li88 O149 1.970 . S
Li88 O150 1.961 . S
Li89 N113 1.990 . S
Li89 O148 1.970 . S
Li89 O149 1.956 . S
Li89 O151 1.961 . S
Li90 N135 1.990 . S
Li90 O148 1.961 . S
Li90 O150 1.956 . S
Li90 O151 1.970 . S
Li91 N141 1.990 . S
Li91 O149 1.961 . S
Li91 O150 1.970 . S
Li91 O151 1.956 . S
C92 C94 1.348 . S
C92 C95 1.356 . S
C92 O148 1.325 . S
N93 C96 1.314 . S
N93 C97 1.279 . S
C94 C92 1.348 . S
C94 C96 1.353 . S
C94 H152 0.929 . S
C95 C92 1.356 . S
C95 C97 1.358 . S
C95 H153 0.930 . S
C96 N93 1.314 . S
C96 C94 1.353 . S
C96 H154 0.930 . S
C97 N93 1.279 . S
C97 C95 1.358 . S
C97 H155 0.930 . S
C98 C101 1.348 . S
C98 C102 1.356 . S
C98 O149 1.325 . S
C99 N100 1.279 . S
C99 C102 1.358 . S
C99 H156 0.930 . S
N100 C99 1.279 . S
N100 C103 1.314 . S
C101 C98 1.348 . S
C101 C103 1.353 . S
C101 H157 0.929 . S
C102 C98 1.356 . S
C102 C99 1.358 . S
C102 H158 0.930 . S
C103 N100 1.314 . S
C103 C101 1.353 . S
C103 H159 0.930 . S
C104 N105 1.314 . S
C104 C109 1.353 . S
C104 H110 0.930 . S
N105 Li88 1.990 . S
N105 C104 1.314 . S
N105 C107 1.279 . S
C106 C107 1.358 . S
C106 C108 1.356 . S
C106 H160 0.930 . S
C107 N105 1.279 . S
C107 C106 1.358 . S
C107 H111 0.930 . S
C108 C106 1.356 . S
C108 C109 1.348 . S
C109 C104 1.353 . S
C109 C108 1.348 . S
C109 H161 0.929 . S
H110 C104 0.930 . S
H111 C107 0.930 . S
C112 N113 1.314 . S
C112 C114 1.353 . S
C112 H118 0.930 . S
N113 Li89 1.990 . S
N113 C112 1.314 . S
N113 C116 1.279 . S
C114 C112 1.353 . S
C114 C117 1.348 . S
C114 H162 0.929 . S
C115 C116 1.358 . S
C115 C117 1.356 . S
C115 H163 0.930 . S
C116 N113 1.279 . S
C116 C115 1.358 . S
C116 H119 0.930 . S
C117 C114 1.348 . S
C117 C115 1.356 . S
H118 C112 0.930 . S
H119 C116 0.930 . S
C120 C122 1.348 . S
C120 C123 1.356 . S
C120 O150 1.325 . S
N121 C124 1.314 . S
N121 C125 1.279 . S
C122 C120 1.348 . S
C122 C124 1.353 . S
C122 H164 0.929 . S
C123 C120 1.356 . S
C123 C125 1.358 . S
C123 H165 0.930 . S
C124 N121 1.314 . S
C124 C122 1.353 . S
C124 H166 0.930 . S
C125 N121 1.279 . S
C125 C123 1.358 . S
C125 H167 0.930 . S
C126 C127 1.348 . S
C126 C128 1.356 . S
C126 O151 1.325 . S
C127 C126 1.348 . S
C127 C129 1.353 . S
C127 H168 0.929 . S
C128 C126 1.356 . S
C128 C130 1.358 . S
C128 H169 0.930 . S
C129 C127 1.353 . S
C129 N131 1.314 . S
C129 H170 0.930 . S
C130 C128 1.358 . S
C130 N131 1.279 . S
C130 H171 0.930 . S
N131 C129 1.314 . S
N131 C130 1.279 . S
C132 C134 1.353 . S
C132 N135 1.314 . S
C132 H138 0.930 . S
C133 N135 1.279 . S
C133 C136 1.358 . S
C133 H139 0.930 . S
C134 C132 1.353 . S
C134 C137 1.348 . S
C134 H172 0.929 . S
N135 Li90 1.990 . S
N135 C132 1.314 . S
N135 C133 1.279 . S
C136 C133 1.358 . S
C136 C137 1.356 . S
C136 H173 0.930 . S
C137 C134 1.348 . S
C137 C136 1.356 . S
H138 C132 0.930 . S
H139 C133 0.930 . S
C140 N141 1.314 . S
C140 C142 1.353 . S
C140 H146 0.930 . S
N141 Li91 1.990 . S
N141 C140 1.314 . S
N141 C144 1.279 . S
C142 C140 1.353 . S
C142 C145 1.348 . S
C142 H174 0.929 1_554 S
C143 C144 1.358 . S
C143 C145 1.356 . S
C143 H175 0.930 . S
C144 N141 1.279 . S
C144 C143 1.358 . S
C144 H147 0.930 . S
C145 C142 1.348 . S
C145 C143 1.356 . S
H146 C140 0.930 . S
H147 C144 0.930 . S
O148 Li88 1.956 . S
O148 Li89 1.970 . S
O148 Li90 1.961 . S
O148 C92 1.325 . S
O149 Li88 1.970 . S
O149 Li89 1.956 . S
O149 Li91 1.961 . S
O149 C98 1.325 . S
O150 Li88 1.961 . S
O150 Li90 1.956 . S
O150 Li91 1.970 . S
O150 C120 1.325 . S
O151 Li89 1.961 . S
O151 Li90 1.970 . S
O151 Li91 1.956 . S
O151 C126 1.325 . S
H152 C94 0.929 . S
H153 C95 0.930 . S
H154 C96 0.930 . S
H155 C97 0.930 . S
H156 C99 0.930 . S
H157 C101 0.929 . S
H158 C102 0.930 . S
H159 C103 0.930 . S
H160 C106 0.930 . S
H161 C109 0.929 . S
H162 C114 0.929 . S
H163 C115 0.930 . S
H164 C122 0.929 . S
H165 C123 0.930 . S
H166 C124 0.930 . S
H167 C125 0.930 . S
H168 C127 0.929 . S
H169 C128 0.930 . S
H170 C129 0.930 . S
H171 C130 0.930 . S
H172 C134 0.929 . S
H173 C136 0.930 . S
H174 C142 0.929 1_556 S
H175 C143 0.930 . S
Li176 N193 1.990 1_554 S
Li176 O236 1.956 . S
Li176 O237 1.970 1_565 S
Li176 O238 1.961 . S
Li177 N201 1.990 . S
Li177 O236 1.970 1_545 S
Li177 O237 1.956 . S
Li177 O239 1.961 . S
Li178 N223 1.990 . S
Li178 O236 1.961 . S
Li178 O238 1.956 . S
Li178 O239 1.970 1_565 S
Li179 N229 1.990 . S
Li179 O237 1.961 . S
Li179 O238 1.970 1_545 S
Li179 O239 1.956 . S
C180 C182 1.348 . S
C180 C183 1.356 . S
C180 O236 1.325 . S
N181 C184 1.314 . S
N181 C185 1.279 . S
C182 C180 1.348 . S
C182 C184 1.353 . S
C182 H240 0.929 . S
C183 C180 1.356 . S
C183 C185 1.358 . S
C183 H241 0.930 . S
C184 N181 1.314 . S
C184 C182 1.353 . S
C184 H242 0.930 . S
C185 N181 1.279 . S
C185 C183 1.358 . S
C185 H243 0.930 . S
C186 C189 1.348 . S
C186 C190 1.356 . S
C186 O237 1.325 . S
C187 N188 1.279 . S
C187 C190 1.358 . S
C187 H244 0.930 . S
N188 C187 1.279 . S
N188 C191 1.314 . S
C189 C186 1.348 . S
C189 C191 1.353 . S
C189 H245 0.929 . S
C190 C186 1.356 . S
C190 C187 1.358 . S
C190 H246 0.930 . S
C191 N188 1.314 . S
C191 C189 1.353 . S
C191 H247 0.930 1_554 S
C192 N193 1.314 . S
C192 C197 1.353 . S
C192 H198 0.930 . S
N193 Li176 1.990 1_556 S
N193 C192 1.314 . S
N193 C195 1.279 . S
C194 C195 1.358 . S
C194 C196 1.356 . S
C194 H248 0.930 . S
C195 N193 1.279 . S
C195 C194 1.358 . S
C195 H199 0.930 1_556 S
C196 C194 1.356 . S
C196 C197 1.348 . S
C197 C192 1.353 . S
C197 C196 1.348 . S
C197 H249 0.929 . S
H198 C192 0.930 . S
H199 C195 0.930 1_554 S
C200 N201 1.314 . S
C200 C202 1.353 . S
C200 H206 0.930 . S
N201 Li177 1.990 . S
N201 C200 1.314 . S
N201 C204 1.279 . S
C202 C200 1.353 . S
C202 C205 1.348 . S
C202 H250 0.929 . S
C203 C204 1.358 . S
C203 C205 1.356 . S
C203 H251 0.930 . S
C204 N201 1.279 . S
C204 C203 1.358 . S
C204 H207 0.930 . S
C205 C202 1.348 . S
C205 C203 1.356 . S
H206 C200 0.930 . S
H207 C204 0.930 . S
C208 C210 1.348 . S
C208 C211 1.356 . S
C208 O238 1.325 1_556 S
N209 C212 1.314 . S
N209 C213 1.279 . S
C210 C208 1.348 . S
C210 C212 1.353 . S
C210 H252 0.929 1_565 S
C211 C208 1.356 . S
C211 C213 1.358 . S
C211 H253 0.930 . S
C212 N209 1.314 . S
C212 C210 1.353 . S
C212 H254 0.930 . S
C213 N209 1.279 . S
C213 C211 1.358 . S
C213 H255 0.930 . S
C214 C215 1.348 . S
C214 C216 1.356 . S
C214 O239 1.325 . S
C215 C214 1.348 . S
C215 C217 1.353 . S
C215 H256 0.929 1_545 S
C216 C214 1.356 . S
C216 C218 1.358 . S
C216 H257 0.930 . S
C217 C215 1.353 . S
C217 N219 1.314 . S
C217 H258 0.930 . S
C218 C216 1.358 . S
C218 N219 1.279 . S
C218 H259 0.930 . S
N219 C217 1.314 . S
N219 C218 1.279 . S
C220 C222 1.353 . S
C220 N223 1.314 . S
C220 H226 0.930 . S
C221 N223 1.279 . S
C221 C224 1.358 . S
C221 H227 0.930 . S
C222 C220 1.353 . S
C222 C225 1.348 . S
C222 H260 0.929 . S
N223 Li178 1.990 . S
N223 C220 1.314 . S
N223 C221 1.279 . S
C224 C221 1.358 . S
C224 C225 1.356 . S
C224 H261 0.930 . S
C225 C222 1.348 . S
C225 C224 1.356 . S
H226 C220 0.930 . S
H227 C221 0.930 . S
C228 N229 1.314 . S
C228 C230 1.353 1_554 S
C228 H234 0.930 1_554 S
N229 Li179 1.990 . S
N229 C228 1.314 . S
N229 C232 1.279 . S
C230 C228 1.353 1_556 S
C230 C233 1.348 1_556 S
C230 H262 0.929 . S
C231 C232 1.358 . S
C231 C233 1.356 . S
C231 H263 0.930 . S
C232 N229 1.279 . S
C232 C231 1.358 . S
C232 H235 0.930 . S
C233 C230 1.348 1_554 S
C233 C231 1.356 . S
H234 C228 0.930 1_556 S
H235 C232 0.930 . S
O236 Li176 1.956 . S
O236 Li177 1.970 1_565 S
O236 Li178 1.961 . S
O236 C180 1.325 . S
O237 Li176 1.970 1_545 S
O237 Li177 1.956 . S
O237 Li179 1.961 . S
O237 C186 1.325 . S
O238 Li176 1.961 . S
O238 Li178 1.956 . S
O238 Li179 1.970 1_565 S
O238 C208 1.325 1_554 S
O239 Li177 1.961 . S
O239 Li178 1.970 1_545 S
O239 Li179 1.956 . S
O239 C214 1.325 . S
H240 C182 0.929 . S
H241 C183 0.930 . S
H242 C184 0.930 . S
H243 C185 0.930 . S
H244 C187 0.930 . S
H245 C189 0.929 . S
H246 C190 0.930 . S
H247 C191 0.930 1_556 S
H248 C194 0.930 . S
H249 C197 0.929 . S
H250 C202 0.929 . S
H251 C203 0.930 . S
H252 C210 0.929 1_545 S
H253 C211 0.930 . S
H254 C212 0.930 . S
H255 C213 0.930 . S
H256 C215 0.929 1_565 S
H257 C216 0.930 . S
H258 C217 0.930 . S
H259 C218 0.930 . S
H260 C222 0.929 . S
H261 C224 0.930 . S
H262 C230 0.929 . S
H263 C231 0.930 . S
Li264 N281 1.990 . S
Li264 O324 1.956 . S
Li264 O325 1.970 1_455 S
Li264 O326 1.961 . S
Li265 N289 1.990 . S
Li265 O324 1.970 1_655 S
Li265 O325 1.956 . S
Li265 O327 1.961 . S
Li266 N311 1.990 . S
Li266 O324 1.961 . S
Li266 O326 1.956 . S
Li266 O327 1.970 1_455 S
Li267 N317 1.990 . S
Li267 O325 1.961 . S
Li267 O326 1.970 1_655 S
Li267 O327 1.956 . S
C268 C270 1.348 . S
C268 C271 1.356 . S
C268 O324 1.325 . S
N269 C272 1.314 . S
N269 C273 1.279 . S
C270 C268 1.348 . S
C270 C272 1.353 . S
C270 H328 0.929 . S
C271 C268 1.356 . S
C271 C273 1.358 . S
C271 H329 0.930 . S
C272 N269 1.314 . S
C272 C270 1.353 . S
C272 H330 0.930 . S
C273 N269 1.279 . S
C273 C271 1.358 . S
C273 H331 0.930 . S
C274 C277 1.348 1_655 S
C274 C278 1.356 . S
C274 O325 1.325 . S
C275 N276 1.279 . S
C275 C278 1.358 . S
C275 H332 0.930 . S
N276 C275 1.279 . S
N276 C279 1.314 . S
C277 C274 1.348 1_455 S
C277 C279 1.353 1_455 S
C277 H333 0.929 . S
C278 C274 1.356 . S
C278 C275 1.358 . S
C278 H334 0.930 . S
C279 N276 1.314 . S
C279 C277 1.353 1_655 S
C279 H335 0.930 1_655 S
C280 N281 1.314 . S
C280 C285 1.353 . S
C280 H286 0.930 . S
N281 Li264 1.990 . S
N281 C280 1.314 . S
N281 C283 1.279 . S
C282 C283 1.358 . S
C282 C284 1.356 . S
C282 H336 0.930 . S
C283 N281 1.279 . S
C283 C282 1.358 . S
C283 H287 0.930 . S
C284 C282 1.356 . S
C284 C285 1.348 . S
C285 C280 1.353 . S
C285 C284 1.348 . S
C285 H337 0.929 . S
H286 C280 0.930 . S
H287 C283 0.930 . S
C288 N289 1.314 . S
C288 C290 1.353 . S
C288 H294 0.930 . S
N289 Li265 1.990 . S
N289 C288 1.314 . S
N289 C292 1.279 . S
C290 C288 1.353 . S
C290 C293 1.348 . S
C290 H338 0.929 . S
C291 C292 1.358 . S
C291 C293 1.356 . S
C291 H339 0.930 . S
C292 N289 1.279 . S
C292 C291 1.358 . S
C292 H295 0.930 . S
C293 C290 1.348 . S
C293 C291 1.356 . S
H294 C288 0.930 . S
H295 C292 0.930 . S
C296 C298 1.298 1_455 S
C296 C299 1.356 . S
C296 O326 1.325 . S
N297 C300 1.314 . S
N297 C301 1.279 1_556 S
C298 C296 1.298 1_655 S
C298 C300 1.352 1_654 S
C298 H340 0.983 . S
C299 C296 1.356 . S
C299 C301 1.358 . S
C299 H341 0.930 . S
C300 N297 1.314 . S
C300 C298 1.352 1_456 S
C300 H342 0.930 1_455 S
C301 N297 1.279 1_554 S
C301 C299 1.358 . S
C301 H343 0.930 . S
C302 C303 1.348 . S
C302 C304 1.356 . S
C302 O327 1.325 . S
C303 C302 1.348 . S
C303 C305 1.353 . S
C303 H344 0.929 . S
C304 C302 1.356 . S
C304 C306 1.358 . S
C304 H345 0.930 . S
C305 C303 1.353 . S
C305 N307 1.314 . S
C305 H346 0.930 . S
C306 C304 1.358 . S
C306 N307 1.279 . S
C306 H347 0.930 . S
N307 C305 1.314 . S
N307 C306 1.279 . S
C308 C310 1.353 . S
C308 N311 1.314 . S
C308 H314 0.930 . S
C309 N311 1.279 1_556 S
C309 C312 1.358 . S
C309 H315 0.930 . S
C310 C308 1.353 . S
C310 C313 1.348 1_554 S
C310 H348 0.929 . S
N311 Li266 1.990 . S
N311 C308 1.314 . S
N311 C309 1.279 1_554 S
C312 C309 1.358 . S
C312 C313 1.356 . S
C312 H349 0.930 . S
C313 C310 1.348 1_556 S
C313 C312 1.356 . S
H314 C308 0.930 . S
H315 C309 0.930 . S
C316 N317 1.314 . S
C316 C318 1.353 . S
C316 H322 0.930 . S
N317 Li267 1.990 . S
N317 C316 1.314 . S
N317 C320 1.279 . S
C318 C316 1.353 . S
C318 C321 1.348 . S
C318 H350 0.929 . S
C319 C320 1.358 . S
C319 C321 1.356 . S
C319 H351 0.930 . S
C320 N317 1.279 . S
C320 C319 1.358 . S
C320 H323 0.930 . S
C321 C318 1.348 . S
C321 C319 1.356 . S
H322 C316 0.930 . S
H323 C320 0.930 . S
O324 Li264 1.956 . S
O324 Li265 1.970 1_455 S
O324 Li266 1.961 . S
O324 C268 1.325 . S
O325 Li264 1.970 1_655 S
O325 Li265 1.956 . S
O325 Li267 1.961 . S
O325 C274 1.325 . S
O326 Li264 1.961 . S
O326 Li266 1.956 . S
O326 Li267 1.970 1_455 S
O326 C296 1.325 . S
O327 Li265 1.961 . S
O327 Li266 1.970 1_655 S
O327 Li267 1.956 . S
O327 C302 1.325 . S
H328 C270 0.929 . S
H329 C271 0.930 . S
H330 C272 0.930 . S
H331 C273 0.930 . S
H332 C275 0.930 . S
H333 C277 0.929 . S
H334 C278 0.930 . S
H335 C279 0.930 1_455 S
H336 C282 0.930 . S
H337 C285 0.929 . S
H338 C290 0.929 . S
H339 C291 0.930 . S
H340 C298 0.983 . S
H341 C299 0.930 . S
H342 C300 0.930 1_655 S
H343 C301 0.930 . S
H344 C303 0.929 . S
H345 C304 0.930 . S
H346 C305 0.930 . S
H347 C306 0.930 . S
H348 C310 0.929 . S
H349 C312 0.930 . S
H350 C318 0.929 . S
H351 C319 0.930 . S
Li352 N369 1.990 . S
Li352 O412 1.956 . S
Li352 O413 1.970 . S
Li352 O414 1.961 1_554 S
Li353 N377 1.990 . S
Li353 O412 1.970 . S
Li353 O413 1.956 . S
Li353 O415 1.962 . S
Li354 N399 1.990 . S
Li354 O412 1.961 1_556 S
Li354 O414 1.956 . S
Li354 O415 1.970 1_556 S
Li355 N405 2.008 . S
Li355 O413 1.911 1_556 S
Li355 O414 1.989 . S
Li355 O415 1.959 1_556 S
C356 C358 1.348 . S
C356 C359 1.356 . S
C356 O412 1.325 . S
N357 C360 1.314 . S
N357 C361 1.279 . S
C358 C356 1.348 . S
C358 C360 1.353 . S
C358 H416 0.929 . S
C359 C356 1.356 . S
C359 C361 1.358 . S
C359 H417 0.930 . S
C360 N357 1.314 . S
C360 C358 1.353 . S
C360 H418 0.930 . S
C361 N357 1.279 . S
C361 C359 1.358 . S
C361 H419 0.930 . S
C362 C365 1.348 . S
C362 C366 1.356 . S
C362 O413 1.325 . S
C363 N364 1.279 . S
C363 C366 1.358 . S
C363 H420 0.930 . S
N364 C363 1.279 . S
N364 C367 1.314 . S
C365 C362 1.348 . S
C365 C367 1.353 . S
C365 H421 0.929 . S
C366 C362 1.356 . S
C366 C363 1.358 . S
C366 H422 0.930 . S
C367 N364 1.314 . S
C367 C365 1.353 . S
C367 H423 0.930 . S
C368 N369 1.314 . S
C368 C373 1.353 . S
C368 H374 0.930 . S
N369 Li352 1.990 . S
N369 C368 1.314 . S
N369 C371 1.279 . S
C370 C371 1.358 . S
C370 C372 1.356 . S
C370 H424 0.930 . S
C371 N369 1.279 . S
C371 C370 1.358 . S
C371 H375 0.930 . S
C372 C370 1.356 . S
C372 C373 1.348 . S
C373 C368 1.353 . S
C373 C372 1.348 . S
C373 H425 0.929 . S
H374 C368 0.930 . S
H375 C371 0.930 . S
C376 N377 1.314 . S
C376 C378 1.353 . S
C376 H382 0.930 . S
N377 Li353 1.990 . S
N377 C376 1.314 . S
N377 C380 1.279 . S
C378 C376 1.353 . S
C378 C381 1.348 . S
C378 H426 0.929 . S
C379 C380 1.358 . S
C379 C381 1.356 . S
C379 H427 0.930 . S
C380 N377 1.279 . S
C380 C379 1.358 . S
C380 H383 0.930 . S
C381 C378 1.348 . S
C381 C379 1.356 . S
H382 C376 0.930 . S
H383 C380 0.930 . S
C384 C386 1.348 . S
C384 C387 1.356 . S
C384 O414 1.325 . S
N385 C388 1.314 . S
N385 C389 1.279 . S
C386 C384 1.348 . S
C386 C388 1.353 . S
C386 H428 0.929 . S
C387 C384 1.356 . S
C387 C389 1.358 . S
C387 H429 0.930 . S
C388 N385 1.314 . S
C388 C386 1.353 . S
C388 H430 0.930 . S
C389 N385 1.279 . S
C389 C387 1.358 . S
C389 H431 0.930 . S
C390 C391 1.348 . S
C390 C392 1.356 1_556 S
C390 O415 1.324 1_556 S
C391 C390 1.348 . S
C391 C393 1.353 . S
C391 H432 0.929 . S
C392 C390 1.356 1_554 S
C392 C394 1.358 1_554 S
C392 H433 0.930 . S
C393 C391 1.353 . S
C393 N395 1.314 . S
C393 H434 0.930 . S
C394 C392 1.358 1_556 S
C394 N395 1.279 . S
C394 H435 0.930 1_556 S
N395 C393 1.314 . S
N395 C394 1.279 . S
C396 C398 1.353 . S
C396 N399 1.314 . S
C396 H402 0.930 . S
C397 N399 1.279 . S
C397 C400 1.358 . S
C397 H403 0.930 . S
C398 C396 1.353 . S
C398 C401 1.348 . S
C398 H436 0.929 . S
N399 Li354 1.990 . S
N399 C396 1.314 . S
N399 C397 1.279 . S
C400 C397 1.358 . S
C400 C401 1.356 . S
C400 H437 0.930 . S
C401 C398 1.348 . S
C401 C400 1.356 . S
H402 C396 0.930 . S
H403 C397 0.930 . S
C404 N405 1.314 . S
C404 C406 1.353 . S
C404 H410 0.963 . S
N405 Li355 2.008 . S
N405 C404 1.314 . S
N405 C408 1.279 . S
C406 C404 1.353 . S
C406 C409 1.348 . S
C406 H438 0.929 . S
C407 C408 1.358 . S
C407 C409 1.356 . S
C407 H439 0.930 . S
C408 N405 1.279 . S
C408 C407 1.358 . S
C408 H411 0.930 . S
C409 C406 1.348 . S
C409 C407 1.356 . S
H410 C404 0.963 . S
H411 C408 0.930 . S
O412 Li352 1.956 . S
O412 Li353 1.970 . S
O412 Li354 1.961 1_554 S
O412 C356 1.325 . S
O413 Li352 1.970 . S
O413 Li353 1.956 . S
O413 Li355 1.911 1_554 S
O413 C362 1.325 . S
O414 Li352 1.961 1_556 S
O414 Li354 1.956 . S
O414 Li355 1.989 . S
O414 C384 1.325 . S
O415 Li353 1.962 . S
O415 Li354 1.970 1_554 S
O415 Li355 1.959 1_554 S
O415 C390 1.324 1_554 S
H416 C358 0.929 . S
H417 C359 0.930 . S
H418 C360 0.930 . S
H419 C361 0.930 . S
H420 C363 0.930 . S
H421 C365 0.929 . S
H422 C366 0.930 . S
H423 C367 0.930 . S
H424 C370 0.930 . S
H425 C373 0.929 . S
H426 C378 0.929 . S
H427 C379 0.930 . S
H428 C386 0.929 . S
H429 C387 0.930 . S
H430 C388 0.930 . S
H431 C389 0.930 . S
H432 C391 0.929 . S
H433 C392 0.930 . S
H434 C393 0.930 . S
H435 C394 0.930 1_554 S
H436 C398 0.929 . S
H437 C400 0.930 . S
H438 C406 0.929 . S
H439 C407 0.930 . S
Li440 N457 1.990 . S
Li440 O500 1.956 . S
Li440 O501 1.970 1_565 S
Li440 O502 1.961 . S
Li441 N465 1.990 . S
Li441 O500 1.970 1_545 S
Li441 O501 1.956 . S
Li441 O503 1.961 . S
Li442 N487 1.990 . S
Li442 O500 1.961 . S
Li442 O502 1.956 . S
Li442 O503 1.970 1_565 S
Li443 N493 1.990 . S
Li443 O501 1.961 . S
Li443 O502 1.970 1_545 S
Li443 O503 1.956 . S
C444 C446 1.348 . S
C444 C447 1.356 . S
C444 O500 1.325 . S
N445 C448 1.314 . S
N445 C449 1.279 . S
C446 C444 1.348 . S
C446 C448 1.353 . S
C446 H504 0.929 . S
C447 C444 1.356 . S
C447 C449 1.358 . S
C447 H505 0.930 . S
C448 N445 1.314 . S
C448 C446 1.353 . S
C448 H506 0.930 . S
C449 N445 1.279 . S
C449 C447 1.358 . S
C449 H507 0.930 . S
C450 C453 1.348 . S
C450 C454 1.356 . S
C450 O501 1.325 . S
C451 N452 1.279 . S
C451 C454 1.358 . S
C451 H508 0.930 . S
N452 C451 1.279 . S
N452 C455 1.314 . S
C453 C450 1.348 . S
C453 C455 1.353 . S
C453 H509 0.929 1_545 S
C454 C450 1.356 . S
C454 C451 1.358 . S
C454 H510 0.930 . S
C455 N452 1.314 . S
C455 C453 1.353 . S
C455 H511 0.930 . S
C456 N457 1.314 . S
C456 C461 1.353 . S
C456 H462 0.930 . S
N457 Li440 1.990 . S
N457 C456 1.314 . S
N457 C459 1.279 . S
C458 C459 1.358 . S
C458 C460 1.356 . S
C458 H512 0.930 . S
C459 N457 1.279 . S
C459 C458 1.358 . S
C459 H463 0.930 . S
C460 C458 1.356 . S
C460 C461 1.348 . S
C461 C456 1.353 . S
C461 C460 1.348 . S
C461 H513 0.929 . S
H462 C456 0.930 . S
H463 C459 0.930 . S
C464 N465 1.314 . S
C464 C466 1.353 . S
C464 H470 0.930 . S
N465 Li441 1.990 . S
N465 C464 1.314 . S
N465 C468 1.279 . S
C466 C464 1.353 . S
C466 C469 1.348 . S
C466 H514 0.929 . S
C467 C468 1.358 . S
C467 C469 1.356 . S
C467 H515 0.930 . S
C468 N465 1.279 . S
C468 C467 1.358 . S
C468 H471 0.930 . S
C469 C466 1.348 . S
C469 C467 1.356 . S
H470 C464 0.930 . S
H471 C468 0.930 . S
C472 C474 1.348 1_565 S
C472 C475 1.356 . S
C472 O502 1.325 . S
N473 C476 1.314 . S
N473 C477 1.279 1_556 S
C474 C472 1.348 1_545 S
C474 C476 1.353 1_544 S
C474 H516 0.929 . S
C475 C472 1.356 . S
C475 C477 1.358 . S
C475 H517 0.930 . S
C476 N473 1.314 . S
C476 C474 1.353 1_566 S
C476 H518 0.930 1_565 S
C477 N473 1.279 1_554 S
C477 C475 1.358 . S
C477 H519 0.945 . S
C478 C479 1.348 . S
C478 C480 1.356 . S
C478 O503 1.325 . S
C479 C478 1.348 . S
C479 C481 1.353 . S
C479 H520 0.929 . S
C480 C478 1.356 . S
C480 C482 1.358 . S
C480 H521 0.930 . S
C481 C479 1.353 . S
C481 N483 1.314 . S
C481 H522 0.930 . S
C482 C480 1.358 . S
C482 N483 1.279 . S
C482 H523 0.930 . S
N483 C481 1.314 . S
N483 C482 1.279 . S
C484 C486 1.353 . S
C484 N487 1.314 . S
C484 H490 0.930 . S
C485 N487 1.218 1_556 S
C485 C488 1.409 . S
C485 H491 0.945 . S
C486 C484 1.353 . S
C486 C489 1.348 1_554 S
C486 H524 0.929 . S
N487 Li442 1.990 . S
N487 C484 1.314 . S
N487 C485 1.218 1_554 S
C488 C485 1.409 . S
C488 C489 1.356 . S
C488 H525 0.930 . S
C489 C486 1.348 1_556 S
C489 C488 1.356 . S
H490 C484 0.930 . S
H491 C485 0.945 . S
C492 N493 1.314 . S
C492 C494 1.353 . S
C492 H498 0.930 . S
N493 Li443 1.990 . S
N493 C492 1.314 . S
N493 C496 1.279 . S
C494 C492 1.353 . S
C494 C497 1.348 . S
C494 H526 0.929 . S
C495 C496 1.358 . S
C495 C497 1.356 . S
C495 H527 0.930 . S
C496 N493 1.279 . S
C496 C495 1.358 . S
C496 H499 0.930 . S
C497 C494 1.348 . S
C497 C495 1.356 . S
H498 C492 0.930 . S
H499 C496 0.930 . S
O500 Li440 1.956 . S
O500 Li441 1.970 1_565 S
O500 Li442 1.961 . S
O500 C444 1.325 . S
O501 Li440 1.970 1_545 S
O501 Li441 1.956 . S
O501 Li443 1.961 . S
O501 C450 1.325 . S
O502 Li440 1.961 . S
O502 Li442 1.956 . S
O502 Li443 1.970 1_565 S
O502 C472 1.325 . S
O503 Li441 1.961 . S
O503 Li442 1.970 1_545 S
O503 Li443 1.956 . S
O503 C478 1.325 . S
H504 C446 0.929 . S
H505 C447 0.930 . S
H506 C448 0.930 . S
H507 C449 0.930 . S
H508 C451 0.930 . S
H509 C453 0.929 1_565 S
H510 C454 0.930 . S
H511 C455 0.930 . S
H512 C458 0.930 . S
H513 C461 0.929 . S
H514 C466 0.929 . S
H515 C467 0.930 . S
H516 C474 0.929 . S
H517 C475 0.930 . S
H518 C476 0.930 1_545 S
H519 C477 0.945 . S
H520 C479 0.929 . S
H521 C480 0.930 . S
H522 C481 0.930 . S
H523 C482 0.930 . S
H524 C486 0.929 . S
H525 C488 0.930 . S
H526 C494 0.929 . S
H527 C495 0.930 . S
Li528 N545 1.990 . S
Li528 O588 1.956 . S
Li528 O589 1.970 . S
Li528 O590 1.961 . S
Li529 N553 1.990 . S
Li529 O588 1.970 . S
Li529 O589 1.956 . S
Li529 O591 1.961 . S
Li530 N575 1.990 . S
Li530 O588 1.961 . S
Li530 O590 1.956 . S
Li530 O591 1.970 . S
Li531 N581 1.990 . S
Li531 O589 1.961 . S
Li531 O590 1.970 . S
Li531 O591 1.956 . S
C532 C534 1.348 . S
C532 C535 1.356 . S
C532 O588 1.325 . S
N533 C536 1.314 . S
N533 C537 1.279 . S
C534 C532 1.348 . S
C534 C536 1.353 . S
C534 H592 0.929 . S
C535 C532 1.356 . S
C535 C537 1.358 . S
C535 H593 0.930 . S
C536 N533 1.314 . S
C536 C534 1.353 . S
C536 H594 0.930 . S
C537 N533 1.279 . S
C537 C535 1.358 . S
C537 H595 0.930 . S
C538 C541 1.348 . S
C538 C542 1.356 . S
C538 O589 1.325 . S
C539 N540 1.279 . S
C539 C542 1.358 . S
C539 H596 0.930 . S
N540 C539 1.279 . S
N540 C543 1.314 . S
C541 C538 1.348 . S
C541 C543 1.353 . S
C541 H597 0.929 . S
C542 C538 1.356 . S
C542 C539 1.358 . S
C542 H598 0.930 . S
C543 N540 1.314 . S
C543 C541 1.353 . S
C543 H599 0.930 . S
C544 N545 1.314 . S
C544 C549 1.353 . S
C544 H550 0.930 . S
N545 Li528 1.990 . S
N545 C544 1.314 . S
N545 C547 1.279 . S
C546 C547 1.358 . S
C546 C548 1.356 . S
C546 H600 0.930 . S
C547 N545 1.279 . S
C547 C546 1.358 . S
C547 H551 0.930 . S
C548 C546 1.356 . S
C548 C549 1.348 . S
C549 C544 1.353 . S
C549 C548 1.348 . S
C549 H601 0.929 . S
H550 C544 0.930 . S
H551 C547 0.930 . S
C552 N553 1.314 . S
C552 C554 1.353 . S
C552 H558 0.930 . S
N553 Li529 1.990 . S
N553 C552 1.314 . S
N553 C556 1.279 . S
C554 C552 1.353 . S
C554 C557 1.348 . S
C554 H602 0.929 . S
C555 C556 1.358 . S
C555 C557 1.356 . S
C555 H603 0.930 . S
C556 N553 1.279 . S
C556 C555 1.358 . S
C556 H559 0.930 . S
C557 C554 1.348 . S
C557 C555 1.356 . S
H558 C552 0.930 . S
H559 C556 0.930 . S
C560 C562 1.348 . S
C560 C563 1.356 . S
C560 O590 1.325 . S
N561 C564 1.314 . S
N561 C565 1.279 . S
C562 C560 1.348 . S
C562 C564 1.353 . S
C562 H604 0.929 . S
C563 C560 1.356 . S
C563 C565 1.358 . S
C563 H605 0.930 . S
C564 N561 1.314 . S
C564 C562 1.353 . S
C564 H606 0.930 . S
C565 N561 1.279 . S
C565 C563 1.358 . S
C565 H607 0.930 . S
C566 C567 1.348 . S
C566 C568 1.356 . S
C566 O591 1.325 . S
C567 C566 1.348 . S
C567 C569 1.353 . S
C567 H608 0.929 . S
C568 C566 1.356 . S
C568 C570 1.358 . S
C568 H609 0.930 . S
C569 C567 1.353 . S
C569 N571 1.314 . S
C569 H610 0.930 . S
C570 C568 1.358 . S
C570 N571 1.279 . S
C570 H611 0.930 . S
N571 C569 1.314 . S
N571 C570 1.279 . S
C572 C574 1.353 . S
C572 N575 1.314 . S
C572 H578 0.930 . S
C573 N575 1.279 . S
C573 C576 1.358 . S
C573 H579 0.930 . S
C574 C572 1.353 . S
C574 C577 1.348 . S
C574 H612 0.929 . S
N575 Li530 1.990 . S
N575 C572 1.314 . S
N575 C573 1.279 . S
C576 C573 1.358 . S
C576 C577 1.356 . S
C576 H613 0.930 . S
C577 C574 1.348 . S
C577 C576 1.356 . S
H578 C572 0.930 . S
H579 C573 0.930 . S
C580 N581 1.314 . S
C580 C582 1.353 . S
C580 H586 0.930 . S
N581 Li531 1.990 . S
N581 C580 1.314 . S
N581 C584 1.279 . S
C582 C580 1.353 . S
C582 C585 1.348 . S
C582 H614 0.929 . S
C583 C584 1.358 . S
C583 C585 1.356 . S
C583 H615 0.930 . S
C584 N581 1.279 . S
C584 C583 1.358 . S
C584 H587 0.930 . S
C585 C582 1.348 . S
C585 C583 1.356 . S
H586 C580 0.930 . S
H587 C584 0.930 . S
O588 Li528 1.956 . S
O588 Li529 1.970 . S
O588 Li530 1.961 . S
O588 C532 1.325 . S
O589 Li528 1.970 . S
O589 Li529 1.956 . S
O589 Li531 1.961 . S
O589 C538 1.325 . S
O590 Li528 1.961 . S
O590 Li530 1.956 . S
O590 Li531 1.970 . S
O590 C560 1.325 . S
O591 Li529 1.961 . S
O591 Li530 1.970 . S
O591 Li531 1.956 . S
O591 C566 1.325 . S
H592 C534 0.929 . S
H593 C535 0.930 . S
H594 C536 0.930 . S
H595 C537 0.930 . S
H596 C539 0.930 . S
H597 C541 0.929 . S
H598 C542 0.930 . S
H599 C543 0.930 . S
H600 C546 0.930 . S
H601 C549 0.929 . S
H602 C554 0.929 . S
H603 C555 0.930 . S
H604 C562 0.929 . S
H605 C563 0.930 . S
H606 C564 0.930 . S
H607 C565 0.930 . S
H608 C567 0.929 . S
H609 C568 0.930 . S
H610 C569 0.930 . S
H611 C570 0.930 . S
H612 C574 0.929 . S
H613 C576 0.930 . S
H614 C582 0.929 . S
H615 C583 0.930 . S
Li616 N633 1.990 . S
Li616 O676 1.956 . S
Li616 O677 1.970 . S
Li616 O678 1.961 . S
Li617 N641 1.990 . S
Li617 O676 1.970 . S
Li617 O677 1.956 . S
Li617 O679 1.961 . S
Li618 N663 1.990 . S
Li618 O676 1.961 . S
Li618 O678 1.956 . S
Li618 O679 1.970 . S
Li619 N669 1.990 . S
Li619 O677 1.961 . S
Li619 O678 1.970 . S
Li619 O679 1.956 . S
C620 C622 1.348 . S
C620 C623 1.356 . S
C620 O676 1.325 . S
N621 C624 1.314 . S
N621 C625 1.279 . S
C622 C620 1.348 . S
C622 C624 1.353 . S
C622 H680 0.929 . S
C623 C620 1.356 . S
C623 C625 1.358 . S
C623 H681 0.930 . S
C624 N621 1.314 . S
C624 C622 1.353 . S
C624 H682 0.930 . S
C625 N621 1.279 . S
C625 C623 1.358 . S
C625 H683 0.930 . S
C626 C629 1.348 . S
C626 C630 1.356 . S
C626 O677 1.325 . S
C627 N628 1.279 . S
C627 C630 1.358 . S
C627 H684 0.930 . S
N628 C627 1.279 . S
N628 C631 1.314 . S
C629 C626 1.348 . S
C629 C631 1.353 . S
C629 H685 0.929 . S
C630 C626 1.356 . S
C630 C627 1.358 . S
C630 H686 0.930 . S
C631 N628 1.314 . S
C631 C629 1.353 . S
C631 H687 0.930 . S
C632 N633 1.314 . S
C632 C637 1.353 . S
C632 H638 0.930 . S
N633 Li616 1.990 . S
N633 C632 1.314 . S
N633 C635 1.279 . S
C634 C635 1.358 . S
C634 C636 1.356 . S
C634 H688 0.930 . S
C635 N633 1.279 . S
C635 C634 1.358 . S
C635 H639 0.930 . S
C636 C634 1.356 . S
C636 C637 1.348 . S
C637 C632 1.353 . S
C637 C636 1.348 . S
C637 H689 0.929 . S
H638 C632 0.930 . S
H639 C635 0.930 . S
C640 N641 1.314 . S
C640 C642 1.353 . S
C640 H646 0.930 . S
N641 Li617 1.990 . S
N641 C640 1.314 . S
N641 C644 1.279 . S
C642 C640 1.353 . S
C642 C645 1.348 . S
C642 H690 0.929 . S
C643 C644 1.358 . S
C643 C645 1.356 . S
C643 H691 0.930 . S
C644 N641 1.279 . S
C644 C643 1.358 . S
C644 H647 0.930 . S
C645 C642 1.348 . S
C645 C643 1.356 . S
H646 C640 0.930 . S
H647 C644 0.930 . S
C648 C650 1.348 . S
C648 C651 1.356 . S
C648 O678 1.325 . S
N649 C652 1.314 1_545 S
N649 C653 1.279 1_545 S
C650 C648 1.348 . S
C650 C652 1.353 . S
C650 H692 0.929 . S
C651 C648 1.356 . S
C651 C653 1.358 . S
C651 H693 0.930 . S
C652 N649 1.314 1_565 S
C652 C650 1.353 . S
C652 H694 0.930 1_565 S
C653 N649 1.279 1_565 S
C653 C651 1.358 . S
C653 H695 0.977 . S
C654 C655 1.348 . S
C654 C656 1.356 . S
C654 O679 1.325 . S
C655 C654 1.348 . S
C655 C657 1.353 . S
C655 H696 0.929 . S
C656 C654 1.356 . S
C656 C658 1.358 . S
C656 H697 0.930 . S
C657 C655 1.353 . S
C657 N659 1.314 . S
C657 H698 0.930 . S
C658 C656 1.358 . S
C658 N659 1.279 . S
C658 H699 0.930 . S
N659 C657 1.314 . S
N659 C658 1.279 . S
C660 C662 1.353 1_565 S
C660 N663 1.314 . S
C660 H666 0.930 . S
C661 N663 1.279 1_545 S
C661 C664 1.358 . S
C661 H667 0.930 . S
C662 C660 1.353 1_545 S
C662 C665 1.348 . S
C662 H700 0.929 . S
N663 Li618 1.990 . S
N663 C660 1.314 . S
N663 C661 1.279 1_565 S
C664 C661 1.358 . S
C664 C665 1.356 . S
C664 H701 0.930 . S
C665 C662 1.348 . S
C665 C664 1.356 . S
H666 C660 0.930 . S
H667 C661 0.930 . S
C668 N669 1.314 . S
C668 C670 1.353 . S
C668 H674 0.930 . S
N669 Li619 1.990 . S
N669 C668 1.314 . S
N669 C672 1.279 . S
C670 C668 1.353 . S
C670 C673 1.348 . S
C670 H702 0.929 . S
C671 C672 1.358 . S
C671 C673 1.356 . S
C671 H703 0.930 . S
C672 N669 1.279 . S
C672 C671 1.358 . S
C672 H675 0.930 . S
C673 C670 1.348 . S
C673 C671 1.356 . S
H674 C668 0.930 . S
H675 C672 0.930 . S
O676 Li616 1.956 . S
O676 Li617 1.970 . S
O676 Li618 1.961 . S
O676 C620 1.325 . S
O677 Li616 1.970 . S
O677 Li617 1.956 . S
O677 Li619 1.961 . S
O677 C626 1.325 . S
O678 Li616 1.961 . S
O678 Li618 1.956 . S
O678 Li619 1.970 . S
O678 C648 1.325 . S
O679 Li617 1.961 . S
O679 Li618 1.970 . S
O679 Li619 1.956 . S
O679 C654 1.325 . S
H680 C622 0.929 . S
H681 C623 0.930 . S
H682 C624 0.930 . S
H683 C625 0.930 . S
H684 C627 0.930 . S
H685 C629 0.929 . S
H686 C630 0.930 . S
H687 C631 0.930 . S
H688 C634 0.930 . S
H689 C637 0.929 . S
H690 C642 0.929 . S
H691 C643 0.930 . S
H692 C650 0.929 . S
H693 C651 0.930 . S
H694 C652 0.930 1_545 S
H695 C653 0.977 . S
H696 C655 0.929 . S
H697 C656 0.930 . S
H698 C657 0.930 . S
H699 C658 0.930 . S
H700 C662 0.929 . S
H701 C664 0.930 . S
H702 C670 0.929 . S
H703 C671 0.930 . S
Li704 N721 1.990 . S
Li704 O764 1.956 . S
Li704 O765 1.970 . S
Li704 O766 1.961 . S
Li705 N729 1.990 . S
Li705 O764 1.970 . S
Li705 O765 1.956 . S
Li705 O767 1.961 . S
Li706 N751 1.990 . S
Li706 O764 1.961 . S
Li706 O766 1.956 . S
Li706 O767 1.970 . S
Li707 N757 1.990 . S
Li707 O765 1.961 . S
Li707 O766 1.970 . S
Li707 O767 1.956 . S
C708 C710 1.348 . S
C708 C711 1.356 . S
C708 O764 1.325 . S
N709 C712 1.314 . S
N709 C713 1.279 . S
C710 C708 1.348 . S
C710 C712 1.353 . S
C710 H768 0.929 . S
C711 C708 1.356 . S
C711 C713 1.358 . S
C711 H769 0.930 . S
C712 N709 1.314 . S
C712 C710 1.353 . S
C712 H770 0.930 . S
C713 N709 1.279 . S
C713 C711 1.358 . S
C713 H771 0.930 . S
C714 C717 1.348 . S
C714 C718 1.356 . S
C714 O765 1.325 . S
C715 N716 1.279 . S
C715 C718 1.358 . S
C715 H772 0.930 . S
N716 C715 1.279 . S
N716 C719 1.314 . S
C717 C714 1.348 . S
C717 C719 1.353 . S
C717 H773 0.929 . S
C718 C714 1.356 . S
C718 C715 1.358 . S
C718 H774 0.930 . S
C719 N716 1.314 . S
C719 C717 1.353 . S
C719 H775 0.930 . S
C720 N721 1.314 . S
C720 C725 1.353 . S
C720 H726 0.930 . S
N721 Li704 1.990 . S
N721 C720 1.314 . S
N721 C723 1.279 . S
C722 C723 1.358 . S
C722 C724 1.356 . S
C722 H776 0.930 . S
C723 N721 1.279 . S
C723 C722 1.358 . S
C723 H727 0.930 . S
C724 C722 1.356 . S
C724 C725 1.348 . S
C725 C720 1.353 . S
C725 C724 1.348 . S
C725 H777 0.929 . S
H726 C720 0.930 . S
H727 C723 0.930 . S
C728 N729 1.314 . S
C728 C730 1.353 . S
C728 H734 0.930 . S
N729 Li705 1.990 . S
N729 C728 1.314 . S
N729 C732 1.279 . S
C730 C728 1.353 . S
C730 C733 1.348 . S
C730 H778 0.929 . S
C731 C732 1.358 . S
C731 C733 1.356 . S
C731 H779 0.930 . S
C732 N729 1.279 . S
C732 C731 1.358 . S
C732 H735 0.930 . S
C733 C730 1.348 . S
C733 C731 1.356 . S
H734 C728 0.930 . S
H735 C732 0.930 . S
C736 C738 1.348 . S
C736 C739 1.356 . S
C736 O766 1.325 . S
N737 C740 1.314 . S
N737 C741 1.279 . S
C738 C736 1.348 . S
C738 C740 1.353 . S
C738 H780 0.929 . S
C739 C736 1.356 . S
C739 C741 1.358 . S
C739 H781 0.930 . S
C740 N737 1.314 . S
C740 C738 1.353 . S
C740 H782 0.930 . S
C741 N737 1.279 . S
C741 C739 1.358 . S
C741 H783 0.930 . S
C742 C743 1.348 . S
C742 C744 1.356 . S
C742 O767 1.325 . S
C743 C742 1.348 . S
C743 C745 1.353 . S
C743 H784 0.929 . S
C744 C742 1.356 . S
C744 C746 1.358 . S
C744 H785 0.930 . S
C745 C743 1.353 . S
C745 N747 1.314 . S
C745 H786 0.930 . S
C746 C744 1.358 . S
C746 N747 1.279 . S
C746 H787 0.930 . S
N747 C745 1.314 . S
N747 C746 1.279 . S
C748 C750 1.353 . S
C748 N751 1.314 . S
C748 H754 0.930 . S
C749 N751 1.279 . S
C749 C752 1.358 1_455 S
C749 H755 0.930 . S
C750 C748 1.353 . S
C750 C753 1.348 1_455 S
C750 H788 0.929 . S
N751 Li706 1.990 . S
N751 C748 1.314 . S
N751 C749 1.279 . S
C752 C749 1.358 1_655 S
C752 C753 1.356 . S
C752 H789 0.930 . S
C753 C750 1.348 1_655 S
C753 C752 1.356 . S
H754 C748 0.930 . S
H755 C749 0.930 . S
C756 N757 1.314 . S
C756 C758 1.353 . S
C756 H762 0.930 . S
N757 Li707 1.990 . S
N757 C756 1.314 . S
N757 C760 1.279 . S
C758 C756 1.353 . S
C758 C761 1.348 . S
C758 H790 0.929 . S
C759 C760 1.358 . S
C759 C761 1.356 . S
C759 H791 0.930 . S
C760 N757 1.279 . S
C760 C759 1.358 . S
C760 H763 0.930 . S
C761 C758 1.348 . S
C761 C759 1.356 . S
H762 C756 0.930 . S
H763 C760 0.930 . S
O764 Li704 1.956 . S
O764 Li705 1.970 . S
O764 Li706 1.961 . S
O764 C708 1.325 . S
O765 Li704 1.970 . S
O765 Li705 1.956 . S
O765 Li707 1.961 . S
O765 C714 1.325 . S
O766 Li704 1.961 . S
O766 Li706 1.956 . S
O766 Li707 1.970 . S
O766 C736 1.325 . S
O767 Li705 1.961 . S
O767 Li706 1.970 . S
O767 Li707 1.956 . S
O767 C742 1.325 . S
H768 C710 0.929 . S
H769 C711 0.930 . S
H770 C712 0.930 . S
H771 C713 0.930 . S
H772 C715 0.930 . S
H773 C717 0.929 . S
H774 C718 0.930 . S
H775 C719 0.930 . S
H776 C722 0.930 . S
H777 C725 0.929 . S
H778 C730 0.929 . S
H779 C731 0.930 . S
H780 C738 0.929 . S
H781 C739 0.930 . S
H782 C740 0.930 . S
H783 C741 0.930 . S
H784 C743 0.929 . S
H785 C744 0.930 . S
H786 C745 0.930 . S
H787 C746 0.930 . S
H788 C750 0.929 . S
H789 C752 0.930 . S
H790 C758 0.929 . S
H791 C759 0.930 . S
Li792 N809 1.990 . S
Li792 O852 1.956 . S
Li792 O853 1.970 . S
Li792 O854 1.961 . S
Li793 N817 1.990 . S
Li793 O852 1.970 . S
Li793 O853 1.956 . S
Li793 O855 1.961 . S
Li794 N839 1.990 . S
Li794 O852 1.961 . S
Li794 O854 1.956 . S
Li794 O855 1.970 . S
Li795 N845 1.990 . S
Li795 O853 1.961 . S
Li795 O854 1.970 . S
Li795 O855 1.956 . S
C796 C798 1.348 . S
C796 C799 1.356 . S
C796 O852 1.325 . S
N797 C800 1.314 . S
N797 C801 1.279 . S
C798 C796 1.348 . S
C798 C800 1.353 . S
C798 H856 0.929 . S
C799 C796 1.356 . S
C799 C801 1.358 . S
C799 H857 0.930 . S
C800 N797 1.314 . S
C800 C798 1.353 . S
C800 H858 0.930 . S
C801 N797 1.279 . S
C801 C799 1.358 . S
C801 H859 0.930 . S
C802 C805 1.348 . S
C802 C806 1.356 . S
C802 O853 1.325 . S
C803 N804 1.279 . S
C803 C806 1.358 . S
C803 H860 0.930 . S
N804 C803 1.279 . S
N804 C807 1.314 . S
C805 C802 1.348 . S
C805 C807 1.353 . S
C805 H861 0.929 . S
C806 C802 1.356 . S
C806 C803 1.358 . S
C806 H862 0.930 . S
C807 N804 1.314 . S
C807 C805 1.353 . S
C807 H863 0.930 . S
C808 N809 1.314 1_545 S
C808 C813 1.353 . S
C808 H814 0.930 . S
N809 Li792 1.990 . S
N809 C808 1.314 1_565 S
N809 C811 1.279 . S
C810 C811 1.358 1_545 S
C810 C812 1.356 . S
C810 H864 0.930 . S
C811 N809 1.279 . S
C811 C810 1.358 1_565 S
C811 H815 0.930 . S
C812 C810 1.356 . S
C812 C813 1.348 . S
C813 C808 1.353 . S
C813 C812 1.348 . S
C813 H865 0.929 . S
H814 C808 0.930 . S
H815 C811 0.930 . S
C816 N817 1.314 . S
C816 C818 1.353 . S
C816 H822 0.930 . S
N817 Li793 1.990 . S
N817 C816 1.314 . S
N817 C820 1.279 . S
C818 C816 1.353 . S
C818 C821 1.348 . S
C818 H866 0.929 . S
C819 C820 1.358 . S
C819 C821 1.356 . S
C819 H867 0.930 . S
C820 N817 1.279 . S
C820 C819 1.358 . S
C820 H823 0.930 . S
C821 C818 1.348 . S
C821 C819 1.356 . S
H822 C816 0.930 . S
H823 C820 0.930 . S
C824 C826 1.348 . S
C824 C827 1.356 . S
C824 O854 1.325 . S
N825 C828 1.314 1_545 S
N825 C829 1.297 . S
C826 C824 1.348 . S
C826 C828 1.353 . S
C826 H868 0.929 . S
C827 C824 1.356 . S
C827 C829 1.337 1_565 S
C827 H869 0.930 . S
C828 N825 1.314 1_565 S
C828 C826 1.353 . S
C828 H870 0.930 . S
C829 N825 1.297 . S
C829 C827 1.337 1_545 S
C829 H871 0.936 . S
C830 C831 1.348 . S
C830 C832 1.356 . S
C830 O855 1.325 . S
C831 C830 1.348 . S
C831 C833 1.353 . S
C831 H872 0.929 . S
C832 C830 1.356 . S
C832 C834 1.358 . S
C832 H873 0.930 . S
C833 C831 1.353 . S
C833 N835 1.314 . S
C833 H874 0.930 . S
C834 C832 1.358 . S
C834 N835 1.279 . S
C834 H875 0.930 . S
N835 C833 1.314 . S
N835 C834 1.279 . S
C836 C838 1.353 . S
C836 N839 1.314 . S
C836 H842 0.930 . S
C837 N839 1.279 . S
C837 C840 1.358 . S
C837 H843 0.930 . S
C838 C836 1.353 . S
C838 C841 1.348 . S
C838 H876 0.929 . S
N839 Li794 1.990 . S
N839 C836 1.314 . S
N839 C837 1.279 . S
C840 C837 1.358 . S
C840 C841 1.356 . S
C840 H877 0.930 . S
C841 C838 1.348 . S
C841 C840 1.356 . S
H842 C836 0.930 . S
H843 C837 0.930 . S
C844 N845 1.314 . S
C844 C846 1.353 . S
C844 H850 0.930 . S
N845 Li795 1.990 . S
N845 C844 1.314 . S
N845 C848 1.279 . S
C846 C844 1.353 . S
C846 C849 1.348 . S
C846 H878 0.929 . S
C847 C848 1.358 . S
C847 C849 1.356 . S
C847 H879 0.930 . S
C848 N845 1.279 . S
C848 C847 1.358 . S
C848 H851 0.930 . S
C849 C846 1.348 . S
C849 C847 1.356 . S
H850 C844 0.930 . S
H851 C848 0.930 . S
O852 Li792 1.956 . S
O852 Li793 1.970 . S
O852 Li794 1.961 . S
O852 C796 1.325 . S
O853 Li792 1.970 . S
O853 Li793 1.956 . S
O853 Li795 1.961 . S
O853 C802 1.325 . S
O854 Li792 1.961 . S
O854 Li794 1.956 . S
O854 Li795 1.970 . S
O854 C824 1.325 . S
O855 Li793 1.961 . S
O855 Li794 1.970 . S
O855 Li795 1.956 . S
O855 C830 1.325 . S
H856 C798 0.929 . S
H857 C799 0.930 . S
H858 C800 0.930 . S
H859 C801 0.930 . S
H860 C803 0.930 . S
H861 C805 0.929 . S
H862 C806 0.930 . S
H863 C807 0.930 . S
H864 C810 0.930 . S
H865 C813 0.929 . S
H866 C818 0.929 . S
H867 C819 0.930 . S
H868 C826 0.929 . S
H869 C827 0.930 . S
H870 C828 0.930 . S
H871 C829 0.936 . S
H872 C831 0.929 . S
H873 C832 0.930 . S
H874 C833 0.930 . S
H875 C834 0.930 . S
H876 C838 0.929 . S
H877 C840 0.930 . S
H878 C846 0.929 . S
H879 C847 0.930 . S
Li880 N897 1.990 . S
Li880 O940 1.956 . S
Li880 O941 1.970 . S
Li880 O942 1.961 . S
Li881 N905 1.990 . S
Li881 O940 1.970 . S
Li881 O941 1.956 . S
Li881 O943 1.961 . S
Li882 N927 1.990 . S
Li882 O940 1.961 . S
Li882 O942 1.956 . S
Li882 O943 1.970 . S
Li883 N933 1.990 . S
Li883 O941 1.961 . S
Li883 O942 1.970 . S
Li883 O943 1.956 . S
C884 C886 1.348 . S
C884 C887 1.356 . S
C884 O940 1.325 . S
N885 C888 1.314 . S
N885 C889 1.279 . S
C886 C884 1.348 . S
C886 C888 1.353 . S
C886 H944 0.929 . S
C887 C884 1.356 . S
C887 C889 1.358 . S
C887 H945 0.930 . S
C888 N885 1.314 . S
C888 C886 1.353 . S
C888 H946 0.930 . S
C889 N885 1.279 . S
C889 C887 1.358 . S
C889 H947 0.930 . S
C890 C893 1.348 . S
C890 C894 1.356 . S
C890 O941 1.325 . S
C891 N892 1.279 . S
C891 C894 1.358 . S
C891 H948 0.930 . S
N892 C891 1.279 . S
N892 C895 1.314 . S
C893 C890 1.348 . S
C893 C895 1.353 . S
C893 H949 0.929 . S
C894 C890 1.356 . S
C894 C891 1.358 . S
C894 H950 0.930 . S
C895 N892 1.314 . S
C895 C893 1.353 . S
C895 H951 0.930 . S
C896 N897 1.314 . S
C896 C901 1.353 . S
C896 H902 0.930 . S
N897 Li880 1.990 . S
N897 C896 1.314 . S
N897 C899 1.279 . S
C898 C899 1.358 . S
C898 C900 1.356 . S
C898 H952 0.930 . S
C899 N897 1.279 . S
C899 C898 1.358 . S
C899 H903 0.930 . S
C900 C898 1.356 . S
C900 C901 1.348 . S
C901 C896 1.353 . S
C901 C900 1.348 . S
C901 H953 0.929 . S
H902 C896 0.930 . S
H903 C899 0.930 . S
C904 N905 1.314 1_655 S
C904 C906 1.353 . S
C904 H910 0.930 . S
N905 Li881 1.990 . S
N905 C904 1.314 1_455 S
N905 C908 1.279 . S
C906 C904 1.353 . S
C906 C909 1.348 . S
C906 H954 0.929 . S
C907 C908 1.358 1_655 S
C907 C909 1.356 . S
C907 H955 0.930 . S
C908 N905 1.279 . S
C908 C907 1.358 1_455 S
C908 H911 0.930 . S
C909 C906 1.348 . S
C909 C907 1.356 . S
H910 C904 0.930 . S
H911 C908 0.930 . S
C912 C914 1.348 . S
C912 C915 1.356 . S
C912 O942 1.325 . S
N913 C916 1.314 . S
N913 C917 1.279 . S
C914 C912 1.348 . S
C914 C916 1.353 . S
C914 H956 0.929 . S
C915 C912 1.356 . S
C915 C917 1.358 . S
C915 H957 0.930 . S
C916 N913 1.314 . S
C916 C914 1.353 . S
C916 H958 0.930 . S
C917 N913 1.279 . S
C917 C915 1.358 . S
C917 H959 0.930 . S
C918 C919 1.348 . S
C918 C920 1.356 . S
C918 O943 1.325 . S
C919 C918 1.348 . S
C919 C921 1.353 . S
C919 H960 0.929 . S
C920 C918 1.356 . S
C920 C922 1.358 . S
C920 H961 0.930 . S
C921 C919 1.353 . S
C921 N923 1.397 . S
C921 H962 0.930 . S
C922 C920 1.358 . S
C922 N923 1.255 . S
C922 H963 0.930 1_455 S
N923 C921 1.397 . S
N923 C922 1.255 . S
C924 C926 1.353 . S
C924 N927 1.314 . S
C924 H930 0.930 . S
C925 N927 1.279 . S
C925 C928 1.358 . S
C925 H931 0.930 . S
C926 C924 1.353 . S
C926 C929 1.348 . S
C926 H964 0.929 . S
N927 Li882 1.990 . S
N927 C924 1.314 . S
N927 C925 1.279 . S
C928 C925 1.358 . S
C928 C929 1.356 . S
C928 H965 0.930 . S
C929 C926 1.348 . S
C929 C928 1.356 . S
H930 C924 0.930 . S
H931 C925 0.930 . S
C932 N933 1.314 . S
C932 C934 1.353 . S
C932 H938 0.930 . S
N933 Li883 1.990 . S
N933 C932 1.314 . S
N933 C936 1.279 . S
C934 C932 1.353 . S
C934 C937 1.348 . S
C934 H966 0.929 . S
C935 C936 1.358 . S
C935 C937 1.356 . S
C935 H967 0.930 . S
C936 N933 1.279 . S
C936 C935 1.358 . S
C936 H939 0.930 . S
C937 C934 1.348 . S
C937 C935 1.356 . S
H938 C932 0.930 . S
H939 C936 0.930 . S
O940 Li880 1.956 . S
O940 Li881 1.970 . S
O940 Li882 1.961 . S
O940 C884 1.325 . S
O941 Li880 1.970 . S
O941 Li881 1.956 . S
O941 Li883 1.961 . S
O941 C890 1.325 . S
O942 Li880 1.961 . S
O942 Li882 1.956 . S
O942 Li883 1.970 . S
O942 C912 1.325 . S
O943 Li881 1.961 . S
O943 Li882 1.970 . S
O943 Li883 1.956 . S
O943 C918 1.325 . S
H944 C886 0.929 . S
H945 C887 0.930 . S
H946 C888 0.930 . S
H947 C889 0.930 . S
H948 C891 0.930 . S
H949 C893 0.929 . S
H950 C894 0.930 . S
H951 C895 0.930 . S
H952 C898 0.930 . S
H953 C901 0.929 . S
H954 C906 0.929 . S
H955 C907 0.930 . S
H956 C914 0.929 . S
H957 C915 0.930 . S
H958 C916 0.930 . S
H959 C917 0.930 . S
H960 C919 0.929 . S
H961 C920 0.930 . S
H962 C921 0.930 . S
H963 C922 0.930 1_655 S
H964 C926 0.929 . S
H965 C928 0.930 . S
H966 C934 0.929 . S
H967 C935 0.930 . S
Li968 N985 1.990 . S
Li968 O1028 1.956 . S
Li968 O1029 1.970 . S
Li968 O1030 1.961 . S
Li969 N993 1.990 . S
Li969 O1028 1.970 . S
Li969 O1029 1.956 . S
Li969 O1031 1.961 . S
Li970 N1015 1.990 . S
Li970 O1028 1.961 . S
Li970 O1030 1.956 . S
Li970 O1031 1.970 . S
Li971 N1021 1.990 . S
Li971 O1029 1.961 . S
Li971 O1030 1.970 . S
Li971 O1031 1.956 . S
C972 C974 1.348 . S
C972 C975 1.356 . S
C972 O1028 1.325 . S
N973 C976 1.314 . S
N973 C977 1.279 . S
C974 C972 1.348 . S
C974 C976 1.353 . S
C974 H1032 0.929 . S
C975 C972 1.356 . S
C975 C977 1.358 . S
C975 H1033 0.930 . S
C976 N973 1.314 . S
C976 C974 1.353 . S
C976 H1034 0.930 . S
C977 N973 1.279 . S
C977 C975 1.358 . S
C977 H1035 0.930 . S
C978 C981 1.348 . S
C978 C982 1.356 . S
C978 O1029 1.325 . S
C979 N980 1.279 . S
C979 C982 1.358 . S
C979 H1036 0.930 . S
N980 C979 1.279 . S
N980 C983 1.314 . S
C981 C978 1.348 . S
C981 C983 1.353 . S
C981 H1037 0.929 . S
C982 C978 1.356 . S
C982 C979 1.358 . S
C982 H1038 0.930 . S
C983 N980 1.314 . S
C983 C981 1.353 . S
C983 H1039 0.930 . S
C984 N985 1.314 . S
C984 C989 1.353 . S
C984 H990 0.930 . S
N985 Li968 1.990 . S
N985 C984 1.314 . S
N985 C987 1.279 . S
C986 C987 1.358 . S
C986 C988 1.356 . S
C986 H1040 0.930 . S
C987 N985 1.279 . S
C987 C986 1.358 . S
C987 H991 0.930 . S
C988 C986 1.356 . S
C988 C989 1.348 . S
C989 C984 1.353 . S
C989 C988 1.348 . S
C989 H1041 0.929 . S
H990 C984 0.930 . S
H991 C987 0.930 . S
C992 N993 1.314 . S
C992 C994 1.353 . S
C992 H998 0.930 . S
N993 Li969 1.990 . S
N993 C992 1.314 . S
N993 C996 1.279 . S
C994 C992 1.353 . S
C994 C997 1.348 . S
C994 H1042 0.929 . S
C995 C996 1.358 . S
C995 C997 1.356 . S
C995 H1043 0.930 . S
C996 N993 1.279 . S
C996 C995 1.358 . S
C996 H999 0.930 . S
C997 C994 1.348 . S
C997 C995 1.356 . S
H998 C992 0.930 . S
H999 C996 0.930 . S
C1000 C1002 1.348 . S
C1000 C1003 1.356 . S
C1000 O1030 1.325 . S
N1001 C1004 1.314 . S
N1001 C1005 1.279 . S
C1002 C1000 1.348 . S
C1002 C1004 1.353 . S
C1002 H1044 0.929 . S
C1003 C1000 1.356 . S
C1003 C1005 1.358 . S
C1003 H1045 0.930 . S
C1004 N1001 1.314 . S
C1004 C1002 1.353 . S
C1004 H1046 0.930 . S
C1005 N1001 1.279 . S
C1005 C1003 1.358 . S
C1005 H1047 0.930 . S
C1006 C1007 1.348 . S
C1006 C1008 1.356 . S
C1006 O1031 1.325 . S
C1007 C1006 1.348 . S
C1007 C1009 1.353 . S
C1007 H1048 0.929 . S
C1008 C1006 1.356 . S
C1008 C1010 1.358 . S
C1008 H1049 0.930 . S
C1009 C1007 1.353 . S
C1009 N1011 1.314 . S
C1009 H1050 0.930 . S
C1010 C1008 1.358 . S
C1010 N1011 1.279 . S
C1010 H1051 0.930 . S
N1011 C1009 1.314 . S
N1011 C1010 1.279 . S
C1012 C1014 1.353 . S
C1012 N1015 1.314 . S
C1012 H1018 0.930 . S
C1013 N1015 1.279 . S
C1013 C1016 1.358 . S
C1013 H1019 0.930 . S
C1014 C1012 1.353 . S
C1014 C1017 1.348 . S
C1014 H1052 0.929 . S
N1015 Li970 1.990 . S
N1015 C1012 1.314 . S
N1015 C1013 1.279 . S
C1016 C1013 1.358 . S
C1016 C1017 1.356 . S
C1016 H1053 0.930 . S
C1017 C1014 1.348 . S
C1017 C1016 1.356 . S
H1018 C1012 0.930 . S
H1019 C1013 0.930 . S
C1020 N1021 1.314 . S
C1020 C1022 1.353 . S
C1020 H1026 0.930 . S
N1021 Li971 1.990 . S
N1021 C1020 1.314 . S
N1021 C1024 1.279 . S
C1022 C1020 1.353 . S
C1022 C1025 1.348 . S
C1022 H1054 0.929 . S
C1023 C1024 1.358 . S
C1023 C1025 1.356 . S
C1023 H1055 0.930 . S
C1024 N1021 1.279 . S
C1024 C1023 1.358 . S
C1024 H1027 0.930 . S
C1025 C1022 1.348 . S
C1025 C1023 1.356 . S
H1026 C1020 0.930 . S
H1027 C1024 0.930 . S
O1028 Li968 1.956 . S
O1028 Li969 1.970 . S
O1028 Li970 1.961 . S
O1028 C972 1.325 . S
O1029 Li968 1.970 . S
O1029 Li969 1.956 . S
O1029 Li971 1.961 . S
O1029 C978 1.325 . S
O1030 Li968 1.961 . S
O1030 Li970 1.956 . S
O1030 Li971 1.970 . S
O1030 C1000 1.325 . S
O1031 Li969 1.961 . S
O1031 Li970 1.970 . S
O1031 Li971 1.956 . S
O1031 C1006 1.325 . S
H1032 C974 0.929 . S
H1033 C975 0.930 . S
H1034 C976 0.930 . S
H1035 C977 0.930 . S
H1036 C979 0.930 . S
H1037 C981 0.929 . S
H1038 C982 0.930 . S
H1039 C983 0.930 . S
H1040 C986 0.930 . S
H1041 C989 0.929 . S
H1042 C994 0.929 . S
H1043 C995 0.930 . S
H1044 C1002 0.929 . S
H1045 C1003 0.930 . S
H1046 C1004 0.930 . S
H1047 C1005 0.930 . S
H1048 C1007 0.929 . S
H1049 C1008 0.930 . S
H1050 C1009 0.930 . S
H1051 C1010 0.930 . S
H1052 C1014 0.929 . S
H1053 C1016 0.930 . S
H1054 C1022 0.929 . S
H1055 C1023 0.930 . S
Li1056 N1073 1.990 . S
Li1056 O1116 1.956 . S
Li1056 O1117 1.970 . S
Li1056 O1118 1.961 . S
Li1057 N1081 1.990 . S
Li1057 O1116 1.970 . S
Li1057 O1117 1.956 . S
Li1057 O1119 1.961 . S
Li1058 N1103 1.990 . S
Li1058 O1116 1.961 . S
Li1058 O1118 1.956 . S
Li1058 O1119 1.970 . S
Li1059 N1109 1.990 . S
Li1059 O1117 1.961 . S
Li1059 O1118 1.970 . S
Li1059 O1119 1.956 . S
C1060 C1062 1.348 . S
C1060 C1063 1.356 . S
C1060 O1116 1.325 . S
N1061 C1064 1.314 1_565 S
N1061 C1065 1.279 1_565 S
C1062 C1060 1.348 . S
C1062 C1064 1.353 . S
C1062 H1120 0.929 . S
C1063 C1060 1.356 . S
C1063 C1065 1.358 . S
C1063 H1121 0.930 . S
C1064 N1061 1.314 1_545 S
C1064 C1062 1.353 . S
C1064 H1122 0.884 1_545 S
C1065 N1061 1.279 1_545 S
C1065 C1063 1.358 . S
C1065 H1123 0.930 . S
C1066 C1069 1.348 . S
C1066 C1070 1.356 . S
C1066 O1117 1.325 . S
C1067 N1068 1.279 . S
C1067 C1070 1.358 . S
C1067 H1124 0.930 . S
N1068 C1067 1.279 . S
N1068 C1071 1.314 . S
C1069 C1066 1.348 . S
C1069 C1071 1.353 . S
C1069 H1125 0.929 . S
C1070 C1066 1.356 . S
C1070 C1067 1.358 . S
C1070 H1126 0.930 . S
C1071 N1068 1.314 . S
C1071 C1069 1.353 . S
C1071 H1127 0.930 . S
C1072 N1073 1.314 . S
C1072 C1077 1.353 1_545 S
C1072 H1078 0.930 . S
N1073 Li1056 1.990 . S
N1073 C1072 1.314 . S
N1073 C1075 1.279 1_545 S
C1074 C1075 1.358 . S
C1074 C1076 1.356 . S
C1074 H1128 0.930 . S
C1075 N1073 1.279 1_565 S
C1075 C1074 1.358 . S
C1075 H1079 0.930 . S
C1076 C1074 1.356 . S
C1076 C1077 1.348 . S
C1077 C1072 1.353 1_565 S
C1077 C1076 1.348 . S
C1077 H1129 0.929 . S
H1078 C1072 0.930 . S
H1079 C1075 0.930 . S
C1080 N1081 1.314 . S
C1080 C1082 1.353 . S
C1080 H1086 0.930 . S
N1081 Li1057 1.990 . S
N1081 C1080 1.314 . S
N1081 C1084 1.279 . S
C1082 C1080 1.353 . S
C1082 C1085 1.348 . S
C1082 H1130 0.929 . S
C1083 C1084 1.358 . S
C1083 C1085 1.356 . S
C1083 H1131 0.930 . S
C1084 N1081 1.279 . S
C1084 C1083 1.358 . S
C1084 H1087 0.930 . S
C1085 C1082 1.348 . S
C1085 C1083 1.356 . S
H1086 C1080 0.930 . S
H1087 C1084 0.930 . S
C1088 C1090 1.348 . S
C1088 C1091 1.356 . S
C1088 O1118 1.325 . S
N1089 C1092 1.314 . S
N1089 C1093 1.279 . S
C1090 C1088 1.348 . S
C1090 C1092 1.353 . S
C1090 H1132 0.929 . S
C1091 C1088 1.356 . S
C1091 C1093 1.358 . S
C1091 H1133 0.930 . S
C1092 N1089 1.314 . S
C1092 C1090 1.353 . S
C1092 H1134 0.930 . S
C1093 N1089 1.279 . S
C1093 C1091 1.358 . S
C1093 H1135 0.930 . S
C1094 C1095 1.348 . S
C1094 C1096 1.356 . S
C1094 O1119 1.325 . S
C1095 C1094 1.348 . S
C1095 C1097 1.353 . S
C1095 H1136 0.929 . S
C1096 C1094 1.356 . S
C1096 C1098 1.358 . S
C1096 H1137 0.930 . S
C1097 C1095 1.353 . S
C1097 N1099 1.314 . S
C1097 H1138 0.930 . S
C1098 C1096 1.358 . S
C1098 N1099 1.279 . S
C1098 H1139 0.930 . S
N1099 C1097 1.314 . S
N1099 C1098 1.279 . S
C1100 C1102 1.353 . S
C1100 N1103 1.314 . S
C1100 H1106 0.930 . S
C1101 N1103 1.279 . S
C1101 C1104 1.358 . S
C1101 H1107 0.930 . S
C1102 C1100 1.353 . S
C1102 C1105 1.348 . S
C1102 H1140 0.929 . S
N1103 Li1058 1.990 . S
N1103 C1100 1.314 . S
N1103 C1101 1.279 . S
C1104 C1101 1.358 . S
C1104 C1105 1.356 . S
C1104 H1141 0.930 . S
C1105 C1102 1.348 . S
C1105 C1104 1.356 . S
H1106 C1100 0.930 . S
H1107 C1101 0.930 . S
C1108 N1109 1.314 . S
C1108 C1110 1.353 . S
C1108 H1114 0.930 . S
N1109 Li1059 1.990 . S
N1109 C1108 1.314 . S
N1109 C1112 1.279 . S
C1110 C1108 1.353 . S
C1110 C1113 1.348 . S
C1110 H1142 0.929 . S
C1111 C1112 1.358 . S
C1111 C1113 1.356 . S
C1111 H1143 0.930 . S
C1112 N1109 1.279 . S
C1112 C1111 1.358 . S
C1112 H1115 0.930 . S
C1113 C1110 1.348 . S
C1113 C1111 1.356 . S
H1114 C1108 0.930 . S
H1115 C1112 0.930 . S
O1116 Li1056 1.956 . S
O1116 Li1057 1.970 . S
O1116 Li1058 1.961 . S
O1116 C1060 1.325 . S
O1117 Li1056 1.970 . S
O1117 Li1057 1.956 . S
O1117 Li1059 1.961 . S
O1117 C1066 1.325 . S
O1118 Li1056 1.961 . S
O1118 Li1058 1.956 . S
O1118 Li1059 1.970 . S
O1118 C1088 1.325 . S
O1119 Li1057 1.961 . S
O1119 Li1058 1.970 . S
O1119 Li1059 1.956 . S
O1119 C1094 1.325 . S
H1120 C1062 0.929 . S
H1121 C1063 0.930 . S
H1122 C1064 0.884 1_565 S
H1123 C1065 0.930 . S
H1124 C1067 0.930 . S
H1125 C1069 0.929 . S
H1126 C1070 0.930 . S
H1127 C1071 0.930 . S
H1128 C1074 0.930 . S
H1129 C1077 0.929 . S
H1130 C1082 0.929 . S
H1131 C1083 0.930 . S
H1132 C1090 0.929 . S
H1133 C1091 0.930 . S
H1134 C1092 0.930 . S
H1135 C1093 0.930 . S
H1136 C1095 0.929 . S
H1137 C1096 0.930 . S
H1138 C1097 0.930 . S
H1139 C1098 0.930 . S
H1140 C1102 0.929 . S
H1141 C1104 0.930 . S
H1142 C1110 0.929 . S
H1143 C1111 0.930 . S
Li1144 N1161 1.990 . S
Li1144 O1204 1.956 . S
Li1144 O1205 1.970 . S
Li1144 O1206 1.961 . S
Li1145 N1169 1.990 . S
Li1145 O1204 1.970 . S
Li1145 O1205 1.956 . S
Li1145 O1207 1.961 . S
Li1146 N1191 1.990 . S
Li1146 O1204 1.961 . S
Li1146 O1206 1.956 . S
Li1146 O1207 1.970 . S
Li1147 N1197 1.990 . S
Li1147 O1205 1.961 . S
Li1147 O1206 1.970 . S
Li1147 O1207 1.956 . S
C1148 C1150 1.348 . S
C1148 C1151 1.356 . S
C1148 O1204 1.325 . S
N1149 C1152 1.314 1_455 S
N1149 C1153 1.279 1_455 S
C1150 C1148 1.348 . S
C1150 C1152 1.353 . S
C1150 H1208 0.929 . S
C1151 C1148 1.356 . S
C1151 C1153 1.358 . S
C1151 H1209 0.930 . S
C1152 N1149 1.314 1_655 S
C1152 C1150 1.353 . S
C1152 H1210 0.930 1_655 S
C1153 N1149 1.279 1_655 S
C1153 C1151 1.358 . S
C1153 H1211 0.922 1_655 S
C1154 C1157 1.348 . S
C1154 C1158 1.356 . S
C1154 O1205 1.325 . S
C1155 N1156 1.279 . S
C1155 C1158 1.358 . S
C1155 H1212 0.930 . S
N1156 C1155 1.279 . S
N1156 C1159 1.314 . S
C1157 C1154 1.348 . S
C1157 C1159 1.353 . S
C1157 H1213 0.929 . S
C1158 C1154 1.356 . S
C1158 C1155 1.358 . S
C1158 H1214 0.930 . S
C1159 N1156 1.314 . S
C1159 C1157 1.353 . S
C1159 H1215 0.930 . S
C1160 N1161 1.314 . S
C1160 C1165 1.353 1_655 S
C1160 H1166 0.930 . S
N1161 Li1144 1.990 . S
N1161 C1160 1.314 . S
N1161 C1163 1.279 1_655 S
C1162 C1163 1.358 . S
C1162 C1164 1.356 . S
C1162 H1216 0.930 . S
C1163 N1161 1.279 1_455 S
C1163 C1162 1.358 . S
C1163 H1167 0.930 . S
C1164 C1162 1.356 . S
C1164 C1165 1.348 . S
C1165 C1160 1.353 1_455 S
C1165 C1164 1.348 . S
C1165 H1217 0.929 . S
H1166 C1160 0.930 . S
H1167 C1163 0.930 . S
C1168 N1169 1.314 . S
C1168 C1170 1.353 . S
C1168 H1174 0.930 . S
N1169 Li1145 1.990 . S
N1169 C1168 1.314 . S
N1169 C1172 1.279 . S
C1170 C1168 1.353 . S
C1170 C1173 1.348 . S
C1170 H1218 0.929 . S
C1171 C1172 1.358 . S
C1171 C1173 1.356 . S
C1171 H1219 0.930 . S
C1172 N1169 1.279 . S
C1172 C1171 1.358 . S
C1172 H1175 0.930 . S
C1173 C1170 1.348 . S
C1173 C1171 1.356 . S
H1174 C1168 0.930 . S
H1175 C1172 0.930 . S
C1176 C1178 1.348 . S
C1176 C1179 1.356 . S
C1176 O1206 1.325 . S
N1177 C1180 1.314 . S
N1177 C1181 1.279 . S
C1178 C1176 1.348 . S
C1178 C1180 1.353 . S
C1178 H1220 0.929 . S
C1179 C1176 1.356 . S
C1179 C1181 1.358 . S
C1179 H1221 0.930 . S
C1180 N1177 1.314 . S
C1180 C1178 1.353 . S
C1180 H1222 0.930 . S
C1181 N1177 1.279 . S
C1181 C1179 1.358 . S
C1181 H1223 0.930 . S
C1182 C1183 1.348 . S
C1182 C1184 1.356 . S
C1182 O1207 1.325 . S
C1183 C1182 1.348 . S
C1183 C1185 1.353 . S
C1183 H1224 0.929 . S
C1184 C1182 1.356 . S
C1184 C1186 1.358 . S
C1184 H1225 0.930 . S
C1185 C1183 1.353 . S
C1185 N1187 1.314 . S
C1185 H1226 0.930 . S
C1186 C1184 1.358 . S
C1186 N1187 1.279 . S
C1186 H1227 0.930 . S
N1187 C1185 1.314 . S
N1187 C1186 1.279 . S
C1188 C1190 1.353 . S
C1188 N1191 1.314 . S
C1188 H1194 0.930 . S
C1189 N1191 1.279 . S
C1189 C1192 1.358 . S
C1189 H1195 0.930 . S
C1190 C1188 1.353 . S
C1190 C1193 1.348 . S
C1190 H1228 0.929 . S
N1191 Li1146 1.990 . S
N1191 C1188 1.314 . S
N1191 C1189 1.279 . S
C1192 C1189 1.358 . S
C1192 C1193 1.356 . S
C1192 H1229 0.930 . S
C1193 C1190 1.348 . S
C1193 C1192 1.356 . S
H1194 C1188 0.930 . S
H1195 C1189 0.930 . S
C1196 N1197 1.314 . S
C1196 C1198 1.353 . S
C1196 H1202 0.930 . S
N1197 Li1147 1.990 . S
N1197 C1196 1.314 . S
N1197 C1200 1.279 . S
C1198 C1196 1.353 . S
C1198 C1201 1.348 . S
C1198 H1230 0.929 . S
C1199 C1200 1.358 . S
C1199 C1201 1.356 . S
C1199 H1231 0.930 . S
C1200 N1197 1.279 . S
C1200 C1199 1.358 . S
C1200 H1203 0.930 . S
C1201 C1198 1.348 . S
C1201 C1199 1.356 . S
H1202 C1196 0.930 . S
H1203 C1200 0.930 . S
O1204 Li1144 1.956 . S
O1204 Li1145 1.970 . S
O1204 Li1146 1.961 . S
O1204 C1148 1.325 . S
O1205 Li1144 1.970 . S
O1205 Li1145 1.956 . S
O1205 Li1147 1.961 . S
O1205 C1154 1.325 . S
O1206 Li1144 1.961 . S
O1206 Li1146 1.956 . S
O1206 Li1147 1.970 . S
O1206 C1176 1.325 . S
O1207 Li1145 1.961 . S
O1207 Li1146 1.970 . S
O1207 Li1147 1.956 . S
O1207 C1182 1.325 . S
H1208 C1150 0.929 . S
H1209 C1151 0.930 . S
H1210 C1152 0.930 1_455 S
H1211 C1153 0.922 1_455 S
H1212 C1155 0.930 . S
H1213 C1157 0.929 . S
H1214 C1158 0.930 . S
H1215 C1159 0.930 . S
H1216 C1162 0.930 . S
H1217 C1165 0.929 . S
H1218 C1170 0.929 . S
H1219 C1171 0.930 . S
H1220 C1178 0.929 . S
H1221 C1179 0.930 . S
H1222 C1180 0.930 . S
H1223 C1181 0.930 . S
H1224 C1183 0.929 . S
H1225 C1184 0.930 . S
H1226 C1185 0.930 . S
H1227 C1186 0.930 . S
H1228 C1190 0.929 . S
H1229 C1192 0.930 . S
H1230 C1198 0.929 . S
H1231 C1199 0.930 . S
Li1232 N1249 1.990 . S
Li1232 O1292 1.956 . S
Li1232 O1293 1.970 . S
Li1232 O1294 1.961 . S
Li1233 N1257 1.990 . S
Li1233 O1292 1.970 . S
Li1233 O1293 1.956 . S
Li1233 O1295 1.961 . S
Li1234 N1279 1.990 . S
Li1234 O1292 1.961 . S
Li1234 O1294 1.956 . S
Li1234 O1295 1.970 . S
Li1235 N1285 1.990 . S
Li1235 O1293 1.961 . S
Li1235 O1294 1.970 . S
Li1235 O1295 1.956 . S
C1236 C1238 1.348 . S
C1236 C1239 1.356 . S
C1236 O1292 1.325 . S
N1237 C1240 1.314 . S
N1237 C1241 1.279 . S
C1238 C1236 1.348 . S
C1238 C1240 1.353 . S
C1238 H1296 0.929 . S
C1239 C1236 1.356 . S
C1239 C1241 1.358 . S
C1239 H1297 0.930 . S
C1240 N1237 1.314 . S
C1240 C1238 1.353 . S
C1240 H1298 0.930 . S
C1241 N1237 1.279 . S
C1241 C1239 1.358 . S
C1241 H1299 0.930 . S
C1242 C1245 1.348 . S
C1242 C1246 1.356 . S
C1242 O1293 1.325 . S
C1243 N1244 1.279 . S
C1243 C1246 1.358 . S
C1243 H1300 0.930 . S
N1244 C1243 1.279 . S
N1244 C1247 1.314 . S
C1245 C1242 1.348 . S
C1245 C1247 1.353 . S
C1245 H1301 0.929 . S
C1246 C1242 1.356 . S
C1246 C1243 1.358 . S
C1246 H1302 0.930 . S
C1247 N1244 1.314 . S
C1247 C1245 1.353 . S
C1247 H1303 0.930 . S
C1248 N1249 1.314 . S
C1248 C1253 1.353 . S
C1248 H1254 0.930 . S
N1249 Li1232 1.990 . S
N1249 C1248 1.314 . S
N1249 C1251 1.279 . S
C1250 C1251 1.358 . S
C1250 C1252 1.356 . S
C1250 H1304 0.930 . S
C1251 N1249 1.279 . S
C1251 C1250 1.358 . S
C1251 H1255 0.930 . S
C1252 C1250 1.356 . S
C1252 C1253 1.348 . S
C1253 C1248 1.353 . S
C1253 C1252 1.348 . S
C1253 H1305 0.929 . S
H1254 C1248 0.930 . S
H1255 C1251 0.930 . S
C1256 N1257 1.314 . S
C1256 C1258 1.353 . S
C1256 H1262 0.930 . S
N1257 Li1233 1.990 . S
N1257 C1256 1.314 . S
N1257 C1260 1.279 . S
C1258 C1256 1.353 . S
C1258 C1261 1.348 . S
C1258 H1306 0.929 . S
C1259 C1260 1.358 . S
C1259 C1261 1.356 . S
C1259 H1307 0.930 . S
C1260 N1257 1.279 . S
C1260 C1259 1.358 . S
C1260 H1263 0.930 . S
C1261 C1258 1.348 . S
C1261 C1259 1.356 . S
H1262 C1256 0.930 . S
H1263 C1260 0.930 . S
C1264 C1266 1.348 . S
C1264 C1267 1.356 . S
C1264 O1294 1.325 . S
N1265 C1268 1.314 . S
N1265 C1269 1.279 . S
C1266 C1264 1.348 . S
C1266 C1268 1.353 . S
C1266 H1308 0.929 . S
C1267 C1264 1.356 . S
C1267 C1269 1.358 . S
C1267 H1309 0.930 . S
C1268 N1265 1.314 . S
C1268 C1266 1.353 . S
C1268 H1310 0.930 . S
C1269 N1265 1.279 . S
C1269 C1267 1.358 . S
C1269 H1311 0.930 . S
C1270 C1271 1.348 . S
C1270 C1272 1.356 . S
C1270 O1295 1.325 . S
C1271 C1270 1.348 . S
C1271 C1273 1.353 . S
C1271 H1312 0.929 . S
C1272 C1270 1.356 . S
C1272 C1274 1.358 . S
C1272 H1313 0.930 . S
C1273 C1271 1.353 . S
C1273 N1275 1.314 . S
C1273 H1314 0.930 . S
C1274 C1272 1.358 . S
C1274 N1275 1.279 . S
C1274 H1315 0.930 . S
N1275 C1273 1.314 . S
N1275 C1274 1.279 . S
C1276 C1278 1.353 . S
C1276 N1279 1.314 . S
C1276 H1282 0.930 . S
C1277 N1279 1.279 . S
C1277 C1280 1.358 . S
C1277 H1283 0.930 . S
C1278 C1276 1.353 . S
C1278 C1281 1.348 . S
C1278 H1316 0.929 . S
N1279 Li1234 1.990 . S
N1279 C1276 1.314 . S
N1279 C1277 1.279 . S
C1280 C1277 1.358 . S
C1280 C1281 1.356 . S
C1280 H1317 0.930 . S
C1281 C1278 1.348 . S
C1281 C1280 1.356 . S
H1282 C1276 0.930 . S
H1283 C1277 0.930 . S
C1284 N1285 1.314 . S
C1284 C1286 1.353 . S
C1284 H1290 0.930 . S
N1285 Li1235 1.990 . S
N1285 C1284 1.314 . S
N1285 C1288 1.279 . S
C1286 C1284 1.353 . S
C1286 C1289 1.348 . S
C1286 H1318 0.929 . S
C1287 C1288 1.358 . S
C1287 C1289 1.356 . S
C1287 H1319 0.930 . S
C1288 N1285 1.279 . S
C1288 C1287 1.358 . S
C1288 H1291 0.930 . S
C1289 C1286 1.348 . S
C1289 C1287 1.356 . S
H1290 C1284 0.930 . S
H1291 C1288 0.930 . S
O1292 Li1232 1.956 . S
O1292 Li1233 1.970 . S
O1292 Li1234 1.961 . S
O1292 C1236 1.325 . S
O1293 Li1232 1.970 . S
O1293 Li1233 1.956 . S
O1293 Li1235 1.961 . S
O1293 C1242 1.325 . S
O1294 Li1232 1.961 . S
O1294 Li1234 1.956 . S
O1294 Li1235 1.970 . S
O1294 C1264 1.325 . S
O1295 Li1233 1.961 . S
O1295 Li1234 1.970 . S
O1295 Li1235 1.956 . S
O1295 C1270 1.325 . S
H1296 C1238 0.929 . S
H1297 C1239 0.930 . S
H1298 C1240 0.930 . S
H1299 C1241 0.930 . S
H1300 C1243 0.930 . S
H1301 C1245 0.929 . S
H1302 C1246 0.930 . S
H1303 C1247 0.930 . S
H1304 C1250 0.930 . S
H1305 C1253 0.929 . S
H1306 C1258 0.929 . S
H1307 C1259 0.930 . S
H1308 C1266 0.929 . S
H1309 C1267 0.930 . S
H1310 C1268 0.930 . S
H1311 C1269 0.930 . S
H1312 C1271 0.929 . S
H1313 C1272 0.930 . S
H1314 C1273 0.930 . S
H1315 C1274 0.930 . S
H1316 C1278 0.929 . S
H1317 C1280 0.930 . S
H1318 C1286 0.929 . S
H1319 C1287 0.930 . S
Li1320 N1337 1.990 . S
Li1320 O1380 1.956 . S
Li1320 O1381 1.970 . S
Li1320 O1382 1.961 . S
Li1321 N1345 1.990 . S
Li1321 O1380 1.970 . S
Li1321 O1381 1.956 . S
Li1321 O1383 1.961 . S
Li1322 N1367 1.990 . S
Li1322 O1380 1.961 . S
Li1322 O1382 1.956 . S
Li1322 O1383 1.970 . S
Li1323 N1373 1.990 . S
Li1323 O1381 1.961 . S
Li1323 O1382 1.970 . S
Li1323 O1383 1.956 . S
C1324 C1326 1.348 . S
C1324 C1327 1.356 . S
C1324 O1380 1.325 . S
N1325 C1328 1.314 . S
N1325 C1329 1.279 . S
C1326 C1324 1.348 . S
C1326 C1328 1.353 . S
C1326 H1384 0.929 . S
C1327 C1324 1.356 . S
C1327 C1329 1.358 . S
C1327 H1385 0.930 . S
C1328 N1325 1.314 . S
C1328 C1326 1.353 . S
C1328 H1386 0.930 . S
C1329 N1325 1.279 . S
C1329 C1327 1.358 . S
C1329 H1387 0.930 . S
C1330 C1333 1.348 . S
C1330 C1334 1.356 . S
C1330 O1381 1.325 . S
C1331 N1332 1.279 . S
C1331 C1334 1.358 . S
C1331 H1388 0.930 . S
N1332 C1331 1.279 . S
N1332 C1335 1.314 . S
C1333 C1330 1.348 . S
C1333 C1335 1.353 . S
C1333 H1389 0.929 . S
C1334 C1330 1.356 . S
C1334 C1331 1.358 . S
C1334 H1390 0.930 . S
C1335 N1332 1.314 . S
C1335 C1333 1.353 . S
C1335 H1391 0.930 . S
C1336 N1337 1.314 . S
C1336 C1341 1.353 . S
C1336 H1342 0.930 . S
N1337 Li1320 1.990 . S
N1337 C1336 1.314 . S
N1337 C1339 1.279 . S
C1338 C1339 1.358 . S
C1338 C1340 1.356 . S
C1338 H1392 0.930 . S
C1339 N1337 1.279 . S
C1339 C1338 1.358 . S
C1339 H1343 0.930 . S
C1340 C1338 1.356 . S
C1340 C1341 1.348 . S
C1341 C1336 1.353 . S
C1341 C1340 1.348 . S
C1341 H1393 0.929 . S
H1342 C1336 0.930 . S
H1343 C1339 0.930 . S
C1344 N1345 1.314 . S
C1344 C1346 1.353 . S
C1344 H1350 0.930 . S
N1345 Li1321 1.990 . S
N1345 C1344 1.314 . S
N1345 C1348 1.279 . S
C1346 C1344 1.353 . S
C1346 C1349 1.348 . S
C1346 H1394 0.929 . S
C1347 C1348 1.358 . S
C1347 C1349 1.356 . S
C1347 H1395 0.930 . S
C1348 N1345 1.279 . S
C1348 C1347 1.358 . S
C1348 H1351 0.930 . S
C1349 C1346 1.348 . S
C1349 C1347 1.356 . S
H1350 C1344 0.930 . S
H1351 C1348 0.930 . S
C1352 C1354 1.348 . S
C1352 C1355 1.356 . S
C1352 O1382 1.325 . S
N1353 C1356 1.314 . S
N1353 C1357 1.279 . S
C1354 C1352 1.348 . S
C1354 C1356 1.353 . S
C1354 H1396 0.929 . S
C1355 C1352 1.356 . S
C1355 C1357 1.358 . S
C1355 H1397 0.930 . S
C1356 N1353 1.314 . S
C1356 C1354 1.353 . S
C1356 H1398 0.930 . S
C1357 N1353 1.279 . S
C1357 C1355 1.358 . S
C1357 H1399 0.930 . S
C1358 C1359 1.348 . S
C1358 C1360 1.356 . S
C1358 O1383 1.325 . S
C1359 C1358 1.348 . S
C1359 C1361 1.353 . S
C1359 H1400 0.929 . S
C1360 C1358 1.356 . S
C1360 C1362 1.358 . S
C1360 H1401 0.930 . S
C1361 C1359 1.353 . S
C1361 N1363 1.314 . S
C1361 H1402 0.930 . S
C1362 C1360 1.358 . S
C1362 N1363 1.279 . S
C1362 H1403 0.930 . S
N1363 C1361 1.314 . S
N1363 C1362 1.279 . S
C1364 C1366 1.353 . S
C1364 N1367 1.314 . S
C1364 H1370 0.930 . S
C1365 N1367 1.279 . S
C1365 C1368 1.358 . S
C1365 H1371 0.930 . S
C1366 C1364 1.353 . S
C1366 C1369 1.348 . S
C1366 H1404 0.929 . S
N1367 Li1322 1.990 . S
N1367 C1364 1.314 . S
N1367 C1365 1.279 . S
C1368 C1365 1.358 . S
C1368 C1369 1.356 . S
C1368 H1405 0.930 . S
C1369 C1366 1.348 . S
C1369 C1368 1.356 . S
H1370 C1364 0.930 . S
H1371 C1365 0.930 . S
C1372 N1373 1.314 . S
C1372 C1374 1.353 . S
C1372 H1378 0.930 . S
N1373 Li1323 1.990 . S
N1373 C1372 1.314 . S
N1373 C1376 1.279 . S
C1374 C1372 1.353 . S
C1374 C1377 1.348 . S
C1374 H1406 0.929 . S
C1375 C1376 1.358 . S
C1375 C1377 1.356 . S
C1375 H1407 0.930 . S
C1376 N1373 1.279 . S
C1376 C1375 1.358 . S
C1376 H1379 0.930 . S
C1377 C1374 1.348 . S
C1377 C1375 1.356 . S
H1378 C1372 0.930 . S
H1379 C1376 0.930 . S
O1380 Li1320 1.956 . S
O1380 Li1321 1.970 . S
O1380 Li1322 1.961 . S
O1380 C1324 1.325 . S
O1381 Li1320 1.970 . S
O1381 Li1321 1.956 . S
O1381 Li1323 1.961 . S
O1381 C1330 1.325 . S
O1382 Li1320 1.961 . S
O1382 Li1322 1.956 . S
O1382 Li1323 1.970 . S
O1382 C1352 1.325 . S
O1383 Li1321 1.961 . S
O1383 Li1322 1.970 . S
O1383 Li1323 1.956 . S
O1383 C1358 1.325 . S
H1384 C1326 0.929 . S
H1385 C1327 0.930 . S
H1386 C1328 0.930 . S
H1387 C1329 0.930 . S
H1388 C1331 0.930 . S
H1389 C1333 0.929 . S
H1390 C1334 0.930 . S
H1391 C1335 0.930 . S
H1392 C1338 0.930 . S
H1393 C1341 0.929 . S
H1394 C1346 0.929 . S
H1395 C1347 0.930 . S
H1396 C1354 0.929 . S
H1397 C1355 0.930 . S
H1398 C1356 0.930 . S
H1399 C1357 0.930 . S
H1400 C1359 0.929 . S
H1401 C1360 0.930 . S
H1402 C1361 0.930 . S
H1403 C1362 0.930 . S
H1404 C1366 0.929 . S
H1405 C1368 0.930 . S
H1406 C1374 0.929 . S
H1407 C1375 0.930 . S
Li1408 N1425 1.990 . S
Li1408 O1468 1.956 . S
Li1408 O1469 1.970 . S
Li1408 O1470 1.961 . S
Li1409 N1433 1.990 . S
Li1409 O1468 1.970 . S
Li1409 O1469 1.956 . S
Li1409 O1471 1.961 . S
Li1410 N1455 1.990 . S
Li1410 O1468 1.961 . S
Li1410 O1470 1.956 . S
Li1410 O1471 1.970 . S
Li1411 N1461 1.990 . S
Li1411 O1469 1.961 . S
Li1411 O1470 1.970 . S
Li1411 O1471 1.956 . S
C1412 C1414 1.348 . S
C1412 C1415 1.356 . S
C1412 O1468 1.325 . S
N1413 C1416 1.314 . S
N1413 C1417 1.279 . S
C1414 C1412 1.348 . S
C1414 C1416 1.353 . S
C1414 H1472 0.929 . S
C1415 C1412 1.356 . S
C1415 C1417 1.358 . S
C1415 H1473 0.930 . S
C1416 N1413 1.314 . S
C1416 C1414 1.353 . S
C1416 H1474 0.930 . S
C1417 N1413 1.279 . S
C1417 C1415 1.358 . S
C1417 H1475 0.930 . S
C1418 C1421 1.348 . S
C1418 C1422 1.356 . S
C1418 O1469 1.325 . S
C1419 N1420 1.264 . S
C1419 C1422 1.358 . S
C1419 H1476 0.930 1_545 S
N1420 C1419 1.264 . S
N1420 C1423 1.373 . S
C1421 C1418 1.348 . S
C1421 C1423 1.353 . S
C1421 H1477 0.929 . S
C1422 C1418 1.356 . S
C1422 C1419 1.358 . S
C1422 H1478 0.930 . S
C1423 N1420 1.373 . S
C1423 C1421 1.353 . S
C1423 H1479 0.930 . S
C1424 N1425 1.314 . S
C1424 C1429 1.353 . S
C1424 H1430 0.930 . S
N1425 Li1408 1.990 . S
N1425 C1424 1.314 . S
N1425 C1427 1.279 . S
C1426 C1427 1.358 . S
C1426 C1428 1.356 . S
C1426 H1480 0.930 . S
C1427 N1425 1.279 . S
C1427 C1426 1.358 . S
C1427 H1431 0.930 . S
C1428 C1426 1.356 . S
C1428 C1429 1.348 . S
C1429 C1424 1.353 . S
C1429 C1428 1.348 . S
C1429 H1481 0.929 . S
H1430 C1424 0.930 . S
H1431 C1427 0.930 . S
C1432 N1433 1.314 . S
C1432 C1434 1.353 . S
C1432 H1438 0.930 . S
N1433 Li1409 1.990 . S
N1433 C1432 1.314 . S
N1433 C1436 1.279 . S
C1434 C1432 1.353 . S
C1434 C1437 1.348 . S
C1434 H1482 0.929 . S
C1435 C1436 1.358 . S
C1435 C1437 1.356 . S
C1435 H1483 0.930 . S
C1436 N1433 1.279 . S
C1436 C1435 1.358 . S
C1436 H1439 0.930 . S
C1437 C1434 1.348 . S
C1437 C1435 1.356 . S
H1438 C1432 0.930 . S
H1439 C1436 0.930 . S
C1440 C1442 1.348 . S
C1440 C1443 1.356 . S
C1440 O1470 1.325 . S
N1441 C1444 1.314 . S
N1441 C1445 1.279 . S
C1442 C1440 1.348 . S
C1442 C1444 1.353 . S
C1442 H1484 0.929 . S
C1443 C1440 1.356 . S
C1443 C1445 1.358 . S
C1443 H1485 0.930 . S
C1444 N1441 1.314 . S
C1444 C1442 1.353 . S
C1444 H1486 0.930 . S
C1445 N1441 1.279 . S
C1445 C1443 1.358 . S
C1445 H1487 0.930 . S
C1446 C1447 1.348 . S
C1446 C1448 1.356 . S
C1446 O1471 1.325 . S
C1447 C1446 1.348 . S
C1447 C1449 1.353 . S
C1447 H1488 0.929 . S
C1448 C1446 1.356 . S
C1448 C1450 1.358 . S
C1448 H1489 0.930 . S
C1449 C1447 1.353 . S
C1449 N1451 1.314 . S
C1449 H1490 0.930 . S
C1450 C1448 1.358 . S
C1450 N1451 1.279 . S
C1450 H1491 0.930 . S
N1451 C1449 1.314 . S
N1451 C1450 1.279 . S
C1452 C1454 1.353 . S
C1452 N1455 1.314 . S
C1452 H1458 0.930 . S
C1453 N1455 1.279 . S
C1453 C1456 1.358 . S
C1453 H1459 0.930 . S
C1454 C1452 1.353 . S
C1454 C1457 1.348 . S
C1454 H1492 0.929 . S
N1455 Li1410 1.990 . S
N1455 C1452 1.314 . S
N1455 C1453 1.279 . S
C1456 C1453 1.358 . S
C1456 C1457 1.356 . S
C1456 H1493 0.930 . S
C1457 C1454 1.348 . S
C1457 C1456 1.356 . S
H1458 C1452 0.930 . S
H1459 C1453 0.930 . S
C1460 N1461 1.314 1_565 S
C1460 C1462 1.353 . S
C1460 H1466 0.930 . S
N1461 Li1411 1.990 . S
N1461 C1460 1.314 1_545 S
N1461 C1464 1.279 . S
C1462 C1460 1.353 . S
C1462 C1465 1.348 . S
C1462 H1494 0.929 . S
C1463 C1464 1.358 1_565 S
C1463 C1465 1.356 . S
C1463 H1495 0.930 . S
C1464 N1461 1.279 . S
C1464 C1463 1.358 1_545 S
C1464 H1467 0.930 . S
C1465 C1462 1.348 . S
C1465 C1463 1.356 . S
H1466 C1460 0.930 . S
H1467 C1464 0.930 . S
O1468 Li1408 1.956 . S
O1468 Li1409 1.970 . S
O1468 Li1410 1.961 . S
O1468 C1412 1.325 . S
O1469 Li1408 1.970 . S
O1469 Li1409 1.956 . S
O1469 Li1411 1.961 . S
O1469 C1418 1.325 . S
O1470 Li1408 1.961 . S
O1470 Li1410 1.956 . S
O1470 Li1411 1.970 . S
O1470 C1440 1.325 . S
O1471 Li1409 1.961 . S
O1471 Li1410 1.970 . S
O1471 Li1411 1.956 . S
O1471 C1446 1.325 . S
H1472 C1414 0.929 . S
H1473 C1415 0.930 . S
H1474 C1416 0.930 . S
H1475 C1417 0.930 . S
H1476 C1419 0.930 1_565 S
H1477 C1421 0.929 . S
H1478 C1422 0.930 . S
H1479 C1423 0.930 . S
H1480 C1426 0.930 . S
H1481 C1429 0.929 . S
H1482 C1434 0.929 . S
H1483 C1435 0.930 . S
H1484 C1442 0.929 . S
H1485 C1443 0.930 . S
H1486 C1444 0.930 . S
H1487 C1445 0.930 . S
H1488 C1447 0.929 . S
H1489 C1448 0.930 . S
H1490 C1449 0.930 . S
H1491 C1450 0.930 . S
H1492 C1454 0.929 . S
H1493 C1456 0.930 . S
H1494 C1462 0.929 . S
H1495 C1463 0.930 . S
Li1496 N1513 1.990 . S
Li1496 O1556 1.956 . S
Li1496 O1557 1.970 . S
Li1496 O1558 1.961 . S
Li1497 N1521 1.990 . S
Li1497 O1556 1.970 . S
Li1497 O1557 1.956 . S
Li1497 O1559 1.961 . S
Li1498 N1543 1.990 . S
Li1498 O1556 1.961 . S
Li1498 O1558 1.956 . S
Li1498 O1559 1.970 . S
Li1499 N1549 1.990 . S
Li1499 O1557 1.961 . S
Li1499 O1558 1.970 . S
Li1499 O1559 1.956 . S
C1500 C1502 1.348 . S
C1500 C1503 1.356 . S
C1500 O1556 1.325 . S
N1501 C1504 1.314 . S
N1501 C1505 1.279 . S
C1502 C1500 1.348 . S
C1502 C1504 1.353 . S
C1502 H1560 0.929 . S
C1503 C1500 1.356 . S
C1503 C1505 1.358 . S
C1503 H1561 0.930 . S
C1504 N1501 1.314 . S
C1504 C1502 1.353 . S
C1504 H1562 0.930 . S
C1505 N1501 1.279 . S
C1505 C1503 1.358 . S
C1505 H1563 0.930 1_655 S
C1506 C1509 1.348 . S
C1506 C1510 1.356 . S
C1506 O1557 1.325 . S
C1507 N1508 1.279 . S
C1507 C1510 1.358 . S
C1507 H1564 0.930 . S
N1508 C1507 1.279 . S
N1508 C1511 1.314 . S
C1509 C1506 1.348 . S
C1509 C1511 1.353 . S
C1509 H1565 0.929 . S
C1510 C1506 1.356 . S
C1510 C1507 1.358 . S
C1510 H1566 0.930 . S
C1511 N1508 1.314 . S
C1511 C1509 1.353 . S
C1511 H1567 0.930 . S
C1512 N1513 1.314 . S
C1512 C1517 1.353 . S
C1512 H1518 0.930 . S
N1513 Li1496 1.990 . S
N1513 C1512 1.314 . S
N1513 C1515 1.279 . S
C1514 C1515 1.358 . S
C1514 C1516 1.356 . S
C1514 H1568 0.930 . S
C1515 N1513 1.279 . S
C1515 C1514 1.358 . S
C1515 H1519 0.930 . S
C1516 C1514 1.356 . S
C1516 C1517 1.348 . S
C1517 C1512 1.353 . S
C1517 C1516 1.348 . S
C1517 H1569 0.929 . S
H1518 C1512 0.930 . S
H1519 C1515 0.930 . S
C1520 N1521 1.314 . S
C1520 C1522 1.353 . S
C1520 H1526 0.930 . S
N1521 Li1497 1.990 . S
N1521 C1520 1.314 . S
N1521 C1524 1.279 . S
C1522 C1520 1.353 . S
C1522 C1525 1.348 . S
C1522 H1570 0.929 . S
C1523 C1524 1.358 . S
C1523 C1525 1.356 . S
C1523 H1571 0.930 . S
C1524 N1521 1.279 . S
C1524 C1523 1.358 . S
C1524 H1527 0.930 . S
C1525 C1522 1.348 . S
C1525 C1523 1.356 . S
H1526 C1520 0.930 . S
H1527 C1524 0.930 . S
C1528 C1530 1.348 . S
C1528 C1531 1.356 . S
C1528 O1558 1.325 . S
N1529 C1532 1.314 . S
N1529 C1533 1.279 . S
C1530 C1528 1.348 . S
C1530 C1532 1.353 . S
C1530 H1572 0.929 . S
C1531 C1528 1.356 . S
C1531 C1533 1.358 . S
C1531 H1573 0.930 . S
C1532 N1529 1.314 . S
C1532 C1530 1.353 . S
C1532 H1574 0.930 . S
C1533 N1529 1.279 . S
C1533 C1531 1.358 . S
C1533 H1575 0.930 . S
C1534 C1535 1.348 . S
C1534 C1536 1.356 . S
C1534 O1559 1.325 . S
C1535 C1534 1.348 . S
C1535 C1537 1.353 . S
C1535 H1576 0.929 . S
C1536 C1534 1.356 . S
C1536 C1538 1.358 . S
C1536 H1577 0.930 . S
C1537 C1535 1.353 . S
C1537 N1539 1.314 . S
C1537 H1578 0.930 . S
C1538 C1536 1.358 . S
C1538 N1539 1.279 . S
C1538 H1579 0.930 . S
N1539 C1537 1.314 . S
N1539 C1538 1.279 . S
C1540 C1542 1.288 1_655 S
C1540 N1543 1.407 . S
C1540 H1546 0.905 . S
C1541 N1543 1.279 . S
C1541 C1544 1.358 1_655 S
C1541 H1547 0.930 . S
C1542 C1540 1.288 1_455 S
C1542 C1545 1.348 . S
C1542 H1580 0.929 . S
N1543 Li1498 1.990 . S
N1543 C1540 1.407 . S
N1543 C1541 1.279 . S
C1544 C1541 1.358 1_455 S
C1544 C1545 1.356 . S
C1544 H1581 0.930 . S
C1545 C1542 1.348 . S
C1545 C1544 1.356 . S
H1546 C1540 0.905 . S
H1547 C1541 0.930 . S
C1548 N1549 1.314 . S
C1548 C1550 1.353 . S
C1548 H1554 0.930 . S
N1549 Li1499 1.990 . S
N1549 C1548 1.314 . S
N1549 C1552 1.279 . S
C1550 C1548 1.353 . S
C1550 C1553 1.348 . S
C1550 H1582 0.929 . S
C1551 C1552 1.358 . S
C1551 C1553 1.356 . S
C1551 H1583 0.930 . S
C1552 N1549 1.279 . S
C1552 C1551 1.358 . S
C1552 H1555 0.930 . S
C1553 C1550 1.348 . S
C1553 C1551 1.356 . S
H1554 C1548 0.930 . S
H1555 C1552 0.930 . S
O1556 Li1496 1.956 . S
O1556 Li1497 1.970 . S
O1556 Li1498 1.961 . S
O1556 C1500 1.325 . S
O1557 Li1496 1.970 . S
O1557 Li1497 1.956 . S
O1557 Li1499 1.961 . S
O1557 C1506 1.325 . S
O1558 Li1496 1.961 . S
O1558 Li1498 1.956 . S
O1558 Li1499 1.970 . S
O1558 C1528 1.325 . S
O1559 Li1497 1.961 . S
O1559 Li1498 1.970 . S
O1559 Li1499 1.956 . S
O1559 C1534 1.325 . S
H1560 C1502 0.929 . S
H1561 C1503 0.930 . S
H1562 C1504 0.930 . S
H1563 C1505 0.930 1_455 S
H1564 C1507 0.930 . S
H1565 C1509 0.929 . S
H1566 C1510 0.930 . S
H1567 C1511 0.930 . S
H1568 C1514 0.930 . S
H1569 C1517 0.929 . S
H1570 C1522 0.929 . S
H1571 C1523 0.930 . S
H1572 C1530 0.929 . S
H1573 C1531 0.930 . S
H1574 C1532 0.930 . S
H1575 C1533 0.930 . S
H1576 C1535 0.929 . S
H1577 C1536 0.930 . S
H1578 C1537 0.930 . S
H1579 C1538 0.930 . S
H1580 C1542 0.929 . S
H1581 C1544 0.930 . S
H1582 C1550 0.929 . S
H1583 C1551 0.930 . S
H1584 O1610 0.856 . S
H1585 O1613 0.854 . S
H1586 C1621 0.930 . S
H1587 C1622 0.930 . S
H1588 C1624 0.930 . S
H1589 C1625 0.930 . S
H1590 C1627 0.931 . S
H1591 C1628 0.930 . S
H1592 C1630 0.930 . S
H1593 C1631 0.929 . S
H1594 C1633 0.930 . S
H1595 C1634 0.931 . S
H1596 C1636 0.930 . S
H1597 C1637 0.929 . S
H1598 C1639 0.931 . S
H1599 C1640 0.930 . S
H1600 C1642 0.930 . S
H1601 C1643 0.932 . S
H1602 C1645 0.930 . S
H1603 C1646 0.929 . S
H1604 C1648 0.931 . S
H1605 C1649 0.930 . S
H1606 C1651 0.929 . S
H1607 C1652 0.931 . S
H1608 C1654 0.930 . S
H1609 C1655 0.929 . S
O1610 H1584 0.856 . S
O1610 C1656 1.300 . S
O1611 C1656 1.209 . S
O1612 C1657 1.199 . S
O1613 H1585 0.854 . S
O1613 C1657 1.297 . S
C1614 C1615 1.404 . S
C1614 C1619 1.397 . S
C1614 C1620 1.492 . S
C1615 C1614 1.404 . S
C1615 C1616 1.396 . S
C1615 C1626 1.492 . S
C1616 C1615 1.396 . S
C1616 C1617 1.397 . S
C1616 C1632 1.509 . S
C1617 C1616 1.397 . S
C1617 C1618 1.412 . S
C1617 C1638 1.485 . S
C1618 C1617 1.412 . S
C1618 C1619 1.388 . S
C1618 C1644 1.490 . S
C1619 C1614 1.397 . S
C1619 C1618 1.388 . S
C1619 C1650 1.519 . S
C1620 C1614 1.492 . S
C1620 C1621 1.363 . S
C1620 C1625 1.390 . S
C1621 H1586 0.930 . S
C1621 C1620 1.363 . S
C1621 C1622 1.372 . S
C1622 H1587 0.930 . S
C1622 C1621 1.372 . S
C1622 C1623 1.383 . S
C1623 C1622 1.383 . S
C1623 C1624 1.395 . S
C1624 H1588 0.930 . S
C1624 C1623 1.395 . S
C1624 C1625 1.362 . S
C1625 H1589 0.930 . S
C1625 C1620 1.390 . S
C1625 C1624 1.362 . S
C1626 C1615 1.492 . S
C1626 C1627 1.377 . S
C1626 C1631 1.397 . S
C1627 H1590 0.931 . S
C1627 C1626 1.377 . S
C1627 C1628 1.376 . S
C1628 H1591 0.930 . S
C1628 C1627 1.376 . S
C1628 C1629 1.376 . S
C1629 C1628 1.376 . S
C1629 C1630 1.378 . S
C1629 C1656 1.486 . S
C1630 H1592 0.930 . S
C1630 C1629 1.378 . S
C1630 C1631 1.376 . S
C1631 H1593 0.929 . S
C1631 C1626 1.397 . S
C1631 C1630 1.376 . S
C1632 C1616 1.509 . S
C1632 C1633 1.391 . S
C1632 C1637 1.386 . S
C1633 H1594 0.930 . S
C1633 C1632 1.391 . S
C1633 C1634 1.375 . S
C1634 H1595 0.931 . S
C1634 C1633 1.375 . S
C1634 C1635 1.375 . S
C1635 C1634 1.375 . S
C1635 C1636 1.361 . S
C1636 H1596 0.930 . S
C1636 C1635 1.361 . S
C1636 C1637 1.399 . S
C1637 H1597 0.929 . S
C1637 C1632 1.386 . S
C1637 C1636 1.399 . S
C1638 C1617 1.485 . S
C1638 C1639 1.394 . S
C1638 C1643 1.360 . S
C1639 H1598 0.931 . S
C1639 C1638 1.394 . S
C1639 C1640 1.372 . S
C1640 H1599 0.930 . S
C1640 C1639 1.372 . S
C1640 C1641 1.397 . S
C1641 C1640 1.397 . S
C1641 C1642 1.390 . S
C1641 C1657 1.476 . S
C1642 H1600 0.930 . S
C1642 C1641 1.390 . S
C1642 C1643 1.366 . S
C1643 H1601 0.932 . S
C1643 C1638 1.360 . S
C1643 C1642 1.366 . S
C1644 C1618 1.490 . S
C1644 C1645 1.380 . S
C1644 C1649 1.386 . S
C1645 H1602 0.930 . S
C1645 C1644 1.380 . S
C1645 C1646 1.381 . S
C1646 H1603 0.929 . S
C1646 C1645 1.381 . S
C1646 C1647 1.371 . S
C1647 C1646 1.371 . S
C1647 C1648 1.380 . S
C1648 H1604 0.931 . S
C1648 C1647 1.380 . S
C1648 C1649 1.387 . S
C1649 H1605 0.930 . S
C1649 C1644 1.386 . S
C1649 C1648 1.387 . S
C1650 C1619 1.519 . S
C1650 C1651 1.377 . S
C1650 C1655 1.361 . S
C1651 H1606 0.929 . S
C1651 C1650 1.377 . S
C1651 C1652 1.386 . S
C1652 H1607 0.931 . S
C1652 C1651 1.386 . S
C1652 C1653 1.363 . S
C1653 C1652 1.363 . S
C1653 C1654 1.385 . S
C1654 H1608 0.930 . S
C1654 C1653 1.385 . S
C1654 C1655 1.396 . S
C1655 H1609 0.929 . S
C1655 C1650 1.361 . S
C1655 C1654 1.396 . S
C1656 O1610 1.300 . S
C1656 O1611 1.209 . S
C1656 C1629 1.486 . S
C1657 O1612 1.199 . S
C1657 O1613 1.297 . S
C1657 C1641 1.476 . S
H1658 O1684 0.856 . S
H1659 O1687 0.854 . S
H1660 C1695 0.930 . S
H1661 C1696 0.930 . S
H1662 C1698 0.930 . S
H1663 C1699 0.930 . S
H1664 C1701 0.931 . S
H1665 C1702 0.930 . S
H1666 C1704 0.930 . S
H1667 C1705 0.929 . S
H1668 C1707 0.930 . S
H1669 C1708 0.931 . S
H1670 C1710 0.930 . S
H1671 C1711 0.929 . S
H1672 C1713 0.931 . S
H1673 C1714 0.930 . S
H1674 C1716 0.930 . S
H1675 C1717 0.932 . S
H1676 C1719 0.930 . S
H1677 C1720 0.929 . S
H1678 C1722 0.931 . S
H1679 C1723 0.930 . S
H1680 C1725 0.929 . S
H1681 C1726 0.931 . S
H1682 C1728 0.930 . S
H1683 C1729 0.929 . S
O1684 H1658 0.856 . S
O1684 C1730 1.300 . S
O1685 C1730 1.209 . S
O1686 C1731 1.199 . S
O1687 H1659 0.854 . S
O1687 C1731 1.297 . S
C1688 C1689 1.404 . S
C1688 C1693 1.397 . S
C1688 C1694 1.492 . S
C1689 C1688 1.404 . S
C1689 C1690 1.396 . S
C1689 C1700 1.492 . S
C1690 C1689 1.396 . S
C1690 C1691 1.397 . S
C1690 C1706 1.509 . S
C1691 C1690 1.397 . S
C1691 C1692 1.412 . S
C1691 C1712 1.485 . S
C1692 C1691 1.412 . S
C1692 C1693 1.388 . S
C1692 C1718 1.490 . S
C1693 C1688 1.397 . S
C1693 C1692 1.388 . S
C1693 C1724 1.519 . S
C1694 C1688 1.492 . S
C1694 C1695 1.363 . S
C1694 C1699 1.390 . S
C1695 H1660 0.930 . S
C1695 C1694 1.363 . S
C1695 C1696 1.372 . S
C1696 H1661 0.930 . S
C1696 C1695 1.372 . S
C1696 C1697 1.383 . S
C1697 C1696 1.383 . S
C1697 C1698 1.395 . S
C1698 H1662 0.930 . S
C1698 C1697 1.395 . S
C1698 C1699 1.362 . S
C1699 H1663 0.930 . S
C1699 C1694 1.390 . S
C1699 C1698 1.362 . S
C1700 C1689 1.492 . S
C1700 C1701 1.377 . S
C1700 C1705 1.397 . S
C1701 H1664 0.931 . S
C1701 C1700 1.377 . S
C1701 C1702 1.376 . S
C1702 H1665 0.930 . S
C1702 C1701 1.376 . S
C1702 C1703 1.376 . S
C1703 C1702 1.376 . S
C1703 C1704 1.378 . S
C1703 C1730 1.486 . S
C1704 H1666 0.930 . S
C1704 C1703 1.378 . S
C1704 C1705 1.376 . S
C1705 H1667 0.929 . S
C1705 C1700 1.397 . S
C1705 C1704 1.376 . S
C1706 C1690 1.509 . S
C1706 C1707 1.391 . S
C1706 C1711 1.386 . S
C1707 H1668 0.930 . S
C1707 C1706 1.391 . S
C1707 C1708 1.375 . S
C1708 H1669 0.931 . S
C1708 C1707 1.375 . S
C1708 C1709 1.375 . S
C1709 C1708 1.375 . S
C1709 C1710 1.361 . S
C1710 H1670 0.930 . S
C1710 C1709 1.361 . S
C1710 C1711 1.399 . S
C1711 H1671 0.929 . S
C1711 C1706 1.386 . S
C1711 C1710 1.399 . S
C1712 C1691 1.485 . S
C1712 C1713 1.394 . S
C1712 C1717 1.360 . S
C1713 H1672 0.931 . S
C1713 C1712 1.394 . S
C1713 C1714 1.372 . S
C1714 H1673 0.930 . S
C1714 C1713 1.372 . S
C1714 C1715 1.397 . S
C1715 C1714 1.397 . S
C1715 C1716 1.390 . S
C1715 C1731 1.476 . S
C1716 H1674 0.930 . S
C1716 C1715 1.390 . S
C1716 C1717 1.366 . S
C1717 H1675 0.932 . S
C1717 C1712 1.360 . S
C1717 C1716 1.366 . S
C1718 C1692 1.490 . S
C1718 C1719 1.380 . S
C1718 C1723 1.386 . S
C1719 H1676 0.930 . S
C1719 C1718 1.380 . S
C1719 C1720 1.381 . S
C1720 H1677 0.929 . S
C1720 C1719 1.381 . S
C1720 C1721 1.371 . S
C1721 C1720 1.371 . S
C1721 C1722 1.380 . S
C1722 H1678 0.931 . S
C1722 C1721 1.380 . S
C1722 C1723 1.387 . S
C1723 H1679 0.930 . S
C1723 C1718 1.386 . S
C1723 C1722 1.387 . S
C1724 C1693 1.519 . S
C1724 C1725 1.377 . S
C1724 C1729 1.361 . S
C1725 H1680 0.929 . S
C1725 C1724 1.377 . S
C1725 C1726 1.386 . S
C1726 H1681 0.931 . S
C1726 C1725 1.386 . S
C1726 C1727 1.363 . S
C1727 C1726 1.363 . S
C1727 C1728 1.385 . S
C1728 H1682 0.930 . S
C1728 C1727 1.385 . S
C1728 C1729 1.396 . S
C1729 H1683 0.929 . S
C1729 C1724 1.361 . S
C1729 C1728 1.396 . S
C1730 O1684 1.300 . S
C1730 O1685 1.209 . S
C1730 C1703 1.486 . S
C1731 O1686 1.199 . S
C1731 O1687 1.297 . S
C1731 C1715 1.476 . S
H1732 O1758 0.856 . S
H1733 O1761 0.854 . S
H1734 C1769 0.930 . S
H1735 C1770 0.930 . S
H1736 C1772 0.930 . S
H1737 C1773 0.930 . S
H1738 C1775 0.931 . S
H1739 C1776 0.930 . S
H1740 C1778 0.930 . S
H1741 C1779 0.929 . S
H1742 C1781 0.930 . S
H1743 C1782 0.931 . S
H1744 C1784 0.930 . S
H1745 C1785 0.929 . S
H1746 C1787 0.931 . S
H1747 C1788 0.930 . S
H1748 C1790 0.930 . S
H1749 C1791 0.932 . S
H1750 C1793 0.930 . S
H1751 C1794 0.929 . S
H1752 C1796 0.931 . S
H1753 C1797 0.930 . S
H1754 C1799 0.929 . S
H1755 C1800 0.931 . S
H1756 C1802 0.930 . S
H1757 C1803 0.929 . S
O1758 H1732 0.856 . S
O1758 C1804 1.300 . S
O1759 C1804 1.209 . S
O1760 C1805 1.199 . S
O1761 H1733 0.854 . S
O1761 C1805 1.297 . S
C1762 C1763 1.404 . S
C1762 C1767 1.397 . S
C1762 C1768 1.492 . S
C1763 C1762 1.404 . S
C1763 C1764 1.396 . S
C1763 C1774 1.492 . S
C1764 C1763 1.396 . S
C1764 C1765 1.397 . S
C1764 C1780 1.509 . S
C1765 C1764 1.397 . S
C1765 C1766 1.412 . S
C1765 C1786 1.485 . S
C1766 C1765 1.412 . S
C1766 C1767 1.388 . S
C1766 C1792 1.490 . S
C1767 C1762 1.397 . S
C1767 C1766 1.388 . S
C1767 C1798 1.519 . S
C1768 C1762 1.492 . S
C1768 C1769 1.363 . S
C1768 C1773 1.390 . S
C1769 H1734 0.930 . S
C1769 C1768 1.363 . S
C1769 C1770 1.372 . S
C1770 H1735 0.930 . S
C1770 C1769 1.372 . S
C1770 C1771 1.383 . S
C1771 C1770 1.383 . S
C1771 C1772 1.395 . S
C1772 H1736 0.930 . S
C1772 C1771 1.395 . S
C1772 C1773 1.362 . S
C1773 H1737 0.930 . S
C1773 C1768 1.390 . S
C1773 C1772 1.362 . S
C1774 C1763 1.492 . S
C1774 C1775 1.377 . S
C1774 C1779 1.397 . S
C1775 H1738 0.931 . S
C1775 C1774 1.377 . S
C1775 C1776 1.376 . S
C1776 H1739 0.930 . S
C1776 C1775 1.376 . S
C1776 C1777 1.376 . S
C1777 C1776 1.376 . S
C1777 C1778 1.378 . S
C1777 C1804 1.486 . S
C1778 H1740 0.930 . S
C1778 C1777 1.378 . S
C1778 C1779 1.376 . S
C1779 H1741 0.929 . S
C1779 C1774 1.397 . S
C1779 C1778 1.376 . S
C1780 C1764 1.509 . S
C1780 C1781 1.391 . S
C1780 C1785 1.386 . S
C1781 H1742 0.930 . S
C1781 C1780 1.391 . S
C1781 C1782 1.375 . S
C1782 H1743 0.931 . S
C1782 C1781 1.375 . S
C1782 C1783 1.375 . S
C1783 C1782 1.375 . S
C1783 C1784 1.361 . S
C1784 H1744 0.930 . S
C1784 C1783 1.361 . S
C1784 C1785 1.399 . S
C1785 H1745 0.929 . S
C1785 C1780 1.386 . S
C1785 C1784 1.399 . S
C1786 C1765 1.485 . S
C1786 C1787 1.394 . S
C1786 C1791 1.360 . S
C1787 H1746 0.931 . S
C1787 C1786 1.394 . S
C1787 C1788 1.372 . S
C1788 H1747 0.930 . S
C1788 C1787 1.372 . S
C1788 C1789 1.397 . S
C1789 C1788 1.397 . S
C1789 C1790 1.390 . S
C1789 C1805 1.476 . S
C1790 H1748 0.930 . S
C1790 C1789 1.390 . S
C1790 C1791 1.366 . S
C1791 H1749 0.932 . S
C1791 C1786 1.360 . S
C1791 C1790 1.366 . S
C1792 C1766 1.490 . S
C1792 C1793 1.380 . S
C1792 C1797 1.386 . S
C1793 H1750 0.930 . S
C1793 C1792 1.380 . S
C1793 C1794 1.381 . S
C1794 H1751 0.929 . S
C1794 C1793 1.381 . S
C1794 C1795 1.371 . S
C1795 C1794 1.371 . S
C1795 C1796 1.380 . S
C1796 H1752 0.931 . S
C1796 C1795 1.380 . S
C1796 C1797 1.387 . S
C1797 H1753 0.930 . S
C1797 C1792 1.386 . S
C1797 C1796 1.387 . S
C1798 C1767 1.519 . S
C1798 C1799 1.377 . S
C1798 C1803 1.361 . S
C1799 H1754 0.929 . S
C1799 C1798 1.377 . S
C1799 C1800 1.386 . S
C1800 H1755 0.931 . S
C1800 C1799 1.386 . S
C1800 C1801 1.363 . S
C1801 C1800 1.363 . S
C1801 C1802 1.385 . S
C1802 H1756 0.930 . S
C1802 C1801 1.385 . S
C1802 C1803 1.396 . S
C1803 H1757 0.929 . S
C1803 C1798 1.361 . S
C1803 C1802 1.396 . S
C1804 O1758 1.300 . S
C1804 O1759 1.209 . S
C1804 C1777 1.486 . S
C1805 O1760 1.199 . S
C1805 O1761 1.297 . S
C1805 C1789 1.476 . S
H1806 O1832 0.856 . S
H1807 O1835 0.854 . S
H1808 C1843 0.930 . S
H1809 C1844 0.930 . S
H1810 C1846 0.930 . S
H1811 C1847 0.930 . S
H1812 C1849 0.931 . S
H1813 C1850 0.930 . S
H1814 C1852 0.930 . S
H1815 C1853 0.929 . S
H1816 C1855 0.930 . S
H1817 C1856 0.931 . S
H1818 C1858 0.930 . S
H1819 C1859 0.929 . S
H1820 C1861 0.931 . S
H1821 C1862 0.930 . S
H1822 C1864 0.930 . S
H1823 C1865 0.932 . S
H1824 C1867 0.930 . S
H1825 C1868 0.929 . S
H1826 C1870 0.931 . S
H1827 C1871 0.930 . S
H1828 C1873 0.929 . S
H1829 C1874 0.931 . S
H1830 C1876 0.930 . S
H1831 C1877 0.929 . S
O1832 H1806 0.856 . S
O1832 C1878 1.300 . S
O1833 C1878 1.209 . S
O1834 C1879 1.199 . S
O1835 H1807 0.854 . S
O1835 C1879 1.297 . S
C1836 C1837 1.404 . S
C1836 C1841 1.397 . S
C1836 C1842 1.492 . S
C1837 C1836 1.404 . S
C1837 C1838 1.396 . S
C1837 C1848 1.492 . S
C1838 C1837 1.396 . S
C1838 C1839 1.397 . S
C1838 C1854 1.509 . S
C1839 C1838 1.397 . S
C1839 C1840 1.412 . S
C1839 C1860 1.485 . S
C1840 C1839 1.412 . S
C1840 C1841 1.388 . S
C1840 C1866 1.490 . S
C1841 C1836 1.397 . S
C1841 C1840 1.388 . S
C1841 C1872 1.519 . S
C1842 C1836 1.492 . S
C1842 C1843 1.363 . S
C1842 C1847 1.390 . S
C1843 H1808 0.930 . S
C1843 C1842 1.363 . S
C1843 C1844 1.372 . S
C1844 H1809 0.930 . S
C1844 C1843 1.372 . S
C1844 C1845 1.383 . S
C1845 C1844 1.383 . S
C1845 C1846 1.395 . S
C1846 H1810 0.930 . S
C1846 C1845 1.395 . S
C1846 C1847 1.362 . S
C1847 H1811 0.930 . S
C1847 C1842 1.390 . S
C1847 C1846 1.362 . S
C1848 C1837 1.492 . S
C1848 C1849 1.377 . S
C1848 C1853 1.397 . S
C1849 H1812 0.931 . S
C1849 C1848 1.377 . S
C1849 C1850 1.376 . S
C1850 H1813 0.930 . S
C1850 C1849 1.376 . S
C1850 C1851 1.376 . S
C1851 C1850 1.376 . S
C1851 C1852 1.378 . S
C1851 C1878 1.486 . S
C1852 H1814 0.930 . S
C1852 C1851 1.378 . S
C1852 C1853 1.376 . S
C1853 H1815 0.929 . S
C1853 C1848 1.397 . S
C1853 C1852 1.376 . S
C1854 C1838 1.509 . S
C1854 C1855 1.391 . S
C1854 C1859 1.386 . S
C1855 H1816 0.930 . S
C1855 C1854 1.391 . S
C1855 C1856 1.375 . S
C1856 H1817 0.931 . S
C1856 C1855 1.375 . S
C1856 C1857 1.375 . S
C1857 C1856 1.375 . S
C1857 C1858 1.361 . S
C1858 H1818 0.930 . S
C1858 C1857 1.361 . S
C1858 C1859 1.399 . S
C1859 H1819 0.929 . S
C1859 C1854 1.386 . S
C1859 C1858 1.399 . S
C1860 C1839 1.485 . S
C1860 C1861 1.394 . S
C1860 C1865 1.360 . S
C1861 H1820 0.931 . S
C1861 C1860 1.394 . S
C1861 C1862 1.372 . S
C1862 H1821 0.930 . S
C1862 C1861 1.372 . S
C1862 C1863 1.397 . S
C1863 C1862 1.397 . S
C1863 C1864 1.390 . S
C1863 C1879 1.476 . S
C1864 H1822 0.930 . S
C1864 C1863 1.390 . S
C1864 C1865 1.366 . S
C1865 H1823 0.932 . S
C1865 C1860 1.360 . S
C1865 C1864 1.366 . S
C1866 C1840 1.490 . S
C1866 C1867 1.380 . S
C1866 C1871 1.386 . S
C1867 H1824 0.930 . S
C1867 C1866 1.380 . S
C1867 C1868 1.381 . S
C1868 H1825 0.929 . S
C1868 C1867 1.381 . S
C1868 C1869 1.371 . S
C1869 C1868 1.371 . S
C1869 C1870 1.380 . S
C1870 H1826 0.931 . S
C1870 C1869 1.380 . S
C1870 C1871 1.387 . S
C1871 H1827 0.930 . S
C1871 C1866 1.386 . S
C1871 C1870 1.387 . S
C1872 C1841 1.519 . S
C1872 C1873 1.377 . S
C1872 C1877 1.361 . S
C1873 H1828 0.929 . S
C1873 C1872 1.377 . S
C1873 C1874 1.386 . S
C1874 H1829 0.931 . S
C1874 C1873 1.386 . S
C1874 C1875 1.363 . S
C1875 C1874 1.363 . S
C1875 C1876 1.385 . S
C1876 H1830 0.930 . S
C1876 C1875 1.385 . S
C1876 C1877 1.396 . S
C1877 H1831 0.929 . S
C1877 C1872 1.361 . S
C1877 C1876 1.396 . S
C1878 O1832 1.300 . S
C1878 O1833 1.209 . S
C1878 C1851 1.486 . S
C1879 O1834 1.199 . S
C1879 O1835 1.297 . S
C1879 C1863 1.476 . S
H1880 O1906 0.856 . S
H1881 O1909 0.854 . S
H1882 C1917 0.930 . S
H1883 C1918 0.930 . S
H1884 C1920 0.930 . S
H1885 C1921 0.930 . S
H1886 C1923 0.931 . S
H1887 C1924 0.930 . S
H1888 C1926 0.930 . S
H1889 C1927 0.929 . S
H1890 C1929 0.930 . S
H1891 C1930 0.931 . S
H1892 C1932 0.930 . S
H1893 C1933 0.929 . S
H1894 C1935 0.931 . S
H1895 C1936 0.930 . S
H1896 C1938 0.930 . S
H1897 C1939 0.932 . S
H1898 C1941 0.930 . S
H1899 C1942 0.929 . S
H1900 C1944 0.931 . S
H1901 C1945 0.930 . S
H1902 C1947 0.929 . S
H1903 C1948 0.931 . S
H1904 C1950 0.930 . S
H1905 C1951 0.929 . S
O1906 H1880 0.856 . S
O1906 C1952 1.300 . S
O1907 C1952 1.209 . S
O1908 C1953 1.199 . S
O1909 H1881 0.854 . S
O1909 C1953 1.297 . S
C1910 C1911 1.404 . S
C1910 C1915 1.397 . S
C1910 C1916 1.492 . S
C1911 C1910 1.404 . S
C1911 C1912 1.396 . S
C1911 C1922 1.492 . S
C1912 C1911 1.396 . S
C1912 C1913 1.397 . S
C1912 C1928 1.509 . S
C1913 C1912 1.397 . S
C1913 C1914 1.412 . S
C1913 C1934 1.485 . S
C1914 C1913 1.412 . S
C1914 C1915 1.388 . S
C1914 C1940 1.490 . S
C1915 C1910 1.397 . S
C1915 C1914 1.388 . S
C1915 C1946 1.519 . S
C1916 C1910 1.492 . S
C1916 C1917 1.363 . S
C1916 C1921 1.390 . S
C1917 H1882 0.930 . S
C1917 C1916 1.363 . S
C1917 C1918 1.372 . S
C1918 H1883 0.930 . S
C1918 C1917 1.372 . S
C1918 C1919 1.383 . S
C1919 C1918 1.383 . S
C1919 C1920 1.395 . S
C1920 H1884 0.930 . S
C1920 C1919 1.395 . S
C1920 C1921 1.362 . S
C1921 H1885 0.930 . S
C1921 C1916 1.390 . S
C1921 C1920 1.362 . S
C1922 C1911 1.492 . S
C1922 C1923 1.377 . S
C1922 C1927 1.397 . S
C1923 H1886 0.931 . S
C1923 C1922 1.377 . S
C1923 C1924 1.376 . S
C1924 H1887 0.930 . S
C1924 C1923 1.376 . S
C1924 C1925 1.376 . S
C1925 C1924 1.376 . S
C1925 C1926 1.378 . S
C1925 C1952 1.486 . S
C1926 H1888 0.930 . S
C1926 C1925 1.378 . S
C1926 C1927 1.376 . S
C1927 H1889 0.929 . S
C1927 C1922 1.397 . S
C1927 C1926 1.376 . S
C1928 C1912 1.509 . S
C1928 C1929 1.391 . S
C1928 C1933 1.386 . S
C1929 H1890 0.930 . S
C1929 C1928 1.391 . S
C1929 C1930 1.375 . S
C1930 H1891 0.931 . S
C1930 C1929 1.375 . S
C1930 C1931 1.375 . S
C1931 C1930 1.375 . S
C1931 C1932 1.361 . S
C1932 H1892 0.930 . S
C1932 C1931 1.361 . S
C1932 C1933 1.399 . S
C1933 H1893 0.929 . S
C1933 C1928 1.386 . S
C1933 C1932 1.399 . S
C1934 C1913 1.485 . S
C1934 C1935 1.394 . S
C1934 C1939 1.360 . S
C1935 H1894 0.931 . S
C1935 C1934 1.394 . S
C1935 C1936 1.372 . S
C1936 H1895 0.930 . S
C1936 C1935 1.372 . S
C1936 C1937 1.397 . S
C1937 C1936 1.397 . S
C1937 C1938 1.390 . S
C1937 C1953 1.476 . S
C1938 H1896 0.930 . S
C1938 C1937 1.390 . S
C1938 C1939 1.366 . S
C1939 H1897 0.932 . S
C1939 C1934 1.360 . S
C1939 C1938 1.366 . S
C1940 C1914 1.490 . S
C1940 C1941 1.380 . S
C1940 C1945 1.386 . S
C1941 H1898 0.930 . S
C1941 C1940 1.380 . S
C1941 C1942 1.381 . S
C1942 H1899 0.929 . S
C1942 C1941 1.381 . S
C1942 C1943 1.371 . S
C1943 C1942 1.371 . S
C1943 C1944 1.380 . S
C1944 H1900 0.931 . S
C1944 C1943 1.380 . S
C1944 C1945 1.387 . S
C1945 H1901 0.930 . S
C1945 C1940 1.386 . S
C1945 C1944 1.387 . S
C1946 C1915 1.519 . S
C1946 C1947 1.377 . S
C1946 C1951 1.361 . S
C1947 H1902 0.929 . S
C1947 C1946 1.377 . S
C1947 C1948 1.386 . S
C1948 H1903 0.931 . S
C1948 C1947 1.386 . S
C1948 C1949 1.363 . S
C1949 C1948 1.363 . S
C1949 C1950 1.385 . S
C1950 H1904 0.930 . S
C1950 C1949 1.385 . S
C1950 C1951 1.396 . S
C1951 H1905 0.929 . S
C1951 C1946 1.361 . S
C1951 C1950 1.396 . S
C1952 O1906 1.300 . S
C1952 O1907 1.209 . S
C1952 C1925 1.486 . S
C1953 O1908 1.199 . S
C1953 O1909 1.297 . S
C1953 C1937 1.476 . S
H1954 O1980 0.856 1_554 S
H1955 O1983 0.854 . S
H1956 C1991 0.930 . S
H1957 C1992 0.930 . S
H1958 C1994 0.930 . S
H1959 C1995 0.930 . S
H1960 C1997 0.931 . S
H1961 C1998 0.930 . S
H1962 C2000 0.930 . S
H1963 C2001 0.929 . S
H1964 C2003 0.930 . S
H1965 C2004 0.931 . S
H1966 C2006 0.930 . S
H1967 C2007 0.929 . S
H1968 C2009 0.931 . S
H1969 C2010 0.930 . S
H1970 C2012 0.930 . S
H1971 C2013 0.932 . S
H1972 C2015 0.930 . S
H1973 C2016 0.929 . S
H1974 C2018 0.931 . S
H1975 C2019 0.930 . S
H1976 C2021 0.929 . S
H1977 C2022 0.931 . S
H1978 C2024 0.930 . S
H1979 C2025 0.929 . S
O1980 H1954 0.856 1_556 S
O1980 C2026 1.300 . S
O1981 C2026 1.209 . S
O1982 C2027 1.199 . S
O1983 H1955 0.854 . S
O1983 C2027 1.297 . S
C1984 C1985 1.404 . S
C1984 C1989 1.397 . S
C1984 C1990 1.492 . S
C1985 C1984 1.404 . S
C1985 C1986 1.396 . S
C1985 C1996 1.492 . S
C1986 C1985 1.396 . S
C1986 C1987 1.397 . S
C1986 C2002 1.509 . S
C1987 C1986 1.397 . S
C1987 C1988 1.412 . S
C1987 C2008 1.485 . S
C1988 C1987 1.412 . S
C1988 C1989 1.388 . S
C1988 C2014 1.490 . S
C1989 C1984 1.397 . S
C1989 C1988 1.388 . S
C1989 C2020 1.519 . S
C1990 C1984 1.492 . S
C1990 C1991 1.363 . S
C1990 C1995 1.390 . S
C1991 H1956 0.930 . S
C1991 C1990 1.363 . S
C1991 C1992 1.372 . S
C1992 H1957 0.930 . S
C1992 C1991 1.372 . S
C1992 C1993 1.383 . S
C1993 C1992 1.383 . S
C1993 C1994 1.395 . S
C1994 H1958 0.930 . S
C1994 C1993 1.395 . S
C1994 C1995 1.362 . S
C1995 H1959 0.930 . S
C1995 C1990 1.390 . S
C1995 C1994 1.362 . S
C1996 C1985 1.492 . S
C1996 C1997 1.377 . S
C1996 C2001 1.397 . S
C1997 H1960 0.931 . S
C1997 C1996 1.377 . S
C1997 C1998 1.376 . S
C1998 H1961 0.930 . S
C1998 C1997 1.376 . S
C1998 C1999 1.376 . S
C1999 C1998 1.376 . S
C1999 C2000 1.378 . S
C1999 C2026 1.486 . S
C2000 H1962 0.930 . S
C2000 C1999 1.378 . S
C2000 C2001 1.376 . S
C2001 H1963 0.929 . S
C2001 C1996 1.397 . S
C2001 C2000 1.376 . S
C2002 C1986 1.509 . S
C2002 C2003 1.391 . S
C2002 C2007 1.386 . S
C2003 H1964 0.930 . S
C2003 C2002 1.391 . S
C2003 C2004 1.375 . S
C2004 H1965 0.931 . S
C2004 C2003 1.375 . S
C2004 C2005 1.375 . S
C2005 C2004 1.375 . S
C2005 C2006 1.361 . S
C2006 H1966 0.930 . S
C2006 C2005 1.361 . S
C2006 C2007 1.399 . S
C2007 H1967 0.929 . S
C2007 C2002 1.386 . S
C2007 C2006 1.399 . S
C2008 C1987 1.485 . S
C2008 C2009 1.394 . S
C2008 C2013 1.360 . S
C2009 H1968 0.931 . S
C2009 C2008 1.394 . S
C2009 C2010 1.372 . S
C2010 H1969 0.930 . S
C2010 C2009 1.372 . S
C2010 C2011 1.397 . S
C2011 C2010 1.397 . S
C2011 C2012 1.390 . S
C2011 C2027 1.476 . S
C2012 H1970 0.930 . S
C2012 C2011 1.390 . S
C2012 C2013 1.366 . S
C2013 H1971 0.932 . S
C2013 C2008 1.360 . S
C2013 C2012 1.366 . S
C2014 C1988 1.490 . S
C2014 C2015 1.380 . S
C2014 C2019 1.386 . S
C2015 H1972 0.930 . S
C2015 C2014 1.380 . S
C2015 C2016 1.381 . S
C2016 H1973 0.929 . S
C2016 C2015 1.381 . S
C2016 C2017 1.371 . S
C2017 C2016 1.371 . S
C2017 C2018 1.380 . S
C2018 H1974 0.931 . S
C2018 C2017 1.380 . S
C2018 C2019 1.387 . S
C2019 H1975 0.930 . S
C2019 C2014 1.386 . S
C2019 C2018 1.387 . S
C2020 C1989 1.519 . S
C2020 C2021 1.377 . S
C2020 C2025 1.361 . S
C2021 H1976 0.929 . S
C2021 C2020 1.377 . S
C2021 C2022 1.386 . S
C2022 H1977 0.931 . S
C2022 C2021 1.386 . S
C2022 C2023 1.363 . S
C2023 C2022 1.363 . S
C2023 C2024 1.385 . S
C2024 H1978 0.930 . S
C2024 C2023 1.385 . S
C2024 C2025 1.396 . S
C2025 H1979 0.929 . S
C2025 C2020 1.361 . S
C2025 C2024 1.396 . S
C2026 O1980 1.300 . S
C2026 O1981 1.209 . S
C2026 C1999 1.486 . S
C2027 O1982 1.199 . S
C2027 O1983 1.297 . S
C2027 C2011 1.476 . S
H2028 O2054 0.856 . S
H2029 O2057 0.854 . S
H2030 C2065 0.930 . S
H2031 C2066 0.930 . S
H2032 C2068 0.930 . S
H2033 C2069 0.930 . S
H2034 C2071 0.931 . S
H2035 C2072 0.930 . S
H2036 C2074 0.930 . S
H2037 C2075 0.929 . S
H2038 C2077 0.930 . S
H2039 C2078 0.931 . S
H2040 C2080 0.930 . S
H2041 C2081 0.929 . S
H2042 C2083 0.931 . S
H2043 C2084 0.930 . S
H2044 C2086 0.930 . S
H2045 C2087 0.932 . S
H2046 C2089 0.930 . S
H2047 C2090 0.929 . S
H2048 C2092 0.931 . S
H2049 C2093 0.930 . S
H2050 C2095 0.929 . S
H2051 C2096 0.931 . S
H2052 C2098 0.930 . S
H2053 C2099 0.929 . S
O2054 H2028 0.856 . S
O2054 C2100 1.300 . S
O2055 C2100 1.209 . S
O2056 C2101 1.199 . S
O2057 H2029 0.854 . S
O2057 C2101 1.297 . S
C2058 C2059 1.404 . S
C2058 C2063 1.397 . S
C2058 C2064 1.492 . S
C2059 C2058 1.404 . S
C2059 C2060 1.396 . S
C2059 C2070 1.492 . S
C2060 C2059 1.396 . S
C2060 C2061 1.397 . S
C2060 C2076 1.509 . S
C2061 C2060 1.397 . S
C2061 C2062 1.412 . S
C2061 C2082 1.485 . S
C2062 C2061 1.412 . S
C2062 C2063 1.388 . S
C2062 C2088 1.490 . S
C2063 C2058 1.397 . S
C2063 C2062 1.388 . S
C2063 C2094 1.519 . S
C2064 C2058 1.492 . S
C2064 C2065 1.363 . S
C2064 C2069 1.390 . S
C2065 H2030 0.930 . S
C2065 C2064 1.363 . S
C2065 C2066 1.372 . S
C2066 H2031 0.930 . S
C2066 C2065 1.372 . S
C2066 C2067 1.383 . S
C2067 C2066 1.383 . S
C2067 C2068 1.395 . S
C2068 H2032 0.930 . S
C2068 C2067 1.395 . S
C2068 C2069 1.362 . S
C2069 H2033 0.930 . S
C2069 C2064 1.390 . S
C2069 C2068 1.362 . S
C2070 C2059 1.492 . S
C2070 C2071 1.377 . S
C2070 C2075 1.397 . S
C2071 H2034 0.931 . S
C2071 C2070 1.377 . S
C2071 C2072 1.376 . S
C2072 H2035 0.930 . S
C2072 C2071 1.376 . S
C2072 C2073 1.376 . S
C2073 C2072 1.376 . S
C2073 C2074 1.378 . S
C2073 C2100 1.486 . S
C2074 H2036 0.930 . S
C2074 C2073 1.378 . S
C2074 C2075 1.376 . S
C2075 H2037 0.929 . S
C2075 C2070 1.397 . S
C2075 C2074 1.376 . S
C2076 C2060 1.509 . S
C2076 C2077 1.391 . S
C2076 C2081 1.386 . S
C2077 H2038 0.930 . S
C2077 C2076 1.391 . S
C2077 C2078 1.375 . S
C2078 H2039 0.931 . S
C2078 C2077 1.375 . S
C2078 C2079 1.375 . S
C2079 C2078 1.375 . S
C2079 C2080 1.361 . S
C2080 H2040 0.930 . S
C2080 C2079 1.361 . S
C2080 C2081 1.399 . S
C2081 H2041 0.929 . S
C2081 C2076 1.386 . S
C2081 C2080 1.399 . S
C2082 C2061 1.485 . S
C2082 C2083 1.394 . S
C2082 C2087 1.360 . S
C2083 H2042 0.931 . S
C2083 C2082 1.394 . S
C2083 C2084 1.372 . S
C2084 H2043 0.930 . S
C2084 C2083 1.372 . S
C2084 C2085 1.397 . S
C2085 C2084 1.397 . S
C2085 C2086 1.390 . S
C2085 C2101 1.476 . S
C2086 H2044 0.930 . S
C2086 C2085 1.390 . S
C2086 C2087 1.366 . S
C2087 H2045 0.932 . S
C2087 C2082 1.360 . S
C2087 C2086 1.366 . S
C2088 C2062 1.490 . S
C2088 C2089 1.380 . S
C2088 C2093 1.386 . S
C2089 H2046 0.930 . S
C2089 C2088 1.380 . S
C2089 C2090 1.381 . S
C2090 H2047 0.929 . S
C2090 C2089 1.381 . S
C2090 C2091 1.371 . S
C2091 C2090 1.371 . S
C2091 C2092 1.380 . S
C2092 H2048 0.931 . S
C2092 C2091 1.380 . S
C2092 C2093 1.387 . S
C2093 H2049 0.930 . S
C2093 C2088 1.386 . S
C2093 C2092 1.387 . S
C2094 C2063 1.519 . S
C2094 C2095 1.377 . S
C2094 C2099 1.361 . S
C2095 H2050 0.929 . S
C2095 C2094 1.377 . S
C2095 C2096 1.386 . S
C2096 H2051 0.931 . S
C2096 C2095 1.386 . S
C2096 C2097 1.363 . S
C2097 C2096 1.363 . S
C2097 C2098 1.385 . S
C2098 H2052 0.930 . S
C2098 C2097 1.385 . S
C2098 C2099 1.396 . S
C2099 H2053 0.929 . S
C2099 C2094 1.361 . S
C2099 C2098 1.396 . S
C2100 O2054 1.300 . S
C2100 O2055 1.209 . S
C2100 C2073 1.486 . S
C2101 O2056 1.199 . S
C2101 O2057 1.297 . S
C2101 C2085 1.476 . S
H2102 O2128 0.856 . S
H2103 O2131 0.854 . S
H2104 C2139 0.930 . S
H2105 C2140 0.930 . S
H2106 C2142 0.930 . S
H2107 C2143 0.930 . S
H2108 C2145 0.931 . S
H2109 C2146 0.930 . S
H2110 C2148 0.930 . S
H2111 C2149 0.929 . S
H2112 C2151 0.930 . S
H2113 C2152 0.931 . S
H2114 C2154 0.930 . S
H2115 C2155 0.929 . S
H2116 C2157 0.931 . S
H2117 C2158 0.930 . S
H2118 C2160 0.930 . S
H2119 C2161 0.932 . S
H2120 C2163 0.930 . S
H2121 C2164 0.929 . S
H2122 C2166 0.931 . S
H2123 C2167 0.930 . S
H2124 C2169 0.929 . S
H2125 C2170 0.931 . S
H2126 C2172 0.930 . S
H2127 C2173 0.929 . S
O2128 H2102 0.856 . S
O2128 C2174 1.300 . S
O2129 C2174 1.209 . S
O2130 C2175 1.199 . S
O2131 H2103 0.854 . S
O2131 C2175 1.297 . S
C2132 C2133 1.404 . S
C2132 C2137 1.397 . S
C2132 C2138 1.492 . S
C2133 C2132 1.404 . S
C2133 C2134 1.396 . S
C2133 C2144 1.492 . S
C2134 C2133 1.396 . S
C2134 C2135 1.397 . S
C2134 C2150 1.509 . S
C2135 C2134 1.397 . S
C2135 C2136 1.412 . S
C2135 C2156 1.485 . S
C2136 C2135 1.412 . S
C2136 C2137 1.388 . S
C2136 C2162 1.490 . S
C2137 C2132 1.397 . S
C2137 C2136 1.388 . S
C2137 C2168 1.519 . S
C2138 C2132 1.492 . S
C2138 C2139 1.363 . S
C2138 C2143 1.390 . S
C2139 H2104 0.930 . S
C2139 C2138 1.363 . S
C2139 C2140 1.372 . S
C2140 H2105 0.930 . S
C2140 C2139 1.372 . S
C2140 C2141 1.383 . S
C2141 C2140 1.383 . S
C2141 C2142 1.395 . S
C2142 H2106 0.930 . S
C2142 C2141 1.395 . S
C2142 C2143 1.362 . S
C2143 H2107 0.930 . S
C2143 C2138 1.390 . S
C2143 C2142 1.362 . S
C2144 C2133 1.492 . S
C2144 C2145 1.377 . S
C2144 C2149 1.397 . S
C2145 H2108 0.931 . S
C2145 C2144 1.377 . S
C2145 C2146 1.376 . S
C2146 H2109 0.930 . S
C2146 C2145 1.376 . S
C2146 C2147 1.376 . S
C2147 C2146 1.376 . S
C2147 C2148 1.378 . S
C2147 C2174 1.486 . S
C2148 H2110 0.930 . S
C2148 C2147 1.378 . S
C2148 C2149 1.376 . S
C2149 H2111 0.929 . S
C2149 C2144 1.397 . S
C2149 C2148 1.376 . S
C2150 C2134 1.509 . S
C2150 C2151 1.391 . S
C2150 C2155 1.386 . S
C2151 H2112 0.930 . S
C2151 C2150 1.391 . S
C2151 C2152 1.375 . S
C2152 H2113 0.931 . S
C2152 C2151 1.375 . S
C2152 C2153 1.375 . S
C2153 C2152 1.375 . S
C2153 C2154 1.361 . S
C2154 H2114 0.930 . S
C2154 C2153 1.361 . S
C2154 C2155 1.399 . S
C2155 H2115 0.929 . S
C2155 C2150 1.386 . S
C2155 C2154 1.399 . S
C2156 C2135 1.485 . S
C2156 C2157 1.394 . S
C2156 C2161 1.360 . S
C2157 H2116 0.931 . S
C2157 C2156 1.394 . S
C2157 C2158 1.372 . S
C2158 H2117 0.930 . S
C2158 C2157 1.372 . S
C2158 C2159 1.397 . S
C2159 C2158 1.397 . S
C2159 C2160 1.390 . S
C2159 C2175 1.476 . S
C2160 H2118 0.930 . S
C2160 C2159 1.390 . S
C2160 C2161 1.366 . S
C2161 H2119 0.932 . S
C2161 C2156 1.360 . S
C2161 C2160 1.366 . S
C2162 C2136 1.490 . S
C2162 C2163 1.380 . S
C2162 C2167 1.386 . S
C2163 H2120 0.930 . S
C2163 C2162 1.380 . S
C2163 C2164 1.381 . S
C2164 H2121 0.929 . S
C2164 C2163 1.381 . S
C2164 C2165 1.371 . S
C2165 C2164 1.371 . S
C2165 C2166 1.380 . S
C2166 H2122 0.931 . S
C2166 C2165 1.380 . S
C2166 C2167 1.387 . S
C2167 H2123 0.930 . S
C2167 C2162 1.386 . S
C2167 C2166 1.387 . S
C2168 C2137 1.519 . S
C2168 C2169 1.377 . S
C2168 C2173 1.361 . S
C2169 H2124 0.929 . S
C2169 C2168 1.377 . S
C2169 C2170 1.386 . S
C2170 H2125 0.931 . S
C2170 C2169 1.386 . S
C2170 C2171 1.363 . S
C2171 C2170 1.363 . S
C2171 C2172 1.385 . S
C2172 H2126 0.930 . S
C2172 C2171 1.385 . S
C2172 C2173 1.396 . S
C2173 H2127 0.929 . S
C2173 C2168 1.361 . S
C2173 C2172 1.396 . S
C2174 O2128 1.300 . S
C2174 O2129 1.209 . S
C2174 C2147 1.486 . S
C2175 O2130 1.199 . S
C2175 O2131 1.297 . S
C2175 C2159 1.476 . S
H2176 O2202 0.856 . S
H2177 O2205 0.854 . S
H2178 C2213 0.930 . S
H2179 C2214 0.930 . S
H2180 C2216 0.930 . S
H2181 C2217 0.930 . S
H2182 C2219 0.931 . S
H2183 C2220 0.930 . S
H2184 C2222 0.930 . S
H2185 C2223 0.929 . S
H2186 C2225 0.930 . S
H2187 C2226 0.931 . S
H2188 C2228 0.930 . S
H2189 C2229 0.929 . S
H2190 C2231 0.931 . S
H2191 C2232 0.930 . S
H2192 C2234 0.930 . S
H2193 C2235 0.932 . S
H2194 C2237 0.930 . S
H2195 C2238 0.929 . S
H2196 C2240 0.931 . S
H2197 C2241 0.930 . S
H2198 C2243 0.929 . S
H2199 C2244 0.931 . S
H2200 C2246 0.930 . S
H2201 C2247 0.929 . S
O2202 H2176 0.856 . S
O2202 C2248 1.300 . S
O2203 C2248 1.209 . S
O2204 C2249 1.199 . S
O2205 H2177 0.854 . S
O2205 C2249 1.297 . S
C2206 C2207 1.404 . S
C2206 C2211 1.397 . S
C2206 C2212 1.492 . S
C2207 C2206 1.404 . S
C2207 C2208 1.396 . S
C2207 C2218 1.492 . S
C2208 C2207 1.396 . S
C2208 C2209 1.397 . S
C2208 C2224 1.509 . S
C2209 C2208 1.397 . S
C2209 C2210 1.412 . S
C2209 C2230 1.485 . S
C2210 C2209 1.412 . S
C2210 C2211 1.388 . S
C2210 C2236 1.490 . S
C2211 C2206 1.397 . S
C2211 C2210 1.388 . S
C2211 C2242 1.519 . S
C2212 C2206 1.492 . S
C2212 C2213 1.363 . S
C2212 C2217 1.390 . S
C2213 H2178 0.930 . S
C2213 C2212 1.363 . S
C2213 C2214 1.372 . S
C2214 H2179 0.930 . S
C2214 C2213 1.372 . S
C2214 C2215 1.383 . S
C2215 C2214 1.383 . S
C2215 C2216 1.395 . S
C2216 H2180 0.930 . S
C2216 C2215 1.395 . S
C2216 C2217 1.362 . S
C2217 H2181 0.930 . S
C2217 C2212 1.390 . S
C2217 C2216 1.362 . S
C2218 C2207 1.492 . S
C2218 C2219 1.377 . S
C2218 C2223 1.397 . S
C2219 H2182 0.931 . S
C2219 C2218 1.377 . S
C2219 C2220 1.376 . S
C2220 H2183 0.930 . S
C2220 C2219 1.376 . S
C2220 C2221 1.376 . S
C2221 C2220 1.376 . S
C2221 C2222 1.378 . S
C2221 C2248 1.486 . S
C2222 H2184 0.930 . S
C2222 C2221 1.378 . S
C2222 C2223 1.376 . S
C2223 H2185 0.929 . S
C2223 C2218 1.397 . S
C2223 C2222 1.376 . S
C2224 C2208 1.509 . S
C2224 C2225 1.391 . S
C2224 C2229 1.386 . S
C2225 H2186 0.930 . S
C2225 C2224 1.391 . S
C2225 C2226 1.375 . S
C2226 H2187 0.931 . S
C2226 C2225 1.375 . S
C2226 C2227 1.375 . S
C2227 C2226 1.375 . S
C2227 C2228 1.361 . S
C2228 H2188 0.930 . S
C2228 C2227 1.361 . S
C2228 C2229 1.399 . S
C2229 H2189 0.929 . S
C2229 C2224 1.386 . S
C2229 C2228 1.399 . S
C2230 C2209 1.485 . S
C2230 C2231 1.394 . S
C2230 C2235 1.360 . S
C2231 H2190 0.931 . S
C2231 C2230 1.394 . S
C2231 C2232 1.372 . S
C2232 H2191 0.930 . S
C2232 C2231 1.372 . S
C2232 C2233 1.397 . S
C2233 C2232 1.397 . S
C2233 C2234 1.390 . S
C2233 C2249 1.476 . S
C2234 H2192 0.930 . S
C2234 C2233 1.390 . S
C2234 C2235 1.366 . S
C2235 H2193 0.932 . S
C2235 C2230 1.360 . S
C2235 C2234 1.366 . S
C2236 C2210 1.490 . S
C2236 C2237 1.380 . S
C2236 C2241 1.386 . S
C2237 H2194 0.930 . S
C2237 C2236 1.380 . S
C2237 C2238 1.381 . S
C2238 H2195 0.929 . S
C2238 C2237 1.381 . S
C2238 C2239 1.371 . S
C2239 C2238 1.371 . S
C2239 C2240 1.380 . S
C2240 H2196 0.931 . S
C2240 C2239 1.380 . S
C2240 C2241 1.387 . S
C2241 H2197 0.930 . S
C2241 C2236 1.386 . S
C2241 C2240 1.387 . S
C2242 C2211 1.519 . S
C2242 C2243 1.377 . S
C2242 C2247 1.361 . S
C2243 H2198 0.929 . S
C2243 C2242 1.377 . S
C2243 C2244 1.386 . S
C2244 H2199 0.931 . S
C2244 C2243 1.386 . S
C2244 C2245 1.363 . S
C2245 C2244 1.363 . S
C2245 C2246 1.385 . S
C2246 H2200 0.930 . S
C2246 C2245 1.385 . S
C2246 C2247 1.396 . S
C2247 H2201 0.929 . S
C2247 C2242 1.361 . S
C2247 C2246 1.396 . S
C2248 O2202 1.300 . S
C2248 O2203 1.209 . S
C2248 C2221 1.486 . S
C2249 O2204 1.199 . S
C2249 O2205 1.297 . S
C2249 C2233 1.476 . S
H2250 O2276 0.856 . S
H2251 O2279 0.854 . S
H2252 C2287 0.930 . S
H2253 C2288 0.930 . S
H2254 C2290 0.930 . S
H2255 C2291 0.930 . S
H2256 C2293 0.931 . S
H2257 C2294 0.888 1_655 S
H2258 C2296 0.930 . S
H2259 C2297 0.929 . S
H2260 C2299 0.930 . S
H2261 C2300 0.915 1_655 S
H2262 C2302 0.930 . S
H2263 C2303 0.929 . S
H2264 C2305 0.931 . S
H2265 C2306 0.930 . S
H2266 C2308 0.930 . S
H2267 C2309 0.932 . S
H2268 C2311 0.930 . S
H2269 C2312 0.929 . S
H2270 C2314 0.931 . S
H2271 C2315 0.930 . S
H2272 C2317 0.929 . S
H2273 C2318 0.931 . S
H2274 C2320 0.930 . S
H2275 C2321 0.929 . S
O2276 H2250 0.856 . S
O2276 C2322 1.300 . S
O2277 C2322 1.209 . S
O2278 C2323 1.199 1_655 S
O2279 H2251 0.854 . S
O2279 C2323 1.297 . S
C2280 C2281 1.404 . S
C2280 C2285 1.395 . S
C2280 C2286 1.492 . S
C2281 C2280 1.404 . S
C2281 C2282 1.396 . S
C2281 C2292 1.492 . S
C2282 C2281 1.396 . S
C2282 C2283 1.397 . S
C2282 C2298 1.509 . S
C2283 C2282 1.397 . S
C2283 C2284 1.424 . S
C2283 C2304 1.485 . S
C2284 C2283 1.424 . S
C2284 C2285 1.404 . S
C2284 C2310 1.490 1_455 S
C2285 C2280 1.395 . S
C2285 C2284 1.404 . S
C2285 C2316 1.491 1_455 S
C2286 C2280 1.492 . S
C2286 C2287 1.363 1_455 S
C2286 C2291 1.390 . S
C2287 H2252 0.930 . S
C2287 C2286 1.363 1_655 S
C2287 C2288 1.372 . S
C2288 H2253 0.930 . S
C2288 C2287 1.372 . S
C2288 C2289 1.383 . S
C2289 C2288 1.383 . S
C2289 C2290 1.395 1_655 S
C2290 H2254 0.930 . S
C2290 C2289 1.395 1_455 S
C2290 C2291 1.362 . S
C2291 H2255 0.930 . S
C2291 C2286 1.390 . S
C2291 C2290 1.362 . S
C2292 C2281 1.492 . S
C2292 C2293 1.377 1_455 S
C2292 C2297 1.397 . S
C2293 H2256 0.931 . S
C2293 C2292 1.377 1_655 S
C2293 C2294 1.385 1_655 S
C2294 H2257 0.888 1_455 S
C2294 C2293 1.385 1_455 S
C2294 C2295 1.419 . S
C2295 C2294 1.419 . S
C2295 C2296 1.378 . S
C2295 C2322 1.486 . S
C2296 H2258 0.930 . S
C2296 C2295 1.378 . S
C2296 C2297 1.376 . S
C2297 H2259 0.929 . S
C2297 C2292 1.397 . S
C2297 C2296 1.376 . S
C2298 C2282 1.509 . S
C2298 C2299 1.391 1_455 S
C2298 C2303 1.386 . S
C2299 H2260 0.930 . S
C2299 C2298 1.391 1_655 S
C2299 C2300 1.352 1_655 S
C2300 H2261 0.915 1_455 S
C2300 C2299 1.352 1_455 S
C2300 C2301 1.415 . S
C2301 C2300 1.415 . S
C2301 C2302 1.361 . S
C2302 H2262 0.930 . S
C2302 C2301 1.361 . S
C2302 C2303 1.399 . S
C2303 H2263 0.929 . S
C2303 C2298 1.386 . S
C2303 C2302 1.399 . S
C2304 C2283 1.485 . S
C2304 C2305 1.394 1_455 S
C2304 C2309 1.360 . S
C2305 H2264 0.931 . S
C2305 C2304 1.394 1_655 S
C2305 C2306 1.372 . S
C2306 H2265 0.930 . S
C2306 C2305 1.372 . S
C2306 C2307 1.397 1_655 S
C2307 C2306 1.397 1_455 S
C2307 C2308 1.390 . S
C2307 C2323 1.476 . S
C2308 H2266 0.930 . S
C2308 C2307 1.390 . S
C2308 C2309 1.366 . S
C2309 H2267 0.932 . S
C2309 C2304 1.360 . S
C2309 C2308 1.366 . S
C2310 C2284 1.490 1_655 S
C2310 C2311 1.380 . S
C2310 C2315 1.386 1_655 S
C2311 H2268 0.930 . S
C2311 C2310 1.380 . S
C2311 C2312 1.381 . S
C2312 H2269 0.929 . S
C2312 C2311 1.381 . S
C2312 C2313 1.371 . S
C2313 C2312 1.371 . S
C2313 C2314 1.380 1_655 S
C2314 H2270 0.931 . S
C2314 C2313 1.380 1_455 S
C2314 C2315 1.387 . S
C2315 H2271 0.930 . S
C2315 C2310 1.386 1_455 S
C2315 C2314 1.387 . S
C2316 C2285 1.491 1_655 S
C2316 C2317 1.400 . S
C2316 C2321 1.346 1_655 S
C2317 H2272 0.929 . S
C2317 C2316 1.400 . S
C2317 C2318 1.386 . S
C2318 H2273 0.931 . S
C2318 C2317 1.386 . S
C2318 C2319 1.372 . S
C2319 C2318 1.372 . S
C2319 C2320 1.371 1_655 S
C2320 H2274 0.930 . S
C2320 C2319 1.371 1_455 S
C2320 C2321 1.396 . S
C2321 H2275 0.929 . S
C2321 C2316 1.346 1_455 S
C2321 C2320 1.396 . S
C2322 O2276 1.300 . S
C2322 O2277 1.209 . S
C2322 C2295 1.486 . S
C2323 O2278 1.199 1_455 S
C2323 O2279 1.297 . S
C2323 C2307 1.476 . S
H2324 O2350 0.856 . S
H2325 O2353 0.854 . S
H2326 C2361 0.930 . S
H2327 C2362 0.930 . S
H2328 C2364 0.930 . S
H2329 C2365 0.930 . S
H2330 C2367 0.931 . S
H2331 C2368 0.930 . S
H2332 C2370 0.930 . S
H2333 C2371 0.929 . S
H2334 C2373 0.930 . S
H2335 C2374 0.931 . S
H2336 C2376 0.930 . S
H2337 C2377 0.929 . S
H2338 C2379 0.931 . S
H2339 C2380 0.930 . S
H2340 C2382 0.930 . S
H2341 C2383 0.932 . S
H2342 C2385 0.930 . S
H2343 C2386 0.929 . S
H2344 C2388 0.931 . S
H2345 C2389 0.930 . S
H2346 C2391 0.929 . S
H2347 C2392 0.931 . S
H2348 C2394 0.930 . S
H2349 C2395 0.929 . S
O2350 H2324 0.856 . S
O2350 C2396 1.300 . S
O2351 C2396 1.209 . S
O2352 C2397 1.199 . S
O2353 H2325 0.854 . S
O2353 C2397 1.297 . S
C2354 C2355 1.404 . S
C2354 C2359 1.397 . S
C2354 C2360 1.492 . S
C2355 C2354 1.404 . S
C2355 C2356 1.396 . S
C2355 C2366 1.492 . S
C2356 C2355 1.396 . S
C2356 C2357 1.397 . S
C2356 C2372 1.509 . S
C2357 C2356 1.397 . S
C2357 C2358 1.412 . S
C2357 C2378 1.485 . S
C2358 C2357 1.412 . S
C2358 C2359 1.388 . S
C2358 C2384 1.490 . S
C2359 C2354 1.397 . S
C2359 C2358 1.388 . S
C2359 C2390 1.519 . S
C2360 C2354 1.492 . S
C2360 C2361 1.363 . S
C2360 C2365 1.390 . S
C2361 H2326 0.930 . S
C2361 C2360 1.363 . S
C2361 C2362 1.372 . S
C2362 H2327 0.930 . S
C2362 C2361 1.372 . S
C2362 C2363 1.383 . S
C2363 C2362 1.383 . S
C2363 C2364 1.395 . S
C2364 H2328 0.930 . S
C2364 C2363 1.395 . S
C2364 C2365 1.362 . S
C2365 H2329 0.930 . S
C2365 C2360 1.390 . S
C2365 C2364 1.362 . S
C2366 C2355 1.492 . S
C2366 C2367 1.377 . S
C2366 C2371 1.397 . S
C2367 H2330 0.931 . S
C2367 C2366 1.377 . S
C2367 C2368 1.376 . S
C2368 H2331 0.930 . S
C2368 C2367 1.376 . S
C2368 C2369 1.376 . S
C2369 C2368 1.376 . S
C2369 C2370 1.378 . S
C2369 C2396 1.486 . S
C2370 H2332 0.930 . S
C2370 C2369 1.378 . S
C2370 C2371 1.376 . S
C2371 H2333 0.929 . S
C2371 C2366 1.397 . S
C2371 C2370 1.376 . S
C2372 C2356 1.509 . S
C2372 C2373 1.391 . S
C2372 C2377 1.386 . S
C2373 H2334 0.930 . S
C2373 C2372 1.391 . S
C2373 C2374 1.375 . S
C2374 H2335 0.931 . S
C2374 C2373 1.375 . S
C2374 C2375 1.375 . S
C2375 C2374 1.375 . S
C2375 C2376 1.361 . S
C2376 H2336 0.930 . S
C2376 C2375 1.361 . S
C2376 C2377 1.399 . S
C2377 H2337 0.929 . S
C2377 C2372 1.386 . S
C2377 C2376 1.399 . S
C2378 C2357 1.485 . S
C2378 C2379 1.394 . S
C2378 C2383 1.360 . S
C2379 H2338 0.931 . S
C2379 C2378 1.394 . S
C2379 C2380 1.372 . S
C2380 H2339 0.930 . S
C2380 C2379 1.372 . S
C2380 C2381 1.397 . S
C2381 C2380 1.397 . S
C2381 C2382 1.390 . S
C2381 C2397 1.476 . S
C2382 H2340 0.930 . S
C2382 C2381 1.390 . S
C2382 C2383 1.366 . S
C2383 H2341 0.932 . S
C2383 C2378 1.360 . S
C2383 C2382 1.366 . S
C2384 C2358 1.490 . S
C2384 C2385 1.380 . S
C2384 C2389 1.386 . S
C2385 H2342 0.930 . S
C2385 C2384 1.380 . S
C2385 C2386 1.381 . S
C2386 H2343 0.929 . S
C2386 C2385 1.381 . S
C2386 C2387 1.371 . S
C2387 C2386 1.371 . S
C2387 C2388 1.380 . S
C2388 H2344 0.931 . S
C2388 C2387 1.380 . S
C2388 C2389 1.387 . S
C2389 H2345 0.930 . S
C2389 C2384 1.386 . S
C2389 C2388 1.387 . S
C2390 C2359 1.519 . S
C2390 C2391 1.377 . S
C2390 C2395 1.361 . S
C2391 H2346 0.929 . S
C2391 C2390 1.377 . S
C2391 C2392 1.386 . S
C2392 H2347 0.931 . S
C2392 C2391 1.386 . S
C2392 C2393 1.363 . S
C2393 C2392 1.363 . S
C2393 C2394 1.385 . S
C2394 H2348 0.930 . S
C2394 C2393 1.385 . S
C2394 C2395 1.396 . S
C2395 H2349 0.929 . S
C2395 C2390 1.361 . S
C2395 C2394 1.396 . S
C2396 O2350 1.300 . S
C2396 O2351 1.209 . S
C2396 C2369 1.486 . S
C2397 O2352 1.199 . S
C2397 O2353 1.297 . S
C2397 C2381 1.476 . S
H2398 O2424 0.856 . S
H2399 O2427 0.854 . S
H2400 C2435 0.930 . S
H2401 C2436 0.930 . S
H2402 C2438 0.930 . S
H2403 C2439 0.930 . S
H2404 C2441 0.931 . S
H2405 C2442 0.942 . S
H2406 C2444 0.930 . S
H2407 C2445 0.929 . S
H2408 C2447 0.930 . S
H2409 C2448 1.013 . S
H2410 C2450 0.930 . S
H2411 C2451 0.929 . S
H2412 C2453 0.931 . S
H2413 C2454 0.930 . S
H2414 C2456 0.930 . S
H2415 C2457 0.932 . S
H2416 C2459 0.930 . S
H2417 C2460 0.929 . S
H2418 C2462 0.931 . S
H2419 C2463 0.930 . S
H2420 C2465 0.929 . S
H2421 C2466 0.931 . S
H2422 C2468 0.930 . S
H2423 C2469 0.929 . S
O2424 H2398 0.856 . S
O2424 C2470 1.300 . S
O2425 C2470 1.209 . S
O2426 C2471 1.199 1_545 S
O2427 H2399 0.854 . S
O2427 C2471 1.297 . S
C2428 C2429 1.404 . S
C2428 C2433 1.413 . S
C2428 C2434 1.492 . S
C2429 C2428 1.404 . S
C2429 C2430 1.396 . S
C2429 C2440 1.492 . S
C2430 C2429 1.396 . S
C2430 C2431 1.397 . S
C2430 C2446 1.509 . S
C2431 C2430 1.397 . S
C2431 C2432 1.410 . S
C2431 C2452 1.485 . S
C2432 C2431 1.410 . S
C2432 C2433 1.369 . S
C2432 C2458 1.487 1_565 S
C2433 C2428 1.413 . S
C2433 C2432 1.369 . S
C2433 C2464 1.532 1_565 S
C2434 C2428 1.492 . S
C2434 C2435 1.363 1_565 S
C2434 C2439 1.390 . S
C2435 H2400 0.930 . S
C2435 C2434 1.363 1_545 S
C2435 C2436 1.372 . S
C2436 H2401 0.930 . S
C2436 C2435 1.372 . S
C2436 C2437 1.383 . S
C2437 C2436 1.383 . S
C2437 C2438 1.395 1_545 S
C2438 H2402 0.930 . S
C2438 C2437 1.395 1_565 S
C2438 C2439 1.362 . S
C2439 H2403 0.930 . S
C2439 C2434 1.390 . S
C2439 C2438 1.362 . S
C2440 C2429 1.492 . S
C2440 C2441 1.377 1_565 S
C2440 C2445 1.397 . S
C2441 H2404 0.931 . S
C2441 C2440 1.377 1_545 S
C2441 C2442 1.382 . S
C2442 H2405 0.942 . S
C2442 C2441 1.382 . S
C2442 C2443 1.358 1_545 S
C2443 C2442 1.358 1_565 S
C2443 C2444 1.378 . S
C2443 C2470 1.486 . S
C2444 H2406 0.930 . S
C2444 C2443 1.378 . S
C2444 C2445 1.376 . S
C2445 H2407 0.929 . S
C2445 C2440 1.397 . S
C2445 C2444 1.376 . S
C2446 C2430 1.509 . S
C2446 C2447 1.391 1_565 S
C2446 C2451 1.386 . S
C2447 H2408 0.930 . S
C2447 C2446 1.391 1_545 S
C2447 C2448 1.363 . S
C2448 H2409 1.013 . S
C2448 C2447 1.363 . S
C2448 C2449 1.312 1_545 S
C2449 C2448 1.312 1_565 S
C2449 C2450 1.361 . S
C2450 H2410 0.930 . S
C2450 C2449 1.361 . S
C2450 C2451 1.399 . S
C2451 H2411 0.929 . S
C2451 C2446 1.386 . S
C2451 C2450 1.399 . S
C2452 C2431 1.485 . S
C2452 C2453 1.394 1_565 S
C2452 C2457 1.360 . S
C2453 H2412 0.931 . S
C2453 C2452 1.394 1_545 S
C2453 C2454 1.372 . S
C2454 H2413 0.930 . S
C2454 C2453 1.372 . S
C2454 C2455 1.397 1_545 S
C2455 C2454 1.397 1_565 S
C2455 C2456 1.390 . S
C2455 C2471 1.476 . S
C2456 H2414 0.930 . S
C2456 C2455 1.390 . S
C2456 C2457 1.366 . S
C2457 H2415 0.932 . S
C2457 C2452 1.360 . S
C2457 C2456 1.366 . S
C2458 C2432 1.487 1_545 S
C2458 C2459 1.380 . S
C2458 C2463 1.386 1_545 S
C2459 H2416 0.930 . S
C2459 C2458 1.380 . S
C2459 C2460 1.381 . S
C2460 H2417 0.929 . S
C2460 C2459 1.381 . S
C2460 C2461 1.371 . S
C2461 C2460 1.371 . S
C2461 C2462 1.380 1_545 S
C2462 H2418 0.931 . S
C2462 C2461 1.380 1_565 S
C2462 C2463 1.387 . S
C2463 H2419 0.930 . S
C2463 C2458 1.386 1_565 S
C2463 C2462 1.387 . S
C2464 C2433 1.532 1_545 S
C2464 C2465 1.374 . S
C2464 C2469 1.366 1_545 S
C2465 H2420 0.929 . S
C2465 C2464 1.374 . S
C2465 C2466 1.386 . S
C2466 H2421 0.931 . S
C2466 C2465 1.386 . S
C2466 C2467 1.321 1_545 S
C2467 C2466 1.321 1_565 S
C2467 C2468 1.407 . S
C2468 H2422 0.930 . S
C2468 C2467 1.407 . S
C2468 C2469 1.396 . S
C2469 H2423 0.929 . S
C2469 C2464 1.366 1_565 S
C2469 C2468 1.396 . S
C2470 O2424 1.300 . S
C2470 O2425 1.209 . S
C2470 C2443 1.486 . S
C2471 O2426 1.199 1_565 S
C2471 O2427 1.297 . S
C2471 C2455 1.476 . S
H2472 O2498 0.856 . S
H2473 O2501 0.854 . S
H2474 C2509 0.930 . S
H2475 C2510 0.930 . S
H2476 C2512 0.930 . S
H2477 C2513 0.930 . S
H2478 C2515 0.931 . S
H2479 C2516 0.930 . S
H2480 C2518 0.930 . S
H2481 C2519 0.929 . S
H2482 C2521 0.930 . S
H2483 C2522 0.931 . S
H2484 C2524 0.930 . S
H2485 C2525 0.929 . S
H2486 C2527 0.931 . S
H2487 C2528 0.930 . S
H2488 C2530 0.930 . S
H2489 C2531 0.932 . S
H2490 C2533 0.930 . S
H2491 C2534 0.929 . S
H2492 C2536 0.931 . S
H2493 C2537 0.930 . S
H2494 C2539 0.929 . S
H2495 C2540 0.931 . S
H2496 C2542 0.930 . S
H2497 C2543 0.929 . S
O2498 H2472 0.856 . S
O2498 C2544 1.300 . S
O2499 C2544 1.209 1_565 S
O2500 C2545 1.199 1_545 S
O2501 H2473 0.854 . S
O2501 C2545 1.297 . S
C2502 C2503 1.375 . S
C2502 C2507 1.376 1_545 S
C2502 C2508 1.555 . S
C2503 C2502 1.375 . S
C2503 C2504 1.428 . S
C2503 C2514 1.492 . S
C2504 C2503 1.428 . S
C2504 C2505 1.381 1_545 S
C2504 C2520 1.504 . S
C2505 C2504 1.381 1_565 S
C2505 C2506 1.416 . S
C2505 C2526 1.497 . S
C2506 C2505 1.416 . S
C2506 C2507 1.366 . S
C2506 C2532 1.488 . S
C2507 C2502 1.376 1_565 S
C2507 C2506 1.366 . S
C2507 C2538 1.520 . S
C2508 C2502 1.555 . S
C2508 C2509 1.363 . S
C2508 C2513 1.390 1_545 S
C2509 H2474 0.930 . S
C2509 C2508 1.363 . S
C2509 C2510 1.372 . S
C2510 H2475 0.930 . S
C2510 C2509 1.372 . S
C2510 C2511 1.383 . S
C2511 C2510 1.383 . S
C2511 C2512 1.395 1_545 S
C2512 H2476 0.930 . S
C2512 C2511 1.395 1_565 S
C2512 C2513 1.362 . S
C2513 H2477 0.930 . S
C2513 C2508 1.390 1_565 S
C2513 C2512 1.362 . S
C2514 C2503 1.492 . S
C2514 C2515 1.377 . S
C2514 C2519 1.397 1_545 S
C2515 H2478 0.931 . S
C2515 C2514 1.377 . S
C2515 C2516 1.376 . S
C2516 H2479 0.930 . S
C2516 C2515 1.376 . S
C2516 C2517 1.376 . S
C2517 C2516 1.376 . S
C2517 C2518 1.378 1_545 S
C2517 C2544 1.486 . S
C2518 H2480 0.930 . S
C2518 C2517 1.378 1_565 S
C2518 C2519 1.376 . S
C2519 H2481 0.929 . S
C2519 C2514 1.397 1_565 S
C2519 C2518 1.376 . S
C2520 C2504 1.504 . S
C2520 C2521 1.409 . S
C2520 C2525 1.356 1_545 S
C2521 H2482 0.930 . S
C2521 C2520 1.409 . S
C2521 C2522 1.375 . S
C2522 H2483 0.931 . S
C2522 C2521 1.375 . S
C2522 C2523 1.379 . S
C2523 C2522 1.379 . S
C2523 C2524 1.360 1_545 S
C2524 H2484 0.930 . S
C2524 C2523 1.360 1_565 S
C2524 C2525 1.399 . S
C2525 H2485 0.929 . S
C2525 C2520 1.356 1_565 S
C2525 C2524 1.399 . S
C2526 C2505 1.497 . S
C2526 C2527 1.394 1_565 S
C2526 C2531 1.360 . S
C2527 H2486 0.931 . S
C2527 C2526 1.394 1_545 S
C2527 C2528 1.372 . S
C2528 H2487 0.930 . S
C2528 C2527 1.372 . S
C2528 C2529 1.397 1_545 S
C2529 C2528 1.397 1_565 S
C2529 C2530 1.390 . S
C2529 C2545 1.476 . S
C2530 H2488 0.930 . S
C2530 C2529 1.390 . S
C2530 C2531 1.366 . S
C2531 H2489 0.932 . S
C2531 C2526 1.360 . S
C2531 C2530 1.366 . S
C2532 C2506 1.488 . S
C2532 C2533 1.345 1_565 S
C2532 C2537 1.429 . S
C2533 H2490 0.930 . S
C2533 C2532 1.345 1_545 S
C2533 C2534 1.381 . S
C2534 H2491 0.929 . S
C2534 C2533 1.381 . S
C2534 C2535 1.384 . S
C2535 C2534 1.384 . S
C2535 C2536 1.369 1_545 S
C2536 H2492 0.931 . S
C2536 C2535 1.369 1_565 S
C2536 C2537 1.387 . S
C2537 H2493 0.930 . S
C2537 C2532 1.429 . S
C2537 C2536 1.387 . S
C2538 C2507 1.520 . S
C2538 C2539 1.377 1_565 S
C2538 C2543 1.361 . S
C2539 H2494 0.929 . S
C2539 C2538 1.377 1_545 S
C2539 C2540 1.386 . S
C2540 H2495 0.931 . S
C2540 C2539 1.386 . S
C2540 C2541 1.363 1_545 S
C2541 C2540 1.363 1_565 S
C2541 C2542 1.385 . S
C2542 H2496 0.930 . S
C2542 C2541 1.385 . S
C2542 C2543 1.396 . S
C2543 H2497 0.929 . S
C2543 C2538 1.361 . S
C2543 C2542 1.396 . S
C2544 O2498 1.300 . S
C2544 O2499 1.209 1_545 S
C2544 C2517 1.486 . S
C2545 O2500 1.199 1_565 S
C2545 O2501 1.297 . S
C2545 C2529 1.476 . S
H2546 O2572 0.856 . S
H2547 O2575 0.854 . S
H2548 C2583 0.930 . S
H2549 C2584 0.930 . S
H2550 C2586 0.930 . S
H2551 C2587 0.930 . S
H2552 C2589 0.931 . S
H2553 C2590 0.930 . S
H2554 C2592 0.930 . S
H2555 C2593 0.929 . S
H2556 C2595 0.930 . S
H2557 C2596 0.931 . S
H2558 C2598 0.930 . S
H2559 C2599 0.929 . S
H2560 C2601 0.931 . S
H2561 C2602 0.930 . S
H2562 C2604 0.930 . S
H2563 C2605 0.932 . S
H2564 C2607 0.930 . S
H2565 C2608 0.929 . S
H2566 C2610 0.931 . S
H2567 C2611 0.930 . S
H2568 C2613 0.929 . S
H2569 C2614 0.931 . S
H2570 C2616 0.930 . S
H2571 C2617 0.929 . S
O2572 H2546 0.856 . S
O2572 C2618 1.300 . S
O2573 C2618 1.209 1_455 S
O2574 C2619 1.199 1_655 S
O2575 H2547 0.854 . S
O2575 C2619 1.297 . S
C2576 C2577 1.404 . S
C2576 C2581 1.398 . S
C2576 C2582 1.492 . S
C2577 C2576 1.404 . S
C2577 C2578 1.396 . S
C2577 C2588 1.492 . S
C2578 C2577 1.396 . S
C2578 C2579 1.397 . S
C2578 C2594 1.509 . S
C2579 C2578 1.397 . S
C2579 C2580 1.400 1_655 S
C2579 C2600 1.522 1_655 S
C2580 C2579 1.400 1_455 S
C2580 C2581 1.401 1_455 S
C2580 C2606 1.501 . S
C2581 C2576 1.398 . S
C2581 C2580 1.401 1_655 S
C2581 C2612 1.523 1_655 S
C2582 C2576 1.492 . S
C2582 C2583 1.363 . S
C2582 C2587 1.390 1_655 S
C2583 H2548 0.930 . S
C2583 C2582 1.363 . S
C2583 C2584 1.372 . S
C2584 H2549 0.930 . S
C2584 C2583 1.372 . S
C2584 C2585 1.383 . S
C2585 C2584 1.383 . S
C2585 C2586 1.395 1_655 S
C2586 H2550 0.930 . S
C2586 C2585 1.395 1_455 S
C2586 C2587 1.362 . S
C2587 H2551 0.930 . S
C2587 C2582 1.390 1_455 S
C2587 C2586 1.362 . S
C2588 C2577 1.492 . S
C2588 C2589 1.377 . S
C2588 C2593 1.397 1_655 S
C2589 H2552 0.931 . S
C2589 C2588 1.377 . S
C2589 C2590 1.376 . S
C2590 H2553 0.930 . S
C2590 C2589 1.376 . S
C2590 C2591 1.376 . S
C2591 C2590 1.376 . S
C2591 C2592 1.378 1_655 S
C2591 C2618 1.486 . S
C2592 H2554 0.930 . S
C2592 C2591 1.378 1_455 S
C2592 C2593 1.376 . S
C2593 H2555 0.929 . S
C2593 C2588 1.397 1_455 S
C2593 C2592 1.376 . S
C2594 C2578 1.509 . S
C2594 C2595 1.391 . S
C2594 C2599 1.386 1_655 S
C2595 H2556 0.930 . S
C2595 C2594 1.391 . S
C2595 C2596 1.375 . S
C2596 H2557 0.931 . S
C2596 C2595 1.375 . S
C2596 C2597 1.375 . S
C2597 C2596 1.375 . S
C2597 C2598 1.361 1_655 S
C2598 H2558 0.930 . S
C2598 C2597 1.361 1_455 S
C2598 C2599 1.399 . S
C2599 H2559 0.929 . S
C2599 C2594 1.386 1_455 S
C2599 C2598 1.399 . S
C2600 C2579 1.522 1_455 S
C2600 C2601 1.328 1_455 S
C2600 C2605 1.391 . S
C2601 H2560 0.931 . S
C2601 C2600 1.328 1_655 S
C2601 C2602 1.372 . S
C2602 H2561 0.930 . S
C2602 C2601 1.372 . S
C2602 C2603 1.397 1_655 S
C2603 C2602 1.397 1_455 S
C2603 C2604 1.390 . S
C2603 C2619 1.476 . S
C2604 H2562 0.930 . S
C2604 C2603 1.390 . S
C2604 C2605 1.366 . S
C2605 H2563 0.932 . S
C2605 C2600 1.391 . S
C2605 C2604 1.366 . S
C2606 C2580 1.501 . S
C2606 C2607 1.322 1_455 S
C2606 C2611 1.433 . S
C2607 H2564 0.930 . S
C2607 C2606 1.322 1_655 S
C2607 C2608 1.381 . S
C2608 H2565 0.929 . S
C2608 C2607 1.381 . S
C2608 C2609 1.371 1_655 S
C2609 C2608 1.371 1_455 S
C2609 C2610 1.380 . S
C2610 H2566 0.931 . S
C2610 C2609 1.380 . S
C2610 C2611 1.387 . S
C2611 H2567 0.930 . S
C2611 C2606 1.433 . S
C2611 C2610 1.387 . S
C2612 C2581 1.523 1_455 S
C2612 C2613 1.377 1_455 S
C2612 C2617 1.361 . S
C2613 H2568 0.929 . S
C2613 C2612 1.377 1_655 S
C2613 C2614 1.386 . S
C2614 H2569 0.931 . S
C2614 C2613 1.386 . S
C2614 C2615 1.363 1_655 S
C2615 C2614 1.363 1_455 S
C2615 C2616 1.385 . S
C2616 H2570 0.930 . S
C2616 C2615 1.385 . S
C2616 C2617 1.396 . S
C2617 H2571 0.929 . S
C2617 C2612 1.361 . S
C2617 C2616 1.396 . S
C2618 O2572 1.300 . S
C2618 O2573 1.209 1_655 S
C2618 C2591 1.486 . S
C2619 O2574 1.199 1_455 S
C2619 O2575 1.297 . S
C2619 C2603 1.476 . S
H2620 O2646 0.856 . S
H2621 O2649 0.854 . S
H2622 C2657 0.930 . S
H2623 C2658 0.930 . S
H2624 C2660 0.930 . S
H2625 C2661 0.930 . S
H2626 C2663 0.931 . S
H2627 C2664 0.930 . S
H2628 C2666 0.930 . S
H2629 C2667 0.929 . S
H2630 C2669 0.930 . S
H2631 C2670 0.931 . S
H2632 C2672 0.930 . S
H2633 C2673 0.929 . S
H2634 C2675 0.931 . S
H2635 C2676 0.930 . S
H2636 C2678 0.930 . S
H2637 C2679 0.932 . S
H2638 C2681 0.930 . S
H2639 C2682 0.929 . S
H2640 C2684 0.931 . S
H2641 C2685 0.930 . S
H2642 C2687 0.929 . S
H2643 C2688 0.931 . S
H2644 C2690 0.930 . S
H2645 C2691 0.929 . S
O2646 H2620 0.856 . S
O2646 C2692 1.300 . S
O2647 C2692 1.209 . S
O2648 C2693 1.199 . S
O2649 H2621 0.854 . S
O2649 C2693 1.297 . S
C2650 C2651 1.404 . S
C2650 C2655 1.397 . S
C2650 C2656 1.492 . S
C2651 C2650 1.404 . S
C2651 C2652 1.396 . S
C2651 C2662 1.492 . S
C2652 C2651 1.396 . S
C2652 C2653 1.397 . S
C2652 C2668 1.509 . S
C2653 C2652 1.397 . S
C2653 C2654 1.412 . S
C2653 C2674 1.485 . S
C2654 C2653 1.412 . S
C2654 C2655 1.388 . S
C2654 C2680 1.490 . S
C2655 C2650 1.397 . S
C2655 C2654 1.388 . S
C2655 C2686 1.519 . S
C2656 C2650 1.492 . S
C2656 C2657 1.363 . S
C2656 C2661 1.390 . S
C2657 H2622 0.930 . S
C2657 C2656 1.363 . S
C2657 C2658 1.372 . S
C2658 H2623 0.930 . S
C2658 C2657 1.372 . S
C2658 C2659 1.383 . S
C2659 C2658 1.383 . S
C2659 C2660 1.395 . S
C2660 H2624 0.930 . S
C2660 C2659 1.395 . S
C2660 C2661 1.362 . S
C2661 H2625 0.930 . S
C2661 C2656 1.390 . S
C2661 C2660 1.362 . S
C2662 C2651 1.492 . S
C2662 C2663 1.377 . S
C2662 C2667 1.397 . S
C2663 H2626 0.931 . S
C2663 C2662 1.377 . S
C2663 C2664 1.376 . S
C2664 H2627 0.930 . S
C2664 C2663 1.376 . S
C2664 C2665 1.376 . S
C2665 C2664 1.376 . S
C2665 C2666 1.378 . S
C2665 C2692 1.486 . S
C2666 H2628 0.930 . S
C2666 C2665 1.378 . S
C2666 C2667 1.376 . S
C2667 H2629 0.929 . S
C2667 C2662 1.397 . S
C2667 C2666 1.376 . S
C2668 C2652 1.509 . S
C2668 C2669 1.391 . S
C2668 C2673 1.386 . S
C2669 H2630 0.930 . S
C2669 C2668 1.391 . S
C2669 C2670 1.375 . S
C2670 H2631 0.931 . S
C2670 C2669 1.375 . S
C2670 C2671 1.375 . S
C2671 C2670 1.375 . S
C2671 C2672 1.361 . S
C2672 H2632 0.930 . S
C2672 C2671 1.361 . S
C2672 C2673 1.399 . S
C2673 H2633 0.929 . S
C2673 C2668 1.386 . S
C2673 C2672 1.399 . S
C2674 C2653 1.485 . S
C2674 C2675 1.394 . S
C2674 C2679 1.360 . S
C2675 H2634 0.931 . S
C2675 C2674 1.394 . S
C2675 C2676 1.372 . S
C2676 H2635 0.930 . S
C2676 C2675 1.372 . S
C2676 C2677 1.397 . S
C2677 C2676 1.397 . S
C2677 C2678 1.390 . S
C2677 C2693 1.476 . S
C2678 H2636 0.930 . S
C2678 C2677 1.390 . S
C2678 C2679 1.366 . S
C2679 H2637 0.932 . S
C2679 C2674 1.360 . S
C2679 C2678 1.366 . S
C2680 C2654 1.490 . S
C2680 C2681 1.380 . S
C2680 C2685 1.386 . S
C2681 H2638 0.930 . S
C2681 C2680 1.380 . S
C2681 C2682 1.381 . S
C2682 H2639 0.929 . S
C2682 C2681 1.381 . S
C2682 C2683 1.371 . S
C2683 C2682 1.371 . S
C2683 C2684 1.380 . S
C2684 H2640 0.931 . S
C2684 C2683 1.380 . S
C2684 C2685 1.387 . S
C2685 H2641 0.930 . S
C2685 C2680 1.386 . S
C2685 C2684 1.387 . S
C2686 C2655 1.519 . S
C2686 C2687 1.377 . S
C2686 C2691 1.361 . S
C2687 H2642 0.929 . S
C2687 C2686 1.377 . S
C2687 C2688 1.386 . S
C2688 H2643 0.931 . S
C2688 C2687 1.386 . S
C2688 C2689 1.363 . S
C2689 C2688 1.363 . S
C2689 C2690 1.385 . S
C2690 H2644 0.930 . S
C2690 C2689 1.385 . S
C2690 C2691 1.396 . S
C2691 H2645 0.929 . S
C2691 C2686 1.361 . S
C2691 C2690 1.396 . S
C2692 O2646 1.300 . S
C2692 O2647 1.209 . S
C2692 C2665 1.486 . S
C2693 O2648 1.199 . S
C2693 O2649 1.297 . S
C2693 C2677 1.476 . S
H2694 O2720 0.856 . S
H2695 O2723 0.854 . S
H2696 C2731 0.930 . S
H2697 C2732 0.930 . S
H2698 C2734 0.930 . S
H2699 C2735 0.930 . S
H2700 C2737 0.931 . S
H2701 C2738 0.930 . S
H2702 C2740 0.930 . S
H2703 C2741 0.929 . S
H2704 C2743 0.930 . S
H2705 C2744 0.931 . S
H2706 C2746 0.930 . S
H2707 C2747 0.929 . S
H2708 C2749 0.931 . S
H2709 C2750 0.930 . S
H2710 C2752 0.930 . S
H2711 C2753 0.932 . S
H2712 C2755 0.930 . S
H2713 C2756 0.929 . S
H2714 C2758 0.931 . S
H2715 C2759 0.930 . S
H2716 C2761 0.929 . S
H2717 C2762 0.931 . S
H2718 C2764 0.930 . S
H2719 C2765 0.929 . S
O2720 H2694 0.856 . S
O2720 C2766 1.300 . S
O2721 C2766 1.209 . S
O2722 C2767 1.199 . S
O2723 H2695 0.854 . S
O2723 C2767 1.297 . S
C2724 C2725 1.404 . S
C2724 C2729 1.397 . S
C2724 C2730 1.492 . S
C2725 C2724 1.404 . S
C2725 C2726 1.396 . S
C2725 C2736 1.492 . S
C2726 C2725 1.396 . S
C2726 C2727 1.397 . S
C2726 C2742 1.509 . S
C2727 C2726 1.397 . S
C2727 C2728 1.412 . S
C2727 C2748 1.485 . S
C2728 C2727 1.412 . S
C2728 C2729 1.388 . S
C2728 C2754 1.490 . S
C2729 C2724 1.397 . S
C2729 C2728 1.388 . S
C2729 C2760 1.519 . S
C2730 C2724 1.492 . S
C2730 C2731 1.363 . S
C2730 C2735 1.390 . S
C2731 H2696 0.930 . S
C2731 C2730 1.363 . S
C2731 C2732 1.372 . S
C2732 H2697 0.930 . S
C2732 C2731 1.372 . S
C2732 C2733 1.383 . S
C2733 C2732 1.383 . S
C2733 C2734 1.395 . S
C2734 H2698 0.930 . S
C2734 C2733 1.395 . S
C2734 C2735 1.362 . S
C2735 H2699 0.930 . S
C2735 C2730 1.390 . S
C2735 C2734 1.362 . S
C2736 C2725 1.492 . S
C2736 C2737 1.377 . S
C2736 C2741 1.397 . S
C2737 H2700 0.931 . S
C2737 C2736 1.377 . S
C2737 C2738 1.376 . S
C2738 H2701 0.930 . S
C2738 C2737 1.376 . S
C2738 C2739 1.376 . S
C2739 C2738 1.376 . S
C2739 C2740 1.378 . S
C2739 C2766 1.486 . S
C2740 H2702 0.930 . S
C2740 C2739 1.378 . S
C2740 C2741 1.376 . S
C2741 H2703 0.929 . S
C2741 C2736 1.397 . S
C2741 C2740 1.376 . S
C2742 C2726 1.509 . S
C2742 C2743 1.391 . S
C2742 C2747 1.386 . S
C2743 H2704 0.930 . S
C2743 C2742 1.391 . S
C2743 C2744 1.375 . S
C2744 H2705 0.931 . S
C2744 C2743 1.375 . S
C2744 C2745 1.375 . S
C2745 C2744 1.375 . S
C2745 C2746 1.361 . S
C2746 H2706 0.930 . S
C2746 C2745 1.361 . S
C2746 C2747 1.399 . S
C2747 H2707 0.929 . S
C2747 C2742 1.386 . S
C2747 C2746 1.399 . S
C2748 C2727 1.485 . S
C2748 C2749 1.394 . S
C2748 C2753 1.360 . S
C2749 H2708 0.931 . S
C2749 C2748 1.394 . S
C2749 C2750 1.372 . S
C2750 H2709 0.930 . S
C2750 C2749 1.372 . S
C2750 C2751 1.397 . S
C2751 C2750 1.397 . S
C2751 C2752 1.390 . S
C2751 C2767 1.476 . S
C2752 H2710 0.930 . S
C2752 C2751 1.390 . S
C2752 C2753 1.366 . S
C2753 H2711 0.932 . S
C2753 C2748 1.360 . S
C2753 C2752 1.366 . S
C2754 C2728 1.490 . S
C2754 C2755 1.380 . S
C2754 C2759 1.386 . S
C2755 H2712 0.930 . S
C2755 C2754 1.380 . S
C2755 C2756 1.381 . S
C2756 H2713 0.929 . S
C2756 C2755 1.381 . S
C2756 C2757 1.371 . S
C2757 C2756 1.371 . S
C2757 C2758 1.380 . S
C2758 H2714 0.931 . S
C2758 C2757 1.380 . S
C2758 C2759 1.387 . S
C2759 H2715 0.930 . S
C2759 C2754 1.386 . S
C2759 C2758 1.387 . S
C2760 C2729 1.519 . S
C2760 C2761 1.377 . S
C2760 C2765 1.361 . S
C2761 H2716 0.929 . S
C2761 C2760 1.377 . S
C2761 C2762 1.386 . S
C2762 H2717 0.931 . S
C2762 C2761 1.386 . S
C2762 C2763 1.363 . S
C2763 C2762 1.363 . S
C2763 C2764 1.385 . S
C2764 H2718 0.930 . S
C2764 C2763 1.385 . S
C2764 C2765 1.396 . S
C2765 H2719 0.929 . S
C2765 C2760 1.361 . S
C2765 C2764 1.396 . S
C2766 O2720 1.300 . S
C2766 O2721 1.209 . S
C2766 C2739 1.486 . S
C2767 O2722 1.199 . S
C2767 O2723 1.297 . S
C2767 C2751 1.476 . S
H2768 O2794 0.856 . S
H2769 O2797 0.854 . S
H2770 C2805 0.930 . S
H2771 C2806 0.930 . S
H2772 C2808 0.930 . S
H2773 C2809 0.930 . S
H2774 C2811 0.931 . S
H2775 C2812 0.930 . S
H2776 C2814 0.930 . S
H2777 C2815 0.929 . S
H2778 C2817 0.930 . S
H2779 C2818 0.931 . S
H2780 C2820 0.930 . S
H2781 C2821 0.929 . S
H2782 C2823 0.931 . S
H2783 C2824 0.930 . S
H2784 C2826 0.930 . S
H2785 C2827 0.932 . S
H2786 C2829 0.930 . S
H2787 C2830 0.929 . S
H2788 C2832 0.931 . S
H2789 C2833 0.930 . S
H2790 C2835 0.929 . S
H2791 C2836 0.931 . S
H2792 C2838 0.930 . S
H2793 C2839 0.929 . S
O2794 H2768 0.856 . S
O2794 C2840 1.300 . S
O2795 C2840 1.209 . S
O2796 C2841 1.199 . S
O2797 H2769 0.854 . S
O2797 C2841 1.297 . S
C2798 C2799 1.404 . S
C2798 C2803 1.397 . S
C2798 C2804 1.492 . S
C2799 C2798 1.404 . S
C2799 C2800 1.396 . S
C2799 C2810 1.492 . S
C2800 C2799 1.396 . S
C2800 C2801 1.397 . S
C2800 C2816 1.509 . S
C2801 C2800 1.397 . S
C2801 C2802 1.412 . S
C2801 C2822 1.485 . S
C2802 C2801 1.412 . S
C2802 C2803 1.388 . S
C2802 C2828 1.490 . S
C2803 C2798 1.397 . S
C2803 C2802 1.388 . S
C2803 C2834 1.519 . S
C2804 C2798 1.492 . S
C2804 C2805 1.363 . S
C2804 C2809 1.390 . S
C2805 H2770 0.930 . S
C2805 C2804 1.363 . S
C2805 C2806 1.372 . S
C2806 H2771 0.930 . S
C2806 C2805 1.372 . S
C2806 C2807 1.383 . S
C2807 C2806 1.383 . S
C2807 C2808 1.395 . S
C2808 H2772 0.930 . S
C2808 C2807 1.395 . S
C2808 C2809 1.362 . S
C2809 H2773 0.930 . S
C2809 C2804 1.390 . S
C2809 C2808 1.362 . S
C2810 C2799 1.492 . S
C2810 C2811 1.377 . S
C2810 C2815 1.397 . S
C2811 H2774 0.931 . S
C2811 C2810 1.377 . S
C2811 C2812 1.376 . S
C2812 H2775 0.930 . S
C2812 C2811 1.376 . S
C2812 C2813 1.376 . S
C2813 C2812 1.376 . S
C2813 C2814 1.378 . S
C2813 C2840 1.486 . S
C2814 H2776 0.930 . S
C2814 C2813 1.378 . S
C2814 C2815 1.376 . S
C2815 H2777 0.929 . S
C2815 C2810 1.397 . S
C2815 C2814 1.376 . S
C2816 C2800 1.509 . S
C2816 C2817 1.391 . S
C2816 C2821 1.386 . S
C2817 H2778 0.930 . S
C2817 C2816 1.391 . S
C2817 C2818 1.375 . S
C2818 H2779 0.931 . S
C2818 C2817 1.375 . S
C2818 C2819 1.375 . S
C2819 C2818 1.375 . S
C2819 C2820 1.361 . S
C2820 H2780 0.930 . S
C2820 C2819 1.361 . S
C2820 C2821 1.399 . S
C2821 H2781 0.929 . S
C2821 C2816 1.386 . S
C2821 C2820 1.399 . S
C2822 C2801 1.485 . S
C2822 C2823 1.394 . S
C2822 C2827 1.360 . S
C2823 H2782 0.931 . S
C2823 C2822 1.394 . S
C2823 C2824 1.372 . S
C2824 H2783 0.930 . S
C2824 C2823 1.372 . S
C2824 C2825 1.397 . S
C2825 C2824 1.397 . S
C2825 C2826 1.390 . S
C2825 C2841 1.476 . S
C2826 H2784 0.930 . S
C2826 C2825 1.390 . S
C2826 C2827 1.366 . S
C2827 H2785 0.932 . S
C2827 C2822 1.360 . S
C2827 C2826 1.366 . S
C2828 C2802 1.490 . S
C2828 C2829 1.380 . S
C2828 C2833 1.386 . S
C2829 H2786 0.930 . S
C2829 C2828 1.380 . S
C2829 C2830 1.381 . S
C2830 H2787 0.929 . S
C2830 C2829 1.381 . S
C2830 C2831 1.371 . S
C2831 C2830 1.371 . S
C2831 C2832 1.380 . S
C2832 H2788 0.931 . S
C2832 C2831 1.380 . S
C2832 C2833 1.387 . S
C2833 H2789 0.930 . S
C2833 C2828 1.386 . S
C2833 C2832 1.387 . S
C2834 C2803 1.519 . S
C2834 C2835 1.377 . S
C2834 C2839 1.361 . S
C2835 H2790 0.929 . S
C2835 C2834 1.377 . S
C2835 C2836 1.386 . S
C2836 H2791 0.931 . S
C2836 C2835 1.386 . S
C2836 C2837 1.363 . S
C2837 C2836 1.363 . S
C2837 C2838 1.385 . S
C2838 H2792 0.930 . S
C2838 C2837 1.385 . S
C2838 C2839 1.396 . S
C2839 H2793 0.929 . S
C2839 C2834 1.361 . S
C2839 C2838 1.396 . S
C2840 O2794 1.300 . S
C2840 O2795 1.209 . S
C2840 C2813 1.486 . S
C2841 O2796 1.199 . S
C2841 O2797 1.297 . S
C2841 C2825 1.476 . S
H2842 O2868 0.856 . S
H2843 O2871 0.854 . S
H2844 C2879 0.930 . S
H2845 C2880 0.930 . S
H2846 C2882 0.930 . S
H2847 C2883 0.930 . S
H2848 C2885 0.931 . S
H2849 C2886 0.930 . S
H2850 C2888 0.930 . S
H2851 C2889 0.929 . S
H2852 C2891 0.930 . S
H2853 C2892 0.931 . S
H2854 C2894 0.930 . S
H2855 C2895 0.929 . S
H2856 C2897 0.931 . S
H2857 C2898 0.930 . S
H2858 C2900 0.930 . S
H2859 C2901 0.932 . S
H2860 C2903 0.930 . S
H2861 C2904 0.929 . S
H2862 C2906 0.931 . S
H2863 C2907 0.930 . S
H2864 C2909 0.929 . S
H2865 C2910 0.931 . S
H2866 C2912 0.930 . S
H2867 C2913 0.929 . S
O2868 H2842 0.856 . S
O2868 C2914 1.300 . S
O2869 C2914 1.209 . S
O2870 C2915 1.199 . S
O2871 H2843 0.854 . S
O2871 C2915 1.297 . S
C2872 C2873 1.404 . S
C2872 C2877 1.397 . S
C2872 C2878 1.492 . S
C2873 C2872 1.404 . S
C2873 C2874 1.396 . S
C2873 C2884 1.492 . S
C2874 C2873 1.396 . S
C2874 C2875 1.397 . S
C2874 C2890 1.509 . S
C2875 C2874 1.397 . S
C2875 C2876 1.412 . S
C2875 C2896 1.485 . S
C2876 C2875 1.412 . S
C2876 C2877 1.388 . S
C2876 C2902 1.490 . S
C2877 C2872 1.397 . S
C2877 C2876 1.388 . S
C2877 C2908 1.519 . S
C2878 C2872 1.492 . S
C2878 C2879 1.363 . S
C2878 C2883 1.390 . S
C2879 H2844 0.930 . S
C2879 C2878 1.363 . S
C2879 C2880 1.372 . S
C2880 H2845 0.930 . S
C2880 C2879 1.372 . S
C2880 C2881 1.383 . S
C2881 C2880 1.383 . S
C2881 C2882 1.395 . S
C2882 H2846 0.930 . S
C2882 C2881 1.395 . S
C2882 C2883 1.362 . S
C2883 H2847 0.930 . S
C2883 C2878 1.390 . S
C2883 C2882 1.362 . S
C2884 C2873 1.492 . S
C2884 C2885 1.377 . S
C2884 C2889 1.397 . S
C2885 H2848 0.931 . S
C2885 C2884 1.377 . S
C2885 C2886 1.376 . S
C2886 H2849 0.930 . S
C2886 C2885 1.376 . S
C2886 C2887 1.376 . S
C2887 C2886 1.376 . S
C2887 C2888 1.378 . S
C2887 C2914 1.486 . S
C2888 H2850 0.930 . S
C2888 C2887 1.378 . S
C2888 C2889 1.376 . S
C2889 H2851 0.929 . S
C2889 C2884 1.397 . S
C2889 C2888 1.376 . S
C2890 C2874 1.509 . S
C2890 C2891 1.391 . S
C2890 C2895 1.386 . S
C2891 H2852 0.930 . S
C2891 C2890 1.391 . S
C2891 C2892 1.375 . S
C2892 H2853 0.931 . S
C2892 C2891 1.375 . S
C2892 C2893 1.375 . S
C2893 C2892 1.375 . S
C2893 C2894 1.361 . S
C2894 H2854 0.930 . S
C2894 C2893 1.361 . S
C2894 C2895 1.399 . S
C2895 H2855 0.929 . S
C2895 C2890 1.386 . S
C2895 C2894 1.399 . S
C2896 C2875 1.485 . S
C2896 C2897 1.394 . S
C2896 C2901 1.360 . S
C2897 H2856 0.931 . S
C2897 C2896 1.394 . S
C2897 C2898 1.372 . S
C2898 H2857 0.930 . S
C2898 C2897 1.372 . S
C2898 C2899 1.397 . S
C2899 C2898 1.397 . S
C2899 C2900 1.390 . S
C2899 C2915 1.476 . S
C2900 H2858 0.930 . S
C2900 C2899 1.390 . S
C2900 C2901 1.366 . S
C2901 H2859 0.932 . S
C2901 C2896 1.360 . S
C2901 C2900 1.366 . S
C2902 C2876 1.490 . S
C2902 C2903 1.380 . S
C2902 C2907 1.386 . S
C2903 H2860 0.930 . S
C2903 C2902 1.380 . S
C2903 C2904 1.381 . S
C2904 H2861 0.929 . S
C2904 C2903 1.381 . S
C2904 C2905 1.371 . S
C2905 C2904 1.371 . S
C2905 C2906 1.380 . S
C2906 H2862 0.931 . S
C2906 C2905 1.380 . S
C2906 C2907 1.387 . S
C2907 H2863 0.930 . S
C2907 C2902 1.386 . S
C2907 C2906 1.387 . S
C2908 C2877 1.519 . S
C2908 C2909 1.377 . S
C2908 C2913 1.361 . S
C2909 H2864 0.929 . S
C2909 C2908 1.377 . S
C2909 C2910 1.386 . S
C2910 H2865 0.931 . S
C2910 C2909 1.386 . S
C2910 C2911 1.363 . S
C2911 C2910 1.363 . S
C2911 C2912 1.385 . S
C2912 H2866 0.930 . S
C2912 C2911 1.385 . S
C2912 C2913 1.396 . S
C2913 H2867 0.929 . S
C2913 C2908 1.361 . S
C2913 C2912 1.396 . S
C2914 O2868 1.300 . S
C2914 O2869 1.209 . S
C2914 C2887 1.486 . S
C2915 O2870 1.199 . S
C2915 O2871 1.297 . S
C2915 C2899 1.476 . S
H2916 C2924 0.929 1_455 S
H2917 C2926 0.930 1_455 S
H2918 C2928 0.930 . S
H2919 C2931 0.929 . S
H2920 C2934 0.858 1_455 S
H2921 C2936 0.960 . S
H2922 C2936 0.960 . S
H2923 C2936 0.960 . S
C2924 H2916 0.929 1_655 S
C2924 C2925 1.377 . S
C2924 C2926 1.384 . S
C2925 C2924 1.377 . S
C2925 C2931 1.390 . S
C2926 H2917 0.930 1_655 S
C2926 C2924 1.384 . S
C2926 C2927 1.372 . S
C2927 C2926 1.372 . S
C2927 C2928 1.400 . S
C2927 C2932 1.490 . S
C2928 H2918 0.930 . S
C2928 C2927 1.400 . S
C2928 C2931 1.386 . S
H2929 C2945 0.930 . S
H2930 C2946 0.931 . S
C2931 H2919 0.929 . S
C2931 C2925 1.390 . S
C2931 C2928 1.386 . S
C2932 C2927 1.490 . S
C2932 C2934 1.437 . S
C2932 C2935 1.403 . S
H2933 C2939 0.930 . S
C2934 H2920 0.858 1_655 S
C2934 C2932 1.437 . S
C2934 C2937 1.445 1_655 S
C2935 C2932 1.403 . S
C2935 C2936 1.524 . S
C2935 C2939 1.400 . S
C2936 H2921 0.960 . S
C2936 H2922 0.960 . S
C2936 H2923 0.960 . S
C2936 C2935 1.524 . S
C2937 C2934 1.445 1_455 S
C2937 C2938 1.384 1_455 S
C2937 C2941 1.500 . S
C2938 C2937 1.384 1_655 S
C2938 C2939 1.385 . S
C2938 C2940 1.478 . S
C2939 H2933 0.930 . S
C2939 C2935 1.400 . S
C2939 C2938 1.385 . S
C2940 C2938 1.478 . S
C2940 C2942 1.381 . S
C2940 C2946 1.383 . S
C2941 C2937 1.500 . S
C2941 H2947 0.959 . S
C2941 H2948 0.961 . S
C2941 H2949 0.960 . S
C2942 C2940 1.381 . S
C2942 C2943 1.394 . S
C2942 H2950 0.930 1_655 S
C2943 C2942 1.394 . S
C2943 C2944 1.383 . S
C2943 H2951 0.929 1_655 S
C2944 C2943 1.383 . S
C2944 C2945 1.377 . S
C2945 H2929 0.930 . S
C2945 C2944 1.377 . S
C2945 C2946 1.379 . S
C2946 H2930 0.931 . S
C2946 C2940 1.383 . S
C2946 C2945 1.379 . S
H2947 C2941 0.959 . S
H2948 C2941 0.961 . S
H2949 C2941 0.960 . S
H2950 C2942 0.930 1_455 S
H2951 C2943 0.929 1_455 S
H2952 C2960 0.929 . S
H2953 C2962 0.930 . S
H2954 C2964 0.930 . S
H2955 C2967 0.929 . S
H2956 C2970 0.930 . S
H2957 C2972 0.960 . S
H2958 C2972 0.960 . S
H2959 C2972 0.960 . S
C2960 H2952 0.929 . S
C2960 C2961 1.377 . S
C2960 C2962 1.384 . S
C2961 C2960 1.377 . S
C2961 C2967 1.390 . S
C2962 H2953 0.930 . S
C2962 C2960 1.384 . S
C2962 C2963 1.372 . S
C2963 C2962 1.372 . S
C2963 C2964 1.400 . S
C2963 C2968 1.490 . S
C2964 H2954 0.930 . S
C2964 C2963 1.400 . S
C2964 C2967 1.386 . S
H2965 C2981 0.930 . S
H2966 C2982 0.931 . S
C2967 H2955 0.929 . S
C2967 C2961 1.390 . S
C2967 C2964 1.386 . S
C2968 C2963 1.490 . S
C2968 C2970 1.395 . S
C2968 C2971 1.403 . S
H2969 C2975 0.930 . S
C2970 H2956 0.930 . S
C2970 C2968 1.395 . S
C2970 C2973 1.403 . S
C2971 C2968 1.403 . S
C2971 C2972 1.524 . S
C2971 C2975 1.400 . S
C2972 H2957 0.960 . S
C2972 H2958 0.960 . S
C2972 H2959 0.960 . S
C2972 C2971 1.524 . S
C2973 C2970 1.403 . S
C2973 C2974 1.392 . S
C2973 C2977 1.495 . S
C2974 C2973 1.392 . S
C2974 C2975 1.385 . S
C2974 C2976 1.478 . S
C2975 H2969 0.930 . S
C2975 C2971 1.400 . S
C2975 C2974 1.385 . S
C2976 C2974 1.478 . S
C2976 C2978 1.381 . S
C2976 C2982 1.383 . S
C2977 C2973 1.495 . S
C2977 H2983 0.959 . S
C2977 H2984 0.961 . S
C2977 H2985 0.960 . S
C2978 C2976 1.381 . S
C2978 C2979 1.394 . S
C2978 H2986 0.930 . S
C2979 C2978 1.394 . S
C2979 C2980 1.383 . S
C2979 H2987 0.929 . S
C2980 C2979 1.383 . S
C2980 C2981 1.377 . S
C2981 H2965 0.930 . S
C2981 C2980 1.377 . S
C2981 C2982 1.379 . S
C2982 H2966 0.931 . S
C2982 C2976 1.383 . S
C2982 C2981 1.379 . S
H2983 C2977 0.959 . S
H2984 C2977 0.961 . S
H2985 C2977 0.960 . S
H2986 C2978 0.930 . S
H2987 C2979 0.929 . S
H2988 C2996 0.929 . S
H2989 C2998 0.930 . S
H2990 C3000 0.930 . S
H2991 C3003 0.929 . S
H2992 C3006 0.930 . S
H2993 C3008 0.960 . S
H2994 C3008 0.960 . S
H2995 C3008 0.960 . S
C2996 H2988 0.929 . S
C2996 C2997 1.377 . S
C2996 C2998 1.384 . S
C2997 C2996 1.377 . S
C2997 C3003 1.390 . S
C2998 H2989 0.930 . S
C2998 C2996 1.384 . S
C2998 C2999 1.372 . S
C2999 C2998 1.372 . S
C2999 C3000 1.400 . S
C2999 C3004 1.490 . S
C3000 H2990 0.930 . S
C3000 C2999 1.400 . S
C3000 C3003 1.386 . S
H3001 C3017 0.930 . S
H3002 C3018 0.931 . S
C3003 H2991 0.929 . S
C3003 C2997 1.390 . S
C3003 C3000 1.386 . S
C3004 C2999 1.490 . S
C3004 C3006 1.395 . S
C3004 C3007 1.403 . S
H3005 C3011 0.930 . S
C3006 H2992 0.930 . S
C3006 C3004 1.395 . S
C3006 C3009 1.403 . S
C3007 C3004 1.403 . S
C3007 C3008 1.524 . S
C3007 C3011 1.400 . S
C3008 H2993 0.960 . S
C3008 H2994 0.960 . S
C3008 H2995 0.960 . S
C3008 C3007 1.524 . S
C3009 C3006 1.403 . S
C3009 C3010 1.392 . S
C3009 C3013 1.495 . S
C3010 C3009 1.392 . S
C3010 C3011 1.385 . S
C3010 C3012 1.478 . S
C3011 H3005 0.930 . S
C3011 C3007 1.400 . S
C3011 C3010 1.385 . S
C3012 C3010 1.478 . S
C3012 C3014 1.381 . S
C3012 C3018 1.383 . S
C3013 C3009 1.495 . S
C3013 H3019 0.959 . S
C3013 H3020 0.961 . S
C3013 H3021 0.960 . S
C3014 C3012 1.381 . S
C3014 C3015 1.394 . S
C3014 H3022 0.930 1_545 S
C3015 C3014 1.394 . S
C3015 C3016 1.383 . S
C3015 H3023 0.929 1_545 S
C3016 C3015 1.383 . S
C3016 C3017 1.377 . S
C3017 H3001 0.930 . S
C3017 C3016 1.377 . S
C3017 C3018 1.379 . S
C3018 H3002 0.931 . S
C3018 C3012 1.383 . S
C3018 C3017 1.379 . S
H3019 C3013 0.959 . S
H3020 C3013 0.961 . S
H3021 C3013 0.960 . S
H3022 C3014 0.930 1_565 S
H3023 C3015 0.929 1_565 S
H3024 C3032 0.929 . S
H3025 C3034 0.930 . S
H3026 C3036 0.930 . S
H3027 C3039 0.929 . S
H3028 C3042 0.930 . S
H3029 C3044 0.960 . S
H3030 C3044 0.960 . S
H3031 C3044 0.960 . S
C3032 H3024 0.929 . S
C3032 C3033 1.377 . S
C3032 C3034 1.384 . S
C3033 C3032 1.377 . S
C3033 C3039 1.390 . S
C3034 H3025 0.930 . S
C3034 C3032 1.384 . S
C3034 C3035 1.372 . S
C3035 C3034 1.372 . S
C3035 C3036 1.400 . S
C3035 C3040 1.490 . S
C3036 H3026 0.930 . S
C3036 C3035 1.400 . S
C3036 C3039 1.386 . S
H3037 C3053 0.925 . S
H3038 C3054 0.931 1_545 S
C3039 H3027 0.929 . S
C3039 C3033 1.390 . S
C3039 C3036 1.386 . S
C3040 C3035 1.490 . S
C3040 C3042 1.395 . S
C3040 C3043 1.403 . S
H3041 C3047 0.930 . S
C3042 H3028 0.930 . S
C3042 C3040 1.395 . S
C3042 C3045 1.403 . S
C3043 C3040 1.403 . S
C3043 C3044 1.524 . S
C3043 C3047 1.400 . S
C3044 H3029 0.960 . S
C3044 H3030 0.960 . S
C3044 H3031 0.960 . S
C3044 C3043 1.524 . S
C3045 C3042 1.403 . S
C3045 C3046 1.392 . S
C3045 C3049 1.495 . S
C3046 C3045 1.392 . S
C3046 C3047 1.385 . S
C3046 C3048 1.478 . S
C3047 H3041 0.930 . S
C3047 C3043 1.400 . S
C3047 C3046 1.385 . S
C3048 C3046 1.478 . S
C3048 C3050 1.381 . S
C3048 C3054 1.383 . S
C3049 C3045 1.495 . S
C3049 H3055 0.959 . S
C3049 H3056 0.961 . S
C3049 H3057 0.960 . S
C3050 C3048 1.381 . S
C3050 C3051 1.394 . S
C3050 H3058 0.930 . S
C3051 C3050 1.394 . S
C3051 C3052 1.383 . S
C3051 H3059 0.929 . S
C3052 C3051 1.383 . S
C3052 C3053 1.383 1_565 S
C3053 H3037 0.925 . S
C3053 C3052 1.383 1_545 S
C3053 C3054 1.377 1_545 S
C3054 H3038 0.931 1_565 S
C3054 C3048 1.383 . S
C3054 C3053 1.377 1_565 S
H3055 C3049 0.959 . S
H3056 C3049 0.961 . S
H3057 C3049 0.960 . S
H3058 C3050 0.930 . S
H3059 C3051 0.929 . S
H3060 C3068 0.929 . S
H3061 C3070 0.930 . S
H3062 C3072 0.930 . S
H3063 C3075 0.929 . S
H3064 C3078 0.930 . S
H3065 C3080 0.960 . S
H3066 C3080 0.960 . S
H3067 C3080 0.960 1_455 S
C3068 H3060 0.929 . S
C3068 C3069 1.377 . S
C3068 C3070 1.384 . S
C3069 C3068 1.377 . S
C3069 C3075 1.390 . S
C3070 H3061 0.930 . S
C3070 C3068 1.384 . S
C3070 C3071 1.372 . S
C3071 C3070 1.372 . S
C3071 C3072 1.400 . S
C3071 C3076 1.490 . S
C3072 H3062 0.930 . S
C3072 C3071 1.400 . S
C3072 C3075 1.386 . S
H3073 C3089 0.930 . S
H3074 C3090 0.931 . S
C3075 H3063 0.929 . S
C3075 C3069 1.390 . S
C3075 C3072 1.386 . S
C3076 C3071 1.490 . S
C3076 C3078 1.395 . S
C3076 C3079 1.403 . S
H3077 C3083 0.930 . S
C3078 H3064 0.930 . S
C3078 C3076 1.395 . S
C3078 C3081 1.403 . S
C3079 C3076 1.403 . S
C3079 C3080 1.524 1_455 S
C3079 C3083 1.400 . S
C3080 H3065 0.960 . S
C3080 H3066 0.960 . S
C3080 H3067 0.960 1_655 S
C3080 C3079 1.524 1_655 S
C3081 C3078 1.403 . S
C3081 C3082 1.392 . S
C3081 C3085 1.495 . S
C3082 C3081 1.392 . S
C3082 C3083 1.385 . S
C3082 C3084 1.478 . S
C3083 H3077 0.930 . S
C3083 C3079 1.400 . S
C3083 C3082 1.385 . S
C3084 C3082 1.478 . S
C3084 C3086 1.381 . S
C3084 C3090 1.383 . S
C3085 C3081 1.495 . S
C3085 H3091 0.959 . S
C3085 H3092 0.961 . S
C3085 H3093 0.960 . S
C3086 C3084 1.381 . S
C3086 C3087 1.394 . S
C3086 H3094 0.930 . S
C3087 C3086 1.394 . S
C3087 C3088 1.383 . S
C3087 H3095 0.929 . S
C3088 C3087 1.383 . S
C3088 C3089 1.377 . S
C3089 H3073 0.930 . S
C3089 C3088 1.377 . S
C3089 C3090 1.379 . S
C3090 H3074 0.931 . S
C3090 C3084 1.383 . S
C3090 C3089 1.379 . S
H3091 C3085 0.959 . S
H3092 C3085 0.961 . S
H3093 C3085 0.960 . S
H3094 C3086 0.930 . S
H3095 C3087 0.929 . S
H3096 C3104 0.929 . S
H3097 C3106 0.930 . S
H3098 C3108 0.930 . S
H3099 C3111 0.929 . S
H3100 C3114 0.930 . S
H3101 C3116 0.960 . S
H3102 C3116 0.960 . S
H3103 C3116 0.960 . S
C3104 H3096 0.929 . S
C3104 C3105 1.377 . S
C3104 C3106 1.384 . S
C3105 C3104 1.377 . S
C3105 C3111 1.390 . S
C3106 H3097 0.930 . S
C3106 C3104 1.384 . S
C3106 C3107 1.372 . S
C3107 C3106 1.372 . S
C3107 C3108 1.400 . S
C3107 C3112 1.490 . S
C3108 H3098 0.930 . S
C3108 C3107 1.400 . S
C3108 C3111 1.386 . S
H3109 C3125 0.930 . S
H3110 C3126 0.931 . S
C3111 H3099 0.929 . S
C3111 C3105 1.390 . S
C3111 C3108 1.386 . S
C3112 C3107 1.490 . S
C3112 C3114 1.395 . S
C3112 C3115 1.403 . S
H3113 C3119 0.930 . S
C3114 H3100 0.930 . S
C3114 C3112 1.395 . S
C3114 C3117 1.403 . S
C3115 C3112 1.403 . S
C3115 C3116 1.524 . S
C3115 C3119 1.400 . S
C3116 H3101 0.960 . S
C3116 H3102 0.960 . S
C3116 H3103 0.960 . S
C3116 C3115 1.524 . S
C3117 C3114 1.403 . S
C3117 C3118 1.392 . S
C3117 C3121 1.495 . S
C3118 C3117 1.392 . S
C3118 C3119 1.385 . S
C3118 C3120 1.478 . S
C3119 H3113 0.930 . S
C3119 C3115 1.400 . S
C3119 C3118 1.385 . S
C3120 C3118 1.478 . S
C3120 C3122 1.381 . S
C3120 C3126 1.383 . S
C3121 C3117 1.495 . S
C3121 H3127 0.959 . S
C3121 H3128 0.961 . S
C3121 H3129 0.960 . S
C3122 C3120 1.381 . S
C3122 C3123 1.394 . S
C3122 H3130 0.930 . S
C3123 C3122 1.394 . S
C3123 C3124 1.383 . S
C3123 H3131 0.929 . S
C3124 C3123 1.383 . S
C3124 C3125 1.377 . S
C3125 H3109 0.930 . S
C3125 C3124 1.377 . S
C3125 C3126 1.379 . S
C3126 H3110 0.931 . S
C3126 C3120 1.383 . S
C3126 C3125 1.379 . S
H3127 C3121 0.959 . S
H3128 C3121 0.961 . S
H3129 C3121 0.960 . S
H3130 C3122 0.930 . S
H3131 C3123 0.929 . S
H3132 C3140 0.929 . S
H3133 C3142 0.930 . S
H3134 C3144 0.930 1_655 S
H3135 C3147 0.929 1_655 S
H3136 C3150 0.930 . S
H3137 C3152 0.960 . S
H3138 C3152 0.960 . S
H3139 C3152 0.960 1_655 S
C3140 H3132 0.929 . S
C3140 C3141 1.377 . S
C3140 C3142 1.384 . S
C3141 C3140 1.377 . S
C3141 C3147 1.390 . S
C3142 H3133 0.930 . S
C3142 C3140 1.384 . S
C3142 C3143 1.372 . S
C3143 C3142 1.372 . S
C3143 C3144 1.400 . S
C3143 C3148 1.490 . S
C3144 H3134 0.930 1_455 S
C3144 C3143 1.400 . S
C3144 C3147 1.386 . S
H3145 C3161 0.930 . S
H3146 C3162 0.931 . S
C3147 H3135 0.929 1_455 S
C3147 C3141 1.390 . S
C3147 C3144 1.386 . S
C3148 C3143 1.490 . S
C3148 C3150 1.395 . S
C3148 C3151 1.403 . S
H3149 C3155 0.930 . S
C3150 H3136 0.930 . S
C3150 C3148 1.395 . S
C3150 C3153 1.403 . S
C3151 C3148 1.403 . S
C3151 C3152 1.524 . S
C3151 C3155 1.400 . S
C3152 H3137 0.960 . S
C3152 H3138 0.960 . S
C3152 H3139 0.960 1_455 S
C3152 C3151 1.524 . S
C3153 C3150 1.403 . S
C3153 C3154 1.392 . S
C3153 C3157 1.495 . S
C3154 C3153 1.392 . S
C3154 C3155 1.385 . S
C3154 C3156 1.478 . S
C3155 H3149 0.930 . S
C3155 C3151 1.400 . S
C3155 C3154 1.385 . S
C3156 C3154 1.478 . S
C3156 C3158 1.381 . S
C3156 C3162 1.383 1_455 S
C3157 C3153 1.495 . S
C3157 H3163 0.959 . S
C3157 H3164 0.961 . S
C3157 H3165 0.960 . S
C3158 C3156 1.381 . S
C3158 C3159 1.394 . S
C3158 H3166 0.930 . S
C3159 C3158 1.394 . S
C3159 C3160 1.383 . S
C3159 H3167 0.929 . S
C3160 C3159 1.383 . S
C3160 C3161 1.377 1_455 S
C3161 H3145 0.930 . S
C3161 C3160 1.377 1_655 S
C3161 C3162 1.379 . S
C3162 H3146 0.931 . S
C3162 C3156 1.383 1_655 S
C3162 C3161 1.379 . S
H3163 C3157 0.959 . S
H3164 C3157 0.961 . S
H3165 C3157 0.960 . S
H3166 C3158 0.930 . S
H3167 C3159 0.929 . S
H3168 C3176 0.929 . S
H3169 C3178 0.930 . S
H3170 C3180 0.930 . S
H3171 C3183 0.929 . S
H3172 C3186 0.930 . S
H3173 C3188 0.960 . S
H3174 C3188 0.960 . S
H3175 C3188 0.960 . S
C3176 H3168 0.929 . S
C3176 C3177 1.377 . S
C3176 C3178 1.384 . S
C3177 C3176 1.377 . S
C3177 C3183 1.390 . S
C3178 H3169 0.930 . S
C3178 C3176 1.384 . S
C3178 C3179 1.372 . S
C3179 C3178 1.372 . S
C3179 C3180 1.400 . S
C3179 C3184 1.490 . S
C3180 H3170 0.930 . S
C3180 C3179 1.400 . S
C3180 C3183 1.386 . S
H3181 C3197 0.930 . S
H3182 C3198 0.931 . S
C3183 H3171 0.929 . S
C3183 C3177 1.390 . S
C3183 C3180 1.386 . S
C3184 C3179 1.490 . S
C3184 C3186 1.395 . S
C3184 C3187 1.403 . S
H3185 C3191 0.930 . S
C3186 H3172 0.930 . S
C3186 C3184 1.395 . S
C3186 C3189 1.403 . S
C3187 C3184 1.403 . S
C3187 C3188 1.524 . S
C3187 C3191 1.400 . S
C3188 H3173 0.960 . S
C3188 H3174 0.960 . S
C3188 H3175 0.960 . S
C3188 C3187 1.524 . S
C3189 C3186 1.403 . S
C3189 C3190 1.392 . S
C3189 C3193 1.495 . S
C3190 C3189 1.392 . S
C3190 C3191 1.385 . S
C3190 C3192 1.478 . S
C3191 H3185 0.930 . S
C3191 C3187 1.400 . S
C3191 C3190 1.385 . S
C3192 C3190 1.478 . S
C3192 C3194 1.381 . S
C3192 C3198 1.383 . S
C3193 C3189 1.495 . S
C3193 H3199 0.959 . S
C3193 H3200 0.961 . S
C3193 H3201 0.960 . S
C3194 C3192 1.381 . S
C3194 C3195 1.394 . S
C3194 H3202 0.930 . S
C3195 C3194 1.394 . S
C3195 C3196 1.383 . S
C3195 H3203 0.929 . S
C3196 C3195 1.383 . S
C3196 C3197 1.377 . S
C3197 H3181 0.930 . S
C3197 C3196 1.377 . S
C3197 C3198 1.379 . S
C3198 H3182 0.931 . S
C3198 C3192 1.383 . S
C3198 C3197 1.379 . S
H3199 C3193 0.959 . S
H3200 C3193 0.961 . S
H3201 C3193 0.960 . S
H3202 C3194 0.930 . S
H3203 C3195 0.929 . S
H3204 C3212 0.929 . S
H3205 C3214 0.930 . S
H3206 C3216 0.930 . S
H3207 C3219 0.929 . S
H3208 C3222 0.930 . S
H3209 C3224 0.960 . S
H3210 C3224 0.960 . S
H3211 C3224 0.960 . S
C3212 H3204 0.929 . S
C3212 C3213 1.377 . S
C3212 C3214 1.384 . S
C3213 C3212 1.377 . S
C3213 C3219 1.390 . S
C3214 H3205 0.930 . S
C3214 C3212 1.384 . S
C3214 C3215 1.372 . S
C3215 C3214 1.372 . S
C3215 C3216 1.400 . S
C3215 C3220 1.490 . S
C3216 H3206 0.930 . S
C3216 C3215 1.400 . S
C3216 C3219 1.386 . S
H3217 C3233 0.930 . S
H3218 C3234 0.931 . S
C3219 H3207 0.929 . S
C3219 C3213 1.390 . S
C3219 C3216 1.386 . S
C3220 C3215 1.490 . S
C3220 C3222 1.395 . S
C3220 C3223 1.403 . S
H3221 C3227 0.930 . S
C3222 H3208 0.930 . S
C3222 C3220 1.395 . S
C3222 C3225 1.403 . S
C3223 C3220 1.403 . S
C3223 C3224 1.524 . S
C3223 C3227 1.400 . S
C3224 H3209 0.960 . S
C3224 H3210 0.960 . S
C3224 H3211 0.960 . S
C3224 C3223 1.524 . S
C3225 C3222 1.403 . S
C3225 C3226 1.392 . S
C3225 C3229 1.495 1_565 S
C3226 C3225 1.392 . S
C3226 C3227 1.385 . S
C3226 C3228 1.478 . S
C3227 H3221 0.930 . S
C3227 C3223 1.400 . S
C3227 C3226 1.385 . S
C3228 C3226 1.478 . S
C3228 C3230 1.381 . S
C3228 C3234 1.383 1_565 S
C3229 C3225 1.495 1_545 S
C3229 H3235 0.959 . S
C3229 H3236 0.961 . S
C3229 H3237 0.969 . S
C3230 C3228 1.381 . S
C3230 C3231 1.394 . S
C3230 H3238 0.930 . S
C3231 C3230 1.394 . S
C3231 C3232 1.369 1_565 S
C3231 H3239 0.929 . S
C3232 C3231 1.369 1_545 S
C3232 C3233 1.375 . S
C3233 H3217 0.930 . S
C3233 C3232 1.375 . S
C3233 C3234 1.379 . S
C3234 H3218 0.931 . S
C3234 C3228 1.383 1_545 S
C3234 C3233 1.379 . S
H3235 C3229 0.959 . S
H3236 C3229 0.961 . S
H3237 C3229 0.969 . S
H3238 C3230 0.930 . S
H3239 C3231 0.929 . S
H3240 C3248 0.929 . S
H3241 C3250 0.930 . S
H3242 C3252 0.930 . S
H3243 C3255 0.929 . S
H3244 C3258 0.930 . S
H3245 C3260 0.960 . S
H3246 C3260 0.960 . S
H3247 C3260 0.960 . S
C3248 H3240 0.929 . S
C3248 C3249 1.377 . S
C3248 C3250 1.384 . S
C3249 C3248 1.377 . S
C3249 C3255 1.390 . S
C3250 H3241 0.930 . S
C3250 C3248 1.384 . S
C3250 C3251 1.372 . S
C3251 C3250 1.372 . S
C3251 C3252 1.400 . S
C3251 C3256 1.490 . S
C3252 H3242 0.930 . S
C3252 C3251 1.400 . S
C3252 C3255 1.386 . S
H3253 C3269 0.930 . S
H3254 C3270 0.931 . S
C3255 H3243 0.929 . S
C3255 C3249 1.390 . S
C3255 C3252 1.386 . S
C3256 C3251 1.490 . S
C3256 C3258 1.395 . S
C3256 C3259 1.403 . S
H3257 C3263 0.930 . S
C3258 H3244 0.930 . S
C3258 C3256 1.395 . S
C3258 C3261 1.403 . S
C3259 C3256 1.403 . S
C3259 C3260 1.524 . S
C3259 C3263 1.400 . S
C3260 H3245 0.960 . S
C3260 H3246 0.960 . S
C3260 H3247 0.960 . S
C3260 C3259 1.524 . S
C3261 C3258 1.403 . S
C3261 C3262 1.392 . S
C3261 C3265 1.495 . S
C3262 C3261 1.392 . S
C3262 C3263 1.385 . S
C3262 C3264 1.478 . S
C3263 H3257 0.930 . S
C3263 C3259 1.400 . S
C3263 C3262 1.385 . S
C3264 C3262 1.478 . S
C3264 C3266 1.381 . S
C3264 C3270 1.383 1_545 S
C3265 C3261 1.495 . S
C3265 H3271 0.963 . S
C3265 H3272 0.961 1_545 S
C3265 H3273 0.960 . S
C3266 C3264 1.381 . S
C3266 C3267 1.394 . S
C3266 H3274 0.930 . S
C3267 C3266 1.394 . S
C3267 C3268 1.458 . S
C3267 H3275 0.929 . S
C3268 C3267 1.458 . S
C3268 C3269 1.296 1_545 S
C3269 H3253 0.930 . S
C3269 C3268 1.296 1_565 S
C3269 C3270 1.379 . S
C3270 H3254 0.931 . S
C3270 C3264 1.383 1_565 S
C3270 C3269 1.379 . S
H3271 C3265 0.963 . S
H3272 C3265 0.961 1_565 S
H3273 C3265 0.960 . S
H3274 C3266 0.930 . S
H3275 C3267 0.929 . S
H3276 C3284 0.929 . S
H3277 C3286 0.930 . S
H3278 C3288 0.927 1_455 S
H3279 C3291 0.929 . S
H3280 C3294 0.930 . S
H3281 C3296 0.960 . S
H3282 C3296 0.960 . S
H3283 C3296 0.960 . S
C3284 H3276 0.929 . S
C3284 C3285 1.377 . S
C3284 C3286 1.384 . S
C3285 C3284 1.377 . S
C3285 C3291 1.390 . S
C3286 H3277 0.930 . S
C3286 C3284 1.384 . S
C3286 C3287 1.372 . S
C3287 C3286 1.372 . S
C3287 C3288 1.400 . S
C3287 C3292 1.490 . S
C3288 H3278 0.927 1_655 S
C3288 C3287 1.400 . S
C3288 C3291 1.386 . S
H3289 C3305 0.930 . S
H3290 C3306 0.931 . S
C3291 H3279 0.929 . S
C3291 C3285 1.390 . S
C3291 C3288 1.386 . S
C3292 C3287 1.490 . S
C3292 C3294 1.395 . S
C3292 C3295 1.403 . S
H3293 C3299 0.930 . S
C3294 H3280 0.930 . S
C3294 C3292 1.395 . S
C3294 C3297 1.403 . S
C3295 C3292 1.403 . S
C3295 C3296 1.524 . S
C3295 C3299 1.400 . S
C3296 H3281 0.960 . S
C3296 H3282 0.960 . S
C3296 H3283 0.960 . S
C3296 C3295 1.524 . S
C3297 C3294 1.403 . S
C3297 C3298 1.392 . S
C3297 C3301 1.495 . S
C3298 C3297 1.392 . S
C3298 C3299 1.385 . S
C3298 C3300 1.478 . S
C3299 H3293 0.930 . S
C3299 C3295 1.400 . S
C3299 C3298 1.385 . S
C3300 C3298 1.478 . S
C3300 C3302 1.381 . S
C3300 C3306 1.383 1_655 S
C3301 C3297 1.495 . S
C3301 H3307 0.969 . S
C3301 H3308 0.961 1_655 S
C3301 H3309 0.960 . S
C3302 C3300 1.381 . S
C3302 C3303 1.394 . S
C3302 H3310 0.930 . S
C3303 C3302 1.394 . S
C3303 C3304 1.432 . S
C3303 H3311 0.929 . S
C3304 C3303 1.432 . S
C3304 C3305 1.368 1_655 S
C3305 H3289 0.930 . S
C3305 C3304 1.368 1_455 S
C3305 C3306 1.379 . S
C3306 H3290 0.931 . S
C3306 C3300 1.383 1_455 S
C3306 C3305 1.379 . S
H3307 C3301 0.969 . S
H3308 C3301 0.961 1_455 S
H3309 C3301 0.960 . S
H3310 C3302 0.930 . S
H3311 C3303 0.929 . S
H3312 C3320 0.929 . S
H3313 C3322 0.930 . S
H3314 C3324 0.930 . S
H3315 C3327 0.929 . S
H3316 C3330 0.930 . S
H3317 C3332 0.960 . S
H3318 C3332 0.960 . S
H3319 C3332 0.960 . S
C3320 H3312 0.929 . S
C3320 C3321 1.377 . S
C3320 C3322 1.384 . S
C3321 C3320 1.377 . S
C3321 C3327 1.390 . S
C3322 H3313 0.930 . S
C3322 C3320 1.384 . S
C3322 C3323 1.372 . S
C3323 C3322 1.372 . S
C3323 C3324 1.400 . S
C3323 C3328 1.490 . S
C3324 H3314 0.930 . S
C3324 C3323 1.400 . S
C3324 C3327 1.386 . S
H3325 C3341 0.930 . S
H3326 C3342 0.931 . S
C3327 H3315 0.929 . S
C3327 C3321 1.390 . S
C3327 C3324 1.386 . S
C3328 C3323 1.490 . S
C3328 C3330 1.395 . S
C3328 C3331 1.403 . S
H3329 C3335 0.930 . S
C3330 H3316 0.930 . S
C3330 C3328 1.395 . S
C3330 C3333 1.403 . S
C3331 C3328 1.403 . S
C3331 C3332 1.524 . S
C3331 C3335 1.400 . S
C3332 H3317 0.960 . S
C3332 H3318 0.960 . S
C3332 H3319 0.960 . S
C3332 C3331 1.524 . S
C3333 C3330 1.403 . S
C3333 C3334 1.392 . S
C3333 C3337 1.495 . S
C3334 C3333 1.392 . S
C3334 C3335 1.385 . S
C3334 C3336 1.478 . S
C3335 H3329 0.930 . S
C3335 C3331 1.400 . S
C3335 C3334 1.385 . S
C3336 C3334 1.478 . S
C3336 C3338 1.381 . S
C3336 C3342 1.383 . S
C3337 C3333 1.495 . S
C3337 H3343 0.959 . S
C3337 H3344 0.961 . S
C3337 H3345 0.960 . S
C3338 C3336 1.381 . S
C3338 C3339 1.394 . S
C3338 H3346 0.930 . S
C3339 C3338 1.394 . S
C3339 C3340 1.383 . S
C3339 H3347 0.929 . S
C3340 C3339 1.383 . S
C3340 C3341 1.377 . S
C3341 H3325 0.930 . S
C3341 C3340 1.377 . S
C3341 C3342 1.379 . S
C3342 H3326 0.931 . S
C3342 C3336 1.383 . S
C3342 C3341 1.379 . S
H3343 C3337 0.959 . S
H3344 C3337 0.961 . S
H3345 C3337 0.960 . S
H3346 C3338 0.930 . S
H3347 C3339 0.929 . S
H3348 C3356 0.929 . S
H3349 C3358 0.930 . S
H3350 C3360 0.930 . S
H3351 C3363 0.929 . S
H3352 C3366 0.930 . S
H3353 C3368 0.960 . S
H3354 C3368 0.960 . S
H3355 C3368 0.960 . S
C3356 H3348 0.929 . S
C3356 C3357 1.377 . S
C3356 C3358 1.384 . S
C3357 C3356 1.377 . S
C3357 C3363 1.390 . S
C3358 H3349 0.930 . S
C3358 C3356 1.384 . S
C3358 C3359 1.372 . S
C3359 C3358 1.372 . S
C3359 C3360 1.400 . S
C3359 C3364 1.490 . S
C3360 H3350 0.930 . S
C3360 C3359 1.400 . S
C3360 C3363 1.386 . S
H3361 C3377 0.930 . S
H3362 C3378 0.931 . S
C3363 H3351 0.929 . S
C3363 C3357 1.390 . S
C3363 C3360 1.386 . S
C3364 C3359 1.490 . S
C3364 C3366 1.395 . S
C3364 C3367 1.403 . S
H3365 C3371 0.930 . S
C3366 H3352 0.930 . S
C3366 C3364 1.395 . S
C3366 C3369 1.403 . S
C3367 C3364 1.403 . S
C3367 C3368 1.524 . S
C3367 C3371 1.400 . S
C3368 H3353 0.960 . S
C3368 H3354 0.960 . S
C3368 H3355 0.960 . S
C3368 C3367 1.524 . S
C3369 C3366 1.403 . S
C3369 C3370 1.392 . S
C3369 C3373 1.495 . S
C3370 C3369 1.392 . S
C3370 C3371 1.385 . S
C3370 C3372 1.478 . S
C3371 H3365 0.930 . S
C3371 C3367 1.400 . S
C3371 C3370 1.385 . S
C3372 C3370 1.478 . S
C3372 C3374 1.381 . S
C3372 C3378 1.383 . S
C3373 C3369 1.495 . S
C3373 H3379 0.959 . S
C3373 H3380 0.961 . S
C3373 H3381 0.960 . S
C3374 C3372 1.381 . S
C3374 C3375 1.394 . S
C3374 H3382 0.930 . S
C3375 C3374 1.394 . S
C3375 C3376 1.383 . S
C3375 H3383 0.929 . S
C3376 C3375 1.383 . S
C3376 C3377 1.377 . S
C3377 H3361 0.930 . S
C3377 C3376 1.377 . S
C3377 C3378 1.379 . S
C3378 H3362 0.931 . S
C3378 C3372 1.383 . S
C3378 C3377 1.379 . S
H3379 C3373 0.959 . S
H3380 C3373 0.961 . S
H3381 C3373 0.960 . S
H3382 C3374 0.930 . S
H3383 C3375 0.929 . S
H3384 C3392 0.929 . S
H3385 C3394 0.930 . S
H3386 C3396 0.930 . S
H3387 C3399 0.929 . S
H3388 C3402 0.930 . S
H3389 C3404 0.960 . S
H3390 C3404 0.960 . S
H3391 C3404 0.960 . S
C3392 H3384 0.929 . S
C3392 C3393 1.377 . S
C3392 C3394 1.384 . S
C3393 C3392 1.377 . S
C3393 C3399 1.390 . S
C3394 H3385 0.930 . S
C3394 C3392 1.384 . S
C3394 C3395 1.372 . S
C3395 C3394 1.372 . S
C3395 C3396 1.400 . S
C3395 C3400 1.490 . S
C3396 H3386 0.930 . S
C3396 C3395 1.400 . S
C3396 C3399 1.386 . S
H3397 C3413 0.930 . S
H3398 C3414 0.931 . S
C3399 H3387 0.929 . S
C3399 C3393 1.390 . S
C3399 C3396 1.386 . S
C3400 C3395 1.490 . S
C3400 C3402 1.395 . S
C3400 C3403 1.403 . S
H3401 C3407 0.930 . S
C3402 H3388 0.930 . S
C3402 C3400 1.395 . S
C3402 C3405 1.403 . S
C3403 C3400 1.403 . S
C3403 C3404 1.524 . S
C3403 C3407 1.400 . S
C3404 H3389 0.960 . S
C3404 H3390 0.960 . S
C3404 H3391 0.960 . S
C3404 C3403 1.524 . S
C3405 C3402 1.403 . S
C3405 C3406 1.392 . S
C3405 C3409 1.495 . S
C3406 C3405 1.392 . S
C3406 C3407 1.385 . S
C3406 C3408 1.478 . S
C3407 H3401 0.930 . S
C3407 C3403 1.400 . S
C3407 C3406 1.385 . S
C3408 C3406 1.478 . S
C3408 C3410 1.381 . S
C3408 C3414 1.383 . S
C3409 C3405 1.495 . S
C3409 H3415 0.959 . S
C3409 H3416 0.961 . S
C3409 H3417 0.960 . S
C3410 C3408 1.381 . S
C3410 C3411 1.394 . S
C3410 H3418 0.930 . S
C3411 C3410 1.394 . S
C3411 C3412 1.383 . S
C3411 H3419 0.929 . S
C3412 C3411 1.383 . S
C3412 C3413 1.377 . S
C3413 H3397 0.930 . S
C3413 C3412 1.377 . S
C3413 C3414 1.379 . S
C3414 H3398 0.931 . S
C3414 C3408 1.383 . S
C3414 C3413 1.379 . S
H3415 C3409 0.959 . S
H3416 C3409 0.961 . S
H3417 C3409 0.960 . S
H3418 C3410 0.930 . S
H3419 C3411 0.929 . S
H3420 C3428 0.929 . S
H3421 C3430 0.930 . S
H3422 C3432 0.930 . S
H3423 C3435 0.929 . S
H3424 C3438 0.930 . S
H3425 C3440 0.960 . S
H3426 C3440 0.960 . S
H3427 C3440 0.960 . S
C3428 H3420 0.929 . S
C3428 C3429 1.377 . S
C3428 C3430 1.384 . S
C3429 C3428 1.377 . S
C3429 C3435 1.390 . S
C3430 H3421 0.930 . S
C3430 C3428 1.384 . S
C3430 C3431 1.372 . S
C3431 C3430 1.372 . S
C3431 C3432 1.400 . S
C3431 C3436 1.490 . S
C3432 H3422 0.930 . S
C3432 C3431 1.400 . S
C3432 C3435 1.386 . S
H3433 C3449 0.930 . S
H3434 C3450 0.931 . S
C3435 H3423 0.929 . S
C3435 C3429 1.390 . S
C3435 C3432 1.386 . S
C3436 C3431 1.490 . S
C3436 C3438 1.395 . S
C3436 C3439 1.403 . S
H3437 C3443 0.930 . S
C3438 H3424 0.930 . S
C3438 C3436 1.395 . S
C3438 C3441 1.403 . S
C3439 C3436 1.403 . S
C3439 C3440 1.524 . S
C3439 C3443 1.400 . S
C3440 H3425 0.960 . S
C3440 H3426 0.960 . S
C3440 H3427 0.960 . S
C3440 C3439 1.524 . S
C3441 C3438 1.403 . S
C3441 C3442 1.392 . S
C3441 C3445 1.495 . S
C3442 C3441 1.392 . S
C3442 C3443 1.385 . S
C3442 C3444 1.478 . S
C3443 H3437 0.930 . S
C3443 C3439 1.400 . S
C3443 C3442 1.385 . S
C3444 C3442 1.478 . S
C3444 C3446 1.381 . S
C3444 C3450 1.383 . S
C3445 C3441 1.495 . S
C3445 H3451 0.959 . S
C3445 H3452 0.961 . S
C3445 H3453 0.960 . S
C3446 C3444 1.381 . S
C3446 C3447 1.394 . S
C3446 H3454 0.930 . S
C3447 C3446 1.394 . S
C3447 C3448 1.383 . S
C3447 H3455 0.929 . S
C3448 C3447 1.383 . S
C3448 C3449 1.377 . S
C3449 H3433 0.930 . S
C3449 C3448 1.377 . S
C3449 C3450 1.379 . S
C3450 H3434 0.931 . S
C3450 C3444 1.383 . S
C3450 C3449 1.379 . S
H3451 C3445 0.959 . S
H3452 C3445 0.961 . S
H3453 C3445 0.960 . S
H3454 C3446 0.930 . S
H3455 C3447 0.929 . S
H3456 C3464 0.929 . S
H3457 C3466 0.930 . S
H3458 C3468 0.930 . S
H3459 C3471 0.929 . S
H3460 C3474 0.930 . S
H3461 C3476 0.960 . S
H3462 C3476 0.960 . S
H3463 C3476 0.960 . S
C3464 H3456 0.929 . S
C3464 C3465 1.377 . S
C3464 C3466 1.384 . S
C3465 C3464 1.377 . S
C3465 C3471 1.390 . S
C3466 H3457 0.930 . S
C3466 C3464 1.384 . S
C3466 C3467 1.372 . S
C3467 C3466 1.372 . S
C3467 C3468 1.400 . S
C3467 C3472 1.490 . S
C3468 H3458 0.930 . S
C3468 C3467 1.400 . S
C3468 C3471 1.386 . S
H3469 C3485 0.930 . S
H3470 C3486 0.931 . S
C3471 H3459 0.929 . S
C3471 C3465 1.390 . S
C3471 C3468 1.386 . S
C3472 C3467 1.490 . S
C3472 C3474 1.395 . S
C3472 C3475 1.403 . S
H3473 C3479 0.930 . S
C3474 H3460 0.930 . S
C3474 C3472 1.395 . S
C3474 C3477 1.403 . S
C3475 C3472 1.403 . S
C3475 C3476 1.524 . S
C3475 C3479 1.400 . S
C3476 H3461 0.960 . S
C3476 H3462 0.960 . S
C3476 H3463 0.960 . S
C3476 C3475 1.524 . S
C3477 C3474 1.403 . S
C3477 C3478 1.392 . S
C3477 C3481 1.495 . S
C3478 C3477 1.392 . S
C3478 C3479 1.385 . S
C3478 C3480 1.478 . S
C3479 H3473 0.930 . S
C3479 C3475 1.400 . S
C3479 C3478 1.385 . S
C3480 C3478 1.478 . S
C3480 C3482 1.381 . S
C3480 C3486 1.383 . S
C3481 C3477 1.495 . S
C3481 H3487 0.959 . S
C3481 H3488 0.961 . S
C3481 H3489 0.960 . S
C3482 C3480 1.381 . S
C3482 C3483 1.394 . S
C3482 H3490 0.930 . S
C3483 C3482 1.394 . S
C3483 C3484 1.383 . S
C3483 H3491 0.929 . S
C3484 C3483 1.383 . S
C3484 C3485 1.377 . S
C3485 H3469 0.930 . S
C3485 C3484 1.377 . S
C3485 C3486 1.379 . S
C3486 H3470 0.931 . S
C3486 C3480 1.383 . S
C3486 C3485 1.379 . S
H3487 C3481 0.959 . S
H3488 C3481 0.961 . S
H3489 C3481 0.960 . S
H3490 C3482 0.930 . S
H3491 C3483 0.929 . S
H3492 C3500 0.929 . S
H3493 C3502 0.930 . S
H3494 C3504 0.930 . S
H3495 C3507 0.929 . S
H3496 C3510 0.930 . S
H3497 C3512 0.960 . S
H3498 C3512 0.960 . S
H3499 C3512 0.960 . S
C3500 H3492 0.929 . S
C3500 C3501 1.377 . S
C3500 C3502 1.384 . S
C3501 C3500 1.377 . S
C3501 C3507 1.390 . S
C3502 H3493 0.930 . S
C3502 C3500 1.384 . S
C3502 C3503 1.372 . S
C3503 C3502 1.372 . S
C3503 C3504 1.400 . S
C3503 C3508 1.490 . S
C3504 H3494 0.930 . S
C3504 C3503 1.400 . S
C3504 C3507 1.386 . S
H3505 C3521 0.930 . S
H3506 C3522 0.931 . S
C3507 H3495 0.929 . S
C3507 C3501 1.390 . S
C3507 C3504 1.386 . S
C3508 C3503 1.490 . S
C3508 C3510 1.395 . S
C3508 C3511 1.403 . S
H3509 C3515 0.930 . S
C3510 H3496 0.930 . S
C3510 C3508 1.395 . S
C3510 C3513 1.403 . S
C3511 C3508 1.403 . S
C3511 C3512 1.524 . S
C3511 C3515 1.400 . S
C3512 H3497 0.960 . S
C3512 H3498 0.960 . S
C3512 H3499 0.960 . S
C3512 C3511 1.524 . S
C3513 C3510 1.403 . S
C3513 C3514 1.392 . S
C3513 C3517 1.495 . S
C3514 C3513 1.392 . S
C3514 C3515 1.385 . S
C3514 C3516 1.478 . S
C3515 H3509 0.930 . S
C3515 C3511 1.400 . S
C3515 C3514 1.385 . S
C3516 C3514 1.478 . S
C3516 C3518 1.381 . S
C3516 C3522 1.383 . S
C3517 C3513 1.495 . S
C3517 H3523 0.959 . S
C3517 H3524 0.961 . S
C3517 H3525 0.960 . S
C3518 C3516 1.381 . S
C3518 C3519 1.394 . S
C3518 H3526 0.930 . S
C3519 C3518 1.394 . S
C3519 C3520 1.383 . S
C3519 H3527 0.929 . S
C3520 C3519 1.383 . S
C3520 C3521 1.377 . S
C3521 H3505 0.930 . S
C3521 C3520 1.377 . S
C3521 C3522 1.379 . S
C3522 H3506 0.931 . S
C3522 C3516 1.383 . S
C3522 C3521 1.379 . S
H3523 C3517 0.959 . S
H3524 C3517 0.961 . S
H3525 C3517 0.960 . S
H3526 C3518 0.930 . S
H3527 C3519 0.929 . S
H3528 C3536 0.929 . S
H3529 C3538 0.930 . S
H3530 C3540 0.930 . S
H3531 C3543 0.929 . S
H3532 C3546 0.930 . S
H3533 C3548 0.960 . S
H3534 C3548 0.960 . S
H3535 C3548 0.960 . S
C3536 H3528 0.929 . S
C3536 C3537 1.377 . S
C3536 C3538 1.384 . S
C3537 C3536 1.377 . S
C3537 C3543 1.390 . S
C3538 H3529 0.930 . S
C3538 C3536 1.384 . S
C3538 C3539 1.372 . S
C3539 C3538 1.372 . S
C3539 C3540 1.400 . S
C3539 C3544 1.490 . S
C3540 H3530 0.930 . S
C3540 C3539 1.400 . S
C3540 C3543 1.386 . S
H3541 C3557 0.930 . S
H3542 C3558 0.931 . S
C3543 H3531 0.929 . S
C3543 C3537 1.390 . S
C3543 C3540 1.386 . S
C3544 C3539 1.490 . S
C3544 C3546 1.395 . S
C3544 C3547 1.403 . S
H3545 C3551 0.930 . S
C3546 H3532 0.930 . S
C3546 C3544 1.395 . S
C3546 C3549 1.403 . S
C3547 C3544 1.403 . S
C3547 C3548 1.524 . S
C3547 C3551 1.400 . S
C3548 H3533 0.960 . S
C3548 H3534 0.960 . S
C3548 H3535 0.960 . S
C3548 C3547 1.524 . S
C3549 C3546 1.403 . S
C3549 C3550 1.392 . S
C3549 C3553 1.495 . S
C3550 C3549 1.392 . S
C3550 C3551 1.385 . S
C3550 C3552 1.478 . S
C3551 H3545 0.930 . S
C3551 C3547 1.400 . S
C3551 C3550 1.385 . S
C3552 C3550 1.478 . S
C3552 C3554 1.381 . S
C3552 C3558 1.383 . S
C3553 C3549 1.495 . S
C3553 H3559 0.959 . S
C3553 H3560 0.961 . S
C3553 H3561 0.960 . S
C3554 C3552 1.381 . S
C3554 C3555 1.394 . S
C3554 H3562 0.930 . S
C3555 C3554 1.394 . S
C3555 C3556 1.383 . S
C3555 H3563 0.929 . S
C3556 C3555 1.383 . S
C3556 C3557 1.377 . S
C3557 H3541 0.930 . S
C3557 C3556 1.377 . S
C3557 C3558 1.379 . S
C3558 H3542 0.931 . S
C3558 C3552 1.383 . S
C3558 C3557 1.379 . S
H3559 C3553 0.959 . S
H3560 C3553 0.961 . S
H3561 C3553 0.960 . S
H3562 C3554 0.930 . S
H3563 C3555 0.929 . S
H3564 C3572 0.929 . S
H3565 C3574 0.930 . S
H3566 C3576 0.930 . S
H3567 C3579 0.929 . S
H3568 C3582 0.930 . S
H3569 C3584 0.960 . S
H3570 C3584 0.960 . S
H3571 C3584 0.960 . S
C3572 H3564 0.929 . S
C3572 C3573 1.377 . S
C3572 C3574 1.384 . S
C3573 C3572 1.377 . S
C3573 C3579 1.390 . S
C3574 H3565 0.930 . S
C3574 C3572 1.384 . S
C3574 C3575 1.372 . S
C3575 C3574 1.372 . S
C3575 C3576 1.400 . S
C3575 C3580 1.490 . S
C3576 H3566 0.930 . S
C3576 C3575 1.400 . S
C3576 C3579 1.386 . S
H3577 C3593 0.930 . S
H3578 C3594 0.931 . S
C3579 H3567 0.929 . S
C3579 C3573 1.390 . S
C3579 C3576 1.386 . S
C3580 C3575 1.490 . S
C3580 C3582 1.395 . S
C3580 C3583 1.403 . S
H3581 C3587 0.930 . S
C3582 H3568 0.930 . S
C3582 C3580 1.395 . S
C3582 C3585 1.403 . S
C3583 C3580 1.403 . S
C3583 C3584 1.524 . S
C3583 C3587 1.400 . S
C3584 H3569 0.960 . S
C3584 H3570 0.960 . S
C3584 H3571 0.960 . S
C3584 C3583 1.524 . S
C3585 C3582 1.403 . S
C3585 C3586 1.392 . S
C3585 C3589 1.495 . S
C3586 C3585 1.392 . S
C3586 C3587 1.385 . S
C3586 C3588 1.478 . S
C3587 H3581 0.930 . S
C3587 C3583 1.400 . S
C3587 C3586 1.385 . S
C3588 C3586 1.478 . S
C3588 C3590 1.381 . S
C3588 C3594 1.383 . S
C3589 C3585 1.495 . S
C3589 H3595 0.959 . S
C3589 H3596 0.961 . S
C3589 H3597 0.960 . S
C3590 C3588 1.381 . S
C3590 C3591 1.394 . S
C3590 H3598 0.930 . S
C3591 C3590 1.394 . S
C3591 C3592 1.383 . S
C3591 H3599 0.929 . S
C3592 C3591 1.383 . S
C3592 C3593 1.377 . S
C3593 H3577 0.930 . S
C3593 C3592 1.377 . S
C3593 C3594 1.379 . S
C3594 H3578 0.931 . S
C3594 C3588 1.383 . S
C3594 C3593 1.379 . S
H3595 C3589 0.959 . S
H3596 C3589 0.961 . S
H3597 C3589 0.960 . S
H3598 C3590 0.930 . S
H3599 C3591 0.929 . S
H3600 C3608 0.929 . S
H3601 C3610 0.930 . S
H3602 C3612 0.930 . S
H3603 C3615 0.929 . S
H3604 C3618 0.930 . S
H3605 C3620 0.960 . S
H3606 C3620 0.960 . S
H3607 C3620 0.960 . S
C3608 H3600 0.929 . S
C3608 C3609 1.377 . S
C3608 C3610 1.384 . S
C3609 C3608 1.377 . S
C3609 C3615 1.390 . S
C3610 H3601 0.930 . S
C3610 C3608 1.384 . S
C3610 C3611 1.372 . S
C3611 C3610 1.372 . S
C3611 C3612 1.400 . S
C3611 C3616 1.490 . S
C3612 H3602 0.930 . S
C3612 C3611 1.400 . S
C3612 C3615 1.386 . S
H3613 C3629 0.930 . S
H3614 C3630 0.931 . S
C3615 H3603 0.929 . S
C3615 C3609 1.390 . S
C3615 C3612 1.386 . S
C3616 C3611 1.490 . S
C3616 C3618 1.395 . S
C3616 C3619 1.403 . S
H3617 C3623 0.930 . S
C3618 H3604 0.930 . S
C3618 C3616 1.395 . S
C3618 C3621 1.403 . S
C3619 C3616 1.403 . S
C3619 C3620 1.524 . S
C3619 C3623 1.400 . S
C3620 H3605 0.960 . S
C3620 H3606 0.960 . S
C3620 H3607 0.960 . S
C3620 C3619 1.524 . S
C3621 C3618 1.403 . S
C3621 C3622 1.392 . S
C3621 C3625 1.495 . S
C3622 C3621 1.392 . S
C3622 C3623 1.385 . S
C3622 C3624 1.478 . S
C3623 H3617 0.930 . S
C3623 C3619 1.400 . S
C3623 C3622 1.385 . S
C3624 C3622 1.478 . S
C3624 C3626 1.381 . S
C3624 C3630 1.383 . S
C3625 C3621 1.495 . S
C3625 H3631 0.959 . S
C3625 H3632 0.961 . S
C3625 H3633 0.960 . S
C3626 C3624 1.381 . S
C3626 C3627 1.394 . S
C3626 H3634 0.930 . S
C3627 C3626 1.394 . S
C3627 C3628 1.383 . S
C3627 H3635 0.929 . S
C3628 C3627 1.383 . S
C3628 C3629 1.377 . S
C3629 H3613 0.930 . S
C3629 C3628 1.377 . S
C3629 C3630 1.379 . S
C3630 H3614 0.931 . S
C3630 C3624 1.383 . S
C3630 C3629 1.379 . S
H3631 C3625 0.959 . S
H3632 C3625 0.961 . S
H3633 C3625 0.960 . S
H3634 C3626 0.930 . S
H3635 C3627 0.929 . S
H3636 C3644 0.929 . S
H3637 C3646 0.930 . S
H3638 C3648 0.930 . S
H3639 C3651 0.929 . S
H3640 C3654 0.930 . S
H3641 C3656 0.960 . S
H3642 C3656 0.960 . S
H3643 C3656 0.960 . S
C3644 H3636 0.929 . S
C3644 C3645 1.377 . S
C3644 C3646 1.384 . S
C3645 C3644 1.377 . S
C3645 C3651 1.390 . S
C3646 H3637 0.930 . S
C3646 C3644 1.384 . S
C3646 C3647 1.372 . S
C3647 C3646 1.372 . S
C3647 C3648 1.400 . S
C3647 C3652 1.490 . S
C3648 H3638 0.930 . S
C3648 C3647 1.400 . S
C3648 C3651 1.386 . S
H3649 C3665 0.930 . S
H3650 C3666 0.931 . S
C3651 H3639 0.929 . S
C3651 C3645 1.390 . S
C3651 C3648 1.386 . S
C3652 C3647 1.490 . S
C3652 C3654 1.395 . S
C3652 C3655 1.403 . S
H3653 C3659 0.930 . S
C3654 H3640 0.930 . S
C3654 C3652 1.395 . S
C3654 C3657 1.403 . S
C3655 C3652 1.403 . S
C3655 C3656 1.524 . S
C3655 C3659 1.400 . S
C3656 H3641 0.960 . S
C3656 H3642 0.960 . S
C3656 H3643 0.960 . S
C3656 C3655 1.524 . S
C3657 C3654 1.403 . S
C3657 C3658 1.392 . S
C3657 C3661 1.495 . S
C3658 C3657 1.392 . S
C3658 C3659 1.385 . S
C3658 C3660 1.478 . S
C3659 H3653 0.930 . S
C3659 C3655 1.400 . S
C3659 C3658 1.385 . S
C3660 C3658 1.478 . S
C3660 C3662 1.381 . S
C3660 C3666 1.383 . S
C3661 C3657 1.495 . S
C3661 H3667 0.959 . S
C3661 H3668 0.961 . S
C3661 H3669 0.960 . S
C3662 C3660 1.381 . S
C3662 C3663 1.394 . S
C3662 H3670 0.930 . S
C3663 C3662 1.394 . S
C3663 C3664 1.383 . S
C3663 H3671 0.929 . S
C3664 C3663 1.383 . S
C3664 C3665 1.377 . S
C3665 H3649 0.930 . S
C3665 C3664 1.377 . S
C3665 C3666 1.379 . S
C3666 H3650 0.931 . S
C3666 C3660 1.383 . S
C3666 C3665 1.379 . S
H3667 C3661 0.959 . S
H3668 C3661 0.961 . S
H3669 C3661 0.960 . S
H3670 C3662 0.930 . S
H3671 C3663 0.929 . S
H3672 C3680 0.929 . S
H3673 C3682 0.930 . S
H3674 C3684 0.930 . S
H3675 C3687 0.929 . S
H3676 C3690 0.930 . S
H3677 C3692 0.960 . S
H3678 C3692 0.960 . S
H3679 C3692 0.960 . S
C3680 H3672 0.929 . S
C3680 C3681 1.377 . S
C3680 C3682 1.384 . S
C3681 C3680 1.377 . S
C3681 C3687 1.390 . S
C3682 H3673 0.930 . S
C3682 C3680 1.384 . S
C3682 C3683 1.372 . S
C3683 C3682 1.372 . S
C3683 C3684 1.400 . S
C3683 C3688 1.490 . S
C3684 H3674 0.930 . S
C3684 C3683 1.400 . S
C3684 C3687 1.386 . S
H3685 C3701 0.930 . S
H3686 C3702 0.931 . S
C3687 H3675 0.929 . S
C3687 C3681 1.390 . S
C3687 C3684 1.386 . S
C3688 C3683 1.490 . S
C3688 C3690 1.395 . S
C3688 C3691 1.403 . S
H3689 C3695 0.930 . S
C3690 H3676 0.930 . S
C3690 C3688 1.395 . S
C3690 C3693 1.403 . S
C3691 C3688 1.403 . S
C3691 C3692 1.524 . S
C3691 C3695 1.400 . S
C3692 H3677 0.960 . S
C3692 H3678 0.960 . S
C3692 H3679 0.960 . S
C3692 C3691 1.524 . S
C3693 C3690 1.403 . S
C3693 C3694 1.392 . S
C3693 C3697 1.495 . S
C3694 C3693 1.392 . S
C3694 C3695 1.385 . S
C3694 C3696 1.478 . S
C3695 H3689 0.930 . S
C3695 C3691 1.400 . S
C3695 C3694 1.385 . S
C3696 C3694 1.478 . S
C3696 C3698 1.381 . S
C3696 C3702 1.383 . S
C3697 C3693 1.495 . S
C3697 H3703 0.959 . S
C3697 H3704 0.961 . S
C3697 H3705 0.960 . S
C3698 C3696 1.381 . S
C3698 C3699 1.394 . S
C3698 H3706 0.930 . S
C3699 C3698 1.394 . S
C3699 C3700 1.383 . S
C3699 H3707 0.929 . S
C3700 C3699 1.383 . S
C3700 C3701 1.377 . S
C3701 H3685 0.930 . S
C3701 C3700 1.377 . S
C3701 C3702 1.379 . S
C3702 H3686 0.931 . S
C3702 C3696 1.383 . S
C3702 C3701 1.379 . S
H3703 C3697 0.959 . S
H3704 C3697 0.961 . S
H3705 C3697 0.960 . S
H3706 C3698 0.930 . S
H3707 C3699 0.929 . S
H3708 C3716 0.929 . S
H3709 C3718 0.930 . S
H3710 C3720 0.930 . S
H3711 C3723 0.929 . S
H3712 C3726 0.930 . S
H3713 C3728 0.960 . S
H3714 C3728 0.960 . S
H3715 C3728 0.960 . S
C3716 H3708 0.929 . S
C3716 C3717 1.377 . S
C3716 C3718 1.384 . S
C3717 C3716 1.377 . S
C3717 C3723 1.390 . S
C3718 H3709 0.930 . S
C3718 C3716 1.384 . S
C3718 C3719 1.372 . S
C3719 C3718 1.372 . S
C3719 C3720 1.400 . S
C3719 C3724 1.490 . S
C3720 H3710 0.930 . S
C3720 C3719 1.400 . S
C3720 C3723 1.386 . S
H3721 C3737 0.930 . S
H3722 C3738 0.931 . S
C3723 H3711 0.929 . S
C3723 C3717 1.390 . S
C3723 C3720 1.386 . S
C3724 C3719 1.490 . S
C3724 C3726 1.395 . S
C3724 C3727 1.403 . S
H3725 C3731 0.930 . S
C3726 H3712 0.930 . S
C3726 C3724 1.395 . S
C3726 C3729 1.403 . S
C3727 C3724 1.403 . S
C3727 C3728 1.524 . S
C3727 C3731 1.400 . S
C3728 H3713 0.960 . S
C3728 H3714 0.960 . S
C3728 H3715 0.960 . S
C3728 C3727 1.524 . S
C3729 C3726 1.403 . S
C3729 C3730 1.392 . S
C3729 C3733 1.495 . S
C3730 C3729 1.392 . S
C3730 C3731 1.385 . S
C3730 C3732 1.478 . S
C3731 H3725 0.930 . S
C3731 C3727 1.400 . S
C3731 C3730 1.385 . S
C3732 C3730 1.478 . S
C3732 C3734 1.381 . S
C3732 C3738 1.383 . S
C3733 C3729 1.495 . S
C3733 H3739 0.959 . S
C3733 H3740 0.961 . S
C3733 H3741 0.960 . S
C3734 C3732 1.381 . S
C3734 C3735 1.394 . S
C3734 H3742 0.930 . S
C3735 C3734 1.394 . S
C3735 C3736 1.383 . S
C3735 H3743 0.929 . S
C3736 C3735 1.383 . S
C3736 C3737 1.377 . S
C3737 H3721 0.930 . S
C3737 C3736 1.377 . S
C3737 C3738 1.379 . S
C3738 H3722 0.931 . S
C3738 C3732 1.383 . S
C3738 C3737 1.379 . S
H3739 C3733 0.959 . S
H3740 C3733 0.961 . S
H3741 C3733 0.960 . S
H3742 C3734 0.930 . S
H3743 C3735 0.929 . S
H3744 C3752 0.929 . S
H3745 C3754 0.930 . S
H3746 C3756 0.930 . S
H3747 C3759 0.929 . S
H3748 C3762 0.930 . S
H3749 C3764 0.960 . S
H3750 C3764 0.960 . S
H3751 C3764 0.960 . S
C3752 H3744 0.929 . S
C3752 C3753 1.377 . S
C3752 C3754 1.384 . S
C3753 C3752 1.377 . S
C3753 C3759 1.390 . S
C3754 H3745 0.930 . S
C3754 C3752 1.384 . S
C3754 C3755 1.372 . S
C3755 C3754 1.372 . S
C3755 C3756 1.400 . S
C3755 C3760 1.490 . S
C3756 H3746 0.930 . S
C3756 C3755 1.400 . S
C3756 C3759 1.386 . S
H3757 C3773 0.930 . S
H3758 C3774 0.931 . S
C3759 H3747 0.929 . S
C3759 C3753 1.390 . S
C3759 C3756 1.386 . S
C3760 C3755 1.490 . S
C3760 C3762 1.395 . S
C3760 C3763 1.403 . S
H3761 C3767 0.930 . S
C3762 H3748 0.930 . S
C3762 C3760 1.395 . S
C3762 C3765 1.403 . S
C3763 C3760 1.403 . S
C3763 C3764 1.524 . S
C3763 C3767 1.400 . S
C3764 H3749 0.960 . S
C3764 H3750 0.960 . S
C3764 H3751 0.960 . S
C3764 C3763 1.524 . S
C3765 C3762 1.403 . S
C3765 C3766 1.392 . S
C3765 C3769 1.495 . S
C3766 C3765 1.392 . S
C3766 C3767 1.385 . S
C3766 C3768 1.478 . S
C3767 H3761 0.930 . S
C3767 C3763 1.400 . S
C3767 C3766 1.385 . S
C3768 C3766 1.478 . S
C3768 C3770 1.381 . S
C3768 C3774 1.383 . S
C3769 C3765 1.495 . S
C3769 H3775 0.959 . S
C3769 H3776 0.961 . S
C3769 H3777 0.960 . S
C3770 C3768 1.381 . S
C3770 C3771 1.394 . S
C3770 H3778 0.930 . S
C3771 C3770 1.394 . S
C3771 C3772 1.383 . S
C3771 H3779 0.929 . S
C3772 C3771 1.383 . S
C3772 C3773 1.377 . S
C3773 H3757 0.930 . S
C3773 C3772 1.377 . S
C3773 C3774 1.379 . S
C3774 H3758 0.931 . S
C3774 C3768 1.383 . S
C3774 C3773 1.379 . S
H3775 C3769 0.959 . S
H3776 C3769 0.961 . S
H3777 C3769 0.960 . S
H3778 C3770 0.930 . S
H3779 C3771 0.929 . S
H3780 C3788 0.929 . S
H3781 C3790 0.930 . S
H3782 C3792 0.930 . S
H3783 C3795 0.929 . S
H3784 C3798 0.930 . S
H3785 C3800 0.960 . S
H3786 C3800 0.960 . S
H3787 C3800 0.960 . S
C3788 H3780 0.929 . S
C3788 C3789 1.377 . S
C3788 C3790 1.384 . S
C3789 C3788 1.377 . S
C3789 C3795 1.390 . S
C3790 H3781 0.930 . S
C3790 C3788 1.384 . S
C3790 C3791 1.372 . S
C3791 C3790 1.372 . S
C3791 C3792 1.400 . S
C3791 C3796 1.490 . S
C3792 H3782 0.930 . S
C3792 C3791 1.400 . S
C3792 C3795 1.386 . S
H3793 C3809 0.930 . S
H3794 C3810 0.931 . S
C3795 H3783 0.929 . S
C3795 C3789 1.390 . S
C3795 C3792 1.386 . S
C3796 C3791 1.490 . S
C3796 C3798 1.395 . S
C3796 C3799 1.403 . S
H3797 C3803 0.930 . S
C3798 H3784 0.930 . S
C3798 C3796 1.395 . S
C3798 C3801 1.403 . S
C3799 C3796 1.403 . S
C3799 C3800 1.524 . S
C3799 C3803 1.400 . S
C3800 H3785 0.960 . S
C3800 H3786 0.960 . S
C3800 H3787 0.960 . S
C3800 C3799 1.524 . S
C3801 C3798 1.403 . S
C3801 C3802 1.392 . S
C3801 C3805 1.495 . S
C3802 C3801 1.392 . S
C3802 C3803 1.385 . S
C3802 C3804 1.478 . S
C3803 H3797 0.930 . S
C3803 C3799 1.400 . S
C3803 C3802 1.385 . S
C3804 C3802 1.478 . S
C3804 C3806 1.381 . S
C3804 C3810 1.383 . S
C3805 C3801 1.495 . S
C3805 H3811 0.959 . S
C3805 H3812 0.961 . S
C3805 H3813 0.960 . S
C3806 C3804 1.381 . S
C3806 C3807 1.394 . S
C3806 H3814 0.930 . S
C3807 C3806 1.394 . S
C3807 C3808 1.383 . S
C3807 H3815 0.929 . S
C3808 C3807 1.383 . S
C3808 C3809 1.377 . S
C3809 H3793 0.930 . S
C3809 C3808 1.377 . S
C3809 C3810 1.379 . S
C3810 H3794 0.931 . S
C3810 C3804 1.383 . S
C3810 C3809 1.379 . S
H3811 C3805 0.959 . S
H3812 C3805 0.961 . S
H3813 C3805 0.960 . S
H3814 C3806 0.930 . S
H3815 C3807 0.929 . S
H3816 C3824 0.929 . S
H3817 C3826 0.930 . S
H3818 C3828 0.930 . S
H3819 C3831 0.929 . S
H3820 C3834 0.930 . S
H3821 C3836 0.960 . S
H3822 C3836 0.960 . S
H3823 C3836 0.960 . S
C3824 H3816 0.929 . S
C3824 C3825 1.377 . S
C3824 C3826 1.384 . S
C3825 C3824 1.377 . S
C3825 C3831 1.390 . S
C3826 H3817 0.930 . S
C3826 C3824 1.384 . S
C3826 C3827 1.372 . S
C3827 C3826 1.372 . S
C3827 C3828 1.400 . S
C3827 C3832 1.490 . S
C3828 H3818 0.930 . S
C3828 C3827 1.400 . S
C3828 C3831 1.386 . S
H3829 C3845 0.930 . S
H3830 C3846 0.931 . S
C3831 H3819 0.929 . S
C3831 C3825 1.390 . S
C3831 C3828 1.386 . S
C3832 C3827 1.490 . S
C3832 C3834 1.395 . S
C3832 C3835 1.403 . S
H3833 C3839 0.930 . S
C3834 H3820 0.930 . S
C3834 C3832 1.395 . S
C3834 C3837 1.403 . S
C3835 C3832 1.403 . S
C3835 C3836 1.524 . S
C3835 C3839 1.400 . S
C3836 H3821 0.960 . S
C3836 H3822 0.960 . S
C3836 H3823 0.960 . S
C3836 C3835 1.524 . S
C3837 C3834 1.403 . S
C3837 C3838 1.392 . S
C3837 C3841 1.495 . S
C3838 C3837 1.392 . S
C3838 C3839 1.385 . S
C3838 C3840 1.478 . S
C3839 H3833 0.930 . S
C3839 C3835 1.400 . S
C3839 C3838 1.385 . S
C3840 C3838 1.478 . S
C3840 C3842 1.381 . S
C3840 C3846 1.383 . S
C3841 C3837 1.495 . S
C3841 H3847 0.959 . S
C3841 H3848 0.961 . S
C3841 H3849 0.960 . S
C3842 C3840 1.381 . S
C3842 C3843 1.394 . S
C3842 H3850 0.930 . S
C3843 C3842 1.394 . S
C3843 C3844 1.383 . S
C3843 H3851 0.929 . S
C3844 C3843 1.383 . S
C3844 C3845 1.377 . S
C3845 H3829 0.930 . S
C3845 C3844 1.377 . S
C3845 C3846 1.379 . S
C3846 H3830 0.931 . S
C3846 C3840 1.383 . S
C3846 C3845 1.379 . S
H3847 C3841 0.959 . S
H3848 C3841 0.961 . S
H3849 C3841 0.960 . S
H3850 C3842 0.930 . S
H3851 C3843 0.929 . S
H3852 C3860 0.929 . S
H3853 C3862 0.930 . S
H3854 C3864 0.930 . S
H3855 C3867 0.929 . S
H3856 C3870 0.930 . S
H3857 C3872 0.960 . S
H3858 C3872 0.960 . S
H3859 C3872 0.960 . S
C3860 H3852 0.929 . S
C3860 C3861 1.377 . S
C3860 C3862 1.384 . S
C3861 C3860 1.377 . S
C3861 C3867 1.390 . S
C3862 H3853 0.930 . S
C3862 C3860 1.384 . S
C3862 C3863 1.372 . S
C3863 C3862 1.372 . S
C3863 C3864 1.400 . S
C3863 C3868 1.490 . S
C3864 H3854 0.930 . S
C3864 C3863 1.400 . S
C3864 C3867 1.386 . S
H3865 C3881 0.930 . S
H3866 C3882 0.931 . S
C3867 H3855 0.929 . S
C3867 C3861 1.390 . S
C3867 C3864 1.386 . S
C3868 C3863 1.490 . S
C3868 C3870 1.395 . S
C3868 C3871 1.403 . S
H3869 C3875 0.930 . S
C3870 H3856 0.930 . S
C3870 C3868 1.395 . S
C3870 C3873 1.403 . S
C3871 C3868 1.403 . S
C3871 C3872 1.524 . S
C3871 C3875 1.400 . S
C3872 H3857 0.960 . S
C3872 H3858 0.960 . S
C3872 H3859 0.960 . S
C3872 C3871 1.524 . S
C3873 C3870 1.403 . S
C3873 C3874 1.392 . S
C3873 C3877 1.495 . S
C3874 C3873 1.392 . S
C3874 C3875 1.385 . S
C3874 C3876 1.478 . S
C3875 H3869 0.930 . S
C3875 C3871 1.400 . S
C3875 C3874 1.385 . S
C3876 C3874 1.478 . S
C3876 C3878 1.381 . S
C3876 C3882 1.383 . S
C3877 C3873 1.495 . S
C3877 H3883 0.959 . S
C3877 H3884 0.961 . S
C3877 H3885 0.960 . S
C3878 C3876 1.381 . S
C3878 C3879 1.394 . S
C3878 H3886 0.930 . S
C3879 C3878 1.394 . S
C3879 C3880 1.383 . S
C3879 H3887 0.929 . S
C3880 C3879 1.383 . S
C3880 C3881 1.377 . S
C3881 H3865 0.930 . S
C3881 C3880 1.377 . S
C3881 C3882 1.379 . S
C3882 H3866 0.931 . S
C3882 C3876 1.383 . S
C3882 C3881 1.379 . S
H3883 C3877 0.959 . S
H3884 C3877 0.961 . S
H3885 C3877 0.960 . S
H3886 C3878 0.930 . S
H3887 C3879 0.929 . S
H3888 C3896 0.929 . S
H3889 C3898 0.930 . S
H3890 C3900 0.930 . S
H3891 C3903 0.929 . S
H3892 C3906 0.930 . S
H3893 C3908 0.960 . S
H3894 C3908 0.960 . S
H3895 C3908 0.960 . S
C3896 H3888 0.929 . S
C3896 C3897 1.377 . S
C3896 C3898 1.384 . S
C3897 C3896 1.377 . S
C3897 C3903 1.390 . S
C3898 H3889 0.930 . S
C3898 C3896 1.384 . S
C3898 C3899 1.372 . S
C3899 C3898 1.372 . S
C3899 C3900 1.400 . S
C3899 C3904 1.490 . S
C3900 H3890 0.930 . S
C3900 C3899 1.400 . S
C3900 C3903 1.386 . S
H3901 C3917 0.930 . S
H3902 C3918 0.931 . S
C3903 H3891 0.929 . S
C3903 C3897 1.390 . S
C3903 C3900 1.386 . S
C3904 C3899 1.490 . S
C3904 C3906 1.395 . S
C3904 C3907 1.403 . S
H3905 C3911 0.930 . S
C3906 H3892 0.930 . S
C3906 C3904 1.395 . S
C3906 C3909 1.403 . S
C3907 C3904 1.403 . S
C3907 C3908 1.524 . S
C3907 C3911 1.400 . S
C3908 H3893 0.960 . S
C3908 H3894 0.960 . S
C3908 H3895 0.960 . S
C3908 C3907 1.524 . S
C3909 C3906 1.403 . S
C3909 C3910 1.392 . S
C3909 C3913 1.495 . S
C3910 C3909 1.392 . S
C3910 C3911 1.385 . S
C3910 C3912 1.478 . S
C3911 H3905 0.930 . S
C3911 C3907 1.400 . S
C3911 C3910 1.385 . S
C3912 C3910 1.478 . S
C3912 C3914 1.381 . S
C3912 C3918 1.383 . S
C3913 C3909 1.495 . S
C3913 H3919 0.959 . S
C3913 H3920 0.961 . S
C3913 H3921 0.960 . S
C3914 C3912 1.381 . S
C3914 C3915 1.394 . S
C3914 H3922 0.930 . S
C3915 C3914 1.394 . S
C3915 C3916 1.383 . S
C3915 H3923 0.929 . S
C3916 C3915 1.383 . S
C3916 C3917 1.377 . S
C3917 H3901 0.930 . S
C3917 C3916 1.377 . S
C3917 C3918 1.379 . S
C3918 H3902 0.931 . S
C3918 C3912 1.383 . S
C3918 C3917 1.379 . S
H3919 C3913 0.959 . S
H3920 C3913 0.961 . S
H3921 C3913 0.960 . S
H3922 C3914 0.930 . S
H3923 C3915 0.929 . S
H3924 C3932 0.929 . S
H3925 C3934 0.930 . S
H3926 C3936 0.930 . S
H3927 C3939 0.929 . S
H3928 C3942 0.930 . S
H3929 C3944 0.960 . S
H3930 C3944 0.960 . S
H3931 C3944 0.960 . S
C3932 H3924 0.929 . S
C3932 C3933 1.377 . S
C3932 C3934 1.384 . S
C3933 C3932 1.377 . S
C3933 C3939 1.390 . S
C3934 H3925 0.930 . S
C3934 C3932 1.384 . S
C3934 C3935 1.372 . S
C3935 C3934 1.372 . S
C3935 C3936 1.400 . S
C3935 C3940 1.490 . S
C3936 H3926 0.930 . S
C3936 C3935 1.400 . S
C3936 C3939 1.386 . S
H3937 C3953 0.930 . S
H3938 C3954 0.931 . S
C3939 H3927 0.929 . S
C3939 C3933 1.390 . S
C3939 C3936 1.386 . S
C3940 C3935 1.490 . S
C3940 C3942 1.395 . S
C3940 C3943 1.403 . S
H3941 C3947 0.930 . S
C3942 H3928 0.930 . S
C3942 C3940 1.395 . S
C3942 C3945 1.403 . S
C3943 C3940 1.403 . S
C3943 C3944 1.524 . S
C3943 C3947 1.400 . S
C3944 H3929 0.960 . S
C3944 H3930 0.960 . S
C3944 H3931 0.960 . S
C3944 C3943 1.524 . S
C3945 C3942 1.403 . S
C3945 C3946 1.392 . S
C3945 C3949 1.495 . S
C3946 C3945 1.392 . S
C3946 C3947 1.385 . S
C3946 C3948 1.478 . S
C3947 H3941 0.930 . S
C3947 C3943 1.400 . S
C3947 C3946 1.385 . S
C3948 C3946 1.478 . S
C3948 C3950 1.381 . S
C3948 C3954 1.383 . S
C3949 C3945 1.495 . S
C3949 H3955 0.959 . S
C3949 H3956 0.961 . S
C3949 H3957 0.960 . S
C3950 C3948 1.381 . S
C3950 C3951 1.394 . S
C3950 H3958 0.930 . S
C3951 C3950 1.394 . S
C3951 C3952 1.383 . S
C3951 H3959 0.929 . S
C3952 C3951 1.383 . S
C3952 C3953 1.377 . S
C3953 H3937 0.930 . S
C3953 C3952 1.377 . S
C3953 C3954 1.379 . S
C3954 H3938 0.931 . S
C3954 C3948 1.383 . S
C3954 C3953 1.379 . S
H3955 C3949 0.959 . S
H3956 C3949 0.961 . S
H3957 C3949 0.960 . S
H3958 C3950 0.930 . S
H3959 C3951 0.929 . S
H3960 C3968 0.929 . S
H3961 C3970 0.930 . S
H3962 C3972 0.930 . S
H3963 C3975 0.929 . S
H3964 C3978 0.930 . S
H3965 C3980 0.960 . S
H3966 C3980 0.960 . S
H3967 C3980 0.960 . S
C3968 H3960 0.929 . S
C3968 C3969 1.377 . S
C3968 C3970 1.384 . S
C3969 C3968 1.377 . S
C3969 C3975 1.390 . S
C3970 H3961 0.930 . S
C3970 C3968 1.384 . S
C3970 C3971 1.372 . S
C3971 C3970 1.372 . S
C3971 C3972 1.400 . S
C3971 C3976 1.490 . S
C3972 H3962 0.930 . S
C3972 C3971 1.400 . S
C3972 C3975 1.386 . S
H3973 C3989 0.930 . S
H3974 C3990 0.931 . S
C3975 H3963 0.929 . S
C3975 C3969 1.390 . S
C3975 C3972 1.386 . S
C3976 C3971 1.490 . S
C3976 C3978 1.395 . S
C3976 C3979 1.403 . S
H3977 C3983 0.930 . S
C3978 H3964 0.930 . S
C3978 C3976 1.395 . S
C3978 C3981 1.403 . S
C3979 C3976 1.403 . S
C3979 C3980 1.524 . S
C3979 C3983 1.400 . S
C3980 H3965 0.960 . S
C3980 H3966 0.960 . S
C3980 H3967 0.960 . S
C3980 C3979 1.524 . S
C3981 C3978 1.403 . S
C3981 C3982 1.392 . S
C3981 C3985 1.495 . S
C3982 C3981 1.392 . S
C3982 C3983 1.385 . S
C3982 C3984 1.478 . S
C3983 H3977 0.930 . S
C3983 C3979 1.400 . S
C3983 C3982 1.385 . S
C3984 C3982 1.478 . S
C3984 C3986 1.381 . S
C3984 C3990 1.383 . S
C3985 C3981 1.495 . S
C3985 H3991 0.959 . S
C3985 H3992 0.961 . S
C3985 H3993 0.960 . S
C3986 C3984 1.381 . S
C3986 C3987 1.394 . S
C3986 H3994 0.930 . S
C3987 C3986 1.394 . S
C3987 C3988 1.383 . S
C3987 H3995 0.929 . S
C3988 C3987 1.383 . S
C3988 C3989 1.377 . S
C3989 H3973 0.930 . S
C3989 C3988 1.377 . S
C3989 C3990 1.379 . S
C3990 H3974 0.931 . S
C3990 C3984 1.383 . S
C3990 C3989 1.379 . S
H3991 C3985 0.959 . S
H3992 C3985 0.961 . S
H3993 C3985 0.960 . S
H3994 C3986 0.930 . S
H3995 C3987 0.929 . S
H3996 C4004 0.929 . S
H3997 C4006 0.930 . S
H3998 C4008 0.930 . S
H3999 C4011 0.929 . S
H4000 C4014 0.930 . S
H4001 C4016 0.960 . S
H4002 C4016 0.960 . S
H4003 C4016 0.960 . S
C4004 H3996 0.929 . S
C4004 C4005 1.377 . S
C4004 C4006 1.384 . S
C4005 C4004 1.377 . S
C4005 C4011 1.390 . S
C4006 H3997 0.930 . S
C4006 C4004 1.384 . S
C4006 C4007 1.372 . S
C4007 C4006 1.372 . S
C4007 C4008 1.400 . S
C4007 C4012 1.490 . S
C4008 H3998 0.930 . S
C4008 C4007 1.400 . S
C4008 C4011 1.386 . S
H4009 C4025 0.930 . S
H4010 C4026 0.931 . S
C4011 H3999 0.929 . S
C4011 C4005 1.390 . S
C4011 C4008 1.386 . S
C4012 C4007 1.490 . S
C4012 C4014 1.395 . S
C4012 C4015 1.403 . S
H4013 C4019 0.930 . S
C4014 H4000 0.930 . S
C4014 C4012 1.395 . S
C4014 C4017 1.403 . S
C4015 C4012 1.403 . S
C4015 C4016 1.524 . S
C4015 C4019 1.400 . S
C4016 H4001 0.960 . S
C4016 H4002 0.960 . S
C4016 H4003 0.960 . S
C4016 C4015 1.524 . S
C4017 C4014 1.403 . S
C4017 C4018 1.392 . S
C4017 C4021 1.495 . S
C4018 C4017 1.392 . S
C4018 C4019 1.385 . S
C4018 C4020 1.478 . S
C4019 H4013 0.930 . S
C4019 C4015 1.400 . S
C4019 C4018 1.385 . S
C4020 C4018 1.478 . S
C4020 C4022 1.381 . S
C4020 C4026 1.383 . S
C4021 C4017 1.495 . S
C4021 H4027 0.959 . S
C4021 H4028 0.961 . S
C4021 H4029 0.960 . S
C4022 C4020 1.381 . S
C4022 C4023 1.394 . S
C4022 H4030 0.930 . S
C4023 C4022 1.394 . S
C4023 C4024 1.383 . S
C4023 H4031 0.929 . S
C4024 C4023 1.383 . S
C4024 C4025 1.377 . S
C4025 H4009 0.930 . S
C4025 C4024 1.377 . S
C4025 C4026 1.379 . S
C4026 H4010 0.931 . S
C4026 C4020 1.383 . S
C4026 C4025 1.379 . S
H4027 C4021 0.959 . S
H4028 C4021 0.961 . S
H4029 C4021 0.960 . S
H4030 C4022 0.930 . S
H4031 C4023 0.929 . S
H4032 C4040 0.929 . S
H4033 C4042 0.930 . S
H4034 C4044 0.930 . S
H4035 C4047 0.929 . S
H4036 C4050 0.930 . S
H4037 C4052 0.960 . S
H4038 C4052 0.960 . S
H4039 C4052 0.960 . S
C4040 H4032 0.929 . S
C4040 C4041 1.377 . S
C4040 C4042 1.384 . S
C4041 C4040 1.377 . S
C4041 C4047 1.390 . S
C4042 H4033 0.930 . S
C4042 C4040 1.384 . S
C4042 C4043 1.372 . S
C4043 C4042 1.372 . S
C4043 C4044 1.400 . S
C4043 C4048 1.490 . S
C4044 H4034 0.930 . S
C4044 C4043 1.400 . S
C4044 C4047 1.386 . S
H4045 C4061 0.930 . S
H4046 C4062 0.931 . S
C4047 H4035 0.929 . S
C4047 C4041 1.390 . S
C4047 C4044 1.386 . S
C4048 C4043 1.490 . S
C4048 C4050 1.395 . S
C4048 C4051 1.403 . S
H4049 C4055 0.930 . S
C4050 H4036 0.930 . S
C4050 C4048 1.395 . S
C4050 C4053 1.403 . S
C4051 C4048 1.403 . S
C4051 C4052 1.524 . S
C4051 C4055 1.400 . S
C4052 H4037 0.960 . S
C4052 H4038 0.960 . S
C4052 H4039 0.960 . S
C4052 C4051 1.524 . S
C4053 C4050 1.403 . S
C4053 C4054 1.392 . S
C4053 C4057 1.495 . S
C4054 C4053 1.392 . S
C4054 C4055 1.385 . S
C4054 C4056 1.478 . S
C4055 H4049 0.930 . S
C4055 C4051 1.400 . S
C4055 C4054 1.385 . S
C4056 C4054 1.478 . S
C4056 C4058 1.381 . S
C4056 C4062 1.383 . S
C4057 C4053 1.495 . S
C4057 H4063 0.959 . S
C4057 H4064 0.961 . S
C4057 H4065 0.960 . S
C4058 C4056 1.381 . S
C4058 C4059 1.394 . S
C4058 H4066 0.930 . S
C4059 C4058 1.394 . S
C4059 C4060 1.383 . S
C4059 H4067 0.929 . S
C4060 C4059 1.383 . S
C4060 C4061 1.377 . S
C4061 H4045 0.930 . S
C4061 C4060 1.377 . S
C4061 C4062 1.379 . S
C4062 H4046 0.931 . S
C4062 C4056 1.383 . S
C4062 C4061 1.379 . S
H4063 C4057 0.959 . S
H4064 C4057 0.961 . S
H4065 C4057 0.960 . S
H4066 C4058 0.930 . S
H4067 C4059 0.929 . S
H4068 C4076 0.929 . S
H4069 C4078 0.930 . S
H4070 C4080 0.930 . S
H4071 C4083 0.929 . S
H4072 C4086 0.930 . S
H4073 C4088 0.960 . S
H4074 C4088 0.960 . S
H4075 C4088 0.960 . S
C4076 H4068 0.929 . S
C4076 C4077 1.377 . S
C4076 C4078 1.384 . S
C4077 C4076 1.377 . S
C4077 C4083 1.390 . S
C4078 H4069 0.930 . S
C4078 C4076 1.384 . S
C4078 C4079 1.372 . S
C4079 C4078 1.372 . S
C4079 C4080 1.400 . S
C4079 C4084 1.490 . S
C4080 H4070 0.930 . S
C4080 C4079 1.400 . S
C4080 C4083 1.386 . S
H4081 C4097 0.930 . S
H4082 C4098 0.931 . S
C4083 H4071 0.929 . S
C4083 C4077 1.390 . S
C4083 C4080 1.386 . S
C4084 C4079 1.490 . S
C4084 C4086 1.395 . S
C4084 C4087 1.403 . S
H4085 C4091 0.930 . S
C4086 H4072 0.930 . S
C4086 C4084 1.395 . S
C4086 C4089 1.403 . S
C4087 C4084 1.403 . S
C4087 C4088 1.524 . S
C4087 C4091 1.400 . S
C4088 H4073 0.960 . S
C4088 H4074 0.960 . S
C4088 H4075 0.960 . S
C4088 C4087 1.524 . S
C4089 C4086 1.403 . S
C4089 C4090 1.392 . S
C4089 C4093 1.495 . S
C4090 C4089 1.392 . S
C4090 C4091 1.385 . S
C4090 C4092 1.478 . S
C4091 H4085 0.930 . S
C4091 C4087 1.400 . S
C4091 C4090 1.385 . S
C4092 C4090 1.478 . S
C4092 C4094 1.381 . S
C4092 C4098 1.383 . S
C4093 C4089 1.495 . S
C4093 H4099 0.959 . S
C4093 H4100 0.961 . S
C4093 H4101 0.960 . S
C4094 C4092 1.381 . S
C4094 C4095 1.394 . S
C4094 H4102 0.930 . S
C4095 C4094 1.394 . S
C4095 C4096 1.383 . S
C4095 H4103 0.929 . S
C4096 C4095 1.383 . S
C4096 C4097 1.377 . S
C4097 H4081 0.930 . S
C4097 C4096 1.377 . S
C4097 C4098 1.379 . S
C4098 H4082 0.931 . S
C4098 C4092 1.383 . S
C4098 C4097 1.379 . S
H4099 C4093 0.959 . S
H4100 C4093 0.961 . S
H4101 C4093 0.960 . S
H4102 C4094 0.930 . S
H4103 C4095 0.929 . S
H4104 C4112 0.929 . S
H4105 C4114 0.930 . S
H4106 C4116 0.930 . S
H4107 C4119 0.929 . S
H4108 C4122 0.930 . S
H4109 C4124 0.960 . S
H4110 C4124 0.960 . S
H4111 C4124 0.960 . S
C4112 H4104 0.929 . S
C4112 C4113 1.377 . S
C4112 C4114 1.384 . S
C4113 C4112 1.377 . S
C4113 C4119 1.390 . S
C4114 H4105 0.930 . S
C4114 C4112 1.384 . S
C4114 C4115 1.372 . S
C4115 C4114 1.372 . S
C4115 C4116 1.400 . S
C4115 C4120 1.490 . S
C4116 H4106 0.930 . S
C4116 C4115 1.400 . S
C4116 C4119 1.386 . S
H4117 C4133 0.930 . S
H4118 C4134 0.931 . S
C4119 H4107 0.929 . S
C4119 C4113 1.390 . S
C4119 C4116 1.386 . S
C4120 C4115 1.490 . S
C4120 C4122 1.395 . S
C4120 C4123 1.403 . S
H4121 C4127 0.930 . S
C4122 H4108 0.930 . S
C4122 C4120 1.395 . S
C4122 C4125 1.403 . S
C4123 C4120 1.403 . S
C4123 C4124 1.524 . S
C4123 C4127 1.400 . S
C4124 H4109 0.960 . S
C4124 H4110 0.960 . S
C4124 H4111 0.960 . S
C4124 C4123 1.524 . S
C4125 C4122 1.403 . S
C4125 C4126 1.392 . S
C4125 C4129 1.495 . S
C4126 C4125 1.392 . S
C4126 C4127 1.385 . S
C4126 C4128 1.478 . S
C4127 H4121 0.930 . S
C4127 C4123 1.400 . S
C4127 C4126 1.385 . S
C4128 C4126 1.478 . S
C4128 C4130 1.381 . S
C4128 C4134 1.383 . S
C4129 C4125 1.495 . S
C4129 H4135 0.959 . S
C4129 H4136 0.961 . S
C4129 H4137 0.960 . S
C4130 C4128 1.381 . S
C4130 C4131 1.394 . S
C4130 H4138 0.930 . S
C4131 C4130 1.394 . S
C4131 C4132 1.383 . S
C4131 H4139 0.929 . S
C4132 C4131 1.383 . S
C4132 C4133 1.377 . S
C4133 H4117 0.930 . S
C4133 C4132 1.377 . S
C4133 C4134 1.379 . S
C4134 H4118 0.931 . S
C4134 C4128 1.383 . S
C4134 C4133 1.379 . S
H4135 C4129 0.959 . S
H4136 C4129 0.961 . S
H4137 C4129 0.960 . S
H4138 C4130 0.930 . S
H4139 C4131 0.929 . S
H4140 C4148 0.929 . S
H4141 C4150 0.930 . S
H4142 C4152 0.930 . S
H4143 C4155 0.929 . S
H4144 C4158 0.930 . S
H4145 C4160 0.960 . S
H4146 C4160 0.960 . S
H4147 C4160 0.960 . S
C4148 H4140 0.929 . S
C4148 C4149 1.377 . S
C4148 C4150 1.384 . S
C4149 C4148 1.377 . S
C4149 C4155 1.390 . S
C4150 H4141 0.930 . S
C4150 C4148 1.384 . S
C4150 C4151 1.372 . S
C4151 C4150 1.372 . S
C4151 C4152 1.400 . S
C4151 C4156 1.490 . S
C4152 H4142 0.930 . S
C4152 C4151 1.400 . S
C4152 C4155 1.386 . S
H4153 C4169 0.930 . S
H4154 C4170 0.931 . S
C4155 H4143 0.929 . S
C4155 C4149 1.390 . S
C4155 C4152 1.386 . S
C4156 C4151 1.490 . S
C4156 C4158 1.395 . S
C4156 C4159 1.403 . S
H4157 C4163 0.930 . S
C4158 H4144 0.930 . S
C4158 C4156 1.395 . S
C4158 C4161 1.403 . S
C4159 C4156 1.403 . S
C4159 C4160 1.524 . S
C4159 C4163 1.400 . S
C4160 H4145 0.960 . S
C4160 H4146 0.960 . S
C4160 H4147 0.960 . S
C4160 C4159 1.524 . S
C4161 C4158 1.403 . S
C4161 C4162 1.392 . S
C4161 C4165 1.495 . S
C4162 C4161 1.392 . S
C4162 C4163 1.385 . S
C4162 C4164 1.478 . S
C4163 H4157 0.930 . S
C4163 C4159 1.400 . S
C4163 C4162 1.385 . S
C4164 C4162 1.478 . S
C4164 C4166 1.381 . S
C4164 C4170 1.383 . S
C4165 C4161 1.495 . S
C4165 H4171 0.959 . S
C4165 H4172 0.961 . S
C4165 H4173 0.960 . S
C4166 C4164 1.381 . S
C4166 C4167 1.394 . S
C4166 H4174 0.930 . S
C4167 C4166 1.394 . S
C4167 C4168 1.383 . S
C4167 H4175 0.929 . S
C4168 C4167 1.383 . S
C4168 C4169 1.377 . S
C4169 H4153 0.930 . S
C4169 C4168 1.377 . S
C4169 C4170 1.379 . S
C4170 H4154 0.931 . S
C4170 C4164 1.383 . S
C4170 C4169 1.379 . S
H4171 C4165 0.959 . S
H4172 C4165 0.961 . S
H4173 C4165 0.960 . S
H4174 C4166 0.930 . S
H4175 C4167 0.929 . S
H4176 C4184 0.929 . S
H4177 C4186 0.930 . S
H4178 C4188 0.930 . S
H4179 C4191 0.929 . S
H4180 C4194 0.930 . S
H4181 C4196 0.960 . S
H4182 C4196 0.960 . S
H4183 C4196 0.960 . S
C4184 H4176 0.929 . S
C4184 C4185 1.377 . S
C4184 C4186 1.384 . S
C4185 C4184 1.377 . S
C4185 C4191 1.390 . S
C4186 H4177 0.930 . S
C4186 C4184 1.384 . S
C4186 C4187 1.372 . S
C4187 C4186 1.372 . S
C4187 C4188 1.400 . S
C4187 C4192 1.490 . S
C4188 H4178 0.930 . S
C4188 C4187 1.400 . S
C4188 C4191 1.386 . S
H4189 C4205 0.930 . S
H4190 C4206 0.931 . S
C4191 H4179 0.929 . S
C4191 C4185 1.390 . S
C4191 C4188 1.386 . S
C4192 C4187 1.490 . S
C4192 C4194 1.395 . S
C4192 C4195 1.403 . S
H4193 C4199 0.930 . S
C4194 H4180 0.930 . S
C4194 C4192 1.395 . S
C4194 C4197 1.403 . S
C4195 C4192 1.403 . S
C4195 C4196 1.524 . S
C4195 C4199 1.400 . S
C4196 H4181 0.960 . S
C4196 H4182 0.960 . S
C4196 H4183 0.960 . S
C4196 C4195 1.524 . S
C4197 C4194 1.403 . S
C4197 C4198 1.392 . S
C4197 C4201 1.495 . S
C4198 C4197 1.392 . S
C4198 C4199 1.385 . S
C4198 C4200 1.478 . S
C4199 H4193 0.930 . S
C4199 C4195 1.400 . S
C4199 C4198 1.385 . S
C4200 C4198 1.478 . S
C4200 C4202 1.381 . S
C4200 C4206 1.383 . S
C4201 C4197 1.495 . S
C4201 H4207 0.959 . S
C4201 H4208 0.961 . S
C4201 H4209 0.960 . S
C4202 C4200 1.381 . S
C4202 C4203 1.394 . S
C4202 H4210 0.930 . S
C4203 C4202 1.394 . S
C4203 C4204 1.383 . S
C4203 H4211 0.929 . S
C4204 C4203 1.383 . S
C4204 C4205 1.377 . S
C4205 H4189 0.930 . S
C4205 C4204 1.377 . S
C4205 C4206 1.379 . S
C4206 H4190 0.931 . S
C4206 C4200 1.383 . S
C4206 C4205 1.379 . S
H4207 C4201 0.959 . S
H4208 C4201 0.961 . S
H4209 C4201 0.960 . S
H4210 C4202 0.930 . S
H4211 C4203 0.929 . S
H4212 C4220 0.929 . S
H4213 C4222 0.930 . S
H4214 C4224 0.930 . S
H4215 C4227 0.929 . S
H4216 C4230 0.930 . S
H4217 C4232 0.960 . S
H4218 C4232 0.960 . S
H4219 C4232 0.960 . S
C4220 H4212 0.929 . S
C4220 C4221 1.377 . S
C4220 C4222 1.384 . S
C4221 C4220 1.377 . S
C4221 C4227 1.390 . S
C4222 H4213 0.930 . S
C4222 C4220 1.384 . S
C4222 C4223 1.372 . S
C4223 C4222 1.372 . S
C4223 C4224 1.400 . S
C4223 C4228 1.490 . S
C4224 H4214 0.930 . S
C4224 C4223 1.400 . S
C4224 C4227 1.386 . S
H4225 C4241 0.930 . S
H4226 C4242 0.931 . S
C4227 H4215 0.929 . S
C4227 C4221 1.390 . S
C4227 C4224 1.386 . S
C4228 C4223 1.490 . S
C4228 C4230 1.395 . S
C4228 C4231 1.403 . S
H4229 C4235 0.930 . S
C4230 H4216 0.930 . S
C4230 C4228 1.395 . S
C4230 C4233 1.403 . S
C4231 C4228 1.403 . S
C4231 C4232 1.524 . S
C4231 C4235 1.400 . S
C4232 H4217 0.960 . S
C4232 H4218 0.960 . S
C4232 H4219 0.960 . S
C4232 C4231 1.524 . S
C4233 C4230 1.403 . S
C4233 C4234 1.392 . S
C4233 C4237 1.495 . S
C4234 C4233 1.392 . S
C4234 C4235 1.385 . S
C4234 C4236 1.478 . S
C4235 H4229 0.930 . S
C4235 C4231 1.400 . S
C4235 C4234 1.385 . S
C4236 C4234 1.478 . S
C4236 C4238 1.381 . S
C4236 C4242 1.383 . S
C4237 C4233 1.495 . S
C4237 H4243 0.959 . S
C4237 H4244 0.961 . S
C4237 H4245 0.960 . S
C4238 C4236 1.381 . S
C4238 C4239 1.394 . S
C4238 H4246 0.930 . S
C4239 C4238 1.394 . S
C4239 C4240 1.383 . S
C4239 H4247 0.929 . S
C4240 C4239 1.383 . S
C4240 C4241 1.377 . S
C4241 H4225 0.930 . S
C4241 C4240 1.377 . S
C4241 C4242 1.379 . S
C4242 H4226 0.931 . S
C4242 C4236 1.383 . S
C4242 C4241 1.379 . S
H4243 C4237 0.959 . S
H4244 C4237 0.961 . S
H4245 C4237 0.960 . S
H4246 C4238 0.930 . S
H4247 C4239 0.929 . S
H4248 C4256 0.929 . S
H4249 C4258 0.930 . S
H4250 C4260 0.930 . S
H4251 C4263 0.929 . S
H4252 C4266 0.930 . S
H4253 C4268 0.960 . S
H4254 C4268 0.960 . S
H4255 C4268 0.960 . S
C4256 H4248 0.929 . S
C4256 C4257 1.377 . S
C4256 C4258 1.384 . S
C4257 C4256 1.377 . S
C4257 C4263 1.390 . S
C4258 H4249 0.930 . S
C4258 C4256 1.384 . S
C4258 C4259 1.372 . S
C4259 C4258 1.372 . S
C4259 C4260 1.400 . S
C4259 C4264 1.490 . S
C4260 H4250 0.930 . S
C4260 C4259 1.400 . S
C4260 C4263 1.386 . S
H4261 C4277 0.930 . S
H4262 C4278 0.931 . S
C4263 H4251 0.929 . S
C4263 C4257 1.390 . S
C4263 C4260 1.386 . S
C4264 C4259 1.490 . S
C4264 C4266 1.395 . S
C4264 C4267 1.403 . S
H4265 C4271 0.930 . S
C4266 H4252 0.930 . S
C4266 C4264 1.395 . S
C4266 C4269 1.403 . S
C4267 C4264 1.403 . S
C4267 C4268 1.524 . S
C4267 C4271 1.400 . S
C4268 H4253 0.960 . S
C4268 H4254 0.960 . S
C4268 H4255 0.960 . S
C4268 C4267 1.524 . S
C4269 C4266 1.403 . S
C4269 C4270 1.392 . S
C4269 C4273 1.495 . S
C4270 C4269 1.392 . S
C4270 C4271 1.385 . S
C4270 C4272 1.478 . S
C4271 H4265 0.930 . S
C4271 C4267 1.400 . S
C4271 C4270 1.385 . S
C4272 C4270 1.478 . S
C4272 C4274 1.381 . S
C4272 C4278 1.383 . S
C4273 C4269 1.495 . S
C4273 H4279 0.959 . S
C4273 H4280 0.961 . S
C4273 H4281 0.960 . S
C4274 C4272 1.381 . S
C4274 C4275 1.394 . S
C4274 H4282 0.930 . S
C4275 C4274 1.394 . S
C4275 C4276 1.383 . S
C4275 H4283 0.929 . S
C4276 C4275 1.383 . S
C4276 C4277 1.377 . S
C4277 H4261 0.930 . S
C4277 C4276 1.377 . S
C4277 C4278 1.379 . S
C4278 H4262 0.931 . S
C4278 C4272 1.383 . S
C4278 C4277 1.379 . S
H4279 C4273 0.959 . S
H4280 C4273 0.961 . S
H4281 C4273 0.960 . S
H4282 C4274 0.930 . S
H4283 C4275 0.929 . S
H4284 C4292 0.929 . S
H4285 C4294 0.930 . S
H4286 C4296 0.930 . S
H4287 C4299 0.929 . S
H4288 C4302 0.930 . S
H4289 C4304 0.960 . S
H4290 C4304 0.960 . S
H4291 C4304 0.960 . S
C4292 H4284 0.929 . S
C4292 C4293 1.377 . S
C4292 C4294 1.384 . S
C4293 C4292 1.377 . S
C4293 C4299 1.390 . S
C4294 H4285 0.930 . S
C4294 C4292 1.384 . S
C4294 C4295 1.372 . S
C4295 C4294 1.372 . S
C4295 C4296 1.400 . S
C4295 C4300 1.490 . S
C4296 H4286 0.930 . S
C4296 C4295 1.400 . S
C4296 C4299 1.386 . S
H4297 C4313 0.930 . S
H4298 C4314 0.931 . S
C4299 H4287 0.929 . S
C4299 C4293 1.390 . S
C4299 C4296 1.386 . S
C4300 C4295 1.490 . S
C4300 C4302 1.395 . S
C4300 C4303 1.403 . S
H4301 C4307 0.930 . S
C4302 H4288 0.930 . S
C4302 C4300 1.395 . S
C4302 C4305 1.403 . S
C4303 C4300 1.403 . S
C4303 C4304 1.524 . S
C4303 C4307 1.400 . S
C4304 H4289 0.960 . S
C4304 H4290 0.960 . S
C4304 H4291 0.960 . S
C4304 C4303 1.524 . S
C4305 C4302 1.403 . S
C4305 C4306 1.392 . S
C4305 C4309 1.495 . S
C4306 C4305 1.392 . S
C4306 C4307 1.385 . S
C4306 C4308 1.478 . S
C4307 H4301 0.930 . S
C4307 C4303 1.400 . S
C4307 C4306 1.385 . S
C4308 C4306 1.478 . S
C4308 C4310 1.381 . S
C4308 C4314 1.383 . S
C4309 C4305 1.495 . S
C4309 H4315 0.959 . S
C4309 H4316 0.961 . S
C4309 H4317 0.960 . S
C4310 C4308 1.381 . S
C4310 C4311 1.394 . S
C4310 H4318 0.930 . S
C4311 C4310 1.394 . S
C4311 C4312 1.383 . S
C4311 H4319 0.929 . S
C4312 C4311 1.383 . S
C4312 C4313 1.377 . S
C4313 H4297 0.930 . S
C4313 C4312 1.377 . S
C4313 C4314 1.379 . S
C4314 H4298 0.931 . S
C4314 C4308 1.383 . S
C4314 C4313 1.379 . S
H4315 C4309 0.959 . S
H4316 C4309 0.961 . S
H4317 C4309 0.960 . S
H4318 C4310 0.930 . S
H4319 C4311 0.929 . S
H4320 C4328 0.929 . S
H4321 C4330 0.930 . S
H4322 C4332 0.930 1_554 S
H4323 C4335 0.929 . S
H4324 C4338 0.930 . S
H4325 C4340 0.960 . S
H4326 C4340 0.960 . S
H4327 C4340 0.960 . S
C4328 H4320 0.929 . S
C4328 C4329 1.377 . S
C4328 C4330 1.384 . S
C4329 C4328 1.377 . S
C4329 C4335 1.390 1_556 S
C4330 H4321 0.930 . S
C4330 C4328 1.384 . S
C4330 C4331 1.372 . S
C4331 C4330 1.372 . S
C4331 C4332 1.400 . S
C4331 C4336 1.490 . S
C4332 H4322 0.930 1_556 S
C4332 C4331 1.400 . S
C4332 C4335 1.386 1_556 S
H4333 C4349 0.930 . S
H4334 C4350 0.931 . S
C4335 H4323 0.929 . S
C4335 C4329 1.390 1_554 S
C4335 C4332 1.386 1_554 S
C4336 C4331 1.490 . S
C4336 C4338 1.395 . S
C4336 C4339 1.403 . S
H4337 C4343 0.930 . S
C4338 H4324 0.930 . S
C4338 C4336 1.395 . S
C4338 C4341 1.403 . S
C4339 C4336 1.403 . S
C4339 C4340 1.524 . S
C4339 C4343 1.400 . S
C4340 H4325 0.960 . S
C4340 H4326 0.960 . S
C4340 H4327 0.960 . S
C4340 C4339 1.524 . S
C4341 C4338 1.403 . S
C4341 C4342 1.392 . S
C4341 C4345 1.495 . S
C4342 C4341 1.392 . S
C4342 C4343 1.385 . S
C4342 C4344 1.478 . S
C4343 H4337 0.930 . S
C4343 C4339 1.400 . S
C4343 C4342 1.385 . S
C4344 C4342 1.478 . S
C4344 C4346 1.381 . S
C4344 C4350 1.383 . S
C4345 C4341 1.495 . S
C4345 H4351 0.959 . S
C4345 H4352 0.961 . S
C4345 H4353 0.960 . S
C4346 C4344 1.381 . S
C4346 C4347 1.394 . S
C4346 H4354 0.930 . S
C4347 C4346 1.394 . S
C4347 C4348 1.383 . S
C4347 H4355 0.929 . S
C4348 C4347 1.383 . S
C4348 C4349 1.377 . S
C4349 H4333 0.930 . S
C4349 C4348 1.377 . S
C4349 C4350 1.379 . S
C4350 H4334 0.931 . S
C4350 C4344 1.383 . S
C4350 C4349 1.379 . S
H4351 C4345 0.959 . S
H4352 C4345 0.961 . S
H4353 C4345 0.960 . S
H4354 C4346 0.930 . S
H4355 C4347 0.929 . S
H4356 C4364 0.929 1_554 S
H4357 C4366 0.930 . S
H4358 C4368 0.930 . S
H4359 C4371 0.929 . S
H4360 C4374 0.930 . S
H4361 C4376 0.960 . S
H4362 C4376 0.960 . S
H4363 C4376 0.960 . S
C4364 H4356 0.929 1_556 S
C4364 C4365 1.377 . S
C4364 C4366 1.384 . S
C4365 C4364 1.377 . S
C4365 C4371 1.390 . S
C4366 H4357 0.930 . S
C4366 C4364 1.384 . S
C4366 C4367 1.372 . S
C4367 C4366 1.372 . S
C4367 C4368 1.400 . S
C4367 C4372 1.490 . S
C4368 H4358 0.930 . S
C4368 C4367 1.400 . S
C4368 C4371 1.386 . S
H4369 C4385 0.930 . S
H4370 C4386 0.931 . S
C4371 H4359 0.929 . S
C4371 C4365 1.390 . S
C4371 C4368 1.386 . S
C4372 C4367 1.490 . S
C4372 C4374 1.395 . S
C4372 C4375 1.403 . S
H4373 C4379 0.930 . S
C4374 H4360 0.930 . S
C4374 C4372 1.395 . S
C4374 C4377 1.403 . S
C4375 C4372 1.403 . S
C4375 C4376 1.524 . S
C4375 C4379 1.400 . S
C4376 H4361 0.960 . S
C4376 H4362 0.960 . S
C4376 H4363 0.960 . S
C4376 C4375 1.524 . S
C4377 C4374 1.403 . S
C4377 C4378 1.392 . S
C4377 C4381 1.495 . S
C4378 C4377 1.392 . S
C4378 C4379 1.385 . S
C4378 C4380 1.478 . S
C4379 H4373 0.930 . S
C4379 C4375 1.400 . S
C4379 C4378 1.385 . S
C4380 C4378 1.478 . S
C4380 C4382 1.381 . S
C4380 C4386 1.383 . S
C4381 C4377 1.495 . S
C4381 H4387 0.959 . S
C4381 H4388 0.961 . S
C4381 H4389 0.960 . S
C4382 C4380 1.381 . S
C4382 C4383 1.394 . S
C4382 H4390 0.930 . S
C4383 C4382 1.394 . S
C4383 C4384 1.383 . S
C4383 H4391 0.929 . S
C4384 C4383 1.383 . S
C4384 C4385 1.377 . S
C4385 H4369 0.930 . S
C4385 C4384 1.377 . S
C4385 C4386 1.379 . S
C4386 H4370 0.931 . S
C4386 C4380 1.383 . S
C4386 C4385 1.379 . S
H4387 C4381 0.959 . S
H4388 C4381 0.961 . S
H4389 C4381 0.960 . S
H4390 C4382 0.930 . S
H4391 C4383 0.929 . S
H4392 C4400 0.929 . S
H4393 C4402 0.930 . S
H4394 C4404 0.930 . S
H4395 C4407 0.929 . S
H4396 C4410 0.930 . S
H4397 C4412 0.960 . S
H4398 C4412 0.960 . S
H4399 C4412 0.960 . S
C4400 H4392 0.929 . S
C4400 C4401 1.377 . S
C4400 C4402 1.384 . S
C4401 C4400 1.377 . S
C4401 C4407 1.390 . S
C4402 H4393 0.930 . S
C4402 C4400 1.384 . S
C4402 C4403 1.372 . S
C4403 C4402 1.372 . S
C4403 C4404 1.400 . S
C4403 C4408 1.490 . S
C4404 H4394 0.930 . S
C4404 C4403 1.400 . S
C4404 C4407 1.386 . S
H4405 C4421 0.930 . S
H4406 C4422 0.931 . S
C4407 H4395 0.929 . S
C4407 C4401 1.390 . S
C4407 C4404 1.386 . S
C4408 C4403 1.490 . S
C4408 C4410 1.395 1_554 S
C4408 C4411 1.403 . S
H4409 C4415 0.930 . S
C4410 H4396 0.930 . S
C4410 C4408 1.395 1_556 S
C4410 C4413 1.403 . S
C4411 C4408 1.403 . S
C4411 C4412 1.524 . S
C4411 C4415 1.400 . S
C4412 H4397 0.960 . S
C4412 H4398 0.960 . S
C4412 H4399 0.960 . S
C4412 C4411 1.524 . S
C4413 C4410 1.403 . S
C4413 C4414 1.392 . S
C4413 C4417 1.495 . S
C4414 C4413 1.392 . S
C4414 C4415 1.385 1_556 S
C4414 C4416 1.478 . S
C4415 H4409 0.930 . S
C4415 C4411 1.400 . S
C4415 C4414 1.385 1_554 S
C4416 C4414 1.478 . S
C4416 C4418 1.381 . S
C4416 C4422 1.383 . S
C4417 C4413 1.495 . S
C4417 H4423 0.959 . S
C4417 H4424 0.961 . S
C4417 H4425 0.960 . S
C4418 C4416 1.381 . S
C4418 C4419 1.394 . S
C4418 H4426 0.930 . S
C4419 C4418 1.394 . S
C4419 C4420 1.383 . S
C4419 H4427 0.929 . S
C4420 C4419 1.383 . S
C4420 C4421 1.377 . S
C4421 H4405 0.930 . S
C4421 C4420 1.377 . S
C4421 C4422 1.379 . S
C4422 H4406 0.931 . S
C4422 C4416 1.383 . S
C4422 C4421 1.379 . S
H4423 C4417 0.959 . S
H4424 C4417 0.961 . S
H4425 C4417 0.960 . S
H4426 C4418 0.930 . S
H4427 C4419 0.929 . S
H4428 C4436 0.929 . S
H4429 C4438 0.930 . S
H4430 C4440 0.930 . S
H4431 C4443 0.929 . S
H4432 C4446 0.940 . S
H4433 C4448 0.960 . S
H4434 C4448 0.960 . S
H4435 C4448 0.960 . S
C4436 H4428 0.929 . S
C4436 C4437 1.377 . S
C4436 C4438 1.384 . S
C4437 C4436 1.377 . S
C4437 C4443 1.390 1_554 S
C4438 H4429 0.930 . S
C4438 C4436 1.384 . S
C4438 C4439 1.372 1_554 S
C4439 C4438 1.372 1_556 S
C4439 C4440 1.400 . S
C4439 C4444 1.490 . S
C4440 H4430 0.930 . S
C4440 C4439 1.400 . S
C4440 C4443 1.386 . S
H4441 C4457 0.930 . S
H4442 C4458 0.931 . S
C4443 H4431 0.929 . S
C4443 C4437 1.390 1_556 S
C4443 C4440 1.386 . S
C4444 C4439 1.490 . S
C4444 C4446 1.395 . S
C4444 C4447 1.403 . S
H4445 C4451 0.930 . S
C4446 H4432 0.940 . S
C4446 C4444 1.395 . S
C4446 C4449 1.403 . S
C4447 C4444 1.403 . S
C4447 C4448 1.524 . S
C4447 C4451 1.400 . S
C4448 H4433 0.960 . S
C4448 H4434 0.960 . S
C4448 H4435 0.960 . S
C4448 C4447 1.524 . S
C4449 C4446 1.403 . S
C4449 C4450 1.392 . S
C4449 C4453 1.495 . S
C4450 C4449 1.392 . S
C4450 C4451 1.385 . S
C4450 C4452 1.478 . S
C4451 H4445 0.930 . S
C4451 C4447 1.400 . S
C4451 C4450 1.385 . S
C4452 C4450 1.478 . S
C4452 C4454 1.381 . S
C4452 C4458 1.383 . S
C4453 C4449 1.495 . S
C4453 H4459 0.959 . S
C4453 H4460 0.961 . S
C4453 H4461 0.960 . S
C4454 C4452 1.381 . S
C4454 C4455 1.394 . S
C4454 H4462 0.930 . S
C4455 C4454 1.394 . S
C4455 C4456 1.383 . S
C4455 H4463 0.929 . S
C4456 C4455 1.383 . S
C4456 C4457 1.377 . S
C4457 H4441 0.930 . S
C4457 C4456 1.377 . S
C4457 C4458 1.379 . S
C4458 H4442 0.931 . S
C4458 C4452 1.383 . S
C4458 C4457 1.379 . S
H4459 C4453 0.959 . S
H4460 C4453 0.961 . S
H4461 C4453 0.960 . S
H4462 C4454 0.930 . S
H4463 C4455 0.929 . S
H4464 C4472 0.929 . S
H4465 C4474 0.930 . S
H4466 C4476 0.930 . S
H4467 C4479 0.929 . S
H4468 C4482 0.930 . S
H4469 C4484 0.960 . S
H4470 C4484 0.960 . S
H4471 C4484 0.960 . S
C4472 H4464 0.929 . S
C4472 C4473 1.377 . S
C4472 C4474 1.384 . S
C4473 C4472 1.377 . S
C4473 C4479 1.390 . S
C4474 H4465 0.930 . S
C4474 C4472 1.384 . S
C4474 C4475 1.372 . S
C4475 C4474 1.372 . S
C4475 C4476 1.400 . S
C4475 C4480 1.490 . S
C4476 H4466 0.930 . S
C4476 C4475 1.400 . S
C4476 C4479 1.386 . S
H4477 C4493 0.930 . S
H4478 C4494 0.931 . S
C4479 H4467 0.929 . S
C4479 C4473 1.390 . S
C4479 C4476 1.386 . S
C4480 C4475 1.490 . S
C4480 C4482 1.395 . S
C4480 C4483 1.403 . S
H4481 C4487 0.930 . S
C4482 H4468 0.930 . S
C4482 C4480 1.395 . S
C4482 C4485 1.403 . S
C4483 C4480 1.403 . S
C4483 C4484 1.524 . S
C4483 C4487 1.400 . S
C4484 H4469 0.960 . S
C4484 H4470 0.960 . S
C4484 H4471 0.960 . S
C4484 C4483 1.524 . S
C4485 C4482 1.403 . S
C4485 C4486 1.392 . S
C4485 C4489 1.495 . S
C4486 C4485 1.392 . S
C4486 C4487 1.385 . S
C4486 C4488 1.478 . S
C4487 H4481 0.930 . S
C4487 C4483 1.400 . S
C4487 C4486 1.385 . S
C4488 C4486 1.478 . S
C4488 C4490 1.381 . S
C4488 C4494 1.383 . S
C4489 C4485 1.495 . S
C4489 H4495 0.959 . S
C4489 H4496 0.961 . S
C4489 H4497 0.960 . S
C4490 C4488 1.381 . S
C4490 C4491 1.394 . S
C4490 H4498 0.930 . S
C4491 C4490 1.394 . S
C4491 C4492 1.383 . S
C4491 H4499 0.929 . S
C4492 C4491 1.383 . S
C4492 C4493 1.377 . S
C4493 H4477 0.930 . S
C4493 C4492 1.377 . S
C4493 C4494 1.379 . S
C4494 H4478 0.931 . S
C4494 C4488 1.383 . S
C4494 C4493 1.379 . S
H4495 C4489 0.959 . S
H4496 C4489 0.961 . S
H4497 C4489 0.960 . S
H4498 C4490 0.930 . S
H4499 C4491 0.929 . S
H4500 C4508 0.929 . S
H4501 C4510 0.928 . S
H4502 C4512 0.930 . S
H4503 C4515 0.929 . S
H4504 C4518 0.930 . S
H4505 C4520 0.960 . S
H4506 C4520 0.960 . S
H4507 C4520 0.960 . S
C4508 H4500 0.929 . S
C4508 C4509 1.377 . S
C4508 C4510 1.386 1_554 S
C4509 C4508 1.377 . S
C4509 C4515 1.390 . S
C4510 H4501 0.928 . S
C4510 C4508 1.386 1_556 S
C4510 C4511 1.372 1_556 S
C4511 C4510 1.372 1_554 S
C4511 C4512 1.400 . S
C4511 C4516 1.490 1_554 S
C4512 H4502 0.930 . S
C4512 C4511 1.400 . S
C4512 C4515 1.386 . S
H4513 C4529 0.930 . S
H4514 C4530 0.931 . S
C4515 H4503 0.929 . S
C4515 C4509 1.390 . S
C4515 C4512 1.386 . S
C4516 C4511 1.490 1_556 S
C4516 C4518 1.395 . S
C4516 C4519 1.403 1_556 S
H4517 C4523 0.930 . S
C4518 H4504 0.930 . S
C4518 C4516 1.395 . S
C4518 C4521 1.403 . S
C4519 C4516 1.403 1_554 S
C4519 C4520 1.524 . S
C4519 C4523 1.400 1_554 S
C4520 H4505 0.960 . S
C4520 H4506 0.960 . S
C4520 H4507 0.960 . S
C4520 C4519 1.524 . S
C4521 C4518 1.403 . S
C4521 C4522 1.392 . S
C4521 C4525 1.495 . S
C4522 C4521 1.392 . S
C4522 C4523 1.385 . S
C4522 C4524 1.478 . S
C4523 H4517 0.930 . S
C4523 C4519 1.400 1_556 S
C4523 C4522 1.385 . S
C4524 C4522 1.478 . S
C4524 C4526 1.381 . S
C4524 C4530 1.383 . S
C4525 C4521 1.495 . S
C4525 H4531 0.959 . S
C4525 H4532 0.961 . S
C4525 H4533 0.960 . S
C4526 C4524 1.381 . S
C4526 C4527 1.394 . S
C4526 H4534 0.930 . S
C4527 C4526 1.394 . S
C4527 C4528 1.383 . S
C4527 H4535 0.929 . S
C4528 C4527 1.383 . S
C4528 C4529 1.377 . S
C4529 H4513 0.930 . S
C4529 C4528 1.377 . S
C4529 C4530 1.379 . S
C4530 H4514 0.931 . S
C4530 C4524 1.383 . S
C4530 C4529 1.379 . S
H4531 C4525 0.959 . S
H4532 C4525 0.961 . S
H4533 C4525 0.960 . S
H4534 C4526 0.930 . S
H4535 C4527 0.929 . S
H4536 C4544 0.929 . S
H4537 C4546 0.930 . S
H4538 C4548 0.930 . S
H4539 C4551 0.929 . S
H4540 C4554 0.930 . S
H4541 C4556 0.960 . S
H4542 C4556 0.960 . S
H4543 C4556 0.960 . S
C4544 H4536 0.929 . S
C4544 C4545 1.377 . S
C4544 C4546 1.384 . S
C4545 C4544 1.377 . S
C4545 C4551 1.390 . S
C4546 H4537 0.930 . S
C4546 C4544 1.384 . S
C4546 C4547 1.372 . S
C4547 C4546 1.372 . S
C4547 C4548 1.400 . S
C4547 C4552 1.490 . S
C4548 H4538 0.930 . S
C4548 C4547 1.400 . S
C4548 C4551 1.386 . S
H4549 C4565 0.930 . S
H4550 C4566 0.931 . S
C4551 H4539 0.929 . S
C4551 C4545 1.390 . S
C4551 C4548 1.386 . S
C4552 C4547 1.490 . S
C4552 C4554 1.395 . S
C4552 C4555 1.403 . S
H4553 C4559 0.930 . S
C4554 H4540 0.930 . S
C4554 C4552 1.395 . S
C4554 C4557 1.403 . S
C4555 C4552 1.403 . S
C4555 C4556 1.524 . S
C4555 C4559 1.400 . S
C4556 H4541 0.960 . S
C4556 H4542 0.960 . S
C4556 H4543 0.960 . S
C4556 C4555 1.524 . S
C4557 C4554 1.403 . S
C4557 C4558 1.392 . S
C4557 C4561 1.495 . S
C4558 C4557 1.392 . S
C4558 C4559 1.385 . S
C4558 C4560 1.478 . S
C4559 H4553 0.930 . S
C4559 C4555 1.400 . S
C4559 C4558 1.385 . S
C4560 C4558 1.478 . S
C4560 C4562 1.381 . S
C4560 C4566 1.383 . S
C4561 C4557 1.495 . S
C4561 H4567 0.959 . S
C4561 H4568 0.961 . S
C4561 H4569 0.960 . S
C4562 C4560 1.381 . S
C4562 C4563 1.394 . S
C4562 H4570 0.930 . S
C4563 C4562 1.394 . S
C4563 C4564 1.383 . S
C4563 H4571 0.929 . S
C4564 C4563 1.383 . S
C4564 C4565 1.377 . S
C4565 H4549 0.930 . S
C4565 C4564 1.377 . S
C4565 C4566 1.379 . S
C4566 H4550 0.931 . S
C4566 C4560 1.383 . S
C4566 C4565 1.379 . S
H4567 C4561 0.959 . S
H4568 C4561 0.961 . S
H4569 C4561 0.960 . S
H4570 C4562 0.930 . S
H4571 C4563 0.929 . S
H4572 C4580 0.929 . S
H4573 C4582 0.930 . S
H4574 C4584 0.930 . S
H4575 C4587 0.929 . S
H4576 C4590 0.930 . S
H4577 C4592 0.960 . S
H4578 C4592 0.960 . S
H4579 C4592 0.960 . S
C4580 H4572 0.929 . S
C4580 C4581 1.377 . S
C4580 C4582 1.384 . S
C4581 C4580 1.377 . S
C4581 C4587 1.390 . S
C4582 H4573 0.930 . S
C4582 C4580 1.384 . S
C4582 C4583 1.372 . S
C4583 C4582 1.372 . S
C4583 C4584 1.400 . S
C4583 C4588 1.490 . S
C4584 H4574 0.930 . S
C4584 C4583 1.400 . S
C4584 C4587 1.386 . S
H4585 C4601 0.930 . S
H4586 C4602 0.931 . S
C4587 H4575 0.929 . S
C4587 C4581 1.390 . S
C4587 C4584 1.386 . S
C4588 C4583 1.490 . S
C4588 C4590 1.395 . S
C4588 C4591 1.403 . S
H4589 C4595 0.930 . S
C4590 H4576 0.930 . S
C4590 C4588 1.395 . S
C4590 C4593 1.403 . S
C4591 C4588 1.403 . S
C4591 C4592 1.524 . S
C4591 C4595 1.400 . S
C4592 H4577 0.960 . S
C4592 H4578 0.960 . S
C4592 H4579 0.960 . S
C4592 C4591 1.524 . S
C4593 C4590 1.403 . S
C4593 C4594 1.392 . S
C4593 C4597 1.495 . S
C4594 C4593 1.392 . S
C4594 C4595 1.385 . S
C4594 C4596 1.478 . S
C4595 H4589 0.930 . S
C4595 C4591 1.400 . S
C4595 C4594 1.385 . S
C4596 C4594 1.478 . S
C4596 C4598 1.381 . S
C4596 C4602 1.383 . S
C4597 C4593 1.495 . S
C4597 H4603 0.959 . S
C4597 H4604 0.961 . S
C4597 H4605 0.960 . S
C4598 C4596 1.381 . S
C4598 C4599 1.394 . S
C4598 H4606 0.930 . S
C4599 C4598 1.394 . S
C4599 C4600 1.383 . S
C4599 H4607 0.929 . S
C4600 C4599 1.383 . S
C4600 C4601 1.377 . S
C4601 H4585 0.930 . S
C4601 C4600 1.377 . S
C4601 C4602 1.379 . S
C4602 H4586 0.931 . S
C4602 C4596 1.383 . S
C4602 C4601 1.379 . S
H4603 C4597 0.959 . S
H4604 C4597 0.961 . S
H4605 C4597 0.960 . S
H4606 C4598 0.930 . S
H4607 C4599 0.929 . S
H4608 C4616 0.929 . S
H4609 C4618 0.930 . S
H4610 C4620 0.930 . S
H4611 C4623 0.929 . S
H4612 C4626 0.930 . S
H4613 C4628 0.960 . S
H4614 C4628 0.960 . S
H4615 C4628 0.960 . S
C4616 H4608 0.929 . S
C4616 C4617 1.377 . S
C4616 C4618 1.384 . S
C4617 C4616 1.377 . S
C4617 C4623 1.390 . S
C4618 H4609 0.930 . S
C4618 C4616 1.384 . S
C4618 C4619 1.372 . S
C4619 C4618 1.372 . S
C4619 C4620 1.400 . S
C4619 C4624 1.490 . S
C4620 H4610 0.930 . S
C4620 C4619 1.400 . S
C4620 C4623 1.386 . S
H4621 C4637 0.930 . S
H4622 C4638 0.931 . S
C4623 H4611 0.929 . S
C4623 C4617 1.390 . S
C4623 C4620 1.386 . S
C4624 C4619 1.490 . S
C4624 C4626 1.395 . S
C4624 C4627 1.403 . S
H4625 C4631 0.930 . S
C4626 H4612 0.930 . S
C4626 C4624 1.395 . S
C4626 C4629 1.403 . S
C4627 C4624 1.403 . S
C4627 C4628 1.524 . S
C4627 C4631 1.400 . S
C4628 H4613 0.960 . S
C4628 H4614 0.960 . S
C4628 H4615 0.960 . S
C4628 C4627 1.524 . S
C4629 C4626 1.403 . S
C4629 C4630 1.392 . S
C4629 C4633 1.495 . S
C4630 C4629 1.392 . S
C4630 C4631 1.385 . S
C4630 C4632 1.478 . S
C4631 H4625 0.930 . S
C4631 C4627 1.400 . S
C4631 C4630 1.385 . S
C4632 C4630 1.478 . S
C4632 C4634 1.381 . S
C4632 C4638 1.383 . S
C4633 C4629 1.495 . S
C4633 H4639 0.959 . S
C4633 H4640 0.961 . S
C4633 H4641 0.960 . S
C4634 C4632 1.381 . S
C4634 C4635 1.394 . S
C4634 H4642 0.930 . S
C4635 C4634 1.394 . S
C4635 C4636 1.383 . S
C4635 H4643 0.929 . S
C4636 C4635 1.383 . S
C4636 C4637 1.377 . S
C4637 H4621 0.930 . S
C4637 C4636 1.377 . S
C4637 C4638 1.379 . S
C4638 H4622 0.931 . S
C4638 C4632 1.383 . S
C4638 C4637 1.379 . S
H4639 C4633 0.959 . S
H4640 C4633 0.961 . S
H4641 C4633 0.960 . S
H4642 C4634 0.930 . S
H4643 C4635 0.929 . S
H4644 C4652 0.929 . S
H4645 C4654 0.930 . S
H4646 C4656 0.930 . S
H4647 C4659 0.929 . S
H4648 C4662 0.930 . S
H4649 C4664 0.960 . S
H4650 C4664 0.960 . S
H4651 C4664 0.960 . S
C4652 H4644 0.929 . S
C4652 C4653 1.377 . S
C4652 C4654 1.384 . S
C4653 C4652 1.377 . S
C4653 C4659 1.390 . S
C4654 H4645 0.930 . S
C4654 C4652 1.384 . S
C4654 C4655 1.372 . S
C4655 C4654 1.372 . S
C4655 C4656 1.400 . S
C4655 C4660 1.490 . S
C4656 H4646 0.930 . S
C4656 C4655 1.400 . S
C4656 C4659 1.386 . S
H4657 C4673 0.930 . S
H4658 C4674 0.931 . S
C4659 H4647 0.929 . S
C4659 C4653 1.390 . S
C4659 C4656 1.386 . S
C4660 C4655 1.490 . S
C4660 C4662 1.395 . S
C4660 C4663 1.403 . S
H4661 C4667 0.930 . S
C4662 H4648 0.930 . S
C4662 C4660 1.395 . S
C4662 C4665 1.403 . S
C4663 C4660 1.403 . S
C4663 C4664 1.524 . S
C4663 C4667 1.400 . S
C4664 H4649 0.960 . S
C4664 H4650 0.960 . S
C4664 H4651 0.960 . S
C4664 C4663 1.524 . S
C4665 C4662 1.403 . S
C4665 C4666 1.392 . S
C4665 C4669 1.495 . S
C4666 C4665 1.392 . S
C4666 C4667 1.385 . S
C4666 C4668 1.478 . S
C4667 H4661 0.930 . S
C4667 C4663 1.400 . S
C4667 C4666 1.385 . S
C4668 C4666 1.478 . S
C4668 C4670 1.381 . S
C4668 C4674 1.383 . S
C4669 C4665 1.495 . S
C4669 H4675 0.959 . S
C4669 H4676 0.961 . S
C4669 H4677 0.960 . S
C4670 C4668 1.381 . S
C4670 C4671 1.394 . S
C4670 H4678 0.930 . S
C4671 C4670 1.394 . S
C4671 C4672 1.383 . S
C4671 H4679 0.929 . S
C4672 C4671 1.383 . S
C4672 C4673 1.377 . S
C4673 H4657 0.930 . S
C4673 C4672 1.377 . S
C4673 C4674 1.379 . S
C4674 H4658 0.931 . S
C4674 C4668 1.383 . S
C4674 C4673 1.379 . S
H4675 C4669 0.959 . S
H4676 C4669 0.961 . S
H4677 C4669 0.960 . S
H4678 C4670 0.930 . S
H4679 C4671 0.929 . S
H4680 C4688 0.929 . S
H4681 C4690 0.930 . S
H4682 C4692 0.930 . S
H4683 C4695 0.929 . S
H4684 C4698 0.930 . S
H4685 C4700 0.960 . S
H4686 C4700 0.960 . S
H4687 C4700 0.960 . S
C4688 H4680 0.929 . S
C4688 C4689 1.377 . S
C4688 C4690 1.384 . S
C4689 C4688 1.377 . S
C4689 C4695 1.390 . S
C4690 H4681 0.930 . S
C4690 C4688 1.384 . S
C4690 C4691 1.372 . S
C4691 C4690 1.372 . S
C4691 C4692 1.400 . S
C4691 C4696 1.490 . S
C4692 H4682 0.930 . S
C4692 C4691 1.400 . S
C4692 C4695 1.386 . S
H4693 C4709 0.930 . S
H4694 C4710 0.931 . S
C4695 H4683 0.929 . S
C4695 C4689 1.390 . S
C4695 C4692 1.386 . S
C4696 C4691 1.490 . S
C4696 C4698 1.395 . S
C4696 C4699 1.403 . S
H4697 C4703 0.930 . S
C4698 H4684 0.930 . S
C4698 C4696 1.395 . S
C4698 C4701 1.403 . S
C4699 C4696 1.403 . S
C4699 C4700 1.524 . S
C4699 C4703 1.400 . S
C4700 H4685 0.960 . S
C4700 H4686 0.960 . S
C4700 H4687 0.960 . S
C4700 C4699 1.524 . S
C4701 C4698 1.403 . S
C4701 C4702 1.392 . S
C4701 C4705 1.495 . S
C4702 C4701 1.392 . S
C4702 C4703 1.385 . S
C4702 C4704 1.478 . S
C4703 H4697 0.930 . S
C4703 C4699 1.400 . S
C4703 C4702 1.385 . S
C4704 C4702 1.478 . S
C4704 C4706 1.381 . S
C4704 C4710 1.383 . S
C4705 C4701 1.495 . S
C4705 H4711 0.959 . S
C4705 H4712 0.961 . S
C4705 H4713 0.960 . S
C4706 C4704 1.381 . S
C4706 C4707 1.394 . S
C4706 H4714 0.930 . S
C4707 C4706 1.394 . S
C4707 C4708 1.383 . S
C4707 H4715 0.929 . S
C4708 C4707 1.383 . S
C4708 C4709 1.377 . S
C4709 H4693 0.930 . S
C4709 C4708 1.377 . S
C4709 C4710 1.379 . S
C4710 H4694 0.931 . S
C4710 C4704 1.383 . S
C4710 C4709 1.379 . S
H4711 C4705 0.959 . S
H4712 C4705 0.961 . S
H4713 C4705 0.960 . S
H4714 C4706 0.930 . S
H4715 C4707 0.929 . S
H4716 C4724 0.929 . S
H4717 C4726 0.930 . S
H4718 C4728 0.930 . S
H4719 C4731 0.929 . S
H4720 C4734 0.930 . S
H4721 C4736 0.960 . S
H4722 C4736 0.960 . S
H4723 C4736 0.960 . S
C4724 H4716 0.929 . S
C4724 C4725 1.377 . S
C4724 C4726 1.384 . S
C4725 C4724 1.377 . S
C4725 C4731 1.390 . S
C4726 H4717 0.930 . S
C4726 C4724 1.384 . S
C4726 C4727 1.372 . S
C4727 C4726 1.372 . S
C4727 C4728 1.400 . S
C4727 C4732 1.490 . S
C4728 H4718 0.930 . S
C4728 C4727 1.400 . S
C4728 C4731 1.386 . S
H4729 C4745 0.930 . S
H4730 C4746 0.931 . S
C4731 H4719 0.929 . S
C4731 C4725 1.390 . S
C4731 C4728 1.386 . S
C4732 C4727 1.490 . S
C4732 C4734 1.395 . S
C4732 C4735 1.403 . S
H4733 C4739 0.930 . S
C4734 H4720 0.930 . S
C4734 C4732 1.395 . S
C4734 C4737 1.403 . S
C4735 C4732 1.403 . S
C4735 C4736 1.524 . S
C4735 C4739 1.400 . S
C4736 H4721 0.960 . S
C4736 H4722 0.960 . S
C4736 H4723 0.960 . S
C4736 C4735 1.524 . S
C4737 C4734 1.403 . S
C4737 C4738 1.392 . S
C4737 C4741 1.495 . S
C4738 C4737 1.392 . S
C4738 C4739 1.385 . S
C4738 C4740 1.478 . S
C4739 H4733 0.930 . S
C4739 C4735 1.400 . S
C4739 C4738 1.385 . S
C4740 C4738 1.478 . S
C4740 C4742 1.381 . S
C4740 C4746 1.383 . S
C4741 C4737 1.495 . S
C4741 H4747 0.959 . S
C4741 H4748 0.961 . S
C4741 H4749 0.960 . S
C4742 C4740 1.381 . S
C4742 C4743 1.394 . S
C4742 H4750 0.930 . S
C4743 C4742 1.394 . S
C4743 C4744 1.383 . S
C4743 H4751 0.929 . S
C4744 C4743 1.383 . S
C4744 C4745 1.377 . S
C4745 H4729 0.930 . S
C4745 C4744 1.377 . S
C4745 C4746 1.379 . S
C4746 H4730 0.931 . S
C4746 C4740 1.383 . S
C4746 C4745 1.379 . S
H4747 C4741 0.959 . S
H4748 C4741 0.961 . S
H4749 C4741 0.960 . S
H4750 C4742 0.930 . S
H4751 C4743 0.929 . S
H4752 C4760 0.929 . S
H4753 C4762 0.930 . S
H4754 C4764 0.930 . S
H4755 C4767 0.929 . S
H4756 C4770 0.930 . S
H4757 C4772 0.960 . S
H4758 C4772 0.960 . S
H4759 C4772 0.960 . S
C4760 H4752 0.929 . S
C4760 C4761 1.377 . S
C4760 C4762 1.384 . S
C4761 C4760 1.377 . S
C4761 C4767 1.390 . S
C4762 H4753 0.930 . S
C4762 C4760 1.384 . S
C4762 C4763 1.372 . S
C4763 C4762 1.372 . S
C4763 C4764 1.400 . S
C4763 C4768 1.490 . S
C4764 H4754 0.930 . S
C4764 C4763 1.400 . S
C4764 C4767 1.386 . S
H4765 C4781 0.930 . S
H4766 C4782 0.931 . S
C4767 H4755 0.929 . S
C4767 C4761 1.390 . S
C4767 C4764 1.386 . S
C4768 C4763 1.490 . S
C4768 C4770 1.395 . S
C4768 C4771 1.403 . S
H4769 C4775 0.930 . S
C4770 H4756 0.930 . S
C4770 C4768 1.395 . S
C4770 C4773 1.403 . S
C4771 C4768 1.403 . S
C4771 C4772 1.524 . S
C4771 C4775 1.400 . S
C4772 H4757 0.960 . S
C4772 H4758 0.960 . S
C4772 H4759 0.960 . S
C4772 C4771 1.524 . S
C4773 C4770 1.403 . S
C4773 C4774 1.392 . S
C4773 C4777 1.495 . S
C4774 C4773 1.392 . S
C4774 C4775 1.385 . S
C4774 C4776 1.478 . S
C4775 H4769 0.930 . S
C4775 C4771 1.400 . S
C4775 C4774 1.385 . S
C4776 C4774 1.478 . S
C4776 C4778 1.381 . S
C4776 C4782 1.383 . S
C4777 C4773 1.495 . S
C4777 H4783 0.959 . S
C4777 H4784 0.961 . S
C4777 H4785 0.960 . S
C4778 C4776 1.381 . S
C4778 C4779 1.394 . S
C4778 H4786 0.966 . S
C4779 C4778 1.394 . S
C4779 C4780 1.383 . S
C4779 H4787 0.929 1_455 S
C4780 C4779 1.383 . S
C4780 C4781 1.377 . S
C4781 H4765 0.930 . S
C4781 C4780 1.377 . S
C4781 C4782 1.379 . S
C4782 H4766 0.931 . S
C4782 C4776 1.383 . S
C4782 C4781 1.379 . S
H4783 C4777 0.959 . S
H4784 C4777 0.961 . S
H4785 C4777 0.960 . S
H4786 C4778 0.966 . S
H4787 C4779 0.929 1_655 S
H4788 C4796 0.929 . S
H4789 C4798 0.930 . S
H4790 C4800 0.930 . S
H4791 C4803 0.929 . S
H4792 C4806 0.930 . S
H4793 C4808 0.960 . S
H4794 C4808 0.960 . S
H4795 C4808 0.960 . S
C4796 H4788 0.929 . S
C4796 C4797 1.377 . S
C4796 C4798 1.384 . S
C4797 C4796 1.377 . S
C4797 C4803 1.390 . S
C4798 H4789 0.930 . S
C4798 C4796 1.384 . S
C4798 C4799 1.372 . S
C4799 C4798 1.372 . S
C4799 C4800 1.400 . S
C4799 C4804 1.490 . S
C4800 H4790 0.930 . S
C4800 C4799 1.400 . S
C4800 C4803 1.386 . S
H4801 C4817 0.930 . S
H4802 C4818 0.931 . S
C4803 H4791 0.929 . S
C4803 C4797 1.390 . S
C4803 C4800 1.386 . S
C4804 C4799 1.490 . S
C4804 C4806 1.395 . S
C4804 C4807 1.403 . S
H4805 C4811 0.930 . S
C4806 H4792 0.930 . S
C4806 C4804 1.395 . S
C4806 C4809 1.403 . S
C4807 C4804 1.403 . S
C4807 C4808 1.524 . S
C4807 C4811 1.400 . S
C4808 H4793 0.960 . S
C4808 H4794 0.960 . S
C4808 H4795 0.960 . S
C4808 C4807 1.524 . S
C4809 C4806 1.403 . S
C4809 C4810 1.392 . S
C4809 C4813 1.495 . S
C4810 C4809 1.392 . S
C4810 C4811 1.385 . S
C4810 C4812 1.478 . S
C4811 H4805 0.930 . S
C4811 C4807 1.400 . S
C4811 C4810 1.385 . S
C4812 C4810 1.478 . S
C4812 C4814 1.381 . S
C4812 C4818 1.383 . S
C4813 C4809 1.495 . S
C4813 H4819 0.959 . S
C4813 H4820 0.961 . S
C4813 H4821 0.960 . S
C4814 C4812 1.381 . S
C4814 C4815 1.394 . S
C4814 H4822 0.930 . S
C4815 C4814 1.394 . S
C4815 C4816 1.383 . S
C4815 H4823 0.929 . S
C4816 C4815 1.383 . S
C4816 C4817 1.377 . S
C4817 H4801 0.930 . S
C4817 C4816 1.377 . S
C4817 C4818 1.379 . S
C4818 H4802 0.931 . S
C4818 C4812 1.383 . S
C4818 C4817 1.379 . S
H4819 C4813 0.959 . S
H4820 C4813 0.961 . S
H4821 C4813 0.960 . S
H4822 C4814 0.930 . S
H4823 C4815 0.929 . S
H4824 C4832 0.929 . S
H4825 C4834 0.930 . S
H4826 C4836 0.930 . S
H4827 C4839 0.929 . S
H4828 C4842 0.930 . S
H4829 C4844 0.923 1_545 S
H4830 C4844 0.989 . S
H4831 C4844 0.856 1_545 S
C4832 H4824 0.929 . S
C4832 C4833 1.377 . S
C4832 C4834 1.384 . S
C4833 C4832 1.377 . S
C4833 C4839 1.390 . S
C4834 H4825 0.930 . S
C4834 C4832 1.384 . S
C4834 C4835 1.372 . S
C4835 C4834 1.372 . S
C4835 C4836 1.400 . S
C4835 C4840 1.490 . S
C4836 H4826 0.930 . S
C4836 C4835 1.400 . S
C4836 C4839 1.386 . S
H4837 C4853 0.930 . S
H4838 C4854 0.931 . S
C4839 H4827 0.929 . S
C4839 C4833 1.390 . S
C4839 C4836 1.386 . S
C4840 C4835 1.490 . S
C4840 C4842 1.395 . S
C4840 C4843 1.403 . S
H4841 C4847 0.930 . S
C4842 H4828 0.930 . S
C4842 C4840 1.395 . S
C4842 C4845 1.403 . S
C4843 C4840 1.403 . S
C4843 C4844 1.608 . S
C4843 C4847 1.400 . S
C4844 H4829 0.923 1_565 S
C4844 H4830 0.989 . S
C4844 H4831 0.856 1_565 S
C4844 C4843 1.608 . S
C4845 C4842 1.403 . S
C4845 C4846 1.392 . S
C4845 C4849 1.495 . S
C4846 C4845 1.392 . S
C4846 C4847 1.385 . S
C4846 C4848 1.478 . S
C4847 H4841 0.930 . S
C4847 C4843 1.400 . S
C4847 C4846 1.385 . S
C4848 C4846 1.478 . S
C4848 C4850 1.381 . S
C4848 C4854 1.383 . S
C4849 C4845 1.495 . S
C4849 H4855 0.959 . S
C4849 H4856 0.961 . S
C4849 H4857 0.960 . S
C4850 C4848 1.381 . S
C4850 C4851 1.394 . S
C4850 H4858 0.930 . S
C4851 C4850 1.394 . S
C4851 C4852 1.383 . S
C4851 H4859 0.929 . S
C4852 C4851 1.383 . S
C4852 C4853 1.377 . S
C4853 H4837 0.930 . S
C4853 C4852 1.377 . S
C4853 C4854 1.379 . S
C4854 H4838 0.931 . S
C4854 C4848 1.383 . S
C4854 C4853 1.379 . S
H4855 C4849 0.959 . S
H4856 C4849 0.961 . S
H4857 C4849 0.960 . S
H4858 C4850 0.930 . S
H4859 C4851 0.929 . S
H4860 C4868 0.929 . S
H4861 C4870 0.930 . S
H4862 C4872 0.930 . S
H4863 C4875 0.929 . S
H4864 C4878 0.930 . S
H4865 C4880 0.960 . S
H4866 C4880 0.960 . S
H4867 C4880 0.960 . S
C4868 H4860 0.929 . S
C4868 C4869 1.377 . S
C4868 C4870 1.384 . S
C4869 C4868 1.377 . S
C4869 C4875 1.390 . S
C4870 H4861 0.930 . S
C4870 C4868 1.384 . S
C4870 C4871 1.372 . S
C4871 C4870 1.372 . S
C4871 C4872 1.400 . S
C4871 C4876 1.490 . S
C4872 H4862 0.930 . S
C4872 C4871 1.400 . S
C4872 C4875 1.386 . S
H4873 C4889 0.930 . S
H4874 C4890 0.931 . S
C4875 H4863 0.929 . S
C4875 C4869 1.390 . S
C4875 C4872 1.386 . S
C4876 C4871 1.490 . S
C4876 C4878 1.395 . S
C4876 C4879 1.403 . S
H4877 C4883 0.930 . S
C4878 H4864 0.930 . S
C4878 C4876 1.395 . S
C4878 C4881 1.403 . S
C4879 C4876 1.403 . S
C4879 C4880 1.524 . S
C4879 C4883 1.400 . S
C4880 H4865 0.960 . S
C4880 H4866 0.960 . S
C4880 H4867 0.960 . S
C4880 C4879 1.524 . S
C4881 C4878 1.403 . S
C4881 C4882 1.392 . S
C4881 C4885 1.495 . S
C4882 C4881 1.392 . S
C4882 C4883 1.385 . S
C4882 C4884 1.478 . S
C4883 H4877 0.930 . S
C4883 C4879 1.400 . S
C4883 C4882 1.385 . S
C4884 C4882 1.478 . S
C4884 C4886 1.381 1_565 S
C4884 C4890 1.383 . S
C4885 C4881 1.495 . S
C4885 H4891 0.959 . S
C4885 H4892 0.961 . S
C4885 H4893 0.960 1_565 S
C4886 C4884 1.381 1_545 S
C4886 C4887 1.394 . S
C4886 H4894 0.930 . S
C4887 C4886 1.394 . S
C4887 C4888 1.386 . S
C4887 H4895 0.929 . S
C4888 C4887 1.386 . S
C4888 C4889 1.370 1_545 S
C4889 H4873 0.930 . S
C4889 C4888 1.370 1_565 S
C4889 C4890 1.379 . S
C4890 H4874 0.931 . S
C4890 C4884 1.383 . S
C4890 C4889 1.379 . S
H4891 C4885 0.959 . S
H4892 C4885 0.961 . S
H4893 C4885 0.960 1_545 S
H4894 C4886 0.930 . S
H4895 C4887 0.929 . S
H4896 C4904 0.929 . S
H4897 C4906 0.930 . S
H4898 C4908 0.930 . S
H4899 C4911 0.929 . S
H4900 C4914 0.896 1_655 S
H4901 C4916 0.960 . S
H4902 C4916 0.960 . S
H4903 C4916 0.960 . S
C4904 H4896 0.929 . S
C4904 C4905 1.377 . S
C4904 C4906 1.384 . S
C4905 C4904 1.377 . S
C4905 C4911 1.390 . S
C4906 H4897 0.930 . S
C4906 C4904 1.384 . S
C4906 C4907 1.372 . S
C4907 C4906 1.372 . S
C4907 C4908 1.400 . S
C4907 C4912 1.490 . S
C4908 H4898 0.930 . S
C4908 C4907 1.400 . S
C4908 C4911 1.386 . S
H4909 C4925 0.930 . S
H4910 C4926 0.931 . S
C4911 H4899 0.929 . S
C4911 C4905 1.390 . S
C4911 C4908 1.386 . S
C4912 C4907 1.490 . S
C4912 C4914 1.395 . S
C4912 C4915 1.403 . S
H4913 C4919 0.930 . S
C4914 H4900 0.896 1_455 S
C4914 C4912 1.395 . S
C4914 C4917 1.404 . S
C4915 C4912 1.403 . S
C4915 C4916 1.524 . S
C4915 C4919 1.400 . S
C4916 H4901 0.960 . S
C4916 H4902 0.960 . S
C4916 H4903 0.960 . S
C4916 C4915 1.524 . S
C4917 C4914 1.404 . S
C4917 C4918 1.384 . S
C4917 C4921 1.502 1_455 S
C4918 C4917 1.384 . S
C4918 C4919 1.385 . S
C4918 C4920 1.478 . S
C4919 H4913 0.930 . S
C4919 C4915 1.400 . S
C4919 C4918 1.385 . S
C4920 C4918 1.478 . S
C4920 C4922 1.381 1_455 S
C4920 C4926 1.383 . S
C4921 C4917 1.502 1_655 S
C4921 H4927 0.959 . S
C4921 H4928 0.961 . S
C4921 H4929 0.960 . S
C4922 C4920 1.381 1_655 S
C4922 C4923 1.394 . S
C4922 H4930 0.930 . S
C4923 C4922 1.394 . S
C4923 C4924 1.383 . S
C4923 H4931 0.929 . S
C4924 C4923 1.383 . S
C4924 C4925 1.377 1_655 S
C4925 H4909 0.930 . S
C4925 C4924 1.377 1_455 S
C4925 C4926 1.379 . S
C4926 H4910 0.931 . S
C4926 C4920 1.383 . S
C4926 C4925 1.379 . S
H4927 C4921 0.959 . S
H4928 C4921 0.961 . S
H4929 C4921 0.960 . S
H4930 C4922 0.930 . S
H4931 C4923 0.929 . S
H4932 C4940 0.929 . S
H4933 C4942 0.930 . S
H4934 C4944 0.930 . S
H4935 C4947 0.929 . S
H4936 C4950 0.930 . S
H4937 C4952 0.960 . S
H4938 C4952 0.960 . S
H4939 C4952 0.960 . S
C4940 H4932 0.929 . S
C4940 C4941 1.377 . S
C4940 C4942 1.384 . S
C4941 C4940 1.377 . S
C4941 C4947 1.390 . S
C4942 H4933 0.930 . S
C4942 C4940 1.384 . S
C4942 C4943 1.372 . S
C4943 C4942 1.372 . S
C4943 C4944 1.400 . S
C4943 C4948 1.490 . S
C4944 H4934 0.930 . S
C4944 C4943 1.400 . S
C4944 C4947 1.386 . S
H4945 C4961 0.930 . S
H4946 C4962 0.931 . S
C4947 H4935 0.929 . S
C4947 C4941 1.390 . S
C4947 C4944 1.386 . S
C4948 C4943 1.490 . S
C4948 C4950 1.395 . S
C4948 C4951 1.403 . S
H4949 C4955 0.930 . S
C4950 H4936 0.930 . S
C4950 C4948 1.395 . S
C4950 C4953 1.403 . S
C4951 C4948 1.403 . S
C4951 C4952 1.524 . S
C4951 C4955 1.400 . S
C4952 H4937 0.960 . S
C4952 H4938 0.960 . S
C4952 H4939 0.960 . S
C4952 C4951 1.524 . S
C4953 C4950 1.403 . S
C4953 C4954 1.392 . S
C4953 C4957 1.495 . S
C4954 C4953 1.392 . S
C4954 C4955 1.385 . S
C4954 C4956 1.478 . S
C4955 H4949 0.930 . S
C4955 C4951 1.400 . S
C4955 C4954 1.385 . S
C4956 C4954 1.478 . S
C4956 C4958 1.381 . S
C4956 C4962 1.383 . S
C4957 C4953 1.495 . S
C4957 H4963 0.959 . S
C4957 H4964 0.961 . S
C4957 H4965 0.960 . S
C4958 C4956 1.381 . S
C4958 C4959 1.394 . S
C4958 H4966 0.930 . S
C4959 C4958 1.394 . S
C4959 C4960 1.383 . S
C4959 H4967 0.929 . S
C4960 C4959 1.383 . S
C4960 C4961 1.377 . S
C4961 H4945 0.930 . S
C4961 C4960 1.377 . S
C4961 C4962 1.379 . S
C4962 H4946 0.931 . S
C4962 C4956 1.383 . S
C4962 C4961 1.379 . S
H4963 C4957 0.959 . S
H4964 C4957 0.961 . S
H4965 C4957 0.960 . S
H4966 C4958 0.930 . S
H4967 C4959 0.929 . S
H4968 C4976 0.929 . S
H4969 C4978 0.930 . S
H4970 C4980 0.930 . S
H4971 C4983 0.929 . S
H4972 C4986 0.930 . S
H4973 C4988 0.960 . S
H4974 C4988 0.960 . S
H4975 C4988 0.960 . S
C4976 H4968 0.929 . S
C4976 C4977 1.377 . S
C4976 C4978 1.384 . S
C4977 C4976 1.377 . S
C4977 C4983 1.390 . S
C4978 H4969 0.930 . S
C4978 C4976 1.384 . S
C4978 C4979 1.372 . S
C4979 C4978 1.372 . S
C4979 C4980 1.400 . S
C4979 C4984 1.490 . S
C4980 H4970 0.930 . S
C4980 C4979 1.400 . S
C4980 C4983 1.386 . S
H4981 C4997 0.930 . S
H4982 C4998 0.931 . S
C4983 H4971 0.929 . S
C4983 C4977 1.390 . S
C4983 C4980 1.386 . S
C4984 C4979 1.490 . S
C4984 C4986 1.395 . S
C4984 C4987 1.403 . S
H4985 C4991 0.930 . S
C4986 H4972 0.930 . S
C4986 C4984 1.395 . S
C4986 C4989 1.403 . S
C4987 C4984 1.403 . S
C4987 C4988 1.524 . S
C4987 C4991 1.400 . S
C4988 H4973 0.960 . S
C4988 H4974 0.960 . S
C4988 H4975 0.960 . S
C4988 C4987 1.524 . S
C4989 C4986 1.403 . S
C4989 C4990 1.392 . S
C4989 C4993 1.495 . S
C4990 C4989 1.392 . S
C4990 C4991 1.385 . S
C4990 C4992 1.478 . S
C4991 H4985 0.930 . S
C4991 C4987 1.400 . S
C4991 C4990 1.385 . S
C4992 C4990 1.478 . S
C4992 C4994 1.381 . S
C4992 C4998 1.383 . S
C4993 C4989 1.495 . S
C4993 H4999 0.959 . S
C4993 H5000 0.961 . S
C4993 H5001 0.960 . S
C4994 C4992 1.381 . S
C4994 C4995 1.394 . S
C4994 H5002 0.930 . S
C4995 C4994 1.394 . S
C4995 C4996 1.383 . S
C4995 H5003 0.929 . S
C4996 C4995 1.383 . S
C4996 C4997 1.377 . S
C4997 H4981 0.930 . S
C4997 C4996 1.377 . S
C4997 C4998 1.379 . S
C4998 H4982 0.931 . S
C4998 C4992 1.383 . S
C4998 C4997 1.379 . S
H4999 C4993 0.959 . S
H5000 C4993 0.961 . S
H5001 C4993 0.960 . S
H5002 C4994 0.930 . S
H5003 C4995 0.929 . S
H5004 C5012 0.929 . S
H5005 C5014 0.930 . S
H5006 C5016 0.930 . S
H5007 C5019 0.929 . S
H5008 C5022 0.930 . S
H5009 C5024 0.960 . S
H5010 C5024 0.960 . S
H5011 C5024 0.960 . S
C5012 H5004 0.929 . S
C5012 C5013 1.377 . S
C5012 C5014 1.384 . S
C5013 C5012 1.377 . S
C5013 C5019 1.390 . S
C5014 H5005 0.930 . S
C5014 C5012 1.384 . S
C5014 C5015 1.372 . S
C5015 C5014 1.372 . S
C5015 C5016 1.400 . S
C5015 C5020 1.490 . S
C5016 H5006 0.930 . S
C5016 C5015 1.400 . S
C5016 C5019 1.386 . S
H5017 C5033 0.930 . S
H5018 C5034 0.931 . S
C5019 H5007 0.929 . S
C5019 C5013 1.390 . S
C5019 C5016 1.386 . S
C5020 C5015 1.490 . S
C5020 C5022 1.395 . S
C5020 C5023 1.403 . S
H5021 C5027 0.930 . S
C5022 H5008 0.930 . S
C5022 C5020 1.395 . S
C5022 C5025 1.403 . S
C5023 C5020 1.403 . S
C5023 C5024 1.524 . S
C5023 C5027 1.400 . S
C5024 H5009 0.960 . S
C5024 H5010 0.960 . S
C5024 H5011 0.960 . S
C5024 C5023 1.524 . S
C5025 C5022 1.403 . S
C5025 C5026 1.392 . S
C5025 C5029 1.495 . S
C5026 C5025 1.392 . S
C5026 C5027 1.385 . S
C5026 C5028 1.478 . S
C5027 H5021 0.930 . S
C5027 C5023 1.400 . S
C5027 C5026 1.385 . S
C5028 C5026 1.478 . S
C5028 C5030 1.381 . S
C5028 C5034 1.383 . S
C5029 C5025 1.495 . S
C5029 H5035 0.959 . S
C5029 H5036 0.961 . S
C5029 H5037 0.960 . S
C5030 C5028 1.381 . S
C5030 C5031 1.394 . S
C5030 H5038 0.930 . S
C5031 C5030 1.394 . S
C5031 C5032 1.383 . S
C5031 H5039 0.929 . S
C5032 C5031 1.383 . S
C5032 C5033 1.377 . S
C5033 H5017 0.930 . S
C5033 C5032 1.377 . S
C5033 C5034 1.379 . S
C5034 H5018 0.931 . S
C5034 C5028 1.383 . S
C5034 C5033 1.379 . S
H5035 C5029 0.959 . S
H5036 C5029 0.961 . S
H5037 C5029 0.960 . S
H5038 C5030 0.930 . S
H5039 C5031 0.929 . S
H5040 C5048 0.929 . S
H5041 C5050 0.930 . S
H5042 C5052 0.930 . S
H5043 C5055 0.929 . S
H5044 C5058 0.930 . S
H5045 C5060 0.960 . S
H5046 C5060 0.960 . S
H5047 C5060 0.960 . S
C5048 H5040 0.929 . S
C5048 C5049 1.377 . S
C5048 C5050 1.384 . S
C5049 C5048 1.377 . S
C5049 C5055 1.390 . S
C5050 H5041 0.930 . S
C5050 C5048 1.384 . S
C5050 C5051 1.372 . S
C5051 C5050 1.372 . S
C5051 C5052 1.400 . S
C5051 C5056 1.490 . S
C5052 H5042 0.930 . S
C5052 C5051 1.400 . S
C5052 C5055 1.386 . S
H5053 C5069 0.930 . S
H5054 C5070 0.931 . S
C5055 H5043 0.929 . S
C5055 C5049 1.390 . S
C5055 C5052 1.386 . S
C5056 C5051 1.490 . S
C5056 C5058 1.395 . S
C5056 C5059 1.403 . S
H5057 C5063 0.930 . S
C5058 H5044 0.930 . S
C5058 C5056 1.395 . S
C5058 C5061 1.403 . S
C5059 C5056 1.403 . S
C5059 C5060 1.524 . S
C5059 C5063 1.400 . S
C5060 H5045 0.960 . S
C5060 H5046 0.960 . S
C5060 H5047 0.960 . S
C5060 C5059 1.524 . S
C5061 C5058 1.403 . S
C5061 C5062 1.392 . S
C5061 C5065 1.495 . S
C5062 C5061 1.392 . S
C5062 C5063 1.385 . S
C5062 C5064 1.478 . S
C5063 H5057 0.930 . S
C5063 C5059 1.400 . S
C5063 C5062 1.385 . S
C5064 C5062 1.478 . S
C5064 C5066 1.381 . S
C5064 C5070 1.383 . S
C5065 C5061 1.495 . S
C5065 H5071 0.959 . S
C5065 H5072 0.961 . S
C5065 H5073 0.960 . S
C5066 C5064 1.381 . S
C5066 C5067 1.394 . S
C5066 H5074 0.930 . S
C5067 C5066 1.394 . S
C5067 C5068 1.383 . S
C5067 H5075 0.929 . S
C5068 C5067 1.383 . S
C5068 C5069 1.377 . S
C5069 H5053 0.930 . S
C5069 C5068 1.377 . S
C5069 C5070 1.379 . S
C5070 H5054 0.931 . S
C5070 C5064 1.383 . S
C5070 C5069 1.379 . S
H5071 C5065 0.959 . S
H5072 C5065 0.961 . S
H5073 C5065 0.960 . S
H5074 C5066 0.930 . S
H5075 C5067 0.929 . S
H5076 C5084 0.929 . S
H5077 C5086 0.930 . S
H5078 C5088 0.930 . S
H5079 C5091 0.929 . S
H5080 C5094 0.930 . S
H5081 C5096 0.960 . S
H5082 C5096 0.960 . S
H5083 C5096 0.960 . S
C5084 H5076 0.929 . S
C5084 C5085 1.377 . S
C5084 C5086 1.384 . S
C5085 C5084 1.377 . S
C5085 C5091 1.390 . S
C5086 H5077 0.930 . S
C5086 C5084 1.384 . S
C5086 C5087 1.372 . S
C5087 C5086 1.372 . S
C5087 C5088 1.400 . S
C5087 C5092 1.490 . S
C5088 H5078 0.930 . S
C5088 C5087 1.400 . S
C5088 C5091 1.386 . S
H5089 C5105 0.930 . S
H5090 C5106 0.931 . S
C5091 H5079 0.929 . S
C5091 C5085 1.390 . S
C5091 C5088 1.386 . S
C5092 C5087 1.490 . S
C5092 C5094 1.395 . S
C5092 C5095 1.403 . S
H5093 C5099 0.930 . S
C5094 H5080 0.930 . S
C5094 C5092 1.395 . S
C5094 C5097 1.403 . S
C5095 C5092 1.403 . S
C5095 C5096 1.524 . S
C5095 C5099 1.400 . S
C5096 H5081 0.960 . S
C5096 H5082 0.960 . S
C5096 H5083 0.960 . S
C5096 C5095 1.524 . S
C5097 C5094 1.403 . S
C5097 C5098 1.392 . S
C5097 C5101 1.495 . S
C5098 C5097 1.392 . S
C5098 C5099 1.385 . S
C5098 C5100 1.478 . S
C5099 H5093 0.930 . S
C5099 C5095 1.400 . S
C5099 C5098 1.385 . S
C5100 C5098 1.478 . S
C5100 C5102 1.381 . S
C5100 C5106 1.383 . S
C5101 C5097 1.495 . S
C5101 H5107 0.959 . S
C5101 H5108 0.961 . S
C5101 H5109 0.960 . S
C5102 C5100 1.381 . S
C5102 C5103 1.389 . S
C5102 H5110 0.930 1_545 S
C5103 C5102 1.389 . S
C5103 C5104 1.380 . S
C5103 H5111 0.938 1_545 S
C5104 C5103 1.380 . S
C5104 C5105 1.377 . S
C5105 H5089 0.930 . S
C5105 C5104 1.377 . S
C5105 C5106 1.379 . S
C5106 H5090 0.931 . S
C5106 C5100 1.383 . S
C5106 C5105 1.379 . S
H5107 C5101 0.959 . S
H5108 C5101 0.961 . S
H5109 C5101 0.960 . S
H5110 C5102 0.930 1_565 S
H5111 C5103 0.938 1_565 S
H5112 C5120 0.929 . S
H5113 C5122 0.930 . S
H5114 C5124 0.930 . S
H5115 C5127 0.929 . S
H5116 C5130 0.930 . S
H5117 C5132 0.960 . S
H5118 C5132 0.960 . S
H5119 C5132 0.960 . S
C5120 H5112 0.929 . S
C5120 C5121 1.377 . S
C5120 C5122 1.384 . S
C5121 C5120 1.377 . S
C5121 C5127 1.390 . S
C5122 H5113 0.930 . S
C5122 C5120 1.384 . S
C5122 C5123 1.372 . S
C5123 C5122 1.372 . S
C5123 C5124 1.400 . S
C5123 C5128 1.490 . S
C5124 H5114 0.930 . S
C5124 C5123 1.400 . S
C5124 C5127 1.386 . S
H5125 C5141 0.930 . S
H5126 C5142 0.931 . S
C5127 H5115 0.929 . S
C5127 C5121 1.390 . S
C5127 C5124 1.386 . S
C5128 C5123 1.490 . S
C5128 C5130 1.395 . S
C5128 C5131 1.403 . S
H5129 C5135 0.930 . S
C5130 H5116 0.930 . S
C5130 C5128 1.395 . S
C5130 C5133 1.403 . S
C5131 C5128 1.403 . S
C5131 C5132 1.524 . S
C5131 C5135 1.400 . S
C5132 H5117 0.960 . S
C5132 H5118 0.960 . S
C5132 H5119 0.960 . S
C5132 C5131 1.524 . S
C5133 C5130 1.403 . S
C5133 C5134 1.392 . S
C5133 C5137 1.495 1_655 S
C5134 C5133 1.392 . S
C5134 C5135 1.385 . S
C5134 C5136 1.478 . S
C5135 H5129 0.930 . S
C5135 C5131 1.400 . S
C5135 C5134 1.385 . S
C5136 C5134 1.478 . S
C5136 C5138 1.381 . S
C5136 C5142 1.383 . S
C5137 C5133 1.495 1_455 S
C5137 H5143 0.959 . S
C5137 H5144 0.961 . S
C5137 H5145 0.960 . S
C5138 C5136 1.381 . S
C5138 C5139 1.394 . S
C5138 H5146 0.930 . S
C5139 C5138 1.394 . S
C5139 C5140 1.383 . S
C5139 H5147 0.929 1_655 S
C5140 C5139 1.383 . S
C5140 C5141 1.377 . S
C5141 H5125 0.930 . S
C5141 C5140 1.377 . S
C5141 C5142 1.379 . S
C5142 H5126 0.931 . S
C5142 C5136 1.383 . S
C5142 C5141 1.379 . S
H5143 C5137 0.959 . S
H5144 C5137 0.961 . S
H5145 C5137 0.960 . S
H5146 C5138 0.930 . S
H5147 C5139 0.929 1_455 S
H5148 C5156 0.929 . S
H5149 C5158 0.930 . S
H5150 C5160 0.930 . S
H5151 C5163 0.929 . S
H5152 C5166 0.930 . S
H5153 C5168 0.960 . S
H5154 C5168 0.960 . S
H5155 C5168 0.960 . S
C5156 H5148 0.929 . S
C5156 C5157 1.377 . S
C5156 C5158 1.384 . S
C5157 C5156 1.377 . S
C5157 C5163 1.390 . S
C5158 H5149 0.930 . S
C5158 C5156 1.384 . S
C5158 C5159 1.372 . S
C5159 C5158 1.372 . S
C5159 C5160 1.400 . S
C5159 C5164 1.490 . S
C5160 H5150 0.930 . S
C5160 C5159 1.400 . S
C5160 C5163 1.386 . S
H5161 C5177 0.930 . S
H5162 C5178 0.931 . S
C5163 H5151 0.929 . S
C5163 C5157 1.390 . S
C5163 C5160 1.386 . S
C5164 C5159 1.490 . S
C5164 C5166 1.395 . S
C5164 C5167 1.403 . S
H5165 C5171 0.930 . S
C5166 H5152 0.930 . S
C5166 C5164 1.395 . S
C5166 C5169 1.403 . S
C5167 C5164 1.403 . S
C5167 C5168 1.524 . S
C5167 C5171 1.400 . S
C5168 H5153 0.960 . S
C5168 H5154 0.960 . S
C5168 H5155 0.960 . S
C5168 C5167 1.524 . S
C5169 C5166 1.403 . S
C5169 C5170 1.392 . S
C5169 C5173 1.495 . S
C5170 C5169 1.392 . S
C5170 C5171 1.385 . S
C5170 C5172 1.478 . S
C5171 H5165 0.930 . S
C5171 C5167 1.400 . S
C5171 C5170 1.385 . S
C5172 C5170 1.478 . S
C5172 C5174 1.381 . S
C5172 C5178 1.383 . S
C5173 C5169 1.495 . S
C5173 H5179 0.959 . S
C5173 H5180 0.961 . S
C5173 H5181 0.960 . S
C5174 C5172 1.381 . S
C5174 C5175 1.394 . S
C5174 H5182 0.930 . S
C5175 C5174 1.394 . S
C5175 C5176 1.383 . S
C5175 H5183 0.929 . S
C5176 C5175 1.383 . S
C5176 C5177 1.377 . S
C5177 H5161 0.930 . S
C5177 C5176 1.377 . S
C5177 C5178 1.379 . S
C5178 H5162 0.931 . S
C5178 C5172 1.383 . S
C5178 C5177 1.379 . S
H5179 C5173 0.959 . S
H5180 C5173 0.961 . S
H5181 C5173 0.960 . S
H5182 C5174 0.930 . S
H5183 C5175 0.929 . S
H5184 C5192 0.929 . S
H5185 C5194 0.930 . S
H5186 C5196 0.930 . S
H5187 C5199 0.929 . S
H5188 C5202 0.930 . S
H5189 C5204 0.960 . S
H5190 C5204 0.960 . S
H5191 C5204 0.960 . S
C5192 H5184 0.929 . S
C5192 C5193 1.377 . S
C5192 C5194 1.384 . S
C5193 C5192 1.377 . S
C5193 C5199 1.390 . S
C5194 H5185 0.930 . S
C5194 C5192 1.384 . S
C5194 C5195 1.372 . S
C5195 C5194 1.372 . S
C5195 C5196 1.400 . S
C5195 C5200 1.490 . S
C5196 H5186 0.930 . S
C5196 C5195 1.400 . S
C5196 C5199 1.386 . S
H5197 C5213 0.930 . S
H5198 C5214 0.931 . S
C5199 H5187 0.929 . S
C5199 C5193 1.390 . S
C5199 C5196 1.386 . S
C5200 C5195 1.490 . S
C5200 C5202 1.395 . S
C5200 C5203 1.403 . S
H5201 C5207 0.930 . S
C5202 H5188 0.930 . S
C5202 C5200 1.395 . S
C5202 C5205 1.403 . S
C5203 C5200 1.403 . S
C5203 C5204 1.524 . S
C5203 C5207 1.400 . S
C5204 H5189 0.960 . S
C5204 H5190 0.960 . S
C5204 H5191 0.960 . S
C5204 C5203 1.524 . S
C5205 C5202 1.403 . S
C5205 C5206 1.392 . S
C5205 C5209 1.495 . S
C5206 C5205 1.392 . S
C5206 C5207 1.385 . S
C5206 C5208 1.478 . S
C5207 H5201 0.930 . S
C5207 C5203 1.400 . S
C5207 C5206 1.385 . S
C5208 C5206 1.478 . S
C5208 C5210 1.381 . S
C5208 C5214 1.383 . S
C5209 C5205 1.495 . S
C5209 H5215 0.959 . S
C5209 H5216 0.961 . S
C5209 H5217 0.960 . S
C5210 C5208 1.381 . S
C5210 C5211 1.394 . S
C5210 H5218 0.930 . S
C5211 C5210 1.394 . S
C5211 C5212 1.383 . S
C5211 H5219 0.929 . S
C5212 C5211 1.383 . S
C5212 C5213 1.377 . S
C5213 H5197 0.930 . S
C5213 C5212 1.377 . S
C5213 C5214 1.379 . S
C5214 H5198 0.931 . S
C5214 C5208 1.383 . S
C5214 C5213 1.379 . S
H5215 C5209 0.959 . S
H5216 C5209 0.961 . S
H5217 C5209 0.960 . S
H5218 C5210 0.930 . S
H5219 C5211 0.929 . S
H5220 C5228 0.929 . S
H5221 C5230 0.930 . S
H5222 C5232 0.930 . S
H5223 C5235 0.929 . S
H5224 C5238 0.930 . S
H5225 C5240 0.960 . S
H5226 C5240 0.960 . S
H5227 C5240 0.960 . S
C5228 H5220 0.929 . S
C5228 C5229 1.377 . S
C5228 C5230 1.384 . S
C5229 C5228 1.377 . S
C5229 C5235 1.390 . S
C5230 H5221 0.930 . S
C5230 C5228 1.384 . S
C5230 C5231 1.372 . S
C5231 C5230 1.372 . S
C5231 C5232 1.400 . S
C5231 C5236 1.490 . S
C5232 H5222 0.930 . S
C5232 C5231 1.400 . S
C5232 C5235 1.386 . S
H5233 C5249 0.930 . S
H5234 C5250 0.931 . S
C5235 H5223 0.929 . S
C5235 C5229 1.390 . S
C5235 C5232 1.386 . S
C5236 C5231 1.490 . S
C5236 C5238 1.395 . S
C5236 C5239 1.403 . S
H5237 C5243 0.930 . S
C5238 H5224 0.930 . S
C5238 C5236 1.395 . S
C5238 C5241 1.403 . S
C5239 C5236 1.403 . S
C5239 C5240 1.524 . S
C5239 C5243 1.400 . S
C5240 H5225 0.960 . S
C5240 H5226 0.960 . S
C5240 H5227 0.960 . S
C5240 C5239 1.524 . S
C5241 C5238 1.403 . S
C5241 C5242 1.392 . S
C5241 C5245 1.495 . S
C5242 C5241 1.392 . S
C5242 C5243 1.385 . S
C5242 C5244 1.478 . S
C5243 H5237 0.930 . S
C5243 C5239 1.400 . S
C5243 C5242 1.385 . S
C5244 C5242 1.478 . S
C5244 C5246 1.381 . S
C5244 C5250 1.383 . S
C5245 C5241 1.495 . S
C5245 H5251 0.959 . S
C5245 H5252 0.961 . S
C5245 H5253 0.960 . S
C5246 C5244 1.381 . S
C5246 C5247 1.394 . S
C5246 H5254 0.930 . S
C5247 C5246 1.394 . S
C5247 C5248 1.383 . S
C5247 H5255 0.929 . S
C5248 C5247 1.383 . S
C5248 C5249 1.377 . S
C5249 H5233 0.930 . S
C5249 C5248 1.377 . S
C5249 C5250 1.379 . S
C5250 H5234 0.931 . S
C5250 C5244 1.383 . S
C5250 C5249 1.379 . S
H5251 C5245 0.959 . S
H5252 C5245 0.961 . S
H5253 C5245 0.960 . S
H5254 C5246 0.930 . S
H5255 C5247 0.929 . S
H5256 C5264 0.929 . S
H5257 C5266 0.930 . S
H5258 C5268 0.930 . S
H5259 C5271 0.929 . S
H5260 C5274 0.930 . S
H5261 C5276 0.960 . S
H5262 C5276 0.960 . S
H5263 C5276 0.960 . S
C5264 H5256 0.929 . S
C5264 C5265 1.377 . S
C5264 C5266 1.384 . S
C5265 C5264 1.377 . S
C5265 C5271 1.390 . S
C5266 H5257 0.930 . S
C5266 C5264 1.384 . S
C5266 C5267 1.372 . S
C5267 C5266 1.372 . S
C5267 C5268 1.400 . S
C5267 C5272 1.490 . S
C5268 H5258 0.930 . S
C5268 C5267 1.400 . S
C5268 C5271 1.386 . S
H5269 C5285 0.930 . S
H5270 C5286 0.931 . S
C5271 H5259 0.929 . S
C5271 C5265 1.390 . S
C5271 C5268 1.386 . S
C5272 C5267 1.490 . S
C5272 C5274 1.395 . S
C5272 C5275 1.403 . S
H5273 C5279 0.930 . S
C5274 H5260 0.930 . S
C5274 C5272 1.395 . S
C5274 C5277 1.403 . S
C5275 C5272 1.403 . S
C5275 C5276 1.524 . S
C5275 C5279 1.400 . S
C5276 H5261 0.960 . S
C5276 H5262 0.960 . S
C5276 H5263 0.960 . S
C5276 C5275 1.524 . S
C5277 C5274 1.403 . S
C5277 C5278 1.392 . S
C5277 C5281 1.495 . S
C5278 C5277 1.392 . S
C5278 C5279 1.385 . S
C5278 C5280 1.478 . S
C5279 H5273 0.930 . S
C5279 C5275 1.400 . S
C5279 C5278 1.385 . S
C5280 C5278 1.478 . S
C5280 C5282 1.381 . S
C5280 C5286 1.383 . S
C5281 C5277 1.495 . S
C5281 H5287 0.959 . S
C5281 H5288 0.961 . S
C5281 H5289 0.960 . S
C5282 C5280 1.381 . S
C5282 C5283 1.394 . S
C5282 H5290 0.930 . S
C5283 C5282 1.394 . S
C5283 C5284 1.383 . S
C5283 H5291 0.929 . S
C5284 C5283 1.383 . S
C5284 C5285 1.377 . S
C5285 H5269 0.930 . S
C5285 C5284 1.377 . S
C5285 C5286 1.379 . S
C5286 H5270 0.931 . S
C5286 C5280 1.383 . S
C5286 C5285 1.379 . S
H5287 C5281 0.959 . S
H5288 C5281 0.961 . S
H5289 C5281 0.960 . S
H5290 C5282 0.930 . S
H5291 C5283 0.929 . S
H5292 C5300 0.929 . S
H5293 C5302 0.930 . S
H5294 C5304 0.930 . S
H5295 C5307 0.929 . S
H5296 C5310 0.930 . S
H5297 C5312 0.960 . S
H5298 C5312 0.960 . S
H5299 C5312 0.960 . S
C5300 H5292 0.929 . S
C5300 C5301 1.377 . S
C5300 C5302 1.384 . S
C5301 C5300 1.377 . S
C5301 C5307 1.390 . S
C5302 H5293 0.930 . S
C5302 C5300 1.384 . S
C5302 C5303 1.372 . S
C5303 C5302 1.372 . S
C5303 C5304 1.400 . S
C5303 C5308 1.490 . S
C5304 H5294 0.930 . S
C5304 C5303 1.400 . S
C5304 C5307 1.386 . S
H5305 C5321 0.930 . S
H5306 C5322 0.931 . S
C5307 H5295 0.929 . S
C5307 C5301 1.390 . S
C5307 C5304 1.386 . S
C5308 C5303 1.490 . S
C5308 C5310 1.395 . S
C5308 C5311 1.403 . S
H5309 C5315 0.930 . S
C5310 H5296 0.930 . S
C5310 C5308 1.395 . S
C5310 C5313 1.403 . S
C5311 C5308 1.403 . S
C5311 C5312 1.524 . S
C5311 C5315 1.400 . S
C5312 H5297 0.960 . S
C5312 H5298 0.960 . S
C5312 H5299 0.960 . S
C5312 C5311 1.524 . S
C5313 C5310 1.403 . S
C5313 C5314 1.392 . S
C5313 C5317 1.495 . S
C5314 C5313 1.392 . S
C5314 C5315 1.385 . S
C5314 C5316 1.478 . S
C5315 H5309 0.930 . S
C5315 C5311 1.400 . S
C5315 C5314 1.385 . S
C5316 C5314 1.478 . S
C5316 C5318 1.381 . S
C5316 C5322 1.383 . S
C5317 C5313 1.495 . S
C5317 H5323 0.959 . S
C5317 H5324 0.961 . S
C5317 H5325 0.960 . S
C5318 C5316 1.381 . S
C5318 C5319 1.394 . S
C5318 H5326 0.930 . S
C5319 C5318 1.394 . S
C5319 C5320 1.383 . S
C5319 H5327 0.929 . S
C5320 C5319 1.383 . S
C5320 C5321 1.377 . S
C5321 H5305 0.930 . S
C5321 C5320 1.377 . S
C5321 C5322 1.379 . S
C5322 H5306 0.931 . S
C5322 C5316 1.383 . S
C5322 C5321 1.379 . S
H5323 C5317 0.959 . S
H5324 C5317 0.961 . S
H5325 C5317 0.960 . S
H5326 C5318 0.930 . S
H5327 C5319 0.929 . S
H5328 C5336 0.929 . S
H5329 C5338 0.930 . S
H5330 C5340 0.930 . S
H5331 C5343 0.929 . S
H5332 C5346 0.930 . S
H5333 C5348 0.960 . S
H5334 C5348 0.960 . S
H5335 C5348 0.960 . S
C5336 H5328 0.929 . S
C5336 C5337 1.377 . S
C5336 C5338 1.384 . S
C5337 C5336 1.377 . S
C5337 C5343 1.390 . S
C5338 H5329 0.930 . S
C5338 C5336 1.384 . S
C5338 C5339 1.372 . S
C5339 C5338 1.372 . S
C5339 C5340 1.400 . S
C5339 C5344 1.490 . S
C5340 H5330 0.930 . S
C5340 C5339 1.400 . S
C5340 C5343 1.386 . S
H5341 C5357 0.930 . S
H5342 C5358 0.931 . S
C5343 H5331 0.929 . S
C5343 C5337 1.390 . S
C5343 C5340 1.386 . S
C5344 C5339 1.490 . S
C5344 C5346 1.395 . S
C5344 C5347 1.403 . S
H5345 C5351 0.930 . S
C5346 H5332 0.930 . S
C5346 C5344 1.395 . S
C5346 C5349 1.403 . S
C5347 C5344 1.403 . S
C5347 C5348 1.524 . S
C5347 C5351 1.400 . S
C5348 H5333 0.960 . S
C5348 H5334 0.960 . S
C5348 H5335 0.960 . S
C5348 C5347 1.524 . S
C5349 C5346 1.403 . S
C5349 C5350 1.392 . S
C5349 C5353 1.495 . S
C5350 C5349 1.392 . S
C5350 C5351 1.385 . S
C5350 C5352 1.478 . S
C5351 H5345 0.930 . S
C5351 C5347 1.400 . S
C5351 C5350 1.385 . S
C5352 C5350 1.478 . S
C5352 C5354 1.381 . S
C5352 C5358 1.383 . S
C5353 C5349 1.495 . S
C5353 H5359 0.959 . S
C5353 H5360 0.961 . S
C5353 H5361 0.960 . S
C5354 C5352 1.381 . S
C5354 C5355 1.394 . S
C5354 H5362 0.930 . S
C5355 C5354 1.394 . S
C5355 C5356 1.383 . S
C5355 H5363 0.929 . S
C5356 C5355 1.383 . S
C5356 C5357 1.377 . S
C5357 H5341 0.930 . S
C5357 C5356 1.377 . S
C5357 C5358 1.379 . S
C5358 H5342 0.931 . S
C5358 C5352 1.383 . S
C5358 C5357 1.379 . S
H5359 C5353 0.959 . S
H5360 C5353 0.961 . S
H5361 C5353 0.960 . S
H5362 C5354 0.930 . S
H5363 C5355 0.929 . S
H5364 C5372 0.929 . S
H5365 C5374 0.930 . S
H5366 C5376 0.930 . S
H5367 C5379 0.929 . S
H5368 C5382 0.930 . S
H5369 C5384 0.960 . S
H5370 C5384 0.960 . S
H5371 C5384 0.960 . S
C5372 H5364 0.929 . S
C5372 C5373 1.377 . S
C5372 C5374 1.384 . S
C5373 C5372 1.377 . S
C5373 C5379 1.390 . S
C5374 H5365 0.930 . S
C5374 C5372 1.384 . S
C5374 C5375 1.372 . S
C5375 C5374 1.372 . S
C5375 C5376 1.400 . S
C5375 C5380 1.490 . S
C5376 H5366 0.930 . S
C5376 C5375 1.400 . S
C5376 C5379 1.386 . S
H5377 C5393 0.930 . S
H5378 C5394 0.931 . S
C5379 H5367 0.929 . S
C5379 C5373 1.390 . S
C5379 C5376 1.386 . S
C5380 C5375 1.490 . S
C5380 C5382 1.395 . S
C5380 C5383 1.403 . S
H5381 C5387 0.930 . S
C5382 H5368 0.930 . S
C5382 C5380 1.395 . S
C5382 C5385 1.403 . S
C5383 C5380 1.403 . S
C5383 C5384 1.524 . S
C5383 C5387 1.400 . S
C5384 H5369 0.960 . S
C5384 H5370 0.960 . S
C5384 H5371 0.960 . S
C5384 C5383 1.524 . S
C5385 C5382 1.403 . S
C5385 C5386 1.392 . S
C5385 C5389 1.495 . S
C5386 C5385 1.392 . S
C5386 C5387 1.385 . S
C5386 C5388 1.478 . S
C5387 H5381 0.930 . S
C5387 C5383 1.400 . S
C5387 C5386 1.385 . S
C5388 C5386 1.478 . S
C5388 C5390 1.381 . S
C5388 C5394 1.383 . S
C5389 C5385 1.495 . S
C5389 H5395 0.959 . S
C5389 H5396 0.961 . S
C5389 H5397 0.960 . S
C5390 C5388 1.381 . S
C5390 C5391 1.394 . S
C5390 H5398 0.930 . S
C5391 C5390 1.394 . S
C5391 C5392 1.383 . S
C5391 H5399 0.929 . S
C5392 C5391 1.383 . S
C5392 C5393 1.377 . S
C5393 H5377 0.930 . S
C5393 C5392 1.377 . S
C5393 C5394 1.379 . S
C5394 H5378 0.931 . S
C5394 C5388 1.383 . S
C5394 C5393 1.379 . S
H5395 C5389 0.959 . S
H5396 C5389 0.961 . S
H5397 C5389 0.960 . S
H5398 C5390 0.930 . S
H5399 C5391 0.929 . S
H5400 C5408 0.929 . S
H5401 C5410 0.930 . S
H5402 C5412 0.930 . S
H5403 C5415 0.929 . S
H5404 C5418 0.930 . S
H5405 C5420 0.960 1_455 S
H5406 C5420 0.960 . S
H5407 C5420 0.960 . S
C5408 H5400 0.929 . S
C5408 C5409 1.377 . S
C5408 C5410 1.384 . S
C5409 C5408 1.377 . S
C5409 C5415 1.390 . S
C5410 H5401 0.930 . S
C5410 C5408 1.384 . S
C5410 C5411 1.372 . S
C5411 C5410 1.372 . S
C5411 C5412 1.400 . S
C5411 C5416 1.490 . S
C5412 H5402 0.930 . S
C5412 C5411 1.400 . S
C5412 C5415 1.386 . S
H5413 C5429 0.930 . S
H5414 C5430 0.931 1_455 S
C5415 H5403 0.929 . S
C5415 C5409 1.390 . S
C5415 C5412 1.386 . S
C5416 C5411 1.490 . S
C5416 C5418 1.395 . S
C5416 C5419 1.403 . S
H5417 C5423 0.930 . S
C5418 H5404 0.930 . S
C5418 C5416 1.395 . S
C5418 C5421 1.403 . S
C5419 C5416 1.403 . S
C5419 C5420 1.524 . S
C5419 C5423 1.400 . S
C5420 H5405 0.960 1_655 S
C5420 H5406 0.960 . S
C5420 H5407 0.960 . S
C5420 C5419 1.524 . S
C5421 C5418 1.403 . S
C5421 C5422 1.392 . S
C5421 C5425 1.495 . S
C5422 C5421 1.392 . S
C5422 C5423 1.385 . S
C5422 C5424 1.478 . S
C5423 H5417 0.930 . S
C5423 C5419 1.400 . S
C5423 C5422 1.385 . S
C5424 C5422 1.478 . S
C5424 C5426 1.381 . S
C5424 C5430 1.383 . S
C5425 C5421 1.495 . S
C5425 H5431 0.959 . S
C5425 H5432 0.961 . S
C5425 H5433 0.960 . S
C5426 C5424 1.381 . S
C5426 C5427 1.394 . S
C5426 H5434 0.930 . S
C5427 C5426 1.394 . S
C5427 C5428 1.383 . S
C5427 H5435 0.929 . S
C5428 C5427 1.383 . S
C5428 C5429 1.377 1_655 S
C5429 H5413 0.930 . S
C5429 C5428 1.377 1_455 S
C5429 C5430 1.379 1_455 S
C5430 H5414 0.931 1_655 S
C5430 C5424 1.383 . S
C5430 C5429 1.379 1_655 S
H5431 C5425 0.959 . S
H5432 C5425 0.961 . S
H5433 C5425 0.960 . S
H5434 C5426 0.930 . S
H5435 C5427 0.929 . S
H5436 C5444 0.929 . S
H5437 C5446 0.930 . S
H5438 C5448 0.930 . S
H5439 C5451 0.929 . S
H5440 C5454 0.930 . S
H5441 C5456 0.960 . S
H5442 C5456 0.960 . S
H5443 C5456 0.960 . S
C5444 H5436 0.929 . S
C5444 C5445 1.377 . S
C5444 C5446 1.384 . S
C5445 C5444 1.377 . S
C5445 C5451 1.390 . S
C5446 H5437 0.930 . S
C5446 C5444 1.384 . S
C5446 C5447 1.372 . S
C5447 C5446 1.372 . S
C5447 C5448 1.400 . S
C5447 C5452 1.490 . S
C5448 H5438 0.930 . S
C5448 C5447 1.400 . S
C5448 C5451 1.386 . S
H5449 C5465 0.930 . S
H5450 C5466 0.931 . S
C5451 H5439 0.929 . S
C5451 C5445 1.390 . S
C5451 C5448 1.386 . S
C5452 C5447 1.490 . S
C5452 C5454 1.395 . S
C5452 C5455 1.403 . S
H5453 C5459 0.930 . S
C5454 H5440 0.930 . S
C5454 C5452 1.395 . S
C5454 C5457 1.403 . S
C5455 C5452 1.403 . S
C5455 C5456 1.524 . S
C5455 C5459 1.400 . S
C5456 H5441 0.960 . S
C5456 H5442 0.960 . S
C5456 H5443 0.960 . S
C5456 C5455 1.524 . S
C5457 C5454 1.403 . S
C5457 C5458 1.392 . S
C5457 C5461 1.495 . S
C5458 C5457 1.392 . S
C5458 C5459 1.385 . S
C5458 C5460 1.478 . S
C5459 H5453 0.930 . S
C5459 C5455 1.400 . S
C5459 C5458 1.385 . S
C5460 C5458 1.478 . S
C5460 C5462 1.381 . S
C5460 C5466 1.383 . S
C5461 C5457 1.495 . S
C5461 H5467 0.959 . S
C5461 H5468 0.961 . S
C5461 H5469 0.960 . S
C5462 C5460 1.381 . S
C5462 C5463 1.394 . S
C5462 H5470 0.930 . S
C5463 C5462 1.394 . S
C5463 C5464 1.383 . S
C5463 H5471 0.929 . S
C5464 C5463 1.383 . S
C5464 C5465 1.377 . S
C5465 H5449 0.930 . S
C5465 C5464 1.377 . S
C5465 C5466 1.379 . S
C5466 H5450 0.931 . S
C5466 C5460 1.383 . S
C5466 C5465 1.379 . S
H5467 C5461 0.959 . S
H5468 C5461 0.961 . S
H5469 C5461 0.960 . S
H5470 C5462 0.930 . S
H5471 C5463 0.929 . S
H5472 C5480 0.929 . S
H5473 C5482 0.930 . S
H5474 C5484 0.930 . S
H5475 C5487 0.929 . S
H5476 C5490 0.930 . S
H5477 C5492 0.960 . S
H5478 C5492 0.960 . S
H5479 C5492 0.960 . S
C5480 H5472 0.929 . S
C5480 C5481 1.377 . S
C5480 C5482 1.384 . S
C5481 C5480 1.377 . S
C5481 C5487 1.390 . S
C5482 H5473 0.930 . S
C5482 C5480 1.384 . S
C5482 C5483 1.372 . S
C5483 C5482 1.372 . S
C5483 C5484 1.400 . S
C5483 C5488 1.490 . S
C5484 H5474 0.930 . S
C5484 C5483 1.400 . S
C5484 C5487 1.386 . S
H5485 C5501 0.930 . S
H5486 C5502 0.948 . S
C5487 H5475 0.929 . S
C5487 C5481 1.390 . S
C5487 C5484 1.386 . S
C5488 C5483 1.490 . S
C5488 C5490 1.395 . S
C5488 C5491 1.403 . S
H5489 C5495 0.930 . S
C5490 H5476 0.930 . S
C5490 C5488 1.395 . S
C5490 C5493 1.403 . S
C5491 C5488 1.403 . S
C5491 C5492 1.524 . S
C5491 C5495 1.400 . S
C5492 H5477 0.960 . S
C5492 H5478 0.960 . S
C5492 H5479 0.960 . S
C5492 C5491 1.524 . S
C5493 C5490 1.403 . S
C5493 C5494 1.392 . S
C5493 C5497 1.495 1_545 S
C5494 C5493 1.392 . S
C5494 C5495 1.385 . S
C5494 C5496 1.478 . S
C5495 H5489 0.930 . S
C5495 C5491 1.400 . S
C5495 C5494 1.385 . S
C5496 C5494 1.478 . S
C5496 C5498 1.381 . S
C5496 C5502 1.369 1_545 S
C5497 C5493 1.495 1_565 S
C5497 H5503 0.959 . S
C5497 H5504 0.961 . S
C5497 H5505 0.960 1_565 S
C5498 C5496 1.381 . S
C5498 C5499 1.394 . S
C5498 H5506 0.930 . S
C5499 C5498 1.394 . S
C5499 C5500 1.438 . S
C5499 H5507 0.929 . S
C5500 C5499 1.438 . S
C5500 C5501 1.314 1_545 S
C5501 H5485 0.930 . S
C5501 C5500 1.314 1_565 S
C5501 C5502 1.377 . S
C5502 H5486 0.948 . S
C5502 C5496 1.369 1_565 S
C5502 C5501 1.377 . S
H5503 C5497 0.959 . S
H5504 C5497 0.961 . S
H5505 C5497 0.960 1_545 S
H5506 C5498 0.930 . S
H5507 C5499 0.929 . S
C2925 C49 1.049 . S
C2944 C2313 1.022 . S
C2961 C137 1.586 . S
C2980 C2393 1.541 . S
C3016 C2461 1.321 . S
C2997 C205 1.309 . S
C3033 C196 1.786 . S
C3052 C2541 1.810 . S
C3069 C57 1.549 . S
C3088 C2615 1.577 . S
C3105 C145 1.594 1_556 S
C3124 C2683 1.559 . S
C3141 C313 1.039 . S
C3160 C2609 1.047 . S
C3196 C2689 1.471 . S
C3177 C401 1.467 . S
C3232 C2535 1.355 . S
C3213 C489 1.335 . S
C3249 C469 1.812 . S
C3268 C2467 1.874 1_545 S
C3304 C2319 1.557 . S
C3285 C293 1.563 . S
C3321 C381 1.465 . S
C3340 C2387 1.458 . S
C3357 C577 1.318 . S
C3376 C2757 1.270 . S
C3393 C645 1.607 . S
C3412 C2837 1.573 . S
C3448 C2905 1.436 . S
C3429 C733 1.469 . S
C3465 C724 1.908 . S
C3484 C1653 1.864 . S
C3501 C585 1.751 . S
C3520 C1727 1.698 . S
C3537 C636 1.634 . S
C3556 C1795 1.578 . S
C3573 C841 1.004 . S
C3592 C1721 1.010 . S
C3609 C937 1.539 . S
C3628 C1801 1.550 . S
C3664 C1647 1.422 . S
C3645 C1025 1.417 . S
C3700 C2911 1.939 . S
C3681 C988 1.925 . S
C3736 C2763 1.527 . S
C3717 C821 1.537 . S
C3772 C2831 1.459 . S
C3753 C900 1.485 . S
C3789 C1105 1.177 . S
C3808 C1869 1.155 . S
C3825 C1193 1.668 . S
C3844 C1949 1.610 . S
C3861 C1281 1.559 . S
C3880 C2017 1.525 . S
C3897 C1289 2.026 . S
C3916 C2097 1.972 . S
C3952 C2171 1.634 . S
C3933 C1113 1.678 . S
C3988 C2239 1.543 . S
C3969 C1201 1.640 . S
C4024 C2165 1.110 . S
C4005 C1369 1.156 . S
C4060 C2245 1.461 . S
C4041 C1457 1.473 . S
C4077 C1553 1.298 . S
C4096 C2091 1.280 . S
C4132 C2023 1.807 . S
C4113 C1516 1.790 . S
C4149 C1349 1.632 . S
C4168 C1875 1.635 . S
C4204 C1943 1.474 . S
C4185 C1437 1.493 . S
C4240 C1623 2.007 . S
C4221 C29 2.031 . S
C4257 C117 1.344 . S
C4276 C1697 1.330 . S
C4312 C1783 1.543 . S
C4293 C225 1.536 . S
C4348 C1857 1.099 . S
C4329 C233 1.077 1_556 S
C4384 C1919 1.583 . S
C4365 C20 1.604 . S
C4420 C2005 1.494 . S
C4401 C108 1.507 . S
C4437 C321 2.245 . S
C4456 C1993 2.186 . S
C4473 C409 1.573 . S
C4492 C1845 1.473 . S
C4509 C497 1.803 . S
C4528 C1931 1.767 . S
C4545 C460 1.384 . S
C4564 C1709 1.368 . S
C4600 C1771 1.748 . S
C4581 C284 1.833 . S
C4617 C372 1.749 . S
C4636 C1635 1.735 . S
C4672 C2067 1.898 . S
C4653 C557 1.904 . S
C4689 C665 1.517 . S
C4708 C2141 1.511 . S
C4725 C753 1.543 . S
C4744 C2227 1.521 . S
C4780 C2301 0.682 . S
C4761 C761 0.628 . S
C4797 C548 1.411 . S
C4816 C2363 1.400 . S
C4833 C673 1.193 . S
C4852 C2449 1.196 . S
C4869 C849 1.688 . S
C4888 C2437 1.662 . S
C4905 C929 1.099 . S
C4924 C2289 1.110 . S
C4960 C2375 1.563 . S
C4941 C1017 1.614 . S
C4977 C997 1.307 . S
C4996 C2153 1.222 . S
C5013 C812 1.798 . S
C5032 C2215 1.723 . S
C5068 C2079 1.828 . S
C5049 C909 1.867 . S
C5104 C2511 1.584 . S
C5085 C1085 1.615 . S
C5121 C1173 0.964 . S
C5140 C2585 0.961 . S
C5157 C1261 1.364 . S
C5176 C2671 1.355 . S
C5212 C2745 0.973 . S
C5193 C1252 1.019 . S
C5248 C2807 1.572 . S
C5229 C1076 1.595 . S
C5265 C1164 1.633 . S
C5284 C2893 1.643 . S
C5301 C1377 2.120 . S
C5320 C2881 2.054 . S
C5337 C1465 1.737 . S
C5356 C2733 1.635 . S
C5392 C2819 1.761 . S
C5373 C1545 1.789 . S
C5428 C2597 0.741 . S
C5409 C1525 0.735 . S
C5464 C2659 1.551 . S
C5445 C1340 1.632 . S
C5481 C1428 1.300 . S
C5500 C2523 1.338 . S
