# Generated by pormake.
# Topology ctn, (3,4)-cn, num edge types: 1
# Building blocks:
#     Node 0, Type 0, BuildingBlock: BETDAH_clean_linker_0, # of connection points: 3
#     Node 1, Type 0, BuildingBlock: BETDAH_clean_linker_0, # of connection points: 3
#     Node 2, Type 0, BuildingBlock: BETDAH_clean_linker_0, # of connection points: 3
#     Node 3, Type 0, BuildingBlock: BETDAH_clean_linker_0, # of connection points: 3
#     Node 4, Type 0, BuildingBlock: BETDAH_clean_linker_0, # of connection points: 3
#     Node 5, Type 0, BuildingBlock: BETDAH_clean_linker_0, # of connection points: 3
#     Node 6, Type 0, BuildingBlock: BETDAH_clean_linker_0, # of connection points: 3
#     Node 7, Type 0, BuildingBlock: BETDAH_clean_linker_0, # of connection points: 3
#     Node 8, Type 0, BuildingBlock: BETDAH_clean_linker_0, # of connection points: 3
#     Node 9, Type 0, BuildingBlock: BETDAH_clean_linker_0, # of connection points: 3
#     Node 10, Type 0, BuildingBlock: BETDAH_clean_linker_0, # of connection points: 3
#     Node 11, Type 0, BuildingBlock: BETDAH_clean_linker_0, # of connection points: 3
#     Node 12, Type 0, BuildingBlock: BETDAH_clean_linker_0, # of connection points: 3
#     Node 13, Type 0, BuildingBlock: BETDAH_clean_linker_0, # of connection points: 3
#     Node 14, Type 0, BuildingBlock: BETDAH_clean_linker_0, # of connection points: 3
#     Node 15, Type 0, BuildingBlock: BETDAH_clean_linker_0, # of connection points: 3
#     Node 16, Type 1, BuildingBlock: TATPOV_clean_sbu_0, # of connection points: 4
#     Node 17, Type 1, BuildingBlock: TATPOV_clean_sbu_0, # of connection points: 4
#     Node 18, Type 1, BuildingBlock: TATPOV_clean_sbu_0, # of connection points: 4
#     Node 19, Type 1, BuildingBlock: TATPOV_clean_sbu_0, # of connection points: 4
#     Node 20, Type 1, BuildingBlock: TATPOV_clean_sbu_0, # of connection points: 4
#     Node 21, Type 1, BuildingBlock: TATPOV_clean_sbu_0, # of connection points: 4
#     Node 22, Type 1, BuildingBlock: TATPOV_clean_sbu_0, # of connection points: 4
#     Node 23, Type 1, BuildingBlock: TATPOV_clean_sbu_0, # of connection points: 4
#     Node 24, Type 1, BuildingBlock: TATPOV_clean_sbu_0, # of connection points: 4
#     Node 25, Type 1, BuildingBlock: TATPOV_clean_sbu_0, # of connection points: 4
#     Node 26, Type 1, BuildingBlock: TATPOV_clean_sbu_0, # of connection points: 4
#     Node 27, Type 1, BuildingBlock: TATPOV_clean_sbu_0, # of connection points: 4
#     Edge 28, Type (0, 1), None
#     Edge 29, Type (0, 1), None
#     Edge 30, Type (0, 1), None
#     Edge 31, Type (0, 1), None
#     Edge 32, Type (0, 1), None
#     Edge 33, Type (0, 1), None
#     Edge 34, Type (0, 1), None
#     Edge 35, Type (0, 1), None
#     Edge 36, Type (0, 1), None
#     Edge 37, Type (0, 1), None
#     Edge 38, Type (0, 1), None
#     Edge 39, Type (0, 1), None
#     Edge 40, Type (0, 1), None
#     Edge 41, Type (0, 1), None
#     Edge 42, Type (0, 1), None
#     Edge 43, Type (0, 1), None
#     Edge 44, Type (0, 1), None
#     Edge 45, Type (0, 1), None
#     Edge 46, Type (0, 1), None
#     Edge 47, Type (0, 1), None
#     Edge 48, Type (0, 1), None
#     Edge 49, Type (0, 1), None
#     Edge 50, Type (0, 1), None
#     Edge 51, Type (0, 1), None
#     Edge 52, Type (0, 1), None
#     Edge 53, Type (0, 1), None
#     Edge 54, Type (0, 1), None
#     Edge 55, Type (0, 1), None
#     Edge 56, Type (0, 1), None
#     Edge 57, Type (0, 1), None
#     Edge 58, Type (0, 1), None
#     Edge 59, Type (0, 1), None
#     Edge 60, Type (0, 1), None
#     Edge 61, Type (0, 1), None
#     Edge 62, Type (0, 1), None
#     Edge 63, Type (0, 1), None
#     Edge 64, Type (0, 1), None
#     Edge 65, Type (0, 1), None
#     Edge 66, Type (0, 1), None
#     Edge 67, Type (0, 1), None
#     Edge 68, Type (0, 1), None
#     Edge 69, Type (0, 1), None
#     Edge 70, Type (0, 1), None
#     Edge 71, Type (0, 1), None
#     Edge 72, Type (0, 1), None
#     Edge 73, Type (0, 1), None
#     Edge 74, Type (0, 1), None
#     Edge 75, Type (0, 1), None
# Relax obj value: 0.057
# Max RMSD: 0.155
# Mean RMSD: 0.091
data_MOF--net-ctn--node1-TATPOV_clean_sbu_0--node2-BETDAH_clean_linker_0--edge1-none
_symmetry_space_group_name_H-M    P1
_symmetry_Int_Tables_number       1
_symmetry_cell_setting            triclinic
loop_
_symmetry_equiv_pos_as_xyz
'x, y, z'
_cell_length_a     23.630781
_cell_length_b     24.030681
_cell_length_c     24.124484
_cell_angle_alpha  104.14221
_cell_angle_beta   92.266304
_cell_angle_gamma 97.860114
loop_
_atom_site_label
_atom_site_type_symbol
_atom_site_fract_x
_atom_site_fract_y
_atom_site_fract_z
_atom_type_partial_charge
H0 H 0.08198 0.96956 0.1546 0.0
H1 H 0.11396 0.97779 0.98158 0.0
H2 H 0.9723 0.04977 0.06059 0.0
C3 C 0.07215 -0.0158 0.11677 0.0
C4 C 0.02363 0.01273 0.11466 0.0
C5 C 0.10583 0.97138 0.06887 0.0
C6 C 0.09071 -0.01077 0.01953 0.0
C7 C 0.04357 0.01867 0.01693 0.0
C8 C 0.01048 0.03018 0.06439 0.0
N9 N 0.02187 0.02297 0.96248 0.0
C10 C 0.02282 0.07395 0.94412 0.0
H11 H 0.32924 0.61844 0.28868 0.0
H12 H 0.35694 0.755 0.19965 0.0
H13 H 0.20939 0.62499 0.15241 0.0
C14 C 0.31775 0.63764 0.25438 0.0
C15 C 0.26607 0.61502 0.22003 0.0
C16 C 0.3519 0.68808 0.24691 0.0
C17 C 0.33295 0.71506 0.20482 0.0
C18 C 0.28086 0.69246 0.17183 0.0
C19 C 0.24989 0.64141 0.17779 0.0
N20 N 0.25327 0.72255 0.13761 0.0
C21 C 0.27573 0.7736 0.12472 0.0
H22 H 0.0265 0.35283 0.04432 0.0
H23 H 0.02883 0.53304 0.12555 0.0
H24 H 0.96007 0.46476 0.95092 0.0
C25 C 0.0162 0.39489 0.04195 0.0
C26 C -0.00745 0.40262 -0.00896 0.0
C27 C 0.03004 0.4423 0.08918 0.0
C28 C 0.01891 0.49695 0.08777 0.0
C29 C -0.00789 0.5049 0.03908 0.0
C30 C 0.97887 0.45788 -0.01006 0.0
N31 N 0.97976 0.56101 0.04118 0.0
C32 C 0.93021 0.56917 0.01464 0.0
H33 H 0.84038 0.83401 0.14139 0.0
H34 H 0.71609 0.69591 0.16919 0.0
H35 H 0.75898 0.85034 0.30149 0.0
C36 C 0.80871 0.81811 0.16734 0.0
C37 C 0.80274 0.85141 0.22374 0.0
C38 C 0.7764 0.76167 0.14699 0.0
C39 C 0.73877 0.73997 0.1828 0.0
C40 C 0.73361 0.77178 0.23806 0.0
C41 C 0.76348 0.82763 0.25756 0.0
N42 N 0.70777 0.74309 0.27727 0.0
C43 C 0.65399 0.75138 0.29492 0.0
H44 H 0.09072 0.02907 0.38389 0.0
H45 H 0.16578 -0.00065 0.5367 0.0
H46 H 0.98523 0.94495 0.49149 0.0
C47 C 0.08591 0.01124 0.42093 0.0
C48 C 0.03165 -0.013 0.43255 0.0
C49 C 0.1337 0.01648 0.45879 0.0
C50 C 0.12839 -0.00497 0.50752 0.0
C51 C 0.07577 0.96738 0.519 0.0
C52 C 0.02673 0.96377 0.4816 0.0
N53 N 0.0744 0.94902 0.5711 0.0
C54 C 0.03711 0.90396 0.58311 0.0
H55 H 0.34822 0.692 0.90959 0.0
H56 H 0.20941 0.75715 0.83526 0.0
H57 H 0.27832 0.608 0.73939 0.0
C58 C 0.31846 0.69054 0.87365 0.0
C59 C 0.31951 0.64688 0.82358 0.0
C60 C 0.28029 0.73183 0.87838 0.0
C61 C 0.23948 0.72653 0.83224 0.0
C62 C 0.23902 0.68157 0.78167 0.0
C63 C 0.2798 0.64312 0.77766 0.0
N64 N 0.19824 0.67115 0.73369 0.0
C65 C 0.15464 0.70209 0.72328 0.0
H66 H 0.86959 0.5701 0.54055 0.0
H67 H 0.03144 0.63348 0.48629 0.0
H68 H 0.97075 0.45146 0.44093 0.0
C69 C 0.90529 0.562 0.51432 0.0
C70 C 0.91334 0.50515 0.48911 0.0
C71 C 0.94812 0.60787 0.51259 0.0
C72 C -0.00288 0.59793 0.4844 0.0
C73 C 0.00509 0.54204 0.4586 0.0
C74 C 0.96258 0.49535 0.45886 0.0
N75 N 0.06068 0.53339 0.44399 0.0
C76 C 0.07179 0.51478 0.38771 0.0
H77 H 0.88899 0.68833 0.78489 0.0
H78 H 0.77295 0.77658 0.7075 0.0
H79 H 0.71694 0.69304 0.83685 0.0
C80 C 0.84777 0.70265 0.78141 0.0
C81 C 0.80425 0.68808 0.81596 0.0
C82 C 0.83686 0.73577 0.74227 0.0
C83 C 0.78243 0.752 0.73795 0.0
C84 C 0.73984 0.73638 0.77239 0.0
C85 C 0.75074 0.70461 0.81063 0.0
N86 N 0.68577 0.75371 0.77089 0.0
C87 C 0.67812 0.80071 0.75053 0.0
H88 H 0.3902 0.1861 0.28392 0.0
H89 H 0.27487 0.27465 0.20581 0.0
H90 H 0.21872 0.19304 0.33652 0.0
C91 C 0.34921 0.20092 0.28061 0.0
C92 C 0.30588 0.18725 0.31573 0.0
C93 C 0.33842 0.23363 0.24097 0.0
C94 C 0.2843 0.2505 0.23667 0.0
C95 C 0.24182 0.23537 0.2713 0.0
C96 C 0.25265 0.20429 0.31029 0.0
N97 N 0.18707 0.25059 0.26797 0.0
C98 C 0.17668 0.29586 0.24596 0.0
H99 H 0.53016 0.85199 0.54872 0.0
H100 H 0.52645 0.03031 0.63384 0.0
H101 H 0.45839 0.96391 0.45879 0.0
C102 C 0.51813 0.8937 0.54758 0.0
C103 C 0.49323 0.90188 0.49718 0.0
C104 C 0.53092 0.94046 0.59578 0.0
C105 C 0.51714 -0.00534 0.59562 0.0
C106 C 0.48958 0.00299 0.54732 0.0
C107 C 0.47776 0.95676 0.49742 0.0
N108 N 0.4755 0.05881 0.55045 0.0
C109 C 0.42858 0.06718 0.51959 0.0
H110 H 0.34053 0.3343 0.64141 0.0
H111 H 0.21681 0.1956 0.66884 0.0
H112 H 0.25909 0.34991 0.8014 0.0
C113 C 0.30885 0.31825 0.66725 0.0
C114 C 0.30267 0.35145 0.72366 0.0
C115 C 0.27672 0.26172 0.64676 0.0
C116 C 0.23919 0.23979 0.68249 0.0
C117 C 0.23402 0.27139 0.73784 0.0
C118 C 0.26357 0.32737 0.75741 0.0
N119 N 0.20893 0.24232 0.77712 0.0
C120 C 0.15476 0.24929 0.79433 0.0
H121 H 0.82913 0.11981 0.78973 0.0
H122 H 0.85467 0.25391 0.6972 0.0
H123 H 0.70836 0.12218 0.65271 0.0
C124 C 0.81708 0.13819 0.75499 0.0
C125 C 0.76509 0.11509 0.72157 0.0
C126 C 0.85091 0.18799 0.74589 0.0
C127 C 0.8311 0.2142 0.70336 0.0
C128 C 0.77896 0.19041 0.67074 0.0
C129 C 0.74869 0.1397 0.67811 0.0
N130 N 0.75032 0.21829 0.63503 0.0
C131 C 0.76952 0.26938 0.62043 0.0
H132 H 0.58112 0.46795 0.65507 0.0
H133 H 0.61367 0.47632 0.48214 0.0
H134 H 0.47307 0.55018 0.56158 0.0
C135 C 0.57151 0.48268 0.61724 0.0
C136 C 0.52346 0.51189 0.61525 0.0
C137 C 0.60512 0.46956 0.56933 0.0
C138 C 0.59031 0.48768 0.52003 0.0
C139 C 0.54373 0.51796 0.51768 0.0
C140 C 0.51073 0.52975 0.56515 0.0
N141 N 0.52286 0.52422 0.4637 0.0
C142 C 0.52703 0.57626 0.4469 0.0
H143 H 0.59041 0.53042 0.88523 0.0
H144 H 0.66589 0.49898 0.037 0.0
H145 H 0.48585 0.44195 -0.00981 0.0
C146 C 0.58578 0.5119 0.92184 0.0
C147 C 0.5318 0.48632 0.93269 0.0
C148 C 0.63351 0.51729 0.95979 0.0
C149 C 0.62848 0.49475 0.00788 0.0
C150 C 0.57615 0.46571 0.01848 0.0
C151 C 0.52714 0.46194 0.981 0.0
N152 N 0.57506 0.44563 0.06962 0.0
C153 C 0.5378 0.39998 0.08063 0.0
H154 H 0.85207 0.19326 0.40698 0.0
H155 H 0.71068 0.25866 0.33798 0.0
H156 H 0.77298 0.10583 0.24096 0.0
C157 C 0.82081 0.1915 0.37217 0.0
C158 C 0.81917 0.1467 0.32258 0.0
C159 C 0.783 0.23319 0.37799 0.0
C160 C 0.74054 0.22772 0.33372 0.0
C161 C 0.73722 0.18164 0.28385 0.0
C162 C 0.77699 0.14209 0.27851 0.0
N163 N 0.69293 0.17088 0.23921 0.0
C164 C 0.65794 0.20961 0.22764 0.0
H165 H 0.40789 0.06043 0.07327 0.0
H166 H 0.50513 0.13339 0.95435 0.0
H167 H 0.4269 0.95488 0.9049 0.0
C168 C 0.42588 0.05515 0.03192 0.0
C169 C 0.41379 0.0023 -0.00896 0.0
C170 C 0.45973 0.10175 0.01873 0.0
C171 C 0.48138 0.0961 0.9653 0.0
C172 C 0.46937 0.04362 0.92439 0.0
C173 C 0.43618 -0.00408 0.93706 0.0
N174 N 0.48585 0.04177 0.86891 0.0
C175 C 0.5306 0.01373 0.84829 0.0
Zn176 Zn 0.39161 0.83626 0.02303 0.0
Zn177 Zn 0.26191 0.88629 0.01984 0.0
O178 O 0.27279 0.85751 0.09237 0.0
O179 O 0.3292 0.79417 0.05559 0.0
O180 O 0.18845 0.92966 0.02833 0.0
O181 O 0.41306 0.91611 0.0169 0.0
O182 O 0.32858 0.9456 0.00718 0.0
C183 C 0.29715 0.81366 0.09347 0.0
C184 C 0.2894 0.78131 0.93053 0.0
O185 O 0.2521 0.81477 0.94748 0.0
O186 O 0.33824 0.78931 0.95744 0.0
C187 C 0.15421 0.93633 0.06885 0.0
O188 O 0.16131 0.91119 0.11071 0.0
C189 C 0.38313 0.95251 0.00669 0.0
Zn190 Zn 0.0536 0.38963 0.23192 0.0
Zn191 Zn 0.15496 0.46635 0.23421 0.0
O192 O 0.12245 0.50639 0.30637 0.0
O193 O 0.04932 0.43901 0.3092 0.0
O194 O 0.22806 0.51968 0.22727 0.0
O195 O 0.10033 0.32862 0.21577 0.0
O196 O 0.17956 0.39188 0.24379 0.0
C197 C 0.08044 0.48698 0.33096 0.0
C198 C 0.05149 0.43386 0.14195 0.0
O199 O 0.10209 0.45724 0.16268 0.0
O200 O 0.01794 0.40472 0.16706 0.0
C201 C 0.22162 0.57238 0.23379 0.0
O202 O 0.17013 0.58639 0.24126 0.0
C203 C 0.15308 0.34019 0.22985 0.0
Zn204 Zn 0.79487 0.54999 0.89232 0.0
Zn205 Zn 0.78613 0.65055 0.98182 0.0
O206 O 0.85658 0.62118 0.00546 0.0
O207 O 0.85922 0.53803 0.94137 0.0
O208 O 0.78167 0.72552 0.04479 0.0
O209 O 0.81416 0.60118 0.83938 0.0
O210 O 0.79635 0.67502 0.90804 0.0
C211 C 0.87934 0.57612 0.98628 0.0
C212 C 0.6891 0.54563 0.94839 0.0
O213 O 0.71245 0.59369 0.98202 0.0
O214 O 0.71337 0.52106 0.9052 0.0
C215 C 0.78822 0.71845 0.09503 0.0
O216 O 0.79459 0.66641 0.10007 0.0
C217 C 0.8105 0.65442 0.8575 0.0
Zn218 Zn 0.87689 0.00061 0.35643 0.0
Zn219 Zn 0.93501 0.00837 0.27201 0.0
O220 O 0.88542 0.07944 0.2843 0.0
O221 O 0.84547 0.07457 0.36448 0.0
O222 O -0.00413 0.01587 0.21174 0.0
O223 O 0.93226 -0.0105 0.41581 0.0
O224 O 0.98588 -0.00092 0.34509 0.0
C225 C 0.85263 0.09867 0.3237 0.0
C226 C 0.8399 0.90732 0.25299 0.0
O227 O 0.88102 0.93125 0.23003 0.0
O228 O 0.83154 0.92981 0.30462 0.0
C229 C 0.98195 0.01794 0.16062 0.0
O230 O 0.92805 0.02003 0.14696 0.0
C231 C 0.98075 -0.00917 0.39569 0.0
Zn232 Zn 0.29639 0.04914 0.39302 0.0
Zn233 Zn 0.28641 0.14963 0.48178 0.0
O234 O 0.35632 0.11993 0.50701 0.0
O235 O 0.36025 0.03696 0.44328 0.0
O236 O 0.28118 0.22461 0.54457 0.0
O237 O 0.31602 0.10041 0.33978 0.0
O238 O 0.2973 0.17418 0.40793 0.0
C239 C 0.37938 0.07488 0.48868 0.0
C240 C 0.18943 0.04472 0.44752 0.0
O241 O 0.21248 0.09291 0.48111 0.0
O242 O 0.21434 0.01986 0.40491 0.0
C243 C 0.28907 0.2185 0.59504 0.0
O244 O 0.29687 0.16704 0.60073 0.0
C245 C 0.31182 0.15359 0.35753 0.0
Zn246 Zn 0.37685 0.50039 0.85705 0.0
Zn247 Zn 0.43507 0.50812 0.77261 0.0
O248 O 0.38543 0.57923 0.78499 0.0
O249 O 0.34696 0.57547 0.86611 0.0
O250 O 0.4958 0.51532 0.71233 0.0
O251 O 0.43228 0.48786 0.9157 0.0
O252 O 0.48605 0.49883 0.84548 0.0
C253 C 0.35355 0.59922 0.825 0.0
C254 C 0.33961 0.40747 0.75306 0.0
O255 O 0.38132 0.43099 0.73054 0.0
O256 O 0.3307 0.43025 0.80449 0.0
C257 C 0.48196 0.51779 0.66133 0.0
O258 O 0.42825 0.52086 0.64791 0.0
C259 C 0.48085 0.48988 0.89579 0.0
Zn260 Zn 0.88774 0.33876 0.52185 0.0
Zn261 Zn 0.76297 0.38731 0.52084 0.0
O262 O 0.77213 0.35669 0.59322 0.0
O263 O 0.83919 0.30103 0.56966 0.0
O264 O 0.68749 0.42747 0.52871 0.0
O265 O 0.90867 0.41888 0.51635 0.0
O266 O 0.8258 0.45085 0.50734 0.0
C267 C 0.79755 0.31436 0.59805 0.0
C268 C 0.79346 0.28285 0.42944 0.0
O269 O 0.75587 0.31539 0.4486 0.0
O270 O 0.84324 0.29091 0.454 0.0
C271 C 0.65377 0.43488 0.56967 0.0
O272 O 0.66236 0.41191 0.61285 0.0
C273 C 0.8802 0.45627 0.50564 0.0
Zn274 Zn 0.56595 0.88552 0.73568 0.0
Zn275 Zn 0.65739 0.96749 0.73915 0.0
O276 O 0.60999 0.00899 0.79725 0.0
O277 O 0.56912 0.93017 0.81911 0.0
O278 O 0.73023 0.02192 0.7358 0.0
O279 O 0.62155 0.83717 0.69669 0.0
O280 O 0.68176 0.89862 0.76092 0.0
C281 C 0.57664 -0.01524 0.82708 0.0
C282 C 0.55589 0.93251 0.64792 0.0
O283 O 0.60907 0.9509 0.66262 0.0
O284 O 0.52298 0.91064 0.67948 0.0
C285 C 0.72114 0.07269 0.73614 0.0
O286 O 0.66817 0.08363 0.73773 0.0
C287 C 0.66539 0.84765 0.73041 0.0
Zn288 Zn -0.00191 0.30424 0.82416 0.0
Zn289 Zn -0.00279 0.2247 0.88088 0.0
O290 O 0.07562 0.22919 0.84551 0.0
O291 O 0.07317 0.29224 0.79275 0.0
O292 O -0.00146 0.16163 0.92708 0.0
O293 O -0.0059 0.36927 0.89125 0.0
O294 O -0.00967 0.30281 0.94058 0.0
C295 C 0.0988 0.25713 0.81156 0.0
C296 C 0.90375 0.21665 0.78314 0.0
O297 O 0.92597 0.1938 0.81993 0.0
O298 O 0.92654 0.26569 0.77818 0.0
C299 C 0.03084 0.1223 0.91748 0.0
O300 O 0.06588 0.12032 0.87641 0.0
C301 C -0.0101 0.35558 0.93832 0.0
Zn302 Zn 0.49764 0.80745 0.32755 0.0
Zn303 Zn 0.49742 0.72542 0.38285 0.0
O304 O 0.57529 0.7303 0.34631 0.0
O305 O 0.57311 0.79599 0.29649 0.0
O306 O 0.50022 0.66275 0.42903 0.0
O307 O 0.49323 0.87073 0.39676 0.0
O308 O 0.49133 0.80282 0.44416 0.0
C309 C 0.59847 0.75958 0.31342 0.0
C310 C 0.40405 0.71701 0.28535 0.0
O311 O 0.42603 0.69397 0.32208 0.0
O312 O 0.42652 0.76654 0.28128 0.0
C313 C 0.53072 0.62205 0.41682 0.0
O314 O 0.56103 0.61743 0.37195 0.0
C315 C 0.49044 0.85588 0.44341 0.0
Zn316 Zn 0.90876 0.76946 0.59367 0.0
Zn317 Zn 0.00032 0.75276 0.66046 0.0
O318 O 0.02592 0.8282 0.63122 0.0
O319 O 0.9519 0.84137 0.57912 0.0
O320 O 0.06692 0.73753 0.7118 0.0
O321 O 0.86075 0.76482 0.65856 0.0
O322 O 0.93161 0.7461 0.70992 0.0
C323 C 0.0034 0.85622 0.5992 0.0
C324 C 0.94804 0.6644 0.54988 0.0
O325 O 0.98495 0.68221 0.59283 0.0
O326 O 0.91088 0.69417 0.53955 0.0
C327 C 0.11612 0.73002 0.69425 0.0
O328 O 0.12661 0.73463 0.64247 0.0
C329 C 0.87894 0.75053 0.70241 0.0
Zn330 Zn 0.41255 0.26333 0.09104 0.0
Zn331 Zn 0.50301 0.25115 0.16224 0.0
O332 O 0.52712 0.325 0.12973 0.0
O333 O 0.45323 0.3361 0.07609 0.0
O334 O 0.56858 0.23994 0.21529 0.0
O335 O 0.36235 0.25809 0.15492 0.0
O336 O 0.4334 0.24502 0.21008 0.0
C337 C 0.50445 0.35207 0.09684 0.0
C338 C 0.4605 0.159 0.05466 0.0
O339 O 0.49384 0.17694 0.09994 0.0
O340 O 0.42453 0.18856 0.04105 0.0
C341 C 0.61919 0.23778 0.19973 0.0
O342 O 0.63103 0.24685 0.14973 0.0
C343 C 0.38045 0.24705 0.20063 0.0
loop_
_geom_bond_atom_site_label_1
_geom_bond_atom_site_label_2
_geom_bond_distance
_geom_bond_site_symmetry_2
_ccdc_geom_bond_type
H0 C3 0.929 . S
H1 C6 0.929 1_556 S
H2 C8 0.930 1_655 S
C3 H0 0.929 . S
C3 C4 1.398 1_565 S
C3 C5 1.396 . S
C4 C3 1.398 1_545 S
C4 C8 1.407 . S
C5 C3 1.396 . S
C5 C6 1.394 1_565 S
C6 H1 0.929 1_554 S
C6 C5 1.394 1_545 S
C6 C7 1.382 . S
C7 C6 1.382 . S
C7 C8 1.392 . S
C7 N9 1.425 . S
C8 H2 0.930 1_455 S
C8 C4 1.407 . S
C8 C7 1.392 . S
N9 C7 1.425 . S
N9 C10 1.240 1_554 S
C10 N9 1.240 1_556 S
H11 C14 0.929 . S
H12 C17 0.929 . S
H13 C19 0.930 . S
C14 H11 0.929 . S
C14 C15 1.398 . S
C14 C16 1.396 . S
C15 C14 1.398 . S
C15 C19 1.407 . S
C16 C14 1.396 . S
C16 C17 1.394 . S
C17 H12 0.929 . S
C17 C16 1.394 . S
C17 C18 1.382 . S
C18 C17 1.382 . S
C18 C19 1.392 . S
C18 N20 1.420 . S
C19 H13 0.930 . S
C19 C15 1.407 . S
C19 C18 1.392 . S
N20 C18 1.420 . S
N20 C21 1.244 . S
C21 N20 1.244 . S
H22 C25 0.929 . S
H23 C28 0.929 . S
H24 C30 0.930 . S
C25 H22 0.929 . S
C25 C26 1.398 . S
C25 C27 1.396 . S
C26 C25 1.398 . S
C26 C30 1.407 1_454 S
C27 C25 1.396 . S
C27 C28 1.394 1_455 S
C28 H23 0.929 . S
C28 C27 1.394 1_655 S
C28 C29 1.382 . S
C29 C28 1.382 . S
C29 C30 1.392 1_554 S
C29 N31 1.420 . S
C30 H24 0.930 . S
C30 C26 1.407 1_656 S
C30 C29 1.392 1_556 S
N31 C29 1.420 . S
N31 C32 1.244 . S
C32 N31 1.244 . S
H33 C36 0.929 . S
H34 C39 0.929 . S
H35 C41 0.930 . S
C36 H33 0.929 . S
C36 C37 1.398 . S
C36 C38 1.396 . S
C37 C36 1.398 . S
C37 C41 1.407 . S
C38 C36 1.396 . S
C38 C39 1.394 . S
C39 H34 0.929 . S
C39 C38 1.394 . S
C39 C40 1.382 . S
C40 C39 1.382 . S
C40 C41 1.392 . S
C40 N42 1.420 . S
C41 H35 0.930 . S
C41 C37 1.407 . S
C41 C40 1.392 . S
N42 C40 1.420 . S
N42 C43 1.244 . S
C43 N42 1.244 . S
H44 C47 0.929 . S
H45 C50 0.929 . S
H46 C52 0.930 1_655 S
C47 H44 0.929 . S
C47 C48 1.398 1_545 S
C47 C49 1.396 . S
C48 C47 1.398 1_565 S
C48 C52 1.407 . S
C49 C47 1.396 . S
C49 C50 1.394 1_545 S
C50 H45 0.929 . S
C50 C49 1.394 1_565 S
C50 C51 1.382 . S
C51 C50 1.382 . S
C51 C52 1.392 . S
C51 N53 1.420 . S
C52 H46 0.930 1_455 S
C52 C48 1.407 . S
C52 C51 1.392 . S
N53 C51 1.420 . S
N53 C54 1.244 . S
C54 N53 1.244 . S
H55 C58 0.929 . S
H56 C61 0.929 . S
H57 C63 0.930 . S
C58 H55 0.929 . S
C58 C59 1.398 . S
C58 C60 1.396 . S
C59 C58 1.398 . S
C59 C63 1.407 . S
C60 C58 1.396 . S
C60 C61 1.394 . S
C61 H56 0.929 . S
C61 C60 1.394 . S
C61 C62 1.382 . S
C62 C61 1.382 . S
C62 C63 1.392 . S
C62 N64 1.420 . S
C63 H57 0.930 . S
C63 C59 1.407 . S
C63 C62 1.392 . S
N64 C62 1.420 . S
N64 C65 1.244 . S
C65 N64 1.244 . S
H66 C69 0.929 . S
H67 C72 0.929 . S
H68 C74 0.930 . S
C69 H66 0.929 . S
C69 C70 1.398 . S
C69 C71 1.396 . S
C70 C69 1.398 . S
C70 C74 1.407 . S
C71 C69 1.396 . S
C71 C72 1.394 1_655 S
C72 H67 0.929 . S
C72 C71 1.394 1_455 S
C72 C73 1.382 1_455 S
C73 C72 1.382 1_655 S
C73 C74 1.392 . S
C73 N75 1.420 1_655 S
C74 H68 0.930 . S
C74 C70 1.407 . S
C74 C73 1.392 . S
N75 C73 1.420 1_455 S
N75 C76 1.244 . S
C76 N75 1.244 . S
H77 C80 0.929 . S
H78 C83 0.929 . S
H79 C85 0.930 . S
C80 H77 0.929 . S
C80 C81 1.398 . S
C80 C82 1.396 . S
C81 C80 1.398 . S
C81 C85 1.407 . S
C82 C80 1.396 . S
C82 C83 1.394 . S
C83 H78 0.929 . S
C83 C82 1.394 . S
C83 C84 1.382 . S
C84 C83 1.382 . S
C84 C85 1.392 . S
C84 N86 1.420 . S
C85 H79 0.930 . S
C85 C81 1.407 . S
C85 C84 1.392 . S
N86 C84 1.420 . S
N86 C87 1.244 . S
C87 N86 1.244 . S
H88 C91 0.929 . S
H89 C94 0.929 . S
H90 C96 0.930 . S
C91 H88 0.929 . S
C91 C92 1.398 . S
C91 C93 1.396 . S
C92 C91 1.398 . S
C92 C96 1.407 . S
C93 C91 1.396 . S
C93 C94 1.394 . S
C94 H89 0.929 . S
C94 C93 1.394 . S
C94 C95 1.382 . S
C95 C94 1.382 . S
C95 C96 1.392 . S
C95 N97 1.420 . S
C96 H90 0.930 . S
C96 C92 1.407 . S
C96 C95 1.392 . S
N97 C95 1.420 . S
N97 C98 1.244 . S
C98 N97 1.244 . S
H99 C102 0.929 . S
H100 C105 0.938 . S
H101 C107 0.930 . S
C102 H99 0.929 . S
C102 C103 1.398 . S
C102 C104 1.396 . S
C103 C102 1.398 . S
C103 C107 1.407 . S
C104 C102 1.396 . S
C104 C105 1.385 1_565 S
C105 H100 0.938 . S
C105 C104 1.385 1_545 S
C105 C106 1.382 1_545 S
C106 C105 1.382 1_565 S
C106 C107 1.392 . S
C106 N108 1.420 1_565 S
C107 H101 0.930 . S
C107 C103 1.407 . S
C107 C106 1.392 . S
N108 C106 1.420 1_545 S
N108 C109 1.244 . S
C109 N108 1.244 . S
H110 C113 0.929 . S
H111 C116 0.929 . S
H112 C118 0.930 . S
C113 H110 0.929 . S
C113 C114 1.398 . S
C113 C115 1.396 . S
C114 C113 1.398 . S
C114 C118 1.407 . S
C115 C113 1.396 . S
C115 C116 1.394 . S
C116 H111 0.929 . S
C116 C115 1.394 . S
C116 C117 1.382 . S
C117 C116 1.382 . S
C117 C118 1.392 . S
C117 N119 1.420 . S
C118 H112 0.930 . S
C118 C114 1.407 . S
C118 C117 1.392 . S
N119 C117 1.420 . S
N119 C120 1.244 . S
C120 N119 1.244 . S
H121 C124 0.929 . S
H122 C127 0.929 . S
H123 C129 0.930 . S
C124 H121 0.929 . S
C124 C125 1.398 . S
C124 C126 1.396 . S
C125 C124 1.398 . S
C125 C129 1.407 . S
C126 C124 1.396 . S
C126 C127 1.394 . S
C127 H122 0.929 . S
C127 C126 1.394 . S
C127 C128 1.382 . S
C128 C127 1.382 . S
C128 C129 1.392 . S
C128 N130 1.420 . S
C129 H123 0.930 . S
C129 C125 1.407 . S
C129 C128 1.392 . S
N130 C128 1.420 . S
N130 C131 1.244 . S
C131 N130 1.244 . S
H132 C135 0.929 . S
H133 C138 0.929 . S
H134 C140 0.930 . S
C135 H132 0.929 . S
C135 C136 1.398 . S
C135 C137 1.396 . S
C136 C135 1.398 . S
C136 C140 1.407 . S
C137 C135 1.396 . S
C137 C138 1.394 . S
C138 H133 0.929 . S
C138 C137 1.394 . S
C138 C139 1.382 . S
C139 C138 1.382 . S
C139 C140 1.392 . S
C139 N141 1.420 . S
C140 H134 0.930 . S
C140 C136 1.407 . S
C140 C139 1.392 . S
N141 C139 1.420 . S
N141 C142 1.244 . S
C142 N141 1.244 . S
H143 C146 0.929 . S
H144 C149 0.929 . S
H145 C151 0.930 . S
C146 H143 0.929 . S
C146 C147 1.398 . S
C146 C148 1.396 . S
C147 C146 1.398 . S
C147 C151 1.407 . S
C148 C146 1.396 . S
C148 C149 1.394 1_556 S
C149 H144 0.929 . S
C149 C148 1.394 1_554 S
C149 C150 1.383 . S
C150 C149 1.383 . S
C150 C151 1.380 1_554 S
C150 N152 1.431 . S
C151 H145 0.930 . S
C151 C147 1.407 . S
C151 C150 1.380 1_556 S
N152 C150 1.431 . S
N152 C153 1.244 . S
C153 N152 1.244 . S
H154 C157 0.929 . S
H155 C160 0.929 . S
H156 C162 0.930 . S
C157 H154 0.929 . S
C157 C158 1.398 . S
C157 C159 1.396 . S
C158 C157 1.398 . S
C158 C162 1.407 . S
C159 C157 1.396 . S
C159 C160 1.394 . S
C160 H155 0.929 . S
C160 C159 1.394 . S
C160 C161 1.382 . S
C161 C160 1.382 . S
C161 C162 1.392 . S
C161 N163 1.420 . S
C162 H156 0.930 . S
C162 C158 1.407 . S
C162 C161 1.392 . S
N163 C161 1.420 . S
N163 C164 1.244 . S
C164 N163 1.244 . S
H165 C168 0.929 . S
H166 C171 0.929 . S
H167 C173 0.930 1_565 S
C168 H165 0.929 . S
C168 C169 1.398 1_554 S
C168 C170 1.396 . S
C169 C168 1.398 1_556 S
C169 C173 1.407 . S
C170 C168 1.396 . S
C170 C171 1.394 1_554 S
C171 H166 0.929 . S
C171 C170 1.394 1_556 S
C171 C172 1.382 . S
C172 C171 1.382 . S
C172 C173 1.392 . S
C172 N174 1.420 . S
C173 H167 0.930 1_545 S
C173 C169 1.407 . S
C173 C172 1.392 . S
N174 C172 1.420 . S
N174 C175 1.244 . S
C175 N174 1.244 . S
Zn176 O179 2.031 . S
Zn176 O181 2.050 . S
Zn176 O186 2.067 1_554 S
Zn177 O178 1.962 . S
Zn177 O180 1.986 . S
Zn177 O182 1.996 . S
Zn177 O185 1.943 1_554 S
O178 Zn177 1.962 . S
O178 C183 1.254 . S
O179 Zn176 2.031 . S
O179 C183 1.269 . S
O180 Zn177 1.986 . S
O180 C187 1.262 . S
O181 Zn176 2.050 . S
O181 C189 1.261 . S
O182 Zn177 1.996 . S
O182 C189 1.257 . S
C183 O178 1.254 . S
C183 O179 1.269 . S
C184 O185 1.249 . S
C184 O186 1.270 . S
O185 Zn177 1.943 1_556 S
O185 C184 1.249 . S
O186 Zn176 2.067 1_556 S
O186 C184 1.270 . S
C187 O180 1.262 . S
C187 O188 1.232 . S
O188 C187 1.232 . S
C189 O181 1.261 . S
C189 O182 1.257 . S
Zn190 O193 2.031 . S
Zn190 O195 2.049 . S
Zn190 O200 2.067 . S
Zn191 O192 1.962 . S
Zn191 O194 1.986 . S
Zn191 O196 1.996 . S
Zn191 O199 1.943 . S
O192 Zn191 1.962 . S
O192 C197 1.254 . S
O193 Zn190 2.031 . S
O193 C197 1.269 . S
O194 Zn191 1.986 . S
O194 C201 1.262 . S
O195 Zn190 2.049 . S
O195 C203 1.260 . S
O196 Zn191 1.996 . S
O196 C203 1.257 . S
C197 O192 1.254 . S
C197 O193 1.269 . S
C198 O199 1.249 . S
C198 O200 1.270 . S
O199 Zn191 1.943 . S
O199 C198 1.249 . S
O200 Zn190 2.067 . S
O200 C198 1.270 . S
C201 O194 1.262 . S
C201 O202 1.232 . S
O202 C201 1.232 . S
C203 O195 1.260 . S
C203 O196 1.257 . S
Zn204 O207 2.031 . S
Zn204 O209 2.049 . S
Zn204 O214 2.067 . S
Zn205 O206 1.962 . S
Zn205 O208 1.986 . S
Zn205 O210 1.996 1_554 S
Zn205 O213 1.943 . S
O206 Zn205 1.962 . S
O206 C211 1.254 . S
O207 Zn204 2.031 . S
O207 C211 1.269 1_556 S
O208 Zn205 1.986 . S
O208 C215 1.262 . S
O209 Zn204 2.049 . S
O209 C217 1.260 . S
O210 Zn205 1.996 1_556 S
O210 C217 1.257 . S
C211 O206 1.254 . S
C211 O207 1.269 1_554 S
C212 O213 1.249 1_556 S
C212 O214 1.270 . S
O213 Zn205 1.943 . S
O213 C212 1.249 1_554 S
O214 Zn204 2.067 . S
O214 C212 1.270 . S
C215 O208 1.262 . S
C215 O216 1.232 . S
O216 C215 1.232 . S
C217 O209 1.260 . S
C217 O210 1.257 . S
Zn218 O221 2.031 . S
Zn218 O223 2.039 1_545 S
Zn218 O228 2.067 1_545 S
Zn219 O220 1.962 . S
Zn219 O222 1.986 1_655 S
Zn219 O224 1.996 . S
Zn219 O227 1.943 1_545 S
O220 Zn219 1.962 . S
O220 C225 1.254 . S
O221 Zn218 2.031 . S
O221 C225 1.269 . S
O222 Zn219 1.986 1_455 S
O222 C229 1.262 . S
O223 Zn218 2.039 1_565 S
O223 C231 1.254 1_665 S
O224 Zn219 1.996 . S
O224 C231 1.257 1_655 S
C225 O220 1.254 . S
C225 O221 1.269 . S
C226 O227 1.249 . S
C226 O228 1.270 . S
O227 Zn219 1.943 1_565 S
O227 C226 1.249 . S
O228 Zn218 2.067 1_565 S
O228 C226 1.270 . S
C229 O222 1.262 . S
C229 O230 1.232 1_455 S
O230 C229 1.232 1_655 S
C231 O223 1.254 1_445 S
C231 O224 1.257 1_455 S
Zn232 O235 2.031 . S
Zn232 O237 2.049 . S
Zn232 O242 2.067 . S
Zn233 O234 1.962 . S
Zn233 O236 1.986 . S
Zn233 O238 1.996 . S
Zn233 O241 1.943 . S
O234 Zn233 1.962 . S
O234 C239 1.254 . S
O235 Zn232 2.031 . S
O235 C239 1.269 . S
O236 Zn233 1.986 . S
O236 C243 1.262 . S
O237 Zn232 2.049 . S
O237 C245 1.260 . S
O238 Zn233 1.996 . S
O238 C245 1.257 . S
C239 O234 1.254 . S
C239 O235 1.269 . S
C240 O241 1.249 . S
C240 O242 1.270 . S
O241 Zn233 1.943 . S
O241 C240 1.249 . S
O242 Zn232 2.067 . S
O242 C240 1.270 . S
C243 O236 1.262 . S
C243 O244 1.232 . S
O244 C243 1.232 . S
C245 O237 1.260 . S
C245 O238 1.257 . S
Zn246 O249 2.031 . S
Zn246 O251 2.049 . S
Zn246 O256 2.067 . S
Zn247 O248 1.962 . S
Zn247 O250 1.986 . S
Zn247 O252 1.996 . S
Zn247 O255 1.943 . S
O248 Zn247 1.962 . S
O248 C253 1.254 . S
O249 Zn246 2.031 . S
O249 C253 1.269 . S
O250 Zn247 1.986 . S
O250 C257 1.262 . S
O251 Zn246 2.049 . S
O251 C259 1.260 . S
O252 Zn247 1.996 . S
O252 C259 1.257 . S
C253 O248 1.254 . S
C253 O249 1.269 . S
C254 O255 1.249 . S
C254 O256 1.270 . S
O255 Zn247 1.943 . S
O255 C254 1.249 . S
O256 Zn246 2.067 . S
O256 C254 1.270 . S
C257 O250 1.262 . S
C257 O258 1.232 . S
O258 C257 1.232 . S
C259 O251 1.260 . S
C259 O252 1.257 . S
Zn260 O263 2.031 . S
Zn260 O265 2.049 . S
Zn260 O270 2.067 . S
Zn261 O262 1.962 . S
Zn261 O264 1.986 . S
Zn261 O266 1.996 . S
Zn261 O269 1.943 . S
O262 Zn261 1.962 . S
O262 C267 1.254 . S
O263 Zn260 2.031 . S
O263 C267 1.269 . S
O264 Zn261 1.986 . S
O264 C271 1.262 . S
O265 Zn260 2.049 . S
O265 C273 1.260 . S
O266 Zn261 1.996 . S
O266 C273 1.257 . S
C267 O262 1.254 . S
C267 O263 1.269 . S
C268 O269 1.249 . S
C268 O270 1.270 . S
O269 Zn261 1.943 . S
O269 C268 1.249 . S
O270 Zn260 2.067 . S
O270 C268 1.270 . S
C271 O264 1.262 . S
C271 O272 1.232 . S
O272 C271 1.232 . S
C273 O265 1.260 . S
C273 O266 1.257 . S
Zn274 O277 2.031 . S
Zn274 O279 2.049 . S
Zn274 O284 2.067 . S
Zn275 O276 1.962 . S
Zn275 O278 1.986 . S
Zn275 O280 1.996 1_545 S
Zn275 O283 1.943 1_545 S
O276 Zn275 1.962 . S
O276 C281 1.254 . S
O277 Zn274 2.031 . S
O277 C281 1.269 1_565 S
O278 Zn275 1.986 . S
O278 C285 1.262 . S
O279 Zn274 2.049 . S
O279 C287 1.260 . S
O280 Zn275 1.996 1_565 S
O280 C287 1.257 . S
C281 O276 1.254 . S
C281 O277 1.269 1_545 S
C282 O283 1.249 . S
C282 O284 1.270 . S
O283 Zn275 1.943 1_565 S
O283 C282 1.249 . S
O284 Zn274 2.067 . S
O284 C282 1.270 . S
C285 O278 1.262 . S
C285 O286 1.232 . S
O286 C285 1.232 . S
C287 O279 1.260 . S
C287 O280 1.257 . S
Zn288 O291 2.031 . S
Zn288 O293 2.049 1_455 S
Zn288 O298 2.067 1_455 S
Zn289 O290 1.962 . S
Zn289 O292 1.986 . S
Zn289 O294 1.996 . S
Zn289 O297 1.943 1_455 S
O290 Zn289 1.962 . S
O290 C295 1.254 . S
O291 Zn288 2.031 . S
O291 C295 1.269 . S
O292 Zn289 1.986 . S
O292 C299 1.262 . S
O293 Zn288 2.049 1_655 S
O293 C301 1.261 . S
O294 Zn289 1.996 . S
O294 C301 1.255 1_455 S
C295 O290 1.254 . S
C295 O291 1.269 . S
C296 O297 1.249 . S
C296 O298 1.270 . S
O297 Zn289 1.943 1_655 S
O297 C296 1.249 . S
O298 Zn288 2.067 1_655 S
O298 C296 1.270 . S
C299 O292 1.262 . S
C299 O300 1.232 . S
O300 C299 1.232 . S
C301 O293 1.261 . S
C301 O294 1.255 1_655 S
Zn302 O305 2.031 . S
Zn302 O307 2.049 . S
Zn302 O312 2.067 . S
Zn303 O304 1.962 . S
Zn303 O306 1.986 . S
Zn303 O308 1.996 . S
Zn303 O311 1.943 . S
O304 Zn303 1.962 . S
O304 C309 1.254 . S
O305 Zn302 2.031 . S
O305 C309 1.269 . S
O306 Zn303 1.986 . S
O306 C313 1.262 . S
O307 Zn302 2.049 . S
O307 C315 1.260 . S
O308 Zn303 1.996 . S
O308 C315 1.257 . S
C309 O304 1.254 . S
C309 O305 1.269 . S
C310 O311 1.249 . S
C310 O312 1.270 . S
O311 Zn303 1.943 . S
O311 C310 1.249 . S
O312 Zn302 2.067 . S
O312 C310 1.270 . S
C313 O306 1.262 . S
C313 O314 1.232 . S
O314 C313 1.232 . S
C315 O307 1.260 . S
C315 O308 1.257 . S
Zn316 O319 2.031 . S
Zn316 O321 2.049 . S
Zn316 O326 2.067 . S
Zn317 O318 1.962 . S
Zn317 O320 1.986 . S
Zn317 O322 1.996 1_455 S
Zn317 O325 1.943 . S
O318 Zn317 1.962 . S
O318 C323 1.254 . S
O319 Zn316 2.031 . S
O319 C323 1.269 1_655 S
O320 Zn317 1.986 . S
O320 C327 1.262 . S
O321 Zn316 2.049 . S
O321 C329 1.260 . S
O322 Zn317 1.996 1_655 S
O322 C329 1.257 . S
C323 O318 1.254 . S
C323 O319 1.269 1_455 S
C324 O325 1.249 1_655 S
C324 O326 1.270 . S
O325 Zn317 1.943 . S
O325 C324 1.249 1_455 S
O326 Zn316 2.067 . S
O326 C324 1.270 . S
C327 O320 1.262 . S
C327 O328 1.232 . S
O328 C327 1.232 . S
C329 O321 1.260 . S
C329 O322 1.257 . S
Zn330 O333 2.031 . S
Zn330 O335 2.049 . S
Zn330 O340 2.067 . S
Zn331 O332 1.962 . S
Zn331 O334 1.986 . S
Zn331 O336 1.996 . S
Zn331 O339 1.943 . S
O332 Zn331 1.962 . S
O332 C337 1.254 . S
O333 Zn330 2.031 . S
O333 C337 1.269 . S
O334 Zn331 1.986 . S
O334 C341 1.262 . S
O335 Zn330 2.049 . S
O335 C343 1.260 . S
O336 Zn331 1.996 . S
O336 C343 1.257 . S
C337 O332 1.254 . S
C337 O333 1.269 . S
C338 O339 1.249 . S
C338 O340 1.270 . S
O339 Zn331 1.943 . S
O339 C338 1.249 . S
O340 Zn330 2.067 . S
O340 C338 1.270 . S
C341 O334 1.262 . S
C341 O342 1.232 . S
O342 C341 1.232 . S
C343 O335 1.260 . S
C343 O336 1.257 . S
C184 C60 1.727 . S
C197 C76 1.397 . S
C81 C217 1.728 . S
C231 C48 1.438 1_545 S
C243 C115 1.531 . S
C257 C136 1.773 . S
C131 C267 1.323 . S
C282 C104 1.605 . S
C126 C296 1.418 . S
C315 C103 1.372 . S
C120 C295 1.337 . S
C313 C142 1.403 . S
C82 C329 1.804 . S
C54 C323 1.820 . S
C65 C327 1.423 . S
C71 C324 1.249 . S
C37 C226 1.713 . S
C158 C225 1.942 . S
C189 C169 1.524 1_564 S
C203 C98 1.314 . S
C49 C240 1.846 . S
C285 C125 1.504 . S
C239 C109 1.597 . S
C271 C137 1.781 . S
C268 C159 1.726 . S
C175 C281 1.397 . S
C92 C245 1.728 . S
C259 C147 1.438 . S
C38 C215 1.531 . S
C229 C4 1.773 . S
C183 C21 1.323 . S
C198 C27 1.605 . S
C16 C310 1.418 . S
C26 C301 1.372 1_454 S
C43 C309 1.338 . S
C10 C299 1.403 . S
C343 C93 1.804 . S
C337 C153 1.820 . S
C341 C164 1.423 . S
C170 C338 1.249 . S
C114 C254 1.713 . S
C253 C59 1.943 . S
C273 C70 1.524 . S
C287 C87 1.313 . S
C148 C212 1.846 . S
C201 C15 1.504 . S
C32 C211 1.596 . S
C187 C5 1.780 . S
