# Generated by pormake.
# Topology anh, (6,3)-cn, num edge types: 1
# Building blocks:
#     Node 0, Type 0, BuildingBlock: CUKXOW_clean_sbu_0, # of connection points: 6
#     Node 1, Type 0, BuildingBlock: CUKXOW_clean_sbu_0, # of connection points: 6
#     Node 2, Type 0, BuildingBlock: CUKXOW_clean_sbu_0, # of connection points: 6
#     Node 3, Type 1, BuildingBlock: KAKCAD_clean_linker_0, # of connection points: 3
#     Node 4, Type 1, BuildingBlock: KAKCAD_clean_linker_0, # of connection points: 3
#     Node 5, Type 1, BuildingBlock: KAKCAD_clean_linker_0, # of connection points: 3
#     Node 6, Type 1, BuildingBlock: KAKCAD_clean_linker_0, # of connection points: 3
#     Node 7, Type 1, BuildingBlock: KAKCAD_clean_linker_0, # of connection points: 3
#     Node 8, Type 1, BuildingBlock: KAKCAD_clean_linker_0, # of connection points: 3
#     Edge 9, Type (0, 1), BuildingBlock: UVAHIK_clean_linker_0, # of connection points: 2
#     Edge 10, Type (0, 1), BuildingBlock: UVAHIK_clean_linker_0, # of connection points: 2
#     Edge 11, Type (0, 1), BuildingBlock: UVAHIK_clean_linker_0, # of connection points: 2
#     Edge 12, Type (0, 1), BuildingBlock: UVAHIK_clean_linker_0, # of connection points: 2
#     Edge 13, Type (0, 1), BuildingBlock: UVAHIK_clean_linker_0, # of connection points: 2
#     Edge 14, Type (0, 1), BuildingBlock: UVAHIK_clean_linker_0, # of connection points: 2
#     Edge 15, Type (0, 1), BuildingBlock: UVAHIK_clean_linker_0, # of connection points: 2
#     Edge 16, Type (0, 1), BuildingBlock: UVAHIK_clean_linker_0, # of connection points: 2
#     Edge 17, Type (0, 1), BuildingBlock: UVAHIK_clean_linker_0, # of connection points: 2
#     Edge 18, Type (0, 1), BuildingBlock: UVAHIK_clean_linker_0, # of connection points: 2
#     Edge 19, Type (0, 1), BuildingBlock: UVAHIK_clean_linker_0, # of connection points: 2
#     Edge 20, Type (0, 1), BuildingBlock: UVAHIK_clean_linker_0, # of connection points: 2
#     Edge 21, Type (0, 1), BuildingBlock: UVAHIK_clean_linker_0, # of connection points: 2
#     Edge 22, Type (0, 1), BuildingBlock: UVAHIK_clean_linker_0, # of connection points: 2
#     Edge 23, Type (0, 1), BuildingBlock: UVAHIK_clean_linker_0, # of connection points: 2
#     Edge 24, Type (0, 1), BuildingBlock: UVAHIK_clean_linker_0, # of connection points: 2
#     Edge 25, Type (0, 1), BuildingBlock: UVAHIK_clean_linker_0, # of connection points: 2
#     Edge 26, Type (0, 1), BuildingBlock: UVAHIK_clean_linker_0, # of connection points: 2
# Relax obj value: 0.132
# Max RMSD: 0.194
# Mean RMSD: 0.138
data_MOF--net-anh--node1-CUKXOW_clean_sbu_0--node2-KAKCAD_clean_linker_0--edge1-UVAHIK_clean_linker_0
_symmetry_space_group_name_H-M    P1
_symmetry_Int_Tables_number       1
_symmetry_cell_setting            triclinic
loop_
_symmetry_equiv_pos_as_xyz
'x, y, z'
_cell_length_a     44.061444
_cell_length_b     43.003396
_cell_length_c     80.694557
_cell_angle_alpha  95.762448
_cell_angle_beta   89.978392
_cell_angle_gamma 116.34641
loop_
_atom_site_label
_atom_site_type_symbol
_atom_site_fract_x
_atom_site_fract_y
_atom_site_fract_z
_atom_type_partial_charge
Tb0 Tb 0.06949 0.51696 0.15409 0.0
C1 C 0.0461 0.48535 0.18826 0.0
Tb2 Tb 0.01884 0.4377 0.15379 0.0
O3 O 0.02954 0.52495 0.14164 0.0
O4 O 0.01678 0.48641 0.15757 0.0
O5 O 0.06894 0.51116 0.18064 0.0
C6 C 0.95987 0.3809 0.15374 0.0
O7 O 0.02237 0.45614 0.18019 0.0
C8 C 0.08289 0.44726 0.15359 0.0
C9 C 0.04856 0.46847 0.12027 0.0
O10 O 0.98594 0.38914 0.16382 0.0
O11 O 0.96722 0.40439 0.14347 0.0
O12 O 0.05671 0.41668 0.15259 0.0
O13 O 0.07104 0.46913 0.15451 0.0
O14 O 0.02235 0.4445 0.12721 0.0
O15 O 0.07257 0.49659 0.12885 0.0
C16 C 0.12184 0.58037 0.1571 0.0
O17 O 0.09169 0.57312 0.16217 0.0
O18 O 0.12248 0.55195 0.15044 0.0
C19 C 1.0046 0.49922 0.1476 0.0
Tb20 Tb 0.49755 0.00754 0.50825 0.0
C21 C 0.52881 0.03461 0.47471 0.0
Tb22 Tb 0.56934 0.06663 0.51013 0.0
O23 O 0.47744 0.04327 0.50173 0.0
O24 O 0.52138 0.06147 0.51709 0.0
O25 O 0.505 0.00826 0.48162 0.0
C26 C 0.62131 0.12912 0.50815 0.0
O27 O 0.55467 0.06059 0.48359 0.0
C28 C 0.56551 0.0039 0.50871 0.0
C29 C 0.53865 0.03807 0.54328 0.0
O30 O 0.58972 0.12093 0.50497 0.0
O31 O 0.62386 0.102 0.51236 0.0
O32 O 0.5911 0.03172 0.51568 0.0
O33 O 0.54574 0.01272 0.50141 0.0
O34 O 0.56017 0.06615 0.53659 0.0
O35 O 0.51443 0.01082 0.53421 0.0
C36 C 0.44188 0.94779 0.51012 0.0
O37 O 0.443 0.97856 0.51128 0.0
O38 O 0.47207 0.95061 0.50786 0.0
C39 C 0.5023 0.07066 0.50947 0.0
Tb40 Tb 0.51941 0.51948 0.83309 0.0
C41 C 0.5582 0.52483 0.8662 0.0
Tb42 Tb 0.59226 0.53143 0.83107 0.0
O43 O 0.50351 0.46765 0.84098 0.0
O44 O 0.54419 0.48846 0.82535 0.0
O45 O 0.53306 0.52931 0.85956 0.0
C46 C 0.65207 0.53046 0.83078 0.0
O47 O 0.58174 0.52088 0.8571 0.0
C48 C 0.58243 0.58706 0.83039 0.0
C49 C 0.55354 0.52589 0.7979 0.0
O50 O 0.64661 0.55618 0.83735 0.0
O51 O 0.62372 0.50493 0.82477 0.0
O52 O 0.60635 0.5828 0.8227 0.0
O53 O 0.56732 0.56211 0.83889 0.0
O54 O 0.57917 0.52241 0.80455 0.0
O55 O 0.52948 0.52841 0.80699 0.0
C56 C 0.46335 0.52727 0.82983 0.0
O57 O 0.46579 0.49862 0.82553 0.0
O58 O 0.4921 0.55107 0.83647 0.0
C59 C 0.52801 0.46338 0.83375 0.0
C60 C 0.53397 0.06665 0.28873 0.0
C61 C 0.52615 0.03596 0.29619 0.0
C62 C 0.53325 0.06593 0.27136 0.0
C63 C 0.52466 0.03452 0.26111 0.0
C64 C 0.51755 0.00402 0.26858 0.0
C65 C 0.51827 0.00473 0.28591 0.0
C66 C 0.52218 0.03321 0.24268 0.0
C67 C 0.54693 0.05926 0.23427 0.0
C68 C 0.54477 0.05782 0.21676 0.0
C69 C 0.51705 0.02996 0.20774 0.0
C70 C 0.49264 0.00341 0.21599 0.0
C71 C 0.49521 0.00535 0.2334 0.0
C72 C 0.46519 0.97252 0.20653 0.0
C73 C 0.44296 0.97606 0.19526 0.0
C74 C 0.46048 0.93901 0.2093 0.0
C75 C 0.43369 0.90947 0.20115 0.0
C76 C 0.4108 0.91284 0.19022 0.0
C77 C 0.57252 0.08423 0.20795 0.0
C78 C 0.58945 0.11924 0.21498 0.0
C79 C 0.58354 0.07427 0.19287 0.0
C80 C 0.61135 0.09844 0.1853 0.0
C81 C 0.62918 0.1331 0.19271 0.0
C82 C 0.61754 0.14328 0.20753 0.0
C83 C 0.4157 0.94638 0.18727 0.0
H84 H 0.53983 0.09106 0.29631 0.0
H85 H 0.53855 0.08979 0.26597 0.0
H86 H 0.5115 0.97954 0.26102 0.0
H87 H 0.51282 0.9808 0.29126 0.0
H88 H 0.5686 0.07989 0.24138 0.0
H89 H 0.47587 0.98511 0.23974 0.0
H90 H 0.51481 0.02835 0.19428 0.0
H91 H 0.44613 0.00172 0.19299 0.0
H92 H 0.47744 0.93569 0.21788 0.0
H93 H 0.43028 0.88394 0.20379 0.0
H94 H 0.58135 0.12804 0.22643 0.0
H95 H 0.57142 0.0475 0.18714 0.0
H96 H 0.39839 0.9496 0.17887 0.0
H97 H 0.63074 0.16959 0.21375 0.0
H98 H 0.61915 0.08974 0.17373 0.0
C99 C 0.52339 0.56758 0.61392 0.0
C100 C 0.54552 0.55807 0.62228 0.0
C101 C 0.52182 0.56543 0.59649 0.0
C102 C 0.54237 0.55377 0.58705 0.0
C103 C 0.56495 0.545 0.59545 0.0
C104 C 0.56637 0.54692 0.6128 0.0
C105 C 0.54016 0.55011 0.56851 0.0
C106 C 0.53718 0.57535 0.55983 0.0
C107 C 0.53706 0.57271 0.54232 0.0
C108 C 0.53999 0.54434 0.53339 0.0
C109 C 0.54254 0.51855 0.54195 0.0
C110 C 0.54207 0.52154 0.55944 0.0
C111 C 0.54574 0.48814 0.53312 0.0
C112 C 0.52422 0.46797 0.51929 0.0
C113 C 0.56831 0.47701 0.53972 0.0
C114 C 0.56773 0.44533 0.53349 0.0
C115 C 0.54494 0.42396 0.52025 0.0
C116 C 0.53549 0.60089 0.53374 0.0
C117 C 0.50962 0.61095 0.5371 0.0
C118 C 0.56172 0.62038 0.5237 0.0
C119 C 0.563 0.65051 0.51786 0.0
C120 C 0.53772 0.66128 0.52171 0.0
C121 C 0.51056 0.64067 0.53102 0.0
C122 C 0.52384 0.43619 0.5129 0.0
H123 H 0.50726 0.57667 0.62084 0.0
H124 H 0.50405 0.57225 0.59041 0.0
H125 H 0.5816 0.53651 0.5886 0.0
H126 H 0.58338 0.53893 0.61875 0.0
H127 H 0.53623 0.59787 0.56671 0.0
H128 H 0.54288 0.50119 0.56606 0.0
H129 H 0.54049 0.54252 0.51991 0.0
H130 H 0.50656 0.47587 0.51392 0.0
H131 H 0.58563 0.49225 0.55021 0.0
H132 H 0.58413 0.43693 0.5397 0.0
H133 H 0.48917 0.59635 0.54486 0.0
H134 H 0.5821 0.6133 0.52107 0.0
H135 H 0.50639 0.42084 0.50249 0.0
H136 H 0.49088 0.64846 0.53429 0.0
H137 H 0.58413 0.66585 0.51063 0.0
C138 C 0.11623 0.56762 0.94675 0.0
C139 C 0.08702 0.53842 0.95064 0.0
C140 C 0.11829 0.57988 0.9312 0.0
C141 C 0.09101 0.5634 0.91935 0.0
C142 C 0.06213 0.53372 0.9231 0.0
C143 C 0.06021 0.52125 0.93858 0.0
C144 C 0.09218 0.57768 0.9033 0.0
C145 C 0.1205 0.58604 0.89344 0.0
C146 C 0.12082 0.5981 0.87784 0.0
C147 C 0.09324 0.60321 0.87259 0.0
C148 C 0.06447 0.59388 0.882 0.0
C149 C 0.06413 0.58143 0.89741 0.0
C150 C 0.0334 0.59232 0.87432 0.0
C151 C 0.03489 0.61959 0.86559 0.0
C152 C 1.00315 0.56127 0.87363 0.0
C153 C 0.97539 0.55689 0.86371 0.0
C154 C 0.97738 0.58351 0.85436 0.0
C155 C 0.14774 0.60152 0.86609 0.0
C156 C 0.18173 0.61468 0.87177 0.0
C157 C 0.13909 0.58999 0.84903 0.0
C158 C 0.16364 0.59094 0.83798 0.0
C159 C 0.19735 0.60273 0.84375 0.0
C160 C 0.20629 0.61517 0.86072 0.0
C161 C 1.00704 0.61525 0.8557 0.0
H162 H 0.13739 0.58113 0.95579 0.0
H163 H 0.14081 0.60281 0.9286 0.0
H164 H 0.04091 0.52026 0.91409 0.0
H165 H 0.03734 0.49882 0.94129 0.0
H166 H 0.14131 0.58122 0.89753 0.0
H167 H 0.04184 0.57428 0.90473 0.0
H168 H 0.09323 0.61242 0.86057 0.0
H169 H 0.05799 0.6438 0.86597 0.0
H170 H 1.00147 0.53968 0.88007 0.0
H171 H 0.9525 0.53245 0.86317 0.0
H172 H 0.18925 0.62402 0.8848 0.0
H173 H 0.11306 0.579 0.84421 0.0
H174 H 0.0091 0.63623 0.84867 0.0
H175 H 0.23198 0.62394 0.86563 0.0
H176 H 0.15598 0.58149 0.82497 0.0
C177 C 0.99189 0.52902 0.37312 0.0
C178 C 0.01725 0.52157 0.36587 0.0
C179 C 0.99023 0.53283 0.39047 0.0
C180 C 0.01439 0.53007 0.40077 0.0
C181 C 0.0398 0.52278 0.3935 0.0
C182 C 0.04101 0.51821 0.37619 0.0
C183 C 0.01352 0.53519 0.41909 0.0
C184 C 0.98466 0.51419 0.42724 0.0
C185 C 0.98444 0.51781 0.44475 0.0
C186 C 0.01322 0.54354 0.45399 0.0
C187 C 0.04226 0.56475 0.44596 0.0
C188 C 0.04219 0.5603 0.42849 0.0
C189 C 0.07296 0.59105 0.45578 0.0
C190 C 0.07031 0.61253 0.46946 0.0
C191 C 0.10526 0.59511 0.45137 0.0
C192 C 0.13431 0.62056 0.46021 0.0
C193 C 0.13175 0.6425 0.4737 0.0
C194 C 0.95509 0.49325 0.45338 0.0
C195 C 0.92172 0.48209 0.44709 0.0
C196 C 0.96041 0.47948 0.46758 0.0
C197 C 0.9331 0.45451 0.47505 0.0
C198 C 0.89982 0.44249 0.46844 0.0
C199 C 0.89438 0.45695 0.45452 0.0
C200 C 0.09942 0.63802 0.47832 0.0
H201 H 0.97326 0.5316 0.36536 0.0
H202 H 0.97049 0.53854 0.39586 0.0
H203 H 0.05859 0.52041 0.40125 0.0
H204 H 0.06087 0.51265 0.37084 0.0
H205 H 0.96302 0.49398 0.41992 0.0
H206 H 0.06433 0.5767 0.42211 0.0
H207 H 0.01329 0.54662 0.46749 0.0
H208 H 0.04576 0.61014 0.47309 0.0
H209 H 0.10811 0.57863 0.44104 0.0
H210 H 0.15883 0.6236 0.45618 0.0
H211 H 0.91673 0.49249 0.43629 0.0
H212 H 0.98578 0.48715 0.47265 0.0
H213 H 0.09661 0.65433 0.48874 0.0
H214 H 0.8691 0.44806 0.44901 0.0
H215 H 0.93813 0.44428 0.48589 0.0
C216 C 0.53357 0.99873 0.728 0.0
C217 C 0.55972 0.02548 0.72048 0.0
C218 C 0.53446 0.99802 0.74526 0.0
C219 C 0.56129 0.02425 0.75539 0.0
C220 C 0.58759 0.05078 0.74794 0.0
C221 C 0.58693 0.05128 0.73067 0.0
C222 C 0.56141 0.02453 0.77375 0.0
C223 C 0.55532 0.99431 0.78108 0.0
C224 C 0.55498 0.99424 0.79851 0.0
C225 C 0.56098 0.02529 0.80867 0.0
C226 C 0.56721 0.05594 0.80142 0.0
C227 C 0.56727 0.0551 0.78396 0.0
C228 C 0.57236 0.08888 0.81159 0.0
C229 C 0.55067 0.08884 0.82436 0.0
C230 C 0.5966 0.12107 0.80712 0.0
C231 C 0.59726 0.15233 0.81418 0.0
C232 C 0.57406 0.15241 0.82615 0.0
C233 C 0.54925 0.96164 0.8057 0.0
C234 C 0.52507 0.92918 0.79797 0.0
C235 C 0.57004 0.9622 0.81907 0.0
C236 C 0.5682 0.93092 0.82381 0.0
C237 C 0.54572 0.8987 0.81516 0.0
C238 C 0.52349 0.89812 0.80256 0.0
C239 C 0.55157 0.1203 0.8316 0.0
H240 H 0.51195 0.97874 0.72061 0.0
H241 H 0.5137 0.97748 0.75075 0.0
H242 H 0.60877 0.07107 0.75547 0.0
H243 H 0.60787 0.07184 0.72531 0.0
H244 H 0.55168 0.97094 0.77311 0.0
H245 H 0.57087 0.07812 0.77819 0.0
H246 H 0.56075 0.02558 0.82211 0.0
H247 H 0.53174 0.06446 0.8281 0.0
H248 H 0.6141 0.12203 0.79752 0.0
H249 H 0.6148 0.17621 0.80946 0.0
H250 H 0.50812 0.92781 0.78789 0.0
H251 H 0.58899 0.98676 0.82524 0.0
H252 H 0.53383 0.1193 0.84106 0.0
H253 H 0.50553 0.87358 0.7959 0.0
H254 H 0.58563 0.93201 0.83357 0.0
C255 C 0.56641 0.48022 0.05015 0.0
C256 C 0.55332 0.50078 0.04322 0.0
C257 C 0.56471 0.47653 0.06717 0.0
C258 C 0.55064 0.494 0.07791 0.0
C259 C 0.53782 0.51484 0.07103 0.0
C260 C 0.53884 0.5179 0.05391 0.0
C261 C 0.5494 0.49036 0.09615 0.0
C262 C 0.57533 0.48663 0.10445 0.0
C263 C 0.57403 0.48121 0.12138 0.0
C264 C 0.54647 0.48131 0.13048 0.0
C265 C 0.5205 0.48619 0.1224 0.0
C266 C 0.52219 0.49007 0.10527 0.0
C267 C 0.49073 0.48701 0.13105 0.0
C268 C 0.46739 0.45816 0.13851 0.0
C269 C 0.48246 0.51461 0.12923 0.0
C270 C 0.45113 0.51277 0.13392 0.0
C271 C 0.42682 0.48316 0.14057 0.0
C272 C 0.60212 0.47529 0.12864 0.0
C273 C 0.61194 0.45167 0.11967 0.0
C274 C 0.62293 0.49684 0.14247 0.0
C275 C 0.65395 0.49636 0.14643 0.0
C276 C 0.66482 0.47461 0.13652 0.0
C277 C 0.64285 0.45153 0.12345 0.0
C278 C 0.43578 0.45621 0.14317 0.0
H279 H 0.57833 0.46705 0.0425 0.0
H280 H 0.57427 0.45967 0.07184 0.0
H281 H 0.52719 0.52912 0.07885 0.0
H282 H 0.52793 0.53352 0.04911 0.0
H283 H 0.59714 0.48821 0.09769 0.0
H284 H 0.50156 0.4921 0.09894 0.0
H285 H 0.54521 0.47759 0.14358 0.0
H286 H 0.47278 0.43629 0.1399 0.0
H287 H 0.49977 0.53711 0.12341 0.0
H288 H 0.44539 0.53395 0.1315 0.0
H289 H 0.59644 0.43449 0.10903 0.0
H290 H 0.61632 0.51554 0.14954 0.0
H291 H 0.41807 0.43319 0.14848 0.0
H292 H 0.65015 0.43407 0.11575 0.0
H293 H 0.67031 0.51442 0.1566 0.0
C294 C 0.1464 0.48642 0.15642 0.0
C295 C 0.11888 0.45333 0.1524 0.0
C296 C 0.18004 0.49081 0.15575 0.0
C297 C 0.23053 0.43968 0.15542 0.0
H298 H 0.30193 0.52187 0.13978 0.0
C299 C 0.36282 0.44766 0.14024 0.0
C300 C 0.39185 0.47989 0.14379 0.0
C301 C 0.33008 0.44511 0.14204 0.0
C302 C 0.28245 0.49888 0.14439 0.0
H303 H 0.10527 0.39898 0.14444 0.0
H304 H 0.16323 0.40652 0.14301 0.0
H305 H 0.24458 0.51675 0.14135 0.0
H306 H 0.40847 0.53455 0.15267 0.0
H307 H 0.35168 0.53009 0.15577 0.0
H308 H 0.26825 0.42169 0.15837 0.0
C309 C 0.15924 0.42918 0.14696 0.0
C310 C 0.24939 0.49595 0.14529 0.0
C311 C 0.12582 0.42486 0.14766 0.0
C312 C 0.38694 0.50934 0.14951 0.0
C313 C 0.35419 0.5068 0.15127 0.0
C314 C 0.2635 0.44258 0.15449 0.0
C315 C 0.187 0.46214 0.15112 0.0
C316 C 0.22277 0.46615 0.1507 0.0
C317 C 0.32517 0.4747 0.14744 0.0
C318 C 0.29002 0.47211 0.14885 0.0
H319 H 0.14196 0.50871 0.16048 0.0
H320 H 0.20056 0.51655 0.15925 0.0
H321 H 0.21112 0.41664 0.16002 0.0
H322 H 0.36527 0.42444 0.13553 0.0
H323 H 0.30853 0.41998 0.13873 0.0
C324 C 0.64291 0.19143 0.50335 0.0
C325 C 0.64957 0.16364 0.50676 0.0
C326 C 0.66952 0.22395 0.50134 0.0
C327 C 0.76235 0.27742 0.5089 0.0
H328 H 0.75225 0.32413 0.47209 0.0
C329 C 0.87511 0.38514 0.48034 0.0
C330 C 0.87114 0.41368 0.47547 0.0
C331 C 0.84778 0.357 0.48606 0.0
C332 C 0.75528 0.31171 0.48258 0.0
H333 H 0.68897 0.14787 0.51108 0.0
H334 H 0.73565 0.20455 0.50722 0.0
H335 H 0.70504 0.27028 0.47852 0.0
H336 H 0.83556 0.43551 0.47336 0.0
H337 H 0.78763 0.38602 0.4832 0.0
H338 H 0.81299 0.31852 0.51262 0.0
C339 C 0.70993 0.20149 0.50636 0.0
C340 C 0.72822 0.28084 0.48628 0.0
C341 C 0.68326 0.16898 0.50846 0.0
C342 C 0.83932 0.41369 0.47677 0.0
C343 C 0.81192 0.38543 0.48243 0.0
C344 C 0.78948 0.30824 0.50514 0.0
C345 C 0.70334 0.22925 0.50261 0.0
C346 C 0.73154 0.26313 0.49937 0.0
C347 C 0.81581 0.35665 0.48698 0.0
C348 C 0.78632 0.32549 0.49183 0.0
H349 H 0.61708 0.188 0.50213 0.0
H350 H 0.66359 0.24493 0.49875 0.0
H351 H 0.76554 0.26473 0.51923 0.0
H352 H 0.89907 0.38396 0.47922 0.0
H353 H 0.85143 0.33496 0.48922 0.0
C354 C 0.55826 0.62665 0.84255 0.0
C355 C 0.57514 0.6172 0.82972 0.0
C356 C 0.55249 0.65606 0.84203 0.0
C357 C 0.54043 0.71027 0.81371 0.0
H358 H 0.57803 0.78681 0.84916 0.0
C359 C 0.55083 0.84491 0.80448 0.0
C360 C 0.54731 0.86595 0.81806 0.0
C361 C 0.55228 0.8139 0.80681 0.0
C362 C 0.56674 0.76549 0.83929 0.0
H363 H 0.59861 0.63031 0.80619 0.0
H364 H 0.58759 0.68109 0.80502 0.0
H365 H 0.58274 0.73291 0.85166 0.0
H366 H 0.54272 0.87126 0.84477 0.0
H367 H 0.54396 0.81614 0.84888 0.0
H368 H 0.52363 0.74192 0.80142 0.0
C369 C 0.57923 0.66605 0.81555 0.0
C370 C 0.56961 0.7347 0.84072 0.0
C371 C 0.58563 0.63716 0.81625 0.0
C372 C 0.54548 0.85546 0.8341 0.0
C373 C 0.54636 0.82397 0.83643 0.0
C374 C 0.53697 0.74068 0.8124 0.0
C375 C 0.56286 0.67592 0.82849 0.0
C376 C 0.55708 0.70715 0.82778 0.0
C377 C 0.54966 0.80267 0.82277 0.0
C378 C 0.55079 0.76911 0.82498 0.0
H379 H 0.55007 0.61168 0.85311 0.0
H380 H 0.53972 0.66315 0.85211 0.0
H381 H 0.5302 0.68916 0.80366 0.0
H382 H 0.55295 0.85276 0.79201 0.0
H383 H 0.55592 0.79899 0.79603 0.0
C384 C 0.94547 0.47553 0.15826 0.0
C385 C 0.96848 0.4928 0.14632 0.0
C386 C 0.91222 0.47221 0.15772 0.0
C387 C 0.84554 0.4702 0.12954 0.0
H388 H 0.81153 0.50139 0.16883 0.0
C389 C 0.72032 0.48233 0.12491 0.0
C390 C 0.69977 0.47746 0.13867 0.0
C391 C 0.75264 0.48378 0.12636 0.0
C392 C 0.82013 0.4919 0.15777 0.0
H393 H 0.97422 0.5191 0.12419 0.0
H394 H 0.91598 0.51221 0.12289 0.0
H395 H 0.86747 0.50271 0.17026 0.0
H396 H 0.69736 0.47053 0.16489 0.0
H397 H 0.75319 0.47151 0.1674 0.0
H398 H 0.79824 0.4581 0.11709 0.0
C399 C 0.92375 0.50168 0.13281 0.0
C400 C 0.85245 0.49285 0.15861 0.0
C401 C 0.95714 0.50568 0.13357 0.0
C402 C 0.71262 0.47446 0.15406 0.0
C403 C 0.74485 0.4752 0.15547 0.0
C404 C 0.81303 0.46857 0.12877 0.0
C405 C 0.90095 0.48533 0.145 0.0
C406 C 0.86577 0.48246 0.14444 0.0
C407 C 0.76542 0.47966 0.14158 0.0
C408 C 0.79982 0.47993 0.14278 0.0
H409 H 0.95342 0.46535 0.16827 0.0
H410 H 0.89525 0.45923 0.16722 0.0
H411 H 0.85479 0.46153 0.11845 0.0
H412 H 0.71142 0.48529 0.11292 0.0
H413 H 0.76763 0.48845 0.11544 0.0
C414 C 0.41278 0.88292 0.50924 0.0
C415 C 0.41097 0.91482 0.51048 0.0
C416 C 0.38317 0.85149 0.50862 0.0
C417 C 0.29088 0.81415 0.51585 0.0
H418 H 0.28525 0.74076 0.48206 0.0
C419 C 0.16501 0.70447 0.48639 0.0
C420 C 0.16288 0.67099 0.4823 0.0
C421 C 0.19543 0.73221 0.49287 0.0
C422 C 0.28657 0.76071 0.49177 0.0
H423 H 0.37723 0.93925 0.51244 0.0
H424 H 0.32548 0.88447 0.511 0.0
H425 H 0.33861 0.79318 0.48776 0.0
H426 H 0.19039 0.63991 0.48277 0.0
H427 H 0.24364 0.6885 0.49396 0.0
H428 H 0.23833 0.78198 0.51937 0.0
C429 C 0.34965 0.88356 0.51081 0.0
C430 C 0.3172 0.79078 0.49505 0.0
C431 C 0.37925 0.91494 0.5115 0.0
C432 C 0.19142 0.66555 0.4855 0.0
C433 C 0.22187 0.69332 0.49193 0.0
C434 C 0.26017 0.7841 0.5125 0.0
C435 C 0.35123 0.85144 0.50915 0.0
C436 C 0.31958 0.81812 0.50693 0.0
C437 C 0.22437 0.72707 0.49536 0.0
C438 C 0.25758 0.75732 0.50024 0.0
H439 H 0.43703 0.88222 0.50853 0.0
H440 H 0.38529 0.82723 0.50757 0.0
H441 H 0.29203 0.83448 0.52528 0.0
H442 H 0.14362 0.70964 0.48389 0.0
H443 H 0.19669 0.75802 0.4952 0.0
C444 C 0.55881 0.42818 0.82472 0.0
C445 C 0.53413 0.43241 0.83435 0.0
C446 C 0.56493 0.39912 0.82556 0.0
C447 C 0.54625 0.32418 0.85067 0.0
H448 H 0.57451 0.28732 0.81102 0.0
C449 C 0.53955 0.18478 0.83415 0.0
C450 C 0.57144 0.18538 0.83155 0.0
C451 C 0.53643 0.21589 0.8367 0.0
C452 C 0.56681 0.29755 0.82219 0.0
H453 H 0.49565 0.40904 0.85201 0.0
H454 H 0.50471 0.35734 0.85276 0.0
H455 H 0.56525 0.33894 0.81029 0.0
H456 H 0.62535 0.21973 0.83092 0.0
H457 H 0.61937 0.27378 0.8345 0.0
H458 H 0.5461 0.28105 0.8621 0.0
C459 C 0.52062 0.3771 0.84511 0.0
C460 C 0.56173 0.32733 0.82187 0.0
C461 C 0.51508 0.4066 0.84454 0.0
C462 C 0.60026 0.21804 0.83242 0.0
C463 C 0.59699 0.24905 0.83461 0.0
C464 C 0.5506 0.29387 0.85084 0.0
C465 C 0.54576 0.37295 0.83568 0.0
C466 C 0.55146 0.34123 0.83612 0.0
C467 C 0.565 0.24814 0.83645 0.0
C468 C 0.56103 0.28049 0.83661 0.0
H469 H 0.57322 0.44716 0.81642 0.0
H470 H 0.58486 0.39739 0.81827 0.0
H471 H 0.53901 0.33429 0.86202 0.0
H472 H 0.51666 0.16034 0.83334 0.0
H473 H 0.51148 0.2147 0.83801 0.0
C474 C 0.53632 0.94006 0.49823 0.0
C475 C 0.56229 0.96808 0.50805 0.0
C476 C 0.53305 0.9061 0.49809 0.0
C477 C 0.58114 0.85728 0.50474 0.0
H478 H 0.49547 0.78269 0.51507 0.0
C479 C 0.57132 0.72575 0.52107 0.0
C480 C 0.54091 0.69524 0.51725 0.0
C481 C 0.57363 0.75831 0.51835 0.0
C482 C 0.51944 0.80292 0.51181 0.0
H483 H 0.60585 0.98283 0.52495 0.0
H484 H 0.60075 0.92375 0.52432 0.0
H485 H 0.49987 0.84071 0.51298 0.0
H486 H 0.48941 0.67469 0.50703 0.0
H487 H 0.4937 0.73131 0.50159 0.0
H488 H 0.60076 0.81976 0.50319 0.0
C489 C 0.58265 0.92794 0.51693 0.0
C490 C 0.52193 0.83625 0.51071 0.0
C491 C 0.58551 0.96171 0.51732 0.0
C492 C 0.51311 0.69785 0.51019 0.0
C493 C 0.51555 0.73039 0.50721 0.0
C494 C 0.57854 0.82386 0.50555 0.0
C495 C 0.55626 0.89976 0.50742 0.0
C496 C 0.55294 0.86387 0.50743 0.0
C497 C 0.54571 0.7612 0.51149 0.0
C498 C 0.5478 0.79627 0.50939 0.0
H499 H 0.51867 0.94438 0.49059 0.0
H500 H 0.51269 0.88488 0.49051 0.0
H501 H 0.60526 0.87804 0.50197 0.0
H502 H 0.59299 0.72459 0.52678 0.0
H503 H 0.59707 0.7813 0.52216 0.0
C504 C 0.68889 0.50376 0.81973 0.0
C505 C 0.68563 0.5323 0.82806 0.0
C506 C 0.72093 0.50659 0.81609 0.0
C507 C 0.80974 0.57146 0.81263 0.0
H508 H 0.83224 0.50225 0.82907 0.0
C509 C 0.93667 0.60351 0.84369 0.0
C510 C 0.94832 0.57797 0.84335 0.0
C511 C 0.90652 0.59635 0.83505 0.0
C512 C 0.82635 0.52134 0.82392 0.0
H513 H 0.71272 0.586 0.83912 0.0
H514 H 0.76867 0.59084 0.83302 0.0
H515 H 0.77336 0.49145 0.82696 0.0
H516 H 0.93973 0.52636 0.83247 0.0
H517 H 0.88679 0.51375 0.81737 0.0
H518 H 0.86301 0.60222 0.8105 0.0
C519 C 0.74659 0.56652 0.82902 0.0
C520 C 0.79256 0.51516 0.82276 0.0
C521 C 0.71466 0.56361 0.83274 0.0
C522 C 0.93075 0.54616 0.83323 0.0
C523 C 0.90064 0.53902 0.82454 0.0
C524 C 0.84355 0.57761 0.81374 0.0
C525 C 0.75002 0.5381 0.82062 0.0
C526 C 0.7842 0.54093 0.81792 0.0
C527 C 0.8876 0.56356 0.82588 0.0
C528 C 0.85226 0.55337 0.82021 0.0
H529 H 0.66671 0.4794 0.8159 0.0
H530 H 0.72299 0.48429 0.80966 0.0
H531 H 0.80375 0.5914 0.80851 0.0
H532 H 0.94973 0.6282 0.85143 0.0
H533 H 0.89692 0.61564 0.83653 0.0
C534 C 0.14712 0.64483 0.16509 0.0
C535 C 0.1509 0.61527 0.15863 0.0
C536 C 0.17494 0.67786 0.16665 0.0
C537 C 0.26773 0.71988 0.17105 0.0
H538 H 0.2611 0.80168 0.15881 0.0
C539 C 0.38512 0.85221 0.17555 0.0
C540 C 0.38107 0.88116 0.18272 0.0
C541 C 0.35687 0.82066 0.1705 0.0
C542 C 0.26328 0.77913 0.16241 0.0
H543 H 0.18633 0.59683 0.14855 0.0
H544 H 0.23497 0.65447 0.15132 0.0
H545 H 0.21167 0.74456 0.1545 0.0
H546 H 0.34446 0.90039 0.18966 0.0
H547 H 0.29492 0.84505 0.18113 0.0
H548 H 0.31886 0.75418 0.17934 0.0
C549 C 0.21063 0.65217 0.15527 0.0
C550 C 0.23499 0.74646 0.15993 0.0
C551 C 0.1828 0.61923 0.15363 0.0
C552 C 0.34825 0.8785 0.18404 0.0
C553 C 0.3199 0.8468 0.17914 0.0
C554 C 0.29587 0.75247 0.17361 0.0
C555 C 0.20704 0.68181 0.16187 0.0
C556 C 0.23697 0.71651 0.16423 0.0
C557 C 0.3239 0.81726 0.1727 0.0
C558 C 0.29404 0.78253 0.16933 0.0
H559 H 0.12272 0.6424 0.16901 0.0
H560 H 0.17151 0.70019 0.17193 0.0
H561 H 0.26985 0.69737 0.17476 0.0
H562 H 0.41021 0.85376 0.17419 0.0
H563 H 0.36087 0.7987 0.1652 0.0
C564 C 0.53311 0.1344 0.51953 0.0
C565 C 0.50661 0.10683 0.50984 0.0
C566 C 0.53794 0.16877 0.51935 0.0
C567 C 0.51104 0.22422 0.49579 0.0
H568 H 0.55007 0.28995 0.53538 0.0
C569 C 0.50968 0.35981 0.51076 0.0
C570 C 0.54166 0.38813 0.51522 0.0
C571 C 0.50599 0.32557 0.50833 0.0
C572 C 0.53931 0.27186 0.52422 0.0
H573 H 0.46331 0.09326 0.49297 0.0
H574 H 0.47021 0.15274 0.49344 0.0
H575 H 0.5413 0.22999 0.5355 0.0
H576 H 0.59518 0.40232 0.51933 0.0
H577 H 0.58821 0.34249 0.51589 0.0
H578 H 0.5076 0.26631 0.48497 0.0
C579 C 0.4885 0.14837 0.50056 0.0
C580 C 0.53448 0.23746 0.52419 0.0
C581 C 0.48424 0.1141 0.50042 0.0
C582 C 0.57 0.38128 0.51639 0.0
C583 C 0.56614 0.34705 0.51431 0.0
C584 C 0.51517 0.25849 0.49599 0.0
C585 C 0.51563 0.17634 0.5099 0.0
C586 C 0.52046 0.21309 0.50994 0.0
C587 C 0.53404 0.31889 0.51057 0.0
C588 C 0.52956 0.28261 0.51016 0.0
H589 H 0.55036 0.12948 0.52719 0.0
H590 H 0.55948 0.18936 0.52652 0.0
H591 H 0.50081 0.20667 0.48444 0.0
H592 H 0.48716 0.36379 0.50993 0.0
H593 H 0.48093 0.30417 0.5055 0.0
C594 C 0.4362 0.56682 0.82947 0.0
C595 C 0.4345 0.53359 0.82546 0.0
C596 C 0.40965 0.57362 0.82456 0.0
C597 C 0.3189 0.52932 0.81522 0.0
H598 H 0.33409 0.62071 0.80417 0.0
C599 C 0.2125 0.56779 0.82158 0.0
C600 C 0.22226 0.59852 0.83257 0.0
C601 C 0.23685 0.56046 0.81344 0.0
C602 C 0.32943 0.59495 0.80706 0.0
H603 H 0.40447 0.48158 0.81294 0.0
H604 H 0.3577 0.49339 0.8044 0.0
H605 H 0.38119 0.60524 0.80407 0.0
H606 H 0.2647 0.6474 0.84217 0.0
H607 H 0.30737 0.63396 0.82855 0.0
H608 H 0.26785 0.51959 0.81921 0.0
C609 C 0.37946 0.5141 0.8114 0.0
C610 C 0.35633 0.58615 0.80705 0.0
C611 C 0.40606 0.5073 0.81634 0.0
C612 C 0.25652 0.62315 0.83408 0.0
C613 C 0.28091 0.61567 0.82604 0.0
C614 C 0.29207 0.5381 0.81523 0.0
C615 C 0.38097 0.5473 0.81552 0.0
C616 C 0.35158 0.55384 0.81188 0.0
C617 C 0.27141 0.58349 0.81628 0.0
C618 C 0.29741 0.57157 0.81189 0.0
H619 H 0.45806 0.58758 0.8364 0.0
H620 H 0.41122 0.59924 0.82824 0.0
H621 H 0.31449 0.50433 0.8191 0.0
H622 H 0.18633 0.54816 0.82014 0.0
H623 H 0.22878 0.5357 0.80578 0.0
C624 C 0.91895 0.33415 0.16944 0.0
C625 C 0.92594 0.35223 0.15529 0.0
C626 C 0.88598 0.30957 0.17192 0.0
C627 C 0.80409 0.25026 0.15158 0.0
H628 H 0.76812 0.26351 0.19419 0.0
C629 C 0.68366 0.14644 0.17838 0.0
C630 C 0.66081 0.15802 0.18556 0.0
C631 C 0.71459 0.17016 0.17287 0.0
C632 C 0.77777 0.25965 0.1822 0.0
H633 H 0.90448 0.35808 0.13233 0.0
H634 H 0.84669 0.3142 0.1365 0.0
H635 H 0.82581 0.30404 0.18814 0.0
H636 H 0.65216 0.20369 0.19174 0.0
H637 H 0.70676 0.24513 0.18267 0.0
H638 H 0.75618 0.20527 0.14584 0.0
C639 C 0.86673 0.31933 0.14569 0.0
C640 C 0.81079 0.28261 0.1788 0.0
C641 C 0.89969 0.34438 0.14332 0.0
C642 C 0.66936 0.19386 0.18664 0.0
C643 C 0.70052 0.2176 0.18136 0.0
C644 C 0.77118 0.22686 0.1551 0.0
C645 C 0.85952 0.30227 0.16018 0.0
C646 C 0.82429 0.27805 0.1635 0.0
C647 C 0.72357 0.206 0.17463 0.0
C648 C 0.75777 0.23138 0.17045 0.0
H649 H 0.93875 0.33979 0.17886 0.0
H650 H 0.88105 0.2965 0.18313 0.0
H651 H 0.81402 0.24623 0.1397 0.0
H652 H 0.67833 0.11921 0.17758 0.0
H653 H 0.7321 0.16061 0.16788 0.0
C654 C 0.08355 0.47588 0.09557 0.0
C655 C 0.05138 0.46477 0.1021 0.0
C656 C 0.08741 0.47756 0.0785 0.0
C657 C 0.04066 0.45518 0.03708 0.0
H658 H 0.11881 0.53903 0.02727 0.0
C659 C 0.07145 0.49143 0.96967 0.0
C660 C 0.08383 0.52695 0.96752 0.0
C661 C 0.06787 0.48083 0.98568 0.0
C662 C 0.0967 0.51563 0.02977 0.0
H663 H 0.99775 0.44511 0.09604 0.0
H664 H 1.00448 0.44942 0.06613 0.0
H665 H 0.11094 0.52458 0.05565 0.0
H666 H 0.10124 0.57908 0.98033 0.0
H667 H 0.09442 0.56072 0.00818 0.0
H668 H 0.02559 0.4475 0.01117 0.0
C669 C 0.02673 0.45602 0.0741 0.0
C670 C 0.09246 0.50694 0.04606 0.0
C671 C 0.02281 0.45362 0.09122 0.0
C672 C 0.09229 0.55161 0.98164 0.0
C673 C 0.08842 0.54104 0.9976 0.0
C674 C 0.04475 0.46411 0.02073 0.0
C675 C 0.05925 0.46905 0.06762 0.0
C676 C 0.06431 0.47672 0.04998 0.0
C677 C 0.07634 0.50555 -0.00016 0.0
C678 C 0.07265 0.49469 0.01694 0.0
H679 H 0.10591 0.4841 0.10374 0.0
H680 H 0.11269 0.48661 0.07392 0.0
H681 H 0.01886 0.43154 0.0396 0.0
H682 H 0.0649 0.4719 0.95897 0.0
H683 H 0.05887 0.45335 0.98696 0.0
C684 C 0.50138 0.00729 0.44627 0.0
C685 C 0.52748 0.03462 0.45637 0.0
C686 C 0.50041 0.00746 0.42896 0.0
C687 C 0.5325 0.06626 0.39593 0.0
H688 H 0.51104 0.98059 0.36722 0.0
C689 C 0.55097 0.06373 0.32501 0.0
C690 C 0.52569 0.03626 0.3146 0.0
C691 C 0.55059 0.06367 0.34233 0.0
C692 C 0.5167 0.00465 0.37506 0.0
H693 H 0.57298 0.08364 0.45615 0.0
H694 H 0.5714 0.08366 0.42604 0.0
H695 H 0.5111 0.98005 0.3974 0.0
H696 H 0.47968 0.98766 0.31426 0.0
H697 H 0.47903 0.98755 0.34444 0.0
H698 H 0.53821 0.09089 0.37359 0.0
C699 C 0.55146 0.06232 0.4315 0.0
C700 C 0.51671 0.00433 0.39236 0.0
C701 C 0.55246 0.06215 0.44878 0.0
C702 C 0.49988 0.00889 0.32191 0.0
C703 C 0.4995 0.00883 0.33921 0.0
C704 C 0.53249 0.06658 0.37864 0.0
C705 C 0.52545 0.03499 0.42138 0.0
C706 C 0.52471 0.03515 0.40299 0.0
C707 C 0.5249 0.03615 0.34962 0.0
C708 C 0.52467 0.0358 0.368 0.0
H709 H 0.48166 0.98574 0.4517 0.0
H710 H 0.47981 0.98621 0.42152 0.0
H711 H 0.53826 0.09034 0.40378 0.0
H712 H 0.57142 0.08498 0.31976 0.0
H713 H 0.57078 0.08487 0.35 0.0
C714 C 0.52235 0.52519 0.77185 0.0
C715 C 0.55213 0.52834 0.7798 0.0
C716 C 0.52133 0.52894 0.7549 0.0
C717 C 0.57557 0.56968 0.72134 0.0
H718 H 0.50048 0.50263 0.692 0.0
C719 C 0.57703 0.56849 0.64981 0.0
C720 C 0.5463 0.55862 0.64074 0.0
C721 C 0.57751 0.56631 0.66695 0.0
C722 C 0.52136 0.52196 0.70005 0.0
H723 H 0.60421 0.53786 0.77616 0.0
H724 H 0.60244 0.54469 0.74654 0.0
H725 H 0.50169 0.49512 0.72149 0.0
H726 H 0.492 0.53961 0.64277 0.0
H727 H 0.493 0.53722 0.67276 0.0
H728 H 0.59506 0.59692 0.70005 0.0
C729 C 0.57993 0.53931 0.75348 0.0
C730 C 0.5221 0.51751 0.71693 0.0
C731 C 0.58083 0.53514 0.7704 0.0
C732 C 0.51618 0.54769 0.64936 0.0
C733 C 0.51669 0.5458 0.66654 0.0
C734 C 0.57467 0.57436 0.70449 0.0
C735 C 0.55019 0.53633 0.74559 0.0
C736 C 0.54931 0.5412 0.72771 0.0
C737 C 0.5473 0.55456 0.67551 0.0
C738 C 0.54765 0.55044 0.6936 0.0
H739 H 0.49978 0.51995 0.77873 0.0
H740 H 0.49815 0.52675 0.74915 0.0
H741 H 0.59661 0.58862 0.72944 0.0
H742 H 0.6008 0.5776 0.64365 0.0
H743 H 0.60152 0.57299 0.67338 0.0
C744 C 0.52483 0.00537 0.56835 0.0
C745 C 0.54112 0.03719 0.56147 0.0
C746 C 0.52745 0.00431 0.58551 0.0
C747 C 0.54276 0.05752 0.62561 0.0
H748 H 0.56582 0.98864 0.64209 0.0
C749 C 0.56964 0.05909 0.69564 0.0
C750 C 0.55833 0.02687 0.70216 0.0
C751 C 0.56811 0.06048 0.67847 0.0
C752 C 0.55887 0.00771 0.63772 0.0
H753 H 0.5727 0.0929 0.5672 0.0
H754 H 0.57683 0.09102 0.59726 0.0
H755 H 0.56158 0.99068 0.61213 0.0
H756 H 0.5368 0.97079 0.69557 0.0
H757 H 0.53275 0.97311 0.66571 0.0
H758 H 0.53914 0.07408 0.65109 0.0
C759 C 0.56214 0.06695 0.58932 0.0
C760 C 0.55659 0.00894 0.62056 0.0
C761 C 0.55991 0.06797 0.57212 0.0
C762 C 0.54537 0.99605 0.69103 0.0
C763 C 0.54351 0.99742 0.67386 0.0
C764 C 0.54463 0.05604 0.64277 0.0
C765 C 0.54605 0.03509 0.59615 0.0
C766 C 0.54858 0.03389 0.61435 0.0
C767 C 0.55487 0.02966 0.66735 0.0
C768 C 0.55279 0.03116 0.64906 0.0
H769 H 0.51028 0.98117 0.56047 0.0
H770 H 0.51458 0.97944 0.59048 0.0
H771 H 0.53612 0.07673 0.62113 0.0
H772 H 0.57933 0.08335 0.70381 0.0
H773 H 0.57755 0.08581 0.67392 0.0
C774 C 0.57311 0.50376 0.89131 0.0
C775 C 0.55987 0.52411 0.8844 0.0
C776 C 0.57324 0.50198 0.90852 0.0
C777 C 0.53461 0.5218 0.94704 0.0
H778 H 0.60411 0.50647 0.96919 0.0
C779 C 0.55859 0.53538 0.01894 0.0
C780 C 0.55478 0.50425 0.02495 0.0
C781 C 0.55969 0.53843 0.00183 0.0
C782 C 0.58458 0.51073 0.9631 0.0
H783 H 0.53758 0.55958 0.89003 0.0
H784 H 0.53953 0.55821 0.92003 0.0
H785 H 0.60624 0.51196 0.93935 0.0
H786 H 0.54872 0.45175 0.0173 0.0
H787 H 0.55255 0.45807 0.9876 0.0
H788 H 0.51398 0.52197 0.97113 0.0
C789 C 0.54845 0.54226 0.91225 0.0
C790 C 0.58555 0.5136 0.94597 0.0
C791 C 0.54756 0.54333 0.89502 0.0
C792 C 0.55248 0.47644 0.01332 0.0
C793 C 0.5544 0.47986 0.99626 0.0
C794 C 0.53416 0.51976 0.96422 0.0
C795 C 0.56087 0.52119 0.91927 0.0
C796 C 0.56042 0.51893 0.93764 0.0
C797 C 0.55782 0.51078 0.9904 0.0
C798 C 0.55898 0.51396 0.97234 0.0
H799 H 0.58248 0.48842 0.88336 0.0
H800 H 0.58242 0.48491 0.9133 0.0
H801 H 0.51431 0.52505 0.94114 0.0
H802 H 0.56118 0.55768 0.02741 0.0
H803 H 0.56254 0.56261 0.99753 0.0
C804 C 0.03208 0.46059 0.21552 0.0
C805 C 0.04588 0.48989 0.20662 0.0
C806 C 0.03047 0.46473 0.23284 0.0
C807 C 0.02134 0.5208 0.26654 0.0
H808 H 0.06016 0.47939 0.29532 0.0
C809 C 0.02197 0.5446 0.33828 0.0
C810 C 0.01934 0.51774 0.34758 0.0
C811 C 0.02573 0.54173 0.32108 0.0
C812 C 0.0486 0.49062 0.28749 0.0
H813 H 0.06877 0.54648 0.20882 0.0
H814 H 0.06499 0.5536 0.23915 0.0
H815 H 0.06593 0.47311 0.26528 0.0
H816 H 0.01748 0.46643 0.34633 0.0
H817 H 0.02228 0.46041 0.31621 0.0
H818 H 1.00262 0.53705 0.28846 0.0
C819 C 0.05587 0.52753 0.23266 0.0
C820 C 0.05221 0.48723 0.2703 0.0
C821 C 0.05819 0.52344 0.21537 0.0
C822 C 0.01977 0.48761 0.33939 0.0
C823 C 0.02283 0.48438 0.32215 0.0
C824 C 0.0171 0.52361 0.2837 0.0
C825 C 0.04195 0.4982 0.24151 0.0
C826 C 0.03869 0.50235 0.25971 0.0
C827 C 0.02628 0.51158 0.31276 0.0
C828 C 0.03071 0.50858 0.29444 0.0
H829 H 0.0225 0.43443 0.2091 0.0
H830 H 0.01951 0.44175 0.23942 0.0
H831 H 0.01038 0.53235 0.25854 0.0
H832 H 0.02203 0.56824 0.34441 0.0
H833 H 0.02892 0.56351 0.31441 0.0
loop_
_geom_bond_atom_site_label_1
_geom_bond_atom_site_label_2
_geom_bond_distance
_geom_bond_site_symmetry_2
_ccdc_geom_bond_type
Tb0 O3 2.453 1_455 S
Tb0 O4 2.595 . S
Tb0 O5 2.374 . S
Tb0 O13 2.343 . S
Tb0 O15 2.353 . S
Tb0 O17 2.427 . S
Tb0 O18 2.513 . S
C1 O5 1.251 . S
C1 O7 1.263 . S
Tb2 O4 2.341 . S
Tb2 O7 2.353 . S
Tb2 O10 2.427 1_455 S
Tb2 O11 2.513 1_455 S
Tb2 O12 2.453 . S
Tb2 O13 2.596 . S
Tb2 O14 2.374 . S
O3 Tb0 2.453 1_655 S
O3 C19 1.245 . S
O4 Tb0 2.595 . S
O4 Tb2 2.341 . S
O4 C19 1.261 1_455 S
O5 Tb0 2.374 . S
O5 C1 1.251 . S
C6 O10 1.275 . S
C6 O11 1.246 . S
O7 C1 1.263 . S
O7 Tb2 2.353 . S
C8 O12 1.245 . S
C8 O13 1.259 . S
C9 O14 1.250 . S
C9 O15 1.263 . S
O10 Tb2 2.427 1_655 S
O10 C6 1.275 . S
O11 Tb2 2.513 1_655 S
O11 C6 1.246 . S
O12 Tb2 2.453 . S
O12 C8 1.245 . S
O13 Tb0 2.343 . S
O13 Tb2 2.596 . S
O13 C8 1.259 . S
O14 Tb2 2.374 . S
O14 C9 1.250 . S
O15 Tb0 2.353 . S
O15 C9 1.263 . S
C16 O17 1.275 . S
C16 O18 1.246 . S
O17 Tb0 2.427 . S
O17 C16 1.275 . S
O18 Tb0 2.513 . S
O18 C16 1.246 . S
C19 O3 1.245 . S
C19 O4 1.261 1_655 S
Tb20 O23 2.453 . S
Tb20 O24 2.596 . S
Tb20 O25 2.374 . S
Tb20 O33 2.343 1_545 S
Tb20 O35 2.353 . S
Tb20 O37 2.427 1_545 S
Tb20 O38 2.513 1_545 S
C21 O25 1.251 . S
C21 O27 1.263 . S
Tb22 O24 2.343 . S
Tb22 O27 2.353 . S
Tb22 O30 2.427 . S
Tb22 O31 2.513 . S
Tb22 O32 2.453 1_545 S
Tb22 O33 2.596 1_545 S
Tb22 O34 2.374 . S
O23 Tb20 2.453 . S
O23 C39 1.245 . S
O24 Tb20 2.596 . S
O24 Tb22 2.343 . S
O24 C39 1.259 . S
O25 Tb20 2.374 . S
O25 C21 1.251 . S
C26 O30 1.275 . S
C26 O31 1.246 . S
O27 C21 1.263 . S
O27 Tb22 2.353 . S
C28 O32 1.245 . S
C28 O33 1.259 . S
C29 O34 1.250 . S
C29 O35 1.263 . S
O30 Tb22 2.427 . S
O30 C26 1.275 . S
O31 Tb22 2.513 . S
O31 C26 1.246 . S
O32 Tb22 2.453 1_565 S
O32 C28 1.245 . S
O33 Tb20 2.343 1_565 S
O33 Tb22 2.596 1_565 S
O33 C28 1.259 . S
O34 Tb22 2.374 . S
O34 C29 1.250 . S
O35 Tb20 2.353 . S
O35 C29 1.263 . S
C36 O37 1.275 . S
C36 O38 1.246 . S
O37 Tb20 2.427 1_565 S
O37 C36 1.275 . S
O38 Tb20 2.513 1_565 S
O38 C36 1.246 . S
C39 O23 1.245 . S
C39 O24 1.259 . S
Tb40 O43 2.453 . S
Tb40 O44 2.596 . S
Tb40 O45 2.374 . S
Tb40 O53 2.343 . S
Tb40 O55 2.353 . S
Tb40 O57 2.427 . S
Tb40 O58 2.513 . S
C41 O45 1.251 . S
C41 O47 1.263 . S
Tb42 O44 2.343 . S
Tb42 O47 2.353 . S
Tb42 O50 2.427 . S
Tb42 O51 2.513 . S
Tb42 O52 2.453 . S
Tb42 O53 2.596 . S
Tb42 O54 2.374 . S
O43 Tb40 2.453 . S
O43 C59 1.245 . S
O44 Tb40 2.596 . S
O44 Tb42 2.343 . S
O44 C59 1.259 . S
O45 Tb40 2.374 . S
O45 C41 1.251 . S
C46 O50 1.275 . S
C46 O51 1.246 . S
O47 C41 1.263 . S
O47 Tb42 2.353 . S
C48 O52 1.245 . S
C48 O53 1.259 . S
C49 O54 1.250 . S
C49 O55 1.263 . S
O50 Tb42 2.427 . S
O50 C46 1.275 . S
O51 Tb42 2.513 . S
O51 C46 1.246 . S
O52 Tb42 2.453 . S
O52 C48 1.245 . S
O53 Tb40 2.343 . S
O53 Tb42 2.596 . S
O53 C48 1.259 . S
O54 Tb42 2.374 . S
O54 C49 1.250 . S
O55 Tb40 2.353 . S
O55 C49 1.263 . S
C56 O57 1.275 . S
C56 O58 1.246 . S
O57 Tb40 2.427 . S
O57 C56 1.275 . S
O58 Tb40 2.513 . S
O58 C56 1.246 . S
C59 O43 1.245 . S
C59 O44 1.259 . S
C60 C61 1.386 . S
C60 C62 1.397 . S
C60 H84 0.931 . S
C61 C60 1.386 . S
C61 C65 1.397 . S
C62 C60 1.397 . S
C62 C63 1.384 . S
C62 H85 0.930 . S
C63 C62 1.384 . S
C63 C64 1.377 . S
C63 C66 1.481 . S
C64 C63 1.377 . S
C64 C65 1.389 . S
C64 H86 0.929 1_545 S
C65 C61 1.397 . S
C65 C64 1.389 . S
C65 H87 0.931 . S
C66 C63 1.481 . S
C66 C67 1.387 . S
C66 C71 1.390 . S
C67 C66 1.387 . S
C67 C68 1.401 . S
C67 H88 0.930 . S
C68 C67 1.401 . S
C68 C69 1.376 . S
C68 C77 1.511 . S
C69 C68 1.376 . S
C69 C70 1.392 . S
C69 H90 0.931 . S
C70 C69 1.392 . S
C70 C71 1.361 . S
C70 C72 1.500 1_545 S
C71 C66 1.390 . S
C71 C70 1.361 . S
C71 H89 0.915 1_545 S
C72 C70 1.500 1_565 S
C72 C73 1.371 . S
C72 C74 1.365 . S
C73 C72 1.371 . S
C73 C83 1.386 . S
C73 H91 0.931 1_565 S
C74 C72 1.365 . S
C74 C75 1.409 . S
C74 H92 0.929 . S
C75 C74 1.409 . S
C75 C76 1.380 . S
C75 H93 0.930 . S
C76 C75 1.380 . S
C76 C83 1.357 . S
C77 C68 1.511 . S
C77 C78 1.341 . S
C77 C79 1.371 . S
C78 C77 1.341 . S
C78 C82 1.394 . S
C78 H94 0.930 . S
C79 C77 1.371 . S
C79 C80 1.392 . S
C79 H95 0.931 . S
C80 C79 1.392 . S
C80 C81 1.331 . S
C80 H98 0.932 . S
C81 C80 1.331 . S
C81 C82 1.336 . S
C82 C78 1.394 . S
C82 C81 1.336 . S
C82 H97 0.929 . S
C83 C73 1.386 . S
C83 C76 1.357 . S
C83 H96 0.928 . S
H84 C60 0.931 . S
H85 C62 0.930 . S
H86 C64 0.929 1_565 S
H87 C65 0.931 . S
H88 C67 0.930 . S
H89 C71 0.915 1_565 S
H90 C69 0.931 . S
H91 C73 0.931 1_545 S
H92 C74 0.929 . S
H93 C75 0.930 . S
H94 C78 0.930 . S
H95 C79 0.931 . S
H96 C83 0.928 . S
H97 C82 0.929 . S
H98 C80 0.932 . S
C99 C100 1.386 . S
C99 C101 1.397 . S
C99 H123 0.931 . S
C100 C99 1.386 . S
C100 C104 1.397 . S
C101 C99 1.397 . S
C101 C102 1.384 . S
C101 H124 0.930 . S
C102 C101 1.384 . S
C102 C103 1.377 . S
C102 C105 1.481 . S
C103 C102 1.377 . S
C103 C104 1.389 . S
C103 H125 0.929 . S
C104 C100 1.397 . S
C104 C103 1.389 . S
C104 H126 0.931 . S
C105 C102 1.481 . S
C105 C106 1.387 . S
C105 C110 1.390 . S
C106 C105 1.387 . S
C106 C107 1.401 . S
C106 H127 0.930 . S
C107 C106 1.401 . S
C107 C108 1.376 . S
C107 C116 1.511 . S
C108 C107 1.376 . S
C108 C109 1.392 . S
C108 H129 0.931 . S
C109 C108 1.392 . S
C109 C110 1.361 . S
C109 C111 1.500 . S
C110 C105 1.390 . S
C110 C109 1.361 . S
C110 H128 0.931 . S
C111 C109 1.500 . S
C111 C112 1.371 . S
C111 C113 1.365 . S
C112 C111 1.371 . S
C112 C122 1.386 . S
C112 H130 0.931 . S
C113 C111 1.365 . S
C113 C114 1.409 . S
C113 H131 0.929 . S
C114 C113 1.409 . S
C114 C115 1.380 . S
C114 H132 0.930 . S
C115 C114 1.380 . S
C115 C122 1.357 . S
C116 C107 1.511 . S
C116 C117 1.341 . S
C116 C118 1.371 . S
C117 C116 1.341 . S
C117 C121 1.394 . S
C117 H133 0.930 . S
C118 C116 1.371 . S
C118 C119 1.392 . S
C118 H134 0.931 . S
C119 C118 1.392 . S
C119 C120 1.331 . S
C119 H137 0.932 . S
C120 C119 1.331 . S
C120 C121 1.336 . S
C121 C117 1.394 . S
C121 C120 1.336 . S
C121 H136 0.929 . S
C122 C112 1.386 . S
C122 C115 1.357 . S
C122 H135 0.928 . S
H123 C99 0.931 . S
H124 C101 0.930 . S
H125 C103 0.929 . S
H126 C104 0.931 . S
H127 C106 0.930 . S
H128 C110 0.931 . S
H129 C108 0.931 . S
H130 C112 0.931 . S
H131 C113 0.929 . S
H132 C114 0.930 . S
H133 C117 0.930 . S
H134 C118 0.931 . S
H135 C122 0.928 . S
H136 C121 0.929 . S
H137 C119 0.932 . S
C138 C139 1.386 . S
C138 C140 1.397 . S
C138 H162 0.931 . S
C139 C138 1.386 . S
C139 C143 1.397 . S
C140 C138 1.397 . S
C140 C141 1.384 . S
C140 H163 0.930 . S
C141 C140 1.384 . S
C141 C142 1.377 . S
C141 C144 1.481 . S
C142 C141 1.377 . S
C142 C143 1.389 . S
C142 H164 0.929 . S
C143 C139 1.397 . S
C143 C142 1.389 . S
C143 H165 0.931 . S
C144 C141 1.481 . S
C144 C145 1.387 . S
C144 C149 1.390 . S
C145 C144 1.387 . S
C145 C146 1.401 . S
C145 H166 0.930 . S
C146 C145 1.401 . S
C146 C147 1.376 . S
C146 C155 1.511 . S
C147 C146 1.376 . S
C147 C148 1.392 . S
C147 H168 0.931 . S
C148 C147 1.392 . S
C148 C149 1.361 . S
C148 C150 1.500 . S
C149 C144 1.390 . S
C149 C148 1.361 . S
C149 H167 0.931 . S
C150 C148 1.500 . S
C150 C151 1.371 . S
C150 C152 1.365 1_455 S
C151 C150 1.371 . S
C151 C161 1.386 1_455 S
C151 H169 0.931 . S
C152 C150 1.365 1_655 S
C152 C153 1.409 . S
C152 H170 0.929 . S
C153 C152 1.409 . S
C153 C154 1.380 . S
C153 H171 0.930 . S
C154 C153 1.380 . S
C154 C161 1.357 . S
C155 C146 1.511 . S
C155 C156 1.341 . S
C155 C157 1.371 . S
C156 C155 1.341 . S
C156 C160 1.394 . S
C156 H172 0.930 . S
C157 C155 1.371 . S
C157 C158 1.392 . S
C157 H173 0.931 . S
C158 C157 1.392 . S
C158 C159 1.331 . S
C158 H176 0.932 . S
C159 C158 1.331 . S
C159 C160 1.336 . S
C160 C156 1.394 . S
C160 C159 1.336 . S
C160 H175 0.929 . S
C161 C151 1.386 1_655 S
C161 C154 1.357 . S
C161 H174 0.928 1_655 S
H162 C138 0.931 . S
H163 C140 0.930 . S
H164 C142 0.929 . S
H165 C143 0.931 . S
H166 C145 0.930 . S
H167 C149 0.931 . S
H168 C147 0.931 . S
H169 C151 0.931 . S
H170 C152 0.929 . S
H171 C153 0.930 . S
H172 C156 0.930 . S
H173 C157 0.931 . S
H174 C161 0.928 1_455 S
H175 C160 0.929 . S
H176 C158 0.932 . S
C177 C178 1.406 . S
C177 C179 1.397 . S
C177 H201 0.931 . S
C178 C177 1.406 . S
C178 C182 1.378 1_655 S
C179 C177 1.397 . S
C179 C180 1.407 . S
C179 H202 0.930 . S
C180 C179 1.407 . S
C180 C181 1.354 1_655 S
C180 C183 1.481 . S
C181 C180 1.354 1_455 S
C181 C182 1.389 . S
C181 H203 0.929 . S
C182 C178 1.378 1_455 S
C182 C181 1.389 . S
C182 H204 0.931 . S
C183 C180 1.481 . S
C183 C184 1.393 . S
C183 C188 1.385 1_655 S
C184 C183 1.393 . S
C184 C185 1.401 . S
C184 H205 0.930 . S
C185 C184 1.401 . S
C185 C186 1.376 1_655 S
C185 C194 1.511 . S
C186 C185 1.376 1_455 S
C186 C187 1.392 . S
C186 H207 0.931 . S
C187 C186 1.392 . S
C187 C188 1.361 . S
C187 C189 1.500 . S
C188 C183 1.385 1_455 S
C188 C187 1.361 . S
C188 H206 0.931 . S
C189 C187 1.500 . S
C189 C190 1.371 . S
C189 C191 1.365 . S
C190 C189 1.371 . S
C190 C200 1.386 . S
C190 H208 0.931 . S
C191 C189 1.365 . S
C191 C192 1.409 . S
C191 H209 0.929 . S
C192 C191 1.409 . S
C192 C193 1.380 . S
C192 H210 0.930 . S
C193 C192 1.380 . S
C193 C200 1.357 . S
C194 C185 1.511 . S
C194 C195 1.341 . S
C194 C196 1.371 . S
C195 C194 1.341 . S
C195 C199 1.394 . S
C195 H211 0.930 . S
C196 C194 1.371 . S
C196 C197 1.392 . S
C196 H212 0.931 . S
C197 C196 1.392 . S
C197 C198 1.331 . S
C197 H215 0.932 . S
C198 C197 1.331 . S
C198 C199 1.336 . S
C199 C195 1.394 . S
C199 C198 1.336 . S
C199 H214 0.929 . S
C200 C190 1.386 . S
C200 C193 1.357 . S
C200 H213 0.928 . S
H201 C177 0.931 . S
H202 C179 0.930 . S
H203 C181 0.929 . S
H204 C182 0.931 . S
H205 C184 0.930 . S
H206 C188 0.931 . S
H207 C186 0.931 . S
H208 C190 0.931 . S
H209 C191 0.929 . S
H210 C192 0.930 . S
H211 C195 0.930 . S
H212 C196 0.931 . S
H213 C200 0.928 . S
H214 C199 0.929 . S
H215 C197 0.932 . S
C216 C217 1.386 1_565 S
C216 C218 1.397 . S
C216 H240 0.931 . S
C217 C216 1.386 1_545 S
C217 C221 1.397 . S
C218 C216 1.397 . S
C218 C219 1.384 1_565 S
C218 H241 0.930 . S
C219 C218 1.384 1_545 S
C219 C220 1.377 . S
C219 C222 1.481 . S
C220 C219 1.377 . S
C220 C221 1.389 . S
C220 H242 0.929 . S
C221 C217 1.397 . S
C221 C220 1.389 . S
C221 H243 0.931 . S
C222 C219 1.481 . S
C222 C223 1.387 1_545 S
C222 C227 1.390 . S
C223 C222 1.387 1_565 S
C223 C224 1.401 . S
C223 H244 0.930 . S
C224 C223 1.401 . S
C224 C225 1.376 1_565 S
C224 C233 1.511 . S
C225 C224 1.376 1_545 S
C225 C226 1.392 . S
C225 H246 0.931 . S
C226 C225 1.392 . S
C226 C227 1.361 . S
C226 C228 1.500 . S
C227 C222 1.390 . S
C227 C226 1.361 . S
C227 H245 0.931 . S
C228 C226 1.500 . S
C228 C229 1.371 . S
C228 C230 1.365 . S
C229 C228 1.371 . S
C229 C239 1.386 . S
C229 H247 0.931 . S
C230 C228 1.365 . S
C230 C231 1.409 . S
C230 H248 0.929 . S
C231 C230 1.409 . S
C231 C232 1.380 . S
C231 H249 0.930 . S
C232 C231 1.380 . S
C232 C239 1.357 . S
C233 C224 1.511 . S
C233 C234 1.341 . S
C233 C235 1.371 . S
C234 C233 1.341 . S
C234 C238 1.394 . S
C234 H250 0.930 . S
C235 C233 1.371 . S
C235 C236 1.392 . S
C235 H251 0.931 . S
C236 C235 1.392 . S
C236 C237 1.331 . S
C236 H254 0.932 . S
C237 C236 1.331 . S
C237 C238 1.336 . S
C238 C234 1.394 . S
C238 C237 1.336 . S
C238 H253 0.929 . S
C239 C229 1.386 . S
C239 C232 1.357 . S
C239 H252 0.928 . S
H240 C216 0.931 . S
H241 C218 0.930 . S
H242 C220 0.929 . S
H243 C221 0.931 . S
H244 C223 0.930 . S
H245 C227 0.931 . S
H246 C225 0.931 . S
H247 C229 0.931 . S
H248 C230 0.929 . S
H249 C231 0.930 . S
H250 C234 0.930 . S
H251 C235 0.931 . S
H252 C239 0.928 . S
H253 C238 0.929 . S
H254 C236 0.932 . S
C255 C256 1.386 . S
C255 C257 1.397 . S
C255 H279 0.931 . S
C256 C255 1.386 . S
C256 C260 1.397 . S
C257 C255 1.397 . S
C257 C258 1.384 . S
C257 H280 0.930 . S
C258 C257 1.384 . S
C258 C259 1.377 . S
C258 C261 1.481 . S
C259 C258 1.377 . S
C259 C260 1.389 . S
C259 H281 0.929 . S
C260 C256 1.397 . S
C260 C259 1.389 . S
C260 H282 0.931 . S
C261 C258 1.481 . S
C261 C262 1.387 . S
C261 C266 1.390 . S
C262 C261 1.387 . S
C262 C263 1.401 . S
C262 H283 0.930 . S
C263 C262 1.401 . S
C263 C264 1.376 . S
C263 C272 1.511 . S
C264 C263 1.376 . S
C264 C265 1.392 . S
C264 H285 0.931 . S
C265 C264 1.392 . S
C265 C266 1.361 . S
C265 C267 1.500 . S
C266 C261 1.390 . S
C266 C265 1.361 . S
C266 H284 0.931 . S
C267 C265 1.500 . S
C267 C268 1.371 . S
C267 C269 1.365 . S
C268 C267 1.371 . S
C268 C278 1.386 . S
C268 H286 0.931 . S
C269 C267 1.365 . S
C269 C270 1.409 . S
C269 H287 0.929 . S
C270 C269 1.409 . S
C270 C271 1.380 . S
C270 H288 0.930 . S
C271 C270 1.380 . S
C271 C278 1.357 . S
C272 C263 1.511 . S
C272 C273 1.341 . S
C272 C274 1.371 . S
C273 C272 1.341 . S
C273 C277 1.394 . S
C273 H289 0.930 . S
C274 C272 1.371 . S
C274 C275 1.392 . S
C274 H290 0.931 . S
C275 C274 1.392 . S
C275 C276 1.331 . S
C275 H293 0.932 . S
C276 C275 1.331 . S
C276 C277 1.336 . S
C277 C273 1.394 . S
C277 C276 1.336 . S
C277 H292 0.929 . S
C278 C268 1.386 . S
C278 C271 1.357 . S
C278 H291 0.928 . S
H279 C255 0.931 . S
H280 C257 0.930 . S
H281 C259 0.929 . S
H282 C260 0.931 . S
H283 C262 0.930 . S
H284 C266 0.931 . S
H285 C264 0.931 . S
H286 C268 0.931 . S
H287 C269 0.929 . S
H288 C270 0.930 . S
H289 C273 0.930 . S
H290 C274 0.931 . S
H291 C278 0.928 . S
H292 C277 0.929 . S
H293 C275 0.932 . S
C294 C295 1.349 . S
C294 C296 1.327 . S
C294 H319 0.950 . S
C295 C294 1.349 . S
C295 C311 1.349 . S
C296 C294 1.327 . S
C296 C315 1.429 . S
C296 H320 0.950 . S
C297 C314 1.574 . S
C297 C316 1.368 . S
C297 H321 0.949 . S
H298 C302 0.949 . S
C299 C300 1.349 . S
C299 C301 1.327 . S
C299 H322 0.950 . S
C300 C299 1.349 . S
C300 C312 1.349 . S
C301 C299 1.327 . S
C301 C317 1.429 . S
C301 H323 0.950 . S
C302 H298 0.949 . S
C302 C310 1.574 . S
C302 C318 1.368 . S
H303 C311 0.950 . S
H304 C309 0.950 . S
H305 C310 0.949 . S
H306 C312 0.950 . S
H307 C313 0.950 . S
H308 C314 0.949 . S
C309 H304 0.950 . S
C309 C311 1.327 . S
C309 C315 1.429 . S
C310 C302 1.574 . S
C310 H305 0.949 . S
C310 C316 1.368 . S
C311 C295 1.349 . S
C311 H303 0.950 . S
C311 C309 1.327 . S
C312 C300 1.349 . S
C312 H306 0.950 . S
C312 C313 1.327 . S
C313 H307 0.950 . S
C313 C312 1.327 . S
C313 C317 1.429 . S
C314 C297 1.574 . S
C314 H308 0.949 . S
C314 C318 1.368 . S
C315 C296 1.429 . S
C315 C309 1.429 . S
C315 C316 1.523 . S
C316 C297 1.368 . S
C316 C310 1.368 . S
C316 C315 1.523 . S
C317 C301 1.429 . S
C317 C313 1.429 . S
C317 C318 1.523 . S
C318 C302 1.368 . S
C318 C314 1.368 . S
C318 C317 1.523 . S
H319 C294 0.950 . S
H320 C296 0.950 . S
H321 C297 0.949 . S
H322 C299 0.950 . S
H323 C301 0.950 . S
C324 C325 1.349 . S
C324 C326 1.327 . S
C324 H349 0.950 . S
C325 C324 1.349 . S
C325 C341 1.349 . S
C326 C324 1.327 . S
C326 C345 1.429 . S
C326 H350 0.950 . S
C327 C344 1.574 . S
C327 C346 1.368 . S
C327 H351 0.949 . S
H328 C332 0.949 . S
C329 C330 1.349 . S
C329 C331 1.327 . S
C329 H352 0.950 . S
C330 C329 1.349 . S
C330 C342 1.349 . S
C331 C329 1.327 . S
C331 C347 1.429 . S
C331 H353 0.950 . S
C332 H328 0.949 . S
C332 C340 1.574 . S
C332 C348 1.368 . S
H333 C341 0.950 . S
H334 C339 0.950 . S
H335 C340 0.949 . S
H336 C342 0.950 . S
H337 C343 0.950 . S
H338 C344 0.949 . S
C339 H334 0.950 . S
C339 C341 1.327 . S
C339 C345 1.429 . S
C340 C332 1.574 . S
C340 H335 0.949 . S
C340 C346 1.368 . S
C341 C325 1.349 . S
C341 H333 0.950 . S
C341 C339 1.327 . S
C342 C330 1.349 . S
C342 H336 0.950 . S
C342 C343 1.327 . S
C343 H337 0.950 . S
C343 C342 1.327 . S
C343 C347 1.429 . S
C344 C327 1.574 . S
C344 H338 0.949 . S
C344 C348 1.368 . S
C345 C326 1.429 . S
C345 C339 1.429 . S
C345 C346 1.523 . S
C346 C327 1.368 . S
C346 C340 1.368 . S
C346 C345 1.523 . S
C347 C331 1.429 . S
C347 C343 1.429 . S
C347 C348 1.523 . S
C348 C332 1.368 . S
C348 C344 1.368 . S
C348 C347 1.523 . S
H349 C324 0.950 . S
H350 C326 0.950 . S
H351 C327 0.949 . S
H352 C329 0.950 . S
H353 C331 0.950 . S
C354 C355 1.349 . S
C354 C356 1.327 . S
C354 H379 0.950 . S
C355 C354 1.349 . S
C355 C371 1.349 . S
C356 C354 1.327 . S
C356 C375 1.429 . S
C356 H380 0.950 . S
C357 C374 1.574 . S
C357 C376 1.368 . S
C357 H381 0.949 . S
H358 C362 0.949 . S
C359 C360 1.349 . S
C359 C361 1.327 . S
C359 H382 0.950 . S
C360 C359 1.349 . S
C360 C372 1.349 . S
C361 C359 1.327 . S
C361 C377 1.429 . S
C361 H383 0.950 . S
C362 H358 0.949 . S
C362 C370 1.574 . S
C362 C378 1.368 . S
H363 C371 0.950 . S
H364 C369 0.950 . S
H365 C370 0.949 . S
H366 C372 0.950 . S
H367 C373 0.950 . S
H368 C374 0.949 . S
C369 H364 0.950 . S
C369 C371 1.327 . S
C369 C375 1.429 . S
C370 C362 1.574 . S
C370 H365 0.949 . S
C370 C376 1.368 . S
C371 C355 1.349 . S
C371 H363 0.950 . S
C371 C369 1.327 . S
C372 C360 1.349 . S
C372 H366 0.950 . S
C372 C373 1.327 . S
C373 H367 0.950 . S
C373 C372 1.327 . S
C373 C377 1.429 . S
C374 C357 1.574 . S
C374 H368 0.949 . S
C374 C378 1.368 . S
C375 C356 1.429 . S
C375 C369 1.429 . S
C375 C376 1.523 . S
C376 C357 1.368 . S
C376 C370 1.368 . S
C376 C375 1.523 . S
C377 C361 1.429 . S
C377 C373 1.429 . S
C377 C378 1.523 . S
C378 C362 1.368 . S
C378 C374 1.368 . S
C378 C377 1.523 . S
H379 C354 0.950 . S
H380 C356 0.950 . S
H381 C357 0.949 . S
H382 C359 0.950 . S
H383 C361 0.950 . S
C384 C385 1.349 . S
C384 C386 1.327 . S
C384 H409 0.950 . S
C385 C384 1.349 . S
C385 C401 1.349 . S
C386 C384 1.327 . S
C386 C405 1.429 . S
C386 H410 0.950 . S
C387 C404 1.574 . S
C387 C406 1.368 . S
C387 H411 0.949 . S
H388 C392 0.949 . S
C389 C390 1.349 . S
C389 C391 1.327 . S
C389 H412 0.950 . S
C390 C389 1.349 . S
C390 C402 1.349 . S
C391 C389 1.327 . S
C391 C407 1.429 . S
C391 H413 0.950 . S
C392 H388 0.949 . S
C392 C400 1.574 . S
C392 C408 1.368 . S
H393 C401 0.950 . S
H394 C399 0.950 . S
H395 C400 0.949 . S
H396 C402 0.950 . S
H397 C403 0.950 . S
H398 C404 0.949 . S
C399 H394 0.950 . S
C399 C401 1.327 . S
C399 C405 1.429 . S
C400 C392 1.574 . S
C400 H395 0.949 . S
C400 C406 1.368 . S
C401 C385 1.349 . S
C401 H393 0.950 . S
C401 C399 1.327 . S
C402 C390 1.349 . S
C402 H396 0.950 . S
C402 C403 1.327 . S
C403 H397 0.950 . S
C403 C402 1.327 . S
C403 C407 1.429 . S
C404 C387 1.574 . S
C404 H398 0.949 . S
C404 C408 1.368 . S
C405 C386 1.429 . S
C405 C399 1.429 . S
C405 C406 1.523 . S
C406 C387 1.368 . S
C406 C400 1.368 . S
C406 C405 1.523 . S
C407 C391 1.429 . S
C407 C403 1.429 . S
C407 C408 1.523 . S
C408 C392 1.368 . S
C408 C404 1.368 . S
C408 C407 1.523 . S
H409 C384 0.950 . S
H410 C386 0.950 . S
H411 C387 0.949 . S
H412 C389 0.950 . S
H413 C391 0.950 . S
C414 C415 1.349 . S
C414 C416 1.327 . S
C414 H439 0.950 . S
C415 C414 1.349 . S
C415 C431 1.349 . S
C416 C414 1.327 . S
C416 C435 1.429 . S
C416 H440 0.950 . S
C417 C434 1.574 . S
C417 C436 1.368 . S
C417 H441 0.949 . S
H418 C422 0.949 . S
C419 C420 1.349 . S
C419 C421 1.327 . S
C419 H442 0.950 . S
C420 C419 1.349 . S
C420 C432 1.349 . S
C421 C419 1.327 . S
C421 C437 1.429 . S
C421 H443 0.950 . S
C422 H418 0.949 . S
C422 C430 1.574 . S
C422 C438 1.368 . S
H423 C431 0.950 . S
H424 C429 0.950 . S
H425 C430 0.949 . S
H426 C432 0.950 . S
H427 C433 0.950 . S
H428 C434 0.949 . S
C429 H424 0.950 . S
C429 C431 1.327 . S
C429 C435 1.429 . S
C430 C422 1.574 . S
C430 H425 0.949 . S
C430 C436 1.368 . S
C431 C415 1.349 . S
C431 H423 0.950 . S
C431 C429 1.327 . S
C432 C420 1.349 . S
C432 H426 0.950 . S
C432 C433 1.327 . S
C433 H427 0.950 . S
C433 C432 1.327 . S
C433 C437 1.429 . S
C434 C417 1.574 . S
C434 H428 0.949 . S
C434 C438 1.368 . S
C435 C416 1.429 . S
C435 C429 1.429 . S
C435 C436 1.523 . S
C436 C417 1.368 . S
C436 C430 1.368 . S
C436 C435 1.523 . S
C437 C421 1.429 . S
C437 C433 1.429 . S
C437 C438 1.523 . S
C438 C422 1.368 . S
C438 C434 1.368 . S
C438 C437 1.523 . S
H439 C414 0.950 . S
H440 C416 0.950 . S
H441 C417 0.949 . S
H442 C419 0.950 . S
H443 C421 0.950 . S
C444 C445 1.349 . S
C444 C446 1.327 . S
C444 H469 0.950 . S
C445 C444 1.349 . S
C445 C461 1.349 . S
C446 C444 1.327 . S
C446 C465 1.429 . S
C446 H470 0.950 . S
C447 C464 1.574 . S
C447 C466 1.368 . S
C447 H471 0.949 . S
H448 C452 0.949 . S
C449 C450 1.349 . S
C449 C451 1.327 . S
C449 H472 0.950 . S
C450 C449 1.349 . S
C450 C462 1.349 . S
C451 C449 1.327 . S
C451 C467 1.429 . S
C451 H473 0.950 . S
C452 H448 0.949 . S
C452 C460 1.574 . S
C452 C468 1.368 . S
H453 C461 0.950 . S
H454 C459 0.950 . S
H455 C460 0.949 . S
H456 C462 0.950 . S
H457 C463 0.950 . S
H458 C464 0.949 . S
C459 H454 0.950 . S
C459 C461 1.327 . S
C459 C465 1.429 . S
C460 C452 1.574 . S
C460 H455 0.949 . S
C460 C466 1.368 . S
C461 C445 1.349 . S
C461 H453 0.950 . S
C461 C459 1.327 . S
C462 C450 1.349 . S
C462 H456 0.950 . S
C462 C463 1.327 . S
C463 H457 0.950 . S
C463 C462 1.327 . S
C463 C467 1.429 . S
C464 C447 1.574 . S
C464 H458 0.949 . S
C464 C468 1.368 . S
C465 C446 1.429 . S
C465 C459 1.429 . S
C465 C466 1.523 . S
C466 C447 1.368 . S
C466 C460 1.368 . S
C466 C465 1.523 . S
C467 C451 1.429 . S
C467 C463 1.429 . S
C467 C468 1.523 . S
C468 C452 1.368 . S
C468 C464 1.368 . S
C468 C467 1.523 . S
H469 C444 0.950 . S
H470 C446 0.950 . S
H471 C447 0.949 . S
H472 C449 0.950 . S
H473 C451 0.950 . S
C474 C475 1.349 . S
C474 C476 1.327 . S
C474 H499 0.950 . S
C475 C474 1.349 . S
C475 C491 1.349 . S
C476 C474 1.327 . S
C476 C495 1.429 . S
C476 H500 0.950 . S
C477 C494 1.574 . S
C477 C496 1.368 . S
C477 H501 0.949 . S
H478 C482 0.949 . S
C479 C480 1.349 . S
C479 C481 1.327 . S
C479 H502 0.950 . S
C480 C479 1.349 . S
C480 C492 1.349 . S
C481 C479 1.327 . S
C481 C497 1.429 . S
C481 H503 0.950 . S
C482 H478 0.949 . S
C482 C490 1.574 . S
C482 C498 1.368 . S
H483 C491 0.950 . S
H484 C489 0.950 . S
H485 C490 0.949 . S
H486 C492 0.950 . S
H487 C493 0.950 . S
H488 C494 0.949 . S
C489 H484 0.950 . S
C489 C491 1.327 . S
C489 C495 1.429 . S
C490 C482 1.574 . S
C490 H485 0.949 . S
C490 C496 1.368 . S
C491 C475 1.349 . S
C491 H483 0.950 . S
C491 C489 1.327 . S
C492 C480 1.349 . S
C492 H486 0.950 . S
C492 C493 1.327 . S
C493 H487 0.950 . S
C493 C492 1.327 . S
C493 C497 1.429 . S
C494 C477 1.574 . S
C494 H488 0.949 . S
C494 C498 1.368 . S
C495 C476 1.429 . S
C495 C489 1.429 . S
C495 C496 1.523 . S
C496 C477 1.368 . S
C496 C490 1.368 . S
C496 C495 1.523 . S
C497 C481 1.429 . S
C497 C493 1.429 . S
C497 C498 1.523 . S
C498 C482 1.368 . S
C498 C494 1.368 . S
C498 C497 1.523 . S
H499 C474 0.950 . S
H500 C476 0.950 . S
H501 C477 0.949 . S
H502 C479 0.950 . S
H503 C481 0.950 . S
C504 C505 1.349 . S
C504 C506 1.327 . S
C504 H529 0.950 . S
C505 C504 1.349 . S
C505 C521 1.349 . S
C506 C504 1.327 . S
C506 C525 1.429 . S
C506 H530 0.950 . S
C507 C524 1.574 . S
C507 C526 1.368 . S
C507 H531 0.949 . S
H508 C512 0.949 . S
C509 C510 1.349 . S
C509 C511 1.327 . S
C509 H532 0.950 . S
C510 C509 1.349 . S
C510 C522 1.349 . S
C511 C509 1.327 . S
C511 C527 1.429 . S
C511 H533 0.950 . S
C512 H508 0.949 . S
C512 C520 1.574 . S
C512 C528 1.368 . S
H513 C521 0.950 . S
H514 C519 0.950 . S
H515 C520 0.949 . S
H516 C522 0.950 . S
H517 C523 0.950 . S
H518 C524 0.949 . S
C519 H514 0.950 . S
C519 C521 1.327 . S
C519 C525 1.429 . S
C520 C512 1.574 . S
C520 H515 0.949 . S
C520 C526 1.368 . S
C521 C505 1.349 . S
C521 H513 0.950 . S
C521 C519 1.327 . S
C522 C510 1.349 . S
C522 H516 0.950 . S
C522 C523 1.327 . S
C523 H517 0.950 . S
C523 C522 1.327 . S
C523 C527 1.429 . S
C524 C507 1.574 . S
C524 H518 0.949 . S
C524 C528 1.368 . S
C525 C506 1.429 . S
C525 C519 1.429 . S
C525 C526 1.523 . S
C526 C507 1.368 . S
C526 C520 1.368 . S
C526 C525 1.523 . S
C527 C511 1.429 . S
C527 C523 1.429 . S
C527 C528 1.523 . S
C528 C512 1.368 . S
C528 C524 1.368 . S
C528 C527 1.523 . S
H529 C504 0.950 . S
H530 C506 0.950 . S
H531 C507 0.949 . S
H532 C509 0.950 . S
H533 C511 0.950 . S
C534 C535 1.349 . S
C534 C536 1.327 . S
C534 H559 0.950 . S
C535 C534 1.349 . S
C535 C551 1.349 . S
C536 C534 1.327 . S
C536 C555 1.429 . S
C536 H560 0.950 . S
C537 C554 1.574 . S
C537 C556 1.368 . S
C537 H561 0.949 . S
H538 C542 0.949 . S
C539 C540 1.349 . S
C539 C541 1.327 . S
C539 H562 0.950 . S
C540 C539 1.349 . S
C540 C552 1.349 . S
C541 C539 1.327 . S
C541 C557 1.429 . S
C541 H563 0.950 . S
C542 H538 0.949 . S
C542 C550 1.574 . S
C542 C558 1.368 . S
H543 C551 0.950 . S
H544 C549 0.950 . S
H545 C550 0.949 . S
H546 C552 0.950 . S
H547 C553 0.950 . S
H548 C554 0.949 . S
C549 H544 0.950 . S
C549 C551 1.327 . S
C549 C555 1.429 . S
C550 C542 1.574 . S
C550 H545 0.949 . S
C550 C556 1.368 . S
C551 C535 1.349 . S
C551 H543 0.950 . S
C551 C549 1.327 . S
C552 C540 1.349 . S
C552 H546 0.950 . S
C552 C553 1.327 . S
C553 H547 0.950 . S
C553 C552 1.327 . S
C553 C557 1.429 . S
C554 C537 1.574 . S
C554 H548 0.949 . S
C554 C558 1.368 . S
C555 C536 1.429 . S
C555 C549 1.429 . S
C555 C556 1.523 . S
C556 C537 1.368 . S
C556 C550 1.368 . S
C556 C555 1.523 . S
C557 C541 1.429 . S
C557 C553 1.429 . S
C557 C558 1.523 . S
C558 C542 1.368 . S
C558 C554 1.368 . S
C558 C557 1.523 . S
H559 C534 0.950 . S
H560 C536 0.950 . S
H561 C537 0.949 . S
H562 C539 0.950 . S
H563 C541 0.950 . S
C564 C565 1.349 . S
C564 C566 1.327 . S
C564 H589 0.950 . S
C565 C564 1.349 . S
C565 C581 1.349 . S
C566 C564 1.327 . S
C566 C585 1.429 . S
C566 H590 0.950 . S
C567 C584 1.574 . S
C567 C586 1.368 . S
C567 H591 0.949 . S
H568 C572 0.949 . S
C569 C570 1.349 . S
C569 C571 1.327 . S
C569 H592 0.950 . S
C570 C569 1.349 . S
C570 C582 1.349 . S
C571 C569 1.327 . S
C571 C587 1.429 . S
C571 H593 0.950 . S
C572 H568 0.949 . S
C572 C580 1.574 . S
C572 C588 1.368 . S
H573 C581 0.950 . S
H574 C579 0.950 . S
H575 C580 0.949 . S
H576 C582 0.950 . S
H577 C583 0.950 . S
H578 C584 0.949 . S
C579 H574 0.950 . S
C579 C581 1.327 . S
C579 C585 1.429 . S
C580 C572 1.574 . S
C580 H575 0.949 . S
C580 C586 1.368 . S
C581 C565 1.349 . S
C581 H573 0.950 . S
C581 C579 1.327 . S
C582 C570 1.349 . S
C582 H576 0.950 . S
C582 C583 1.327 . S
C583 H577 0.950 . S
C583 C582 1.327 . S
C583 C587 1.429 . S
C584 C567 1.574 . S
C584 H578 0.949 . S
C584 C588 1.368 . S
C585 C566 1.429 . S
C585 C579 1.429 . S
C585 C586 1.523 . S
C586 C567 1.368 . S
C586 C580 1.368 . S
C586 C585 1.523 . S
C587 C571 1.429 . S
C587 C583 1.429 . S
C587 C588 1.523 . S
C588 C572 1.368 . S
C588 C584 1.368 . S
C588 C587 1.523 . S
H589 C564 0.950 . S
H590 C566 0.950 . S
H591 C567 0.949 . S
H592 C569 0.950 . S
H593 C571 0.950 . S
C594 C595 1.349 . S
C594 C596 1.327 . S
C594 H619 0.950 . S
C595 C594 1.349 . S
C595 C611 1.349 . S
C596 C594 1.327 . S
C596 C615 1.429 . S
C596 H620 0.950 . S
C597 C614 1.574 . S
C597 C616 1.368 . S
C597 H621 0.949 . S
H598 C602 0.949 . S
C599 C600 1.349 . S
C599 C601 1.327 . S
C599 H622 0.950 . S
C600 C599 1.349 . S
C600 C612 1.349 . S
C601 C599 1.327 . S
C601 C617 1.429 . S
C601 H623 0.950 . S
C602 H598 0.949 . S
C602 C610 1.574 . S
C602 C618 1.368 . S
H603 C611 0.950 . S
H604 C609 0.950 . S
H605 C610 0.949 . S
H606 C612 0.950 . S
H607 C613 0.950 . S
H608 C614 0.949 . S
C609 H604 0.950 . S
C609 C611 1.327 . S
C609 C615 1.429 . S
C610 C602 1.574 . S
C610 H605 0.949 . S
C610 C616 1.368 . S
C611 C595 1.349 . S
C611 H603 0.950 . S
C611 C609 1.327 . S
C612 C600 1.349 . S
C612 H606 0.950 . S
C612 C613 1.327 . S
C613 H607 0.950 . S
C613 C612 1.327 . S
C613 C617 1.429 . S
C614 C597 1.574 . S
C614 H608 0.949 . S
C614 C618 1.368 . S
C615 C596 1.429 . S
C615 C609 1.429 . S
C615 C616 1.523 . S
C616 C597 1.368 . S
C616 C610 1.368 . S
C616 C615 1.523 . S
C617 C601 1.429 . S
C617 C613 1.429 . S
C617 C618 1.523 . S
C618 C602 1.368 . S
C618 C614 1.368 . S
C618 C617 1.523 . S
H619 C594 0.950 . S
H620 C596 0.950 . S
H621 C597 0.949 . S
H622 C599 0.950 . S
H623 C601 0.950 . S
C624 C625 1.349 . S
C624 C626 1.327 . S
C624 H649 0.950 . S
C625 C624 1.349 . S
C625 C641 1.349 . S
C626 C624 1.327 . S
C626 C645 1.429 . S
C626 H650 0.950 . S
C627 C644 1.574 . S
C627 C646 1.368 . S
C627 H651 0.949 . S
H628 C632 0.949 . S
C629 C630 1.349 . S
C629 C631 1.327 . S
C629 H652 0.950 . S
C630 C629 1.349 . S
C630 C642 1.349 . S
C631 C629 1.327 . S
C631 C647 1.429 . S
C631 H653 0.950 . S
C632 H628 0.949 . S
C632 C640 1.574 . S
C632 C648 1.368 . S
H633 C641 0.950 . S
H634 C639 0.950 . S
H635 C640 0.949 . S
H636 C642 0.950 . S
H637 C643 0.950 . S
H638 C644 0.949 . S
C639 H634 0.950 . S
C639 C641 1.327 . S
C639 C645 1.429 . S
C640 C632 1.574 . S
C640 H635 0.949 . S
C640 C646 1.368 . S
C641 C625 1.349 . S
C641 H633 0.950 . S
C641 C639 1.327 . S
C642 C630 1.349 . S
C642 H636 0.950 . S
C642 C643 1.327 . S
C643 H637 0.950 . S
C643 C642 1.327 . S
C643 C647 1.429 . S
C644 C627 1.574 . S
C644 H638 0.949 . S
C644 C648 1.368 . S
C645 C626 1.429 . S
C645 C639 1.429 . S
C645 C646 1.523 . S
C646 C627 1.368 . S
C646 C640 1.368 . S
C646 C645 1.523 . S
C647 C631 1.429 . S
C647 C643 1.429 . S
C647 C648 1.523 . S
C648 C632 1.368 . S
C648 C644 1.368 . S
C648 C647 1.523 . S
H649 C624 0.950 . S
H650 C626 0.950 . S
H651 C627 0.949 . S
H652 C629 0.950 . S
H653 C631 0.950 . S
C654 C655 1.349 . S
C654 C656 1.327 . S
C654 H679 0.950 . S
C655 C654 1.349 . S
C655 C671 1.349 . S
C656 C654 1.327 . S
C656 C675 1.429 . S
C656 H680 0.950 . S
C657 C674 1.574 . S
C657 C676 1.368 . S
C657 H681 0.949 . S
H658 C662 0.949 . S
C659 C660 1.349 . S
C659 C661 1.327 . S
C659 H682 0.950 . S
C660 C659 1.349 . S
C660 C672 1.349 . S
C661 C659 1.327 . S
C661 C677 1.429 1_556 S
C661 H683 0.961 . S
C662 H658 0.949 . S
C662 C670 1.574 . S
C662 C678 1.368 . S
H663 C671 0.950 . S
H664 C669 0.950 . S
H665 C670 0.949 . S
H666 C672 0.950 . S
H667 C673 0.950 . S
H668 C674 0.949 . S
C669 H664 0.950 . S
C669 C671 1.327 . S
C669 C675 1.429 . S
C670 C662 1.574 . S
C670 H665 0.949 . S
C670 C676 1.368 . S
C671 C655 1.349 . S
C671 H663 0.950 . S
C671 C669 1.327 . S
C672 C660 1.349 . S
C672 H666 0.950 . S
C672 C673 1.327 1_556 S
C673 H667 0.950 . S
C673 C672 1.327 1_554 S
C673 C677 1.429 . S
C674 C657 1.574 . S
C674 H668 0.949 . S
C674 C678 1.368 . S
C675 C656 1.429 . S
C675 C669 1.429 . S
C675 C676 1.523 . S
C676 C657 1.368 . S
C676 C670 1.368 . S
C676 C675 1.523 . S
C677 C661 1.429 1_554 S
C677 C673 1.429 . S
C677 C678 1.523 . S
C678 C662 1.368 . S
C678 C674 1.368 . S
C678 C677 1.523 . S
H679 C654 0.950 . S
H680 C656 0.950 . S
H681 C657 0.949 . S
H682 C659 0.950 . S
H683 C661 0.961 . S
C684 C685 1.349 . S
C684 C686 1.327 . S
C684 H709 0.950 1_545 S
C685 C684 1.349 . S
C685 C701 1.349 . S
C686 C684 1.327 . S
C686 C705 1.429 . S
C686 H710 0.950 1_545 S
C687 C704 1.574 . S
C687 C706 1.368 . S
C687 H711 0.949 . S
H688 C692 0.949 1_565 S
C689 C690 1.349 . S
C689 C691 1.327 . S
C689 H712 0.950 . S
C690 C689 1.349 . S
C690 C702 1.349 . S
C691 C689 1.327 . S
C691 C707 1.429 . S
C691 H713 0.950 . S
C692 H688 0.949 1_545 S
C692 C700 1.574 . S
C692 C708 1.368 . S
H693 C701 0.950 . S
H694 C699 0.950 . S
H695 C700 0.949 1_565 S
H696 C702 0.950 . S
H697 C703 0.950 1_565 S
H698 C704 0.949 . S
C699 H694 0.950 . S
C699 C701 1.327 . S
C699 C705 1.429 . S
C700 C692 1.574 . S
C700 H695 0.949 1_545 S
C700 C706 1.368 . S
C701 C685 1.349 . S
C701 H693 0.950 . S
C701 C699 1.327 . S
C702 C690 1.349 . S
C702 H696 0.950 . S
C702 C703 1.327 . S
C703 H697 0.950 1_545 S
C703 C702 1.327 . S
C703 C707 1.429 . S
C704 C687 1.574 . S
C704 H698 0.949 . S
C704 C708 1.368 . S
C705 C686 1.429 . S
C705 C699 1.429 . S
C705 C706 1.523 . S
C706 C687 1.368 . S
C706 C700 1.368 . S
C706 C705 1.523 . S
C707 C691 1.429 . S
C707 C703 1.429 . S
C707 C708 1.523 . S
C708 C692 1.368 . S
C708 C704 1.368 . S
C708 C707 1.523 . S
H709 C684 0.950 1_565 S
H710 C686 0.950 1_565 S
H711 C687 0.949 . S
H712 C689 0.950 . S
H713 C691 0.950 . S
C714 C715 1.349 . S
C714 C716 1.327 . S
C714 H739 0.950 . S
C715 C714 1.349 . S
C715 C731 1.349 . S
C716 C714 1.327 . S
C716 C735 1.429 . S
C716 H740 0.950 . S
C717 C734 1.574 . S
C717 C736 1.368 . S
C717 H741 0.949 . S
H718 C722 0.949 . S
C719 C720 1.349 . S
C719 C721 1.327 . S
C719 H742 0.950 . S
C720 C719 1.349 . S
C720 C732 1.349 . S
C721 C719 1.327 . S
C721 C737 1.429 . S
C721 H743 0.950 . S
C722 H718 0.949 . S
C722 C730 1.574 . S
C722 C738 1.368 . S
H723 C731 0.950 . S
H724 C729 0.950 . S
H725 C730 0.949 . S
H726 C732 0.950 . S
H727 C733 0.950 . S
H728 C734 0.949 . S
C729 H724 0.950 . S
C729 C731 1.327 . S
C729 C735 1.429 . S
C730 C722 1.574 . S
C730 H725 0.949 . S
C730 C736 1.368 . S
C731 C715 1.349 . S
C731 H723 0.950 . S
C731 C729 1.327 . S
C732 C720 1.349 . S
C732 H726 0.950 . S
C732 C733 1.327 . S
C733 H727 0.950 . S
C733 C732 1.327 . S
C733 C737 1.429 . S
C734 C717 1.574 . S
C734 H728 0.949 . S
C734 C738 1.368 . S
C735 C716 1.429 . S
C735 C729 1.429 . S
C735 C736 1.523 . S
C736 C717 1.368 . S
C736 C730 1.368 . S
C736 C735 1.523 . S
C737 C721 1.429 . S
C737 C733 1.429 . S
C737 C738 1.523 . S
C738 C722 1.368 . S
C738 C734 1.368 . S
C738 C737 1.523 . S
H739 C714 0.950 . S
H740 C716 0.950 . S
H741 C717 0.949 . S
H742 C719 0.950 . S
H743 C721 0.950 . S
C744 C745 1.349 . S
C744 C746 1.322 1_545 S
C744 H769 0.950 1_545 S
C745 C744 1.349 . S
C745 C761 1.349 . S
C746 C744 1.322 1_565 S
C746 C765 1.411 1_565 S
C746 H770 0.973 . S
C747 C764 1.574 . S
C747 C766 1.368 . S
C747 H771 0.949 . S
H748 C752 0.949 . S
C749 C750 1.349 . S
C749 C751 1.327 . S
C749 H772 0.950 . S
C750 C749 1.349 . S
C750 C762 1.349 1_545 S
C751 C749 1.327 . S
C751 C767 1.429 . S
C751 H773 0.950 . S
C752 H748 0.949 . S
C752 C760 1.574 . S
C752 C768 1.368 1_565 S
H753 C761 0.950 . S
H754 C759 0.950 . S
H755 C760 0.949 . S
H756 C762 0.950 . S
H757 C763 0.950 . S
H758 C764 0.949 . S
C759 H754 0.950 . S
C759 C761 1.327 . S
C759 C765 1.429 . S
C760 C752 1.574 . S
C760 H755 0.949 . S
C760 C766 1.368 1_565 S
C761 C745 1.349 . S
C761 H753 0.950 . S
C761 C759 1.327 . S
C762 C750 1.349 1_565 S
C762 H756 0.950 . S
C762 C763 1.327 . S
C763 H757 0.950 . S
C763 C762 1.327 . S
C763 C767 1.429 1_565 S
C764 C747 1.574 . S
C764 H758 0.949 . S
C764 C768 1.368 . S
C765 C746 1.411 1_545 S
C765 C759 1.429 . S
C765 C766 1.523 . S
C766 C747 1.368 . S
C766 C760 1.368 1_545 S
C766 C765 1.523 . S
C767 C751 1.429 . S
C767 C763 1.429 1_545 S
C767 C768 1.523 . S
C768 C752 1.368 1_545 S
C768 C764 1.368 . S
C768 C767 1.523 . S
H769 C744 0.950 1_565 S
H770 C746 0.973 . S
H771 C747 0.949 . S
H772 C749 0.950 . S
H773 C751 0.950 . S
C774 C775 1.349 . S
C774 C776 1.327 . S
C774 H799 0.950 . S
C775 C774 1.349 . S
C775 C791 1.349 . S
C776 C774 1.327 . S
C776 C795 1.429 . S
C776 H800 0.950 . S
C777 C794 1.574 . S
C777 C796 1.368 . S
C777 H801 0.949 . S
H778 C782 0.949 . S
C779 C780 1.349 . S
C779 C781 1.270 1_554 S
C779 H802 0.950 . S
C780 C779 1.349 . S
C780 C792 1.349 . S
C781 C779 1.270 1_556 S
C781 C797 1.466 . S
C781 H803 0.972 . S
C782 H778 0.949 . S
C782 C790 1.574 . S
C782 C798 1.368 . S
H783 C791 0.950 . S
H784 C789 0.950 . S
H785 C790 0.949 . S
H786 C792 0.950 . S
H787 C793 0.950 . S
H788 C794 0.949 . S
C789 H784 0.950 . S
C789 C791 1.327 . S
C789 C795 1.429 . S
C790 C782 1.574 . S
C790 H785 0.949 . S
C790 C796 1.368 . S
C791 C775 1.349 . S
C791 H783 0.950 . S
C791 C789 1.327 . S
C792 C780 1.349 . S
C792 H786 0.950 . S
C792 C793 1.327 1_554 S
C793 H787 0.950 . S
C793 C792 1.327 1_556 S
C793 C797 1.429 . S
C794 C777 1.574 . S
C794 H788 0.949 . S
C794 C798 1.368 . S
C795 C776 1.429 . S
C795 C789 1.429 . S
C795 C796 1.523 . S
C796 C777 1.368 . S
C796 C790 1.368 . S
C796 C795 1.523 . S
C797 C781 1.466 . S
C797 C793 1.429 . S
C797 C798 1.523 . S
C798 C782 1.368 . S
C798 C794 1.368 . S
C798 C797 1.523 . S
H799 C774 0.950 . S
H800 C776 0.950 . S
H801 C777 0.949 . S
H802 C779 0.950 . S
H803 C781 0.972 . S
C804 C805 1.349 . S
C804 C806 1.327 . S
C804 H829 0.950 . S
C805 C804 1.349 . S
C805 C821 1.349 . S
C806 C804 1.327 . S
C806 C825 1.429 . S
C806 H830 0.950 . S
C807 C824 1.574 . S
C807 C826 1.368 . S
C807 H831 0.949 . S
H808 C812 0.949 . S
C809 C810 1.349 1_655 S
C809 C811 1.327 1_655 S
C809 H832 0.950 . S
C810 C809 1.349 1_455 S
C810 C822 1.349 . S
C811 C809 1.327 1_455 S
C811 C827 1.429 . S
C811 H833 0.949 1_455 S
C812 H808 0.949 . S
C812 C820 1.574 . S
C812 C828 1.368 . S
H813 C821 0.950 . S
H814 C819 0.950 . S
H815 C820 0.949 . S
H816 C822 0.950 . S
H817 C823 0.950 . S
H818 C824 0.949 . S
C819 H814 0.950 . S
C819 C821 1.327 . S
C819 C825 1.429 . S
C820 C812 1.574 . S
C820 H815 0.949 . S
C820 C826 1.368 . S
C821 C805 1.349 . S
C821 H813 0.950 . S
C821 C819 1.327 . S
C822 C810 1.349 . S
C822 H816 0.950 . S
C822 C823 1.327 . S
C823 H817 0.950 . S
C823 C822 1.327 . S
C823 C827 1.429 . S
C824 C807 1.574 . S
C824 H818 0.949 . S
C824 C828 1.368 . S
C825 C806 1.429 . S
C825 C819 1.429 . S
C825 C826 1.523 . S
C826 C807 1.368 . S
C826 C820 1.368 . S
C826 C825 1.523 . S
C827 C811 1.429 . S
C827 C823 1.429 . S
C827 C828 1.523 . S
C828 C812 1.368 . S
C828 C824 1.368 . S
C828 C827 1.523 . S
H829 C804 0.950 . S
H830 C806 0.950 . S
H831 C807 0.949 . S
H832 C809 0.950 . S
H833 C811 0.949 1_655 S
C295 C8 2.012 . S
C300 C271 2.068 . S
C325 C26 1.288 . S
C330 C198 1.290 . S
C355 C48 1.451 . S
C360 C237 1.486 . S
C385 C19 1.730 . S
C390 C276 1.775 . S
C420 C193 1.489 . S
C415 C36 1.479 . S
C450 C232 1.722 . S
C445 C59 1.668 . S
C475 C28 1.476 . S
C480 C120 1.518 . S
C505 C46 1.222 . S
C510 C154 1.226 . S
C535 C16 1.563 . S
C540 C76 1.574 . S
C570 C115 1.675 . S
C565 C39 1.632 . S
C600 C159 0.956 . S
C595 C56 0.948 . S
C625 C6 1.323 . S
C630 C81 1.318 . S
C660 C139 1.430 . S
C655 C9 1.399 . S
C685 C21 1.492 . S
C690 C61 1.507 . S
C715 C49 1.471 . S
C720 C100 1.488 . S
C750 C217 1.467 . S
C745 C29 1.456 . S
C780 C256 1.590 . S
C775 C41 1.573 . S
C805 C1 1.495 . S
C810 C178 1.508 1_455 S
