# Generated by pormake.
# Topology zzz, (3,6)-cn, num edge types: 1
# Building blocks:
#     Node 0, Type 0, BuildingBlock: PAMTOO_clean_linker_0, # of connection points: 3
#     Node 1, Type 0, BuildingBlock: PAMTOO_clean_linker_0, # of connection points: 3
#     Node 2, Type 0, BuildingBlock: PAMTOO_clean_linker_0, # of connection points: 3
#     Node 3, Type 0, BuildingBlock: PAMTOO_clean_linker_0, # of connection points: 3
#     Node 4, Type 0, BuildingBlock: PAMTOO_clean_linker_0, # of connection points: 3
#     Node 5, Type 0, BuildingBlock: PAMTOO_clean_linker_0, # of connection points: 3
#     Node 6, Type 0, BuildingBlock: PAMTOO_clean_linker_0, # of connection points: 3
#     Node 7, Type 0, BuildingBlock: PAMTOO_clean_linker_0, # of connection points: 3
#     Node 8, Type 1, BuildingBlock: BETDAH_clean_sbu_0, # of connection points: 6
#     Node 9, Type 1, BuildingBlock: BETDAH_clean_sbu_0, # of connection points: 6
#     Node 10, Type 1, BuildingBlock: BETDAH_clean_sbu_0, # of connection points: 6
#     Node 11, Type 1, BuildingBlock: BETDAH_clean_sbu_0, # of connection points: 6
#     Edge 12, Type (0, 1), BuildingBlock: MIFKUJ_clean_linker_0, # of connection points: 2
#     Edge 13, Type (0, 1), BuildingBlock: MIFKUJ_clean_linker_0, # of connection points: 2
#     Edge 14, Type (0, 1), BuildingBlock: MIFKUJ_clean_linker_0, # of connection points: 2
#     Edge 15, Type (0, 1), BuildingBlock: MIFKUJ_clean_linker_0, # of connection points: 2
#     Edge 16, Type (0, 1), BuildingBlock: MIFKUJ_clean_linker_0, # of connection points: 2
#     Edge 17, Type (0, 1), BuildingBlock: MIFKUJ_clean_linker_0, # of connection points: 2
#     Edge 18, Type (0, 1), BuildingBlock: MIFKUJ_clean_linker_0, # of connection points: 2
#     Edge 19, Type (0, 1), BuildingBlock: MIFKUJ_clean_linker_0, # of connection points: 2
#     Edge 20, Type (0, 1), BuildingBlock: MIFKUJ_clean_linker_0, # of connection points: 2
#     Edge 21, Type (0, 1), BuildingBlock: MIFKUJ_clean_linker_0, # of connection points: 2
#     Edge 22, Type (0, 1), BuildingBlock: MIFKUJ_clean_linker_0, # of connection points: 2
#     Edge 23, Type (0, 1), BuildingBlock: MIFKUJ_clean_linker_0, # of connection points: 2
#     Edge 24, Type (0, 1), BuildingBlock: MIFKUJ_clean_linker_0, # of connection points: 2
#     Edge 25, Type (0, 1), BuildingBlock: MIFKUJ_clean_linker_0, # of connection points: 2
#     Edge 26, Type (0, 1), BuildingBlock: MIFKUJ_clean_linker_0, # of connection points: 2
#     Edge 27, Type (0, 1), BuildingBlock: MIFKUJ_clean_linker_0, # of connection points: 2
#     Edge 28, Type (0, 1), BuildingBlock: MIFKUJ_clean_linker_0, # of connection points: 2
#     Edge 29, Type (0, 1), BuildingBlock: MIFKUJ_clean_linker_0, # of connection points: 2
#     Edge 30, Type (0, 1), BuildingBlock: MIFKUJ_clean_linker_0, # of connection points: 2
#     Edge 31, Type (0, 1), BuildingBlock: MIFKUJ_clean_linker_0, # of connection points: 2
#     Edge 32, Type (0, 1), BuildingBlock: MIFKUJ_clean_linker_0, # of connection points: 2
#     Edge 33, Type (0, 1), BuildingBlock: MIFKUJ_clean_linker_0, # of connection points: 2
#     Edge 34, Type (0, 1), BuildingBlock: MIFKUJ_clean_linker_0, # of connection points: 2
#     Edge 35, Type (0, 1), BuildingBlock: MIFKUJ_clean_linker_0, # of connection points: 2
# Relax obj value: 0.225
# Max RMSD: 0.175
# Mean RMSD: 0.160
data_MOF--net-zzz--node1-BETDAH_clean_sbu_0--node2-PAMTOO_clean_linker_0--edge1-MIFKUJ_clean_linker_0
_symmetry_space_group_name_H-M    P1
_symmetry_Int_Tables_number       1
_symmetry_cell_setting            triclinic
loop_
_symmetry_equiv_pos_as_xyz
'x, y, z'
_cell_length_a     68.378779
_cell_length_b     68.333939
_cell_length_c     17.077084
_cell_angle_alpha  89.878503
_cell_angle_beta   90.125473
_cell_angle_gamma 89.948247
loop_
_atom_site_label
_atom_site_type_symbol
_atom_site_fract_x
_atom_site_fract_y
_atom_site_fract_z
_atom_type_partial_charge
H0 H 0.79274 0.48848 0.23012 0.0
H1 H 0.73815 0.50565 0.12657 0.0
H2 H 0.75617 0.53093 0.34597 0.0
H3 H 0.70492 0.53319 0.30914 0.0
C4 C 0.71018 0.52316 0.26265 0.0
O5 O 0.72818 0.52988 0.23633 0.0
H6 H 0.71176 0.50843 0.29014 0.0
C7 C 0.77916 0.49665 0.23426 0.0
C8 C 0.77624 0.50953 0.2972 0.0
C9 C 0.76557 0.4952 0.17306 0.0
C10 C 0.7485 0.50643 0.17464 0.0
C11 C 0.74479 0.51894 0.23757 0.0
C12 C 0.7588 0.52077 0.29856 0.0
H13 H 0.9956 0.80607 0.26989 0.0
H14 H 0.99522 0.7497 0.15968 0.0
H15 H 1.00238 0.75415 0.41031 0.0
H16 H 0.02298 0.71452 0.32705 0.0
C17 C 0.01584 0.71863 0.27085 0.0
O18 O 0.99914 0.72942 0.288 0.0
H19 H 0.02653 0.72766 0.23752 0.0
C20 C 0.99589 0.79022 0.27476 0.0
C21 C 0.99879 0.78175 0.34836 0.0
C22 C 0.99469 0.77882 0.20685 0.0
C23 C 0.99583 0.75846 0.21235 0.0
C24 C 0.99845 0.74935 0.28527 0.0
C25 C 1.0001 0.76106 0.3539 0.0
H26 H 0.7263 0.98529 0.21806 0.0
H27 H 0.78799 0.98829 0.17549 0.0
H28 H 0.76446 0.01125 0.3902 0.0
H29 H 0.81139 0.02975 0.33331 0.0
C30 C 0.80665 0.02116 0.28148 0.0
O31 O 0.79702 1.00451 0.3076 0.0
H32 H 0.79656 0.03089 0.24789 0.0
C33 C 0.7408 0.98926 0.23812 0.0
C34 C 0.74298 0.99878 0.3106 0.0
C35 C 0.75678 0.98584 0.18846 0.0
C36 C 0.77558 0.99081 0.21351 0.0
C37 C 0.77847 0.99978 0.28611 0.0
C38 C 0.76217 1.00386 0.33491 0.0
H39 H 0.50016 0.73712 0.27641 0.0
H40 H 0.50965 0.79488 0.18516 0.0
H41 H 0.52086 0.78255 0.42914 0.0
H42 H 0.50916 0.83135 0.3835 0.0
C43 C 0.50829 0.82581 0.32247 0.0
O44 O 0.52128 0.81022 0.31571 0.0
H45 H 0.49296 0.82087 0.31271 0.0
C46 C 0.50394 0.75235 0.28592 0.0
C47 C 0.51009 0.75805 0.36039 0.0
C48 C 0.5037 0.76542 0.22276 0.0
C49 C 0.50958 0.78478 0.23409 0.0
C50 C 0.51542 0.79126 0.30823 0.0
C51 C 0.51588 0.77779 0.37207 0.0
H52 H 0.22585 0.49373 0.15113 0.0
H53 H 0.28622 0.49677 0.22055 0.0
H54 H 0.26826 0.51878 0.99512 0.0
H55 H 0.3181 0.50552 0.01642 0.0
C56 C 0.31409 0.50302 0.07867 0.0
O57 O 0.29815 0.51484 0.09596 0.0
H58 H 0.31029 0.48725 0.0851 0.0
C59 C 0.24098 0.49702 0.13752 0.0
C60 C 0.24518 0.50602 0.06577 0.0
C61 C 0.25561 0.49355 0.19378 0.0
C62 C 0.27487 0.49904 0.17719 0.0
C63 C 0.27964 0.50797 0.10587 0.0
C64 C 0.26476 0.51131 0.0493 0.0
H65 H 0.02227 0.23462 0.17671 0.0
H66 H 0.01305 0.29523 0.22908 0.0
H67 H 0.01429 0.27616 0.98867 0.0
H68 H 0.02588 0.32793 0.02552 0.0
C69 C 0.02534 0.32126 0.08487 0.0
O70 O 0.01084 0.30703 0.08525 0.0
H71 H 0.04004 0.31464 0.09484 0.0
C72 C 0.02046 0.24953 0.15591 0.0
C73 C 0.01873 0.25314 0.07514 0.0
C74 C 0.0186 0.26462 0.2111 0.0
C75 C 0.01503 0.2837 0.18631 0.0
C76 C 0.01407 0.2881 0.10651 0.0
C77 C 0.01562 0.27279 0.05043 0.0
H78 H 0.29952 0.9988 0.1752 0.0
H79 H 0.24053 0.9989 0.26247 0.0
H80 H 0.25543 0.03334 0.05961 0.0
H81 H 0.21999 0.05197 0.16535 0.0
C82 C 0.21976 0.03861 0.2026 0.0
O83 O 0.22678 0.02309 0.1584 0.0
H84 H 0.22944 0.0414 0.25392 0.0
C85 C 0.28443 1.00358 0.17055 0.0
C86 C 0.27925 0.01652 0.11031 0.0
C87 C 0.27064 0.99705 0.22552 0.0
C88 C 0.25131 1.0038 0.22042 0.0
C89 C 0.24571 0.01695 0.16137 0.0
C90 C 0.25971 0.02327 0.10561 0.0
H91 H 0.53382 0.30043 0.1619 0.0
H92 H 0.52844 0.23919 0.21464 0.0
H93 H 0.5019 0.26262 0.00554 0.0
H94 H 0.48195 0.21664 0.07884 0.0
C95 C 0.49171 0.22204 0.12615 0.0
O96 O 0.50815 0.23032 0.09188 0.0
H97 H 0.48312 0.23329 0.15846 0.0
C98 C 0.52861 0.286 0.14572 0.0
C99 C 0.51747 0.2838 0.07704 0.0
C100 C 0.53257 0.27008 0.19553 0.0
C101 C 0.52562 0.25151 0.1761 0.0
C102 C 0.51459 0.24869 0.10813 0.0
C103 C 0.51056 0.26482 0.05793 0.0
Ho104 Ho 0.01994 0.01178 0.78113 0.0
Ho105 Ho 0.99679 0.02135 0.63233 0.0
C106 C 1.00613 0.97554 0.67476 0.0
C107 C 0.03573 1.00737 0.91719 0.0
C108 C 0.04736 0.99144 0.95025 0.0
C109 C 0.04847 0.98906 0.03151 0.0
C110 C 0.0547 0.97124 0.06289 0.0
C111 C 0.05957 0.95562 0.013 0.0
C112 C 0.06069 0.95895 0.93195 0.0
C113 C 0.05452 0.97676 0.90072 0.0
C114 C 0.04144 0.01277 0.64836 0.0
C115 C 1.00803 0.05746 0.74588 0.0
C116 C 0.98863 0.02993 0.48898 0.0
C117 C 0.99256 0.04762 0.44314 0.0
C118 C 0.01057 0.05725 0.45079 0.0
C119 C 0.01224 0.07689 0.43007 0.0
C120 C 0.99585 0.08715 0.40211 0.0
C121 C 0.97842 0.07699 0.38697 0.0
C122 C 0.97682 0.05727 0.40706 0.0
C123 C 0.97054 0.01349 0.7489 0.0
O124 O 0.01231 0.98085 0.7453 0.0
O125 O 1.0009 0.98851 0.62079 0.0
O126 O 0.04399 0.01716 0.86037 0.0
O127 O 0.01755 1.00268 0.90175 0.0
O128 O 0.04351 1.0 0.70384 0.0
O129 O 0.02795 0.02476 0.66628 0.0
O130 O 1.00172 0.05239 0.67526 0.0
O131 O 0.0142 0.04418 0.79689 0.0
O132 O 0.97663 0.0329 0.54719 0.0
O133 O 1.00372 0.01911 0.50888 0.0
O134 O 0.96596 0.01779 0.67745 0.0
O135 O 0.98898 0.01327 0.75365 0.0
H136 H 0.04304 1.00034 0.07034 0.0
H137 H 0.05388 0.96903 0.12565 0.0
H138 H 0.06419 0.94716 0.89201 0.0
H139 H 0.05371 0.97839 0.83768 0.0
H140 H 0.02288 0.05014 0.47876 0.0
H141 H 0.02583 0.08442 0.44238 0.0
H142 H 0.96569 0.0846 0.36436 0.0
H143 H 0.96279 0.05006 0.40091 0.0
Ho144 Ho 0.51627 0.03016 0.76999 0.0
Ho145 Ho 0.50347 1.00906 0.63361 0.0
C146 C 0.54837 0.01599 0.64168 0.0
C147 C 0.53698 0.03934 0.89004 0.0
C148 C 0.55704 0.03242 0.90586 0.0
C149 C 0.56161 0.01242 0.89835 0.0
C150 C 0.58103 1.00629 0.89413 0.0
C151 C 0.59629 0.02001 0.89684 0.0
C152 C 0.59173 0.03986 0.90919 0.0
C153 C 0.57226 0.04601 0.9136 0.0
C154 C 0.5052 0.05473 0.65268 0.0
C155 C 0.47063 0.02382 0.76201 0.0
C156 C 0.48419 0.99559 0.51572 0.0
C157 C 0.46456 0.9866 0.51423 0.0
C158 C 0.44824 0.99701 0.54192 0.0
C159 C 0.43038 0.98761 0.55242 0.0
C160 C 0.42835 0.96769 0.53481 0.0
C161 C 0.44432 0.95743 0.50354 0.0
C162 C 0.46235 0.9668 0.49381 0.0
C163 C 0.51449 0.98506 0.75372 0.0
O164 O 0.54444 0.01808 0.71701 0.0
O165 O 0.53385 0.01509 0.59106 0.0
O166 O 0.53531 0.05075 0.82893 0.0
O167 O 0.52325 0.02606 0.8926 0.0
O168 O 0.50151 0.05745 0.7264 0.0
O169 O 0.51504 0.03912 0.64448 0.0
O170 O 0.47443 0.01653 0.6918 0.0
O171 O 0.48495 0.02966 0.80828 0.0
O172 O 0.4976 0.98547 0.5524 0.0
O173 O 0.48496 0.01423 0.53289 0.0
O174 O 0.51881 0.98217 0.68087 0.0
O175 O 0.50432 1.00043 0.75893 0.0
H176 H 0.55023 1.00156 0.89094 0.0
H177 H 0.58401 0.99094 0.88399 0.0
H178 H 0.60321 0.05073 0.91339 0.0
H179 H 0.56909 0.06149 0.91884 0.0
H180 H 0.44934 0.0123 0.55785 0.0
H181 H 0.41808 0.99597 0.57442 0.0
H182 H 0.44294 0.94211 0.48831 0.0
H183 H 0.47471 0.95847 0.47241 0.0
Ho184 Ho 0.50357 0.52354 0.74354 0.0
Ho185 Ho 0.52425 0.51127 0.59055 0.0
C186 C 0.51335 0.55641 0.60793 0.0
C187 C 0.49726 0.54006 0.87537 0.0
C188 C 0.48809 0.55921 0.88492 0.0
C189 C 0.49236 0.57067 0.95056 0.0
C190 C 0.48882 0.5908 0.94826 0.0
C191 C 0.48132 0.59949 0.87988 0.0
C192 C 0.47569 0.58781 0.81668 0.0
C193 C 0.47889 0.56772 0.81949 0.0
C194 C 0.4761 0.51985 0.62768 0.0
C195 C 0.51179 0.47757 0.7221 0.0
C196 C 0.53556 0.49303 0.4669 0.0
C197 C 0.54001 0.47201 0.45703 0.0
C198 C 0.52485 0.45866 0.4421 0.0
C199 C 0.52806 0.43863 0.45033 0.0
C200 C 0.54652 0.43157 0.47295 0.0
C201 C 0.5621 0.44473 0.4814 0.0
C202 C 0.55888 0.46481 0.47338 0.0
C203 C 0.54797 0.52272 0.70968 0.0
O204 O 0.51088 0.5525 0.68359 0.0
O205 O 0.5164 0.54222 0.55657 0.0
O206 O 0.48589 0.52623 0.84785 0.0
O207 O 0.51417 0.541 0.83952 0.0
O208 O 0.47219 0.52424 0.69962 0.0
O209 O 0.49431 0.51729 0.6233 0.0
O210 O 0.51839 0.4817 0.65046 0.0
O211 O 0.50611 0.49151 0.77076 0.0
O212 O 0.54752 0.50276 0.51222 0.0
O213 O 0.51723 0.49738 0.48048 0.0
O214 O 0.55067 0.52736 0.63672 0.0
O215 O 0.53288 0.51214 0.71519 0.0
H216 H 0.49978 0.56437 1.00076 0.0
H217 H 0.49346 0.59979 0.99709 0.0
H218 H 0.47012 0.59438 0.76327 0.0
H219 H 0.47579 0.55915 0.76771 0.0
H220 H 0.51022 0.46368 0.42811 0.0
H221 H 0.51593 0.42868 0.44147 0.0
H222 H 0.5765 0.43959 0.49831 0.0
H223 H 0.57094 0.47472 0.48427 0.0
Ho224 Ho 1.00417 0.50659 0.76135 0.0
Ho225 Ho 0.01517 0.52753 0.62278 0.0
C226 C 0.96999 0.51873 0.63427 0.0
C227 C 0.98576 0.49352 0.88133 0.0
C228 C 0.96665 0.48366 0.88175 0.0
C229 C 0.95136 0.49166 0.92585 0.0
C230 C 0.93221 0.48534 0.91395 0.0
C231 C 0.92809 0.47081 0.85823 0.0
C232 C 0.94345 0.46203 0.81712 0.0
C233 C 0.9626 0.46854 0.8282 0.0
C234 C 0.01429 0.48225 0.64199 0.0
C235 C 0.04881 0.5154 0.74972 0.0
C236 C 0.03369 0.53929 0.50019 0.0
C237 C 0.05492 0.54109 0.49026 0.0
C238 C 0.06392 0.53288 0.42437 0.0
C239 C 0.08416 0.53008 0.42335 0.0
C240 C 0.0956 0.53538 0.4885 0.0
C241 C 0.08668 0.54476 0.55212 0.0
C242 C 0.06652 0.54757 0.55308 0.0
C243 C 1.00477 0.55175 0.74212 0.0
O244 O 0.97437 0.5133 0.70673 0.0
O245 O 0.98399 0.52363 0.585 0.0
O246 O 1.00021 0.484 0.84884 0.0
O247 O 0.98507 0.51188 0.85969 0.0
O248 O 0.01929 0.47975 0.71448 0.0
O249 O 1.00392 0.49752 0.63629 0.0
O250 O 0.04455 0.51766 0.67457 0.0
O251 O 0.03456 0.51393 0.80114 0.0
O252 O 0.0256 0.55129 0.55 0.0
O253 O 0.02763 0.52132 0.50923 0.0
O254 O 0.99962 0.55413 0.6696 0.0
O255 O 0.01533 0.5366 0.74795 0.0
H256 H 0.95412 0.50347 0.96668 0.0
H257 H 0.92053 0.49206 0.94727 0.0
H258 H 0.94054 0.45076 0.77413 0.0
H259 H 0.97405 0.46232 0.79226 0.0
H260 H 0.05518 0.52751 0.37596 0.0
H261 H 0.09066 0.52268 0.37377 0.0
H262 H 0.0952 0.54921 0.6026 0.0
H263 H 0.05994 0.55375 0.60514 0.0
H264 H 0.20456 1.00518 0.27189 0.0
H265 H 0.17268 1.00107 0.33569 0.0
H266 H 0.15714 0.06019 0.27227 0.0
H267 H 0.189 0.06433 0.20913 0.0
H268 H 0.14837 0.05378 0.4213 0.0
H269 H 0.13615 0.0198 0.18086 0.0
H270 H 0.14209 0.99554 0.07686 0.0
H271 H 0.13689 0.94889 0.24435 0.0
H272 H 0.13118 0.97289 0.34961 0.0
H273 H 0.05038 0.04608 0.56295 0.0
H274 H 0.07825 0.05083 0.47406 0.0
H275 H 0.09632 0.99115 0.51483 0.0
H276 H 0.0682 0.98622 0.60017 0.0
H277 H 0.10267 0.99901 0.36947 0.0
H278 H 0.11746 0.03239 0.61075 0.0
H279 H 0.11182 0.05615 0.71688 0.0
H280 H 0.11281 0.10332 0.55037 0.0
H281 H 0.11822 0.07979 0.44309 0.0
C282 C 0.19418 0.01714 0.2701 0.0
C283 C 0.19918 0.03491 0.23351 0.0
C284 C 0.17591 0.0148 0.30677 0.0
C285 C 0.16223 0.03024 0.30836 0.0
C286 C 0.16727 0.04799 0.27183 0.0
C287 C 0.18547 0.05029 0.23508 0.0
C288 C 0.14308 0.02824 0.35072 0.0
C289 C 0.13826 0.04196 0.40893 0.0
C290 C 0.12991 0.01262 0.33638 0.0
C291 C 0.13342 0.99816 0.27325 0.0
C292 C 0.13643 1.00438 0.19565 0.0
C293 C 0.13973 0.99067 0.13644 0.0
C294 C 0.13991 0.97069 0.15402 0.0
C295 C 0.13677 0.96438 0.23084 0.0
C296 C 0.13348 0.97802 0.29028 0.0
C297 C 0.06002 0.03387 0.55116 0.0
C298 C 0.05694 0.01574 0.58819 0.0
C299 C 0.07617 0.03665 0.50123 0.0
C300 C 0.08977 0.02144 0.48822 0.0
C301 C 0.08623 1.00318 0.5234 0.0
C302 C 0.0701 1.00039 0.57261 0.0
C303 C 0.10803 0.02446 0.44056 0.0
C304 C 0.11271 0.01091 0.38145 0.0
C305 C 0.12115 0.04016 0.45444 0.0
C306 C 0.11802 0.05432 0.51885 0.0
C307 C 0.11634 0.04782 0.59674 0.0
C308 C 0.11321 0.06124 0.65709 0.0
C309 C 0.1119 0.08123 0.64035 0.0
C310 C 0.11379 0.08783 0.56323 0.0
C311 C 0.1169 0.07446 0.50264 0.0
H312 H 0.10947 0.0916 0.68715 0.0
H313 H 0.14246 0.96011 0.1081 0.0
H314 H 0.48837 0.21969 0.28679 0.0
H315 H 0.49265 0.19105 0.37143 0.0
H316 H 0.51094 0.15698 0.17218 0.0
H317 H 0.50606 0.18563 0.08697 0.0
H318 H 0.48665 0.13602 0.25354 0.0
H319 H 0.54331 0.17264 0.32218 0.0
H320 H 0.5621 0.20166 0.36322 0.0
H321 H 0.53093 0.203 0.58113 0.0
H322 H 0.51171 0.17417 0.54087 0.0
H323 H 0.51657 0.05459 0.49753 0.0
H324 H 0.51637 0.08223 0.40486 0.0
H325 H 0.49195 0.11945 0.58322 0.0
H326 H 0.49204 0.09201 0.67533 0.0
H327 H 0.52168 0.13786 0.50793 0.0
H328 H 0.46395 0.10193 0.43313 0.0
H329 H 0.44558 0.07283 0.39002 0.0
H330 H 0.48029 0.06985 0.18112 0.0
H331 H 0.49907 0.09878 0.22359 0.0
C332 C 0.49355 0.20616 0.26118 0.0
C333 C 0.4969 0.20496 0.18006 0.0
C334 C 0.49607 0.18973 0.30979 0.0
C335 C 0.50231 0.17166 0.27896 0.0
C336 C 0.50609 0.1706 0.19798 0.0
C337 C 0.50346 0.18704 0.14924 0.0
C338 C 0.50414 0.15381 0.33058 0.0
C339 C 0.49463 0.1364 0.30845 0.0
C340 C 0.51426 0.15411 0.40329 0.0
C341 C 0.52594 0.17133 0.42816 0.0
C342 C 0.54036 0.1792 0.37863 0.0
C343 C 0.5511 0.19561 0.40178 0.0
C344 C 0.54768 0.2042 0.47465 0.0
C345 C 0.53355 0.19635 0.52464 0.0
C346 C 0.52274 0.17996 0.50172 0.0
C347 C 0.51104 0.06864 0.51675 0.0
C348 C 0.50431 0.07102 0.59401 0.0
C349 C 0.51092 0.08447 0.46366 0.0
C350 C 0.50411 0.10308 0.48661 0.0
C351 C 0.49736 0.10538 0.56373 0.0
C352 C 0.49733 0.08958 0.61642 0.0
C353 C 0.50403 0.12023 0.43111 0.0
C354 C 0.51385 0.13749 0.45264 0.0
C355 C 0.49436 0.11974 0.35761 0.0
C356 C 0.48306 0.10238 0.33198 0.0
C357 C 0.46778 0.09496 0.37833 0.0
C358 C 0.45727 0.07852 0.35395 0.0
C359 C 0.4618 0.06946 0.28299 0.0
C360 C 0.47682 0.07686 0.23615 0.0
C361 C 0.4874 0.09328 0.26033 0.0
H362 H 0.45364 0.05674 0.2642 0.0
H363 H 0.556 0.21691 0.49243 0.0
H364 H 0.31504 0.51505 0.23478 0.0
H365 H 0.34348 0.51831 0.3207 0.0
H366 H 0.38147 0.503 0.1291 0.0
H367 H 0.35291 0.49912 0.04357 0.0
H368 H 0.39333 0.48449 0.25458 0.0
H369 H 0.3769 0.55138 0.20094 0.0
H370 H 0.35553 0.58041 0.19253 0.0
H371 H 0.34497 0.5773 0.44002 0.0
H372 H 0.36608 0.54809 0.44976 0.0
H373 H 0.48063 0.51153 0.46946 0.0
H374 H 0.45464 0.50945 0.36956 0.0
H375 H 0.41145 0.52238 0.54577 0.0
H376 H 0.43712 0.52459 0.64435 0.0
H377 H 0.40391 0.54314 0.41967 0.0
H378 H 0.41884 0.47541 0.47215 0.0
H379 H 0.44033 0.44649 0.4816 0.0
H380 H 0.45386 0.45138 0.23692 0.0
H381 H 0.43264 0.48051 0.22626 0.0
C382 C 0.32941 0.51254 0.21057 0.0
C383 C 0.33164 0.50721 0.13147 0.0
C384 C 0.34577 0.5145 0.2599 0.0
C385 C 0.36484 0.51122 0.23158 0.0
C386 C 0.36704 0.50573 0.15277 0.0
C387 C 0.35068 0.50368 0.1036 0.0
C388 C 0.38238 0.51311 0.28434 0.0
C389 C 0.39577 0.49748 0.28967 0.0
C390 C 0.38561 0.52985 0.33158 0.0
C391 C 0.37294 0.54744 0.32593 0.0
C392 C 0.36991 0.5568 0.25348 0.0
C393 C 0.35786 0.5733 0.24849 0.0
C394 C 0.34886 0.58066 0.31566 0.0
C395 C 0.35193 0.57157 0.38802 0.0
C396 C 0.36396 0.55505 0.39332 0.0
C397 C 0.46559 0.51381 0.48668 0.0
C398 C 0.46098 0.51811 0.56501 0.0
C399 C 0.4507 0.5126 0.4296 0.0
C400 C 0.43092 0.51564 0.44984 0.0
C401 C 0.42648 0.52002 0.52808 0.0
C402 C 0.44125 0.5212 0.58468 0.0
C403 C 0.41468 0.51445 0.39064 0.0
C404 C 0.40154 0.53022 0.38411 0.0
C405 C 0.41169 0.49785 0.34245 0.0
C406 C 0.42433 0.48027 0.34862 0.0
C407 C 0.42652 0.47041 0.4205 0.0
C408 C 0.43863 0.45397 0.42606 0.0
C409 C 0.44851 0.44714 0.35997 0.0
C410 C 0.44623 0.45671 0.28811 0.0
C411 C 0.43416 0.47318 0.28226 0.0
H412 H 0.45789 0.43442 0.36439 0.0
H413 H 0.33954 0.59344 0.31168 0.0
H414 H 0.03869 0.32334 0.2372 0.0
H415 H 0.0355 0.3504 0.33048 0.0
H416 H 1.00064 0.38239 0.1628 0.0
H417 H 1.00394 0.3553 0.06932 0.0
H418 H 0.02764 0.40609 0.22542 0.0
H419 H 0.98046 0.36121 0.32845 0.0
H420 H 0.96843 0.3295 0.37776 0.0
H421 H 0.0101 0.33144 0.56604 0.0
H422 H 0.0226 0.36303 0.51714 0.0
H423 H 0.99852 0.48158 0.49332 0.0
H424 H 0.99907 0.45451 0.39887 0.0
H425 H 0.03294 0.41982 0.56117 0.0
H426 H 0.03218 0.44667 0.65569 0.0
H427 H 1.00534 0.39774 0.49956 0.0
H428 H 0.05322 0.44188 0.39554 0.0
H429 H 0.06547 0.47364 0.34747 0.0
H430 H 0.02301 0.47299 0.1619 0.0
H431 H 0.01027 0.44137 0.20965 0.0
C432 C 0.03012 0.33603 0.2207 0.0
C433 C 0.02161 0.33716 0.14572 0.0
C434 C 0.02829 0.35155 0.27413 0.0
C435 C 0.01777 0.36861 0.2543 0.0
C436 C 1.0089 0.36954 0.17987 0.0
C437 C 0.01069 0.35398 0.12653 0.0
C438 C 0.01645 0.38559 0.31015 0.0
C439 C 0.02246 0.40427 0.28499 0.0
C440 C 0.01016 0.38335 0.3888 0.0
C441 C 1.0026 0.36441 0.41864 0.0
C442 C 0.98717 0.3548 0.38001 0.0
C443 C 0.98025 0.33686 0.40794 0.0
C444 C 0.98854 0.32843 0.47486 0.0
C445 C 1.00372 0.33797 0.51413 0.0
C446 C 0.01072 0.3559 0.48636 0.0
C447 C 1.00617 0.46822 0.50862 0.0
C448 C 0.01533 0.46634 0.58216 0.0
C449 C 1.00653 0.45271 0.45442 0.0
C450 C 0.01617 0.43498 0.47213 0.0
C451 C 0.02534 0.4332 0.54562 0.0
C452 C 0.02498 0.44866 0.59967 0.0
C453 C 0.0166 0.41823 0.41497 0.0
C454 C 0.01045 0.39957 0.43991 0.0
C455 C 0.02283 0.42048 0.33624 0.0
C456 C 0.03064 0.43936 0.30673 0.0
C457 C 0.04639 0.44857 0.34481 0.0
C458 C 0.05344 0.46654 0.3176 0.0
C459 C 0.04496 0.47536 0.25189 0.0
C460 C 0.02951 0.46617 0.21295 0.0
C461 C 0.02238 0.44822 0.24004 0.0
H462 H 0.05039 0.4893 0.23107 0.0
H463 H 0.98316 0.31454 0.49638 0.0
H464 H 0.80907 0.01842 0.12087 0.0
H465 H 0.83822 0.01356 0.03987 0.0
H466 H 0.8735 1.00767 0.2483 0.0
H467 H 0.84428 0.01284 0.32935 0.0
H468 H 0.89146 0.03118 0.14677 0.0
H469 H 0.86205 0.9678 0.12924 0.0
H470 H 0.83535 0.9443 0.10555 0.0
H471 H 0.8307 0.96402 0.86734 0.0
H472 H 0.85719 0.98784 0.88989 0.0
H473 H 0.9757 1.00789 0.9095 0.0
H474 H 0.94979 1.00493 0.00931 0.0
H475 H 0.90593 1.00982 0.82837 0.0
H476 H 0.93141 0.01233 0.72998 0.0
H477 H 0.89435 0.98362 0.92824 0.0
H478 H 0.92145 0.04819 0.94608 0.0
H479 H 0.94822 0.07165 0.9651 0.0
H480 H 0.95621 0.05124 0.20115 0.0
H481 H 0.93005 0.02683 0.18193 0.0
C482 C 0.82301 0.01587 0.14934 0.0
C483 C 0.82438 0.0161 0.23153 0.0
C484 C 0.83972 0.01304 0.10298 0.0
C485 C 0.85824 0.01012 0.13753 0.0
C486 C 0.85951 1.00993 0.21982 0.0
C487 C 0.84278 0.01277 0.26621 0.0
C488 C 0.87624 1.00787 0.0878 0.0
C489 C 0.89221 0.0205 0.09997 0.0
C490 C 0.87729 0.99421 0.02551 0.0
C491 C 0.86152 0.97971 0.01146 0.0
C492 C 0.85526 0.96721 0.07193 0.0
C493 C 0.84017 0.95382 0.05869 0.0
C494 C 0.83131 0.95269 0.98503 0.0
C495 C 0.83757 0.96491 0.92438 0.0
C496 C 0.85264 0.97835 0.93733 0.0
C497 C 0.96053 1.00812 0.89129 0.0
C498 C 0.95568 0.01042 0.81169 0.0
C499 C 0.94568 1.00652 0.94836 0.0
C500 C 0.92571 1.00732 0.92692 0.0
C501 C 0.92106 1.00908 0.84713 0.0
C502 C 0.93576 0.01063 0.79065 0.0
C503 C 0.90944 1.00716 0.98621 0.0
C504 C 0.89374 0.9941 0.97579 0.0
C505 C 0.90859 0.02052 0.04968 0.0
C506 C 0.92398 0.03548 0.06215 0.0
C507 C 0.92903 0.04856 0.00183 0.0
C508 C 0.94411 0.06205 0.01268 0.0
C509 C 0.9539 0.06303 0.08448 0.0
C510 C 0.94865 0.05044 0.1455 0.0
C511 C 0.93376 0.03669 0.13449 0.0
H512 H 0.96554 0.07355 0.09282 0.0
H513 H 0.81961 0.94233 0.97492 0.0
H514 H 0.4974 0.8639 0.33697 0.0
H515 H 0.50021 0.89082 0.24307 0.0
H516 H 0.52992 0.85261 0.08178 0.0
H517 H 0.52735 0.8256 0.17649 0.0
H518 H 0.54667 0.88926 0.08165 0.0
H519 H 0.48172 0.8637 0.05674 0.0
H520 H 0.44923 0.85308 0.10251 0.0
H521 H 0.43759 0.9109 0.18871 0.0
H522 H 0.47014 0.92181 0.14441 0.0
H523 H 0.53216 0.94927 0.74294 0.0
H524 H 0.53283 0.92286 0.83993 0.0
H525 H 0.50065 0.95907 1.00125 0.0
H526 H 0.49973 0.98549 0.9035 0.0
H527 H 0.4857 0.92319 1.00055 0.0
H528 H 0.55038 0.94905 0.02545 0.0
H529 H 0.58243 0.96018 0.97677 0.0
H530 H 0.59447 0.90253 0.88959 0.0
H531 H 0.56237 0.8911 0.937 0.0
C532 C 0.50483 0.86128 0.28201 0.0
C533 C 0.51238 0.84258 0.26522 0.0
C534 C 0.50629 0.87669 0.22788 0.0
C535 C 0.5151 0.87387 0.15441 0.0
C536 C 0.52306 0.8553 0.13785 0.0
C537 C 0.52156 0.83979 0.19221 0.0
C538 C 0.51537 0.89013 0.09468 0.0
C539 C 0.5333 0.89648 0.06323 0.0
C540 C 0.49803 0.90002 0.07127 0.0
C541 C 0.47845 0.89351 0.09795 0.0
C542 C 0.4723 0.87411 0.08603 0.0
C543 C 0.45386 0.86805 0.1116 0.0
C544 C 0.44138 0.88129 0.14868 0.0
C545 C 0.44729 0.90065 0.16009 0.0
C546 C 0.46572 0.90678 0.1347 0.0
C547 C 0.52534 0.95168 0.79927 0.0
C548 C 0.51589 0.96954 0.81529 0.0
C549 C 0.52579 0.93654 0.85505 0.0
C550 C 0.51695 0.93886 0.92883 0.0
C551 C 0.50761 0.95678 0.94508 0.0
C552 C 0.50715 0.97195 0.88919 0.0
C553 C 0.517 0.92244 0.98789 0.0
C554 C 0.4991 0.91602 0.01909 0.0
C555 C 0.53437 0.91257 0.0111 0.0
C556 C 0.55389 0.91925 0.98421 0.0
C557 C 0.55982 0.93876 0.99556 0.0
C558 C 0.578 0.94513 0.9682 0.0
C559 C 0.59045 0.93209 0.92985 0.0
C560 C 0.5848 0.91262 0.91922 0.0
C561 C 0.56662 0.90618 0.94645 0.0
H562 H 0.6045 0.93706 0.90852 0.0
H563 H 0.42711 0.87657 0.16842 0.0
H564 H 0.68051 0.49674 0.24423 0.0
H565 H 0.6535 0.49709 0.15035 0.0
H566 H 0.67726 0.54904 0.04287 0.0
H567 H 0.7041 0.54899 0.13884 0.0
H568 H 0.63963 0.5534 0.05568 0.0
H569 H 0.67932 0.50204 0.95446 0.0
H570 H 0.69858 0.47152 0.95694 0.0
H571 H 0.64746 0.43914 0.02382 0.0
H572 H 0.62794 0.46952 0.02286 0.0
H573 H 0.58003 0.54649 0.70891 0.0
H574 H 0.60732 0.54707 0.80233 0.0
H575 H 0.57928 0.50209 0.93913 0.0
H576 H 0.55174 0.50171 0.84636 0.0
H577 H 0.6193 0.49433 0.90824 0.0
H578 H 0.5799 0.54685 0.00775 0.0
H579 H 0.56126 0.57769 0.99956 0.0
H580 H 0.61307 0.60827 0.92792 0.0
H581 H 0.63197 0.57753 0.93449 0.0
C582 C 0.68019 0.50805 0.19968 0.0
C583 C 0.69483 0.5225 0.19776 0.0
C584 C 0.66469 0.50824 0.14574 0.0
C585 C 0.66335 0.52287 0.08787 0.0
C586 C 0.67791 0.53746 0.08622 0.0
C587 C 0.69339 0.53734 0.1407 0.0
C588 C 0.64645 0.52324 0.03121 0.0
C589 C 0.63544 0.54053 0.02262 0.0
C590 C 0.64052 0.50642 0.98862 0.0
C591 C 0.65221 0.4881 0.98932 0.0
C592 C 0.67221 0.48844 0.97031 0.0
C593 C 0.68317 0.47116 0.97134 0.0
C594 C 0.67426 0.45341 0.99072 0.0
C595 C 0.65435 0.4529 0.00893 0.0
C596 C 0.64333 0.47015 0.00809 0.0
C597 C 0.57957 0.53688 0.75938 0.0
C598 C 0.56367 0.52409 0.77021 0.0
C599 C 0.5952 0.53722 0.81283 0.0
C600 C 0.59545 0.52462 0.87807 0.0
C601 C 0.5795 0.51193 0.88933 0.0
C602 C 0.56369 0.51181 0.83648 0.0
C603 C 0.61255 0.52442 0.93324 0.0
C604 C 0.62357 0.50717 0.94137 0.0
C605 C 0.61862 0.54132 0.97461 0.0
C606 C 0.60731 0.55984 0.97082 0.0
C607 C 0.58728 0.56011 0.98955 0.0
C608 C 0.57667 0.57758 0.98534 0.0
C609 C 0.58596 0.59492 0.96303 0.0
C610 C 0.60589 0.59482 0.94508 0.0
C611 C 0.61656 0.57738 0.94908 0.0
H612 H 0.57773 0.60843 0.95984 0.0
H613 H 0.68277 0.44005 0.99145 0.0
H614 H 0.99615 0.71569 0.12927 0.0
H615 H 0.99285 0.68702 0.0441 0.0
H616 H 0.02328 0.6518 0.21514 0.0
H617 H 0.02678 0.6805 0.29971 0.0
H618 H 0.03745 0.64422 0.07495 0.0
H619 H 0.97268 0.64787 0.18133 0.0
H620 H 0.94128 0.66361 0.2139 0.0
H621 H 0.93018 0.67413 0.96983 0.0
H622 H 0.96165 0.65868 0.93585 0.0
H623 H 0.01997 0.55214 0.89157 0.0
H624 H 0.02017 0.57935 0.98515 0.0
H625 H 0.98858 0.61519 0.8195 0.0
H626 H 0.98794 0.58791 0.72691 0.0
H627 H 0.97472 0.62209 0.95914 0.0
H628 H 0.03954 0.61941 0.85235 0.0
H629 H 0.0708 0.60358 0.81815 0.0
H630 H 0.08188 0.59158 0.06115 0.0
H631 H 0.05054 0.60711 0.09671 0.0
C632 C 1.00178 0.70177 0.14942 0.0
C633 C 0.01137 0.7004 0.22227 0.0
C634 C 0.99992 0.6853 0.10049 0.0
C635 C 1.00764 0.66698 0.12296 0.0
C636 C 0.01713 0.66562 0.19596 0.0
C637 C 0.01898 0.68206 0.24478 0.0
C638 C 1.00641 0.64945 0.06973 0.0
C639 C 0.02366 0.63925 0.05069 0.0
C640 C 0.98856 0.64303 0.03588 0.0
C641 C 0.96961 0.65228 0.05612 0.0
C642 C 0.96361 0.65367 0.13464 0.0
C643 C 0.94579 0.66252 0.15335 0.0
C644 C 0.93377 0.66991 0.09399 0.0
C645 C 0.93952 0.66842 0.01576 0.0
C646 C 0.95734 0.6596 0.99674 0.0
C647 C 0.01296 0.56578 0.87533 0.0
C648 C 1.00403 0.56782 0.80141 0.0
C649 C 0.01319 0.58144 0.92878 0.0
C650 C 1.00468 0.59965 0.90947 0.0
C651 C 0.99531 0.60145 0.83636 0.0
C652 C 0.995 0.58579 0.78315 0.0
C653 C 1.00576 0.61686 0.96442 0.0
C654 C 0.98851 0.62702 0.98362 0.0
C655 C 0.02361 0.6233 0.99819 0.0
C656 C 0.04261 0.61424 0.97711 0.0
C657 C 0.04859 0.61329 0.89845 0.0
C658 C 0.06633 0.60439 0.87882 0.0
C659 C 0.07829 0.59653 0.93742 0.0
C660 C 0.07258 0.59764 0.01581 0.0
C661 C 0.05485 0.60651 0.03575 0.0
H662 H 0.092 0.58961 0.9221 0.0
H663 H 0.91997 0.67676 0.1086 0.0
H664 H 0.98762 0.26636 0.30927 0.0
H665 H 0.98253 0.24229 0.41276 0.0
H666 H 0.04341 0.22634 0.40209 0.0
H667 H 0.04848 0.25014 0.29816 0.0
H668 H 1.00517 0.21024 0.29233 0.0
H669 H 0.03681 0.22133 0.54625 0.0
H670 H 0.03951 0.23736 0.67492 0.0
H671 H 0.98224 0.21682 0.7364 0.0
H672 H 0.97904 0.20098 0.60739 0.0
H673 H 0.02364 0.11061 0.33703 0.0
H674 H 0.02569 0.14631 0.34554 0.0
H675 H 0.97144 0.14774 0.474 0.0
H676 H 0.9694 0.112 0.4663 0.0
H677 H 1.00096 0.17208 0.53894 0.0
H678 H 0.96903 0.16029 0.29455 0.0
H679 H 0.96362 0.14559 0.16453 0.0
H680 H 0.01835 0.16882 0.08455 0.0
H681 H 0.02419 0.1836 0.21419 0.0
C682 C 1.00019 0.25872 0.33315 0.0
C683 C 0.01827 0.25944 0.29464 0.0
C684 C 0.99732 0.24511 0.39314 0.0
C685 C 0.01246 0.23214 0.4131 0.0
C686 C 0.03152 0.23617 0.38725 0.0
C687 C 0.03438 0.24959 0.32688 0.0
C688 C 1.0073 0.21131 0.41829 0.0
C689 C 1.00435 0.20186 0.34635 0.0
C690 C 1.00552 0.20076 0.48893 0.0
C691 C 1.00752 0.21031 0.56637 0.0
C692 C 0.02464 0.22052 0.58653 0.0
C693 C 0.0263 0.22952 0.65971 0.0
C694 C 0.01098 0.22829 0.7135 0.0
C695 C 0.99405 0.21788 0.69452 0.0
C696 C 0.99231 0.20889 0.62137 0.0
C697 C 0.01212 0.11859 0.36655 0.0
C698 C 0.99624 0.10868 0.39996 0.0
C699 C 0.01332 0.13888 0.37166 0.0
C700 C 0.99869 0.14952 0.4104 0.0
C701 C 0.98285 0.13969 0.44411 0.0
C702 C 0.98157 0.11938 0.43855 0.0
C703 C 0.99977 0.17101 0.41269 0.0
C704 C 1.00168 0.18056 0.48524 0.0
C705 C 1.00048 0.1819 0.34252 0.0
C706 C 0.99713 0.17288 0.2645 0.0
C707 C 0.98 0.16213 0.24951 0.0
C708 C 0.97683 0.15385 0.17576 0.0
C709 C 0.99064 0.15631 0.11642 0.0
C710 C 1.00765 0.16703 0.13057 0.0
C711 C 0.01089 0.17536 0.20415 0.0
H712 H 0.98816 0.14993 0.05944 0.0
H713 H 0.01231 0.23526 0.7701 0.0
H714 H 0.29413 0.96505 0.21451 0.0
H715 H 0.3114 0.94891 0.32035 0.0
H716 H 0.27848 0.9824 0.48923 0.0
H717 H 0.26193 0.99959 0.38196 0.0
H718 H 0.31363 0.98765 0.51841 0.0
H719 H 0.27984 0.92936 0.49332 0.0
H720 H 0.26227 0.90184 0.43231 0.0
H721 H 0.31515 0.88323 0.31963 0.0
H722 H 0.333 0.91079 0.37872 0.0
H723 H 0.40561 0.96708 0.66594 0.0
H724 H 0.37066 0.95914 0.67114 0.0
H725 H 0.37274 0.94055 0.43 0.0
H726 H 0.40764 0.94769 0.42568 0.0
H727 H 0.34377 0.92171 0.50692 0.0
H728 H 0.36832 0.99179 0.49373 0.0
H729 H 0.38521 0.01925 0.55909 0.0
H730 H 0.34665 0.01402 0.75617 0.0
H731 H 0.32984 0.98628 0.69261 0.0
C732 C 0.29028 0.96871 0.27421 0.0
C733 C 0.27705 0.98392 0.2899 0.0
C734 C 0.29992 0.95917 0.33516 0.0
C735 C 0.29625 0.96428 0.41348 0.0
C736 C 0.28161 0.97817 0.42945 0.0
C737 C 0.27209 0.98794 0.36809 0.0
C738 C 0.31049 0.95816 0.47483 0.0
C739 C 0.3197 0.97298 0.51821 0.0
C740 C 0.31835 0.93897 0.4768 0.0
C741 C 0.30781 0.92218 0.44096 0.0
C742 C 0.28773 0.91946 0.45531 0.0
C743 C 0.27771 0.90384 0.42101 0.0
C744 C 0.2876 0.89078 0.37223 0.0
C745 C 0.30753 0.89332 0.35766 0.0
C746 C 0.31763 0.90891 0.3918 0.0
C747 C 0.39867 0.96059 0.61513 0.0
C748 C 0.40909 0.9583 0.54484 0.0
C749 C 0.37877 0.95603 0.61826 0.0
C750 C 0.36899 0.94977 0.55046 0.0
C751 C 0.37993 0.94544 0.48307 0.0
C752 C 0.39988 0.94961 0.48038 0.0
C753 C 0.34748 0.95162 0.54263 0.0
C754 C 0.33693 0.936 0.51015 0.0
C755 C 0.33813 0.96998 0.55185 0.0
C756 C 0.34796 0.98693 0.58881 0.0
C757 C 0.36348 0.99653 0.55102 0.0
C758 C 0.37308 0.01207 0.58788 0.0
C759 C 0.36705 0.01832 0.66191 0.0
C760 C 0.35138 1.00909 0.69909 0.0
C761 C 0.34183 0.99345 0.66275 0.0
H762 H 0.3745 0.03034 0.6904 0.0
H763 H 0.27981 0.8787 0.34568 0.0
H764 H 0.56659 0.28946 0.22396 0.0
H765 H 0.57473 0.30593 0.34574 0.0
H766 H 0.52745 0.2759 0.46201 0.0
H767 H 0.51919 0.25944 0.33942 0.0
H768 H 0.51979 0.31338 0.43909 0.0
H769 H 0.57122 0.27997 0.55894 0.0
H770 H 0.60169 0.26096 0.57164 0.0
H771 H 0.63457 0.30942 0.48086 0.0
H772 H 0.6043 0.32864 0.46626 0.0
H773 H 0.52289 0.40918 0.56266 0.0
H774 H 0.52553 0.3742 0.58942 0.0
H775 H 0.57731 0.37152 0.44538 0.0
H776 H 0.57576 0.40695 0.42577 0.0
H777 H 0.57951 0.34379 0.5499 0.0
H778 H 0.52795 0.36643 0.36889 0.0
H779 H 0.49832 0.38562 0.33761 0.0
H780 H 0.46726 0.35673 0.52308 0.0
H781 H 0.49681 0.33751 0.55578 0.0
C782 C 0.55855 0.28568 0.27647 0.0
C783 C 0.54193 0.27372 0.27213 0.0
C784 C 0.56337 0.29489 0.34658 0.0
C785 C 0.55149 0.29239 0.41289 0.0
C786 C 0.53677 0.27806 0.41152 0.0
C787 C 0.53201 0.26874 0.3413 0.0
C788 C 0.55016 0.30888 0.46864 0.0
C789 C 0.53269 0.31965 0.46641 0.0
C790 C 0.567 0.31723 0.50319 0.0
C791 C 0.5854 0.3058 0.51172 0.0
C792 C 0.58492 0.28657 0.54126 0.0
C793 C 0.60218 0.27574 0.54884 0.0
C794 C 0.62006 0.28399 0.52717 0.0
C795 C 0.62071 0.30307 0.49785 0.0
C796 C 0.6035 0.31397 0.49012 0.0
C797 C 0.5352 0.40118 0.53924 0.0
C798 C 0.54905 0.41065 0.49206 0.0
C799 C 0.53664 0.38119 0.55397 0.0
C800 C 0.5513 0.3701 0.51764 0.0
C801 C 0.56585 0.37974 0.47416 0.0
C802 C 0.56485 0.39993 0.46215 0.0
C803 C 0.54973 0.3485 0.51319 0.0
C804 C 0.56648 0.33699 0.52599 0.0
C805 C 0.5324 0.33947 0.48564 0.0
C806 C 0.51457 0.35074 0.46527 0.0
C807 C 0.51479 0.36423 0.40299 0.0
C808 C 0.49804 0.37511 0.38509 0.0
C809 C 0.48094 0.37244 0.42849 0.0
C810 C 0.48053 0.35882 0.48965 0.0
C811 C 0.49726 0.34792 0.5079 0.0
H812 H 0.46799 0.3809 0.41461 0.0
H813 H 0.6334 0.27558 0.53306 0.0
H814 H 0.26917 0.50718 0.33489 0.0
H815 H 0.25087 0.50653 0.45667 0.0
H816 H 0.20944 0.46658 0.35221 0.0
H817 H 0.22872 0.4657 0.23401 0.0
H818 H 0.22074 0.52474 0.44593 0.0
H819 H 0.17424 0.45126 0.45514 0.0
H820 H 0.18063 0.41613 0.47497 0.0
H821 H 0.23609 0.42942 0.58036 0.0
H822 H 0.22995 0.46468 0.56243 0.0
H823 H 0.12354 0.53846 0.37499 0.0
H824 H 0.15745 0.52719 0.3822 0.0
H825 H 0.14829 0.50742 0.61931 0.0
H826 H 0.1143 0.51874 0.61219 0.0
H827 H 0.16781 0.48028 0.53299 0.0
H828 H 0.17478 0.5456 0.59965 0.0
H829 H 0.16983 0.58128 0.59682 0.0
H830 H 0.19616 0.58428 0.36909 0.0
H831 H 0.20112 0.54856 0.37007 0.0
C832 C 0.25687 0.49728 0.33953 0.0
C833 C 0.2498 0.48719 0.27358 0.0
C834 C 0.2463 0.497 0.40941 0.0
C835 C 0.22829 0.48715 0.41319 0.0
C836 C 0.22318 0.47444 0.35181 0.0
C837 C 0.23406 0.47423 0.283 0.0
C838 C 0.21254 0.49453 0.46523 0.0
C839 C 0.20943 0.5149 0.46641 0.0
C840 C 0.19797 0.48199 0.49607 0.0
C841 C 0.20161 0.46071 0.5074 0.0
C842 C 0.18773 0.44676 0.48329 0.0
C843 C 0.19133 0.42679 0.49398 0.0
C844 C 0.20876 0.42055 0.52887 0.0
C845 C 0.22262 0.43427 0.55318 0.0
C846 C 0.21909 0.45426 0.54262 0.0
C847 C 0.12878 0.5318 0.42868 0.0
C848 C 0.11638 0.52956 0.49333 0.0
C849 C 0.14813 0.52545 0.43297 0.0
C850 C 0.15535 0.51672 0.5018 0.0
C851 C 0.14298 0.5143 0.56619 0.0
C852 C 0.12368 0.52085 0.56215 0.0
C853 C 0.17579 0.5099 0.50454 0.0
C854 C 0.17956 0.48987 0.51452 0.0
C855 C 0.19124 0.52275 0.48639 0.0
C856 C 0.1884 0.54433 0.48513 0.0
C857 C 0.1795 0.55383 0.54884 0.0
C858 C 0.17668 0.57408 0.54757 0.0
C859 C 0.1827 0.58505 0.48285 0.0
C860 C 0.19156 0.57577 0.41929 0.0
C861 C 0.19443 0.55552 0.4203 0.0
H862 H 0.18048 0.60073 0.48192 0.0
H863 H 0.21152 0.40508 0.53707 0.0
H864 H 0.96921 0.8057 0.14856 0.0
H865 H 0.98061 0.8342 0.07591 0.0
H866 H 0.03484 0.80457 0.02634 0.0
H867 H 0.02349 0.77603 0.09919 0.0
H868 H 0.01589 0.84269 0.17279 0.0
H869 H 0.05514 0.84087 0.86865 0.0
H870 H 0.04987 0.82769 0.73603 0.0
H871 H 0.98808 0.8247 0.77811 0.0
H872 H 0.99287 0.8383 0.91017 0.0
H873 H 0.08329 0.92418 0.97938 0.0
H874 H 0.07467 0.88957 0.99795 0.0
H875 H 0.02212 0.90713 0.1187 0.0
H876 H 0.03101 0.94104 0.10404 0.0
H877 H 0.04427 0.87279 0.93501 0.0
H878 H 1.00431 0.87983 0.2264 0.0
H879 H 1.00892 0.89487 0.35641 0.0
H880 H 0.07113 0.88837 0.33487 0.0
H881 H 0.06685 0.87355 0.20411 0.0
C882 C 0.98294 0.80473 0.11719 0.0
C883 C 0.99575 0.78904 0.13102 0.0
C884 C 0.98946 0.82104 0.07578 0.0
C885 C 1.00872 0.82157 0.04775 0.0
C886 C 0.01994 0.80439 0.04785 0.0
C887 C 0.01341 0.78805 0.08941 0.0
C888 C 0.01898 0.84048 0.04726 0.0
C889 C 0.02182 0.84944 0.12036 0.0
C890 C 0.02749 0.84866 0.97953 0.0
C891 C 0.02446 0.84015 0.90042 0.0
C892 C 0.04043 0.83734 0.84984 0.0
C893 C 0.03751 0.82984 0.7746 0.0
C894 C 0.01868 0.82512 0.74908 0.0
C895 C 1.00269 0.82813 0.79835 0.0
C896 C 1.00551 0.83568 0.87355 0.0
C897 C 0.07038 0.92048 0.01289 0.0
C898 C 0.05798 0.93527 0.04126 0.0
C899 C 0.0654 0.90079 0.02294 0.0
C900 C 0.0479 0.89572 0.06075 0.0
C901 C 0.03607 0.91052 0.0921 0.0
C902 C 0.0412 0.93004 0.08357 0.0
C903 C 0.04043 0.87543 0.05951 0.0
C904 C 0.03834 0.866 0.98692 0.0
C905 C 0.03252 0.86673 0.12736 0.0
C906 C 0.03524 0.87541 0.20612 0.0
C907 C 0.01895 0.88144 0.24989 0.0
C908 C 0.02151 0.89002 0.32344 0.0
C909 C 0.04029 0.8924 0.35429 0.0
C910 C 0.05657 0.88644 0.31109 0.0
C911 C 0.0541 0.87805 0.23707 0.0
H912 H 0.04221 0.89894 0.41147 0.0
H913 H 0.01645 0.81922 0.69096 0.0
H914 H 0.73392 0.95611 0.13367 0.0
H915 H 0.71583 0.95769 0.01135 0.0
H916 H 0.75232 1.00542 0.93383 0.0
H917 H 0.77014 1.00418 0.05756 0.0
H918 H 0.7174 0.01778 0.96701 0.0
H919 H 0.74022 0.96773 0.80491 0.0
H920 H 0.75272 0.93542 0.76529 0.0
H921 H 0.69877 0.90866 0.83586 0.0
H922 H 0.68602 0.94072 0.8772 0.0
H923 H 0.62434 0.03854 0.81008 0.0
H924 H 0.65877 0.02941 0.79654 0.0
H925 H 0.64879 0.97797 0.93762 0.0
H926 H 0.61446 0.98703 0.95207 0.0
H927 H 0.67627 0.97165 0.81584 0.0
H928 H 0.66291 0.01773 0.02939 0.0
H929 H 0.65029 0.04879 0.08288 0.0
H930 H 0.68681 0.0811 0.9244 0.0
H931 H 0.69954 0.05016 0.86971 0.0
C932 C 0.73874 0.96624 0.08882 0.0
C933 C 0.75289 0.98047 0.10598 0.0
C934 C 0.7285 0.96704 0.01821 0.0
C935 C 0.7324 0.98203 0.96395 0.0
C936 C 0.74894 0.99387 0.97521 0.0
C937 C 0.75915 0.99313 0.04611 0.0
C938 C 0.71605 0.9891 0.91419 0.0
C939 C 0.70886 1.00791 0.9309 0.0
C940 C 0.70459 0.9762 0.86852 0.0
C941 C 0.71215 0.95673 0.84422 0.0
C942 C 0.73105 0.95496 0.81254 0.0
C943 C 0.73818 0.93666 0.78967 0.0
C944 C 0.72655 0.92 0.79802 0.0
C945 C 0.70775 0.92159 0.82927 0.0
C946 C 0.70054 0.93984 0.85226 0.0
C947 C 0.62948 0.02527 0.83821 0.0
C948 C 0.61679 0.01374 0.88373 0.0
C949 C 0.64906 0.01994 0.82936 0.0
C950 C 0.65629 1.00308 0.8664 0.0
C951 C 0.64343 0.99096 0.90805 0.0
C952 C 0.62384 0.99624 0.9167 0.0
C953 C 0.67756 0.99963 0.87297 0.0
C954 C 0.68541 0.9817 0.84831 0.0
C955 C 0.68965 0.01314 0.91256 0.0
C956 C 0.68195 0.03171 0.94482 0.0
C957 C 0.66812 0.03148 0.00561 0.0
C958 C 0.66098 0.04904 0.03622 0.0
C959 C 0.66768 0.06691 0.00682 0.0
C960 C 0.68159 0.06724 0.94693 0.0
C961 C 0.68878 0.04971 0.91614 0.0
H962 H 0.66215 0.08049 0.03062 0.0
H963 H 0.7321 0.90585 0.78027 0.0
H964 H 0.4737 0.74159 0.18027 0.0
H965 H 0.47499 0.71847 0.0717 0.0
H966 H 0.52471 0.7489 0.97615 0.0
H967 H 0.52449 0.77132 0.08815 0.0
H968 H 0.48514 0.72841 0.87944 0.0
H969 H 0.54043 0.72444 0.06982 0.0
H970 H 0.55598 0.72642 0.21379 0.0
H971 H 0.51713 0.65375 0.23452 0.0
H972 H 0.50535 0.66304 0.08676 0.0
H973 H 0.50759 0.61807 0.79069 0.0
H974 H 0.51437 0.65333 0.78711 0.0
H975 H 0.4668 0.66307 0.9478 0.0
H976 H 0.45985 0.62791 0.95003 0.0
H977 H 0.51874 0.66745 0.96133 0.0
H978 H 0.4508 0.68585 0.86322 0.0
H979 H 0.42616 0.68811 0.75812 0.0
H980 H 0.46834 0.71526 0.60745 0.0
H981 H 0.49357 0.71213 0.7103 0.0
C982 C 0.48463 0.74364 0.13517 0.0
C983 C 0.49952 0.75762 0.1441 0.0
C984 C 0.48539 0.73042 0.07362 0.0
C985 C 0.50071 0.73144 0.01965 0.0
C986 C 0.51334 0.74756 0.01991 0.0
C987 C 0.51301 0.76048 0.08316 0.0
C988 C 0.50372 0.71498 0.96633 0.0
C989 C 0.49272 0.71513 0.89696 0.0
C990 C 0.51334 0.69752 0.99094 0.0
C991 C 0.52189 0.69454 0.07077 0.0
C992 C 0.53654 0.71267 0.10873 0.0
C993 C 0.54702 0.71391 0.19909 0.0
C994 C 0.54409 0.6956 0.26656 0.0
C995 C 0.52224 0.66761 0.20969 0.0
C996 C 0.515 0.67317 0.11625 0.0
C997 C 0.49802 0.62798 0.82175 0.0
C998 C 0.48296 0.62064 0.86907 0.0
C999 C 0.50186 0.648 0.81958 0.0
C1000 C 0.49043 0.66085 0.86388 0.0
C1001 C 0.47499 0.65348 0.90951 0.0
C1002 C 0.47124 0.63346 0.91199 0.0
C1003 C 0.49793 0.68034 0.88279 0.0
C1004 C 0.51157 0.68094 0.94377 0.0
C1005 C 0.48885 0.69772 0.85708 0.0
C1006 C 0.47423 0.69807 0.79336 0.0
C1007 C 0.45501 0.69169 0.80683 0.0
C1008 C 0.44091 0.69319 0.74769 0.0
C1009 C 0.44579 0.70149 0.67551 0.0
C1010 C 0.46473 0.70841 0.66259 0.0
C1011 C 0.47896 0.70665 0.72108 0.0
H1012 H 0.43483 0.70279 0.62995 0.0
H1013 H 0.55144 0.69742 0.323 0.0
H1014 H 0.77355 0.50916 0.02878 0.0
H1015 H 0.79331 0.4927 0.93051 0.0
H1016 H 0.78972 0.43888 0.06291 0.0
H1017 H 0.77079 0.45584 0.16365 0.0
H1018 H 0.82484 0.44933 0.05517 0.0
H1019 H 0.7768 0.4423 0.85871 0.0
H1020 H 0.74917 0.45113 0.77275 0.0
H1021 H 0.7836 0.49646 0.66663 0.0
H1022 H 0.81133 0.4882 0.75285 0.0
H1023 H 0.91236 0.43423 0.86413 0.0
H1024 H 0.8774 0.42629 0.86972 0.0
H1025 H 0.8632 0.48679 0.82453 0.0
H1026 H 0.898 0.49474 0.81894 0.0
H1027 H 0.83394 0.46022 0.77039 0.0
H1028 H 0.8741 0.47517 1.00064 0.0
H1029 H 0.90191 0.4692 0.08966 0.0
H1030 H 0.88093 0.41105 0.13477 0.0
H1031 H 0.85317 0.41659 0.04455 0.0
C1032 C 0.77624 0.4936 0.03484 0.0
C1033 C 0.77088 0.48372 0.10349 0.0
C1034 C 0.78744 0.48409 0.97829 0.0
C1035 C 0.79311 0.46448 0.98911 0.0
C1036 C 0.7856 0.45401 0.05332 0.0
C1037 C 0.77478 0.46365 0.11075 0.0
C1038 C 0.81043 0.45691 0.94646 0.0
C1039 C 0.82645 0.45091 0.99227 0.0
C1040 C 0.81288 0.45945 0.86466 0.0
C1041 C 0.7962 0.46459 0.81254 0.0
C1042 C 0.77846 0.45424 0.81747 0.0
C1043 C 0.76277 0.45915 0.7686 0.0
C1044 C 0.76463 0.47434 0.71427 0.0
C1045 C 0.78219 0.48467 0.70868 0.0
C1046 C 0.79792 0.47985 0.75747 0.0
C1047 C 0.90172 0.44563 0.85256 0.0
C1048 C 0.90766 0.46514 0.84323 0.0
C1049 C 0.88182 0.44107 0.8552 0.0
C1050 C 0.8678 0.45602 0.84845 0.0
C1051 C 0.87381 0.47508 0.82967 0.0
C1052 C 0.89364 0.47965 0.82768 0.0
C1053 C 0.84791 0.4533 0.87985 0.0
C1054 C 0.8317 0.45759 0.83238 0.0
C1055 C 0.84517 0.44946 0.96043 0.0
C1056 C 0.8618 0.44615 0.0148 0.0
C1057 C 0.87558 0.46102 0.02871 0.0
C1058 C 0.8913 0.45774 0.07949 0.0
C1059 C 0.89325 0.43972 0.1175 0.0
C1060 C 0.87944 0.42497 0.10499 0.0
C1061 C 0.86373 0.42817 0.05398 0.0
H1062 H 0.90541 0.43721 0.15698 0.0
H1063 H 0.75246 0.4781 0.67648 0.0
H1064 H 0.04486 0.22274 0.07559 0.0
H1065 H 0.04283 0.19171 0.00648 0.0
H1066 H 0.9918 0.21222 0.88225 0.0
H1067 H 0.99356 0.24343 0.95365 0.0
H1068 H 0.98479 0.17691 0.92686 0.0
H1069 H 0.03902 0.2039 0.79209 0.0
H1070 H 0.07091 0.22009 0.77446 0.0
H1071 H 0.09934 0.1729 0.8962 0.0
H1072 H 0.06754 0.15656 0.91521 0.0
H1073 H 0.98825 0.08933 0.68253 0.0
H1074 H 0.98953 0.12374 0.72511 0.0
H1075 H 0.03121 0.10829 0.90436 0.0
H1076 H 0.02965 0.07403 0.86378 0.0
H1077 H 0.04212 0.14223 0.8162 0.0
H1078 H 0.98719 0.11915 0.96964 0.0
H1079 H 0.95494 0.10453 0.99516 0.0
H1080 H 0.92839 0.14418 0.83095 0.0
H1081 H 0.96049 0.15963 0.80702 0.0
C1082 C 0.03336 0.22086 0.03257 0.0
C1083 C 0.01942 0.23581 0.02039 0.0
C1084 C 0.03227 0.20299 0.99234 0.0
C1085 C 0.01729 0.19934 0.93761 0.0
C1086 C 1.00361 0.21446 0.92361 0.0
C1087 C 1.00474 0.23248 0.96393 0.0
C1088 C 0.01542 0.17944 0.89915 0.0
C1089 C 0.99731 0.16964 0.90094 0.0
C1090 C 0.03167 0.16935 0.86647 0.0
C1091 C 0.05086 0.1791 0.8555 0.0
C1092 C 0.05205 0.19706 0.81549 0.0
C1093 C 0.07012 0.20625 0.80519 0.0
C1094 C 0.08715 0.19755 0.83435 0.0
C1095 C 0.08614 0.17963 0.87369 0.0
C1096 C 0.06809 0.17038 0.88413 0.0
C1097 C 0.99766 0.09323 0.7311 0.0
C1098 C 1.00878 0.0787 0.76963 0.0
C1099 C 0.99834 0.11297 0.75567 0.0
C1100 C 0.01045 0.1188 0.81839 0.0
C1101 C 0.02174 0.10435 0.85597 0.0
C1102 C 0.02077 0.08464 0.83262 0.0
C1103 C 0.01162 0.13985 0.84477 0.0
C1104 C 0.0296 0.14977 0.84084 0.0
C1105 C 0.99527 0.15011 0.87481 0.0
C1106 C 0.97621 0.14033 0.8858 0.0
C1107 C 0.9745 0.12459 0.93836 0.0
C1108 C 0.95624 0.11622 0.95283 0.0
C1109 C 0.93964 0.12318 0.91378 0.0
C1110 C 0.94126 0.13873 0.86088 0.0
C1111 C 0.95946 0.14742 0.84734 0.0
H1112 H 0.92552 0.11662 0.92495 0.0
H1113 H 0.10113 0.20468 0.82635 0.0
H1114 H 0.30838 0.04273 0.13648 0.0
H1115 H 0.33905 0.04596 0.06389 0.0
H1116 H 0.31771 1.00531 0.89084 0.0
H1117 H 0.28699 1.00198 0.96449 0.0
H1118 H 0.3531 0.9947 0.93625 0.0
H1119 H 0.32571 0.05469 0.8466 0.0
H1120 H 0.30944 0.0868 0.85669 0.0
H1121 H 0.35683 0.10832 0.99751 0.0
H1122 H 0.37327 0.07625 0.98917 0.0
H1123 H 0.43863 1.00514 0.70073 0.0
H1124 H 0.40477 1.00601 0.74575 0.0
H1125 H 0.42148 0.04464 0.93362 0.0
H1126 H 0.45543 0.04409 0.88743 0.0
H1127 H 0.38725 0.05648 0.8692 0.0
H1128 H 0.41372 0.99529 0.96147 0.0
H1129 H 0.42973 0.96314 0.94792 0.0
H1130 H 0.38324 0.94367 0.79792 0.0
H1131 H 0.36716 0.97591 0.809 0.0
C1132 C 0.30994 0.0351 0.0813 0.0
C1133 C 0.29503 0.02254 0.05504 0.0
C1134 C 0.32757 0.03684 0.03987 0.0
C1135 C 0.33085 0.02598 0.97114 0.0
C1136 C 0.31565 0.01392 0.94339 0.0
C1137 C 0.29795 0.01223 0.98484 0.0
C1138 C 0.3506 0.02611 0.93231 0.0
C1139 C 0.36037 1.00823 0.92033 0.0
C1140 C 0.36047 0.04369 0.91252 0.0
C1141 C 0.35064 0.063 0.91784 0.0
C1142 C 0.33259 0.06622 0.88028 0.0
C1143 C 0.32335 0.08443 0.88557 0.0
C1144 C 0.33207 0.09958 0.92788 0.0
C1145 C 0.35008 0.09656 0.96483 0.0
C1146 C 0.35938 0.07838 0.95976 0.0
C1147 C 0.43511 0.01406 0.75085 0.0
C1148 C 0.44986 0.02467 0.78974 0.0
C1149 C 0.41567 0.01441 0.77718 0.0
C1150 C 0.4104 0.02529 0.84371 0.0
C1151 C 0.42505 0.03613 0.88215 0.0
C1152 C 0.44454 0.03573 0.85585 0.0
C1153 C 0.38977 0.02511 0.87414 0.0
C1154 C 0.37988 0.04296 0.88464 0.0
C1155 C 0.37973 1.00749 0.89201 0.0
C1156 C 0.38936 0.9881 0.88529 0.0
C1157 C 0.40701 0.98423 0.92491 0.0
C1158 C 0.41609 0.96599 0.91767 0.0
C1159 C 0.40755 0.95142 0.87172 0.0
C1160 C 0.38987 0.95503 0.83313 0.0
C1161 C 0.38078 0.97328 0.83978 0.0
H1162 H 0.41459 0.93729 0.86627 0.0
H1163 H 0.3249 0.11366 0.93189 0.0
H1164 H 0.50346 0.31883 0.1292 0.0
H1165 H 0.50117 0.34986 0.0592 0.0
H1166 H 0.51945 0.32142 0.84641 0.0
H1167 H 0.52221 0.2901 0.91766 0.0
H1168 H 0.53899 0.35508 0.86374 0.0
H1169 H 0.47144 0.33822 0.87351 0.0
H1170 H 0.44049 0.32762 0.93399 0.0
H1171 H 0.44133 0.37785 0.08461 0.0
H1172 H 0.47244 0.38862 0.02577 0.0
H1173 H 0.52256 0.44356 0.64447 0.0
H1174 H 0.5221 0.40983 0.69509 0.0
H1175 H 0.50021 0.43044 0.91582 0.0
H1176 H 0.50024 0.46392 0.86627 0.0
H1177 H 0.48153 0.39912 0.88203 0.0
H1178 H 0.54997 0.41543 0.87333 0.0
H1179 H 0.58071 0.4259 0.81079 0.0
H1180 H 0.5785 0.37624 0.65748 0.0
H1181 H 0.54754 0.36566 0.71802 0.0
C1182 C 0.50678 0.31905 0.0672 0.0
C1183 C 0.51302 0.30184 0.02928 0.0
C1184 C 0.50537 0.3369 0.02689 0.0
C1185 C 0.50998 0.33823 0.94683 0.0
C1186 C 0.51577 0.32095 0.90803 0.0
C1187 C 0.51714 0.30295 0.94861 0.0
C1188 C 0.50947 0.35781 0.90558 0.0
C1189 C 0.52628 0.36455 0.86654 0.0
C1190 C 0.4931 0.37055 0.91012 0.0
C1191 C 0.47436 0.36414 0.94559 0.0
C1192 C 0.4651 0.34693 0.91991 0.0
C1193 C 0.44752 0.3409 0.95384 0.0
C1194 C 0.43897 0.35203 0.01321 0.0
C1195 C 0.44798 0.36923 0.03865 0.0
C1196 C 0.46557 0.37532 0.00496 0.0
C1197 C 0.51758 0.44096 0.70376 0.0
C1198 C 0.51143 0.45671 0.75095 0.0
C1199 C 0.51742 0.42159 0.73267 0.0
C1200 C 0.51131 0.41733 0.80956 0.0
C1201 C 0.505 0.43305 0.8563 0.0
C1202 C 0.50509 0.45235 0.82765 0.0
C1203 C 0.51121 0.39664 0.84136 0.0
C1204 C 0.49424 0.38966 0.87868 0.0
C1205 C 0.52746 0.38371 0.83509 0.0
C1206 C 0.54623 0.38994 0.79936 0.0
C1207 C 0.55593 0.40684 0.82576 0.0
C1208 C 0.5734 0.41279 0.79067 0.0
C1209 C 0.58147 0.40181 0.72982 0.0
C1210 C 0.57216 0.38479 0.7043 0.0
C1211 C 0.55465 0.37881 0.73898 0.0
H1212 H 0.59499 0.40645 0.70269 0.0
H1213 H 0.42535 0.34734 0.03939 0.0
H1214 H 0.23385 0.48873 0.92766 0.0
H1215 H 0.20139 0.49096 0.86577 0.0
H1216 H 0.18471 0.5354 0.03152 0.0
H1217 H 0.21697 0.533 0.09355 0.0
H1218 H 0.15795 0.50482 0.02423 0.0
H1219 H 0.18462 0.55212 0.8229 0.0
H1220 H 0.2123 0.55988 0.7353 0.0
H1221 H 0.20934 0.50214 0.63762 0.0
H1222 H 0.18095 0.49448 0.72124 0.0
H1223 H 0.06408 0.53112 0.88356 0.0
H1224 H 0.09811 0.53094 0.92816 0.0
H1225 H 0.11451 0.49734 0.72505 0.0
H1226 H 0.08067 0.49913 0.67678 0.0
H1227 H 0.14221 0.52145 0.74843 0.0
H1228 H 0.10923 0.47759 0.92156 0.0
H1229 H 0.08439 0.46639 0.01604 0.0
H1230 H 0.10215 0.51107 0.17759 0.0
H1231 H 0.12693 0.52272 0.0836 0.0
C1232 C 0.22352 0.49952 0.94869 0.0
C1233 C 0.22815 0.51101 0.01436 0.0
C1234 C 0.20487 0.50073 0.9136 0.0
C1235 C 0.19045 0.51346 0.94344 0.0
C1236 C 0.19544 0.52549 0.00704 0.0
C1237 C 0.214 0.52429 0.04193 0.0
C1238 C 0.16981 0.51331 0.91277 0.0
C1239 C 0.15447 0.50863 0.9641 0.0
C1240 C 0.16517 0.51758 0.83384 0.0
C1241 C 0.18071 0.5228 0.77779 0.0
C1242 C 0.18968 0.54125 0.78152 0.0
C1243 C 0.20542 0.54564 0.73242 0.0
C1244 C 0.21247 0.53155 0.68038 0.0
C1245 C 0.20363 0.51314 0.67676 0.0
C1246 C 0.18758 0.50885 0.72426 0.0
C1247 C 0.07497 0.52377 0.84819 0.0
C1248 C 0.06962 0.51507 0.77673 0.0
C1249 C 0.0945 0.52353 0.87407 0.0
C1250 C 0.10916 0.51386 0.83089 0.0
C1251 C 0.10372 0.5051 0.75946 0.0
C1252 C 0.0843 0.506 0.73205 0.0
C1253 C 0.13003 0.51291 0.85998 0.0
C1254 C 0.1455 0.51746 0.80846 0.0
C1255 C 0.13481 0.50799 0.93872 0.0
C1256 C 0.11981 0.50115 0.99516 0.0
C1257 C 0.10773 0.48513 0.97695 0.0
C1258 C 0.09368 0.47869 0.03046 0.0
C1259 C 0.09167 0.48804 0.10267 0.0
C1260 C 0.10371 0.50386 0.12157 0.0
C1261 C 0.11777 0.51038 0.06821 0.0
H1262 H 0.08083 0.48299 0.14407 0.0
H1263 H 0.22479 0.53487 0.64295 0.0
H1264 H 0.9702 0.79747 0.44003 0.0
H1265 H 0.97213 0.8286 0.51098 0.0
H1266 H 0.03417 0.83087 0.46796 0.0
H1267 H 0.03221 0.79959 0.39804 0.0
H1268 H 0.02595 0.84797 0.60772 0.0
H1269 H 1.00168 0.85053 0.34807 0.0
H1270 H 0.98008 0.84322 0.23661 0.0
H1271 H 0.93164 0.86927 0.35743 0.0
H1272 H 0.95289 0.87642 0.47064 0.0
H1273 H 0.03729 0.95129 0.65002 0.0
H1274 H 0.03703 0.91733 0.60398 0.0
H1275 H 0.97391 0.91775 0.60614 0.0
H1276 H 0.97436 0.95223 0.64638 0.0
H1277 H 0.98347 0.89865 0.4876 0.0
H1278 H 1.00761 0.8943 0.75279 0.0
H1279 H 0.03027 0.90358 0.85896 0.0
H1280 H 0.07859 0.88046 0.72825 0.0
H1281 H 0.05633 0.87166 0.62013 0.0
C1282 C 0.9844 0.80409 0.44931 0.0
C1283 C 1.00113 0.7957 0.41516 0.0
C1284 C 0.98548 0.82212 0.48884 0.0
C1285 C 1.00326 0.83246 0.49398 0.0
C1286 C 0.02026 0.82334 0.46527 0.0
C1287 C 0.01917 0.80527 0.42588 0.0
C1288 C 1.00377 0.85348 0.52112 0.0
C1289 C 0.01657 0.859 0.5817 0.0
C1290 C 0.99174 0.86815 0.48684 0.0
C1291 C 0.9789 0.86388 0.41848 0.0
C1292 C 0.98639 0.85456 0.35143 0.0
C1293 C 0.9742 0.85045 0.28778 0.0
C1294 C 0.95449 0.85574 0.28998 0.0
C1295 C 0.94692 0.86516 0.35585 0.0
C1296 C 0.95905 0.86926 0.41981 0.0
C1297 C 0.02338 0.94403 0.64126 0.0
C1298 C 1.00584 0.95435 0.65314 0.0
C1299 C 0.02319 0.92447 0.61524 0.0
C1300 C 1.00543 0.91435 0.60318 0.0
C1301 C 0.98789 0.92485 0.61501 0.0
C1302 C 0.98811 0.94459 0.63875 0.0
C1303 C 1.00501 0.89311 0.57718 0.0
C1304 C 0.99242 0.88755 0.51563 0.0
C1305 C 0.01714 0.87836 0.61095 0.0
C1306 C 0.03033 0.88258 0.67787 0.0
C1307 C 0.02308 0.89128 0.74653 0.0
C1308 C 0.03587 0.89657 0.80682 0.0
C1309 C 0.05588 0.89278 0.79996 0.0
C1310 C 0.06311 0.8835 0.7332 0.0
C1311 C 0.05042 0.87842 0.6723 0.0
H1312 H 0.06576 0.8969 0.84661 0.0
H1313 H 0.94507 0.85257 0.24058 0.0
H1314 H 0.70803 0.01209 0.25254 0.0
H1315 H 0.67706 0.01554 0.31868 0.0
H1316 H 0.7048 1.00249 0.53981 0.0
H1317 H 0.73607 0.99714 0.47147 0.0
H1318 H 0.67136 0.98517 0.54026 0.0
H1319 H 0.68765 0.05137 0.48039 0.0
H1320 H 0.69858 0.079 0.39831 0.0
H1321 H 0.6497 0.07036 0.24401 0.0
H1322 H 0.63854 0.04259 0.32483 0.0
H1323 H 0.58191 0.01404 0.7305 0.0
H1324 H 0.61589 0.01286 0.68573 0.0
H1325 H 0.5962 0.01496 0.44605 0.0
H1326 H 0.56217 0.01599 0.49045 0.0
H1327 H 0.62691 0.03999 0.47087 0.0
H1328 H 0.61314 0.97178 0.52514 0.0
H1329 H 0.6011 0.9454 0.61125 0.0
H1330 H 0.6447 0.95976 0.78259 0.0
H1331 H 0.65702 0.98639 0.69741 0.0
C1332 C 0.70772 1.00972 0.31524 0.0
C1333 C 0.72475 1.00392 0.35599 0.0
C1334 C 0.68984 0.01211 0.35363 0.0
C1335 C 0.6883 1.00972 0.43516 0.0
C1336 C 0.70539 1.00451 0.47695 0.0
C1337 C 0.7234 1.00168 0.4379 0.0
C1338 C 0.66869 0.01209 0.47476 0.0
C1339 C 0.66189 0.99741 0.52608 0.0
C1340 C 0.65587 0.02788 0.45649 0.0
C1341 C 0.66232 0.04483 0.40854 0.0
C1342 C 0.67926 0.05533 0.42885 0.0
C1343 C 0.68549 0.07103 0.38257 0.0
C1344 C 0.67485 0.07642 0.31597 0.0
C1345 C 0.65791 0.06618 0.29568 0.0
C1346 C 0.6516 0.0505 0.34183 0.0
C1347 C 0.58476 0.01415 0.66828 0.0
C1348 C 0.56916 0.01498 0.61431 0.0
C1349 C 0.60428 0.01348 0.64267 0.0
C1350 C 0.60878 0.01372 0.56232 0.0
C1351 C 0.59323 0.01475 0.50833 0.0
C1352 C 0.5737 0.01525 0.53389 0.0
C1353 C 0.62959 0.01292 0.53428 0.0
C1354 C 0.63657 0.02791 0.48546 0.0
C1355 C 0.64257 0.9976 0.55554 0.0
C1356 C 0.63593 0.98109 0.60518 0.0
C1357 C 0.62018 0.9693 0.58117 0.0
C1358 C 0.61332 0.95434 0.62978 0.0
C1359 C 0.62215 0.95096 0.7024 0.0
C1360 C 0.63796 0.96245 0.72628 0.0
C1361 C 0.64492 0.97743 0.6778 0.0
H1362 H 0.61676 0.93943 0.74016 0.0
H1363 H 0.67972 0.08855 0.28012 0.0
H1364 H 0.54203 0.73737 0.41107 0.0
H1365 H 0.54126 0.70346 0.45899 0.0
H1366 H 0.4785 0.70684 0.47748 0.0
H1367 H 0.47945 0.74084 0.43399 0.0
H1368 H 0.48754 0.68166 0.57206 0.0
H1369 H 0.49756 0.69581 0.32724 0.0
H1370 H 0.5061 0.70939 0.1831 0.0
H1371 H 0.56956 0.65699 0.20871 0.0
H1372 H 0.5532 0.65213 0.35036 0.0
H1373 H 0.51176 0.57114 0.45657 0.0
H1374 H 0.50948 0.60546 0.4146 0.0
H1375 H 0.51216 0.62382 0.65544 0.0
H1376 H 0.51364 0.58969 0.69784 0.0
H1377 H 0.52688 0.63686 0.40804 0.0
H1378 H 0.48139 0.66433 0.69063 0.0
H1379 H 0.45345 0.65124 0.76548 0.0
H1380 H 0.44316 0.60832 0.58778 0.0
H1381 H 0.47033 0.62153 0.51023 0.0
C1382 C 0.52823 0.73128 0.43029 0.0
C1383 C 0.51085 0.74206 0.42034 0.0
C1384 C 0.52772 0.71166 0.45605 0.0
C1385 C 0.50977 0.70218 0.47065 0.0
C1386 C 0.49262 0.7136 0.46806 0.0
C1387 C 0.49316 0.73322 0.4433 0.0
C1388 C 0.50861 0.68016 0.47916 0.0
C1389 C 0.49655 0.67199 0.53738 0.0
C1390 C 0.51816 0.66708 0.42665 0.0
C1391 C 0.52531 0.67376 0.34826 0.0
C1392 C 0.51098 0.69074 0.30116 0.0
C1393 C 0.51609 0.69869 0.20868 0.0
C1394 C 0.54723 0.68121 0.1544 0.0
C1395 C 0.55658 0.66533 0.22263 0.0
C1396 C 0.5459 0.6624 0.31196 0.0
C1397 C 0.51186 0.58248 0.50077 0.0
C1398 C 0.51273 0.57743 0.58093 0.0
C1399 C 0.51066 0.60224 0.47653 0.0
C1400 C 0.51035 0.61757 0.5317 0.0
C1401 C 0.51184 0.61246 0.61147 0.0
C1402 C 0.51279 0.59281 0.63573 0.0
C1403 C 0.508 0.63886 0.50796 0.0
C1404 C 0.51871 0.64678 0.44485 0.0
C1405 C 0.49507 0.65154 0.54855 0.0
C1406 C 0.4785 0.64362 0.59567 0.0
C1407 C 0.4732 0.65212 0.66741 0.0
C1408 C 0.45742 0.64473 0.71021 0.0
C1409 C 0.44674 0.62884 0.68202 0.0
C1410 C 0.45159 0.62049 0.61019 0.0
C1411 C 0.46721 0.62794 0.56677 0.0
H1412 H 0.43462 0.6231 0.71559 0.0
H1413 H 0.5548 0.68218 0.09812 0.0
H1414 H 0.79301 0.54331 0.35565 0.0
H1415 H 0.82427 0.54597 0.42676 0.0
H1416 H 0.82809 0.48312 0.43901 0.0
H1417 H 0.7969 0.48037 0.36985 0.0
H1418 H 0.84138 0.52913 0.57608 0.0
H1419 H 0.87361 0.47215 0.37034 0.0
H1420 H 0.86574 0.45778 0.24152 0.0
H1421 H 0.8413 0.51252 0.16551 0.0
H1422 H 0.84925 0.52727 0.29337 0.0
H1423 H 0.93772 0.50385 0.71045 0.0
H1424 H 0.90383 0.5027 0.66423 0.0
H1425 H 0.92075 0.53203 0.45106 0.0
H1426 H 0.95473 0.53269 0.49592 0.0
H1427 H 0.89636 0.50413 0.41532 0.0
H1428 H 0.89562 0.55551 0.61172 0.0
H1429 H 0.90123 0.5686 0.74442 0.0
H1430 H 0.86218 0.52565 0.84026 0.0
H1431 H 0.85649 0.51218 0.7082 0.0
C1432 C 0.80016 0.53008 0.37592 0.0
C1433 C 0.79246 0.51162 0.35619 0.0
C1434 C 0.81811 0.53162 0.41634 0.0
C1435 C 0.82874 0.51474 0.43745 0.0
C1436 C 0.82033 0.49637 0.42287 0.0
C1437 C 0.80245 0.49483 0.38312 0.0
C1438 C 0.84943 0.51605 0.46637 0.0
C1439 C 0.85341 0.52371 0.54096 0.0
C1440 C 0.86523 0.509 0.42081 0.0
C1441 C 0.86189 0.50075 0.34162 0.0
C1442 C 0.86677 0.48117 0.32579 0.0
C1443 C 0.86225 0.47295 0.25302 0.0
C1444 C 0.85294 0.48421 0.19554 0.0
C1445 C 0.84844 0.5038 0.21019 0.0
C1446 C 0.85295 0.5121 0.28276 0.0
C1447 C 0.93426 0.51015 0.65382 0.0
C1448 C 0.9491 0.51848 0.60724 0.0
C1449 C 0.91475 0.50955 0.62745 0.0
C1450 C 0.90943 0.51755 0.55429 0.0
C1451 C 0.92428 0.52575 0.50766 0.0
C1452 C 0.94379 0.5262 0.53364 0.0
C1453 C 0.88855 0.51728 0.52565 0.0
C1454 C 0.88445 0.50968 0.45078 0.0
C1455 C 0.87267 0.52438 0.57118 0.0
C1456 C 0.87573 0.53277 0.65021 0.0
C1457 C 0.88828 0.54883 0.66115 0.0
C1458 C 0.89147 0.55631 0.73623 0.0
C1459 C 0.8821 0.54793 0.80074 0.0
C1460 C 0.86943 0.53212 0.79025 0.0
C1461 C 0.86619 0.52457 0.7153 0.0
H1462 H 0.88462 0.55372 0.85883 0.0
H1463 H 0.84915 0.47776 0.13976 0.0
loop_
_geom_bond_atom_site_label_1
_geom_bond_atom_site_label_2
_geom_bond_distance
_geom_bond_site_symmetry_2
_ccdc_geom_bond_type
H0 C7 0.929 . S
H1 C10 0.930 . S
H2 C12 0.929 . S
H3 C4 0.969 . S
C4 H3 0.969 . S
C4 O5 1.550 . S
C4 H6 0.973 . S
O5 C4 1.550 . S
O5 C11 1.412 . S
H6 C4 0.973 . S
C7 H0 0.929 . S
C7 C8 1.400 . S
C7 C9 1.364 . S
C8 C7 1.400 . S
C8 C12 1.377 . S
C9 C7 1.364 . S
C9 C10 1.374 . S
C10 H1 0.930 . S
C10 C9 1.374 . S
C10 C11 1.383 . S
C11 O5 1.412 . S
C11 C10 1.383 . S
C11 C12 1.394 . S
C12 H2 0.929 . S
C12 C8 1.377 . S
C12 C11 1.394 . S
H13 C20 0.928 . S
H14 C23 0.932 . S
H15 C25 0.928 . S
H16 C17 0.969 . S
C17 H16 0.969 . S
C17 O18 1.550 1_455 S
C17 H19 0.973 1_455 S
O18 C17 1.550 1_655 S
O18 C24 1.411 1_655 S
H19 C17 0.973 1_655 S
C20 H13 0.928 . S
C20 C21 1.400 . S
C20 C22 1.364 . S
C21 C20 1.400 . S
C21 C25 1.377 . S
C22 C20 1.364 . S
C22 C23 1.374 . S
C23 H14 0.932 . S
C23 C22 1.374 . S
C23 C24 1.382 1_655 S
C24 O18 1.411 1_455 S
C24 C23 1.382 1_455 S
C24 C25 1.394 1_455 S
C25 H15 0.928 . S
C25 C21 1.377 . S
C25 C24 1.394 1_655 S
H26 C33 0.928 . S
H27 C36 0.932 . S
H28 C38 0.928 . S
H29 C30 0.969 . S
C30 H29 0.969 . S
C30 O31 1.550 1_545 S
C30 H32 0.973 1_545 S
O31 C30 1.550 1_565 S
O31 C37 1.413 1_565 S
H32 C30 0.973 1_565 S
C33 H26 0.928 . S
C33 C34 1.400 . S
C33 C35 1.364 . S
C34 C33 1.400 . S
C34 C38 1.377 . S
C35 C33 1.364 . S
C35 C36 1.374 . S
C36 H27 0.932 . S
C36 C35 1.374 . S
C36 C37 1.382 1_565 S
C37 O31 1.413 1_545 S
C37 C36 1.382 1_545 S
C37 C38 1.394 1_545 S
C38 H28 0.928 . S
C38 C34 1.377 . S
C38 C37 1.394 1_565 S
H39 C46 0.929 . S
H40 C49 0.930 . S
H41 C51 0.929 . S
H42 C43 0.969 . S
C43 H42 0.969 . S
C43 O44 1.550 . S
C43 H45 0.973 . S
O44 C43 1.550 . S
O44 C50 1.412 . S
H45 C43 0.973 . S
C46 H39 0.929 . S
C46 C47 1.400 . S
C46 C48 1.364 . S
C47 C46 1.400 . S
C47 C51 1.377 . S
C48 C46 1.364 . S
C48 C49 1.374 . S
C49 H40 0.930 . S
C49 C48 1.374 . S
C49 C50 1.383 . S
C50 O44 1.412 . S
C50 C49 1.383 . S
C50 C51 1.394 . S
C51 H41 0.929 . S
C51 C47 1.377 . S
C51 C50 1.394 . S
H52 C59 0.929 . S
H53 C62 0.930 . S
H54 C64 0.929 . S
H55 C56 0.969 . S
C56 H55 0.969 . S
C56 O57 1.550 . S
C56 H58 0.973 . S
O57 C56 1.550 . S
O57 C63 1.412 . S
H58 C56 0.973 . S
C59 H52 0.929 . S
C59 C60 1.400 1_554 S
C59 C61 1.364 . S
C60 C59 1.400 1_556 S
C60 C64 1.377 . S
C61 C59 1.364 . S
C61 C62 1.374 . S
C62 H53 0.930 . S
C62 C61 1.374 . S
C62 C63 1.383 . S
C63 O57 1.412 . S
C63 C62 1.383 . S
C63 C64 1.394 1_554 S
C64 H54 0.929 . S
C64 C60 1.377 . S
C64 C63 1.394 1_556 S
H65 C72 0.929 . S
H66 C75 0.930 . S
H67 C77 0.929 . S
H68 C69 0.969 . S
C69 H68 0.969 . S
C69 O70 1.547 1_455 S
C69 H71 0.973 . S
O70 C69 1.547 1_655 S
O70 C76 1.410 1_655 S
H71 C69 0.973 . S
C72 H65 0.929 . S
C72 C73 1.400 1_554 S
C72 C74 1.364 . S
C73 C72 1.400 1_556 S
C73 C77 1.377 . S
C74 C72 1.364 . S
C74 C75 1.374 . S
C75 H66 0.930 . S
C75 C74 1.374 . S
C75 C76 1.383 . S
C76 O70 1.410 1_455 S
C76 C75 1.383 . S
C76 C77 1.394 1_554 S
C77 H67 0.929 . S
C77 C73 1.377 . S
C77 C76 1.394 1_556 S
H78 C85 0.929 . S
H79 C88 0.930 . S
H80 C90 0.929 . S
H81 C82 0.969 . S
C82 H81 0.969 . S
C82 O83 1.547 1_545 S
C82 H84 0.973 . S
O83 C82 1.547 1_565 S
O83 C89 1.409 1_565 S
H84 C82 0.973 . S
C85 H78 0.929 . S
C85 C86 1.400 1_554 S
C85 C87 1.364 . S
C86 C85 1.400 1_556 S
C86 C90 1.377 . S
C87 C85 1.364 . S
C87 C88 1.374 . S
C88 H79 0.930 . S
C88 C87 1.374 . S
C88 C89 1.383 . S
C89 O83 1.409 1_545 S
C89 C88 1.383 . S
C89 C90 1.394 1_554 S
C90 H80 0.929 . S
C90 C86 1.377 . S
C90 C89 1.394 1_556 S
H91 C98 0.929 . S
H92 C101 0.930 . S
H93 C103 0.929 . S
H94 C95 0.969 . S
C95 H94 0.969 . S
C95 O96 1.550 . S
C95 H97 0.973 . S
O96 C95 1.550 . S
O96 C102 1.412 . S
H97 C95 0.973 . S
C98 H91 0.929 . S
C98 C99 1.400 1_554 S
C98 C100 1.364 . S
C99 C98 1.400 1_556 S
C99 C103 1.377 . S
C100 C98 1.364 . S
C100 C101 1.374 . S
C101 H92 0.930 . S
C101 C100 1.374 . S
C101 C102 1.383 . S
C102 O96 1.412 . S
C102 C101 1.383 . S
C102 C103 1.394 1_554 S
C103 H93 0.929 . S
C103 C99 1.377 . S
C103 C102 1.394 1_556 S
Ho104 C107 2.811 . S
Ho104 O124 2.322 . S
Ho104 O126 2.378 . S
Ho104 O127 2.546 . S
Ho104 O128 2.381 . S
Ho104 O129 2.669 1_565 S
Ho104 O131 2.346 1_565 S
Ho104 O135 2.305 1_455 S
Ho105 C116 2.811 . S
Ho105 O125 2.346 1_545 S
Ho105 O129 2.305 1_655 S
Ho105 O130 2.322 . S
Ho105 O132 2.378 . S
Ho105 O133 2.524 1_655 S
Ho105 O134 2.381 . S
Ho105 O135 2.669 1_545 S
C106 O124 1.259 1_655 S
C106 O125 1.268 . S
C107 Ho104 2.811 . S
C107 C108 1.488 . S
C107 O126 1.215 . S
C107 O127 1.337 . S
C108 C107 1.488 . S
C108 C109 1.348 . S
C108 C113 1.413 . S
C109 C108 1.348 . S
C109 C110 1.442 . S
C109 H136 0.930 1_455 S
C110 C109 1.442 . S
C110 C111 1.381 . S
C110 H137 0.931 1_455 S
C111 C110 1.381 . S
C111 C112 1.321 . S
C112 C111 1.321 . S
C112 C113 1.403 . S
C112 H138 0.934 . S
C113 C108 1.413 . S
C113 C112 1.403 . S
C113 H139 0.930 . S
C114 O128 1.275 1_545 S
C114 O129 1.256 . S
C115 O130 1.259 1_455 S
C115 O131 1.268 . S
C116 Ho105 2.811 . S
C116 C117 1.488 . S
C116 O132 1.215 . S
C116 O133 1.289 1_655 S
C117 C116 1.488 . S
C117 C118 1.325 1_655 S
C117 C122 1.413 . S
C118 C117 1.325 1_455 S
C118 C119 1.439 1_455 S
C118 H140 0.957 . S
C119 C118 1.439 1_655 S
C119 C120 1.381 . S
C119 H141 0.931 1_655 S
C120 C119 1.381 . S
C120 C121 1.321 . S
C121 C120 1.321 . S
C121 C122 1.403 . S
C121 H142 0.934 . S
C122 C117 1.413 . S
C122 C121 1.403 . S
C122 H143 0.930 . S
C123 O134 1.275 . S
C123 O135 1.256 1_545 S
O124 Ho104 2.322 . S
O124 C106 1.259 1_455 S
O125 Ho105 2.346 1_565 S
O125 C106 1.268 . S
O126 Ho104 2.378 . S
O126 C107 1.215 . S
O127 Ho104 2.546 . S
O127 C107 1.337 . S
O128 Ho104 2.381 . S
O128 C114 1.275 1_565 S
O129 Ho104 2.669 1_545 S
O129 Ho105 2.305 1_455 S
O129 C114 1.256 . S
O130 Ho105 2.322 . S
O130 C115 1.259 1_655 S
O131 Ho104 2.346 1_545 S
O131 C115 1.268 . S
O132 Ho105 2.378 . S
O132 C116 1.215 . S
O133 Ho105 2.524 1_455 S
O133 C116 1.289 1_455 S
O134 Ho105 2.381 . S
O134 C123 1.275 . S
O135 Ho104 2.305 1_655 S
O135 Ho105 2.669 1_565 S
O135 C123 1.256 1_565 S
H136 C109 0.930 1_655 S
H137 C110 0.931 1_655 S
H138 C112 0.934 . S
H139 C113 0.930 . S
H140 C118 0.957 . S
H141 C119 0.931 1_455 S
H142 C121 0.934 . S
H143 C122 0.930 . S
Ho144 C147 2.811 . S
Ho144 O164 2.322 . S
Ho144 O166 2.378 . S
Ho144 O167 2.544 . S
Ho144 O168 2.381 . S
Ho144 O169 2.669 . S
Ho144 O171 2.346 . S
Ho144 O175 2.305 1_545 S
Ho145 C156 2.811 . S
Ho145 O165 2.346 . S
Ho145 O169 2.305 1_565 S
Ho145 O170 2.322 . S
Ho145 O172 2.378 . S
Ho145 O173 2.524 1_565 S
Ho145 O174 2.381 . S
Ho145 O175 2.669 . S
C146 O164 1.259 1_565 S
C146 O165 1.268 . S
C147 Ho144 2.811 . S
C147 C148 1.488 . S
C147 O166 1.215 . S
C147 O167 1.333 . S
C148 C147 1.488 . S
C148 C149 1.348 . S
C148 C153 1.413 . S
C149 C148 1.348 . S
C149 C150 1.442 . S
C149 H176 0.930 1_545 S
C150 C149 1.442 . S
C150 C151 1.381 . S
C150 H177 0.931 1_545 S
C151 C150 1.381 . S
C151 C152 1.321 . S
C152 C151 1.321 . S
C152 C153 1.403 . S
C152 H178 0.934 . S
C153 C148 1.413 . S
C153 C152 1.403 . S
C153 H179 0.930 . S
C154 O168 1.275 . S
C154 O169 1.256 . S
C155 O170 1.259 1_545 S
C155 O171 1.268 . S
C156 Ho145 2.811 . S
C156 C157 1.488 . S
C156 O172 1.215 . S
C156 O173 1.289 1_565 S
C157 C156 1.488 . S
C157 C158 1.327 1_565 S
C157 C162 1.413 . S
C158 C157 1.327 1_545 S
C158 C159 1.439 1_545 S
C158 H180 0.954 . S
C159 C158 1.439 1_565 S
C159 C160 1.381 . S
C159 H181 0.931 1_565 S
C160 C159 1.381 . S
C160 C161 1.321 . S
C161 C160 1.321 . S
C161 C162 1.403 . S
C161 H182 0.934 . S
C162 C157 1.413 . S
C162 C161 1.403 . S
C162 H183 0.930 . S
C163 O174 1.275 . S
C163 O175 1.256 . S
O164 Ho144 2.322 . S
O164 C146 1.259 1_545 S
O165 Ho145 2.346 . S
O165 C146 1.268 . S
O166 Ho144 2.378 . S
O166 C147 1.215 . S
O167 Ho144 2.544 . S
O167 C147 1.333 . S
O168 Ho144 2.381 . S
O168 C154 1.275 . S
O169 Ho144 2.669 . S
O169 Ho145 2.305 1_545 S
O169 C154 1.256 . S
O170 Ho145 2.322 . S
O170 C155 1.259 1_565 S
O171 Ho144 2.346 . S
O171 C155 1.268 . S
O172 Ho145 2.378 . S
O172 C156 1.215 . S
O173 Ho145 2.524 1_545 S
O173 C156 1.289 1_545 S
O174 Ho145 2.381 . S
O174 C163 1.275 . S
O175 Ho144 2.305 1_565 S
O175 Ho145 2.669 . S
O175 C163 1.256 . S
H176 C149 0.930 1_565 S
H177 C150 0.931 1_565 S
H178 C152 0.934 . S
H179 C153 0.930 . S
H180 C158 0.954 . S
H181 C159 0.931 1_545 S
H182 C161 0.934 . S
H183 C162 0.930 . S
Ho184 C187 2.811 . S
Ho184 O204 2.322 . S
Ho184 O206 2.378 . S
Ho184 O207 2.524 . S
Ho184 O208 2.381 . S
Ho184 O209 2.669 . S
Ho184 O211 2.346 . S
Ho184 O215 2.305 . S
Ho185 C196 2.811 . S
Ho185 O205 2.346 . S
Ho185 O209 2.305 . S
Ho185 O210 2.322 . S
Ho185 O212 2.378 . S
Ho185 O213 2.524 . S
Ho185 O214 2.381 . S
Ho185 O215 2.669 . S
C186 O204 1.259 . S
C186 O205 1.268 . S
C187 Ho184 2.811 . S
C187 C188 1.488 . S
C187 O206 1.215 . S
C187 O207 1.289 . S
C188 C187 1.488 . S
C188 C189 1.348 . S
C188 C193 1.413 . S
C189 C188 1.348 . S
C189 C190 1.442 . S
C189 H216 0.930 . S
C190 C189 1.442 . S
C190 C191 1.381 . S
C190 H217 0.931 . S
C191 C190 1.381 . S
C191 C192 1.321 . S
C192 C191 1.321 . S
C192 C193 1.403 . S
C192 H218 0.934 . S
C193 C188 1.413 . S
C193 C192 1.403 . S
C193 H219 0.930 . S
C194 O208 1.275 . S
C194 O209 1.256 . S
C195 O210 1.259 . S
C195 O211 1.268 . S
C196 Ho185 2.811 . S
C196 C197 1.488 . S
C196 O212 1.215 . S
C196 O213 1.289 . S
C197 C196 1.488 . S
C197 C198 1.348 . S
C197 C202 1.413 . S
C198 C197 1.348 . S
C198 C199 1.442 . S
C198 H220 0.930 . S
C199 C198 1.442 . S
C199 C200 1.381 . S
C199 H221 0.931 . S
C200 C199 1.381 . S
C200 C201 1.321 . S
C201 C200 1.321 . S
C201 C202 1.403 . S
C201 H222 0.934 . S
C202 C197 1.413 . S
C202 C201 1.403 . S
C202 H223 0.930 . S
C203 O214 1.275 . S
C203 O215 1.256 . S
O204 Ho184 2.322 . S
O204 C186 1.259 . S
O205 Ho185 2.346 . S
O205 C186 1.268 . S
O206 Ho184 2.378 . S
O206 C187 1.215 . S
O207 Ho184 2.524 . S
O207 C187 1.289 . S
O208 Ho184 2.381 . S
O208 C194 1.275 . S
O209 Ho184 2.669 . S
O209 Ho185 2.305 . S
O209 C194 1.256 . S
O210 Ho185 2.322 . S
O210 C195 1.259 . S
O211 Ho184 2.346 . S
O211 C195 1.268 . S
O212 Ho185 2.378 . S
O212 C196 1.215 . S
O213 Ho185 2.524 . S
O213 C196 1.289 . S
O214 Ho185 2.381 . S
O214 C203 1.275 . S
O215 Ho184 2.305 . S
O215 Ho185 2.669 . S
O215 C203 1.256 . S
H216 C189 0.930 . S
H217 C190 0.931 . S
H218 C192 0.934 . S
H219 C193 0.930 . S
H220 C198 0.930 . S
H221 C199 0.931 . S
H222 C201 0.934 . S
H223 C202 0.930 . S
Ho224 C227 2.811 . S
Ho224 O244 2.322 . S
Ho224 O246 2.378 . S
Ho224 O247 2.524 . S
Ho224 O248 2.381 . S
Ho224 O249 2.669 1_655 S
Ho224 O251 2.346 1_655 S
Ho224 O255 2.305 . S
Ho225 C236 2.811 . S
Ho225 O245 2.346 1_455 S
Ho225 O249 2.305 . S
Ho225 O250 2.322 . S
Ho225 O252 2.378 . S
Ho225 O253 2.524 . S
Ho225 O254 2.381 . S
Ho225 O255 2.669 1_455 S
C226 O244 1.259 . S
C226 O245 1.268 . S
C227 Ho224 2.811 . S
C227 C228 1.488 . S
C227 O246 1.215 . S
C227 O247 1.289 . S
C228 C227 1.488 . S
C228 C229 1.348 . S
C228 C233 1.413 . S
C229 C228 1.348 . S
C229 C230 1.442 . S
C229 H256 0.930 . S
C230 C229 1.442 . S
C230 C231 1.381 . S
C230 H257 0.931 . S
C231 C230 1.381 . S
C231 C232 1.321 . S
C232 C231 1.321 . S
C232 C233 1.403 . S
C232 H258 0.934 . S
C233 C228 1.413 . S
C233 C232 1.403 . S
C233 H259 0.930 . S
C234 O248 1.275 1_455 S
C234 O249 1.256 . S
C235 O250 1.259 . S
C235 O251 1.268 . S
C236 Ho225 2.811 . S
C236 C237 1.488 . S
C236 O252 1.215 . S
C236 O253 1.289 . S
C237 C236 1.488 . S
C237 C238 1.348 . S
C237 C242 1.413 . S
C238 C237 1.348 . S
C238 C239 1.442 . S
C238 H260 0.930 . S
C239 C238 1.442 . S
C239 C240 1.381 . S
C239 H261 0.931 . S
C240 C239 1.381 . S
C240 C241 1.321 . S
C241 C240 1.321 . S
C241 C242 1.403 . S
C241 H262 0.934 . S
C242 C237 1.413 . S
C242 C241 1.403 . S
C242 H263 0.930 . S
C243 O254 1.275 . S
C243 O255 1.256 1_455 S
O244 Ho224 2.322 . S
O244 C226 1.259 . S
O245 Ho225 2.346 1_655 S
O245 C226 1.268 . S
O246 Ho224 2.378 . S
O246 C227 1.215 . S
O247 Ho224 2.524 . S
O247 C227 1.289 . S
O248 Ho224 2.381 . S
O248 C234 1.275 1_655 S
O249 Ho224 2.669 1_455 S
O249 Ho225 2.305 . S
O249 C234 1.256 . S
O250 Ho225 2.322 . S
O250 C235 1.259 . S
O251 Ho224 2.346 1_455 S
O251 C235 1.268 . S
O252 Ho225 2.378 . S
O252 C236 1.215 . S
O253 Ho225 2.524 . S
O253 C236 1.289 . S
O254 Ho225 2.381 . S
O254 C243 1.275 . S
O255 Ho224 2.305 . S
O255 Ho225 2.669 1_655 S
O255 C243 1.256 1_655 S
H256 C229 0.930 . S
H257 C230 0.931 . S
H258 C232 0.934 . S
H259 C233 0.930 . S
H260 C238 0.930 . S
H261 C239 0.931 . S
H262 C241 0.934 . S
H263 C242 0.930 . S
H264 C282 0.951 . S
H265 C284 0.951 . S
H266 C286 0.950 . S
H267 C287 0.950 . S
H268 C289 0.950 . S
H269 C292 0.950 . S
H270 C293 0.950 . S
H271 C295 0.950 . S
H272 C296 0.950 . S
H273 C297 0.951 . S
H274 C299 0.951 . S
H275 C301 0.950 . S
H276 C302 0.950 . S
H277 C304 0.950 . S
H278 C307 0.950 . S
H279 C308 0.950 . S
H280 C310 0.950 . S
H281 C311 0.950 . S
C282 H264 0.951 . S
C282 C283 1.366 1_565 S
C282 C284 1.388 . S
C283 C282 1.366 1_545 S
C283 C287 1.385 . S
C284 H265 0.951 . S
C284 C282 1.388 . S
C284 C285 1.366 1_565 S
C285 C284 1.366 1_545 S
C285 C286 1.414 . S
C285 C288 1.499 . S
C286 H266 0.950 . S
C286 C285 1.414 . S
C286 C287 1.374 . S
C287 H267 0.950 . S
C287 C283 1.385 . S
C287 C286 1.374 . S
C288 C285 1.499 . S
C288 C289 1.373 . S
C288 C290 1.389 1_545 S
C289 H268 0.950 . S
C289 C288 1.373 . S
C289 C305 1.377 . S
C290 C288 1.389 1_565 S
C290 C291 1.524 . S
C290 C304 1.377 . S
C291 C290 1.524 . S
C291 C292 1.397 . S
C291 C296 1.363 . S
C292 H269 0.950 . S
C292 C291 1.397 . S
C292 C293 1.334 . S
C293 H270 0.950 . S
C293 C292 1.334 . S
C293 C294 1.287 . S
C294 C293 1.287 . S
C294 C295 1.524 . S
C294 H313 0.913 . S
C295 H271 0.950 . S
C295 C294 1.524 . S
C295 C296 1.415 . S
C296 H272 0.950 . S
C296 C291 1.363 . S
C296 C295 1.415 . S
C297 H273 0.951 . S
C297 C298 1.366 . S
C297 C299 1.388 . S
C298 C297 1.366 . S
C298 C302 1.385 1_545 S
C299 H274 0.951 . S
C299 C297 1.388 . S
C299 C300 1.366 . S
C300 C299 1.366 . S
C300 C301 1.414 1_545 S
C300 C303 1.499 . S
C301 H275 0.950 . S
C301 C300 1.414 1_565 S
C301 C302 1.374 . S
C302 H276 0.950 . S
C302 C298 1.385 1_565 S
C302 C301 1.374 . S
C303 C300 1.499 . S
C303 C304 1.373 1_545 S
C303 C305 1.389 . S
C304 H277 0.950 . S
C304 C290 1.377 . S
C304 C303 1.373 1_565 S
C305 C289 1.377 . S
C305 C303 1.389 . S
C305 C306 1.524 . S
C306 C305 1.524 . S
C306 C307 1.397 . S
C306 C311 1.363 . S
C307 H278 0.950 . S
C307 C306 1.397 . S
C307 C308 1.334 . S
C308 H279 0.950 . S
C308 C307 1.334 . S
C308 C309 1.287 . S
C309 C308 1.287 . S
C309 C310 1.524 . S
C309 H312 0.999 . S
C310 H280 0.950 . S
C310 C309 1.524 . S
C310 C311 1.415 . S
C311 H281 0.950 . S
C311 C306 1.363 . S
C311 C310 1.415 . S
H312 C309 0.999 . S
H313 C294 0.913 . S
H314 C332 0.951 . S
H315 C334 0.951 . S
H316 C336 0.950 . S
H317 C337 0.950 . S
H318 C339 0.950 . S
H319 C342 0.950 . S
H320 C343 0.950 . S
H321 C345 0.950 . S
H322 C346 0.950 . S
H323 C347 0.951 . S
H324 C349 0.951 . S
H325 C351 0.950 . S
H326 C352 0.950 . S
H327 C354 0.950 . S
H328 C357 0.950 . S
H329 C358 0.950 . S
H330 C360 0.950 . S
H331 C361 0.950 . S
C332 H314 0.951 . S
C332 C333 1.366 . S
C332 C334 1.388 . S
C333 C332 1.366 . S
C333 C337 1.385 . S
C334 H315 0.951 . S
C334 C332 1.388 . S
C334 C335 1.366 . S
C335 C334 1.366 . S
C335 C336 1.414 . S
C335 C338 1.499 . S
C336 H316 0.950 . S
C336 C335 1.414 . S
C336 C337 1.374 . S
C337 H317 0.950 . S
C337 C333 1.385 . S
C337 C336 1.374 . S
C338 C335 1.499 . S
C338 C339 1.373 . S
C338 C340 1.389 . S
C339 H318 0.950 . S
C339 C338 1.373 . S
C339 C355 1.377 . S
C340 C338 1.389 . S
C340 C341 1.524 . S
C340 C354 1.377 . S
C341 C340 1.524 . S
C341 C342 1.397 . S
C341 C346 1.363 . S
C342 H319 0.950 . S
C342 C341 1.397 . S
C342 C343 1.334 . S
C343 H320 0.950 . S
C343 C342 1.334 . S
C343 C344 1.287 . S
C344 C343 1.287 . S
C344 C345 1.524 . S
C344 H363 0.913 . S
C345 H321 0.950 . S
C345 C344 1.524 . S
C345 C346 1.415 . S
C346 H322 0.950 . S
C346 C341 1.363 . S
C346 C345 1.415 . S
C347 H323 0.951 . S
C347 C348 1.366 . S
C347 C349 1.388 . S
C348 C347 1.366 . S
C348 C352 1.385 . S
C349 H324 0.951 . S
C349 C347 1.388 . S
C349 C350 1.366 . S
C350 C349 1.366 . S
C350 C351 1.414 . S
C350 C353 1.499 . S
C351 H325 0.950 . S
C351 C350 1.414 . S
C351 C352 1.374 . S
C352 H326 0.950 . S
C352 C348 1.385 . S
C352 C351 1.374 . S
C353 C350 1.499 . S
C353 C354 1.373 . S
C353 C355 1.389 . S
C354 H327 0.950 . S
C354 C340 1.377 . S
C354 C353 1.373 . S
C355 C339 1.377 . S
C355 C353 1.389 . S
C355 C356 1.524 . S
C356 C355 1.524 . S
C356 C357 1.397 . S
C356 C361 1.363 . S
C357 H328 0.950 . S
C357 C356 1.397 . S
C357 C358 1.334 . S
C358 H329 0.950 . S
C358 C357 1.334 . S
C358 C359 1.287 . S
C359 C358 1.287 . S
C359 C360 1.524 . S
C359 H362 0.999 . S
C360 H330 0.950 . S
C360 C359 1.524 . S
C360 C361 1.415 . S
C361 H331 0.950 . S
C361 C356 1.363 . S
C361 C360 1.415 . S
H362 C359 0.999 . S
H363 C344 0.913 . S
H364 C382 0.951 . S
H365 C384 0.951 . S
H366 C386 0.950 . S
H367 C387 0.950 . S
H368 C389 0.950 . S
H369 C392 0.950 . S
H370 C393 0.950 . S
H371 C395 0.950 . S
H372 C396 0.950 . S
H373 C397 0.951 . S
H374 C399 0.951 . S
H375 C401 0.950 . S
H376 C402 0.950 . S
H377 C404 0.950 . S
H378 C407 0.950 . S
H379 C408 0.950 . S
H380 C410 0.950 . S
H381 C411 0.950 . S
C382 H364 0.951 . S
C382 C383 1.366 . S
C382 C384 1.388 . S
C383 C382 1.366 . S
C383 C387 1.385 . S
C384 H365 0.951 . S
C384 C382 1.388 . S
C384 C385 1.366 . S
C385 C384 1.366 . S
C385 C386 1.414 . S
C385 C388 1.499 . S
C386 H366 0.950 . S
C386 C385 1.414 . S
C386 C387 1.374 . S
C387 H367 0.950 . S
C387 C383 1.385 . S
C387 C386 1.374 . S
C388 C385 1.499 . S
C388 C389 1.373 . S
C388 C390 1.389 . S
C389 H368 0.950 . S
C389 C388 1.373 . S
C389 C405 1.377 . S
C390 C388 1.389 . S
C390 C391 1.524 . S
C390 C404 1.377 . S
C391 C390 1.524 . S
C391 C392 1.397 . S
C391 C396 1.363 . S
C392 H369 0.950 . S
C392 C391 1.397 . S
C392 C393 1.334 . S
C393 H370 0.950 . S
C393 C392 1.334 . S
C393 C394 1.287 . S
C394 C393 1.287 . S
C394 C395 1.524 . S
C394 H413 0.913 . S
C395 H371 0.950 . S
C395 C394 1.524 . S
C395 C396 1.415 . S
C396 H372 0.950 . S
C396 C391 1.363 . S
C396 C395 1.415 . S
C397 H373 0.951 . S
C397 C398 1.366 . S
C397 C399 1.388 . S
C398 C397 1.366 . S
C398 C402 1.385 . S
C399 H374 0.951 . S
C399 C397 1.388 . S
C399 C400 1.366 . S
C400 C399 1.366 . S
C400 C401 1.414 . S
C400 C403 1.499 . S
C401 H375 0.950 . S
C401 C400 1.414 . S
C401 C402 1.374 . S
C402 H376 0.950 . S
C402 C398 1.385 . S
C402 C401 1.374 . S
C403 C400 1.499 . S
C403 C404 1.373 . S
C403 C405 1.389 . S
C404 H377 0.950 . S
C404 C390 1.377 . S
C404 C403 1.373 . S
C405 C389 1.377 . S
C405 C403 1.389 . S
C405 C406 1.524 . S
C406 C405 1.524 . S
C406 C407 1.397 . S
C406 C411 1.363 . S
C407 H378 0.950 . S
C407 C406 1.397 . S
C407 C408 1.334 . S
C408 H379 0.950 . S
C408 C407 1.334 . S
C408 C409 1.287 . S
C409 C408 1.287 . S
C409 C410 1.524 . S
C409 H412 0.999 . S
C410 H380 0.950 . S
C410 C409 1.524 . S
C410 C411 1.415 . S
C411 H381 0.950 . S
C411 C406 1.363 . S
C411 C410 1.415 . S
H412 C409 0.999 . S
H413 C394 0.913 . S
H414 C432 0.951 . S
H415 C434 0.951 . S
H416 C436 0.950 . S
H417 C437 0.950 . S
H418 C439 0.950 . S
H419 C442 0.950 . S
H420 C443 0.950 . S
H421 C445 0.950 . S
H422 C446 0.950 . S
H423 C447 0.951 . S
H424 C449 0.951 . S
H425 C451 0.950 . S
H426 C452 0.950 . S
H427 C454 0.950 . S
H428 C457 0.950 . S
H429 C458 0.950 . S
H430 C460 0.950 . S
H431 C461 0.950 . S
C432 H414 0.951 . S
C432 C433 1.366 . S
C432 C434 1.388 . S
C433 C432 1.366 . S
C433 C437 1.385 . S
C434 H415 0.951 . S
C434 C432 1.388 . S
C434 C435 1.366 . S
C435 C434 1.366 . S
C435 C436 1.414 . S
C435 C438 1.499 . S
C436 H416 0.950 . S
C436 C435 1.414 . S
C436 C437 1.374 . S
C437 H417 0.950 . S
C437 C433 1.385 . S
C437 C436 1.374 . S
C438 C435 1.499 . S
C438 C439 1.373 . S
C438 C440 1.389 1_455 S
C439 H418 0.950 . S
C439 C438 1.373 . S
C439 C455 1.377 . S
C440 C438 1.389 1_655 S
C440 C441 1.524 . S
C440 C454 1.377 . S
C441 C440 1.524 . S
C441 C442 1.397 . S
C441 C446 1.363 . S
C442 H419 0.950 . S
C442 C441 1.397 . S
C442 C443 1.334 . S
C443 H420 0.950 . S
C443 C442 1.334 . S
C443 C444 1.287 . S
C444 C443 1.287 . S
C444 C445 1.524 . S
C444 H463 0.913 . S
C445 H421 0.950 . S
C445 C444 1.524 . S
C445 C446 1.415 . S
C446 H422 0.950 . S
C446 C441 1.363 . S
C446 C445 1.415 . S
C447 H423 0.951 . S
C447 C448 1.366 . S
C447 C449 1.388 . S
C448 C447 1.366 . S
C448 C452 1.385 . S
C449 H424 0.951 . S
C449 C447 1.388 . S
C449 C450 1.366 . S
C450 C449 1.366 . S
C450 C451 1.414 . S
C450 C453 1.499 . S
C451 H425 0.950 . S
C451 C450 1.414 . S
C451 C452 1.374 . S
C452 H426 0.950 . S
C452 C448 1.385 . S
C452 C451 1.374 . S
C453 C450 1.499 . S
C453 C454 1.373 1_455 S
C453 C455 1.389 . S
C454 H427 0.950 . S
C454 C440 1.377 . S
C454 C453 1.373 1_655 S
C455 C439 1.377 . S
C455 C453 1.389 . S
C455 C456 1.524 . S
C456 C455 1.524 . S
C456 C457 1.397 . S
C456 C461 1.363 . S
C457 H428 0.950 . S
C457 C456 1.397 . S
C457 C458 1.334 . S
C458 H429 0.950 . S
C458 C457 1.334 . S
C458 C459 1.287 . S
C459 C458 1.287 . S
C459 C460 1.524 . S
C459 H462 0.999 . S
C460 H430 0.950 . S
C460 C459 1.524 . S
C460 C461 1.415 . S
C461 H431 0.950 . S
C461 C456 1.363 . S
C461 C460 1.415 . S
H462 C459 0.999 . S
H463 C444 0.913 . S
H464 C482 0.951 . S
H465 C484 0.951 . S
H466 C486 0.950 . S
H467 C487 0.950 . S
H468 C489 0.950 . S
H469 C492 0.950 . S
H470 C493 0.950 . S
H471 C495 0.950 . S
H472 C496 0.950 . S
H473 C497 0.951 . S
H474 C499 0.951 1_554 S
H475 C501 0.950 . S
H476 C502 0.950 . S
H477 C504 0.950 . S
H478 C507 0.950 1_556 S
H479 C508 0.950 . S
H480 C510 0.950 . S
H481 C511 0.950 . S
C482 H464 0.951 . S
C482 C483 1.361 1_545 S
C482 C484 1.388 . S
C483 C482 1.361 1_565 S
C483 C487 1.390 . S
C484 H465 0.951 . S
C484 C482 1.388 . S
C484 C485 1.366 1_545 S
C485 C484 1.366 1_565 S
C485 C486 1.414 . S
C485 C488 1.499 . S
C486 H466 0.950 . S
C486 C485 1.414 . S
C486 C487 1.374 . S
C487 H467 0.950 . S
C487 C483 1.390 . S
C487 C486 1.374 . S
C488 C485 1.499 . S
C488 C489 1.373 1_565 S
C488 C490 1.389 . S
C489 H468 0.950 . S
C489 C488 1.373 1_545 S
C489 C505 1.377 . S
C490 C488 1.389 . S
C490 C491 1.524 . S
C490 C504 1.377 1_554 S
C491 C490 1.524 . S
C491 C492 1.397 . S
C491 C496 1.363 1_554 S
C492 H469 0.950 . S
C492 C491 1.397 . S
C492 C493 1.334 . S
C493 H470 0.950 . S
C493 C492 1.334 . S
C493 C494 1.287 1_554 S
C494 C493 1.287 1_556 S
C494 C495 1.524 . S
C494 H513 0.913 . S
C495 H471 0.950 . S
C495 C494 1.524 . S
C495 C496 1.415 . S
C496 H472 0.950 . S
C496 C491 1.363 1_556 S
C496 C495 1.415 . S
C497 H473 0.951 . S
C497 C498 1.357 1_565 S
C497 C499 1.388 . S
C498 C497 1.357 1_545 S
C498 C502 1.395 . S
C499 H474 0.951 1_556 S
C499 C497 1.388 . S
C499 C500 1.366 1_565 S
C500 C499 1.366 1_545 S
C500 C501 1.414 . S
C500 C503 1.499 . S
C501 H475 0.950 . S
C501 C500 1.414 . S
C501 C502 1.374 . S
C502 H476 0.950 . S
C502 C498 1.395 . S
C502 C501 1.374 . S
C503 C500 1.499 . S
C503 C504 1.373 1_545 S
C503 C505 1.389 1_556 S
C504 H477 0.950 . S
C504 C490 1.377 1_556 S
C504 C503 1.373 1_565 S
C505 C489 1.377 . S
C505 C503 1.389 1_554 S
C505 C506 1.524 . S
C506 C505 1.524 . S
C506 C507 1.397 . S
C506 C511 1.363 . S
C507 H478 0.950 1_554 S
C507 C506 1.397 . S
C507 C508 1.334 . S
C508 H479 0.950 . S
C508 C507 1.334 . S
C508 C509 1.287 . S
C509 C508 1.287 . S
C509 C510 1.524 . S
C509 H512 0.999 . S
C510 H480 0.950 . S
C510 C509 1.524 . S
C510 C511 1.415 . S
C511 H481 0.950 . S
C511 C506 1.363 . S
C511 C510 1.415 . S
H512 C509 0.999 . S
H513 C494 0.913 . S
H514 C532 0.951 . S
H515 C534 0.951 . S
H516 C536 0.950 . S
H517 C537 0.950 . S
H518 C539 0.950 . S
H519 C542 0.950 . S
H520 C543 0.950 . S
H521 C545 0.950 . S
H522 C546 0.950 . S
H523 C547 0.951 . S
H524 C549 0.951 . S
H525 C551 0.950 . S
H526 C552 0.950 . S
H527 C554 0.950 1_556 S
H528 C557 0.950 . S
H529 C558 0.950 . S
H530 C560 0.950 . S
H531 C561 0.950 . S
C532 H514 0.951 . S
C532 C533 1.366 . S
C532 C534 1.388 . S
C533 C532 1.366 . S
C533 C537 1.385 . S
C534 H515 0.951 . S
C534 C532 1.388 . S
C534 C535 1.366 . S
C535 C534 1.366 . S
C535 C536 1.414 . S
C535 C538 1.499 . S
C536 H516 0.950 . S
C536 C535 1.414 . S
C536 C537 1.374 . S
C537 H517 0.950 . S
C537 C533 1.385 . S
C537 C536 1.374 . S
C538 C535 1.499 . S
C538 C539 1.373 . S
C538 C540 1.389 . S
C539 H518 0.950 . S
C539 C538 1.373 . S
C539 C555 1.377 . S
C540 C538 1.389 . S
C540 C541 1.524 . S
C540 C554 1.377 . S
C541 C540 1.524 . S
C541 C542 1.397 . S
C541 C546 1.363 . S
C542 H519 0.950 . S
C542 C541 1.397 . S
C542 C543 1.334 . S
C543 H520 0.950 . S
C543 C542 1.334 . S
C543 C544 1.287 . S
C544 C543 1.287 . S
C544 C545 1.524 . S
C544 H563 0.913 . S
C545 H521 0.950 . S
C545 C544 1.524 . S
C545 C546 1.415 . S
C546 H522 0.950 . S
C546 C541 1.363 . S
C546 C545 1.415 . S
C547 H523 0.951 . S
C547 C548 1.366 . S
C547 C549 1.388 . S
C548 C547 1.366 . S
C548 C552 1.385 . S
C549 H524 0.951 . S
C549 C547 1.388 . S
C549 C550 1.366 . S
C550 C549 1.366 . S
C550 C551 1.414 . S
C550 C553 1.499 . S
C551 H525 0.950 . S
C551 C550 1.414 . S
C551 C552 1.374 . S
C552 H526 0.950 . S
C552 C548 1.385 . S
C552 C551 1.374 . S
C553 C550 1.499 . S
C553 C554 1.373 1_556 S
C553 C555 1.389 1_556 S
C554 H527 0.950 1_554 S
C554 C540 1.377 . S
C554 C553 1.373 1_554 S
C555 C539 1.377 . S
C555 C553 1.389 1_554 S
C555 C556 1.524 . S
C556 C555 1.524 . S
C556 C557 1.397 . S
C556 C561 1.363 1_554 S
C557 H528 0.950 . S
C557 C556 1.397 . S
C557 C558 1.334 . S
C558 H529 0.950 . S
C558 C557 1.334 . S
C558 C559 1.287 . S
C559 C558 1.287 . S
C559 C560 1.524 1_554 S
C559 H562 0.999 . S
C560 H530 0.950 . S
C560 C559 1.524 1_556 S
C560 C561 1.415 . S
C561 H531 0.950 . S
C561 C556 1.363 1_556 S
C561 C560 1.415 . S
H562 C559 0.999 . S
H563 C544 0.913 . S
H564 C582 0.951 . S
H565 C584 0.951 . S
H566 C586 0.950 . S
H567 C587 0.950 . S
H568 C589 0.950 . S
H569 C592 0.950 . S
H570 C593 0.950 . S
H571 C595 0.950 . S
H572 C596 0.950 . S
H573 C597 0.951 . S
H574 C599 0.951 . S
H575 C601 0.950 . S
H576 C602 0.950 . S
H577 C604 0.950 1_556 S
H578 C607 0.950 . S
H579 C608 0.950 . S
H580 C610 0.950 . S
H581 C611 0.950 1_556 S
C582 H564 0.951 . S
C582 C583 1.366 . S
C582 C584 1.388 . S
C583 C582 1.366 . S
C583 C587 1.385 . S
C584 H565 0.951 . S
C584 C582 1.388 . S
C584 C585 1.366 . S
C585 C584 1.366 . S
C585 C586 1.414 . S
C585 C588 1.499 . S
C586 H566 0.950 . S
C586 C585 1.414 . S
C586 C587 1.374 . S
C587 H567 0.950 . S
C587 C583 1.385 . S
C587 C586 1.374 . S
C588 C585 1.499 . S
C588 C589 1.373 . S
C588 C590 1.389 . S
C589 H568 0.950 . S
C589 C588 1.373 . S
C589 C605 1.377 . S
C590 C588 1.389 . S
C590 C591 1.524 . S
C590 C604 1.377 . S
C591 C590 1.524 . S
C591 C592 1.397 . S
C591 C596 1.363 . S
C592 H569 0.950 . S
C592 C591 1.397 . S
C592 C593 1.334 . S
C593 H570 0.950 . S
C593 C592 1.334 . S
C593 C594 1.287 . S
C594 C593 1.287 . S
C594 C595 1.524 . S
C594 H613 0.913 . S
C595 H571 0.950 . S
C595 C594 1.524 . S
C595 C596 1.415 . S
C596 H572 0.950 . S
C596 C591 1.363 . S
C596 C595 1.415 . S
C597 H573 0.951 . S
C597 C598 1.366 . S
C597 C599 1.388 . S
C598 C597 1.366 . S
C598 C602 1.385 . S
C599 H574 0.951 . S
C599 C597 1.388 . S
C599 C600 1.366 . S
C600 C599 1.366 . S
C600 C601 1.414 . S
C600 C603 1.499 . S
C601 H575 0.950 . S
C601 C600 1.414 . S
C601 C602 1.374 . S
C602 H576 0.950 . S
C602 C598 1.385 . S
C602 C601 1.374 . S
C603 C600 1.499 . S
C603 C604 1.373 1_556 S
C603 C605 1.389 1_556 S
C604 H577 0.950 1_554 S
C604 C590 1.377 . S
C604 C603 1.373 1_554 S
C605 C589 1.377 . S
C605 C603 1.389 1_554 S
C605 C606 1.524 . S
C606 C605 1.524 . S
C606 C607 1.397 . S
C606 C611 1.363 . S
C607 H578 0.950 . S
C607 C606 1.397 . S
C607 C608 1.334 . S
C608 H579 0.950 . S
C608 C607 1.334 . S
C608 C609 1.287 . S
C609 C608 1.287 . S
C609 C610 1.524 1_554 S
C609 H612 0.999 . S
C610 H580 0.950 . S
C610 C609 1.524 1_556 S
C610 C611 1.415 1_556 S
C611 H581 0.950 1_554 S
C611 C606 1.363 . S
C611 C610 1.415 1_554 S
H612 C609 0.999 . S
H613 C594 0.913 . S
H614 C632 0.951 . S
H615 C634 0.951 . S
H616 C636 0.950 . S
H617 C637 0.950 . S
H618 C639 0.950 . S
H619 C642 0.950 . S
H620 C643 0.950 . S
H621 C645 0.950 . S
H622 C646 0.950 . S
H623 C647 0.951 . S
H624 C649 0.951 . S
H625 C651 0.950 . S
H626 C652 0.950 . S
H627 C654 0.950 . S
H628 C657 0.950 . S
H629 C658 0.950 . S
H630 C660 0.950 . S
H631 C661 0.950 . S
C632 H614 0.951 . S
C632 C633 1.374 . S
C632 C634 1.388 . S
C633 C632 1.374 . S
C633 C637 1.376 1_655 S
C634 H615 0.951 . S
C634 C632 1.388 . S
C634 C635 1.391 . S
C635 C634 1.391 . S
C635 C636 1.388 1_655 S
C635 C638 1.498 . S
C636 H616 0.950 . S
C636 C635 1.388 1_455 S
C636 C637 1.374 . S
C637 H617 0.950 . S
C637 C633 1.376 1_455 S
C637 C636 1.374 . S
C638 C635 1.498 . S
C638 C639 1.374 1_655 S
C638 C640 1.388 . S
C639 H618 0.950 . S
C639 C638 1.374 1_455 S
C639 C655 1.377 . S
C640 C638 1.388 . S
C640 C641 1.524 . S
C640 C654 1.377 . S
C641 C640 1.524 . S
C641 C642 1.397 . S
C641 C646 1.363 . S
C642 H619 0.950 . S
C642 C641 1.397 . S
C642 C643 1.334 . S
C643 H620 0.950 . S
C643 C642 1.334 . S
C643 C644 1.287 . S
C644 C643 1.287 . S
C644 C645 1.524 . S
C644 H663 0.913 . S
C645 H621 0.950 . S
C645 C644 1.524 . S
C645 C646 1.415 . S
C646 H622 0.950 . S
C646 C641 1.363 . S
C646 C645 1.415 . S
C647 H623 0.951 . S
C647 C648 1.392 . S
C647 C649 1.388 . S
C648 C647 1.392 . S
C648 C652 1.359 1_455 S
C649 H624 0.951 . S
C649 C647 1.388 . S
C649 C650 1.408 . S
C650 C649 1.408 . S
C650 C651 1.371 1_455 S
C650 C653 1.498 . S
C651 H625 0.950 . S
C651 C650 1.371 1_655 S
C651 C652 1.374 . S
C652 H626 0.950 . S
C652 C648 1.359 1_655 S
C652 C651 1.374 . S
C653 C650 1.498 . S
C653 C654 1.354 1_456 S
C653 C655 1.408 1_556 S
C654 H627 0.950 . S
C654 C640 1.377 . S
C654 C653 1.354 1_654 S
C655 C639 1.377 . S
C655 C653 1.408 1_554 S
C655 C656 1.524 1_554 S
C656 C655 1.524 1_556 S
C656 C657 1.397 . S
C656 C661 1.363 1_556 S
C657 H628 0.950 . S
C657 C656 1.397 . S
C657 C658 1.334 . S
C658 H629 0.950 . S
C658 C657 1.334 . S
C658 C659 1.287 . S
C659 C658 1.287 . S
C659 C660 1.524 . S
C659 H662 0.999 . S
C660 H630 0.950 . S
C660 C659 1.524 . S
C660 C661 1.415 1_556 S
C661 H631 0.950 . S
C661 C656 1.363 1_554 S
C661 C660 1.415 1_554 S
H662 C659 0.999 . S
H663 C644 0.913 . S
H664 C682 0.951 . S
H665 C684 0.951 . S
H666 C686 0.950 . S
H667 C687 0.950 . S
H668 C689 0.950 . S
H669 C692 0.950 . S
H670 C693 0.950 . S
H671 C695 0.950 . S
H672 C696 0.950 . S
H673 C697 0.951 . S
H674 C699 0.951 1_455 S
H675 C701 0.950 . S
H676 C702 0.950 . S
H677 C704 0.950 . S
H678 C707 0.950 . S
H679 C708 0.950 . S
H680 C710 0.950 . S
H681 C711 0.950 1_455 S
C682 H664 0.951 . S
C682 C683 1.366 1_655 S
C682 C684 1.388 . S
C683 C682 1.366 1_455 S
C683 C687 1.385 . S
C684 H665 0.951 . S
C684 C682 1.388 . S
C684 C685 1.368 . S
C685 C684 1.368 . S
C685 C686 1.410 1_655 S
C685 C688 1.499 . S
C686 H666 0.950 . S
C686 C685 1.410 1_455 S
C686 C687 1.374 . S
C687 H667 0.950 . S
C687 C683 1.385 . S
C687 C686 1.374 . S
C688 C685 1.499 . S
C688 C689 1.373 . S
C688 C690 1.389 . S
C689 H668 0.950 . S
C689 C688 1.373 . S
C689 C705 1.377 . S
C690 C688 1.389 . S
C690 C691 1.524 1_655 S
C690 C704 1.377 . S
C691 C690 1.524 1_455 S
C691 C692 1.397 . S
C691 C696 1.363 1_455 S
C692 H669 0.950 . S
C692 C691 1.397 . S
C692 C693 1.334 . S
C693 H670 0.950 . S
C693 C692 1.334 . S
C693 C694 1.287 . S
C694 C693 1.287 . S
C694 C695 1.524 1_455 S
C694 H713 0.913 . S
C695 H671 0.950 . S
C695 C694 1.524 1_655 S
C695 C696 1.415 . S
C696 H672 0.950 . S
C696 C691 1.363 1_655 S
C696 C695 1.415 . S
C697 H673 0.951 . S
C697 C698 1.366 . S
C697 C699 1.388 . S
C698 C697 1.366 . S
C698 C702 1.385 . S
C699 H674 0.951 1_655 S
C699 C697 1.388 . S
C699 C700 1.366 . S
C700 C699 1.366 . S
C700 C701 1.414 . S
C700 C703 1.499 . S
C701 H675 0.950 . S
C701 C700 1.414 . S
C701 C702 1.374 . S
C702 H676 0.950 . S
C702 C698 1.385 . S
C702 C701 1.374 . S
C703 C700 1.499 . S
C703 C704 1.373 . S
C703 C705 1.389 . S
C704 H677 0.950 . S
C704 C690 1.377 . S
C704 C703 1.373 . S
C705 C689 1.377 . S
C705 C703 1.389 . S
C705 C706 1.524 . S
C706 C705 1.524 . S
C706 C707 1.397 . S
C706 C711 1.363 . S
C707 H678 0.950 . S
C707 C706 1.397 . S
C707 C708 1.334 . S
C708 H679 0.950 . S
C708 C707 1.334 . S
C708 C709 1.287 . S
C709 C708 1.287 . S
C709 C710 1.524 . S
C709 H712 0.999 . S
C710 H680 0.950 . S
C710 C709 1.524 . S
C710 C711 1.415 . S
C711 H681 0.950 1_655 S
C711 C706 1.363 . S
C711 C710 1.415 . S
H712 C709 0.999 . S
H713 C694 0.913 . S
H714 C732 0.951 . S
H715 C734 0.951 . S
H716 C736 0.950 . S
H717 C737 0.950 . S
H718 C739 0.950 . S
H719 C742 0.950 . S
H720 C743 0.950 . S
H721 C745 0.950 . S
H722 C746 0.950 . S
H723 C747 0.951 . S
H724 C749 0.951 . S
H725 C751 0.950 . S
H726 C752 0.950 . S
H727 C754 0.950 . S
H728 C757 0.950 . S
H729 C758 0.950 . S
H730 C760 0.950 . S
H731 C761 0.950 . S
C732 H714 0.951 . S
C732 C733 1.366 1_565 S
C732 C734 1.388 . S
C733 C732 1.366 1_545 S
C733 C737 1.385 . S
C734 H715 0.951 . S
C734 C732 1.388 . S
C734 C735 1.366 . S
C735 C734 1.366 . S
C735 C736 1.414 1_565 S
C735 C738 1.499 . S
C736 H716 0.950 . S
C736 C735 1.414 1_545 S
C736 C737 1.374 . S
C737 H717 0.950 . S
C737 C733 1.385 . S
C737 C736 1.374 . S
C738 C735 1.499 . S
C738 C739 1.373 1_565 S
C738 C740 1.389 . S
C739 H718 0.950 . S
C739 C738 1.373 1_545 S
C739 C755 1.377 . S
C740 C738 1.389 . S
C740 C741 1.524 . S
C740 C754 1.377 . S
C741 C740 1.524 . S
C741 C742 1.397 . S
C741 C746 1.363 . S
C742 H719 0.950 . S
C742 C741 1.397 . S
C742 C743 1.334 . S
C743 H720 0.950 . S
C743 C742 1.334 . S
C743 C744 1.287 . S
C744 C743 1.287 . S
C744 C745 1.524 . S
C744 H763 0.913 . S
C745 H721 0.950 . S
C745 C744 1.524 . S
C745 C746 1.415 . S
C746 H722 0.950 . S
C746 C741 1.363 . S
C746 C745 1.415 . S
C747 H723 0.951 . S
C747 C748 1.366 . S
C747 C749 1.388 . S
C748 C747 1.366 . S
C748 C752 1.385 . S
C749 H724 0.951 . S
C749 C747 1.388 . S
C749 C750 1.366 . S
C750 C749 1.366 . S
C750 C751 1.414 . S
C750 C753 1.499 . S
C751 H725 0.950 . S
C751 C750 1.414 . S
C751 C752 1.374 . S
C752 H726 0.950 . S
C752 C748 1.385 . S
C752 C751 1.374 . S
C753 C750 1.499 . S
C753 C754 1.373 . S
C753 C755 1.389 1_565 S
C754 H727 0.950 . S
C754 C740 1.377 . S
C754 C753 1.373 . S
C755 C739 1.377 . S
C755 C753 1.389 1_545 S
C755 C756 1.524 . S
C756 C755 1.524 . S
C756 C757 1.397 . S
C756 C761 1.363 . S
C757 H728 0.950 . S
C757 C756 1.397 . S
C757 C758 1.334 . S
C758 H729 0.950 . S
C758 C757 1.334 . S
C758 C759 1.287 . S
C759 C758 1.287 . S
C759 C760 1.524 . S
C759 H762 0.999 . S
C760 H730 0.950 . S
C760 C759 1.524 . S
C760 C761 1.415 . S
C761 H731 0.950 . S
C761 C756 1.363 . S
C761 C760 1.415 . S
H762 C759 0.999 . S
H763 C744 0.913 . S
H764 C782 0.951 . S
H765 C784 0.951 . S
H766 C786 0.950 . S
H767 C787 0.950 . S
H768 C789 0.950 . S
H769 C792 0.950 . S
H770 C793 0.950 . S
H771 C795 0.950 . S
H772 C796 0.950 . S
H773 C797 0.951 . S
H774 C799 0.951 . S
H775 C801 0.950 . S
H776 C802 0.950 . S
H777 C804 0.950 . S
H778 C807 0.950 . S
H779 C808 0.950 . S
H780 C810 0.950 . S
H781 C811 0.950 . S
C782 H764 0.951 . S
C782 C783 1.366 . S
C782 C784 1.388 . S
C783 C782 1.366 . S
C783 C787 1.385 . S
C784 H765 0.951 . S
C784 C782 1.388 . S
C784 C785 1.366 . S
C785 C784 1.366 . S
C785 C786 1.414 . S
C785 C788 1.499 . S
C786 H766 0.950 . S
C786 C785 1.414 . S
C786 C787 1.374 . S
C787 H767 0.950 . S
C787 C783 1.385 . S
C787 C786 1.374 . S
C788 C785 1.499 . S
C788 C789 1.373 . S
C788 C790 1.389 . S
C789 H768 0.950 . S
C789 C788 1.373 . S
C789 C805 1.377 . S
C790 C788 1.389 . S
C790 C791 1.524 . S
C790 C804 1.377 . S
C791 C790 1.524 . S
C791 C792 1.397 . S
C791 C796 1.363 . S
C792 H769 0.950 . S
C792 C791 1.397 . S
C792 C793 1.334 . S
C793 H770 0.950 . S
C793 C792 1.334 . S
C793 C794 1.287 . S
C794 C793 1.287 . S
C794 C795 1.524 . S
C794 H813 0.913 . S
C795 H771 0.950 . S
C795 C794 1.524 . S
C795 C796 1.415 . S
C796 H772 0.950 . S
C796 C791 1.363 . S
C796 C795 1.415 . S
C797 H773 0.951 . S
C797 C798 1.366 . S
C797 C799 1.388 . S
C798 C797 1.366 . S
C798 C802 1.385 . S
C799 H774 0.951 . S
C799 C797 1.388 . S
C799 C800 1.366 . S
C800 C799 1.366 . S
C800 C801 1.414 . S
C800 C803 1.499 . S
C801 H775 0.950 . S
C801 C800 1.414 . S
C801 C802 1.374 . S
C802 H776 0.950 . S
C802 C798 1.385 . S
C802 C801 1.374 . S
C803 C800 1.499 . S
C803 C804 1.373 . S
C803 C805 1.389 . S
C804 H777 0.950 . S
C804 C790 1.377 . S
C804 C803 1.373 . S
C805 C789 1.377 . S
C805 C803 1.389 . S
C805 C806 1.524 . S
C806 C805 1.524 . S
C806 C807 1.397 . S
C806 C811 1.363 . S
C807 H778 0.950 . S
C807 C806 1.397 . S
C807 C808 1.334 . S
C808 H779 0.950 . S
C808 C807 1.334 . S
C808 C809 1.287 . S
C809 C808 1.287 . S
C809 C810 1.524 . S
C809 H812 0.999 . S
C810 H780 0.950 . S
C810 C809 1.524 . S
C810 C811 1.415 . S
C811 H781 0.950 . S
C811 C806 1.363 . S
C811 C810 1.415 . S
H812 C809 0.999 . S
H813 C794 0.913 . S
H814 C832 0.951 . S
H815 C834 0.951 . S
H816 C836 0.950 . S
H817 C837 0.950 . S
H818 C839 0.950 . S
H819 C842 0.950 . S
H820 C843 0.950 . S
H821 C845 0.950 . S
H822 C846 0.950 . S
H823 C847 0.951 . S
H824 C849 0.951 . S
H825 C851 0.950 . S
H826 C852 0.950 . S
H827 C854 0.950 . S
H828 C857 0.950 . S
H829 C858 0.950 . S
H830 C860 0.950 . S
H831 C861 0.950 . S
C832 H814 0.951 . S
C832 C833 1.366 . S
C832 C834 1.388 . S
C833 C832 1.366 . S
C833 C837 1.385 . S
C834 H815 0.951 . S
C834 C832 1.388 . S
C834 C835 1.366 . S
C835 C834 1.366 . S
C835 C836 1.414 . S
C835 C838 1.499 . S
C836 H816 0.950 . S
C836 C835 1.414 . S
C836 C837 1.374 . S
C837 H817 0.950 . S
C837 C833 1.385 . S
C837 C836 1.374 . S
C838 C835 1.499 . S
C838 C839 1.373 . S
C838 C840 1.389 . S
C839 H818 0.950 . S
C839 C838 1.373 . S
C839 C855 1.377 . S
C840 C838 1.389 . S
C840 C841 1.524 . S
C840 C854 1.377 . S
C841 C840 1.524 . S
C841 C842 1.397 . S
C841 C846 1.363 . S
C842 H819 0.950 . S
C842 C841 1.397 . S
C842 C843 1.334 . S
C843 H820 0.950 . S
C843 C842 1.334 . S
C843 C844 1.287 . S
C844 C843 1.287 . S
C844 C845 1.524 . S
C844 H863 0.913 . S
C845 H821 0.950 . S
C845 C844 1.524 . S
C845 C846 1.415 . S
C846 H822 0.950 . S
C846 C841 1.363 . S
C846 C845 1.415 . S
C847 H823 0.951 . S
C847 C848 1.366 . S
C847 C849 1.388 . S
C848 C847 1.366 . S
C848 C852 1.385 . S
C849 H824 0.951 . S
C849 C847 1.388 . S
C849 C850 1.366 . S
C850 C849 1.366 . S
C850 C851 1.414 . S
C850 C853 1.499 . S
C851 H825 0.950 . S
C851 C850 1.414 . S
C851 C852 1.374 . S
C852 H826 0.950 . S
C852 C848 1.385 . S
C852 C851 1.374 . S
C853 C850 1.499 . S
C853 C854 1.373 . S
C853 C855 1.389 . S
C854 H827 0.950 . S
C854 C840 1.377 . S
C854 C853 1.373 . S
C855 C839 1.377 . S
C855 C853 1.389 . S
C855 C856 1.524 . S
C856 C855 1.524 . S
C856 C857 1.397 . S
C856 C861 1.363 . S
C857 H828 0.950 . S
C857 C856 1.397 . S
C857 C858 1.334 . S
C858 H829 0.950 . S
C858 C857 1.334 . S
C858 C859 1.287 . S
C859 C858 1.287 . S
C859 C860 1.524 . S
C859 H862 0.999 . S
C860 H830 0.950 . S
C860 C859 1.524 . S
C860 C861 1.415 . S
C861 H831 0.950 . S
C861 C856 1.363 . S
C861 C860 1.415 . S
H862 C859 0.999 . S
H863 C844 0.913 . S
H864 C882 0.951 . S
H865 C884 0.951 . S
H866 C886 0.950 . S
H867 C887 0.950 . S
H868 C889 0.950 . S
H869 C892 0.950 . S
H870 C893 0.950 . S
H871 C895 0.950 . S
H872 C896 0.950 . S
H873 C897 0.951 . S
H874 C899 0.951 . S
H875 C901 0.950 . S
H876 C902 0.950 . S
H877 C904 0.950 . S
H878 C907 0.950 . S
H879 C908 0.950 . S
H880 C910 0.939 1_455 S
H881 C911 0.950 . S
C882 H864 0.951 . S
C882 C883 1.366 . S
C882 C884 1.388 . S
C883 C882 1.366 . S
C883 C887 1.385 1_655 S
C884 H865 0.951 . S
C884 C882 1.388 . S
C884 C885 1.366 1_655 S
C885 C884 1.366 1_455 S
C885 C886 1.414 . S
C885 C888 1.499 . S
C886 H866 0.950 . S
C886 C885 1.414 . S
C886 C887 1.374 . S
C887 H867 0.950 . S
C887 C883 1.385 1_455 S
C887 C886 1.374 . S
C888 C885 1.499 . S
C888 C889 1.373 . S
C888 C890 1.389 . S
C889 H868 0.950 . S
C889 C888 1.373 . S
C889 C905 1.377 . S
C890 C888 1.389 . S
C890 C891 1.524 . S
C890 C904 1.377 . S
C891 C890 1.524 . S
C891 C892 1.397 . S
C891 C896 1.363 1_554 S
C892 H869 0.950 . S
C892 C891 1.397 . S
C892 C893 1.334 . S
C893 H870 0.950 . S
C893 C892 1.334 . S
C893 C894 1.287 1_554 S
C894 C893 1.287 1_556 S
C894 C895 1.524 . S
C894 H913 0.913 . S
C895 H871 0.950 . S
C895 C894 1.524 . S
C895 C896 1.415 . S
C896 H872 0.950 . S
C896 C891 1.363 1_556 S
C896 C895 1.415 . S
C897 H873 0.951 . S
C897 C898 1.366 1_554 S
C897 C899 1.388 . S
C898 C897 1.366 1_556 S
C898 C902 1.385 . S
C899 H874 0.951 . S
C899 C897 1.388 . S
C899 C900 1.366 . S
C900 C899 1.366 . S
C900 C901 1.414 1_554 S
C900 C903 1.499 . S
C901 H875 0.950 . S
C901 C900 1.414 1_556 S
C901 C902 1.374 . S
C902 H876 0.950 . S
C902 C898 1.385 . S
C902 C901 1.374 . S
C903 C900 1.499 . S
C903 C904 1.373 . S
C903 C905 1.389 . S
C904 H877 0.950 . S
C904 C890 1.377 . S
C904 C903 1.373 . S
C905 C889 1.377 . S
C905 C903 1.389 . S
C905 C906 1.545 . S
C906 C905 1.545 . S
C906 C907 1.357 1_455 S
C906 C911 1.381 . S
C907 H878 0.950 . S
C907 C906 1.357 1_655 S
C907 C908 1.334 . S
C908 H879 0.950 . S
C908 C907 1.334 . S
C908 C909 1.287 . S
C909 C908 1.287 . S
C909 C910 1.552 . S
C909 H912 0.999 . S
C910 H880 0.939 1_655 S
C910 C909 1.552 . S
C910 C911 1.401 1_655 S
C911 H881 0.950 . S
C911 C906 1.381 . S
C911 C910 1.401 1_455 S
H912 C909 0.999 . S
H913 C894 0.913 . S
H914 C932 0.951 . S
H915 C934 0.951 . S
H916 C936 0.950 . S
H917 C937 0.950 . S
H918 C939 0.950 . S
H919 C942 0.950 . S
H920 C943 0.950 . S
H921 C945 0.950 . S
H922 C946 0.950 . S
H923 C947 0.951 . S
H924 C949 0.951 . S
H925 C951 0.950 1_565 S
H926 C952 0.992 . S
H927 C954 0.994 . S
H928 C957 0.950 . S
H929 C958 0.950 . S
H930 C960 0.950 . S
H931 C961 0.950 . S
C932 H914 0.951 . S
C932 C933 1.366 . S
C932 C934 1.388 . S
C933 C932 1.366 . S
C933 C937 1.385 1_565 S
C934 H915 0.951 . S
C934 C932 1.388 . S
C934 C935 1.366 1_565 S
C935 C934 1.366 1_545 S
C935 C936 1.414 . S
C935 C938 1.499 . S
C936 H916 0.950 . S
C936 C935 1.414 . S
C936 C937 1.374 . S
C937 H917 0.950 . S
C937 C933 1.385 1_545 S
C937 C936 1.374 . S
C938 C935 1.499 . S
C938 C939 1.373 . S
C938 C940 1.389 1_545 S
C939 H918 0.950 . S
C939 C938 1.373 . S
C939 C955 1.377 . S
C940 C938 1.389 1_565 S
C940 C941 1.524 . S
C940 C954 1.388 . S
C941 C940 1.524 . S
C941 C942 1.397 . S
C941 C946 1.363 . S
C942 H919 0.950 . S
C942 C941 1.397 . S
C942 C943 1.334 . S
C943 H920 0.950 . S
C943 C942 1.334 . S
C943 C944 1.287 . S
C944 C943 1.287 . S
C944 C945 1.524 . S
C944 H963 0.913 . S
C945 H921 0.950 . S
C945 C944 1.524 . S
C945 C946 1.415 . S
C946 H922 0.950 . S
C946 C941 1.363 . S
C946 C945 1.415 . S
C947 H923 0.951 . S
C947 C948 1.366 . S
C947 C949 1.388 1_556 S
C948 C947 1.366 . S
C948 C952 1.385 1_556 S
C949 H924 0.951 . S
C949 C947 1.388 1_554 S
C949 C950 1.366 . S
C950 C949 1.366 . S
C950 C951 1.414 . S
C950 C953 1.499 . S
C951 H925 0.950 1_545 S
C951 C950 1.414 . S
C951 C952 1.374 . S
C952 H926 0.992 . S
C952 C948 1.385 1_554 S
C952 C951 1.374 . S
C953 C950 1.499 . S
C953 C954 1.321 1_545 S
C953 C955 1.389 . S
C954 H927 0.994 . S
C954 C940 1.388 . S
C954 C953 1.321 1_565 S
C955 C939 1.377 . S
C955 C953 1.389 . S
C955 C956 1.524 . S
C956 C955 1.524 . S
C956 C957 1.397 . S
C956 C961 1.363 . S
C957 H928 0.950 . S
C957 C956 1.397 . S
C957 C958 1.334 . S
C958 H929 0.950 . S
C958 C957 1.334 . S
C958 C959 1.287 . S
C959 C958 1.287 . S
C959 C960 1.524 . S
C959 H962 0.999 . S
C960 H930 0.950 . S
C960 C959 1.524 . S
C960 C961 1.415 . S
C961 H931 0.950 . S
C961 C956 1.363 . S
C961 C960 1.415 . S
H962 C959 0.999 . S
H963 C944 0.913 . S
H964 C982 0.951 . S
H965 C984 0.951 . S
H966 C986 0.950 . S
H967 C987 0.950 . S
H968 C989 0.950 . S
H969 C992 0.950 . S
H970 C993 0.950 . S
H971 C995 0.950 . S
H972 C996 0.950 . S
H973 C997 0.951 . S
H974 C999 0.951 . S
H975 C1001 0.950 . S
H976 C1002 0.950 . S
H977 C1004 0.950 . S
H978 C1007 0.950 . S
H979 C1008 0.950 . S
H980 C1010 0.950 . S
H981 C1011 0.950 . S
C982 H964 0.951 . S
C982 C983 1.366 . S
C982 C984 1.388 . S
C983 C982 1.366 . S
C983 C987 1.385 . S
C984 H965 0.951 . S
C984 C982 1.388 . S
C984 C985 1.366 . S
C985 C984 1.366 . S
C985 C986 1.414 . S
C985 C988 1.499 . S
C986 H966 0.950 . S
C986 C985 1.414 . S
C986 C987 1.374 . S
C987 H967 0.950 . S
C987 C983 1.385 . S
C987 C986 1.374 . S
C988 C985 1.499 . S
C988 C989 1.373 . S
C988 C990 1.389 . S
C989 H968 0.950 . S
C989 C988 1.373 . S
C989 C1005 1.377 . S
C990 C988 1.389 . S
C990 C991 1.524 . S
C990 C1004 1.377 . S
C991 C990 1.524 . S
C991 C992 1.397 . S
C991 C996 1.363 . S
C992 H969 0.950 . S
C992 C991 1.397 . S
C992 C993 1.334 . S
C993 H970 0.950 . S
C993 C992 1.334 . S
C993 C994 1.287 . S
C994 C993 1.287 . S
C994 C995 1.524 . S
C994 H1013 0.913 . S
C995 H971 0.950 . S
C995 C994 1.524 . S
C995 C996 1.415 . S
C996 H972 0.950 . S
C996 C991 1.363 . S
C996 C995 1.415 . S
C997 H973 0.951 . S
C997 C998 1.366 . S
C997 C999 1.388 . S
C998 C997 1.366 . S
C998 C1002 1.385 1_556 S
C999 H974 0.951 . S
C999 C997 1.388 . S
C999 C1000 1.366 1_556 S
C1000 C999 1.366 1_554 S
C1000 C1001 1.414 . S
C1000 C1003 1.499 . S
C1001 H975 0.950 . S
C1001 C1000 1.414 . S
C1001 C1002 1.374 . S
C1002 H976 0.950 . S
C1002 C998 1.385 1_554 S
C1002 C1001 1.374 . S
C1003 C1000 1.499 . S
C1003 C1004 1.373 . S
C1003 C1005 1.389 . S
C1004 H977 0.950 . S
C1004 C990 1.377 . S
C1004 C1003 1.373 . S
C1005 C989 1.377 . S
C1005 C1003 1.389 . S
C1005 C1006 1.524 . S
C1006 C1005 1.524 . S
C1006 C1007 1.397 . S
C1006 C1011 1.363 1_554 S
C1007 H978 0.950 . S
C1007 C1006 1.397 . S
C1007 C1008 1.334 1_554 S
C1008 H979 0.950 . S
C1008 C1007 1.334 1_556 S
C1008 C1009 1.287 . S
C1009 C1008 1.287 . S
C1009 C1010 1.524 . S
C1009 H1012 0.999 . S
C1010 H980 0.950 . S
C1010 C1009 1.524 . S
C1010 C1011 1.415 . S
C1011 H981 0.950 . S
C1011 C1006 1.363 1_556 S
C1011 C1010 1.415 . S
H1012 C1009 0.999 . S
H1013 C994 0.913 . S
H1014 C1032 0.951 . S
H1015 C1034 0.951 . S
H1016 C1036 0.950 . S
H1017 C1037 0.950 . S
H1018 C1039 0.950 . S
H1019 C1042 0.950 . S
H1020 C1043 0.950 1_554 S
H1021 C1045 0.950 . S
H1022 C1046 0.950 . S
H1023 C1047 0.951 . S
H1024 C1049 0.951 . S
H1025 C1051 0.950 . S
H1026 C1052 0.950 . S
H1027 C1054 0.950 1_556 S
H1028 C1057 0.950 . S
H1029 C1058 0.950 . S
H1030 C1060 0.950 . S
H1031 C1061 0.950 . S
C1032 H1014 0.951 . S
C1032 C1033 1.366 . S
C1032 C1034 1.388 . S
C1033 C1032 1.366 . S
C1033 C1037 1.385 . S
C1034 H1015 0.951 . S
C1034 C1032 1.388 . S
C1034 C1035 1.366 . S
C1035 C1034 1.366 . S
C1035 C1036 1.414 . S
C1035 C1038 1.499 . S
C1036 H1016 0.950 . S
C1036 C1035 1.414 . S
C1036 C1037 1.374 . S
C1037 H1017 0.950 . S
C1037 C1033 1.385 . S
C1037 C1036 1.374 . S
C1038 C1035 1.499 . S
C1038 C1039 1.373 . S
C1038 C1040 1.389 . S
C1039 H1018 0.950 . S
C1039 C1038 1.373 . S
C1039 C1055 1.377 . S
C1040 C1038 1.389 . S
C1040 C1041 1.524 . S
C1040 C1054 1.377 . S
C1041 C1040 1.524 . S
C1041 C1042 1.397 . S
C1041 C1046 1.363 1_554 S
C1042 H1019 0.950 . S
C1042 C1041 1.397 . S
C1042 C1043 1.334 1_554 S
C1043 H1020 0.950 1_556 S
C1043 C1042 1.334 1_556 S
C1043 C1044 1.287 . S
C1044 C1043 1.287 . S
C1044 C1045 1.524 . S
C1044 H1063 0.913 . S
C1045 H1021 0.950 . S
C1045 C1044 1.524 . S
C1045 C1046 1.415 . S
C1046 H1022 0.950 . S
C1046 C1041 1.363 1_556 S
C1046 C1045 1.415 . S
C1047 H1023 0.951 . S
C1047 C1048 1.366 1_554 S
C1047 C1049 1.388 . S
C1048 C1047 1.366 1_556 S
C1048 C1052 1.385 . S
C1049 H1024 0.951 . S
C1049 C1047 1.388 . S
C1049 C1050 1.366 . S
C1050 C1049 1.366 . S
C1050 C1051 1.414 1_554 S
C1050 C1053 1.499 . S
C1051 H1025 0.950 . S
C1051 C1050 1.414 1_556 S
C1051 C1052 1.374 . S
C1052 H1026 0.950 . S
C1052 C1048 1.385 . S
C1052 C1051 1.374 . S
C1053 C1050 1.499 . S
C1053 C1054 1.373 . S
C1053 C1055 1.389 . S
C1054 H1027 0.950 1_554 S
C1054 C1040 1.377 . S
C1054 C1053 1.373 . S
C1055 C1039 1.377 . S
C1055 C1053 1.389 . S
C1055 C1056 1.524 . S
C1056 C1055 1.524 . S
C1056 C1057 1.397 . S
C1056 C1061 1.363 . S
C1057 H1028 0.950 . S
C1057 C1056 1.397 . S
C1057 C1058 1.334 . S
C1058 H1029 0.950 . S
C1058 C1057 1.334 . S
C1058 C1059 1.287 . S
C1059 C1058 1.287 . S
C1059 C1060 1.524 . S
C1059 H1062 0.999 . S
C1060 H1030 0.950 . S
C1060 C1059 1.524 . S
C1060 C1061 1.415 . S
C1061 H1031 0.950 . S
C1061 C1056 1.363 . S
C1061 C1060 1.415 . S
H1062 C1059 0.999 . S
H1063 C1044 0.913 . S
H1064 C1082 0.951 . S
H1065 C1084 0.951 . S
H1066 C1086 0.950 . S
H1067 C1087 0.950 . S
H1068 C1089 0.950 . S
H1069 C1092 0.950 . S
H1070 C1093 0.950 . S
H1071 C1095 0.950 . S
H1072 C1096 0.950 . S
H1073 C1097 0.951 . S
H1074 C1099 0.951 . S
H1075 C1101 0.950 . S
H1076 C1102 0.950 . S
H1077 C1104 0.950 . S
H1078 C1107 0.950 . S
H1079 C1108 0.950 1_554 S
H1080 C1110 0.950 . S
H1081 C1111 0.950 . S
C1082 H1064 0.951 . S
C1082 C1083 1.366 . S
C1082 C1084 1.388 . S
C1083 C1082 1.366 . S
C1083 C1087 1.385 1_455 S
C1084 H1065 0.951 . S
C1084 C1082 1.388 . S
C1084 C1085 1.366 . S
C1085 C1084 1.366 . S
C1085 C1086 1.414 1_455 S
C1085 C1088 1.499 . S
C1086 H1066 0.950 . S
C1086 C1085 1.414 1_655 S
C1086 C1087 1.374 . S
C1087 H1067 0.950 . S
C1087 C1083 1.385 1_655 S
C1087 C1086 1.374 . S
C1088 C1085 1.499 . S
C1088 C1089 1.373 1_455 S
C1088 C1090 1.389 . S
C1089 H1068 0.950 . S
C1089 C1088 1.373 1_655 S
C1089 C1105 1.377 . S
C1090 C1088 1.389 . S
C1090 C1091 1.524 . S
C1090 C1104 1.377 . S
C1091 C1090 1.524 . S
C1091 C1092 1.397 . S
C1091 C1096 1.363 . S
C1092 H1069 0.950 . S
C1092 C1091 1.397 . S
C1092 C1093 1.334 . S
C1093 H1070 0.950 . S
C1093 C1092 1.334 . S
C1093 C1094 1.287 . S
C1094 C1093 1.287 . S
C1094 C1095 1.524 . S
C1094 H1113 0.913 . S
C1095 H1071 0.950 . S
C1095 C1094 1.524 . S
C1095 C1096 1.415 . S
C1096 H1072 0.950 . S
C1096 C1091 1.363 . S
C1096 C1095 1.415 . S
C1097 H1073 0.951 . S
C1097 C1098 1.366 1_655 S
C1097 C1099 1.388 . S
C1098 C1097 1.366 1_455 S
C1098 C1102 1.385 . S
C1099 H1074 0.951 . S
C1099 C1097 1.388 . S
C1099 C1100 1.366 1_655 S
C1100 C1099 1.366 1_455 S
C1100 C1101 1.414 . S
C1100 C1103 1.499 . S
C1101 H1075 0.950 . S
C1101 C1100 1.414 . S
C1101 C1102 1.374 . S
C1102 H1076 0.950 . S
C1102 C1098 1.385 . S
C1102 C1101 1.374 . S
C1103 C1100 1.499 . S
C1103 C1104 1.373 . S
C1103 C1105 1.389 1_455 S
C1104 H1077 0.950 . S
C1104 C1090 1.377 . S
C1104 C1103 1.373 . S
C1105 C1089 1.377 . S
C1105 C1103 1.389 1_655 S
C1105 C1106 1.524 . S
C1106 C1105 1.524 . S
C1106 C1107 1.397 . S
C1106 C1111 1.363 . S
C1107 H1078 0.950 . S
C1107 C1106 1.397 . S
C1107 C1108 1.334 . S
C1108 H1079 0.950 1_556 S
C1108 C1107 1.334 . S
C1108 C1109 1.287 . S
C1109 C1108 1.287 . S
C1109 C1110 1.524 . S
C1109 H1112 0.999 1_556 S
C1110 H1080 0.950 . S
C1110 C1109 1.524 . S
C1110 C1111 1.415 . S
C1111 H1081 0.950 . S
C1111 C1106 1.363 . S
C1111 C1110 1.415 . S
H1112 C1109 0.999 1_554 S
H1113 C1094 0.913 . S
H1114 C1132 0.951 . S
H1115 C1134 0.951 . S
H1116 C1136 0.950 . S
H1117 C1137 0.950 . S
H1118 C1139 0.950 . S
H1119 C1142 0.950 . S
H1120 C1143 0.950 . S
H1121 C1145 0.950 . S
H1122 C1146 0.950 . S
H1123 C1147 0.951 . S
H1124 C1149 0.951 . S
H1125 C1151 0.950 . S
H1126 C1152 0.950 . S
H1127 C1154 0.950 . S
H1128 C1157 0.950 . S
H1129 C1158 0.950 1_554 S
H1130 C1160 0.950 . S
H1131 C1161 0.950 . S
C1132 H1114 0.951 . S
C1132 C1133 1.366 . S
C1132 C1134 1.388 . S
C1133 C1132 1.366 . S
C1133 C1137 1.385 1_545 S
C1134 H1115 0.951 . S
C1134 C1132 1.388 . S
C1134 C1135 1.366 . S
C1135 C1134 1.366 . S
C1135 C1136 1.414 1_545 S
C1135 C1138 1.499 . S
C1136 H1116 0.950 . S
C1136 C1135 1.414 1_565 S
C1136 C1137 1.374 . S
C1137 H1117 0.950 . S
C1137 C1133 1.385 1_565 S
C1137 C1136 1.374 . S
C1138 C1135 1.499 . S
C1138 C1139 1.373 1_545 S
C1138 C1140 1.389 . S
C1139 H1118 0.950 . S
C1139 C1138 1.373 1_565 S
C1139 C1155 1.377 . S
C1140 C1138 1.389 . S
C1140 C1141 1.524 . S
C1140 C1154 1.377 . S
C1141 C1140 1.524 . S
C1141 C1142 1.397 . S
C1141 C1146 1.363 . S
C1142 H1119 0.950 . S
C1142 C1141 1.397 . S
C1142 C1143 1.334 . S
C1143 H1120 0.950 . S
C1143 C1142 1.334 . S
C1143 C1144 1.287 . S
C1144 C1143 1.287 . S
C1144 C1145 1.524 . S
C1144 H1163 0.913 . S
C1145 H1121 0.950 . S
C1145 C1144 1.524 . S
C1145 C1146 1.415 . S
C1146 H1122 0.950 . S
C1146 C1141 1.363 . S
C1146 C1145 1.415 . S
C1147 H1123 0.951 . S
C1147 C1148 1.366 1_565 S
C1147 C1149 1.388 . S
C1148 C1147 1.366 1_545 S
C1148 C1152 1.385 . S
C1149 H1124 0.951 . S
C1149 C1147 1.388 . S
C1149 C1150 1.366 1_565 S
C1150 C1149 1.366 1_545 S
C1150 C1151 1.414 . S
C1150 C1153 1.499 . S
C1151 H1125 0.950 . S
C1151 C1150 1.414 . S
C1151 C1152 1.374 . S
C1152 H1126 0.950 . S
C1152 C1148 1.385 . S
C1152 C1151 1.374 . S
C1153 C1150 1.499 . S
C1153 C1154 1.373 . S
C1153 C1155 1.389 1_545 S
C1154 H1127 0.950 . S
C1154 C1140 1.377 . S
C1154 C1153 1.373 . S
C1155 C1139 1.377 . S
C1155 C1153 1.389 1_565 S
C1155 C1156 1.524 . S
C1156 C1155 1.524 . S
C1156 C1157 1.397 . S
C1156 C1161 1.363 . S
C1157 H1128 0.950 . S
C1157 C1156 1.397 . S
C1157 C1158 1.334 . S
C1158 H1129 0.950 1_556 S
C1158 C1157 1.334 . S
C1158 C1159 1.287 . S
C1159 C1158 1.287 . S
C1159 C1160 1.524 . S
C1159 H1162 0.999 1_556 S
C1160 H1130 0.950 . S
C1160 C1159 1.524 . S
C1160 C1161 1.415 . S
C1161 H1131 0.950 . S
C1161 C1156 1.363 . S
C1161 C1160 1.415 . S
H1162 C1159 0.999 1_554 S
H1163 C1144 0.913 . S
H1164 C1182 0.951 . S
H1165 C1184 0.951 . S
H1166 C1186 0.950 . S
H1167 C1187 0.950 . S
H1168 C1189 0.950 . S
H1169 C1192 0.950 . S
H1170 C1193 0.950 . S
H1171 C1195 0.950 . S
H1172 C1196 0.950 1_554 S
H1173 C1197 0.951 . S
H1174 C1199 0.951 . S
H1175 C1201 0.950 . S
H1176 C1202 0.950 . S
H1177 C1204 0.950 . S
H1178 C1207 0.950 . S
H1179 C1208 0.950 . S
H1180 C1210 0.950 . S
H1181 C1211 0.950 . S
C1182 H1164 0.951 . S
C1182 C1183 1.366 . S
C1182 C1184 1.388 . S
C1183 C1182 1.366 . S
C1183 C1187 1.385 . S
C1184 H1165 0.951 . S
C1184 C1182 1.388 . S
C1184 C1185 1.366 . S
C1185 C1184 1.366 . S
C1185 C1186 1.414 . S
C1185 C1188 1.499 . S
C1186 H1166 0.950 . S
C1186 C1185 1.414 . S
C1186 C1187 1.374 . S
C1187 H1167 0.950 . S
C1187 C1183 1.385 . S
C1187 C1186 1.374 . S
C1188 C1185 1.499 . S
C1188 C1189 1.373 . S
C1188 C1190 1.389 . S
C1189 H1168 0.950 . S
C1189 C1188 1.373 . S
C1189 C1205 1.377 . S
C1190 C1188 1.389 . S
C1190 C1191 1.524 . S
C1190 C1204 1.377 . S
C1191 C1190 1.524 . S
C1191 C1192 1.397 . S
C1191 C1196 1.363 . S
C1192 H1169 0.950 . S
C1192 C1191 1.397 . S
C1192 C1193 1.334 . S
C1193 H1170 0.950 . S
C1193 C1192 1.334 . S
C1193 C1194 1.287 . S
C1194 C1193 1.287 . S
C1194 C1195 1.524 1_556 S
C1194 H1213 0.913 1_556 S
C1195 H1171 0.950 . S
C1195 C1194 1.524 1_554 S
C1195 C1196 1.415 1_554 S
C1196 H1172 0.950 1_556 S
C1196 C1191 1.363 . S
C1196 C1195 1.415 1_556 S
C1197 H1173 0.951 . S
C1197 C1198 1.366 . S
C1197 C1199 1.388 . S
C1198 C1197 1.366 . S
C1198 C1202 1.385 . S
C1199 H1174 0.951 . S
C1199 C1197 1.388 . S
C1199 C1200 1.366 . S
C1200 C1199 1.366 . S
C1200 C1201 1.414 . S
C1200 C1203 1.499 . S
C1201 H1175 0.950 . S
C1201 C1200 1.414 . S
C1201 C1202 1.374 . S
C1202 H1176 0.950 . S
C1202 C1198 1.385 . S
C1202 C1201 1.374 . S
C1203 C1200 1.499 . S
C1203 C1204 1.373 . S
C1203 C1205 1.389 . S
C1204 H1177 0.950 . S
C1204 C1190 1.377 . S
C1204 C1203 1.373 . S
C1205 C1189 1.377 . S
C1205 C1203 1.389 . S
C1205 C1206 1.524 . S
C1206 C1205 1.524 . S
C1206 C1207 1.397 . S
C1206 C1211 1.363 . S
C1207 H1178 0.950 . S
C1207 C1206 1.397 . S
C1207 C1208 1.334 . S
C1208 H1179 0.950 . S
C1208 C1207 1.334 . S
C1208 C1209 1.287 . S
C1209 C1208 1.287 . S
C1209 C1210 1.524 . S
C1209 H1212 0.999 . S
C1210 H1180 0.950 . S
C1210 C1209 1.524 . S
C1210 C1211 1.415 . S
C1211 H1181 0.950 . S
C1211 C1206 1.363 . S
C1211 C1210 1.415 . S
H1212 C1209 0.999 . S
H1213 C1194 0.913 1_554 S
H1214 C1232 0.951 . S
H1215 C1234 0.951 . S
H1216 C1236 0.950 . S
H1217 C1237 0.950 . S
H1218 C1239 0.950 . S
H1219 C1242 0.950 . S
H1220 C1243 0.950 . S
H1221 C1245 0.950 . S
H1222 C1246 0.950 . S
H1223 C1247 0.951 . S
H1224 C1249 0.951 . S
H1225 C1251 0.950 . S
H1226 C1252 0.950 . S
H1227 C1254 0.950 . S
H1228 C1257 0.950 . S
H1229 C1258 0.950 . S
H1230 C1260 0.950 . S
H1231 C1261 0.950 . S
C1232 H1214 0.951 . S
C1232 C1233 1.366 . S
C1232 C1234 1.388 . S
C1233 C1232 1.366 . S
C1233 C1237 1.385 . S
C1234 H1215 0.951 . S
C1234 C1232 1.388 . S
C1234 C1235 1.366 . S
C1235 C1234 1.366 . S
C1235 C1236 1.414 . S
C1235 C1238 1.499 . S
C1236 H1216 0.950 . S
C1236 C1235 1.414 . S
C1236 C1237 1.374 . S
C1237 H1217 0.950 . S
C1237 C1233 1.385 . S
C1237 C1236 1.374 . S
C1238 C1235 1.499 . S
C1238 C1239 1.373 . S
C1238 C1240 1.389 . S
C1239 H1218 0.950 . S
C1239 C1238 1.373 . S
C1239 C1255 1.377 . S
C1240 C1238 1.389 . S
C1240 C1241 1.524 . S
C1240 C1254 1.377 . S
C1241 C1240 1.524 . S
C1241 C1242 1.397 . S
C1241 C1246 1.363 . S
C1242 H1219 0.950 . S
C1242 C1241 1.397 . S
C1242 C1243 1.334 . S
C1243 H1220 0.950 . S
C1243 C1242 1.334 . S
C1243 C1244 1.287 . S
C1244 C1243 1.287 . S
C1244 C1245 1.524 . S
C1244 H1263 0.913 . S
C1245 H1221 0.950 . S
C1245 C1244 1.524 . S
C1245 C1246 1.415 . S
C1246 H1222 0.950 . S
C1246 C1241 1.363 . S
C1246 C1245 1.415 . S
C1247 H1223 0.951 . S
C1247 C1248 1.366 . S
C1247 C1249 1.388 . S
C1248 C1247 1.366 . S
C1248 C1252 1.385 . S
C1249 H1224 0.951 . S
C1249 C1247 1.388 . S
C1249 C1250 1.366 . S
C1250 C1249 1.366 . S
C1250 C1251 1.414 . S
C1250 C1253 1.499 . S
C1251 H1225 0.950 . S
C1251 C1250 1.414 . S
C1251 C1252 1.374 . S
C1252 H1226 0.950 . S
C1252 C1248 1.385 . S
C1252 C1251 1.374 . S
C1253 C1250 1.499 . S
C1253 C1254 1.373 . S
C1253 C1255 1.389 . S
C1254 H1227 0.950 . S
C1254 C1240 1.377 . S
C1254 C1253 1.373 . S
C1255 C1239 1.377 . S
C1255 C1253 1.389 . S
C1255 C1256 1.524 . S
C1256 C1255 1.524 . S
C1256 C1257 1.397 . S
C1256 C1261 1.363 1_556 S
C1257 H1228 0.950 . S
C1257 C1256 1.397 . S
C1257 C1258 1.334 1_556 S
C1258 H1229 0.950 . S
C1258 C1257 1.334 1_554 S
C1258 C1259 1.287 . S
C1259 C1258 1.287 . S
C1259 C1260 1.524 . S
C1259 H1262 0.999 . S
C1260 H1230 0.950 . S
C1260 C1259 1.524 . S
C1260 C1261 1.415 . S
C1261 H1231 0.950 . S
C1261 C1256 1.363 1_554 S
C1261 C1260 1.415 . S
H1262 C1259 0.999 . S
H1263 C1244 0.913 . S
H1264 C1282 0.951 . S
H1265 C1284 0.951 . S
H1266 C1286 0.950 . S
H1267 C1287 0.950 . S
H1268 C1289 0.950 . S
H1269 C1292 0.950 . S
H1270 C1293 0.950 . S
H1271 C1295 0.950 . S
H1272 C1296 0.950 . S
H1273 C1297 0.951 . S
H1274 C1299 0.951 . S
H1275 C1301 0.950 . S
H1276 C1302 0.950 . S
H1277 C1304 0.950 . S
H1278 C1307 0.950 1_655 S
H1279 C1308 0.950 . S
H1280 C1310 0.950 . S
H1281 C1311 0.950 . S
C1282 H1264 0.951 . S
C1282 C1283 1.366 . S
C1282 C1284 1.388 . S
C1283 C1282 1.366 . S
C1283 C1287 1.385 1_655 S
C1284 H1265 0.951 . S
C1284 C1282 1.388 . S
C1284 C1285 1.366 . S
C1285 C1284 1.366 . S
C1285 C1286 1.414 1_655 S
C1285 C1288 1.499 . S
C1286 H1266 0.950 . S
C1286 C1285 1.414 1_455 S
C1286 C1287 1.374 . S
C1287 H1267 0.950 . S
C1287 C1283 1.385 1_455 S
C1287 C1286 1.374 . S
C1288 C1285 1.499 . S
C1288 C1289 1.373 1_655 S
C1288 C1290 1.389 . S
C1289 H1268 0.950 . S
C1289 C1288 1.373 1_455 S
C1289 C1305 1.377 . S
C1290 C1288 1.389 . S
C1290 C1291 1.524 . S
C1290 C1304 1.377 . S
C1291 C1290 1.524 . S
C1291 C1292 1.397 . S
C1291 C1296 1.363 . S
C1292 H1269 0.950 . S
C1292 C1291 1.397 . S
C1292 C1293 1.334 . S
C1293 H1270 0.950 . S
C1293 C1292 1.334 . S
C1293 C1294 1.287 . S
C1294 C1293 1.287 . S
C1294 C1295 1.524 . S
C1294 H1313 0.913 . S
C1295 H1271 0.950 . S
C1295 C1294 1.524 . S
C1295 C1296 1.415 . S
C1296 H1272 0.950 . S
C1296 C1291 1.363 . S
C1296 C1295 1.415 . S
C1297 H1273 0.951 . S
C1297 C1298 1.366 1_455 S
C1297 C1299 1.388 . S
C1298 C1297 1.366 1_655 S
C1298 C1302 1.385 . S
C1299 H1274 0.951 . S
C1299 C1297 1.388 . S
C1299 C1300 1.366 1_455 S
C1300 C1299 1.366 1_655 S
C1300 C1301 1.414 . S
C1300 C1303 1.499 . S
C1301 H1275 0.950 . S
C1301 C1300 1.414 . S
C1301 C1302 1.374 . S
C1302 H1276 0.950 . S
C1302 C1298 1.385 . S
C1302 C1301 1.374 . S
C1303 C1300 1.499 . S
C1303 C1304 1.373 . S
C1303 C1305 1.389 1_655 S
C1304 H1277 0.950 . S
C1304 C1290 1.377 . S
C1304 C1303 1.373 . S
C1305 C1289 1.377 . S
C1305 C1303 1.389 1_455 S
C1305 C1306 1.524 . S
C1306 C1305 1.524 . S
C1306 C1307 1.397 . S
C1306 C1311 1.363 . S
C1307 H1278 0.950 1_455 S
C1307 C1306 1.397 . S
C1307 C1308 1.334 . S
C1308 H1279 0.950 . S
C1308 C1307 1.334 . S
C1308 C1309 1.287 . S
C1309 C1308 1.287 . S
C1309 C1310 1.524 . S
C1309 H1312 0.999 . S
C1310 H1280 0.950 . S
C1310 C1309 1.524 . S
C1310 C1311 1.415 . S
C1311 H1281 0.950 . S
C1311 C1306 1.363 . S
C1311 C1310 1.415 . S
H1312 C1309 0.999 . S
H1313 C1294 0.913 . S
H1314 C1332 0.951 . S
H1315 C1334 0.951 . S
H1316 C1336 0.950 . S
H1317 C1337 0.950 . S
H1318 C1339 0.950 . S
H1319 C1342 0.950 . S
H1320 C1343 0.950 . S
H1321 C1345 0.950 . S
H1322 C1346 0.950 . S
H1323 C1347 0.951 . S
H1324 C1349 0.951 . S
H1325 C1351 0.974 . S
H1326 C1352 0.958 . S
H1327 C1354 0.950 . S
H1328 C1357 0.950 . S
H1329 C1358 0.950 . S
H1330 C1360 0.950 . S
H1331 C1361 0.950 . S
C1332 H1314 0.951 . S
C1332 C1333 1.366 1_545 S
C1332 C1334 1.388 . S
C1333 C1332 1.366 1_565 S
C1333 C1337 1.385 . S
C1334 H1315 0.951 . S
C1334 C1332 1.388 . S
C1334 C1335 1.366 1_545 S
C1335 C1334 1.366 1_565 S
C1335 C1336 1.414 . S
C1335 C1338 1.499 . S
C1336 H1316 0.950 . S
C1336 C1335 1.414 . S
C1336 C1337 1.374 . S
C1337 H1317 0.950 . S
C1337 C1333 1.385 . S
C1337 C1336 1.374 . S
C1338 C1335 1.499 . S
C1338 C1339 1.373 . S
C1338 C1340 1.389 1_565 S
C1339 H1318 0.950 . S
C1339 C1338 1.373 . S
C1339 C1355 1.377 . S
C1340 C1338 1.389 1_545 S
C1340 C1341 1.524 . S
C1340 C1354 1.377 . S
C1341 C1340 1.524 . S
C1341 C1342 1.397 . S
C1341 C1346 1.363 . S
C1342 H1319 0.950 . S
C1342 C1341 1.397 . S
C1342 C1343 1.334 . S
C1343 H1320 0.950 . S
C1343 C1342 1.334 . S
C1343 C1344 1.287 . S
C1344 C1343 1.287 . S
C1344 C1345 1.524 . S
C1344 H1363 0.913 . S
C1345 H1321 0.950 . S
C1345 C1344 1.524 . S
C1345 C1346 1.415 . S
C1346 H1322 0.950 . S
C1346 C1341 1.363 . S
C1346 C1345 1.415 . S
C1347 H1323 0.951 . S
C1347 C1348 1.366 . S
C1347 C1349 1.388 . S
C1348 C1347 1.366 . S
C1348 C1352 1.376 1_565 S
C1349 H1324 0.951 . S
C1349 C1347 1.388 . S
C1349 C1350 1.366 . S
C1350 C1349 1.366 . S
C1350 C1351 1.394 1_565 S
C1350 C1353 1.499 . S
C1351 H1325 0.974 . S
C1351 C1350 1.394 1_545 S
C1351 C1352 1.373 . S
C1352 H1326 0.958 . S
C1352 C1348 1.376 1_545 S
C1352 C1351 1.373 . S
C1353 C1350 1.499 . S
C1353 C1354 1.373 1_565 S
C1353 C1355 1.389 . S
C1354 H1327 0.950 . S
C1354 C1340 1.377 . S
C1354 C1353 1.373 1_545 S
C1355 C1339 1.377 . S
C1355 C1353 1.389 . S
C1355 C1356 1.524 . S
C1356 C1355 1.524 . S
C1356 C1357 1.397 . S
C1356 C1361 1.363 . S
C1357 H1328 0.950 . S
C1357 C1356 1.397 . S
C1357 C1358 1.334 . S
C1358 H1329 0.950 . S
C1358 C1357 1.334 . S
C1358 C1359 1.287 . S
C1359 C1358 1.287 . S
C1359 C1360 1.524 . S
C1359 H1362 0.999 . S
C1360 H1330 0.950 . S
C1360 C1359 1.524 . S
C1360 C1361 1.415 . S
C1361 H1331 0.950 . S
C1361 C1356 1.363 . S
C1361 C1360 1.415 . S
H1362 C1359 0.999 . S
H1363 C1344 0.913 . S
H1364 C1382 0.951 . S
H1365 C1384 0.951 . S
H1366 C1386 0.950 . S
H1367 C1387 0.950 . S
H1368 C1389 0.950 . S
H1369 C1392 0.950 . S
H1370 C1393 0.950 . S
H1371 C1395 0.950 . S
H1372 C1396 0.950 . S
H1373 C1397 0.951 . S
H1374 C1399 0.951 . S
H1375 C1401 0.950 . S
H1376 C1402 0.950 . S
H1377 C1404 0.950 . S
H1378 C1407 0.950 . S
H1379 C1408 0.950 . S
H1380 C1410 0.950 . S
H1381 C1411 0.950 . S
C1382 H1364 0.951 . S
C1382 C1383 1.366 . S
C1382 C1384 1.388 . S
C1383 C1382 1.366 . S
C1383 C1387 1.385 . S
C1384 H1365 0.951 . S
C1384 C1382 1.388 . S
C1384 C1385 1.366 . S
C1385 C1384 1.366 . S
C1385 C1386 1.414 . S
C1385 C1388 1.499 . S
C1386 H1366 0.950 . S
C1386 C1385 1.414 . S
C1386 C1387 1.374 . S
C1387 H1367 0.950 . S
C1387 C1383 1.385 . S
C1387 C1386 1.374 . S
C1388 C1385 1.499 . S
C1388 C1389 1.373 . S
C1388 C1390 1.389 . S
C1389 H1368 0.950 . S
C1389 C1388 1.373 . S
C1389 C1405 1.377 . S
C1390 C1388 1.389 . S
C1390 C1391 1.524 . S
C1390 C1404 1.377 . S
C1391 C1390 1.524 . S
C1391 C1392 1.397 . S
C1391 C1396 1.363 . S
C1392 H1369 0.950 . S
C1392 C1391 1.397 . S
C1392 C1393 1.334 . S
C1393 H1370 0.950 . S
C1393 C1392 1.334 . S
C1393 C1394 1.287 . S
C1394 C1393 1.287 . S
C1394 C1395 1.524 . S
C1394 H1413 0.913 . S
C1395 H1371 0.950 . S
C1395 C1394 1.524 . S
C1395 C1396 1.415 . S
C1396 H1372 0.950 . S
C1396 C1391 1.363 . S
C1396 C1395 1.415 . S
C1397 H1373 0.951 . S
C1397 C1398 1.366 . S
C1397 C1399 1.388 . S
C1398 C1397 1.366 . S
C1398 C1402 1.385 . S
C1399 H1374 0.951 . S
C1399 C1397 1.388 . S
C1399 C1400 1.366 . S
C1400 C1399 1.366 . S
C1400 C1401 1.414 . S
C1400 C1403 1.499 . S
C1401 H1375 0.950 . S
C1401 C1400 1.414 . S
C1401 C1402 1.374 . S
C1402 H1376 0.950 . S
C1402 C1398 1.385 . S
C1402 C1401 1.374 . S
C1403 C1400 1.499 . S
C1403 C1404 1.373 . S
C1403 C1405 1.389 . S
C1404 H1377 0.950 . S
C1404 C1390 1.377 . S
C1404 C1403 1.373 . S
C1405 C1389 1.377 . S
C1405 C1403 1.389 . S
C1405 C1406 1.524 . S
C1406 C1405 1.524 . S
C1406 C1407 1.397 . S
C1406 C1411 1.363 . S
C1407 H1378 0.950 . S
C1407 C1406 1.397 . S
C1407 C1408 1.334 . S
C1408 H1379 0.950 . S
C1408 C1407 1.334 . S
C1408 C1409 1.287 . S
C1409 C1408 1.287 . S
C1409 C1410 1.524 . S
C1409 H1412 0.999 . S
C1410 H1380 0.950 . S
C1410 C1409 1.524 . S
C1410 C1411 1.415 . S
C1411 H1381 0.950 . S
C1411 C1406 1.363 . S
C1411 C1410 1.415 . S
H1412 C1409 0.999 . S
H1413 C1394 0.913 . S
H1414 C1432 0.951 . S
H1415 C1434 0.951 . S
H1416 C1436 0.950 . S
H1417 C1437 0.950 . S
H1418 C1439 0.950 . S
H1419 C1442 0.950 . S
H1420 C1443 0.950 . S
H1421 C1445 0.950 . S
H1422 C1446 0.950 . S
H1423 C1447 0.951 . S
H1424 C1449 0.951 . S
H1425 C1451 0.950 . S
H1426 C1452 0.950 . S
H1427 C1454 0.950 . S
H1428 C1457 0.950 . S
H1429 C1458 0.950 . S
H1430 C1460 0.950 . S
H1431 C1461 0.950 . S
C1432 H1414 0.951 . S
C1432 C1433 1.366 . S
C1432 C1434 1.388 . S
C1433 C1432 1.366 . S
C1433 C1437 1.385 . S
C1434 H1415 0.951 . S
C1434 C1432 1.388 . S
C1434 C1435 1.366 . S
C1435 C1434 1.366 . S
C1435 C1436 1.414 . S
C1435 C1438 1.499 . S
C1436 H1416 0.950 . S
C1436 C1435 1.414 . S
C1436 C1437 1.374 . S
C1437 H1417 0.950 . S
C1437 C1433 1.385 . S
C1437 C1436 1.374 . S
C1438 C1435 1.499 . S
C1438 C1439 1.373 . S
C1438 C1440 1.389 . S
C1439 H1418 0.950 . S
C1439 C1438 1.373 . S
C1439 C1455 1.377 . S
C1440 C1438 1.389 . S
C1440 C1441 1.524 . S
C1440 C1454 1.377 . S
C1441 C1440 1.524 . S
C1441 C1442 1.397 . S
C1441 C1446 1.363 . S
C1442 H1419 0.950 . S
C1442 C1441 1.397 . S
C1442 C1443 1.334 . S
C1443 H1420 0.950 . S
C1443 C1442 1.334 . S
C1443 C1444 1.287 . S
C1444 C1443 1.287 . S
C1444 C1445 1.524 . S
C1444 H1463 0.913 . S
C1445 H1421 0.950 . S
C1445 C1444 1.524 . S
C1445 C1446 1.415 . S
C1446 H1422 0.950 . S
C1446 C1441 1.363 . S
C1446 C1445 1.415 . S
C1447 H1423 0.951 . S
C1447 C1448 1.366 . S
C1447 C1449 1.388 . S
C1448 C1447 1.366 . S
C1448 C1452 1.385 . S
C1449 H1424 0.951 . S
C1449 C1447 1.388 . S
C1449 C1450 1.366 . S
C1450 C1449 1.366 . S
C1450 C1451 1.414 . S
C1450 C1453 1.499 . S
C1451 H1425 0.950 . S
C1451 C1450 1.414 . S
C1451 C1452 1.374 . S
C1452 H1426 0.950 . S
C1452 C1448 1.385 . S
C1452 C1451 1.374 . S
C1453 C1450 1.499 . S
C1453 C1454 1.373 . S
C1453 C1455 1.389 . S
C1454 H1427 0.950 . S
C1454 C1440 1.377 . S
C1454 C1453 1.373 . S
C1455 C1439 1.377 . S
C1455 C1453 1.389 . S
C1455 C1456 1.524 . S
C1456 C1455 1.524 . S
C1456 C1457 1.397 . S
C1456 C1461 1.363 . S
C1457 H1428 0.950 . S
C1457 C1456 1.397 . S
C1457 C1458 1.334 . S
C1458 H1429 0.950 . S
C1458 C1457 1.334 . S
C1458 C1459 1.287 . S
C1459 C1458 1.287 . S
C1459 C1460 1.524 . S
C1459 H1462 0.999 . S
C1460 H1430 0.950 . S
C1460 C1459 1.524 . S
C1460 C1461 1.415 . S
C1461 H1431 0.950 . S
C1461 C1456 1.363 . S
C1461 C1460 1.415 . S
H1462 C1459 0.999 . S
H1463 C1444 0.913 . S
C283 C82 1.601 . S
C298 C114 1.808 . S
C348 C154 1.809 . S
C333 C95 1.603 . S
C398 C194 1.809 . S
C383 C56 1.602 . S
C448 C234 1.808 . S
C433 C69 1.602 . S
C498 C123 1.812 . S
C483 C30 1.599 1_565 S
C533 C43 1.601 . S
C548 C163 1.808 . S
C583 C4 1.602 . S
C598 C203 1.808 . S
C633 C17 1.599 1_655 S
C648 C243 1.813 . S
C698 C120 0.333 . S
C683 C74 0.389 . S
C748 C160 0.335 . S
C733 C87 0.392 . S
C798 C200 0.334 . S
C783 C100 0.390 . S
C833 C61 0.390 . S
C848 C240 0.333 . S
C883 C22 0.397 . S
C898 C111 0.335 . S
C948 C151 0.333 . S
C933 C35 0.398 . S
C998 C191 0.333 . S
C983 C48 0.396 . S
C1033 C9 0.394 . S
C1048 C231 0.334 . S
C1083 C73 1.864 . S
C1098 C115 2.049 . S
C1133 C86 1.864 . S
C1148 C155 2.049 . S
C1198 C195 2.049 . S
C1183 C99 1.865 . S
C1248 C235 2.048 . S
C1233 C60 1.864 . S
C1283 C21 1.867 . S
C1298 C106 2.049 . S
C1348 C146 2.048 . S
C1333 C34 1.866 . S
C1398 C186 2.048 . S
C1383 C47 1.866 . S
C1433 C8 1.866 . S
C1448 C226 2.048 . S
