# Generated by pormake.
# Topology tsx, (6,3)-cn, num edge types: 1
# Building blocks:
#     Node 0, Type 0, BuildingBlock: MIDCAF_clean_sbu_0, # of connection points: 6
#     Node 1, Type 0, BuildingBlock: MIDCAF_clean_sbu_0, # of connection points: 6
#     Node 2, Type 1, BuildingBlock: QEWDON_clean_linker_0, # of connection points: 3
#     Node 3, Type 1, BuildingBlock: QEWDON_clean_linker_0, # of connection points: 3
#     Node 4, Type 1, BuildingBlock: QEWDON_clean_linker_0, # of connection points: 3
#     Node 5, Type 1, BuildingBlock: QEWDON_clean_linker_0, # of connection points: 3
#     Edge 6, Type (0, 1), BuildingBlock: FUNLAD_clean_linker_1, # of connection points: 2
#     Edge 7, Type (0, 1), BuildingBlock: FUNLAD_clean_linker_1, # of connection points: 2
#     Edge 8, Type (0, 1), BuildingBlock: FUNLAD_clean_linker_1, # of connection points: 2
#     Edge 9, Type (0, 1), BuildingBlock: FUNLAD_clean_linker_1, # of connection points: 2
#     Edge 10, Type (0, 1), BuildingBlock: FUNLAD_clean_linker_1, # of connection points: 2
#     Edge 11, Type (0, 1), BuildingBlock: FUNLAD_clean_linker_1, # of connection points: 2
#     Edge 12, Type (0, 1), BuildingBlock: FUNLAD_clean_linker_1, # of connection points: 2
#     Edge 13, Type (0, 1), BuildingBlock: FUNLAD_clean_linker_1, # of connection points: 2
#     Edge 14, Type (0, 1), BuildingBlock: FUNLAD_clean_linker_1, # of connection points: 2
#     Edge 15, Type (0, 1), BuildingBlock: FUNLAD_clean_linker_1, # of connection points: 2
#     Edge 16, Type (0, 1), BuildingBlock: FUNLAD_clean_linker_1, # of connection points: 2
#     Edge 17, Type (0, 1), BuildingBlock: FUNLAD_clean_linker_1, # of connection points: 2
# Relax obj value: 0.091
# Max RMSD: 0.154
# Mean RMSD: 0.150
data_MOF--net-tsx--node1-MIDCAF_clean_sbu_0--node2-QEWDON_clean_linker_0--edge1-FUNLAD_clean_linker_1
_symmetry_space_group_name_H-M    P1
_symmetry_Int_Tables_number       1
_symmetry_cell_setting            triclinic
loop_
_symmetry_equiv_pos_as_xyz
'x, y, z'
_cell_length_a     21.781627
_cell_length_b     22.507447
_cell_length_c     36.888834
_cell_angle_alpha  90.224625
_cell_angle_beta   109.17271
_cell_angle_gamma 89.541461
loop_
_atom_site_label
_atom_site_type_symbol
_atom_site_fract_x
_atom_site_fract_y
_atom_site_fract_z
_atom_type_partial_charge
Zn0 Zn 0.9211 0.98872 0.94871 0.0
Zn1 Zn 0.15007 1.00367 0.05533 0.0
Zn2 Zn 0.0382 1.0048 0.00099 0.0
C3 C 0.1181 0.12224 0.02797 0.0
C4 C 0.16851 0.93903 0.99646 0.0
O5 O 0.97822 0.94534 0.02387 0.0
O6 O 0.8861 0.93016 0.97657 0.0
C7 C 0.93866 0.11191 0.96746 0.0
O8 O 0.06275 0.09916 0.00954 0.0
O9 O 0.16381 0.08994 0.0488 0.0
O10 O 0.19532 0.94659 0.03209 0.0
O11 O 0.11157 0.96109 0.97937 0.0
O12 O 0.89742 0.07441 0.94875 0.0
O13 O 0.99621 0.09514 0.98804 0.0
O14 O 0.05261 0.96672 0.94908 0.0
O15 O 0.95309 0.95922 0.90737 0.0
C16 C 1.01379 0.9542 0.91522 0.0
O17 O 0.03017 0.96536 0.05483 0.0
O18 O 0.12621 0.97684 0.09947 0.0
C19 C 0.92273 0.91932 0.01033 0.0
C20 C 0.0677 0.9611 0.09004 0.0
Zn21 Zn 0.68353 0.50939 0.57258 0.0
Zn22 Zn 0.46138 0.52282 0.46031 0.0
Zn23 Zn 0.56829 0.52234 0.51762 0.0
C24 C 0.55739 0.49755 0.42951 0.0
C25 C 0.47768 0.63757 0.49233 0.0
O26 O 0.55129 0.47558 0.56615 0.0
O27 O 0.64973 0.46799 0.6093 0.0
C28 C 0.69881 0.45169 0.51052 0.0
O29 O 0.58886 0.49249 0.46564 0.0
O30 O 0.49877 0.51448 0.41841 0.0
O31 O 0.4343 0.60389 0.47117 0.0
O32 O 0.53475 0.61644 0.51026 0.0
O33 O 0.73167 0.46188 0.54511 0.0
O34 O 0.64018 0.47231 0.49647 0.0
O35 O 0.59961 0.61385 0.53521 0.0
O36 O 0.69648 0.59713 0.57839 0.0
C37 C 0.65321 0.63304 0.5592 0.0
O38 O 0.49675 0.46577 0.53298 0.0
O39 O 0.42309 0.45164 0.47592 0.0
C40 C 0.58923 0.45995 0.59967 0.0
C41 C 0.4454 0.43948 0.51119 0.0
H42 H 0.02826 0.10213 0.35096 0.0
C43 C 0.0619 0.06804 0.36664 0.0
C44 C 0.06278 0.01247 0.34944 0.0
C45 C 0.10749 0.08155 0.40258 0.0
H46 H 0.1072 0.92522 0.35713 0.0
C47 C 0.10728 0.96882 0.36972 0.0
C48 C 0.15339 0.98131 0.40567 0.0
C49 C 0.15335 0.03802 0.4219 0.0
C50 C 0.11043 0.14265 0.41843 0.0
H51 H 0.1881 0.04828 0.44976 0.0
C52 C 0.05409 0.17181 0.42065 0.0
C53 C 0.05779 0.23013 0.4356 0.0
C54 C 0.17021 0.17238 0.43103 0.0
H55 H 0.21406 0.15112 0.42945 0.0
C56 C 0.17387 0.23016 0.44521 0.0
H57 H 1.00821 0.1487 0.41088 0.0
C58 C 0.11817 0.25893 0.44719 0.0
H59 H 0.12245 0.30395 0.45815 0.0
H60 H 0.2201 0.25282 0.4547 0.0
H61 H 0.09945 0.05395 0.64005 0.0
C62 C 0.05001 0.03855 0.62709 0.0
C63 C 0.01824 0.01231 0.65042 0.0
C64 C 0.01923 0.04353 0.5872 0.0
H65 H 0.93124 0.96716 0.65065 0.0
C66 C 0.95546 0.98909 0.63319 0.0
C67 C 0.92423 0.99275 0.5933 0.0
C68 C 0.95559 0.02176 0.5708 0.0
C69 C 0.05519 0.06711 0.5623 0.0
H70 H 0.93105 0.02545 0.54014 0.0
C71 C 0.09834 0.11535 0.57409 0.0
C72 C 0.13484 0.13508 0.55126 0.0
C73 C 0.04825 0.03953 0.52691 0.0
H74 H 0.0168 1.00158 0.51725 0.0
C75 C 0.08306 0.05954 0.50383 0.0
H76 H 0.10371 0.13753 0.60107 0.0
C77 C 0.12603 0.1067 0.51581 0.0
H78 H 0.15157 0.12071 0.49687 0.0
H79 H 0.07703 0.03804 0.4766 0.0
H80 H 0.55593 0.60386 0.8672 0.0
C81 C 0.59336 0.57311 0.88347 0.0
C82 C 0.60308 0.51949 0.86659 0.0
C83 C 0.63428 0.58927 0.92015 0.0
H84 H 0.65753 0.43756 0.8757 0.0
C85 C 0.65252 0.48039 0.88777 0.0
C86 C 0.69454 0.49623 0.92454 0.0
C87 C 0.68463 0.5507 0.94046 0.0
C88 C 0.62722 0.64848 0.93592 0.0
H89 H 0.71635 0.56342 0.96868 0.0
C90 C 0.56647 0.66825 0.93704 0.0
C91 C 0.55898 0.72605 0.94948 0.0
C92 C 0.68082 0.68664 0.94818 0.0
H93 H 0.72772 0.6727 0.94688 0.0
C94 C 0.67378 0.74383 0.96105 0.0
H95 H 0.52491 0.63893 0.92782 0.0
C96 C 0.61329 0.7636 0.9617 0.0
H97 H 0.60932 0.80788 0.97232 0.0
H98 H 0.71515 0.77314 0.97023 0.0
H99 H 0.61146 0.52176 0.14703 0.0
C100 C 0.56452 0.50177 0.13293 0.0
C101 C 0.52256 0.49027 0.15386 0.0
C102 C 0.54695 0.48592 0.09398 0.0
H103 H 0.42964 0.45551 0.1515 0.0
C104 C 0.46189 0.46473 0.13522 0.0
C105 C 0.44339 0.44827 0.09644 0.0
C106 C 0.48645 0.45884 0.07587 0.0
C107 C 0.59461 0.49319 0.07351 0.0
H108 H 0.47432 0.44459 0.04629 0.0
C109 C 0.62554 0.54804 0.07399 0.0
C110 C 0.67557 0.55313 0.05801 0.0
C111 C 0.61268 0.444 0.05565 0.0
H112 H 0.58986 0.40127 0.05513 0.0
C113 C 0.6621 0.44902 0.03954 0.0
H114 H 0.61141 0.58644 0.08734 0.0
C115 C 0.69385 0.50302 0.04099 0.0
H116 H 0.73192 0.50584 0.02826 0.0
H117 H 0.67621 0.41079 0.02618 0.0
H118 H 0.09695 0.20967 0.99869 0.0
C119 C 0.13186 0.18484 0.02148 0.0
H120 H 0.22619 0.18229 0.06208 0.0
H121 H 0.38685 0.34012 0.99621 0.0
H122 H 0.40234 0.2472 0.9666 0.0
H123 H 0.33128 0.16146 0.96447 0.0
H124 H 0.24426 0.16823 0.99213 0.0
C125 C 0.19034 0.20824 0.04028 0.0
C126 C 0.2146 0.26415 0.02879 0.0
C127 C 0.26355 0.26032 0.01136 0.0
C128 C 0.30404 0.30988 0.01227 0.0
C129 C 0.35447 0.30393 0.99615 0.0
C130 C 0.36383 0.25085 0.97903 0.0
C131 C 0.32386 0.20255 0.97786 0.0
C132 C 0.27437 0.2069 0.99393 0.0
H133 H 0.36407 0.39188 0.10094 0.0
C134 C 0.38221 0.41414 0.08037 0.0
H135 H 0.36506 0.42834 0.02111 0.0
H136 H 0.11495 0.28981 0.05596 0.0
H137 H 0.09192 0.38581 0.07943 0.0
H138 H 0.1609 0.47255 0.07993 0.0
H139 H 0.25367 0.46372 0.05707 0.0
C140 C 0.34921 0.40699 0.04278 0.0
C141 C 0.29534 0.36298 0.03077 0.0
C142 C 0.24015 0.3694 0.04288 0.0
C143 C 0.19983 0.31967 0.04209 0.0
C144 C 0.14682 0.32639 0.05589 0.0
C145 C 0.13307 0.3812 0.0693 0.0
C146 C 0.17195 0.43006 0.0696 0.0
C147 C 0.22509 0.42443 0.05665 0.0
H148 H 0.19312 0.9173 0.94408 0.0
C149 C 0.20575 0.90895 0.97462 0.0
H150 H 0.27156 0.86912 0.0238 0.0
H151 H 0.37822 0.74462 0.89251 0.0
H152 H 0.27118 0.70113 0.86477 0.0
H153 H 0.18149 0.72918 0.88857 0.0
H154 H 0.19768 0.80196 0.93946 0.0
C155 C 0.25903 0.87673 0.99312 0.0
C156 C 0.31017 0.86183 0.97599 0.0
C157 C 0.30003 0.81824 0.94683 0.0
C158 C 0.35253 0.80019 0.93424 0.0
C159 C 0.34065 0.75827 0.90407 0.0
C160 C 0.27939 0.73325 0.88777 0.0
C161 C 0.22882 0.74919 0.90108 0.0
C162 C 0.23872 0.79116 0.93026 0.0
H163 H 0.46632 0.71398 0.96095 0.0
C164 C 0.49505 0.74569 0.95132 0.0
H165 H 0.50061 0.83289 0.93204 0.0
H166 H 0.34376 0.95221 0.0288 0.0
H167 H 0.45066 0.99496 0.05686 0.0
H168 H 0.54311 0.95965 0.03778 0.0
H169 H 0.52901 0.88203 0.99028 0.0
C170 C 0.47264 0.8014 0.94238 0.0
C171 C 0.41543 0.8242 0.9519 0.0
C172 C 0.4248 0.86952 0.97996 0.0
C173 C 0.37199 0.88873 0.99171 0.0
C174 C 0.3825 0.93475 0.01944 0.0
C175 C 0.4436 0.95997 0.03569 0.0
C176 C 0.49558 0.94019 0.02489 0.0
C177 C 0.48665 0.89555 0.99743 0.0
H178 H 0.9396 0.85934 0.06027 0.0
C179 C 0.90486 0.87213 0.03275 0.0
H180 H 0.81672 0.85141 0.98932 0.0
H181 H 0.82503 0.57837 0.0168 0.0
H182 H 0.87294 0.58205 0.96632 0.0
H183 H 0.90687 0.67744 0.94643 0.0
H184 H 0.89301 0.76971 0.97712 0.0
C185 C 0.85031 0.84038 0.01756 0.0
C186 C 0.83935 0.783 0.03418 0.0
C187 C 0.84891 0.72927 0.01651 0.0
C188 C 0.8294 0.67434 0.02801 0.0
C189 C 0.83883 0.62149 0.00939 0.0
C190 C 0.86641 0.62289 0.98028 0.0
C191 C 0.88541 0.67657 0.96906 0.0
C192 C 0.87696 0.72923 0.98685 0.0
H193 H 0.67514 0.65068 0.0506 0.0
C194 C 0.70629 0.61149 0.05755 0.0
H195 H 0.80183 0.57785 0.07222 0.0
H196 H 0.81947 0.87736 0.07593 0.0
H197 H 0.77771 0.87332 0.12936 0.0
H198 H 0.74755 0.7776 0.15099 0.0
H199 H 0.75808 0.6854 0.11898 0.0
C200 C 0.77061 0.61688 0.06447 0.0
C201 C 0.79931 0.67342 0.05677 0.0
C202 C 0.79449 0.72663 0.0765 0.0
C203 C 0.81382 0.78165 0.06484 0.0
C204 C 0.80626 0.83437 0.084 0.0
C205 C 0.78242 0.83265 0.1147 0.0
C206 C 0.76536 0.77875 0.12685 0.0
C207 C 0.77119 0.72622 0.10807 0.0
H208 H 0.87136 0.18462 0.94251 0.0
C209 C 0.91751 0.1745 0.96459 0.0
H210 H 0.99261 0.21019 0.01199 0.0
H211 H 0.87259 0.45256 0.91566 0.0
H212 H 0.97625 0.44722 0.90414 0.0
H213 H 0.05259 0.36401 0.92979 0.0
H214 H 0.02559 0.2857 0.96722 0.0
C215 C 0.94743 0.218 0.98879 0.0
C216 C 0.91415 0.27685 0.98481 0.0
C217 C 0.93091 0.32259 0.96375 0.0
C218 C 0.88662 0.3702 0.94879 0.0
C219 C 0.90414 0.41496 0.92725 0.0
C220 C 0.96352 0.41253 0.92058 0.0
C221 C 1.00652 0.36568 0.93502 0.0
C222 C 0.99051 0.32098 0.95629 0.0
H223 H 0.76827 0.4636 0.97815 0.0
C224 C 0.74848 0.45667 0.94732 0.0
H225 H 0.75969 0.40812 0.9007 0.0
H226 H 0.87731 0.20523 0.0331 0.0
H227 H 0.77567 0.21117 0.04707 0.0
H228 H 0.69454 0.28918 0.01761 0.0
H229 H 0.71459 0.36186 0.97482 0.0
C230 C 0.77398 0.41297 0.93162 0.0
C231 C 0.82559 0.37167 0.95487 0.0
C232 C 0.81183 0.32892 0.97935 0.0
C233 C 0.85721 0.28239 0.9951 0.0
C234 C 0.84335 0.24048 0.01978 0.0
C235 C 0.78549 0.24352 0.02807 0.0
C236 C 0.73993 0.28755 0.01158 0.0
C237 C 0.7524 0.3295 0.98723 0.0
H238 H 0.70639 0.70924 0.59068 0.0
C239 C 0.66818 0.69676 0.56437 0.0
H240 H 0.61315 0.72463 0.50846 0.0
H241 H 0.7683 0.94898 0.62538 0.0
H242 H 0.68361 0.94016 0.65465 0.0
H243 H 0.59682 0.86567 0.63127 0.0
H244 H 0.59436 0.79927 0.57845 0.0
C245 C 0.64718 0.73717 0.53621 0.0
C246 C 0.68263 0.79464 0.5407 0.0
C247 C 0.68225 0.83433 0.57047 0.0
C248 C 0.73199 0.87745 0.5837 0.0
C249 C 0.7317 0.91521 0.61441 0.0
C250 C 0.68331 0.91075 0.63131 0.0
C251 C 0.63443 0.86878 0.61815 0.0
C252 C 0.63371 0.83082 0.58808 0.0
H253 H 0.82975 0.98149 0.54649 0.0
C254 C 0.86023 0.96417 0.57406 0.0
H255 H 0.87274 0.89444 0.61419 0.0
H256 H 0.68747 0.73513 0.47696 0.0
H257 H 0.76841 0.74684 0.4454 0.0
H258 H 0.85674 0.81961 0.46924 0.0
H259 H 0.86446 0.8813 0.52444 0.0
C260 C 0.84225 0.91395 0.58742 0.0
C261 C 0.78157 0.88125 0.56678 0.0
C262 C 0.77747 0.84623 0.53398 0.0
C263 C 0.72718 0.80343 0.52058 0.0
C264 C 0.72493 0.7679 0.48844 0.0
C265 C 0.77101 0.77424 0.47003 0.0
C266 C 0.82068 0.81528 0.48343 0.0
C267 C 0.82438 0.85067 0.51514 0.0
H268 H 0.6946 0.39676 0.45959 0.0
C269 C 0.7267 0.41359 0.4868 0.0
H270 H 0.82119 0.41337 0.52702 0.0
H271 H 0.94752 0.18125 0.49895 0.0
H272 H 0.93161 0.16086 0.55967 0.0
H273 H 0.86253 0.22631 0.58404 0.0
H274 H 0.80961 0.31305 0.54804 0.0
C275 C 0.78994 0.3974 0.4993 0.0
C276 C 0.81913 0.35213 0.47987 0.0
C277 C 0.84802 0.30027 0.50059 0.0
C278 C 0.88662 0.26164 0.48612 0.0
C279 C 0.91696 0.21166 0.50827 0.0
C280 C 0.90827 0.19937 0.54322 0.0
C281 C 0.86949 0.23629 0.55697 0.0
C282 C 0.83966 0.28615 0.53608 0.0
H283 H 1.00826 0.30985 0.44814 0.0
C284 C 1.00111 0.26313 0.44025 0.0
H285 H 0.93526 0.19172 0.43317 0.0
H286 H 0.76962 0.44634 0.43153 0.0
H287 H 0.77771 0.46113 0.36834 0.0
H288 H 0.838 0.38991 0.34149 0.0
H289 H 0.8918 0.30379 0.37828 0.0
C290 C 0.94397 0.23879 0.43859 0.0
C291 C 0.89558 0.27426 0.45061 0.0
C292 C 0.86223 0.32311 0.42832 0.0
C293 C 0.82502 0.36284 0.44322 0.0
C294 C 0.79618 0.41336 0.42124 0.0
C295 C 0.80093 0.42271 0.38494 0.0
C296 C 0.83502 0.38269 0.36986 0.0
C297 C 0.86577 0.3336 0.39127 0.0
H298 H 0.39484 0.35463 0.50572 0.0
C299 C 0.41385 0.39142 0.52532 0.0
H300 H 0.41153 0.43347 0.57607 0.0
H301 H 0.14177 0.28919 0.53541 0.0
H302 H 0.10212 0.38977 0.52115 0.0
H303 H 0.17815 0.47298 0.52795 0.0
H304 H 0.29478 0.45545 0.54879 0.0
C305 C 0.39944 0.39442 0.55793 0.0
C306 C 0.35656 0.34817 0.56546 0.0
C307 C 0.28895 0.35934 0.55554 0.0
C308 C 0.24525 0.31137 0.55256 0.0
C309 C 0.17761 0.3236 0.53954 0.0
C310 C 0.15401 0.38137 0.53096 0.0
C311 C 0.19679 0.42819 0.53467 0.0
C312 C 0.26351 0.41753 0.5466 0.0
H313 H 0.17539 0.21365 0.58786 0.0
C314 C 0.18015 0.18621 0.5646 0.0
H315 H 0.23602 0.17104 0.5281 0.0
H316 H 0.48395 0.31425 0.59218 0.0
H317 H 0.52554 0.21451 0.61128 0.0
H318 H 0.45057 0.13154 0.60822 0.0
H319 H 0.3336 0.14766 0.58592 0.0
C320 C 0.22615 0.20017 0.54901 0.0
C321 C 0.2699 0.2525 0.56084 0.0
C322 C 0.3381 0.24269 0.57483 0.0
C323 C 0.3814 0.29048 0.57691 0.0
C324 C 0.44914 0.27919 0.58994 0.0
C325 C 0.47356 0.22232 0.60111 0.0
C326 C 0.43134 0.17561 0.59937 0.0
C327 C 0.36436 0.18538 0.58636 0.0
H328 H 0.49782 0.73003 0.51497 0.0
C329 C 0.46146 0.70102 0.49613 0.0
H330 H 0.36504 0.69279 0.45859 0.0
H331 H 0.21559 0.89803 0.50041 0.0
H332 H 0.19125 0.82055 0.53925 0.0
H333 H 0.25314 0.72621 0.55116 0.0
H334 H 0.34012 0.70891 0.52452 0.0
C335 C 0.40182 0.72249 0.47645 0.0
C336 C 0.37947 0.78463 0.47908 0.0
C337 C 0.3293 0.79446 0.49506 0.0
C338 C 0.29317 0.84858 0.48787 0.0
C339 C 0.24349 0.85714 0.50432 0.0
C340 C 0.22934 0.81323 0.52684 0.0
C341 C 0.26421 0.76011 0.53356 0.0
C342 C 0.31368 0.7506 0.51795 0.0
H343 H 0.18703 0.8881 0.41624 0.0
C344 C 0.20065 0.93371 0.42492 0.0
H345 H 0.27826 0.98843 0.45723 0.0
H346 H 0.47879 0.78395 0.44895 0.0
H347 H 0.50711 0.86363 0.41343 0.0
H348 H 0.44465 0.95761 0.4011 0.0
H349 H 0.35329 0.97244 0.42418 0.0
C350 C 0.26067 0.94352 0.44988 0.0
C351 C 0.30675 0.89265 0.46429 0.0
C352 C 0.36141 0.88548 0.45178 0.0
C353 C 0.39769 0.83125 0.45903 0.0
C354 C 0.44995 0.82423 0.44455 0.0
C355 C 0.4667 0.86964 0.42408 0.0
C356 C 0.43153 0.92258 0.41715 0.0
C357 C 0.37924 0.93054 0.43057 0.0
H358 H 0.07937 0.92611 0.14703 0.0
C359 C 0.04326 0.94255 0.1209 0.0
H360 H 0.95004 0.98132 0.09762 0.0
H361 H 0.99393 0.86731 0.27354 0.0
H362 H 0.96109 0.77357 0.23975 0.0
H363 H 0.93538 0.76742 0.16945 0.0
H364 H 0.94249 0.85513 0.13252 0.0
C365 C 0.98486 0.95971 0.12222 0.0
C366 C 0.97726 0.96602 0.16071 0.0
C367 C 0.97268 0.915 0.18181 0.0
C368 C 0.98785 0.91868 0.22229 0.0
C369 C 0.98355 0.86671 0.24275 0.0
C370 C 0.96459 0.81283 0.2237 0.0
C371 C 0.95016 0.80933 0.18412 0.0
C372 C 0.95448 0.8597 0.16329 0.0
H373 H 0.97574 0.02857 0.29821 0.0
C374 C 0.02077 1.00322 0.30897 0.0
H375 H 0.08797 0.94873 0.2938 0.0
H376 H 0.97432 0.07419 0.12694 0.0
H377 H 1.00363 0.16884 0.15955 0.0
H378 H 0.03775 0.17501 0.23015 0.0
H379 H 0.0418 0.08747 0.26837 0.0
C380 C 0.04215 0.97289 0.28389 0.0
C381 C 1.00839 0.97334 0.24158 0.0
C382 C 1.00668 0.02577 0.21982 0.0
C383 C 0.98923 0.02209 0.17917 0.0
C384 C 0.98817 0.07458 0.15792 0.0
C385 C 1.00479 0.12915 0.17625 0.0
C386 C 0.02383 0.13262 0.21598 0.0
C387 C 0.0254 0.08173 0.23765 0.0
H388 H 1.00437 0.92045 0.85806 0.0
C389 C 0.03817 0.94156 0.88326 0.0
H390 H 0.1214 0.99502 0.90372 0.0
H391 H 0.06719 0.89264 0.72254 0.0
H392 H 0.10402 0.79657 0.75189 0.0
H393 H 0.13795 0.78412 0.82214 0.0
H394 H 0.13476 0.86788 0.86366 0.0
C395 C 0.09026 0.96944 0.8798 0.0
C396 C 0.09302 0.98021 0.84056 0.0
C397 C 0.09775 0.93178 0.81698 0.0
C398 C 0.07933 0.9393 0.77655 0.0
C399 C 0.08129 0.88948 0.75345 0.0
C400 C 0.10236 0.83417 0.76994 0.0
C401 C 0.12143 0.82713 0.80954 0.0
C402 C 0.11908 0.87524 0.83296 0.0
H403 H 0.10605 0.00868 0.70256 0.0
C404 C 0.05325 0.0067 0.69239 0.0
H405 H 0.96971 1.00331 0.70957 0.0
H406 H 0.09182 0.08527 0.8785 0.0
H407 H 0.06302 0.18245 0.84962 0.0
H408 H 0.03243 0.19552 0.77951 0.0
H409 H 0.03033 0.11105 0.73785 0.0
C410 C 0.0223 1.00088 0.71824 0.0
C411 C 0.05746 0.9956 0.76007 0.0
C412 C 0.06049 0.04545 0.78407 0.0
C413 C 0.07859 0.03788 0.82447 0.0
C414 C 0.0787 0.08825 0.84765 0.0
C415 C 0.06233 0.14442 0.83143 0.0
C416 C 0.04507 0.15178 0.79196 0.0
C417 C 0.04389 0.10299 0.76839 0.0
H418 H 0.59589 0.41284 0.65241 0.0
C419 C 0.56373 0.4405 0.62988 0.0
H420 H 0.48772 0.50331 0.61644 0.0
H421 H 0.53333 0.37484 0.78955 0.0
H422 H 0.48561 0.28608 0.75376 0.0
H423 H 0.45061 0.28474 0.68291 0.0
H424 H 0.46349 0.37228 0.64753 0.0
C425 C 0.51633 0.47145 0.63738 0.0
C426 C 0.51821 0.47704 0.678 0.0
C427 C 0.50857 0.42666 0.69827 0.0
C428 C 0.52798 0.42782 0.73902 0.0
C429 C 0.51948 0.3762 0.75857 0.0
C430 C 0.492 0.32513 0.73837 0.0
C431 C 0.47236 0.32433 0.69849 0.0
C432 C 0.48039 0.37448 0.67853 0.0
H433 H 0.51863 0.53284 0.81367 0.0
C434 C 0.5639 0.50819 0.82579 0.0
H435 H 0.63356 0.4541 0.81235 0.0
H436 H 0.53265 0.58504 0.64738 0.0
H437 H 0.57686 0.67434 0.68255 0.0
H438 H 0.61349 0.67588 0.75329 0.0
H439 H 0.60573 0.58839 0.78911 0.0
C440 C 0.5874 0.47752 0.80178 0.0
C441 C 0.55601 0.4798 0.75936 0.0
C442 C 0.56071 0.53195 0.73885 0.0
C443 C 0.54076 0.53076 0.69806 0.0
C444 C 0.54714 0.58306 0.67831 0.0
C445 C 0.57252 0.63483 0.69816 0.0
C446 C 0.59303 0.63572 0.73796 0.0
C447 C 0.58779 0.58501 0.7582 0.0
H448 H 0.6438 0.48385 0.41111 0.0
C449 C 0.59124 0.48892 0.40112 0.0
H450 H 0.50604 0.50012 0.35368 0.0
H451 H 0.59412 0.61312 0.23033 0.0
H452 H 0.55877 0.70182 0.25624 0.0
H453 H 0.5384 0.69838 0.31822 0.0
H454 H 0.55345 0.60647 0.35468 0.0
C455 C 0.55834 0.49291 0.3634 0.0
C456 C 0.59013 0.49876 0.33367 0.0
C457 C 0.58234 0.55298 0.31323 0.0
C458 C 0.59361 0.55496 0.27753 0.0
C459 C 0.58486 0.60937 0.25733 0.0
C460 C 0.56506 0.66048 0.27199 0.0
C461 C 0.55361 0.65854 0.30688 0.0
C462 C 0.56206 0.60552 0.3274 0.0
H463 H 0.50085 0.51014 0.20686 0.0
C464 C 0.5405 0.50272 0.19548 0.0
H465 H 0.64183 0.48658 0.21061 0.0
H466 H 0.62343 0.39136 0.3699 0.0
H467 H 0.66991 0.30657 0.34711 0.0
H468 H 0.69099 0.31071 0.2854 0.0
H469 H 0.66541 0.39979 0.24601 0.0
C470 C 0.60149 0.49864 0.22036 0.0
C471 C 0.61192 0.50258 0.26226 0.0
C472 C 0.62945 0.45102 0.28544 0.0
C473 C 0.61789 0.44884 0.32122 0.0
C474 C 0.63194 0.39567 0.34279 0.0
C475 C 0.6585 0.34662 0.32997 0.0
C476 C 0.6704 0.34897 0.29521 0.0
C477 C 0.65552 0.40027 0.27289 0.0
loop_
_geom_bond_atom_site_label_1
_geom_bond_atom_site_label_2
_geom_bond_distance
_geom_bond_site_symmetry_2
_ccdc_geom_bond_type
Zn0 O6 1.920 1_545 S
Zn0 O12 1.898 . S
Zn0 O15 1.905 1_545 S
Zn1 O9 1.905 . S
Zn1 O10 1.898 1_545 S
Zn1 O18 1.920 1_545 S
Zn2 O5 2.080 1_444 S
Zn2 O8 2.114 . S
Zn2 O11 2.120 1_545 S
Zn2 O13 2.120 1_455 S
Zn2 O14 2.114 1_554 S
Zn2 O17 2.080 . S
C3 O8 1.166 . S
C3 O9 1.182 . S
C4 O10 1.167 . S
C4 O11 1.299 . S
O5 Zn2 2.080 1_666 S
O5 C19 1.305 . S
O6 Zn0 1.920 1_565 S
O6 C19 1.234 . S
C7 O12 1.167 . S
C7 O13 1.299 1_556 S
O8 Zn2 2.114 . S
O8 C3 1.166 . S
O9 Zn1 1.905 . S
O9 C3 1.182 . S
O10 Zn1 1.898 1_565 S
O10 C4 1.167 . S
O11 Zn2 2.120 1_565 S
O11 C4 1.299 . S
O12 Zn0 1.898 . S
O12 C7 1.167 . S
O13 Zn2 2.120 1_655 S
O13 C7 1.299 1_554 S
O14 Zn2 2.114 1_556 S
O14 C16 1.173 1_545 S
O15 Zn0 1.905 1_565 S
O15 C16 1.165 1_655 S
C16 O14 1.173 1_565 S
C16 O15 1.165 1_455 S
O17 Zn2 2.080 . S
O17 C20 1.305 1_545 S
O18 Zn1 1.920 1_565 S
O18 C20 1.234 . S
C19 O5 1.305 . S
C19 O6 1.234 . S
C20 O17 1.305 1_565 S
C20 O18 1.234 . S
Zn21 O27 1.920 . S
Zn21 O33 1.898 . S
Zn21 O36 1.905 . S
Zn22 O30 1.905 . S
Zn22 O31 1.898 . S
Zn22 O39 1.920 . S
Zn23 O26 2.080 . S
Zn23 O29 2.114 . S
Zn23 O32 2.120 . S
Zn23 O34 2.120 . S
Zn23 O35 2.114 . S
Zn23 O38 2.080 . S
C24 O29 1.166 . S
C24 O30 1.182 . S
C25 O31 1.167 . S
C25 O32 1.299 . S
O26 Zn23 2.080 . S
O26 C40 1.305 . S
O27 Zn21 1.920 . S
O27 C40 1.234 . S
C28 O33 1.167 . S
C28 O34 1.299 . S
O29 Zn23 2.114 . S
O29 C24 1.166 . S
O30 Zn22 1.905 . S
O30 C24 1.182 . S
O31 Zn22 1.898 . S
O31 C25 1.167 . S
O32 Zn23 2.120 . S
O32 C25 1.299 . S
O33 Zn21 1.898 . S
O33 C28 1.167 . S
O34 Zn23 2.120 . S
O34 C28 1.299 . S
O35 Zn23 2.114 . S
O35 C37 1.166 . S
O36 Zn21 1.905 . S
O36 C37 1.182 . S
C37 O35 1.166 . S
C37 O36 1.182 . S
O38 Zn23 2.080 . S
O38 C41 1.305 . S
O39 Zn22 1.920 . S
O39 C41 1.234 . S
C40 O26 1.305 . S
C40 O27 1.234 . S
C41 O38 1.305 . S
C41 O39 1.234 . S
H42 C43 0.949 . S
C43 H42 0.949 . S
C43 C44 1.395 . S
C43 C45 1.391 . S
C44 C43 1.395 . S
C44 C47 1.390 1_545 S
C45 C43 1.391 . S
C45 C49 1.387 . S
C45 C50 1.491 . S
H46 C47 0.950 . S
C47 C44 1.390 1_565 S
C47 H46 0.950 . S
C47 C48 1.378 . S
C48 C47 1.378 . S
C48 C49 1.409 1_565 S
C49 C45 1.387 . S
C49 C48 1.409 1_545 S
C49 H51 0.951 . S
C50 C45 1.491 . S
C50 C52 1.382 . S
C50 C54 1.404 . S
H51 C49 0.951 . S
C52 C50 1.382 . S
C52 C53 1.390 . S
C52 H57 0.949 . S
C53 C52 1.390 . S
C53 C58 1.399 . S
C54 C50 1.404 . S
C54 H55 0.950 . S
C54 C56 1.375 . S
H55 C54 0.950 . S
C56 C54 1.375 . S
C56 C58 1.382 . S
C56 H60 0.950 . S
H57 C52 0.949 . S
C58 C53 1.399 . S
C58 C56 1.382 . S
C58 H59 0.952 . S
H59 C58 0.952 . S
H60 C56 0.950 . S
H61 C62 0.949 . S
C62 H61 0.949 . S
C62 C63 1.395 1_455 S
C62 C64 1.391 1_455 S
C63 C62 1.395 1_655 S
C63 C66 1.390 1_545 S
C64 C62 1.391 1_655 S
C64 C68 1.387 . S
C64 C69 1.491 1_655 S
H65 C66 0.950 . S
C66 C63 1.390 1_565 S
C66 H65 0.950 . S
C66 C67 1.378 . S
C67 C66 1.378 . S
C67 C68 1.409 1_565 S
C68 C64 1.387 . S
C68 C67 1.409 1_545 S
C68 H70 0.951 1_545 S
C69 C64 1.491 1_455 S
C69 C71 1.382 . S
C69 C73 1.404 1_455 S
H70 C68 0.951 1_565 S
C71 C69 1.382 . S
C71 C72 1.390 . S
C71 H76 0.949 . S
C72 C71 1.390 . S
C72 C77 1.399 . S
C73 C69 1.404 1_655 S
C73 H74 0.950 . S
C73 C75 1.375 . S
H74 C73 0.950 . S
C75 C73 1.375 . S
C75 C77 1.382 1_655 S
C75 H79 0.950 . S
H76 C71 0.949 . S
C77 C72 1.399 . S
C77 C75 1.382 1_455 S
C77 H78 0.952 . S
H78 C77 0.952 . S
H79 C75 0.950 . S
H80 C81 0.949 . S
C81 H80 0.949 . S
C81 C82 1.395 . S
C81 C83 1.391 . S
C82 C81 1.395 . S
C82 C85 1.390 . S
C83 C81 1.391 . S
C83 C87 1.387 . S
C83 C88 1.491 . S
H84 C85 0.950 . S
C85 C82 1.390 . S
C85 H84 0.950 . S
C85 C86 1.378 . S
C86 C85 1.378 . S
C86 C87 1.409 . S
C87 C83 1.387 . S
C87 C86 1.409 . S
C87 H89 0.951 . S
C88 C83 1.491 . S
C88 C90 1.382 . S
C88 C92 1.404 1_556 S
H89 C87 0.951 . S
C90 C88 1.382 . S
C90 C91 1.390 . S
C90 H95 0.949 . S
C91 C90 1.390 . S
C91 C96 1.399 1_556 S
C92 C88 1.404 1_554 S
C92 H93 0.950 . S
C92 C94 1.375 . S
H93 C92 0.950 . S
C94 C92 1.375 . S
C94 C96 1.382 . S
C94 H98 0.950 . S
H95 C90 0.949 . S
C96 C91 1.399 1_554 S
C96 C94 1.382 . S
C96 H97 0.952 . S
H97 C96 0.952 . S
H98 C94 0.950 . S
H99 C100 0.949 . S
C100 H99 0.949 . S
C100 C101 1.395 . S
C100 C102 1.391 . S
C101 C100 1.395 . S
C101 C104 1.390 . S
C102 C100 1.391 . S
C102 C106 1.387 . S
C102 C107 1.491 . S
H103 C104 0.950 . S
C104 C101 1.390 . S
C104 H103 0.950 . S
C104 C105 1.378 . S
C105 C104 1.378 . S
C105 C106 1.409 . S
C106 C102 1.387 . S
C106 C105 1.409 . S
C106 H108 0.951 . S
C107 C102 1.491 . S
C107 C109 1.382 . S
C107 C111 1.404 . S
H108 C106 0.951 . S
C109 C107 1.382 . S
C109 C110 1.390 . S
C109 H114 0.949 . S
C110 C109 1.390 . S
C110 C115 1.388 1_554 S
C111 C107 1.404 . S
C111 H112 0.950 . S
C111 C113 1.375 1_554 S
H112 C111 0.950 . S
C113 C111 1.375 1_556 S
C113 C115 1.383 . S
C113 H117 0.950 . S
H114 C109 0.949 . S
C115 C110 1.388 1_556 S
C115 C113 1.383 . S
C115 H116 0.963 . S
H116 C115 0.963 . S
H117 C113 0.950 . S
H118 C119 0.951 . S
C119 H118 0.951 . S
C119 C125 1.265 . S
H120 C125 0.950 . S
H121 C129 0.950 1_554 S
H122 C130 0.950 . S
H123 C131 0.951 . S
H124 C132 0.951 . S
C125 C119 1.265 . S
C125 H120 0.950 . S
C125 C126 1.478 . S
C126 C125 1.478 . S
C126 C127 1.397 . S
C126 C143 1.394 . S
C127 C126 1.397 . S
C127 C128 1.438 . S
C127 C132 1.429 1_554 S
C128 C127 1.438 . S
C128 C129 1.420 1_554 S
C128 C141 1.394 . S
C129 H121 0.950 1_556 S
C129 C128 1.420 1_556 S
C129 C130 1.352 . S
C130 H122 0.950 . S
C130 C129 1.352 . S
C130 C131 1.424 . S
C131 H123 0.951 . S
C131 C130 1.424 . S
C131 C132 1.347 . S
C132 H124 0.951 . S
C132 C127 1.429 1_556 S
C132 C131 1.347 . S
H133 C134 0.951 . S
C134 H133 0.951 . S
C134 C140 1.265 . S
H135 C140 0.950 . S
H136 C144 0.949 . S
H137 C145 0.950 . S
H138 C146 0.951 . S
H139 C147 0.951 . S
C140 C134 1.265 . S
C140 H135 0.950 . S
C140 C141 1.478 . S
C141 C128 1.394 . S
C141 C140 1.478 . S
C141 C142 1.397 . S
C142 C141 1.397 . S
C142 C143 1.438 . S
C142 C147 1.429 . S
C143 C126 1.394 . S
C143 C142 1.438 . S
C143 C144 1.428 . S
C144 H136 0.949 . S
C144 C143 1.428 . S
C144 C145 1.345 . S
C145 H137 0.950 . S
C145 C144 1.345 . S
C145 C146 1.424 . S
C146 H138 0.951 . S
C146 C145 1.424 . S
C146 C147 1.347 . S
C147 H139 0.951 . S
C147 C142 1.429 . S
C147 C146 1.347 . S
H148 C149 0.951 1_554 S
C149 H148 0.951 1_556 S
C149 C155 1.265 . S
H150 C155 0.950 . S
H151 C159 0.949 . S
H152 C160 0.950 . S
H153 C161 0.951 . S
H154 C162 0.951 . S
C155 C149 1.265 . S
C155 H150 0.950 . S
C155 C156 1.478 . S
C156 C155 1.478 . S
C156 C157 1.397 . S
C156 C173 1.394 1_556 S
C157 C156 1.397 . S
C157 C158 1.438 . S
C157 C162 1.429 . S
C158 C157 1.438 . S
C158 C159 1.428 . S
C158 C171 1.394 . S
C159 H151 0.949 . S
C159 C158 1.428 . S
C159 C160 1.345 . S
C160 H152 0.950 . S
C160 C159 1.345 . S
C160 C161 1.424 . S
C161 H153 0.951 . S
C161 C160 1.424 . S
C161 C162 1.347 . S
C162 H154 0.951 . S
C162 C157 1.429 . S
C162 C161 1.347 . S
H163 C164 0.951 . S
C164 H163 0.951 . S
C164 C170 1.265 . S
H165 C170 0.950 . S
H166 C174 0.949 . S
H167 C175 0.950 . S
H168 C176 0.951 . S
H169 C177 0.951 . S
C170 C164 1.265 . S
C170 H165 0.950 . S
C170 C171 1.478 . S
C171 C158 1.394 . S
C171 C170 1.478 . S
C171 C172 1.397 1_556 S
C172 C171 1.397 1_554 S
C172 C173 1.438 . S
C172 C177 1.429 . S
C173 C156 1.394 1_554 S
C173 C172 1.438 . S
C173 C174 1.428 . S
C174 H166 0.949 . S
C174 C173 1.428 . S
C174 C175 1.345 . S
C175 H167 0.950 . S
C175 C174 1.345 . S
C175 C176 1.424 . S
C176 H168 0.951 . S
C176 C175 1.424 . S
C176 C177 1.347 . S
C177 H169 0.951 . S
C177 C172 1.429 . S
C177 C176 1.347 . S
H178 C179 0.951 . S
C179 H178 0.951 . S
C179 C185 1.265 . S
H180 C185 0.950 . S
H181 C189 0.949 . S
H182 C190 0.950 . S
H183 C191 0.951 . S
H184 C192 0.951 . S
C185 C179 1.265 . S
C185 H180 0.950 . S
C185 C186 1.478 . S
C186 C185 1.478 . S
C186 C187 1.397 1_554 S
C186 C203 1.394 . S
C187 C186 1.397 1_556 S
C187 C188 1.438 . S
C187 C192 1.429 . S
C188 C187 1.438 . S
C188 C189 1.428 . S
C188 C201 1.394 1_556 S
C189 H181 0.949 . S
C189 C188 1.428 . S
C189 C190 1.345 . S
C190 H182 0.950 . S
C190 C189 1.345 . S
C190 C191 1.424 . S
C191 H183 0.951 . S
C191 C190 1.424 . S
C191 C192 1.347 . S
C192 H184 0.951 . S
C192 C187 1.429 . S
C192 C191 1.347 . S
H193 C194 0.951 . S
C194 H193 0.951 . S
C194 C200 1.265 . S
H195 C200 0.950 . S
H196 C204 0.949 . S
H197 C205 0.950 . S
H198 C206 0.951 . S
H199 C207 0.951 . S
C200 C194 1.265 . S
C200 H195 0.950 . S
C200 C201 1.478 . S
C201 C188 1.394 1_554 S
C201 C200 1.478 . S
C201 C202 1.397 . S
C202 C201 1.397 . S
C202 C203 1.438 . S
C202 C207 1.429 . S
C203 C186 1.394 . S
C203 C202 1.438 . S
C203 C204 1.428 . S
C204 H196 0.949 . S
C204 C203 1.428 . S
C204 C205 1.345 . S
C205 H197 0.950 . S
C205 C204 1.345 . S
C205 C206 1.424 . S
C206 H198 0.951 . S
C206 C205 1.424 . S
C206 C207 1.347 . S
C207 H199 0.951 . S
C207 C202 1.429 . S
C207 C206 1.347 . S
H208 C209 0.951 . S
C209 H208 0.951 . S
C209 C215 1.265 . S
H210 C215 0.950 . S
H211 C219 0.949 . S
H212 C220 0.950 . S
H213 C221 0.951 . S
H214 C222 0.951 . S
C215 C209 1.265 . S
C215 H210 0.950 . S
C215 C216 1.478 . S
C216 C215 1.478 . S
C216 C217 1.397 . S
C216 C233 1.394 . S
C217 C216 1.397 . S
C217 C218 1.438 . S
C217 C222 1.429 . S
C218 C217 1.438 . S
C218 C219 1.428 . S
C218 C231 1.394 . S
C219 H211 0.949 . S
C219 C218 1.428 . S
C219 C220 1.345 . S
C220 H212 0.950 . S
C220 C219 1.345 . S
C220 C221 1.424 . S
C221 H213 0.951 . S
C221 C220 1.424 . S
C221 C222 1.347 . S
C222 H214 0.951 . S
C222 C217 1.429 . S
C222 C221 1.347 . S
H223 C224 0.951 . S
C224 H223 0.951 . S
C224 C230 1.265 . S
H225 C230 0.950 . S
H226 C234 0.949 . S
H227 C235 0.950 . S
H228 C236 0.951 . S
H229 C237 0.951 . S
C230 C224 1.265 . S
C230 H225 0.950 . S
C230 C231 1.478 . S
C231 C218 1.394 . S
C231 C230 1.478 . S
C231 C232 1.397 . S
C232 C231 1.397 . S
C232 C233 1.438 . S
C232 C237 1.429 1_556 S
C233 C216 1.394 . S
C233 C232 1.438 . S
C233 C234 1.428 1_556 S
C234 H226 0.949 . S
C234 C233 1.428 1_554 S
C234 C235 1.345 . S
C235 H227 0.950 . S
C235 C234 1.345 . S
C235 C236 1.424 . S
C236 H228 0.951 . S
C236 C235 1.424 . S
C236 C237 1.347 . S
C237 H229 0.951 . S
C237 C232 1.429 1_554 S
C237 C236 1.347 . S
H238 C239 0.951 . S
C239 H238 0.951 . S
C239 C245 1.265 . S
H240 C245 0.950 . S
H241 C249 0.949 . S
H242 C250 0.950 . S
H243 C251 0.951 . S
H244 C252 0.951 . S
C245 C239 1.265 . S
C245 H240 0.950 . S
C245 C246 1.478 . S
C246 C245 1.478 . S
C246 C247 1.397 . S
C246 C263 1.394 . S
C247 C246 1.397 . S
C247 C248 1.438 . S
C247 C252 1.429 . S
C248 C247 1.438 . S
C248 C249 1.428 . S
C248 C261 1.394 . S
C249 H241 0.949 . S
C249 C248 1.428 . S
C249 C250 1.345 . S
C250 H242 0.950 . S
C250 C249 1.345 . S
C250 C251 1.424 . S
C251 H243 0.951 . S
C251 C250 1.424 . S
C251 C252 1.347 . S
C252 H244 0.951 . S
C252 C247 1.429 . S
C252 C251 1.347 . S
H253 C254 0.951 . S
C254 H253 0.951 . S
C254 C260 1.265 . S
H255 C260 0.950 . S
H256 C264 0.949 . S
H257 C265 0.950 . S
H258 C266 0.951 . S
H259 C267 0.951 . S
C260 C254 1.265 . S
C260 H255 0.950 . S
C260 C261 1.478 . S
C261 C248 1.394 . S
C261 C260 1.478 . S
C261 C262 1.397 . S
C262 C261 1.397 . S
C262 C263 1.438 . S
C262 C267 1.429 . S
C263 C246 1.394 . S
C263 C262 1.438 . S
C263 C264 1.428 . S
C264 H256 0.949 . S
C264 C263 1.428 . S
C264 C265 1.345 . S
C265 H257 0.950 . S
C265 C264 1.345 . S
C265 C266 1.424 . S
C266 H258 0.951 . S
C266 C265 1.424 . S
C266 C267 1.347 . S
C267 H259 0.951 . S
C267 C262 1.429 . S
C267 C266 1.347 . S
H268 C269 0.951 . S
C269 H268 0.951 . S
C269 C275 1.265 . S
H270 C275 0.950 . S
H271 C279 0.949 . S
H272 C280 0.950 . S
H273 C281 0.951 . S
H274 C282 0.951 . S
C275 C269 1.265 . S
C275 H270 0.950 . S
C275 C276 1.478 . S
C276 C275 1.478 . S
C276 C277 1.397 . S
C276 C293 1.394 . S
C277 C276 1.397 . S
C277 C278 1.438 . S
C277 C282 1.429 . S
C278 C277 1.438 . S
C278 C279 1.428 . S
C278 C291 1.394 . S
C279 H271 0.949 . S
C279 C278 1.428 . S
C279 C280 1.345 . S
C280 H272 0.950 . S
C280 C279 1.345 . S
C280 C281 1.424 . S
C281 H273 0.951 . S
C281 C280 1.424 . S
C281 C282 1.347 . S
C282 H274 0.951 . S
C282 C277 1.429 . S
C282 C281 1.347 . S
H283 C284 0.951 . S
C284 H283 0.951 . S
C284 C290 1.265 . S
H285 C290 0.950 . S
H286 C294 0.949 . S
H287 C295 0.950 . S
H288 C296 0.951 . S
H289 C297 0.951 . S
C290 C284 1.265 . S
C290 H285 0.950 . S
C290 C291 1.478 . S
C291 C278 1.394 . S
C291 C290 1.478 . S
C291 C292 1.397 . S
C292 C291 1.397 . S
C292 C293 1.438 . S
C292 C297 1.429 . S
C293 C276 1.394 . S
C293 C292 1.438 . S
C293 C294 1.428 . S
C294 H286 0.949 . S
C294 C293 1.428 . S
C294 C295 1.345 . S
C295 H287 0.950 . S
C295 C294 1.345 . S
C295 C296 1.424 . S
C296 H288 0.951 . S
C296 C295 1.424 . S
C296 C297 1.347 . S
C297 H289 0.951 . S
C297 C292 1.429 . S
C297 C296 1.347 . S
H298 C299 0.951 . S
C299 H298 0.951 . S
C299 C305 1.265 . S
H300 C305 0.950 . S
H301 C309 0.949 . S
H302 C310 0.950 . S
H303 C311 0.951 . S
H304 C312 0.951 . S
C305 C299 1.265 . S
C305 H300 0.950 . S
C305 C306 1.478 . S
C306 C305 1.478 . S
C306 C307 1.397 . S
C306 C323 1.394 . S
C307 C306 1.397 . S
C307 C308 1.438 . S
C307 C312 1.429 . S
C308 C307 1.438 . S
C308 C309 1.428 . S
C308 C321 1.394 . S
C309 H301 0.949 . S
C309 C308 1.428 . S
C309 C310 1.345 . S
C310 H302 0.950 . S
C310 C309 1.345 . S
C310 C311 1.424 . S
C311 H303 0.951 . S
C311 C310 1.424 . S
C311 C312 1.347 . S
C312 H304 0.951 . S
C312 C307 1.429 . S
C312 C311 1.347 . S
H313 C314 0.951 . S
C314 H313 0.951 . S
C314 C320 1.265 . S
H315 C320 0.950 . S
H316 C324 0.949 . S
H317 C325 0.950 . S
H318 C326 0.951 . S
H319 C327 0.951 . S
C320 C314 1.265 . S
C320 H315 0.950 . S
C320 C321 1.478 . S
C321 C308 1.394 . S
C321 C320 1.478 . S
C321 C322 1.397 . S
C322 C321 1.397 . S
C322 C323 1.438 . S
C322 C327 1.429 . S
C323 C306 1.394 . S
C323 C322 1.438 . S
C323 C324 1.428 . S
C324 H316 0.949 . S
C324 C323 1.428 . S
C324 C325 1.345 . S
C325 H317 0.950 . S
C325 C324 1.345 . S
C325 C326 1.424 . S
C326 H318 0.951 . S
C326 C325 1.424 . S
C326 C327 1.347 . S
C327 H319 0.951 . S
C327 C322 1.429 . S
C327 C326 1.347 . S
H328 C329 0.951 . S
C329 H328 0.951 . S
C329 C335 1.265 . S
H330 C335 0.950 . S
H331 C339 0.949 . S
H332 C340 0.950 . S
H333 C341 0.951 . S
H334 C342 0.951 . S
C335 C329 1.265 . S
C335 H330 0.950 . S
C335 C336 1.478 . S
C336 C335 1.478 . S
C336 C337 1.397 . S
C336 C353 1.394 . S
C337 C336 1.397 . S
C337 C338 1.438 . S
C337 C342 1.429 . S
C338 C337 1.438 . S
C338 C339 1.428 . S
C338 C351 1.394 . S
C339 H331 0.949 . S
C339 C338 1.428 . S
C339 C340 1.345 . S
C340 H332 0.950 . S
C340 C339 1.345 . S
C340 C341 1.424 . S
C341 H333 0.951 . S
C341 C340 1.424 . S
C341 C342 1.347 . S
C342 H334 0.951 . S
C342 C337 1.429 . S
C342 C341 1.347 . S
H343 C344 0.951 . S
C344 H343 0.951 . S
C344 C350 1.265 . S
H345 C350 0.950 . S
H346 C354 0.949 . S
H347 C355 0.950 . S
H348 C356 0.951 . S
H349 C357 0.951 . S
C350 C344 1.265 . S
C350 H345 0.950 . S
C350 C351 1.478 . S
C351 C338 1.394 . S
C351 C350 1.478 . S
C351 C352 1.397 . S
C352 C351 1.397 . S
C352 C353 1.438 . S
C352 C357 1.429 . S
C353 C336 1.394 . S
C353 C352 1.438 . S
C353 C354 1.428 . S
C354 H346 0.949 . S
C354 C353 1.428 . S
C354 C355 1.345 . S
C355 H347 0.950 . S
C355 C354 1.345 . S
C355 C356 1.424 . S
C356 H348 0.951 . S
C356 C355 1.424 . S
C356 C357 1.347 . S
C357 H349 0.951 . S
C357 C352 1.429 . S
C357 C356 1.347 . S
H358 C359 0.951 . S
C359 H358 0.951 . S
C359 C365 1.265 . S
H360 C365 0.950 . S
H361 C369 0.949 . S
H362 C370 0.950 . S
H363 C371 0.951 . S
H364 C372 0.951 . S
C365 C359 1.265 . S
C365 H360 0.950 . S
C365 C366 1.478 . S
C366 C365 1.478 . S
C366 C367 1.397 . S
C366 C383 1.394 1_565 S
C367 C366 1.397 . S
C367 C368 1.438 . S
C367 C372 1.429 . S
C368 C367 1.438 . S
C368 C369 1.428 . S
C368 C381 1.394 1_565 S
C369 H361 0.949 . S
C369 C368 1.428 . S
C369 C370 1.345 . S
C370 H362 0.950 . S
C370 C369 1.345 . S
C370 C371 1.424 . S
C371 H363 0.951 . S
C371 C370 1.424 . S
C371 C372 1.347 . S
C372 H364 0.951 . S
C372 C367 1.429 . S
C372 C371 1.347 . S
H373 C374 0.951 . S
C374 H373 0.951 . S
C374 C380 1.265 . S
H375 C380 0.950 . S
H376 C384 0.949 . S
H377 C385 0.950 . S
H378 C386 0.951 . S
H379 C387 0.951 . S
C380 C374 1.265 . S
C380 H375 0.950 . S
C380 C381 1.478 . S
C381 C368 1.394 1_545 S
C381 C380 1.478 . S
C381 C382 1.397 . S
C382 C381 1.397 . S
C382 C383 1.438 . S
C382 C387 1.429 . S
C383 C366 1.394 1_545 S
C383 C382 1.438 . S
C383 C384 1.428 . S
C384 H376 0.949 . S
C384 C383 1.428 . S
C384 C385 1.345 . S
C385 H377 0.950 . S
C385 C384 1.345 . S
C385 C386 1.424 . S
C386 H378 0.951 . S
C386 C385 1.424 . S
C386 C387 1.347 . S
C387 H379 0.951 . S
C387 C382 1.429 . S
C387 C386 1.347 . S
H388 C389 0.951 1_655 S
C389 H388 0.951 1_455 S
C389 C395 1.265 . S
H390 C395 0.950 . S
H391 C399 0.949 . S
H392 C400 0.950 . S
H393 C401 0.951 . S
H394 C402 0.951 . S
C395 C389 1.265 . S
C395 H390 0.950 . S
C395 C396 1.478 . S
C396 C395 1.478 . S
C396 C397 1.397 . S
C396 C413 1.394 1_465 S
C397 C396 1.397 . S
C397 C398 1.438 . S
C397 C402 1.429 . S
C398 C397 1.438 . S
C398 C399 1.428 . S
C398 C411 1.394 1_465 S
C399 H391 0.949 . S
C399 C398 1.428 . S
C399 C400 1.345 . S
C400 H392 0.950 . S
C400 C399 1.345 . S
C400 C401 1.424 . S
C401 H393 0.951 . S
C401 C400 1.424 . S
C401 C402 1.347 . S
C402 H394 0.951 . S
C402 C397 1.429 . S
C402 C401 1.347 . S
H403 C404 0.951 1_455 S
C404 H403 0.951 1_655 S
C404 C410 1.265 . S
H405 C410 0.950 . S
H406 C414 0.949 . S
H407 C415 0.950 . S
H408 C416 0.951 . S
H409 C417 0.951 . S
C410 C404 1.265 . S
C410 H405 0.950 . S
C410 C411 1.478 . S
C411 C398 1.394 1_645 S
C411 C410 1.478 . S
C411 C412 1.397 . S
C412 C411 1.397 . S
C412 C413 1.438 . S
C412 C417 1.429 . S
C413 C396 1.394 1_645 S
C413 C412 1.438 . S
C413 C414 1.428 . S
C414 H406 0.949 . S
C414 C413 1.428 . S
C414 C415 1.345 . S
C415 H407 0.950 . S
C415 C414 1.345 . S
C415 C416 1.424 . S
C416 H408 0.951 . S
C416 C415 1.424 . S
C416 C417 1.347 . S
C417 H409 0.951 . S
C417 C412 1.429 . S
C417 C416 1.347 . S
H418 C419 0.951 . S
C419 H418 0.951 . S
C419 C425 1.265 . S
H420 C425 0.950 . S
H421 C429 0.949 . S
H422 C430 0.950 . S
H423 C431 0.951 . S
H424 C432 0.951 . S
C425 C419 1.265 . S
C425 H420 0.950 . S
C425 C426 1.478 . S
C426 C425 1.478 . S
C426 C427 1.397 . S
C426 C443 1.394 . S
C427 C426 1.397 . S
C427 C428 1.438 . S
C427 C432 1.429 . S
C428 C427 1.438 . S
C428 C429 1.428 . S
C428 C441 1.394 . S
C429 H421 0.949 . S
C429 C428 1.428 . S
C429 C430 1.345 . S
C430 H422 0.950 . S
C430 C429 1.345 . S
C430 C431 1.424 . S
C431 H423 0.951 . S
C431 C430 1.424 . S
C431 C432 1.347 . S
C432 H424 0.951 . S
C432 C427 1.429 . S
C432 C431 1.347 . S
H433 C434 0.951 . S
C434 H433 0.951 . S
C434 C440 1.265 . S
H435 C440 0.950 . S
H436 C444 0.949 . S
H437 C445 0.950 . S
H438 C446 0.951 . S
H439 C447 0.951 . S
C440 C434 1.265 . S
C440 H435 0.950 . S
C440 C441 1.478 . S
C441 C428 1.394 . S
C441 C440 1.478 . S
C441 C442 1.397 . S
C442 C441 1.397 . S
C442 C443 1.438 . S
C442 C447 1.429 . S
C443 C426 1.394 . S
C443 C442 1.438 . S
C443 C444 1.428 . S
C444 H436 0.949 . S
C444 C443 1.428 . S
C444 C445 1.345 . S
C445 H437 0.950 . S
C445 C444 1.345 . S
C445 C446 1.424 . S
C446 H438 0.951 . S
C446 C445 1.424 . S
C446 C447 1.347 . S
C447 H439 0.951 . S
C447 C442 1.429 . S
C447 C446 1.347 . S
H448 C449 0.951 . S
C449 H448 0.951 . S
C449 C455 1.265 . S
H450 C455 0.950 . S
H451 C459 0.949 . S
H452 C460 0.950 . S
H453 C461 0.951 . S
H454 C462 0.951 . S
C455 C449 1.265 . S
C455 H450 0.950 . S
C455 C456 1.478 . S
C456 C455 1.478 . S
C456 C457 1.397 . S
C456 C473 1.394 . S
C457 C456 1.397 . S
C457 C458 1.438 . S
C457 C462 1.429 . S
C458 C457 1.438 . S
C458 C459 1.428 . S
C458 C471 1.394 . S
C459 H451 0.949 . S
C459 C458 1.428 . S
C459 C460 1.345 . S
C460 H452 0.950 . S
C460 C459 1.345 . S
C460 C461 1.424 . S
C461 H453 0.951 . S
C461 C460 1.424 . S
C461 C462 1.347 . S
C462 H454 0.951 . S
C462 C457 1.429 . S
C462 C461 1.347 . S
H463 C464 0.951 . S
C464 H463 0.951 . S
C464 C470 1.265 . S
H465 C470 0.950 . S
H466 C474 0.949 . S
H467 C475 0.950 . S
H468 C476 0.951 . S
H469 C477 0.951 . S
C470 C464 1.265 . S
C470 H465 0.950 . S
C470 C471 1.478 . S
C471 C458 1.394 . S
C471 C470 1.478 . S
C471 C472 1.397 . S
C472 C471 1.397 . S
C472 C473 1.438 . S
C472 C477 1.429 . S
C473 C456 1.394 . S
C473 C472 1.438 . S
C473 C474 1.428 . S
C474 H466 0.949 . S
C474 C473 1.428 . S
C474 C475 1.345 . S
C475 H467 0.950 . S
C475 C474 1.345 . S
C475 C476 1.424 . S
C476 H468 0.951 . S
C476 C475 1.424 . S
C476 C477 1.347 . S
C477 H469 0.951 . S
C477 C472 1.429 . S
C477 C476 1.347 . S
C134 C105 1.369 . S
C119 C3 1.350 . S
C149 C4 1.371 1_556 S
C164 C91 1.529 . S
C179 C19 1.490 1_554 S
C194 C110 1.471 . S
C209 C7 1.217 . S
C224 C86 1.395 . S
C239 C37 1.229 . S
C254 C67 1.375 . S
C269 C28 1.480 . S
C284 C53 1.452 1_655 S
C314 C72 1.532 . S
C299 C41 1.403 . S
C344 C48 1.386 . S
C329 C25 1.348 . S
C359 C20 1.312 . S
C374 C44 1.504 . S
C389 C16 1.380 . S
C404 C63 1.557 . S
C434 C82 1.505 . S
C419 C40 1.312 . S
C449 C24 1.495 . S
C464 C101 1.544 . S
