# Generated by pormake.
# Topology ant, (3,6)-cn, num edge types: 1
# Building blocks:
#     Node 0, Type 0, BuildingBlock: BELTOD_clean_linker_0, # of connection points: 3
#     Node 1, Type 0, BuildingBlock: BELTOD_clean_linker_0, # of connection points: 3
#     Node 2, Type 0, BuildingBlock: BELTOD_clean_linker_0, # of connection points: 3
#     Node 3, Type 0, BuildingBlock: BELTOD_clean_linker_0, # of connection points: 3
#     Node 4, Type 0, BuildingBlock: BELTOD_clean_linker_0, # of connection points: 3
#     Node 5, Type 0, BuildingBlock: BELTOD_clean_linker_0, # of connection points: 3
#     Node 6, Type 0, BuildingBlock: BELTOD_clean_linker_0, # of connection points: 3
#     Node 7, Type 0, BuildingBlock: BELTOD_clean_linker_0, # of connection points: 3
#     Node 8, Type 1, BuildingBlock: MIDCAF_clean_sbu_0, # of connection points: 6
#     Node 9, Type 1, BuildingBlock: MIDCAF_clean_sbu_0, # of connection points: 6
#     Node 10, Type 1, BuildingBlock: MIDCAF_clean_sbu_0, # of connection points: 6
#     Node 11, Type 1, BuildingBlock: MIDCAF_clean_sbu_0, # of connection points: 6
#     Edge 12, Type (0, 1), BuildingBlock: TEMPAE_clean_linker_10, # of connection points: 2
#     Edge 13, Type (0, 1), BuildingBlock: TEMPAE_clean_linker_10, # of connection points: 2
#     Edge 14, Type (0, 1), BuildingBlock: TEMPAE_clean_linker_10, # of connection points: 2
#     Edge 15, Type (0, 1), BuildingBlock: TEMPAE_clean_linker_10, # of connection points: 2
#     Edge 16, Type (0, 1), BuildingBlock: TEMPAE_clean_linker_10, # of connection points: 2
#     Edge 17, Type (0, 1), BuildingBlock: TEMPAE_clean_linker_10, # of connection points: 2
#     Edge 18, Type (0, 1), BuildingBlock: TEMPAE_clean_linker_10, # of connection points: 2
#     Edge 19, Type (0, 1), BuildingBlock: TEMPAE_clean_linker_10, # of connection points: 2
#     Edge 20, Type (0, 1), BuildingBlock: TEMPAE_clean_linker_10, # of connection points: 2
#     Edge 21, Type (0, 1), BuildingBlock: TEMPAE_clean_linker_10, # of connection points: 2
#     Edge 22, Type (0, 1), BuildingBlock: TEMPAE_clean_linker_10, # of connection points: 2
#     Edge 23, Type (0, 1), BuildingBlock: TEMPAE_clean_linker_10, # of connection points: 2
#     Edge 24, Type (0, 1), BuildingBlock: TEMPAE_clean_linker_10, # of connection points: 2
#     Edge 25, Type (0, 1), BuildingBlock: TEMPAE_clean_linker_10, # of connection points: 2
#     Edge 26, Type (0, 1), BuildingBlock: TEMPAE_clean_linker_10, # of connection points: 2
#     Edge 27, Type (0, 1), BuildingBlock: TEMPAE_clean_linker_10, # of connection points: 2
#     Edge 28, Type (0, 1), BuildingBlock: TEMPAE_clean_linker_10, # of connection points: 2
#     Edge 29, Type (0, 1), BuildingBlock: TEMPAE_clean_linker_10, # of connection points: 2
#     Edge 30, Type (0, 1), BuildingBlock: TEMPAE_clean_linker_10, # of connection points: 2
#     Edge 31, Type (0, 1), BuildingBlock: TEMPAE_clean_linker_10, # of connection points: 2
#     Edge 32, Type (0, 1), BuildingBlock: TEMPAE_clean_linker_10, # of connection points: 2
#     Edge 33, Type (0, 1), BuildingBlock: TEMPAE_clean_linker_10, # of connection points: 2
#     Edge 34, Type (0, 1), BuildingBlock: TEMPAE_clean_linker_10, # of connection points: 2
#     Edge 35, Type (0, 1), BuildingBlock: TEMPAE_clean_linker_10, # of connection points: 2
# Relax obj value: 0.095
# Max RMSD: 0.155
# Mean RMSD: 0.097
data_MOF--net-ant--node1-MIDCAF_clean_sbu_0--node2-BELTOD_clean_linker_0--edge1-TEMPAE_clean_linker_10
_symmetry_space_group_name_H-M    P1
_symmetry_Int_Tables_number       1
_symmetry_cell_setting            triclinic
loop_
_symmetry_equiv_pos_as_xyz
'x, y, z'
_cell_length_a     32.553877
_cell_length_b     32.203474
_cell_length_c     86.41622
_cell_angle_alpha  90.356039
_cell_angle_beta   93.928616
_cell_angle_gamma 89.813291
loop_
_atom_site_label
_atom_site_type_symbol
_atom_site_fract_x
_atom_site_fract_y
_atom_site_fract_z
_atom_type_partial_charge
P0 P 0.27251 0.23164 0.05843 0.0
H1 H 0.309 0.31417 0.05854 0.0
H2 H 0.28263 0.38311 0.06397 0.0
H3 H 0.16788 0.32912 0.07614 0.0
H4 H 0.19528 0.25976 0.07116 0.0
H5 H 0.32819 0.18543 0.0803 0.0
H6 H 0.32006 0.11941 0.0936 0.0
H7 H 0.19068 0.11919 0.07863 0.0
H8 H 0.19926 0.18454 0.06506 0.0
H9 H 0.21243 0.27489 0.03693 0.0
H10 H 0.27713 0.15763 0.03907 0.0
O11 O 0.32284 0.23483 0.05603 0.0
H12 H 0.17909 0.25541 0.01197 0.0
H13 H 0.24448 0.13835 0.01365 0.0
C14 C 0.25449 0.28164 0.06476 0.0
C15 C 0.27844 0.31698 0.06266 0.0
C16 C 0.26299 0.35659 0.06551 0.0
C17 C 0.22286 0.36191 0.07032 0.0
C18 C 0.19902 0.32627 0.07259 0.0
C19 C 0.21471 0.28651 0.06981 0.0
C20 C 0.26436 0.18974 0.07159 0.0
C21 C 0.29789 0.17163 0.08015 0.0
C22 C 0.29322 0.13387 0.08778 0.0
C23 C 0.2549 0.11367 0.08693 0.0
C24 C 0.22081 0.13354 0.07924 0.0
C25 C 0.22553 0.17119 0.07163 0.0
C26 C 0.2473 0.21765 0.03993 0.0
C27 C 0.21952 0.24488 0.0321 0.0
C28 C 0.20054 0.23377 0.01771 0.0
C29 C 0.2093 0.1954 0.01078 0.0
C30 C 0.23677 0.16792 0.01875 0.0
C31 C 0.25568 0.17906 0.0332 0.0
P32 P 0.07541 0.72716 0.31988 0.0
H33 H 0.15499 0.68882 0.32651 0.0
H34 H 0.21934 0.71311 0.3393 0.0
H35 H 0.16371 0.83254 0.34755 0.0
H36 H 0.09879 0.80781 0.33444 0.0
H37 H 0.02205 0.69865 0.34327 0.0
H38 H 0.95512 0.7224 0.35074 0.0
H39 H 0.9624 0.82863 0.32068 0.0
H40 H 0.02921 0.80378 0.31292 0.0
H41 H 0.12749 0.77606 0.30011 0.0
H42 H 0.01917 0.69916 0.29463 0.0
O43 O 0.0739 0.67579 0.32228 0.0
H44 H 0.12576 0.78519 0.27201 0.0
H45 H 0.01759 0.70761 0.26651 0.0
C46 C 0.12191 0.74614 0.32987 0.0
C47 C 0.15634 0.72005 0.33124 0.0
C48 C 0.1931 0.73396 0.33864 0.0
C49 C 0.19636 0.77449 0.34476 0.0
C50 C 0.16198 0.80106 0.34308 0.0
C51 C 0.12491 0.78692 0.33566 0.0
C52 C 0.03004 0.74907 0.32734 0.0
C53 C 0.00947 0.72729 0.33842 0.0
C54 C 0.97128 0.74111 0.34276 0.0
C55 C 0.95323 0.77727 0.3362 0.0
C56 C 0.97515 0.80028 0.32572 0.0
C57 C 0.01338 0.78628 0.32135 0.0
C58 C 0.07379 0.73637 0.29938 0.0
C59 C 0.10331 0.76118 0.29288 0.0
C60 C 0.10229 0.76637 0.27681 0.0
C61 C 0.07165 0.74694 0.26704 0.0
C62 C 0.04132 0.72332 0.27371 0.0
C63 C 0.04242 0.71813 0.28976 0.0
P64 P 0.76622 0.71101 0.55905 0.0
H65 H 0.76311 0.7559 0.58876 0.0
H66 H 0.74007 0.82607 0.59509 0.0
H67 H 0.69848 0.84472 0.54707 0.0
H68 H 0.72221 0.77511 0.54083 0.0
H69 H 0.82314 0.6427 0.56404 0.0
H70 H 0.82181 0.58033 0.57956 0.0
H71 H 0.71501 0.62745 0.60125 0.0
H72 H 0.71531 0.68901 0.58479 0.0
H73 H 0.79196 0.67092 0.53084 0.0
H74 H 0.67801 0.70004 0.55119 0.0
O75 O 0.81371 0.7221 0.55422 0.0
H76 H 0.75362 0.64599 0.50734 0.0
H77 H 0.63924 0.67503 0.52763 0.0
C78 C 0.74313 0.75962 0.56443 0.0
C79 C 0.74806 0.77469 0.57969 0.0
C80 C 0.7349 0.81489 0.58327 0.0
C81 C 0.71722 0.84103 0.57158 0.0
C82 C 0.71209 0.82557 0.55634 0.0
C83 C 0.7252 0.78546 0.55279 0.0
C84 C 0.76988 0.67093 0.57349 0.0
C85 C 0.80007 0.64015 0.57243 0.0
C86 C 0.79936 0.60438 0.58144 0.0
C87 C 0.76834 0.5985 0.59178 0.0
C88 C 0.7391 0.63049 0.5933 0.0
C89 C 0.73951 0.66608 0.58405 0.0
C90 C 0.73776 0.6887 0.54247 0.0
C91 C 0.75864 0.6716 0.53029 0.0
C92 C 0.73666 0.6568 0.51694 0.0
C93 C 0.6934 0.65876 0.51561 0.0
C94 C 0.67256 0.67349 0.52829 0.0
C95 C 0.69463 0.68798 0.54169 0.0
P96 P 0.5871 0.23857 0.81615 0.0
H97 H 0.64113 0.22415 0.84367 0.0
H98 H 0.70195 0.26012 0.85477 0.0
H99 H 0.67951 0.35989 0.82208 0.0
H100 H 0.6172 0.32412 0.81131 0.0
H101 H 0.53197 0.18609 0.83272 0.0
H102 H 0.46084 0.19495 0.83916 0.0
H103 H 0.46117 0.32036 0.82161 0.0
H104 H 0.53259 0.3108 0.81485 0.0
H105 H 0.64214 0.2716 0.79325 0.0
H106 H 0.52241 0.21465 0.79312 0.0
O107 O 0.6002 0.18904 0.81934 0.0
H108 H 0.6351 0.27625 0.76518 0.0
H109 H 0.51684 0.21505 0.76497 0.0
C110 C 0.62589 0.27051 0.82617 0.0
C111 C 0.64866 0.25419 0.83908 0.0
C112 C 0.68324 0.27505 0.84554 0.0
C113 C 0.69574 0.31262 0.83917 0.0
C114 C 0.67073 0.33078 0.82711 0.0
C115 C 0.63543 0.3102 0.82087 0.0
C116 C 0.53751 0.2479 0.82338 0.0
C117 C 0.51704 0.21572 0.83046 0.0
C118 C 0.4763 0.22086 0.83416 0.0
C119 C 0.4553 0.25832 0.83084 0.0
C120 C 0.47637 0.29097 0.82412 0.0
C121 C 0.51724 0.28575 0.82043 0.0
C122 C 0.58199 0.24453 0.79539 0.0
C123 C 0.61394 0.26079 0.78724 0.0
C124 C 0.6102 0.26252 0.77105 0.0
C125 C 0.57532 0.246 0.76262 0.0
C126 C 0.54364 0.2292 0.77092 0.0
C127 C 0.54693 0.22866 0.7871 0.0
P128 P 0.11845 0.70637 0.92407 0.0
H129 H 0.08606 0.67829 0.89349 0.0
H130 H 0.03973 0.6211 0.88559 0.0
H131 H 0.00884 0.60694 0.93304 0.0
H132 H 0.05469 0.66434 0.94086 0.0
H133 H 0.17461 0.77087 0.91538 0.0
H134 H 0.16636 0.84511 0.91048 0.0
H135 H 0.03807 0.83697 0.91993 0.0
H136 H 0.04661 0.76216 0.92482 0.0
H137 H 0.15658 0.63612 0.94064 0.0
H138 H 0.10806 0.75632 0.95217 0.0
O139 O 0.15799 0.6899 0.91432 0.0
H140 H 0.17193 0.62181 0.9683 0.0
H141 H 0.12283 0.74219 0.97964 0.0
C142 C 0.07471 0.67479 0.9178 0.0
C143 C 0.0682 0.66386 0.9021 0.0
C144 C 0.0415 0.63133 0.89758 0.0
C145 C 0.02111 0.60925 0.90875 0.0
C146 C 0.02447 0.62322 0.92423 0.0
C147 C 0.05088 0.65594 0.9287 0.0
C148 C 0.11096 0.76085 0.92007 0.0
C149 C 0.14457 0.7849 0.91626 0.0
C150 C 0.13986 0.82737 0.91349 0.0
C151 C 0.10151 0.84684 0.91471 0.0
C152 C 0.06803 0.82284 0.91895 0.0
C153 C 0.07273 0.7801 0.92159 0.0
C154 C 0.13197 0.6976 0.94435 0.0
C155 C 0.14969 0.6596 0.94912 0.0
C156 C 0.15818 0.65133 0.9649 0.0
C157 C 0.14906 0.68104 0.97615 0.0
C158 C 0.13112 0.71902 0.97126 0.0
C159 C 0.12251 0.72714 0.95552 0.0
P160 P 0.66021 0.87737 0.1846 0.0
H161 H 0.69553 0.88288 0.15447 0.0
H162 H 0.75866 0.85438 0.14473 0.0
H163 H 0.77966 0.78328 0.18682 0.0
H164 H 0.71606 0.81007 0.19603 0.0
H165 H 0.58296 0.91546 0.1912 0.0
H166 H 0.51211 0.90707 0.18041 0.0
H167 H 0.55352 0.81968 0.14668 0.0
H168 H 0.62478 0.82802 0.15769 0.0
H169 H 0.7064 0.90479 0.213 0.0
H170 H 0.61197 0.81514 0.19997 0.0
O171 O 0.67249 0.9276 0.18423 0.0
H172 H 0.70659 0.88221 0.24003 0.0
H173 H 0.612 0.79244 0.22691 0.0
C174 C 0.70094 0.84891 0.17599 0.0
C175 C 0.71322 0.86031 0.16139 0.0
C176 C 0.74969 0.84437 0.15594 0.0
C177 C 0.77489 0.81702 0.16509 0.0
C178 C 0.76116 0.804 0.17936 0.0
C179 C 0.72457 0.81964 0.18471 0.0
C180 C 0.60911 0.87237 0.17526 0.0
C181 C 0.5769 0.89475 0.18139 0.0
C182 C 0.5364 0.88986 0.17524 0.0
C183 C 0.52722 0.86269 0.16272 0.0
C184 C 0.55974 0.84114 0.15625 0.0
C185 C 0.60043 0.84574 0.16256 0.0
C186 C 0.65835 0.86244 0.20459 0.0
C187 C 0.68537 0.88061 0.216 0.0
C188 C 0.68574 0.86742 0.23139 0.0
C189 C 0.65909 0.83577 0.23559 0.0
C190 C 0.63235 0.8174 0.22406 0.0
C191 C 0.63224 0.83039 0.20867 0.0
P192 P 0.63415 0.22195 0.42514 0.0
H193 H 0.63334 0.18768 0.39375 0.0
H194 H 0.59347 0.13158 0.38088 0.0
H195 H 0.51672 0.12623 0.41966 0.0
H196 H 0.55611 0.18299 0.43229 0.0
H197 H 0.66058 0.29451 0.44355 0.0
H198 H 0.65 0.36917 0.43986 0.0
H199 H 0.57318 0.34421 0.39812 0.0
H200 H 0.58357 0.26954 0.40195 0.0
H201 H 0.68075 0.15672 0.44196 0.0
H202 H 0.59072 0.24988 0.45197 0.0
O203 O 0.68079 0.2151 0.41862 0.0
H204 H 0.68474 0.13496 0.46921 0.0
H205 H 0.59487 0.22864 0.47913 0.0
C206 C 0.59848 0.18855 0.41418 0.0
C207 C 0.60735 0.17509 0.39933 0.0
C208 C 0.58453 0.14302 0.39198 0.0
C209 C 0.55245 0.1239 0.3994 0.0
C210 C 0.54118 0.14029 0.41363 0.0
C211 C 0.56398 0.17251 0.42094 0.0
C212 C 0.62199 0.27641 0.42324 0.0
C213 C 0.64069 0.30506 0.43379 0.0
C214 C 0.6347 0.34772 0.43167 0.0
C215 C 0.61071 0.36252 0.41873 0.0
C216 C 0.59197 0.33369 0.40818 0.0
C217 C 0.59763 0.29099 0.41041 0.0
C218 C 0.63658 0.20591 0.44511 0.0
C219 C 0.66208 0.17266 0.45005 0.0
C220 C 0.6641 0.16002 0.46555 0.0
C221 C 0.6406 0.18055 0.4763 0.0
C222 C 0.61397 0.21285 0.47114 0.0
C223 C 0.61169 0.22514 0.45565 0.0
P224 P 0.16871 0.36572 0.68039 0.0
H225 H 0.209 0.36996 0.65133 0.0
H226 H 0.27423 0.34138 0.64334 0.0
H227 H 0.28783 0.27074 0.68568 0.0
H228 H 0.22242 0.29836 0.69342 0.0
H229 H 0.10417 0.42214 0.66794 0.0
H230 H 0.03523 0.41081 0.65597 0.0
H231 H 0.0557 0.27808 0.65815 0.0
H232 H 0.12578 0.29012 0.66917 0.0
H233 H 0.22168 0.38578 0.70791 0.0
H234 H 0.1081 0.31936 0.69757 0.0
O235 O 0.18043 0.41596 0.67919 0.0
H236 H 0.22034 0.36642 0.73527 0.0
H237 H 0.10689 0.29974 0.72463 0.0
C238 C 0.21101 0.3369 0.67306 0.0
C239 C 0.22549 0.34751 0.6587 0.0
C240 C 0.26278 0.33119 0.65416 0.0
C241 C 0.28636 0.30428 0.66401 0.0
C242 C 0.27059 0.2919 0.67798 0.0
C243 C 0.23307 0.30776 0.6824 0.0
C244 C 0.12025 0.35696 0.66938 0.0
C245 C 0.09419 0.3906 0.6655 0.0
C246 C 0.05436 0.384 0.65882 0.0
C247 C 0.03922 0.34346 0.6562 0.0
C248 C 0.06611 0.3098 0.65971 0.0
C249 C 0.1063 0.31655 0.66609 0.0
C250 C 0.16489 0.35435 0.70067 0.0
C251 C 0.19626 0.36743 0.71154 0.0
C252 C 0.19567 0.35606 0.72712 0.0
C253 C 0.16348 0.33162 0.7321 0.0
C254 C 0.13184 0.31906 0.72119 0.0
C255 C 0.13261 0.33018 0.70563 0.0
Zn256 Zn 0.19079 0.68854 0.14094 0.0
Zn257 Zn 0.10476 0.78041 0.10416 0.0
Zn258 Zn 0.15038 0.7379 0.12225 0.0
C259 C 0.12963 0.71658 0.08609 0.0
C260 C 0.16895 0.83209 0.11471 0.0
O261 O 0.11677 0.73283 0.14365 0.0
O262 O 0.15637 0.69161 0.15876 0.0
C263 C 0.1766 0.64126 0.11499 0.0
O264 O 0.14354 0.7042 0.09963 0.0
O265 O 0.11336 0.75202 0.08453 0.0
O266 O 0.13252 0.8341 0.10874 0.0
O267 O 0.18398 0.79701 0.1195 0.0
O268 O 0.19092 0.63718 0.12882 0.0
O269 O 0.16099 0.6764 0.11038 0.0
O270 O 0.21057 0.7697 0.12811 0.0
O271 O 0.24273 0.72026 0.14186 0.0
C272 C 0.24333 0.75545 0.13553 0.0
O273 O 0.08818 0.7485 0.13218 0.0
O274 O 0.05041 0.77195 0.11189 0.0
C275 C 0.12487 0.71431 0.15671 0.0
C276 C 0.05278 0.75919 0.12566 0.0
Zn277 Zn 0.54808 0.69853 0.35576 0.0
Zn278 Zn 0.62396 0.80221 0.39453 0.0
Zn279 Zn 0.58315 0.75188 0.37584 0.0
C280 C 0.54575 0.83591 0.39017 0.0
C281 C 0.66789 0.8004 0.36894 0.0
O282 O 0.58223 0.68901 0.38663 0.0
O283 O 0.55008 0.64854 0.36892 0.0
C284 C 0.49072 0.76257 0.36149 0.0
O285 O 0.54156 0.80501 0.38064 0.0
O286 O 0.57881 0.84043 0.3985 0.0
O287 O 0.66725 0.82128 0.38131 0.0
O288 O 0.63937 0.7736 0.36539 0.0
O289 O 0.49575 0.73014 0.35353 0.0
O290 O 0.52009 0.77602 0.37093 0.0
O291 O 0.61441 0.75231 0.35377 0.0
O292 O 0.58548 0.70337 0.33869 0.0
C293 C 0.61141 0.73226 0.34076 0.0
O294 O 0.6016 0.71675 0.39732 0.0
O295 O 0.64058 0.7621 0.41079 0.0
C296 C 0.56793 0.65318 0.38224 0.0
C297 C 0.62498 0.72636 0.40946 0.0
Zn298 Zn 0.61578 0.26855 0.6012 0.0
Zn299 Zn 0.69715 0.17381 0.64159 0.0
Zn300 Zn 0.65881 0.22267 0.62106 0.0
C301 C 0.74889 0.24248 0.63773 0.0
C302 C 0.68813 0.12712 0.61464 0.0
O303 O 0.59779 0.23943 0.63019 0.0
O304 O 0.56829 0.28301 0.61314 0.0
C305 C 0.68964 0.31028 0.6084 0.0
O306 O 0.71924 0.25281 0.6278 0.0
O307 O 0.74596 0.20997 0.64568 0.0
O308 O 0.70406 0.1247 0.62833 0.0
O309 O 0.66965 0.16078 0.60997 0.0
O310 O 0.65815 0.3116 0.59905 0.0
O311 O 0.69523 0.27967 0.61786 0.0
O312 O 0.6497 0.18715 0.59897 0.0
O313 O 0.60708 0.22688 0.58452 0.0
C314 C 0.62764 0.19377 0.58625 0.0
O315 O 0.62197 0.21765 0.64154 0.0
O316 O 0.655 0.17235 0.65704 0.0
C317 C 0.56745 0.26343 0.6257 0.0
C318 C 0.62501 0.1967 0.65424 0.0
Zn319 Zn 0.03977 0.18652 0.84983 0.0
Zn320 Zn 0.12028 0.28358 0.88968 0.0
Zn321 Zn 0.07803 0.23641 0.87022 0.0
C322 C 0.10803 0.21038 0.90515 0.0
C323 C 0.04859 0.32682 0.88181 0.0
O324 O 0.11047 0.23717 0.84847 0.0
O325 O 0.07426 0.19618 0.83212 0.0
C326 C 0.06078 0.13711 0.87514 0.0
O327 O 0.09186 0.19976 0.89168 0.0
O328 O 0.12157 0.2466 0.90763 0.0
O329 O 0.08308 0.33113 0.88917 0.0
O330 O 0.03953 0.29268 0.87447 0.0
O331 O 0.04495 0.13412 0.86144 0.0
O332 O 0.07395 0.17261 0.88045 0.0
O333 O 0.01606 0.26417 0.86532 0.0
O334 O 0.98636 0.216 0.85003 0.0
C335 C 0.98415 0.24985 0.85739 0.0
O336 O 0.13705 0.25358 0.86043 0.0
O337 O 0.17111 0.28983 0.87892 0.0
C338 C 0.10386 0.221 0.83483 0.0
C339 C 0.16961 0.27331 0.86563 0.0
C340 C 0.18372 0.41237 0.08613 0.0
C341 C 0.20676 0.4045 0.07329 0.0
C342 C 0.17299 0.45309 0.09021 0.0
C343 C 0.18596 0.4869 0.08134 0.0
C344 C 0.20643 0.47901 0.0677 0.0
C345 C 0.2165 0.43794 0.06382 0.0
C346 C 0.15043 0.46009 0.10469 0.0
C347 C 0.22019 0.51412 0.05779 0.0
C348 C 0.14865 0.59418 0.09339 0.0
C349 C 0.1803 0.60545 0.1044 0.0
C350 C 0.15072 0.55652 0.08505 0.0
C351 C 0.18505 0.52972 0.08798 0.0
C352 C 0.21803 0.54243 0.09843 0.0
C353 C 0.21515 0.57994 0.10651 0.0
C354 C 0.11517 0.54457 0.07382 0.0
C355 C 0.25569 0.51545 0.1017 0.0
H356 H 0.17594 0.38694 0.09354 0.0
H357 H 0.23317 0.43215 0.05358 0.0
H358 H 0.17198 0.47323 0.11395 0.0
H359 H 0.12505 0.48281 0.10247 0.0
H360 H 0.13744 0.43085 0.10902 0.0
H361 H 0.22998 0.50289 0.04643 0.0
H362 H 0.19512 0.53725 0.05572 0.0
H363 H 0.24656 0.53037 0.06397 0.0
H364 H 0.12158 0.61378 0.0918 0.0
H365 H 0.23993 0.58889 0.11489 0.0
H366 H 0.09475 0.52296 0.07963 0.0
H367 H 0.12599 0.52839 0.06348 0.0
H368 H 0.09672 0.57216 0.06994 0.0
H369 H 0.24685 0.48645 0.10748 0.0
H370 H 0.27983 0.53125 0.10929 0.0
H371 H 0.26912 0.5065 0.0907 0.0
C372 C 0.89746 0.78441 0.35457 0.0
C373 C 0.91062 0.78901 0.33957 0.0
C374 C 0.85609 0.7902 0.35756 0.0
C375 C 0.82724 0.80145 0.34528 0.0
C376 C 0.84061 0.80814 0.33028 0.0
C377 C 0.88216 0.80166 0.32757 0.0
C378 C 0.84301 0.78276 0.37375 0.0
C379 C 0.8107 0.82056 0.317 0.0
C380 C 0.71934 0.76776 0.35267 0.0
C381 C 0.70429 0.80335 0.35978 0.0
C382 C 0.75842 0.76757 0.34682 0.0
C383 C 0.78288 0.80389 0.34815 0.0
C384 C 0.76639 0.84087 0.35415 0.0
C385 C 0.72731 0.84007 0.36002 0.0
C386 C 0.77479 0.7275 0.34044 0.0
C387 C 0.79111 0.88046 0.3554 0.0
H388 H 0.91944 0.77542 0.36395 0.0
H389 H 0.89199 0.80489 0.31591 0.0
H390 H 0.82718 0.81065 0.37806 0.0
H391 H 0.82077 0.75668 0.37357 0.0
H392 H 0.86947 0.77518 0.38207 0.0
H393 H 0.82609 0.82547 0.30608 0.0
H394 H 0.78707 0.79606 0.31499 0.0
H395 H 0.79433 0.8495 0.31997 0.0
H396 H 0.70184 0.73918 0.35264 0.0
H397 H 0.71552 0.86772 0.36543 0.0
H398 H 0.79853 0.71447 0.3489 0.0
H399 H 0.78969 0.73302 0.32948 0.0
H400 H 0.75013 0.704 0.33822 0.0
H401 H 0.81555 0.87758 0.36493 0.0
H402 H 0.77166 0.90781 0.35786 0.0
H403 H 0.8065 0.88613 0.34455 0.0
C404 C 0.79864 0.53271 0.60368 0.0
C405 C 0.76392 0.55726 0.59935 0.0
C406 C 0.79453 0.49088 0.60791 0.0
C407 C 0.75478 0.47338 0.60805 0.0
C408 C 0.71966 0.49895 0.60509 0.0
C409 C 0.72464 0.54032 0.60064 0.0
C410 C 0.83272 0.46476 0.61113 0.0
C411 C 0.67661 0.48177 0.60544 0.0
C412 C 0.72718 0.36458 0.59507 0.0
C413 C 0.71716 0.34652 0.60899 0.0
C414 C 0.74362 0.40467 0.59485 0.0
C415 C 0.7492 0.42758 0.60888 0.0
C416 C 0.74272 0.40796 0.62315 0.0
C417 C 0.72681 0.36737 0.62304 0.0
C418 C 0.75133 0.4238 0.57941 0.0
C419 C 0.74867 0.43097 0.63838 0.0
H420 H 0.82919 0.54566 0.60317 0.0
H421 H 0.69748 0.55848 0.59724 0.0
H422 H 0.82957 0.4444 0.62129 0.0
H423 H 0.8371 0.4443 0.60099 0.0
H424 H 0.86071 0.48416 0.61327 0.0
H425 H 0.65286 0.50667 0.60486 0.0
H426 H 0.67029 0.46049 0.59541 0.0
H427 H 0.67356 0.46358 0.61616 0.0
H428 H 0.71992 0.34819 0.58423 0.0
H429 H 0.7189 0.35334 0.63381 0.0
H430 H 0.78132 0.44019 0.58006 0.0
H431 H 0.72693 0.44703 0.57631 0.0
H432 H 0.75125 0.4002 0.56997 0.0
H433 H 0.77563 0.45197 0.63856 0.0
H434 H 0.7528 0.4092 0.64829 0.0
H435 H 0.72102 0.45033 0.64002 0.0
C436 C 0.76532 0.33226 0.83158 0.0
C437 C 0.73807 0.32782 0.84332 0.0
C438 C 0.80805 0.33188 0.83507 0.0
C439 C 0.82365 0.32739 0.85068 0.0
C440 C 0.79623 0.32939 0.86269 0.0
C441 C 0.7536 0.32902 0.85887 0.0
C442 C 0.83606 0.33014 0.82186 0.0
C443 C 0.81166 0.32653 0.87951 0.0
C444 C 0.90808 0.24682 0.85542 0.0
C445 C 0.94375 0.27105 0.85706 0.0
C446 C 0.86905 0.26503 0.85373 0.0
C447 C 0.86531 0.30889 0.85388 0.0
C448 C 0.90114 0.33374 0.85605 0.0
C449 C 0.94012 0.3144 0.85743 0.0
C450 C 0.83186 0.23708 0.85133 0.0
C451 C 0.89837 0.38048 0.85674 0.0
H452 H 0.7535 0.33142 0.81954 0.0
H453 H 0.73252 0.32633 0.86799 0.0
H454 H 0.86458 0.34817 0.82465 0.0
H455 H 0.84513 0.29738 0.81986 0.0
H456 H 0.8206 0.34222 0.81093 0.0
H457 H 0.78858 0.33872 0.88729 0.0
H458 H 0.81783 0.29352 0.8825 0.0
H459 H 0.84086 0.34392 0.88174 0.0
H460 H 0.91073 0.21324 0.8552 0.0
H461 H 0.96766 0.33313 0.85816 0.0
H462 H 0.81502 0.24397 0.84003 0.0
H463 H 0.8104 0.24278 0.86055 0.0
H464 H 0.84029 0.20361 0.85147 0.0
H465 H 0.87954 0.39253 0.84655 0.0
H466 H 0.92918 0.39537 0.85719 0.0
H467 H 0.8828 0.38997 0.86723 0.0
C468 C 0.01989 0.53342 0.91349 0.0
C469 C 0.00433 0.56736 0.90487 0.0
C470 C 0.01329 0.49268 0.90818 0.0
C471 C 0.98951 0.48552 0.89405 0.0
C472 C 0.96974 0.51944 0.88623 0.0
C473 C 0.97819 0.56018 0.89154 0.0
C474 C 0.03555 0.45776 0.91689 0.0
C475 C 0.942 0.51325 0.87171 0.0
C476 C 0.0407 0.39892 0.8735 0.0
C477 C 0.02298 0.36433 0.88009 0.0
C478 C 0.0268 0.43907 0.87653 0.0
C479 C 0.99366 0.44458 0.88615 0.0
C480 C 0.97173 0.40935 0.89086 0.0
C481 C 0.98734 0.3693 0.8881 0.0
C482 C 0.0511 0.47544 0.87107 0.0
C483 C 0.93407 0.41388 0.89994 0.0
H484 H 0.04032 0.53883 0.92374 0.0
H485 H 0.96564 0.58637 0.88493 0.0
H486 H 0.01366 0.43288 0.91946 0.0
H487 H 0.05896 0.44396 0.90962 0.0
H488 H 0.05135 0.46842 0.928 0.0
H489 H 0.91682 0.53667 0.87109 0.0
H490 H 0.95997 0.51762 0.86139 0.0
H491 H 0.92826 0.48172 0.8711 0.0
H492 H 0.06822 0.39476 0.86724 0.0
H493 H 0.97345 0.3424 0.8931 0.0
H494 H 0.06702 0.49136 0.88121 0.0
H495 H 0.03025 0.49831 0.86505 0.0
H496 H 0.07462 0.46578 0.86303 0.0
H497 H 0.94352 0.41632 0.91249 0.0
H498 H 0.91365 0.38643 0.8982 0.0
H499 H 0.91642 0.44229 0.89649 0.0
C500 C 0.8411 0.83278 0.15298 0.0
C501 C 0.8164 0.80425 0.1603 0.0
C502 C 0.88055 0.82188 0.14867 0.0
C503 C 0.89621 0.78154 0.15192 0.0
C504 C 0.87189 0.75274 0.15953 0.0
C505 C 0.83222 0.76431 0.16353 0.0
C506 C 0.9053 0.85351 0.14047 0.0
C507 C 0.88758 0.70956 0.16328 0.0
C508 C 0.97744 0.74711 0.12512 0.0
C509 C 0.01409 0.75767 0.13372 0.0
C510 C 0.93898 0.7527 0.13123 0.0
C511 C 0.93697 0.76911 0.14638 0.0
C512 C 0.97398 0.77755 0.15547 0.0
C513 C 0.01213 0.77217 0.14894 0.0
C514 C 0.90045 0.74354 0.12105 0.0
C515 C 0.97322 0.7945 0.17177 0.0
H516 H 0.82983 0.86402 0.15076 0.0
H517 H 0.81342 0.74181 0.16904 0.0
H518 H 0.93532 0.85879 0.14703 0.0
H519 H 0.91189 0.84162 0.12881 0.0
H520 H 0.88904 0.88377 0.13905 0.0
H521 H 0.86606 0.69175 0.17014 0.0
H522 H 0.89213 0.69225 0.15239 0.0
H523 H 0.91795 0.71121 0.16992 0.0
H524 H 0.97879 0.73602 0.11329 0.0
H525 H 0.04006 0.78201 0.15531 0.0
H526 H 0.88407 0.77304 0.11811 0.0
H527 H 0.87918 0.72386 0.12728 0.0
H528 H 0.90728 0.7276 0.11007 0.0
H529 H 0.96037 0.82645 0.17144 0.0
H530 H 0.00443 0.79546 0.1778 0.0
H531 H 0.95298 0.77526 0.17863 0.0
C532 C 0.5973 0.43548 0.42772 0.0
C533 C 0.60673 0.40784 0.41583 0.0
C534 C 0.59233 0.47823 0.42484 0.0
C535 C 0.59733 0.49362 0.40977 0.0
C536 C 0.60828 0.46598 0.3979 0.0
C537 C 0.61259 0.42348 0.40105 0.0
C538 C 0.58063 0.50672 0.43776 0.0
C539 C 0.61455 0.48117 0.38173 0.0
C540 C 0.54168 0.58739 0.39252 0.0
C541 C 0.57369 0.6162 0.39214 0.0
C542 C 0.54823 0.54843 0.3994 0.0
C543 C 0.588 0.5378 0.40585 0.0
C544 C 0.61975 0.56792 0.40645 0.0
C545 C 0.61227 0.60678 0.39946 0.0
C546 C 0.51327 0.51763 0.39876 0.0
C547 C 0.66244 0.55821 0.4134 0.0
H548 H 0.59276 0.42349 0.43917 0.0
H549 H 0.62072 0.40236 0.39192 0.0
H550 H 0.60212 0.53336 0.43895 0.0
H551 H 0.54937 0.5196 0.43495 0.0
H552 H 0.58082 0.49051 0.44908 0.0
H553 H 0.62554 0.45616 0.37411 0.0
H554 H 0.58513 0.49362 0.37637 0.0
H555 H 0.63727 0.50684 0.38221 0.0
H556 H 0.51179 0.59478 0.38687 0.0
H557 H 0.63721 0.62885 0.39896 0.0
H558 H 0.51107 0.50273 0.41022 0.0
H559 H 0.51918 0.49272 0.39026 0.0
H560 H 0.4832 0.53239 0.39526 0.0
H561 H 0.66126 0.53975 0.42415 0.0
H562 H 0.68038 0.58696 0.41613 0.0
H563 H 0.67906 0.53946 0.405 0.0
C564 C 0.98363 0.30167 0.6415 0.0
C565 C 0.99504 0.33622 0.65081 0.0
C566 C 0.94202 0.29173 0.63795 0.0
C567 C 0.91079 0.31736 0.64356 0.0
C568 C 0.92193 0.3539 0.65197 0.0
C569 C 0.96378 0.36259 0.65568 0.0
C570 C 0.9315 0.25247 0.62892 0.0
C571 C 0.8896 0.38275 0.65775 0.0
C572 C 0.80108 0.29203 0.62795 0.0
C573 C 0.78783 0.26652 0.63971 0.0
C574 C 0.84011 0.31104 0.62937 0.0
C575 C 0.8672 0.30271 0.64255 0.0
C576 C 0.85353 0.27775 0.6546 0.0
C577 C 0.81402 0.26046 0.6531 0.0
C578 C 0.85274 0.33858 0.61647 0.0
C579 C 0.8813 0.26776 0.66883 0.0
H580 H 0.00725 0.28168 0.63724 0.0
H581 H 0.97173 0.38922 0.66298 0.0
H582 H 0.91676 0.23005 0.6365 0.0
H583 H 0.90909 0.25927 0.619 0.0
H584 H 0.9591 0.23748 0.62442 0.0
H585 H 0.90292 0.41282 0.66196 0.0
H586 H 0.86523 0.38895 0.64843 0.0
H587 H 0.87465 0.36789 0.66745 0.0
H588 H 0.78183 0.29574 0.61735 0.0
H589 H 0.80411 0.24091 0.6623 0.0
H590 H 0.87303 0.32083 0.609 0.0
H591 H 0.87028 0.36589 0.62116 0.0
H592 H 0.82564 0.34973 0.60911 0.0
H593 H 0.90886 0.25057 0.66537 0.0
H594 H 0.86564 0.24865 0.67731 0.0
H595 H 0.89224 0.2968 0.67469 0.0
C596 C 0.33618 0.27713 0.64545 0.0
C597 C 0.3286 0.29191 0.66027 0.0
C598 C 0.3765 0.26888 0.64142 0.0
C599 C 0.41014 0.27634 0.65238 0.0
C600 C 0.40255 0.29006 0.66751 0.0
C601 C 0.36185 0.29743 0.67131 0.0
C602 C 0.38322 0.25375 0.62521 0.0
C603 C 0.43743 0.29933 0.67943 0.0
C604 C 0.51436 0.23364 0.64219 0.0
C605 C 0.53044 0.26768 0.63462 0.0
C606 C 0.47595 0.23639 0.6487 0.0
C607 C 0.45309 0.27391 0.64742 0.0
C608 C 0.47027 0.30889 0.64045 0.0
C609 C 0.50858 0.30526 0.63408 0.0
C610 C 0.45906 0.19865 0.6563 0.0
C611 C 0.44743 0.34976 0.63912 0.0
H612 H 0.31052 0.27254 0.63694 0.0
H613 H 0.35618 0.30934 0.68273 0.0
H614 H 0.39899 0.27816 0.61885 0.0
H615 H 0.40343 0.22591 0.62567 0.0
H616 H 0.35385 0.24586 0.61856 0.0
H617 H 0.42649 0.30248 0.69128 0.0
H618 H 0.46134 0.27472 0.67947 0.0
H619 H 0.45231 0.32891 0.67645 0.0
H620 H 0.53086 0.20435 0.6424 0.0
H621 H 0.52104 0.33172 0.6283 0.0
H622 H 0.43201 0.1868 0.64911 0.0
H623 H 0.44839 0.20693 0.66785 0.0
H624 H 0.48228 0.17336 0.65777 0.0
H625 H 0.41915 0.34603 0.63132 0.0
H626 H 0.4664 0.37478 0.63446 0.0
H627 H 0.4377 0.35971 0.65062 0.0
C628 C 0.471 0.8552 0.14133 0.0
C629 C 0.48356 0.85496 0.15719 0.0
C630 C 0.43007 0.84588 0.13615 0.0
C631 C 0.40137 0.83505 0.14705 0.0
C632 C 0.41369 0.83609 0.1631 0.0
C633 C 0.45445 0.84628 0.16795 0.0
C634 C 0.41797 0.846 0.11897 0.0
C635 C 0.38447 0.82402 0.17514 0.0
C636 C 0.28562 0.82107 0.13813 0.0
C637 C 0.28311 0.77787 0.13638 0.0
C638 C 0.32417 0.84083 0.14065 0.0
C639 C 0.36073 0.81653 0.14182 0.0
C640 C 0.35816 0.77305 0.13952 0.0
C641 C 0.31956 0.75444 0.13676 0.0
C642 C 0.32568 0.88738 0.14262 0.0
C643 C 0.39607 0.74571 0.14079 0.0
H644 H 0.49326 0.86243 0.13298 0.0
H645 H 0.46404 0.84575 0.18021 0.0
H646 H 0.414 0.81359 0.11473 0.0
H647 H 0.38808 0.86221 0.11662 0.0
H648 H 0.44156 0.86121 0.11225 0.0
H649 H 0.39769 0.82978 0.18715 0.0
H650 H 0.35515 0.84154 0.17339 0.0
H651 H 0.37702 0.79051 0.1739 0.0
H652 H 0.25754 0.83911 0.13826 0.0
H653 H 0.31782 0.72099 0.13531 0.0
H654 H 0.34696 0.9009 0.13452 0.0
H655 H 0.33784 0.89543 0.15456 0.0
H656 H 0.29487 0.90198 0.14046 0.0
H657 H 0.41911 0.7568 0.13291 0.0
H658 H 0.38893 0.71272 0.13793 0.0
H659 H 0.41052 0.74727 0.15279 0.0
C660 C 0.38289 0.28126 0.82334 0.0
C661 C 0.41133 0.26271 0.83414 0.0
C662 C 0.34103 0.28434 0.82621 0.0
C663 C 0.32749 0.26871 0.84025 0.0
C664 C 0.35605 0.24986 0.85116 0.0
C665 C 0.39759 0.2472 0.84799 0.0
C666 C 0.31152 0.30489 0.81436 0.0
C667 C 0.34282 0.23285 0.86629 0.0
C668 C 0.23382 0.30863 0.85911 0.0
C669 C 0.20656 0.27526 0.8567 0.0
C670 C 0.27237 0.30822 0.85287 0.0
C671 C 0.28394 0.27347 0.84406 0.0
C672 C 0.25536 0.24106 0.84063 0.0
C673 C 0.21699 0.24219 0.84712 0.0
C674 C 0.30169 0.34371 0.85657 0.0
C675 C 0.26627 0.20398 0.83096 0.0
H676 H 0.39323 0.29288 0.81252 0.0
H677 H 0.41948 0.23333 0.85647 0.0
H678 H 0.28243 0.28708 0.81272 0.0
H679 H 0.30357 0.33633 0.81856 0.0
H680 H 0.325 0.3081 0.80297 0.0
H681 H 0.36864 0.21794 0.87329 0.0
H682 H 0.33013 0.25828 0.87328 0.0
H683 H 0.31801 0.20961 0.86401 0.0
H684 H 0.22559 0.33447 0.8664 0.0
H685 H 0.19613 0.21618 0.84534 0.0
H686 H 0.31519 0.35463 0.84588 0.0
H687 H 0.32745 0.3329 0.86463 0.0
H688 H 0.28639 0.37039 0.86204 0.0
H689 H 0.28043 0.21409 0.8203 0.0
H690 H 0.23891 0.18458 0.82758 0.0
H691 H 0.28925 0.18451 0.83768 0.0
C692 C 0.25978 0.76135 0.36188 0.0
C693 C 0.23648 0.78855 0.35217 0.0
C694 C 0.30155 0.76871 0.3658 0.0
C695 C 0.3203 0.8046 0.36008 0.0
C696 C 0.29559 0.835 0.35213 0.0
C697 C 0.25387 0.82643 0.34809 0.0
C698 C 0.32646 0.73571 0.37457 0.0
C699 C 0.31397 0.8748 0.34668 0.0
C700 C 0.43432 0.80493 0.37247 0.0
C701 C 0.44979 0.78276 0.36011 0.0
C702 C 0.39256 0.81666 0.37203 0.0
C703 C 0.36576 0.80459 0.35918 0.0
C704 C 0.38216 0.78529 0.34618 0.0
C705 C 0.42398 0.77511 0.34676 0.0
C706 C 0.37697 0.83923 0.38581 0.0
C707 C 0.35499 0.77178 0.33216 0.0
H708 H 0.24599 0.73273 0.36553 0.0
H709 H 0.23587 0.84798 0.34079 0.0
H710 H 0.34718 0.72012 0.36665 0.0
H711 H 0.34601 0.74987 0.38419 0.0
H712 H 0.30666 0.71174 0.37946 0.0
H713 H 0.29009 0.89929 0.34472 0.0
H714 H 0.33836 0.88637 0.35523 0.0
H715 H 0.32821 0.86909 0.33557 0.0
H716 H 0.45398 0.81084 0.38286 0.0
H717 H 0.43599 0.75874 0.33703 0.0
H718 H 0.36867 0.81627 0.39458 0.0
H719 H 0.3493 0.85827 0.38251 0.0
H720 H 0.40125 0.85969 0.39134 0.0
H721 H 0.33339 0.7474 0.33557 0.0
H722 H 0.37301 0.75912 0.32273 0.0
H723 H 0.3363 0.79826 0.32749 0.0
C724 C 0.68743 0.89489 0.58879 0.0
C725 C 0.70637 0.88493 0.57515 0.0
C726 C 0.68049 0.9364 0.593 0.0
C727 C 0.69297 0.96887 0.58338 0.0
C728 C 0.71008 0.95904 0.56918 0.0
C729 C 0.71664 0.91722 0.56525 0.0
C730 C 0.66164 0.94552 0.60814 0.0
C731 C 0.72357 0.99271 0.55857 0.0
C732 C 0.65773 0.07751 0.59444 0.0
C733 C 0.69099 0.0903 0.60447 0.0
C734 C 0.65861 0.0389 0.58671 0.0
C735 C 0.69334 0.01249 0.58929 0.0
C736 C 0.7278 0.02647 0.59876 0.0
C737 C 0.72612 0.06507 0.60624 0.0
C738 C 0.62146 0.02553 0.57653 0.0
C739 C 0.76576 0.99975 0.60167 0.0
H740 H 0.67864 0.87016 0.59634 0.0
H741 H 0.73151 0.90992 0.55472 0.0
H742 H 0.68508 0.95991 0.61642 0.0
H743 H 0.63591 0.96802 0.60631 0.0
H744 H 0.64989 0.91705 0.61351 0.0
H745 H 0.73071 0.98023 0.54704 0.0
H746 H 0.69939 0.01694 0.55689 0.0
H747 H 0.75157 0.00802 0.56393 0.0
H748 H 0.63024 0.09659 0.59328 0.0
H749 H 0.752 0.07503 0.61392 0.0
H750 H 0.60346 0.00287 0.5829 0.0
H751 H 0.6308 0.00995 0.56584 0.0
H752 H 0.60112 0.05226 0.57321 0.0
H753 H 0.75795 0.97179 0.6083 0.0
H754 H 0.79106 0.01651 0.60832 0.0
H755 H 0.77713 0.98895 0.59052 0.0
C756 C 0.22869 0.04115 0.08377 0.0
C757 C 0.25092 0.07071 0.09287 0.0
C758 C 0.22303 0.00079 0.08916 0.0
C759 C 0.24006 0.98943 0.10406 0.0
C760 C 0.26407 0.01849 0.11308 0.0
C761 C 0.26929 0.05887 0.10736 0.0
C762 C 0.19743 0.97075 0.07908 0.0
C763 C 0.28317 0.00726 0.12891 0.0
C764 C 0.17348 0.90723 0.12027 0.0
C765 C 0.19298 0.87079 0.11571 0.0
C766 C 0.19067 0.94624 0.11788 0.0
C767 C 0.22826 0.94886 0.11062 0.0
C768 C 0.24999 0.91195 0.1073 0.0
C769 C 0.23181 0.87315 0.10976 0.0
C770 C 0.16651 0.98461 0.12174 0.0
C771 C 0.29065 0.91326 0.09995 0.0
H772 H 0.21545 0.04968 0.07238 0.0
H773 H 0.28676 0.08149 0.11441 0.0
H774 H 0.21472 0.94142 0.07759 0.0
H775 H 0.16895 0.96293 0.08479 0.0
H776 H 0.18851 0.98361 0.06743 0.0
H777 H 0.30271 0.0326 0.13413 0.0
H778 H 0.25865 0.00026 0.1368 0.0
H779 H 0.30224 0.97882 0.12811 0.0
H780 H 0.14342 0.90528 0.12492 0.0
H781 H 0.24675 0.84491 0.10613 0.0
H782 H 0.15307 0.99877 0.11086 0.0
H783 H 0.18688 0.00807 0.12773 0.0
H784 H 0.14103 0.97747 0.12922 0.0
H785 H 0.28495 0.9177 0.08726 0.0
H786 H 0.30819 0.88387 0.1019 0.0
H787 H 0.30982 0.93952 0.10459 0.0
C788 C 0.49395 0.07332 0.39405 0.0
C789 C 0.53589 0.08314 0.39375 0.0
C790 C 0.47989 0.03251 0.3911 0.0
C791 C 0.50869 0.00073 0.38828 0.0
C792 C 0.55065 0.01117 0.38706 0.0
C793 C 0.56355 0.05216 0.38969 0.0
C794 C 0.43466 0.02348 0.39186 0.0
C795 C 0.58278 0.97851 0.38415 0.0
C796 C 0.51269 0.89313 0.40374 0.0
C797 C 0.51641 0.87089 0.38993 0.0
C798 C 0.50351 0.93563 0.40347 0.0
C799 C 0.49764 0.95593 0.389 0.0
C800 C 0.49332 0.93185 0.37521 0.0
C801 C 0.50323 0.88928 0.3758 0.0
C802 C 0.50676 0.95966 0.41855 0.0
C803 C 0.48377 0.95191 0.35967 0.0
H804 H 0.47228 0.09725 0.397 0.0
H805 H 0.59605 0.05932 0.3896 0.0
H806 H 0.42517 0.99506 0.38524 0.0
H807 H 0.42775 0.01918 0.40414 0.0
H808 H 0.4158 0.05007 0.38729 0.0
H809 H 0.61381 0.99207 0.38312 0.0
H810 H 0.58485 0.9559 0.39382 0.0
H811 H 0.57405 0.96111 0.37332 0.0
H812 H 0.52202 0.87853 0.41471 0.0
H813 H 0.50539 0.87196 0.36508 0.0
H814 H 0.48135 0.98256 0.41889 0.0
H815 H 0.53624 0.97703 0.41953 0.0
H816 H 0.50587 0.93895 0.42876 0.0
H817 H 0.4624 0.97858 0.36067 0.0
H818 H 0.46993 0.92924 0.3511 0.0
H819 H 0.51266 0.96371 0.35522 0.0
C820 C 0.07581 0.91853 0.92082 0.0
C821 C 0.09647 0.89175 0.91108 0.0
C822 C 0.07059 0.96089 0.91723 0.0
C823 C 0.0858 0.9766 0.90346 0.0
C824 C 0.10716 0.94974 0.89372 0.0
C825 C 0.11237 0.90778 0.89768 0.0
C826 C 0.04816 0.98865 0.928 0.0
C827 C 0.12346 0.96501 0.87883 0.0
C828 C 0.03514 0.0674 0.88193 0.0
C829 C 0.06459 0.0988 0.88452 0.0
C830 C 0.04068 0.02819 0.88872 0.0
C831 C 0.07661 0.02005 0.89839 0.0
C832 C 0.10551 0.0523 0.90171 0.0
C833 C 0.09926 0.0913 0.89463 0.0
C834 C 0.00918 0.99475 0.88476 0.0
C835 C 0.1439 0.04501 0.91216 0.0
H836 H 0.0639 0.90637 0.93128 0.0
H837 H 0.12802 0.88716 0.89004 0.0
H838 H 0.0669 0.01656 0.93113 0.0
H839 H 0.01887 0.99959 0.92206 0.0
H840 H 0.04105 0.97249 0.93882 0.0
H841 H 0.14095 0.94063 0.87291 0.0
H842 H 0.09748 0.97543 0.87079 0.0
H843 H 0.1439 0.99213 0.88121 0.0
H844 H 0.00823 0.07309 0.87412 0.0
H845 H 0.12264 0.11498 0.89623 0.0
H846 H -0.00049 0.97994 0.89547 0.0
H847 H 0.02307 0.97016 0.87771 0.0
H848 H 0.98138 0.00701 0.87811 0.0
H849 H 0.13536 0.03476 0.92374 0.0
H850 H 0.16322 0.0733 0.91363 0.0
H851 H 0.16262 0.01984 0.90732 0.0
C852 C 0.1897 0.21613 0.98353 0.0
C853 C 0.19131 0.18536 0.99494 0.0
C854 C 0.17237 0.2082 0.96856 0.0
C855 C 0.15648 0.16821 0.96476 0.0
C856 C 0.15865 0.1366 0.97609 0.0
C857 C 0.17595 0.14562 0.99112 0.0
C858 C 0.17117 0.24288 0.95681 0.0
C859 C 0.14211 0.09364 0.9725 0.0
C860 C 0.08459 0.18346 0.92959 0.0
C861 C 0.11274 0.18129 0.9181 0.0
C862 C 0.09674 0.17314 0.94498 0.0
C863 C 0.13797 0.1607 0.94878 0.0
C864 C 0.16428 0.15237 0.93675 0.0
C865 C 0.15152 0.1635 0.92151 0.0
C866 C 0.06741 0.18158 0.95741 0.0
C867 C 0.20795 0.13762 0.9402 0.0
H868 H 0.20239 0.24658 0.98629 0.0
H869 H 0.17689 0.12175 -8e-05 0.0
H870 H 0.18872 0.23371 0.94677 0.0
H871 H 0.13893 0.24899 0.95238 0.0
H872 H 0.18438 0.27226 0.96174 0.0
H873 H 0.15356 0.07074 0.98135 0.0
H874 H 0.108 0.09438 0.97227 0.0
H875 H 0.15059 0.08283 0.96093 0.0
H876 H 0.05475 0.19777 0.92692 0.0
H877 H 0.17341 0.1623 0.9126 0.0
H878 H 0.07474 0.21221 0.96287 0.0
H879 H 0.07061 0.15775 0.96662 0.0
H880 H 0.03492 0.18232 0.95256 0.0
H881 H 0.22749 0.1644 0.9441 0.0
H882 H 0.22084 0.12378 0.92976 0.0
H883 H 0.20968 0.11433 0.94963 0.0
C884 C 0.03691 0.75355 0.24027 0.0
C885 C 0.07305 0.74856 0.24992 0.0
C886 C 0.03778 0.75136 0.22405 0.0
C887 C 0.0757 0.74414 0.2174 0.0
C888 C 0.11239 0.74026 0.22709 0.0
C889 C 0.11058 0.74251 0.24321 0.0
C890 C -0.0018 0.75659 0.21407 0.0
C891 C 0.15348 0.73226 0.22047 0.0
C892 C 0.08788 0.69044 0.17908 0.0
C893 C 0.1013 0.72325 0.17021 0.0
C894 C 0.07558 0.69745 0.1941 0.0
C895 C 0.07752 0.73817 0.2004 0.0
C896 C 0.08806 0.77182 0.19101 0.0
C897 C 0.10033 0.76385 0.17603 0.0
C898 C 0.06409 0.6608 0.2037 0.0
C899 C 0.08977 0.81574 0.19719 0.0
H900 H 0.00789 0.75884 0.24542 0.0
H901 H 0.1385 0.73801 0.2506 0.0
H902 H -0.00118 0.78666 0.20791 0.0
H903 H 0.99486 0.73172 0.20514 0.0
H904 H 0.97074 0.75628 0.22103 0.0
H905 H 0.17926 0.73141 0.22958 0.0
H906 H 0.15266 0.70213 0.21415 0.0
H907 H 0.15997 0.75677 0.21201 0.0
H908 H 0.08931 0.65898 0.17459 0.0
H909 H 0.11157 0.78907 0.16922 0.0
H910 H 0.03584 0.66768 0.20975 0.0
H911 H 0.08925 0.65448 0.21271 0.0
H912 H 0.05884 0.6323 0.19653 0.0
H913 H 0.06249 0.82267 0.20379 0.0
H914 H 0.09125 0.83881 0.18774 0.0
H915 H 0.11753 0.81947 0.20527 0.0
C916 C 0.64353 0.68187 0.49428 0.0
C917 C 0.67105 0.65154 0.50028 0.0
C918 C 0.63011 0.68194 0.47854 0.0
C919 C 0.64424 0.65062 0.46859 0.0
C920 C 0.66761 0.61697 0.47498 0.0
C921 C 0.68138 0.61814 0.49076 0.0
C922 C 0.6047 0.71822 0.47228 0.0
C923 C 0.6811 0.58166 0.46495 0.0
C924 C 0.60214 0.67138 0.42743 0.0
C925 C 0.63298 0.69742 0.42248 0.0
C926 C 0.60717 0.65131 0.44186 0.0
C927 C 0.64306 0.65908 0.45167 0.0
C928 C 0.67566 0.68235 0.44602 0.0
C929 C 0.67028 0.70085 0.43145 0.0
C930 C 0.57272 0.62458 0.44696 0.0
C931 C 0.71472 0.69133 0.45595 0.0
H932 H 0.63537 0.70772 0.50157 0.0
H933 H 0.70191 0.59405 0.49544 0.0
H934 H 0.6238 0.73804 0.46516 0.0
H935 H 0.57811 0.7071 0.4647 0.0
H936 H 0.59295 0.73769 0.48169 0.0
H937 H 0.6866 0.55294 0.47185 0.0
H938 H 0.65782 0.57514 0.45525 0.0
H939 H 0.71034 0.59001 0.45989 0.0
H940 H 0.57319 0.66864 0.42053 0.0
H941 H 0.69443 0.72046 0.42749 0.0
H942 H 0.54964 0.64451 0.4523 0.0
H943 H 0.58401 0.60109 0.45559 0.0
H944 H 0.55691 0.6084 0.43684 0.0
H945 H 0.70742 0.71073 0.46607 0.0
H946 H 0.73788 0.70799 0.44947 0.0
H947 H 0.72879 0.66207 0.46047 0.0
C948 C 0.60925 0.23716 0.73758 0.0
C949 C 0.57323 0.24358 0.74532 0.0
C950 C 0.60792 0.23259 0.72145 0.0
C951 C 0.56943 0.23271 0.71273 0.0
C952 C 0.53287 0.23935 0.72036 0.0
C953 C 0.53531 0.24561 0.73651 0.0
C954 C 0.6479 0.22641 0.71378 0.0
C955 C 0.49101 0.24007 0.71173 0.0
C956 C 0.5881 0.24618 0.67061 0.0
C957 C 0.59749 0.2051 0.66671 0.0
C958 C 0.57361 0.25572 0.68514 0.0
C959 C 0.56859 0.22335 0.69584 0.0
C960 C 0.57212 0.18154 0.69098 0.0
C961 C 0.58729 0.17287 0.67652 0.0
C962 C 0.56795 0.30056 0.68965 0.0
C963 C 0.56395 0.14609 0.70166 0.0
H964 H 0.63868 0.23448 0.74414 0.0
H965 H 0.50725 0.25165 0.7422 0.0
H966 H 0.64925 0.19441 0.709 0.0
H967 H 0.64975 0.24829 0.70399 0.0
H968 H 0.67529 0.23116 0.72199 0.0
H969 H 0.46753 0.22611 0.71885 0.0
H970 H 0.48194 0.27287 0.70961 0.0
H971 H 0.49038 0.22345 0.70044 0.0
H972 H 0.59563 0.27113 0.66293 0.0
H973 H 0.59375 0.141 0.67334 0.0
H974 H 0.5936 0.31007 0.69804 0.0
H975 H 0.53879 0.3046 0.69543 0.0
H976 H 0.56747 0.32144 0.67945 0.0
H977 H 0.5902 0.14288 0.71047 0.0
H978 H 0.56013 0.1162 0.69525 0.0
H979 H 0.53582 0.15231 0.70789 0.0
C980 C 0.14516 0.63457 -0.00068 0.0
C981 C 0.1567 0.67252 0.99299 0.0
C982 C 0.14588 0.62921 0.01549 0.0
C983 C 0.15784 0.66277 0.02543 0.0
C984 C 0.17318 0.6996 0.01907 0.0
C985 C 0.17253 0.70394 0.00295 0.0
C986 C 0.13083 0.58887 0.02181 0.0
C987 C 0.18695 0.736 0.02924 0.0
C988 C 0.10184 0.69423 0.06013 0.0
C989 C 0.13315 0.69119 0.072 0.0
C990 C 0.10809 0.6807 0.04508 0.0
C991 C 0.1467 0.66358 0.04184 0.0
C992 C 0.17655 0.65562 0.0542 0.0
C993 C 0.16959 0.67002 0.06922 0.0
C994 C 0.07491 0.68908 0.03237 0.0
C995 C 0.21724 0.63542 0.05143 0.0
H996 H 0.13324 0.60993 0.99169 0.0
H997 H 0.18271 0.73281 -0.0019 0.0
H998 H 0.14767 0.58101 0.03302 0.0
H999 H 0.0977 0.59184 0.02388 0.0
H1000 H 0.1343 0.56287 0.01349 0.0
H1001 H 0.20172 0.76066 0.02262 0.0
H1002 H 0.15995 0.74971 0.03459 0.0
H1003 H 0.20909 0.72562 0.03876 0.0
H1004 H 0.07332 0.70995 0.06239 0.0
H1005 H 0.1938 0.66745 0.07842 0.0
H1006 H 0.06961 0.66123 0.02491 0.0
H1007 H 0.08489 0.7146 0.02492 0.0
H1008 H 0.04524 0.69822 0.03707 0.0
H1009 H 0.21421 0.61282 0.04167 0.0
H1010 H 0.23014 0.61923 0.062 0.0
H1011 H 0.23948 0.65966 0.04846 0.0
C1012 C 0.69615 0.81396 0.26068 0.0
C1013 C 0.65906 0.82181 0.25193 0.0
C1014 C 0.69627 0.79933 0.27597 0.0
C1015 C 0.65839 0.7932 0.28275 0.0
C1016 C 0.62089 0.80185 0.27403 0.0
C1017 C 0.62171 0.81585 0.25873 0.0
C1018 C 0.73703 0.79127 0.2848 0.0
C1019 C 0.57977 0.796 0.28083 0.0
C1020 C 0.63988 0.71879 0.31514 0.0
C1021 C 0.63363 0.74633 0.32739 0.0
C1022 C 0.65174 0.73335 0.30085 0.0
C1023 C 0.65701 0.7765 0.29874 0.0
C1024 C 0.65466 0.80392 0.31151 0.0
C1025 C 0.6427 0.78853 0.32569 0.0
C1026 C 0.65571 0.70292 0.28768 0.0
C1027 C 0.66156 0.84992 0.30987 0.0
H1028 H 0.72514 0.81848 0.25546 0.0
H1029 H 0.59299 0.82246 0.25208 0.0
H1030 H 0.74602 0.8196 0.29154 0.0
H1031 H 0.73533 0.76511 0.29303 0.0
H1032 H 0.76164 0.78452 0.27685 0.0
H1033 H 0.55354 0.80524 0.27266 0.0
H1034 H 0.57586 0.76294 0.28395 0.0
H1035 H 0.57851 0.81467 0.29162 0.0
H1036 H 0.63341 0.68604 0.31647 0.0
H1037 H 0.63764 0.81007 0.33505 0.0
H1038 H 0.68445 0.70882 0.28185 0.0
H1039 H 0.62949 0.7071 0.27893 0.0
H1040 H 0.6559 0.6702 0.29169 0.0
H1041 H 0.69015 0.85566 0.30395 0.0
H1042 H 0.66387 0.86613 0.32129 0.0
H1043 H 0.63557 0.86362 0.30262 0.0
C1044 C 0.6418 0.12847 0.49793 0.0
C1045 C 0.6446 0.16973 0.49298 0.0
C1046 C 0.64213 0.119 0.51383 0.0
C1047 C 0.64535 0.15163 0.5249 0.0
C1048 C 0.6505 0.19304 0.5199 0.0
C1049 C 0.64995 0.20151 0.50404 0.0
C1050 C 0.63688 0.07445 0.51861 0.0
C1051 C 0.65474 0.22889 0.53128 0.0
C1052 C 0.59518 0.16279 0.56222 0.0
C1053 C 0.62995 0.16652 0.57259 0.0
C1054 C 0.5991 0.15152 0.54673 0.0
C1055 C 0.63884 0.14443 0.54154 0.0
C1056 C 0.67308 0.14168 0.55253 0.0
C1057 C 0.66826 0.15299 0.56804 0.0
C1058 C 0.56146 0.15312 0.53553 0.0
C1059 C 0.71564 0.13215 0.54761 0.0
H1060 H 0.63777 0.10379 0.48938 0.0
H1061 H 0.65306 0.2333 0.50023 0.0
H1062 H 0.65384 0.06781 0.5299 0.0
H1063 H 0.60376 0.06838 0.51987 0.0
H1064 H 0.64755 0.05259 0.50972 0.0
H1065 H 0.6611 0.25873 0.52553 0.0
H1066 H 0.6259 0.23247 0.53731 0.0
H1067 H 0.68006 0.22273 0.54023 0.0
H1068 H 0.56537 0.17252 0.56586 0.0
H1069 H 0.69516 0.15542 0.57612 0.0
H1070 H 0.56189 0.1274 0.52696 0.0
H1071 H 0.56125 0.18281 0.52907 0.0
H1072 H 0.53256 0.15127 0.54163 0.0
H1073 H 0.71457 0.10889 0.53807 0.0
H1074 H 0.73598 0.12034 0.55748 0.0
H1075 H 0.72944 0.16099 0.54332 0.0
C1076 C 0.19852 0.30259 0.75652 0.0
C1077 C 0.16293 0.31842 0.74853 0.0
C1078 C 0.19725 0.28667 0.7716 0.0
C1079 C 0.15961 0.28727 0.77891 0.0
C1080 C 0.12405 0.30482 0.77109 0.0
C1081 C 0.12614 0.32005 0.75601 0.0
C1082 C 0.2364 0.2695 0.7795 0.0
C1083 C 0.08332 0.30643 0.77848 0.0
C1084 C 0.12807 0.20977 0.80838 0.0
C1085 C 0.12739 0.23467 0.82173 0.0
C1086 C 0.14215 0.22549 0.79462 0.0
C1087 C 0.1557 0.26714 0.79419 0.0
C1088 C 0.15911 0.29097 0.80802 0.0
C1089 C 0.14435 0.27466 0.82162 0.0
C1090 C 0.13985 0.19847 0.78026 0.0
C1091 C 0.17571 0.33463 0.8082 0.0
H1092 H 0.22713 0.30136 0.75081 0.0
H1093 H 0.09875 0.33298 0.75 0.0
H1094 H 0.25389 0.29552 0.78522 0.0
H1095 H 0.23063 0.24604 0.78844 0.0
H1096 H 0.25621 0.25529 0.77092 0.0
H1097 H 0.05911 0.32279 0.77114 0.0
H1098 H 0.07258 0.2744 0.78057 0.0
H1099 H 0.08704 0.32247 0.78989 0.0
H1100 H 0.11563 0.17858 0.80847 0.0
H1101 H 0.1438 0.29421 0.83184 0.0
H1102 H 0.16932 0.19982 0.77454 0.0
H1103 H 0.11521 0.21021 0.77188 0.0
H1104 H 0.13314 0.16555 0.78289 0.0
H1105 H 0.20485 0.33562 0.80225 0.0
H1106 H 0.18157 0.34689 0.82019 0.0
H1107 H 0.15325 0.35533 0.80178 0.0
loop_
_geom_bond_atom_site_label_1
_geom_bond_atom_site_label_2
_geom_bond_distance
_geom_bond_site_symmetry_2
_ccdc_geom_bond_type
P0 O11 1.490 . S
P0 C14 1.812 . S
P0 C20 1.803 . S
P0 C26 1.819 . S
H1 C15 0.941 . S
H2 C16 0.939 . S
H3 C18 0.940 . S
H4 C19 0.940 . S
H5 C21 0.939 . S
H6 C22 0.942 . S
H7 C24 0.940 . S
H8 C25 0.939 . S
H9 C27 0.941 . S
H10 C31 0.939 . S
O11 P0 1.490 . S
H12 C28 0.939 . S
H13 C30 0.940 . S
C14 P0 1.812 . S
C14 C15 1.389 . S
C14 C19 1.391 . S
C15 H1 0.941 . S
C15 C14 1.389 . S
C15 C16 1.397 . S
C16 H2 0.939 . S
C16 C15 1.397 . S
C16 C17 1.378 . S
C17 C16 1.378 . S
C17 C18 1.378 . S
C18 H3 0.940 . S
C18 C17 1.378 . S
C18 C19 1.396 . S
C19 H4 0.940 . S
C19 C14 1.391 . S
C19 C18 1.396 . S
C20 P0 1.803 . S
C20 C21 1.378 . S
C20 C25 1.400 . S
C21 H5 0.939 . S
C21 C20 1.378 . S
C21 C22 1.361 . S
C22 H6 0.942 . S
C22 C21 1.361 . S
C22 C23 1.369 . S
C23 C22 1.369 . S
C23 C24 1.404 . S
C24 H7 0.940 . S
C24 C23 1.404 . S
C24 C25 1.389 . S
C25 H8 0.939 . S
C25 C20 1.400 . S
C25 C24 1.389 . S
C26 P0 1.819 . S
C26 C27 1.391 . S
C26 C31 1.391 . S
C27 H9 0.941 . S
C27 C26 1.391 . S
C27 C28 1.396 . S
C28 H12 0.939 . S
C28 C27 1.396 . S
C28 C29 1.397 . S
C29 C28 1.397 . S
C29 C30 1.385 . S
C30 H13 0.940 . S
C30 C29 1.385 . S
C30 C31 1.388 . S
C31 H10 0.939 . S
C31 C26 1.391 . S
C31 C30 1.388 . S
P32 O43 1.490 . S
P32 C46 1.812 . S
P32 C52 1.803 . S
P32 C58 1.819 . S
H33 C47 0.941 . S
H34 C48 0.939 . S
H35 C50 0.940 . S
H36 C51 0.940 . S
H37 C53 0.939 . S
H38 C54 0.940 . S
H39 C56 0.940 . S
H40 C57 0.939 . S
H41 C59 0.941 . S
H42 C63 0.939 . S
O43 P32 1.490 . S
H44 C60 0.939 . S
H45 C62 0.940 . S
C46 P32 1.812 . S
C46 C47 1.389 . S
C46 C51 1.391 . S
C47 H33 0.941 . S
C47 C46 1.389 . S
C47 C48 1.397 . S
C48 H34 0.939 . S
C48 C47 1.397 . S
C48 C49 1.378 . S
C49 C48 1.378 . S
C49 C50 1.378 . S
C50 H35 0.940 . S
C50 C49 1.378 . S
C50 C51 1.396 . S
C51 H36 0.940 . S
C51 C46 1.391 . S
C51 C50 1.396 . S
C52 P32 1.803 . S
C52 C53 1.378 . S
C52 C57 1.400 . S
C53 H37 0.939 . S
C53 C52 1.378 . S
C53 C54 1.362 1_455 S
C54 H38 0.940 . S
C54 C53 1.362 1_655 S
C54 C55 1.369 . S
C55 C54 1.369 . S
C55 C56 1.394 1_655 S
C56 H39 0.940 . S
C56 C55 1.394 1_455 S
C56 C57 1.389 . S
C57 H40 0.939 . S
C57 C52 1.400 . S
C57 C56 1.389 . S
C58 P32 1.819 . S
C58 C59 1.391 . S
C58 C63 1.391 . S
C59 H41 0.941 . S
C59 C58 1.391 . S
C59 C60 1.396 . S
C60 H44 0.939 . S
C60 C59 1.396 . S
C60 C61 1.397 . S
C61 C60 1.397 . S
C61 C62 1.385 . S
C62 H45 0.940 . S
C62 C61 1.385 . S
C62 C63 1.388 . S
C63 H42 0.939 . S
C63 C58 1.391 . S
C63 C62 1.388 . S
P64 O75 1.490 . S
P64 C78 1.812 . S
P64 C84 1.803 . S
P64 C90 1.819 . S
H65 C79 0.941 . S
H66 C80 0.939 . S
H67 C82 0.940 . S
H68 C83 0.940 . S
H69 C85 0.939 . S
H70 C86 0.942 . S
H71 C88 0.940 . S
H72 C89 0.939 . S
H73 C91 0.941 . S
H74 C95 0.939 . S
O75 P64 1.490 . S
H76 C92 0.939 . S
H77 C94 0.940 . S
C78 P64 1.812 . S
C78 C79 1.389 . S
C78 C83 1.391 . S
C79 H65 0.941 . S
C79 C78 1.389 . S
C79 C80 1.397 . S
C80 H66 0.939 . S
C80 C79 1.397 . S
C80 C81 1.378 . S
C81 C80 1.378 . S
C81 C82 1.378 . S
C82 H67 0.940 . S
C82 C81 1.378 . S
C82 C83 1.396 . S
C83 H68 0.940 . S
C83 C78 1.391 . S
C83 C82 1.396 . S
C84 P64 1.803 . S
C84 C85 1.378 . S
C84 C89 1.400 . S
C85 H69 0.939 . S
C85 C84 1.378 . S
C85 C86 1.361 . S
C86 H70 0.942 . S
C86 C85 1.361 . S
C86 C87 1.369 . S
C87 C86 1.369 . S
C87 C88 1.404 . S
C88 H71 0.940 . S
C88 C87 1.404 . S
C88 C89 1.389 . S
C89 H72 0.939 . S
C89 C84 1.400 . S
C89 C88 1.389 . S
C90 P64 1.819 . S
C90 C91 1.391 . S
C90 C95 1.391 . S
C91 H73 0.941 . S
C91 C90 1.391 . S
C91 C92 1.396 . S
C92 H76 0.939 . S
C92 C91 1.396 . S
C92 C93 1.397 . S
C93 C92 1.397 . S
C93 C94 1.385 . S
C94 H77 0.940 . S
C94 C93 1.385 . S
C94 C95 1.388 . S
C95 H74 0.939 . S
C95 C90 1.391 . S
C95 C94 1.388 . S
P96 O107 1.490 . S
P96 C110 1.812 . S
P96 C116 1.803 . S
P96 C122 1.819 . S
H97 C111 0.941 . S
H98 C112 0.939 . S
H99 C114 0.940 . S
H100 C115 0.940 . S
H101 C117 0.939 . S
H102 C118 0.942 . S
H103 C120 0.940 . S
H104 C121 0.939 . S
H105 C123 0.941 . S
H106 C127 0.939 . S
O107 P96 1.490 . S
H108 C124 0.939 . S
H109 C126 0.940 . S
C110 P96 1.812 . S
C110 C111 1.389 . S
C110 C115 1.391 . S
C111 H97 0.941 . S
C111 C110 1.389 . S
C111 C112 1.397 . S
C112 H98 0.939 . S
C112 C111 1.397 . S
C112 C113 1.378 . S
C113 C112 1.378 . S
C113 C114 1.378 . S
C114 H99 0.940 . S
C114 C113 1.378 . S
C114 C115 1.396 . S
C115 H100 0.940 . S
C115 C110 1.391 . S
C115 C114 1.396 . S
C116 P96 1.803 . S
C116 C117 1.378 . S
C116 C121 1.400 . S
C117 H101 0.939 . S
C117 C116 1.378 . S
C117 C118 1.361 . S
C118 H102 0.942 . S
C118 C117 1.361 . S
C118 C119 1.369 . S
C119 C118 1.369 . S
C119 C120 1.404 . S
C120 H103 0.940 . S
C120 C119 1.404 . S
C120 C121 1.389 . S
C121 H104 0.939 . S
C121 C116 1.400 . S
C121 C120 1.389 . S
C122 P96 1.819 . S
C122 C123 1.391 . S
C122 C127 1.391 . S
C123 H105 0.941 . S
C123 C122 1.391 . S
C123 C124 1.396 . S
C124 H108 0.939 . S
C124 C123 1.396 . S
C124 C125 1.397 . S
C125 C124 1.397 . S
C125 C126 1.385 . S
C126 H109 0.940 . S
C126 C125 1.385 . S
C126 C127 1.388 . S
C127 H106 0.939 . S
C127 C122 1.391 . S
C127 C126 1.388 . S
P128 O139 1.490 . S
P128 C142 1.812 . S
P128 C148 1.803 . S
P128 C154 1.819 . S
H129 C143 0.941 . S
H130 C144 0.939 . S
H131 C146 0.940 . S
H132 C147 0.940 . S
H133 C149 0.939 . S
H134 C150 0.942 . S
H135 C152 0.940 . S
H136 C153 0.939 . S
H137 C155 0.941 . S
H138 C159 0.939 . S
O139 P128 1.490 . S
H140 C156 0.939 . S
H141 C158 0.940 . S
C142 P128 1.812 . S
C142 C143 1.389 . S
C142 C147 1.391 . S
C143 H129 0.941 . S
C143 C142 1.389 . S
C143 C144 1.397 . S
C144 H130 0.939 . S
C144 C143 1.397 . S
C144 C145 1.378 . S
C145 C144 1.378 . S
C145 C146 1.378 . S
C146 H131 0.940 . S
C146 C145 1.378 . S
C146 C147 1.396 . S
C147 H132 0.940 . S
C147 C142 1.391 . S
C147 C146 1.396 . S
C148 P128 1.803 . S
C148 C149 1.378 . S
C148 C153 1.400 . S
C149 H133 0.939 . S
C149 C148 1.378 . S
C149 C150 1.361 . S
C150 H134 0.942 . S
C150 C149 1.361 . S
C150 C151 1.369 . S
C151 C150 1.369 . S
C151 C152 1.404 . S
C152 H135 0.940 . S
C152 C151 1.404 . S
C152 C153 1.389 . S
C153 H136 0.939 . S
C153 C148 1.400 . S
C153 C152 1.389 . S
C154 P128 1.819 . S
C154 C155 1.391 . S
C154 C159 1.391 . S
C155 H137 0.941 . S
C155 C154 1.391 . S
C155 C156 1.396 . S
C156 H140 0.939 . S
C156 C155 1.396 . S
C156 C157 1.397 . S
C157 C156 1.397 . S
C157 C158 1.385 . S
C158 H141 0.940 . S
C158 C157 1.385 . S
C158 C159 1.388 . S
C159 H138 0.939 . S
C159 C154 1.391 . S
C159 C158 1.388 . S
P160 O171 1.490 . S
P160 C174 1.812 . S
P160 C180 1.803 . S
P160 C186 1.819 . S
H161 C175 0.941 . S
H162 C176 0.939 . S
H163 C178 0.940 . S
H164 C179 0.940 . S
H165 C181 0.939 . S
H166 C182 0.942 . S
H167 C184 0.940 . S
H168 C185 0.939 . S
H169 C187 0.941 . S
H170 C191 0.939 . S
O171 P160 1.490 . S
H172 C188 0.939 . S
H173 C190 0.940 . S
C174 P160 1.812 . S
C174 C175 1.389 . S
C174 C179 1.391 . S
C175 H161 0.941 . S
C175 C174 1.389 . S
C175 C176 1.397 . S
C176 H162 0.939 . S
C176 C175 1.397 . S
C176 C177 1.378 . S
C177 C176 1.378 . S
C177 C178 1.378 . S
C178 H163 0.940 . S
C178 C177 1.378 . S
C178 C179 1.396 . S
C179 H164 0.940 . S
C179 C174 1.391 . S
C179 C178 1.396 . S
C180 P160 1.803 . S
C180 C181 1.378 . S
C180 C185 1.400 . S
C181 H165 0.939 . S
C181 C180 1.378 . S
C181 C182 1.361 . S
C182 H166 0.942 . S
C182 C181 1.361 . S
C182 C183 1.369 . S
C183 C182 1.369 . S
C183 C184 1.404 . S
C184 H167 0.940 . S
C184 C183 1.404 . S
C184 C185 1.389 . S
C185 H168 0.939 . S
C185 C180 1.400 . S
C185 C184 1.389 . S
C186 P160 1.819 . S
C186 C187 1.391 . S
C186 C191 1.391 . S
C187 H169 0.941 . S
C187 C186 1.391 . S
C187 C188 1.396 . S
C188 H172 0.939 . S
C188 C187 1.396 . S
C188 C189 1.397 . S
C189 C188 1.397 . S
C189 C190 1.385 . S
C190 H173 0.940 . S
C190 C189 1.385 . S
C190 C191 1.388 . S
C191 H170 0.939 . S
C191 C186 1.391 . S
C191 C190 1.388 . S
P192 O203 1.490 . S
P192 C206 1.812 . S
P192 C212 1.803 . S
P192 C218 1.819 . S
H193 C207 0.941 . S
H194 C208 0.939 . S
H195 C210 0.940 . S
H196 C211 0.940 . S
H197 C213 0.939 . S
H198 C214 0.942 . S
H199 C216 0.940 . S
H200 C217 0.939 . S
H201 C219 0.941 . S
H202 C223 0.939 . S
O203 P192 1.490 . S
H204 C220 0.939 . S
H205 C222 0.940 . S
C206 P192 1.812 . S
C206 C207 1.389 . S
C206 C211 1.391 . S
C207 H193 0.941 . S
C207 C206 1.389 . S
C207 C208 1.397 . S
C208 H194 0.939 . S
C208 C207 1.397 . S
C208 C209 1.378 . S
C209 C208 1.378 . S
C209 C210 1.378 . S
C210 H195 0.940 . S
C210 C209 1.378 . S
C210 C211 1.396 . S
C211 H196 0.940 . S
C211 C206 1.391 . S
C211 C210 1.396 . S
C212 P192 1.803 . S
C212 C213 1.378 . S
C212 C217 1.400 . S
C213 H197 0.939 . S
C213 C212 1.378 . S
C213 C214 1.361 . S
C214 H198 0.942 . S
C214 C213 1.361 . S
C214 C215 1.369 . S
C215 C214 1.369 . S
C215 C216 1.404 . S
C216 H199 0.940 . S
C216 C215 1.404 . S
C216 C217 1.389 . S
C217 H200 0.939 . S
C217 C212 1.400 . S
C217 C216 1.389 . S
C218 P192 1.819 . S
C218 C219 1.391 . S
C218 C223 1.391 . S
C219 H201 0.941 . S
C219 C218 1.391 . S
C219 C220 1.396 . S
C220 H204 0.939 . S
C220 C219 1.396 . S
C220 C221 1.397 . S
C221 C220 1.397 . S
C221 C222 1.385 . S
C222 H205 0.940 . S
C222 C221 1.385 . S
C222 C223 1.388 . S
C223 H202 0.939 . S
C223 C218 1.391 . S
C223 C222 1.388 . S
P224 O235 1.490 . S
P224 C238 1.812 . S
P224 C244 1.803 . S
P224 C250 1.819 . S
H225 C239 0.941 . S
H226 C240 0.939 . S
H227 C242 0.940 . S
H228 C243 0.940 . S
H229 C245 0.939 . S
H230 C246 0.942 1_655 S
H231 C248 0.940 . S
H232 C249 0.939 . S
H233 C251 0.941 . S
H234 C255 0.939 . S
O235 P224 1.490 . S
H236 C252 0.939 . S
H237 C254 0.940 . S
C238 P224 1.812 . S
C238 C239 1.389 . S
C238 C243 1.391 . S
C239 H225 0.941 . S
C239 C238 1.389 . S
C239 C240 1.397 . S
C240 H226 0.939 . S
C240 C239 1.397 . S
C240 C241 1.378 . S
C241 C240 1.378 . S
C241 C242 1.378 . S
C242 H227 0.940 . S
C242 C241 1.378 . S
C242 C243 1.396 . S
C243 H228 0.940 . S
C243 C238 1.391 . S
C243 C242 1.396 . S
C244 P224 1.803 . S
C244 C245 1.378 . S
C244 C249 1.400 . S
C245 H229 0.939 . S
C245 C244 1.378 . S
C245 C246 1.361 . S
C246 H230 0.942 1_455 S
C246 C245 1.361 . S
C246 C247 1.369 . S
C247 C246 1.369 . S
C247 C248 1.404 . S
C248 H231 0.940 . S
C248 C247 1.404 . S
C248 C249 1.389 . S
C249 H232 0.939 . S
C249 C244 1.400 . S
C249 C248 1.389 . S
C250 P224 1.819 . S
C250 C251 1.391 . S
C250 C255 1.391 . S
C251 H233 0.941 . S
C251 C250 1.391 . S
C251 C252 1.396 . S
C252 H236 0.939 . S
C252 C251 1.396 . S
C252 C253 1.397 . S
C253 C252 1.397 . S
C253 C254 1.385 . S
C254 H237 0.940 . S
C254 C253 1.385 . S
C254 C255 1.388 . S
C255 H234 0.939 . S
C255 C250 1.391 . S
C255 C254 1.388 . S
Zn256 O262 1.920 . S
Zn256 O268 1.898 . S
Zn256 O271 1.905 . S
Zn257 O265 1.905 . S
Zn257 O266 1.898 . S
Zn257 O274 1.920 . S
Zn258 O261 2.080 . S
Zn258 O264 2.114 . S
Zn258 O267 2.120 . S
Zn258 O269 2.120 . S
Zn258 O270 2.114 . S
Zn258 O273 2.080 . S
C259 O264 1.166 . S
C259 O265 1.182 . S
C260 O266 1.167 . S
C260 O267 1.299 . S
O261 Zn258 2.080 . S
O261 C275 1.305 . S
O262 Zn256 1.920 . S
O262 C275 1.234 . S
C263 O268 1.167 . S
C263 O269 1.299 . S
O264 Zn258 2.114 . S
O264 C259 1.166 . S
O265 Zn257 1.905 . S
O265 C259 1.182 . S
O266 Zn257 1.898 . S
O266 C260 1.167 . S
O267 Zn258 2.120 . S
O267 C260 1.299 . S
O268 Zn256 1.898 . S
O268 C263 1.167 . S
O269 Zn258 2.120 . S
O269 C263 1.299 . S
O270 Zn258 2.114 . S
O270 C272 1.166 . S
O271 Zn256 1.905 . S
O271 C272 1.182 . S
C272 O270 1.166 . S
C272 O271 1.182 . S
O273 Zn258 2.080 . S
O273 C276 1.305 . S
O274 Zn257 1.920 . S
O274 C276 1.234 . S
C275 O261 1.305 . S
C275 O262 1.234 . S
C276 O273 1.305 . S
C276 O274 1.234 . S
Zn277 O283 1.920 . S
Zn277 O289 1.898 . S
Zn277 O292 1.905 . S
Zn278 O286 1.905 . S
Zn278 O287 1.898 . S
Zn278 O295 1.920 . S
Zn279 O282 2.080 . S
Zn279 O285 2.114 . S
Zn279 O288 2.120 . S
Zn279 O290 2.120 . S
Zn279 O291 2.114 . S
Zn279 O294 2.080 . S
C280 O285 1.166 . S
C280 O286 1.182 . S
C281 O287 1.167 . S
C281 O288 1.299 . S
O282 Zn279 2.080 . S
O282 C296 1.305 . S
O283 Zn277 1.920 . S
O283 C296 1.234 . S
C284 O289 1.167 . S
C284 O290 1.299 . S
O285 Zn279 2.114 . S
O285 C280 1.166 . S
O286 Zn278 1.905 . S
O286 C280 1.182 . S
O287 Zn278 1.898 . S
O287 C281 1.167 . S
O288 Zn279 2.120 . S
O288 C281 1.299 . S
O289 Zn277 1.898 . S
O289 C284 1.167 . S
O290 Zn279 2.120 . S
O290 C284 1.299 . S
O291 Zn279 2.114 . S
O291 C293 1.166 . S
O292 Zn277 1.905 . S
O292 C293 1.182 . S
C293 O291 1.166 . S
C293 O292 1.182 . S
O294 Zn279 2.080 . S
O294 C297 1.305 . S
O295 Zn278 1.920 . S
O295 C297 1.234 . S
C296 O282 1.305 . S
C296 O283 1.234 . S
C297 O294 1.305 . S
C297 O295 1.234 . S
Zn298 O304 1.920 . S
Zn298 O310 1.898 . S
Zn298 O313 1.905 . S
Zn299 O307 1.905 . S
Zn299 O308 1.898 . S
Zn299 O316 1.920 . S
Zn300 O303 2.080 . S
Zn300 O306 2.114 . S
Zn300 O309 2.120 . S
Zn300 O311 2.120 . S
Zn300 O312 2.114 . S
Zn300 O315 2.080 . S
C301 O306 1.166 . S
C301 O307 1.182 . S
C302 O308 1.167 . S
C302 O309 1.299 . S
O303 Zn300 2.080 . S
O303 C317 1.305 . S
O304 Zn298 1.920 . S
O304 C317 1.234 . S
C305 O310 1.167 . S
C305 O311 1.299 . S
O306 Zn300 2.114 . S
O306 C301 1.166 . S
O307 Zn299 1.905 . S
O307 C301 1.182 . S
O308 Zn299 1.898 . S
O308 C302 1.167 . S
O309 Zn300 2.120 . S
O309 C302 1.299 . S
O310 Zn298 1.898 . S
O310 C305 1.167 . S
O311 Zn300 2.120 . S
O311 C305 1.299 . S
O312 Zn300 2.114 . S
O312 C314 1.166 . S
O313 Zn298 1.905 . S
O313 C314 1.182 . S
C314 O312 1.166 . S
C314 O313 1.182 . S
O315 Zn300 2.080 . S
O315 C318 1.305 . S
O316 Zn299 1.920 . S
O316 C318 1.234 . S
C317 O303 1.305 . S
C317 O304 1.234 . S
C318 O315 1.305 . S
C318 O316 1.234 . S
Zn319 O325 1.920 . S
Zn319 O331 1.898 . S
Zn319 O334 1.905 . S
Zn320 O328 1.905 . S
Zn320 O329 1.898 . S
Zn320 O337 1.920 . S
Zn321 O324 2.080 . S
Zn321 O327 2.114 . S
Zn321 O330 2.120 . S
Zn321 O332 2.120 . S
Zn321 O333 2.114 . S
Zn321 O336 2.080 . S
C322 O327 1.166 . S
C322 O328 1.182 . S
C323 O329 1.167 . S
C323 O330 1.299 . S
O324 Zn321 2.080 . S
O324 C338 1.305 . S
O325 Zn319 1.920 . S
O325 C338 1.234 . S
C326 O331 1.167 . S
C326 O332 1.299 . S
O327 Zn321 2.114 . S
O327 C322 1.166 . S
O328 Zn320 1.905 . S
O328 C322 1.182 . S
O329 Zn320 1.898 . S
O329 C323 1.167 . S
O330 Zn321 2.120 . S
O330 C323 1.299 . S
O331 Zn319 1.898 . S
O331 C326 1.167 . S
O332 Zn321 2.120 . S
O332 C326 1.299 . S
O333 Zn321 2.114 . S
O333 C335 1.166 . S
O334 Zn319 1.905 . S
O334 C335 1.182 . S
C335 O333 1.166 . S
C335 O334 1.182 . S
O336 Zn321 2.080 . S
O336 C339 1.305 . S
O337 Zn320 1.920 . S
O337 C339 1.234 . S
C338 O324 1.305 . S
C338 O325 1.234 . S
C339 O336 1.305 . S
C339 O337 1.234 . S
C340 C341 1.391 . S
C340 C342 1.394 . S
C340 H356 0.931 . S
C341 C340 1.391 . S
C341 C345 1.376 . S
C342 C340 1.394 . S
C342 C343 1.369 . S
C342 C346 1.531 . S
C343 C342 1.369 . S
C343 C344 1.410 . S
C343 C351 1.503 . S
C344 C343 1.410 . S
C344 C345 1.392 . S
C344 C347 1.511 . S
C345 C341 1.376 . S
C345 C344 1.392 . S
C345 H357 0.929 . S
C346 C342 1.531 . S
C346 H358 0.960 . S
C346 H359 0.962 . S
C346 H360 0.960 . S
C347 C344 1.511 . S
C347 H361 0.961 . S
C347 H362 0.961 . S
C347 H363 0.961 . S
C348 C349 1.370 . S
C348 C350 1.363 . S
C348 H364 0.931 . S
C349 C348 1.370 . S
C349 C353 1.408 . S
C350 C348 1.363 . S
C350 C351 1.370 . S
C350 C354 1.524 . S
C351 C343 1.503 . S
C351 C350 1.370 . S
C351 C352 1.403 . S
C352 C351 1.403 . S
C352 C353 1.404 . S
C352 C355 1.539 . S
C353 C349 1.408 . S
C353 C352 1.404 . S
C353 H365 0.930 . S
C354 C350 1.524 . S
C354 H366 0.956 . S
C354 H367 0.961 . S
C354 H368 0.961 . S
C355 C352 1.539 . S
C355 H369 0.958 . S
C355 H370 0.961 . S
C355 H371 0.960 . S
H356 C340 0.931 . S
H357 C345 0.929 . S
H358 C346 0.960 . S
H359 C346 0.962 . S
H360 C346 0.960 . S
H361 C347 0.961 . S
H362 C347 0.961 . S
H363 C347 0.961 . S
H364 C348 0.931 . S
H365 C353 0.930 . S
H366 C354 0.956 . S
H367 C354 0.961 . S
H368 C354 0.961 . S
H369 C355 0.958 . S
H370 C355 0.961 . S
H371 C355 0.960 . S
C372 C373 1.391 . S
C372 C374 1.394 . S
C372 H388 0.931 . S
C373 C372 1.391 . S
C373 C377 1.376 . S
C374 C372 1.394 . S
C374 C375 1.369 . S
C374 C378 1.531 . S
C375 C374 1.369 . S
C375 C376 1.410 . S
C375 C383 1.503 . S
C376 C375 1.410 . S
C376 C377 1.392 . S
C376 C379 1.511 . S
C377 C373 1.376 . S
C377 C376 1.392 . S
C377 H389 0.929 . S
C378 C374 1.531 . S
C378 H390 0.960 . S
C378 H391 0.962 . S
C378 H392 0.960 . S
C379 C376 1.511 . S
C379 H393 0.961 . S
C379 H394 0.961 . S
C379 H395 0.961 . S
C380 C381 1.370 . S
C380 C382 1.363 . S
C380 H396 0.931 . S
C381 C380 1.370 . S
C381 C385 1.408 . S
C382 C380 1.363 . S
C382 C383 1.370 . S
C382 C386 1.524 . S
C383 C375 1.503 . S
C383 C382 1.370 . S
C383 C384 1.403 . S
C384 C383 1.403 . S
C384 C385 1.404 . S
C384 C387 1.539 . S
C385 C381 1.408 . S
C385 C384 1.404 . S
C385 H397 0.930 . S
C386 C382 1.524 . S
C386 H398 0.956 . S
C386 H399 0.961 . S
C386 H400 0.961 . S
C387 C384 1.539 . S
C387 H401 0.958 . S
C387 H402 0.961 . S
C387 H403 0.960 . S
H388 C372 0.931 . S
H389 C377 0.929 . S
H390 C378 0.960 . S
H391 C378 0.962 . S
H392 C378 0.960 . S
H393 C379 0.961 . S
H394 C379 0.961 . S
H395 C379 0.961 . S
H396 C380 0.931 . S
H397 C385 0.930 . S
H398 C386 0.956 . S
H399 C386 0.961 . S
H400 C386 0.961 . S
H401 C387 0.958 . S
H402 C387 0.961 . S
H403 C387 0.960 . S
C404 C405 1.391 . S
C404 C406 1.394 . S
C404 H420 0.931 . S
C405 C404 1.391 . S
C405 C409 1.376 . S
C406 C404 1.394 . S
C406 C407 1.369 . S
C406 C410 1.531 . S
C407 C406 1.369 . S
C407 C408 1.410 . S
C407 C415 1.503 . S
C408 C407 1.410 . S
C408 C409 1.392 . S
C408 C411 1.511 . S
C409 C405 1.376 . S
C409 C408 1.392 . S
C409 H421 0.929 . S
C410 C406 1.531 . S
C410 H422 0.960 . S
C410 H423 0.962 . S
C410 H424 0.960 . S
C411 C408 1.511 . S
C411 H425 0.961 . S
C411 H426 0.961 . S
C411 H427 0.961 . S
C412 C413 1.370 . S
C412 C414 1.363 . S
C412 H428 0.931 . S
C413 C412 1.370 . S
C413 C417 1.408 . S
C414 C412 1.363 . S
C414 C415 1.370 . S
C414 C418 1.524 . S
C415 C407 1.503 . S
C415 C414 1.370 . S
C415 C416 1.403 . S
C416 C415 1.403 . S
C416 C417 1.404 . S
C416 C419 1.539 . S
C417 C413 1.408 . S
C417 C416 1.404 . S
C417 H429 0.930 . S
C418 C414 1.524 . S
C418 H430 0.956 . S
C418 H431 0.961 . S
C418 H432 0.961 . S
C419 C416 1.539 . S
C419 H433 0.958 . S
C419 H434 0.961 . S
C419 H435 0.960 . S
H420 C404 0.931 . S
H421 C409 0.929 . S
H422 C410 0.960 . S
H423 C410 0.962 . S
H424 C410 0.960 . S
H425 C411 0.961 . S
H426 C411 0.961 . S
H427 C411 0.961 . S
H428 C412 0.931 . S
H429 C417 0.930 . S
H430 C418 0.956 . S
H431 C418 0.961 . S
H432 C418 0.961 . S
H433 C419 0.958 . S
H434 C419 0.961 . S
H435 C419 0.960 . S
C436 C437 1.391 . S
C436 C438 1.394 . S
C436 H452 0.931 . S
C437 C436 1.391 . S
C437 C441 1.376 . S
C438 C436 1.394 . S
C438 C439 1.369 . S
C438 C442 1.531 . S
C439 C438 1.369 . S
C439 C440 1.410 . S
C439 C447 1.503 . S
C440 C439 1.410 . S
C440 C441 1.392 . S
C440 C443 1.511 . S
C441 C437 1.376 . S
C441 C440 1.392 . S
C441 H453 0.929 . S
C442 C438 1.531 . S
C442 H454 0.960 . S
C442 H455 0.962 . S
C442 H456 0.960 . S
C443 C440 1.511 . S
C443 H457 0.961 . S
C443 H458 0.961 . S
C443 H459 0.961 . S
C444 C445 1.370 . S
C444 C446 1.363 . S
C444 H460 0.931 . S
C445 C444 1.370 . S
C445 C449 1.408 . S
C446 C444 1.363 . S
C446 C447 1.370 . S
C446 C450 1.524 . S
C447 C439 1.503 . S
C447 C446 1.370 . S
C447 C448 1.403 . S
C448 C447 1.403 . S
C448 C449 1.404 . S
C448 C451 1.539 . S
C449 C445 1.408 . S
C449 C448 1.404 . S
C449 H461 0.930 . S
C450 C446 1.524 . S
C450 H462 0.956 . S
C450 H463 0.961 . S
C450 H464 0.961 . S
C451 C448 1.539 . S
C451 H465 0.958 . S
C451 H466 0.961 . S
C451 H467 0.960 . S
H452 C436 0.931 . S
H453 C441 0.929 . S
H454 C442 0.960 . S
H455 C442 0.962 . S
H456 C442 0.960 . S
H457 C443 0.961 . S
H458 C443 0.961 . S
H459 C443 0.961 . S
H460 C444 0.931 . S
H461 C449 0.930 . S
H462 C450 0.956 . S
H463 C450 0.961 . S
H464 C450 0.961 . S
H465 C451 0.958 . S
H466 C451 0.961 . S
H467 C451 0.960 . S
C468 C469 1.391 . S
C468 C470 1.394 . S
C468 H484 0.931 . S
C469 C468 1.391 . S
C469 C473 1.376 . S
C470 C468 1.394 . S
C470 C471 1.369 . S
C470 C474 1.531 . S
C471 C470 1.369 . S
C471 C472 1.410 . S
C471 C479 1.503 . S
C472 C471 1.410 . S
C472 C473 1.392 . S
C472 C475 1.511 . S
C473 C469 1.376 . S
C473 C472 1.392 . S
C473 H485 0.929 . S
C474 C470 1.531 . S
C474 H486 0.960 . S
C474 H487 0.962 . S
C474 H488 0.960 . S
C475 C472 1.511 . S
C475 H489 0.961 1_455 S
C475 H490 0.961 . S
C475 H491 0.961 1_455 S
C476 C477 1.370 . S
C476 C478 1.363 . S
C476 H492 0.931 . S
C477 C476 1.370 . S
C477 C481 1.408 . S
C478 C476 1.363 . S
C478 C479 1.370 . S
C478 C482 1.524 . S
C479 C471 1.503 . S
C479 C478 1.370 . S
C479 C480 1.403 . S
C480 C479 1.403 . S
C480 C481 1.404 . S
C480 C483 1.539 . S
C481 C477 1.408 . S
C481 C480 1.404 . S
C481 H493 0.930 . S
C482 C478 1.524 . S
C482 H494 0.956 . S
C482 H495 0.961 . S
C482 H496 0.961 . S
C483 C480 1.539 . S
C483 H497 0.958 . S
C483 H498 0.961 . S
C483 H499 0.960 . S
H484 C468 0.931 . S
H485 C473 0.929 . S
H486 C474 0.960 . S
H487 C474 0.962 . S
H488 C474 0.960 . S
H489 C475 0.961 1_655 S
H490 C475 0.961 . S
H491 C475 0.961 1_655 S
H492 C476 0.931 . S
H493 C481 0.930 . S
H494 C482 0.956 . S
H495 C482 0.961 . S
H496 C482 0.961 . S
H497 C483 0.958 . S
H498 C483 0.961 . S
H499 C483 0.960 . S
C500 C501 1.391 . S
C500 C502 1.394 . S
C500 H516 0.931 . S
C501 C500 1.391 . S
C501 C505 1.376 . S
C502 C500 1.394 . S
C502 C503 1.369 . S
C502 C506 1.531 . S
C503 C502 1.369 . S
C503 C504 1.410 . S
C503 C511 1.503 . S
C504 C503 1.410 . S
C504 C505 1.392 . S
C504 C507 1.511 . S
C505 C501 1.376 . S
C505 C504 1.392 . S
C505 H517 0.929 . S
C506 C502 1.531 . S
C506 H518 0.960 . S
C506 H519 0.962 . S
C506 H520 0.960 . S
C507 C504 1.511 . S
C507 H521 0.961 . S
C507 H522 0.961 . S
C507 H523 0.961 . S
C508 C509 1.357 1_655 S
C508 C510 1.363 . S
C508 H524 0.931 . S
C509 C508 1.357 1_455 S
C509 C513 1.405 1_455 S
C510 C508 1.363 . S
C510 C511 1.370 . S
C510 C514 1.524 . S
C511 C503 1.503 . S
C511 C510 1.370 . S
C511 C512 1.403 . S
C512 C511 1.403 . S
C512 C513 1.404 . S
C512 C515 1.539 . S
C513 C509 1.405 1_655 S
C513 C512 1.404 . S
C513 H525 0.930 1_655 S
C514 C510 1.524 . S
C514 H526 0.956 . S
C514 H527 0.961 . S
C514 H528 0.961 . S
C515 C512 1.539 . S
C515 H529 0.958 . S
C515 H530 0.961 . S
C515 H531 0.960 . S
H516 C500 0.931 . S
H517 C505 0.929 . S
H518 C506 0.960 . S
H519 C506 0.962 . S
H520 C506 0.960 . S
H521 C507 0.961 . S
H522 C507 0.961 . S
H523 C507 0.961 . S
H524 C508 0.931 . S
H525 C513 0.930 1_455 S
H526 C514 0.956 . S
H527 C514 0.961 . S
H528 C514 0.961 . S
H529 C515 0.958 . S
H530 C515 0.961 . S
H531 C515 0.960 . S
C532 C533 1.391 . S
C532 C534 1.394 . S
C532 H548 0.931 . S
C533 C532 1.391 . S
C533 C537 1.376 . S
C534 C532 1.394 . S
C534 C535 1.369 . S
C534 C538 1.531 . S
C535 C534 1.369 . S
C535 C536 1.410 . S
C535 C543 1.503 . S
C536 C535 1.410 . S
C536 C537 1.392 . S
C536 C539 1.511 . S
C537 C533 1.376 . S
C537 C536 1.392 . S
C537 H549 0.929 . S
C538 C534 1.531 . S
C538 H550 0.960 . S
C538 H551 0.962 . S
C538 H552 0.960 . S
C539 C536 1.511 . S
C539 H553 0.961 . S
C539 H554 0.961 . S
C539 H555 0.961 . S
C540 C541 1.370 . S
C540 C542 1.363 . S
C540 H556 0.931 . S
C541 C540 1.370 . S
C541 C545 1.408 . S
C542 C540 1.363 . S
C542 C543 1.370 . S
C542 C546 1.524 . S
C543 C535 1.503 . S
C543 C542 1.370 . S
C543 C544 1.403 . S
C544 C543 1.403 . S
C544 C545 1.404 . S
C544 C547 1.539 . S
C545 C541 1.408 . S
C545 C544 1.404 . S
C545 H557 0.930 . S
C546 C542 1.524 . S
C546 H558 0.956 . S
C546 H559 0.961 . S
C546 H560 0.961 . S
C547 C544 1.539 . S
C547 H561 0.958 . S
C547 H562 0.961 . S
C547 H563 0.960 . S
H548 C532 0.931 . S
H549 C537 0.929 . S
H550 C538 0.960 . S
H551 C538 0.962 . S
H552 C538 0.960 . S
H553 C539 0.961 . S
H554 C539 0.961 . S
H555 C539 0.961 . S
H556 C540 0.931 . S
H557 C545 0.930 . S
H558 C546 0.956 . S
H559 C546 0.961 . S
H560 C546 0.961 . S
H561 C547 0.958 . S
H562 C547 0.961 . S
H563 C547 0.960 . S
C564 C565 1.391 . S
C564 C566 1.394 . S
C564 H580 0.931 . S
C565 C564 1.391 . S
C565 C569 1.376 . S
C566 C564 1.394 . S
C566 C567 1.369 . S
C566 C570 1.531 . S
C567 C566 1.369 . S
C567 C568 1.410 . S
C567 C575 1.503 . S
C568 C567 1.410 . S
C568 C569 1.392 . S
C568 C571 1.511 . S
C569 C565 1.376 . S
C569 C568 1.392 . S
C569 H581 0.929 . S
C570 C566 1.531 . S
C570 H582 0.960 . S
C570 H583 0.962 . S
C570 H584 0.960 . S
C571 C568 1.511 . S
C571 H585 0.961 . S
C571 H586 0.961 . S
C571 H587 0.961 . S
C572 C573 1.370 . S
C572 C574 1.363 . S
C572 H588 0.931 . S
C573 C572 1.370 . S
C573 C577 1.408 . S
C574 C572 1.363 . S
C574 C575 1.370 . S
C574 C578 1.524 . S
C575 C567 1.503 . S
C575 C574 1.370 . S
C575 C576 1.403 . S
C576 C575 1.403 . S
C576 C577 1.404 . S
C576 C579 1.539 . S
C577 C573 1.408 . S
C577 C576 1.404 . S
C577 H589 0.930 . S
C578 C574 1.524 . S
C578 H590 0.956 . S
C578 H591 0.961 . S
C578 H592 0.961 . S
C579 C576 1.539 . S
C579 H593 0.958 . S
C579 H594 0.961 . S
C579 H595 0.960 . S
H580 C564 0.931 . S
H581 C569 0.929 . S
H582 C570 0.960 . S
H583 C570 0.962 . S
H584 C570 0.960 . S
H585 C571 0.961 . S
H586 C571 0.961 . S
H587 C571 0.961 . S
H588 C572 0.931 . S
H589 C577 0.930 . S
H590 C578 0.956 . S
H591 C578 0.961 . S
H592 C578 0.961 . S
H593 C579 0.958 . S
H594 C579 0.961 . S
H595 C579 0.960 . S
C596 C597 1.391 . S
C596 C598 1.394 . S
C596 H612 0.931 . S
C597 C596 1.391 . S
C597 C601 1.376 . S
C598 C596 1.394 . S
C598 C599 1.369 . S
C598 C602 1.531 . S
C599 C598 1.369 . S
C599 C600 1.410 . S
C599 C607 1.503 . S
C600 C599 1.410 . S
C600 C601 1.392 . S
C600 C603 1.511 . S
C601 C597 1.376 . S
C601 C600 1.392 . S
C601 H613 0.929 . S
C602 C598 1.531 . S
C602 H614 0.960 . S
C602 H615 0.962 . S
C602 H616 0.960 . S
C603 C600 1.511 . S
C603 H617 0.961 . S
C603 H618 0.961 . S
C603 H619 0.961 . S
C604 C605 1.370 . S
C604 C606 1.363 . S
C604 H620 0.931 . S
C605 C604 1.370 . S
C605 C609 1.408 . S
C606 C604 1.363 . S
C606 C607 1.370 . S
C606 C610 1.524 . S
C607 C599 1.503 . S
C607 C606 1.370 . S
C607 C608 1.403 . S
C608 C607 1.403 . S
C608 C609 1.404 . S
C608 C611 1.539 . S
C609 C605 1.408 . S
C609 C608 1.404 . S
C609 H621 0.930 . S
C610 C606 1.524 . S
C610 H622 0.956 . S
C610 H623 0.961 . S
C610 H624 0.961 . S
C611 C608 1.539 . S
C611 H625 0.958 . S
C611 H626 0.961 . S
C611 H627 0.960 . S
H612 C596 0.931 . S
H613 C601 0.929 . S
H614 C602 0.960 . S
H615 C602 0.962 . S
H616 C602 0.960 . S
H617 C603 0.961 . S
H618 C603 0.961 . S
H619 C603 0.961 . S
H620 C604 0.931 . S
H621 C609 0.930 . S
H622 C610 0.956 . S
H623 C610 0.961 . S
H624 C610 0.961 . S
H625 C611 0.958 . S
H626 C611 0.961 . S
H627 C611 0.960 . S
C628 C629 1.391 . S
C628 C630 1.394 . S
C628 H644 0.931 . S
C629 C628 1.391 . S
C629 C633 1.376 . S
C630 C628 1.394 . S
C630 C631 1.369 . S
C630 C634 1.531 . S
C631 C630 1.369 . S
C631 C632 1.410 . S
C631 C639 1.503 . S
C632 C631 1.410 . S
C632 C633 1.392 . S
C632 C635 1.511 . S
C633 C629 1.376 . S
C633 C632 1.392 . S
C633 H645 0.929 . S
C634 C630 1.531 . S
C634 H646 0.960 . S
C634 H647 0.962 . S
C634 H648 0.960 . S
C635 C632 1.511 . S
C635 H649 0.961 . S
C635 H650 0.961 . S
C635 H651 0.961 . S
C636 C637 1.370 . S
C636 C638 1.363 . S
C636 H652 0.931 . S
C637 C636 1.370 . S
C637 C641 1.408 . S
C638 C636 1.363 . S
C638 C639 1.370 . S
C638 C642 1.524 . S
C639 C631 1.503 . S
C639 C638 1.370 . S
C639 C640 1.403 . S
C640 C639 1.403 . S
C640 C641 1.404 . S
C640 C643 1.539 . S
C641 C637 1.408 . S
C641 C640 1.404 . S
C641 H653 0.930 . S
C642 C638 1.524 . S
C642 H654 0.956 . S
C642 H655 0.961 . S
C642 H656 0.961 . S
C643 C640 1.539 . S
C643 H657 0.958 . S
C643 H658 0.961 . S
C643 H659 0.960 . S
H644 C628 0.931 . S
H645 C633 0.929 . S
H646 C634 0.960 . S
H647 C634 0.962 . S
H648 C634 0.960 . S
H649 C635 0.961 . S
H650 C635 0.961 . S
H651 C635 0.961 . S
H652 C636 0.931 . S
H653 C641 0.930 . S
H654 C642 0.956 . S
H655 C642 0.961 . S
H656 C642 0.961 . S
H657 C643 0.958 . S
H658 C643 0.961 . S
H659 C643 0.960 . S
C660 C661 1.391 . S
C660 C662 1.394 . S
C660 H676 0.931 . S
C661 C660 1.391 . S
C661 C665 1.376 . S
C662 C660 1.394 . S
C662 C663 1.369 . S
C662 C666 1.531 . S
C663 C662 1.369 . S
C663 C664 1.410 . S
C663 C671 1.503 . S
C664 C663 1.410 . S
C664 C665 1.392 . S
C664 C667 1.511 . S
C665 C661 1.376 . S
C665 C664 1.392 . S
C665 H677 0.929 . S
C666 C662 1.531 . S
C666 H678 0.960 . S
C666 H679 0.962 . S
C666 H680 0.960 . S
C667 C664 1.511 . S
C667 H681 0.961 . S
C667 H682 0.961 . S
C667 H683 0.961 . S
C668 C669 1.370 . S
C668 C670 1.363 . S
C668 H684 0.931 . S
C669 C668 1.370 . S
C669 C673 1.408 . S
C670 C668 1.363 . S
C670 C671 1.370 . S
C670 C674 1.524 . S
C671 C663 1.503 . S
C671 C670 1.370 . S
C671 C672 1.403 . S
C672 C671 1.403 . S
C672 C673 1.404 . S
C672 C675 1.539 . S
C673 C669 1.408 . S
C673 C672 1.404 . S
C673 H685 0.930 . S
C674 C670 1.524 . S
C674 H686 0.956 . S
C674 H687 0.961 . S
C674 H688 0.961 . S
C675 C672 1.539 . S
C675 H689 0.958 . S
C675 H690 0.961 . S
C675 H691 0.960 . S
H676 C660 0.931 . S
H677 C665 0.929 . S
H678 C666 0.960 . S
H679 C666 0.962 . S
H680 C666 0.960 . S
H681 C667 0.961 . S
H682 C667 0.961 . S
H683 C667 0.961 . S
H684 C668 0.931 . S
H685 C673 0.930 . S
H686 C674 0.956 . S
H687 C674 0.961 . S
H688 C674 0.961 . S
H689 C675 0.958 . S
H690 C675 0.961 . S
H691 C675 0.960 . S
C692 C693 1.391 . S
C692 C694 1.394 . S
C692 H708 0.931 . S
C693 C692 1.391 . S
C693 C697 1.376 . S
C694 C692 1.394 . S
C694 C695 1.369 . S
C694 C698 1.531 . S
C695 C694 1.369 . S
C695 C696 1.410 . S
C695 C703 1.503 . S
C696 C695 1.410 . S
C696 C697 1.392 . S
C696 C699 1.511 . S
C697 C693 1.376 . S
C697 C696 1.392 . S
C697 H709 0.929 . S
C698 C694 1.531 . S
C698 H710 0.960 . S
C698 H711 0.962 . S
C698 H712 0.960 . S
C699 C696 1.511 . S
C699 H713 0.961 . S
C699 H714 0.961 . S
C699 H715 0.961 . S
C700 C701 1.370 . S
C700 C702 1.363 . S
C700 H716 0.931 . S
C701 C700 1.370 . S
C701 C705 1.408 . S
C702 C700 1.363 . S
C702 C703 1.370 . S
C702 C706 1.524 . S
C703 C695 1.503 . S
C703 C702 1.370 . S
C703 C704 1.403 . S
C704 C703 1.403 . S
C704 C705 1.404 . S
C704 C707 1.539 . S
C705 C701 1.408 . S
C705 C704 1.404 . S
C705 H717 0.930 . S
C706 C702 1.524 . S
C706 H718 0.956 . S
C706 H719 0.961 . S
C706 H720 0.961 . S
C707 C704 1.539 . S
C707 H721 0.958 . S
C707 H722 0.961 . S
C707 H723 0.960 . S
H708 C692 0.931 . S
H709 C697 0.929 . S
H710 C698 0.960 . S
H711 C698 0.962 . S
H712 C698 0.960 . S
H713 C699 0.961 . S
H714 C699 0.961 . S
H715 C699 0.961 . S
H716 C700 0.931 . S
H717 C705 0.930 . S
H718 C706 0.956 . S
H719 C706 0.961 . S
H720 C706 0.961 . S
H721 C707 0.958 . S
H722 C707 0.961 . S
H723 C707 0.960 . S
C724 C725 1.391 . S
C724 C726 1.394 . S
C724 H740 0.931 . S
C725 C724 1.391 . S
C725 C729 1.376 . S
C726 C724 1.394 . S
C726 C727 1.369 . S
C726 C730 1.531 . S
C727 C726 1.369 . S
C727 C728 1.410 . S
C727 C735 1.503 1_565 S
C728 C727 1.410 . S
C728 C729 1.392 . S
C728 C731 1.511 1_565 S
C729 C725 1.376 . S
C729 C728 1.392 . S
C729 H741 0.929 . S
C730 C726 1.531 . S
C730 H742 0.960 . S
C730 H743 0.962 . S
C730 H744 0.960 . S
C731 C728 1.511 1_545 S
C731 H745 0.961 1_545 S
C731 H746 0.961 . S
C731 H747 0.961 . S
C732 C733 1.370 . S
C732 C734 1.363 . S
C732 H748 0.931 . S
C733 C732 1.370 . S
C733 C737 1.408 . S
C734 C732 1.363 . S
C734 C735 1.370 . S
C734 C738 1.524 . S
C735 C727 1.503 1_545 S
C735 C734 1.370 . S
C735 C736 1.403 . S
C736 C735 1.403 . S
C736 C737 1.404 . S
C736 C739 1.539 . S
C737 C733 1.408 . S
C737 C736 1.404 . S
C737 H749 0.930 . S
C738 C734 1.524 . S
C738 H750 0.956 1_545 S
C738 H751 0.961 1_545 S
C738 H752 0.961 . S
C739 C736 1.539 . S
C739 H753 0.958 . S
C739 H754 0.961 . S
C739 H755 0.960 . S
H740 C724 0.931 . S
H741 C729 0.929 . S
H742 C730 0.960 . S
H743 C730 0.962 . S
H744 C730 0.960 . S
H745 C731 0.961 1_565 S
H746 C731 0.961 . S
H747 C731 0.961 . S
H748 C732 0.931 . S
H749 C737 0.930 . S
H750 C738 0.956 1_565 S
H751 C738 0.961 1_565 S
H752 C738 0.961 . S
H753 C739 0.958 . S
H754 C739 0.961 . S
H755 C739 0.960 . S
C756 C757 1.391 . S
C756 C758 1.394 . S
C756 H772 0.931 . S
C757 C756 1.391 . S
C757 C761 1.376 . S
C758 C756 1.394 . S
C758 C759 1.369 1_545 S
C758 C762 1.531 1_545 S
C759 C758 1.369 1_565 S
C759 C760 1.410 1_565 S
C759 C767 1.503 . S
C760 C759 1.410 1_545 S
C760 C761 1.392 . S
C760 C763 1.511 . S
C761 C757 1.376 . S
C761 C760 1.392 . S
C761 H773 0.929 . S
C762 C758 1.531 1_565 S
C762 H774 0.960 . S
C762 H775 0.962 . S
C762 H776 0.960 . S
C763 C760 1.511 . S
C763 H777 0.961 . S
C763 H778 0.961 1_545 S
C763 H779 0.961 1_545 S
C764 C765 1.370 . S
C764 C766 1.363 . S
C764 H780 0.931 . S
C765 C764 1.370 . S
C765 C769 1.408 . S
C766 C764 1.363 . S
C766 C767 1.370 . S
C766 C770 1.524 . S
C767 C759 1.503 . S
C767 C766 1.370 . S
C767 C768 1.403 . S
C768 C767 1.403 . S
C768 C769 1.404 . S
C768 C771 1.539 . S
C769 C765 1.408 . S
C769 C768 1.404 . S
C769 H781 0.930 . S
C770 C766 1.524 . S
C770 H782 0.956 . S
C770 H783 0.961 1_565 S
C770 H784 0.961 . S
C771 C768 1.539 . S
C771 H785 0.958 . S
C771 H786 0.961 . S
C771 H787 0.960 . S
H772 C756 0.931 . S
H773 C761 0.929 . S
H774 C762 0.960 . S
H775 C762 0.962 . S
H776 C762 0.960 . S
H777 C763 0.961 . S
H778 C763 0.961 1_565 S
H779 C763 0.961 1_565 S
H780 C764 0.931 . S
H781 C769 0.930 . S
H782 C770 0.956 . S
H783 C770 0.961 1_545 S
H784 C770 0.961 . S
H785 C771 0.958 . S
H786 C771 0.961 . S
H787 C771 0.960 . S
C788 C789 1.391 . S
C788 C790 1.394 . S
C788 H804 0.931 . S
C789 C788 1.391 . S
C789 C793 1.376 . S
C790 C788 1.394 . S
C790 C791 1.372 . S
C790 C794 1.531 1_545 S
C791 C790 1.372 . S
C791 C792 1.414 . S
C791 C799 1.495 1_545 S
C792 C791 1.414 . S
C792 C793 1.392 . S
C792 C795 1.511 . S
C793 C789 1.376 . S
C793 C792 1.392 . S
C793 H805 0.929 . S
C794 C790 1.531 1_565 S
C794 H806 0.960 . S
C794 H807 0.962 . S
C794 H808 0.960 1_565 S
C795 C792 1.511 . S
C795 H809 0.961 . S
C795 H810 0.961 1_545 S
C795 H811 0.961 . S
C796 C797 1.370 . S
C796 C798 1.363 . S
C796 H812 0.931 . S
C797 C796 1.370 . S
C797 C801 1.408 . S
C798 C796 1.363 . S
C798 C799 1.370 . S
C798 C802 1.524 . S
C799 C791 1.495 1_565 S
C799 C798 1.370 . S
C799 C800 1.403 . S
C800 C799 1.403 . S
C800 C801 1.404 . S
C800 C803 1.539 . S
C801 C797 1.408 . S
C801 C800 1.404 . S
C801 H813 0.930 . S
C802 C798 1.524 . S
C802 H814 0.956 . S
C802 H815 0.961 . S
C802 H816 0.961 . S
C803 C800 1.539 . S
C803 H817 0.958 . S
C803 H818 0.961 . S
C803 H819 0.960 1_565 S
H804 C788 0.931 . S
H805 C793 0.929 . S
H806 C794 0.960 . S
H807 C794 0.962 . S
H808 C794 0.960 1_545 S
H809 C795 0.961 . S
H810 C795 0.961 1_565 S
H811 C795 0.961 . S
H812 C796 0.931 . S
H813 C801 0.930 . S
H814 C802 0.956 . S
H815 C802 0.961 . S
H816 C802 0.961 . S
H817 C803 0.958 . S
H818 C803 0.961 . S
H819 C803 0.960 1_545 S
C820 C821 1.391 . S
C820 C822 1.394 . S
C820 H836 0.931 . S
C821 C820 1.391 . S
C821 C825 1.376 . S
C822 C820 1.394 . S
C822 C823 1.369 . S
C822 C826 1.531 1_565 S
C823 C822 1.369 . S
C823 C824 1.410 . S
C823 C831 1.503 1_565 S
C824 C823 1.410 . S
C824 C825 1.392 . S
C824 C827 1.511 . S
C825 C821 1.376 . S
C825 C824 1.392 . S
C825 H837 0.929 . S
C826 C822 1.531 1_545 S
C826 H838 0.960 . S
C826 H839 0.962 . S
C826 H840 0.962 . S
C827 C824 1.511 . S
C827 H841 0.961 . S
C827 H842 0.961 . S
C827 H843 0.961 . S
C828 C829 1.370 . S
C828 C830 1.363 . S
C828 H844 0.931 . S
C829 C828 1.370 . S
C829 C833 1.408 . S
C830 C828 1.363 . S
C830 C831 1.370 . S
C830 C834 1.524 . S
C831 C823 1.503 1_545 S
C831 C830 1.370 . S
C831 C832 1.403 . S
C832 C831 1.403 . S
C832 C833 1.404 . S
C832 C835 1.539 . S
C833 C829 1.408 . S
C833 C832 1.404 . S
C833 H845 0.930 . S
C834 C830 1.524 . S
C834 H846 0.956 . S
C834 H847 0.961 . S
C834 H848 0.961 . S
C835 C832 1.539 . S
C835 H849 0.958 . S
C835 H850 0.961 . S
C835 H851 0.960 1_545 S
H836 C820 0.931 . S
H837 C825 0.929 . S
H838 C826 0.960 . S
H839 C826 0.962 . S
H840 C826 0.962 . S
H841 C827 0.961 . S
H842 C827 0.961 . S
H843 C827 0.961 . S
H844 C828 0.931 . S
H845 C833 0.930 . S
H846 C834 0.956 . S
H847 C834 0.961 . S
H848 C834 0.961 . S
H849 C835 0.958 . S
H850 C835 0.961 . S
H851 C835 0.960 1_565 S
C852 C853 1.391 1_556 S
C852 C854 1.394 . S
C852 H868 0.931 . S
C853 C852 1.391 1_554 S
C853 C857 1.376 1_554 S
C854 C852 1.394 . S
C854 C855 1.369 . S
C854 C858 1.531 . S
C855 C854 1.369 . S
C855 C856 1.410 . S
C855 C863 1.503 . S
C856 C855 1.410 . S
C856 C857 1.392 . S
C856 C859 1.511 . S
C857 C853 1.376 1_556 S
C857 C856 1.392 . S
C857 H869 0.929 1_556 S
C858 C854 1.531 . S
C858 H870 0.960 . S
C858 H871 0.962 . S
C858 H872 0.960 . S
C859 C856 1.511 . S
C859 H873 0.961 . S
C859 H874 0.961 . S
C859 H875 0.961 . S
C860 C861 1.370 . S
C860 C862 1.363 . S
C860 H876 0.931 . S
C861 C860 1.370 . S
C861 C865 1.408 . S
C862 C860 1.363 . S
C862 C863 1.370 . S
C862 C866 1.524 . S
C863 C855 1.503 . S
C863 C862 1.370 . S
C863 C864 1.403 . S
C864 C863 1.403 . S
C864 C865 1.404 . S
C864 C867 1.539 . S
C865 C861 1.408 . S
C865 C864 1.404 . S
C865 H877 0.930 . S
C866 C862 1.524 . S
C866 H878 0.956 . S
C866 H879 0.961 . S
C866 H880 0.961 . S
C867 C864 1.539 . S
C867 H881 0.958 . S
C867 H882 0.961 . S
C867 H883 0.960 . S
H868 C852 0.931 . S
H869 C857 0.929 1_554 S
H870 C858 0.960 . S
H871 C858 0.962 . S
H872 C858 0.960 . S
H873 C859 0.961 . S
H874 C859 0.961 . S
H875 C859 0.961 . S
H876 C860 0.931 . S
H877 C865 0.930 . S
H878 C866 0.956 . S
H879 C866 0.961 . S
H880 C866 0.961 . S
H881 C867 0.958 . S
H882 C867 0.961 . S
H883 C867 0.960 . S
C884 C885 1.391 . S
C884 C886 1.394 . S
C884 H900 0.931 . S
C885 C884 1.391 . S
C885 C889 1.376 . S
C886 C884 1.394 . S
C886 C887 1.369 . S
C886 C890 1.531 . S
C887 C886 1.369 . S
C887 C888 1.410 . S
C887 C895 1.503 . S
C888 C887 1.410 . S
C888 C889 1.392 . S
C888 C891 1.511 . S
C889 C885 1.376 . S
C889 C888 1.392 . S
C889 H901 0.929 . S
C890 C886 1.531 . S
C890 H902 0.960 . S
C890 H903 0.962 . S
C890 H904 0.960 . S
C891 C888 1.511 . S
C891 H905 0.961 . S
C891 H906 0.961 . S
C891 H907 0.961 . S
C892 C893 1.370 . S
C892 C894 1.363 . S
C892 H908 0.931 . S
C893 C892 1.370 . S
C893 C897 1.408 . S
C894 C892 1.363 . S
C894 C895 1.370 . S
C894 C898 1.524 . S
C895 C887 1.503 . S
C895 C894 1.370 . S
C895 C896 1.403 . S
C896 C895 1.403 . S
C896 C897 1.404 . S
C896 C899 1.539 . S
C897 C893 1.408 . S
C897 C896 1.404 . S
C897 H909 0.930 . S
C898 C894 1.524 . S
C898 H910 0.956 . S
C898 H911 0.961 . S
C898 H912 0.961 . S
C899 C896 1.539 . S
C899 H913 0.958 . S
C899 H914 0.961 . S
C899 H915 0.960 . S
H900 C884 0.931 . S
H901 C889 0.929 . S
H902 C890 0.960 . S
H903 C890 0.962 . S
H904 C890 0.960 . S
H905 C891 0.961 . S
H906 C891 0.961 . S
H907 C891 0.961 . S
H908 C892 0.931 . S
H909 C897 0.930 . S
H910 C898 0.956 . S
H911 C898 0.961 . S
H912 C898 0.961 . S
H913 C899 0.958 . S
H914 C899 0.961 . S
H915 C899 0.960 . S
C916 C917 1.391 . S
C916 C918 1.394 . S
C916 H932 0.931 . S
C917 C916 1.391 . S
C917 C921 1.376 . S
C918 C916 1.394 . S
C918 C919 1.369 . S
C918 C922 1.531 . S
C919 C918 1.369 . S
C919 C920 1.410 . S
C919 C927 1.503 . S
C920 C919 1.410 . S
C920 C921 1.392 . S
C920 C923 1.511 . S
C921 C917 1.376 . S
C921 C920 1.392 . S
C921 H933 0.929 . S
C922 C918 1.531 . S
C922 H934 0.960 . S
C922 H935 0.962 . S
C922 H936 0.960 . S
C923 C920 1.511 . S
C923 H937 0.961 . S
C923 H938 0.961 . S
C923 H939 0.961 . S
C924 C925 1.370 . S
C924 C926 1.363 . S
C924 H940 0.931 . S
C925 C924 1.370 . S
C925 C929 1.408 . S
C926 C924 1.363 . S
C926 C927 1.370 . S
C926 C930 1.524 . S
C927 C919 1.503 . S
C927 C926 1.370 . S
C927 C928 1.403 . S
C928 C927 1.403 . S
C928 C929 1.404 . S
C928 C931 1.539 . S
C929 C925 1.408 . S
C929 C928 1.404 . S
C929 H941 0.930 . S
C930 C926 1.524 . S
C930 H942 0.956 . S
C930 H943 0.961 . S
C930 H944 0.961 . S
C931 C928 1.539 . S
C931 H945 0.958 . S
C931 H946 0.961 . S
C931 H947 0.960 . S
H932 C916 0.931 . S
H933 C921 0.929 . S
H934 C922 0.960 . S
H935 C922 0.962 . S
H936 C922 0.960 . S
H937 C923 0.961 . S
H938 C923 0.961 . S
H939 C923 0.961 . S
H940 C924 0.931 . S
H941 C929 0.930 . S
H942 C930 0.956 . S
H943 C930 0.961 . S
H944 C930 0.961 . S
H945 C931 0.958 . S
H946 C931 0.961 . S
H947 C931 0.960 . S
C948 C949 1.391 . S
C948 C950 1.394 . S
C948 H964 0.931 . S
C949 C948 1.391 . S
C949 C953 1.376 . S
C950 C948 1.394 . S
C950 C951 1.369 . S
C950 C954 1.531 . S
C951 C950 1.369 . S
C951 C952 1.410 . S
C951 C959 1.503 . S
C952 C951 1.410 . S
C952 C953 1.392 . S
C952 C955 1.511 . S
C953 C949 1.376 . S
C953 C952 1.392 . S
C953 H965 0.929 . S
C954 C950 1.531 . S
C954 H966 0.960 . S
C954 H967 0.962 . S
C954 H968 0.960 . S
C955 C952 1.511 . S
C955 H969 0.961 . S
C955 H970 0.961 . S
C955 H971 0.961 . S
C956 C957 1.370 . S
C956 C958 1.363 . S
C956 H972 0.931 . S
C957 C956 1.370 . S
C957 C961 1.408 . S
C958 C956 1.363 . S
C958 C959 1.370 . S
C958 C962 1.524 . S
C959 C951 1.503 . S
C959 C958 1.370 . S
C959 C960 1.403 . S
C960 C959 1.403 . S
C960 C961 1.404 . S
C960 C963 1.539 . S
C961 C957 1.408 . S
C961 C960 1.404 . S
C961 H973 0.930 . S
C962 C958 1.524 . S
C962 H974 0.956 . S
C962 H975 0.961 . S
C962 H976 0.961 . S
C963 C960 1.539 . S
C963 H977 0.958 . S
C963 H978 0.961 . S
C963 H979 0.960 . S
H964 C948 0.931 . S
H965 C953 0.929 . S
H966 C954 0.960 . S
H967 C954 0.962 . S
H968 C954 0.960 . S
H969 C955 0.961 . S
H970 C955 0.961 . S
H971 C955 0.961 . S
H972 C956 0.931 . S
H973 C961 0.930 . S
H974 C962 0.956 . S
H975 C962 0.961 . S
H976 C962 0.961 . S
H977 C963 0.958 . S
H978 C963 0.961 . S
H979 C963 0.960 . S
C980 C981 1.391 1_554 S
C980 C982 1.394 . S
C980 H996 0.931 1_554 S
C981 C980 1.391 1_556 S
C981 C985 1.352 1_556 S
C982 C980 1.394 . S
C982 C983 1.369 . S
C982 C986 1.531 . S
C983 C982 1.369 . S
C983 C984 1.410 . S
C983 C991 1.503 . S
C984 C983 1.410 . S
C984 C985 1.457 . S
C984 C987 1.511 . S
C985 C981 1.352 1_554 S
C985 C984 1.457 . S
C985 H997 0.891 1_554 S
C986 C982 1.531 . S
C986 H998 0.960 . S
C986 H999 0.962 . S
C986 H1000 0.960 . S
C987 C984 1.511 . S
C987 H1001 0.961 . S
C987 H1002 0.961 . S
C987 H1003 0.961 . S
C988 C989 1.370 . S
C988 C990 1.363 . S
C988 H1004 0.931 . S
C989 C988 1.370 . S
C989 C993 1.408 . S
C990 C988 1.363 . S
C990 C991 1.370 . S
C990 C994 1.524 . S
C991 C983 1.503 . S
C991 C990 1.370 . S
C991 C992 1.403 . S
C992 C991 1.403 . S
C992 C993 1.404 . S
C992 C995 1.539 . S
C993 C989 1.408 . S
C993 C992 1.404 . S
C993 H1005 0.930 . S
C994 C990 1.524 . S
C994 H1006 0.956 . S
C994 H1007 0.961 . S
C994 H1008 0.961 . S
C995 C992 1.539 . S
C995 H1009 0.958 . S
C995 H1010 0.961 . S
C995 H1011 0.960 . S
H996 C980 0.931 1_556 S
H997 C985 0.891 1_556 S
H998 C986 0.960 . S
H999 C986 0.962 . S
H1000 C986 0.960 . S
H1001 C987 0.961 . S
H1002 C987 0.961 . S
H1003 C987 0.961 . S
H1004 C988 0.931 . S
H1005 C993 0.930 . S
H1006 C994 0.956 . S
H1007 C994 0.961 . S
H1008 C994 0.961 . S
H1009 C995 0.958 . S
H1010 C995 0.961 . S
H1011 C995 0.960 . S
C1012 C1013 1.391 . S
C1012 C1014 1.394 . S
C1012 H1028 0.931 . S
C1013 C1012 1.391 . S
C1013 C1017 1.376 . S
C1014 C1012 1.394 . S
C1014 C1015 1.369 . S
C1014 C1018 1.531 . S
C1015 C1014 1.369 . S
C1015 C1016 1.410 . S
C1015 C1023 1.503 . S
C1016 C1015 1.410 . S
C1016 C1017 1.392 . S
C1016 C1019 1.511 . S
C1017 C1013 1.376 . S
C1017 C1016 1.392 . S
C1017 H1029 0.929 . S
C1018 C1014 1.531 . S
C1018 H1030 0.960 . S
C1018 H1031 0.962 . S
C1018 H1032 0.960 . S
C1019 C1016 1.511 . S
C1019 H1033 0.961 . S
C1019 H1034 0.961 . S
C1019 H1035 0.961 . S
C1020 C1021 1.370 . S
C1020 C1022 1.363 . S
C1020 H1036 0.931 . S
C1021 C1020 1.370 . S
C1021 C1025 1.408 . S
C1022 C1020 1.363 . S
C1022 C1023 1.370 . S
C1022 C1026 1.524 . S
C1023 C1015 1.503 . S
C1023 C1022 1.370 . S
C1023 C1024 1.403 . S
C1024 C1023 1.403 . S
C1024 C1025 1.404 . S
C1024 C1027 1.539 . S
C1025 C1021 1.408 . S
C1025 C1024 1.404 . S
C1025 H1037 0.930 . S
C1026 C1022 1.524 . S
C1026 H1038 0.956 . S
C1026 H1039 0.961 . S
C1026 H1040 0.961 . S
C1027 C1024 1.539 . S
C1027 H1041 0.958 . S
C1027 H1042 0.961 . S
C1027 H1043 0.960 . S
H1028 C1012 0.931 . S
H1029 C1017 0.929 . S
H1030 C1018 0.960 . S
H1031 C1018 0.962 . S
H1032 C1018 0.960 . S
H1033 C1019 0.961 . S
H1034 C1019 0.961 . S
H1035 C1019 0.961 . S
H1036 C1020 0.931 . S
H1037 C1025 0.930 . S
H1038 C1026 0.956 . S
H1039 C1026 0.961 . S
H1040 C1026 0.961 . S
H1041 C1027 0.958 . S
H1042 C1027 0.961 . S
H1043 C1027 0.960 . S
C1044 C1045 1.391 . S
C1044 C1046 1.394 . S
C1044 H1060 0.931 . S
C1045 C1044 1.391 . S
C1045 C1049 1.376 . S
C1046 C1044 1.394 . S
C1046 C1047 1.369 . S
C1046 C1050 1.531 . S
C1047 C1046 1.369 . S
C1047 C1048 1.410 . S
C1047 C1055 1.503 . S
C1048 C1047 1.410 . S
C1048 C1049 1.392 . S
C1048 C1051 1.511 . S
C1049 C1045 1.376 . S
C1049 C1048 1.392 . S
C1049 H1061 0.929 . S
C1050 C1046 1.531 . S
C1050 H1062 0.960 . S
C1050 H1063 0.962 . S
C1050 H1064 0.960 . S
C1051 C1048 1.511 . S
C1051 H1065 0.961 . S
C1051 H1066 0.961 . S
C1051 H1067 0.961 . S
C1052 C1053 1.370 . S
C1052 C1054 1.363 . S
C1052 H1068 0.931 . S
C1053 C1052 1.370 . S
C1053 C1057 1.408 . S
C1054 C1052 1.363 . S
C1054 C1055 1.370 . S
C1054 C1058 1.524 . S
C1055 C1047 1.503 . S
C1055 C1054 1.370 . S
C1055 C1056 1.403 . S
C1056 C1055 1.403 . S
C1056 C1057 1.404 . S
C1056 C1059 1.539 . S
C1057 C1053 1.408 . S
C1057 C1056 1.404 . S
C1057 H1069 0.930 . S
C1058 C1054 1.524 . S
C1058 H1070 0.956 . S
C1058 H1071 0.961 . S
C1058 H1072 0.961 . S
C1059 C1056 1.539 . S
C1059 H1073 0.958 . S
C1059 H1074 0.961 . S
C1059 H1075 0.960 . S
H1060 C1044 0.931 . S
H1061 C1049 0.929 . S
H1062 C1050 0.960 . S
H1063 C1050 0.962 . S
H1064 C1050 0.960 . S
H1065 C1051 0.961 . S
H1066 C1051 0.961 . S
H1067 C1051 0.961 . S
H1068 C1052 0.931 . S
H1069 C1057 0.930 . S
H1070 C1058 0.956 . S
H1071 C1058 0.961 . S
H1072 C1058 0.961 . S
H1073 C1059 0.958 . S
H1074 C1059 0.961 . S
H1075 C1059 0.960 . S
C1076 C1077 1.391 . S
C1076 C1078 1.394 . S
C1076 H1092 0.931 . S
C1077 C1076 1.391 . S
C1077 C1081 1.376 . S
C1078 C1076 1.394 . S
C1078 C1079 1.369 . S
C1078 C1082 1.531 . S
C1079 C1078 1.369 . S
C1079 C1080 1.410 . S
C1079 C1087 1.503 . S
C1080 C1079 1.410 . S
C1080 C1081 1.392 . S
C1080 C1083 1.511 . S
C1081 C1077 1.376 . S
C1081 C1080 1.392 . S
C1081 H1093 0.929 . S
C1082 C1078 1.531 . S
C1082 H1094 0.960 . S
C1082 H1095 0.962 . S
C1082 H1096 0.960 . S
C1083 C1080 1.511 . S
C1083 H1097 0.961 . S
C1083 H1098 0.961 . S
C1083 H1099 0.961 . S
C1084 C1085 1.370 . S
C1084 C1086 1.363 . S
C1084 H1100 0.931 . S
C1085 C1084 1.370 . S
C1085 C1089 1.408 . S
C1086 C1084 1.363 . S
C1086 C1087 1.370 . S
C1086 C1090 1.524 . S
C1087 C1079 1.503 . S
C1087 C1086 1.370 . S
C1087 C1088 1.403 . S
C1088 C1087 1.403 . S
C1088 C1089 1.404 . S
C1088 C1091 1.539 . S
C1089 C1085 1.408 . S
C1089 C1088 1.404 . S
C1089 H1101 0.930 . S
C1090 C1086 1.524 . S
C1090 H1102 0.956 . S
C1090 H1103 0.961 . S
C1090 H1104 0.961 . S
C1091 C1088 1.539 . S
C1091 H1105 0.958 . S
C1091 H1106 0.961 . S
C1091 H1107 0.960 . S
H1092 C1076 0.931 . S
H1093 C1081 0.929 . S
H1094 C1082 0.960 . S
H1095 C1082 0.962 . S
H1096 C1082 0.960 . S
H1097 C1083 0.961 . S
H1098 C1083 0.961 . S
H1099 C1083 0.961 . S
H1100 C1084 0.931 . S
H1101 C1089 0.930 . S
H1102 C1090 0.956 . S
H1103 C1090 0.961 . S
H1104 C1090 0.961 . S
H1105 C1091 0.958 . S
H1106 C1091 0.961 . S
H1107 C1091 0.960 . S
C349 C263 1.457 . S
C341 C17 1.628 . S
C381 C281 1.266 . S
C373 C55 1.383 . S
C405 C87 1.409 . S
C413 C305 1.300 . S
C445 C335 1.333 1_655 S
C437 C113 1.465 . S
C477 C323 1.295 . S
C469 C145 1.354 . S
C501 C177 1.400 . S
C509 C276 1.374 . S
C533 C215 1.519 . S
C541 C296 1.496 . S
C565 C247 1.418 1_655 S
C573 C301 1.261 . S
C597 C241 1.390 . S
C605 C317 1.323 . S
C629 C183 1.421 . S
C637 C272 1.259 . S
C669 C339 1.298 . S
C661 C119 1.328 . S
C701 C284 1.280 . S
C693 C49 1.409 . S
C725 C81 1.617 . S
C733 C302 1.455 . S
C757 C23 1.397 . S
C765 C260 1.319 . S
C797 C280 1.283 . S
C789 C209 1.323 . S
C829 C326 1.506 . S
C821 C151 1.525 . S
C861 C322 1.337 . S
C853 C29 1.480 . S
C893 C275 1.336 . S
C885 C61 1.411 . S
C917 C93 1.474 . S
C925 C297 1.278 . S
C949 C125 1.388 . S
C957 C318 1.378 . S
C989 C259 1.342 . S
C981 C157 1.403 . S
C1013 C189 1.461 . S
C1021 C293 1.398 . S
C1053 C314 1.360 . S
C1045 C221 1.443 . S
C1085 C338 1.375 . S
C1077 C253 1.440 . S
