# Generated by pormake.
# Topology tsx, (6,3)-cn, num edge types: 1
# Building blocks:
#     Node 0, Type 0, BuildingBlock: FUNLAD_clean_sbu_0, # of connection points: 6
#     Node 1, Type 0, BuildingBlock: FUNLAD_clean_sbu_0, # of connection points: 6
#     Node 2, Type 1, BuildingBlock: BETDIP_clean_linker_0, # of connection points: 3
#     Node 3, Type 1, BuildingBlock: BETDIP_clean_linker_0, # of connection points: 3
#     Node 4, Type 1, BuildingBlock: BETDIP_clean_linker_0, # of connection points: 3
#     Node 5, Type 1, BuildingBlock: BETDIP_clean_linker_0, # of connection points: 3
#     Edge 6, Type (0, 1), BuildingBlock: UVAHIK_clean_linker_0, # of connection points: 2
#     Edge 7, Type (0, 1), BuildingBlock: UVAHIK_clean_linker_0, # of connection points: 2
#     Edge 8, Type (0, 1), BuildingBlock: UVAHIK_clean_linker_0, # of connection points: 2
#     Edge 9, Type (0, 1), BuildingBlock: UVAHIK_clean_linker_0, # of connection points: 2
#     Edge 10, Type (0, 1), BuildingBlock: UVAHIK_clean_linker_0, # of connection points: 2
#     Edge 11, Type (0, 1), BuildingBlock: UVAHIK_clean_linker_0, # of connection points: 2
#     Edge 12, Type (0, 1), BuildingBlock: UVAHIK_clean_linker_0, # of connection points: 2
#     Edge 13, Type (0, 1), BuildingBlock: UVAHIK_clean_linker_0, # of connection points: 2
#     Edge 14, Type (0, 1), BuildingBlock: UVAHIK_clean_linker_0, # of connection points: 2
#     Edge 15, Type (0, 1), BuildingBlock: UVAHIK_clean_linker_0, # of connection points: 2
#     Edge 16, Type (0, 1), BuildingBlock: UVAHIK_clean_linker_0, # of connection points: 2
#     Edge 17, Type (0, 1), BuildingBlock: UVAHIK_clean_linker_0, # of connection points: 2
# Relax obj value: 0.110
# Max RMSD: 0.114
# Mean RMSD: 0.110
data_MOF--net-tsx--node1-FUNLAD_clean_sbu_0--node2-BETDIP_clean_linker_0--edge1-UVAHIK_clean_linker_0
_symmetry_space_group_name_H-M    P1
_symmetry_Int_Tables_number       1
_symmetry_cell_setting            triclinic
loop_
_symmetry_equiv_pos_as_xyz
'x, y, z'
_cell_length_a     25.211425
_cell_length_b     28.253004
_cell_length_c     49.56417
_cell_angle_alpha  90.907455
_cell_angle_beta   101.75855
_cell_angle_gamma 89.994968
loop_
_atom_site_label
_atom_site_type_symbol
_atom_site_fract_x
_atom_site_fract_y
_atom_site_fract_z
_atom_type_partial_charge
C0 C 0.94174 0.93418 0.00313 0.0
N1 N 0.03953 0.00456 0.07026 0.0
C2 C 0.99466 0.003 0.08148 0.0
C3 C -0.00063 0.00581 0.10991 0.0
C4 C 0.05076 0.01077 0.12712 0.0
C5 C 0.0966 0.0115 0.11505 0.0
C6 C 0.09001 0.00829 0.08638 0.0
Zn7 Zn 0.02806 0.00413 0.02841 0.0
C8 C 0.09745 0.93595 0.0065 0.0
N9 N -0.00188 0.00498 0.94082 0.0
C10 C 0.94748 0.00867 0.92497 0.0
C11 C 0.04283 0.00511 0.92943 0.0
C12 C 0.03776 0.01012 0.90114 0.0
C13 C 0.9862 0.01556 0.88431 0.0
C14 C 0.94055 0.01409 0.89649 0.0
Zn15 Zn 0.00976 0.00373 0.98265 0.0
O16 O 0.96869 0.95052 0.02586 0.0
C17 C 0.93964 0.07123 0.0044 0.0
O18 O 0.95064 0.95006 0.98062 0.0
H19 H 0.08272 0.00227 0.94239 0.0
H20 H 0.9549 0.00012 0.06832 0.0
H21 H 0.91251 0.00856 0.93449 0.0
O22 O 0.9674 0.05712 0.02715 0.0
O23 O 0.94931 0.05473 0.98196 0.0
H24 H 0.12512 0.00953 0.07699 0.0
O25 O 0.069 0.05822 0.98505 0.0
O26 O 0.08736 0.05685 0.03024 0.0
O27 O 0.07018 0.95166 0.98403 0.0
O28 O 0.08835 0.95179 0.02927 0.0
C29 C 0.0963 0.07348 0.00794 0.0
H30 H 0.963 0.00404 0.11831 0.0
H31 H 0.13695 0.01555 0.12753 0.0
H32 H 0.07401 0.01 0.89258 0.0
H33 H 0.90006 0.01841 0.88431 0.0
C34 C 0.43802 0.43358 0.50206 0.0
N35 N 0.53512 0.50393 0.56944 0.0
C36 C 0.49039 0.50178 0.58075 0.0
C37 C 0.49531 0.50444 0.60921 0.0
C38 C 0.54674 0.50986 0.62633 0.0
C39 C 0.59241 0.51116 0.61415 0.0
C40 C 0.58563 0.50806 0.58548 0.0
Zn41 Zn 0.52359 0.5039 0.5276 0.0
C42 C 0.59374 0.43659 0.50553 0.0
N43 N 0.49395 0.50561 0.44005 0.0
C44 C 0.44331 0.50883 0.42414 0.0
C45 C 0.53873 0.50626 0.42873 0.0
C46 C 0.53373 0.51123 0.40044 0.0
C47 C 0.48214 0.51609 0.38354 0.0
C48 C 0.43643 0.51418 0.39566 0.0
Zn49 Zn 0.50551 0.50401 0.48186 0.0
O50 O 0.46475 0.44978 0.52487 0.0
C51 C 0.43454 0.57052 0.50375 0.0
O52 O 0.44689 0.44987 0.47964 0.0
H53 H 0.57861 0.50377 0.44173 0.0
H54 H 0.4506 0.49859 0.56765 0.0
H55 H 0.40828 0.50832 0.43361 0.0
O56 O 0.46233 0.55634 0.52648 0.0
O57 O 0.44454 0.55447 0.48127 0.0
H58 H 0.62062 0.50976 0.57601 0.0
O59 O 0.5642 0.559 0.48445 0.0
O60 O 0.58233 0.55719 0.52961 0.0
O61 O 0.56642 0.45242 0.4831 0.0
O62 O 0.58444 0.45206 0.52833 0.0
C63 C 0.59121 0.57424 0.50741 0.0
H64 H 0.45907 0.50224 0.61769 0.0
H65 H 0.63278 0.51561 0.62655 0.0
H66 H 0.57003 0.51146 0.39193 0.0
H67 H 0.39593 0.51804 0.38342 0.0
H68 H 0.0408 0.97602 0.49258 0.0
H69 H 0.01383 0.06062 0.41953 0.0
H70 H 0.07963 0.92109 0.41746 0.0
H71 H 0.03004 0.12101 0.45392 0.0
C72 C 0.00129 0.10703 0.46542 0.0
C73 C 0.04267 0.98028 0.4711 0.0
C74 C 0.06179 0.94323 0.45653 0.0
C75 C 0.02581 0.02289 0.45799 0.0
C76 C 0.02831 0.02843 0.43012 0.0
C77 C 0.04714 -0.00842 0.41539 0.0
C78 C 0.06371 0.94916 0.42868 0.0
N79 N 0.00342 0.05857 0.47265 0.0
H80 H 0.96461 -0.00375 0.51602 0.0
H81 H 0.00261 0.0845 0.58911 0.0
H82 H 0.93471 0.94645 0.5932 0.0
H83 H 0.9871 0.14362 0.55501 0.0
C84 C 0.01304 0.12741 0.54245 0.0
C85 C 0.96535 0.00184 0.53777 0.0
C86 C 0.94757 0.96597 0.55309 0.0
C87 C 0.98483 0.04483 0.55054 0.0
C88 C 0.98602 0.05209 0.5788 0.0
C89 C 0.96858 0.0164 0.59426 0.0
C90 C 0.94935 0.97362 0.5813 0.0
N91 N 0.00694 0.07867 0.53511 0.0
H92 H 0.54971 0.47957 -0.0066 0.0
H93 H 0.51947 0.56349 0.92009 0.0
H94 H 0.58566 0.42415 0.91775 0.0
H95 H 0.53627 0.62433 0.95436 0.0
C96 C 0.50807 0.61011 0.9661 0.0
C97 C 0.55074 0.48366 0.97181 0.0
C98 C 0.56936 0.44655 0.95709 0.0
C99 C 0.53319 0.5261 0.95869 0.0
C100 C 0.53453 0.53145 0.93067 0.0
C101 C 0.55287 0.49453 0.91579 0.0
C102 C 0.57015 0.45228 0.9291 0.0
N103 N 0.51109 0.56173 0.97351 0.0
H104 H 0.47162 0.4941 0.01619 0.0
H105 H 0.50583 0.58208 0.0895 0.0
H106 H 0.43887 0.4434 0.0926 0.0
H107 H 0.49171 0.64134 0.05565 0.0
C108 C 0.51825 0.6254 0.04333 0.0
C109 C 0.47143 0.49952 0.03786 0.0
C110 C 0.45331 0.46339 0.05287 0.0
C111 C 0.49006 0.54257 0.05086 0.0
C112 C 0.48994 0.54962 0.079 0.0
C113 C 0.47206 0.51367 0.09414 0.0
C114 C 0.4538 0.47082 0.08097 0.0
N115 N 0.51263 0.57671 0.0358 0.0
C116 C 0.18115 0.11365 0.03186 0.0
C117 C 0.1388 0.10956 0.00872 0.0
C118 C 0.22122 0.14803 0.033 0.0
C119 C 0.27859 0.23541 0.99079 0.0
H120 H 0.32987 0.29416 0.0626 0.0
C121 C 0.38989 0.4175 0.01624 0.0
C122 C 0.43199 0.41806 0.03969 0.0
C123 C 0.36081 0.3757 0.00804 0.0
C124 C 0.31643 0.27768 0.04247 0.0
H125 H 0.10535 0.13761 0.96839 0.0
H126 H 0.17393 0.19946 0.97092 0.0
H127 H 0.2639 0.23069 0.05769 0.0
H128 H 0.48105 0.37483 0.07091 0.0
H129 H 0.43015 0.3021 0.05669 0.0
H130 H 0.32987 0.28499 0.97563 0.0
C131 C 0.1772 0.17525 0.98789 0.0
C132 C 0.27873 0.24107 0.03963 0.0
C133 C 0.13763 0.14009 0.98651 0.0
C134 C 0.44807 0.37541 0.05306 0.0
C135 C 0.41907 0.33389 0.04494 0.0
C136 C 0.31588 0.27284 -0.0064 0.0
C137 C 0.21922 0.17997 0.01131 0.0
C138 C 0.25954 0.2191 0.01384 0.0
C139 C 0.37363 0.33422 0.02323 0.0
C140 C 0.3354 0.29391 0.01955 0.0
H141 H 0.1836 0.09 0.04907 0.0
H142 H 0.25373 0.14957 0.05103 0.0
H143 H 0.26509 0.21909 0.97065 0.0
H144 H 0.37677 0.45 0.00562 0.0
H145 H 0.32584 0.37674 0.99123 0.0
C146 C 0.17753 0.88878 0.0299 0.0
C147 C 0.13958 0.89989 0.0059 0.0
C148 C 0.2182 0.85554 0.02885 0.0
C149 C 0.25152 0.75453 0.98808 0.0
H150 H 0.40153 0.7865 0.01887 0.0
C151 C 0.47313 0.69086 0.97265 0.0
C152 C 0.46812 0.64173 0.97487 0.0
C153 C 0.43472 0.72116 0.98023 0.0
C154 C 0.35978 0.77714 0.01026 0.0
H155 H 0.11405 0.88454 0.96211 0.0
H156 H 0.18455 0.82639 0.96042 0.0
H157 H 0.32959 0.84158 0.02481 0.0
H158 H 0.41949 0.58544 0.98683 0.0
H159 H 0.35217 0.63838 -0.00015 0.0
H160 H 0.28147 0.69071 0.97297 0.0
C161 C 0.18283 0.84326 0.98001 0.0
C162 C 0.3187 0.80839 0.01384 0.0
C163 C 0.14267 0.87676 0.98097 0.0
C164 C 0.42437 0.62325 0.98495 0.0
C165 C 0.38578 0.6535 0.99233 0.0
C166 C 0.29245 0.72316 0.98472 0.0
C167 C 0.22108 0.83244 0.00389 0.0
C168 C 0.26428 0.79769 0.00236 0.0
C169 C 0.39029 0.7027 0.98978 0.0
C170 C 0.34701 0.73447 -0.0046 0.0
H171 H 0.17622 0.90615 0.04939 0.0
H172 H 0.24713 0.84762 0.04757 0.0
H173 H 0.20983 0.74529 0.97922 0.0
H174 H 0.5067 0.70579 0.965 0.0
H175 H 0.4389 0.75893 0.97782 0.0
C176 C 0.86026 0.88798 0.97925 0.0
C177 C 0.89939 0.89815 0.0032 0.0
C178 C 0.81842 0.85583 0.98 0.0
C179 C 0.78081 0.75664 0.01932 0.0
H180 H 0.63248 0.7954 0.99112 0.0
C181 C 0.55731 0.7043 0.03696 0.0
C182 C 0.55898 0.65494 0.034 0.0
C183 C 0.59699 0.73253 0.0292 0.0
C184 C 0.67373 0.78413 -0.00101 0.0
H185 H 0.92614 0.88187 0.04649 0.0
H186 H 0.85362 0.82554 0.04765 0.0
H187 H 0.70736 0.84676 0.98517 0.0
H188 H 0.60274 0.5961 0.02029 0.0
H189 H 0.67216 0.64539 0.00689 0.0
H190 H 0.74744 0.69466 0.03375 0.0
C191 C 0.85525 0.84236 0.02834 0.0
C192 C 0.71648 0.81325 -0.00461 0.0
C193 C 0.89659 0.87481 0.02769 0.0
C194 C 0.60045 0.63415 0.0228 0.0
C195 C 0.64027 0.6623 0.01521 0.0
C196 C 0.73817 0.72738 0.0227 0.0
C197 C 0.8155 0.83286 0.00459 0.0
C198 C 0.77037 0.80012 0.00596 0.0
C199 C 0.63932 0.71171 0.01865 0.0
C200 C 0.68421 0.74117 0.01295 0.0
H201 H 0.86131 0.90555 0.9601 0.0
H202 H 0.78837 0.8489 0.96138 0.0
H203 H 0.82201 0.74556 0.02749 0.0
H204 H 0.52554 0.72102 0.04548 0.0
H205 H 0.59554 0.77051 0.0323 0.0
C206 C 0.85215 0.10591 0.98093 0.0
C207 C 0.89522 0.10527 0.00383 0.0
C208 C 0.81021 0.13837 0.97978 0.0
C209 C 0.74914 0.22659 0.02127 0.0
H210 H 0.69512 0.27846 0.94893 0.0
C211 C 0.63216 0.4038 -0.00559 0.0
C212 C 0.59078 0.40231 0.97065 0.0
C213 C 0.66181 0.36295 0.00305 0.0
C214 C 0.70922 0.26382 0.9692 0.0
H215 H 0.92793 0.1372 0.04378 0.0
H216 H 0.85588 0.19592 0.04118 0.0
H217 H 0.76377 0.21756 0.95437 0.0
H218 H 0.54343 0.35648 0.93933 0.0
H219 H 0.59526 0.28531 0.95434 0.0
H220 H 0.6958 0.2756 0.03602 0.0
C221 C 0.85363 0.17046 0.02443 0.0
C222 C 0.74852 0.22871 0.97236 0.0
C223 C 0.89515 0.13714 0.02585 0.0
C224 C 0.57583 0.35861 0.95742 0.0
C225 C 0.60536 0.31799 0.966 0.0
C226 C 0.71017 0.26255 0.01813 0.0
C227 C 0.81098 0.17185 0.00118 0.0
C228 C 0.76881 0.20929 -0.00165 0.0
C229 C 0.65028 0.32035 0.98799 0.0
C230 C 0.68967 0.28111 0.99199 0.0
H231 H 0.85063 0.08106 0.96391 0.0
H232 H 0.77729 0.13731 0.96193 0.0
H233 H 0.76354 0.21222 0.04156 0.0
H234 H 0.64443 0.43714 0.00493 0.0
H235 H 0.69637 0.36559 0.02005 0.0
C236 C 0.67507 0.61548 0.53172 0.0
C237 C 0.63323 0.61084 0.50837 0.0
C238 C 0.71463 0.65037 0.53304 0.0
C239 C 0.77198 0.73808 0.49106 0.0
H240 H 0.82136 0.79744 0.56285 0.0
C241 C 0.8833 0.92029 0.51668 0.0
C242 C 0.92538 0.92071 0.54014 0.0
C243 C 0.85384 0.87866 0.50852 0.0
C244 C 0.80841 0.78082 0.54273 0.0
H245 H 0.60017 0.6385 0.4679 0.0
H246 H 0.66787 0.70116 0.47072 0.0
H247 H 0.75572 0.73363 0.55772 0.0
H248 H 0.97392 0.87729 0.57145 0.0
H249 H 0.92226 0.80491 0.55736 0.0
H250 H 0.82347 0.78777 0.47612 0.0
C251 C 0.67113 0.67702 0.48772 0.0
C252 C 0.77092 0.74401 0.53976 0.0
C253 C 0.63206 0.64137 0.48617 0.0
C254 C 0.94093 0.87804 0.55362 0.0
C255 C 0.91151 0.83671 0.54557 0.0
C256 C 0.80905 0.77569 0.49399 0.0
C257 C 0.71264 0.68225 0.51132 0.0
C258 C 0.7525 0.72177 0.51397 0.0
C259 C 0.86622 0.8372 0.52378 0.0
C260 C 0.82789 0.79696 0.51994 0.0
H261 H 0.67751 0.59187 0.54894 0.0
H262 H 0.74677 0.65232 0.55122 0.0
H263 H 0.75907 0.72156 0.47093 0.0
H264 H 0.87057 0.95277 0.50595 0.0
H265 H 0.81898 0.87981 0.49165 0.0
C266 C 0.67363 0.38909 0.52884 0.0
C267 C 0.63592 0.40062 0.50483 0.0
C268 C 0.71407 0.35564 0.52775 0.0
C269 C 0.74638 0.25454 0.48681 0.0
H270 H 0.89673 0.28469 0.51799 0.0
C271 C 0.96729 0.18816 0.47184 0.0
C272 C 0.9616 0.1391 0.47407 0.0
C273 C 0.92923 0.21893 0.47933 0.0
C274 C 0.85487 0.27584 0.50927 0.0
H275 H 0.61069 0.38588 0.46097 0.0
H276 H 0.68078 0.32736 0.4592 0.0
H277 H 0.82552 0.34063 0.52386 0.0
H278 H 0.9121 0.08342 0.48596 0.0
H279 H 0.8453 0.13719 0.49879 0.0
H280 H 0.77551 0.19034 0.4717 0.0
C281 C 0.67904 0.34407 0.47882 0.0
C282 C 0.81421 0.30758 0.51281 0.0
C283 C 0.63911 0.37778 0.47983 0.0
C284 C 0.91748 0.12116 0.48405 0.0
C285 C 0.87922 0.15188 0.49134 0.0
C286 C 0.78689 0.22267 0.48351 0.0
C287 C 0.71696 0.33274 0.50273 0.0
C288 C 0.7597 0.29754 0.50119 0.0
C289 C 0.88444 0.20102 0.48879 0.0
C290 C 0.84157 0.23331 0.49434 0.0
H291 H 0.67224 0.40622 0.54839 0.0
H292 H 0.74276 0.34734 0.54648 0.0
H293 H 0.7046 0.2458 0.47785 0.0
H294 H 0.00115 0.20269 0.46426 0.0
H295 H 0.93396 0.25664 0.47693 0.0
C296 C 0.393 0.37356 0.52625 0.0
C297 C 0.39576 0.39738 0.50191 0.0
C298 C 0.35153 0.34115 0.52673 0.0
C299 C 0.2124 0.31348 0.49385 0.0
H300 H 0.24216 0.1942 0.5316 0.0
C301 C 0.09448 0.13536 0.52123 0.0
C302 C 0.05369 0.15655 0.53278 0.0
C303 C 0.13441 0.16311 0.51344 0.0
C304 C 0.23321 0.22712 0.52071 0.0
H305 H 0.35756 0.40562 0.45889 0.0
H306 H 0.2844 0.34908 0.45988 0.0
H307 H 0.31725 0.24449 0.52536 0.0
H308 H 0.02148 0.22296 0.5446 0.0
H309 H 0.09166 0.27174 0.53107 0.0
H310 H 0.12822 0.29646 0.48976 0.0
C311 C 0.31457 0.35558 0.47851 0.0
C312 C 0.27615 0.25603 0.51734 0.0
C313 C 0.35654 0.38767 0.47793 0.0
C314 C 0.05272 0.20593 0.53582 0.0
C315 C 0.09251 0.23376 0.52786 0.0
C316 C 0.16935 0.28471 0.49745 0.0
C317 C 0.31162 0.3322 0.50297 0.0
C318 C 0.26616 0.29975 0.50423 0.0
C319 C 0.13424 0.21252 0.51702 0.0
C320 C 0.17939 0.24152 0.5112 0.0
H321 H 0.42263 0.38026 0.54506 0.0
H322 H 0.34988 0.324 0.54594 0.0
H323 H 0.20361 0.34719 0.48382 0.0
H324 H 0.09621 0.09729 0.51864 0.0
H325 H 0.16582 0.14588 0.5049 0.0
C326 C 0.34654 0.60435 0.48033 0.0
C327 C 0.38963 0.60403 0.50322 0.0
C328 C 0.30414 0.63631 0.4792 0.0
C329 C 0.24188 0.72366 0.52072 0.0
H330 H 0.18746 0.77548 0.44841 0.0
C331 C 0.12385 0.90031 0.49403 0.0
C332 C 0.08281 0.89893 0.47013 0.0
C333 C 0.1535 0.85947 0.50267 0.0
C334 C 0.20164 0.76084 0.46867 0.0
H335 H 0.42186 0.63601 0.54322 0.0
H336 H 0.34897 0.69392 0.54067 0.0
H337 H 0.25669 0.71512 0.45384 0.0
H338 H 0.03596 0.85325 0.43856 0.0
H339 H 0.08772 0.78206 0.4536 0.0
H340 H 0.18804 0.77217 0.53548 0.0
C341 C 0.34709 0.66855 0.52389 0.0
C342 C 0.2413 0.72603 0.47182 0.0
C343 C 0.38908 0.63571 0.52528 0.0
C344 C 0.06808 0.85529 0.45677 0.0
C345 C 0.0976 0.81466 0.46536 0.0
C346 C 0.20254 0.75932 0.51759 0.0
C347 C 0.30443 0.66964 0.50063 0.0
C348 C 0.26178 0.70666 0.49781 0.0
C349 C 0.14229 0.81696 0.48748 0.0
C350 C 0.18189 0.77787 0.49146 0.0
H351 H 0.34539 0.57961 0.46328 0.0
H352 H 0.27125 0.635 0.46134 0.0
H353 H 0.25641 0.70932 0.541 0.0
H354 H 0.13594 0.93361 0.50465 0.0
H355 H 0.18787 0.86207 0.51978 0.0
C356 C 0.01757 0.04157 0.16833 0.0
C357 C 0.05587 0.01526 0.15741 0.0
C358 C 0.01938 0.04289 0.19662 0.0
C359 C 0.10567 0.0246 0.2645 0.0
H360 H 0.97038 -0.00618 0.28615 0.0
C361 C 0.02737 0.9614 0.36676 0.0
C362 C 0.04902 -0.00308 0.38598 0.0
C363 C 0.02941 0.96597 0.33902 0.0
C364 C 0.0084 0.00244 0.28038 0.0
H365 H 0.12742 0.97122 0.16783 0.0
H366 H 0.13101 0.97427 0.2175 0.0
H367 H 0.97314 -0.00124 0.23733 0.0
H368 H 0.09027 0.06473 0.39153 0.0
H369 H 0.09431 0.07256 0.34279 0.0
H370 H 0.14085 0.02809 0.30771 0.0
C371 C 0.09959 -0.00627 0.20399 0.0
C372 C 0.00991 0.00563 0.25251 0.0
C373 C 0.09753 -0.00795 0.17559 0.0
C374 C 0.07299 0.03704 0.37702 0.0
C375 C 0.07568 0.04132 0.34928 0.0
C376 C 0.104 0.02201 0.29246 0.0
C377 C 0.05984 0.01837 0.21466 0.0
C378 C 0.05858 0.01647 0.24431 0.0
C379 C 0.05368 0.00589 0.33005 0.0
C380 C 0.05541 0.01051 0.30059 0.0
H381 H 0.98579 0.06088 0.15498 0.0
H382 H 0.9888 0.0628 0.2044 0.0
H383 H 0.14362 0.0332 0.25865 0.0
H384 H 0.00843 0.93025 0.37317 0.0
H385 H 0.01249 0.93802 0.32461 0.0
C386 C 0.93875 0.00163 0.83506 0.0
C387 C 0.98065 0.02341 0.85433 0.0
C388 C 0.93571 0.00716 0.80681 0.0
C389 C 0.02289 0.02859 0.7582 0.0
H390 H 0.88909 0.05135 0.70563 0.0
C391 C 0.94907 0.06281 0.63458 0.0
C392 C 0.97172 0.02281 0.62416 0.0
C393 C 0.94994 0.06731 0.66281 0.0
C394 C 0.92677 0.0454 0.72014 0.0
H395 H 0.05029 0.0703 0.85904 0.0
H396 H 0.04556 0.07898 0.8098 0.0
H397 H 0.88902 0.05189 0.75509 0.0
H398 H 0.01426 0.95692 0.63482 0.0
H399 H 0.01648 0.96508 0.68415 0.0
H400 H 0.06045 0.02108 0.72335 0.0
C401 C 0.01552 0.05724 0.81658 0.0
C402 C 0.92663 0.04533 0.74833 0.0
C403 C 0.01834 0.05203 0.84475 0.0
C404 C 0.99626 0.98795 0.64239 0.0
C405 C -0.00218 -0.00724 0.67056 0.0
C406 C 0.02288 0.02809 0.73007 0.0
C407 C 0.97467 0.03434 0.79735 0.0
C408 C 0.97467 0.03665 0.76758 0.0
C409 C 0.97434 0.03227 0.681 0.0
C410 C 0.97477 0.0361 0.7108 0.0
H411 H 0.90934 0.97908 0.84175 0.0
H412 H 0.90407 0.9888 0.79237 0.0
H413 H 0.06039 0.02138 0.77259 0.0
H414 H 0.92971 0.09001 0.62083 0.0
H415 H 0.9318 0.09819 0.67044 0.0
C416 C 0.51361 0.54026 0.66765 0.0
C417 C 0.55209 0.51438 0.65663 0.0
C418 C 0.51604 0.54193 0.696 0.0
C419 C 0.60455 0.52583 0.76354 0.0
H420 H 0.47092 0.4945 0.78671 0.0
C421 C 0.53117 0.46374 0.86731 0.0
C422 C 0.55332 0.49956 0.88621 0.0
C423 C 0.53193 0.46798 0.83941 0.0
C424 C 0.50848 0.50329 0.78051 0.0
H425 H 0.62445 0.47129 0.66691 0.0
H426 H 0.62912 0.47496 0.71665 0.0
H427 H 0.47191 0.49847 0.73766 0.0
H428 H 0.59405 0.56762 0.891 0.0
H429 H 0.59581 0.5749 0.84195 0.0
H430 H 0.64107 0.53039 0.80655 0.0
C431 C 0.59709 0.49384 0.70318 0.0
C432 C 0.50897 0.50592 0.75251 0.0
C433 C 0.59442 0.49181 0.67474 0.0
C434 C 0.57642 0.53969 0.87675 0.0
C435 C 0.5778 0.54366 0.84883 0.0
C436 C 0.6039 0.52377 0.79163 0.0
C437 C 0.5573 0.51819 0.71398 0.0
C438 C 0.55704 0.51693 0.74375 0.0
C439 C 0.55536 0.5079 0.82993 0.0
C440 C 0.55593 0.51207 0.80031 0.0
H441 H 0.48129 0.55907 0.65436 0.0
H442 H 0.48538 0.56159 0.70387 0.0
H443 H 0.64204 0.53458 0.75727 0.0
H444 H 0.51287 0.43258 0.8741 0.0
H445 H 0.51471 0.43978 0.82525 0.0
C446 C 0.4353 0.50113 0.3343 0.0
C447 C 0.47666 0.52365 0.35355 0.0
C448 C 0.43259 0.50615 0.30604 0.0
C449 C 0.52062 0.52716 0.25784 0.0
H450 H 0.38755 0.54817 0.20439 0.0
C451 C 0.45019 0.55983 0.13401 0.0
C452 C 0.47369 0.51997 0.12392 0.0
C453 C 0.44987 0.56435 0.16211 0.0
C454 C 0.42501 0.54268 0.21916 0.0
H455 H 0.54554 0.57138 0.35818 0.0
H456 H 0.54142 0.57915 0.30894 0.0
H457 H 0.38626 0.54956 0.25374 0.0
H458 H 0.51638 0.45431 0.13505 0.0
H459 H 0.51654 0.46252 0.18418 0.0
H460 H 0.5592 0.51928 0.22337 0.0
C461 C 0.51156 0.55724 0.31575 0.0
C462 C 0.42419 0.54311 0.24728 0.0
C463 C 0.51403 0.55255 0.34392 0.0
C464 C 0.49775 0.48522 0.14236 0.0
C465 C 0.49813 0.49006 0.17041 0.0
C466 C 0.5213 0.52615 0.22979 0.0
C467 C 0.47136 0.53353 0.29656 0.0
C468 C 0.47199 0.53513 0.26683 0.0
C469 C 0.47391 0.52948 0.18051 0.0
C470 C 0.47347 0.53355 0.21021 0.0
H471 H 0.40613 0.47836 0.34103 0.0
H472 H 0.40144 0.48719 0.29163 0.0
H473 H 0.55794 0.52048 0.27248 0.0
H474 H 0.43117 0.58693 0.12009 0.0
H475 H 0.43118 0.59516 0.16949 0.0
loop_
_geom_bond_atom_site_label_1
_geom_bond_atom_site_label_2
_geom_bond_distance
_geom_bond_site_symmetry_2
_ccdc_geom_bond_type
C0 O16 1.251 . S
C0 O18 1.254 1_554 S
N1 C2 1.333 1_455 S
N1 C6 1.307 . S
N1 Zn7 2.020 . S
C2 N1 1.333 1_655 S
C2 C3 1.379 . S
C2 H20 0.952 1_545 S
C3 C2 1.379 . S
C3 C4 1.390 1_655 S
C3 H30 0.949 1_545 S
C4 C3 1.390 1_455 S
C4 C5 1.357 . S
C5 C4 1.357 . S
C5 C6 1.370 . S
C5 H31 0.950 . S
C6 N1 1.307 . S
C6 C5 1.370 . S
C6 H24 0.948 . S
Zn7 N1 2.020 . S
Zn7 O16 2.039 1_445 S
Zn7 O22 2.034 1_455 S
Zn7 O26 2.025 . S
Zn7 O28 2.024 1_545 S
C8 O27 1.246 1_554 S
C8 O28 1.249 . S
N9 C10 1.307 1_455 S
N9 C11 1.333 . S
N9 Zn15 2.020 . S
C10 N9 1.307 1_655 S
C10 C14 1.370 . S
C10 H21 0.948 1_545 S
C11 N9 1.333 . S
C11 C12 1.379 . S
C11 H19 0.952 . S
C12 C11 1.379 . S
C12 C13 1.390 1_455 S
C12 H32 0.949 . S
C13 C12 1.390 1_655 S
C13 C14 1.357 . S
C14 C10 1.370 . S
C14 C13 1.357 . S
C14 H33 0.950 1_545 S
Zn15 N9 2.020 . S
Zn15 O18 2.025 1_445 S
Zn15 O23 2.024 1_455 S
Zn15 O25 2.039 . S
Zn15 O27 2.034 1_545 S
O16 C0 1.251 . S
O16 Zn7 2.039 1_665 S
C17 O22 1.246 . S
C17 O23 1.249 1_554 S
O18 C0 1.254 1_556 S
O18 Zn15 2.025 1_665 S
H19 C11 0.952 . S
H20 C2 0.952 1_565 S
H21 C10 0.948 1_565 S
O22 Zn7 2.034 1_655 S
O22 C17 1.246 . S
O23 Zn15 2.024 1_655 S
O23 C17 1.249 1_556 S
H24 C6 0.948 . S
O25 Zn15 2.039 . S
O25 C29 1.251 1_556 S
O26 Zn7 2.025 . S
O26 C29 1.254 . S
O27 C8 1.246 1_556 S
O27 Zn15 2.034 1_565 S
O28 Zn7 2.024 1_565 S
O28 C8 1.249 . S
C29 O25 1.251 1_554 S
C29 O26 1.254 . S
H30 C3 0.949 1_565 S
H31 C5 0.950 . S
H32 C12 0.949 . S
H33 C14 0.950 1_565 S
C34 O50 1.251 . S
C34 O52 1.254 . S
N35 C36 1.333 . S
N35 C40 1.307 . S
N35 Zn41 2.020 . S
C36 N35 1.333 . S
C36 C37 1.379 . S
C36 H54 0.952 . S
C37 C36 1.379 . S
C37 C38 1.390 . S
C37 H64 0.949 . S
C38 C37 1.390 . S
C38 C39 1.357 . S
C39 C38 1.357 . S
C39 C40 1.370 . S
C39 H65 0.950 . S
C40 N35 1.307 . S
C40 C39 1.370 . S
C40 H58 0.948 . S
Zn41 N35 2.020 . S
Zn41 O50 2.039 . S
Zn41 O56 2.034 . S
Zn41 O60 2.025 . S
Zn41 O62 2.024 . S
C42 O61 1.246 . S
C42 O62 1.249 . S
N43 C44 1.307 . S
N43 C45 1.333 . S
N43 Zn49 2.020 . S
C44 N43 1.307 . S
C44 C48 1.370 . S
C44 H55 0.948 . S
C45 N43 1.333 . S
C45 C46 1.379 . S
C45 H53 0.952 . S
C46 C45 1.379 . S
C46 C47 1.390 . S
C46 H66 0.949 . S
C47 C46 1.390 . S
C47 C48 1.357 . S
C48 C44 1.370 . S
C48 C47 1.357 . S
C48 H67 0.950 . S
Zn49 N43 2.020 . S
Zn49 O52 2.025 . S
Zn49 O57 2.024 . S
Zn49 O59 2.039 . S
Zn49 O61 2.034 . S
O50 C34 1.251 . S
O50 Zn41 2.039 . S
C51 O56 1.246 . S
C51 O57 1.249 . S
O52 C34 1.254 . S
O52 Zn49 2.025 . S
H53 C45 0.952 . S
H54 C36 0.952 . S
H55 C44 0.948 . S
O56 Zn41 2.034 . S
O56 C51 1.246 . S
O57 Zn49 2.024 . S
O57 C51 1.249 . S
H58 C40 0.948 . S
O59 Zn49 2.039 . S
O59 C63 1.251 . S
O60 Zn41 2.025 . S
O60 C63 1.254 . S
O61 C42 1.246 . S
O61 Zn49 2.034 . S
O62 Zn41 2.024 . S
O62 C42 1.249 . S
C63 O59 1.251 . S
C63 O60 1.254 . S
H64 C37 0.949 . S
H65 C39 0.950 . S
H66 C46 0.949 . S
H67 C48 0.950 . S
H68 C73 0.930 . S
H69 C76 0.930 1_655 S
H70 C78 0.930 . S
H71 C72 1.016 . S
C72 H71 1.016 . S
C72 N79 1.286 . S
C73 H68 0.930 . S
C73 C74 1.397 . S
C73 C75 1.361 1_565 S
C74 C73 1.397 . S
C74 C78 1.390 . S
C75 C73 1.361 1_545 S
C75 C76 1.393 . S
C75 N79 1.413 1_455 S
C76 H69 0.930 1_455 S
C76 C75 1.393 . S
C76 C77 1.399 . S
C77 C76 1.399 . S
C77 C78 1.381 1_545 S
C78 H70 0.930 . S
C78 C74 1.390 . S
C78 C77 1.381 1_565 S
N79 C72 1.286 . S
N79 C75 1.413 1_655 S
H80 C85 0.925 1_565 S
H81 C88 0.930 . S
H82 C90 0.930 . S
H83 C84 1.016 . S
C84 H83 1.016 . S
C84 N91 1.286 . S
C85 H80 0.925 1_545 S
C85 C86 1.387 1_545 S
C85 C87 1.376 1_655 S
C86 C85 1.387 1_565 S
C86 C90 1.390 . S
C87 C85 1.376 1_455 S
C87 C88 1.393 . S
C87 N91 1.413 . S
C88 H81 0.930 . S
C88 C87 1.393 . S
C88 C89 1.399 1_455 S
C89 C88 1.399 1_655 S
C89 C90 1.381 1_545 S
C90 H82 0.930 . S
C90 C86 1.390 . S
C90 C89 1.381 1_565 S
N91 C84 1.286 . S
N91 C87 1.413 . S
H92 C97 0.930 1_554 S
H93 C100 0.930 . S
H94 C102 0.930 . S
H95 C96 1.016 . S
C96 H95 1.016 . S
C96 N103 1.286 . S
C97 H92 0.930 1_556 S
C97 C98 1.397 . S
C97 C99 1.361 . S
C98 C97 1.397 . S
C98 C102 1.390 . S
C99 C97 1.361 . S
C99 C100 1.393 . S
C99 N103 1.413 . S
C100 H93 0.930 . S
C100 C99 1.393 . S
C100 C101 1.399 . S
C101 C100 1.399 . S
C101 C102 1.381 . S
C102 H94 0.930 . S
C102 C98 1.390 . S
C102 C101 1.381 . S
N103 C96 1.286 . S
N103 C99 1.413 . S
H104 C109 0.930 . S
H105 C112 0.930 . S
H106 C114 0.930 . S
H107 C108 1.016 . S
C108 H107 1.016 . S
C108 N115 1.286 . S
C109 H104 0.930 . S
C109 C110 1.397 . S
C109 C111 1.361 . S
C110 C109 1.397 . S
C110 C114 1.390 . S
C111 C109 1.361 . S
C111 C112 1.393 . S
C111 N115 1.413 . S
C112 H105 0.930 . S
C112 C111 1.393 . S
C112 C113 1.399 . S
C113 C112 1.399 . S
C113 C114 1.381 . S
C114 H106 0.930 . S
C114 C110 1.390 . S
C114 C113 1.381 . S
N115 C108 1.286 . S
N115 C111 1.413 . S
C116 C117 1.349 . S
C116 C118 1.327 . S
C116 H141 0.950 . S
C117 C116 1.349 . S
C117 C133 1.349 1_554 S
C118 C116 1.327 . S
C118 C137 1.429 . S
C118 H142 0.950 . S
C119 C136 1.574 . S
C119 C138 1.368 . S
C119 H143 0.949 1_554 S
H120 C124 0.949 . S
C121 C122 1.349 . S
C121 C123 1.327 . S
C121 H144 0.950 . S
C122 C121 1.349 . S
C122 C134 1.349 . S
C123 C121 1.327 . S
C123 C139 1.429 . S
C123 H145 0.950 1_554 S
C124 H120 0.949 . S
C124 C132 1.574 . S
C124 C140 1.368 . S
H125 C133 0.950 . S
H126 C131 0.950 . S
H127 C132 0.949 . S
H128 C134 0.950 . S
H129 C135 0.950 . S
H130 C136 0.949 1_556 S
C131 H126 0.950 . S
C131 C133 1.327 . S
C131 C137 1.429 1_556 S
C132 C124 1.574 . S
C132 H127 0.949 . S
C132 C138 1.368 . S
C133 C117 1.349 1_556 S
C133 H125 0.950 . S
C133 C131 1.327 . S
C134 C122 1.349 . S
C134 H128 0.950 . S
C134 C135 1.327 . S
C135 H129 0.950 . S
C135 C134 1.327 . S
C135 C139 1.429 . S
C136 C119 1.574 . S
C136 H130 0.949 1_554 S
C136 C140 1.368 . S
C137 C118 1.429 . S
C137 C131 1.429 1_554 S
C137 C138 1.523 . S
C138 C119 1.368 . S
C138 C132 1.368 . S
C138 C137 1.523 . S
C139 C123 1.429 . S
C139 C135 1.429 . S
C139 C140 1.523 . S
C140 C124 1.368 . S
C140 C136 1.368 . S
C140 C139 1.523 . S
H141 C116 0.950 . S
H142 C118 0.950 . S
H143 C119 0.949 1_556 S
H144 C121 0.950 . S
H145 C123 0.950 1_556 S
C146 C147 1.349 . S
C146 C148 1.327 . S
C146 H171 0.950 . S
C147 C146 1.349 . S
C147 C163 1.349 1_554 S
C148 C146 1.327 . S
C148 C167 1.429 . S
C148 H172 0.950 . S
C149 C166 1.574 . S
C149 C168 1.368 1_556 S
C149 H173 0.949 . S
H150 C154 0.949 . S
C151 C152 1.349 . S
C151 C153 1.327 . S
C151 H174 0.950 . S
C152 C151 1.349 . S
C152 C164 1.349 1_556 S
C153 C151 1.327 . S
C153 C169 1.429 1_556 S
C153 H175 0.950 . S
C154 H150 0.949 . S
C154 C162 1.574 . S
C154 C170 1.368 . S
H155 C163 0.950 . S
H156 C161 0.950 . S
H157 C162 0.949 . S
H158 C164 0.950 . S
H159 C165 0.950 . S
H160 C166 0.949 . S
C161 H156 0.950 . S
C161 C163 1.327 . S
C161 C167 1.429 1_556 S
C162 C154 1.574 . S
C162 H157 0.949 . S
C162 C168 1.368 . S
C163 C147 1.349 1_556 S
C163 H155 0.950 . S
C163 C161 1.327 . S
C164 C152 1.349 1_554 S
C164 H158 0.950 . S
C164 C165 1.327 . S
C165 H159 0.950 . S
C165 C164 1.327 . S
C165 C169 1.429 . S
C166 C149 1.574 . S
C166 H160 0.949 . S
C166 C170 1.368 1_556 S
C167 C148 1.429 . S
C167 C161 1.429 1_554 S
C167 C168 1.523 . S
C168 C149 1.368 1_554 S
C168 C162 1.368 . S
C168 C167 1.523 . S
C169 C153 1.429 1_554 S
C169 C165 1.429 . S
C169 C170 1.523 . S
C170 C154 1.368 . S
C170 C166 1.368 1_554 S
C170 C169 1.523 . S
H171 C146 0.950 . S
H172 C148 0.950 . S
H173 C149 0.949 . S
H174 C151 0.950 . S
H175 C153 0.950 . S
C176 C177 1.349 1_556 S
C176 C178 1.327 . S
C176 H201 0.950 . S
C177 C176 1.349 1_554 S
C177 C193 1.349 . S
C178 C176 1.327 . S
C178 C197 1.429 1_556 S
C178 H202 0.950 . S
C179 C196 1.574 . S
C179 C198 1.368 . S
C179 H203 0.949 . S
H180 C184 0.949 1_556 S
C181 C182 1.349 . S
C181 C183 1.327 . S
C181 H204 0.950 . S
C182 C181 1.349 . S
C182 C194 1.349 . S
C183 C181 1.327 . S
C183 C199 1.429 . S
C183 H205 0.950 . S
C184 H180 0.949 1_554 S
C184 C192 1.566 1_554 S
C184 C200 1.368 . S
H185 C193 0.950 . S
H186 C191 0.950 . S
H187 C192 0.977 . S
H188 C194 0.950 1_556 S
H189 C195 0.950 1_556 S
H190 C196 0.949 . S
C191 H186 0.950 . S
C191 C193 1.327 . S
C191 C197 1.429 . S
C192 C184 1.566 1_556 S
C192 H187 0.977 . S
C192 C198 1.346 1_556 S
C193 C177 1.349 . S
C193 H185 0.950 . S
C193 C191 1.327 . S
C194 C182 1.349 . S
C194 H188 0.950 1_554 S
C194 C195 1.327 . S
C195 H189 0.950 1_554 S
C195 C194 1.327 . S
C195 C199 1.429 . S
C196 C179 1.574 . S
C196 H190 0.949 . S
C196 C200 1.368 . S
C197 C178 1.429 1_554 S
C197 C191 1.429 . S
C197 C198 1.523 . S
C198 C179 1.368 . S
C198 C192 1.346 1_554 S
C198 C197 1.523 . S
C199 C183 1.429 . S
C199 C195 1.429 . S
C199 C200 1.523 . S
C200 C184 1.368 . S
C200 C196 1.368 . S
C200 C199 1.523 . S
H201 C176 0.950 . S
H202 C178 0.950 . S
H203 C179 0.949 . S
H204 C181 0.950 . S
H205 C183 0.950 . S
C206 C207 1.349 1_556 S
C206 C208 1.327 . S
C206 H231 0.950 . S
C207 C206 1.349 1_554 S
C207 C223 1.349 . S
C208 C206 1.327 . S
C208 C227 1.429 1_556 S
C208 H232 0.950 . S
C209 C226 1.574 . S
C209 C228 1.368 1_554 S
C209 H233 0.949 . S
H210 C214 0.949 . S
C211 C212 1.349 1_554 S
C211 C213 1.327 . S
C211 H234 0.950 . S
C212 C211 1.349 1_556 S
C212 C224 1.349 . S
C213 C211 1.327 . S
C213 C229 1.429 1_554 S
C213 H235 0.950 . S
C214 H210 0.949 . S
C214 C222 1.574 . S
C214 C230 1.368 . S
H215 C223 0.950 . S
H216 C221 0.950 . S
H217 C222 0.949 . S
H218 C224 0.950 . S
H219 C225 0.950 . S
H220 C226 0.949 . S
C221 H216 0.950 . S
C221 C223 1.327 . S
C221 C227 1.429 . S
C222 C214 1.574 . S
C222 H217 0.949 . S
C222 C228 1.368 . S
C223 C207 1.349 . S
C223 H215 0.950 . S
C223 C221 1.327 . S
C224 C212 1.349 . S
C224 H218 0.950 . S
C224 C225 1.327 . S
C225 H219 0.950 . S
C225 C224 1.327 . S
C225 C229 1.429 . S
C226 C209 1.574 . S
C226 H220 0.949 . S
C226 C230 1.368 1_554 S
C227 C208 1.429 1_554 S
C227 C221 1.429 . S
C227 C228 1.523 1_554 S
C228 C209 1.368 1_556 S
C228 C222 1.368 . S
C228 C227 1.523 1_556 S
C229 C213 1.429 1_556 S
C229 C225 1.429 . S
C229 C230 1.523 . S
C230 C214 1.368 . S
C230 C226 1.368 1_556 S
C230 C229 1.523 . S
H231 C206 0.950 . S
H232 C208 0.950 . S
H233 C209 0.949 . S
H234 C211 0.950 . S
H235 C213 0.950 . S
C236 C237 1.349 . S
C236 C238 1.327 . S
C236 H261 0.950 . S
C237 C236 1.349 . S
C237 C253 1.349 . S
C238 C236 1.327 . S
C238 C257 1.429 . S
C238 H262 0.950 . S
C239 C256 1.574 . S
C239 C258 1.368 . S
C239 H263 0.949 . S
H240 C244 0.949 . S
C241 C242 1.349 . S
C241 C243 1.327 . S
C241 H264 0.950 . S
C242 C241 1.349 . S
C242 C254 1.349 . S
C243 C241 1.327 . S
C243 C259 1.429 . S
C243 H265 0.950 . S
C244 H240 0.949 . S
C244 C252 1.574 . S
C244 C260 1.368 . S
H245 C253 0.950 . S
H246 C251 0.950 . S
H247 C252 0.949 . S
H248 C254 0.950 . S
H249 C255 0.950 . S
H250 C256 0.949 . S
C251 H246 0.950 . S
C251 C253 1.327 . S
C251 C257 1.429 . S
C252 C244 1.574 . S
C252 H247 0.949 . S
C252 C258 1.368 . S
C253 C237 1.349 . S
C253 H245 0.950 . S
C253 C251 1.327 . S
C254 C242 1.349 . S
C254 H248 0.950 . S
C254 C255 1.327 . S
C255 H249 0.950 . S
C255 C254 1.327 . S
C255 C259 1.429 . S
C256 C239 1.574 . S
C256 H250 0.949 . S
C256 C260 1.368 . S
C257 C238 1.429 . S
C257 C251 1.429 . S
C257 C258 1.523 . S
C258 C239 1.368 . S
C258 C252 1.368 . S
C258 C257 1.523 . S
C259 C243 1.429 . S
C259 C255 1.429 . S
C259 C260 1.523 . S
C260 C244 1.368 . S
C260 C256 1.368 . S
C260 C259 1.523 . S
H261 C236 0.950 . S
H262 C238 0.950 . S
H263 C239 0.949 . S
H264 C241 0.950 . S
H265 C243 0.950 . S
C266 C267 1.349 . S
C266 C268 1.327 . S
C266 H291 0.950 . S
C267 C266 1.349 . S
C267 C283 1.349 . S
C268 C266 1.327 . S
C268 C287 1.429 . S
C268 H292 0.950 . S
C269 C286 1.574 . S
C269 C288 1.368 . S
C269 H293 0.949 . S
H270 C274 0.949 . S
C271 C272 1.349 . S
C271 C273 1.327 . S
C271 H294 0.950 . S
C272 C271 1.349 . S
C272 C284 1.349 . S
C273 C271 1.327 . S
C273 C289 1.429 . S
C273 H295 0.950 . S
C274 H270 0.949 . S
C274 C282 1.574 . S
C274 C290 1.368 . S
H275 C283 0.950 . S
H276 C281 0.950 . S
H277 C282 0.949 . S
H278 C284 0.950 . S
H279 C285 0.950 . S
H280 C286 0.949 . S
C281 H276 0.950 . S
C281 C283 1.327 . S
C281 C287 1.429 . S
C282 C274 1.574 . S
C282 H277 0.949 . S
C282 C288 1.368 . S
C283 C267 1.349 . S
C283 H275 0.950 . S
C283 C281 1.327 . S
C284 C272 1.349 . S
C284 H278 0.950 . S
C284 C285 1.327 . S
C285 H279 0.950 . S
C285 C284 1.327 . S
C285 C289 1.429 . S
C286 C269 1.574 . S
C286 H280 0.949 . S
C286 C290 1.368 . S
C287 C268 1.429 . S
C287 C281 1.429 . S
C287 C288 1.523 . S
C288 C269 1.368 . S
C288 C282 1.368 . S
C288 C287 1.523 . S
C289 C273 1.429 . S
C289 C285 1.429 . S
C289 C290 1.523 . S
C290 C274 1.368 . S
C290 C286 1.368 . S
C290 C289 1.523 . S
H291 C266 0.950 . S
H292 C268 0.950 . S
H293 C269 0.949 . S
H294 C271 0.950 . S
H295 C273 0.950 . S
C296 C297 1.349 . S
C296 C298 1.327 . S
C296 H321 0.950 . S
C297 C296 1.349 . S
C297 C313 1.349 . S
C298 C296 1.327 . S
C298 C317 1.429 . S
C298 H322 0.950 . S
C299 C316 1.574 . S
C299 C318 1.368 . S
C299 H323 0.949 . S
H300 C304 0.949 . S
C301 C302 1.349 . S
C301 C303 1.327 . S
C301 H324 0.950 . S
C302 C301 1.349 . S
C302 C314 1.349 . S
C303 C301 1.327 . S
C303 C319 1.429 . S
C303 H325 0.950 . S
C304 H300 0.949 . S
C304 C312 1.574 . S
C304 C320 1.368 . S
H305 C313 0.950 . S
H306 C311 0.950 . S
H307 C312 0.949 . S
H308 C314 0.950 . S
H309 C315 0.950 . S
H310 C316 0.949 . S
C311 H306 0.950 . S
C311 C313 1.327 . S
C311 C317 1.429 . S
C312 C304 1.574 . S
C312 H307 0.949 . S
C312 C318 1.368 . S
C313 C297 1.349 . S
C313 H305 0.950 . S
C313 C311 1.327 . S
C314 C302 1.349 . S
C314 H308 0.950 . S
C314 C315 1.327 . S
C315 H309 0.950 . S
C315 C314 1.327 . S
C315 C319 1.429 . S
C316 C299 1.574 . S
C316 H310 0.949 . S
C316 C320 1.368 . S
C317 C298 1.429 . S
C317 C311 1.429 . S
C317 C318 1.523 . S
C318 C299 1.368 . S
C318 C312 1.368 . S
C318 C317 1.523 . S
C319 C303 1.429 . S
C319 C315 1.429 . S
C319 C320 1.523 . S
C320 C304 1.368 . S
C320 C316 1.368 . S
C320 C319 1.523 . S
H321 C296 0.950 . S
H322 C298 0.950 . S
H323 C299 0.949 . S
H324 C301 0.950 . S
H325 C303 0.950 . S
C326 C327 1.349 . S
C326 C328 1.327 . S
C326 H351 0.950 . S
C327 C326 1.349 . S
C327 C343 1.349 . S
C328 C326 1.327 . S
C328 C347 1.429 . S
C328 H352 0.950 . S
C329 C346 1.574 . S
C329 C348 1.368 . S
C329 H353 0.949 . S
H330 C334 0.949 . S
C331 C332 1.349 . S
C331 C333 1.327 . S
C331 H354 0.950 . S
C332 C331 1.349 . S
C332 C344 1.349 . S
C333 C331 1.327 . S
C333 C349 1.429 . S
C333 H355 0.950 . S
C334 H330 0.949 . S
C334 C342 1.574 . S
C334 C350 1.368 . S
H335 C343 0.950 . S
H336 C341 0.950 . S
H337 C342 0.949 . S
H338 C344 0.950 . S
H339 C345 0.950 . S
H340 C346 0.949 . S
C341 H336 0.950 . S
C341 C343 1.327 . S
C341 C347 1.429 . S
C342 C334 1.574 . S
C342 H337 0.949 . S
C342 C348 1.368 . S
C343 C327 1.349 . S
C343 H335 0.950 . S
C343 C341 1.327 . S
C344 C332 1.349 . S
C344 H338 0.950 . S
C344 C345 1.327 . S
C345 H339 0.950 . S
C345 C344 1.327 . S
C345 C349 1.429 . S
C346 C329 1.574 . S
C346 H340 0.949 . S
C346 C350 1.368 . S
C347 C328 1.429 . S
C347 C341 1.429 . S
C347 C348 1.523 . S
C348 C329 1.368 . S
C348 C342 1.368 . S
C348 C347 1.523 . S
C349 C333 1.429 . S
C349 C345 1.429 . S
C349 C350 1.523 . S
C350 C334 1.368 . S
C350 C346 1.368 . S
C350 C349 1.523 . S
H351 C326 0.950 . S
H352 C328 0.950 . S
H353 C329 0.949 . S
H354 C331 0.950 . S
H355 C333 0.950 . S
C356 C357 1.349 . S
C356 C358 1.327 . S
C356 H381 0.950 1_455 S
C357 C356 1.349 . S
C357 C373 1.349 1_545 S
C358 C356 1.327 . S
C358 C377 1.429 . S
C358 H382 0.950 1_455 S
C359 C376 1.574 . S
C359 C378 1.368 1_565 S
C359 H383 0.949 . S
H360 C364 0.949 1_655 S
C361 C362 1.349 1_565 S
C361 C363 1.327 . S
C361 H384 0.950 . S
C362 C361 1.349 1_545 S
C362 C374 1.349 . S
C363 C361 1.327 . S
C363 C379 1.429 1_565 S
C363 H385 0.950 . S
C364 H360 0.949 1_455 S
C364 C372 1.574 . S
C364 C380 1.368 . S
H365 C373 0.950 . S
H366 C371 0.950 . S
H367 C372 0.949 1_655 S
H368 C374 0.950 1_655 S
H369 C375 0.950 1_655 S
H370 C376 0.949 . S
C371 H366 0.950 . S
C371 C373 1.327 . S
C371 C377 1.429 1_565 S
C372 C364 1.574 . S
C372 H367 0.949 1_455 S
C372 C378 1.368 . S
C373 C357 1.349 1_565 S
C373 H365 0.950 . S
C373 C371 1.327 . S
C374 C362 1.349 . S
C374 H368 0.950 1_455 S
C374 C375 1.327 . S
C375 H369 0.950 1_455 S
C375 C374 1.327 . S
C375 C379 1.429 . S
C376 C359 1.574 . S
C376 H370 0.949 . S
C376 C380 1.368 1_565 S
C377 C358 1.429 . S
C377 C371 1.429 1_545 S
C377 C378 1.523 . S
C378 C359 1.368 1_545 S
C378 C372 1.368 . S
C378 C377 1.523 . S
C379 C363 1.429 1_545 S
C379 C375 1.429 . S
C379 C380 1.523 . S
C380 C364 1.368 . S
C380 C376 1.368 1_545 S
C380 C379 1.523 . S
H381 C356 0.950 1_655 S
H382 C358 0.950 1_655 S
H383 C359 0.949 . S
H384 C361 0.950 . S
H385 C363 0.950 . S
C386 C387 1.349 1_565 S
C386 C388 1.327 . S
C386 H411 0.950 . S
C387 C386 1.349 1_545 S
C387 C403 1.349 1_655 S
C388 C386 1.327 . S
C388 C407 1.429 1_565 S
C388 H412 0.950 . S
C389 C406 1.574 . S
C389 C408 1.368 1_455 S
C389 H413 0.949 . S
H390 C394 0.949 . S
C391 C392 1.349 1_455 S
C391 C393 1.327 . S
C391 H414 0.950 . S
C392 C391 1.349 1_655 S
C392 C404 1.349 1_545 S
C393 C391 1.327 . S
C393 C409 1.429 1_455 S
C393 H415 0.950 . S
C394 H390 0.949 . S
C394 C402 1.574 . S
C394 C410 1.368 1_565 S
H395 C403 0.950 . S
H396 C401 0.950 . S
H397 C402 0.949 . S
H398 C404 0.950 . S
H399 C405 0.950 . S
H400 C406 0.949 . S
C401 H396 0.950 . S
C401 C403 1.327 . S
C401 C407 1.429 1_455 S
C402 C394 1.574 . S
C402 H397 0.949 . S
C402 C408 1.368 1_565 S
C403 C387 1.349 1_455 S
C403 H395 0.950 . S
C403 C401 1.327 . S
C404 C392 1.349 1_565 S
C404 H398 0.950 . S
C404 C405 1.327 . S
C405 H399 0.950 . S
C405 C404 1.327 . S
C405 C409 1.429 1_565 S
C406 C389 1.574 . S
C406 H400 0.949 . S
C406 C410 1.368 1_455 S
C407 C388 1.429 1_545 S
C407 C401 1.429 1_655 S
C407 C408 1.523 . S
C408 C389 1.368 1_655 S
C408 C402 1.368 1_545 S
C408 C407 1.523 . S
C409 C393 1.429 1_655 S
C409 C405 1.429 1_545 S
C409 C410 1.523 . S
C410 C394 1.368 1_545 S
C410 C406 1.368 1_655 S
C410 C409 1.523 . S
H411 C386 0.950 . S
H412 C388 0.950 . S
H413 C389 0.949 . S
H414 C391 0.950 . S
H415 C393 0.950 . S
C416 C417 1.349 . S
C416 C418 1.327 . S
C416 H441 0.950 . S
C417 C416 1.349 . S
C417 C433 1.349 . S
C418 C416 1.327 . S
C418 C437 1.429 . S
C418 H442 0.950 . S
C419 C436 1.574 . S
C419 C438 1.368 . S
C419 H443 0.949 . S
H420 C424 0.949 . S
C421 C422 1.349 . S
C421 C423 1.327 . S
C421 H444 0.950 . S
C422 C421 1.349 . S
C422 C434 1.349 . S
C423 C421 1.327 . S
C423 C439 1.429 . S
C423 H445 0.950 . S
C424 H420 0.949 . S
C424 C432 1.574 . S
C424 C440 1.368 . S
H425 C433 0.950 . S
H426 C431 0.950 . S
H427 C432 0.949 . S
H428 C434 0.950 . S
H429 C435 0.950 . S
H430 C436 0.949 . S
C431 H426 0.950 . S
C431 C433 1.327 . S
C431 C437 1.429 . S
C432 C424 1.574 . S
C432 H427 0.949 . S
C432 C438 1.368 . S
C433 C417 1.349 . S
C433 H425 0.950 . S
C433 C431 1.327 . S
C434 C422 1.349 . S
C434 H428 0.950 . S
C434 C435 1.327 . S
C435 H429 0.950 . S
C435 C434 1.327 . S
C435 C439 1.429 . S
C436 C419 1.574 . S
C436 H430 0.949 . S
C436 C440 1.368 . S
C437 C418 1.429 . S
C437 C431 1.429 . S
C437 C438 1.523 . S
C438 C419 1.368 . S
C438 C432 1.368 . S
C438 C437 1.523 . S
C439 C423 1.429 . S
C439 C435 1.429 . S
C439 C440 1.523 . S
C440 C424 1.368 . S
C440 C436 1.368 . S
C440 C439 1.523 . S
H441 C416 0.950 . S
H442 C418 0.950 . S
H443 C419 0.949 . S
H444 C421 0.950 . S
H445 C423 0.950 . S
C446 C447 1.349 . S
C446 C448 1.327 . S
C446 H471 0.950 . S
C447 C446 1.349 . S
C447 C463 1.349 . S
C448 C446 1.327 . S
C448 C467 1.429 . S
C448 H472 0.950 . S
C449 C466 1.574 . S
C449 C468 1.368 . S
C449 H473 0.949 . S
H450 C454 0.949 . S
C451 C452 1.349 . S
C451 C453 1.327 . S
C451 H474 0.950 . S
C452 C451 1.349 . S
C452 C464 1.349 . S
C453 C451 1.327 . S
C453 C469 1.429 . S
C453 H475 0.950 . S
C454 H450 0.949 . S
C454 C462 1.574 . S
C454 C470 1.368 . S
H455 C463 0.950 . S
H456 C461 0.950 . S
H457 C462 0.949 . S
H458 C464 0.950 . S
H459 C465 0.950 . S
H460 C466 0.949 . S
C461 H456 0.950 . S
C461 C463 1.327 . S
C461 C467 1.429 . S
C462 C454 1.574 . S
C462 H457 0.949 . S
C462 C468 1.368 . S
C463 C447 1.349 . S
C463 H455 0.950 . S
C463 C461 1.327 . S
C464 C452 1.349 . S
C464 H458 0.950 . S
C464 C465 1.327 . S
C465 H459 0.950 . S
C465 C464 1.327 . S
C465 C469 1.429 . S
C466 C449 1.574 . S
C466 H460 0.949 . S
C466 C470 1.368 . S
C467 C448 1.429 . S
C467 C461 1.429 . S
C467 C468 1.523 . S
C468 C449 1.368 . S
C468 C462 1.368 . S
C468 C467 1.523 . S
C469 C453 1.429 . S
C469 C465 1.429 . S
C469 C470 1.523 . S
C470 C454 1.368 . S
C470 C466 1.368 . S
C470 C469 1.523 . S
H471 C446 0.950 . S
H472 C448 0.950 . S
H473 C449 0.949 . S
H474 C451 0.950 . S
H475 C453 0.950 . S
C122 C110 1.438 . S
C117 C29 1.468 . S
C147 C8 1.349 . S
C152 C96 1.303 . S
C177 C0 1.357 . S
C182 C108 1.312 . S
C207 C17 1.472 . S
C212 C98 1.445 . S
C237 C63 1.468 . S
C242 C86 1.438 . S
C267 C42 1.349 . S
C272 C72 1.303 . S
C302 C84 1.312 . S
C297 C34 1.357 . S
C332 C74 1.445 . S
C327 C51 1.472 . S
C357 C4 1.519 . S
C362 C77 1.515 . S
C387 C13 1.512 . S
C392 C89 1.507 . S
C422 C101 1.515 . S
C417 C38 1.519 . S
C447 C47 1.512 . S
C452 C113 1.507 . S
