# Generated by pormake.
# Topology pyr, (3,6)-cn, num edge types: 1
# Building blocks:
#     Node 0, Type 0, BuildingBlock: CUQRIR_clean_linker_1, # of connection points: 3
#     Node 1, Type 0, BuildingBlock: CUQRIR_clean_linker_1, # of connection points: 3
#     Node 2, Type 0, BuildingBlock: CUQRIR_clean_linker_1, # of connection points: 3
#     Node 3, Type 0, BuildingBlock: CUQRIR_clean_linker_1, # of connection points: 3
#     Node 4, Type 0, BuildingBlock: CUQRIR_clean_linker_1, # of connection points: 3
#     Node 5, Type 0, BuildingBlock: CUQRIR_clean_linker_1, # of connection points: 3
#     Node 6, Type 0, BuildingBlock: CUQRIR_clean_linker_1, # of connection points: 3
#     Node 7, Type 0, BuildingBlock: CUQRIR_clean_linker_1, # of connection points: 3
#     Node 8, Type 1, BuildingBlock: MIFKUJ_clean_sbu_0, # of connection points: 6
#     Node 9, Type 1, BuildingBlock: MIFKUJ_clean_sbu_0, # of connection points: 6
#     Node 10, Type 1, BuildingBlock: MIFKUJ_clean_sbu_0, # of connection points: 6
#     Node 11, Type 1, BuildingBlock: MIFKUJ_clean_sbu_0, # of connection points: 6
#     Edge 12, Type (0, 1), BuildingBlock: OJICUG_clean_linker_0, # of connection points: 2
#     Edge 13, Type (0, 1), BuildingBlock: OJICUG_clean_linker_0, # of connection points: 2
#     Edge 14, Type (0, 1), BuildingBlock: OJICUG_clean_linker_0, # of connection points: 2
#     Edge 15, Type (0, 1), BuildingBlock: OJICUG_clean_linker_0, # of connection points: 2
#     Edge 16, Type (0, 1), BuildingBlock: OJICUG_clean_linker_0, # of connection points: 2
#     Edge 17, Type (0, 1), BuildingBlock: OJICUG_clean_linker_0, # of connection points: 2
#     Edge 18, Type (0, 1), BuildingBlock: OJICUG_clean_linker_0, # of connection points: 2
#     Edge 19, Type (0, 1), BuildingBlock: OJICUG_clean_linker_0, # of connection points: 2
#     Edge 20, Type (0, 1), BuildingBlock: OJICUG_clean_linker_0, # of connection points: 2
#     Edge 21, Type (0, 1), BuildingBlock: OJICUG_clean_linker_0, # of connection points: 2
#     Edge 22, Type (0, 1), BuildingBlock: OJICUG_clean_linker_0, # of connection points: 2
#     Edge 23, Type (0, 1), BuildingBlock: OJICUG_clean_linker_0, # of connection points: 2
#     Edge 24, Type (0, 1), BuildingBlock: OJICUG_clean_linker_0, # of connection points: 2
#     Edge 25, Type (0, 1), BuildingBlock: OJICUG_clean_linker_0, # of connection points: 2
#     Edge 26, Type (0, 1), BuildingBlock: OJICUG_clean_linker_0, # of connection points: 2
#     Edge 27, Type (0, 1), BuildingBlock: OJICUG_clean_linker_0, # of connection points: 2
#     Edge 28, Type (0, 1), BuildingBlock: OJICUG_clean_linker_0, # of connection points: 2
#     Edge 29, Type (0, 1), BuildingBlock: OJICUG_clean_linker_0, # of connection points: 2
#     Edge 30, Type (0, 1), BuildingBlock: OJICUG_clean_linker_0, # of connection points: 2
#     Edge 31, Type (0, 1), BuildingBlock: OJICUG_clean_linker_0, # of connection points: 2
#     Edge 32, Type (0, 1), BuildingBlock: OJICUG_clean_linker_0, # of connection points: 2
#     Edge 33, Type (0, 1), BuildingBlock: OJICUG_clean_linker_0, # of connection points: 2
#     Edge 34, Type (0, 1), BuildingBlock: OJICUG_clean_linker_0, # of connection points: 2
#     Edge 35, Type (0, 1), BuildingBlock: OJICUG_clean_linker_0, # of connection points: 2
# Relax obj value: 0.106
# Max RMSD: 0.229
# Mean RMSD: 0.152
data_MOF--net-pyr--node1-MIFKUJ_clean_sbu_0--node2-CUQRIR_clean_linker_1--edge1-OJICUG_clean_linker_0
_symmetry_space_group_name_H-M    P1
_symmetry_Int_Tables_number       1
_symmetry_cell_setting            triclinic
loop_
_symmetry_equiv_pos_as_xyz
'x, y, z'
_cell_length_a     26.408283
_cell_length_b     23.936525
_cell_length_c     24.159657
_cell_angle_alpha  82.105462
_cell_angle_beta   89.042144
_cell_angle_gamma 101.51638
loop_
_atom_site_label
_atom_site_type_symbol
_atom_site_fract_x
_atom_site_fract_y
_atom_site_fract_z
_atom_type_partial_charge
C0 C 0.17863 0.19636 0.21961 0.0
N1 N 0.20739 0.15593 0.23175 0.0
N2 N 0.19723 0.23178 0.17213 0.0
C3 C 0.1348 0.20392 0.25687 0.0
C4 C 0.23935 0.21215 0.15653 0.0
N5 N 0.24591 0.16607 0.19328 0.0
C6 C 0.27124 0.23492 0.10306 0.0
H7 H 0.09821 0.17719 0.24543 0.0
H8 H 0.13083 0.24957 0.25217 0.0
H9 H 0.14087 0.18962 0.30148 0.0
H10 H 0.30423 0.26902 0.11126 0.0
H11 H 0.2479 0.25396 0.07065 0.0
H12 H 0.28683 0.2002 0.08697 0.0
C13 C 0.31309 0.81299 0.67506 0.0
N14 N 0.30874 0.84937 0.71215 0.0
N15 N 0.35665 0.79175 0.68278 0.0
C16 C 0.27464 0.79842 0.63133 0.0
C17 C 0.37876 0.81679 0.72579 0.0
N18 N 0.34978 0.85219 0.74327 0.0
C19 C 0.42923 0.8077 0.74987 0.0
H20 H 0.23513 0.80054 0.64602 0.0
H21 H 0.27446 0.75477 0.62062 0.0
H22 H 0.28535 0.83033 0.59301 0.0
H23 H 0.45546 0.79875 0.71734 0.0
H24 H 0.4213 0.77014 0.7835 0.0
H25 H 0.44907 0.8456 0.76837 0.0
C26 C 0.60596 0.31863 0.81794 0.0
N27 N 0.63632 0.30975 0.86159 0.0
N28 N 0.62285 0.37157 0.78832 0.0
C29 C 0.5575 0.27734 0.80673 0.0
C30 C 0.66427 0.39489 0.81592 0.0
N31 N 0.67206 0.35759 0.86094 0.0
C32 C 0.69976 0.45197 0.79619 0.0
H33 H 0.56775 0.24679 0.77992 0.0
H34 H 0.52955 0.30058 0.7848 0.0
H35 H 0.53869 0.25214 0.84632 0.0
H36 H 0.68715 0.48566 0.81714 0.0
H37 H 0.69866 0.46398 0.75028 0.0
H38 H 0.74022 0.45083 0.80711 0.0
C39 C 0.83943 0.62245 0.26867 0.0
N40 N 0.88681 0.65595 0.25441 0.0
N41 N 0.81266 0.64721 0.30308 0.0
C42 C 0.81949 0.56545 0.24881 0.0
C43 C 0.84482 0.69724 0.3088 0.0
N44 N 0.88974 0.70328 0.27851 0.0
C45 C 0.83279 0.74011 0.34473 0.0
H46 H 0.7784 0.54756 0.26193 0.0
H47 H 0.84289 0.53405 0.26619 0.0
H48 H 0.82403 0.57051 0.20253 0.0
H49 H 0.86413 0.74947 0.3742 0.0
H50 H 0.79533 0.72472 0.36872 0.0
H51 H 0.83117 0.78106 0.31773 0.0
C52 C 0.81291 0.84362 0.83588 0.0
N53 N 0.85175 0.83765 0.80144 0.0
N54 N 0.79602 0.89246 0.81784 0.0
C55 C 0.79475 0.80454 0.88986 0.0
C56 C 0.8265 0.91634 0.77154 0.0
N57 N 0.86072 0.88319 0.76194 0.0
C58 C 0.82138 0.97047 0.73435 0.0
H59 H 0.76302 0.76923 0.88126 0.0
H60 H 0.77998 0.82829 0.92082 0.0
H61 H 0.82651 0.78506 0.90829 0.0
H62 H 0.84868 0.00744 0.74735 0.0
H63 H 0.78151 0.97834 0.73771 0.0
H64 H 0.83141 0.96789 0.6901 0.0
C65 C 0.76119 0.2219 0.39046 0.0
N66 N 0.76862 0.17966 0.36077 0.0
N67 N 0.7176 0.24095 0.37516 0.0
C68 C 0.79791 0.24709 0.43165 0.0
C69 C 0.69859 0.20857 0.33572 0.0
N70 N 0.72966 0.17198 0.32668 0.0
C71 C 0.64805 0.21069 0.30791 0.0
H72 H 0.78737 0.22193 0.47377 0.0
H73 H 0.79548 0.29252 0.43368 0.0
H74 H 0.83827 0.24498 0.42014 0.0
H75 H 0.65502 0.2452 0.27134 0.0
H76 H 0.61927 0.2204 0.33721 0.0
H77 H 0.63121 0.1698 0.29255 0.0
C78 C 0.32826 0.62352 0.23316 0.0
N79 N 0.37669 0.65402 0.23826 0.0
N80 N 0.30062 0.6557 0.20039 0.0
C81 C 0.30809 0.56217 0.25982 0.0
C82 C 0.33336 0.70683 0.18613 0.0
N83 N 0.37928 0.70634 0.20985 0.0
C84 C 0.32128 0.75661 0.14697 0.0
H85 H 0.32388 0.53283 0.23563 0.0
H86 H 0.26537 0.55008 0.26047 0.0
H87 H 0.32092 0.5555 0.3033 0.0
H88 H 0.33721 0.79798 0.1621 0.0
H89 H 0.279 0.75257 0.14264 0.0
H90 H 0.33986 0.75767 0.10519 0.0
C91 C 0.12005 0.35819 0.73183 0.0
N92 N 0.15845 0.34835 0.69867 0.0
N93 N 0.13608 0.40695 0.75473 0.0
C94 C 0.06919 0.31703 0.74712 0.0
C95 C 0.18555 0.42616 0.73493 0.0
N96 N 0.1993 0.39055 0.70117 0.0
C97 C 0.22019 0.48037 0.74787 0.0
H98 H 0.04094 0.32622 0.7154 0.0
H99 H 0.05346 0.32201 0.78862 0.0
H100 H 0.07348 0.27177 0.74783 0.0
H101 H 0.24348 0.46937 0.78405 0.0
H102 H 0.19715 0.51166 0.75876 0.0
H103 H 0.24718 0.50067 0.7117 0.0
Zn104 Zn 0.10547 0.03633 0.55929 0.0
Zn105 Zn 0.99439 0.9752 0.43973 0.0
C106 C 0.14694 0.13914 0.60371 0.0
O107 O 0.18844 0.11709 0.60041 0.0
C108 C 0.00574 0.87788 0.37905 0.0
O109 O 0.04218 0.87034 0.414 0.0
O110 O 0.15579 0.9979 0.60385 0.0
O111 O 0.03536 0.98205 0.56211 0.0
O112 O 0.97109 0.93574 0.51819 0.0
C113 C 0.15011 0.97019 0.65305 0.0
O114 O 0.10544 0.96161 0.68087 0.0
O115 O 0.10423 0.112 0.5881 0.0
C116 C 0.93137 0.05049 0.37697 0.0
O117 O 0.9493 0.03458 0.33185 0.0
O118 O 0.94691 0.03258 0.42446 0.0
O119 O 0.0697 0.01531 0.43698 0.0
O120 O 0.13725 0.05374 0.48111 0.0
O121 O 0.98163 0.91842 0.3829 0.0
C122 C 0.99144 0.94805 0.5636 0.0
C123 C 0.117 0.04051 0.43611 0.0
Zn124 Zn 0.53842 0.96988 0.98252 0.0
Zn125 Zn 0.51896 0.04503 0.1269 0.0
C126 C 0.43737 0.93498 0.93372 0.0
O127 O 0.42133 0.90907 0.98429 0.0
C128 C 0.61846 0.05566 0.17254 0.0
O129 O 0.63188 0.0523 0.1207 0.0
O130 O 0.59767 0.94364 0.94708 0.0
O131 O 0.56085 0.05346 0.98917 0.0
O132 O 0.55287 0.10111 0.05987 0.0
C133 C 0.64174 0.97592 0.9336 0.0
O134 O 0.65131 0.02867 0.94582 0.0
O135 O 0.48363 0.96322 0.92535 0.0
C136 C 0.40997 0.04573 0.16269 0.0
O137 O 0.39985 0.99014 0.16023 0.0
O138 O 0.45587 0.07445 0.15123 0.0
O139 O 0.50255 0.95921 0.12457 0.0
O140 O 0.5134 0.91394 0.0523 0.0
O141 O 0.57128 0.05383 0.18579 0.0
C142 C 0.5681 0.10013 0.00995 0.0
C143 C 0.50021 0.91303 0.10334 0.0
Zn144 Zn 0.53823 0.46935 0.46716 0.0
Zn145 Zn 0.48038 0.54515 0.53926 0.0
C146 C 0.61161 0.54478 0.39917 0.0
O147 O 0.57868 0.52049 0.36507 0.0
C148 C 0.4044 0.46511 0.60754 0.0
O149 O 0.43874 0.4826 0.64349 0.0
O150 O 0.56512 0.40685 0.43463 0.0
O151 O 0.52595 0.43836 0.54976 0.0
O152 O 0.54031 0.52234 0.57944 0.0
C153 C 0.60219 0.39069 0.46129 0.0
O154 O 0.61628 0.41195 0.50724 0.0
O155 O 0.60146 0.53256 0.45167 0.0
C156 C 0.43367 0.63939 0.5563 0.0
O157 O 0.41719 0.63356 0.50603 0.0
O158 O 0.46298 0.60737 0.57839 0.0
O159 O 0.49116 0.57842 0.45801 0.0
O160 O 0.48183 0.49789 0.42099 0.0
O161 O 0.41481 0.48304 0.55569 0.0
C162 C 0.54266 0.46955 0.58664 0.0
C163 C 0.47961 0.55107 0.41701 0.0
Zn164 Zn 0.93975 0.54511 0.95657 0.0
Zn165 Zn 0.04199 0.49655 0.05323 0.0
C166 C 0.86535 0.43709 0.94964 0.0
O167 O 0.90533 0.42 0.92963 0.0
C168 C 0.10471 0.56325 0.1205 0.0
O169 O 0.07065 0.53006 0.1573 0.0
O170 O 0.92057 0.60876 0.90366 0.0
O171 O 0.95789 0.58139 0.02761 0.0
O172 O 0.97651 0.51123 0.08816 0.0
C173 C 0.95035 0.65703 0.88706 0.0
O174 O 0.99776 0.66714 0.90442 0.0
O175 O 0.87237 0.48565 0.9674 0.0
C176 C 0.11013 0.42315 0.08034 0.0
O177 O 0.13927 0.46678 0.04808 0.0
O178 O 0.06299 0.42459 0.09103 0.0
O179 O 0.04708 0.48846 0.9726 0.0
O180 O 0.99205 0.51632 0.91229 0.0
O181 O 0.09902 0.55997 0.0689 0.0
C182 C 0.9655 0.56091 0.07759 0.0
C183 C 0.03138 0.49459 0.92334 0.0
C184 C 0.15137 0.06986 0.28111 0.0
C185 C 0.19709 0.11174 0.27924 0.0
H186 H 0.08946 0.01464 0.33247 0.0
C187 C 0.22118 0.12199 0.32905 0.0
H188 H 0.13197 0.06233 0.24288 0.0
C189 C 0.19672 0.09555 0.38047 0.0
C190 C 0.1477 0.05868 0.38253 0.0
H191 H 0.25588 0.15508 0.32828 0.0
H192 H 0.21437 0.10753 0.41842 0.0
C193 C 0.12667 0.04359 0.33235 0.0
C194 C 0.34007 0.85746 0.84298 0.0
C195 C 0.36014 0.88357 0.78957 0.0
H196 H 0.34854 0.85376 0.93129 0.0
C197 C 0.39964 0.93288 0.78392 0.0
H198 H 0.30998 0.81886 0.84771 0.0
C199 C 0.42239 0.95251 0.83132 0.0
C200 C 0.4057 0.92306 0.88506 0.0
H201 H 0.41581 0.95291 0.74279 0.0
H202 H 0.45523 0.98834 0.82566 0.0
C203 C 0.3625 0.87722 0.89055 0.0
C204 C 0.59392 0.36503 0.69252 0.0
C205 C 0.60272 0.39619 0.73778 0.0
H206 H 0.5673 0.36332 0.60952 0.0
C207 C 0.59156 0.45145 0.73324 0.0
H208 H 0.60289 0.32259 0.69498 0.0
C209 C 0.57221 0.4754 0.68406 0.0
C210 C 0.56309 0.44415 0.63872 0.0
H211 H 0.59755 0.47586 0.76796 0.0
H212 H 0.56398 0.51819 0.68179 0.0
C213 C 0.57387 0.38854 0.64361 0.0
C214 C 0.92149 0.67065 0.15766 0.0
C215 C 0.9221 0.6447 0.21326 0.0
H216 H 0.93442 0.66463 0.07106 0.0
C217 C 0.94341 0.59528 0.22423 0.0
H218 H 0.90394 0.70786 0.14818 0.0
C219 C 0.95942 0.56925 0.18035 0.0
C220 C 0.95499 0.5925 0.12431 0.0
H221 H 0.94312 0.57387 0.26678 0.0
H222 H 0.97248 0.52913 0.19049 0.0
C223 C 0.93793 0.645 0.11359 0.0
C224 C 0.27613 0.07476 0.19213 0.0
C225 C 0.28708 0.13465 0.19159 0.0
H226 H 0.3063 0.99947 0.18334 0.0
C227 C 0.33879 0.16442 0.18527 0.0
H228 H 0.23649 0.05103 0.19655 0.0
C229 C 0.3787 0.13537 0.17719 0.0
C230 C 0.36782 0.07565 0.17553 0.0
H231 H 0.34814 0.21053 0.18546 0.0
H232 H 0.418 0.16001 0.17117 0.0
C233 C 0.31611 0.04548 0.18417 0.0
C234 C 0.28308 0.93652 0.66825 0.0
C235 C 0.27321 0.88751 0.70875 0.0
H236 H 0.25165 0.00132 0.61884 0.0
C237 C 0.22421 0.86955 0.73592 0.0
H238 H 0.32059 0.95 0.64634 0.0
C239 C 0.18441 0.89851 0.72026 0.0
C240 C 0.19325 0.94515 0.6766 0.0
H241 H 0.21603 0.83095 0.76646 0.0
H242 H 0.14614 0.88223 0.73983 0.0
C243 C 0.24346 0.96512 0.65218 0.0
C244 C 0.72173 0.41262 0.92754 0.0
C245 C 0.71502 0.36635 0.89674 0.0
H246 H 0.77439 0.47079 0.96962 0.0
C247 C 0.75556 0.33723 0.89179 0.0
H248 H 0.69083 0.43577 0.93128 0.0
C249 C 0.8038 0.3575 0.91302 0.0
C250 C 0.81204 0.40718 0.93963 0.0
H251 H 0.75111 0.30186 0.86754 0.0
H252 H 0.83544 0.33654 0.90526 0.0
C253 C 0.76968 0.43271 0.9491 0.0
C254 C 0.75493 0.60786 0.386 0.0
C255 C 0.76185 0.62533 0.32812 0.0
H256 H 0.70116 0.56935 0.45462 0.0
C257 C 0.719 0.62073 0.29461 0.0
H258 H 0.788 0.61144 0.41215 0.0
C259 C 0.66969 0.59686 0.31841 0.0
C260 C 0.66255 0.57759 0.37623 0.0
H261 H 0.72406 0.63457 0.24991 0.0
H262 H 0.6373 0.59226 0.2913 0.0
C263 C 0.70547 0.58434 0.41008 0.0
C264 C 0.12271 0.27168 0.13739 0.0
C265 C 0.17611 0.27902 0.14535 0.0
H266 H 0.05959 0.3119 0.11203 0.0
C267 C 0.20774 0.3337 0.13058 0.0
H268 H 0.09775 0.2296 0.1477 0.0
C269 C 0.18619 0.38046 0.10898 0.0
C270 C 0.13249 0.37347 0.10288 0.0
H271 H 0.24885 0.34048 0.13708 0.0
H272 H 0.21143 0.42237 0.09827 0.0
C273 C 0.10094 0.31863 0.11713 0.0
C274 C 0.62701 0.20505 0.8827 0.0
C275 C 0.62973 0.25828 0.90164 0.0
H276 H 0.60465 0.11365 0.90141 0.0
C277 C 0.61728 0.25959 0.958 0.0
H278 H 0.63653 0.20342 0.83926 0.0
C279 C 0.59903 0.20809 0.99412 0.0
C280 C 0.59288 0.1546 0.97417 0.0
H281 H 0.61872 0.30041 0.97308 0.0
H282 H 0.58775 0.21034 0.03693 0.0
C283 C 0.60856 0.15378 0.91839 0.0
C284 C 0.97035 0.73519 0.32349 0.0
C285 C 0.93455 0.7473 0.28363 0.0
H286 H 0.02108 0.76722 0.38548 0.0
C287 C 0.93131 0.80502 0.26702 0.0
H288 H 0.97277 0.69091 0.33767 0.0
C289 C 0.95716 0.8485 0.29572 0.0
C290 C 0.98807 0.83523 0.3405 0.0
H291 H 0.90342 0.81519 0.23687 0.0
H292 H 0.95007 0.89168 0.2854 0.0
C293 C 0.99712 0.77884 0.3516 0.0
C294 C 0.38108 0.76587 0.59234 0.0
C295 C 0.3763 0.75374 0.65091 0.0
H296 H 0.40267 0.73849 0.51613 0.0
C297 C 0.39122 0.70442 0.67815 0.0
H298 H 0.37061 0.80432 0.57069 0.0
C299 C 0.41106 0.66789 0.64732 0.0
C300 C 0.41507 0.67949 0.58866 0.0
H301 H 0.3871 0.69399 0.72324 0.0
H302 H 0.42207 0.62985 0.66932 0.0
C303 C 0.3997 0.72858 0.56133 0.0
C304 C 0.88621 0.86461 0.6692 0.0
C305 C 0.89762 0.89325 0.7156 0.0
H306 H 0.90717 0.8594 0.58436 0.0
C307 C 0.94231 0.93639 0.71384 0.0
H308 H 0.8514 0.83167 0.67001 0.0
C309 C 0.97459 0.95211 0.66536 0.0
C310 C 0.96206 0.92546 0.61757 0.0
H311 H 0.95111 0.95911 0.7494 0.0
H312 H 0.00781 0.98711 0.66442 0.0
C313 C 0.91801 0.88073 0.62041 0.0
C314 C 0.68035 0.07968 0.30825 0.0
C315 C 0.71825 0.1292 0.29024 0.0
H316 H 0.61705 0.01795 0.28412 0.0
C317 C 0.73015 0.14602 0.23288 0.0
H318 H 0.67002 0.06713 0.35242 0.0
C319 C 0.70082 0.11746 0.19385 0.0
C320 C 0.65822 0.07302 0.21204 0.0
H321 H 0.75823 0.18513 0.21841 0.0
H322 H 0.7079 0.13428 0.14982 0.0
C323 C 0.64969 0.05235 0.26933 0.0
C324 C 0.42797 0.58192 0.27265 0.0
C325 C 0.41443 0.63551 0.27494 0.0
H326 H 0.45825 0.51229 0.31623 0.0
C327 C 0.42905 0.66441 0.32051 0.0
H328 H 0.41762 0.55928 0.23735 0.0
C329 C 0.45269 0.63801 0.36534 0.0
C330 C 0.46153 0.58174 0.36579 0.0
H331 H 0.41864 0.70547 0.32333 0.0
H332 H 0.46152 0.66069 0.4009 0.0
C333 C 0.45085 0.55494 0.3179 0.0
C334 C 0.13114 0.43452 0.84861 0.0
C335 C 0.10955 0.42908 0.79657 0.0
H336 H 0.12363 0.4597 0.92925 0.0
C337 C 0.06231 0.44578 0.78573 0.0
H338 H 0.16736 0.42131 0.85776 0.0
C339 C 0.03709 0.46809 0.82645 0.0
C340 C 0.05863 0.4735 0.87885 0.0
H341 H 0.04527 0.4418 0.74564 0.0
H342 H 1.00053 0.48043 0.81715 0.0
C343 C 0.10596 0.45638 0.88938 0.0
C344 C 0.70756 0.87949 0.85805 0.0
C345 C 0.7565 0.91464 0.84403 0.0
H346 H 0.63294 0.87099 0.89783 0.0
C347 C 0.76738 0.97033 0.85863 0.0
H348 H 0.6985 0.83648 0.84677 0.0
C349 C 0.73004 0.99037 0.88763 0.0
C350 C 0.68122 0.95486 0.90269 0.0
H351 H 0.80518 0.99774 0.84868 0.0
H352 H 0.73965 0.03346 0.89868 0.0
C353 C 0.67026 0.8993 0.88725 0.0
C354 C 0.8386 0.14339 0.31702 0.0
C355 C 0.80997 0.14807 0.36502 0.0
H356 H 0.89936 0.1091 0.28296 0.0
C357 C 0.82229 0.12168 0.4172 0.0
H358 H 0.83071 0.16448 0.27653 0.0
C359 C 0.86237 0.09103 0.42127 0.0
C360 C 0.89063 0.08553 0.37306 0.0
H361 H 0.80039 0.12417 0.45475 0.0
H362 H 0.87054 0.07074 0.46211 0.0
C363 C 0.87827 0.11217 0.32089 0.0
C364 C 0.20672 0.62286 0.21597 0.0
C365 C 0.25054 0.63759 0.17951 0.0
H366 H 0.12544 0.58796 0.22556 0.0
C367 C 0.24548 0.63364 0.12251 0.0
H368 H 0.21027 0.62674 0.25994 0.0
C369 C 0.19726 0.61246 0.10248 0.0
C370 C 0.15358 0.59455 0.13948 0.0
H371 H 0.27921 0.64536 0.094 0.0
H372 H 0.1947 0.60773 0.05861 0.0
C373 C 0.15851 0.60112 0.19619 0.0
C374 C 0.25852 0.41242 0.6174 0.0
C375 C 0.24997 0.39661 0.67538 0.0
H376 H 0.31475 0.44644 0.54969 0.0
C377 C 0.29238 0.39562 0.70926 0.0
H378 H 0.22603 0.4138 0.59085 0.0
C379 C 0.34273 0.41403 0.68624 0.0
C380 C 0.35174 0.43423 0.62874 0.0
H381 H 0.28628 0.38349 0.7541 0.0
H382 H 0.3745 0.4153 0.71413 0.0
C383 C 0.30916 0.43114 0.59411 0.0
C384 C 0.85494 0.73539 0.81261 0.0
C385 C 0.88081 0.79284 0.80954 0.0
H386 H 0.85689 0.64707 0.83919 0.0
C387 C 0.93234 0.80536 0.82482 0.0
H388 H 0.81502 0.72531 0.80112 0.0
C389 C 0.95649 0.76081 0.8471 0.0
C390 C 0.92913 0.7033 0.85441 0.0
H391 H 0.95245 0.84968 0.8233 0.0
H392 H 0.99532 0.77173 0.86159 0.0
C393 C 0.87885 0.69092 0.83479 0.0
C394 C 0.42877 0.8017 0.22008 0.0
C395 C 0.42437 0.75106 0.19589 0.0
H396 H 0.4561 0.89308 0.20974 0.0
C397 C 0.4523 0.75249 0.14572 0.0
H398 H 0.40635 0.80159 0.25805 0.0
C399 C 0.47964 0.80482 0.11703 0.0
C400 C 0.47973 0.85669 0.13835 0.0
H401 H 0.44827 0.71402 0.12587 0.0
H402 H 0.49783 0.80497 0.07648 0.0
C403 C 0.45639 0.85413 0.1917 0.0
C404 C 0.11607 0.27904 0.63831 0.0
C405 C 0.15741 0.2981 0.67155 0.0
H406 H 0.07972 0.21331 0.59139 0.0
C407 C 0.19563 0.26526 0.68121 0.0
H408 H 0.08634 0.30395 0.63002 0.0
C409 C 0.19248 0.21416 0.6584 0.0
C410 C 0.15044 0.19419 0.62632 0.0
H411 H 0.22713 0.27817 0.70783 0.0
H412 H 0.22237 0.18951 0.66715 0.0
C413 C 0.11231 0.22728 0.61633 0.0
C414 C 0.68279 0.27762 0.45521 0.0
C415 C 0.69358 0.28253 0.39751 0.0
H416 H 0.64504 0.30844 0.52068 0.0
C417 C 0.67532 0.32443 0.36114 0.0
H418 H 0.69589 0.24516 0.48392 0.0
C419 C 0.64424 0.35851 0.38164 0.0
C420 C 0.63257 0.35275 0.43919 0.0
H421 H 0.68412 0.32974 0.31658 0.0
H422 H 0.63006 0.38997 0.35266 0.0
C423 C 0.6531 0.31307 0.47598 0.0
loop_
_geom_bond_atom_site_label_1
_geom_bond_atom_site_label_2
_geom_bond_distance
_geom_bond_site_symmetry_2
_ccdc_geom_bond_type
C0 N1 1.317 . S
C0 N2 1.348 . S
C0 C3 1.485 . S
N1 C0 1.317 . S
N1 N5 1.370 . S
N2 C0 1.348 . S
N2 C4 1.346 . S
C3 C0 1.485 . S
C3 H7 0.960 . S
C3 H8 0.961 . S
C3 H9 0.960 . S
C4 N2 1.346 . S
C4 N5 1.307 . S
C4 C6 1.486 . S
N5 N1 1.370 . S
N5 C4 1.307 . S
C6 C4 1.486 . S
C6 H10 0.960 . S
C6 H11 0.960 . S
C6 H12 0.959 . S
H7 C3 0.960 . S
H8 C3 0.961 . S
H9 C3 0.960 . S
H10 C6 0.960 . S
H11 C6 0.960 . S
H12 C6 0.959 . S
C13 N14 1.317 . S
C13 N15 1.348 . S
C13 C16 1.485 . S
N14 C13 1.317 . S
N14 N18 1.370 . S
N15 C13 1.348 . S
N15 C17 1.346 . S
C16 C13 1.485 . S
C16 H20 0.960 . S
C16 H21 0.961 . S
C16 H22 0.960 . S
C17 N15 1.346 . S
C17 N18 1.307 . S
C17 C19 1.486 . S
N18 N14 1.370 . S
N18 C17 1.307 . S
C19 C17 1.486 . S
C19 H23 0.960 . S
C19 H24 0.960 . S
C19 H25 0.959 . S
H20 C16 0.960 . S
H21 C16 0.961 . S
H22 C16 0.960 . S
H23 C19 0.960 . S
H24 C19 0.960 . S
H25 C19 0.959 . S
C26 N27 1.317 . S
C26 N28 1.348 . S
C26 C29 1.485 . S
N27 C26 1.317 . S
N27 N31 1.370 . S
N28 C26 1.348 . S
N28 C30 1.346 . S
C29 C26 1.485 . S
C29 H33 0.960 . S
C29 H34 0.961 . S
C29 H35 0.960 . S
C30 N28 1.346 . S
C30 N31 1.307 . S
C30 C32 1.486 . S
N31 N27 1.370 . S
N31 C30 1.307 . S
C32 C30 1.486 . S
C32 H36 0.960 . S
C32 H37 0.960 . S
C32 H38 0.959 . S
H33 C29 0.960 . S
H34 C29 0.961 . S
H35 C29 0.960 . S
H36 C32 0.960 . S
H37 C32 0.960 . S
H38 C32 0.959 . S
C39 N40 1.317 . S
C39 N41 1.348 . S
C39 C42 1.485 . S
N40 C39 1.317 . S
N40 N44 1.370 . S
N41 C39 1.348 . S
N41 C43 1.346 . S
C42 C39 1.485 . S
C42 H46 0.960 . S
C42 H47 0.961 . S
C42 H48 0.960 . S
C43 N41 1.346 . S
C43 N44 1.307 . S
C43 C45 1.486 . S
N44 N40 1.370 . S
N44 C43 1.307 . S
C45 C43 1.486 . S
C45 H49 0.960 . S
C45 H50 0.960 . S
C45 H51 0.959 . S
H46 C42 0.960 . S
H47 C42 0.961 . S
H48 C42 0.960 . S
H49 C45 0.960 . S
H50 C45 0.960 . S
H51 C45 0.959 . S
C52 N53 1.317 . S
C52 N54 1.348 . S
C52 C55 1.485 . S
N53 C52 1.317 . S
N53 N57 1.370 . S
N54 C52 1.348 . S
N54 C56 1.346 . S
C55 C52 1.485 . S
C55 H59 0.960 . S
C55 H60 0.961 . S
C55 H61 0.960 . S
C56 N54 1.346 . S
C56 N57 1.307 . S
C56 C58 1.486 . S
N57 N53 1.370 . S
N57 C56 1.307 . S
C58 C56 1.486 . S
C58 H62 0.960 . S
C58 H63 0.960 . S
C58 H64 0.959 . S
H59 C55 0.960 . S
H60 C55 0.961 . S
H61 C55 0.960 . S
H62 C58 0.960 . S
H63 C58 0.960 . S
H64 C58 0.959 . S
C65 N66 1.317 . S
C65 N67 1.348 . S
C65 C68 1.485 . S
N66 C65 1.317 . S
N66 N70 1.370 . S
N67 C65 1.348 . S
N67 C69 1.346 . S
C68 C65 1.485 . S
C68 H72 0.960 . S
C68 H73 0.961 . S
C68 H74 0.960 . S
C69 N67 1.346 . S
C69 N70 1.307 . S
C69 C71 1.486 . S
N70 N66 1.370 . S
N70 C69 1.307 . S
C71 C69 1.486 . S
C71 H75 0.960 . S
C71 H76 0.960 . S
C71 H77 0.959 . S
H72 C68 0.960 . S
H73 C68 0.961 . S
H74 C68 0.960 . S
H75 C71 0.960 . S
H76 C71 0.960 . S
H77 C71 0.959 . S
C78 N79 1.317 . S
C78 N80 1.348 . S
C78 C81 1.485 . S
N79 C78 1.317 . S
N79 N83 1.370 . S
N80 C78 1.348 . S
N80 C82 1.346 . S
C81 C78 1.485 . S
C81 H85 0.960 . S
C81 H86 0.961 . S
C81 H87 0.960 . S
C82 N80 1.346 . S
C82 N83 1.307 . S
C82 C84 1.486 . S
N83 N79 1.370 . S
N83 C82 1.307 . S
C84 C82 1.486 . S
C84 H88 0.960 . S
C84 H89 0.960 . S
C84 H90 0.959 . S
H85 C81 0.960 . S
H86 C81 0.961 . S
H87 C81 0.960 . S
H88 C84 0.960 . S
H89 C84 0.960 . S
H90 C84 0.959 . S
C91 N92 1.317 . S
C91 N93 1.348 . S
C91 C94 1.485 . S
N92 C91 1.317 . S
N92 N96 1.370 . S
N93 C91 1.348 . S
N93 C95 1.346 . S
C94 C91 1.485 . S
C94 H98 0.960 . S
C94 H99 0.961 . S
C94 H100 0.960 . S
C95 N93 1.346 . S
C95 N96 1.307 . S
C95 C97 1.486 . S
N96 N92 1.370 . S
N96 C95 1.307 . S
C97 C95 1.486 . S
C97 H101 0.960 . S
C97 H102 0.960 . S
C97 H103 0.959 . S
H98 C94 0.960 . S
H99 C94 0.961 . S
H100 C94 0.960 . S
H101 C97 0.960 . S
H102 C97 0.960 . S
H103 C97 0.959 . S
Zn104 O110 1.969 1_545 S
Zn104 O111 1.965 1_545 S
Zn104 O115 2.024 . S
Zn104 O120 1.969 . S
Zn105 O112 1.969 . S
Zn105 O118 1.969 1_565 S
Zn105 O119 1.965 1_665 S
Zn105 O121 2.024 . S
C106 O107 1.229 . S
C106 O115 1.058 . S
O107 C106 1.229 . S
C108 O109 1.229 . S
C108 O121 1.058 . S
O109 C108 1.229 . S
O110 Zn104 1.969 1_565 S
O110 C113 1.267 . S
O111 Zn104 1.965 1_565 S
O111 C122 1.271 . S
O112 Zn105 1.969 . S
O112 C122 1.250 1_655 S
C113 O110 1.267 . S
C113 O114 1.228 . S
O114 C113 1.228 . S
O115 Zn104 2.024 . S
O115 C106 1.058 . S
C116 O117 1.228 . S
C116 O118 1.267 . S
O117 C116 1.228 . S
O118 Zn105 1.969 1_545 S
O118 C116 1.267 . S
O119 Zn105 1.965 1_445 S
O119 C123 1.260 . S
O120 Zn104 1.969 . S
O120 C123 1.258 . S
O121 Zn105 2.024 . S
O121 C108 1.058 . S
C122 O111 1.271 . S
C122 O112 1.250 1_455 S
C123 O119 1.260 . S
C123 O120 1.258 . S
Zn124 O130 1.969 . S
Zn124 O131 1.965 1_565 S
Zn124 O135 2.024 . S
Zn124 O140 1.969 1_556 S
Zn125 O132 1.969 . S
Zn125 O138 1.969 . S
Zn125 O139 1.965 1_545 S
Zn125 O141 2.024 . S
C126 O127 1.229 . S
C126 O135 1.058 . S
O127 C126 1.229 . S
C128 O129 1.229 . S
C128 O141 1.058 . S
O129 C128 1.229 . S
O130 Zn124 1.969 . S
O130 C133 1.267 . S
O131 Zn124 1.965 1_545 S
O131 C142 1.260 . S
O132 Zn125 1.969 . S
O132 C142 1.258 1_554 S
C133 O130 1.267 . S
C133 O134 1.228 . S
O134 C133 1.228 . S
O135 Zn124 2.024 . S
O135 C126 1.058 . S
C136 O137 1.228 . S
C136 O138 1.267 . S
O137 C136 1.228 . S
O138 Zn125 1.969 . S
O138 C136 1.267 . S
O139 Zn125 1.965 1_565 S
O139 C143 1.260 . S
O140 Zn124 1.969 1_554 S
O140 C143 1.258 . S
O141 Zn125 2.024 . S
O141 C128 1.058 . S
C142 O131 1.260 . S
C142 O132 1.258 1_556 S
C143 O139 1.260 . S
C143 O140 1.258 . S
Zn144 O150 1.969 . S
Zn144 O151 1.965 . S
Zn144 O155 2.024 . S
Zn144 O160 1.969 . S
Zn145 O152 1.969 . S
Zn145 O158 1.969 . S
Zn145 O159 1.965 . S
Zn145 O161 2.024 . S
C146 O147 1.229 . S
C146 O155 1.058 . S
O147 C146 1.229 . S
C148 O149 1.229 . S
C148 O161 1.058 . S
O149 C148 1.229 . S
O150 Zn144 1.969 . S
O150 C153 1.267 . S
O151 Zn144 1.965 . S
O151 C162 1.260 . S
O152 Zn145 1.969 . S
O152 C162 1.258 . S
C153 O150 1.267 . S
C153 O154 1.228 . S
O154 C153 1.228 . S
O155 Zn144 2.024 . S
O155 C146 1.058 . S
C156 O157 1.228 . S
C156 O158 1.267 . S
O157 C156 1.228 . S
O158 Zn145 1.969 . S
O158 C156 1.267 . S
O159 Zn145 1.965 . S
O159 C163 1.260 . S
O160 Zn144 1.969 . S
O160 C163 1.258 . S
O161 Zn145 2.024 . S
O161 C148 1.058 . S
C162 O151 1.260 . S
C162 O152 1.258 . S
C163 O159 1.260 . S
C163 O160 1.258 . S
Zn164 O170 1.969 . S
Zn164 O171 1.965 1_556 S
Zn164 O175 2.024 . S
Zn164 O180 1.969 1_655 S
Zn165 O172 1.969 . S
Zn165 O178 1.969 . S
Zn165 O179 1.965 1_554 S
Zn165 O181 2.024 . S
C166 O167 1.229 . S
C166 O175 1.058 . S
O167 C166 1.229 . S
C168 O169 1.229 . S
C168 O181 1.058 . S
O169 C168 1.229 . S
O170 Zn164 1.969 . S
O170 C173 1.267 . S
O171 Zn164 1.965 1_554 S
O171 C182 1.260 . S
O172 Zn165 1.969 . S
O172 C182 1.258 1_455 S
C173 O170 1.267 . S
C173 O174 1.228 . S
O174 C173 1.228 . S
O175 Zn164 2.024 . S
O175 C166 1.058 . S
C176 O177 1.228 . S
C176 O178 1.267 . S
O177 C176 1.228 . S
O178 Zn165 1.969 . S
O178 C176 1.267 . S
O179 Zn165 1.965 1_556 S
O179 C183 1.260 . S
O180 Zn164 1.969 1_455 S
O180 C183 1.258 . S
O181 Zn165 2.024 . S
O181 C168 1.058 . S
C182 O171 1.260 . S
C182 O172 1.258 1_655 S
C183 O179 1.260 . S
C183 O180 1.258 . S
C184 C185 1.387 . S
C184 H188 0.950 . S
C184 C193 1.390 . S
C185 C184 1.387 . S
C185 C187 1.387 . S
H186 C193 0.950 . S
C187 C185 1.387 . S
C187 C189 1.390 . S
C187 H191 0.950 . S
H188 C184 0.950 . S
C189 C187 1.390 . S
C189 C190 1.387 . S
C189 H192 0.950 . S
C190 C189 1.387 . S
C190 C193 1.387 . S
H191 C187 0.950 . S
H192 C189 0.950 . S
C193 C184 1.390 . S
C193 H186 0.950 . S
C193 C190 1.387 . S
C194 C195 1.387 . S
C194 H198 0.950 . S
C194 C203 1.390 . S
C195 C194 1.387 . S
C195 C197 1.387 . S
H196 C203 0.950 . S
C197 C195 1.387 . S
C197 C199 1.390 . S
C197 H201 0.950 . S
H198 C194 0.950 . S
C199 C197 1.390 . S
C199 C200 1.387 . S
C199 H202 0.950 . S
C200 C199 1.387 . S
C200 C203 1.387 . S
H201 C197 0.950 . S
H202 C199 0.950 . S
C203 C194 1.390 . S
C203 H196 0.950 . S
C203 C200 1.387 . S
C204 C205 1.387 . S
C204 H208 0.950 . S
C204 C213 1.390 . S
C205 C204 1.387 . S
C205 C207 1.387 . S
H206 C213 0.950 . S
C207 C205 1.387 . S
C207 C209 1.390 . S
C207 H211 0.950 . S
H208 C204 0.950 . S
C209 C207 1.390 . S
C209 C210 1.387 . S
C209 H212 0.950 . S
C210 C209 1.387 . S
C210 C213 1.387 . S
H211 C207 0.950 . S
H212 C209 0.950 . S
C213 C204 1.390 . S
C213 H206 0.950 . S
C213 C210 1.387 . S
C214 C215 1.387 . S
C214 H218 0.950 . S
C214 C223 1.390 . S
C215 C214 1.387 . S
C215 C217 1.387 . S
H216 C223 0.950 . S
C217 C215 1.387 . S
C217 C219 1.390 . S
C217 H221 0.950 . S
H218 C214 0.950 . S
C219 C217 1.390 . S
C219 C220 1.387 . S
C219 H222 0.950 . S
C220 C219 1.387 . S
C220 C223 1.387 . S
H221 C217 0.950 . S
H222 C219 0.950 . S
C223 C214 1.390 . S
C223 H216 0.950 . S
C223 C220 1.387 . S
C224 C225 1.387 . S
C224 H228 0.950 . S
C224 C233 1.390 . S
C225 C224 1.387 . S
C225 C227 1.387 . S
H226 C233 0.950 . S
C227 C225 1.387 . S
C227 C229 1.390 . S
C227 H231 0.950 . S
H228 C224 0.950 . S
C229 C227 1.390 . S
C229 C230 1.387 . S
C229 H232 0.950 . S
C230 C229 1.387 . S
C230 C233 1.387 . S
H231 C227 0.950 . S
H232 C229 0.950 . S
C233 C224 1.390 . S
C233 H226 0.950 . S
C233 C230 1.387 . S
C234 C235 1.387 . S
C234 H238 0.950 . S
C234 C243 1.390 . S
C235 C234 1.387 . S
C235 C237 1.387 . S
H236 C243 0.950 . S
C237 C235 1.387 . S
C237 C239 1.390 . S
C237 H241 0.950 . S
H238 C234 0.950 . S
C239 C237 1.390 . S
C239 C240 1.387 . S
C239 H242 0.950 . S
C240 C239 1.387 . S
C240 C243 1.387 . S
H241 C237 0.950 . S
H242 C239 0.950 . S
C243 C234 1.390 . S
C243 H236 0.950 . S
C243 C240 1.387 . S
C244 C245 1.387 . S
C244 H248 0.950 . S
C244 C253 1.390 . S
C245 C244 1.387 . S
C245 C247 1.387 . S
H246 C253 0.950 . S
C247 C245 1.387 . S
C247 C249 1.390 . S
C247 H251 0.950 . S
H248 C244 0.950 . S
C249 C247 1.390 . S
C249 C250 1.387 . S
C249 H252 0.950 . S
C250 C249 1.387 . S
C250 C253 1.387 . S
H251 C247 0.950 . S
H252 C249 0.950 . S
C253 C244 1.390 . S
C253 H246 0.950 . S
C253 C250 1.387 . S
C254 C255 1.387 . S
C254 H258 0.950 . S
C254 C263 1.390 . S
C255 C254 1.387 . S
C255 C257 1.387 . S
H256 C263 0.950 . S
C257 C255 1.387 . S
C257 C259 1.390 . S
C257 H261 0.950 . S
H258 C254 0.950 . S
C259 C257 1.390 . S
C259 C260 1.387 . S
C259 H262 0.950 . S
C260 C259 1.387 . S
C260 C263 1.387 . S
H261 C257 0.950 . S
H262 C259 0.950 . S
C263 C254 1.390 . S
C263 H256 0.950 . S
C263 C260 1.387 . S
C264 C265 1.387 . S
C264 H268 0.950 . S
C264 C273 1.390 . S
C265 C264 1.387 . S
C265 C267 1.387 . S
H266 C273 0.950 . S
C267 C265 1.387 . S
C267 C269 1.390 . S
C267 H271 0.950 . S
H268 C264 0.950 . S
C269 C267 1.390 . S
C269 C270 1.387 . S
C269 H272 0.950 . S
C270 C269 1.387 . S
C270 C273 1.387 . S
H271 C267 0.950 . S
H272 C269 0.950 . S
C273 C264 1.390 . S
C273 H266 0.950 . S
C273 C270 1.387 . S
C274 C275 1.387 . S
C274 H278 0.950 . S
C274 C283 1.390 . S
C275 C274 1.387 . S
C275 C277 1.387 . S
H276 C283 0.950 . S
C277 C275 1.387 . S
C277 C279 1.390 . S
C277 H281 0.950 . S
H278 C274 0.950 . S
C279 C277 1.390 . S
C279 C280 1.387 . S
C279 H282 0.950 . S
C280 C279 1.387 . S
C280 C283 1.387 . S
H281 C277 0.950 . S
H282 C279 0.950 . S
C283 C274 1.390 . S
C283 H276 0.950 . S
C283 C280 1.387 . S
C284 C285 1.387 . S
C284 H288 0.950 . S
C284 C293 1.390 . S
C285 C284 1.387 . S
C285 C287 1.387 . S
H286 C293 0.950 . S
C287 C285 1.387 . S
C287 C289 1.390 . S
C287 H291 0.950 . S
H288 C284 0.950 . S
C289 C287 1.390 . S
C289 C290 1.387 . S
C289 H292 0.950 . S
C290 C289 1.387 . S
C290 C293 1.387 . S
H291 C287 0.950 . S
H292 C289 0.950 . S
C293 C284 1.390 . S
C293 H286 0.950 . S
C293 C290 1.387 . S
C294 C295 1.387 . S
C294 H298 0.950 . S
C294 C303 1.390 . S
C295 C294 1.387 . S
C295 C297 1.387 . S
H296 C303 0.950 . S
C297 C295 1.387 . S
C297 C299 1.390 . S
C297 H301 0.950 . S
H298 C294 0.950 . S
C299 C297 1.390 . S
C299 C300 1.387 . S
C299 H302 0.950 . S
C300 C299 1.387 . S
C300 C303 1.387 . S
H301 C297 0.950 . S
H302 C299 0.950 . S
C303 C294 1.390 . S
C303 H296 0.950 . S
C303 C300 1.387 . S
C304 C305 1.387 . S
C304 H308 0.950 . S
C304 C313 1.390 . S
C305 C304 1.387 . S
C305 C307 1.387 . S
H306 C313 0.950 . S
C307 C305 1.387 . S
C307 C309 1.390 . S
C307 H311 0.950 . S
H308 C304 0.950 . S
C309 C307 1.390 . S
C309 C310 1.387 . S
C309 H312 0.950 . S
C310 C309 1.387 . S
C310 C313 1.387 . S
H311 C307 0.950 . S
H312 C309 0.950 . S
C313 C304 1.390 . S
C313 H306 0.950 . S
C313 C310 1.387 . S
C314 C315 1.387 . S
C314 H318 0.950 . S
C314 C323 1.390 . S
C315 C314 1.387 . S
C315 C317 1.387 . S
H316 C323 0.950 . S
C317 C315 1.387 . S
C317 C319 1.390 . S
C317 H321 0.950 . S
H318 C314 0.950 . S
C319 C317 1.390 . S
C319 C320 1.387 . S
C319 H322 0.950 . S
C320 C319 1.387 . S
C320 C323 1.387 . S
H321 C317 0.950 . S
H322 C319 0.950 . S
C323 C314 1.390 . S
C323 H316 0.950 . S
C323 C320 1.387 . S
C324 C325 1.387 . S
C324 H328 0.950 . S
C324 C333 1.390 . S
C325 C324 1.387 . S
C325 C327 1.387 . S
H326 C333 0.950 . S
C327 C325 1.387 . S
C327 C329 1.390 . S
C327 H331 0.950 . S
H328 C324 0.950 . S
C329 C327 1.390 . S
C329 C330 1.387 . S
C329 H332 0.950 . S
C330 C329 1.387 . S
C330 C333 1.387 . S
H331 C327 0.950 . S
H332 C329 0.950 . S
C333 C324 1.390 . S
C333 H326 0.950 . S
C333 C330 1.387 . S
C334 C335 1.387 . S
C334 H338 0.950 . S
C334 C343 1.390 . S
C335 C334 1.387 . S
C335 C337 1.387 . S
H336 C343 0.950 . S
C337 C335 1.387 . S
C337 C339 1.390 . S
C337 H341 0.950 . S
H338 C334 0.950 . S
C339 C337 1.390 . S
C339 C340 1.387 . S
C339 H342 0.950 . S
C340 C339 1.387 . S
C340 C343 1.387 . S
H341 C337 0.950 . S
H342 C339 0.950 . S
C343 C334 1.390 . S
C343 H336 0.950 . S
C343 C340 1.387 . S
C344 C345 1.387 . S
C344 H348 0.950 . S
C344 C353 1.390 . S
C345 C344 1.387 . S
C345 C347 1.387 . S
H346 C353 0.950 . S
C347 C345 1.387 . S
C347 C349 1.390 . S
C347 H351 0.950 . S
H348 C344 0.950 . S
C349 C347 1.390 . S
C349 C350 1.387 . S
C349 H352 0.950 . S
C350 C349 1.387 . S
C350 C353 1.387 . S
H351 C347 0.950 . S
H352 C349 0.950 . S
C353 C344 1.390 . S
C353 H346 0.950 . S
C353 C350 1.387 . S
C354 C355 1.387 . S
C354 H358 0.950 . S
C354 C363 1.390 . S
C355 C354 1.387 . S
C355 C357 1.387 . S
H356 C363 0.950 . S
C357 C355 1.387 . S
C357 C359 1.390 . S
C357 H361 0.950 . S
H358 C354 0.950 . S
C359 C357 1.390 . S
C359 C360 1.387 . S
C359 H362 0.950 . S
C360 C359 1.387 . S
C360 C363 1.387 . S
H361 C357 0.950 . S
H362 C359 0.950 . S
C363 C354 1.390 . S
C363 H356 0.950 . S
C363 C360 1.387 . S
C364 C365 1.387 . S
C364 H368 0.950 . S
C364 C373 1.390 . S
C365 C364 1.387 . S
C365 C367 1.387 . S
H366 C373 0.950 . S
C367 C365 1.387 . S
C367 C369 1.390 . S
C367 H371 0.950 . S
H368 C364 0.950 . S
C369 C367 1.390 . S
C369 C370 1.387 . S
C369 H372 0.950 . S
C370 C369 1.387 . S
C370 C373 1.387 . S
H371 C367 0.950 . S
H372 C369 0.950 . S
C373 C364 1.390 . S
C373 H366 0.950 . S
C373 C370 1.387 . S
C374 C375 1.387 . S
C374 H378 0.950 . S
C374 C383 1.390 . S
C375 C374 1.387 . S
C375 C377 1.387 . S
H376 C383 0.950 . S
C377 C375 1.387 . S
C377 C379 1.390 . S
C377 H381 0.950 . S
H378 C374 0.950 . S
C379 C377 1.390 . S
C379 C380 1.387 . S
C379 H382 0.950 . S
C380 C379 1.387 . S
C380 C383 1.387 . S
H381 C377 0.950 . S
H382 C379 0.950 . S
C383 C374 1.390 . S
C383 H376 0.950 . S
C383 C380 1.387 . S
C384 C385 1.387 . S
C384 H388 0.950 . S
C384 C393 1.390 . S
C385 C384 1.387 . S
C385 C387 1.387 . S
H386 C393 0.950 . S
C387 C385 1.387 . S
C387 C389 1.390 . S
C387 H391 0.950 . S
H388 C384 0.950 . S
C389 C387 1.390 . S
C389 C390 1.387 . S
C389 H392 0.950 . S
C390 C389 1.387 . S
C390 C393 1.387 . S
H391 C387 0.950 . S
H392 C389 0.950 . S
C393 C384 1.390 . S
C393 H386 0.950 . S
C393 C390 1.387 . S
C394 C395 1.387 . S
C394 H398 0.950 . S
C394 C403 1.390 . S
C395 C394 1.387 . S
C395 C397 1.387 . S
H396 C403 0.950 . S
C397 C395 1.387 . S
C397 C399 1.390 . S
C397 H401 0.950 . S
H398 C394 0.950 . S
C399 C397 1.390 . S
C399 C400 1.387 . S
C399 H402 0.950 . S
C400 C399 1.387 . S
C400 C403 1.387 . S
H401 C397 0.950 . S
H402 C399 0.950 . S
C403 C394 1.390 . S
C403 H396 0.950 . S
C403 C400 1.387 . S
C404 C405 1.387 . S
C404 H408 0.950 . S
C404 C413 1.390 . S
C405 C404 1.387 . S
C405 C407 1.387 . S
H406 C413 0.950 . S
C407 C405 1.387 . S
C407 C409 1.390 . S
C407 H411 0.950 . S
H408 C404 0.950 . S
C409 C407 1.390 . S
C409 C410 1.387 . S
C409 H412 0.950 . S
C410 C409 1.387 . S
C410 C413 1.387 . S
H411 C407 0.950 . S
H412 C409 0.950 . S
C413 C404 1.390 . S
C413 H406 0.950 . S
C413 C410 1.387 . S
C414 C415 1.387 . S
C414 H418 0.950 . S
C414 C423 1.390 . S
C415 C414 1.387 . S
C415 C417 1.387 . S
H416 C423 0.950 . S
C417 C415 1.387 . S
C417 C419 1.390 . S
C417 H421 0.950 . S
H418 C414 0.950 . S
C419 C417 1.390 . S
C419 C420 1.387 . S
C419 H422 0.950 . S
C420 C419 1.387 . S
C420 C423 1.387 . S
H421 C417 0.950 . S
H422 C419 0.950 . S
C423 C414 1.390 . S
C423 H416 0.950 . S
C423 C420 1.387 . S
C185 N1 1.400 . S
C190 C123 1.414 . S
C195 N18 1.453 . S
C200 C126 1.447 . S
C210 C162 1.488 . S
C205 N28 1.506 . S
C215 N40 1.816 . S
C220 C182 1.835 . S
C230 C136 1.845 . S
C225 N5 1.844 . S
C240 C113 1.525 . S
C235 N14 1.513 . S
C250 C166 1.600 . S
C245 N31 1.675 . S
C260 C146 1.185 . S
C255 N41 1.249 . S
C265 N2 1.337 . S
C270 C176 1.250 . S
C280 C142 1.743 . S
C275 N27 1.740 . S
C285 N44 1.683 . S
C290 C108 1.704 . S
C295 N15 1.228 . S
C300 C156 1.210 . S
C310 C122 1.687 1_655 S
C305 N57 1.718 . S
C315 N70 1.182 . S
C320 C128 1.206 . S
C325 N79 1.697 . S
C330 C163 1.689 . S
C335 N93 1.687 . S
C340 C183 1.654 . S
C345 N54 1.547 . S
C350 C133 1.506 . S
C360 C116 1.847 . S
C355 N66 1.844 . S
C370 C168 1.245 . S
C365 N80 1.379 . S
C380 C148 1.347 . S
C375 N96 1.454 . S
C385 N53 1.346 . S
C390 C173 1.317 . S
C400 C143 1.627 . S
C395 N83 1.610 . S
C410 C106 1.774 . S
C405 N92 1.798 . S
C415 N67 1.302 . S
C420 C153 1.213 . S
