# Generated by pormake.
# Topology pyr, (3,6)-cn, num edge types: 1
# Building blocks:
#     Node 0, Type 0, BuildingBlock: QEWDON_clean_linker_0, # of connection points: 3
#     Node 1, Type 0, BuildingBlock: QEWDON_clean_linker_0, # of connection points: 3
#     Node 2, Type 0, BuildingBlock: QEWDON_clean_linker_0, # of connection points: 3
#     Node 3, Type 0, BuildingBlock: QEWDON_clean_linker_0, # of connection points: 3
#     Node 4, Type 0, BuildingBlock: QEWDON_clean_linker_0, # of connection points: 3
#     Node 5, Type 0, BuildingBlock: QEWDON_clean_linker_0, # of connection points: 3
#     Node 6, Type 0, BuildingBlock: QEWDON_clean_linker_0, # of connection points: 3
#     Node 7, Type 0, BuildingBlock: QEWDON_clean_linker_0, # of connection points: 3
#     Node 8, Type 1, BuildingBlock: FUNLAD_clean_sbu_0, # of connection points: 6
#     Node 9, Type 1, BuildingBlock: FUNLAD_clean_sbu_0, # of connection points: 6
#     Node 10, Type 1, BuildingBlock: FUNLAD_clean_sbu_0, # of connection points: 6
#     Node 11, Type 1, BuildingBlock: FUNLAD_clean_sbu_0, # of connection points: 6
#     Edge 12, Type (0, 1), BuildingBlock: AJUNOK_clean_linker_0, # of connection points: 2
#     Edge 13, Type (0, 1), BuildingBlock: AJUNOK_clean_linker_0, # of connection points: 2
#     Edge 14, Type (0, 1), BuildingBlock: AJUNOK_clean_linker_0, # of connection points: 2
#     Edge 15, Type (0, 1), BuildingBlock: AJUNOK_clean_linker_0, # of connection points: 2
#     Edge 16, Type (0, 1), BuildingBlock: AJUNOK_clean_linker_0, # of connection points: 2
#     Edge 17, Type (0, 1), BuildingBlock: AJUNOK_clean_linker_0, # of connection points: 2
#     Edge 18, Type (0, 1), BuildingBlock: AJUNOK_clean_linker_0, # of connection points: 2
#     Edge 19, Type (0, 1), BuildingBlock: AJUNOK_clean_linker_0, # of connection points: 2
#     Edge 20, Type (0, 1), BuildingBlock: AJUNOK_clean_linker_0, # of connection points: 2
#     Edge 21, Type (0, 1), BuildingBlock: AJUNOK_clean_linker_0, # of connection points: 2
#     Edge 22, Type (0, 1), BuildingBlock: AJUNOK_clean_linker_0, # of connection points: 2
#     Edge 23, Type (0, 1), BuildingBlock: AJUNOK_clean_linker_0, # of connection points: 2
#     Edge 24, Type (0, 1), BuildingBlock: AJUNOK_clean_linker_0, # of connection points: 2
#     Edge 25, Type (0, 1), BuildingBlock: AJUNOK_clean_linker_0, # of connection points: 2
#     Edge 26, Type (0, 1), BuildingBlock: AJUNOK_clean_linker_0, # of connection points: 2
#     Edge 27, Type (0, 1), BuildingBlock: AJUNOK_clean_linker_0, # of connection points: 2
#     Edge 28, Type (0, 1), BuildingBlock: AJUNOK_clean_linker_0, # of connection points: 2
#     Edge 29, Type (0, 1), BuildingBlock: AJUNOK_clean_linker_0, # of connection points: 2
#     Edge 30, Type (0, 1), BuildingBlock: AJUNOK_clean_linker_0, # of connection points: 2
#     Edge 31, Type (0, 1), BuildingBlock: AJUNOK_clean_linker_0, # of connection points: 2
#     Edge 32, Type (0, 1), BuildingBlock: AJUNOK_clean_linker_0, # of connection points: 2
#     Edge 33, Type (0, 1), BuildingBlock: AJUNOK_clean_linker_0, # of connection points: 2
#     Edge 34, Type (0, 1), BuildingBlock: AJUNOK_clean_linker_0, # of connection points: 2
#     Edge 35, Type (0, 1), BuildingBlock: AJUNOK_clean_linker_0, # of connection points: 2
# Relax obj value: 0.344
# Max RMSD: 0.301
# Mean RMSD: 0.190
data_MOF--net-pry--node1-FUNLAD_clean_sbu_0--node2-QEWDON_clean_linker_0--edge1-AJUNOK_clean_linker_0
_symmetry_space_group_name_H-M    P1
_symmetry_Int_Tables_number       1
_symmetry_cell_setting            triclinic
loop_
_symmetry_equiv_pos_as_xyz
'x, y, z'
_cell_length_a     25.514414
_cell_length_b     27.325419
_cell_length_c     29.108416
_cell_angle_alpha  89.774412
_cell_angle_beta   90.337105
_cell_angle_gamma 87.155474
loop_
_atom_site_label
_atom_site_type_symbol
_atom_site_fract_x
_atom_site_fract_y
_atom_site_fract_z
_atom_type_partial_charge
H0 H 0.24096 0.27851 0.20214 0.0
C1 C 0.22352 0.25934 0.23041 0.0
C2 C 0.24552 0.21314 0.24497 0.0
C3 C 0.1812 0.28263 0.25391 0.0
H4 H 0.2407 0.15603 0.29679 0.0
C5 C 0.22302 0.19007 0.28349 0.0
C6 C 0.18003 0.2124 0.30725 0.0
C7 C 0.15937 0.25835 0.29159 0.0
C8 C 0.16764 0.33615 0.24686 0.0
H9 H 0.12733 0.27658 0.31017 0.0
C10 C 0.14528 0.35681 0.20571 0.0
C11 C 0.1317 0.408 0.2031 0.0
C12 C 0.17754 0.36733 0.28385 0.0
H13 H 0.19499 0.35276 0.31541 0.0
C14 C 0.16554 0.41742 0.28083 0.0
H15 H 0.13706 0.33334 0.17694 0.0
C16 C 0.14276 0.43752 0.24109 0.0
H17 H 0.13361 0.47667 0.24003 0.0
H18 H 0.17365 0.44083 0.30966 0.0
H19 H 0.37287 1.00466 0.87908 0.0
C20 C 0.39501 0.97633 0.86043 0.0
C21 C 0.44554 0.96108 0.8758 0.0
C22 C 0.37202 0.95489 0.82207 0.0
H23 H 0.51166 0.90943 0.86392 0.0
C24 C 0.4731 0.92239 0.85205 0.0
C25 C 0.45087 0.90148 0.81211 0.0
C26 C 0.4004 0.91835 0.79786 0.0
C27 C 0.31658 0.96774 0.80957 0.0
H28 H 0.38194 0.90117 0.76882 0.0
C29 C 0.30161 0.97856 0.76376 0.0
C30 C 0.24842 0.98817 0.75247 0.0
C31 C 0.27782 0.96718 0.84369 0.0
H32 H 0.28824 0.95846 0.87902 0.0
C33 C 0.2251 0.97661 0.83238 0.0
H34 H 0.33107 0.97951 0.73713 0.0
C35 C 0.21038 0.98689 0.78704 0.0
H36 H 0.16925 0.99443 0.77893 0.0
H37 H 0.19551 0.9758 0.85884 0.0
H38 H 0.67185 0.61516 1.04738 0.0
C39 C 0.67561 0.57579 1.05196 0.0
C40 C 0.72214 0.54915 1.039 0.0
C41 C 0.6333 0.55145 0.07042 0.0
H42 H 0.75782 0.47583 1.03022 0.0
C43 C 0.72329 0.4975 1.04075 0.0
C44 C 0.67983 0.47355 1.05682 0.0
C45 C 0.63612 0.50047 0.07301 0.0
C46 C 0.58166 0.57631 0.07859 0.0
H47 H 0.60238 0.48122 0.08468 0.0
C48 C 0.5538 0.59428 1.04022 0.0
C49 C 0.49879 0.59686 1.0401 0.0
C50 C 0.55436 0.56693 0.1192 0.0
H51 H 0.57502 0.5515 0.14892 0.0
C52 C 0.49961 0.57203 0.11992 0.0
H53 H 0.57446 0.59875 1.00806 0.0
C54 C 0.47155 0.58603 0.08017 0.0
H55 H 0.42911 0.58584 0.07993 0.0
H56 H 0.47905 0.56121 0.15032 0.0
H57 H 0.90745 0.69778 0.47315 0.0
C58 C 0.89142 0.68628 0.50549 0.0
C59 C 0.90091 0.71507 0.54382 0.0
C60 C 0.85869 0.64652 0.50765 0.0
H61 H 0.88241 0.72856 0.61475 0.0
C62 C 0.87721 0.70457 0.58568 0.0
C63 C 0.84197 0.66674 0.58848 0.0
C64 C 0.83516 0.6363 0.55006 0.0
C65 C 0.84302 0.62234 0.46383 0.0
H66 H 0.80807 0.6072 0.55242 0.0
C67 C 0.87532 0.62485 0.42477 0.0
C68 C 0.85523 0.61731 0.38068 0.0
C69 C 0.79257 0.60417 0.45816 0.0
H70 H 0.76569 0.60192 0.48655 0.0
C71 C 0.7744 0.59164 0.41458 0.0
H72 H 0.91495 0.63683 0.42784 0.0
C73 C 0.80484 0.59958 0.37584 0.0
H74 H 0.78862 0.5931 0.34205 0.0
H75 H 0.73531 0.57848 0.41058 0.0
H76 H 0.8815 0.90916 0.92291 0.0
C77 C 0.8995 0.92731 0.89425 0.0
C78 C 0.95019 0.91152 0.88041 0.0
C79 C 0.8703 0.96388 0.87022 0.0
H80 H 1.01048 0.92108 0.82902 0.0
C81 C 0.9718 0.93333 0.84065 0.0
C82 C 0.94346 0.97201 0.81676 0.0
C83 C 0.89276 0.98633 0.83206 0.0
C84 C 0.81455 0.97526 0.88273 0.0
H85 H 0.87004 1.01462 0.81345 0.0
C86 C 0.79911 0.98111 0.92905 0.0
C87 C 0.74562 0.98768 0.94033 0.0
C88 C 0.77581 0.97713 0.84812 0.0
H89 H 0.78633 0.97205 0.81239 0.0
C90 C 0.72289 0.98396 0.85929 0.0
H91 H 0.82843 0.98019 0.95618 0.0
C92 C 0.70781 0.98899 0.90504 0.0
H93 H 0.66648 0.99458 0.91291 0.0
H94 H 0.6934 0.98505 0.83237 0.0
H95 H 0.71961 0.25651 0.50316 0.0
C96 C 0.70738 0.24302 0.47002 0.0
C97 C 0.73998 0.20802 0.44658 0.0
C98 C 0.65731 0.25777 0.45267 0.0
H99 H 0.74666 0.16269 0.38557 0.0
C100 C 0.72196 0.18887 0.40445 0.0
C101 C 0.67246 0.20371 0.38603 0.0
C102 C 0.64091 0.23838 0.4103 0.0
C103 C 0.61845 0.28702 0.48136 0.0
H104 H 0.60226 0.24904 0.39688 0.0
C105 C 0.62971 0.33179 0.50336 0.0
C106 C 0.59074 0.3571 0.5302 0.0
C107 C 0.56839 0.26851 0.48716 0.0
H108 H 0.55866 0.23412 0.47163 0.0
C109 C 0.5304 0.29335 0.51351 0.0
H110 H 0.66797 0.34676 0.49953 0.0
C111 C 0.54138 0.33718 0.53479 0.0
H112 H 0.51101 0.35582 0.55502 0.0
H113 H 0.49217 0.27844 0.51756 0.0
H114 H 0.47245 0.65928 0.19824 0.0
C115 C 0.43612 0.65788 0.17891 0.0
C116 C 0.42204 0.69637 0.14878 0.0
C117 C 0.40189 0.62029 0.18746 0.0
H118 H 0.36331 0.72429 0.10026 0.0
C119 C 0.37621 0.69381 0.12216 0.0
C120 C 0.3434 0.65465 0.12786 0.0
C121 C 0.35594 0.61833 0.16094 0.0
C122 C 0.4112 0.58758 0.22794 0.0
H123 H 0.32817 0.5905 0.16783 0.0
C124 C 0.43232 0.60672 0.26842 0.0
C125 C 0.43966 0.57796 0.30811 0.0
C126 C 0.39741 0.53845 0.22755 0.0
H127 H 0.38152 0.5224 0.19683 0.0
C128 C 0.40409 0.50952 0.26707 0.0
H129 H 0.4426 0.64466 0.26943 0.0
C130 C 0.42469 0.52912 0.30725 0.0
H131 H 0.42804 0.50627 0.33769 0.0
H132 H 0.39289 0.47183 0.26667 0.0
H133 H 0.19902 0.63111 0.58922 0.0
C134 C 0.19318 0.59274 0.5825 0.0
C135 C 0.23403 0.55752 0.59133 0.0
C136 C 0.14308 0.57821 0.57022 0.0
H137 H 0.25549 0.48006 0.59481 0.0
C138 C 0.22454 0.50748 0.58695 0.0
C139 C 0.17456 0.49271 0.57425 0.0
C140 C 0.13469 0.52838 0.56475 0.0
C141 C 0.09644 0.61024 0.57979 0.0
H142 H 0.09496 0.51716 0.5591 0.0
C143 C 0.08745 0.62094 0.62604 0.0
C144 C 0.03635 0.62841 0.64231 0.0
C145 C 0.05436 0.61422 0.54848 0.0
H146 H 0.06017 0.60447 0.51277 0.0
C147 C 1.00355 0.62583 0.56421 0.0
H148 H 0.11932 0.61538 0.65073 0.0
C149 C 0.99418 0.63152 0.6113 0.0
H150 H 0.9543 0.63563 0.62367 0.0
H151 H 0.97107 0.62623 0.5403 0.0
C152 C 0.08878 0.12826 0.47516 0.0
N153 N 0.06824 0.20332 0.59842 0.0
C154 C 0.12028 0.21153 0.59399 0.0
C155 C 0.13805 0.25861 0.59697 0.0
C156 C 0.10191 0.29792 0.60319 0.0
C157 C 0.04879 0.28895 0.60971 0.0
C158 C 0.03267 0.24075 0.60761 0.0
Zn159 Zn 0.04645 0.13626 0.57597 0.0
C160 C 0.94446 0.13944 0.52559 0.0
N161 N 1.01826 0.99828 0.51982 0.0
C162 C 0.05485 0.9628 0.50753 0.0
C163 C 0.96772 0.98759 0.52829 0.0
C164 C 0.9525 0.93978 0.52604 0.0
C165 C 0.98986 0.90228 0.5162 0.0
C166 C 0.0414 0.91381 0.5059 0.0
Zn167 Zn 0.03766 0.06523 0.54182 0.0
O168 O 0.08253 0.15452 0.51096 0.0
C169 C 0.1353 0.06021 0.59455 0.0
O170 O 0.07265 0.0848 0.47636 0.0
H171 H 0.93978 1.01544 0.54041 0.0
H172 H 0.148 0.18238 0.58432 0.0
H173 H 0.09503 0.97196 0.5018 0.0
O174 O 0.11834 0.10374 0.60253 0.0
O175 O 0.11027 1.03465 0.56648 0.0
H176 H 0.99145 0.23381 0.61022 0.0
O177 O 1.00556 0.04516 0.60819 0.0
O178 O 1.012 0.11622 0.64147 0.0
O179 O 0.96306 0.09634 0.51748 0.0
O180 O 0.97167 0.16727 0.55016 0.0
C181 C 1.00086 0.07121 0.64426 0.0
H182 H 0.1791 0.26464 0.59084 0.0
H183 H 1.01995 0.31898 0.6141 0.0
H184 H 0.91255 0.93181 0.53474 0.0
H185 H 0.07099 0.8853 0.49813 0.0
C186 C 0.63351 0.04752 0.10103 0.0
N187 N 0.57148 0.18944 0.09104 0.0
C188 C 0.62268 0.19628 0.10164 0.0
C189 C 0.64583 0.23918 0.08963 0.0
C190 C 0.61602 0.27639 1.06729 0.0
C191 C 0.56343 0.26857 1.05571 0.0
C192 C 0.54175 0.22422 0.0679 0.0
Zn193 Zn 0.54577 0.12523 0.11602 0.0
C194 C 0.50073 0.05978 1.04791 0.0
N195 N 0.5138 0.98901 0.17436 0.0
C196 C 0.55047 0.95567 0.19123 0.0
C197 C 0.46538 0.97567 0.16104 0.0
C198 C 0.45388 0.92659 0.16032 0.0
C199 C 0.49245 0.89123 0.17375 0.0
C200 C 0.54035 0.90588 0.19144 0.0
Zn201 Zn 0.5343 0.05495 0.15081 0.0
O202 O 0.61749 0.09124 0.09274 0.0
C203 C 0.58445 0.11889 0.21765 0.0
O204 O 0.60728 1.02203 0.12823 0.0
H205 H 0.43722 1.00256 0.1469 0.0
H206 H 0.64574 0.16895 0.12083 0.0
H207 H 0.58891 0.96717 0.20103 0.0
O208 O 0.57947 0.14471 0.18132 0.0
O209 O 0.5685 0.07538 0.21663 0.0
H210 H 0.50106 0.21818 1.06018 0.0
O211 O 0.45909 0.08822 0.17219 0.0
O212 O 0.4716 0.1586 0.13861 0.0
O213 O 0.50338 1.03413 0.08449 0.0
O214 O 0.51307 0.10441 1.05028 0.0
C215 C 0.44265 0.132 0.1629 0.0
H216 H 0.68641 0.24383 0.09912 0.0
H217 H 0.53888 0.29703 1.03923 0.0
H218 H 0.4163 0.91611 0.14702 0.0
H219 H 0.57061 0.87906 0.20235 0.0
C220 C 0.57046 0.5443 0.62549 0.0
N221 N 0.53994 0.58939 0.76188 0.0
C222 C 0.50168 0.55854 0.77323 0.0
C223 C 0.48305 0.5572 0.81825 0.0
C224 C 0.50462 0.58755 0.85138 0.0
C225 C 0.54828 0.6142 0.83977 0.0
C226 C 0.56511 0.61498 0.79452 0.0
Zn227 Zn 0.544 0.61627 0.69696 0.0
C228 C 0.64802 0.65355 0.6731 0.0
N229 N 0.54262 0.68351 0.56541 0.0
C230 C 0.49587 0.70089 0.54767 0.0
C231 C 0.58219 0.66696 0.5375 0.0
C232 C 0.57259 0.65998 0.4908 0.0
C233 C 0.52135 0.66825 0.4735 0.0
C234 C 0.4839 0.69263 0.50164 0.0
Zn235 Zn 0.54262 0.65654 0.63098 0.0
O236 O 0.56248 0.54587 0.66859 0.0
C237 C 0.43855 0.61831 0.65111 0.0
O238 O 0.56527 0.58418 0.60259 0.0
H239 H 0.61922 0.65345 0.55212 0.0
H240 H 0.48245 0.53818 0.74679 0.0
H241 H 0.46522 0.71488 0.57028 0.0
O242 O 0.46155 0.60443 0.68803 0.0
O243 O 0.46404 0.64138 0.62177 0.0
H244 H 0.59492 0.63973 0.78487 0.0
O245 O 0.52073 0.7276 0.66075 0.0
O246 O 0.52586 0.68779 0.72598 0.0
O247 O 0.62057 0.67117 0.63998 0.0
O248 O 0.62709 0.62704 0.70328 0.0
C249 C 0.51807 0.72813 0.70454 0.0
H250 H 0.45025 0.53508 0.82638 0.0
H251 H 0.5676 0.63627 0.86499 0.0
H252 H 0.60367 0.64402 0.46965 0.0
H253 H 0.44409 0.7007 0.4898 0.0
C254 C 1.01363 0.73711 0.98984 0.0
N255 N 0.99176 0.67822 0.12568 0.0
C256 C 1.0109 0.71048 0.15644 0.0
C257 C 0.99267 0.71102 0.20207 0.0
C258 C 0.95434 0.67846 0.21497 0.0
C259 C 0.93494 0.64677 0.1825 0.0
C260 C 0.95467 0.64664 0.13851 0.0
Zn261 Zn 1.01948 0.66179 1.0608 0.0
C262 C 0.92719 0.62517 1.00989 0.0
N263 N 0.06144 0.60267 0.93226 0.0
C264 C 0.09007 0.63377 0.90725 0.0
C265 C 0.03358 0.56757 0.91172 0.0
C266 C 0.0289 0.5665 0.86398 0.0
C267 C 0.054 0.60133 0.8375 0.0
C268 C 0.08698 0.63363 0.85949 0.0
Zn269 Zn 0.04207 0.62385 0.99683 0.0
O270 O 1.00957 0.73559 1.03357 0.0
C271 C 0.13281 0.6604 1.05181 0.0
O272 O 0.02468 0.69717 0.96877 0.0
H273 H 1.01091 0.5434 0.93233 0.0
H274 H 0.04149 0.73423 0.14625 0.0
H275 H 0.1113 0.66184 0.9243 0.0
O276 O 0.09596 0.67293 0.07915 0.0
O277 O 0.12177 0.64169 1.01303 0.0
H278 H 0.94172 0.61885 0.11549 0.0
O279 O 0.06069 0.5516 1.02464 0.0
O280 O 0.03139 0.58714 0.08708 0.0
O281 O 0.96119 0.60489 0.98353 0.0
O282 O 0.94294 0.65189 1.04167 0.0
C283 C 0.05058 0.54893 1.06727 0.0
H284 H 1.00885 0.73554 0.22696 0.0
H285 H 0.90621 0.62053 0.1917 0.0
H286 H 1.00285 0.54117 0.84834 0.0
H287 H 0.10769 0.66044 0.84009 0.0
C288 C 0.1424 0.14172 0.35195 0.0
C289 C 0.15907 0.19021 0.3507 0.0
C290 C 0.12009 0.12177 0.39198 0.0
C291 C 0.1139 0.1492 0.43287 0.0
H292 H 0.14557 0.11931 0.32139 0.0
H293 H 0.10723 0.08463 0.39068 0.0
S294 S 0.15612 0.2766 0.44895 0.0
N295 N 0.17092 0.26389 0.39506 0.0
N296 N 0.12968 0.22721 0.46949 0.0
C297 C 0.13194 0.19735 0.43222 0.0
C298 C 0.15426 0.21755 0.39153 0.0
C299 C 0.47638 0.9596 0.95873 0.0
C300 C 0.46666 0.98585 0.91763 0.0
C301 C 0.48681 0.98386 1.00036 0.0
C302 C 0.4883 1.03556 1.00291 0.0
H303 H 0.47395 0.92013 0.95912 0.0
H304 H 0.49352 0.96165 1.03094 0.0
S305 S 0.46868 0.12097 0.90407 0.0
N306 N 0.4613 0.06628 0.88167 0.0
N307 N 0.48142 0.11158 0.95918 0.0
C308 C 0.48025 0.06199 0.9616 0.0
C309 C 0.4693 1.03729 0.91935 0.0
C310 C 0.47113 0.55218 0.97224 0.0
C311 C 0.47331 0.59747 0.99482 0.0
C312 C 0.47617 0.54927 0.92446 0.0
C313 C 0.48282 0.59171 0.89822 0.0
H314 H 0.4727 0.51841 0.99196 0.0
H315 H 0.48034 0.5134 0.90878 0.0
S316 S 0.4747 0.71976 0.94032 0.0
N317 N 0.47157 0.68582 0.98723 0.0
N318 N 0.47821 0.68094 0.89696 0.0
C319 C 0.47653 0.6376 0.91986 0.0
C320 C 0.47225 0.64038 0.96846 0.0
C321 C 0.85773 0.66934 0.31029 0.0
C322 C 0.8836 0.63545 0.34025 0.0
C323 C 0.88316 0.68764 0.27186 0.0
C324 C 0.93547 0.67301 0.26227 0.0
H325 H 0.8172 0.68124 0.31622 0.0
H326 H 0.86093 0.71127 0.24805 0.0
S327 S 1.02102 0.58609 0.33019 0.0
N328 N 0.96493 0.58906 0.35837 0.0
N329 N 1.01263 0.62348 0.28571 0.0
C330 C 0.96245 0.64068 0.29276 0.0
C331 C 0.93655 0.62189 0.33191 0.0
C332 C 0.33541 0.22177 0.20924 0.0
C333 C 0.29466 0.19144 0.22237 0.0
C334 C 0.38224 0.20258 0.18917 0.0
C335 C 0.39121 0.15194 0.18179 0.0
H336 H 0.33175 0.26084 0.2154 0.0
H337 H 0.41227 0.22764 0.18046 0.0
S338 S 0.29627 0.05648 0.20618 0.0
N339 N 0.26576 0.10794 0.22304 0.0
N340 N 0.35403 0.07196 0.18721 0.0
C341 C 0.35072 0.12116 0.19411 0.0
C342 C 0.30264 0.14078 0.21391 0.0
C343 C 0.2375 0.04918 0.6889 0.0
C344 C 0.23136 1.00141 0.70524 0.0
C345 C 0.20984 0.06685 0.64991 0.0
C346 C 0.1756 1.03712 0.62572 0.0
H347 H 0.26069 0.07415 0.70831 0.0
H348 H 0.21266 0.10502 0.64043 0.0
S349 S 0.15111 0.9072 0.6523 0.0
N350 N 0.1925 0.92336 0.69269 0.0
N351 N 0.14133 0.9558 0.61887 0.0
C352 C 0.17283 0.98786 0.63966 0.0
C353 C 0.20038 0.97024 0.67971 0.0
C354 C 0.80397 0.55515 0.99128 0.0
C355 C 0.77028 0.57458 1.02575 0.0
C356 C 0.8536 0.57374 0.98368 0.0
C357 C 0.87104 0.61298 1.00978 0.0
H358 H 0.79278 0.5241 0.97109 0.0
H359 H 0.87933 0.5557 0.95883 0.0
S360 S 0.79548 0.68106 0.10033 0.0
N361 N 0.75724 0.63729 0.08427 0.0
N362 N 0.8478 0.67466 0.06757 0.0
C363 C 0.83582 0.63543 1.04154 0.0
C364 C 0.78617 0.61567 1.05014 0.0
C365 C 0.7872 0.62112 0.64406 0.0
C366 C 0.80277 0.6661 0.62608 0.0
C367 C 0.73883 0.61788 0.66642 0.0
C368 C 0.70483 0.65953 0.67126 0.0
H369 H 0.81021 0.58763 0.63706 0.0
H370 H 0.72557 0.58195 0.67509 0.0
S371 S 0.73098 0.78698 0.63868 0.0
N372 N 0.78308 0.75422 0.62112 0.0
N373 N 0.69303 0.74767 0.66359 0.0
C374 C 0.7228 0.70533 0.65885 0.0
C375 C 0.77169 0.70878 0.6361 0.0
C376 C 0.0588 0.46266 0.17042 0.0
C377 C 0.10476 0.43306 0.16272 0.0
C378 C 0.03977 0.49756 0.13799 0.0
C379 C 0.06538 0.50442 0.09587 0.0
H380 H 0.0391 0.46097 0.20323 0.0
H381 H 1.00595 0.52103 0.14704 0.0
S382 S 0.18477 0.43348 1.05682 0.0
N383 N 0.17352 0.41084 0.10837 0.0
N384 N 0.13735 0.4757 1.0469 0.0
C385 C 0.10925 0.47264 0.08619 0.0
C386 C 0.12897 0.43719 0.11964 0.0
C387 C 0.68248 0.39318 0.09559 0.0
C388 C 0.67654 0.42028 1.05482 0.0
C389 C 0.66414 0.34598 0.09864 0.0
C390 C 0.63886 0.32459 1.06108 0.0
H391 H 0.6984 0.40974 0.12608 0.0
H392 H 0.66743 0.3271 0.13141 0.0
S393 S 0.61712 0.38014 0.94581 0.0
N394 N 0.64628 0.42248 0.97561 0.0
N395 N 0.61221 0.33299 0.98099 0.0
C396 C 0.63485 0.35066 1.01947 0.0
C397 C 0.65376 0.39872 1.01639 0.0
C398 C 0.90857 0.79307 0.50135 0.0
C399 C 0.92722 0.76132 0.53665 0.0
C400 C 0.93161 0.83733 0.49304 0.0
C401 C 0.97406 0.85153 0.51974 0.0
H402 H 0.87498 0.78413 0.48061 0.0
H403 H 0.91496 0.8615 0.46655 0.0
S404 S 0.03801 0.78169 0.61592 0.0
N405 N 0.99106 0.74669 0.59804 0.0
N406 N 0.03446 0.8309 0.5826 0.0
C407 C 0.99392 0.81996 0.5546 0.0
C408 C 0.97023 0.77468 0.56321 0.0
C409 C 0.48977 0.81472 0.80632 0.0
C410 C 0.47707 0.86024 0.78531 0.0
C411 C 0.50384 0.7728 0.78001 0.0
C412 C 0.50593 0.77438 0.73138 0.0
H413 H 0.48634 0.81084 0.84322 0.0
H414 H 0.51185 0.7385 0.79811 0.0
S415 S 0.48096 0.88615 0.66001 0.0
N416 N 0.4711 0.90521 0.71317 0.0
N417 N 0.49738 0.82706 0.664 0.0
C418 C 0.49556 0.82032 0.71022 0.0
C419 C 0.48123 0.86291 0.73702 0.0
C420 C 0.97659 0.97111 0.73452 0.0
C421 C 0.96399 0.99743 0.77478 0.0
C422 C 0.98776 0.99529 0.69285 0.0
C423 C 0.98732 0.04709 0.6893 0.0
H424 H 0.97607 0.9315 0.73476 0.0
H425 H 0.99675 0.97291 0.66302 0.0
S426 S 0.95987 0.13305 0.7857 0.0
N427 N 0.9538 0.07833 0.80881 0.0
N428 N 0.9753 0.1234 0.73135 0.0
C429 C 0.97625 0.07369 0.72978 0.0
C430 C 0.96446 0.04906 0.77207 0.0
C431 C 0.64744 0.13115 0.33758 0.0
C432 C 0.65238 0.18213 0.34219 0.0
C433 C 0.62526 0.11084 0.29767 0.0
C434 C 0.60788 0.14055 0.26024 0.0
H435 H 0.65979 0.10683 0.3655 0.0
H436 H 0.6219 0.07153 0.29614 0.0
S437 S 0.6143 0.27631 0.25448 0.0
N438 N 0.63914 0.26157 0.30546 0.0
N439 N 0.59868 0.22419 0.23077 0.0
C440 C 0.61365 0.1916 0.26434 0.0
C441 C 0.63547 0.21212 0.3051 0.0
C442 C 0.44589 0.64827 0.36276 0.0
C443 C 0.46203 0.60013 0.35011 0.0
C444 C 0.46709 0.67077 0.40126 0.0
C445 C 0.50462 0.64585 0.42949 0.0
H446 H 0.41602 0.66876 0.34305 0.0
H447 H 0.4533 0.70787 0.40927 0.0
S448 S 0.5603 0.51895 0.41146 0.0
N449 N 0.51958 0.52894 0.36783 0.0
N450 N 0.55636 0.56947 0.44234 0.0
C451 C 0.52115 0.59755 0.41727 0.0
C452 C 0.5004 0.57508 0.37732 0.0
C453 C 0.02451 0.66072 0.7215 0.0
C454 C 0.02851 0.62068 0.69166 0.0
C455 C 0.03125 0.65385 0.76894 0.0
C456 C 0.04288 0.60682 0.78773 0.0
H457 H 1.0188 0.6976 0.70792 0.0
H458 H 0.02872 0.68573 0.79098 0.0
S459 S 0.0561 0.49034 0.72294 0.0
N460 N 0.04254 0.53265 0.6834 0.0
N461 N 0.0566 0.51969 0.77243 0.0
C462 C 0.04488 0.56638 0.75809 0.0
C463 C 0.03741 0.57338 0.71003 0.0
C464 C 0.73937 1.03901 1.01113 0.0
C465 C 0.72805 0.9955 0.98837 0.0
C466 C 0.71215 0.05355 1.05104 0.0
C467 C 0.67342 1.02461 0.06999 0.0
H468 H 0.76629 0.06384 0.99598 0.0
H469 H 0.71883 0.08929 1.0653 0.0
S470 S 0.63407 0.90447 1.02602 0.0
N471 N 0.67919 0.92154 0.98961 0.0
N472 N 0.62889 0.94811 1.06505 0.0
C473 C 0.6653 0.97889 1.04976 0.0
C474 C 0.69231 0.96459 1.00872 0.0
C475 C 0.82674 0.22287 0.48629 0.0
C476 C 0.79178 0.18992 0.46715 0.0
C477 C 0.87558 0.2065 0.50541 0.0
C478 C 0.89183 0.15638 0.50622 0.0
H479 H 0.81661 0.26183 0.48595 0.0
H480 H 0.90106 0.23348 0.51916 0.0
S481 S 0.81286 0.05443 0.46459 0.0
N482 N 0.77566 0.10426 0.45355 0.0
N483 N 0.86702 0.07373 0.48813 0.0
C484 C 0.85675 0.12302 0.48792 0.0
C485 C 0.80703 0.13966 0.46878 0.0
C486 C 0.24704 0.66529 0.1345 0.0
C487 C 0.29094 0.65713 0.1064 0.0
C488 C 0.19649 0.66806 0.11592 0.0
C489 C 0.18768 0.66212 0.06845 0.0
H490 H 0.25188 0.66957 0.17127 0.0
H491 H 0.164 0.67369 0.13943 0.0
S492 S 0.29079 0.64159 0.98013 0.0
N493 N 0.3237 0.64494 1.029 0.0
N494 N 0.22801 0.6489 0.99354 0.0
C495 C 0.23161 0.65459 1.03977 0.0
C496 C 0.28344 0.65248 1.05888 0.0
C497 C 0.31159 0.60892 0.58424 0.0
C498 C 0.28521 0.57333 0.60861 0.0
C499 C 0.36027 0.62422 0.59928 0.0
C500 C 0.38445 0.60481 0.63956 0.0
H501 H 0.29492 0.6244 0.55276 0.0
H502 H 0.37944 0.65099 0.57855 0.0
S503 S 0.32875 0.51366 0.71799 0.0
N504 N 0.28458 0.5213 0.67654 0.0
N505 N 0.37646 0.54987 0.7049 0.0
C506 C 0.35753 0.57031 0.66514 0.0
C507 C 0.30791 0.55453 0.64959 0.0
C508 C 0.99033 0.82497 0.88708 0.0
C509 C 0.97702 0.87036 0.90768 0.0
C510 C 1.0036 0.78277 0.91384 0.0
C511 C 1.00399 0.78385 0.96253 0.0
H512 H 0.98772 0.82136 0.8501 0.0
H513 H 1.01183 0.74856 0.896 0.0
S514 S 0.97798 0.89525 1.03311 0.0
N515 N 0.96971 0.91477 0.97967 0.0
N516 N 0.99403 0.8361 1.02959 0.0
C517 C 0.99343 0.82972 0.98333 0.0
C518 C 0.98019 0.87261 0.9561 0.0
C519 C 0.45834 0.76146 0.19768 0.0
C520 C 0.44845 0.74322 0.15328 0.0
C521 C 0.47563 0.80866 0.20407 0.0
C522 C 0.48301 0.83934 0.16636 0.0
H523 H 0.45001 0.74015 0.228 0.0
H524 H 0.48058 0.82213 0.23872 0.0
S525 S 0.46915 0.80813 1.0433 0.0
N526 N 0.45265 0.75834 0.07101 0.0
N527 N 0.48398 0.84795 0.08331 0.0
C528 C 0.47594 0.82115 0.12183 0.0
C529 C 0.45884 0.77285 0.11521 0.0
C530 C 0.17292 0.41487 0.61954 0.0
C531 C 0.16032 0.441 0.57881 0.0
C532 C 0.1531 0.36874 0.6278 0.0
C533 C 0.11932 0.34784 0.59601 0.0
H534 H 0.19691 0.43078 0.64585 0.0
H535 H 0.16376 0.34949 0.65936 0.0
S536 S 0.07808 0.39874 0.48265 0.0
N537 N 0.11525 0.44051 0.50492 0.0
N538 N 0.0767 0.35448 0.52137 0.0
C539 C 0.10734 0.37285 0.55486 0.0
C540 C 0.12817 0.41929 0.54603 0.0
C541 C 0.59418 0.44905 0.53015 0.0
C542 C 0.59879 0.40435 0.55434 0.0
C543 C 0.58703 0.49418 0.55336 0.0
C544 C 0.58373 0.49647 0.60179 0.0
H545 H 0.59314 0.4489 0.49296 0.0
H546 H 0.58195 0.52735 0.533 0.0
S547 S 0.59794 0.38943 0.68095 0.0
N548 N 0.6028 0.36521 0.62918 0.0
N549 N 0.58986 0.44918 0.67289 0.0
C550 C 0.59098 0.45193 0.62628 0.0
C551 C 0.59829 0.40621 0.60259 0.0
loop_
_geom_bond_atom_site_label_1
_geom_bond_atom_site_label_2
_geom_bond_distance
_geom_bond_site_symmetry_2
_ccdc_geom_bond_type
H0 C1 0.949 . S
C1 H0 0.949 . S
C1 C2 1.395 . S
C1 C3 1.391 . S
C2 C1 1.395 . S
C2 C5 1.390 . S
C3 C1 1.391 . S
C3 C7 1.387 . S
C3 C8 1.491 . S
H4 C5 0.950 . S
C5 C2 1.390 . S
C5 H4 0.950 . S
C5 C6 1.378 . S
C6 C5 1.378 . S
C6 C7 1.409 . S
C7 C3 1.387 . S
C7 C6 1.409 . S
C7 H9 0.951 . S
C8 C3 1.491 . S
C8 C10 1.382 . S
C8 C12 1.404 . S
H9 C7 0.951 . S
C10 C8 1.382 . S
C10 C11 1.390 . S
C10 H15 0.949 . S
C11 C10 1.390 . S
C11 C16 1.399 . S
C12 C8 1.404 . S
C12 H13 0.950 . S
C12 C14 1.375 . S
H13 C12 0.950 . S
C14 C12 1.375 . S
C14 C16 1.382 . S
C14 H18 0.950 . S
H15 C10 0.949 . S
C16 C11 1.399 . S
C16 C14 1.382 . S
C16 H17 0.952 . S
H17 C16 0.952 . S
H18 C14 0.950 . S
H19 C20 0.949 . S
C20 H19 0.949 . S
C20 C21 1.395 . S
C20 C22 1.391 . S
C21 C20 1.395 . S
C21 C24 1.390 . S
C22 C20 1.391 . S
C22 C26 1.387 . S
C22 C27 1.491 . S
H23 C24 0.950 . S
C24 C21 1.390 . S
C24 H23 0.950 . S
C24 C25 1.378 . S
C25 C24 1.378 . S
C25 C26 1.409 . S
C26 C22 1.387 . S
C26 C25 1.409 . S
C26 H28 0.951 . S
C27 C22 1.491 . S
C27 C29 1.382 . S
C27 C31 1.404 . S
H28 C26 0.951 . S
C29 C27 1.382 . S
C29 C30 1.390 . S
C29 H34 0.949 1_565 S
C30 C29 1.390 . S
C30 C35 1.399 . S
C31 C27 1.404 . S
C31 H32 0.950 . S
C31 C33 1.375 . S
H32 C31 0.950 . S
C33 C31 1.375 . S
C33 C35 1.382 . S
C33 H37 0.950 . S
H34 C29 0.949 1_545 S
C35 C30 1.399 . S
C35 C33 1.382 . S
C35 H36 0.952 . S
H36 C35 0.952 . S
H37 C33 0.950 . S
H38 C39 0.949 . S
C39 H38 0.949 . S
C39 C40 1.395 . S
C39 C41 1.391 . S
C40 C39 1.395 . S
C40 C43 1.390 . S
C41 C39 1.391 . S
C41 C45 1.387 . S
C41 C46 1.491 . S
H42 C43 0.950 1_554 S
C43 C40 1.390 . S
C43 H42 0.950 1_556 S
C43 C44 1.378 . S
C44 C43 1.378 . S
C44 C45 1.409 . S
C45 C41 1.387 . S
C45 C44 1.409 . S
C45 H47 0.951 . S
C46 C41 1.491 . S
C46 C48 1.382 . S
C46 C50 1.404 . S
H47 C45 0.951 . S
C48 C46 1.382 . S
C48 C49 1.390 . S
C48 H53 0.949 . S
C49 C48 1.390 . S
C49 C54 1.399 . S
C50 C46 1.404 . S
C50 H51 0.950 . S
C50 C52 1.375 . S
H51 C50 0.950 . S
C52 C50 1.375 . S
C52 C54 1.382 . S
C52 H56 0.950 . S
H53 C48 0.949 . S
C54 C49 1.399 . S
C54 C52 1.382 . S
C54 H55 0.952 . S
H55 C54 0.952 . S
H56 C52 0.950 . S
H57 C58 0.949 . S
C58 H57 0.949 . S
C58 C59 1.395 . S
C58 C60 1.391 . S
C59 C58 1.395 . S
C59 C62 1.390 . S
C60 C58 1.391 . S
C60 C64 1.387 . S
C60 C65 1.491 . S
H61 C62 0.950 . S
C62 C59 1.390 . S
C62 H61 0.950 . S
C62 C63 1.378 . S
C63 C62 1.378 . S
C63 C64 1.409 . S
C64 C60 1.387 . S
C64 C63 1.409 . S
C64 H66 0.951 . S
C65 C60 1.491 . S
C65 C67 1.382 . S
C65 C69 1.404 . S
H66 C64 0.951 . S
C67 C65 1.382 . S
C67 C68 1.390 . S
C67 H72 0.949 . S
C68 C67 1.390 . S
C68 C73 1.399 . S
C69 C65 1.404 . S
C69 H70 0.950 . S
C69 C71 1.375 . S
H70 C69 0.950 . S
C71 C69 1.375 . S
C71 C73 1.382 . S
C71 H75 0.950 . S
H72 C67 0.949 . S
C73 C68 1.399 . S
C73 C71 1.382 . S
C73 H74 0.952 . S
H74 C73 0.952 . S
H75 C71 0.950 . S
H76 C77 0.949 . S
C77 H76 0.949 . S
C77 C78 1.395 . S
C77 C79 1.391 . S
C78 C77 1.395 . S
C78 C81 1.390 . S
C79 C77 1.391 . S
C79 C83 1.387 . S
C79 C84 1.491 . S
H80 C81 0.950 . S
C81 C78 1.390 . S
C81 H80 0.950 . S
C81 C82 1.378 . S
C82 C81 1.378 . S
C82 C83 1.409 . S
C83 C79 1.387 . S
C83 C82 1.409 . S
C83 H85 0.951 . S
C84 C79 1.491 . S
C84 C86 1.382 . S
C84 C88 1.404 . S
H85 C83 0.951 . S
C86 C84 1.382 . S
C86 C87 1.390 . S
C86 H91 0.949 . S
C87 C86 1.390 . S
C87 C92 1.399 . S
C88 C84 1.404 . S
C88 H89 0.950 . S
C88 C90 1.375 . S
H89 C88 0.950 . S
C90 C88 1.375 . S
C90 C92 1.382 . S
C90 H94 0.950 . S
H91 C86 0.949 . S
C92 C87 1.399 . S
C92 C90 1.382 . S
C92 H93 0.952 1_565 S
H93 C92 0.952 1_545 S
H94 C90 0.950 . S
H95 C96 0.949 . S
C96 H95 0.949 . S
C96 C97 1.395 . S
C96 C98 1.391 . S
C97 C96 1.395 . S
C97 C100 1.390 . S
C98 C96 1.391 . S
C98 C102 1.387 . S
C98 C103 1.491 . S
H99 C100 0.950 . S
C100 C97 1.390 . S
C100 H99 0.950 . S
C100 C101 1.378 . S
C101 C100 1.378 . S
C101 C102 1.409 . S
C102 C98 1.387 . S
C102 C101 1.409 . S
C102 H104 0.951 . S
C103 C98 1.491 . S
C103 C105 1.382 . S
C103 C107 1.404 . S
H104 C102 0.951 . S
C105 C103 1.382 . S
C105 C106 1.390 . S
C105 H110 0.949 . S
C106 C105 1.390 . S
C106 C111 1.399 . S
C107 C103 1.404 . S
C107 H108 0.950 . S
C107 C109 1.375 . S
H108 C107 0.950 . S
C109 C107 1.375 . S
C109 C111 1.382 . S
C109 H113 0.950 . S
H110 C105 0.949 . S
C111 C106 1.399 . S
C111 C109 1.382 . S
C111 H112 0.952 . S
H112 C111 0.952 . S
H113 C109 0.950 . S
H114 C115 0.949 . S
C115 H114 0.949 . S
C115 C116 1.395 . S
C115 C117 1.391 . S
C116 C115 1.395 . S
C116 C119 1.390 . S
C117 C115 1.391 . S
C117 C121 1.387 . S
C117 C122 1.491 . S
H118 C119 0.950 . S
C119 C116 1.390 . S
C119 H118 0.950 . S
C119 C120 1.378 . S
C120 C119 1.378 . S
C120 C121 1.409 . S
C121 C117 1.387 . S
C121 C120 1.409 . S
C121 H123 0.951 . S
C122 C117 1.491 . S
C122 C124 1.382 . S
C122 C126 1.404 . S
H123 C121 0.951 . S
C124 C122 1.382 . S
C124 C125 1.390 . S
C124 H129 0.949 . S
C125 C124 1.390 . S
C125 C130 1.399 . S
C126 C122 1.404 . S
C126 H127 0.950 . S
C126 C128 1.375 . S
H127 C126 0.950 . S
C128 C126 1.375 . S
C128 C130 1.382 . S
C128 H132 0.950 . S
H129 C124 0.949 . S
C130 C125 1.399 . S
C130 C128 1.382 . S
C130 H131 0.952 . S
H131 C130 0.952 . S
H132 C128 0.950 . S
H133 C134 0.949 . S
C134 H133 0.949 . S
C134 C135 1.395 . S
C134 C136 1.391 . S
C135 C134 1.395 . S
C135 C138 1.390 . S
C136 C134 1.391 . S
C136 C140 1.387 . S
C136 C141 1.491 . S
H137 C138 0.950 . S
C138 C135 1.390 . S
C138 H137 0.950 . S
C138 C139 1.378 . S
C139 C138 1.378 . S
C139 C140 1.409 . S
C140 C136 1.387 . S
C140 C139 1.409 . S
C140 H142 0.951 . S
C141 C136 1.491 . S
C141 C143 1.382 . S
C141 C145 1.404 . S
H142 C140 0.951 . S
C143 C141 1.382 . S
C143 C144 1.390 . S
C143 H148 0.949 . S
C144 C143 1.390 . S
C144 C149 1.399 . S
C145 C141 1.404 . S
C145 H146 0.950 . S
C145 C147 1.375 . S
H146 C145 0.950 . S
C147 C145 1.375 . S
C147 C149 1.382 . S
C147 H151 0.950 . S
H148 C143 0.949 . S
C149 C144 1.399 . S
C149 C147 1.382 . S
C149 H150 0.952 . S
H150 C149 0.952 . S
H151 C147 0.950 . S
C152 O168 1.251 . S
C152 O170 1.254 . S
N153 C154 1.333 . S
N153 C158 1.307 . S
N153 Zn159 2.020 . S
C154 N153 1.333 . S
C154 C155 1.379 . S
C154 H172 0.952 . S
C155 C154 1.379 . S
C155 C156 1.390 . S
C155 H182 0.949 . S
C156 C155 1.390 . S
C156 C157 1.357 . S
C157 C156 1.357 . S
C157 C158 1.370 . S
C157 H183 0.950 . S
C158 N153 1.307 . S
C158 C157 1.370 . S
C158 H176 0.948 1_455 S
Zn159 N153 2.020 . S
Zn159 O168 2.039 . S
Zn159 O174 2.034 . S
Zn159 O178 2.025 1_455 S
Zn159 O180 2.024 1_455 S
C160 O179 1.246 . S
C160 O180 1.249 . S
N161 C162 1.307 . S
N161 C163 1.333 . S
N161 Zn167 2.020 1_565 S
C162 N161 1.307 . S
C162 C166 1.370 . S
C162 H173 0.948 1_655 S
C163 N161 1.333 . S
C163 C164 1.379 . S
C163 H171 0.952 . S
C164 C163 1.379 . S
C164 C165 1.390 . S
C164 H184 0.949 . S
C165 C164 1.390 . S
C165 C166 1.357 . S
C166 C162 1.370 . S
C166 C165 1.357 . S
C166 H185 0.950 . S
Zn167 N161 2.020 1_545 S
Zn167 O170 2.025 1_655 S
Zn167 O175 2.022 1_645 S
Zn167 O177 2.039 . S
Zn167 O179 2.034 . S
O168 C152 1.251 . S
O168 Zn159 2.039 . S
C169 O174 1.246 . S
C169 O175 1.242 1_545 S
O170 C152 1.254 . S
O170 Zn167 2.025 1_455 S
H171 C163 0.952 . S
H172 C154 0.952 . S
H173 C162 0.948 1_455 S
O174 Zn159 2.034 . S
O174 C169 1.246 . S
O175 Zn167 2.022 1_465 S
O175 C169 1.242 1_565 S
H176 C158 0.948 1_655 S
O177 Zn167 2.039 . S
O177 C181 1.251 . S
O178 Zn159 2.025 1_655 S
O178 C181 1.254 . S
O179 C160 1.246 . S
O179 Zn167 2.034 . S
O180 Zn159 2.024 1_655 S
O180 C160 1.249 . S
C181 O177 1.251 . S
C181 O178 1.254 . S
H182 C155 0.949 . S
H183 C157 0.950 . S
H184 C164 0.949 . S
H185 C166 0.950 . S
C186 O202 1.251 . S
C186 O204 1.254 1_545 S
N187 C188 1.333 . S
N187 C192 1.307 . S
N187 Zn193 2.020 . S
C188 N187 1.333 . S
C188 C189 1.379 . S
C188 H206 0.952 . S
C189 C188 1.379 . S
C189 C190 1.390 1_554 S
C189 H216 0.949 . S
C190 C189 1.390 1_556 S
C190 C191 1.357 . S
C191 C190 1.357 . S
C191 C192 1.370 1_556 S
C191 H217 0.950 . S
C192 N187 1.307 . S
C192 C191 1.370 1_554 S
C192 H210 0.948 1_554 S
Zn193 N187 2.020 . S
Zn193 O202 2.039 . S
Zn193 O208 2.034 . S
Zn193 O212 2.025 . S
Zn193 O214 2.024 1_554 S
C194 O213 1.246 1_556 S
C194 O214 1.249 . S
N195 C196 1.307 . S
N195 C197 1.333 . S
N195 Zn201 2.020 1_565 S
C196 N195 1.307 . S
C196 C200 1.370 . S
C196 H207 0.948 . S
C197 N195 1.333 . S
C197 C198 1.379 . S
C197 H205 0.952 . S
C198 C197 1.379 . S
C198 C199 1.390 . S
C198 H218 0.949 . S
C199 C198 1.390 . S
C199 C200 1.357 . S
C200 C196 1.370 . S
C200 C199 1.357 . S
C200 H219 0.950 . S
Zn201 N195 2.020 1_545 S
Zn201 O204 2.025 1_545 S
Zn201 O209 2.024 . S
Zn201 O211 2.039 . S
Zn201 O213 2.034 . S
O202 C186 1.251 . S
O202 Zn193 2.039 . S
C203 O208 1.246 . S
C203 O209 1.249 . S
O204 C186 1.254 1_565 S
O204 Zn201 2.025 1_565 S
H205 C197 0.952 . S
H206 C188 0.952 . S
H207 C196 0.948 . S
O208 Zn193 2.034 . S
O208 C203 1.246 . S
O209 Zn201 2.024 . S
O209 C203 1.249 . S
H210 C192 0.948 1_556 S
O211 Zn201 2.039 . S
O211 C215 1.251 . S
O212 Zn193 2.025 . S
O212 C215 1.254 . S
O213 C194 1.246 1_554 S
O213 Zn201 2.034 . S
O214 Zn193 2.024 1_556 S
O214 C194 1.249 . S
C215 O211 1.251 . S
C215 O212 1.254 . S
H216 C189 0.949 . S
H217 C191 0.950 . S
H218 C198 0.949 . S
H219 C200 0.950 . S
C220 O236 1.251 . S
C220 O238 1.254 . S
N221 C222 1.333 . S
N221 C226 1.307 . S
N221 Zn227 2.020 . S
C222 N221 1.333 . S
C222 C223 1.379 . S
C222 H240 0.952 . S
C223 C222 1.379 . S
C223 C224 1.390 . S
C223 H250 0.949 . S
C224 C223 1.390 . S
C224 C225 1.357 . S
C225 C224 1.357 . S
C225 C226 1.370 . S
C225 H251 0.950 . S
C226 N221 1.307 . S
C226 C225 1.370 . S
C226 H244 0.948 . S
Zn227 N221 2.020 . S
Zn227 O236 2.039 . S
Zn227 O242 2.034 . S
Zn227 O246 2.025 . S
Zn227 O248 2.024 . S
C228 O247 1.246 . S
C228 O248 1.249 . S
N229 C230 1.307 . S
N229 C231 1.333 . S
N229 Zn235 2.020 . S
C230 N229 1.307 . S
C230 C234 1.370 . S
C230 H241 0.948 . S
C231 N229 1.333 . S
C231 C232 1.379 . S
C231 H239 0.952 . S
C232 C231 1.379 . S
C232 C233 1.390 . S
C232 H252 0.949 . S
C233 C232 1.390 . S
C233 C234 1.357 . S
C234 C230 1.370 . S
C234 C233 1.357 . S
C234 H253 0.950 . S
Zn235 N229 2.020 . S
Zn235 O238 2.025 . S
Zn235 O243 2.024 . S
Zn235 O245 2.039 . S
Zn235 O247 2.034 . S
O236 C220 1.251 . S
O236 Zn227 2.039 . S
C237 O242 1.246 . S
C237 O243 1.249 . S
O238 C220 1.254 . S
O238 Zn235 2.025 . S
H239 C231 0.952 . S
H240 C222 0.952 . S
H241 C230 0.948 . S
O242 Zn227 2.034 . S
O242 C237 1.246 . S
O243 Zn235 2.024 . S
O243 C237 1.249 . S
H244 C226 0.948 . S
O245 Zn235 2.039 . S
O245 C249 1.251 . S
O246 Zn227 2.025 . S
O246 C249 1.254 . S
O247 C228 1.246 . S
O247 Zn235 2.034 . S
O248 Zn227 2.024 . S
O248 C228 1.249 . S
C249 O245 1.251 . S
C249 O246 1.254 . S
H250 C223 0.949 . S
H251 C225 0.950 . S
H252 C232 0.949 . S
H253 C234 0.950 . S
C254 O270 1.251 1_556 S
C254 O272 1.254 1_655 S
N255 C256 1.333 . S
N255 C260 1.307 . S
N255 Zn261 2.020 . S
C256 N255 1.333 . S
C256 C257 1.379 . S
C256 H274 0.952 . S
C257 C256 1.379 . S
C257 C258 1.390 . S
C257 H284 0.949 . S
C258 C257 1.390 . S
C258 C259 1.357 . S
C259 C258 1.357 . S
C259 C260 1.370 . S
C259 H285 0.950 . S
C260 N255 1.307 . S
C260 C259 1.370 . S
C260 H278 0.948 . S
Zn261 N255 2.020 . S
Zn261 O270 2.039 . S
Zn261 O276 2.034 1_655 S
Zn261 O280 2.025 1_655 S
Zn261 O282 2.024 . S
C262 O281 1.246 . S
C262 O282 1.249 1_556 S
N263 C264 1.307 . S
N263 C265 1.333 . S
N263 Zn269 2.020 . S
C264 N263 1.307 . S
C264 C268 1.370 . S
C264 H275 0.948 . S
C265 N263 1.333 . S
C265 C266 1.379 . S
C265 H273 0.952 . S
C266 C265 1.379 . S
C266 C267 1.390 . S
C266 H286 0.949 . S
C267 C266 1.390 . S
C267 C268 1.357 . S
C268 C264 1.370 . S
C268 C267 1.357 . S
C268 H287 0.950 . S
Zn269 N263 2.020 . S
Zn269 O272 2.025 . S
Zn269 O277 2.024 . S
Zn269 O279 2.039 . S
Zn269 O281 2.034 1_455 S
O270 C254 1.251 1_554 S
O270 Zn261 2.039 . S
C271 O276 1.246 . S
C271 O277 1.249 1_554 S
O272 C254 1.254 1_455 S
O272 Zn269 2.025 . S
H273 C265 0.952 . S
H274 C256 0.952 . S
H275 C264 0.948 . S
O276 Zn261 2.034 1_455 S
O276 C271 1.246 . S
O277 Zn269 2.024 . S
O277 C271 1.249 1_556 S
H278 C260 0.948 . S
O279 Zn269 2.039 . S
O279 C283 1.251 1_556 S
O280 Zn261 2.025 1_455 S
O280 C283 1.254 . S
O281 C262 1.246 . S
O281 Zn269 2.034 1_655 S
O282 Zn261 2.024 . S
O282 C262 1.249 1_554 S
C283 O279 1.251 1_554 S
C283 O280 1.254 . S
H284 C257 0.949 . S
H285 C259 0.950 . S
H286 C266 0.949 . S
H287 C268 0.950 . S
C288 C289 1.369 . S
C288 C290 1.419 . S
C288 H292 0.930 . S
C289 C288 1.369 . S
C289 C298 1.429 . S
C290 C288 1.419 . S
C290 C291 1.363 . S
C290 H293 0.929 . S
C291 C290 1.363 . S
C291 C297 1.428 . S
H292 C288 0.930 . S
H293 C290 0.929 . S
S294 N295 1.613 . S
S294 N296 1.610 . S
N295 S294 1.613 . S
N295 C298 1.350 . S
N296 S294 1.610 . S
N296 C297 1.351 . S
C297 C291 1.428 . S
C297 N296 1.351 . S
C297 C298 1.434 . S
C298 C289 1.429 . S
C298 N295 1.350 . S
C298 C297 1.434 . S
C299 C300 1.369 . S
C299 C301 1.419 . S
C299 H303 0.930 . S
C300 C299 1.369 . S
C300 C309 1.429 1_565 S
C301 C299 1.419 . S
C301 C302 1.363 1_565 S
C301 H304 0.929 . S
C302 C301 1.363 1_545 S
C302 C308 1.428 . S
H303 C299 0.930 . S
H304 C301 0.929 . S
S305 N306 1.613 . S
S305 N307 1.610 . S
N306 S305 1.613 . S
N306 C309 1.350 . S
N307 S305 1.610 . S
N307 C308 1.351 . S
C308 C302 1.428 . S
C308 N307 1.351 . S
C308 C309 1.434 . S
C309 C300 1.429 1_545 S
C309 N306 1.350 . S
C309 C308 1.434 . S
C310 C311 1.369 . S
C310 C312 1.419 . S
C310 H314 0.930 . S
C311 C310 1.369 . S
C311 C320 1.429 . S
C312 C310 1.419 . S
C312 C313 1.363 . S
C312 H315 0.929 . S
C313 C312 1.363 . S
C313 C319 1.428 . S
H314 C310 0.930 . S
H315 C312 0.929 . S
S316 N317 1.613 . S
S316 N318 1.610 . S
N317 S316 1.613 . S
N317 C320 1.350 . S
N318 S316 1.610 . S
N318 C319 1.351 . S
C319 C313 1.428 . S
C319 N318 1.351 . S
C319 C320 1.434 . S
C320 C311 1.429 . S
C320 N317 1.350 . S
C320 C319 1.434 . S
C321 C322 1.369 . S
C321 C323 1.419 . S
C321 H325 0.930 . S
C322 C321 1.369 . S
C322 C331 1.429 . S
C323 C321 1.419 . S
C323 C324 1.363 . S
C323 H326 0.929 . S
C324 C323 1.363 . S
C324 C330 1.428 . S
H325 C321 0.930 . S
H326 C323 0.929 . S
S327 N328 1.613 . S
S327 N329 1.610 . S
N328 S327 1.613 . S
N328 C331 1.350 . S
N329 S327 1.610 . S
N329 C330 1.351 . S
C330 C324 1.428 . S
C330 N329 1.351 . S
C330 C331 1.434 . S
C331 C322 1.429 . S
C331 N328 1.350 . S
C331 C330 1.434 . S
C332 C333 1.369 . S
C332 C334 1.419 . S
C332 H336 0.930 . S
C333 C332 1.369 . S
C333 C342 1.429 . S
C334 C332 1.419 . S
C334 C335 1.363 . S
C334 H337 0.929 . S
C335 C334 1.363 . S
C335 C341 1.428 . S
H336 C332 0.930 . S
H337 C334 0.929 . S
S338 N339 1.613 . S
S338 N340 1.610 . S
N339 S338 1.613 . S
N339 C342 1.350 . S
N340 S338 1.610 . S
N340 C341 1.351 . S
C341 C335 1.428 . S
C341 N340 1.351 . S
C341 C342 1.434 . S
C342 C333 1.429 . S
C342 N339 1.350 . S
C342 C341 1.434 . S
C343 C344 1.369 . S
C343 C345 1.419 . S
C343 H347 0.930 1_545 S
C344 C343 1.369 . S
C344 C353 1.429 . S
C345 C343 1.419 . S
C345 C346 1.363 . S
C345 H348 0.929 . S
C346 C345 1.363 . S
C346 C352 1.428 . S
H347 C343 0.930 1_565 S
H348 C345 0.929 . S
S349 N350 1.613 . S
S349 N351 1.610 . S
N350 S349 1.613 . S
N350 C353 1.350 . S
N351 S349 1.610 . S
N351 C352 1.351 . S
C352 C346 1.428 . S
C352 N351 1.351 . S
C352 C353 1.434 . S
C353 C344 1.429 . S
C353 N350 1.350 . S
C353 C352 1.434 . S
C354 C355 1.369 . S
C354 C356 1.419 . S
C354 H358 0.930 . S
C355 C354 1.369 . S
C355 C364 1.429 1_556 S
C356 C354 1.419 . S
C356 C357 1.363 . S
C356 H359 0.929 . S
C357 C356 1.363 . S
C357 C363 1.428 1_556 S
H358 C354 0.930 . S
H359 C356 0.929 . S
S360 N361 1.613 . S
S360 N362 1.610 . S
N361 S360 1.613 . S
N361 C364 1.350 . S
N362 S360 1.610 . S
N362 C363 1.351 . S
C363 C357 1.428 1_554 S
C363 N362 1.351 . S
C363 C364 1.434 . S
C364 C355 1.429 1_554 S
C364 N361 1.350 . S
C364 C363 1.434 . S
C365 C366 1.369 . S
C365 C367 1.419 . S
C365 H369 0.930 . S
C366 C365 1.369 . S
C366 C375 1.429 . S
C367 C365 1.419 . S
C367 C368 1.363 . S
C367 H370 0.929 . S
C368 C367 1.363 . S
C368 C374 1.428 . S
H369 C365 0.930 . S
H370 C367 0.929 . S
S371 N372 1.613 . S
S371 N373 1.610 . S
N372 S371 1.613 . S
N372 C375 1.350 . S
N373 S371 1.610 . S
N373 C374 1.351 . S
C374 C368 1.428 . S
C374 N373 1.351 . S
C374 C375 1.434 . S
C375 C366 1.429 . S
C375 N372 1.350 . S
C375 C374 1.434 . S
C376 C377 1.369 . S
C376 C378 1.419 . S
C376 H380 0.930 1_455 S
C377 C376 1.369 . S
C377 C386 1.429 . S
C378 C376 1.419 . S
C378 C379 1.363 . S
C378 H381 0.929 1_455 S
C379 C378 1.363 . S
C379 C385 1.428 . S
H380 C376 0.930 1_655 S
H381 C378 0.929 1_655 S
S382 N383 1.613 . S
S382 N384 1.610 . S
N383 S382 1.613 . S
N383 C386 1.350 . S
N384 S382 1.610 . S
N384 C385 1.351 . S
C385 C379 1.428 . S
C385 N384 1.351 . S
C385 C386 1.434 . S
C386 C377 1.429 . S
C386 N383 1.350 . S
C386 C385 1.434 . S
C387 C388 1.369 1_554 S
C387 C389 1.419 . S
C387 H391 0.930 . S
C388 C387 1.369 1_556 S
C388 C397 1.429 . S
C389 C387 1.419 . S
C389 C390 1.363 1_554 S
C389 H392 0.929 . S
C390 C389 1.363 1_556 S
C390 C396 1.428 . S
H391 C387 0.930 . S
H392 C389 0.929 . S
S393 N394 1.613 . S
S393 N395 1.610 . S
N394 S393 1.613 . S
N394 C397 1.350 . S
N395 S393 1.610 . S
N395 C396 1.351 . S
C396 C390 1.428 . S
C396 N395 1.351 . S
C396 C397 1.434 . S
C397 C388 1.429 . S
C397 N394 1.350 . S
C397 C396 1.434 . S
C398 C399 1.369 . S
C398 C400 1.419 . S
C398 H402 0.930 . S
C399 C398 1.369 . S
C399 C408 1.429 . S
C400 C398 1.419 . S
C400 C401 1.363 . S
C400 H403 0.929 . S
C401 C400 1.363 . S
C401 C407 1.428 . S
H402 C398 0.930 . S
H403 C400 0.929 . S
S404 N405 1.613 1_455 S
S404 N406 1.610 1_455 S
N405 S404 1.613 1_655 S
N405 C408 1.350 . S
N406 S404 1.610 1_655 S
N406 C407 1.351 . S
C407 C401 1.428 . S
C407 N406 1.351 . S
C407 C408 1.434 . S
C408 C399 1.429 . S
C408 N405 1.350 . S
C408 C407 1.434 . S
C409 C410 1.369 . S
C409 C411 1.419 . S
C409 H413 0.930 . S
C410 C409 1.369 . S
C410 C419 1.429 . S
C411 C409 1.419 . S
C411 C412 1.363 . S
C411 H414 0.929 . S
C412 C411 1.363 . S
C412 C418 1.428 . S
H413 C409 0.930 . S
H414 C411 0.929 . S
S415 N416 1.613 . S
S415 N417 1.610 . S
N416 S415 1.613 . S
N416 C419 1.350 . S
N417 S415 1.610 . S
N417 C418 1.351 . S
C418 C412 1.428 . S
C418 N417 1.351 . S
C418 C419 1.434 . S
C419 C410 1.429 . S
C419 N416 1.350 . S
C419 C418 1.434 . S
C420 C421 1.369 . S
C420 C422 1.419 . S
C420 H424 0.930 . S
C421 C420 1.369 . S
C421 C430 1.429 1_565 S
C422 C420 1.419 . S
C422 C423 1.363 1_565 S
C422 H425 0.929 . S
C423 C422 1.363 1_545 S
C423 C429 1.428 . S
H424 C420 0.930 . S
H425 C422 0.929 . S
S426 N427 1.613 . S
S426 N428 1.610 . S
N427 S426 1.613 . S
N427 C430 1.350 1_455 S
N428 S426 1.610 . S
N428 C429 1.351 1_455 S
C429 C423 1.428 . S
C429 N428 1.351 1_655 S
C429 C430 1.434 . S
C430 C421 1.429 1_545 S
C430 N427 1.350 1_655 S
C430 C429 1.434 . S
C431 C432 1.369 . S
C431 C433 1.419 . S
C431 H435 0.930 . S
C432 C431 1.369 . S
C432 C441 1.429 . S
C433 C431 1.419 . S
C433 C434 1.363 . S
C433 H436 0.929 . S
C434 C433 1.363 . S
C434 C440 1.428 . S
H435 C431 0.930 . S
H436 C433 0.929 . S
S437 N438 1.613 . S
S437 N439 1.610 . S
N438 S437 1.613 . S
N438 C441 1.350 . S
N439 S437 1.610 . S
N439 C440 1.351 . S
C440 C434 1.428 . S
C440 N439 1.351 . S
C440 C441 1.434 . S
C441 C432 1.429 . S
C441 N438 1.350 . S
C441 C440 1.434 . S
C442 C443 1.369 . S
C442 C444 1.419 . S
C442 H446 0.930 . S
C443 C442 1.369 . S
C443 C452 1.429 . S
C444 C442 1.419 . S
C444 C445 1.363 . S
C444 H447 0.929 . S
C445 C444 1.363 . S
C445 C451 1.428 . S
H446 C442 0.930 . S
H447 C444 0.929 . S
S448 N449 1.613 . S
S448 N450 1.610 . S
N449 S448 1.613 . S
N449 C452 1.350 . S
N450 S448 1.610 . S
N450 C451 1.351 . S
C451 C445 1.428 . S
C451 N450 1.351 . S
C451 C452 1.434 . S
C452 C443 1.429 . S
C452 N449 1.350 . S
C452 C451 1.434 . S
C453 C454 1.369 . S
C453 C455 1.419 . S
C453 H457 0.930 . S
C454 C453 1.369 . S
C454 C463 1.429 . S
C455 C453 1.419 . S
C455 C456 1.363 . S
C455 H458 0.929 . S
C456 C455 1.363 . S
C456 C462 1.428 . S
H457 C453 0.930 . S
H458 C455 0.929 . S
S459 N460 1.613 . S
S459 N461 1.610 . S
N460 S459 1.613 . S
N460 C463 1.350 . S
N461 S459 1.610 . S
N461 C462 1.351 . S
C462 C456 1.428 . S
C462 N461 1.351 . S
C462 C463 1.434 . S
C463 C454 1.429 . S
C463 N460 1.350 . S
C463 C462 1.434 . S
C464 C465 1.358 1_545 S
C464 C466 1.419 . S
C464 H468 0.930 . S
C465 C464 1.358 1_565 S
C465 C474 1.436 . S
C466 C464 1.419 . S
C466 C467 1.363 1_556 S
C466 H469 0.929 . S
C467 C466 1.363 1_554 S
C467 C473 1.428 1_545 S
H468 C464 0.930 . S
H469 C466 0.929 . S
S470 N471 1.613 . S
S470 N472 1.610 . S
N471 S470 1.613 . S
N471 C474 1.350 1_554 S
N472 S470 1.610 . S
N472 C473 1.351 . S
C473 C467 1.428 1_565 S
C473 N472 1.351 . S
C473 C474 1.434 1_554 S
C474 C465 1.436 . S
C474 N471 1.350 1_556 S
C474 C473 1.434 1_556 S
C475 C476 1.369 . S
C475 C477 1.419 . S
C475 H479 0.930 . S
C476 C475 1.369 . S
C476 C485 1.429 . S
C477 C475 1.419 . S
C477 C478 1.363 . S
C477 H480 0.929 . S
C478 C477 1.363 . S
C478 C484 1.428 . S
H479 C475 0.930 . S
H480 C477 0.929 . S
S481 N482 1.613 . S
S481 N483 1.610 . S
N482 S481 1.613 . S
N482 C485 1.350 . S
N483 S481 1.610 . S
N483 C484 1.351 . S
C484 C478 1.428 . S
C484 N483 1.351 . S
C484 C485 1.434 . S
C485 C476 1.429 . S
C485 N482 1.350 . S
C485 C484 1.434 . S
C486 C487 1.369 . S
C486 C488 1.419 . S
C486 H490 0.930 . S
C487 C486 1.369 . S
C487 C496 1.429 . S
C488 C486 1.419 . S
C488 C489 1.363 . S
C488 H491 0.929 . S
C489 C488 1.363 . S
C489 C495 1.428 . S
H490 C486 0.930 . S
H491 C488 0.929 . S
S492 N493 1.613 . S
S492 N494 1.610 . S
N493 S492 1.613 . S
N493 C496 1.350 1_556 S
N494 S492 1.610 . S
N494 C495 1.351 1_556 S
C495 C489 1.428 . S
C495 N494 1.351 1_554 S
C495 C496 1.434 . S
C496 C487 1.429 . S
C496 N493 1.350 1_554 S
C496 C495 1.434 . S
C497 C498 1.369 . S
C497 C499 1.419 . S
C497 H501 0.930 . S
C498 C497 1.369 . S
C498 C507 1.429 . S
C499 C497 1.419 . S
C499 C500 1.363 . S
C499 H502 0.929 . S
C500 C499 1.363 . S
C500 C506 1.428 . S
H501 C497 0.930 . S
H502 C499 0.929 . S
S503 N504 1.613 . S
S503 N505 1.610 . S
N504 S503 1.613 . S
N504 C507 1.350 . S
N505 S503 1.610 . S
N505 C506 1.351 . S
C506 C500 1.428 . S
C506 N505 1.351 . S
C506 C507 1.434 . S
C507 C498 1.429 . S
C507 N504 1.350 . S
C507 C506 1.434 . S
C508 C509 1.369 . S
C508 C510 1.419 . S
C508 H512 0.930 . S
C509 C508 1.369 . S
C509 C518 1.429 . S
C510 C508 1.419 . S
C510 C511 1.363 . S
C510 H513 0.929 . S
C511 C510 1.363 . S
C511 C517 1.428 1_655 S
H512 C508 0.930 . S
H513 C510 0.929 . S
S514 N515 1.613 . S
S514 N516 1.610 . S
N515 S514 1.613 . S
N515 C518 1.350 1_455 S
N516 S514 1.610 . S
N516 C517 1.351 . S
C517 C511 1.428 1_455 S
C517 N516 1.351 . S
C517 C518 1.434 1_455 S
C518 C509 1.429 . S
C518 N515 1.350 1_655 S
C518 C517 1.434 1_655 S
C519 C520 1.369 . S
C519 C521 1.419 . S
C519 H523 0.930 . S
C520 C519 1.369 . S
C520 C529 1.429 . S
C521 C519 1.419 . S
C521 C522 1.363 . S
C521 H524 0.929 . S
C522 C521 1.363 . S
C522 C528 1.428 . S
H523 C519 0.930 . S
H524 C521 0.929 . S
S525 N526 1.613 . S
S525 N527 1.610 . S
N526 S525 1.613 . S
N526 C529 1.350 . S
N527 S525 1.610 . S
N527 C528 1.351 . S
C528 C522 1.428 . S
C528 N527 1.351 . S
C528 C529 1.434 . S
C529 C520 1.429 . S
C529 N526 1.350 . S
C529 C528 1.434 . S
C530 C531 1.369 . S
C530 C532 1.419 . S
C530 H534 0.930 . S
C531 C530 1.369 . S
C531 C540 1.429 . S
C532 C530 1.419 . S
C532 C533 1.363 . S
C532 H535 0.929 . S
C533 C532 1.363 . S
C533 C539 1.428 . S
H534 C530 0.930 . S
H535 C532 0.929 . S
S536 N537 1.613 . S
S536 N538 1.610 . S
N537 S536 1.613 . S
N537 C540 1.350 . S
N538 S536 1.610 . S
N538 C539 1.351 . S
C539 C533 1.428 . S
C539 N538 1.351 . S
C539 C540 1.434 . S
C540 C531 1.429 . S
C540 N537 1.350 . S
C540 C539 1.434 . S
C541 C542 1.369 . S
C541 C543 1.419 . S
C541 H545 0.930 . S
C542 C541 1.369 . S
C542 C551 1.429 . S
C543 C541 1.419 . S
C543 C544 1.363 . S
C543 H546 0.929 . S
C544 C543 1.363 . S
C544 C550 1.428 . S
H545 C541 0.930 . S
H546 C543 0.929 . S
S547 N548 1.613 . S
S547 N549 1.610 . S
N548 S547 1.613 . S
N548 C551 1.350 . S
N549 S547 1.610 . S
N549 C550 1.351 . S
C550 C544 1.428 . S
C550 N549 1.351 . S
C550 C551 1.434 . S
C551 C542 1.429 . S
C551 N548 1.350 . S
C551 C550 1.434 . S
C289 C6 2.592 . S
C291 C152 2.619 . S
C300 C21 2.830 . S
C302 C194 2.840 . S
C313 C224 0.705 . S
C311 C49 0.725 . S
C322 C68 0.949 . S
C324 C258 1.012 . S
C335 C215 2.428 . S
C333 C2 2.412 . S
C346 C169 1.686 . S
C344 C30 1.437 1_545 S
C357 C262 1.097 . S
C355 C40 1.109 . S
C368 C228 1.066 . S
C366 C63 1.034 . S
C377 C11 1.969 . S
C379 C283 2.197 . S
C390 C190 1.366 . S
C388 C44 1.320 . S
C399 C59 1.008 . S
C401 C165 1.015 . S
C410 C25 2.469 . S
C412 C249 2.501 . S
C423 C181 2.770 . S
C421 C82 2.744 . S
C432 C101 2.560 . S
C434 C203 2.577 . S
C443 C125 0.997 . S
C445 C233 0.965 . S
C454 C144 0.751 . S
C456 C267 0.807 . S
C465 C87 1.516 . S
C467 C186 1.668 . S
C478 C160 2.403 . S
C476 C97 2.391 . S
C489 C271 0.988 . S
C487 C120 0.977 . S
C500 C237 1.205 . S
C498 C135 1.188 . S
C509 C78 2.580 . S
C511 C254 2.578 . S
C522 C199 0.984 . S
C520 C116 0.992 . S
C533 C156 1.356 . S
C531 C139 1.292 . S
C542 C106 2.061 . S
C544 C220 2.172 . S
