# Generated by pormake.
# Topology pth, (4,4)-cn, num edge types: 1
# Building blocks:
#     Node 0, Type 0, BuildingBlock: NAHDIM_clean_sbu_0, # of connection points: 4
#     Node 1, Type 0, BuildingBlock: NAHDIM_clean_sbu_0, # of connection points: 4
#     Node 2, Type 0, BuildingBlock: NAHDIM_clean_sbu_0, # of connection points: 4
#     Node 3, Type 1, BuildingBlock: NAWXER_clean_linker_0, # of connection points: 4
#     Node 4, Type 1, BuildingBlock: NAWXER_clean_linker_0, # of connection points: 4
#     Node 5, Type 1, BuildingBlock: NAWXER_clean_linker_0, # of connection points: 4
#     Edge 6, Type (0, 1), BuildingBlock: UVAHIK_clean_linker_0, # of connection points: 2
#     Edge 7, Type (0, 1), BuildingBlock: UVAHIK_clean_linker_0, # of connection points: 2
#     Edge 8, Type (0, 1), BuildingBlock: UVAHIK_clean_linker_0, # of connection points: 2
#     Edge 9, Type (0, 1), BuildingBlock: UVAHIK_clean_linker_0, # of connection points: 2
#     Edge 10, Type (0, 1), BuildingBlock: UVAHIK_clean_linker_0, # of connection points: 2
#     Edge 11, Type (0, 1), BuildingBlock: UVAHIK_clean_linker_0, # of connection points: 2
#     Edge 12, Type (0, 1), BuildingBlock: UVAHIK_clean_linker_0, # of connection points: 2
#     Edge 13, Type (0, 1), BuildingBlock: UVAHIK_clean_linker_0, # of connection points: 2
#     Edge 14, Type (0, 1), BuildingBlock: UVAHIK_clean_linker_0, # of connection points: 2
#     Edge 15, Type (0, 1), BuildingBlock: UVAHIK_clean_linker_0, # of connection points: 2
#     Edge 16, Type (0, 1), BuildingBlock: UVAHIK_clean_linker_0, # of connection points: 2
#     Edge 17, Type (0, 1), BuildingBlock: UVAHIK_clean_linker_0, # of connection points: 2
# Relax obj value: 0.041
# Max RMSD: 0.165
# Mean RMSD: 0.085
data_MOF--net-pth--node1-NAHDIM_clean_sbu_0--node2-NAWXER_clean_linker_0--edge1-UVAHIK_clean_linker_0
_symmetry_space_group_name_H-M    P1
_symmetry_Int_Tables_number       1
_symmetry_cell_setting            triclinic
loop_
_symmetry_equiv_pos_as_xyz
'x, y, z'
_cell_length_a     36.022485
_cell_length_b     36.238032
_cell_length_c     80.270166
_cell_angle_alpha  91.91223
_cell_angle_beta   89.997239
_cell_angle_gamma 120.47874
loop_
_atom_site_label
_atom_site_type_symbol
_atom_site_fract_x
_atom_site_fract_y
_atom_site_fract_z
_atom_type_partial_charge
C0 C 0.04879 0.99407 0.07153 0.0
O1 O 0.06089 0.03254 0.07783 0.0
O2 O 0.01403 0.06312 0.05928 0.0
Zn3 Zn 0.02419 0.02502 0.04362 0.0
O4 O 0.97182 0.99177 0.02872 0.0
C5 C 0.10704 0.09634 0.03534 0.0
O6 O 0.10899 0.10653 0.05131 0.0
O7 O 0.03334 0.98403 0.05675 0.0
C8 C 0.97038 0.00341 0.01409 0.0
O9 O 0.00397 0.03777 0.00849 0.0
C10 C 0.00737 0.09167 0.05368 0.0
O11 O 0.00661 0.09553 0.03749 0.0
O12 O 0.07495 0.06175 0.0296 0.0
C13 C 0.03311 0.10826 0.35611 0.0
O14 O -0.00315 0.07468 0.36047 0.0
O15 O 0.0478 0.01665 0.3649 0.0
Zn16 Zn 0.06173 0.07003 0.37835 0.0
O17 O 0.014 0.059 0.39391 0.0
C18 C 0.14591 0.08447 0.38579 0.0
O19 O 0.14345 0.07221 0.37004 0.0
O20 O 0.06829 0.11469 0.3625 0.0
C21 C -0.00251 0.02817 0.40376 0.0
O22 O 0.01201 0.00146 0.40407 0.0
C23 C 0.0101 0.98587 0.36127 0.0
O24 O 0.97651 0.98739 0.36673 0.0
O25 O 0.11532 0.08803 0.39191 0.0
C26 C 0.09357 0.01399 0.697 0.0
O27 O 0.09963 0.05231 0.7006 0.0
O28 O 0.98522 0.00599 0.6959 0.0
Zn29 Zn 0.01749 0.99441 0.71337 0.0
O30 O 0.05072 0.04495 0.72935 0.0
C31 C 0.93943 0.94647 0.72952 0.0
O32 O 0.93658 0.9789 0.72429 0.0
O33 O 0.05915 0.98139 0.70166 0.0
C34 C 0.03919 0.07128 0.73426 0.0
O35 O 0.00279 0.0667 0.72864 0.0
C36 C -0.00407 0.0405 0.68863 0.0
O37 O 0.03321 0.07504 0.69225 0.0
O38 O 0.97314 0.9448 0.72631 0.0
C39 C 0.96305 0.37838 0.23398 0.0
C40 C -0.00324 0.39238 0.24583 0.0
C41 C 0.95735 0.40801 0.22531 0.0
C42 C 0.98563 0.45216 0.22817 0.0
C43 C 0.02441 0.43662 0.24889 0.0
C44 C 0.0188 0.46615 0.24018 0.0
C45 C 0.98067 0.4843 0.21912 0.0
C46 C 0.01047 0.41076 0.18042 0.0
C47 C 0.97804 0.38948 0.16808 0.0
C48 C 0.00989 0.44117 0.19139 0.0
C49 C 0.97644 0.45027 0.19041 0.0
C50 C 0.94497 0.39915 0.16697 0.0
C51 C 0.9443 0.4294 0.178 0.0
C52 C 0.97591 0.48314 0.2016 0.0
C53 C 0.0168 0.66037 0.18864 0.0
C54 C 0.98799 0.65287 0.17539 0.0
C55 C 0.01203 0.62658 0.19803 0.0
C56 C 0.97811 0.58464 0.19448 0.0
C57 C 0.95396 0.61082 0.17189 0.0
C58 C 0.94927 0.57698 0.18129 0.0
C59 C 0.97494 0.5484 0.20358 0.0
C60 C 0.94732 0.62607 0.2405 0.0
C61 C 0.97788 0.64529 0.2536 0.0
C62 C 0.94709 0.5945 0.22996 0.0
C63 C 0.97771 0.58191 0.23223 0.0
C64 C 0.00777 0.63182 0.25608 0.0
C65 C 0.00754 0.6003 0.24554 0.0
C66 C 0.97812 0.54875 0.22112 0.0
H67 H 0.94126 0.34452 0.23131 0.0
H68 H 0.93083 0.39643 0.2164 0.0
H69 H 0.05009 0.44849 0.25819 0.0
H70 H 0.04068 0.50007 0.24274 0.0
H71 H 0.03681 0.40456 0.18136 0.0
H72 H 0.03586 0.45794 0.20051 0.0
H73 H 0.91941 0.38307 0.15765 0.0
H74 H 0.91847 0.43632 0.17691 0.0
H75 H 0.04389 0.69218 0.19143 0.0
H76 H 0.03559 0.6331 0.20778 0.0
H77 H 0.93101 0.60403 0.16186 0.0
H78 H 0.92315 0.54478 0.17824 0.0
H79 H 0.92397 0.63585 0.23823 0.0
H80 H 0.92294 0.5799 0.22006 0.0
H81 H 0.0312 0.64547 0.26625 0.0
H82 H 0.03108 0.59067 0.24765 0.0
N83 N 0.98145 0.51701 0.22819 0.0
N84 N 0.97329 0.51528 0.19452 0.0
C85 C 0.66602 0.03423 0.5158 0.0
C86 C 0.65558 -0.00099 0.5049 0.0
C87 C 0.6343 0.03514 0.52548 0.0
C88 C 0.59166 0.00081 0.52444 0.0
C89 C 0.61283 0.96471 0.50386 0.0
C90 C 0.58102 0.96583 0.51345 0.0
C91 C 0.55788 0.00188 0.53444 0.0
C92 C 0.64502 0.98608 0.56969 0.0
C93 C 0.66719 0.02106 0.58109 0.0
C94 C 0.61033 0.98155 0.56022 0.0
C95 C 0.59745 0.0121 0.5619 0.0
C96 C 0.65387 0.0513 0.58286 0.0
C97 C 0.61914 0.0467 0.57341 0.0
C98 C 0.56102 0.00804 0.55193 0.0
C99 C 0.38544 0.97674 0.56963 0.0
C100 C 0.39723 0.00537 0.58353 0.0
C101 C 0.41688 0.97788 0.5591 0.0
C102 C 0.46066 0.00796 0.56218 0.0
C103 C 0.44107 0.03544 0.58655 0.0
C104 C 0.47242 0.03661 0.57602 0.0
C105 C 0.49466 0.00765 0.55194 0.0
C106 C 0.4268 0.04737 0.51602 0.0
C107 C 0.40813 0.02016 0.50182 0.0
C108 C 0.45295 0.04099 0.52698 0.0
C109 C 0.46054 0.00696 0.52406 0.0
C110 C 0.41514 0.98564 0.4991 0.0
C111 C 0.4413 0.97928 0.51007 0.0
C112 C 0.49244 0.00325 0.53435 0.0
H113 H 0.69876 0.061 0.51689 0.0
H114 H 0.643 0.06278 0.53369 0.0
H115 H 0.60387 0.93744 0.4954 0.0
H116 H 0.54816 0.93924 0.51239 0.0
H117 H 0.65463 0.96233 0.56803 0.0
H118 H 0.59346 0.95408 0.55166 0.0
H119 H 0.66985 0.07817 0.59175 0.0
H120 H 0.60944 0.07041 0.57499 0.0
H121 H 0.35194 0.95333 0.56692 0.0
H122 H 0.40699 0.95459 0.54879 0.0
H123 H 0.45132 0.05744 0.59731 0.0
H124 H 0.506 0.05974 0.57878 0.0
H125 H 0.42267 0.07469 0.51831 0.0
H126 H 0.46861 0.06374 0.53734 0.0
H127 H 0.40081 0.96383 0.48838 0.0
H128 H 0.44705 0.95308 0.50749 0.0
N129 N 0.52385 -0.00012 0.5263 0.0
N130 N 0.52921 0.01047 0.56002 0.0
C131 C 0.35671 0.41174 0.85743 0.0
C132 C 0.33176 0.41732 0.84539 0.0
C133 C 0.38936 0.44701 0.86641 0.0
C134 C 0.39721 0.48842 0.8637 0.0
C135 C 0.34 0.45891 0.84264 0.0
C136 C 0.37258 0.49413 0.85165 0.0
C137 C 0.43267 0.52622 0.87259 0.0
C138 C 0.33856 0.44452 0.91133 0.0
C139 C 0.35746 0.43243 0.92372 0.0
C140 C 0.3644 0.47673 0.90044 0.0
C141 C 0.4095 0.49655 0.90156 0.0
C142 C 0.40254 0.45312 0.92506 0.0
C143 C 0.42824 0.48486 0.91411 0.0
C144 C 0.43809 0.53009 0.89011 0.0
C145 C 0.58437 0.7122 0.90094 0.0
C146 C 0.60479 0.70605 0.91461 0.0
C147 C 0.5513 0.67701 0.89204 0.0
C148 C 0.53849 0.63511 0.89654 0.0
C149 C 0.5917 0.66407 0.9191 0.0
C150 C 0.55875 0.62901 0.91021 0.0
C151 C 0.5028 0.59739 0.88764 0.0
C152 C 0.60807 0.65487 0.85056 0.0
C153 C 0.59818 0.66868 0.83594 0.0
C154 C 0.5759 0.63073 0.86178 0.0
C155 C 0.53325 0.62058 0.85881 0.0
C156 C 0.55539 0.65827 0.83293 0.0
C157 C 0.5232 0.63425 0.84423 0.0
C158 C 0.49861 0.59246 0.8701 0.0
H159 H 0.35103 0.38011 0.8599 0.0
H160 H 0.40875 0.44196 0.87533 0.0
H161 H 0.32193 0.46439 0.83324 0.0
H162 H 0.37862 0.52592 0.8492 0.0
H163 H 0.30385 0.42943 0.91019 0.0
H164 H 0.34917 0.48612 0.89121 0.0
H165 H 0.41797 0.44417 0.93438 0.0
H166 H 0.46295 0.49982 0.91528 0.0
H167 H 0.59337 0.74418 0.89734 0.0
H168 H 0.53536 0.68256 0.88181 0.0
H169 H 0.60723 0.65826 0.92941 0.0
H170 H 0.54934 0.59699 0.91394 0.0
H171 H 0.64073 0.6626 0.85333 0.0
H172 H 0.58432 0.61929 0.87262 0.0
H173 H 0.54657 0.66785 0.82166 0.0
H174 H 0.49037 0.62608 0.84153 0.0
N175 N 0.46325 0.55749 0.86326 0.0
N176 N 0.47276 0.56571 0.89691 0.0
C177 C 0.00629 0.11909 0.08258 0.0
C178 C 0.00183 0.12094 0.06529 0.0
C179 C 0.00202 0.14736 0.09355 0.0
C180 C 0.00761 0.25188 0.09527 0.0
H181 H 0.94898 0.21238 0.13711 0.0
C182 C 0.97065 0.35803 0.13915 0.0
C183 C 0.97908 0.3578 0.15623 0.0
C184 C 0.97219 0.32857 0.12795 0.0
C185 C 0.96575 0.22392 0.12553 0.0
H186 H 0.98886 0.15354 0.04594 0.0
H187 H 0.9808 0.20249 0.06512 0.0
H188 H 0.95336 0.16166 0.11763 0.0
H189 H -0.00491 0.32619 0.175 0.0
H190 H -0.00184 0.2749 0.15538 0.0
H191 H 0.01991 0.31413 0.10318 0.0
C192 C 0.98827 0.17962 0.07018 0.0
C193 C 0.9683 0.19492 0.11438 0.0
C194 C 0.99265 0.15141 0.0592 0.0
C195 C 0.98881 0.32734 0.16189 0.0
C196 C 0.99014 0.29773 0.15069 0.0
C197 C 0.00493 0.28084 0.10639 0.0
C198 C 0.99308 0.17803 0.08748 0.0
C199 C 0.98942 0.20861 0.09915 0.0
C200 C 0.98199 0.29814 0.13359 0.0
C201 C 0.98413 0.2672 0.12167 0.0
H202 H 0.01355 0.0961 0.08767 0.0
H203 H 0.00653 0.14569 0.10679 0.0
H204 H 0.0247 0.2636 0.08376 0.0
H205 H 0.96346 0.3814 0.13441 0.0
H206 H 0.9654 0.3294 0.11486 0.0
C207 C 0.94924 0.05329 0.41507 0.0
C208 C 0.96141 0.02208 0.41435 0.0
C209 C 0.91465 0.04755 0.4247 0.0
C210 C 0.84696 0.98719 0.45969 0.0
H211 H 0.7718 0.02511 0.44238 0.0
C212 C 0.69312 0.96205 0.493 0.0
C213 C 0.68907 -0.00139 0.49436 0.0
C214 C 0.72494 0.96198 0.48304 0.0
C215 C 0.79264 0.01455 0.44739 0.0
H216 H 0.94692 0.96038 0.42325 0.0
H217 H 0.88581 0.94998 0.43992 0.0
H218 H 0.8297 0.02969 0.42527 0.0
H219 H 0.71453 0.06344 0.48628 0.0
H220 H 0.77 0.06331 0.46887 0.0
H221 H 0.80946 0.97194 0.48183 0.0
C222 C 0.9035 0.97919 0.43319 0.0
C223 C 0.82588 0.01727 0.43763 0.0
C224 C 0.93838 0.98507 0.42359 0.0
C225 C 0.71719 0.03496 0.48554 0.0
C226 C 0.74863 0.03474 0.47548 0.0
C227 C 0.81341 0.98417 0.46943 0.0
C228 C 0.89111 0.0103 0.43376 0.0
C229 C 0.85393 0.00436 0.44376 0.0
C230 C 0.75282 -0.00172 0.47413 0.0
C231 C 0.78643 -0.00149 0.46346 0.0
H232 H 0.9665 0.08235 0.4082 0.0
H233 H 0.90661 0.07258 0.42514 0.0
H234 H 0.86821 0.97733 0.46484 0.0
H235 H 0.67199 0.93371 0.49976 0.0
H236 H 0.72741 0.93341 0.48215 0.0
C237 C 0.90613 0.8786 0.74539 0.0
C238 C 0.90389 0.91321 0.73914 0.0
C239 C 0.87239 0.84797 0.75475 0.0
C240 C 0.75724 0.80596 0.76401 0.0
H241 H 0.78405 0.7699 0.805 0.0
C242 C 0.63383 0.72798 0.81584 0.0
C243 C 0.63231 0.69328 0.82379 0.0
C244 C 0.6663 0.75142 0.80458 0.0
C245 C 0.77604 0.77922 0.79347 0.0
H246 H 0.86445 0.94266 0.73774 0.0
H247 H 0.80635 0.8899 0.75412 0.0
H248 H 0.84227 0.8164 0.78676 0.0
H249 H 0.66316 0.65537 0.8258 0.0
H250 H 0.72014 0.69669 0.80629 0.0
H251 H 0.69113 0.76959 0.7709 0.0
C252 C 0.83367 0.88588 0.75162 0.0
C253 C 0.80936 0.80576 0.78301 0.0
C254 C 0.86722 0.91636 0.74232 0.0
C255 C 0.66386 0.6824 0.82013 0.0
C256 C 0.69644 0.70597 0.80893 0.0
C257 C 0.72399 0.77958 0.77448 0.0
C258 C 0.83582 0.85136 0.75797 0.0
C259 C 0.80036 0.81999 0.76831 0.0
C260 C 0.69804 0.74076 0.80106 0.0
C261 C 0.73309 0.76646 0.78944 0.0
H262 H 0.93395 0.87528 0.74313 0.0
H263 H 0.87483 0.82154 0.75939 0.0
H264 H 0.74918 0.81569 0.7526 0.0
H265 H 0.61041 0.73757 0.81856 0.0
H266 H 0.66709 0.7785 0.79889 0.0
C267 C 0.03617 0.92029 0.0753 0.0
C268 C 0.04904 0.96145 0.08203 0.0
C269 C 0.03285 0.88835 0.08552 0.0
C270 C 0.01485 0.85707 0.12901 0.0
H271 H 0.05165 0.77743 0.11489 0.0
C272 C 0.00759 0.72932 0.17215 0.0
C273 C -0.00546 0.68859 0.1649 0.0
C274 C 0.01556 0.76338 0.1622 0.0
C275 C 0.04076 0.79912 0.11893 0.0
H276 H 0.06992 0.00175 0.10467 0.0
H277 H 0.0642 0.94593 0.12249 0.0
H278 H 0.06505 0.8362 0.09717 0.0
H279 H 0.97957 0.65176 0.14148 0.0
H280 H 0.99223 0.71083 0.12417 0.0
H281 H 0.98997 0.81974 0.15064 0.0
C282 C 0.05624 0.93832 0.10933 0.0
C283 C 0.04856 0.83284 0.1088 0.0
C284 C 0.05976 0.97034 0.0991 0.0
C285 C 0.9891 0.68259 0.14748 0.0
C286 C -0.00303 0.71661 0.13754 0.0
C287 C 0.0069 0.82328 0.13911 0.0
C288 C 0.04218 0.89685 0.10269 0.0
C289 C 0.03554 0.86206 0.11371 0.0
C290 C 0.01056 0.75747 0.14477 0.0
C291 C 0.01959 0.79379 0.13415 0.0
H292 H 0.02772 0.91241 0.06219 0.0
H293 H 0.02161 0.8566 0.08006 0.0
H294 H 0.00382 0.8787 0.133 0.0
H295 H 0.01165 0.7349 0.18554 0.0
H296 H 0.02632 0.79452 0.16816 0.0
C297 C 0.21176 0.07923 0.39055 0.0
C298 C 0.18046 0.08791 0.39684 0.0
C299 C 0.24091 0.07695 0.40134 0.0
C300 C 0.28565 0.10294 0.44457 0.0
H301 H 0.2993 0.00429 0.43683 0.0
C302 C 0.3545 0.04233 0.49472 0.0
C303 C 0.38328 0.02907 0.48948 0.0
C304 C 0.33224 0.05203 0.48305 0.0
C305 C 0.2963 0.0323 0.43906 0.0
H306 H 0.15663 0.10315 0.41932 0.0
H307 H 0.20713 0.09877 0.4381 0.0
H308 H 0.25811 0.01915 0.41688 0.0
H309 H 0.41178 0.01628 0.46786 0.0
H310 H 0.37274 0.03294 0.44752 0.0
H311 H 0.32335 0.11562 0.46692 0.0
C312 C 0.20941 0.09402 0.42484 0.0
C313 C 0.27279 0.04091 0.4276 0.0
C314 C 0.18029 0.09632 0.41406 0.0
C315 C 0.38921 0.02561 0.47231 0.0
C316 C 0.36695 0.03527 0.46065 0.0
C317 C 0.30915 0.0943 0.45605 0.0
C318 C 0.23938 0.08332 0.41864 0.0
C319 C 0.26691 0.07613 0.43028 0.0
C320 C 0.33828 0.04867 0.46589 0.0
C321 C 0.31444 0.05868 0.45348 0.0
H322 H 0.21294 0.07287 0.37734 0.0
H323 H 0.26414 0.06939 0.39615 0.0
H324 H 0.28215 0.13063 0.44689 0.0
H325 H 0.34886 0.04483 0.50786 0.0
H326 H 0.30984 0.0616 0.48747 0.0
C327 C 0.10573 0.11131 0.75215 0.0
C328 C 0.06661 0.10647 0.74637 0.0
C329 C 0.13161 0.14412 0.7637 0.0
C330 C 0.15427 0.24945 0.78035 0.0
H331 H 0.21117 0.22608 0.81604 0.0
C332 C 0.25862 0.3769 0.83148 0.0
C333 C 0.29827 0.38012 0.83534 0.0
C334 C 0.22779 0.34262 0.8215 0.0
C335 C 0.19572 0.23316 0.80608 0.0
H336 H 0.02404 0.13239 0.74816 0.0
H337 H 0.06928 0.18969 0.76847 0.0
H338 H 0.16186 0.16797 0.7969 0.0
H339 H 0.33667 0.34997 0.83166 0.0
H340 H 0.28285 0.29013 0.81435 0.0
H341 H 0.18853 0.31478 0.78946 0.0
C342 C 0.08001 0.16822 0.76393 0.0
C343 C 0.16751 0.1999 0.79511 0.0
C344 C 0.05403 0.13531 0.75235 0.0
C345 C 0.30618 0.34806 0.82916 0.0
C346 C 0.27535 0.31377 0.81923 0.0
C347 C 0.18249 0.28274 0.79134 0.0
C348 C 0.11901 0.17287 0.76976 0.0
C349 C 0.14691 0.20777 0.78199 0.0
C350 C 0.23591 0.31078 0.81522 0.0
C351 C 0.20392 0.27503 0.80419 0.0
H352 H 0.11651 0.08978 0.74774 0.0
H353 H 0.16182 0.14729 0.76773 0.0
H354 H 0.13925 0.25662 0.77026 0.0
H355 H 0.25133 0.40079 0.83624 0.0
H356 H 0.19747 0.34087 0.81879 0.0
C357 C 0.92594 0.00374 0.67286 0.0
C358 C 0.96514 0.04151 0.67674 0.0
C359 C 0.89562 0.00431 0.66229 0.0
C360 C 0.88107 0.06504 0.62974 0.0
H361 H 0.76138 -0.00114 0.64244 0.0
C362 C 0.74098 0.06553 0.59414 0.0
C363 C 0.70335 0.02541 0.59145 0.0
C364 C 0.77442 0.06971 0.60436 0.0
C365 C 0.79461 0.01718 0.63865 0.0
H366 H 0.00362 0.10942 0.67227 0.0
H367 H 0.95014 0.11043 0.65376 0.0
H368 H 0.81734 0.00287 0.66069 0.0
H369 H 0.67131 0.95826 0.59732 0.0
H370 H 0.72982 0.96544 0.61496 0.0
H371 H 0.858 0.07917 0.60762 0.0
C372 C 0.94319 0.08036 0.65889 0.0
C373 C 0.82667 0.0195 0.6491 0.0
C374 C 0.9737 0.0798 0.66952 0.0
C375 C 0.70004 0.98951 0.59903 0.0
C376 C 0.73334 0.99373 0.60928 0.0
C377 C 0.84887 0.06277 0.61926 0.0
C378 C 0.90361 0.04266 0.65535 0.0
C379 C 0.87018 0.04288 0.64465 0.0
C380 C 0.77073 0.03391 0.61216 0.0
C381 C 0.80528 0.03827 0.62352 0.0
H382 H 0.91837 0.97358 0.67809 0.0
H383 H 0.86583 0.97456 0.65953 0.0
H384 H 0.9143 0.08307 0.62594 0.0
H385 H 0.74459 0.09368 0.58831 0.0
H386 H 0.80277 0.1011 0.60641 0.0
C387 C 0.93111 0.98864 0.98672 0.0
C388 C 0.93142 0.97834 0.00343 0.0
C389 C 0.8946 0.96424 0.97654 0.0
C390 C 0.77774 0.88774 0.97779 0.0
H391 H 0.79365 0.84867 0.93425 0.0
C392 C 0.64149 0.7426 0.94171 0.0
C393 C 0.63968 0.74309 0.92424 0.0
C394 C 0.6757 0.77602 0.95078 0.0
C395 C 0.78863 0.85993 0.94623 0.0
H396 H 0.89343 0.93485 0.02265 0.0
H397 H 0.82985 0.89224 0.00486 0.0
H398 H 0.8564 0.89865 0.95127 0.0
H399 H 0.67174 0.7796 0.90261 0.0
H400 H 0.73129 0.83854 0.91852 0.0
H401 H 0.70999 0.84857 0.97287 0.0
C402 C 0.85771 0.91937 -0.00033 0.0
C403 C 0.82459 0.88851 0.95599 0.0
C404 C 0.89426 0.94359 0.00982 0.0
C405 C 0.67216 0.77842 0.91607 0.0
C406 C 0.70645 0.81194 0.92516 0.0
C407 C 0.74178 0.85931 0.96801 0.0
C408 C 0.85761 0.92927 0.9829 0.0
C409 C 0.8195 0.90206 0.97199 0.0
C410 C 0.70887 0.81082 0.94261 0.0
C411 C 0.74683 0.84445 0.95225 0.0
H412 H 0.9592 0.01531 0.98143 0.0
H413 H 0.89528 0.97279 0.96369 0.0
H414 H 0.77289 0.89824 0.98996 0.0
H415 H 0.6166 0.71611 0.94838 0.0
H416 H 0.67679 0.77389 0.96418 0.0
C417 C 0.04068 0.94905 0.34421 0.0
C418 C 0.00447 0.94944 0.3505 0.0
C419 C 0.03569 0.91553 0.33359 0.0
C420 C 0.95977 0.80356 0.32061 0.0
H421 H 0.03259 0.83172 0.28195 0.0
C422 C 0.94067 0.6765 0.27029 0.0
C423 C 0.97899 0.67965 0.26453 0.0
C424 C 0.94196 0.70906 0.28056 0.0
C425 C 0.0123 0.8233 0.29277 0.0
H426 H 0.9346 0.91458 0.35079 0.0
H427 H 0.92593 0.85589 0.33216 0.0
H428 H 0.03802 0.88901 0.30043 0.0
H429 H 0.04864 0.7196 0.26486 0.0
H430 H 0.05095 0.7759 0.28302 0.0
H431 H 0.93434 0.73775 0.313 0.0
C432 C 0.95815 0.88153 0.33554 0.0
C433 C 0.0154 0.85611 0.30335 0.0
C434 C 0.96313 0.91521 0.34614 0.0
C435 C 0.01858 0.71601 0.26924 0.0
C436 C 0.01987 0.74851 0.27947 0.0
C437 C 0.9567 0.77067 0.31002 0.0
C438 C -0.00559 0.88157 0.32905 0.0
C439 C 0.98952 0.84659 0.31747 0.0
C440 C 0.98159 0.74546 0.28523 0.0
C441 C 0.98328 0.78021 0.29609 0.0
H442 H 0.073 0.97481 0.34737 0.0
H443 H 0.06425 0.91608 0.32902 0.0
H444 H 0.93968 0.79526 0.33149 0.0
H445 H 0.90968 0.64868 0.267 0.0
H446 H 0.91191 0.70594 0.2847 0.0
C447 C 0.11795 0.96878 0.68157 0.0
C448 C 0.12542 0.00937 0.68692 0.0
C449 C 0.14738 0.96512 0.67129 0.0
C450 C 0.26007 0.02606 0.65711 0.0
H451 H 0.21649 0.94799 0.61838 0.0
C452 C 0.36755 0.04106 0.60198 0.0
C453 C 0.36425 0.00325 0.59518 0.0
C454 C 0.33794 0.03923 0.61361 0.0
C455 C 0.22912 0.96955 0.62925 0.0
H456 H 0.16993 0.07785 0.68591 0.0
H457 H 0.22073 0.07145 0.66794 0.0
H458 H 0.16605 0.94882 0.63852 0.0
H459 H 0.32698 0.9338 0.59518 0.0
H460 H 0.2749 0.93066 0.61541 0.0
H461 H 0.32304 0.04736 0.64771 0.0
C462 C 0.19252 0.04242 0.67182 0.0
C463 C 0.20027 0.96996 0.64081 0.0
C464 C 0.1632 0.04608 0.68204 0.0
C465 C 0.33009 0.96352 0.60002 0.0
C466 C 0.30034 0.96169 0.61164 0.0
C467 C 0.28883 0.02573 0.64556 0.0
C468 C 0.18486 0.00195 0.66622 0.0
C469 C 0.21543 -0.00129 0.65473 0.0
C470 C 0.30427 -0.00045 0.61868 0.0
C471 C 0.27365 -0.00204 0.63138 0.0
H472 H 0.08915 0.93989 0.68514 0.0
H473 H 0.14081 0.93348 0.6673 0.0
H474 H 0.27281 0.04798 0.66788 0.0
H475 H 0.393 0.07216 0.59828 0.0
H476 H 0.34128 0.06895 0.61858 0.0
C477 C 0.1719 0.16747 0.0297 0.0
C478 C 0.13795 0.12761 0.02372 0.0
C479 C 0.19767 0.19901 0.01861 0.0
C480 C 0.19226 0.23342 0.97684 0.0
H481 H 0.3161 0.30602 0.9822 0.0
C482 C 0.29601 0.35883 0.92891 0.0
C483 C 0.33062 0.39789 0.93514 0.0
C484 C 0.27272 0.32518 0.93956 0.0
C485 C 0.28145 0.28636 0.98065 0.0
H486 H 0.10574 0.08886 0.00136 0.0
H487 H 0.15075 0.14389 0.98207 0.0
H488 H 0.27663 0.24766 0.00108 0.0
H489 H 0.367 0.4331 0.95742 0.0
H490 H 0.32589 0.37477 0.97607 0.0
H491 H 0.19676 0.27243 0.95666 0.0
C492 C 0.15706 0.15089 0.99533 0.0
C493 C 0.25893 0.25286 0.99143 0.0
C494 C 0.13149 0.1193 0.0064 0.0
C495 C 0.34083 0.40308 0.95226 0.0
C496 C 0.31741 0.3696 0.96291 0.0
C497 C 0.21471 0.26705 0.96614 0.0
C498 C 0.18981 0.19134 0.00133 0.0
C499 C 0.21411 0.2261 0.98964 0.0
C500 C 0.28343 0.33006 0.95666 0.0
C501 C 0.25956 0.294 0.96794 0.0
H502 H 0.17774 0.17485 0.04297 0.0
H503 H 0.22259 0.23 0.02357 0.0
H504 H 0.15759 0.21372 0.97534 0.0
H505 H 0.2878 0.35384 0.91572 0.0
H506 H 0.24706 0.295 0.9343 0.0
C507 C 0.07083 0.17212 0.33817 0.0
C508 C 0.03243 0.13739 0.34382 0.0
C509 C 0.06957 0.1991 0.3264 0.0
C510 C -0.00231 0.20357 0.29452 0.0
H511 H 0.07208 0.32662 0.30054 0.0
C512 C 0.96694 0.32434 0.26133 0.0
C513 C 0.0027 0.36118 0.25529 0.0
C514 C 0.97268 0.29609 0.27092 0.0
C515 C 0.05152 0.2923 0.29856 0.0
H516 H 0.96265 0.10392 0.34165 0.0
H517 H 0.9605 0.15116 0.32143 0.0
H518 H 0.0787 0.27932 0.3197 0.0
H519 H 0.07248 0.39638 0.25408 0.0
H520 H 0.08243 0.34721 0.27098 0.0
H521 H 0.96991 0.21664 0.27359 0.0
C522 C 0.99161 0.15718 0.3258 0.0
C523 C 0.05534 0.2652 0.30952 0.0
C524 C 0.99286 0.13027 0.33751 0.0
C525 C 0.04429 0.3687 0.2588 0.0
C526 C 0.05002 0.34054 0.26845 0.0
C527 C -0.00622 0.23065 0.2836 0.0
C528 C 0.0299 0.19184 0.32007 0.0
C529 C 0.02806 0.22056 0.30775 0.0
C530 C 0.01428 0.30414 0.27472 0.0
C531 C 0.02029 0.27531 0.28563 0.0
H532 H 0.10183 0.17836 0.34276 0.0
H533 H 0.09965 0.22535 0.32212 0.0
H534 H 0.97677 0.16928 0.29262 0.0
H535 H 0.93452 0.31792 0.25906 0.0
H536 H 0.94454 0.26859 0.27576 0.0
loop_
_geom_bond_atom_site_label_1
_geom_bond_atom_site_label_2
_geom_bond_distance
_geom_bond_site_symmetry_2
_ccdc_geom_bond_type
C0 O1 1.160 . S
C0 O7 1.185 1_565 S
O1 C0 1.160 . S
O2 Zn3 1.899 . S
O2 C10 1.284 . S
Zn3 O2 1.899 . S
Zn3 O4 2.032 1_445 S
Zn3 O7 2.086 . S
Zn3 O12 1.977 . S
O4 Zn3 2.032 1_665 S
O4 C8 1.278 . S
C5 O6 1.203 . S
C5 O12 1.267 . S
O6 C5 1.203 . S
O7 C0 1.185 1_545 S
O7 Zn3 2.086 . S
C8 O4 1.278 . S
C8 O9 1.211 1_565 S
O9 C8 1.211 1_545 S
C10 O2 1.284 . S
C10 O11 1.273 1_455 S
O11 C10 1.273 1_655 S
O12 Zn3 1.977 . S
O12 C5 1.267 . S
C13 O14 1.160 . S
C13 O20 1.185 . S
O14 C13 1.160 . S
O15 Zn16 1.899 . S
O15 C23 1.284 1_545 S
Zn16 O15 1.899 . S
Zn16 O17 2.032 1_455 S
Zn16 O20 2.086 . S
Zn16 O25 1.977 . S
O17 Zn16 2.032 1_655 S
O17 C21 1.278 . S
C18 O19 1.203 . S
C18 O25 1.267 . S
O19 C18 1.203 . S
O20 C13 1.185 . S
O20 Zn16 2.086 . S
C21 O17 1.278 . S
C21 O22 1.211 . S
O22 C21 1.211 . S
C23 O15 1.284 1_565 S
C23 O24 1.273 1_455 S
O24 C23 1.273 1_655 S
O25 Zn16 1.977 . S
O25 C18 1.267 . S
C26 O27 1.160 . S
C26 O33 1.185 1_545 S
O27 C26 1.160 . S
O28 Zn29 1.899 1_655 S
O28 C36 1.284 . S
Zn29 O28 1.899 1_455 S
Zn29 O30 2.032 . S
Zn29 O33 2.086 1_545 S
Zn29 O38 1.977 1_445 S
O30 Zn29 2.032 . S
O30 C34 1.278 . S
C31 O32 1.203 . S
C31 O38 1.267 . S
O32 C31 1.203 . S
O33 C26 1.185 1_565 S
O33 Zn29 2.086 1_565 S
C34 O30 1.278 . S
C34 O35 1.211 . S
O35 C34 1.211 . S
C36 O28 1.284 . S
C36 O37 1.273 . S
O37 C36 1.273 . S
O38 Zn29 1.977 1_665 S
O38 C31 1.267 . S
C39 C40 1.384 1_655 S
C39 C41 1.384 . S
C39 H67 0.931 . S
C40 C39 1.384 1_455 S
C40 C43 1.382 . S
C41 C39 1.384 . S
C41 C42 1.381 1_655 S
C41 H68 0.930 . S
C42 C41 1.381 1_455 S
C42 C44 1.381 . S
C42 C45 1.487 . S
C43 C40 1.382 . S
C43 C44 1.387 . S
C43 H69 0.930 . S
C44 C42 1.381 . S
C44 C43 1.387 . S
C44 H70 0.931 . S
C45 C42 1.487 . S
C45 C52 1.399 . S
C45 N83 1.343 . S
C46 C47 1.384 . S
C46 C48 1.384 . S
C46 H71 0.931 . S
C47 C46 1.384 . S
C47 C50 1.382 1_455 S
C48 C46 1.384 . S
C48 C49 1.381 . S
C48 H72 0.930 . S
C49 C48 1.381 . S
C49 C51 1.381 1_455 S
C49 C52 1.487 . S
C50 C47 1.382 1_655 S
C50 C51 1.387 . S
C50 H73 0.930 . S
C51 C49 1.381 1_655 S
C51 C50 1.387 . S
C51 H74 0.931 . S
C52 C45 1.399 . S
C52 C49 1.487 . S
C52 N84 1.343 . S
C53 C54 1.384 . S
C53 C55 1.384 . S
C53 H75 0.931 . S
C54 C53 1.384 . S
C54 C57 1.382 1_455 S
C55 C53 1.384 . S
C55 C56 1.381 . S
C55 H76 0.930 . S
C56 C55 1.381 . S
C56 C58 1.381 1_455 S
C56 C59 1.487 . S
C57 C54 1.382 1_655 S
C57 C58 1.387 . S
C57 H77 0.930 . S
C58 C56 1.381 1_655 S
C58 C57 1.387 . S
C58 H78 0.931 . S
C59 C56 1.487 . S
C59 C66 1.399 . S
C59 N84 1.343 . S
C60 C61 1.384 1_655 S
C60 C62 1.384 . S
C60 H79 0.931 . S
C61 C60 1.384 1_455 S
C61 C64 1.382 . S
C62 C60 1.384 . S
C62 C63 1.381 1_655 S
C62 H80 0.930 . S
C63 C62 1.381 1_455 S
C63 C65 1.381 . S
C63 C66 1.487 . S
C64 C61 1.382 . S
C64 C65 1.387 . S
C64 H81 0.930 . S
C65 C63 1.381 . S
C65 C64 1.387 . S
C65 H82 0.931 . S
C66 C59 1.399 . S
C66 C63 1.487 . S
C66 N83 1.343 . S
H67 C39 0.931 . S
H68 C41 0.930 . S
H69 C43 0.930 . S
H70 C44 0.931 . S
H71 C46 0.931 . S
H72 C48 0.930 . S
H73 C50 0.930 . S
H74 C51 0.931 . S
H75 C53 0.931 . S
H76 C55 0.930 . S
H77 C57 0.930 . S
H78 C58 0.931 . S
H79 C60 0.931 . S
H80 C62 0.930 . S
H81 C64 0.930 . S
H82 C65 0.931 . S
N83 C45 1.343 . S
N83 C66 1.343 . S
N84 C52 1.343 . S
N84 C59 1.343 . S
C85 C86 1.384 . S
C85 C87 1.384 . S
C85 H113 0.931 . S
C86 C85 1.384 . S
C86 C89 1.384 . S
C87 C85 1.384 . S
C87 C88 1.381 . S
C87 H114 0.930 . S
C88 C87 1.381 . S
C88 C90 1.381 1_545 S
C88 C91 1.487 . S
C89 C86 1.384 . S
C89 C90 1.390 1_545 S
C89 H115 0.926 1_545 S
C90 C88 1.381 1_565 S
C90 C89 1.390 1_565 S
C90 H116 0.931 . S
C91 C88 1.487 . S
C91 C98 1.399 . S
C91 N129 1.343 . S
C92 C93 1.384 1_565 S
C92 C94 1.384 . S
C92 H117 0.931 . S
C93 C92 1.384 1_545 S
C93 C96 1.382 . S
C94 C92 1.384 . S
C94 C95 1.381 1_565 S
C94 H118 0.930 . S
C95 C94 1.381 1_545 S
C95 C97 1.381 . S
C95 C98 1.487 . S
C96 C93 1.382 . S
C96 C97 1.387 . S
C96 H119 0.930 . S
C97 C95 1.381 . S
C97 C96 1.387 . S
C97 H120 0.931 . S
C98 C91 1.399 . S
C98 C95 1.487 . S
C98 N130 1.343 . S
C99 C100 1.384 1_565 S
C99 C101 1.384 . S
C99 H121 0.931 . S
C100 C99 1.384 1_545 S
C100 C103 1.382 . S
C101 C99 1.384 . S
C101 C102 1.381 1_565 S
C101 H122 0.930 . S
C102 C101 1.381 1_545 S
C102 C104 1.381 . S
C102 C105 1.487 . S
C103 C100 1.382 . S
C103 C104 1.387 . S
C103 H123 0.930 . S
C104 C102 1.381 . S
C104 C103 1.387 . S
C104 H124 0.931 . S
C105 C102 1.487 . S
C105 C112 1.399 . S
C105 N130 1.343 . S
C106 C107 1.384 . S
C106 C108 1.384 . S
C106 H125 0.931 . S
C107 C106 1.384 . S
C107 C110 1.389 . S
C108 C106 1.384 . S
C108 C109 1.381 . S
C108 H126 0.930 . S
C109 C108 1.381 . S
C109 C111 1.381 1_545 S
C109 C112 1.487 . S
C110 C107 1.389 . S
C110 C111 1.384 1_545 S
C110 H127 0.927 1_545 S
C111 C109 1.381 1_565 S
C111 C110 1.384 1_565 S
C111 H128 0.931 . S
C112 C105 1.399 . S
C112 C109 1.487 . S
C112 N129 1.343 . S
H113 C85 0.931 . S
H114 C87 0.930 . S
H115 C89 0.926 1_565 S
H116 C90 0.931 . S
H117 C92 0.931 . S
H118 C94 0.930 . S
H119 C96 0.930 . S
H120 C97 0.931 . S
H121 C99 0.931 . S
H122 C101 0.930 . S
H123 C103 0.930 . S
H124 C104 0.931 . S
H125 C106 0.931 . S
H126 C108 0.930 . S
H127 C110 0.927 1_565 S
H128 C111 0.931 . S
N129 C91 1.343 . S
N129 C112 1.343 . S
N130 C98 1.343 . S
N130 C105 1.343 . S
C131 C132 1.384 . S
C131 C133 1.384 . S
C131 H159 0.931 . S
C132 C131 1.384 . S
C132 C135 1.382 . S
C133 C131 1.384 . S
C133 C134 1.381 . S
C133 H160 0.930 . S
C134 C133 1.381 . S
C134 C136 1.381 . S
C134 C137 1.487 . S
C135 C132 1.382 . S
C135 C136 1.387 . S
C135 H161 0.930 . S
C136 C134 1.381 . S
C136 C135 1.387 . S
C136 H162 0.931 . S
C137 C134 1.487 . S
C137 C144 1.399 . S
C137 N175 1.343 . S
C138 C139 1.384 . S
C138 C140 1.384 . S
C138 H163 0.931 . S
C139 C138 1.384 . S
C139 C142 1.382 . S
C140 C138 1.384 . S
C140 C141 1.381 . S
C140 H164 0.930 . S
C141 C140 1.381 . S
C141 C143 1.381 . S
C141 C144 1.487 . S
C142 C139 1.382 . S
C142 C143 1.387 . S
C142 H165 0.930 . S
C143 C141 1.381 . S
C143 C142 1.387 . S
C143 H166 0.931 . S
C144 C137 1.399 . S
C144 C141 1.487 . S
C144 N176 1.343 . S
C145 C146 1.384 . S
C145 C147 1.384 . S
C145 H167 0.931 . S
C146 C145 1.384 . S
C146 C149 1.382 . S
C147 C145 1.384 . S
C147 C148 1.381 . S
C147 H168 0.930 . S
C148 C147 1.381 . S
C148 C150 1.381 . S
C148 C151 1.487 . S
C149 C146 1.382 . S
C149 C150 1.387 . S
C149 H169 0.930 . S
C150 C148 1.381 . S
C150 C149 1.387 . S
C150 H170 0.931 . S
C151 C148 1.487 . S
C151 C158 1.399 . S
C151 N176 1.343 . S
C152 C153 1.384 . S
C152 C154 1.384 . S
C152 H171 0.931 . S
C153 C152 1.384 . S
C153 C156 1.382 . S
C154 C152 1.384 . S
C154 C155 1.381 . S
C154 H172 0.930 . S
C155 C154 1.381 . S
C155 C157 1.381 . S
C155 C158 1.487 . S
C156 C153 1.382 . S
C156 C157 1.387 . S
C156 H173 0.930 . S
C157 C155 1.381 . S
C157 C156 1.387 . S
C157 H174 0.931 . S
C158 C151 1.399 . S
C158 C155 1.487 . S
C158 N175 1.343 . S
H159 C131 0.931 . S
H160 C133 0.930 . S
H161 C135 0.930 . S
H162 C136 0.931 . S
H163 C138 0.931 . S
H164 C140 0.930 . S
H165 C142 0.930 . S
H166 C143 0.931 . S
H167 C145 0.931 . S
H168 C147 0.930 . S
H169 C149 0.930 . S
H170 C150 0.931 . S
H171 C152 0.931 . S
H172 C154 0.930 . S
H173 C156 0.930 . S
H174 C157 0.931 . S
N175 C137 1.343 . S
N175 C158 1.343 . S
N176 C144 1.343 . S
N176 C151 1.343 . S
C177 C178 1.349 1_655 S
C177 C179 1.327 . S
C177 H202 0.950 . S
C178 C177 1.349 1_455 S
C178 C194 1.349 . S
C179 C177 1.327 . S
C179 C198 1.429 1_655 S
C179 H203 0.950 . S
C180 C197 1.574 . S
C180 C199 1.368 . S
C180 H204 0.949 . S
H181 C185 0.949 . S
C182 C183 1.349 . S
C182 C184 1.327 . S
C182 H205 0.950 . S
C183 C182 1.349 . S
C183 C195 1.356 1_455 S
C184 C182 1.327 . S
C184 C200 1.429 . S
C184 H206 0.950 . S
C185 H181 0.949 . S
C185 C193 1.574 . S
C185 C201 1.368 1_655 S
H186 C194 0.950 . S
H187 C192 0.950 . S
H188 C193 0.949 . S
H189 C195 0.952 . S
H190 C196 0.950 . S
H191 C197 0.949 . S
C192 H187 0.950 . S
C192 C194 1.327 . S
C192 C198 1.429 . S
C193 C185 1.574 . S
C193 H188 0.949 . S
C193 C199 1.368 1_655 S
C194 C178 1.349 . S
C194 H186 0.950 . S
C194 C192 1.327 . S
C195 C183 1.356 1_655 S
C195 H189 0.952 . S
C195 C196 1.318 . S
C196 H190 0.950 . S
C196 C195 1.318 . S
C196 C200 1.429 1_655 S
C197 C180 1.574 . S
C197 H191 0.949 . S
C197 C201 1.368 . S
C198 C179 1.429 1_455 S
C198 C192 1.429 . S
C198 C199 1.523 . S
C199 C180 1.368 . S
C199 C193 1.368 1_455 S
C199 C198 1.523 . S
C200 C184 1.429 . S
C200 C196 1.429 1_455 S
C200 C201 1.523 . S
C201 C185 1.368 1_455 S
C201 C197 1.368 . S
C201 C200 1.523 . S
H202 C177 0.950 . S
H203 C179 0.950 . S
H204 C180 0.949 . S
H205 C182 0.950 . S
H206 C184 0.950 . S
C207 C208 1.349 . S
C207 C209 1.327 . S
C207 H232 0.950 . S
C208 C207 1.349 . S
C208 C224 1.349 . S
C209 C207 1.327 . S
C209 C228 1.429 . S
C209 H233 0.950 . S
C210 C227 1.574 . S
C210 C229 1.368 . S
C210 H234 0.949 1_545 S
H211 C215 0.949 . S
C212 C213 1.349 . S
C212 C214 1.327 . S
C212 H235 0.950 1_545 S
C213 C212 1.349 . S
C213 C225 1.349 . S
C214 C212 1.327 . S
C214 C230 1.429 . S
C214 H236 0.950 1_545 S
C215 H211 0.949 . S
C215 C223 1.574 . S
C215 C231 1.368 . S
H216 C224 0.950 1_565 S
H217 C222 0.950 1_565 S
H218 C223 0.949 . S
H219 C225 0.950 . S
H220 C226 0.950 . S
H221 C227 0.949 1_565 S
C222 H217 0.950 1_545 S
C222 C224 1.327 . S
C222 C228 1.429 . S
C223 C215 1.574 . S
C223 H218 0.949 . S
C223 C229 1.368 . S
C224 C208 1.349 . S
C224 H216 0.950 1_545 S
C224 C222 1.327 . S
C225 C213 1.349 . S
C225 H219 0.950 . S
C225 C226 1.327 . S
C226 H220 0.950 . S
C226 C225 1.327 . S
C226 C230 1.429 . S
C227 C210 1.574 . S
C227 H221 0.949 1_545 S
C227 C231 1.368 . S
C228 C209 1.429 . S
C228 C222 1.429 . S
C228 C229 1.523 . S
C229 C210 1.368 . S
C229 C223 1.368 . S
C229 C228 1.523 . S
C230 C214 1.429 . S
C230 C226 1.429 . S
C230 C231 1.523 . S
C231 C215 1.368 . S
C231 C227 1.368 . S
C231 C230 1.523 . S
H232 C207 0.950 . S
H233 C209 0.950 . S
H234 C210 0.949 1_565 S
H235 C212 0.950 1_565 S
H236 C214 0.950 1_565 S
C237 C238 1.349 . S
C237 C239 1.327 . S
C237 H262 0.950 . S
C238 C237 1.349 . S
C238 C254 1.349 . S
C239 C237 1.327 . S
C239 C258 1.429 . S
C239 H263 0.950 . S
C240 C257 1.574 . S
C240 C259 1.368 . S
C240 H264 0.949 . S
H241 C245 0.949 . S
C242 C243 1.349 . S
C242 C244 1.327 . S
C242 H265 0.950 . S
C243 C242 1.349 . S
C243 C255 1.349 . S
C244 C242 1.327 . S
C244 C260 1.429 . S
C244 H266 0.950 . S
C245 H241 0.949 . S
C245 C253 1.574 . S
C245 C261 1.368 . S
H246 C254 0.950 . S
H247 C252 0.950 . S
H248 C253 0.949 . S
H249 C255 0.950 . S
H250 C256 0.950 . S
H251 C257 0.949 . S
C252 H247 0.950 . S
C252 C254 1.327 . S
C252 C258 1.429 . S
C253 C245 1.574 . S
C253 H248 0.949 . S
C253 C259 1.368 . S
C254 C238 1.349 . S
C254 H246 0.950 . S
C254 C252 1.327 . S
C255 C243 1.349 . S
C255 H249 0.950 . S
C255 C256 1.327 . S
C256 H250 0.950 . S
C256 C255 1.327 . S
C256 C260 1.429 . S
C257 C240 1.574 . S
C257 H251 0.949 . S
C257 C261 1.368 . S
C258 C239 1.429 . S
C258 C252 1.429 . S
C258 C259 1.523 . S
C259 C240 1.368 . S
C259 C253 1.368 . S
C259 C258 1.523 . S
C260 C244 1.429 . S
C260 C256 1.429 . S
C260 C261 1.523 . S
C261 C245 1.368 . S
C261 C257 1.368 . S
C261 C260 1.523 . S
H262 C237 0.950 . S
H263 C239 0.950 . S
H264 C240 0.949 . S
H265 C242 0.950 . S
H266 C244 0.950 . S
C267 C268 1.349 . S
C267 C269 1.327 . S
C267 H292 0.950 . S
C268 C267 1.349 . S
C268 C284 1.349 . S
C269 C267 1.327 . S
C269 C288 1.429 . S
C269 H293 0.950 . S
C270 C287 1.574 . S
C270 C289 1.368 . S
C270 H294 0.949 . S
H271 C275 0.949 . S
C272 C273 1.349 1_655 S
C272 C274 1.329 1_655 S
C272 H295 0.950 . S
C273 C272 1.349 1_455 S
C273 C285 1.349 . S
C274 C272 1.329 1_455 S
C274 C290 1.430 . S
C274 H296 0.946 1_455 S
C275 H271 0.949 . S
C275 C283 1.574 . S
C275 C291 1.368 . S
H276 C284 0.950 . S
H277 C282 0.950 . S
H278 C283 0.949 . S
H279 C285 0.950 . S
H280 C286 0.950 . S
H281 C287 0.949 1_655 S
C282 H277 0.950 . S
C282 C284 1.327 . S
C282 C288 1.429 . S
C283 C275 1.574 . S
C283 H278 0.949 . S
C283 C289 1.368 . S
C284 C268 1.349 . S
C284 H276 0.950 . S
C284 C282 1.327 . S
C285 C273 1.349 . S
C285 H279 0.950 . S
C285 C286 1.327 . S
C286 H280 0.950 . S
C286 C285 1.327 . S
C286 C290 1.429 . S
C287 C270 1.574 . S
C287 H281 0.949 1_455 S
C287 C291 1.368 . S
C288 C269 1.429 . S
C288 C282 1.429 . S
C288 C289 1.523 . S
C289 C270 1.368 . S
C289 C283 1.368 . S
C289 C288 1.523 . S
C290 C274 1.430 . S
C290 C286 1.429 . S
C290 C291 1.523 . S
C291 C275 1.368 . S
C291 C287 1.368 . S
C291 C290 1.523 . S
H292 C267 0.950 . S
H293 C269 0.950 . S
H294 C270 0.949 . S
H295 C272 0.950 . S
H296 C274 0.946 1_655 S
C297 C298 1.349 . S
C297 C299 1.327 . S
C297 H322 0.950 . S
C298 C297 1.349 . S
C298 C314 1.349 . S
C299 C297 1.327 . S
C299 C318 1.429 . S
C299 H323 0.950 . S
C300 C317 1.574 . S
C300 C319 1.368 . S
C300 H324 0.949 . S
H301 C305 0.949 . S
C302 C303 1.349 . S
C302 C304 1.327 . S
C302 H325 0.950 . S
C303 C302 1.349 . S
C303 C315 1.349 . S
C304 C302 1.327 . S
C304 C320 1.429 . S
C304 H326 0.950 . S
C305 H301 0.949 . S
C305 C313 1.574 . S
C305 C321 1.368 . S
H306 C314 0.950 . S
H307 C312 0.950 . S
H308 C313 0.949 . S
H309 C315 0.950 . S
H310 C316 0.950 . S
H311 C317 0.949 . S
C312 H307 0.950 . S
C312 C314 1.327 . S
C312 C318 1.429 . S
C313 C305 1.574 . S
C313 H308 0.949 . S
C313 C319 1.368 . S
C314 C298 1.349 . S
C314 H306 0.950 . S
C314 C312 1.327 . S
C315 C303 1.349 . S
C315 H309 0.950 . S
C315 C316 1.327 . S
C316 H310 0.950 . S
C316 C315 1.327 . S
C316 C320 1.429 . S
C317 C300 1.574 . S
C317 H311 0.949 . S
C317 C321 1.368 . S
C318 C299 1.429 . S
C318 C312 1.429 . S
C318 C319 1.523 . S
C319 C300 1.368 . S
C319 C313 1.368 . S
C319 C318 1.523 . S
C320 C304 1.429 . S
C320 C316 1.429 . S
C320 C321 1.523 . S
C321 C305 1.368 . S
C321 C317 1.368 . S
C321 C320 1.523 . S
H322 C297 0.950 . S
H323 C299 0.950 . S
H324 C300 0.949 . S
H325 C302 0.950 . S
H326 C304 0.950 . S
C327 C328 1.349 . S
C327 C329 1.327 . S
C327 H352 0.950 . S
C328 C327 1.349 . S
C328 C344 1.349 . S
C329 C327 1.327 . S
C329 C348 1.429 . S
C329 H353 0.950 . S
C330 C347 1.574 . S
C330 C349 1.368 . S
C330 H354 0.949 . S
H331 C335 0.949 . S
C332 C333 1.349 . S
C332 C334 1.327 . S
C332 H355 0.950 . S
C333 C332 1.349 . S
C333 C345 1.349 . S
C334 C332 1.327 . S
C334 C350 1.429 . S
C334 H356 0.950 . S
C335 H331 0.949 . S
C335 C343 1.574 . S
C335 C351 1.368 . S
H336 C344 0.950 . S
H337 C342 0.950 . S
H338 C343 0.949 . S
H339 C345 0.950 . S
H340 C346 0.950 . S
H341 C347 0.949 . S
C342 H337 0.950 . S
C342 C344 1.327 . S
C342 C348 1.429 . S
C343 C335 1.574 . S
C343 H338 0.949 . S
C343 C349 1.368 . S
C344 C328 1.349 . S
C344 H336 0.950 . S
C344 C342 1.327 . S
C345 C333 1.349 . S
C345 H339 0.950 . S
C345 C346 1.327 . S
C346 H340 0.950 . S
C346 C345 1.327 . S
C346 C350 1.429 . S
C347 C330 1.574 . S
C347 H341 0.949 . S
C347 C351 1.368 . S
C348 C329 1.429 . S
C348 C342 1.429 . S
C348 C349 1.523 . S
C349 C330 1.368 . S
C349 C343 1.368 . S
C349 C348 1.523 . S
C350 C334 1.429 . S
C350 C346 1.429 . S
C350 C351 1.523 . S
C351 C335 1.368 . S
C351 C347 1.368 . S
C351 C350 1.523 . S
H352 C327 0.950 . S
H353 C329 0.950 . S
H354 C330 0.949 . S
H355 C332 0.950 . S
H356 C334 0.950 . S
C357 C358 1.358 . S
C357 C359 1.337 1_545 S
C357 H382 0.931 1_545 S
C358 C357 1.358 . S
C358 C374 1.349 . S
C359 C357 1.337 1_565 S
C359 C378 1.429 1_565 S
C359 H383 0.950 . S
C360 C377 1.574 . S
C360 C379 1.368 . S
C360 H384 0.949 . S
H361 C365 0.949 . S
C362 C363 1.349 . S
C362 C364 1.327 . S
C362 H385 0.950 . S
C363 C362 1.349 . S
C363 C375 1.349 1_545 S
C364 C362 1.327 . S
C364 C380 1.429 . S
C364 H386 0.950 . S
C365 H361 0.949 . S
C365 C373 1.574 . S
C365 C381 1.368 1_565 S
H366 C374 0.950 . S
H367 C372 0.950 . S
H368 C373 0.949 . S
H369 C375 0.950 . S
H370 C376 0.950 . S
H371 C377 0.949 . S
C372 H367 0.950 . S
C372 C374 1.327 . S
C372 C378 1.429 . S
C373 C365 1.574 . S
C373 H368 0.949 . S
C373 C379 1.368 1_565 S
C374 C358 1.349 . S
C374 H366 0.950 . S
C374 C372 1.327 . S
C375 C363 1.349 1_565 S
C375 H369 0.950 . S
C375 C376 1.327 . S
C376 H370 0.950 . S
C376 C375 1.327 . S
C376 C380 1.429 1_565 S
C377 C360 1.574 . S
C377 H371 0.949 . S
C377 C381 1.368 . S
C378 C359 1.429 1_545 S
C378 C372 1.429 . S
C378 C379 1.523 . S
C379 C360 1.368 . S
C379 C373 1.368 1_545 S
C379 C378 1.523 . S
C380 C364 1.429 . S
C380 C376 1.429 1_545 S
C380 C381 1.523 . S
C381 C365 1.368 1_545 S
C381 C377 1.368 . S
C381 C380 1.523 . S
H382 C357 0.931 1_565 S
H383 C359 0.950 . S
H384 C360 0.949 . S
H385 C362 0.950 . S
H386 C364 0.950 . S
C387 C388 1.349 . S
C387 C389 1.327 1_554 S
C387 H412 0.950 . S
C388 C387 1.349 . S
C388 C404 1.349 . S
C389 C387 1.327 1_556 S
C389 C408 1.429 . S
C389 H413 0.950 . S
C390 C407 1.574 . S
C390 C409 1.368 . S
C390 H414 0.949 1_556 S
H391 C395 0.949 . S
C392 C393 1.349 . S
C392 C394 1.327 . S
C392 H415 0.950 . S
C393 C392 1.349 . S
C393 C405 1.349 . S
C394 C392 1.327 . S
C394 C410 1.429 . S
C394 H416 0.950 . S
C395 H391 0.949 . S
C395 C403 1.574 . S
C395 C411 1.368 . S
H396 C404 0.950 . S
H397 C402 0.950 . S
H398 C403 0.949 . S
H399 C405 0.950 . S
H400 C406 0.950 . S
H401 C407 0.949 . S
C402 H397 0.950 . S
C402 C404 1.327 . S
C402 C408 1.429 1_554 S
C403 C395 1.574 . S
C403 H398 0.949 . S
C403 C409 1.368 . S
C404 C388 1.349 . S
C404 H396 0.950 . S
C404 C402 1.327 . S
C405 C393 1.349 . S
C405 H399 0.950 . S
C405 C406 1.327 . S
C406 H400 0.950 . S
C406 C405 1.327 . S
C406 C410 1.429 . S
C407 C390 1.574 . S
C407 H401 0.949 . S
C407 C411 1.368 . S
C408 C389 1.429 . S
C408 C402 1.429 1_556 S
C408 C409 1.523 . S
C409 C390 1.368 . S
C409 C403 1.368 . S
C409 C408 1.523 . S
C410 C394 1.429 . S
C410 C406 1.429 . S
C410 C411 1.523 . S
C411 C395 1.368 . S
C411 C407 1.368 . S
C411 C410 1.523 . S
H412 C387 0.950 . S
H413 C389 0.950 . S
H414 C390 0.949 1_554 S
H415 C392 0.950 . S
H416 C394 0.950 . S
C417 C418 1.349 . S
C417 C419 1.327 . S
C417 H442 0.950 . S
C418 C417 1.349 . S
C418 C434 1.349 1_455 S
C419 C417 1.327 . S
C419 C438 1.429 . S
C419 H443 0.950 . S
C420 C437 1.574 . S
C420 C439 1.368 1_655 S
C420 H444 0.949 . S
H421 C425 0.949 . S
C422 C423 1.349 1_655 S
C422 C424 1.327 . S
C422 H445 0.950 . S
C423 C422 1.349 1_455 S
C423 C435 1.349 . S
C424 C422 1.327 . S
C424 C440 1.429 1_655 S
C424 H446 0.950 . S
C425 H421 0.949 . S
C425 C433 1.574 . S
C425 C441 1.368 . S
H426 C434 0.950 . S
H427 C432 0.950 . S
H428 C433 0.949 . S
H429 C435 0.950 . S
H430 C436 0.950 . S
H431 C437 0.949 . S
C432 H427 0.950 . S
C432 C434 1.327 . S
C432 C438 1.429 1_655 S
C433 C425 1.574 . S
C433 H428 0.949 . S
C433 C439 1.368 . S
C434 C418 1.349 1_655 S
C434 H426 0.950 . S
C434 C432 1.327 . S
C435 C423 1.349 . S
C435 H429 0.950 . S
C435 C436 1.327 . S
C436 H430 0.950 . S
C436 C435 1.327 . S
C436 C440 1.429 . S
C437 C420 1.574 . S
C437 H431 0.949 . S
C437 C441 1.368 1_655 S
C438 C419 1.429 . S
C438 C432 1.429 1_455 S
C438 C439 1.523 . S
C439 C420 1.368 1_455 S
C439 C433 1.368 . S
C439 C438 1.523 . S
C440 C424 1.429 1_455 S
C440 C436 1.429 . S
C440 C441 1.523 . S
C441 C425 1.368 . S
C441 C437 1.368 1_455 S
C441 C440 1.523 . S
H442 C417 0.950 . S
H443 C419 0.950 . S
H444 C420 0.949 . S
H445 C422 0.950 . S
H446 C424 0.950 . S
C447 C448 1.349 1_565 S
C447 C449 1.327 . S
C447 H472 0.950 . S
C448 C447 1.349 1_545 S
C448 C464 1.349 . S
C449 C447 1.327 . S
C449 C468 1.429 1_565 S
C449 H473 0.950 . S
C450 C467 1.574 . S
C450 C469 1.368 . S
C450 H474 0.949 . S
H451 C455 0.949 . S
C452 C453 1.349 . S
C452 C454 1.327 . S
C452 H475 0.950 . S
C453 C452 1.349 . S
C453 C465 1.349 1_545 S
C454 C452 1.327 . S
C454 C470 1.429 . S
C454 H476 0.950 . S
C455 H451 0.949 . S
C455 C463 1.574 . S
C455 C471 1.368 1_565 S
H456 C464 0.950 . S
H457 C462 0.950 . S
H458 C463 0.949 . S
H459 C465 0.950 . S
H460 C466 0.950 . S
H461 C467 0.949 . S
C462 H457 0.950 . S
C462 C464 1.327 . S
C462 C468 1.429 . S
C463 C455 1.574 . S
C463 H458 0.949 . S
C463 C469 1.368 1_565 S
C464 C448 1.349 . S
C464 H456 0.950 . S
C464 C462 1.327 . S
C465 C453 1.349 1_565 S
C465 H459 0.950 . S
C465 C466 1.327 . S
C466 H460 0.950 . S
C466 C465 1.327 . S
C466 C470 1.429 1_565 S
C467 C450 1.574 . S
C467 H461 0.949 . S
C467 C471 1.368 . S
C468 C449 1.429 1_545 S
C468 C462 1.429 . S
C468 C469 1.523 . S
C469 C450 1.368 . S
C469 C463 1.368 1_545 S
C469 C468 1.523 . S
C470 C454 1.429 . S
C470 C466 1.429 1_545 S
C470 C471 1.523 . S
C471 C455 1.368 1_545 S
C471 C467 1.368 . S
C471 C470 1.523 . S
H472 C447 0.950 . S
H473 C449 0.950 . S
H474 C450 0.949 . S
H475 C452 0.950 . S
H476 C454 0.950 . S
C477 C478 1.349 . S
C477 C479 1.327 . S
C477 H502 0.950 . S
C478 C477 1.349 . S
C478 C494 1.349 . S
C479 C477 1.327 . S
C479 C498 1.429 1_554 S
C479 H503 0.950 . S
C480 C497 1.574 . S
C480 C499 1.368 . S
C480 H504 0.949 . S
H481 C485 0.949 . S
C482 C483 1.349 . S
C482 C484 1.327 . S
C482 H505 0.950 . S
C483 C482 1.349 . S
C483 C495 1.349 . S
C484 C482 1.327 . S
C484 C500 1.429 . S
C484 H506 0.950 . S
C485 H481 0.949 . S
C485 C493 1.574 . S
C485 C501 1.368 . S
H486 C494 0.950 1_556 S
H487 C492 0.950 . S
H488 C493 0.949 1_554 S
H489 C495 0.950 . S
H490 C496 0.950 . S
H491 C497 0.949 . S
C492 H487 0.950 . S
C492 C494 1.327 1_556 S
C492 C498 1.429 . S
C493 C485 1.574 . S
C493 H488 0.949 1_556 S
C493 C499 1.368 . S
C494 C478 1.349 . S
C494 H486 0.950 1_554 S
C494 C492 1.327 1_554 S
C495 C483 1.349 . S
C495 H489 0.950 . S
C495 C496 1.327 . S
C496 H490 0.950 . S
C496 C495 1.327 . S
C496 C500 1.429 . S
C497 C480 1.574 . S
C497 H491 0.949 . S
C497 C501 1.368 . S
C498 C479 1.429 1_556 S
C498 C492 1.429 . S
C498 C499 1.523 . S
C499 C480 1.368 . S
C499 C493 1.368 . S
C499 C498 1.523 . S
C500 C484 1.429 . S
C500 C496 1.429 . S
C500 C501 1.523 . S
C501 C485 1.368 . S
C501 C497 1.368 . S
C501 C500 1.523 . S
H502 C477 0.950 . S
H503 C479 0.950 . S
H504 C480 0.949 . S
H505 C482 0.950 . S
H506 C484 0.950 . S
C507 C508 1.349 . S
C507 C509 1.327 . S
C507 H532 0.950 . S
C508 C507 1.349 . S
C508 C524 1.349 . S
C509 C507 1.327 . S
C509 C528 1.429 . S
C509 H533 0.950 . S
C510 C527 1.574 . S
C510 C529 1.368 1_655 S
C510 H534 0.949 . S
H511 C515 0.949 . S
C512 C513 1.349 1_655 S
C512 C514 1.327 . S
C512 H535 0.950 . S
C513 C512 1.349 1_455 S
C513 C525 1.349 . S
C514 C512 1.327 . S
C514 C530 1.429 1_655 S
C514 H536 0.950 . S
C515 H511 0.949 . S
C515 C523 1.574 . S
C515 C531 1.368 . S
H516 C524 0.950 1_655 S
H517 C522 0.950 1_655 S
H518 C523 0.949 . S
H519 C525 0.950 . S
H520 C526 0.950 . S
H521 C527 0.949 . S
C522 H517 0.950 1_455 S
C522 C524 1.327 . S
C522 C528 1.429 . S
C523 C515 1.574 . S
C523 H518 0.949 . S
C523 C529 1.368 . S
C524 C508 1.349 . S
C524 H516 0.950 1_455 S
C524 C522 1.327 . S
C525 C513 1.349 . S
C525 H519 0.950 . S
C525 C526 1.327 . S
C526 H520 0.950 . S
C526 C525 1.327 . S
C526 C530 1.429 . S
C527 C510 1.574 . S
C527 H521 0.949 . S
C527 C531 1.368 1_655 S
C528 C509 1.429 . S
C528 C522 1.429 . S
C528 C529 1.523 . S
C529 C510 1.368 1_455 S
C529 C523 1.368 . S
C529 C528 1.523 . S
C530 C514 1.429 1_455 S
C530 C526 1.429 . S
C530 C531 1.523 . S
C531 C515 1.368 . S
C531 C527 1.368 1_455 S
C531 C530 1.523 . S
H532 C507 0.950 . S
H533 C509 0.950 . S
H534 C510 0.949 . S
H535 C512 0.950 . S
H536 C514 0.950 . S
C183 C47 1.375 . S
C178 C10 1.374 . S
C208 C21 1.406 . S
C213 C86 1.436 . S
C238 C31 1.353 . S
C243 C153 1.417 . S
C268 C0 1.348 . S
C273 C54 1.391 . S
C303 C107 1.419 . S
C298 C18 1.357 . S
C328 C34 1.368 . S
C333 C132 1.396 . S
C363 C93 1.356 . S
C358 C36 1.357 . S
C388 C8 1.369 . S
C393 C146 1.396 . S
C423 C61 1.377 . S
C418 C23 1.376 . S
C453 C100 1.334 . S
C448 C26 1.295 . S
C483 C139 1.414 . S
C478 C5 1.354 . S
C508 C13 1.352 . S
C513 C40 1.392 . S
