# Generated by pormake.
# Topology zzz, (3,6)-cn, num edge types: 1
# Building blocks:
#     Node 0, Type 0, BuildingBlock: KAKCAD_clean_linker_0, # of connection points: 3
#     Node 1, Type 0, BuildingBlock: KAKCAD_clean_linker_0, # of connection points: 3
#     Node 2, Type 0, BuildingBlock: KAKCAD_clean_linker_0, # of connection points: 3
#     Node 3, Type 0, BuildingBlock: KAKCAD_clean_linker_0, # of connection points: 3
#     Node 4, Type 0, BuildingBlock: KAKCAD_clean_linker_0, # of connection points: 3
#     Node 5, Type 0, BuildingBlock: KAKCAD_clean_linker_0, # of connection points: 3
#     Node 6, Type 0, BuildingBlock: KAKCAD_clean_linker_0, # of connection points: 3
#     Node 7, Type 0, BuildingBlock: KAKCAD_clean_linker_0, # of connection points: 3
#     Node 8, Type 1, BuildingBlock: NUHQIS_clean_sbu_0, # of connection points: 6
#     Node 9, Type 1, BuildingBlock: NUHQIS_clean_sbu_0, # of connection points: 6
#     Node 10, Type 1, BuildingBlock: NUHQIS_clean_sbu_0, # of connection points: 6
#     Node 11, Type 1, BuildingBlock: NUHQIS_clean_sbu_0, # of connection points: 6
#     Edge 12, Type (0, 1), BuildingBlock: XUDNAN_clean_linker_2, # of connection points: 2
#     Edge 13, Type (0, 1), BuildingBlock: XUDNAN_clean_linker_2, # of connection points: 2
#     Edge 14, Type (0, 1), BuildingBlock: XUDNAN_clean_linker_2, # of connection points: 2
#     Edge 15, Type (0, 1), BuildingBlock: XUDNAN_clean_linker_2, # of connection points: 2
#     Edge 16, Type (0, 1), BuildingBlock: XUDNAN_clean_linker_2, # of connection points: 2
#     Edge 17, Type (0, 1), BuildingBlock: XUDNAN_clean_linker_2, # of connection points: 2
#     Edge 18, Type (0, 1), BuildingBlock: XUDNAN_clean_linker_2, # of connection points: 2
#     Edge 19, Type (0, 1), BuildingBlock: XUDNAN_clean_linker_2, # of connection points: 2
#     Edge 20, Type (0, 1), BuildingBlock: XUDNAN_clean_linker_2, # of connection points: 2
#     Edge 21, Type (0, 1), BuildingBlock: XUDNAN_clean_linker_2, # of connection points: 2
#     Edge 22, Type (0, 1), BuildingBlock: XUDNAN_clean_linker_2, # of connection points: 2
#     Edge 23, Type (0, 1), BuildingBlock: XUDNAN_clean_linker_2, # of connection points: 2
#     Edge 24, Type (0, 1), BuildingBlock: XUDNAN_clean_linker_2, # of connection points: 2
#     Edge 25, Type (0, 1), BuildingBlock: XUDNAN_clean_linker_2, # of connection points: 2
#     Edge 26, Type (0, 1), BuildingBlock: XUDNAN_clean_linker_2, # of connection points: 2
#     Edge 27, Type (0, 1), BuildingBlock: XUDNAN_clean_linker_2, # of connection points: 2
#     Edge 28, Type (0, 1), BuildingBlock: XUDNAN_clean_linker_2, # of connection points: 2
#     Edge 29, Type (0, 1), BuildingBlock: XUDNAN_clean_linker_2, # of connection points: 2
#     Edge 30, Type (0, 1), BuildingBlock: XUDNAN_clean_linker_2, # of connection points: 2
#     Edge 31, Type (0, 1), BuildingBlock: XUDNAN_clean_linker_2, # of connection points: 2
#     Edge 32, Type (0, 1), BuildingBlock: XUDNAN_clean_linker_2, # of connection points: 2
#     Edge 33, Type (0, 1), BuildingBlock: XUDNAN_clean_linker_2, # of connection points: 2
#     Edge 34, Type (0, 1), BuildingBlock: XUDNAN_clean_linker_2, # of connection points: 2
#     Edge 35, Type (0, 1), BuildingBlock: XUDNAN_clean_linker_2, # of connection points: 2
# Relax obj value: 0.418
# Max RMSD: 0.255
# Mean RMSD: 0.232
data_MOF--net-zzz--node1-NUHQIS_clean_sbu_0--node2-KAKCAD_clean_linker_0--edge1-XUDNAN_clean_linker_2
_symmetry_space_group_name_H-M    P1
_symmetry_Int_Tables_number       1
_symmetry_cell_setting            triclinic
loop_
_symmetry_equiv_pos_as_xyz
'x, y, z'
_cell_length_a     59.699038
_cell_length_b     59.92317
_cell_length_c     19.0286
_cell_angle_alpha  89.677117
_cell_angle_beta   89.708296
_cell_angle_gamma 89.997123
loop_
_atom_site_label
_atom_site_type_symbol
_atom_site_fract_x
_atom_site_fract_y
_atom_site_fract_z
_atom_type_partial_charge
C0 C 0.81335 0.58065 0.14599 0.0
C1 C 0.82089 0.56534 0.0953 0.0
C2 C 0.79277 0.57737 0.17976 0.0
C3 C 0.77932 0.55902 0.16224 0.0
C4 C 0.78503 0.5462 0.10345 0.0
C5 C 0.80573 0.54924 0.07039 0.0
C6 C 0.76436 0.54903 0.21581 0.0
C7 C 0.74277 0.54183 0.19933 0.0
C8 C 0.73074 0.52785 0.24571 0.0
C9 C 0.74104 0.52051 0.30885 0.0
C10 C 0.76265 0.52837 0.32668 0.0
C11 C 0.7738 0.54275 0.27993 0.0
C12 C 0.7755 0.52089 0.38974 0.0
C13 C 0.78674 0.53703 0.42996 0.0
C14 C 0.78124 0.49832 0.39933 0.0
C15 C 0.79905 0.49229 0.4439 0.0
C16 C 0.81156 0.50876 0.47878 0.0
C17 C 0.70815 0.52024 0.22311 0.0
C18 C 0.69187 0.53613 0.20419 0.0
C19 C 0.70428 0.49773 0.20708 0.0
C20 C 0.68534 0.49152 0.16826 0.0
C21 C 0.66977 0.50766 0.1452 0.0
C22 C 0.67283 0.5299 0.16619 0.0
C23 C 0.80466 0.53108 0.47323 0.0
H24 H 0.8243 0.59371 0.16476 0.0
H25 H 0.78855 0.58762 0.22466 0.0
H26 H 0.77494 0.53192 0.08901 0.0
H27 H 0.81076 0.53712 0.03139 0.0
H28 H 0.7357 0.54634 0.1488 0.0
H29 H 0.79091 0.54768 0.29105 0.0
H30 H 0.73231 0.50906 0.34369 0.0
H31 H 0.78275 0.55457 0.42367 0.0
H32 H 0.77318 0.48554 0.36833 0.0
H33 H 0.80397 0.47492 0.44739 0.0
H34 H 0.69454 0.55363 0.21533 0.0
H35 H 0.71667 0.48519 0.22017 0.0
H36 H 0.81374 0.5441 0.50026 0.0
H37 H 0.66134 0.5428 0.14904 0.0
H38 H 0.68339 0.4742 0.15359 0.0
C39 C 0.0453 0.78313 0.97006 0.0
C40 C 0.06884 0.78229 0.96771 0.0
C41 C 0.03356 0.77274 0.02467 0.0
C42 C 0.04515 0.76115 0.07717 0.0
C43 C 0.06855 0.75947 0.0737 0.0
C44 C 0.08036 0.77013 0.0195 0.0
C45 C 0.03279 0.7515 0.13689 0.0
C46 C 0.02794 0.7288 0.13827 0.0
C47 C 0.0158 0.71929 0.19429 0.0
C48 C 0.00865 0.73309 0.25041 0.0
C49 C 0.01367 0.75624 0.24932 0.0
C50 C 0.02565 0.76512 0.19182 0.0
C51 C 1.00773 0.77177 0.30766 0.0
C52 C 0.99827 0.79271 0.29179 0.0
C53 C 0.0152 0.7678 0.37648 0.0
C54 C 0.0148 0.78498 0.42659 0.0
C55 C 1.00691 0.80652 0.40902 0.0
C56 C 0.01066 0.69504 0.18953 0.0
C57 C 0.98845 0.68755 0.18281 0.0
C58 C 0.0282 0.68009 0.17461 0.0
C59 C 0.02376 0.65896 0.14733 0.0
C60 C 1.00165 0.65209 0.13504 0.0
C61 C 0.98397 0.66617 0.15607 0.0
C62 C 0.99789 0.80982 0.34157 0.0
H63 H 0.03603 0.79276 0.93161 0.0
H64 H 0.01547 0.77415 0.02684 0.0
H65 H 0.07767 0.7505 0.11402 0.0
H66 H 0.09849 0.76934 0.01892 0.0
H67 H 0.03329 0.71855 0.09446 0.0
H68 H 0.02991 0.78272 0.1903 0.0
H69 H 0.99937 0.72594 0.29411 0.0
H70 H 0.99235 0.79629 0.23918 0.0
H71 H 0.0227 0.75192 0.39025 0.0
H72 H 0.02146 0.78158 0.47837 0.0
H73 H 0.97462 0.69881 0.1929 0.0
H74 H 0.04547 0.68542 0.17916 0.0
H75 H 0.99179 0.82605 0.32538 0.0
H76 H 0.96675 0.66128 0.14725 0.0
H77 H 0.0377 0.64835 0.13274 0.0
C78 C 0.75169 0.06494 0.98575 0.0
C79 C 0.73611 0.08146 1.00482 0.0
C80 C 0.76116 0.05105 0.0368 0.0
C81 C 0.75546 0.05359 0.10812 0.0
C82 C 0.74136 0.07129 0.12762 0.0
C83 C 0.73171 0.08499 0.07661 0.0
C84 C 0.76306 0.03708 0.16147 0.0
C85 C 0.78467 0.02828 0.1586 0.0
C86 C 0.7918 0.01201 0.20685 0.0
C87 C 0.77687 1.00464 0.26032 0.0
C88 C 0.75505 0.01397 0.26548 0.0
C89 C 0.74837 0.02964 0.21425 0.0
C90 C 0.73863 0.00814 0.32293 0.0
C91 C 0.73545 0.98607 0.34694 0.0
C92 C 0.72438 0.02487 0.3499 0.0
C93 C 0.70659 0.01959 0.39499 0.0
C94 C 0.70282 0.99752 0.41653 0.0
C95 C 0.81501 1.00339 0.19749 0.0
C96 C 0.81876 0.98153 0.17367 0.0
C97 C 0.8328 0.01876 0.19441 0.0
C98 C 0.85316 0.0131 0.16256 0.0
C99 C 0.85638 0.99183 0.13359 0.0
C100 C 0.83935 0.97575 0.14232 0.0
C101 C 0.71778 0.98084 0.39374 0.0
H102 H 0.75568 0.06196 0.93101 0.0
H103 H 0.77199 0.0376 0.01985 0.0
H104 H 0.73708 0.07405 0.18228 0.0
H105 H 0.71964 0.09736 0.09353 0.0
H106 H 0.79613 0.03404 0.11796 0.0
H107 H 0.73131 0.03582 0.21448 0.0
H108 H 0.7824 0.99234 0.29836 0.0
H109 H 0.746 0.97274 0.32751 0.0
H110 H 0.72663 0.04218 0.33477 0.0
H111 H 0.69563 0.03284 0.41287 0.0
H112 H 0.80523 0.96949 0.17414 0.0
H113 H 0.83033 0.03577 0.21184 0.0
H114 H 0.71531 0.96368 0.41012 0.0
H115 H 0.84135 0.95921 0.12051 0.0
H116 H 0.86607 0.02574 0.15768 0.0
C117 C 0.51778 0.68712 0.35462 0.0
C118 C 0.52535 0.68989 0.42405 0.0
C119 C 0.51852 0.70468 0.30589 0.0
C120 C 0.52769 0.72563 0.32327 0.0
C121 C 0.53442 0.72886 0.39325 0.0
C122 C 0.53308 0.71137 0.44295 0.0
C123 C 0.53147 0.74311 0.26702 0.0
C124 C 0.52931 0.76639 0.27984 0.0
C125 C 0.53297 0.782 0.22478 0.0
C126 C 0.53826 0.77429 0.15749 0.0
C127 C 0.53883 0.75157 0.14255 0.0
C128 C 0.53653 0.73615 0.19784 0.0
C129 C 0.53769 0.74418 0.06824 0.0
C130 C 0.52305 0.75523 0.02178 0.0
C131 C 0.54874 0.72482 0.0453 0.0
C132 C 0.54389 0.71578 0.97945 0.0
C133 C 0.52782 0.72592 0.93596 0.0
C134 C 0.52785 0.80622 0.22932 0.0
C135 C 0.50541 0.81287 0.22249 0.0
C136 C 0.54476 0.82164 0.21121 0.0
C137 C 0.53941 0.84192 0.17807 0.0
C138 C 0.51703 0.84712 0.16218 0.0
C139 C 0.50004 0.83308 0.18904 0.0
C140 C 0.5182 0.7462 0.95638 0.0
H141 H 0.51186 0.67116 0.3362 0.0
H142 H 0.51221 0.70152 0.25368 0.0
H143 H 0.5414 0.7447 0.40931 0.0
H144 H 0.53842 0.71479 0.49601 0.0
H145 H 0.52431 0.77229 0.33125 0.0
H146 H 0.53775 0.71856 0.18592 0.0
H147 H 0.5402 0.78623 0.11477 0.0
H148 H 0.51396 0.77001 0.03784 0.0
H149 H 0.56027 0.71608 0.07956 0.0
H150 H 0.55134 0.69996 0.96506 0.0
H151 H 0.49203 0.80124 0.23473 0.0
H152 H 0.56221 0.81678 0.21461 0.0
H153 H 0.50567 0.75421 0.92384 0.0
H154 H 0.48261 0.83676 0.17861 0.0
H155 H 0.55291 0.85229 0.15816 0.0
C156 C 0.23577 0.56735 0.41102 0.0
C157 C 0.21522 0.56083 0.44094 0.0
C158 C 0.24654 0.55361 0.36215 0.0
C159 C 0.23668 0.53338 0.34158 0.0
C160 C 0.21645 0.52664 0.37279 0.0
C161 C 0.20588 0.54017 0.4222 0.0
C162 C 0.24688 0.51975 0.28538 0.0
C163 C 0.26941 0.5137 0.28866 0.0
C164 C 0.27938 0.5011 0.23511 0.0
C165 C 0.26649 0.49487 0.17598 0.0
C166 C 0.24344 0.50058 0.17281 0.0
C167 C 0.23401 0.513 0.22802 0.0
C168 C 0.22853 0.49464 0.11268 0.0
C169 C 0.23401 0.50071 0.04328 0.0
C170 C 0.2069 0.48621 0.12634 0.0
C171 C 0.19068 0.4854 0.07346 0.0
C172 C 0.19556 0.49294 1.0049 0.0
C173 C 0.3034 0.49532 0.24437 0.0
C174 C 0.31996 0.50891 0.21374 0.0
C175 C 0.30952 0.48083 0.29947 0.0
C176 C 0.33127 0.48119 0.32706 0.0
C177 C 0.34735 0.49627 0.30071 0.0
C178 C 0.3417 0.50934 0.24147 0.0
C179 C 0.21772 0.49989 0.99006 0.0
H180 H 0.24324 0.58324 0.42438 0.0
H181 H 0.26212 0.55916 0.33846 0.0
H182 H 0.20861 0.51106 0.35804 0.0
H183 H 0.18985 0.53488 0.44341 0.0
H184 H 0.27928 0.51875 0.33358 0.0
H185 H 0.2166 0.5181 0.22539 0.0
H186 H 0.27415 0.48537 0.13396 0.0
H187 H 0.25044 0.50737 0.03099 0.0
H188 H 0.20213 0.4813 0.17923 0.0
H189 H 0.17393 0.48007 0.0877 0.0
H190 H 0.3156 0.52057 0.1723 0.0
H191 H 0.29693 0.47057 0.32511 0.0
H192 H 0.22235 0.50539 0.93768 0.0
H193 H 0.35374 0.52093 0.2191 0.0
H194 H 0.33487 0.471 0.37281 0.0
C195 C 0.93315 0.22486 0.36948 0.0
C196 C 0.94066 0.20452 0.39774 0.0
C197 C 0.94597 0.23607 0.3187 0.0
C198 C 0.96626 0.22688 0.29462 0.0
C199 C 0.97386 0.20671 0.32357 0.0
C200 C 0.96124 0.1957 0.37482 0.0
C201 C 0.97939 0.23807 0.23865 0.0
C202 C 0.9846 0.2607 0.24399 0.0
C203 C 0.99731 0.27162 0.19188 0.0
C204 C 1.0047 0.25941 0.13254 0.0
C205 C 0.99922 0.23651 0.12647 0.0
C206 C 0.98683 0.22608 0.18013 0.0
C207 C 1.00508 0.22278 0.06422 0.0
C208 C 0.99098 0.2229 1.00545 0.0
C209 C 0.02116 0.20578 0.07033 0.0
C210 C 0.0226 0.18879 0.02003 0.0
C211 C 1.00767 0.1881 0.96287 0.0
C212 C 1.00276 0.29558 0.20361 0.0
C213 C 0.98547 0.31033 0.22278 0.0
C214 C 0.02506 0.30273 0.21025 0.0
C215 C 0.02992 0.32357 0.24033 0.0
C216 C 0.01255 0.33752 0.26464 0.0
C217 C 0.99028 0.33096 0.25305 0.0
C218 C 0.99223 0.20579 0.95545 0.0
H219 H 0.91729 0.23191 0.38607 0.0
H220 H 0.93977 0.2516 0.29686 0.0
H221 H 0.98953 0.1994 0.30621 0.0
H222 H 0.96725 0.17983 0.39476 0.0
H223 H 0.9792 0.26976 0.29028 0.0
H224 H 0.98247 0.20857 0.1754 0.0
H225 H 0.01434 0.26763 0.09154 0.0
H226 H 0.97797 0.23541 1.00065 0.0
H227 H 0.03191 0.20504 0.11601 0.0
H228 H 0.03505 0.17585 0.02721 0.0
H229 H 0.9681 0.30529 0.21815 0.0
H230 H 0.03872 0.29161 0.19685 0.0
H231 H 0.98018 0.20586 0.91315 0.0
H232 H 0.97651 0.34149 0.26967 0.0
H233 H 0.04726 0.32814 0.24842 0.0
C234 C 0.26229 0.00655 0.42436 0.0
C235 C 0.28138 0.01937 0.43859 0.0
C236 C 0.25336 1.00615 0.3568 0.0
C237 C 0.2633 0.01865 0.30215 0.0
C238 C 0.28157 0.03251 0.31736 0.0
C239 C 0.29052 0.03289 0.38494 0.0
C240 C 0.25496 0.01663 0.22926 0.0
C241 C 0.23198 0.01604 0.21708 0.0
C242 C 0.22343 0.01311 0.14949 0.0
C243 C 0.2384 0.01124 0.09174 0.0
C244 C 0.2619 0.01165 0.1033 0.0
C245 C 0.26979 0.01446 0.17235 0.0
C246 C 0.27893 0.00932 0.04562 0.0
C247 C 0.29729 0.99482 0.05461 0.0
C248 C 0.27899 0.0237 0.98703 0.0
C249 C 0.29765 0.02459 0.94146 0.0
C250 C 0.31668 0.01105 0.95312 0.0
C251 C 0.19863 0.01213 0.1449 0.0
C252 C 0.18772 0.99334 0.17372 0.0
C253 C 0.18671 0.03227 0.14039 0.0
C254 C 0.16546 0.03426 0.17162 0.0
C255 C 0.15575 0.0162 0.20862 0.0
C256 C 0.16651 0.99534 0.20524 0.0
C257 C 0.31584 0.99565 0.00916 0.0
H258 H 0.25495 0.99596 0.46467 0.0
H259 H 0.23929 0.99524 0.34668 0.0
H260 H 0.28931 0.04261 0.27657 0.0
H261 H 0.30546 0.04269 0.39389 0.0
H262 H 0.22045 0.01795 0.26095 0.0
H263 H 0.28767 0.01479 0.18197 0.0
H264 H 0.2319 0.00904 0.03919 0.0
H265 H 0.29776 0.98346 0.09907 0.0
H266 H 0.26521 0.03515 0.97871 0.0
H267 H 0.29741 0.0364 0.89819 0.0
H268 H 0.19672 0.97775 0.17951 0.0
H269 H 0.19483 0.04712 0.11989 0.0
H270 H 0.33005 0.98502 0.02055 0.0
H271 H 0.15968 0.98105 0.23306 0.0
H272 H 0.15745 0.05048 0.17165 0.0
C273 C 0.47883 0.28882 0.96965 0.0
C274 C 0.49321 0.30727 0.97978 0.0
C275 C 0.47946 0.27015 0.01493 0.0
C276 C 0.4945 0.26943 0.07144 0.0
C277 C 0.50995 0.28705 0.07825 0.0
C278 C 0.50929 0.30567 0.03341 0.0
C279 C 0.49179 0.25286 0.13018 0.0
C280 C 0.49083 0.22938 0.12019 0.0
C281 C 0.48821 0.21492 0.17901 0.0
C282 C 0.48672 0.22405 0.24648 0.0
C283 C 0.48812 0.24697 0.25706 0.0
C284 C 0.4903 0.26124 0.19898 0.0
C285 C 0.48965 0.25563 0.32945 0.0
C286 C 0.4752 0.24791 0.383 0.0
C287 C 0.50672 0.2707 0.34616 0.0
C288 C 0.5093 0.27802 0.4148 0.0
C289 C 0.49489 0.27042 0.46859 0.0
C290 C 0.48953 0.19013 0.1762 0.0
C291 C 0.47263 0.17759 0.21003 0.0
C292 C 0.51036 0.17995 0.16437 0.0
C293 C 0.51508 0.15892 0.19373 0.0
C294 C 0.49916 0.14775 0.2364 0.0
C295 C 0.47741 0.15674 0.24016 0.0
C296 C 0.4777 0.2554 0.45206 0.0
H297 H 0.46654 0.28908 0.92803 0.0
H298 H 0.46729 0.25693 0.00825 0.0
H299 H 0.52186 0.287 0.12101 0.0
H300 H 0.5206 0.31936 0.04373 0.0
H301 H 0.49249 0.2225 0.06792 0.0
H302 H 0.49094 0.2791 0.20764 0.0
H303 H 0.48588 0.21304 0.29189 0.0
H304 H 0.46189 0.23624 0.37129 0.0
H305 H 0.5183 0.27666 0.30623 0.0
H306 H 0.52231 0.29014 0.42532 0.0
H307 H 0.45647 0.18511 0.22061 0.0
H308 H 0.52378 0.18923 0.13914 0.0
H309 H 0.4662 0.24955 0.49234 0.0
H310 H 0.46459 0.14884 0.2721 0.0
H311 H 0.53181 0.15223 0.18732 0.0
Tb312 Tb 0.02939 0.99413 0.73201 0.0
Eu313 Eu 0.98802 1.0017 0.62487 0.0
C314 C 0.03791 0.00696 0.57397 0.0
C315 C 1.00727 0.04162 0.72235 0.0
C316 C 0.07822 0.96634 0.80594 0.0
C317 C 0.09655 0.937 0.73918 0.0
C318 C 0.08655 0.95804 0.74193 0.0
C319 C 0.08152 0.954 0.8677 0.0
C320 C 0.09126 0.93285 0.86487 0.0
C321 C 0.09807 0.92371 0.80009 0.0
C322 C 0.06307 0.98572 0.80723 0.0
O323 O 0.99949 0.98093 0.78537 0.0
O324 O 0.97407 1.00412 0.73456 0.0
O325 O 0.99278 0.96436 0.63042 0.0
O326 O 0.02926 0.96408 0.6673 0.0
C327 C 0.97985 0.99083 0.78612 0.0
O328 O 0.95367 0.99391 0.59542 0.0
O329 O 0.97282 0.01787 0.53393 0.0
O330 O 0.01885 0.99773 0.55655 0.0
O331 O 0.04172 0.01235 0.63964 0.0
O332 O 0.0164 0.02659 0.76402 0.0
O333 O 0.99905 0.03609 0.66065 0.0
C334 C 0.01185 0.95388 0.64 0.0
O335 O 0.06362 0.99886 0.75263 0.0
O336 O 0.04258 0.98126 0.82614 0.0
C337 C 0.93541 0.02647 0.55729 0.0
C338 C 0.91007 0.06571 0.57023 0.0
C339 C 0.91973 0.05581 0.62986 0.0
C340 C 0.93238 0.03637 0.62339 0.0
C341 C 0.92414 0.03513 0.49889 0.0
C342 C 0.91144 0.05461 0.50534 0.0
C343 C 0.953 0.00967 0.54783 0.0
H344 H 0.10192 0.93063 0.68867 0.0
H345 H 0.08419 0.96718 0.69325 0.0
H346 H 0.07511 0.96003 0.91748 0.0
H347 H 0.09179 0.92308 0.91285 0.0
H348 H 0.91892 0.06403 0.68039 0.0
H349 H 0.94105 0.02997 0.66914 0.0
H350 H 0.92645 0.02777 0.44748 0.0
H351 H 0.90444 0.06204 0.45829 0.0
Tb352 Tb 0.52125 0.01559 0.75796 0.0
Eu353 Eu 0.5034 0.98055 0.64289 0.0
C354 C 0.51203 0.03087 0.60384 0.0
C355 C 0.46905 1.00619 0.74456 0.0
C356 C 0.55555 0.05989 0.83092 0.0
C357 C 0.58181 0.08623 0.88028 0.0
C358 C 0.56218 0.07364 0.88621 0.0
C359 C 0.56809 0.05961 0.76835 0.0
C360 C 0.58768 0.07217 0.76236 0.0
C361 C 0.59506 0.08515 0.81896 0.0
C362 C 0.53617 0.04511 0.83895 0.0
O363 O 0.5114 0.98604 0.81879 0.0
O364 O 0.51849 0.96087 0.73188 0.0
O365 O 0.53979 0.98513 0.6136 0.0
O366 O 0.55185 0.99926 0.71916 0.0
C367 C 0.51496 0.96541 0.7984 0.0
O368 O 0.48986 0.94757 0.62002 0.0
O369 O 0.49462 0.97131 0.53555 0.0
O370 O 0.49661 0.01533 0.60065 0.0
O371 O 0.52689 0.03021 0.65429 0.0
O372 O 0.48489 0.02104 0.75537 0.0
O373 O 0.47344 0.98741 0.71246 0.0
C374 C 0.55598 0.99098 0.65629 0.0
O375 O 0.52013 0.04857 0.79406 0.0
O376 O 0.54088 0.02394 0.84523 0.0
C377 C 0.45895 0.95457 0.54762 0.0
C378 C 0.41486 0.96825 0.57575 0.0
C379 C 0.42305 0.94853 0.60603 0.0
C380 C 0.44499 0.94168 0.59191 0.0
C381 C 0.44954 0.97259 0.51042 0.0
C382 C 0.42777 0.97951 0.52505 0.0
C383 C 0.48349 0.9538 0.55744 0.0
H384 H 0.58727 0.09578 0.92522 0.0
H385 H 0.55262 0.07404 0.93474 0.0
H386 H 0.56311 0.04911 0.72497 0.0
H387 H 0.59751 0.07106 0.7145 0.0
H388 H 0.41308 0.93934 0.64412 0.0
H389 H 0.45166 0.92757 0.62086 0.0
H390 H 0.4596 0.9827 0.47501 0.0
H391 H 0.42138 0.99434 0.49919 0.0
Tb392 Tb 0.49432 0.51133 0.77571 0.0
Eu393 Eu 0.52596 0.49044 0.65578 0.0
C394 C 0.47579 0.50093 0.6268 0.0
C395 C 0.5008 0.45884 0.76841 0.0
C396 C 0.4578 0.55353 0.83747 0.0
C397 C 0.4539 0.5819 0.74644 0.0
C398 C 0.45421 0.55952 0.76673 0.0
C399 C 0.45815 0.57023 0.88862 0.0
C400 C 0.45745 0.59268 0.86842 0.0
C401 C 0.45672 0.5986 0.79677 0.0
C402 C 0.46721 0.53142 0.85378 0.0
O403 O 0.52428 0.50054 0.83268 0.0
O404 O 0.54816 0.50476 0.73942 0.0
O405 O 0.52245 0.52668 0.62359 0.0
O406 O 0.51316 0.53985 0.73305 0.0
C407 C 0.54474 0.50229 0.80721 0.0
O408 O 0.55843 0.47663 0.62592 0.0
O409 O 0.53212 0.47874 0.54885 0.0
O410 O 0.49005 0.4844 0.62326 0.0
O411 O 0.47901 0.51666 0.6731 0.0
O412 O 0.48696 0.47545 0.78151 0.0
O413 O 0.51901 0.46186 0.73077 0.0
C414 C 0.51947 0.5433 0.66747 0.0
O415 O 0.46124 0.51525 0.81223 0.0
O416 O 0.48881 0.53155 0.86393 0.0
C417 C 0.54997 0.44389 0.56423 0.0
C418 C 0.53723 0.40035 0.60223 0.0
C419 C 0.5568 0.40961 0.63005 0.0
C420 C 0.56319 0.43125 0.611 0.0
C421 C 0.53208 0.43337 0.52994 0.0
C422 C 0.52563 0.41188 0.54937 0.0
C423 C 0.5505 0.46853 0.56765 0.0
H424 H 0.45329 0.58609 0.69099 0.0
H425 H 0.45374 0.54701 0.72605 0.0
H426 H 0.46114 0.56602 0.94322 0.0
H427 H 0.45985 0.6053 0.90824 0.0
H428 H 0.56627 0.40074 0.66979 0.0
H429 H 0.57725 0.43876 0.63778 0.0
H430 H 0.52175 0.44243 0.4928 0.0
H431 H 0.51094 0.40463 0.52528 0.0
Tb432 Tb 1.00525 0.47529 0.75511 0.0
Eu433 Eu 0.01421 0.51573 0.64034 0.0
C434 C 0.01763 0.46351 0.59723 0.0
C435 C 0.05314 0.4971 0.7403 0.0
C436 C 0.98203 0.45282 0.91167 0.0
C437 C 0.94377 0.46083 0.94715 0.0
C438 C 0.95899 0.44822 0.9081 0.0
C439 C 0.98967 0.4677 0.96336 0.0
C440 C 0.97445 0.48035 1.00222 0.0
C441 C 0.95136 0.47813 0.99065 0.0
C442 C 0.99655 0.44763 0.85059 0.0
O443 O 1.00157 0.50511 0.81942 0.0
O444 O 1.00429 0.53387 0.73881 0.0
O445 O 0.97939 0.50308 0.61885 0.0
O446 O 0.9722 0.48863 0.72836 0.0
C447 C 1.00099 0.52642 0.80297 0.0
O448 O 1.00506 0.54782 0.5935 0.0
O449 O 0.03382 0.52968 0.55396 0.0
O450 O 0.025 0.48393 0.58657 0.0
O451 O 1.00694 0.45773 0.65515 0.0
O452 O 0.04178 0.47835 0.74596 0.0
O453 O 0.04413 0.51491 0.71175 0.0
C454 C 0.96526 0.49552 0.66638 0.0
O455 O 0.98649 0.44759 0.78983 0.0
O456 O 0.01536 0.45865 0.84711 0.0
C457 C 0.03781 0.56803 0.56611 0.0
C458 C 0.0754 0.59543 0.58518 0.0
C459 C 0.06621 0.59262 0.5178 0.0
C460 C 0.04758 0.57887 0.50833 0.0
C461 C 0.04542 0.57274 0.63415 0.0
C462 C 0.06408 0.5864 0.64365 0.0
C463 C 0.02322 0.54871 0.5551 0.0
H464 H 0.92602 0.45815 0.93928 0.0
H465 H 0.95258 0.43656 0.86982 0.0
H466 H 1.00734 0.47139 0.96863 0.0
H467 H 0.98088 0.49333 0.03596 0.0
H468 H 0.07473 0.59912 0.47165 0.0
H469 H 0.042 0.57526 0.45549 0.0
H470 H 0.03814 0.56438 0.67946 0.0
H471 H 0.0708 0.58832 0.69606 0.0
H472 H 0.11921 0.98877 0.24049 0.0
H473 H 0.15027 0.05174 0.29611 0.0
H474 H 0.12234 0.05689 0.38984 0.0
H475 H 0.06087 1.00644 0.27697 0.0
H476 H 0.05289 0.97965 0.31271 0.0
H477 H 0.07438 0.98142 0.24599 0.0
H478 H 0.10178 0.96025 0.32767 0.0
H479 H 0.08043 0.95852 0.39469 0.0
H480 H 0.10717 0.97091 0.41437 0.0
H481 H 0.09398 0.05365 0.48574 0.0
H482 H 0.06462 0.0436 0.57201 0.0
H483 H 0.04982 0.98371 0.45405 0.0
C484 C 0.11993 1.00379 0.27172 0.0
C485 C 0.13691 0.01999 0.25971 0.0
C486 C 0.13723 0.03932 0.30245 0.0
C487 C 0.1215 0.04234 0.35653 0.0
C488 C 0.10526 0.026 0.3675 0.0
C489 C 0.1041 0.00722 0.32587 0.0
C490 C 0.08514 0.99203 0.35045 0.0
C491 C 0.06726 0.98975 0.29311 0.0
C492 C 0.09418 0.96907 0.37314 0.0
C493 C 0.07619 1.00501 0.41312 0.0
C494 C 0.08819 0.02451 0.42199 0.0
C495 C 0.08421 0.03863 0.47864 0.0
C496 C 0.06754 0.03274 0.52756 0.0
C497 C 0.05473 0.01306 0.51931 0.0
C498 C 0.05902 0.99911 0.46084 0.0
H499 H 0.47433 0.11092 0.28352 0.0
H500 H 0.53935 0.14284 0.30383 0.0
H501 H 0.5498 0.11541 0.39389 0.0
H502 H 0.46624 0.10058 0.46534 0.0
H503 H 0.45289 0.07382 0.45503 0.0
H504 H 0.45088 0.09452 0.38637 0.0
H505 H 0.4673 0.06651 0.29674 0.0
H506 H 0.46923 0.04566 0.3651 0.0
H507 H 0.49376 0.0532 0.31471 0.0
H508 H 0.55247 0.08703 0.48908 0.0
H509 H 0.54789 0.05793 0.57954 0.0
H510 H 0.48122 0.04349 0.50147 0.0
C511 C 0.49087 0.11204 0.30621 0.0
C512 C 0.50606 0.12911 0.28497 0.0
C513 C 0.52752 0.12975 0.31678 0.0
C514 C 0.5336 0.1143 0.36892 0.0
C515 C 0.51814 0.09811 0.38936 0.0
C516 C 0.49727 0.09667 0.35875 0.0
C517 C 0.48359 0.07803 0.3928 0.0
C518 C 0.46213 0.0873 0.42691 0.0
C519 C 0.47815 0.05977 0.33913 0.0
C520 C 0.4999 0.06957 0.44808 0.0
C521 C 0.51972 0.08145 0.44481 0.0
C522 C 0.53711 0.07747 0.49172 0.0
C523 C 0.53427 0.0609 0.54329 0.0
C524 C 0.51421 0.04828 0.5479 0.0
C525 C 0.49683 0.05268 0.49915 0.0
H526 H 0.37623 0.46587 0.36493 0.0
H527 H 0.36579 0.53678 0.33023 0.0
H528 H 0.39816 0.54514 0.40504 0.0
H529 H 0.39157 0.46947 0.5446 0.0
H530 H 0.4129 0.4482 0.541 0.0
H531 H 0.38968 0.44736 0.48102 0.0
H532 H 0.41721 0.44683 0.37549 0.0
H533 H 0.44054 0.44757 0.43521 0.0
H534 H 0.43807 0.46846 0.36715 0.0
H535 H 0.42918 0.54634 0.49187 0.0
H536 H 0.45917 0.54019 0.57826 0.0
H537 H 0.45179 0.46856 0.55508 0.0
C538 C 0.38093 0.48314 0.37243 0.0
C539 C 0.36846 0.50065 0.34068 0.0
C540 C 0.37522 0.52302 0.3523 0.0
C541 C 0.39354 0.52797 0.39535 0.0
C542 C 0.40525 0.51042 0.42633 0.0
C543 C 0.39946 0.48843 0.41485 0.0
C544 C 0.41485 0.47282 0.45566 0.0
C545 C 0.40144 0.45863 0.50872 0.0
C546 C 0.42848 0.45805 0.40537 0.0
C547 C 0.42984 0.48952 0.49283 0.0
C548 C 0.42384 0.51111 0.47519 0.0
C549 C 0.43423 0.52952 0.50533 0.0
C550 C 0.45121 0.52583 0.55468 0.0
C551 C 0.45798 0.50391 0.57315 0.0
C552 C 0.44722 0.4855 0.54122 0.0
H553 H 0.99236 0.35097 0.3871 0.0
H554 H 0.04377 0.37036 0.23695 0.0
H555 H 0.05116 0.4045 0.30612 0.0
H556 H 0.97063 0.4057 0.42035 0.0
H557 H 0.96584 0.40053 0.51262 0.0
H558 H 0.96481 0.37779 0.45127 0.0
H559 H 0.99484 0.35658 0.52334 0.0
H560 H 0.99598 0.37928 0.58487 0.0
H561 H 0.0212 0.36997 0.5416 0.0
H562 H 0.05173 0.43749 0.39064 0.0
H563 H 0.04677 0.46528 0.48503 0.0
H564 H 0.9958 0.42337 0.5816 0.0
C565 C 1.00508 0.36247 0.36838 0.0
C566 C 0.01736 0.35807 0.30609 0.0
C567 C 0.03418 0.37333 0.28445 0.0
C568 C 0.03843 0.3928 0.32334 0.0
C569 C 0.0259 0.39667 0.38427 0.0
C570 C 0.00968 0.3818 0.40687 0.0
C571 C 0.99871 0.38958 0.47453 0.0
C572 C 0.97351 0.39364 0.46403 0.0
C573 C 1.00295 0.37286 0.53463 0.0
C574 C 0.01114 0.41128 0.48637 0.0
C575 C 0.02669 0.41516 0.43361 0.0
C576 C 0.0397 0.4345 0.43238 0.0
C577 C 0.03673 0.45023 0.48626 0.0
C578 C 0.021 0.44652 0.54122 0.0
C579 C 1.00816 0.42666 0.541 0.0
H580 H 0.87287 0.01753 0.02601 0.0
H581 H 0.88508 0.95581 0.13928 0.0
H582 H 0.91859 0.94892 0.06464 0.0
H583 H 0.88812 0.99676 0.85568 0.0
H584 H 0.90059 0.02267 0.82696 0.0
H585 H 0.87821 0.02286 0.89079 0.0
H586 H 0.90331 0.04494 0.97671 0.0
H587 H 0.92576 0.04479 0.91312 0.0
H588 H 0.93036 0.03392 1.00038 0.0
H589 H 0.95179 0.94968 0.97803 0.0
H590 H 0.97945 0.9564 0.88263 0.0
H591 H 0.94383 0.01667 0.82324 0.0
C592 C 0.88272 1.00265 0.03557 0.0
C593 C 0.87654 0.98733 0.08913 0.0
C594 C 0.88955 0.96779 0.09875 0.0
C595 C 0.90864 0.9638 0.05673 0.0
C596 C 0.91432 0.97935 1.00458 0.0
C597 C 0.90154 0.99827 0.99351 0.0
C598 C 0.91061 0.01202 0.93256 0.0
C599 C 0.89336 0.01366 0.87298 0.0
C600 C 0.91795 0.03529 0.95719 0.0
C601 C 0.93059 0.99798 0.91106 0.0
C602 C 0.93264 0.97931 0.95353 0.0
C603 C 0.9502 0.96419 0.94431 0.0
C604 C 0.96589 0.96817 0.89008 0.0
C605 C 0.96378 0.98697 0.84506 0.0
C606 C 0.94585 1.00202 0.8562 0.0
H607 H 0.53317 0.89061 0.14712 0.0
H608 H 0.48988 0.84164 0.04957 0.0
H609 H 0.48398 0.86707 0.94949 0.0
H610 H 0.50044 0.93997 0.08839 0.0
H611 H 0.52503 0.95689 0.0741 0.0
H612 H 0.52515 0.93534 0.14059 0.0
H613 H 0.56031 0.91782 0.08292 0.0
H614 H 0.5602 0.93919 0.016 0.0
H615 H 0.55957 0.91019 0.99144 0.0
H616 H 0.48583 0.89548 0.85427 0.0
H617 H 0.49178 0.92757 0.77455 0.0
H618 H 0.53137 0.96043 0.93398 0.0
C619 C 0.52217 0.88545 0.10518 0.0
C620 C 0.51176 0.86415 0.1069 0.0
C621 C 0.49765 0.85798 0.05054 0.0
C622 C 0.49432 0.87226 0.99298 0.0
C623 C 0.50497 0.89292 0.99243 0.0
C624 C 0.51828 0.89978 0.04745 0.0
C625 C 0.52773 0.92297 0.03278 0.0
C626 C 0.51907 0.93979 0.08721 0.0
C627 C 0.55348 0.9225 0.03066 0.0
C628 C 0.51807 0.92775 0.96034 0.0
C629 C 0.50515 0.91001 0.93812 0.0
C630 C 0.49559 0.90963 0.87151 0.0
C631 C 0.49917 0.92787 0.82643 0.0
C632 C 0.51187 0.94651 0.84823 0.0
C633 C 0.52131 0.94652 0.91641 0.0
H634 H 0.62516 0.52108 0.14061 0.0
H635 H 0.67489 0.48206 0.02826 0.0
H636 H 0.64776 0.47536 0.93361 0.0
H637 H 0.57661 0.48626 0.09027 0.0
H638 H 0.55804 0.50984 0.08211 0.0
H639 H 0.58091 0.51065 0.14354 0.0
H640 H 0.59534 0.54709 0.08528 0.0
H641 H 0.57261 0.54632 0.02347 0.0
H642 H 0.60114 0.54756 0.9922 0.0
H643 H 0.61704 0.47595 0.84569 0.0
H644 H 0.58312 0.4808 0.77395 0.0
H645 H 0.55147 0.51747 0.94345 0.0
C646 C 0.63022 0.51089 0.09647 0.0
C647 C 0.65221 0.50194 0.09239 0.0
C648 C 0.65811 0.48876 0.03353 0.0
C649 C 0.64284 0.48498 0.97911 0.0
C650 C 0.62149 0.49425 0.98428 0.0
C651 C 0.61498 0.50665 0.04184 0.0
C652 C 0.59098 0.51483 0.03342 0.0
C653 C 0.57573 0.50479 0.09075 0.0
C654 C 0.58997 0.54047 0.03359 0.0
C655 C 0.58527 0.50555 0.96141 0.0
C656 C 0.60325 0.49383 0.93414 0.0
C657 C 0.60275 0.4848 0.8669 0.0
C658 C 0.58343 0.48775 0.82638 0.0
C659 C 0.5646 0.49938 0.85316 0.0
C660 C 0.56548 0.50822 0.92201 0.0
H661 H 0.02045 0.64027 0.0097 0.0
H662 H 0.97309 0.61731 0.16757 0.0
H663 H 0.96718 0.58253 0.09959 0.0
H664 H 0.99015 0.61915 0.86003 0.0
H665 H 0.01524 0.61195 0.81217 0.0
H666 H 0.01562 0.63466 0.87374 0.0
H667 H 0.04859 0.61596 0.93979 0.0
H668 H 0.04828 0.59322 0.87838 0.0
H669 H 0.04564 0.58767 0.97126 0.0
H670 H 0.96833 0.54906 0.01546 0.0
H671 H 0.97424 0.52175 0.91971 0.0
H672 H 0.01912 0.56813 0.81466 0.0
C673 C 0.00889 0.62787 0.03014 0.0
C674 C 0.99741 0.63133 0.09437 0.0
C675 C 0.98208 0.61494 0.11861 0.0
C676 C 0.97869 0.59514 0.0804 0.0
C677 C 0.99047 0.59219 0.01746 0.0
C678 C 1.00506 0.60829 0.99221 0.0
C679 C 0.01537 0.60146 0.92262 0.0
C680 C 0.00869 0.61777 0.86366 0.0
C681 C 0.04099 0.59946 0.9284 0.0
C682 C 1.00456 0.57884 0.91276 0.0
C683 C 0.99037 0.57363 0.9682 0.0
C684 C 0.97927 0.55313 0.97171 0.0
C685 C 0.98281 0.53766 0.91733 0.0
C686 C 0.99705 0.54286 0.85974 0.0
C687 C 1.00789 0.56381 0.85752 0.0
H688 H 0.95332 0.18393 0.51877 0.0
H689 H 0.89656 0.19394 0.38162 0.0
H690 H 0.87649 0.16329 0.44152 0.0
H691 H 0.9559 0.13093 0.50353 0.0
H692 H 0.96364 0.12313 0.59171 0.0
H693 H 0.97001 0.15053 0.55974 0.0
H694 H 0.94833 0.16832 0.6631 0.0
H695 H 0.94222 0.14082 0.697 0.0
H696 H 0.91974 0.16022 0.68051 0.0
H697 H 0.86848 0.12544 0.48502 0.0
H698 H 0.87276 0.08531 0.51228 0.0
H699 H 0.9339 0.09953 0.6248 0.0
C700 C 0.93622 0.1803 0.50399 0.0
C701 C 0.92642 0.1912 0.44597 0.0
C702 C 0.9042 0.18596 0.42675 0.0
C703 C 0.89268 0.16856 0.4606 0.0
C704 C 0.90346 0.15689 0.51434 0.0
C705 C 0.92461 0.16292 0.53721 0.0
C706 C 0.93439 0.14538 0.58566 0.0
C707 C 0.9573 0.13701 0.55844 0.0
C708 C 0.93626 0.15422 0.66105 0.0
C709 C 0.91651 0.12758 0.58075 0.0
C710 C 0.89845 0.13474 0.54122 0.0
C711 C 0.88201 0.11989 0.51847 0.0
C712 C 0.88458 0.09711 0.53386 0.0
C713 C 0.90343 0.08948 0.57165 0.0
C714 C 0.91887 0.10507 0.59824 0.0
H715 H 0.29138 0.97948 0.4966 0.0
H716 H 0.30207 0.05036 0.52208 0.0
H717 H 0.33384 0.04256 0.60043 0.0
H718 H 0.31857 0.96112 0.68068 0.0
H719 H 0.32994 0.93695 0.6373 0.0
H720 H 0.30257 0.94726 0.61371 0.0
H721 H 0.31542 0.9495 0.48381 0.0
H722 H 0.34271 0.93986 0.50673 0.0
H723 H 0.33963 0.96612 0.46096 0.0
H724 H 0.37037 0.02866 0.63485 0.0
H725 H 0.40709 0.01019 0.62353 0.0
H726 H 0.37434 0.94786 0.5745 0.0
C727 C 0.29947 0.99329 0.52267 0.0
C728 C 0.29435 0.01547 0.50357 0.0
C729 C 0.30578 0.03323 0.53623 0.0
C730 C 0.32376 0.0289 0.58127 0.0
C731 C 0.32992 0.00674 0.59353 0.0
C732 C 0.31769 0.98911 0.56658 0.0
C733 C 0.33041 0.96731 0.57292 0.0
C734 C 0.31974 0.95227 0.62954 0.0
C735 C 0.33216 0.95505 0.50189 0.0
C736 C 0.35286 0.97592 0.59708 0.0
C737 C 0.35186 0.99847 0.61274 0.0
C738 C 0.37119 0.01092 0.62491 0.0
C739 C 0.39197 1.0004 0.61755 0.0
C740 C 0.39322 0.97772 0.59776 0.0
C741 C 0.37353 0.96511 0.5909 0.0
H742 H 0.53268 0.27712 0.54342 0.0
H743 H 0.46114 0.28776 0.54862 0.0
H744 H 0.46606 0.31802 0.6332 0.0
H745 H 0.54548 0.30679 0.73208 0.0
H746 H 0.57056 0.31819 0.69287 0.0
H747 H 0.56176 0.29021 0.6718 0.0
H748 H 0.563 0.30065 0.53982 0.0
H749 H 0.57119 0.32845 0.56018 0.0
H750 H 0.54639 0.32382 0.50847 0.0
H751 H 0.47788 0.35476 0.66626 0.0
H752 H 0.49485 0.39176 0.64784 0.0
H753 H 0.55954 0.3611 0.61391 0.0
C754 C 0.5181 0.2851 0.56612 0.0
C755 C 0.49667 0.28052 0.53909 0.0
C756 C 0.47774 0.29097 0.56898 0.0
C757 C 0.48045 0.30827 0.61726 0.0
C758 C 0.50216 0.31483 0.63497 0.0
C759 C 0.5208 0.30302 0.61202 0.0
C760 C 0.54208 0.31651 0.62119 0.0
C761 C 0.55577 0.30738 0.68319 0.0
C762 C 0.55643 0.31743 0.55335 0.0
C763 C 0.53211 0.33894 0.63925 0.0
C764 C 0.50929 0.33725 0.65233 0.0
C765 C 0.49578 0.35615 0.65828 0.0
C766 C 0.50546 0.3771 0.64669 0.0
C767 C 0.52839 0.37895 0.6287 0.0
C768 C 0.54205 0.35984 0.62862 0.0
H769 H 0.19363 0.55118 0.56361 0.0
H770 H 0.20584 0.60459 0.41434 0.0
H771 H 0.17502 0.62628 0.46668 0.0
H772 H 0.1409 0.5487 0.54487 0.0
H773 H 0.13214 0.54313 0.63402 0.0
H774 H 0.15989 0.53598 0.60673 0.0
H775 H 0.17656 0.55982 0.70617 0.0
H776 H 0.14872 0.56726 0.73495 0.0
H777 H 0.16882 0.58878 0.71424 0.0
H778 H 0.13675 0.63553 0.50352 0.0
H779 H 0.09608 0.63182 0.52451 0.0
H780 H 0.10808 0.57336 0.65347 0.0
C781 C 0.19045 0.56795 0.54462 0.0
C782 C 0.20202 0.57627 0.48527 0.0
C783 C 0.19737 0.59807 0.46056 0.0
C784 C 0.17986 0.61051 0.4901 0.0
C785 C 0.16747 0.60109 0.54514 0.0
C786 C 0.17295 0.58046 0.57352 0.0
C787 C 0.15469 0.572 0.62234 0.0
C788 C 0.14642 0.54862 0.60058 0.0
C789 C 0.16268 0.57197 0.69897 0.0
C790 C 0.13705 0.58976 0.61059 0.0
C791 C 0.14499 0.60686 0.56802 0.0
C792 C 0.13057 0.62279 0.53917 0.0
C793 C 0.10747 0.62055 0.55109 0.0
C794 C 0.09906 0.60251 0.59145 0.0
C795 C 0.11416 0.58778 0.62465 0.0
H796 H 0.10178 0.81178 0.99688 0.0
H797 H 0.0619 0.78613 0.82606 0.0
H798 H 0.07526 0.81675 0.74943 0.0
H799 H 0.08731 0.86327 0.97952 0.0
H800 H 0.11353 0.87662 0.99983 0.0
H801 H 0.10792 0.84912 0.03255 0.0
H802 H 0.14417 0.8344 0.97354 0.0
H803 H 0.1501 0.86212 0.94097 0.0
H804 H 0.14879 0.83901 0.8809 0.0
H805 H 0.08352 0.85422 0.70466 0.0
H806 H 0.08504 0.895 0.69673 0.0
H807 H 0.12074 0.89734 0.89447 0.0
C808 C 0.09696 0.81193 0.9421 0.0
C809 C 0.08109 0.79655 0.91689 0.0
C810 C 0.07423 0.79773 0.84597 0.0
C811 C 0.08187 0.81497 0.80201 0.0
C812 C 0.09649 0.83078 0.8297 0.0
C813 C 0.10426 0.82923 0.89801 0.0
C814 C 0.1161 0.85044 0.91972 0.0
C815 C 0.10556 0.86043 0.98676 0.0
C816 C 0.14129 0.84623 0.92932 0.0
C817 C 0.11182 0.86491 0.85577 0.0
C818 C 0.10128 0.853 0.80333 0.0
C819 C 0.09249 0.86354 0.74413 0.0
C820 C 0.09349 0.88685 0.73999 0.0
C821 C 0.10302 0.89946 0.79511 0.0
C822 C 0.11339 0.88816 0.85155 0.0
H823 H 0.71834 0.06182 0.88946 0.0
H824 H 0.71966 0.12449 1.00189 0.0
H825 H 0.6864 0.13703 0.93658 0.0
H826 H 0.69137 0.08593 0.71652 0.0
H827 H 0.67579 0.06035 0.70766 0.0
H828 H 0.70379 0.05979 0.74283 0.0
H829 H 0.68888 0.03906 0.8532 0.0
H830 H 0.66103 0.03984 0.81941 0.0
H831 H 0.66675 0.05154 0.90456 0.0
H832 H 0.64773 0.13736 0.89161 0.0
H833 H 0.60882 0.12634 0.8651 0.0
H834 H 0.63299 0.0642 0.77785 0.0
C835 C 0.71256 0.07874 0.8972 0.0
C836 C 0.72153 0.09209 0.95111 0.0
C837 C 0.71291 0.11385 0.96134 0.0
C838 C 0.69412 0.12121 0.92392 0.0
C839 C 0.68448 0.10684 0.87522 0.0
C840 C 0.69385 0.08625 0.8602 0.0
C841 C 0.67833 0.07225 0.81581 0.0
C842 C 0.68789 0.06943 0.74127 0.0
C843 C 0.67346 0.04937 0.85041 0.0
C844 C 0.65783 0.08707 0.81514 0.0
C845 C 0.66191 0.10729 0.84743 0.0
C846 C 0.64453 0.122 0.8638 0.0
C847 C 0.62246 0.11554 0.84913 0.0
C848 C 0.618 0.09453 0.81874 0.0
C849 C 0.63601 0.08067 0.79883 0.0
H850 H 0.48425 0.71592 0.92379 0.0
H851 H 0.54869 0.70533 0.82453 0.0
H852 H 0.53173 0.67709 0.74667 0.0
H853 H 0.4733 0.66381 0.94829 0.0
H854 H 0.44343 0.66447 0.93489 0.0
H855 H 0.45769 0.68924 0.96145 0.0
H856 H 0.44211 0.71045 0.85315 0.0
H857 H 0.42761 0.68554 0.82621 0.0
H858 H 0.44656 0.69942 0.76626 0.0
H859 H 0.51096 0.64471 0.70286 0.0
H860 H 0.49071 0.60895 0.70762 0.0
H861 H 0.44031 0.63844 0.84233 0.0
C862 C 0.49444 0.70853 0.88281 0.0
C863 C 0.51756 0.71308 0.87856 0.0
C864 C 0.53082 0.70229 0.82733 0.0
C865 C 0.52125 0.68638 0.78271 0.0
C866 C 0.4985 0.68139 0.79067 0.0
C867 C 0.48525 0.69223 0.83968 0.0
C868 C 0.46303 0.68049 0.85042 0.0
C869 C 0.45919 0.67411 0.9283 0.0
C870 C 0.44368 0.69483 0.8223 0.0
C871 C 0.46665 0.66019 0.80503 0.0
C872 C 0.48665 0.66162 0.76794 0.0
C873 C 0.49498 0.64366 0.72971 0.0
C874 C 0.48334 0.6234 0.73266 0.0
C875 C 0.46391 0.62117 0.77503 0.0
C876 C 0.45491 0.64003 0.80865 0.0
H877 H 0.84181 0.55203 0.97285 0.0
H878 H 0.85503 0.57012 0.18939 0.0
H879 H 0.89274 0.55437 0.17968 0.0
H880 H 0.86255 0.5009 0.98406 0.0
H881 H 0.87531 0.49919 0.89819 0.0
H882 H 0.85212 0.51772 0.91247 0.0
H883 H 0.87557 0.55136 0.86783 0.0
H884 H 0.89874 0.53277 0.85136 0.0
H885 H 0.90254 0.55688 0.90621 0.0
H886 H 0.92491 0.52905 0.15748 0.0
H887 H 0.95077 0.49928 0.11882 0.0
H888 H 0.9167 0.49678 0.91799 0.0
C889 C 0.85293 0.55345 0.01735 0.0
C890 C 0.8453 0.56243 0.0817 0.0
C891 C 0.86043 0.56385 0.13883 0.0
C892 C 0.88196 0.55473 0.13412 0.0
C893 C 0.88828 0.54443 0.07178 0.0
C894 C 0.87442 0.54419 0.01371 0.0
C895 C 0.88393 0.52948 0.95639 0.0
C896 C 0.8675 0.51072 0.93671 0.0
C897 C 0.8906 0.54346 0.89162 0.0
C898 C 0.90437 0.52033 0.9933 0.0
C899 C 0.90688 0.52949 0.05918 0.0
C900 C 0.92348 0.52217 0.10524 0.0
C901 C 0.93799 0.50517 0.08304 0.0
C902 C 0.93564 0.49554 0.0157 0.0
C903 C 0.91873 0.50351 0.97027 0.0
H904 H 0.01617 0.14351 0.99282 0.0
H905 H 0.9982 0.18785 0.82069 0.0
H906 H 0.9955 0.15546 0.74179 0.0
H907 H 0.05117 0.10659 0.88883 0.0
H908 H 0.04267 0.08193 0.93665 0.0
H909 H 0.04287 0.10861 0.9798 0.0
H910 H 1.00113 0.10339 0.01394 0.0
H911 H 1.00077 0.07676 0.97055 0.0
H912 H 0.98084 0.09801 0.94624 0.0
H913 H 0.99406 0.1178 0.68145 0.0
H914 H 0.99548 0.07842 0.64389 0.0
H915 H 0.01632 0.05883 0.85363 0.0
C916 C 0.01205 0.14661 0.93833 0.0
C917 C 1.00734 0.16852 0.91364 0.0
C918 C 1.00153 0.17139 0.84185 0.0
C919 C 1.00009 0.15304 0.79625 0.0
C920 C 1.0047 0.13177 0.82261 0.0
C921 C 0.01073 0.1285 0.89188 0.0
C922 C 0.01495 0.10394 0.90702 0.0
C923 C 0.03937 0.10004 0.92938 0.0
C924 C 0.99843 0.09501 0.96273 0.0
C925 C 0.01037 0.09389 0.83545 0.0
C926 C 1.00433 0.11021 0.78758 0.0
C927 C 0.99887 0.10491 0.71846 0.0
C928 C 0.99971 0.08243 0.69762 0.0
C929 C 1.00616 0.06539 0.74546 0.0
C930 C 0.01151 0.07137 0.81539 0.0
H931 H 0.34748 0.97907 0.90852 0.0
H932 H 0.33485 0.05043 0.90504 0.0
H933 H 0.37115 0.05653 0.84592 0.0
H934 H 0.40595 0.98283 0.94687 0.0
H935 H 0.4138 0.95954 0.89249 0.0
H936 H 0.38624 0.96065 0.93116 0.0
H937 H 0.36947 0.95584 0.80891 0.0
H938 H 0.39646 0.95642 0.7659 0.0
H939 H 0.37502 0.97615 0.74138 0.0
H940 H 0.41067 0.05549 0.79864 0.0
H941 H 0.44908 0.04699 0.75769 0.0
H942 H 0.43607 0.97628 0.7855 0.0
C943 C 0.35224 0.996 0.89505 0.0
C944 C 0.33796 0.01425 0.91146 0.0
C945 C 0.34503 0.03607 0.89215 0.0
C946 C 0.36581 0.03975 0.85893 0.0
C947 C 0.37953 0.02148 0.84465 0.0
C948 C 0.37298 1.0 0.86155 0.0
C949 C 0.39115 0.98334 0.84161 0.0
C950 C 0.39979 0.97086 0.90693 0.0
C951 C 0.38255 0.96695 0.78611 0.0
C952 C 0.40902 0.99885 0.81148 0.0
C953 C 0.40201 0.02081 0.81448 0.0
C954 C 0.41618 0.03833 0.79503 0.0
C955 C 0.43805 0.03335 0.77218 0.0
C956 C 0.44562 0.011 0.76782 0.0
C957 C 0.43071 0.99353 0.78712 0.0
H958 H 0.52574 0.33783 0.9358 0.0
H959 H 0.45391 0.32624 0.9334 0.0
H960 H 0.44841 0.36266 0.87558 0.0
H961 H 0.52189 0.39656 0.97666 0.0
H962 H 0.54578 0.40412 0.92328 0.0
H963 H 0.5441 0.3767 0.9623 0.0
H964 H 0.55002 0.36003 0.84081 0.0
H965 H 0.54963 0.38671 0.79646 0.0
H966 H 0.53001 0.36517 0.77268 0.0
H967 H 0.45012 0.40212 0.82834 0.0
H968 H 0.45942 0.44004 0.78515 0.0
H969 H 0.53009 0.42596 0.81256 0.0
C970 C 0.50881 0.34285 0.92319 0.0
C971 C 0.49029 0.32876 0.93925 0.0
C972 C 0.46851 0.33621 0.92072 0.0
C973 C 0.46515 0.3571 0.88836 0.0
C974 C 0.48368 0.3706 0.87451 0.0
C975 C 0.50512 0.36375 0.89105 0.0
C976 C 0.52213 0.38169 0.87158 0.0
C977 C 0.53418 0.39027 0.93737 0.0
C978 C 0.53897 0.37293 0.81709 0.0
C979 C 0.50692 0.39959 0.84073 0.0
C980 C 0.48476 0.39298 0.84424 0.0
C981 C 0.46744 0.40732 0.8244 0.0
C982 C 0.47286 0.4289 0.8003 0.0
C983 C 0.49544 0.43596 0.79489 0.0
C984 C 0.51267 0.42094 0.81497 0.0
H985 H 0.15843 0.46564 0.98363 0.0
H986 H 0.19019 0.52628 0.90634 0.0
H987 H 0.15857 0.53244 0.82599 0.0
H988 H 0.13356 0.44861 0.81636 0.0
H989 H 0.10818 0.43852 0.85725 0.0
H990 H 0.13418 0.43778 0.90492 0.0
H991 H 0.11597 0.46051 1.00547 0.0
H992 H 0.08995 0.46136 0.95808 0.0
H993 H 0.10298 0.48696 0.98572 0.0
H994 H 0.12194 0.53397 0.76102 0.0
H995 H 0.08402 0.5298 0.71226 0.0
H996 H 0.07534 0.46825 0.83088 0.0
C997 C 0.15888 0.48018 0.94963 0.0
C998 C 0.17716 0.49536 0.95157 0.0
C999 C 0.17685 0.51406 0.90539 0.0
C1000 C 0.15878 0.51784 0.85973 0.0
C1001 C 0.14096 0.50279 0.86023 0.0
C1002 C 0.14092 0.48423 0.9036 0.0
C1003 C 0.1193 0.47106 0.89541 0.0
C1004 C 0.1241 0.4476 0.86677 0.0
C1005 C 0.10629 0.46991 0.96533 0.0
C1006 C 0.10705 0.48531 0.84153 0.0
C1007 C 0.11991 0.50352 0.82194 0.0
C1008 C 0.11188 0.51961 0.77526 0.0
C1009 C 0.0902 0.5171 0.74797 0.0
C1010 C 0.07659 0.49859 0.76709 0.0
C1011 C 0.08534 0.48242 0.81425 0.0
H1012 H 0.97892 0.84301 0.42957 0.0
H1013 H 0.0423 0.81477 0.49724 0.0
H1014 H 0.04938 0.84824 0.56836 0.0
H1015 H 0.99851 0.89836 0.40846 0.0
H1016 H 0.97317 0.91139 0.43972 0.0
H1017 H 0.97197 0.88435 0.39919 0.0
H1018 H 0.95215 0.8682 0.50968 0.0
H1019 H 0.9532 0.89525 0.55048 0.0
H1020 H 0.96502 0.87133 0.59457 0.0
H1021 H 0.05111 0.88624 0.62499 0.0
H1022 H 0.04668 0.92505 0.66595 0.0
H1023 H 0.98239 0.92899 0.5608 0.0
C1024 C 0.99424 0.84372 0.45961 0.0
C1025 C 0.00995 0.82594 0.45769 0.0
C1026 C 0.0297 0.82775 0.49853 0.0
C1027 C 0.034 0.84686 0.53882 0.0
C1028 C 0.0184 0.86418 0.53824 0.0
C1029 C 0.99883 0.86273 0.50009 0.0
C1030 C 0.9852 0.88404 0.50646 0.0
C1031 C 0.98204 0.89519 0.43416 0.0
C1032 C 0.96255 0.87942 0.54245 0.0
C1033 C 1.00035 0.89786 0.5531 0.0
C1034 C 0.01938 0.88606 0.57104 0.0
C1035 C 0.03619 0.89557 0.61176 0.0
C1036 C 0.03352 0.9177 0.63464 0.0
C1037 C 0.01414 0.9302 0.61698 0.0
C1038 C 0.99732 0.91994 0.57589 0.0
H1039 H 0.65851 1.00378 0.38557 0.0
H1040 H 0.70257 0.98019 0.55012 0.0
H1041 H 0.66981 0.97529 0.6297 0.0
H1042 H 0.62063 0.03412 0.4929 0.0
H1043 H 0.59594 0.02638 0.44468 0.0
H1044 H 0.62271 0.02753 0.40076 0.0
H1045 H 0.61802 0.98654 0.36087 0.0
H1046 H 0.59116 0.98531 0.40431 0.0
H1047 H 0.6125 0.96513 0.42561 0.0
H1048 H 0.63215 0.97655 0.69455 0.0
H1049 H 0.59265 0.97936 0.73445 0.0
H1050 H 0.57284 0.99881 0.52408 0.0
C1051 C 0.66117 0.99732 0.43814 0.0
C1052 C 0.68305 0.99232 0.46189 0.0
C1053 C 0.68594 0.98394 0.53091 0.0
C1054 C 0.66743 0.98122 0.57645 0.0
C1055 C 0.64608 0.98659 0.55173 0.0
C1056 C 0.64285 0.99406 0.48366 0.0
C1057 C 0.61821 0.99839 0.46957 0.0
C1058 C 0.61414 0.02307 0.45088 0.0
C1059 C 0.60946 0.98291 0.41166 0.0
C1060 C 0.60805 0.99247 0.54052 0.0
C1061 C 0.62442 0.98599 0.58757 0.0
C1062 C 0.61919 0.98119 0.65768 0.0
C1063 C 0.59673 0.98289 0.67998 0.0
C1064 C 0.57963 0.98888 0.63213 0.0
C1065 C 0.58547 0.99365 0.56146 0.0
H1066 H 0.49943 0.65084 0.42496 0.0
H1067 H 0.55329 0.68331 0.53896 0.0
H1068 H 0.55591 0.65065 0.61682 0.0
H1069 H 0.47467 0.62066 0.57175 0.0
H1070 H 0.46921 0.59599 0.52087 0.0
H1071 H 0.46942 0.62302 0.4788 0.0
H1072 H 0.49941 0.60931 0.39018 0.0
H1073 H 0.49926 0.58222 0.43164 0.0
H1074 H 0.52516 0.59746 0.42255 0.0
H1075 H 0.55309 0.61362 0.68295 0.0
H1076 H 0.54698 0.5747 0.72409 0.0
H1077 H 0.49911 0.56458 0.55707 0.0
C1078 C 0.51201 0.65131 0.46552 0.0
C1079 C 0.52606 0.67027 0.47467 0.0
C1080 C 0.54179 0.66966 0.53061 0.0
C1081 C 0.54363 0.65092 0.57518 0.0
C1082 C 0.52993 0.63251 0.56316 0.0
C1083 C 0.51452 0.63252 0.50936 0.0
C1084 C 0.50272 0.61009 0.50481 0.0
C1085 C 0.47751 0.6126 0.51996 0.0
C1086 C 0.50689 0.59913 0.43303 0.0
C1087 C 0.51425 0.5973 0.56342 0.0
C1088 C 0.5295 0.61072 0.59768 0.0
C1089 C 0.54144 0.60291 0.65575 0.0
C1090 C 0.53788 0.58082 0.67881 0.0
C1091 C 0.523 0.56657 0.64276 0.0
C1092 C 0.511 0.57499 0.58448 0.0
H1093 H 0.85311 0.5269 0.45708 0.0
H1094 H 0.81793 0.4779 0.58442 0.0
H1095 H 0.85315 0.46965 0.64844 0.0
H1096 H 0.90421 0.49512 0.43954 0.0
H1097 H 0.92207 0.51935 0.44203 0.0
H1098 H 0.89401 0.5217 0.40846 0.0
H1099 H 0.88553 0.55302 0.49804 0.0
H1100 H 0.91355 0.55072 0.53203 0.0
H1101 H 0.88984 0.54783 0.59041 0.0
H1102 H 0.89243 0.46813 0.70184 0.0
H1103 H 0.93263 0.47055 0.7318 0.0
H1104 H 0.94253 0.51879 0.56359 0.0
C1105 C 0.85282 0.51449 0.4987 0.0
C1106 C 0.83273 0.50318 0.51643 0.0
C1107 C 0.83311 0.48677 0.57019 0.0
C1108 C 0.85302 0.48206 0.6069 0.0
C1109 C 0.87253 0.49364 0.58843 0.0
C1110 C 0.87261 0.5093 0.53483 0.0
C1111 C 0.8959 0.51882 0.52315 0.0
C1112 C 0.90456 0.51342 0.44889 0.0
C1113 C 0.89622 0.5441 0.53673 0.0
C1114 C 0.90897 0.50622 0.57884 0.0
C1115 C 0.89516 0.49196 0.61656 0.0
C1116 C 0.90338 0.47909 0.67211 0.0
C1117 C 0.92627 0.48064 0.68892 0.0
C1118 C 0.94087 0.49472 0.6498 0.0
C1119 C 0.93193 0.50768 0.59413 0.0
loop_
_geom_bond_atom_site_label_1
_geom_bond_atom_site_label_2
_geom_bond_distance
_geom_bond_site_symmetry_2
_ccdc_geom_bond_type
C0 C1 1.386 . S
C0 C2 1.397 . S
C0 H24 0.931 . S
C1 C0 1.386 . S
C1 C5 1.397 . S
C2 C0 1.397 . S
C2 C3 1.384 . S
C2 H25 0.930 . S
C3 C2 1.384 . S
C3 C4 1.377 . S
C3 C6 1.481 . S
C4 C3 1.377 . S
C4 C5 1.389 . S
C4 H26 0.929 . S
C5 C1 1.397 . S
C5 C4 1.389 . S
C5 H27 0.931 . S
C6 C3 1.481 . S
C6 C7 1.387 . S
C6 C11 1.390 . S
C7 C6 1.387 . S
C7 C8 1.401 . S
C7 H28 0.930 . S
C8 C7 1.401 . S
C8 C9 1.376 . S
C8 C17 1.511 . S
C9 C8 1.376 . S
C9 C10 1.392 . S
C9 H30 0.931 . S
C10 C9 1.392 . S
C10 C11 1.361 . S
C10 C12 1.500 . S
C11 C6 1.390 . S
C11 C10 1.361 . S
C11 H29 0.931 . S
C12 C10 1.500 . S
C12 C13 1.371 . S
C12 C14 1.365 . S
C13 C12 1.371 . S
C13 C23 1.386 . S
C13 H31 0.931 . S
C14 C12 1.365 . S
C14 C15 1.409 . S
C14 H32 0.929 . S
C15 C14 1.409 . S
C15 C16 1.380 . S
C15 H33 0.930 . S
C16 C15 1.380 . S
C16 C23 1.357 . S
C17 C8 1.511 . S
C17 C18 1.341 . S
C17 C19 1.371 . S
C18 C17 1.341 . S
C18 C22 1.394 . S
C18 H34 0.930 . S
C19 C17 1.371 . S
C19 C20 1.392 . S
C19 H35 0.931 . S
C20 C19 1.392 . S
C20 C21 1.331 . S
C20 H38 0.932 . S
C21 C20 1.331 . S
C21 C22 1.336 . S
C22 C18 1.394 . S
C22 C21 1.336 . S
C22 H37 0.929 . S
C23 C13 1.386 . S
C23 C16 1.357 . S
C23 H36 0.928 . S
H24 C0 0.931 . S
H25 C2 0.930 . S
H26 C4 0.929 . S
H27 C5 0.931 . S
H28 C7 0.930 . S
H29 C11 0.931 . S
H30 C9 0.931 . S
H31 C13 0.931 . S
H32 C14 0.929 . S
H33 C15 0.930 . S
H34 C18 0.930 . S
H35 C19 0.931 . S
H36 C23 0.928 . S
H37 C22 0.929 . S
H38 C20 0.932 . S
C39 C40 1.394 . S
C39 C41 1.397 . S
C39 H63 0.931 . S
C40 C39 1.394 . S
C40 C44 1.389 1_655 S
C41 C39 1.397 . S
C41 C42 1.389 . S
C41 H64 0.930 . S
C42 C41 1.389 . S
C42 C43 1.373 1_655 S
C42 C45 1.480 . S
C43 C42 1.373 1_455 S
C43 C44 1.389 . S
C43 H65 0.929 . S
C44 C40 1.389 1_455 S
C44 C43 1.389 . S
C44 H66 0.931 . S
C45 C42 1.480 . S
C45 C46 1.388 . S
C45 C50 1.390 . S
C46 C45 1.388 . S
C46 C47 1.402 . S
C46 H67 0.930 . S
C47 C46 1.402 . S
C47 C48 1.376 . S
C47 C56 1.513 . S
C48 C47 1.376 . S
C48 C49 1.392 . S
C48 H69 0.934 . S
C49 C48 1.392 . S
C49 C50 1.361 . S
C49 C51 1.499 1_655 S
C50 C45 1.390 . S
C50 C49 1.361 . S
C50 H68 0.931 . S
C51 C49 1.499 1_455 S
C51 C52 1.362 1_455 S
C51 C53 1.374 . S
C52 C51 1.362 1_655 S
C52 C62 1.386 . S
C52 H70 0.931 . S
C53 C51 1.374 . S
C53 C54 1.409 . S
C53 H71 0.929 . S
C54 C53 1.409 . S
C54 C55 1.379 . S
C54 H72 0.930 . S
C55 C54 1.379 . S
C55 C62 1.359 1_455 S
C56 C47 1.513 . S
C56 C57 1.341 . S
C56 C58 1.371 1_655 S
C57 C56 1.341 . S
C57 C61 1.394 . S
C57 H73 0.930 . S
C58 C56 1.371 1_455 S
C58 C59 1.392 . S
C58 H74 0.931 . S
C59 C58 1.392 . S
C59 C60 1.322 1_455 S
C59 H77 0.932 . S
C60 C59 1.322 1_655 S
C60 C61 1.345 . S
C61 C57 1.394 . S
C61 C60 1.345 . S
C61 H76 0.929 . S
C62 C52 1.386 . S
C62 C55 1.359 1_655 S
C62 H75 0.928 . S
H63 C39 0.931 . S
H64 C41 0.930 . S
H65 C43 0.929 . S
H66 C44 0.931 . S
H67 C46 0.930 . S
H68 C50 0.931 . S
H69 C48 0.934 . S
H70 C52 0.931 . S
H71 C53 0.929 . S
H72 C54 0.930 . S
H73 C57 0.930 . S
H74 C58 0.931 . S
H75 C62 0.928 . S
H76 C61 0.929 . S
H77 C59 0.932 . S
C78 C79 1.394 . S
C78 C80 1.397 . S
C78 H102 0.931 . S
C79 C78 1.394 . S
C79 C83 1.389 1_565 S
C80 C78 1.397 . S
C80 C81 1.389 . S
C80 H103 0.930 . S
C81 C80 1.389 . S
C81 C82 1.373 1_565 S
C81 C84 1.480 . S
C82 C81 1.373 1_545 S
C82 C83 1.389 . S
C82 H104 0.929 . S
C83 C79 1.389 1_545 S
C83 C82 1.389 . S
C83 H105 0.931 . S
C84 C81 1.480 . S
C84 C85 1.388 . S
C84 C89 1.390 . S
C85 C84 1.388 . S
C85 C86 1.402 . S
C85 H106 0.930 . S
C86 C85 1.402 . S
C86 C87 1.376 . S
C86 C95 1.513 . S
C87 C86 1.376 . S
C87 C88 1.392 . S
C87 H108 0.934 . S
C88 C87 1.392 . S
C88 C89 1.361 . S
C88 C90 1.499 1_565 S
C89 C84 1.390 . S
C89 C88 1.361 . S
C89 H107 0.931 . S
C90 C88 1.499 1_545 S
C90 C91 1.362 1_545 S
C90 C92 1.374 . S
C91 C90 1.362 1_565 S
C91 C101 1.386 . S
C91 H109 0.931 . S
C92 C90 1.374 . S
C92 C93 1.409 . S
C92 H110 0.929 . S
C93 C92 1.409 . S
C93 C94 1.379 . S
C93 H111 0.930 . S
C94 C93 1.379 . S
C94 C101 1.359 1_545 S
C95 C86 1.513 . S
C95 C96 1.341 . S
C95 C97 1.371 1_565 S
C96 C95 1.341 . S
C96 C100 1.394 . S
C96 H112 0.930 . S
C97 C95 1.371 1_545 S
C97 C98 1.392 . S
C97 H113 0.931 . S
C98 C97 1.392 . S
C98 C99 1.322 1_545 S
C98 H116 0.932 . S
C99 C98 1.322 1_565 S
C99 C100 1.345 . S
C100 C96 1.394 . S
C100 C99 1.345 . S
C100 H115 0.929 . S
C101 C91 1.386 . S
C101 C94 1.359 1_565 S
C101 H114 0.928 . S
H102 C78 0.931 . S
H103 C80 0.930 . S
H104 C82 0.929 . S
H105 C83 0.931 . S
H106 C85 0.930 . S
H107 C89 0.931 . S
H108 C87 0.934 . S
H109 C91 0.931 . S
H110 C92 0.929 . S
H111 C93 0.930 . S
H112 C96 0.930 . S
H113 C97 0.931 . S
H114 C101 0.928 . S
H115 C100 0.929 . S
H116 C98 0.932 . S
C117 C118 1.386 . S
C117 C119 1.397 . S
C117 H141 0.931 . S
C118 C117 1.386 . S
C118 C122 1.397 . S
C119 C117 1.397 . S
C119 C120 1.384 . S
C119 H142 0.930 . S
C120 C119 1.384 . S
C120 C121 1.377 . S
C120 C123 1.481 . S
C121 C120 1.377 . S
C121 C122 1.389 . S
C121 H143 0.929 . S
C122 C118 1.397 . S
C122 C121 1.389 . S
C122 H144 0.931 . S
C123 C120 1.481 . S
C123 C124 1.387 . S
C123 C128 1.390 . S
C124 C123 1.387 . S
C124 C125 1.401 . S
C124 H145 0.930 . S
C125 C124 1.401 . S
C125 C126 1.376 . S
C125 C134 1.511 . S
C126 C125 1.376 . S
C126 C127 1.392 . S
C126 H147 0.931 . S
C127 C126 1.392 . S
C127 C128 1.361 . S
C127 C129 1.500 . S
C128 C123 1.390 . S
C128 C127 1.361 . S
C128 H146 0.931 . S
C129 C127 1.500 . S
C129 C130 1.371 . S
C129 C131 1.365 . S
C130 C129 1.371 . S
C130 C140 1.386 . S
C130 H148 0.931 . S
C131 C129 1.365 . S
C131 C132 1.409 . S
C131 H149 0.929 . S
C132 C131 1.409 . S
C132 C133 1.380 . S
C132 H150 0.930 . S
C133 C132 1.380 . S
C133 C140 1.357 . S
C134 C125 1.511 . S
C134 C135 1.341 . S
C134 C136 1.371 . S
C135 C134 1.341 . S
C135 C139 1.394 . S
C135 H151 0.930 . S
C136 C134 1.371 . S
C136 C137 1.392 . S
C136 H152 0.931 . S
C137 C136 1.392 . S
C137 C138 1.331 . S
C137 H155 0.932 . S
C138 C137 1.331 . S
C138 C139 1.336 . S
C139 C135 1.394 . S
C139 C138 1.336 . S
C139 H154 0.929 . S
C140 C130 1.386 . S
C140 C133 1.357 . S
C140 H153 0.928 . S
H141 C117 0.931 . S
H142 C119 0.930 . S
H143 C121 0.929 . S
H144 C122 0.931 . S
H145 C124 0.930 . S
H146 C128 0.931 . S
H147 C126 0.931 . S
H148 C130 0.931 . S
H149 C131 0.929 . S
H150 C132 0.930 . S
H151 C135 0.930 . S
H152 C136 0.931 . S
H153 C140 0.928 . S
H154 C139 0.929 . S
H155 C137 0.932 . S
C156 C157 1.386 . S
C156 C158 1.397 . S
C156 H180 0.931 . S
C157 C156 1.386 . S
C157 C161 1.397 . S
C158 C156 1.397 . S
C158 C159 1.384 . S
C158 H181 0.930 . S
C159 C158 1.384 . S
C159 C160 1.377 . S
C159 C162 1.481 . S
C160 C159 1.377 . S
C160 C161 1.389 . S
C160 H182 0.929 . S
C161 C157 1.397 . S
C161 C160 1.389 . S
C161 H183 0.931 . S
C162 C159 1.481 . S
C162 C163 1.387 . S
C162 C167 1.390 . S
C163 C162 1.387 . S
C163 C164 1.401 . S
C163 H184 0.930 . S
C164 C163 1.401 . S
C164 C165 1.364 1_554 S
C164 C173 1.511 . S
C165 C164 1.364 1_556 S
C165 C166 1.395 . S
C165 H186 0.941 . S
C166 C165 1.395 . S
C166 C167 1.361 1_556 S
C166 C168 1.500 . S
C167 C162 1.390 . S
C167 C166 1.361 1_554 S
C167 H185 0.931 . S
C168 C166 1.500 . S
C168 C169 1.371 . S
C168 C170 1.365 . S
C169 C168 1.371 . S
C169 C179 1.386 . S
C169 H187 0.931 . S
C170 C168 1.365 . S
C170 C171 1.409 . S
C170 H188 0.929 . S
C171 C170 1.409 . S
C171 C172 1.380 . S
C171 H189 0.930 . S
C172 C171 1.380 . S
C172 C179 1.357 . S
C173 C164 1.511 . S
C173 C174 1.341 . S
C173 C175 1.371 . S
C174 C173 1.341 . S
C174 C178 1.394 . S
C174 H190 0.930 . S
C175 C173 1.371 . S
C175 C176 1.392 . S
C175 H191 0.931 1_554 S
C176 C175 1.392 . S
C176 C177 1.331 . S
C176 H194 0.932 . S
C177 C176 1.331 . S
C177 C178 1.336 . S
C178 C174 1.394 . S
C178 C177 1.336 . S
C178 H193 0.929 . S
C179 C169 1.386 . S
C179 C172 1.357 . S
C179 H192 0.928 . S
H180 C156 0.931 . S
H181 C158 0.930 . S
H182 C160 0.929 . S
H183 C161 0.931 . S
H184 C163 0.930 . S
H185 C167 0.931 . S
H186 C165 0.941 . S
H187 C169 0.931 . S
H188 C170 0.929 . S
H189 C171 0.930 . S
H190 C174 0.930 . S
H191 C175 0.931 1_556 S
H192 C179 0.928 . S
H193 C178 0.929 . S
H194 C176 0.932 . S
C195 C196 1.387 . S
C195 C197 1.397 . S
C195 H219 0.931 . S
C196 C195 1.387 . S
C196 C200 1.396 1_655 S
C197 C195 1.397 . S
C197 C198 1.382 . S
C197 H220 0.930 . S
C198 C197 1.382 . S
C198 C199 1.380 1_655 S
C198 C201 1.480 . S
C199 C198 1.380 1_455 S
C199 C200 1.389 . S
C199 H221 0.929 . S
C200 C196 1.396 1_455 S
C200 C199 1.389 . S
C200 H222 0.931 . S
C201 C198 1.480 . S
C201 C202 1.388 . S
C201 C206 1.390 . S
C202 C201 1.388 . S
C202 C203 1.402 . S
C202 H223 0.930 . S
C203 C202 1.402 . S
C203 C204 1.376 . S
C203 C212 1.512 . S
C204 C203 1.376 . S
C204 C205 1.392 1_654 S
C204 H225 0.933 1_554 S
C205 C204 1.392 1_456 S
C205 C206 1.361 1_456 S
C205 C207 1.499 . S
C206 C201 1.390 . S
C206 C205 1.361 1_654 S
C206 H224 0.931 . S
C207 C205 1.499 . S
C207 C208 1.357 1_455 S
C207 C209 1.380 . S
C208 C207 1.357 1_655 S
C208 C218 1.386 . S
C208 H226 0.931 . S
C209 C207 1.380 . S
C209 C210 1.409 . S
C209 H227 0.929 . S
C210 C209 1.409 . S
C210 C211 1.384 . S
C210 H228 0.930 . S
C211 C210 1.384 . S
C211 C218 1.353 1_455 S
C212 C203 1.512 . S
C212 C213 1.341 . S
C212 C214 1.371 1_655 S
C213 C212 1.341 . S
C213 C217 1.394 . S
C213 H229 0.930 . S
C214 C212 1.371 1_455 S
C214 C215 1.392 . S
C214 H230 0.931 1_554 S
C215 C214 1.392 . S
C215 C216 1.326 1_455 S
C215 H233 0.932 . S
C216 C215 1.326 1_655 S
C216 C217 1.341 . S
C217 C213 1.394 . S
C217 C216 1.341 . S
C217 H232 0.929 . S
C218 C208 1.386 . S
C218 C211 1.353 1_655 S
C218 H231 0.928 . S
H219 C195 0.931 . S
H220 C197 0.930 . S
H221 C199 0.929 . S
H222 C200 0.931 . S
H223 C202 0.930 . S
H224 C206 0.931 . S
H225 C204 0.933 1_556 S
H226 C208 0.931 . S
H227 C209 0.929 . S
H228 C210 0.930 . S
H229 C213 0.930 . S
H230 C214 0.931 1_556 S
H231 C218 0.928 . S
H232 C217 0.929 . S
H233 C215 0.932 . S
C234 C235 1.387 . S
C234 C236 1.397 . S
C234 H258 0.931 . S
C235 C234 1.387 . S
C235 C239 1.396 1_565 S
C236 C234 1.397 . S
C236 C237 1.382 . S
C236 H259 0.930 . S
C237 C236 1.382 . S
C237 C238 1.380 1_565 S
C237 C240 1.480 . S
C238 C237 1.380 1_545 S
C238 C239 1.389 . S
C238 H260 0.929 . S
C239 C235 1.396 1_545 S
C239 C238 1.389 . S
C239 H261 0.931 . S
C240 C237 1.480 . S
C240 C241 1.388 . S
C240 C245 1.390 . S
C241 C240 1.388 . S
C241 C242 1.402 . S
C241 H262 0.930 . S
C242 C241 1.402 . S
C242 C243 1.377 1_554 S
C242 C251 1.512 . S
C243 C242 1.377 1_556 S
C243 C244 1.391 1_565 S
C243 H264 0.932 . S
C244 C243 1.391 1_545 S
C244 C245 1.361 1_546 S
C244 C246 1.499 . S
C245 C240 1.390 . S
C245 C244 1.361 1_564 S
C245 H263 0.931 . S
C246 C244 1.499 . S
C246 C247 1.357 1_545 S
C246 C248 1.380 . S
C247 C246 1.357 1_565 S
C247 C257 1.386 . S
C247 H265 0.931 . S
C248 C246 1.380 . S
C248 C249 1.409 . S
C248 H266 0.929 . S
C249 C248 1.409 . S
C249 C250 1.384 . S
C249 H267 0.930 . S
C250 C249 1.384 . S
C250 C257 1.353 1_545 S
C251 C242 1.512 . S
C251 C252 1.341 . S
C251 C253 1.371 1_565 S
C252 C251 1.341 . S
C252 C256 1.394 . S
C252 H268 0.930 . S
C253 C251 1.371 1_545 S
C253 C254 1.392 . S
C253 H269 0.931 1_554 S
C254 C253 1.392 . S
C254 C255 1.326 1_545 S
C254 H272 0.932 . S
C255 C254 1.326 1_565 S
C255 C256 1.341 . S
C256 C252 1.394 . S
C256 C255 1.341 . S
C256 H271 0.929 . S
C257 C247 1.386 . S
C257 C250 1.353 1_565 S
C257 H270 0.928 . S
H258 C234 0.931 . S
H259 C236 0.930 . S
H260 C238 0.929 . S
H261 C239 0.931 . S
H262 C241 0.930 . S
H263 C245 0.931 . S
H264 C243 0.932 . S
H265 C247 0.931 . S
H266 C248 0.929 . S
H267 C249 0.930 . S
H268 C252 0.930 . S
H269 C253 0.931 1_556 S
H270 C257 0.928 . S
H271 C256 0.929 . S
H272 C254 0.932 . S
C273 C274 1.386 . S
C273 C275 1.397 . S
C273 H297 0.931 . S
C274 C273 1.386 . S
C274 C278 1.397 . S
C275 C273 1.397 . S
C275 C276 1.384 . S
C275 H298 0.930 . S
C276 C275 1.384 . S
C276 C277 1.377 . S
C276 C279 1.481 . S
C277 C276 1.377 . S
C277 C278 1.389 . S
C277 H299 0.929 . S
C278 C274 1.397 . S
C278 C277 1.389 . S
C278 H300 0.931 . S
C279 C276 1.481 . S
C279 C280 1.386 1_556 S
C279 C284 1.390 1_556 S
C280 C279 1.386 1_554 S
C280 C281 1.406 . S
C280 H301 0.926 1_554 S
C281 C280 1.406 . S
C281 C282 1.376 . S
C281 C290 1.511 . S
C282 C281 1.376 . S
C282 C283 1.392 . S
C282 H303 0.931 . S
C283 C282 1.392 . S
C283 C284 1.361 . S
C283 C285 1.500 . S
C284 C279 1.390 1_554 S
C284 C283 1.361 . S
C284 H302 0.931 . S
C285 C283 1.500 . S
C285 C286 1.371 . S
C285 C287 1.365 . S
C286 C285 1.371 . S
C286 C296 1.386 . S
C286 H304 0.931 . S
C287 C285 1.365 . S
C287 C288 1.409 . S
C287 H305 0.929 . S
C288 C287 1.409 . S
C288 C289 1.380 . S
C288 H306 0.930 . S
C289 C288 1.380 . S
C289 C296 1.357 . S
C290 C281 1.511 . S
C290 C291 1.341 . S
C290 C292 1.371 . S
C291 C290 1.341 . S
C291 C295 1.394 . S
C291 H307 0.930 1_554 S
C292 C290 1.371 . S
C292 C293 1.392 . S
C292 H308 0.931 . S
C293 C292 1.392 . S
C293 C294 1.331 . S
C293 H311 0.932 . S
C294 C293 1.331 . S
C294 C295 1.336 . S
C295 C291 1.394 . S
C295 C294 1.336 . S
C295 H310 0.929 . S
C296 C286 1.386 . S
C296 C289 1.357 . S
C296 H309 0.928 . S
H297 C273 0.931 . S
H298 C275 0.930 . S
H299 C277 0.929 . S
H300 C278 0.931 . S
H301 C280 0.926 1_556 S
H302 C284 0.931 . S
H303 C282 0.931 . S
H304 C286 0.931 . S
H305 C287 0.929 . S
H306 C288 0.930 . S
H307 C291 0.930 1_556 S
H308 C292 0.931 . S
H309 C296 0.928 . S
H310 C295 0.929 . S
H311 C293 0.932 . S
Tb312 C322 2.825 . S
Tb312 O323 2.347 1_455 S
Tb312 O326 2.366 . S
Tb312 O331 2.418 . S
Tb312 O332 2.384 1_565 S
Tb312 O335 2.479 . S
Tb312 O336 2.471 . S
Eu313 O324 2.418 . S
Eu313 O325 2.384 1_545 S
Eu313 O328 2.479 . S
Eu313 O329 2.471 . S
Eu313 O330 2.347 1_655 S
Eu313 O333 2.366 . S
Eu313 C343 2.825 . S
C314 O330 1.259 1_565 S
C314 O331 1.265 . S
C315 O332 1.255 . S
C315 O333 1.265 1_455 S
C316 C318 1.380 . S
C316 C319 1.374 . S
C316 C322 1.507 . S
C317 C318 1.384 . S
C317 C321 1.387 . S
C317 H344 0.930 . S
C318 C316 1.380 . S
C318 C317 1.384 . S
C318 H345 0.931 . S
C319 C316 1.374 . S
C319 C320 1.390 . S
C319 H346 0.930 1_455 S
C320 C319 1.390 . S
C320 C321 1.391 . S
C320 H347 0.930 1_455 S
C321 C317 1.387 . S
C321 C320 1.391 . S
C322 Tb312 2.825 . S
C322 C316 1.507 . S
C322 O335 1.238 . S
C322 O336 1.247 . S
O323 Tb312 2.347 1_655 S
O323 C327 1.259 1_565 S
O324 Eu313 2.418 . S
O324 C327 1.265 . S
O325 Eu313 2.384 1_565 S
O325 C334 1.255 . S
O326 Tb312 2.366 . S
O326 C334 1.265 1_455 S
C327 O323 1.259 1_545 S
C327 O324 1.265 . S
O328 Eu313 2.479 . S
O328 C343 1.238 . S
O329 Eu313 2.471 . S
O329 C343 1.247 . S
O330 Eu313 2.347 1_455 S
O330 C314 1.259 1_545 S
O331 Tb312 2.418 . S
O331 C314 1.265 . S
O332 Tb312 2.384 1_545 S
O332 C315 1.255 . S
O333 Eu313 2.366 . S
O333 C315 1.265 1_655 S
C334 O325 1.255 . S
C334 O326 1.265 1_655 S
O335 Tb312 2.479 . S
O335 C322 1.238 . S
O336 Tb312 2.471 . S
O336 C322 1.247 . S
C337 C340 1.380 . S
C337 C341 1.374 . S
C337 C343 1.507 . S
C338 C339 1.387 . S
C338 C342 1.391 . S
C339 C338 1.387 . S
C339 C340 1.384 . S
C339 H348 0.930 . S
C340 C337 1.380 . S
C340 C339 1.384 . S
C340 H349 0.931 . S
C341 C337 1.374 . S
C341 C342 1.390 . S
C341 H350 0.930 1_655 S
C342 C338 1.391 . S
C342 C341 1.390 . S
C342 H351 0.930 1_655 S
C343 Eu313 2.825 . S
C343 O328 1.238 . S
C343 O329 1.247 . S
C343 C337 1.507 . S
H344 C317 0.930 . S
H345 C318 0.931 . S
H346 C319 0.930 1_655 S
H347 C320 0.930 1_655 S
H348 C339 0.930 . S
H349 C340 0.931 . S
H350 C341 0.930 1_455 S
H351 C342 0.930 1_455 S
Tb352 C362 2.825 . S
Tb352 O363 2.347 1_545 S
Tb352 O366 2.366 . S
Tb352 O371 2.418 . S
Tb352 O372 2.384 . S
Tb352 O375 2.479 . S
Tb352 O376 2.471 . S
Eu353 O364 2.418 . S
Eu353 O365 2.384 . S
Eu353 O368 2.479 . S
Eu353 O369 2.471 . S
Eu353 O370 2.347 1_565 S
Eu353 O373 2.366 . S
Eu353 C383 2.825 . S
C354 O370 1.259 . S
C354 O371 1.265 . S
C355 O372 1.255 . S
C355 O373 1.265 1_545 S
C356 C358 1.380 . S
C356 C359 1.374 . S
C356 C362 1.507 . S
C357 C358 1.384 . S
C357 C361 1.387 . S
C357 H384 0.930 . S
C358 C356 1.380 . S
C358 C357 1.384 . S
C358 H385 0.931 . S
C359 C356 1.374 . S
C359 C360 1.390 . S
C359 H386 0.930 1_545 S
C360 C359 1.390 . S
C360 C361 1.391 . S
C360 H387 0.930 1_545 S
C361 C357 1.387 . S
C361 C360 1.391 . S
C362 Tb352 2.825 . S
C362 C356 1.507 . S
C362 O375 1.238 . S
C362 O376 1.247 . S
O363 Tb352 2.347 1_565 S
O363 C367 1.259 . S
O364 Eu353 2.418 . S
O364 C367 1.265 . S
O365 Eu353 2.384 . S
O365 C374 1.255 . S
O366 Tb352 2.366 . S
O366 C374 1.265 1_545 S
C367 O363 1.259 . S
C367 O364 1.265 . S
O368 Eu353 2.479 . S
O368 C383 1.238 . S
O369 Eu353 2.471 . S
O369 C383 1.247 . S
O370 Eu353 2.347 1_545 S
O370 C354 1.259 . S
O371 Tb352 2.418 . S
O371 C354 1.265 . S
O372 Tb352 2.384 . S
O372 C355 1.255 . S
O373 Eu353 2.366 . S
O373 C355 1.265 1_565 S
C374 O365 1.255 . S
C374 O366 1.265 1_565 S
O375 Tb352 2.479 . S
O375 C362 1.238 . S
O376 Tb352 2.471 . S
O376 C362 1.247 . S
C377 C380 1.380 . S
C377 C381 1.374 . S
C377 C383 1.507 . S
C378 C379 1.387 . S
C378 C382 1.391 . S
C379 C378 1.387 . S
C379 C380 1.384 . S
C379 H388 0.930 . S
C380 C377 1.380 . S
C380 C379 1.384 . S
C380 H389 0.931 . S
C381 C377 1.374 . S
C381 C382 1.390 . S
C381 H390 0.930 1_565 S
C382 C378 1.391 . S
C382 C381 1.390 . S
C382 H391 0.930 1_565 S
C383 Eu353 2.825 . S
C383 O368 1.238 . S
C383 O369 1.247 . S
C383 C377 1.507 . S
H384 C357 0.930 . S
H385 C358 0.931 . S
H386 C359 0.930 1_565 S
H387 C360 0.930 1_565 S
H388 C379 0.930 . S
H389 C380 0.931 . S
H390 C381 0.930 1_545 S
H391 C382 0.930 1_545 S
Tb392 C402 2.825 . S
Tb392 O403 2.347 . S
Tb392 O406 2.366 . S
Tb392 O411 2.418 . S
Tb392 O412 2.384 . S
Tb392 O415 2.479 . S
Tb392 O416 2.471 . S
Eu393 O404 2.418 . S
Eu393 O405 2.384 . S
Eu393 O408 2.479 . S
Eu393 O409 2.471 . S
Eu393 O410 2.347 . S
Eu393 O413 2.366 . S
Eu393 C423 2.825 . S
C394 O410 1.259 . S
C394 O411 1.265 . S
C395 O412 1.255 . S
C395 O413 1.265 . S
C396 C398 1.380 . S
C396 C399 1.374 . S
C396 C402 1.507 . S
C397 C398 1.384 . S
C397 C401 1.387 . S
C397 H424 0.930 . S
C398 C396 1.380 . S
C398 C397 1.384 . S
C398 H425 0.931 . S
C399 C396 1.374 . S
C399 C400 1.390 . S
C399 H426 0.930 . S
C400 C399 1.390 . S
C400 C401 1.391 . S
C400 H427 0.930 . S
C401 C397 1.387 . S
C401 C400 1.391 . S
C402 Tb392 2.825 . S
C402 C396 1.507 . S
C402 O415 1.238 . S
C402 O416 1.247 . S
O403 Tb392 2.347 . S
O403 C407 1.259 . S
O404 Eu393 2.418 . S
O404 C407 1.265 . S
O405 Eu393 2.384 . S
O405 C414 1.255 . S
O406 Tb392 2.366 . S
O406 C414 1.265 . S
C407 O403 1.259 . S
C407 O404 1.265 . S
O408 Eu393 2.479 . S
O408 C423 1.238 . S
O409 Eu393 2.471 . S
O409 C423 1.247 . S
O410 Eu393 2.347 . S
O410 C394 1.259 . S
O411 Tb392 2.418 . S
O411 C394 1.265 . S
O412 Tb392 2.384 . S
O412 C395 1.255 . S
O413 Eu393 2.366 . S
O413 C395 1.265 . S
C414 O405 1.255 . S
C414 O406 1.265 . S
O415 Tb392 2.479 . S
O415 C402 1.238 . S
O416 Tb392 2.471 . S
O416 C402 1.247 . S
C417 C420 1.380 . S
C417 C421 1.374 . S
C417 C423 1.507 . S
C418 C419 1.387 . S
C418 C422 1.391 . S
C419 C418 1.387 . S
C419 C420 1.384 . S
C419 H428 0.930 . S
C420 C417 1.380 . S
C420 C419 1.384 . S
C420 H429 0.931 . S
C421 C417 1.374 . S
C421 C422 1.390 . S
C421 H430 0.930 . S
C422 C418 1.391 . S
C422 C421 1.390 . S
C422 H431 0.930 . S
C423 Eu393 2.825 . S
C423 O408 1.238 . S
C423 O409 1.247 . S
C423 C417 1.507 . S
H424 C397 0.930 . S
H425 C398 0.931 . S
H426 C399 0.930 . S
H427 C400 0.930 . S
H428 C419 0.930 . S
H429 C420 0.931 . S
H430 C421 0.930 . S
H431 C422 0.930 . S
Tb432 C442 2.825 . S
Tb432 O443 2.347 . S
Tb432 O446 2.366 . S
Tb432 O451 2.418 . S
Tb432 O452 2.384 1_655 S
Tb432 O455 2.479 . S
Tb432 O456 2.471 . S
Eu433 O444 2.418 . S
Eu433 O445 2.384 1_455 S
Eu433 O448 2.479 . S
Eu433 O449 2.471 . S
Eu433 O450 2.347 . S
Eu433 O453 2.366 . S
Eu433 C463 2.825 . S
C434 O450 1.259 1_655 S
C434 O451 1.265 . S
C435 O452 1.255 . S
C435 O453 1.265 . S
C436 C438 1.380 . S
C436 C439 1.374 . S
C436 C442 1.507 . S
C437 C438 1.384 . S
C437 C441 1.387 . S
C437 H464 0.930 . S
C438 C436 1.380 . S
C438 C437 1.384 . S
C438 H465 0.931 . S
C439 C436 1.374 . S
C439 C440 1.390 . S
C439 H466 0.930 . S
C440 C439 1.390 . S
C440 C441 1.391 . S
C440 H467 0.930 . S
C441 C437 1.387 . S
C441 C440 1.391 . S
C442 Tb432 2.825 . S
C442 C436 1.507 . S
C442 O455 1.238 . S
C442 O456 1.247 . S
O443 Tb432 2.347 . S
O443 C447 1.259 1_655 S
O444 Eu433 2.418 . S
O444 C447 1.265 . S
O445 Eu433 2.384 1_655 S
O445 C454 1.255 . S
O446 Tb432 2.366 . S
O446 C454 1.265 . S
C447 O443 1.259 1_455 S
C447 O444 1.265 . S
O448 Eu433 2.479 . S
O448 C463 1.238 . S
O449 Eu433 2.471 . S
O449 C463 1.247 . S
O450 Eu433 2.347 . S
O450 C434 1.259 1_455 S
O451 Tb432 2.418 . S
O451 C434 1.265 . S
O452 Tb432 2.384 1_455 S
O452 C435 1.255 . S
O453 Eu433 2.366 . S
O453 C435 1.265 . S
C454 O445 1.255 . S
C454 O446 1.265 . S
O455 Tb432 2.479 . S
O455 C442 1.238 . S
O456 Tb432 2.471 . S
O456 C442 1.247 . S
C457 C460 1.380 . S
C457 C461 1.374 . S
C457 C463 1.507 . S
C458 C459 1.387 . S
C458 C462 1.391 . S
C459 C458 1.387 . S
C459 C460 1.384 . S
C459 H468 0.930 . S
C460 C457 1.380 . S
C460 C459 1.384 . S
C460 H469 0.931 . S
C461 C457 1.374 . S
C461 C462 1.390 . S
C461 H470 0.930 . S
C462 C458 1.391 . S
C462 C461 1.390 . S
C462 H471 0.930 . S
C463 Eu433 2.825 . S
C463 O448 1.238 . S
C463 O449 1.247 . S
C463 C457 1.507 . S
H464 C437 0.930 . S
H465 C438 0.931 . S
H466 C439 0.930 . S
H467 C440 0.930 . S
H468 C459 0.930 . S
H469 C460 0.931 . S
H470 C461 0.930 . S
H471 C462 0.930 . S
H472 C484 0.930 . S
H473 C486 0.930 . S
H474 C487 0.930 . S
H475 C491 0.959 . S
H476 C491 0.959 . S
H477 C491 0.961 . S
H478 C492 0.960 . S
H479 C492 0.961 . S
H480 C492 0.959 . S
H481 C495 0.929 . S
H482 C496 0.931 . S
H483 C498 0.930 . S
C484 H472 0.930 . S
C484 C485 1.399 1_565 S
C484 C489 1.399 . S
C485 C484 1.399 1_545 S
C485 C486 1.376 . S
C486 H473 0.930 . S
C486 C485 1.376 . S
C486 C487 1.388 . S
C487 H474 0.930 . S
C487 C486 1.388 . S
C487 C488 1.390 . S
C488 C487 1.390 . S
C488 C489 1.394 1_545 S
C488 C494 1.465 . S
C489 C484 1.399 . S
C489 C488 1.394 1_565 S
C489 C490 1.516 . S
C490 C489 1.516 . S
C490 C491 1.502 . S
C490 C492 1.561 . S
C490 C493 1.526 . S
C491 H475 0.959 . S
C491 H476 0.959 . S
C491 H477 0.961 . S
C491 C490 1.502 . S
C492 H478 0.960 . S
C492 H479 0.961 . S
C492 H480 0.959 . S
C492 C490 1.561 . S
C493 C490 1.526 . S
C493 C494 1.396 1_565 S
C493 C498 1.390 . S
C494 C488 1.465 . S
C494 C493 1.396 1_545 S
C494 C495 1.399 . S
C495 H481 0.929 . S
C495 C494 1.399 . S
C495 C496 1.385 . S
C496 H482 0.931 . S
C496 C495 1.385 . S
C496 C497 1.389 . S
C497 C496 1.389 . S
C497 C498 1.387 1_545 S
C498 H483 0.930 . S
C498 C493 1.390 . S
C498 C497 1.387 1_565 S
H499 C511 0.930 . S
H500 C513 0.930 . S
H501 C514 0.930 . S
H502 C518 0.959 . S
H503 C518 0.959 . S
H504 C518 0.961 . S
H505 C519 0.960 . S
H506 C519 0.961 . S
H507 C519 0.959 . S
H508 C522 0.929 . S
H509 C523 0.931 . S
H510 C525 0.930 . S
C511 H499 0.930 . S
C511 C512 1.399 . S
C511 C516 1.399 . S
C512 C511 1.399 . S
C512 C513 1.376 . S
C513 H500 0.930 . S
C513 C512 1.376 . S
C513 C514 1.388 . S
C514 H501 0.930 . S
C514 C513 1.388 . S
C514 C515 1.390 . S
C515 C514 1.390 . S
C515 C516 1.394 . S
C515 C521 1.465 . S
C516 C511 1.399 . S
C516 C515 1.394 . S
C516 C517 1.516 . S
C517 C516 1.516 . S
C517 C518 1.502 . S
C517 C519 1.561 . S
C517 C520 1.526 . S
C518 H502 0.959 . S
C518 H503 0.959 . S
C518 H504 0.961 . S
C518 C517 1.502 . S
C519 H505 0.960 . S
C519 H506 0.961 . S
C519 H507 0.959 . S
C519 C517 1.561 . S
C520 C517 1.526 . S
C520 C521 1.396 . S
C520 C525 1.390 . S
C521 C515 1.465 . S
C521 C520 1.396 . S
C521 C522 1.399 . S
C522 H508 0.929 . S
C522 C521 1.399 . S
C522 C523 1.385 . S
C523 H509 0.931 . S
C523 C522 1.385 . S
C523 C524 1.389 . S
C524 C523 1.389 . S
C524 C525 1.387 . S
C525 H510 0.930 . S
C525 C520 1.390 . S
C525 C524 1.387 . S
H526 C538 0.930 . S
H527 C540 0.930 . S
H528 C541 0.930 . S
H529 C545 0.959 . S
H530 C545 0.959 . S
H531 C545 0.961 . S
H532 C546 0.960 . S
H533 C546 0.961 . S
H534 C546 0.959 . S
H535 C549 0.929 . S
H536 C550 0.931 . S
H537 C552 0.930 . S
C538 H526 0.930 . S
C538 C539 1.399 . S
C538 C543 1.399 . S
C539 C538 1.399 . S
C539 C540 1.376 . S
C540 H527 0.930 . S
C540 C539 1.376 . S
C540 C541 1.388 . S
C541 H528 0.930 . S
C541 C540 1.388 . S
C541 C542 1.390 . S
C542 C541 1.390 . S
C542 C543 1.394 . S
C542 C548 1.465 . S
C543 C538 1.399 . S
C543 C542 1.394 . S
C543 C544 1.516 . S
C544 C543 1.516 . S
C544 C545 1.502 . S
C544 C546 1.561 . S
C544 C547 1.526 . S
C545 H529 0.959 . S
C545 H530 0.959 . S
C545 H531 0.961 . S
C545 C544 1.502 . S
C546 H532 0.960 . S
C546 H533 0.961 . S
C546 H534 0.959 . S
C546 C544 1.561 . S
C547 C544 1.526 . S
C547 C548 1.396 . S
C547 C552 1.390 . S
C548 C542 1.465 . S
C548 C547 1.396 . S
C548 C549 1.399 . S
C549 H535 0.929 . S
C549 C548 1.399 . S
C549 C550 1.385 . S
C550 H536 0.931 . S
C550 C549 1.385 . S
C550 C551 1.389 . S
C551 C550 1.389 . S
C551 C552 1.387 . S
C552 H537 0.930 . S
C552 C547 1.390 . S
C552 C551 1.387 . S
H553 C565 0.930 . S
H554 C567 0.930 . S
H555 C568 0.930 . S
H556 C572 0.959 . S
H557 C572 0.959 . S
H558 C572 0.961 . S
H559 C573 0.960 . S
H560 C573 0.961 . S
H561 C573 0.959 . S
H562 C576 0.929 . S
H563 C577 0.931 . S
H564 C579 0.930 . S
C565 H553 0.930 . S
C565 C566 1.399 1_655 S
C565 C570 1.399 . S
C566 C565 1.399 1_455 S
C566 C567 1.376 . S
C567 H554 0.930 . S
C567 C566 1.376 . S
C567 C568 1.388 . S
C568 H555 0.930 . S
C568 C567 1.388 . S
C568 C569 1.390 . S
C569 C568 1.390 . S
C569 C570 1.394 1_455 S
C569 C575 1.465 . S
C570 C565 1.399 . S
C570 C569 1.394 1_655 S
C570 C571 1.516 . S
C571 C570 1.516 . S
C571 C572 1.502 . S
C571 C573 1.561 1_655 S
C571 C574 1.534 . S
C572 H556 0.959 . S
C572 H557 0.959 . S
C572 H558 0.961 . S
C572 C571 1.502 . S
C573 H559 0.960 . S
C573 H560 0.961 . S
C573 H561 0.959 . S
C573 C571 1.561 1_455 S
C574 C571 1.534 . S
C574 C575 1.383 1_655 S
C574 C579 1.394 . S
C575 C569 1.465 . S
C575 C574 1.383 1_455 S
C575 C576 1.399 . S
C576 H562 0.929 . S
C576 C575 1.399 . S
C576 C577 1.385 . S
C577 H563 0.931 . S
C577 C576 1.385 . S
C577 C578 1.389 . S
C578 C577 1.389 . S
C578 C579 1.387 1_455 S
C579 H564 0.930 . S
C579 C574 1.394 . S
C579 C578 1.387 1_655 S
H580 C592 0.930 . S
H581 C594 0.930 . S
H582 C595 0.930 . S
H583 C599 0.959 . S
H584 C599 0.959 . S
H585 C599 0.961 1_554 S
H586 C600 0.960 . S
H587 C600 0.961 . S
H588 C600 0.959 . S
H589 C603 0.929 . S
H590 C604 0.931 . S
H591 C606 0.930 . S
C592 H580 0.930 . S
C592 C593 1.399 1_545 S
C592 C597 1.399 . S
C593 C592 1.399 1_565 S
C593 C594 1.376 . S
C594 H581 0.930 . S
C594 C593 1.376 . S
C594 C595 1.388 . S
C595 H582 0.930 . S
C595 C594 1.388 . S
C595 C596 1.390 . S
C596 C595 1.390 . S
C596 C597 1.394 1_565 S
C596 C602 1.465 . S
C597 C592 1.399 . S
C597 C596 1.394 1_545 S
C597 C598 1.516 . S
C598 C597 1.516 . S
C598 C599 1.502 1_554 S
C598 C600 1.561 . S
C598 C601 1.526 1_554 S
C599 H583 0.959 . S
C599 H584 0.959 . S
C599 H585 0.961 1_556 S
C599 C598 1.502 1_556 S
C600 H586 0.960 . S
C600 H587 0.961 . S
C600 H588 0.959 . S
C600 C598 1.561 . S
C601 C598 1.526 1_556 S
C601 C602 1.396 1_546 S
C601 C606 1.390 . S
C602 C596 1.465 . S
C602 C601 1.396 1_564 S
C602 C603 1.399 1_554 S
C603 H589 0.929 . S
C603 C602 1.399 1_556 S
C603 C604 1.385 . S
C604 H590 0.931 . S
C604 C603 1.385 . S
C604 C605 1.389 . S
C605 C604 1.389 . S
C605 C606 1.387 1_565 S
C606 H591 0.930 . S
C606 C601 1.390 . S
C606 C605 1.387 1_545 S
H607 C619 0.930 . S
H608 C621 0.930 . S
H609 C622 0.930 . S
H610 C626 0.959 . S
H611 C626 0.959 . S
H612 C626 0.961 . S
H613 C627 0.960 . S
H614 C627 0.961 1_556 S
H615 C627 0.959 1_556 S
H616 C630 0.929 . S
H617 C631 0.931 . S
H618 C633 0.930 . S
C619 H607 0.930 . S
C619 C620 1.399 . S
C619 C624 1.399 . S
C620 C619 1.399 . S
C620 C621 1.376 . S
C621 H608 0.930 . S
C621 C620 1.376 . S
C621 C622 1.388 . S
C622 H609 0.930 . S
C622 C621 1.388 . S
C622 C623 1.390 . S
C623 C622 1.390 . S
C623 C624 1.394 . S
C623 C629 1.465 1_554 S
C624 C619 1.399 . S
C624 C623 1.394 . S
C624 C625 1.516 . S
C625 C624 1.516 . S
C625 C626 1.502 . S
C625 C627 1.561 . S
C625 C628 1.526 1_554 S
C626 H610 0.959 . S
C626 H611 0.959 . S
C626 H612 0.961 . S
C626 C625 1.502 . S
C627 H613 0.960 . S
C627 H614 0.961 1_554 S
C627 H615 0.959 1_554 S
C627 C625 1.561 . S
C628 C625 1.526 1_556 S
C628 C629 1.396 . S
C628 C633 1.390 . S
C629 C623 1.465 1_556 S
C629 C628 1.396 . S
C629 C630 1.399 . S
C630 H616 0.929 . S
C630 C629 1.399 . S
C630 C631 1.385 . S
C631 H617 0.931 . S
C631 C630 1.385 . S
C631 C632 1.389 . S
C632 C631 1.389 . S
C632 C633 1.387 . S
C633 H618 0.930 . S
C633 C628 1.390 . S
C633 C632 1.387 . S
H634 C646 0.930 . S
H635 C648 0.930 . S
H636 C649 0.930 . S
H637 C653 0.959 . S
H638 C653 0.959 . S
H639 C653 0.961 . S
H640 C654 0.960 . S
H641 C654 0.961 . S
H642 C654 0.959 . S
H643 C657 0.929 . S
H644 C658 0.931 . S
H645 C660 0.930 . S
C646 H634 0.930 . S
C646 C647 1.399 . S
C646 C651 1.399 . S
C647 C646 1.399 . S
C647 C648 1.376 . S
C648 H635 0.930 . S
C648 C647 1.376 . S
C648 C649 1.388 . S
C649 H636 0.930 . S
C649 C648 1.388 . S
C649 C650 1.390 . S
C650 C649 1.390 . S
C650 C651 1.394 . S
C650 C656 1.465 1_554 S
C651 C646 1.399 . S
C651 C650 1.394 . S
C651 C652 1.516 . S
C652 C651 1.516 . S
C652 C653 1.502 . S
C652 C654 1.561 . S
C652 C655 1.526 1_554 S
C653 H637 0.959 . S
C653 H638 0.959 . S
C653 H639 0.961 . S
C653 C652 1.502 . S
C654 H640 0.960 . S
C654 H641 0.961 . S
C654 H642 0.959 . S
C654 C652 1.561 . S
C655 C652 1.526 1_556 S
C655 C656 1.396 . S
C655 C660 1.390 . S
C656 C650 1.465 1_556 S
C656 C655 1.396 . S
C656 C657 1.399 . S
C657 H643 0.929 . S
C657 C656 1.399 . S
C657 C658 1.385 . S
C658 H644 0.931 . S
C658 C657 1.385 . S
C658 C659 1.389 . S
C659 C658 1.389 . S
C659 C660 1.387 . S
C660 H645 0.930 . S
C660 C655 1.390 . S
C660 C659 1.387 . S
H661 C673 0.930 . S
H662 C675 0.930 . S
H663 C676 0.930 . S
H664 C680 0.959 1_655 S
H665 C680 0.959 . S
H666 C680 0.961 1_554 S
H667 C681 0.960 . S
H668 C681 0.961 1_556 S
H669 C681 0.959 . S
H670 C684 0.929 1_554 S
H671 C685 0.931 . S
H672 C687 0.930 . S
C673 H661 0.930 . S
C673 C674 1.394 1_455 S
C673 C678 1.399 . S
C674 C673 1.394 1_655 S
C674 C675 1.382 . S
C675 H662 0.930 . S
C675 C674 1.382 . S
C675 C676 1.388 . S
C676 H663 0.930 . S
C676 C675 1.388 . S
C676 C677 1.390 . S
C677 C676 1.390 . S
C677 C678 1.394 1_655 S
C677 C683 1.465 . S
C678 C673 1.399 . S
C678 C677 1.394 1_455 S
C678 C679 1.516 . S
C679 C678 1.516 . S
C679 C680 1.502 1_554 S
C679 C681 1.561 . S
C679 C682 1.526 1_554 S
C680 H664 0.959 1_455 S
C680 H665 0.959 . S
C680 H666 0.961 1_556 S
C680 C679 1.502 1_556 S
C681 H667 0.960 . S
C681 H668 0.961 1_554 S
C681 H669 0.959 . S
C681 C679 1.561 . S
C682 C679 1.526 1_556 S
C682 C683 1.396 1_456 S
C682 C687 1.390 . S
C683 C677 1.465 . S
C683 C682 1.396 1_654 S
C683 C684 1.399 1_554 S
C684 H670 0.929 1_556 S
C684 C683 1.399 1_556 S
C684 C685 1.385 . S
C685 H671 0.931 . S
C685 C684 1.385 . S
C685 C686 1.389 . S
C686 C685 1.389 . S
C686 C687 1.387 1_655 S
C687 H672 0.930 . S
C687 C682 1.390 . S
C687 C686 1.387 1_455 S
H688 C700 0.930 . S
H689 C702 0.930 . S
H690 C703 0.930 . S
H691 C707 0.959 . S
H692 C707 0.959 . S
H693 C707 0.961 . S
H694 C708 0.960 . S
H695 C708 0.961 . S
H696 C708 0.959 . S
H697 C711 0.929 . S
H698 C712 0.931 . S
H699 C714 0.930 . S
C700 H688 0.930 . S
C700 C701 1.402 . S
C700 C705 1.399 1_455 S
C701 C700 1.402 . S
C701 C702 1.370 1_455 S
C702 H689 0.930 . S
C702 C701 1.370 1_655 S
C702 C703 1.388 . S
C703 H690 0.930 . S
C703 C702 1.388 . S
C703 C704 1.390 . S
C704 C703 1.390 . S
C704 C705 1.394 . S
C704 C710 1.465 . S
C705 C700 1.399 1_655 S
C705 C704 1.394 . S
C705 C706 1.521 . S
C706 C705 1.521 . S
C706 C707 1.470 1_655 S
C706 C708 1.574 . S
C706 C709 1.546 . S
C707 H691 0.959 . S
C707 H692 0.959 . S
C707 H693 0.961 . S
C707 C706 1.470 1_455 S
C708 H694 0.960 . S
C708 H695 0.961 . S
C708 H696 0.959 . S
C708 C706 1.574 . S
C709 C706 1.546 . S
C709 C710 1.396 . S
C709 C714 1.390 . S
C710 C704 1.465 . S
C710 C709 1.396 . S
C710 C711 1.399 . S
C711 H697 0.929 . S
C711 C710 1.399 . S
C711 C712 1.385 . S
C712 H698 0.931 . S
C712 C711 1.385 . S
C712 C713 1.389 . S
C713 C712 1.389 . S
C713 C714 1.387 . S
C714 H699 0.930 . S
C714 C709 1.390 . S
C714 C713 1.387 . S
H715 C727 0.930 . S
H716 C729 0.930 . S
H717 C730 0.930 . S
H718 C734 0.959 . S
H719 C734 0.959 . S
H720 C734 0.961 . S
H721 C735 0.960 . S
H722 C735 0.961 . S
H723 C735 0.959 . S
H724 C738 0.929 . S
H725 C739 0.931 1_545 S
H726 C741 0.930 . S
C727 H715 0.930 . S
C727 C728 1.399 1_565 S
C727 C732 1.399 . S
C728 C727 1.399 1_545 S
C728 C729 1.376 . S
C729 H716 0.930 . S
C729 C728 1.376 . S
C729 C730 1.388 . S
C730 H717 0.930 . S
C730 C729 1.388 . S
C730 C731 1.373 1_545 S
C731 C730 1.373 1_565 S
C731 C732 1.409 . S
C731 C737 1.470 . S
C732 C727 1.399 . S
C732 C731 1.409 . S
C732 C733 1.516 . S
C733 C732 1.516 . S
C733 C734 1.502 . S
C733 C735 1.561 . S
C733 C736 1.526 . S
C734 H718 0.959 . S
C734 H719 0.959 . S
C734 H720 0.961 . S
C734 C733 1.502 . S
C735 H721 0.960 . S
C735 H722 0.961 . S
C735 H723 0.959 . S
C735 C733 1.561 . S
C736 C733 1.526 . S
C736 C737 1.396 . S
C736 C741 1.390 . S
C737 C731 1.470 . S
C737 C736 1.396 . S
C737 C738 1.399 1_565 S
C738 H724 0.929 . S
C738 C737 1.399 1_545 S
C738 C739 1.385 1_545 S
C739 H725 0.931 1_565 S
C739 C738 1.385 1_565 S
C739 C740 1.389 . S
C740 C739 1.389 . S
C740 C741 1.387 . S
C741 H726 0.930 . S
C741 C736 1.390 . S
C741 C740 1.387 . S
H742 C754 0.930 . S
H743 C756 0.930 . S
H744 C757 0.930 . S
H745 C761 0.959 . S
H746 C761 0.959 . S
H747 C761 0.961 . S
H748 C762 0.960 . S
H749 C762 0.961 . S
H750 C762 0.959 . S
H751 C765 0.929 . S
H752 C766 0.931 . S
H753 C768 0.930 . S
C754 H742 0.930 . S
C754 C755 1.399 . S
C754 C759 1.399 . S
C755 C754 1.399 . S
C755 C756 1.376 . S
C756 H743 0.930 . S
C756 C755 1.376 . S
C756 C757 1.388 . S
C757 H744 0.930 . S
C757 C756 1.388 . S
C757 C758 1.390 . S
C758 C757 1.390 . S
C758 C759 1.394 . S
C758 C764 1.465 . S
C759 C754 1.399 . S
C759 C758 1.394 . S
C759 C760 1.516 . S
C760 C759 1.516 . S
C760 C761 1.502 . S
C760 C762 1.561 . S
C760 C763 1.526 . S
C761 H745 0.959 . S
C761 H746 0.959 . S
C761 H747 0.961 . S
C761 C760 1.502 . S
C762 H748 0.960 . S
C762 H749 0.961 . S
C762 H750 0.959 . S
C762 C760 1.561 . S
C763 C760 1.526 . S
C763 C764 1.396 . S
C763 C768 1.390 . S
C764 C758 1.465 . S
C764 C763 1.396 . S
C764 C765 1.399 . S
C765 H751 0.929 . S
C765 C764 1.399 . S
C765 C766 1.385 . S
C766 H752 0.931 . S
C766 C765 1.385 . S
C766 C767 1.389 . S
C767 C766 1.389 . S
C767 C768 1.387 . S
C768 H753 0.930 . S
C768 C763 1.390 . S
C768 C767 1.387 . S
H769 C781 0.930 . S
H770 C783 0.930 . S
H771 C784 0.930 . S
H772 C788 0.959 . S
H773 C788 0.959 . S
H774 C788 0.961 . S
H775 C789 0.960 . S
H776 C789 0.961 . S
H777 C789 0.959 . S
H778 C792 0.929 . S
H779 C793 0.931 . S
H780 C795 0.930 . S
C781 H769 0.930 . S
C781 C782 1.399 . S
C781 C786 1.399 . S
C782 C781 1.399 . S
C782 C783 1.376 . S
C783 H770 0.930 . S
C783 C782 1.376 . S
C783 C784 1.388 . S
C784 H771 0.930 . S
C784 C783 1.388 . S
C784 C785 1.390 . S
C785 C784 1.390 . S
C785 C786 1.394 . S
C785 C791 1.465 . S
C786 C781 1.399 . S
C786 C785 1.394 . S
C786 C787 1.516 . S
C787 C786 1.516 . S
C787 C788 1.502 . S
C787 C789 1.561 . S
C787 C790 1.526 . S
C788 H772 0.959 . S
C788 H773 0.959 . S
C788 H774 0.961 . S
C788 C787 1.502 . S
C789 H775 0.960 . S
C789 H776 0.961 . S
C789 H777 0.959 . S
C789 C787 1.561 . S
C790 C787 1.526 . S
C790 C791 1.396 . S
C790 C795 1.390 . S
C791 C785 1.465 . S
C791 C790 1.396 . S
C791 C792 1.399 . S
C792 H778 0.929 . S
C792 C791 1.399 . S
C792 C793 1.385 . S
C793 H779 0.931 . S
C793 C792 1.385 . S
C793 C794 1.389 . S
C794 C793 1.389 . S
C794 C795 1.387 . S
C795 H780 0.930 . S
C795 C790 1.390 . S
C795 C794 1.387 . S
H796 C808 0.930 . S
H797 C810 0.930 . S
H798 C811 0.930 1_556 S
H799 C815 0.959 . S
H800 C815 0.959 . S
H801 C815 0.961 . S
H802 C816 0.960 . S
H803 C816 0.961 . S
H804 C816 0.959 . S
H805 C819 0.929 . S
H806 C820 0.931 . S
H807 C822 0.930 . S
C808 H796 0.930 . S
C808 C809 1.403 . S
C808 C813 1.399 1_655 S
C809 C808 1.403 . S
C809 C810 1.361 1_655 S
C810 H797 0.930 . S
C810 C809 1.361 1_455 S
C810 C811 1.388 . S
C811 H798 0.930 1_554 S
C811 C810 1.388 . S
C811 C812 1.390 . S
C812 C811 1.390 . S
C812 C813 1.394 . S
C812 C818 1.465 1_554 S
C813 C808 1.399 1_455 S
C813 C812 1.394 . S
C813 C814 1.516 . S
C814 C813 1.516 . S
C814 C815 1.502 1_455 S
C814 C816 1.561 . S
C814 C817 1.526 . S
C815 H799 0.959 . S
C815 H800 0.959 . S
C815 H801 0.961 . S
C815 C814 1.502 1_655 S
C816 H802 0.960 . S
C816 H803 0.961 . S
C816 H804 0.959 . S
C816 C814 1.561 . S
C817 C814 1.526 . S
C817 C818 1.396 1_554 S
C817 C822 1.390 . S
C818 C812 1.465 1_556 S
C818 C817 1.396 1_556 S
C818 C819 1.399 . S
C819 H805 0.929 . S
C819 C818 1.399 . S
C819 C820 1.385 . S
C820 H806 0.931 . S
C820 C819 1.385 . S
C820 C821 1.389 . S
C821 C820 1.389 . S
C821 C822 1.387 1_556 S
C822 H807 0.930 . S
C822 C817 1.390 . S
C822 C821 1.387 1_554 S
H823 C835 0.930 . S
H824 C837 0.930 . S
H825 C838 0.930 . S
H826 C842 0.959 1_556 S
H827 C842 0.959 1_556 S
H828 C842 0.961 . S
H829 C843 0.960 . S
H830 C843 0.961 . S
H831 C843 0.987 . S
H832 C846 0.929 . S
H833 C847 0.931 . S
H834 C849 0.967 . S
C835 H823 0.930 . S
C835 C836 1.393 1_565 S
C835 C840 1.410 . S
C836 C835 1.393 1_545 S
C836 C837 1.388 . S
C837 H824 0.930 . S
C837 C836 1.388 . S
C837 C838 1.388 . S
C838 H825 0.930 . S
C838 C837 1.388 . S
C838 C839 1.390 . S
C839 C838 1.390 . S
C839 C840 1.372 1_545 S
C839 C845 1.465 . S
C840 C835 1.410 . S
C840 C839 1.372 1_565 S
C840 C841 1.524 . S
C841 C840 1.524 . S
C841 C842 1.502 . S
C841 C843 1.561 . S
C841 C844 1.526 1_565 S
C842 H826 0.959 1_554 S
C842 H827 0.959 1_554 S
C842 H828 0.961 . S
C842 C841 1.502 . S
C843 H829 0.960 . S
C843 H830 0.961 . S
C843 H831 0.987 . S
C843 C841 1.561 . S
C844 C841 1.526 1_545 S
C844 C845 1.396 . S
C844 C849 1.390 1_554 S
C845 C839 1.465 . S
C845 C844 1.396 . S
C845 C846 1.399 1_554 S
C846 H832 0.929 . S
C846 C845 1.399 1_556 S
C846 C847 1.385 . S
C847 H833 0.931 . S
C847 C846 1.385 . S
C847 C848 1.389 . S
C848 C847 1.389 . S
C848 C849 1.387 . S
C849 H834 0.967 . S
C849 C844 1.390 1_556 S
C849 C848 1.387 . S
H850 C862 0.930 . S
H851 C864 0.930 . S
H852 C865 0.930 . S
H853 C869 0.959 . S
H854 C869 0.959 . S
H855 C869 0.961 . S
H856 C870 0.960 . S
H857 C870 0.961 . S
H858 C870 0.959 . S
H859 C873 0.929 . S
H860 C874 0.931 . S
H861 C876 0.930 . S
C862 H850 0.930 . S
C862 C863 1.399 . S
C862 C867 1.399 . S
C863 C862 1.399 . S
C863 C864 1.376 . S
C864 H851 0.930 . S
C864 C863 1.376 . S
C864 C865 1.388 . S
C865 H852 0.930 . S
C865 C864 1.388 . S
C865 C866 1.390 . S
C866 C865 1.390 . S
C866 C867 1.394 . S
C866 C872 1.465 . S
C867 C862 1.399 . S
C867 C866 1.394 . S
C867 C868 1.516 . S
C868 C867 1.516 . S
C868 C869 1.502 . S
C868 C870 1.561 1_554 S
C868 C871 1.526 1_554 S
C869 H853 0.959 . S
C869 H854 0.959 . S
C869 H855 0.961 . S
C869 C868 1.502 . S
C870 H856 0.960 . S
C870 H857 0.961 . S
C870 H858 0.959 . S
C870 C868 1.561 1_556 S
C871 C868 1.526 1_556 S
C871 C872 1.396 1_556 S
C871 C876 1.390 . S
C872 C866 1.465 . S
C872 C871 1.396 1_554 S
C872 C873 1.399 . S
C873 H859 0.929 . S
C873 C872 1.399 . S
C873 C874 1.385 1_554 S
C874 H860 0.931 . S
C874 C873 1.385 1_556 S
C874 C875 1.389 . S
C875 C874 1.389 . S
C875 C876 1.387 . S
C876 H861 0.930 . S
C876 C871 1.390 . S
C876 C875 1.387 . S
H877 C889 0.930 . S
H878 C891 0.930 . S
H879 C892 0.930 . S
H880 C896 0.959 1_554 S
H881 C896 0.959 . S
H882 C896 0.961 . S
H883 C897 0.960 . S
H884 C897 0.961 . S
H885 C897 0.959 . S
H886 C900 0.929 . S
H887 C901 0.931 . S
H888 C903 0.930 . S
C889 H877 0.930 . S
C889 C890 1.399 . S
C889 C894 1.399 . S
C890 C889 1.399 . S
C890 C891 1.376 . S
C891 H878 0.930 . S
C891 C890 1.376 . S
C891 C892 1.388 . S
C892 H879 0.930 . S
C892 C891 1.388 . S
C892 C893 1.390 . S
C893 C892 1.390 . S
C893 C894 1.394 . S
C893 C899 1.465 . S
C894 C889 1.399 . S
C894 C893 1.394 . S
C894 C895 1.516 1_554 S
C895 C894 1.516 1_556 S
C895 C896 1.502 . S
C895 C897 1.561 . S
C895 C898 1.526 . S
C896 H880 0.959 1_556 S
C896 H881 0.959 . S
C896 H882 0.961 . S
C896 C895 1.502 . S
C897 H883 0.960 . S
C897 H884 0.961 . S
C897 H885 0.959 . S
C897 C895 1.561 . S
C898 C895 1.526 . S
C898 C899 1.396 1_556 S
C898 C903 1.390 . S
C899 C893 1.465 . S
C899 C898 1.396 1_554 S
C899 C900 1.399 . S
C900 H886 0.929 . S
C900 C899 1.399 . S
C900 C901 1.385 . S
C901 H887 0.931 . S
C901 C900 1.385 . S
C901 C902 1.389 1_554 S
C902 C901 1.389 1_556 S
C902 C903 1.387 . S
C903 H888 0.930 . S
C903 C898 1.390 . S
C903 C902 1.387 . S
H904 C916 0.930 . S
H905 C918 0.930 . S
H906 C919 0.930 . S
H907 C923 0.959 . S
H908 C923 0.959 . S
H909 C923 0.961 . S
H910 C924 0.960 . S
H911 C924 0.950 1_455 S
H912 C924 0.959 . S
H913 C927 0.929 . S
H914 C928 0.931 . S
H915 C930 0.930 . S
C916 H904 0.930 . S
C916 C917 1.405 . S
C916 C921 1.399 . S
C917 C916 1.405 . S
C917 C918 1.370 1_455 S
C918 H905 0.930 . S
C918 C917 1.370 1_655 S
C918 C919 1.388 . S
C919 H906 0.930 . S
C919 C918 1.388 . S
C919 C920 1.390 . S
C920 C919 1.390 . S
C920 C921 1.394 1_655 S
C920 C926 1.468 . S
C921 C916 1.399 . S
C921 C920 1.394 1_455 S
C921 C922 1.516 . S
C922 C921 1.516 . S
C922 C923 1.502 . S
C922 C924 1.561 1_455 S
C922 C925 1.526 . S
C923 H907 0.959 . S
C923 H908 0.959 . S
C923 H909 0.961 . S
C923 C922 1.502 . S
C924 H910 0.960 . S
C924 H911 0.950 1_655 S
C924 H912 0.959 . S
C924 C922 1.561 1_655 S
C925 C922 1.526 . S
C925 C926 1.380 1_455 S
C925 C930 1.390 . S
C926 C920 1.468 . S
C926 C925 1.380 1_655 S
C926 C927 1.410 . S
C927 H913 0.929 . S
C927 C926 1.410 . S
C927 C928 1.385 . S
C928 H914 0.931 . S
C928 C927 1.385 . S
C928 C929 1.389 1_655 S
C929 C928 1.389 1_455 S
C929 C930 1.387 . S
C930 H915 0.930 . S
C930 C925 1.390 . S
C930 C929 1.387 . S
H931 C943 0.930 . S
H932 C945 0.930 . S
H933 C946 0.930 . S
H934 C950 0.959 . S
H935 C950 0.959 . S
H936 C950 0.961 . S
H937 C951 0.960 . S
H938 C951 0.961 . S
H939 C951 0.959 . S
H940 C954 0.929 . S
H941 C955 0.931 . S
H942 C957 0.930 . S
C943 H931 0.930 . S
C943 C944 1.399 . S
C943 C948 1.399 . S
C944 C943 1.399 . S
C944 C945 1.376 . S
C945 H932 0.930 . S
C945 C944 1.376 . S
C945 C946 1.388 . S
C946 H933 0.930 . S
C946 C945 1.388 . S
C946 C947 1.390 . S
C947 C946 1.390 . S
C947 C948 1.394 . S
C947 C953 1.465 . S
C948 C943 1.399 . S
C948 C947 1.394 . S
C948 C949 1.516 . S
C949 C948 1.516 . S
C949 C950 1.502 1_545 S
C949 C951 1.561 . S
C949 C952 1.526 . S
C950 H934 0.959 . S
C950 H935 0.959 . S
C950 H936 0.961 . S
C950 C949 1.502 1_565 S
C951 H937 0.960 . S
C951 H938 0.961 . S
C951 H939 0.959 . S
C951 C949 1.561 . S
C952 C949 1.526 . S
C952 C953 1.396 . S
C952 C957 1.390 . S
C953 C947 1.465 . S
C953 C952 1.396 . S
C953 C954 1.399 . S
C954 H940 0.929 . S
C954 C953 1.399 . S
C954 C955 1.385 . S
C955 H941 0.931 . S
C955 C954 1.385 . S
C955 C956 1.389 . S
C956 C955 1.389 . S
C956 C957 1.387 . S
C957 H942 0.930 . S
C957 C952 1.390 . S
C957 C956 1.387 . S
H958 C970 0.930 . S
H959 C972 0.930 . S
H960 C973 0.930 . S
H961 C977 0.959 . S
H962 C977 0.959 . S
H963 C977 0.961 . S
H964 C978 0.960 . S
H965 C978 0.961 . S
H966 C978 0.959 . S
H967 C981 0.929 . S
H968 C982 0.931 . S
H969 C984 0.930 . S
C970 H958 0.930 . S
C970 C971 1.399 . S
C970 C975 1.399 . S
C971 C970 1.399 . S
C971 C972 1.376 . S
C972 H959 0.930 . S
C972 C971 1.376 . S
C972 C973 1.388 . S
C973 H960 0.930 . S
C973 C972 1.388 . S
C973 C974 1.390 . S
C974 C973 1.390 . S
C974 C975 1.394 . S
C974 C980 1.465 . S
C975 C970 1.399 . S
C975 C974 1.394 . S
C975 C976 1.516 . S
C976 C975 1.516 . S
C976 C977 1.502 . S
C976 C978 1.561 . S
C976 C979 1.526 . S
C977 H961 0.959 . S
C977 H962 0.959 . S
C977 H963 0.961 . S
C977 C976 1.502 . S
C978 H964 0.960 . S
C978 H965 0.961 . S
C978 H966 0.959 . S
C978 C976 1.561 . S
C979 C976 1.526 . S
C979 C980 1.396 . S
C979 C984 1.390 . S
C980 C974 1.465 . S
C980 C979 1.396 . S
C980 C981 1.399 . S
C981 H967 0.929 . S
C981 C980 1.399 . S
C981 C982 1.385 . S
C982 H968 0.931 . S
C982 C981 1.385 . S
C982 C983 1.389 . S
C983 C982 1.389 . S
C983 C984 1.387 . S
C984 H969 0.930 . S
C984 C979 1.390 . S
C984 C983 1.387 . S
H985 C997 0.930 . S
H986 C999 0.930 . S
H987 C1000 0.930 . S
H988 C1004 0.959 . S
H989 C1004 0.959 . S
H990 C1004 0.961 . S
H991 C1005 0.960 . S
H992 C1005 0.961 . S
H993 C1005 0.959 . S
H994 C1008 0.929 . S
H995 C1009 0.931 . S
H996 C1011 0.930 . S
C997 H985 0.930 . S
C997 C998 1.399 . S
C997 C1002 1.399 . S
C998 C997 1.399 . S
C998 C999 1.376 . S
C999 H986 0.930 . S
C999 C998 1.376 . S
C999 C1000 1.388 . S
C1000 H987 0.930 . S
C1000 C999 1.388 . S
C1000 C1001 1.390 . S
C1001 C1000 1.390 . S
C1001 C1002 1.394 . S
C1001 C1007 1.465 . S
C1002 C997 1.399 . S
C1002 C1001 1.394 . S
C1002 C1003 1.516 . S
C1003 C1002 1.516 . S
C1003 C1004 1.502 . S
C1003 C1005 1.561 . S
C1003 C1006 1.526 . S
C1004 H988 0.959 . S
C1004 H989 0.959 . S
C1004 H990 0.961 . S
C1004 C1003 1.502 . S
C1005 H991 0.960 . S
C1005 H992 0.961 . S
C1005 H993 0.959 . S
C1005 C1003 1.561 . S
C1006 C1003 1.526 . S
C1006 C1007 1.396 . S
C1006 C1011 1.390 . S
C1007 C1001 1.465 . S
C1007 C1006 1.396 . S
C1007 C1008 1.399 . S
C1008 H994 0.929 . S
C1008 C1007 1.399 . S
C1008 C1009 1.385 . S
C1009 H995 0.931 . S
C1009 C1008 1.385 . S
C1009 C1010 1.389 . S
C1010 C1009 1.389 . S
C1010 C1011 1.387 . S
C1011 H996 0.930 . S
C1011 C1006 1.390 . S
C1011 C1010 1.387 . S
H1012 C1024 0.930 . S
H1013 C1026 0.930 . S
H1014 C1027 0.930 . S
H1015 C1031 0.959 . S
H1016 C1031 0.959 . S
H1017 C1031 0.961 . S
H1018 C1032 0.960 . S
H1019 C1032 0.961 . S
H1020 C1032 0.959 . S
H1021 C1035 0.929 . S
H1022 C1036 0.931 . S
H1023 C1038 0.930 . S
C1024 H1012 0.930 . S
C1024 C1025 1.400 1_655 S
C1024 C1029 1.399 . S
C1025 C1024 1.400 1_455 S
C1025 C1026 1.375 . S
C1026 H1013 0.930 . S
C1026 C1025 1.375 . S
C1026 C1027 1.388 . S
C1027 H1014 0.930 . S
C1027 C1026 1.388 . S
C1027 C1028 1.390 . S
C1028 C1027 1.390 . S
C1028 C1029 1.394 1_455 S
C1028 C1034 1.465 . S
C1029 C1024 1.399 . S
C1029 C1028 1.394 1_655 S
C1029 C1030 1.516 . S
C1030 C1029 1.516 . S
C1030 C1031 1.502 . S
C1030 C1032 1.561 . S
C1030 C1033 1.526 . S
C1031 H1015 0.959 . S
C1031 H1016 0.959 . S
C1031 H1017 0.961 . S
C1031 C1030 1.502 . S
C1032 H1018 0.960 . S
C1032 H1019 0.961 . S
C1032 H1020 0.959 . S
C1032 C1030 1.561 . S
C1033 C1030 1.526 . S
C1033 C1034 1.396 1_655 S
C1033 C1038 1.390 . S
C1034 C1028 1.465 . S
C1034 C1033 1.396 1_455 S
C1034 C1035 1.399 . S
C1035 H1021 0.929 . S
C1035 C1034 1.399 . S
C1035 C1036 1.385 . S
C1036 H1022 0.931 . S
C1036 C1035 1.385 . S
C1036 C1037 1.389 1_455 S
C1037 C1036 1.389 1_655 S
C1037 C1038 1.387 . S
C1038 H1023 0.930 . S
C1038 C1033 1.390 . S
C1038 C1037 1.387 . S
H1039 C1051 0.930 . S
H1040 C1053 0.930 . S
H1041 C1054 0.930 . S
H1042 C1058 0.959 . S
H1043 C1058 0.959 . S
H1044 C1058 0.961 . S
H1045 C1059 0.960 . S
H1046 C1059 0.961 . S
H1047 C1059 0.959 . S
H1048 C1062 0.929 . S
H1049 C1063 0.931 . S
H1050 C1065 0.930 1_545 S
C1051 H1039 0.930 . S
C1051 C1052 1.399 1_545 S
C1051 C1056 1.399 1_545 S
C1052 C1051 1.399 1_565 S
C1052 C1053 1.376 . S
C1053 H1040 0.930 . S
C1053 C1052 1.376 . S
C1053 C1054 1.388 . S
C1054 H1041 0.930 . S
C1054 C1053 1.388 . S
C1054 C1055 1.390 . S
C1055 C1054 1.390 . S
C1055 C1056 1.394 . S
C1055 C1061 1.465 . S
C1056 C1051 1.399 1_565 S
C1056 C1055 1.394 . S
C1056 C1057 1.516 1_565 S
C1057 C1056 1.516 1_545 S
C1057 C1058 1.502 . S
C1057 C1059 1.561 1_545 S
C1057 C1060 1.526 1_545 S
C1058 H1042 0.959 . S
C1058 H1043 0.959 . S
C1058 H1044 0.961 . S
C1058 C1057 1.502 . S
C1059 H1045 0.960 . S
C1059 H1046 0.961 . S
C1059 H1047 0.959 . S
C1059 C1057 1.561 1_565 S
C1060 C1057 1.526 1_565 S
C1060 C1061 1.396 . S
C1060 C1065 1.390 . S
C1061 C1055 1.465 . S
C1061 C1060 1.396 . S
C1061 C1062 1.399 . S
C1062 H1048 0.929 . S
C1062 C1061 1.399 . S
C1062 C1063 1.385 . S
C1063 H1049 0.931 . S
C1063 C1062 1.385 . S
C1063 C1064 1.389 . S
C1064 C1063 1.389 . S
C1064 C1065 1.387 . S
C1065 H1050 0.930 1_565 S
C1065 C1060 1.390 . S
C1065 C1064 1.387 . S
H1066 C1078 0.930 . S
H1067 C1080 0.930 . S
H1068 C1081 0.930 . S
H1069 C1085 0.959 . S
H1070 C1085 0.959 . S
H1071 C1085 0.961 . S
H1072 C1086 0.960 . S
H1073 C1086 0.961 . S
H1074 C1086 0.959 . S
H1075 C1089 0.929 . S
H1076 C1090 0.931 . S
H1077 C1092 0.930 . S
C1078 H1066 0.930 . S
C1078 C1079 1.399 . S
C1078 C1083 1.399 . S
C1079 C1078 1.399 . S
C1079 C1080 1.376 . S
C1080 H1067 0.930 . S
C1080 C1079 1.376 . S
C1080 C1081 1.388 . S
C1081 H1068 0.930 . S
C1081 C1080 1.388 . S
C1081 C1082 1.390 . S
C1082 C1081 1.390 . S
C1082 C1083 1.394 . S
C1082 C1088 1.465 . S
C1083 C1078 1.399 . S
C1083 C1082 1.394 . S
C1083 C1084 1.516 . S
C1084 C1083 1.516 . S
C1084 C1085 1.502 . S
C1084 C1086 1.561 . S
C1084 C1087 1.526 . S
C1085 H1069 0.959 . S
C1085 H1070 0.959 . S
C1085 H1071 0.961 . S
C1085 C1084 1.502 . S
C1086 H1072 0.960 . S
C1086 H1073 0.961 . S
C1086 H1074 0.959 . S
C1086 C1084 1.561 . S
C1087 C1084 1.526 . S
C1087 C1088 1.396 . S
C1087 C1092 1.390 . S
C1088 C1082 1.465 . S
C1088 C1087 1.396 . S
C1088 C1089 1.399 . S
C1089 H1075 0.929 . S
C1089 C1088 1.399 . S
C1089 C1090 1.385 . S
C1090 H1076 0.931 . S
C1090 C1089 1.385 . S
C1090 C1091 1.389 . S
C1091 C1090 1.389 . S
C1091 C1092 1.387 . S
C1092 H1077 0.930 . S
C1092 C1087 1.390 . S
C1092 C1091 1.387 . S
H1093 C1105 0.930 . S
H1094 C1107 0.930 . S
H1095 C1108 0.930 . S
H1096 C1112 0.959 . S
H1097 C1112 0.959 . S
H1098 C1112 0.961 . S
H1099 C1113 0.960 . S
H1100 C1113 0.961 . S
H1101 C1113 0.959 . S
H1102 C1116 0.929 . S
H1103 C1117 0.931 . S
H1104 C1119 0.930 . S
C1105 H1093 0.930 . S
C1105 C1106 1.399 . S
C1105 C1110 1.399 . S
C1106 C1105 1.399 . S
C1106 C1107 1.376 . S
C1107 H1094 0.930 . S
C1107 C1106 1.376 . S
C1107 C1108 1.388 . S
C1108 H1095 0.930 . S
C1108 C1107 1.388 . S
C1108 C1109 1.390 . S
C1109 C1108 1.390 . S
C1109 C1110 1.394 . S
C1109 C1115 1.465 . S
C1110 C1105 1.399 . S
C1110 C1109 1.394 . S
C1110 C1111 1.516 . S
C1111 C1110 1.516 . S
C1111 C1112 1.502 . S
C1111 C1113 1.561 . S
C1111 C1114 1.526 . S
C1112 H1096 0.959 . S
C1112 H1097 0.959 . S
C1112 H1098 0.961 . S
C1112 C1111 1.502 . S
C1113 H1099 0.960 . S
C1113 H1100 0.961 . S
C1113 H1101 0.959 . S
C1113 C1111 1.561 . S
C1114 C1111 1.526 . S
C1114 C1115 1.396 . S
C1114 C1119 1.390 . S
C1115 C1109 1.465 . S
C1115 C1114 1.396 . S
C1115 C1116 1.399 . S
C1116 H1102 0.929 . S
C1116 C1115 1.399 . S
C1116 C1117 1.385 . S
C1117 H1103 0.931 . S
C1117 C1116 1.385 . S
C1117 C1118 1.389 . S
C1118 C1117 1.389 . S
C1118 C1119 1.387 . S
C1119 H1104 0.930 . S
C1119 C1114 1.390 . S
C1119 C1118 1.387 . S
C485 C255 2.159 1_545 S
C497 C314 2.381 1_545 S
C524 C354 2.391 . S
C512 C294 2.170 . S
C551 C394 2.380 . S
C539 C177 2.204 . S
C578 C434 2.379 1_455 S
C566 C216 2.225 1_455 S
C605 C327 2.375 1_565 S
C593 C99 2.219 . S
C620 C138 2.159 . S
C632 C367 2.391 . S
C647 C21 2.173 . S
C659 C407 2.384 . S
C674 C60 2.235 . S
C686 C447 2.377 1_655 S
C713 C338 0.443 . S
C701 C196 0.282 1_455 S
C740 C378 0.286 . S
C728 C235 0.436 1_545 S
C767 C418 0.321 . S
C755 C289 0.489 . S
C782 C157 0.394 . S
C794 C458 0.462 . S
C809 C40 0.399 . S
C821 C321 0.448 . S
C848 C361 0.479 . S
C836 C79 0.318 1_545 S
C875 C401 0.278 . S
C863 C133 0.465 . S
C890 C1 0.407 . S
C902 C441 0.303 . S
C917 C211 2.845 . S
C929 C315 3.199 . S
C944 C250 2.752 . S
C956 C355 3.196 . S
C983 C395 3.194 . S
C971 C274 2.770 . S
C1010 C435 3.204 . S
C998 C172 2.761 . S
C1025 C55 2.833 . S
C1037 C334 3.214 . S
C1064 C374 3.182 . S
C1052 C94 2.812 1_565 S
C1091 C414 3.189 . S
C1079 C118 2.761 . S
C1106 C16 2.826 . S
C1118 C454 3.196 . S
