# Generated by pormake.
# Topology rtl, (3,6)-cn, num edge types: 1
# Building blocks:
#     Node 0, Type 0, BuildingBlock: VETTIZ_charged_linker_0, # of connection points: 3
#     Node 1, Type 0, BuildingBlock: VETTIZ_charged_linker_0, # of connection points: 3
#     Node 2, Type 0, BuildingBlock: VETTIZ_charged_linker_0, # of connection points: 3
#     Node 3, Type 0, BuildingBlock: VETTIZ_charged_linker_0, # of connection points: 3
#     Node 4, Type 1, BuildingBlock: KUMBUR_clean_sbu_1, # of connection points: 6
#     Node 5, Type 1, BuildingBlock: KUMBUR_clean_sbu_1, # of connection points: 6
#     Edge 6, Type (0, 1), None
#     Edge 7, Type (0, 1), None
#     Edge 8, Type (0, 1), None
#     Edge 9, Type (0, 1), None
#     Edge 10, Type (0, 1), None
#     Edge 11, Type (0, 1), None
#     Edge 12, Type (0, 1), None
#     Edge 13, Type (0, 1), None
#     Edge 14, Type (0, 1), None
#     Edge 15, Type (0, 1), None
#     Edge 16, Type (0, 1), None
#     Edge 17, Type (0, 1), None
# Relax obj value: 0.019
# Max RMSD: 0.145
# Mean RMSD: 0.086
data_MOF--net-rtl--node1-KUMBUR_clean_sbu_1--node2-VETTIZ_charged_linker_0--edge1-none
_symmetry_space_group_name_H-M    P1
_symmetry_Int_Tables_number       1
_symmetry_cell_setting            triclinic
loop_
_symmetry_equiv_pos_as_xyz
'x, y, z'
_cell_length_a     21.294089
_cell_length_b     22.291872
_cell_length_c     21.189528
_cell_angle_alpha  71.466559
_cell_angle_beta   97.3139
_cell_angle_gamma 91.475449
loop_
_atom_site_label
_atom_site_type_symbol
_atom_site_fract_x
_atom_site_fract_y
_atom_site_fract_z
_atom_type_partial_charge
C0 C 0.15498 0.92498 0.76572 0.0
C1 C 0.09934 0.96161 0.74357 0.0
C2 C 0.06676 0.97622 0.79064 0.0
C3 C 0.14516 0.91712 0.88088 0.0
C4 C 0.17666 0.90294 0.83422 0.0
C5 C 0.2342 0.86189 0.86568 0.0
H6 H 0.38861 0.64894 0.13608 0.0
C7 C 0.17902 0.88423 0.94809 0.0
C8 C 0.23062 0.85128 0.93949 0.0
H9 H 0.41736 0.6989 0.92715 0.0
H10 H 0.3444 0.78534 0.89915 0.0
H11 H 0.38173 0.80392 0.13129 0.0
H12 H 0.2341 0.6705 0.11435 0.0
H13 H 0.22076 0.70786 0.17387 0.0
H14 H 0.28959 0.65808 0.18893 0.0
H15 H 0.36639 0.73763 0.20198 0.0
H16 H 0.32072 0.81028 0.17771 0.0
C17 C 0.29294 0.90114 0.84194 0.0
C18 C 0.22688 0.79939 0.84758 0.0
C19 C 0.09183 0.89989 0.15349 0.0
C20 C 0.108 0.8711 0.2228 0.0
C21 C 0.1607 0.82909 0.24542 0.0
C22 C 0.19572 0.81519 0.19957 0.0
C23 C 0.17794 0.84357 0.13032 0.0
C24 C 0.12696 0.88553 0.1086 0.0
C25 C 0.11334 0.91059 0.03362 0.0
C26 C 0.16587 0.87864 0.01358 0.0
C27 C 0.20358 0.83869 0.07017 0.0
C28 C 0.12025 0.98347 0.01127 0.0
C29 C 0.04676 0.88783 0.0125 0.0
C30 C 0.3788 0.67887 0.0844 0.0
C31 C 0.40747 0.666 0.03337 0.0
C32 C 0.39463 0.70651 0.96699 0.0
C33 C 0.35173 0.75672 0.95052 0.0
C34 C 0.32001 0.76654 0.00042 0.0
C35 C 0.33484 0.72971 0.06655 0.0
C36 C 0.29698 0.7506 0.11207 0.0
C37 C 0.25456 0.80287 0.06126 0.0
C38 C 0.2686 0.81097 0.99615 0.0
C39 C 0.34357 0.7767 0.15877 0.0
C40 C 0.25831 0.69389 0.14979 0.0
H41 H 0.0627 0.96744 0.89267 0.0
H42 H 0.18124 0.91344 0.73073 0.0
H43 H 0.18063 0.79655 0.81778 0.0
H44 H 0.22921 0.7569 0.89281 0.0
H45 H 0.26416 0.79436 0.81762 0.0
H46 H 0.28644 0.95158 0.83825 0.0
H47 H 0.30117 0.89994 0.7916 0.0
H48 H 0.33649 0.88516 0.87751 0.0
H49 H 0.05222 0.93294 0.13423 0.0
H50 H 0.17394 0.80575 0.29857 0.0
H51 H 0.23461 0.78219 0.21963 0.0
H52 H 0.16219 0.99703 0.04055 0.0
H53 H 0.07786 1.00679 0.01938 0.0
H54 H 0.12809 1.00389 0.95818 0.0
H55 H 0.03382 0.84334 0.05031 0.0
H56 H 0.0442 0.87581 0.96548 0.0
H57 H 1.00956 0.92385 0.00685 0.0
H58 H 0.02257 1.00263 0.77456 0.0
C59 C 0.08964 0.95475 0.85921 0.0
C60 C 0.64234 0.63983 0.88222 0.0
C61 C 0.5961 0.59245 0.89691 0.0
C62 C 0.57633 0.56129 0.85 0.0
C63 C 0.64597 0.62492 0.77407 0.0
C64 C 0.66641 0.65569 0.82002 0.0
C65 C 0.7144 0.70598 0.7935 0.0
H66 H 0.88353 0.85605 0.53495 0.0
C67 C 0.67939 0.65123 0.71469 0.0
C68 C 0.71985 0.69903 0.72502 0.0
H69 H 0.88894 0.89435 0.72306 0.0
H70 H 0.81307 0.81073 0.75986 0.0
H71 H 0.89387 0.71179 0.59776 0.0
H72 H 0.73257 0.83555 0.51058 0.0
H73 H 0.72452 0.77143 0.47872 0.0
H74 H 0.79208 0.82178 0.46364 0.0
H75 H 0.87154 0.74085 0.50878 0.0
H76 H 0.83992 0.66843 0.56046 0.0
C77 C 0.77753 0.68944 0.84044 0.0
C78 C 0.68623 0.7711 0.78717 0.0
C79 C 0.6359 0.55825 0.52407 0.0
C80 C 0.6624 0.56846 0.46412 0.0
C81 C 0.70991 0.61436 0.44844 0.0
C82 C 0.72984 0.6499 0.49095 0.0
C83 C 0.70282 0.63913 0.55054 0.0
C84 C 0.65719 0.5935 0.5665 0.0
C85 C 0.63629 0.58603 0.63353 0.0
C86 C 0.67666 0.63512 0.6549 0.0
C87 C 0.71488 0.66653 0.60585 0.0
C88 C 0.65361 0.51755 0.67996 0.0
C89 C 0.56467 0.6033 0.62212 0.0
C90 C 0.86853 0.84691 0.58408 0.0
C91 C 0.89237 0.8823 0.62583 0.0
C92 C 0.87119 0.86813 0.68955 0.0
C93 C 0.82704 0.81972 0.71078 0.0
C94 C 0.80369 0.78496 0.66793 0.0
C95 C 0.82517 0.79886 0.60598 0.0
C96 C 0.79808 0.75636 0.56734 0.0
C97 C 0.75525 0.71547 0.61513 0.0
C98 C 0.75814 0.73201 0.67432 0.0
C99 C 0.85337 0.71746 0.55743 0.0
C100 C 0.76002 0.79804 0.50128 0.0
H101 H 0.58279 0.55169 0.75548 0.0
H102 H 0.65822 0.6648 0.91727 0.0
H103 H 0.63625 0.77571 0.76307 0.0
H104 H 0.71149 0.8109 0.75554 0.0
H105 H 0.68673 0.77702 0.83738 0.0
H106 H 0.7864 0.63742 0.85918 0.0
H107 H 0.77673 0.706 0.88437 0.0
H108 H 0.81877 0.71011 0.81486 0.0
H109 H 0.59926 0.5237 0.53792 0.0
H110 H 0.73263 0.62235 0.40364 0.0
H111 H 0.76587 0.68411 0.47584 0.0
H112 H 0.69514 0.49831 0.66521 0.0
H113 H 0.61365 0.48494 0.67782 0.0
H114 H 0.66831 0.51481 0.73279 0.0
H115 H 0.5522 0.64176 0.5738 0.0
H116 H 0.55017 0.62206 0.66055 0.0
H117 H 0.53515 0.56192 0.6204 0.0
H118 H 0.54238 0.52363 0.86114 0.0
C119 C 0.60058 0.57732 0.78882 0.0
C120 C 0.87692 0.11041 0.35491 0.0
C121 C 0.93256 0.07379 0.37707 0.0
C122 C 0.96517 0.0592 0.32999 0.0
C123 C 0.88676 0.11828 0.23975 0.0
C124 C 0.85524 0.13244 0.28641 0.0
C125 C 0.79768 0.17347 0.25495 0.0
H126 H 0.64327 0.38642 0.98454 0.0
C127 C 0.8529 0.15116 0.17254 0.0
C128 C 0.80128 0.18409 0.18114 0.0
H129 H 0.61445 0.3364 0.19346 0.0
H130 H 0.68745 0.24998 0.22147 0.0
H131 H 0.79778 0.36489 0.0063 0.0
H132 H 0.65018 0.23146 0.98931 0.0
H133 H 0.71121 0.22509 0.94292 0.0
H134 H 0.66555 0.29774 0.91862 0.0
H135 H 0.7423 0.37731 0.93171 0.0
H136 H 0.81114 0.32755 0.94677 0.0
C137 C 0.80497 0.23597 0.27306 0.0
C138 C 0.73896 0.1342 0.27867 0.0
C139 C 0.94011 0.13555 0.96714 0.0
C140 C 0.92393 0.16433 0.89783 0.0
C141 C 0.87123 0.20634 0.87521 0.0
C142 C 0.83621 0.22022 0.92106 0.0
C143 C 0.854 0.19185 0.99031 0.0
C144 C 0.90499 0.1499 0.01202 0.0
C145 C 0.9186 0.12484 0.08701 0.0
C146 C 0.86606 0.15677 0.10705 0.0
C147 C 0.82835 0.19671 0.05046 0.0
C148 C 0.98518 0.14761 0.10813 0.0
C149 C 0.91171 0.05196 0.10935 0.0
C150 C 0.65307 0.35648 0.03622 0.0
C151 C 0.62437 0.36932 0.08725 0.0
C152 C 0.6372 0.32881 0.15363 0.0
C153 C 0.68013 0.27861 0.1701 0.0
C154 C 0.71187 0.26881 0.1202 0.0
C155 C 0.69704 0.30565 0.05407 0.0
C156 C 0.73492 0.28478 0.00856 0.0
C157 C 0.77735 0.23251 0.05936 0.0
C158 C 0.7633 0.2244 0.12448 0.0
C159 C 0.77358 0.34151 0.97085 0.0
C160 C 0.68836 0.25867 0.96184 0.0
H161 H 0.96925 0.068 0.22796 0.0
H162 H 0.85064 0.12193 0.38991 0.0
H163 H 0.74548 0.08376 0.28236 0.0
H164 H 0.69541 0.15016 0.2431 0.0
H165 H 0.73072 0.13538 0.32901 0.0
H166 H 0.85122 0.23882 0.30286 0.0
H167 H 0.76768 0.24097 0.30301 0.0
H168 H 0.80263 0.27847 0.22783 0.0
H169 H 0.97973 0.1025 0.98639 0.0
H170 H 0.85799 0.22967 0.82205 0.0
H171 H 0.79731 0.25322 0.901 0.0
H172 H 0.99811 0.19211 0.07032 0.0
H173 H 0.02239 0.1116 0.11378 0.0
H174 H 0.98773 0.15963 0.15515 0.0
H175 H 0.86978 0.03839 0.08008 0.0
H176 H 0.90388 0.03153 0.16244 0.0
H177 H 0.95411 0.02865 0.10124 0.0
H178 H 1.00937 0.0328 0.34608 0.0
C179 C 0.94229 0.08067 0.26142 0.0
C180 C 0.38952 0.39551 0.23842 0.0
C181 C 0.43572 0.44293 0.2237 0.0
C182 C 0.45541 0.47417 0.27054 0.0
C183 C 0.38578 0.41055 0.3465 0.0
C184 C 0.36542 0.3797 0.3006 0.0
C185 C 0.31746 0.32938 0.32715 0.0
H186 H 0.14828 0.17939 0.58565 0.0
C187 C 0.35236 0.38427 0.40588 0.0
C188 C 0.31195 0.33642 0.39558 0.0
H189 H 0.14299 0.14099 0.3976 0.0
H190 H 0.21883 0.22465 0.36079 0.0
H191 H 0.29922 0.19997 0.61005 0.0
H192 H 0.13788 0.32365 0.52277 0.0
H193 H 0.19178 0.36703 0.56009 0.0
H194 H 0.16017 0.2946 0.61176 0.0
H195 H 0.2397 0.21375 0.65697 0.0
H196 H 0.30724 0.26412 0.64185 0.0
C197 C 0.34572 0.26427 0.3336 0.0
C198 C 0.25434 0.34581 0.28018 0.0
C199 C 0.39574 0.47734 0.59644 0.0
C200 C 0.36925 0.46711 0.6564 0.0
C201 C 0.32176 0.42119 0.67209 0.0
C202 C 0.30184 0.38565 0.62958 0.0
C203 C 0.32886 0.39644 0.56998 0.0
C204 C 0.37446 0.44209 0.55401 0.0
C205 C 0.39537 0.44955 0.48698 0.0
C206 C 0.35504 0.40042 0.46563 0.0
C207 C 0.31683 0.369 0.51469 0.0
C208 C 0.467 0.43235 0.49839 0.0
C209 C 0.37799 0.51801 0.44052 0.0
C210 C 0.1633 0.18851 0.53654 0.0
C211 C 0.1395 0.15309 0.4948 0.0
C212 C 0.16071 0.16724 0.4311 0.0
C213 C 0.20484 0.21567 0.40986 0.0
C214 C 0.22815 0.25046 0.4527 0.0
C215 C 0.20664 0.23658 0.51463 0.0
C216 C 0.23368 0.27912 0.55324 0.0
C217 C 0.27651 0.32002 0.50544 0.0
C218 C 0.27366 0.30344 0.44628 0.0
C219 C 0.27176 0.23748 0.61932 0.0
C220 C 0.17836 0.318 0.56312 0.0
H221 H 0.44886 0.48389 0.365 0.0
H222 H 0.3737 0.37048 0.20342 0.0
H223 H 0.24551 0.39783 0.26115 0.0
H224 H 0.21308 0.32532 0.30583 0.0
H225 H 0.25511 0.32898 0.23643 0.0
H226 H 0.39566 0.2597 0.3578 0.0
H227 H 0.34533 0.2583 0.28343 0.0
H228 H 0.32043 0.22446 0.36521 0.0
H229 H 0.43237 0.51191 0.58258 0.0
H230 H 0.29905 0.41319 0.7169 0.0
H231 H 0.26583 0.35143 0.64469 0.0
H232 H 0.4795 0.3939 0.54672 0.0
H233 H 0.49648 0.47376 0.50008 0.0
H234 H 0.48152 0.41358 0.45998 0.0
H235 H 0.33642 0.53721 0.45524 0.0
H236 H 0.36334 0.52073 0.3877 0.0
H237 H 0.41791 0.55066 0.44269 0.0
H238 H 0.48934 0.51186 0.25937 0.0
C239 C 0.43113 0.4582 0.3317 0.0
Tb240 Tb 0.06475 0.95479 0.53083 0.0
C241 C 0.88172 0.18924 0.48907 0.0
N242 N 0.94404 0.17765 0.51285 0.0
C243 C 0.9688 0.28424 0.45162 0.0
C244 C 0.86042 0.24941 0.4459 0.0
C245 C 0.98753 0.22424 0.49543 0.0
C246 C 0.90493 0.29697 0.42684 0.0
C247 C 0.77424 0.15079 0.48393 0.0
C248 C 0.83932 0.14018 0.50778 0.0
C249 C 0.75268 0.211 0.44193 0.0
C250 C 0.79559 0.26027 0.42339 0.0
Tb251 Tb 0.96713 0.08058 0.58981 0.0
N252 N 0.86169 0.08254 0.54952 0.0
C253 C 0.73248 0.10095 0.50407 0.0
C254 C 0.81996 0.03559 0.57328 0.0
C255 C 0.75541 0.04331 0.54945 0.0
H256 H 0.03616 0.2161 0.51734 0.0
H257 H 0.72303 1.00537 0.56789 0.0
H258 H 0.99565 0.81928 0.6032 0.0
H259 H 0.30886 0.02993 0.55302 0.0
H260 H 0.83466 0.9931 0.61301 0.0
H261 H 0.68225 0.10712 0.48664 0.0
H262 H 0.19724 0.04226 0.50783 0.0
H263 H 1.00346 0.321 0.43812 0.0
H264 H 0.70285 0.21999 0.4235 0.0
H265 H 0.77823 0.30638 0.39072 0.0
H266 H 0.02829 0.71436 0.6824 0.0
H267 H 0.89043 0.34374 0.39349 0.0
H268 H 0.34959 0.92813 0.63417 0.0
N269 N 0.08778 0.85769 0.60776 0.0
C270 C 0.15009 0.84607 0.63157 0.0
C271 C 0.06297 0.7511 0.66893 0.0
C272 C 0.17136 0.78589 0.67473 0.0
C273 C 0.04427 0.81112 0.62514 0.0
C274 C 0.12683 0.73834 0.69375 0.0
N275 N 0.17018 0.95276 0.57117 0.0
C276 C 0.21192 0.99974 0.54751 0.0
C277 C 0.25759 0.88447 0.63679 0.0
C278 C 0.19252 0.89511 0.6129 0.0
C279 C 0.29937 0.93431 0.61671 0.0
C280 C 0.27646 0.99198 0.57138 0.0
H281 H 0.1413 0.69156 0.72708 0.0
H282 H 0.25352 0.72886 0.72993 0.0
H283 H 0.32894 0.81523 0.69723 0.0
O284 O 0.10363 0.96684 0.44066 0.0
O285 O 0.07458 0.94221 0.63864 0.0
O286 O 0.05927 0.04259 0.64279 0.0
O287 O 0.06286 0.87896 0.49223 0.0
O288 O 0.08659 0.05656 0.49058 0.0
O289 O 0.06626 0.10019 0.57217 0.0
O290 O 0.92826 0.06857 0.67999 0.0
O291 O 0.95732 0.09317 0.482 0.0
O292 O 0.97261 0.99279 0.47785 0.0
O293 O 0.96902 0.15644 0.62838 0.0
O294 O 0.94532 0.97881 0.63008 0.0
O295 O 0.96561 0.9352 0.54847 0.0
C296 C 0.07419 0.98266 0.67212 0.0
C297 C 0.05851 0.90374 0.37571 0.0
C298 C 0.06845 0.8836 0.27056 0.0
C299 C 1.00197 0.88704 0.25575 0.0
C300 C 0.99235 0.90585 0.36046 0.0
C301 C 0.96438 0.89818 0.30039 0.0
C302 C 0.09635 0.8923 0.3309 0.0
C303 C 0.09315 0.10193 0.51864 0.0
C304 C 0.08868 0.91018 0.43957 0.0
C305 C 0.23618 0.77499 0.69727 0.0
C306 C 0.27911 0.82425 0.67877 0.0
C307 C 0.95771 0.05273 0.44852 0.0
C308 C 0.9734 0.13169 0.7449 0.0
C309 C 0.96347 0.15184 0.85005 0.0
C310 C 0.02996 0.1484 0.86485 0.0
C311 C 0.03956 0.12959 0.76014 0.0
C312 C 0.93556 0.14312 0.78973 0.0
C313 C 0.06754 0.13726 0.8202 0.0
C314 C 0.93873 0.93345 0.60201 0.0
C315 C 0.94322 0.12523 0.68105 0.0
H316 H 0.97883 0.88005 0.21011 0.0
H317 H 0.9624 0.91371 0.39485 0.0
H318 H 0.91335 0.90035 0.28861 0.0
H319 H 0.14744 0.89045 0.34297 0.0
H320 H 0.05311 0.15539 0.91049 0.0
H321 H 0.0695 0.12173 0.72574 0.0
H322 H 0.88447 0.14497 0.77766 0.0
H323 H 0.11857 0.1351 0.83197 0.0
Tb324 Tb 0.44839 0.48798 0.0009 0.0
C325 C 0.70755 0.60793 0.06602 0.0
N326 N 0.68417 0.54934 0.09347 0.0
C327 C 0.78373 0.5018 0.09275 0.0
C328 C 0.77027 0.61562 0.0505 0.0
C329 C 0.72141 0.49652 0.10792 0.0
C330 C 0.8083 0.5616 0.06391 0.0
C331 C 0.69015 0.72158 0.02266 0.0
C332 C 0.66745 0.66015 0.05158 0.0
C333 C 0.75293 0.72953 0.00798 0.0
C334 C 0.7929 0.67672 0.02204 0.0
Tb335 Tb 0.58346 0.54733 0.11972 0.0
N336 N 0.60662 0.65072 0.06612 0.0
C337 C 0.64938 0.77331 0.01021 0.0
C338 C 0.56871 0.70162 0.05901 0.0
C339 C 0.5887 0.76328 0.02927 0.0
H340 H 0.70378 0.45049 0.133 0.0
H341 H 0.55785 0.80319 0.02284 0.0
H342 H 0.32802 0.58467 0.98787 0.0
H343 H 0.47424 0.23214 0.09748 0.0
H344 H 0.52421 0.69606 0.07878 0.0
H345 H 0.66496 0.82122 0.98793 0.0
H346 H 0.50772 0.33932 0.04153 0.0
H347 H 0.81303 0.45981 0.10417 0.0
H348 H 0.77107 0.77636 0.98574 0.0
H349 H 0.84109 0.68364 0.01008 0.0
H350 H 0.21882 0.57521 0.01685 0.0
H351 H 0.85672 0.56555 0.05253 0.0
H352 H 0.36721 0.21396 0.13259 0.0
N353 N 0.34772 0.48583 0.02729 0.0
C354 C 0.3244 0.42721 0.05473 0.0
C355 C 0.24815 0.53325 0.02819 0.0
C356 C 0.26172 0.41944 0.07034 0.0
C357 C 0.31044 0.53861 0.01294 0.0
C358 C 0.22365 0.47342 0.05703 0.0
N359 N 0.42533 0.38454 0.0544 0.0
C360 C 0.46328 0.33369 0.0614 0.0
C361 C 0.34193 0.31357 0.09799 0.0
C362 C 0.36454 0.37503 0.06908 0.0
C363 C 0.38273 0.26189 0.11032 0.0
C364 C 0.44336 0.272 0.09114 0.0
H365 H 0.17526 0.46941 0.06848 0.0
H366 H 0.191 0.35133 0.11083 0.0
H367 H 0.26109 0.25869 0.13501 0.0
O368 O 0.45247 0.44807 0.9236 0.0
O369 O 0.42811 0.4775 0.1032 0.0
O370 O 0.52679 0.46472 0.16473 0.0
O371 O 0.37839 0.51386 0.91777 0.0
O372 O 0.5437 0.44457 0.01857 0.0
O373 O 0.58101 0.44806 0.12451 0.0
O374 O 0.57933 0.58734 0.19694 0.0
O375 O 0.60374 0.55785 0.01741 0.0
O376 O 0.50505 0.5706 0.9559 0.0
O377 O 0.65342 0.52151 0.20289 0.0
O378 O 0.48817 0.59078 0.10203 0.0
O379 O 0.45081 0.58726 0.99611 0.0
C380 C 0.46473 0.46111 0.16074 0.0
C381 C 0.40765 0.51103 0.81572 0.0
C382 C 0.39021 0.50422 0.7023 0.0
C383 C 0.40586 0.56853 0.67721 0.0
C384 C 0.4225 0.57521 0.79003 0.0
C385 C 0.42236 0.60351 0.721 0.0
C386 C 0.39267 0.47575 0.77203 0.0
C387 C 0.5833 0.42555 0.07439 0.0
C388 C 0.40321 0.48026 0.88721 0.0
C389 C 0.23916 0.35831 0.09881 0.0
C390 C 0.27918 0.30555 0.11277 0.0
C391 C 0.56711 0.57423 0.95988 0.0
C392 C 0.62408 0.52443 0.30486 0.0
C393 C 0.64146 0.53131 0.41825 0.0
C394 C 0.6258 0.46701 0.44338 0.0
C395 C 0.6092 0.46026 0.33059 0.0
C396 C 0.63903 0.55974 0.34853 0.0
C397 C 0.60931 0.432 0.39962 0.0
C398 C 0.44854 0.60977 0.04623 0.0
C399 C 0.62857 0.55516 0.23338 0.0
H400 H 0.40395 0.59232 0.62379 0.0
H401 H 0.43392 0.60332 0.82318 0.0
H402 H 0.43395 0.653 0.70124 0.0
H403 H 0.38206 0.42603 0.79273 0.0
H404 H 0.62768 0.44326 0.4968 0.0
H405 H 0.5978 0.43213 0.29746 0.0
H406 H 0.64966 0.60946 0.3278 0.0
H407 H 0.5977 0.38252 0.4194 0.0
loop_
_geom_bond_atom_site_label_1
_geom_bond_atom_site_label_2
_geom_bond_distance
_geom_bond_site_symmetry_2
_ccdc_geom_bond_type
C0 C1 1.391 . S
C0 C4 1.391 . S
C0 H42 0.948 . S
C1 C0 1.391 . S
C1 C2 1.391 1_565 S
C2 C1 1.391 1_545 S
C2 H58 0.947 . S
C2 C59 1.392 1_545 S
C3 C4 1.391 . S
C3 C7 1.397 . S
C3 C59 1.419 . S
C4 C0 1.391 . S
C4 C3 1.391 . S
C4 C5 1.399 . S
C5 C4 1.399 . S
C5 C8 1.396 . S
C5 C17 1.453 . S
C5 C18 1.684 . S
H6 C30 0.948 . S
C7 C3 1.397 . S
C7 C8 1.394 . S
C7 C26 1.723 1_556 S
C8 C5 1.396 . S
C8 C7 1.394 . S
C8 C38 1.723 1_556 S
H9 C32 0.947 . S
H10 C33 0.948 . S
H11 C39 0.982 . S
H12 C40 0.979 . S
H13 C40 0.980 . S
H14 C40 0.983 . S
H15 C39 0.979 . S
H16 C39 0.977 . S
C17 C5 1.453 . S
C17 H46 0.982 . S
C17 H47 0.979 . S
C17 H48 0.977 . S
C18 C5 1.684 . S
C18 H43 0.979 . S
C18 H44 0.980 . S
C18 H45 0.983 . S
C19 C20 1.391 . S
C19 C24 1.391 . S
C19 H49 0.948 . S
C20 C19 1.391 . S
C20 C21 1.391 . S
C21 C20 1.391 . S
C21 C22 1.392 . S
C21 H50 0.947 . S
C22 C21 1.392 . S
C22 C23 1.419 . S
C22 H51 0.948 . S
C23 C22 1.419 . S
C23 C24 1.391 . S
C23 C27 1.397 . S
C24 C19 1.391 . S
C24 C23 1.391 . S
C24 C25 1.399 . S
C25 C24 1.399 . S
C25 C26 1.396 . S
C25 C28 1.453 1_565 S
C25 C29 1.684 . S
C26 C7 1.723 1_554 S
C26 C25 1.396 . S
C26 C27 1.394 . S
C27 C23 1.397 . S
C27 C26 1.394 . S
C27 C37 1.723 . S
C28 C25 1.453 1_545 S
C28 H52 0.982 . S
C28 H53 0.979 . S
C28 H54 0.977 1_554 S
C29 C25 1.684 . S
C29 H55 0.979 . S
C29 H56 0.980 1_554 S
C29 H57 0.983 . S
C30 H6 0.948 . S
C30 C31 1.391 . S
C30 C35 1.391 . S
C31 C30 1.391 . S
C31 C32 1.391 1_554 S
C32 H9 0.947 . S
C32 C31 1.391 1_556 S
C32 C33 1.392 . S
C33 H10 0.948 . S
C33 C32 1.392 . S
C33 C34 1.419 1_556 S
C34 C33 1.419 1_554 S
C34 C35 1.391 . S
C34 C38 1.397 . S
C35 C30 1.391 . S
C35 C34 1.391 . S
C35 C36 1.399 . S
C36 C35 1.399 . S
C36 C37 1.396 . S
C36 C39 1.453 . S
C36 C40 1.684 . S
C37 C27 1.723 . S
C37 C36 1.396 . S
C37 C38 1.394 . S
C38 C8 1.723 1_554 S
C38 C34 1.397 . S
C38 C37 1.394 . S
C39 H11 0.982 . S
C39 H15 0.979 . S
C39 H16 0.977 . S
C39 C36 1.453 . S
C40 H12 0.979 . S
C40 H13 0.980 . S
C40 H14 0.983 . S
C40 C36 1.684 . S
H41 C59 0.948 . S
H42 C0 0.948 . S
H43 C18 0.979 . S
H44 C18 0.980 . S
H45 C18 0.983 . S
H46 C17 0.982 . S
H47 C17 0.979 . S
H48 C17 0.977 . S
H49 C19 0.948 . S
H50 C21 0.947 . S
H51 C22 0.948 . S
H52 C28 0.982 . S
H53 C28 0.979 . S
H54 C28 0.977 1_556 S
H55 C29 0.979 . S
H56 C29 0.980 1_556 S
H57 C29 0.983 . S
H58 C2 0.947 . S
C59 C2 1.392 1_565 S
C59 C3 1.419 . S
C59 H41 0.948 . S
C60 C61 1.391 . S
C60 C64 1.391 . S
C60 H102 0.948 . S
C61 C60 1.391 . S
C61 C62 1.391 . S
C62 C61 1.391 . S
C62 H118 0.947 . S
C62 C119 1.392 . S
C63 C64 1.391 . S
C63 C67 1.397 . S
C63 C119 1.419 . S
C64 C60 1.391 . S
C64 C63 1.391 . S
C64 C65 1.399 . S
C65 C64 1.399 . S
C65 C68 1.396 . S
C65 C77 1.453 . S
C65 C78 1.684 . S
H66 C90 0.948 . S
C67 C63 1.397 . S
C67 C68 1.394 . S
C67 C86 1.723 . S
C68 C65 1.396 . S
C68 C67 1.394 . S
C68 C98 1.723 . S
H69 C92 0.947 . S
H70 C93 0.948 . S
H71 C99 0.982 . S
H72 C100 0.979 . S
H73 C100 0.980 . S
H74 C100 0.983 . S
H75 C99 0.979 . S
H76 C99 0.977 . S
C77 C65 1.453 . S
C77 H106 0.982 . S
C77 H107 0.979 . S
C77 H108 0.977 . S
C78 C65 1.684 . S
C78 H103 0.979 . S
C78 H104 0.980 . S
C78 H105 0.983 . S
C79 C80 1.391 . S
C79 C84 1.391 . S
C79 H109 0.948 . S
C80 C79 1.391 . S
C80 C81 1.391 . S
C81 C80 1.391 . S
C81 C82 1.392 . S
C81 H110 0.947 . S
C82 C81 1.392 . S
C82 C83 1.419 . S
C82 H111 0.948 . S
C83 C82 1.419 . S
C83 C84 1.391 . S
C83 C87 1.397 . S
C84 C79 1.391 . S
C84 C83 1.391 . S
C84 C85 1.399 . S
C85 C84 1.399 . S
C85 C86 1.396 . S
C85 C88 1.453 . S
C85 C89 1.684 . S
C86 C67 1.723 . S
C86 C85 1.396 . S
C86 C87 1.394 . S
C87 C83 1.397 . S
C87 C86 1.394 . S
C87 C97 1.723 . S
C88 C85 1.453 . S
C88 H112 0.982 . S
C88 H113 0.979 . S
C88 H114 0.977 . S
C89 C85 1.684 . S
C89 H115 0.979 . S
C89 H116 0.980 . S
C89 H117 0.983 . S
C90 H66 0.948 . S
C90 C91 1.391 . S
C90 C95 1.391 . S
C91 C90 1.391 . S
C91 C92 1.391 . S
C92 H69 0.947 . S
C92 C91 1.391 . S
C92 C93 1.392 . S
C93 H70 0.948 . S
C93 C92 1.392 . S
C93 C94 1.419 . S
C94 C93 1.419 . S
C94 C95 1.391 . S
C94 C98 1.397 . S
C95 C90 1.391 . S
C95 C94 1.391 . S
C95 C96 1.399 . S
C96 C95 1.399 . S
C96 C97 1.396 . S
C96 C99 1.453 . S
C96 C100 1.684 . S
C97 C87 1.723 . S
C97 C96 1.396 . S
C97 C98 1.394 . S
C98 C68 1.723 . S
C98 C94 1.397 . S
C98 C97 1.394 . S
C99 H71 0.982 . S
C99 H75 0.979 . S
C99 H76 0.977 . S
C99 C96 1.453 . S
C100 H72 0.979 . S
C100 H73 0.980 . S
C100 H74 0.983 . S
C100 C96 1.684 . S
H101 C119 0.948 . S
H102 C60 0.948 . S
H103 C78 0.979 . S
H104 C78 0.980 . S
H105 C78 0.983 . S
H106 C77 0.982 . S
H107 C77 0.979 . S
H108 C77 0.977 . S
H109 C79 0.948 . S
H110 C81 0.947 . S
H111 C82 0.948 . S
H112 C88 0.982 . S
H113 C88 0.979 . S
H114 C88 0.977 . S
H115 C89 0.979 . S
H116 C89 0.980 . S
H117 C89 0.983 . S
H118 C62 0.947 . S
C119 C62 1.392 . S
C119 C63 1.419 . S
C119 H101 0.948 . S
C120 C121 1.391 . S
C120 C124 1.391 . S
C120 H162 0.948 . S
C121 C120 1.391 . S
C121 C122 1.391 1_545 S
C122 C121 1.391 1_565 S
C122 H178 0.947 . S
C122 C179 1.392 1_565 S
C123 C124 1.391 . S
C123 C127 1.397 . S
C123 C179 1.419 . S
C124 C120 1.391 . S
C124 C123 1.391 . S
C124 C125 1.399 . S
C125 C124 1.399 . S
C125 C128 1.396 . S
C125 C137 1.453 . S
C125 C138 1.684 . S
H126 C150 0.948 1_556 S
C127 C123 1.397 . S
C127 C128 1.394 . S
C127 C146 1.723 . S
C128 C125 1.396 . S
C128 C127 1.394 . S
C128 C158 1.723 . S
H129 C152 0.947 . S
H130 C153 0.948 . S
H131 C159 0.982 . S
H132 C160 0.979 . S
H133 C160 0.980 . S
H134 C160 0.983 . S
H135 C159 0.979 . S
H136 C159 0.977 . S
C137 C125 1.453 . S
C137 H166 0.982 . S
C137 H167 0.979 . S
C137 H168 0.977 . S
C138 C125 1.684 . S
C138 H163 0.979 . S
C138 H164 0.980 . S
C138 H165 0.983 . S
C139 C140 1.391 . S
C139 C144 1.391 1_556 S
C139 H169 0.948 . S
C140 C139 1.391 . S
C140 C141 1.391 . S
C141 C140 1.391 . S
C141 C142 1.392 . S
C141 H170 0.947 . S
C142 C141 1.392 . S
C142 C143 1.419 . S
C142 H171 0.948 . S
C143 C142 1.419 . S
C143 C144 1.391 1_556 S
C143 C147 1.397 1_556 S
C144 C139 1.391 1_554 S
C144 C143 1.391 1_554 S
C144 C145 1.399 . S
C145 C144 1.399 . S
C145 C146 1.396 . S
C145 C148 1.453 . S
C145 C149 1.684 1_545 S
C146 C127 1.723 . S
C146 C145 1.396 . S
C146 C147 1.394 . S
C147 C143 1.397 1_554 S
C147 C146 1.394 . S
C147 C157 1.723 . S
C148 C145 1.453 . S
C148 H172 0.982 . S
C148 H173 0.979 . S
C148 H174 0.977 . S
C149 C145 1.684 1_565 S
C149 H175 0.979 . S
C149 H176 0.980 . S
C149 H177 0.983 . S
C150 H126 0.948 1_554 S
C150 C151 1.391 . S
C150 C155 1.391 . S
C151 C150 1.391 . S
C151 C152 1.391 . S
C152 H129 0.947 . S
C152 C151 1.391 . S
C152 C153 1.392 . S
C153 H130 0.948 . S
C153 C152 1.392 . S
C153 C154 1.419 . S
C154 C153 1.419 . S
C154 C155 1.391 . S
C154 C158 1.397 . S
C155 C150 1.391 . S
C155 C154 1.391 . S
C155 C156 1.399 . S
C156 C155 1.399 . S
C156 C157 1.396 . S
C156 C159 1.453 1_554 S
C156 C160 1.684 1_554 S
C157 C147 1.723 . S
C157 C156 1.396 . S
C157 C158 1.394 . S
C158 C128 1.723 . S
C158 C154 1.397 . S
C158 C157 1.394 . S
C159 H131 0.982 . S
C159 H135 0.979 . S
C159 H136 0.977 . S
C159 C156 1.453 1_556 S
C160 H132 0.979 . S
C160 H133 0.980 . S
C160 H134 0.983 . S
C160 C156 1.684 1_556 S
H161 C179 0.948 1_565 S
H162 C120 0.948 . S
H163 C138 0.979 . S
H164 C138 0.980 . S
H165 C138 0.983 . S
H166 C137 0.982 . S
H167 C137 0.979 . S
H168 C137 0.977 . S
H169 C139 0.948 . S
H170 C141 0.947 . S
H171 C142 0.948 . S
H172 C148 0.982 . S
H173 C148 0.979 . S
H174 C148 0.977 . S
H175 C149 0.979 . S
H176 C149 0.980 . S
H177 C149 0.983 . S
H178 C122 0.947 . S
C179 C122 1.392 1_545 S
C179 C123 1.419 . S
C179 H161 0.948 1_545 S
C180 C181 1.391 . S
C180 C184 1.391 . S
C180 H222 0.948 . S
C181 C180 1.391 . S
C181 C182 1.391 . S
C182 C181 1.391 . S
C182 H238 0.947 . S
C182 C239 1.392 . S
C183 C184 1.391 . S
C183 C187 1.397 . S
C183 C239 1.419 . S
C184 C180 1.391 . S
C184 C183 1.391 . S
C184 C185 1.399 . S
C185 C184 1.399 . S
C185 C188 1.396 . S
C185 C197 1.453 . S
C185 C198 1.684 . S
H186 C210 0.948 . S
C187 C183 1.397 . S
C187 C188 1.394 . S
C187 C206 1.723 . S
C188 C185 1.396 . S
C188 C187 1.394 . S
C188 C218 1.723 . S
H189 C212 0.947 . S
H190 C213 0.948 . S
H191 C219 0.982 . S
H192 C220 0.979 . S
H193 C220 0.980 . S
H194 C220 0.983 . S
H195 C219 0.979 . S
H196 C219 0.977 . S
C197 C185 1.453 . S
C197 H226 0.982 . S
C197 H227 0.979 . S
C197 H228 0.977 . S
C198 C185 1.684 . S
C198 H223 0.979 . S
C198 H224 0.980 . S
C198 H225 0.983 . S
C199 C200 1.391 . S
C199 C204 1.391 . S
C199 H229 0.948 . S
C200 C199 1.391 . S
C200 C201 1.391 . S
C201 C200 1.391 . S
C201 C202 1.392 . S
C201 H230 0.947 . S
C202 C201 1.392 . S
C202 C203 1.419 . S
C202 H231 0.948 . S
C203 C202 1.419 . S
C203 C204 1.391 . S
C203 C207 1.397 . S
C204 C199 1.391 . S
C204 C203 1.391 . S
C204 C205 1.399 . S
C205 C204 1.399 . S
C205 C206 1.396 . S
C205 C208 1.453 . S
C205 C209 1.684 . S
C206 C187 1.723 . S
C206 C205 1.396 . S
C206 C207 1.394 . S
C207 C203 1.397 . S
C207 C206 1.394 . S
C207 C217 1.723 . S
C208 C205 1.453 . S
C208 H232 0.982 . S
C208 H233 0.979 . S
C208 H234 0.977 . S
C209 C205 1.684 . S
C209 H235 0.979 . S
C209 H236 0.980 . S
C209 H237 0.983 . S
C210 H186 0.948 . S
C210 C211 1.391 . S
C210 C215 1.391 . S
C211 C210 1.391 . S
C211 C212 1.391 . S
C212 H189 0.947 . S
C212 C211 1.391 . S
C212 C213 1.392 . S
C213 H190 0.948 . S
C213 C212 1.392 . S
C213 C214 1.419 . S
C214 C213 1.419 . S
C214 C215 1.391 . S
C214 C218 1.397 . S
C215 C210 1.391 . S
C215 C214 1.391 . S
C215 C216 1.399 . S
C216 C215 1.399 . S
C216 C217 1.396 . S
C216 C219 1.453 . S
C216 C220 1.684 . S
C217 C207 1.723 . S
C217 C216 1.396 . S
C217 C218 1.394 . S
C218 C188 1.723 . S
C218 C214 1.397 . S
C218 C217 1.394 . S
C219 H191 0.982 . S
C219 H195 0.979 . S
C219 H196 0.977 . S
C219 C216 1.453 . S
C220 H192 0.979 . S
C220 H193 0.980 . S
C220 H194 0.983 . S
C220 C216 1.684 . S
H221 C239 0.948 . S
H222 C180 0.948 . S
H223 C198 0.979 . S
H224 C198 0.980 . S
H225 C198 0.983 . S
H226 C197 0.982 . S
H227 C197 0.979 . S
H228 C197 0.977 . S
H229 C199 0.948 . S
H230 C201 0.947 . S
H231 C202 0.948 . S
H232 C208 0.982 . S
H233 C208 0.979 . S
H234 C208 0.977 . S
H235 C209 0.979 . S
H236 C209 0.980 . S
H237 C209 0.983 . S
H238 C182 0.947 . S
C239 C182 1.392 . S
C239 C183 1.419 . S
C239 H221 0.948 . S
Tb240 N269 2.617 . S
Tb240 N275 2.572 . S
Tb240 O284 2.465 . S
Tb240 O285 2.387 . S
Tb240 O287 2.428 . S
Tb240 O288 2.308 1_565 S
Tb240 O292 2.349 1_465 S
Tb240 O295 2.393 1_455 S
Tb240 C304 2.802 . S
C241 N242 1.379 . S
C241 C244 1.416 . S
C241 C248 1.424 . S
N242 C241 1.379 . S
N242 C245 1.334 . S
N242 Tb251 2.617 . S
C243 C245 1.390 . S
C243 C246 1.339 . S
C243 H263 0.930 1_655 S
C244 C241 1.416 . S
C244 C246 1.416 . S
C244 C250 1.448 . S
C245 N242 1.334 . S
C245 C243 1.390 . S
C245 H256 0.930 1_655 S
C246 C243 1.339 . S
C246 C244 1.416 . S
C246 H267 0.930 . S
C247 C248 1.413 . S
C247 C249 1.427 . S
C247 C253 1.416 . S
C248 C241 1.424 . S
C248 C247 1.413 . S
C248 N252 1.361 . S
C249 C247 1.427 . S
C249 C250 1.328 . S
C249 H264 0.929 . S
C250 C244 1.448 . S
C250 C249 1.328 . S
C250 H265 0.930 . S
Tb251 N242 2.617 . S
Tb251 N252 2.572 . S
Tb251 O286 2.349 1_655 S
Tb251 O289 2.393 1_655 S
Tb251 O290 2.465 . S
Tb251 O291 2.387 . S
Tb251 O293 2.428 . S
Tb251 O294 2.308 1_545 S
Tb251 C315 2.802 . S
N252 C248 1.361 . S
N252 Tb251 2.572 . S
N252 C254 1.340 . S
C253 C247 1.416 . S
C253 C255 1.332 . S
C253 H261 0.931 . S
C254 N252 1.340 . S
C254 C255 1.407 . S
C254 H260 0.930 . S
C255 C253 1.332 . S
C255 C254 1.407 . S
C255 H257 0.929 . S
H256 C245 0.930 1_455 S
H257 C255 0.929 . S
H258 C273 0.930 1_655 S
H259 C280 0.929 . S
H260 C254 0.930 . S
H261 C253 0.931 . S
H262 C276 0.930 . S
H263 C243 0.930 1_455 S
H264 C249 0.929 . S
H265 C250 0.930 . S
H266 C271 0.930 1_655 S
H267 C246 0.930 . S
H268 C279 0.931 . S
N269 Tb240 2.617 . S
N269 C270 1.379 . S
N269 C273 1.334 . S
C270 N269 1.379 . S
C270 C272 1.416 . S
C270 C278 1.424 . S
C271 H266 0.930 1_455 S
C271 C273 1.390 . S
C271 C274 1.339 . S
C272 C270 1.416 . S
C272 C274 1.416 . S
C272 C305 1.448 . S
C273 H258 0.930 1_455 S
C273 N269 1.334 . S
C273 C271 1.390 . S
C274 C271 1.339 . S
C274 C272 1.416 . S
C274 H281 0.930 . S
N275 Tb240 2.572 . S
N275 C276 1.340 . S
N275 C278 1.361 . S
C276 H262 0.930 . S
C276 N275 1.340 . S
C276 C280 1.407 . S
C277 C278 1.413 . S
C277 C279 1.416 . S
C277 C306 1.427 . S
C278 C270 1.424 . S
C278 N275 1.361 . S
C278 C277 1.413 . S
C279 H268 0.931 . S
C279 C277 1.416 . S
C279 C280 1.332 . S
C280 H259 0.929 . S
C280 C276 1.407 . S
C280 C279 1.332 . S
H281 C274 0.930 . S
H282 C305 0.930 . S
H283 C306 0.929 . S
O284 Tb240 2.465 . S
O284 C304 1.264 . S
O285 Tb240 2.387 . S
O285 C296 1.264 . S
O286 Tb251 2.349 1_455 S
O286 C296 1.243 1_545 S
O287 Tb240 2.428 . S
O287 C304 1.256 . S
O288 Tb240 2.308 1_545 S
O288 C303 1.266 . S
O289 Tb251 2.393 1_455 S
O289 C303 1.248 . S
O290 Tb251 2.465 . S
O290 C315 1.264 . S
O291 Tb251 2.387 . S
O291 C307 1.264 . S
O292 Tb240 2.349 1_645 S
O292 C307 1.243 . S
O293 Tb251 2.428 . S
O293 C315 1.256 . S
O294 Tb251 2.308 1_565 S
O294 C314 1.266 . S
O295 Tb240 2.393 1_655 S
O295 C314 1.248 . S
C296 O285 1.264 . S
C296 O286 1.243 1_565 S
C297 C300 1.399 . S
C297 C302 1.383 . S
C297 C304 1.496 . S
C298 C299 1.399 . S
C298 C302 1.389 . S
C299 C298 1.399 . S
C299 C301 1.380 . S
C299 H316 0.929 . S
C300 C297 1.399 . S
C300 C301 1.392 . S
C300 H317 0.929 . S
C301 C299 1.380 . S
C301 C300 1.392 . S
C301 H318 0.929 . S
C302 C297 1.383 . S
C302 C298 1.389 . S
C302 H319 0.931 . S
C303 O288 1.266 . S
C303 O289 1.248 . S
C304 Tb240 2.802 . S
C304 O284 1.264 . S
C304 O287 1.256 . S
C304 C297 1.496 . S
C305 C272 1.448 . S
C305 H282 0.930 . S
C305 C306 1.328 . S
C306 C277 1.427 . S
C306 H283 0.929 . S
C306 C305 1.328 . S
C307 O291 1.264 . S
C307 O292 1.243 . S
C308 C311 1.399 . S
C308 C312 1.383 . S
C308 C315 1.496 . S
C309 C310 1.399 . S
C309 C312 1.389 . S
C310 C309 1.399 . S
C310 C313 1.380 . S
C310 H320 0.929 . S
C311 C308 1.399 . S
C311 C313 1.392 . S
C311 H321 0.929 . S
C312 C308 1.383 . S
C312 C309 1.389 . S
C312 H322 0.931 . S
C313 C310 1.380 . S
C313 C311 1.392 . S
C313 H323 0.929 . S
C314 O294 1.266 . S
C314 O295 1.248 . S
C315 Tb251 2.802 . S
C315 O290 1.264 . S
C315 O293 1.256 . S
C315 C308 1.496 . S
H316 C299 0.929 . S
H317 C300 0.929 . S
H318 C301 0.929 . S
H319 C302 0.931 . S
H320 C310 0.929 . S
H321 C311 0.929 . S
H322 C312 0.931 . S
H323 C313 0.929 . S
Tb324 N353 2.614 1_556 S
Tb324 N359 2.570 1_556 S
Tb324 O368 2.476 . S
Tb324 O369 2.374 1_556 S
Tb324 O371 2.439 . S
Tb324 O372 2.305 1_556 S
Tb324 O376 2.355 . S
Tb324 O379 2.389 . S
Tb324 C388 2.815 . S
C325 N326 1.379 . S
C325 C328 1.416 . S
C325 C332 1.424 . S
N326 C325 1.379 . S
N326 C329 1.334 . S
N326 Tb335 2.617 . S
C327 C329 1.390 . S
C327 C330 1.339 . S
C327 H347 0.930 . S
C328 C325 1.416 . S
C328 C330 1.416 . S
C328 C334 1.448 . S
C329 N326 1.334 . S
C329 C327 1.390 . S
C329 H340 0.930 . S
C330 C327 1.339 . S
C330 C328 1.416 . S
C330 H351 0.930 . S
C331 C332 1.413 . S
C331 C333 1.427 . S
C331 C337 1.416 . S
C332 C325 1.424 . S
C332 C331 1.413 . S
C332 N336 1.361 . S
C333 C331 1.427 . S
C333 C334 1.328 . S
C333 H348 0.929 . S
C334 C328 1.448 . S
C334 C333 1.328 . S
C334 H349 0.930 . S
Tb335 N326 2.617 . S
Tb335 N336 2.572 . S
Tb335 O370 2.349 . S
Tb335 O373 2.393 . S
Tb335 O374 2.465 . S
Tb335 O375 2.387 . S
Tb335 O377 2.428 . S
Tb335 O378 2.308 . S
Tb335 C399 2.802 . S
N336 C332 1.361 . S
N336 Tb335 2.572 . S
N336 C338 1.340 . S
C337 C331 1.416 . S
C337 C339 1.332 . S
C337 H345 0.931 . S
C338 N336 1.340 . S
C338 C339 1.407 . S
C338 H344 0.930 . S
C339 C337 1.332 . S
C339 C338 1.407 . S
C339 H341 0.929 . S
H340 C329 0.930 . S
H341 C339 0.929 . S
H342 C357 0.930 . S
H343 C364 0.929 . S
H344 C338 0.930 . S
H345 C337 0.931 . S
H346 C360 0.930 . S
H347 C327 0.930 . S
H348 C333 0.929 . S
H349 C334 0.930 . S
H350 C355 0.930 . S
H351 C330 0.930 . S
H352 C363 0.931 . S
N353 Tb324 2.614 1_554 S
N353 C354 1.380 . S
N353 C357 1.335 1_554 S
C354 N353 1.380 . S
C354 C356 1.416 . S
C354 C362 1.424 . S
C355 H350 0.930 . S
C355 C357 1.390 . S
C355 C358 1.339 1_556 S
C356 C354 1.416 . S
C356 C358 1.416 . S
C356 C389 1.448 . S
C357 H342 0.930 . S
C357 N353 1.335 1_556 S
C357 C355 1.390 . S
C358 C355 1.339 1_554 S
C358 C356 1.416 . S
C358 H365 0.930 . S
N359 Tb324 2.570 1_554 S
N359 C360 1.340 . S
N359 C362 1.361 . S
C360 H346 0.930 . S
C360 N359 1.340 . S
C360 C364 1.407 . S
C361 C362 1.413 . S
C361 C363 1.416 . S
C361 C390 1.427 . S
C362 C354 1.424 . S
C362 N359 1.361 . S
C362 C361 1.413 . S
C363 H352 0.931 . S
C363 C361 1.416 . S
C363 C364 1.332 . S
C364 H343 0.929 . S
C364 C360 1.407 . S
C364 C363 1.332 . S
H365 C358 0.930 . S
H366 C389 0.930 . S
H367 C390 0.929 . S
O368 Tb324 2.476 . S
O368 C388 1.264 . S
O369 Tb324 2.374 1_554 S
O369 C380 1.264 . S
O370 Tb335 2.349 . S
O370 C380 1.243 . S
O371 Tb324 2.439 . S
O371 C388 1.256 . S
O372 Tb324 2.305 1_554 S
O372 C387 1.266 . S
O373 Tb335 2.393 . S
O373 C387 1.248 . S
O374 Tb335 2.465 . S
O374 C399 1.264 . S
O375 Tb335 2.387 . S
O375 C391 1.264 1_554 S
O376 Tb324 2.355 . S
O376 C391 1.243 . S
O377 Tb335 2.428 . S
O377 C399 1.256 . S
O378 Tb335 2.308 . S
O378 C398 1.266 . S
O379 Tb324 2.389 . S
O379 C398 1.246 1_556 S
C380 O369 1.264 . S
C380 O370 1.243 . S
C381 C384 1.399 . S
C381 C386 1.383 . S
C381 C388 1.496 . S
C382 C383 1.399 . S
C382 C386 1.389 . S
C383 C382 1.399 . S
C383 C385 1.380 . S
C383 H400 0.929 . S
C384 C381 1.399 . S
C384 C385 1.392 . S
C384 H401 0.929 . S
C385 C383 1.380 . S
C385 C384 1.392 . S
C385 H402 0.929 . S
C386 C381 1.383 . S
C386 C382 1.389 . S
C386 H403 0.931 . S
C387 O372 1.266 . S
C387 O373 1.248 . S
C388 Tb324 2.815 . S
C388 O368 1.264 . S
C388 O371 1.256 . S
C388 C381 1.496 . S
C389 C356 1.448 . S
C389 H366 0.930 . S
C389 C390 1.328 . S
C390 C361 1.427 . S
C390 H367 0.929 . S
C390 C389 1.328 . S
C391 O375 1.264 1_556 S
C391 O376 1.243 . S
C392 C395 1.399 . S
C392 C396 1.383 . S
C392 C399 1.496 . S
C393 C394 1.399 . S
C393 C396 1.389 . S
C394 C393 1.399 . S
C394 C397 1.380 . S
C394 H404 0.929 . S
C395 C392 1.399 . S
C395 C397 1.392 . S
C395 H405 0.929 . S
C396 C392 1.383 . S
C396 C393 1.389 . S
C396 H406 0.931 . S
C397 C394 1.380 . S
C397 C395 1.392 . S
C397 H407 0.929 . S
C398 O378 1.266 . S
C398 O379 1.246 1_554 S
C399 Tb335 2.802 . S
C399 O374 1.264 . S
C399 O377 1.256 . S
C399 C392 1.496 . S
H400 C383 0.929 . S
H401 C384 0.929 . S
H402 C385 0.929 . S
H403 C386 0.931 . S
H404 C394 0.929 . S
H405 C395 0.929 . S
H406 C396 0.931 . S
H407 C397 0.929 . S
C303 C211 2.178 . S
C31 C398 1.922 . S
C91 C314 2.274 . S
C151 C387 2.121 . S
C298 C20 1.471 . S
C391 C61 1.843 . S
C121 C307 2.289 . S
C200 C382 1.353 . S
C393 C80 1.510 . S
C309 C140 1.659 . S
C380 C181 1.714 . S
C1 C296 2.075 . S
