# Generated by pormake.
# Topology wbl, (4,4)-cn, num edge types: 1
# Building blocks:
#     Node 0, Type 0, BuildingBlock: MUDLON_clean_linker_0, # of connection points: 4
#     Node 1, Type 0, BuildingBlock: MUDLON_clean_linker_0, # of connection points: 4
#     Node 2, Type 0, BuildingBlock: MUDLON_clean_linker_0, # of connection points: 4
#     Node 3, Type 0, BuildingBlock: MUDLON_clean_linker_0, # of connection points: 4
#     Node 4, Type 0, BuildingBlock: MUDLON_clean_linker_0, # of connection points: 4
#     Node 5, Type 0, BuildingBlock: MUDLON_clean_linker_0, # of connection points: 4
#     Node 6, Type 0, BuildingBlock: MUDLON_clean_linker_0, # of connection points: 4
#     Node 7, Type 0, BuildingBlock: MUDLON_clean_linker_0, # of connection points: 4
#     Node 8, Type 1, BuildingBlock: GALJAG_clean_sbu_0, # of connection points: 4
#     Node 9, Type 1, BuildingBlock: GALJAG_clean_sbu_0, # of connection points: 4
#     Node 10, Type 1, BuildingBlock: GALJAG_clean_sbu_0, # of connection points: 4
#     Node 11, Type 1, BuildingBlock: GALJAG_clean_sbu_0, # of connection points: 4
#     Node 12, Type 1, BuildingBlock: GALJAG_clean_sbu_0, # of connection points: 4
#     Node 13, Type 1, BuildingBlock: GALJAG_clean_sbu_0, # of connection points: 4
#     Node 14, Type 1, BuildingBlock: GALJAG_clean_sbu_0, # of connection points: 4
#     Node 15, Type 1, BuildingBlock: GALJAG_clean_sbu_0, # of connection points: 4
#     Edge 16, Type (0, 1), BuildingBlock: XIVTED_clean_linker_0, # of connection points: 2
#     Edge 17, Type (0, 1), BuildingBlock: XIVTED_clean_linker_0, # of connection points: 2
#     Edge 18, Type (0, 1), BuildingBlock: XIVTED_clean_linker_0, # of connection points: 2
#     Edge 19, Type (0, 1), BuildingBlock: XIVTED_clean_linker_0, # of connection points: 2
#     Edge 20, Type (0, 1), BuildingBlock: XIVTED_clean_linker_0, # of connection points: 2
#     Edge 21, Type (0, 1), BuildingBlock: XIVTED_clean_linker_0, # of connection points: 2
#     Edge 22, Type (0, 1), BuildingBlock: XIVTED_clean_linker_0, # of connection points: 2
#     Edge 23, Type (0, 1), BuildingBlock: XIVTED_clean_linker_0, # of connection points: 2
#     Edge 24, Type (0, 1), BuildingBlock: XIVTED_clean_linker_0, # of connection points: 2
#     Edge 25, Type (0, 1), BuildingBlock: XIVTED_clean_linker_0, # of connection points: 2
#     Edge 26, Type (0, 1), BuildingBlock: XIVTED_clean_linker_0, # of connection points: 2
#     Edge 27, Type (0, 1), BuildingBlock: XIVTED_clean_linker_0, # of connection points: 2
#     Edge 28, Type (0, 1), BuildingBlock: XIVTED_clean_linker_0, # of connection points: 2
#     Edge 29, Type (0, 1), BuildingBlock: XIVTED_clean_linker_0, # of connection points: 2
#     Edge 30, Type (0, 1), BuildingBlock: XIVTED_clean_linker_0, # of connection points: 2
#     Edge 31, Type (0, 1), BuildingBlock: XIVTED_clean_linker_0, # of connection points: 2
#     Edge 32, Type (0, 1), BuildingBlock: XIVTED_clean_linker_0, # of connection points: 2
#     Edge 33, Type (0, 1), BuildingBlock: XIVTED_clean_linker_0, # of connection points: 2
#     Edge 34, Type (0, 1), BuildingBlock: XIVTED_clean_linker_0, # of connection points: 2
#     Edge 35, Type (0, 1), BuildingBlock: XIVTED_clean_linker_0, # of connection points: 2
#     Edge 36, Type (0, 1), BuildingBlock: XIVTED_clean_linker_0, # of connection points: 2
#     Edge 37, Type (0, 1), BuildingBlock: XIVTED_clean_linker_0, # of connection points: 2
#     Edge 38, Type (0, 1), BuildingBlock: XIVTED_clean_linker_0, # of connection points: 2
#     Edge 39, Type (0, 1), BuildingBlock: XIVTED_clean_linker_0, # of connection points: 2
#     Edge 40, Type (0, 1), BuildingBlock: XIVTED_clean_linker_0, # of connection points: 2
#     Edge 41, Type (0, 1), BuildingBlock: XIVTED_clean_linker_0, # of connection points: 2
#     Edge 42, Type (0, 1), BuildingBlock: XIVTED_clean_linker_0, # of connection points: 2
#     Edge 43, Type (0, 1), BuildingBlock: XIVTED_clean_linker_0, # of connection points: 2
#     Edge 44, Type (0, 1), BuildingBlock: XIVTED_clean_linker_0, # of connection points: 2
#     Edge 45, Type (0, 1), BuildingBlock: XIVTED_clean_linker_0, # of connection points: 2
#     Edge 46, Type (0, 1), BuildingBlock: XIVTED_clean_linker_0, # of connection points: 2
#     Edge 47, Type (0, 1), BuildingBlock: XIVTED_clean_linker_0, # of connection points: 2
# Relax obj value: 0.117
# Max RMSD: 0.153
# Mean RMSD: 0.139
data_MOF--net-wbl--node1-GALJAG_clean_sbu_0--node2-MUDLON_clean_linker_0--edge1-XIVTED_clean_linker_0
_symmetry_space_group_name_H-M    P1
_symmetry_Int_Tables_number       1
_symmetry_cell_setting            triclinic
loop_
_symmetry_equiv_pos_as_xyz
'x, y, z'
_cell_length_a     52.63762
_cell_length_b     52.761713
_cell_length_c     85.503238
_cell_angle_alpha  90.01751
_cell_angle_beta   90.028602
_cell_angle_gamma 90.010518
loop_
_atom_site_label
_atom_site_type_symbol
_atom_site_fract_x
_atom_site_fract_y
_atom_site_fract_z
_atom_type_partial_charge
H0 H 0.10309 0.93215 0.33735 0.0
N1 N 0.05714 0.92359 0.32307 0.0
H2 H 0.11632 0.91703 0.363 0.0
H3 H 0.02952 0.89764 0.34373 0.0
H4 H 0.04273 0.88248 0.36966 0.0
H5 H 0.06899 0.87895 0.31074 0.0
H6 H 0.10597 0.86855 0.2948 0.0
H7 H 0.08916 0.95819 0.30869 0.0
H8 H 0.12499 0.94816 0.29211 0.0
H9 H 0.07256 0.96835 0.33656 0.0
H10 H 0.01344 0.93403 0.30876 0.0
H11 H 0.04943 0.00822 0.3367 0.0
H12 H 0.98995 0.97425 0.30889 0.0
H13 H 0.97538 0.12795 0.34487 0.0
H14 H 0.95793 0.13971 0.37056 0.0
H15 H 0.90817 0.07475 0.36893 0.0
H16 H 0.92633 0.0625 0.34375 0.0
H17 H 0.92259 0.0588 0.317 0.0
H18 H 0.88716 0.07235 0.30074 0.0
H19 H 0.92343 0.14502 0.29391 0.0
H20 H 0.95858 0.13149 0.31075 0.0
H21 H 0.9874 0.0636 0.3503 0.0
H22 H 0.01017 0.02399 0.34857 0.0
H23 H 0.993 0.0193 0.29932 0.0
N24 N 0.96217 0.08867 0.327 0.0
H25 H 0.96988 0.0591 0.30087 0.0
C26 C 0.06527 0.91573 0.33849 0.0
C27 C 0.08975 0.92127 0.34424 0.0
C28 C 0.09735 0.91256 0.35892 0.0
C29 C 0.08064 0.89839 0.36827 0.0
C30 C 0.05598 0.89344 0.36272 0.0
C31 C 0.04844 0.90197 0.34794 0.0
C32 C 0.07612 0.91922 0.3111 0.0
C33 C 0.08091 0.89418 0.30644 0.0
C34 C 0.10206 0.8883 0.29726 0.0
C35 C 0.1188 0.90748 0.29232 0.0
C36 C 0.11295 0.9328 0.29605 0.0
C37 C 0.09207 0.93862 0.30546 0.0
C38 C 0.04453 0.94793 0.32278 0.0
C39 C 0.05454 0.96928 0.33053 0.0
C40 C 0.04125 0.99216 0.33061 0.0
C41 C 0.01773 0.99431 0.32295 0.0
C42 C 0.00808 0.9732 0.31484 0.0
C43 C 0.02138 0.95023 0.31481 0.0
C44 C 0.95195 0.09466 0.34227 0.0
C45 C 0.96082 0.11623 0.35013 0.0
C46 C 0.95091 0.12286 0.36474 0.0
C47 C 0.9316 0.1082 0.37157 0.0
C48 C 0.92281 0.08651 0.36376 0.0
C49 C 0.93307 0.0796 0.34933 0.0
C50 C 0.94328 0.09426 0.31519 0.0
C51 C 0.92309 0.07756 0.31191 0.0
C52 C 0.9029 0.08528 0.30245 0.0
C53 C 0.90234 0.10987 0.2961 0.0
C54 C 0.92309 0.12609 0.29881 0.0
C55 C 0.9433 0.11833 0.30828 0.0
C56 C 0.97479 0.06405 0.326 0.0
C57 C 0.98762 0.05397 0.33912 0.0
C58 C 0.00117 0.03133 0.33811 0.0
C59 C 0.00306 0.0183 0.32386 0.0
C60 C 0.99126 0.02857 0.31057 0.0
C61 C 0.97777 0.05138 0.31154 0.0
H62 H 0.93498 0.40212 0.58593 0.0
N63 N 0.92364 0.44837 0.5731 0.0
H64 H 0.92383 0.38751 0.61212 0.0
H65 H 0.90143 0.47495 0.5958 0.0
H66 H 0.89025 0.46039 0.6222 0.0
H67 H 0.87652 0.43517 0.56562 0.0
H68 H 0.86297 0.3987 0.55027 0.0
H69 H 0.95464 0.41928 0.55371 0.0
H70 H 0.94118 0.384 0.53778 0.0
H71 H 0.97097 0.43001 0.58041 0.0
H72 H 0.93112 0.49503 0.56227 0.0
H73 H 0.01097 0.45284 0.57873 0.0
H74 H 0.97116 0.51862 0.56114 0.0
H75 H 0.13305 0.5409 0.58568 0.0
H76 H 0.14629 0.55487 0.61181 0.0
H77 H 0.07064 0.58354 0.6203 0.0
H78 H 0.05752 0.56913 0.59443 0.0
H79 H 0.05806 0.58867 0.5698 0.0
H80 H 0.06799 0.6263 0.55448 0.0
H81 H 0.13391 0.58844 0.53542 0.0
H82 H 0.12422 0.55105 0.55133 0.0
H83 H 0.07175 0.50942 0.59227 0.0
H84 H 0.03249 0.4856 0.59167 0.0
H85 H 0.01155 0.52246 0.54845 0.0
N86 N 0.08749 0.54601 0.57244 0.0
H87 H 0.05034 0.54709 0.54928 0.0
C88 C 0.91876 0.43967 0.58884 0.0
C89 C 0.92533 0.41504 0.59376 0.0
C90 C 0.91886 0.40666 0.60871 0.0
C91 C 0.90599 0.42275 0.61914 0.0
C92 C 0.90026 0.44762 0.61442 0.0
C93 C 0.90652 0.45594 0.59938 0.0
C94 C 0.91656 0.43002 0.56123 0.0
C95 C 0.89069 0.42431 0.55934 0.0
C96 C 0.88298 0.40344 0.55048 0.0
C97 C 0.90101 0.38797 0.54298 0.0
C98 C 0.92679 0.39493 0.5438 0.0
C99 C 0.93454 0.4155 0.55292 0.0
C100 C 0.94793 0.46085 0.57142 0.0
C101 C 0.97079 0.44926 0.57609 0.0
C102 C 0.99373 0.46246 0.5752 0.0
C103 C 0.99435 0.48771 0.56993 0.0
C104 C 0.9715 0.49911 0.56507 0.0
C105 C 0.94857 0.48575 0.56577 0.0
C106 C 0.09439 0.55386 0.5881 0.0
C107 C 0.11937 0.55009 0.59325 0.0
C108 C 0.1269 0.55822 0.60811 0.0
C109 C 0.1095 0.57029 0.61812 0.0
C110 C 0.08442 0.57402 0.61295 0.0
C111 C 0.07694 0.56599 0.59809 0.0
C112 C 0.09056 0.56703 0.56177 0.0
C113 C 0.07454 0.58838 0.56226 0.0
C114 C 0.08013 0.60984 0.55335 0.0
C115 C 0.10186 0.61048 0.54377 0.0
C116 C 0.11725 0.58873 0.54284 0.0
C117 C 0.11164 0.56728 0.55179 0.0
C118 C 0.06376 0.53175 0.57151 0.0
C119 C 0.05855 0.51299 0.5828 0.0
C120 C 0.03614 0.49893 0.58231 0.0
C121 C 0.01856 0.50235 0.57013 0.0
C122 C 0.02426 0.51993 0.55829 0.0
C123 C 0.04664 0.53423 0.55885 0.0
H124 H 0.6056 0.45068 0.83937 0.0
N125 N 0.5622 0.43707 0.82379 0.0
H126 H 0.61773 0.43799 0.86579 0.0
H127 H 0.53547 0.40907 0.84373 0.0
H128 H 0.54758 0.3961 0.87028 0.0
H129 H 0.57352 0.39082 0.81387 0.0
H130 H 0.6101 0.37772 0.79836 0.0
H131 H 0.59524 0.46913 0.8079 0.0
H132 H 0.63073 0.45633 0.79187 0.0
H133 H 0.57892 0.48456 0.83213 0.0
H134 H 0.51574 0.44364 0.81236 0.0
H135 H 0.55542 0.52389 0.83011 0.0
H136 H 0.49111 0.48291 0.81125 0.0
H137 H 0.45734 0.64328 0.83638 0.0
H138 H 0.44122 0.65482 0.8622 0.0
H139 H 0.42728 0.57554 0.87205 0.0
H140 H 0.44152 0.56463 0.84592 0.0
H141 H 0.41746 0.56645 0.82154 0.0
H142 H 0.37876 0.57496 0.80673 0.0
H143 H 0.41377 0.64169 0.78685 0.0
H144 H 0.45226 0.63333 0.80213 0.0
H145 H 0.49777 0.58398 0.84245 0.0
H146 H 0.52293 0.54567 0.84192 0.0
H147 H 0.48518 0.52252 0.79934 0.0
N148 N 0.45915 0.59733 0.82347 0.0
H149 H 0.45891 0.56008 0.80036 0.0
C150 C 0.56945 0.4309 0.83962 0.0
C151 C 0.59262 0.43911 0.8461 0.0
C152 C 0.59955 0.43183 0.86122 0.0
C153 C 0.5836 0.41604 0.8701 0.0
C154 C 0.56036 0.40809 0.86365 0.0
C155 C 0.55335 0.41555 0.84857 0.0
C156 C 0.58143 0.43087 0.8123 0.0
C157 C 0.58574 0.40522 0.80888 0.0
C158 C 0.60665 0.39778 0.79993 0.0
C159 C 0.62366 0.41594 0.79399 0.0
C160 C 0.61845 0.44175 0.79659 0.0
C161 C 0.59778 0.44916 0.80576 0.0
C162 C 0.54916 0.46102 0.82222 0.0
C163 C 0.55993 0.48397 0.82735 0.0
C164 C 0.54625 0.50657 0.82634 0.0
C165 C 0.52116 0.50674 0.82063 0.0
C166 C 0.51049 0.48373 0.81545 0.0
C167 C 0.52444 0.46119 0.81617 0.0
C168 C 0.45098 0.60318 0.83924 0.0
C169 C 0.45081 0.62848 0.84419 0.0
C170 C 0.44174 0.63497 0.85902 0.0
C171 C 0.43292 0.61615 0.86937 0.0
C172 C 0.43336 0.5907 0.8644 0.0
C173 C 0.44184 0.58433 0.84945 0.0
C174 C 0.43775 0.59939 0.81295 0.0
C175 C 0.41691 0.58272 0.81385 0.0
C176 C 0.39484 0.58753 0.80527 0.0
C177 C 0.39308 0.60913 0.79568 0.0
C178 C 0.41437 0.6251 0.7943 0.0
C179 C 0.43644 0.62026 0.80288 0.0
C180 C 0.47481 0.57458 0.82219 0.0
C181 C 0.49438 0.57047 0.83314 0.0
C182 C 0.50921 0.54859 0.83266 0.0
C183 C 0.50589 0.53058 0.82072 0.0
C184 C 0.48765 0.53544 0.80906 0.0
C185 C 0.47244 0.55717 0.8097 0.0
H186 H 0.44823 0.90534 0.09076 0.0
N187 N 0.43662 0.94881 0.07467 0.0
H188 H 0.43661 0.89537 0.11761 0.0
H189 H 0.41114 0.97793 0.09469 0.0
H190 H 0.39969 0.9682 0.12184 0.0
H191 H 0.39063 0.93801 0.0639 0.0
H192 H 0.3774 0.9003 0.04949 0.0
H193 H 0.46876 0.91375 0.06083 0.0
H194 H 0.45588 0.8769 0.04592 0.0
H195 H 0.48351 0.93312 0.08505 0.0
H196 H 0.44448 0.99321 0.06074 0.0
H197 H 0.52274 0.95732 0.08428 0.0
H198 H 0.48393 0.01798 0.06017 0.0
H199 H 0.64001 0.04079 0.09299 0.0
H200 H 0.65226 0.05672 0.11893 0.0
H201 H 0.5809 0.09671 0.12218 0.0
H202 H 0.56854 0.08026 0.09658 0.0
H203 H 0.56522 0.09008 0.07036 0.0
H204 H 0.57551 0.12756 0.05497 0.0
H205 H 0.64859 0.09513 0.04354 0.0
H206 H 0.63837 0.05792 0.05948 0.0
H207 H 0.57656 0.0198 0.09923 0.0
H208 H 0.53828 0.99478 0.09728 0.0
H209 H 0.52781 0.01968 0.04965 0.0
N210 N 0.59751 0.0507 0.07717 0.0
H211 H 0.56607 0.04524 0.05152 0.0
C212 C 0.4304 0.94246 0.09066 0.0
C213 C 0.4377 0.91924 0.09743 0.0
C214 C 0.43119 0.91362 0.11286 0.0
C215 C 0.41726 0.93101 0.12189 0.0
C216 C 0.41019 0.95429 0.11515 0.0
C217 C 0.41677 0.95993 0.09969 0.0
C218 C 0.43059 0.92892 0.06361 0.0
C219 C 0.405 0.92496 0.05973 0.0
C220 C 0.39749 0.90339 0.05143 0.0
C221 C 0.41553 0.8853 0.0467 0.0
C222 C 0.44138 0.8901 0.04971 0.0
C223 C 0.44884 0.9115 0.05817 0.0
C224 C 0.46084 0.96141 0.07297 0.0
C225 C 0.48333 0.95147 0.07945 0.0
C226 C 0.50583 0.96544 0.07908 0.0
C227 C 0.5064 0.98974 0.07235 0.0
C228 C 0.48417 0.99927 0.06536 0.0
C229 C 0.46162 0.9852 0.0657 0.0
C230 C 0.60359 0.05952 0.09276 0.0
C231 C 0.62701 0.05284 0.09938 0.0
C232 C 0.63391 0.06188 0.11416 0.0
C233 C 0.61758 0.07808 0.12248 0.0
C234 C 0.59398 0.08455 0.11592 0.0
C235 C 0.58696 0.07524 0.10125 0.0
C236 C 0.60117 0.07116 0.06614 0.0
C237 C 0.58338 0.09091 0.06447 0.0
C238 C 0.58921 0.11228 0.05552 0.0
C239 C 0.61297 0.11445 0.0481 0.0
C240 C 0.63028 0.09423 0.04929 0.0
C241 C 0.62441 0.07286 0.05824 0.0
C242 C 0.57378 0.03644 0.07598 0.0
C243 C 0.56587 0.02073 0.08843 0.0
C244 C 0.54405 0.00588 0.08724 0.0
C245 C 0.52976 0.00549 0.07338 0.0
C246 C 0.53802 0.02013 0.06064 0.0
C247 C 0.55997 0.03502 0.06182 0.0
H248 H 0.0992 0.55919 0.9144 0.0
N249 N 0.05561 0.57333 0.92961 0.0
H250 H 0.11137 0.57039 0.88778 0.0
H251 H 0.02912 0.60061 0.90911 0.0
H252 H 0.04141 0.61224 0.88234 0.0
H253 H 0.06719 0.61979 0.93911 0.0
H254 H 0.10465 0.63317 0.95379 0.0
H255 H 0.08869 0.54154 0.94569 0.0
H256 H 0.12517 0.55468 0.96078 0.0
H257 H 0.07238 0.52573 0.92143 0.0
H258 H 0.00928 0.56664 0.94131 0.0
H259 H 0.04857 0.48655 0.92301 0.0
H260 H 0.98454 0.52732 0.94224 0.0
H261 H 0.95956 0.36647 0.91589 0.0
H262 H 0.94545 0.35354 0.88972 0.0
H263 H 0.91677 0.42911 0.88154 0.0
H264 H 0.93105 0.44187 0.90755 0.0
H265 H 0.91216 0.44159 0.93266 0.0
H266 H 0.87409 0.43092 0.94756 0.0
H267 H 0.91118 0.36349 0.96493 0.0
H268 H 0.94905 0.37406 0.94961 0.0
H269 H 0.99056 0.42799 0.90922 0.0
H270 H 0.01494 0.46675 0.91013 0.0
H271 H 0.9796 0.48641 0.95407 0.0
N272 N 0.95449 0.41178 0.92932 0.0
H273 H 0.95426 0.44809 0.9529 0.0
C274 C 0.06304 0.57894 0.91372 0.0
C275 C 0.08625 0.57042 0.90745 0.0
C276 C 0.09321 0.57684 0.8922 0.0
C277 C 0.07731 0.59213 0.88298 0.0
C278 C 0.0541 0.60055 0.88923 0.0
C279 C 0.04701 0.59388 0.90444 0.0
C280 C 0.07496 0.57974 0.941 0.0
C281 C 0.07953 0.60548 0.94408 0.0
C282 C 0.10096 0.61309 0.95253 0.0
C283 C 0.11824 0.59502 0.95826 0.0
C284 C 0.11266 0.56916 0.95617 0.0
C285 C 0.09144 0.56157 0.94754 0.0
C286 C 0.04266 0.54933 0.93135 0.0
C287 C 0.05338 0.52638 0.92617 0.0
C288 C 0.03956 0.50385 0.92696 0.0
C289 C 0.01445 0.50371 0.93258 0.0
C290 C 0.00391 0.5266 0.93801 0.0
C291 C 0.01794 0.54913 0.93743 0.0
C292 C 0.94652 0.40506 0.91366 0.0
C293 C 0.95032 0.38019 0.90839 0.0
C294 C 0.94213 0.37285 0.89351 0.0
C295 C 0.93006 0.39034 0.88358 0.0
C296 C 0.92628 0.41529 0.88886 0.0
C297 C 0.93427 0.42256 0.90377 0.0
C298 C 0.93348 0.4085 0.94001 0.0
C299 C 0.91223 0.42469 0.93982 0.0
C300 C 0.89051 0.41865 0.94845 0.0
C301 C 0.88952 0.39623 0.95734 0.0
C302 C 0.91121 0.3807 0.95803 0.0
C303 C 0.93292 0.3868 0.94943 0.0
C304 C 0.96887 0.43539 0.93033 0.0
C305 C 0.98738 0.44082 0.91891 0.0
C306 C 0.0018 0.46295 0.91958 0.0
C307 C 0.99908 0.47999 0.9321 0.0
C308 C 0.98164 0.47412 0.94401 0.0
C309 C 0.96694 0.45202 0.94325 0.0
H310 H 0.50527 0.38622 0.14602 0.0
N311 N 0.52422 0.40622 0.17203 0.0
H312 H 0.52597 0.38278 0.12047 0.0
H313 H 0.57009 0.42668 0.16399 0.0
H314 H 0.59082 0.42373 0.1385 0.0
H315 H 0.562 0.42287 0.19137 0.0
H316 H 0.58633 0.39664 0.20988 0.0
H317 H 0.5157 0.35838 0.17952 0.0
H318 H 0.53939 0.33221 0.19806 0.0
H319 H 0.48002 0.40378 0.1868 0.0
H320 H 0.53432 0.4569 0.16818 0.0
H321 H 0.45114 0.43856 0.1929 0.0
H322 H 0.50493 0.49159 0.17307 0.0
H323 H 0.35558 0.55788 0.16904 0.0
H324 H 0.34592 0.57141 0.1424 0.0
H325 H 0.42516 0.56261 0.13008 0.0
H326 H 0.43476 0.55093 0.15689 0.0
H327 H 0.43024 0.58989 0.17686 0.0
H328 H 0.4249 0.63049 0.19017 0.0
H329 H 0.36866 0.59696 0.22054 0.0
H330 H 0.37397 0.55627 0.20702 0.0
H331 H 0.39265 0.49838 0.17886 0.0
H332 H 0.42382 0.46438 0.17898 0.0
H333 H 0.48288 0.51861 0.18991 0.0
N334 N 0.40087 0.54761 0.18125 0.0
H335 H 0.45175 0.55264 0.18883 0.0
C336 C 0.53611 0.40657 0.15687 0.0
C337 C 0.52382 0.39466 0.14435 0.0
C338 C 0.53565 0.39284 0.12977 0.0
C339 C 0.56011 0.40292 0.12745 0.0
C340 C 0.57214 0.41545 0.13995 0.0
C341 C 0.56026 0.41726 0.15453 0.0
C342 C 0.53726 0.39232 0.18403 0.0
C343 C 0.55702 0.40311 0.19285 0.0
C344 C 0.57083 0.38816 0.2034 0.0
C345 C 0.56471 0.3624 0.20543 0.0
C346 C 0.54434 0.35205 0.19692 0.0
C347 C 0.53086 0.36688 0.1863 0.0
C348 C 0.50904 0.42758 0.17675 0.0
C349 C 0.48568 0.423 0.18404 0.0
C350 C 0.46911 0.44293 0.18736 0.0
C351 C 0.47533 0.46796 0.18316 0.0
C352 C 0.49942 0.47266 0.17657 0.0
C353 C 0.51624 0.4527 0.17357 0.0
C354 C 0.39573 0.55313 0.165 0.0
C355 C 0.37076 0.55872 0.16051 0.0
C356 C 0.3653 0.5663 0.14522 0.0
C357 C 0.38474 0.56815 0.13397 0.0
C358 C 0.40972 0.5619 0.13842 0.0
C359 C 0.41523 0.55481 0.15379 0.0
C360 C 0.40226 0.57004 0.1909 0.0
C361 C 0.41718 0.59106 0.1866 0.0
C362 C 0.41402 0.61431 0.19416 0.0
C363 C 0.39612 0.61693 0.20624 0.0
C364 C 0.38266 0.59545 0.2113 0.0
C365 C 0.38566 0.57223 0.20363 0.0
C366 C 0.4196 0.52804 0.18388 0.0
C367 C 0.41227 0.50283 0.18153 0.0
C368 C 0.4302 0.48338 0.18171 0.0
C369 C 0.45605 0.4886 0.18448 0.0
C370 C 0.46327 0.51385 0.18749 0.0
C371 C 0.44531 0.53341 0.18706 0.0
H372 H 0.39814 0.94096 0.4153 0.0
N373 N 0.44301 0.92968 0.43006 0.0
H374 H 0.3855 0.92788 0.38907 0.0
H375 H 0.47063 0.90416 0.40925 0.0
H376 H 0.45804 0.89101 0.3828 0.0
H377 H 0.43124 0.88418 0.44102 0.0
H378 H 0.39447 0.8724 0.45675 0.0
H379 H 0.41048 0.96303 0.44524 0.0
H380 H 0.37471 0.95156 0.4615 0.0
H381 H 0.42738 0.97663 0.42012 0.0
H382 H 0.489 0.93646 0.44219 0.0
H383 H 0.45183 0.01567 0.42096 0.0
H384 H 0.51433 0.97538 0.44242 0.0
H385 H 0.5454 0.13445 0.41404 0.0
H386 H 0.56297 0.14655 0.38855 0.0
H387 H 0.58773 0.06939 0.38123 0.0
H388 H 0.56997 0.05745 0.40654 0.0
H389 H 0.5893 0.05918 0.43153 0.0
H390 H 0.62673 0.06932 0.44707 0.0
H391 H 0.58883 0.13605 0.46492 0.0
H392 H 0.55182 0.12626 0.44865 0.0
H393 H 0.51186 0.07269 0.40721 0.0
H394 H 0.48648 0.03452 0.40843 0.0
H395 H 0.51916 0.0166 0.45344 0.0
N396 N 0.54724 0.08918 0.42777 0.0
H397 H 0.54545 0.05415 0.45198 0.0
C398 C 0.43534 0.92324 0.41432 0.0
C399 C 0.41139 0.9301 0.40833 0.0
C400 C 0.40413 0.92254 0.39333 0.0
C401 C 0.42071 0.90826 0.38394 0.0
C402 C 0.44492 0.9021 0.38975 0.0
C403 C 0.45209 0.90947 0.40484 0.0
C404 C 0.42384 0.92437 0.44175 0.0
C405 C 0.4192 0.899 0.4457 0.0
C406 C 0.39817 0.89232 0.45477 0.0
C407 C 0.38133 0.911 0.46029 0.0
C408 C 0.38686 0.93659 0.45714 0.0
C409 C 0.4077 0.94323 0.44788 0.0
C410 C 0.45635 0.95353 0.4312 0.0
C411 C 0.4462 0.97618 0.42518 0.0
C412 C 0.46037 0.99854 0.42554 0.0
C413 C 0.48522 0.99873 0.43162 0.0
C414 C 0.49516 0.97609 0.43783 0.0
C415 C 0.4808 0.95379 0.43766 0.0
C416 C 0.55622 0.09514 0.41219 0.0
C417 C 0.5544 0.12017 0.40683 0.0
C418 C 0.56459 0.12704 0.39235 0.0
C419 C 0.57676 0.10891 0.38291 0.0
C420 C 0.57824 0.08372 0.38816 0.0
C421 C 0.56822 0.07691 0.40269 0.0
C422 C 0.56782 0.0922 0.43881 0.0
C423 C 0.58898 0.07589 0.43885 0.0
C424 C 0.61032 0.08161 0.44791 0.0
C425 C 0.61096 0.10367 0.45716 0.0
C426 C 0.58922 0.11918 0.4577 0.0
C427 C 0.56794 0.11352 0.44856 0.0
C428 C 0.53229 0.06594 0.42888 0.0
C429 C 0.51423 0.06032 0.4172 0.0
C430 C 0.49924 0.03857 0.41805 0.0
C431 C 0.50097 0.02217 0.43095 0.0
C432 C 0.51791 0.02833 0.44308 0.0
C433 C 0.53317 0.05001 0.44216 0.0
H434 H 0.038 0.92113 0.65531 0.0
N435 N 0.06807 0.93828 0.67925 0.0
H436 H 0.0521 0.90965 0.62903 0.0
H437 H 0.11423 0.9439 0.66723 0.0
H438 H 0.1285 0.93283 0.64083 0.0
H439 H 0.09724 0.93711 0.70465 0.0
H440 H 0.10887 0.89987 0.72029 0.0
H441 H 0.04801 0.89053 0.67638 0.0
H442 H 0.05961 0.85348 0.69172 0.0
H443 H 0.0197 0.92207 0.68735 0.0
H444 H 0.06417 0.98782 0.67507 0.0
H445 H 0.98194 0.94815 0.68921 0.0
H446 H 0.02601 0.01392 0.67595 0.0
H447 H 0.86463 0.05003 0.66711 0.0
H448 H 0.85295 0.06429 0.64095 0.0
H449 H 0.93257 0.06773 0.62848 0.0
H450 H 0.94392 0.05541 0.65493 0.0
H451 H 0.93279 0.09246 0.67555 0.0
H452 H 0.92426 0.13015 0.69109 0.0
H453 H 0.87466 0.08652 0.72103 0.0
H454 H 0.88306 0.0487 0.70511 0.0
H455 H 0.91451 0.9965 0.67306 0.0
H456 H 0.9523 0.96975 0.6739 0.0
H457 H 0.99579 0.03294 0.69185 0.0
N458 N 0.91098 0.04573 0.67918 0.0
H459 H 0.95876 0.05971 0.69006 0.0
C460 C 0.07516 0.93342 0.66323 0.0
C461 C 0.05771 0.924 0.6522 0.0
C462 C 0.06579 0.91753 0.63714 0.0
C463 C 0.09145 0.92023 0.63286 0.0
C464 C 0.10868 0.9302 0.64383 0.0
C465 C 0.10058 0.93671 0.65885 0.0
C466 C 0.07175 0.91673 0.68941 0.0
C467 C 0.08862 0.91896 0.70201 0.0
C468 C 0.09537 0.89767 0.71082 0.0
C469 C 0.08523 0.87371 0.7072 0.0
C470 C 0.06754 0.87169 0.69494 0.0
C471 C 0.06094 0.89292 0.6861 0.0
C472 C 0.04514 0.95303 0.68121 0.0
C473 C 0.02153 0.9421 0.68507 0.0
C474 C 0.99968 0.95711 0.68597 0.0
C475 C 0.00074 0.98325 0.68273 0.0
C476 C 0.02439 0.99403 0.67888 0.0
C477 C 0.04626 0.97911 0.67825 0.0
C478 C 0.90502 0.05137 0.66302 0.0
C479 C 0.87948 0.05367 0.65864 0.0
C480 C 0.87289 0.0617 0.64361 0.0
C481 C 0.89178 0.06727 0.63247 0.0
C482 C 0.91743 0.06417 0.63676 0.0
C483 C 0.92401 0.05668 0.6519 0.0
C484 C 0.90848 0.06767 0.68918 0.0
C485 C 0.92028 0.09088 0.68554 0.0
C486 C 0.91552 0.11242 0.69453 0.0
C487 C 0.89876 0.11135 0.70731 0.0
C488 C 0.88748 0.088 0.71117 0.0
C489 C 0.89237 0.06638 0.70219 0.0
C490 C 0.93339 0.03017 0.68144 0.0
C491 C 0.9322 0.00449 0.67726 0.0
C492 C 0.95385 0.98918 0.67786 0.0
C493 C 0.97728 0.99913 0.6829 0.0
C494 C 0.97829 0.02468 0.68757 0.0
C495 C 0.95676 0.04009 0.6867 0.0
In496 In 0.33734 0.66864 0.00204 0.0
O497 O 0.33095 0.71167 0.00366 0.0
O498 O 0.36592 0.69647 0.01185 0.0
C499 C 0.28939 0.65506 0.99456 0.0
C500 C 0.34719 0.64362 0.0289 0.0
C501 C 0.36146 0.6582 0.97493 0.0
O502 O 0.29436 0.67645 0.00048 0.0
O503 O 0.30843 0.64099 0.99248 0.0
O504 O 0.35851 0.64202 0.98561 0.0
O505 O 0.35254 0.67983 0.97794 0.0
C506 C 0.35244 0.71592 0.00974 0.0
O507 O 0.36326 0.64575 0.01805 0.0
O508 O 0.32606 0.654 0.02621 0.0
In509 In 0.33973 0.84003 0.25034 0.0
O510 O 0.33467 0.8061 0.23399 0.0
O511 O 0.35461 0.79998 0.25518 0.0
C512 C 0.29146 0.85528 0.25537 0.0
C513 C 0.35922 0.8655 0.22569 0.0
C514 C 0.36101 0.85141 0.27819 0.0
O515 O 0.29684 0.8326 0.25198 0.0
O516 O 0.31029 0.87 0.25607 0.0
O517 O 0.36979 0.8597 0.26544 0.0
O518 O 0.3419 0.83715 0.27682 0.0
C519 C 0.34661 0.79071 0.24252 0.0
O520 O 0.3359 0.86552 0.22901 0.0
O521 O 0.37296 0.85289 0.23496 0.0
In522 In 0.16417 0.83207 0.50163 0.0
O523 O 0.13884 0.85752 0.51663 0.0
O524 O 0.16899 0.8381 0.52791 0.0
C525 C 0.14328 0.84253 0.47351 0.0
C526 C 0.15205 0.78275 0.50611 0.0
C527 C 0.21126 0.85107 0.49708 0.0
O528 O 0.13483 0.85162 0.48613 0.0
O529 O 0.1621 0.82794 0.47508 0.0
O530 O 0.20719 0.82776 0.49924 0.0
O531 O 0.19163 0.86478 0.49735 0.0
C532 C 0.15042 0.85301 0.52923 0.0
O533 O 0.17469 0.79052 0.50567 0.0
O534 O 0.13557 0.79977 0.50414 0.0
In535 In 0.16821 0.65987 0.75163 0.0
O536 O 0.14981 0.62999 0.76735 0.0
O537 O 0.15432 0.66708 0.77653 0.0
C538 C 0.15663 0.63855 0.7238 0.0
C539 C 0.21749 0.64984 0.75808 0.0
C540 C 0.15132 0.70711 0.74543 0.0
O541 O 0.14314 0.63551 0.73585 0.0
O542 O 0.176 0.65224 0.7258 0.0
O543 O 0.17467 0.70175 0.74609 0.0
O544 O 0.13658 0.68869 0.74793 0.0
C545 C 0.14663 0.64476 0.77878 0.0
O546 O 0.20809 0.67173 0.7594 0.0
O547 O 0.2021 0.63312 0.75348 0.0
In548 In 0.83171 0.16698 0.50193 0.0
O549 O 0.82311 0.20848 0.50821 0.0
O550 O 0.86146 0.19804 0.50444 0.0
C551 C 0.78341 0.15298 0.49616 0.0
C552 C 0.84441 0.14387 0.52909 0.0
C553 C 0.85218 0.15432 0.47403 0.0
O554 O 0.79008 0.1759 0.49737 0.0
O555 O 0.80112 0.13707 0.49797 0.0
O556 O 0.85825 0.14339 0.4866 0.0
O557 O 0.83573 0.17151 0.47549 0.0
C558 C 0.84602 0.2154 0.5078 0.0
O559 O 0.85961 0.14614 0.5178 0.0
O560 O 0.82269 0.15316 0.52672 0.0
In561 In 0.83824 0.33234 0.75068 0.0
O562 O 0.86111 0.35981 0.73554 0.0
O563 O 0.83434 0.33596 0.72421 0.0
C564 C 0.86032 0.34184 0.77857 0.0
C565 C 0.8518 0.28361 0.74605 0.0
C566 C 0.79097 0.35071 0.75562 0.0
O567 O 0.86651 0.35334 0.76621 0.0
O568 O 0.84313 0.3254 0.77685 0.0
O569 O 0.7951 0.32759 0.75285 0.0
O570 O 0.81055 0.36444 0.75575 0.0
C571 C 0.85096 0.35302 0.72285 0.0
O572 O 0.82894 0.29034 0.74771 0.0
O573 O 0.86775 0.30142 0.74683 0.0
In574 In 0.66698 0.3361 0.00092 0.0
O575 O 0.67896 0.29742 0.01039 0.0
O576 O 0.64159 0.30102 0.0013 0.0
C577 C 0.71612 0.34762 0.99509 0.0
C578 C 0.64668 0.35645 0.02714 0.0
C579 C 0.64687 0.35267 0.97368 0.0
O580 O 0.70613 0.32695 0.99092 0.0
O581 O 0.7014 0.36238 0.00233 0.0
O582 O 0.65245 0.3674 0.98478 0.0
O583 O 0.6513 0.32957 0.97634 0.0
C584 C 0.65795 0.28684 0.0076 0.0
O585 O 0.63457 0.35477 0.01446 0.0
O586 O 0.66913 0.34819 0.02656 0.0
In587 In 0.68072 0.17145 0.25412 0.0
O588 O 0.65357 0.14669 0.2683 0.0
O589 O 0.67668 0.17295 0.28065 0.0
C590 C 0.66898 0.15002 0.22634 0.0
C591 C 0.73092 0.16246 0.25825 0.0
C592 C 0.65958 0.21761 0.25021 0.0
O593 O 0.66646 0.13843 0.23915 0.0
O594 O 0.67758 0.17225 0.22753 0.0
O595 O 0.68278 0.21344 0.24741 0.0
O596 O 0.64732 0.19863 0.25506 0.0
C597 C 0.65977 0.15604 0.28134 0.0
O598 O 0.72107 0.18386 0.26079 0.0
O599 O 0.71557 0.14585 0.25349 0.0
H600 H 0.12893 0.86904 0.27121 0.0
H601 H 0.27693 0.90191 0.26559 0.0
H602 H 0.16505 0.93063 0.29605 0.0
H603 H 0.2468 0.82853 0.25319 0.0
H604 H 0.2343 0.91571 0.27278 0.0
H605 H 0.17046 0.85674 0.26078 0.0
C606 C 0.14547 0.88006 0.27445 0.0
C607 C 0.14332 0.90094 0.28459 0.0
C608 C 0.23696 0.89661 0.26844 0.0
C609 C 0.1908 0.88713 0.27246 0.0
C610 C 0.26129 0.88873 0.2643 0.0
C611 C 0.26542 0.86398 0.25889 0.0
C612 C 0.2165 0.87969 0.26709 0.0
C613 C 0.24443 0.84774 0.2574 0.0
C614 C 0.16914 0.87304 0.26843 0.0
C615 C 0.16548 0.91471 0.28809 0.0
N616 N 0.22082 0.85586 0.26152 0.0
N617 N 0.1882 0.90753 0.28206 0.0
H618 H 0.07106 0.64503 0.52891 0.0
H619 H 0.18404 0.74339 0.51285 0.0
H620 H 0.14961 0.6305 0.54036 0.0
H621 H 0.10469 0.76156 0.50697 0.0
H622 H 0.17219 0.70009 0.51999 0.0
H623 H 0.08345 0.68599 0.51794 0.0
C624 C 0.09092 0.65039 0.52907 0.0
C625 C 0.10928 0.63431 0.53567 0.0
C626 C 0.15737 0.7135 0.51706 0.0
C627 C 0.12362 0.68114 0.52304 0.0
C628 C 0.16413 0.73821 0.51296 0.0
C629 C 0.1453 0.75611 0.50941 0.0
C630 C 0.13158 0.70664 0.5176 0.0
C631 C 0.1198 0.74837 0.5097 0.0
C632 C 0.09799 0.67375 0.52276 0.0
C633 C 0.1348 0.6421 0.53528 0.0
N634 N 0.11368 0.72424 0.5138 0.0
N635 N 0.14118 0.665 0.52917 0.0
H636 H 0.37135 0.65611 0.79309 0.0
H637 H 0.24159 0.60407 0.75631 0.0
H638 H 0.35869 0.57757 0.78125 0.0
H639 H 0.25413 0.68235 0.76874 0.0
H640 H 0.28535 0.59443 0.76383 0.0
H641 H 0.32968 0.66655 0.78242 0.0
C642 C 0.35998 0.64109 0.78804 0.0
C643 C 0.36858 0.61589 0.7881 0.0
C644 C 0.27858 0.61374 0.76486 0.0
C645 C 0.3205 0.6277 0.7761 0.0
C646 C 0.2536 0.61926 0.76057 0.0
C647 C 0.2442 0.64403 0.76198 0.0
C648 C 0.29429 0.63314 0.77063 0.0
C649 C 0.2606 0.66297 0.76752 0.0
C650 C 0.33605 0.64705 0.78206 0.0
C651 C 0.35272 0.59719 0.78165 0.0
N652 N 0.28482 0.65711 0.7717 0.0
N653 N 0.32943 0.60346 0.77598 0.0
H654 H 0.43577 0.83828 0.05202 0.0
H655 H 0.32886 0.76189 0.00519 0.0
H656 H 0.37608 0.87572 0.02617 0.0
H657 H 0.39666 0.728 0.02438 0.0
H658 H 0.34471 0.80377 0.01313 0.0
H659 H 0.42095 0.79775 0.04212 0.0
C660 C 0.41977 0.8381 0.04406 0.0
C661 C 0.4073 0.86063 0.03988 0.0
C662 C 0.35611 0.78714 0.01554 0.0
C663 C 0.38968 0.81383 0.02878 0.0
C664 C 0.34706 0.76327 0.01105 0.0
C665 C 0.36144 0.74146 0.01417 0.0
C666 C 0.37961 0.78909 0.02328 0.0
C667 C 0.38491 0.7443 0.02176 0.0
C668 C 0.41114 0.81482 0.03851 0.0
C669 C 0.38615 0.85888 0.02986 0.0
N670 N 0.39318 0.76761 0.02609 0.0
N671 N 0.37794 0.83588 0.0247 0.0
H672 H 0.16469 0.57273 0.95424 0.0
H673 H 0.24404 0.68032 0.9985 0.0
H674 H 0.12868 0.63599 0.97741 0.0
H675 H 0.27593 0.61063 0.98083 0.0
H676 H 0.2016 0.6654 0.99076 0.0
H677 H 0.20552 0.58697 0.96402 0.0
C678 C 0.16524 0.58942 0.9616 0.0
C679 C 0.14302 0.60303 0.96507 0.0
C680 C 0.21792 0.65339 0.98864 0.0
C681 C 0.19025 0.61997 0.97603 0.0
C682 C 0.2421 0.66191 0.99302 0.0
C683 C 0.26352 0.64672 0.99026 0.0
C684 C 0.21528 0.6296 0.9814 0.0
C685 C 0.25997 0.62301 0.98316 0.0
C686 C 0.18871 0.59771 0.96708 0.0
C687 C 0.14528 0.625 0.9743 0.0
N688 N 0.23639 0.61525 0.97895 0.0
N689 N 0.16849 0.63285 0.97941 0.0
H690 H 0.38994 0.63187 0.23683 0.0
H691 H 0.33904 0.76953 0.21381 0.0
H692 H 0.38675 0.65971 0.18944 0.0
H693 H 0.3672 0.75234 0.26001 0.0
H694 H 0.35104 0.72696 0.20531 0.0
H695 H 0.37686 0.67395 0.2462 0.0
C696 C 0.38657 0.64686 0.22843 0.0
C697 C 0.38963 0.64241 0.21236 0.0
C698 C 0.35455 0.73248 0.21732 0.0
C699 C 0.37436 0.69022 0.22291 0.0
C700 C 0.34758 0.75671 0.2222 0.0
C701 C 0.35221 0.76447 0.23762 0.0
C702 C 0.36601 0.71575 0.22797 0.0
C703 C 0.36338 0.74711 0.24799 0.0
C704 C 0.37918 0.67081 0.23377 0.0
C705 C 0.38501 0.66244 0.20194 0.0
N706 N 0.36989 0.7235 0.24299 0.0
N707 N 0.37747 0.6854 0.20739 0.0
H708 H 0.37257 0.87146 0.48074 0.0
H709 H 0.22358 0.89915 0.48809 0.0
H710 H 0.33455 0.9336 0.45761 0.0
H711 H 0.25697 0.8264 0.49851 0.0
H712 H 0.26564 0.91519 0.48104 0.0
H713 H 0.33165 0.85771 0.49131 0.0
C714 C 0.35572 0.88229 0.4779 0.0
C715 C 0.35715 0.9037 0.46816 0.0
C716 C 0.26378 0.89575 0.48494 0.0
C717 C 0.3103 0.88822 0.48046 0.0
C718 C 0.2398 0.88661 0.489 0.0
C719 C 0.23679 0.86136 0.49378 0.0
C720 C 0.28494 0.8796 0.48578 0.0
C721 C 0.25846 0.84595 0.49478 0.0
C722 C 0.33238 0.87445 0.48401 0.0
C723 C 0.33462 0.91723 0.46522 0.0
N724 N 0.28164 0.8553 0.49078 0.0
N725 N 0.31219 0.90922 0.4713 0.0
H726 H 0.05712 0.83318 0.71744 0.0
H727 H 0.1791 0.74992 0.73954 0.0
H728 H 0.13403 0.86132 0.71529 0.0
H729 H 0.10201 0.72257 0.74267 0.0
H730 H 0.16289 0.79172 0.73218 0.0
H731 H 0.07306 0.79341 0.72831 0.0
C732 C 0.07735 0.83103 0.71933 0.0
C733 C 0.09427 0.85056 0.71536 0.0
C734 C 0.14951 0.77661 0.73455 0.0
C735 C 0.11269 0.80506 0.7278 0.0
C736 C 0.15876 0.75275 0.73874 0.0
C737 C 0.14187 0.73273 0.74163 0.0
C738 C 0.12317 0.78045 0.7332 0.0
C739 C 0.1157 0.73746 0.74048 0.0
C740 C 0.08645 0.80835 0.72558 0.0
C741 C 0.12027 0.84687 0.71829 0.0
N742 N 0.10717 0.76078 0.73628 0.0
N743 N 0.12869 0.82449 0.72421 0.0
H744 H 0.67061 0.43821 0.79618 0.0
H745 H 0.74519 0.32595 0.7544 0.0
H746 H 0.63199 0.37514 0.77438 0.0
H747 H 0.77883 0.39853 0.76504 0.0
H748 H 0.70356 0.34285 0.76198 0.0
H749 H 0.7104 0.42352 0.78502 0.0
C750 C 0.67032 0.4215 0.78884 0.0
C751 C 0.64771 0.40797 0.78624 0.0
C752 C 0.72004 0.35511 0.76252 0.0
C753 C 0.6937 0.39056 0.77374 0.0
C754 C 0.74378 0.34547 0.75824 0.0
C755 C 0.76548 0.36085 0.75918 0.0
C756 C 0.71811 0.38018 0.76793 0.0
C757 C 0.76261 0.386 0.76418 0.0
C758 C 0.69319 0.41299 0.78255 0.0
C759 C 0.64892 0.38601 0.77693 0.0
N760 N 0.73941 0.39481 0.76849 0.0
N761 N 0.67156 0.37788 0.77112 0.0
H762 H 0.58361 0.14479 0.02918 0.0
H763 H 0.68982 0.25291 0.0217 0.0
H764 H 0.65885 0.13893 0.04895 0.0
H765 H 0.61379 0.26036 0.00339 0.0
H766 H 0.67977 0.20974 0.03003 0.0
H767 H 0.59517 0.18583 0.01797 0.0
C768 C 0.60258 0.15208 0.03113 0.0
C769 C 0.62024 0.13838 0.04008 0.0
C770 C 0.6653 0.22075 0.02412 0.0
C771 C 0.63366 0.18534 0.02722 0.0
C772 C 0.67104 0.2454 0.01936 0.0
C773 C 0.65256 0.26027 0.01192 0.0
C774 C 0.64087 0.21089 0.02145 0.0
C775 C 0.62857 0.24957 0.00914 0.0
C776 C 0.60921 0.17548 0.02468 0.0
C777 C 0.64468 0.14862 0.042 0.0
N778 N 0.62338 0.22557 0.01397 0.0
N779 N 0.6506 0.17152 0.03571 0.0
H780 H 0.87231 0.08419 0.27507 0.0
H781 H 0.76693 0.19356 0.27118 0.0
H782 H 0.87961 0.15648 0.29831 0.0
H783 H 0.75621 0.11823 0.25265 0.0
H784 H 0.81057 0.18227 0.27826 0.0
H785 H 0.832 0.09829 0.26386 0.0
C786 C 0.86552 0.10307 0.27775 0.0
C787 C 0.87933 0.11908 0.28775 0.0
C788 C 0.79872 0.16827 0.27254 0.0
C789 C 0.8332 0.1354 0.2749 0.0
C790 C 0.77384 0.17472 0.26848 0.0
C791 C 0.7579 0.15674 0.26143 0.0
C792 C 0.80771 0.14366 0.26951 0.0
C793 C 0.76782 0.13263 0.25816 0.0
C794 C 0.84254 0.11114 0.27131 0.0
C795 C 0.86979 0.14354 0.29057 0.0
N796 N 0.79203 0.12675 0.26231 0.0
N797 N 0.84724 0.15086 0.28428 0.0
H798 H 0.85688 0.37683 0.52677 0.0
H799 H 0.89451 0.2322 0.5117 0.0
H800 H 0.92716 0.34299 0.54251 0.0
H801 H 0.81667 0.25788 0.51192 0.0
H802 H 0.90831 0.27497 0.51853 0.0
H803 H 0.84333 0.33533 0.51703 0.0
C804 C 0.86953 0.36081 0.52816 0.0
C805 C 0.89325 0.36359 0.53556 0.0
C806 C 0.88821 0.27128 0.51705 0.0
C807 C 0.87794 0.31618 0.52415 0.0
C808 C 0.88032 0.24689 0.51311 0.0
C809 C 0.85439 0.24148 0.51135 0.0
C810 C 0.87009 0.2905 0.51909 0.0
C811 C 0.83684 0.26125 0.51329 0.0
C812 C 0.86177 0.33715 0.52254 0.0
C813 C 0.90894 0.3421 0.53668 0.0
N814 N 0.84501 0.28495 0.51706 0.0
N815 N 0.901 0.31938 0.53107 0.0
H816 H 0.63052 0.15157 0.46036 0.0
H817 H 0.76383 0.10501 0.49428 0.0
H818 H 0.64621 0.0735 0.47206 0.0
H819 H 0.74317 0.18375 0.48934 0.0
H820 H 0.72067 0.09297 0.48664 0.0
H821 H 0.67121 0.1637 0.47165 0.0
C822 C 0.6423 0.13698 0.46552 0.0
C823 C 0.63482 0.11142 0.4652 0.0
C824 C 0.72552 0.11289 0.48733 0.0
C825 C 0.68195 0.12521 0.47786 0.0
C826 C 0.75016 0.11976 0.49166 0.0
C827 C 0.7571 0.14541 0.49237 0.0
C828 C 0.70776 0.1318 0.48355 0.0
C829 C 0.73864 0.16374 0.48891 0.0
C830 C 0.66569 0.14393 0.47187 0.0
C831 C 0.65129 0.09337 0.47179 0.0
N832 N 0.71487 0.15658 0.48455 0.0
N833 N 0.67413 0.10059 0.47775 0.0
H834 H 0.85178 0.12662 0.71743 0.0
H835 H 0.89971 0.26485 0.74212 0.0
H836 H 0.93037 0.14992 0.71652 0.0
H837 H 0.82092 0.24226 0.74243 0.0
H838 H 0.91163 0.22162 0.73502 0.0
H839 H 0.84051 0.16738 0.72909 0.0
C840 C 0.86673 0.14015 0.7199 0.0
C841 C 0.89205 0.1349 0.71588 0.0
C842 C 0.89174 0.22604 0.73673 0.0
C843 C 0.87921 0.18179 0.72901 0.0
C844 C 0.88493 0.25073 0.74079 0.0
C845 C 0.85928 0.25717 0.74276 0.0
C846 C 0.87276 0.20764 0.73457 0.0
C847 C 0.84092 0.23811 0.74094 0.0
C848 C 0.86025 0.1635 0.72646 0.0
C849 C 0.91056 0.15331 0.71918 0.0
N850 N 0.848 0.21423 0.73686 0.0
N851 N 0.90375 0.17597 0.72545 0.0
H852 H 0.8688 0.34869 0.95811 0.0
H853 H 0.74072 0.39235 0.00085 0.0
H854 H 0.855 0.42541 0.97344 0.0
H855 H 0.75184 0.31825 0.98061 0.0
H856 H 0.78405 0.40378 0.99323 0.0
H857 H 0.82775 0.33615 0.96883 0.0
C858 C 0.8573 0.36286 0.96393 0.0
C859 C 0.86539 0.38817 0.96487 0.0
C860 C 0.77705 0.38499 0.99052 0.0
C861 C 0.81805 0.37398 0.97696 0.0
C862 C 0.75234 0.37844 0.99488 0.0
C863 C 0.74265 0.35435 0.99129 0.0
C864 C 0.7922 0.36729 0.98254 0.0
C865 C 0.75852 0.33706 0.98356 0.0
C866 C 0.83373 0.35571 0.96994 0.0
C867 C 0.84941 0.40576 0.9723 0.0
N868 N 0.78248 0.34389 0.97941 0.0
N869 N 0.82648 0.39834 0.97802 0.0
H870 H 0.61661 0.35913 0.20724 0.0
H871 H 0.61099 0.23127 0.25716 0.0
H872 H 0.54796 0.32732 0.22655 0.0
H873 H 0.67968 0.25965 0.23594 0.0
H874 H 0.58904 0.26996 0.24938 0.0
H875 H 0.64135 0.3268 0.22109 0.0
C876 C 0.6068 0.34565 0.21464 0.0
C877 C 0.58018 0.34569 0.21562 0.0
C878 C 0.60898 0.26789 0.24653 0.0
C879 C 0.60826 0.30853 0.23129 0.0
C880 C 0.62152 0.24578 0.25097 0.0
C881 C 0.64711 0.24214 0.24702 0.0
C882 C 0.62204 0.28649 0.23796 0.0
C883 C 0.65988 0.26166 0.23912 0.0
C884 C 0.62091 0.3271 0.22245 0.0
C885 C 0.56842 0.32768 0.22527 0.0
N886 N 0.64713 0.28291 0.23469 0.0
N887 N 0.58251 0.30971 0.23261 0.0
H888 H 0.12549 0.87495 0.37523 0.0
H889 H 0.10035 0.86995 0.46728 0.0
H890 H 0.05521 0.89955 0.39626 0.0
H891 H 0.16202 0.83047 0.44466 0.0
H892 H 0.08408 0.88235 0.44157 0.0
H893 H 0.13997 0.86008 0.40079 0.0
C894 C 0.11313 0.87726 0.38526 0.0
C895 C 0.08916 0.8886 0.38365 0.0
C896 C 0.10109 0.87086 0.44223 0.0
C897 C 0.10558 0.87156 0.41294 0.0
C898 C 0.1104 0.86381 0.4569 0.0
C899 C 0.13259 0.8492 0.45808 0.0
C900 C 0.11421 0.86346 0.42868 0.0
C901 C 0.14484 0.84174 0.44427 0.0
C902 C 0.12134 0.86863 0.39982 0.0
C903 C 0.07376 0.89077 0.39698 0.0
N904 N 0.13558 0.84908 0.43014 0.0
N905 N 0.0823 0.88249 0.4111 0.0
H906 H 0.15374 0.59436 0.62629 0.0
H907 H 0.11506 0.60988 0.71642 0.0
H908 H 0.08336 0.56672 0.64576 0.0
H909 H 0.1832 0.64171 0.6964 0.0
H910 H 0.10407 0.59222 0.69086 0.0
H911 H 0.16595 0.60992 0.65216 0.0
C912 C 0.14094 0.59138 0.63603 0.0
C913 C 0.11747 0.57926 0.63384 0.0
C914 C 0.12145 0.60303 0.69205 0.0
C915 C 0.1312 0.59725 0.66347 0.0
C916 C 0.12774 0.6131 0.70664 0.0
C917 C 0.15005 0.62731 0.70851 0.0
C918 C 0.13761 0.60717 0.67923 0.0
C919 C 0.16579 0.63089 0.69546 0.0
C920 C 0.14785 0.60042 0.65078 0.0
C921 C 0.10149 0.57626 0.64686 0.0
N922 N 0.15926 0.62091 0.68136 0.0
N923 N 0.10864 0.5852 0.6611 0.0
H924 H 0.44819 0.65511 0.88884 0.0
H925 H 0.36717 0.61143 0.96196 0.0
H926 H 0.39484 0.59291 0.8862 0.0
H927 H 0.38235 0.69062 0.95353 0.0
H928 H 0.38506 0.60131 0.93626 0.0
H929 H 0.43119 0.66589 0.9146 0.0
C930 C 0.43286 0.64376 0.89354 0.0
C931 C 0.42303 0.62297 0.88518 0.0
C932 C 0.38451 0.62087 0.94008 0.0
C933 C 0.40423 0.63483 0.91493 0.0
C934 C 0.37447 0.62665 0.95474 0.0
C935 C 0.37327 0.65189 0.9598 0.0
C936 C 0.39392 0.64043 0.9306 0.0
C937 C 0.38285 0.67093 0.94998 0.0
C938 C 0.42333 0.64989 0.9083 0.0
C939 C 0.40354 0.60871 0.89222 0.0
N940 N 0.39297 0.66479 0.93584 0.0
N941 N 0.39494 0.6148 0.9067 0.0
H942 H 0.37143 0.9397 0.1361 0.0
H943 H 0.408 0.86513 0.21453 0.0
H944 H 0.44543 0.90725 0.14459 0.0
H945 H 0.33311 0.89425 0.20461 0.0
H946 H 0.42322 0.88361 0.18999 0.0
H947 H 0.35826 0.92657 0.16224 0.0
C948 C 0.38501 0.93007 0.14352 0.0
C949 C 0.40954 0.92447 0.1381 0.0
C950 C 0.40349 0.88608 0.19323 0.0
C951 C 0.39447 0.90905 0.16801 0.0
C952 C 0.39482 0.87558 0.20725 0.0
C953 C 0.36924 0.87806 0.21155 0.0
C954 C 0.38644 0.89914 0.18348 0.0
C955 C 0.35297 0.89179 0.2017 0.0
C956 C 0.37743 0.92242 0.15842 0.0
C957 C 0.42621 0.91161 0.14819 0.0
N958 N 0.36181 0.90172 0.1881 0.0
N959 N 0.41834 0.90426 0.16263 0.0
H960 H 0.07532 0.63942 0.86992 0.0
H961 H 0.13495 0.59652 0.78801 0.0
H962 H 0.0979 0.5625 0.85994 0.0
H963 H 0.13189 0.67438 0.80336 0.0
H964 H 0.11646 0.58338 0.81301 0.0
H965 H 0.09077 0.65223 0.84411 0.0
C966 C 0.08331 0.62519 0.86223 0.0
C967 C 0.0854 0.59988 0.86708 0.0
C968 C 0.11982 0.60334 0.81089 0.0
C969 C 0.10321 0.61439 0.8376 0.0
C970 C 0.13031 0.61084 0.79663 0.0
C971 C 0.13503 0.63656 0.79366 0.0
C972 C 0.11378 0.62171 0.82218 0.0
C973 C 0.12866 0.65434 0.80521 0.0
C974 C 0.09229 0.63254 0.84756 0.0
C975 C 0.09618 0.58227 0.85671 0.0
N976 N 0.11831 0.64659 0.81896 0.0
N977 N 0.10466 0.58985 0.84245 0.0
H978 H 0.34164 0.56046 0.11618 0.0
H979 H 0.3938 0.63103 0.04046 0.0
H980 H 0.41496 0.59734 0.11485 0.0
H981 H 0.31379 0.62702 0.05113 0.0
H982 H 0.4032 0.61116 0.0657 0.0
H983 H 0.33233 0.5778 0.09031 0.0
C984 C 0.35579 0.57221 0.11054 0.0
C985 C 0.37915 0.57745 0.11786 0.0
C986 C 0.3836 0.61459 0.06248 0.0
C987 C 0.36874 0.59672 0.08803 0.0
C988 C 0.37822 0.6258 0.04808 0.0
C989 C 0.35299 0.63073 0.04378 0.0
C990 C 0.36358 0.60788 0.07249 0.0
C991 C 0.3335 0.62365 0.05408 0.0
C992 C 0.35046 0.58196 0.09573 0.0
C993 C 0.3969 0.59231 0.10967 0.0
N994 N 0.3392 0.61247 0.06797 0.0
N995 N 0.39134 0.60136 0.0952 0.0
H996 H 0.3754 0.8865 0.37619 0.0
H997 H 0.40394 0.87903 0.28454 0.0
H998 H 0.44713 0.90928 0.35626 0.0
H999 H 0.34147 0.84046 0.30691 0.0
H1000 H 0.41939 0.89232 0.31034 0.0
H1001 H 0.36163 0.87189 0.35046 0.0
C1002 C 0.3882 0.88853 0.36636 0.0
C1003 C 0.41239 0.89921 0.36834 0.0
C1004 C 0.40238 0.88084 0.30958 0.0
C1005 C 0.39682 0.88239 0.33883 0.0
C1006 C 0.39356 0.87328 0.29488 0.0
C1007 C 0.37139 0.85865 0.2936 0.0
C1008 C 0.38876 0.87393 0.32305 0.0
C1009 C 0.35865 0.85171 0.30736 0.0
C1010 C 0.38041 0.88002 0.35169 0.0
C1011 C 0.42838 0.90102 0.35524 0.0
N1012 N 0.36744 0.85953 0.32149 0.0
N1013 N 0.42025 0.89282 0.34101 0.0
H1014 H 0.06841 0.92685 0.60432 0.0
H1015 H 0.17336 0.84708 0.55765 0.0
H1016 H 0.13483 0.89398 0.62588 0.0
H1017 H 0.10963 0.88362 0.5353 0.0
H1018 H 0.15955 0.86438 0.58275 0.0
H1019 H 0.08305 0.9113 0.57891 0.0
C1020 C 0.08605 0.91635 0.60371 0.0
C1021 C 0.10042 0.91173 0.61725 0.0
C1022 C 0.1486 0.86869 0.57236 0.0
C1023 C 0.11735 0.89396 0.58822 0.0
C1024 C 0.15648 0.85881 0.55803 0.0
C1025 C 0.14259 0.8639 0.54439 0.0
C1026 C 0.1266 0.88372 0.57309 0.0
C1027 C 0.12088 0.87922 0.54555 0.0
C1028 C 0.09447 0.90758 0.5892 0.0
C1029 C 0.1233 0.89828 0.61574 0.0
N1030 N 0.1135 0.88853 0.55966 0.0
N1031 N 0.13099 0.88981 0.60151 0.0
H1032 H 0.60524 0.44395 0.89364 0.0
H1033 H 0.62939 0.32436 0.94915 0.0
H1034 H 0.58041 0.36819 0.88233 0.0
H1035 H 0.64054 0.40169 0.96409 0.0
H1036 H 0.61285 0.33988 0.92418 0.0
H1037 H 0.61986 0.4287 0.91913 0.0
C1038 C 0.60288 0.4241 0.89653 0.0
C1039 C 0.59161 0.40731 0.88585 0.0
C1040 C 0.61883 0.35346 0.93294 0.0
C1041 C 0.60828 0.38971 0.91498 0.0
C1042 C 0.62831 0.34461 0.94718 0.0
C1043 C 0.63636 0.36177 0.95869 0.0
C1044 C 0.61758 0.37967 0.93014 0.0
C1045 C 0.63452 0.38781 0.95553 0.0
C1046 C 0.6111 0.41543 0.9111 0.0
C1047 C 0.58876 0.38184 0.89027 0.0
N1048 N 0.62543 0.39596 0.94153 0.0
N1049 N 0.59716 0.37379 0.90445 0.0
H1050 H 0.61511 0.12735 0.13203 0.0
H1051 H 0.65855 0.1003 0.21978 0.0
H1052 H 0.63759 0.05295 0.14768 0.0
H1053 H 0.66332 0.17418 0.19836 0.0
H1054 H 0.64631 0.08234 0.1944 0.0
H1055 H 0.62792 0.14474 0.15737 0.0
C1056 C 0.62265 0.11468 0.14085 0.0
C1057 C 0.6253 0.0887 0.1378 0.0
C1058 C 0.65013 0.10246 0.19528 0.0
C1059 C 0.63993 0.10841 0.16678 0.0
C1060 C 0.65702 0.11272 0.20974 0.0
C1061 C 0.66197 0.13875 0.21114 0.0
C1062 C 0.64777 0.11844 0.18223 0.0
C1063 C 0.65976 0.154 0.19777 0.0
C1064 C 0.63009 0.12462 0.15525 0.0
C1065 C 0.63542 0.07313 0.14956 0.0
N1066 N 0.65266 0.14365 0.18389 0.0
N1067 N 0.64224 0.0832 0.1636 0.0
H1068 H 0.95625 0.11748 0.3991 0.0
H1069 H 0.83376 0.1647 0.44489 0.0
H1070 H 0.88159 0.11561 0.37836 0.0
H1071 H 0.89669 0.12921 0.46868 0.0
H1072 H 0.85327 0.15372 0.41975 0.0
H1073 H 0.93694 0.12888 0.42431 0.0
C1074 C 0.93582 0.11962 0.39988 0.0
C1075 C 0.92041 0.11558 0.38674 0.0
C1076 C 0.86274 0.14834 0.43049 0.0
C1077 C 0.89837 0.12878 0.41527 0.0
C1078 C 0.8517 0.15464 0.4448 0.0
C1079 C 0.86364 0.14775 0.45883 0.0
C1080 C 0.88612 0.13556 0.43025 0.0
C1081 C 0.88683 0.13472 0.4581 0.0
C1082 C 0.92484 0.12595 0.41422 0.0
C1083 C 0.89404 0.11842 0.38829 0.0
N1084 N 0.89746 0.1292 0.44402 0.0
N1085 N 0.88383 0.12503 0.4023 0.0
H1086 H 0.91042 0.44615 0.64767 0.0
H1087 H 0.83667 0.33678 0.69385 0.0
H1088 H 0.88276 0.37779 0.62582 0.0
H1089 H 0.88191 0.39367 0.7171 0.0
H1090 H 0.84972 0.35419 0.66861 0.0
H1091 H 0.89648 0.42978 0.67311 0.0
C1092 C 0.90135 0.42774 0.64824 0.0
C1093 C 0.89783 0.41324 0.63465 0.0
C1094 C 0.8568 0.36287 0.67923 0.0
C1095 C 0.88181 0.39448 0.66361 0.0
C1096 C 0.8493 0.353 0.69363 0.0
C1097 C 0.85828 0.36378 0.70757 0.0
C1098 C 0.87323 0.38384 0.67875 0.0
C1099 C 0.87462 0.38475 0.70662 0.0
C1100 C 0.89353 0.41837 0.66274 0.0
C1101 C 0.88613 0.38944 0.63603 0.0
N1102 N 0.88153 0.39415 0.69244 0.0
N1103 N 0.87846 0.38085 0.65024 0.0
H1104 H 0.60582 0.15075 0.37676 0.0
H1105 H 0.62515 0.11813 0.2861 0.0
H1106 H 0.57472 0.08395 0.35479 0.0
H1107 H 0.66662 0.17683 0.31029 0.0
H1108 H 0.60452 0.10664 0.31076 0.0
H1109 H 0.62595 0.16224 0.35201 0.0
C1110 C 0.60307 0.1386 0.36669 0.0
C1111 C 0.58855 0.11637 0.36783 0.0
C1112 C 0.61818 0.12199 0.31067 0.0
C1113 C 0.61172 0.12928 0.33949 0.0
C1114 C 0.62995 0.12856 0.29661 0.0
C1115 C 0.64763 0.14844 0.29617 0.0
C1116 C 0.62402 0.13553 0.32437 0.0
C1117 C 0.65313 0.16134 0.31012 0.0
C1118 C 0.61472 0.14507 0.35259 0.0
C1119 C 0.58595 0.10113 0.35446 0.0
N1120 N 0.64131 0.15471 0.32364 0.0
N1121 N 0.59738 0.1079 0.34083 0.0
H1122 H 0.84958 0.05595 0.61452 0.0
H1123 H 0.8922 0.13521 0.54013 0.0
H1124 H 0.91784 0.10156 0.61421 0.0
H1125 H 0.81314 0.12473 0.55173 0.0
H1126 H 0.904 0.11562 0.56508 0.0
H1127 H 0.83778 0.07422 0.58928 0.0
C1128 C 0.8621 0.0698 0.60926 0.0
C1129 C 0.88479 0.07719 0.61669 0.0
C1130 C 0.88408 0.11761 0.56213 0.0
C1131 C 0.8716 0.09752 0.58752 0.0
C1132 C 0.87735 0.12867 0.5479 0.0
C1133 C 0.85167 0.13164 0.54393 0.0
C1134 C 0.86501 0.10899 0.57228 0.0
C1135 C 0.83315 0.1229 0.55443 0.0
C1136 C 0.85535 0.08009 0.5948 0.0
C1137 C 0.90044 0.09479 0.60893 0.0
N1138 N 0.84018 0.11179 0.56811 0.0
N1139 N 0.8936 0.10425 0.59477 0.0
H1140 H 0.93513 0.41616 0.85599 0.0
H1141 H 0.85253 0.31749 0.80639 0.0
H1142 H 0.90474 0.34698 0.87532 0.0
H1143 H 0.89395 0.37958 0.78569 0.0
H1144 H 0.87056 0.32848 0.83188 0.0
H1145 H 0.91913 0.40372 0.83026 0.0
C1146 C 0.92504 0.39836 0.85481 0.0
C1147 C 0.92119 0.38261 0.86781 0.0
C1148 C 0.8758 0.33963 0.82175 0.0
C1149 C 0.90289 0.3682 0.8384 0.0
C1150 C 0.86549 0.33339 0.80721 0.0
C1151 C 0.87174 0.34768 0.79393 0.0
C1152 C 0.89232 0.36044 0.82304 0.0
C1153 C 0.88864 0.36806 0.79564 0.0
C1154 C 0.91605 0.3912 0.84011 0.0
C1155 C 0.90831 0.35959 0.86558 0.0
N1156 N 0.89824 0.37391 0.80995 0.0
N1157 N 0.89949 0.35314 0.85117 0.0
H1158 H 0.54036 0.40642 0.09779 0.0
H1159 H 0.66865 0.36084 0.056 0.0
H1160 H 0.61015 0.3909 0.12252 0.0
H1161 H 0.59833 0.37412 0.03137 0.0
H1162 H 0.64836 0.37474 0.08025 0.0
H1163 H 0.562 0.39742 0.07312 0.0
C1164 C 0.56024 0.40116 0.09803 0.0
C1165 C 0.5734 0.3993 0.11228 0.0
C1166 C 0.63738 0.37474 0.06953 0.0
C1167 C 0.59836 0.3891 0.08404 0.0
C1168 C 0.64897 0.36683 0.05568 0.0
C1169 C 0.63511 0.36623 0.04168 0.0
C1170 C 0.61171 0.38206 0.06938 0.0
C1171 C 0.60969 0.37422 0.04193 0.0
C1172 C 0.57262 0.39612 0.08394 0.0
C1173 C 0.59928 0.39282 0.11184 0.0
N1174 N 0.59878 0.3817 0.05557 0.0
N1175 N 0.61085 0.38782 0.09798 0.0
loop_
_geom_bond_atom_site_label_1
_geom_bond_atom_site_label_2
_geom_bond_distance
_geom_bond_site_symmetry_2
_ccdc_geom_bond_type
H0 C27 0.929 . S
N1 C26 1.433 . S
N1 C32 1.435 . S
N1 C38 1.423 . S
H2 C28 0.930 . S
H3 C31 0.931 . S
H4 C30 0.929 . S
H5 C33 0.930 . S
H6 C34 0.932 . S
H7 C37 0.929 . S
H8 C36 0.931 . S
H9 C39 0.929 . S
H10 C43 0.932 . S
H11 C40 0.931 . S
H12 C42 0.929 . S
H13 C45 0.929 . S
H14 C46 0.930 . S
H15 C48 0.929 . S
H16 C49 0.931 . S
H17 C51 0.930 . S
H18 C52 0.932 . S
H19 C54 0.931 . S
H20 C55 0.929 . S
H21 C57 0.929 . S
H22 C58 0.931 1_455 S
H23 C60 0.929 . S
N24 C44 1.433 . S
N24 C50 1.435 . S
N24 C56 1.423 . S
H25 C61 0.932 . S
C26 N1 1.433 . S
C26 C27 1.363 . S
C26 C31 1.370 . S
C27 H0 0.929 . S
C27 C26 1.363 . S
C27 C28 1.385 . S
C28 H2 0.930 . S
C28 C27 1.385 . S
C28 C29 1.357 . S
C29 C28 1.357 . S
C29 C30 1.406 . S
C30 H4 0.929 . S
C30 C29 1.406 . S
C30 C31 1.391 . S
C31 H3 0.931 . S
C31 C26 1.370 . S
C31 C30 1.391 . S
C32 N1 1.435 . S
C32 C33 1.358 . S
C32 C37 1.371 . S
C33 H5 0.930 . S
C33 C32 1.358 . S
C33 C34 1.405 . S
C34 H6 0.932 . S
C34 C33 1.405 . S
C34 C35 1.383 . S
C35 C34 1.383 . S
C35 C36 1.393 . S
C36 H8 0.931 . S
C36 C35 1.393 . S
C36 C37 1.382 . S
C37 H7 0.929 . S
C37 C32 1.371 . S
C37 C36 1.382 . S
C38 N1 1.423 . S
C38 C39 1.362 . S
C38 C43 1.388 . S
C39 H9 0.929 . S
C39 C38 1.362 . S
C39 C40 1.376 1_565 S
C40 H11 0.931 . S
C40 C39 1.376 1_545 S
C40 C41 1.396 . S
C41 C40 1.396 . S
C41 C42 1.348 1_545 S
C41 C59 1.472 . S
C42 H12 0.929 . S
C42 C41 1.348 1_565 S
C42 C43 1.443 . S
C43 H10 0.932 . S
C43 C38 1.388 . S
C43 C42 1.443 . S
C44 N24 1.433 . S
C44 C45 1.363 . S
C44 C49 1.370 . S
C45 H13 0.929 . S
C45 C44 1.363 . S
C45 C46 1.385 . S
C46 H14 0.930 . S
C46 C45 1.385 . S
C46 C47 1.357 . S
C47 C46 1.357 . S
C47 C48 1.406 . S
C48 H15 0.929 . S
C48 C47 1.406 . S
C48 C49 1.391 . S
C49 H16 0.931 . S
C49 C44 1.370 . S
C49 C48 1.391 . S
C50 N24 1.435 . S
C50 C51 1.358 . S
C50 C55 1.371 . S
C51 H17 0.930 . S
C51 C50 1.358 . S
C51 C52 1.405 . S
C52 H18 0.932 . S
C52 C51 1.405 . S
C52 C53 1.383 . S
C53 C52 1.383 . S
C53 C54 1.393 . S
C54 H19 0.931 . S
C54 C53 1.393 . S
C54 C55 1.382 . S
C55 H20 0.929 . S
C55 C50 1.371 . S
C55 C54 1.382 . S
C56 N24 1.423 . S
C56 C57 1.362 . S
C56 C61 1.388 . S
C57 H21 0.929 . S
C57 C56 1.362 . S
C57 C58 1.376 . S
C58 H22 0.931 1_655 S
C58 C57 1.376 . S
C58 C59 1.396 1_655 S
C59 C41 1.472 . S
C59 C58 1.396 1_455 S
C59 C60 1.348 1_455 S
C60 H23 0.929 . S
C60 C59 1.348 1_655 S
C60 C61 1.443 . S
C61 H25 0.932 . S
C61 C56 1.388 . S
C61 C60 1.443 . S
H62 C89 0.929 . S
N63 C88 1.433 . S
N63 C94 1.435 . S
N63 C100 1.423 . S
H64 C90 0.930 . S
H65 C93 0.931 . S
H66 C92 0.929 . S
H67 C95 0.930 . S
H68 C96 0.932 . S
H69 C99 0.929 . S
H70 C98 0.931 . S
H71 C101 0.929 . S
H72 C105 0.932 . S
H73 C102 0.931 . S
H74 C104 0.929 . S
H75 C107 0.929 . S
H76 C108 0.930 . S
H77 C110 0.929 . S
H78 C111 0.931 . S
H79 C113 0.930 . S
H80 C114 0.932 . S
H81 C116 0.931 . S
H82 C117 0.929 . S
H83 C119 0.929 . S
H84 C120 0.931 . S
H85 C122 0.929 . S
N86 C106 1.433 . S
N86 C112 1.435 . S
N86 C118 1.423 . S
H87 C123 0.932 . S
C88 N63 1.433 . S
C88 C89 1.363 . S
C88 C93 1.370 . S
C89 H62 0.929 . S
C89 C88 1.363 . S
C89 C90 1.385 . S
C90 H64 0.930 . S
C90 C89 1.385 . S
C90 C91 1.357 . S
C91 C90 1.357 . S
C91 C92 1.406 . S
C92 H66 0.929 . S
C92 C91 1.406 . S
C92 C93 1.391 . S
C93 H65 0.931 . S
C93 C88 1.370 . S
C93 C92 1.391 . S
C94 N63 1.435 . S
C94 C95 1.358 . S
C94 C99 1.371 . S
C95 H67 0.930 . S
C95 C94 1.358 . S
C95 C96 1.405 . S
C96 H68 0.932 . S
C96 C95 1.405 . S
C96 C97 1.383 . S
C97 C96 1.383 . S
C97 C98 1.393 . S
C98 H70 0.931 . S
C98 C97 1.393 . S
C98 C99 1.382 . S
C99 H69 0.929 . S
C99 C94 1.371 . S
C99 C98 1.382 . S
C100 N63 1.423 . S
C100 C101 1.362 . S
C100 C105 1.388 . S
C101 H71 0.929 . S
C101 C100 1.362 . S
C101 C102 1.376 1_655 S
C102 H73 0.931 . S
C102 C101 1.376 1_455 S
C102 C103 1.396 . S
C103 C102 1.396 . S
C103 C104 1.348 1_455 S
C103 C121 1.472 . S
C104 H74 0.929 . S
C104 C103 1.348 1_655 S
C104 C105 1.443 . S
C105 H72 0.932 . S
C105 C100 1.388 . S
C105 C104 1.443 . S
C106 N86 1.433 . S
C106 C107 1.363 . S
C106 C111 1.370 . S
C107 H75 0.929 . S
C107 C106 1.363 . S
C107 C108 1.385 . S
C108 H76 0.930 . S
C108 C107 1.385 . S
C108 C109 1.357 . S
C109 C108 1.357 . S
C109 C110 1.406 . S
C110 H77 0.929 . S
C110 C109 1.406 . S
C110 C111 1.391 . S
C111 H78 0.931 . S
C111 C106 1.370 . S
C111 C110 1.391 . S
C112 N86 1.435 . S
C112 C113 1.358 . S
C112 C117 1.371 . S
C113 H79 0.930 . S
C113 C112 1.358 . S
C113 C114 1.405 . S
C114 H80 0.932 . S
C114 C113 1.405 . S
C114 C115 1.383 . S
C115 C114 1.383 . S
C115 C116 1.393 . S
C116 H81 0.931 . S
C116 C115 1.393 . S
C116 C117 1.382 . S
C117 H82 0.929 . S
C117 C112 1.371 . S
C117 C116 1.382 . S
C118 N86 1.423 . S
C118 C119 1.362 . S
C118 C123 1.388 . S
C119 H83 0.929 . S
C119 C118 1.362 . S
C119 C120 1.376 . S
C120 H84 0.931 . S
C120 C119 1.376 . S
C120 C121 1.396 . S
C121 C103 1.472 . S
C121 C120 1.396 . S
C121 C122 1.348 . S
C122 H85 0.929 . S
C122 C121 1.348 . S
C122 C123 1.443 . S
C123 H87 0.932 . S
C123 C118 1.388 . S
C123 C122 1.443 . S
H124 C151 0.929 . S
N125 C150 1.433 . S
N125 C156 1.435 . S
N125 C162 1.423 . S
H126 C152 0.930 . S
H127 C155 0.931 . S
H128 C154 0.929 . S
H129 C157 0.930 . S
H130 C158 0.932 . S
H131 C161 0.929 . S
H132 C160 0.931 . S
H133 C163 0.929 . S
H134 C167 0.932 . S
H135 C164 0.931 . S
H136 C166 0.929 . S
H137 C169 0.929 . S
H138 C170 0.930 . S
H139 C172 0.929 . S
H140 C173 0.931 . S
H141 C175 0.930 . S
H142 C176 0.932 . S
H143 C178 0.931 . S
H144 C179 0.929 . S
H145 C181 0.929 . S
H146 C182 0.931 . S
H147 C184 0.929 . S
N148 C168 1.433 . S
N148 C174 1.435 . S
N148 C180 1.423 . S
H149 C185 0.932 . S
C150 N125 1.433 . S
C150 C151 1.363 . S
C150 C155 1.370 . S
C151 H124 0.929 . S
C151 C150 1.363 . S
C151 C152 1.385 . S
C152 H126 0.930 . S
C152 C151 1.385 . S
C152 C153 1.357 . S
C153 C152 1.357 . S
C153 C154 1.406 . S
C154 H128 0.929 . S
C154 C153 1.406 . S
C154 C155 1.391 . S
C155 H127 0.931 . S
C155 C150 1.370 . S
C155 C154 1.391 . S
C156 N125 1.435 . S
C156 C157 1.358 . S
C156 C161 1.371 . S
C157 H129 0.930 . S
C157 C156 1.358 . S
C157 C158 1.405 . S
C158 H130 0.932 . S
C158 C157 1.405 . S
C158 C159 1.383 . S
C159 C158 1.383 . S
C159 C160 1.393 . S
C160 H132 0.931 . S
C160 C159 1.393 . S
C160 C161 1.382 . S
C161 H131 0.929 . S
C161 C156 1.371 . S
C161 C160 1.382 . S
C162 N125 1.423 . S
C162 C163 1.362 . S
C162 C167 1.388 . S
C163 H133 0.929 . S
C163 C162 1.362 . S
C163 C164 1.376 . S
C164 H135 0.931 . S
C164 C163 1.376 . S
C164 C165 1.396 . S
C165 C164 1.396 . S
C165 C166 1.348 . S
C165 C183 1.472 . S
C166 H136 0.929 . S
C166 C165 1.348 . S
C166 C167 1.443 . S
C167 H134 0.932 . S
C167 C162 1.388 . S
C167 C166 1.443 . S
C168 N148 1.433 . S
C168 C169 1.363 . S
C168 C173 1.370 . S
C169 H137 0.929 . S
C169 C168 1.363 . S
C169 C170 1.385 . S
C170 H138 0.930 . S
C170 C169 1.385 . S
C170 C171 1.357 . S
C171 C170 1.357 . S
C171 C172 1.406 . S
C172 H139 0.929 . S
C172 C171 1.406 . S
C172 C173 1.391 . S
C173 H140 0.931 . S
C173 C168 1.370 . S
C173 C172 1.391 . S
C174 N148 1.435 . S
C174 C175 1.358 . S
C174 C179 1.371 . S
C175 H141 0.930 . S
C175 C174 1.358 . S
C175 C176 1.405 . S
C176 H142 0.932 . S
C176 C175 1.405 . S
C176 C177 1.383 . S
C177 C176 1.383 . S
C177 C178 1.393 . S
C178 H143 0.931 . S
C178 C177 1.393 . S
C178 C179 1.382 . S
C179 H144 0.929 . S
C179 C174 1.371 . S
C179 C178 1.382 . S
C180 N148 1.423 . S
C180 C181 1.362 . S
C180 C185 1.388 . S
C181 H145 0.929 . S
C181 C180 1.362 . S
C181 C182 1.376 . S
C182 H146 0.931 . S
C182 C181 1.376 . S
C182 C183 1.396 . S
C183 C165 1.472 . S
C183 C182 1.396 . S
C183 C184 1.348 . S
C184 H147 0.929 . S
C184 C183 1.348 . S
C184 C185 1.443 . S
C185 H149 0.932 . S
C185 C180 1.388 . S
C185 C184 1.443 . S
H186 C213 0.929 . S
N187 C212 1.433 . S
N187 C218 1.435 . S
N187 C224 1.423 . S
H188 C214 0.930 . S
H189 C217 0.931 . S
H190 C216 0.929 . S
H191 C219 0.930 . S
H192 C220 0.932 . S
H193 C223 0.929 . S
H194 C222 0.931 . S
H195 C225 0.929 . S
H196 C229 0.932 . S
H197 C226 0.931 . S
H198 C228 0.929 . S
H199 C231 0.929 . S
H200 C232 0.930 . S
H201 C234 0.929 . S
H202 C235 0.931 . S
H203 C237 0.930 . S
H204 C238 0.932 . S
H205 C240 0.931 . S
H206 C241 0.929 . S
H207 C243 0.929 . S
H208 C244 0.931 1_565 S
H209 C246 0.929 . S
N210 C230 1.433 . S
N210 C236 1.435 . S
N210 C242 1.423 . S
H211 C247 0.932 . S
C212 N187 1.433 . S
C212 C213 1.363 . S
C212 C217 1.370 . S
C213 H186 0.929 . S
C213 C212 1.363 . S
C213 C214 1.385 . S
C214 H188 0.930 . S
C214 C213 1.385 . S
C214 C215 1.357 . S
C215 C214 1.357 . S
C215 C216 1.406 . S
C216 H190 0.929 . S
C216 C215 1.406 . S
C216 C217 1.391 . S
C217 H189 0.931 . S
C217 C212 1.370 . S
C217 C216 1.391 . S
C218 N187 1.435 . S
C218 C219 1.358 . S
C218 C223 1.371 . S
C219 H191 0.930 . S
C219 C218 1.358 . S
C219 C220 1.405 . S
C220 H192 0.932 . S
C220 C219 1.405 . S
C220 C221 1.383 . S
C221 C220 1.383 . S
C221 C222 1.393 . S
C222 H194 0.931 . S
C222 C221 1.393 . S
C222 C223 1.382 . S
C223 H193 0.929 . S
C223 C218 1.371 . S
C223 C222 1.382 . S
C224 N187 1.423 . S
C224 C225 1.362 . S
C224 C229 1.388 . S
C225 H195 0.929 . S
C225 C224 1.362 . S
C225 C226 1.376 . S
C226 H197 0.931 . S
C226 C225 1.376 . S
C226 C227 1.396 . S
C227 C226 1.396 . S
C227 C228 1.348 . S
C227 C245 1.444 1_565 S
C228 H198 0.929 . S
C228 C227 1.348 . S
C228 C229 1.443 . S
C229 H196 0.932 . S
C229 C224 1.388 . S
C229 C228 1.443 . S
C230 N210 1.433 . S
C230 C231 1.363 . S
C230 C235 1.370 . S
C231 H199 0.929 . S
C231 C230 1.363 . S
C231 C232 1.385 . S
C232 H200 0.930 . S
C232 C231 1.385 . S
C232 C233 1.357 . S
C233 C232 1.357 . S
C233 C234 1.406 . S
C234 H201 0.929 . S
C234 C233 1.406 . S
C234 C235 1.391 . S
C235 H202 0.931 . S
C235 C230 1.370 . S
C235 C234 1.391 . S
C236 N210 1.435 . S
C236 C237 1.358 . S
C236 C241 1.371 . S
C237 H203 0.930 . S
C237 C236 1.358 . S
C237 C238 1.405 . S
C238 H204 0.932 . S
C238 C237 1.405 . S
C238 C239 1.383 . S
C239 C238 1.383 . S
C239 C240 1.393 . S
C240 H205 0.931 . S
C240 C239 1.393 . S
C240 C241 1.382 . S
C241 H206 0.929 . S
C241 C236 1.371 . S
C241 C240 1.382 . S
C242 N210 1.423 . S
C242 C243 1.362 . S
C242 C247 1.388 . S
C243 H207 0.929 . S
C243 C242 1.362 . S
C243 C244 1.376 . S
C244 H208 0.931 1_545 S
C244 C243 1.376 . S
C244 C245 1.400 . S
C245 C227 1.444 1_545 S
C245 C244 1.400 . S
C245 C246 1.375 . S
C246 H209 0.929 . S
C246 C245 1.375 . S
C246 C247 1.443 . S
C247 H211 0.932 . S
C247 C242 1.388 . S
C247 C246 1.443 . S
H248 C275 0.929 . S
N249 C274 1.433 . S
N249 C280 1.435 . S
N249 C286 1.423 . S
H250 C276 0.930 . S
H251 C279 0.931 . S
H252 C278 0.929 . S
H253 C281 0.930 . S
H254 C282 0.932 . S
H255 C285 0.929 . S
H256 C284 0.931 . S
H257 C287 0.929 . S
H258 C291 0.932 . S
H259 C288 0.931 . S
H260 C290 0.929 . S
H261 C293 0.929 . S
H262 C294 0.930 . S
H263 C296 0.929 . S
H264 C297 0.931 . S
H265 C299 0.930 . S
H266 C300 0.932 . S
H267 C302 0.931 . S
H268 C303 0.929 . S
H269 C305 0.929 . S
H270 C306 0.931 1_455 S
H271 C308 0.929 . S
N272 C292 1.433 . S
N272 C298 1.435 . S
N272 C304 1.423 . S
H273 C309 0.932 . S
C274 N249 1.433 . S
C274 C275 1.363 . S
C274 C279 1.370 . S
C275 H248 0.929 . S
C275 C274 1.363 . S
C275 C276 1.385 . S
C276 H250 0.930 . S
C276 C275 1.385 . S
C276 C277 1.357 . S
C277 C276 1.357 . S
C277 C278 1.406 . S
C278 H252 0.929 . S
C278 C277 1.406 . S
C278 C279 1.391 . S
C279 H251 0.931 . S
C279 C274 1.370 . S
C279 C278 1.391 . S
C280 N249 1.435 . S
C280 C281 1.358 . S
C280 C285 1.371 . S
C281 H253 0.930 . S
C281 C280 1.358 . S
C281 C282 1.405 . S
C282 H254 0.932 . S
C282 C281 1.405 . S
C282 C283 1.383 . S
C283 C282 1.383 . S
C283 C284 1.393 . S
C284 H256 0.931 . S
C284 C283 1.393 . S
C284 C285 1.382 . S
C285 H255 0.929 . S
C285 C280 1.371 . S
C285 C284 1.382 . S
C286 N249 1.423 . S
C286 C287 1.362 . S
C286 C291 1.388 . S
C287 H257 0.929 . S
C287 C286 1.362 . S
C287 C288 1.376 . S
C288 H259 0.931 . S
C288 C287 1.376 . S
C288 C289 1.396 . S
C289 C288 1.396 . S
C289 C290 1.348 . S
C289 C307 1.509 . S
C290 H260 0.929 . S
C290 C289 1.348 . S
C290 C291 1.443 . S
C291 H258 0.932 . S
C291 C286 1.388 . S
C291 C290 1.443 . S
C292 N272 1.433 . S
C292 C293 1.363 . S
C292 C297 1.370 . S
C293 H261 0.929 . S
C293 C292 1.363 . S
C293 C294 1.385 . S
C294 H262 0.930 . S
C294 C293 1.385 . S
C294 C295 1.357 . S
C295 C294 1.357 . S
C295 C296 1.406 . S
C296 H263 0.929 . S
C296 C295 1.406 . S
C296 C297 1.391 . S
C297 H264 0.931 . S
C297 C292 1.370 . S
C297 C296 1.391 . S
C298 N272 1.435 . S
C298 C299 1.358 . S
C298 C303 1.371 . S
C299 H265 0.930 . S
C299 C298 1.358 . S
C299 C300 1.405 . S
C300 H266 0.932 . S
C300 C299 1.405 . S
C300 C301 1.383 . S
C301 C300 1.383 . S
C301 C302 1.393 . S
C302 H267 0.931 . S
C302 C301 1.393 . S
C302 C303 1.382 . S
C303 H268 0.929 . S
C303 C298 1.371 . S
C303 C302 1.382 . S
C304 N272 1.423 . S
C304 C305 1.362 . S
C304 C309 1.388 . S
C305 H269 0.929 . S
C305 C304 1.362 . S
C305 C306 1.376 . S
C306 H270 0.931 1_655 S
C306 C305 1.376 . S
C306 C307 1.392 1_655 S
C307 C289 1.509 . S
C307 C306 1.392 1_455 S
C307 C308 1.314 1_455 S
C308 H271 0.929 . S
C308 C307 1.314 1_655 S
C308 C309 1.443 . S
C309 H273 0.932 . S
C309 C304 1.388 . S
C309 C308 1.443 . S
H310 C337 0.929 . S
N311 C336 1.433 . S
N311 C342 1.435 . S
N311 C348 1.423 . S
H312 C338 0.930 . S
H313 C341 0.931 . S
H314 C340 0.929 . S
H315 C343 0.930 . S
H316 C344 0.932 . S
H317 C347 0.929 . S
H318 C346 0.931 . S
H319 C349 0.929 . S
H320 C353 0.932 . S
H321 C350 0.931 . S
H322 C352 0.929 . S
H323 C355 0.929 . S
H324 C356 0.930 . S
H325 C358 0.929 . S
H326 C359 0.931 . S
H327 C361 0.930 . S
H328 C362 0.932 . S
H329 C364 0.931 . S
H330 C365 0.929 . S
H331 C367 0.929 . S
H332 C368 0.931 . S
H333 C370 0.929 . S
N334 C354 1.433 . S
N334 C360 1.435 . S
N334 C366 1.423 . S
H335 C371 0.932 . S
C336 N311 1.433 . S
C336 C337 1.363 . S
C336 C341 1.370 . S
C337 H310 0.929 . S
C337 C336 1.363 . S
C337 C338 1.385 . S
C338 H312 0.930 . S
C338 C337 1.385 . S
C338 C339 1.357 . S
C339 C338 1.357 . S
C339 C340 1.406 . S
C340 H314 0.929 . S
C340 C339 1.406 . S
C340 C341 1.391 . S
C341 H313 0.931 . S
C341 C336 1.370 . S
C341 C340 1.391 . S
C342 N311 1.435 . S
C342 C343 1.358 . S
C342 C347 1.371 . S
C343 H315 0.930 . S
C343 C342 1.358 . S
C343 C344 1.405 . S
C344 H316 0.932 . S
C344 C343 1.405 . S
C344 C345 1.383 . S
C345 C344 1.383 . S
C345 C346 1.393 . S
C346 H318 0.931 . S
C346 C345 1.393 . S
C346 C347 1.382 . S
C347 H317 0.929 . S
C347 C342 1.371 . S
C347 C346 1.382 . S
C348 N311 1.423 . S
C348 C349 1.362 . S
C348 C353 1.388 . S
C349 H319 0.929 . S
C349 C348 1.362 . S
C349 C350 1.376 . S
C350 H321 0.931 . S
C350 C349 1.376 . S
C350 C351 1.396 . S
C351 C350 1.396 . S
C351 C352 1.348 . S
C351 C369 1.472 . S
C352 H322 0.929 . S
C352 C351 1.348 . S
C352 C353 1.443 . S
C353 H320 0.932 . S
C353 C348 1.388 . S
C353 C352 1.443 . S
C354 N334 1.433 . S
C354 C355 1.363 . S
C354 C359 1.370 . S
C355 H323 0.929 . S
C355 C354 1.363 . S
C355 C356 1.385 . S
C356 H324 0.930 . S
C356 C355 1.385 . S
C356 C357 1.357 . S
C357 C356 1.357 . S
C357 C358 1.406 . S
C358 H325 0.929 . S
C358 C357 1.406 . S
C358 C359 1.391 . S
C359 H326 0.931 . S
C359 C354 1.370 . S
C359 C358 1.391 . S
C360 N334 1.435 . S
C360 C361 1.358 . S
C360 C365 1.371 . S
C361 H327 0.930 . S
C361 C360 1.358 . S
C361 C362 1.405 . S
C362 H328 0.932 . S
C362 C361 1.405 . S
C362 C363 1.383 . S
C363 C362 1.383 . S
C363 C364 1.393 . S
C364 H329 0.931 . S
C364 C363 1.393 . S
C364 C365 1.382 . S
C365 H330 0.929 . S
C365 C360 1.371 . S
C365 C364 1.382 . S
C366 N334 1.423 . S
C366 C367 1.362 . S
C366 C371 1.388 . S
C367 H331 0.929 . S
C367 C366 1.362 . S
C367 C368 1.376 . S
C368 H332 0.931 . S
C368 C367 1.376 . S
C368 C369 1.396 . S
C369 C351 1.472 . S
C369 C368 1.396 . S
C369 C370 1.348 . S
C370 H333 0.929 . S
C370 C369 1.348 . S
C370 C371 1.443 . S
C371 H335 0.932 . S
C371 C366 1.388 . S
C371 C370 1.443 . S
H372 C399 0.929 . S
N373 C398 1.433 . S
N373 C404 1.435 . S
N373 C410 1.423 . S
H374 C400 0.930 . S
H375 C403 0.931 . S
H376 C402 0.929 . S
H377 C405 0.930 . S
H378 C406 0.932 . S
H379 C409 0.929 . S
H380 C408 0.931 . S
H381 C411 0.929 . S
H382 C415 0.932 . S
H383 C412 0.931 . S
H384 C414 0.929 . S
H385 C417 0.929 . S
H386 C418 0.930 . S
H387 C420 0.929 . S
H388 C421 0.931 . S
H389 C423 0.930 . S
H390 C424 0.932 . S
H391 C426 0.931 . S
H392 C427 0.929 . S
H393 C429 0.929 . S
H394 C430 0.931 . S
H395 C432 0.929 . S
N396 C416 1.433 . S
N396 C422 1.435 . S
N396 C428 1.423 . S
H397 C433 0.932 . S
C398 N373 1.433 . S
C398 C399 1.363 . S
C398 C403 1.370 . S
C399 H372 0.929 . S
C399 C398 1.363 . S
C399 C400 1.385 . S
C400 H374 0.930 . S
C400 C399 1.385 . S
C400 C401 1.357 . S
C401 C400 1.357 . S
C401 C402 1.406 . S
C402 H376 0.929 . S
C402 C401 1.406 . S
C402 C403 1.391 . S
C403 H375 0.931 . S
C403 C398 1.370 . S
C403 C402 1.391 . S
C404 N373 1.435 . S
C404 C405 1.358 . S
C404 C409 1.371 . S
C405 H377 0.930 . S
C405 C404 1.358 . S
C405 C406 1.405 . S
C406 H378 0.932 . S
C406 C405 1.405 . S
C406 C407 1.383 . S
C407 C406 1.383 . S
C407 C408 1.393 . S
C408 H380 0.931 . S
C408 C407 1.393 . S
C408 C409 1.382 . S
C409 H379 0.929 . S
C409 C404 1.371 . S
C409 C408 1.382 . S
C410 N373 1.423 . S
C410 C411 1.362 . S
C410 C415 1.388 . S
C411 H381 0.929 . S
C411 C410 1.362 . S
C411 C412 1.376 1_565 S
C412 H383 0.931 . S
C412 C411 1.376 1_545 S
C412 C413 1.396 . S
C413 C412 1.396 . S
C413 C414 1.348 1_545 S
C413 C431 1.472 . S
C414 H384 0.929 . S
C414 C413 1.348 1_565 S
C414 C415 1.443 . S
C415 H382 0.932 . S
C415 C410 1.388 . S
C415 C414 1.443 . S
C416 N396 1.433 . S
C416 C417 1.363 . S
C416 C421 1.370 . S
C417 H385 0.929 . S
C417 C416 1.363 . S
C417 C418 1.385 . S
C418 H386 0.930 . S
C418 C417 1.385 . S
C418 C419 1.357 . S
C419 C418 1.357 . S
C419 C420 1.406 . S
C420 H387 0.929 . S
C420 C419 1.406 . S
C420 C421 1.391 . S
C421 H388 0.931 . S
C421 C416 1.370 . S
C421 C420 1.391 . S
C422 N396 1.435 . S
C422 C423 1.358 . S
C422 C427 1.371 . S
C423 H389 0.930 . S
C423 C422 1.358 . S
C423 C424 1.405 . S
C424 H390 0.932 . S
C424 C423 1.405 . S
C424 C425 1.383 . S
C425 C424 1.383 . S
C425 C426 1.393 . S
C426 H391 0.931 . S
C426 C425 1.393 . S
C426 C427 1.382 . S
C427 H392 0.929 . S
C427 C422 1.371 . S
C427 C426 1.382 . S
C428 N396 1.423 . S
C428 C429 1.362 . S
C428 C433 1.388 . S
C429 H393 0.929 . S
C429 C428 1.362 . S
C429 C430 1.376 . S
C430 H394 0.931 . S
C430 C429 1.376 . S
C430 C431 1.396 . S
C431 C413 1.472 . S
C431 C430 1.396 . S
C431 C432 1.348 . S
C432 H395 0.929 . S
C432 C431 1.348 . S
C432 C433 1.443 . S
C433 H397 0.932 . S
C433 C428 1.388 . S
C433 C432 1.443 . S
H434 C461 0.929 . S
N435 C460 1.433 . S
N435 C466 1.435 . S
N435 C472 1.423 . S
H436 C462 0.930 . S
H437 C465 0.931 . S
H438 C464 0.929 . S
H439 C467 0.930 . S
H440 C468 0.932 . S
H441 C471 0.929 . S
H442 C470 0.931 . S
H443 C473 0.929 . S
H444 C477 0.932 . S
H445 C474 0.931 . S
H446 C476 0.929 . S
H447 C479 0.929 . S
H448 C480 0.930 . S
H449 C482 0.929 . S
H450 C483 0.931 . S
H451 C485 0.930 . S
H452 C486 0.932 . S
H453 C488 0.931 . S
H454 C489 0.929 . S
H455 C491 0.929 . S
H456 C492 0.931 1_565 S
H457 C494 0.929 . S
N458 C478 1.433 . S
N458 C484 1.435 . S
N458 C490 1.423 . S
H459 C495 0.932 . S
C460 N435 1.433 . S
C460 C461 1.363 . S
C460 C465 1.370 . S
C461 H434 0.929 . S
C461 C460 1.363 . S
C461 C462 1.385 . S
C462 H436 0.930 . S
C462 C461 1.385 . S
C462 C463 1.357 . S
C463 C462 1.357 . S
C463 C464 1.406 . S
C464 H438 0.929 . S
C464 C463 1.406 . S
C464 C465 1.391 . S
C465 H437 0.931 . S
C465 C460 1.370 . S
C465 C464 1.391 . S
C466 N435 1.435 . S
C466 C467 1.358 . S
C466 C471 1.371 . S
C467 H439 0.930 . S
C467 C466 1.358 . S
C467 C468 1.405 . S
C468 H440 0.932 . S
C468 C467 1.405 . S
C468 C469 1.383 . S
C469 C468 1.383 . S
C469 C470 1.393 . S
C470 H442 0.931 . S
C470 C469 1.393 . S
C470 C471 1.382 . S
C471 H441 0.929 . S
C471 C466 1.371 . S
C471 C470 1.382 . S
C472 N435 1.423 . S
C472 C473 1.362 . S
C472 C477 1.388 . S
C473 H443 0.929 . S
C473 C472 1.362 . S
C473 C474 1.376 1_455 S
C474 H445 0.931 . S
C474 C473 1.376 1_655 S
C474 C475 1.396 . S
C475 C474 1.396 . S
C475 C476 1.348 1_655 S
C475 C493 1.472 1_565 S
C476 H446 0.929 . S
C476 C475 1.348 1_455 S
C476 C477 1.443 . S
C477 H444 0.932 . S
C477 C472 1.388 . S
C477 C476 1.443 . S
C478 N458 1.433 . S
C478 C479 1.363 . S
C478 C483 1.370 . S
C479 H447 0.929 . S
C479 C478 1.363 . S
C479 C480 1.385 . S
C480 H448 0.930 . S
C480 C479 1.385 . S
C480 C481 1.357 . S
C481 C480 1.357 . S
C481 C482 1.406 . S
C482 H449 0.929 . S
C482 C481 1.406 . S
C482 C483 1.391 . S
C483 H450 0.931 . S
C483 C478 1.370 . S
C483 C482 1.391 . S
C484 N458 1.435 . S
C484 C485 1.358 . S
C484 C489 1.371 . S
C485 H451 0.930 . S
C485 C484 1.358 . S
C485 C486 1.405 . S
C486 H452 0.932 . S
C486 C485 1.405 . S
C486 C487 1.383 . S
C487 C486 1.383 . S
C487 C488 1.393 . S
C488 H453 0.931 . S
C488 C487 1.393 . S
C488 C489 1.382 . S
C489 H454 0.929 . S
C489 C484 1.371 . S
C489 C488 1.382 . S
C490 N458 1.423 . S
C490 C491 1.362 . S
C490 C495 1.388 . S
C491 H455 0.929 . S
C491 C490 1.362 . S
C491 C492 1.376 . S
C492 H456 0.931 1_545 S
C492 C491 1.376 . S
C492 C493 1.396 . S
C493 C475 1.472 1_545 S
C493 C492 1.396 . S
C493 C494 1.348 . S
C494 H457 0.929 . S
C494 C493 1.348 . S
C494 C495 1.443 . S
C495 H459 0.932 . S
C495 C490 1.388 . S
C495 C494 1.443 . S
In496 O497 2.294 . S
In496 O498 2.326 . S
In496 O502 2.266 1_554 S
In496 O503 2.326 1_554 S
In496 O504 2.266 1_554 S
In496 O505 2.326 1_554 S
In496 O507 2.294 . S
In496 O508 2.326 . S
O497 In496 2.294 . S
O497 C506 1.240 . S
O498 In496 2.326 . S
O498 C506 1.252 . S
C499 O502 1.252 . S
C499 O503 1.260 . S
C500 O507 1.240 . S
C500 O508 1.252 . S
C501 O504 1.252 . S
C501 O505 1.260 . S
O502 In496 2.266 1_556 S
O502 C499 1.252 . S
O503 In496 2.326 1_556 S
O503 C499 1.260 . S
O504 In496 2.266 1_556 S
O504 C501 1.252 . S
O505 In496 2.326 1_556 S
O505 C501 1.260 . S
C506 O497 1.240 . S
C506 O498 1.252 . S
O507 In496 2.294 . S
O507 C500 1.240 . S
O508 In496 2.326 . S
O508 C500 1.252 . S
In509 O510 2.294 . S
In509 O511 2.326 . S
In509 O515 2.266 . S
In509 O516 2.326 . S
In509 O517 2.266 . S
In509 O518 2.326 . S
In509 O520 2.294 . S
In509 O521 2.326 . S
O510 In509 2.294 . S
O510 C519 1.240 . S
O511 In509 2.326 . S
O511 C519 1.252 . S
C512 O515 1.252 . S
C512 O516 1.260 . S
C513 O520 1.240 . S
C513 O521 1.252 . S
C514 O517 1.252 . S
C514 O518 1.260 . S
O515 In509 2.266 . S
O515 C512 1.252 . S
O516 In509 2.326 . S
O516 C512 1.260 . S
O517 In509 2.266 . S
O517 C514 1.252 . S
O518 In509 2.326 . S
O518 C514 1.260 . S
C519 O510 1.240 . S
C519 O511 1.252 . S
O520 In509 2.294 . S
O520 C513 1.240 . S
O521 In509 2.326 . S
O521 C513 1.252 . S
In522 O523 2.294 . S
In522 O524 2.326 . S
In522 O528 2.266 . S
In522 O529 2.326 . S
In522 O530 2.266 . S
In522 O531 2.326 . S
In522 O533 2.294 . S
In522 O534 2.326 . S
O523 In522 2.294 . S
O523 C532 1.240 . S
O524 In522 2.326 . S
O524 C532 1.252 . S
C525 O528 1.252 . S
C525 O529 1.260 . S
C526 O533 1.240 . S
C526 O534 1.252 . S
C527 O530 1.252 . S
C527 O531 1.260 . S
O528 In522 2.266 . S
O528 C525 1.252 . S
O529 In522 2.326 . S
O529 C525 1.260 . S
O530 In522 2.266 . S
O530 C527 1.252 . S
O531 In522 2.326 . S
O531 C527 1.260 . S
C532 O523 1.240 . S
C532 O524 1.252 . S
O533 In522 2.294 . S
O533 C526 1.240 . S
O534 In522 2.326 . S
O534 C526 1.252 . S
In535 O536 2.294 . S
In535 O537 2.326 . S
In535 O541 2.266 . S
In535 O542 2.326 . S
In535 O543 2.266 . S
In535 O544 2.326 . S
In535 O546 2.294 . S
In535 O547 2.326 . S
O536 In535 2.294 . S
O536 C545 1.240 . S
O537 In535 2.326 . S
O537 C545 1.252 . S
C538 O541 1.252 . S
C538 O542 1.260 . S
C539 O546 1.240 . S
C539 O547 1.252 . S
C540 O543 1.252 . S
C540 O544 1.260 . S
O541 In535 2.266 . S
O541 C538 1.252 . S
O542 In535 2.326 . S
O542 C538 1.260 . S
O543 In535 2.266 . S
O543 C540 1.252 . S
O544 In535 2.326 . S
O544 C540 1.260 . S
C545 O536 1.240 . S
C545 O537 1.252 . S
O546 In535 2.294 . S
O546 C539 1.240 . S
O547 In535 2.326 . S
O547 C539 1.252 . S
In548 O549 2.294 . S
In548 O550 2.326 . S
In548 O554 2.266 . S
In548 O555 2.326 . S
In548 O556 2.266 . S
In548 O557 2.326 . S
In548 O559 2.294 . S
In548 O560 2.326 . S
O549 In548 2.294 . S
O549 C558 1.240 . S
O550 In548 2.326 . S
O550 C558 1.252 . S
C551 O554 1.252 . S
C551 O555 1.260 . S
C552 O559 1.240 . S
C552 O560 1.252 . S
C553 O556 1.252 . S
C553 O557 1.260 . S
O554 In548 2.266 . S
O554 C551 1.252 . S
O555 In548 2.326 . S
O555 C551 1.260 . S
O556 In548 2.266 . S
O556 C553 1.252 . S
O557 In548 2.326 . S
O557 C553 1.260 . S
C558 O549 1.240 . S
C558 O550 1.252 . S
O559 In548 2.294 . S
O559 C552 1.240 . S
O560 In548 2.326 . S
O560 C552 1.252 . S
In561 O562 2.294 . S
In561 O563 2.326 . S
In561 O567 2.266 . S
In561 O568 2.326 . S
In561 O569 2.266 . S
In561 O570 2.326 . S
In561 O572 2.294 . S
In561 O573 2.326 . S
O562 In561 2.294 . S
O562 C571 1.240 . S
O563 In561 2.326 . S
O563 C571 1.252 . S
C564 O567 1.252 . S
C564 O568 1.260 . S
C565 O572 1.240 . S
C565 O573 1.252 . S
C566 O569 1.252 . S
C566 O570 1.260 . S
O567 In561 2.266 . S
O567 C564 1.252 . S
O568 In561 2.326 . S
O568 C564 1.260 . S
O569 In561 2.266 . S
O569 C566 1.252 . S
O570 In561 2.326 . S
O570 C566 1.260 . S
C571 O562 1.240 . S
C571 O563 1.252 . S
O572 In561 2.294 . S
O572 C565 1.240 . S
O573 In561 2.326 . S
O573 C565 1.252 . S
In574 O575 2.294 . S
In574 O576 2.326 . S
In574 O580 2.266 1_554 S
In574 O581 2.326 1_554 S
In574 O582 2.266 1_554 S
In574 O583 2.326 1_554 S
In574 O585 2.294 . S
In574 O586 2.326 . S
O575 In574 2.294 . S
O575 C584 1.240 . S
O576 In574 2.326 . S
O576 C584 1.252 . S
C577 O580 1.252 . S
C577 O581 1.260 . S
C578 O585 1.240 . S
C578 O586 1.252 . S
C579 O582 1.252 . S
C579 O583 1.260 . S
O580 In574 2.266 1_556 S
O580 C577 1.252 . S
O581 In574 2.326 1_556 S
O581 C577 1.260 . S
O582 In574 2.266 1_556 S
O582 C579 1.252 . S
O583 In574 2.326 1_556 S
O583 C579 1.260 . S
C584 O575 1.240 . S
C584 O576 1.252 . S
O585 In574 2.294 . S
O585 C578 1.240 . S
O586 In574 2.326 . S
O586 C578 1.252 . S
In587 O588 2.294 . S
In587 O589 2.326 . S
In587 O593 2.266 . S
In587 O594 2.326 . S
In587 O595 2.266 . S
In587 O596 2.326 . S
In587 O598 2.294 . S
In587 O599 2.326 . S
O588 In587 2.294 . S
O588 C597 1.240 . S
O589 In587 2.326 . S
O589 C597 1.252 . S
C590 O593 1.252 . S
C590 O594 1.260 . S
C591 O598 1.240 . S
C591 O599 1.252 . S
C592 O595 1.252 . S
C592 O596 1.260 . S
O593 In587 2.266 . S
O593 C590 1.252 . S
O594 In587 2.326 . S
O594 C590 1.260 . S
O595 In587 2.266 . S
O595 C592 1.252 . S
O596 In587 2.326 . S
O596 C592 1.260 . S
C597 O588 1.240 . S
C597 O589 1.252 . S
O598 In587 2.294 . S
O598 C591 1.240 . S
O599 In587 2.326 . S
O599 C591 1.252 . S
H600 C606 0.930 . S
H601 C610 0.930 . S
H602 C615 0.929 . S
H603 C613 0.929 . S
H604 C608 0.929 . S
H605 C614 0.929 . S
C606 H600 0.930 . S
C606 C607 1.367 . S
C606 C614 1.378 . S
C607 C606 1.367 . S
C607 C615 1.433 . S
C608 H604 0.929 . S
C608 C610 1.378 . S
C608 C612 1.350 . S
C609 C612 1.463 . S
C609 C614 1.350 . S
C609 N617 1.427 . S
C610 H601 0.930 . S
C610 C608 1.378 . S
C610 C611 1.367 . S
C611 C610 1.367 . S
C611 C613 1.433 . S
C612 C608 1.350 . S
C612 C609 1.463 . S
C612 N616 1.427 . S
C613 H603 0.929 . S
C613 C611 1.433 . S
C613 N616 1.384 . S
C614 H605 0.929 . S
C614 C606 1.378 . S
C614 C609 1.350 . S
C615 H602 0.929 . S
C615 C607 1.433 . S
C615 N617 1.384 . S
N616 C612 1.427 . S
N616 C613 1.384 . S
N617 C609 1.427 . S
N617 C615 1.384 . S
H618 C624 0.930 . S
H619 C628 0.930 . S
H620 C633 0.929 . S
H621 C631 0.929 . S
H622 C626 0.929 . S
H623 C632 0.929 . S
C624 H618 0.930 . S
C624 C625 1.367 . S
C624 C632 1.378 . S
C625 C624 1.367 . S
C625 C633 1.433 . S
C626 H622 0.929 . S
C626 C628 1.378 . S
C626 C630 1.350 . S
C627 C630 1.463 . S
C627 C632 1.350 . S
C627 N635 1.427 . S
C628 H619 0.930 . S
C628 C626 1.378 . S
C628 C629 1.367 . S
C629 C628 1.367 . S
C629 C631 1.433 . S
C630 C626 1.350 . S
C630 C627 1.463 . S
C630 N634 1.427 . S
C631 H621 0.929 . S
C631 C629 1.433 . S
C631 N634 1.384 . S
C632 H623 0.929 . S
C632 C624 1.378 . S
C632 C627 1.350 . S
C633 H620 0.929 . S
C633 C625 1.433 . S
C633 N635 1.384 . S
N634 C630 1.427 . S
N634 C631 1.384 . S
N635 C627 1.427 . S
N635 C633 1.384 . S
H636 C642 0.930 . S
H637 C646 0.930 . S
H638 C651 0.929 . S
H639 C649 0.929 . S
H640 C644 0.929 . S
H641 C650 0.929 . S
C642 H636 0.930 . S
C642 C643 1.367 . S
C642 C650 1.378 . S
C643 C642 1.367 . S
C643 C651 1.433 . S
C644 H640 0.929 . S
C644 C646 1.378 . S
C644 C648 1.350 . S
C645 C648 1.463 . S
C645 C650 1.350 . S
C645 N653 1.427 . S
C646 H637 0.930 . S
C646 C644 1.378 . S
C646 C647 1.367 . S
C647 C646 1.367 . S
C647 C649 1.433 . S
C648 C644 1.350 . S
C648 C645 1.463 . S
C648 N652 1.427 . S
C649 H639 0.929 . S
C649 C647 1.433 . S
C649 N652 1.384 . S
C650 H641 0.929 . S
C650 C642 1.378 . S
C650 C645 1.350 . S
C651 H638 0.929 . S
C651 C643 1.433 . S
C651 N653 1.384 . S
N652 C648 1.427 . S
N652 C649 1.384 . S
N653 C645 1.427 . S
N653 C651 1.384 . S
H654 C660 0.930 . S
H655 C664 0.930 . S
H656 C669 0.929 . S
H657 C667 0.929 . S
H658 C662 0.929 . S
H659 C668 0.929 . S
C660 H654 0.930 . S
C660 C661 1.367 . S
C660 C668 1.378 . S
C661 C660 1.367 . S
C661 C669 1.433 . S
C662 H658 0.929 . S
C662 C664 1.378 . S
C662 C666 1.350 . S
C663 C666 1.463 . S
C663 C668 1.350 . S
C663 N671 1.427 . S
C664 H655 0.930 . S
C664 C662 1.378 . S
C664 C665 1.367 . S
C665 C664 1.367 . S
C665 C667 1.433 . S
C666 C662 1.350 . S
C666 C663 1.463 . S
C666 N670 1.427 . S
C667 H657 0.929 . S
C667 C665 1.433 . S
C667 N670 1.384 . S
C668 H659 0.929 . S
C668 C660 1.378 . S
C668 C663 1.350 . S
C669 H656 0.929 . S
C669 C661 1.433 . S
C669 N671 1.384 . S
N670 C666 1.427 . S
N670 C667 1.384 . S
N671 C663 1.427 . S
N671 C669 1.384 . S
H672 C678 0.930 . S
H673 C682 0.930 . S
H674 C687 0.929 . S
H675 C685 0.929 . S
H676 C680 0.929 . S
H677 C686 0.929 . S
C678 H672 0.930 . S
C678 C679 1.367 . S
C678 C686 1.378 . S
C679 C678 1.367 . S
C679 C687 1.433 . S
C680 H676 0.929 . S
C680 C682 1.378 . S
C680 C684 1.350 . S
C681 C684 1.463 . S
C681 C686 1.350 . S
C681 N689 1.427 . S
C682 H673 0.930 . S
C682 C680 1.378 . S
C682 C683 1.367 . S
C683 C682 1.367 . S
C683 C685 1.433 . S
C684 C680 1.350 . S
C684 C681 1.463 . S
C684 N688 1.427 . S
C685 H675 0.929 . S
C685 C683 1.433 . S
C685 N688 1.384 . S
C686 H677 0.929 . S
C686 C678 1.378 . S
C686 C681 1.350 . S
C687 H674 0.929 . S
C687 C679 1.433 . S
C687 N689 1.384 . S
N688 C684 1.427 . S
N688 C685 1.384 . S
N689 C681 1.427 . S
N689 C687 1.384 . S
H690 C696 0.930 . S
H691 C700 0.930 . S
H692 C705 0.929 . S
H693 C703 0.929 . S
H694 C698 0.929 . S
H695 C704 0.929 . S
C696 H690 0.930 . S
C696 C697 1.367 . S
C696 C704 1.378 . S
C697 C696 1.367 . S
C697 C705 1.433 . S
C698 H694 0.929 . S
C698 C700 1.378 . S
C698 C702 1.350 . S
C699 C702 1.463 . S
C699 C704 1.350 . S
C699 N707 1.427 . S
C700 H691 0.930 . S
C700 C698 1.378 . S
C700 C701 1.367 . S
C701 C700 1.367 . S
C701 C703 1.433 . S
C702 C698 1.350 . S
C702 C699 1.463 . S
C702 N706 1.427 . S
C703 H693 0.929 . S
C703 C701 1.433 . S
C703 N706 1.384 . S
C704 H695 0.929 . S
C704 C696 1.378 . S
C704 C699 1.350 . S
C705 H692 0.929 . S
C705 C697 1.433 . S
C705 N707 1.384 . S
N706 C702 1.427 . S
N706 C703 1.384 . S
N707 C699 1.427 . S
N707 C705 1.384 . S
H708 C714 0.930 . S
H709 C718 0.930 . S
H710 C723 0.929 . S
H711 C721 0.929 . S
H712 C716 0.929 . S
H713 C722 0.929 . S
C714 H708 0.930 . S
C714 C715 1.367 . S
C714 C722 1.378 . S
C715 C714 1.367 . S
C715 C723 1.433 . S
C716 H712 0.929 . S
C716 C718 1.378 . S
C716 C720 1.350 . S
C717 C720 1.463 . S
C717 C722 1.350 . S
C717 N725 1.427 . S
C718 H709 0.930 . S
C718 C716 1.378 . S
C718 C719 1.367 . S
C719 C718 1.367 . S
C719 C721 1.433 . S
C720 C716 1.350 . S
C720 C717 1.463 . S
C720 N724 1.427 . S
C721 H711 0.929 . S
C721 C719 1.433 . S
C721 N724 1.384 . S
C722 H713 0.929 . S
C722 C714 1.378 . S
C722 C717 1.350 . S
C723 H710 0.929 . S
C723 C715 1.433 . S
C723 N725 1.384 . S
N724 C720 1.427 . S
N724 C721 1.384 . S
N725 C717 1.427 . S
N725 C723 1.384 . S
H726 C732 0.930 . S
H727 C736 0.930 . S
H728 C741 0.929 . S
H729 C739 0.929 . S
H730 C734 0.929 . S
H731 C740 0.929 . S
C732 H726 0.930 . S
C732 C733 1.367 . S
C732 C740 1.378 . S
C733 C732 1.367 . S
C733 C741 1.433 . S
C734 H730 0.929 . S
C734 C736 1.378 . S
C734 C738 1.350 . S
C735 C738 1.463 . S
C735 C740 1.350 . S
C735 N743 1.427 . S
C736 H727 0.930 . S
C736 C734 1.378 . S
C736 C737 1.367 . S
C737 C736 1.367 . S
C737 C739 1.433 . S
C738 C734 1.350 . S
C738 C735 1.463 . S
C738 N742 1.427 . S
C739 H729 0.929 . S
C739 C737 1.433 . S
C739 N742 1.384 . S
C740 H731 0.929 . S
C740 C732 1.378 . S
C740 C735 1.350 . S
C741 H728 0.929 . S
C741 C733 1.433 . S
C741 N743 1.384 . S
N742 C738 1.427 . S
N742 C739 1.384 . S
N743 C735 1.427 . S
N743 C741 1.384 . S
H744 C750 0.930 . S
H745 C754 0.930 . S
H746 C759 0.929 . S
H747 C757 0.929 . S
H748 C752 0.929 . S
H749 C758 0.929 . S
C750 H744 0.930 . S
C750 C751 1.367 . S
C750 C758 1.378 . S
C751 C750 1.367 . S
C751 C759 1.433 . S
C752 H748 0.929 . S
C752 C754 1.378 . S
C752 C756 1.350 . S
C753 C756 1.463 . S
C753 C758 1.350 . S
C753 N761 1.427 . S
C754 H745 0.930 . S
C754 C752 1.378 . S
C754 C755 1.367 . S
C755 C754 1.367 . S
C755 C757 1.433 . S
C756 C752 1.350 . S
C756 C753 1.463 . S
C756 N760 1.427 . S
C757 H747 0.929 . S
C757 C755 1.433 . S
C757 N760 1.384 . S
C758 H749 0.929 . S
C758 C750 1.378 . S
C758 C753 1.350 . S
C759 H746 0.929 . S
C759 C751 1.433 . S
C759 N761 1.384 . S
N760 C756 1.427 . S
N760 C757 1.384 . S
N761 C753 1.427 . S
N761 C759 1.384 . S
H762 C768 0.930 . S
H763 C772 0.930 . S
H764 C777 0.929 . S
H765 C775 0.929 1_556 S
H766 C770 0.929 . S
H767 C776 0.929 . S
C768 H762 0.930 . S
C768 C769 1.367 . S
C768 C776 1.378 . S
C769 C768 1.367 . S
C769 C777 1.433 . S
C770 H766 0.929 . S
C770 C772 1.378 . S
C770 C774 1.350 . S
C771 C774 1.463 . S
C771 C776 1.350 . S
C771 N779 1.427 . S
C772 H763 0.930 . S
C772 C770 1.378 . S
C772 C773 1.367 . S
C773 C772 1.367 . S
C773 C775 1.433 . S
C774 C770 1.350 . S
C774 C771 1.463 . S
C774 N778 1.427 . S
C775 H765 0.929 1_554 S
C775 C773 1.433 . S
C775 N778 1.384 . S
C776 H767 0.929 . S
C776 C768 1.378 . S
C776 C771 1.350 . S
C777 H764 0.929 . S
C777 C769 1.433 . S
C777 N779 1.384 . S
N778 C774 1.427 . S
N778 C775 1.384 . S
N779 C771 1.427 . S
N779 C777 1.384 . S
H780 C786 0.930 . S
H781 C790 0.930 . S
H782 C795 0.929 . S
H783 C793 0.929 . S
H784 C788 0.929 . S
H785 C794 0.929 . S
C786 H780 0.930 . S
C786 C787 1.367 . S
C786 C794 1.378 . S
C787 C786 1.367 . S
C787 C795 1.433 . S
C788 H784 0.929 . S
C788 C790 1.378 . S
C788 C792 1.350 . S
C789 C792 1.463 . S
C789 C794 1.350 . S
C789 N797 1.427 . S
C790 H781 0.930 . S
C790 C788 1.378 . S
C790 C791 1.367 . S
C791 C790 1.367 . S
C791 C793 1.433 . S
C792 C788 1.350 . S
C792 C789 1.463 . S
C792 N796 1.427 . S
C793 H783 0.929 . S
C793 C791 1.433 . S
C793 N796 1.384 . S
C794 H785 0.929 . S
C794 C786 1.378 . S
C794 C789 1.350 . S
C795 H782 0.929 . S
C795 C787 1.433 . S
C795 N797 1.384 . S
N796 C792 1.427 . S
N796 C793 1.384 . S
N797 C789 1.427 . S
N797 C795 1.384 . S
H798 C804 0.930 . S
H799 C808 0.930 . S
H800 C813 0.929 . S
H801 C811 0.929 . S
H802 C806 0.929 . S
H803 C812 0.929 . S
C804 H798 0.930 . S
C804 C805 1.367 . S
C804 C812 1.378 . S
C805 C804 1.367 . S
C805 C813 1.433 . S
C806 H802 0.929 . S
C806 C808 1.378 . S
C806 C810 1.350 . S
C807 C810 1.463 . S
C807 C812 1.350 . S
C807 N815 1.427 . S
C808 H799 0.930 . S
C808 C806 1.378 . S
C808 C809 1.367 . S
C809 C808 1.367 . S
C809 C811 1.433 . S
C810 C806 1.350 . S
C810 C807 1.463 . S
C810 N814 1.427 . S
C811 H801 0.929 . S
C811 C809 1.433 . S
C811 N814 1.384 . S
C812 H803 0.929 . S
C812 C804 1.378 . S
C812 C807 1.350 . S
C813 H800 0.929 . S
C813 C805 1.433 . S
C813 N815 1.384 . S
N814 C810 1.427 . S
N814 C811 1.384 . S
N815 C807 1.427 . S
N815 C813 1.384 . S
H816 C822 0.930 . S
H817 C826 0.930 . S
H818 C831 0.929 . S
H819 C829 0.929 . S
H820 C824 0.929 . S
H821 C830 0.929 . S
C822 H816 0.930 . S
C822 C823 1.367 . S
C822 C830 1.378 . S
C823 C822 1.367 . S
C823 C831 1.433 . S
C824 H820 0.929 . S
C824 C826 1.378 . S
C824 C828 1.350 . S
C825 C828 1.463 . S
C825 C830 1.350 . S
C825 N833 1.427 . S
C826 H817 0.930 . S
C826 C824 1.378 . S
C826 C827 1.367 . S
C827 C826 1.367 . S
C827 C829 1.433 . S
C828 C824 1.350 . S
C828 C825 1.463 . S
C828 N832 1.427 . S
C829 H819 0.929 . S
C829 C827 1.433 . S
C829 N832 1.384 . S
C830 H821 0.929 . S
C830 C822 1.378 . S
C830 C825 1.350 . S
C831 H818 0.929 . S
C831 C823 1.433 . S
C831 N833 1.384 . S
N832 C828 1.427 . S
N832 C829 1.384 . S
N833 C825 1.427 . S
N833 C831 1.384 . S
H834 C840 0.930 . S
H835 C844 0.930 . S
H836 C849 0.929 . S
H837 C847 0.929 . S
H838 C842 0.929 . S
H839 C848 0.929 . S
C840 H834 0.930 . S
C840 C841 1.367 . S
C840 C848 1.378 . S
C841 C840 1.367 . S
C841 C849 1.433 . S
C842 H838 0.929 . S
C842 C844 1.378 . S
C842 C846 1.350 . S
C843 C846 1.463 . S
C843 C848 1.350 . S
C843 N851 1.427 . S
C844 H835 0.930 . S
C844 C842 1.378 . S
C844 C845 1.367 . S
C845 C844 1.367 . S
C845 C847 1.433 . S
C846 C842 1.350 . S
C846 C843 1.463 . S
C846 N850 1.427 . S
C847 H837 0.929 . S
C847 C845 1.433 . S
C847 N850 1.384 . S
C848 H839 0.929 . S
C848 C840 1.378 . S
C848 C843 1.350 . S
C849 H836 0.929 . S
C849 C841 1.433 . S
C849 N851 1.384 . S
N850 C846 1.427 . S
N850 C847 1.384 . S
N851 C843 1.427 . S
N851 C849 1.384 . S
H852 C858 0.930 . S
H853 C862 0.930 . S
H854 C867 0.929 . S
H855 C865 0.929 . S
H856 C860 0.929 . S
H857 C866 0.929 . S
C858 H852 0.930 . S
C858 C859 1.367 . S
C858 C866 1.378 . S
C859 C858 1.367 . S
C859 C867 1.433 . S
C860 H856 0.929 . S
C860 C862 1.378 . S
C860 C864 1.350 . S
C861 C864 1.463 . S
C861 C866 1.350 . S
C861 N869 1.427 . S
C862 H853 0.930 . S
C862 C860 1.378 . S
C862 C863 1.367 . S
C863 C862 1.367 . S
C863 C865 1.433 . S
C864 C860 1.350 . S
C864 C861 1.463 . S
C864 N868 1.427 . S
C865 H855 0.929 . S
C865 C863 1.433 . S
C865 N868 1.384 . S
C866 H857 0.929 . S
C866 C858 1.378 . S
C866 C861 1.350 . S
C867 H854 0.929 . S
C867 C859 1.433 . S
C867 N869 1.384 . S
N868 C864 1.427 . S
N868 C865 1.384 . S
N869 C861 1.427 . S
N869 C867 1.384 . S
H870 C876 0.930 . S
H871 C880 0.930 . S
H872 C885 0.929 . S
H873 C883 0.929 . S
H874 C878 0.929 . S
H875 C884 0.929 . S
C876 H870 0.930 . S
C876 C877 1.367 . S
C876 C884 1.378 . S
C877 C876 1.367 . S
C877 C885 1.433 . S
C878 H874 0.929 . S
C878 C880 1.378 . S
C878 C882 1.350 . S
C879 C882 1.463 . S
C879 C884 1.350 . S
C879 N887 1.427 . S
C880 H871 0.930 . S
C880 C878 1.378 . S
C880 C881 1.367 . S
C881 C880 1.367 . S
C881 C883 1.433 . S
C882 C878 1.350 . S
C882 C879 1.463 . S
C882 N886 1.427 . S
C883 H873 0.929 . S
C883 C881 1.433 . S
C883 N886 1.384 . S
C884 H875 0.929 . S
C884 C876 1.378 . S
C884 C879 1.350 . S
C885 H872 0.929 . S
C885 C877 1.433 . S
C885 N887 1.384 . S
N886 C882 1.427 . S
N886 C883 1.384 . S
N887 C879 1.427 . S
N887 C885 1.384 . S
H888 C894 0.930 . S
H889 C898 0.930 . S
H890 C903 0.929 . S
H891 C901 0.929 . S
H892 C896 0.929 . S
H893 C902 0.929 . S
C894 H888 0.930 . S
C894 C895 1.367 . S
C894 C902 1.378 . S
C895 C894 1.367 . S
C895 C903 1.433 . S
C896 H892 0.929 . S
C896 C898 1.378 . S
C896 C900 1.350 . S
C897 C900 1.463 . S
C897 C902 1.350 . S
C897 N905 1.427 . S
C898 H889 0.930 . S
C898 C896 1.378 . S
C898 C899 1.367 . S
C899 C898 1.367 . S
C899 C901 1.433 . S
C900 C896 1.350 . S
C900 C897 1.463 . S
C900 N904 1.427 . S
C901 H891 0.929 . S
C901 C899 1.433 . S
C901 N904 1.384 . S
C902 H893 0.929 . S
C902 C894 1.378 . S
C902 C897 1.350 . S
C903 H890 0.929 . S
C903 C895 1.433 . S
C903 N905 1.384 . S
N904 C900 1.427 . S
N904 C901 1.384 . S
N905 C897 1.427 . S
N905 C903 1.384 . S
H906 C912 0.930 . S
H907 C916 0.930 . S
H908 C921 0.929 . S
H909 C919 0.929 . S
H910 C914 0.929 . S
H911 C920 0.929 . S
C912 H906 0.930 . S
C912 C913 1.367 . S
C912 C920 1.378 . S
C913 C912 1.367 . S
C913 C921 1.433 . S
C914 H910 0.929 . S
C914 C916 1.378 . S
C914 C918 1.350 . S
C915 C918 1.463 . S
C915 C920 1.350 . S
C915 N923 1.427 . S
C916 H907 0.930 . S
C916 C914 1.378 . S
C916 C917 1.367 . S
C917 C916 1.367 . S
C917 C919 1.433 . S
C918 C914 1.350 . S
C918 C915 1.463 . S
C918 N922 1.427 . S
C919 H909 0.929 . S
C919 C917 1.433 . S
C919 N922 1.384 . S
C920 H911 0.929 . S
C920 C912 1.378 . S
C920 C915 1.350 . S
C921 H908 0.929 . S
C921 C913 1.433 . S
C921 N923 1.384 . S
N922 C918 1.427 . S
N922 C919 1.384 . S
N923 C915 1.427 . S
N923 C921 1.384 . S
H924 C930 0.930 . S
H925 C934 0.930 . S
H926 C939 0.929 . S
H927 C937 0.929 . S
H928 C932 0.929 . S
H929 C938 0.929 . S
C930 H924 0.930 . S
C930 C931 1.367 . S
C930 C938 1.378 . S
C931 C930 1.367 . S
C931 C939 1.433 . S
C932 H928 0.929 . S
C932 C934 1.378 . S
C932 C936 1.350 . S
C933 C936 1.463 . S
C933 C938 1.350 . S
C933 N941 1.427 . S
C934 H925 0.930 . S
C934 C932 1.378 . S
C934 C935 1.367 . S
C935 C934 1.367 . S
C935 C937 1.433 . S
C936 C932 1.350 . S
C936 C933 1.463 . S
C936 N940 1.427 . S
C937 H927 0.929 . S
C937 C935 1.433 . S
C937 N940 1.384 . S
C938 H929 0.929 . S
C938 C930 1.378 . S
C938 C933 1.350 . S
C939 H926 0.929 . S
C939 C931 1.433 . S
C939 N941 1.384 . S
N940 C936 1.427 . S
N940 C937 1.384 . S
N941 C933 1.427 . S
N941 C939 1.384 . S
H942 C948 0.930 . S
H943 C952 0.930 . S
H944 C957 0.929 . S
H945 C955 0.929 . S
H946 C950 0.929 . S
H947 C956 0.929 . S
C948 H942 0.930 . S
C948 C949 1.367 . S
C948 C956 1.378 . S
C949 C948 1.367 . S
C949 C957 1.433 . S
C950 H946 0.929 . S
C950 C952 1.378 . S
C950 C954 1.350 . S
C951 C954 1.463 . S
C951 C956 1.350 . S
C951 N959 1.427 . S
C952 H943 0.930 . S
C952 C950 1.378 . S
C952 C953 1.367 . S
C953 C952 1.367 . S
C953 C955 1.433 . S
C954 C950 1.350 . S
C954 C951 1.463 . S
C954 N958 1.427 . S
C955 H945 0.929 . S
C955 C953 1.433 . S
C955 N958 1.384 . S
C956 H947 0.929 . S
C956 C948 1.378 . S
C956 C951 1.350 . S
C957 H944 0.929 . S
C957 C949 1.433 . S
C957 N959 1.384 . S
N958 C954 1.427 . S
N958 C955 1.384 . S
N959 C951 1.427 . S
N959 C957 1.384 . S
H960 C966 0.930 . S
H961 C970 0.930 . S
H962 C975 0.929 . S
H963 C973 0.929 . S
H964 C968 0.929 . S
H965 C974 0.929 . S
C966 H960 0.930 . S
C966 C967 1.367 . S
C966 C974 1.378 . S
C967 C966 1.367 . S
C967 C975 1.433 . S
C968 H964 0.929 . S
C968 C970 1.378 . S
C968 C972 1.350 . S
C969 C972 1.463 . S
C969 C974 1.350 . S
C969 N977 1.427 . S
C970 H961 0.930 . S
C970 C968 1.378 . S
C970 C971 1.367 . S
C971 C970 1.367 . S
C971 C973 1.433 . S
C972 C968 1.350 . S
C972 C969 1.463 . S
C972 N976 1.427 . S
C973 H963 0.929 . S
C973 C971 1.433 . S
C973 N976 1.384 . S
C974 H965 0.929 . S
C974 C966 1.378 . S
C974 C969 1.350 . S
C975 H962 0.929 . S
C975 C967 1.433 . S
C975 N977 1.384 . S
N976 C972 1.427 . S
N976 C973 1.384 . S
N977 C969 1.427 . S
N977 C975 1.384 . S
H978 C984 0.930 . S
H979 C988 0.930 . S
H980 C993 0.929 . S
H981 C991 0.929 . S
H982 C986 0.929 . S
H983 C992 0.929 . S
C984 H978 0.930 . S
C984 C985 1.367 . S
C984 C992 1.378 . S
C985 C984 1.367 . S
C985 C993 1.433 . S
C986 H982 0.929 . S
C986 C988 1.378 . S
C986 C990 1.350 . S
C987 C990 1.463 . S
C987 C992 1.350 . S
C987 N995 1.427 . S
C988 H979 0.930 . S
C988 C986 1.378 . S
C988 C989 1.367 . S
C989 C988 1.367 . S
C989 C991 1.433 . S
C990 C986 1.350 . S
C990 C987 1.463 . S
C990 N994 1.427 . S
C991 H981 0.929 . S
C991 C989 1.433 . S
C991 N994 1.384 . S
C992 H983 0.929 . S
C992 C984 1.378 . S
C992 C987 1.350 . S
C993 H980 0.929 . S
C993 C985 1.433 . S
C993 N995 1.384 . S
N994 C990 1.427 . S
N994 C991 1.384 . S
N995 C987 1.427 . S
N995 C993 1.384 . S
H996 C1002 0.930 . S
H997 C1006 0.930 . S
H998 C1011 0.929 . S
H999 C1009 0.929 . S
H1000 C1004 0.929 . S
H1001 C1010 0.929 . S
C1002 H996 0.930 . S
C1002 C1003 1.367 . S
C1002 C1010 1.378 . S
C1003 C1002 1.367 . S
C1003 C1011 1.433 . S
C1004 H1000 0.929 . S
C1004 C1006 1.378 . S
C1004 C1008 1.350 . S
C1005 C1008 1.463 . S
C1005 C1010 1.350 . S
C1005 N1013 1.427 . S
C1006 H997 0.930 . S
C1006 C1004 1.378 . S
C1006 C1007 1.367 . S
C1007 C1006 1.367 . S
C1007 C1009 1.433 . S
C1008 C1004 1.350 . S
C1008 C1005 1.463 . S
C1008 N1012 1.427 . S
C1009 H999 0.929 . S
C1009 C1007 1.433 . S
C1009 N1012 1.384 . S
C1010 H1001 0.929 . S
C1010 C1002 1.378 . S
C1010 C1005 1.350 . S
C1011 H998 0.929 . S
C1011 C1003 1.433 . S
C1011 N1013 1.384 . S
N1012 C1008 1.427 . S
N1012 C1009 1.384 . S
N1013 C1005 1.427 . S
N1013 C1011 1.384 . S
H1014 C1020 0.930 . S
H1015 C1024 0.930 . S
H1016 C1029 0.929 . S
H1017 C1027 0.929 . S
H1018 C1022 0.929 . S
H1019 C1028 0.929 . S
C1020 H1014 0.930 . S
C1020 C1021 1.367 . S
C1020 C1028 1.378 . S
C1021 C1020 1.367 . S
C1021 C1029 1.433 . S
C1022 H1018 0.929 . S
C1022 C1024 1.378 . S
C1022 C1026 1.350 . S
C1023 C1026 1.463 . S
C1023 C1028 1.350 . S
C1023 N1031 1.427 . S
C1024 H1015 0.930 . S
C1024 C1022 1.378 . S
C1024 C1025 1.367 . S
C1025 C1024 1.367 . S
C1025 C1027 1.433 . S
C1026 C1022 1.350 . S
C1026 C1023 1.463 . S
C1026 N1030 1.427 . S
C1027 H1017 0.929 . S
C1027 C1025 1.433 . S
C1027 N1030 1.384 . S
C1028 H1019 0.929 . S
C1028 C1020 1.378 . S
C1028 C1023 1.350 . S
C1029 H1016 0.929 . S
C1029 C1021 1.433 . S
C1029 N1031 1.384 . S
N1030 C1026 1.427 . S
N1030 C1027 1.384 . S
N1031 C1023 1.427 . S
N1031 C1029 1.384 . S
H1032 C1038 0.930 . S
H1033 C1042 0.930 . S
H1034 C1047 0.929 . S
H1035 C1045 0.929 . S
H1036 C1040 0.929 . S
H1037 C1046 0.929 . S
C1038 H1032 0.930 . S
C1038 C1039 1.367 . S
C1038 C1046 1.378 . S
C1039 C1038 1.367 . S
C1039 C1047 1.433 . S
C1040 H1036 0.929 . S
C1040 C1042 1.378 . S
C1040 C1044 1.350 . S
C1041 C1044 1.463 . S
C1041 C1046 1.350 . S
C1041 N1049 1.427 . S
C1042 H1033 0.930 . S
C1042 C1040 1.378 . S
C1042 C1043 1.367 . S
C1043 C1042 1.367 . S
C1043 C1045 1.433 . S
C1044 C1040 1.350 . S
C1044 C1041 1.463 . S
C1044 N1048 1.427 . S
C1045 H1035 0.929 . S
C1045 C1043 1.433 . S
C1045 N1048 1.384 . S
C1046 H1037 0.929 . S
C1046 C1038 1.378 . S
C1046 C1041 1.350 . S
C1047 H1034 0.929 . S
C1047 C1039 1.433 . S
C1047 N1049 1.384 . S
N1048 C1044 1.427 . S
N1048 C1045 1.384 . S
N1049 C1041 1.427 . S
N1049 C1047 1.384 . S
H1050 C1056 0.930 . S
H1051 C1060 0.930 . S
H1052 C1065 0.929 . S
H1053 C1063 0.929 . S
H1054 C1058 0.929 . S
H1055 C1064 0.929 . S
C1056 H1050 0.930 . S
C1056 C1057 1.367 . S
C1056 C1064 1.378 . S
C1057 C1056 1.367 . S
C1057 C1065 1.433 . S
C1058 H1054 0.929 . S
C1058 C1060 1.378 . S
C1058 C1062 1.350 . S
C1059 C1062 1.463 . S
C1059 C1064 1.350 . S
C1059 N1067 1.427 . S
C1060 H1051 0.930 . S
C1060 C1058 1.378 . S
C1060 C1061 1.367 . S
C1061 C1060 1.367 . S
C1061 C1063 1.433 . S
C1062 C1058 1.350 . S
C1062 C1059 1.463 . S
C1062 N1066 1.427 . S
C1063 H1053 0.929 . S
C1063 C1061 1.433 . S
C1063 N1066 1.384 . S
C1064 H1055 0.929 . S
C1064 C1056 1.378 . S
C1064 C1059 1.350 . S
C1065 H1052 0.929 . S
C1065 C1057 1.433 . S
C1065 N1067 1.384 . S
N1066 C1062 1.427 . S
N1066 C1063 1.384 . S
N1067 C1059 1.427 . S
N1067 C1065 1.384 . S
H1068 C1074 0.930 . S
H1069 C1078 0.930 . S
H1070 C1083 0.929 . S
H1071 C1081 0.929 . S
H1072 C1076 0.929 . S
H1073 C1082 0.929 . S
C1074 H1068 0.930 . S
C1074 C1075 1.367 . S
C1074 C1082 1.378 . S
C1075 C1074 1.367 . S
C1075 C1083 1.433 . S
C1076 H1072 0.929 . S
C1076 C1078 1.378 . S
C1076 C1080 1.350 . S
C1077 C1080 1.463 . S
C1077 C1082 1.350 . S
C1077 N1085 1.427 . S
C1078 H1069 0.930 . S
C1078 C1076 1.378 . S
C1078 C1079 1.367 . S
C1079 C1078 1.367 . S
C1079 C1081 1.433 . S
C1080 C1076 1.350 . S
C1080 C1077 1.463 . S
C1080 N1084 1.427 . S
C1081 H1071 0.929 . S
C1081 C1079 1.433 . S
C1081 N1084 1.384 . S
C1082 H1073 0.929 . S
C1082 C1074 1.378 . S
C1082 C1077 1.350 . S
C1083 H1070 0.929 . S
C1083 C1075 1.433 . S
C1083 N1085 1.384 . S
N1084 C1080 1.427 . S
N1084 C1081 1.384 . S
N1085 C1077 1.427 . S
N1085 C1083 1.384 . S
H1086 C1092 0.930 . S
H1087 C1096 0.930 . S
H1088 C1101 0.929 . S
H1089 C1099 0.929 . S
H1090 C1094 0.929 . S
H1091 C1100 0.929 . S
C1092 H1086 0.930 . S
C1092 C1093 1.367 . S
C1092 C1100 1.378 . S
C1093 C1092 1.367 . S
C1093 C1101 1.433 . S
C1094 H1090 0.929 . S
C1094 C1096 1.378 . S
C1094 C1098 1.350 . S
C1095 C1098 1.463 . S
C1095 C1100 1.350 . S
C1095 N1103 1.427 . S
C1096 H1087 0.930 . S
C1096 C1094 1.378 . S
C1096 C1097 1.367 . S
C1097 C1096 1.367 . S
C1097 C1099 1.433 . S
C1098 C1094 1.350 . S
C1098 C1095 1.463 . S
C1098 N1102 1.427 . S
C1099 H1089 0.929 . S
C1099 C1097 1.433 . S
C1099 N1102 1.384 . S
C1100 H1091 0.929 . S
C1100 C1092 1.378 . S
C1100 C1095 1.350 . S
C1101 H1088 0.929 . S
C1101 C1093 1.433 . S
C1101 N1103 1.384 . S
N1102 C1098 1.427 . S
N1102 C1099 1.384 . S
N1103 C1095 1.427 . S
N1103 C1101 1.384 . S
H1104 C1110 0.930 . S
H1105 C1114 0.930 . S
H1106 C1119 0.929 . S
H1107 C1117 0.929 . S
H1108 C1112 0.929 . S
H1109 C1118 0.929 . S
C1110 H1104 0.930 . S
C1110 C1111 1.367 . S
C1110 C1118 1.378 . S
C1111 C1110 1.367 . S
C1111 C1119 1.433 . S
C1112 H1108 0.929 . S
C1112 C1114 1.378 . S
C1112 C1116 1.350 . S
C1113 C1116 1.463 . S
C1113 C1118 1.350 . S
C1113 N1121 1.427 . S
C1114 H1105 0.930 . S
C1114 C1112 1.378 . S
C1114 C1115 1.367 . S
C1115 C1114 1.367 . S
C1115 C1117 1.433 . S
C1116 C1112 1.350 . S
C1116 C1113 1.463 . S
C1116 N1120 1.427 . S
C1117 H1107 0.929 . S
C1117 C1115 1.433 . S
C1117 N1120 1.384 . S
C1118 H1109 0.929 . S
C1118 C1110 1.378 . S
C1118 C1113 1.350 . S
C1119 H1106 0.929 . S
C1119 C1111 1.433 . S
C1119 N1121 1.384 . S
N1120 C1116 1.427 . S
N1120 C1117 1.384 . S
N1121 C1113 1.427 . S
N1121 C1119 1.384 . S
H1122 C1128 0.930 . S
H1123 C1132 0.930 . S
H1124 C1137 0.929 . S
H1125 C1135 0.929 . S
H1126 C1130 0.929 . S
H1127 C1136 0.929 . S
C1128 H1122 0.930 . S
C1128 C1129 1.367 . S
C1128 C1136 1.378 . S
C1129 C1128 1.367 . S
C1129 C1137 1.433 . S
C1130 H1126 0.929 . S
C1130 C1132 1.378 . S
C1130 C1134 1.350 . S
C1131 C1134 1.463 . S
C1131 C1136 1.350 . S
C1131 N1139 1.427 . S
C1132 H1123 0.930 . S
C1132 C1130 1.378 . S
C1132 C1133 1.367 . S
C1133 C1132 1.367 . S
C1133 C1135 1.433 . S
C1134 C1130 1.350 . S
C1134 C1131 1.463 . S
C1134 N1138 1.427 . S
C1135 H1125 0.929 . S
C1135 C1133 1.433 . S
C1135 N1138 1.384 . S
C1136 H1127 0.929 . S
C1136 C1128 1.378 . S
C1136 C1131 1.350 . S
C1137 H1124 0.929 . S
C1137 C1129 1.433 . S
C1137 N1139 1.384 . S
N1138 C1134 1.427 . S
N1138 C1135 1.384 . S
N1139 C1131 1.427 . S
N1139 C1137 1.384 . S
H1140 C1146 0.930 . S
H1141 C1150 0.930 . S
H1142 C1155 0.929 . S
H1143 C1153 0.929 . S
H1144 C1148 0.929 . S
H1145 C1154 0.929 . S
C1146 H1140 0.930 . S
C1146 C1147 1.367 . S
C1146 C1154 1.378 . S
C1147 C1146 1.367 . S
C1147 C1155 1.433 . S
C1148 H1144 0.929 . S
C1148 C1150 1.378 . S
C1148 C1152 1.350 . S
C1149 C1152 1.463 . S
C1149 C1154 1.350 . S
C1149 N1157 1.427 . S
C1150 H1141 0.930 . S
C1150 C1148 1.378 . S
C1150 C1151 1.367 . S
C1151 C1150 1.367 . S
C1151 C1153 1.433 . S
C1152 C1148 1.350 . S
C1152 C1149 1.463 . S
C1152 N1156 1.427 . S
C1153 H1143 0.929 . S
C1153 C1151 1.433 . S
C1153 N1156 1.384 . S
C1154 H1145 0.929 . S
C1154 C1146 1.378 . S
C1154 C1149 1.350 . S
C1155 H1142 0.929 . S
C1155 C1147 1.433 . S
C1155 N1157 1.384 . S
N1156 C1152 1.427 . S
N1156 C1153 1.384 . S
N1157 C1149 1.427 . S
N1157 C1155 1.384 . S
H1158 C1164 0.930 . S
H1159 C1168 0.930 . S
H1160 C1173 0.929 . S
H1161 C1171 0.929 . S
H1162 C1166 0.929 . S
H1163 C1172 0.929 . S
C1164 H1158 0.930 . S
C1164 C1165 1.367 . S
C1164 C1172 1.378 . S
C1165 C1164 1.367 . S
C1165 C1173 1.433 . S
C1166 H1162 0.929 . S
C1166 C1168 1.378 . S
C1166 C1170 1.350 . S
C1167 C1170 1.463 . S
C1167 C1172 1.350 . S
C1167 N1175 1.427 . S
C1168 H1159 0.930 . S
C1168 C1166 1.378 . S
C1168 C1169 1.367 . S
C1169 C1168 1.367 . S
C1169 C1171 1.433 . S
C1170 C1166 1.350 . S
C1170 C1167 1.463 . S
C1170 N1174 1.427 . S
C1171 H1161 0.929 . S
C1171 C1169 1.433 . S
C1171 N1174 1.384 . S
C1172 H1163 0.929 . S
C1172 C1164 1.378 . S
C1172 C1167 1.350 . S
C1173 H1160 0.929 . S
C1173 C1165 1.433 . S
C1173 N1175 1.384 . S
N1174 C1170 1.427 . S
N1174 C1171 1.384 . S
N1175 C1167 1.427 . S
N1175 C1173 1.384 . S
C611 C512 1.424 . S
C607 C35 1.329 . S
C629 C526 1.422 . S
C625 C115 1.332 . S
C647 C539 1.426 . S
C643 C177 1.323 . S
C661 C221 1.326 . S
C665 C506 1.432 . S
C679 C283 1.325 . S
C683 C499 1.438 . S
C697 C363 1.348 . S
C701 C519 1.431 . S
C719 C527 1.424 . S
C715 C407 1.322 . S
C737 C540 1.433 . S
C733 C469 1.332 . S
C751 C159 1.326 . S
C755 C566 1.427 . S
C773 C584 1.421 . S
C769 C239 1.338 . S
C787 C53 1.344 . S
C791 C591 1.425 . S
C809 C558 1.430 . S
C805 C97 1.334 . S
C823 C425 1.346 . S
C827 C551 1.435 . S
C841 C487 1.328 . S
C845 C565 1.431 . S
C863 C577 1.424 . S
C859 C301 1.337 . S
C877 C345 1.318 . S
C881 C592 1.430 . S
C899 C525 1.951 . S
C895 C29 1.946 . S
C917 C538 1.956 . S
C913 C109 1.916 . S
C931 C171 1.905 . S
C935 C501 1.946 . S
C949 C215 1.941 . S
C953 C513 1.936 . S
C967 C277 1.933 . S
C971 C545 1.928 . S
C989 C500 1.933 . S
C985 C357 1.900 . S
C1007 C514 1.949 . S
C1003 C401 1.943 . S
C1025 C532 1.943 . S
C1021 C463 1.944 . S
C1043 C579 1.956 . S
C1039 C153 1.949 . S
C1061 C590 1.958 . S
C1057 C233 1.920 . S
C1075 C47 1.909 . S
C1079 C553 1.949 . S
C1097 C571 1.939 . S
C1093 C91 1.943 . S
C1115 C597 1.930 . S
C1111 C419 1.896 . S
C1129 C481 1.897 . S
C1133 C552 1.931 . S
C1151 C564 1.954 . S
C1147 C295 1.916 . S
C1169 C578 1.942 . S
C1165 C339 1.942 . S
