# Generated by pormake.
# Topology anh, (6,3)-cn, num edge types: 1
# Building blocks:
#     Node 0, Type 0, BuildingBlock: GEDQOX_clean_sbu_0, # of connection points: 6
#     Node 1, Type 0, BuildingBlock: GEDQOX_clean_sbu_0, # of connection points: 6
#     Node 2, Type 0, BuildingBlock: GEDQOX_clean_sbu_0, # of connection points: 6
#     Node 3, Type 1, BuildingBlock: BETDAH_clean_linker_0, # of connection points: 3
#     Node 4, Type 1, BuildingBlock: BETDAH_clean_linker_0, # of connection points: 3
#     Node 5, Type 1, BuildingBlock: BETDAH_clean_linker_0, # of connection points: 3
#     Node 6, Type 1, BuildingBlock: BETDAH_clean_linker_0, # of connection points: 3
#     Node 7, Type 1, BuildingBlock: BETDAH_clean_linker_0, # of connection points: 3
#     Node 8, Type 1, BuildingBlock: BETDAH_clean_linker_0, # of connection points: 3
#     Edge 9, Type (0, 1), BuildingBlock: CIFDUS_clean_linker_0, # of connection points: 2
#     Edge 10, Type (0, 1), BuildingBlock: CIFDUS_clean_linker_0, # of connection points: 2
#     Edge 11, Type (0, 1), BuildingBlock: CIFDUS_clean_linker_0, # of connection points: 2
#     Edge 12, Type (0, 1), BuildingBlock: CIFDUS_clean_linker_0, # of connection points: 2
#     Edge 13, Type (0, 1), BuildingBlock: CIFDUS_clean_linker_0, # of connection points: 2
#     Edge 14, Type (0, 1), BuildingBlock: CIFDUS_clean_linker_0, # of connection points: 2
#     Edge 15, Type (0, 1), BuildingBlock: CIFDUS_clean_linker_0, # of connection points: 2
#     Edge 16, Type (0, 1), BuildingBlock: CIFDUS_clean_linker_0, # of connection points: 2
#     Edge 17, Type (0, 1), BuildingBlock: CIFDUS_clean_linker_0, # of connection points: 2
#     Edge 18, Type (0, 1), BuildingBlock: CIFDUS_clean_linker_0, # of connection points: 2
#     Edge 19, Type (0, 1), BuildingBlock: CIFDUS_clean_linker_0, # of connection points: 2
#     Edge 20, Type (0, 1), BuildingBlock: CIFDUS_clean_linker_0, # of connection points: 2
#     Edge 21, Type (0, 1), BuildingBlock: CIFDUS_clean_linker_0, # of connection points: 2
#     Edge 22, Type (0, 1), BuildingBlock: CIFDUS_clean_linker_0, # of connection points: 2
#     Edge 23, Type (0, 1), BuildingBlock: CIFDUS_clean_linker_0, # of connection points: 2
#     Edge 24, Type (0, 1), BuildingBlock: CIFDUS_clean_linker_0, # of connection points: 2
#     Edge 25, Type (0, 1), BuildingBlock: CIFDUS_clean_linker_0, # of connection points: 2
#     Edge 26, Type (0, 1), BuildingBlock: CIFDUS_clean_linker_0, # of connection points: 2
# Relax obj value: 0.168
# Max RMSD: 0.195
# Mean RMSD: 0.112
data_MOF--net-anh--node1-GEDQOX_clean_sbu_0--node2-BETDAH_clean_linker_0--edge1-CIFDUS_clean_linker_0
_symmetry_space_group_name_H-M    P1
_symmetry_Int_Tables_number       1
_symmetry_cell_setting            triclinic
loop_
_symmetry_equiv_pos_as_xyz
'x, y, z'
_cell_length_a     26.797107
_cell_length_b     26.28778
_cell_length_c     42.31805
_cell_angle_alpha  96.492769
_cell_angle_beta   91.952331
_cell_angle_gamma 98.717489
loop_
_atom_site_label
_atom_site_type_symbol
_atom_site_fract_x
_atom_site_fract_y
_atom_site_fract_z
_atom_type_partial_charge
Nd0 Nd 0.13132 0.57296 0.14863 0.0
Nd1 Nd 0.11482 0.47024 0.16819 0.0
C2 C 0.16522 0.66397 0.12999 0.0
C3 C 0.20508 0.70619 0.14415 0.0
C4 C 0.23779 0.73372 0.12463 0.0
C5 C 0.27766 0.77151 0.13815 0.0
C6 C 0.28528 0.78256 0.17145 0.0
C7 C 0.25215 0.75512 0.19089 0.0
C8 C 0.2127 0.71712 0.1774 0.0
C9 C 0.12622 0.5711 0.21357 0.0
C10 C 0.23187 0.51579 0.15796 0.0
C11 C 1.08258 0.3899 0.19874 0.0
C12 C 1.03328 0.35913 0.20328 0.0
C13 C 1.0274 0.33037 0.2292 0.0
C14 C 0.98072 0.30083 0.23368 0.0
C15 C 0.93903 0.2995 0.21225 0.0
C16 C 0.94515 0.329 0.18646 0.0
C17 C 0.99176 0.35864 0.18208 0.0
C18 C 0.126 0.46563 0.10426 0.0
C19 C 1.01521 0.52362 0.14479 0.0
O20 O 0.18073 0.62113 0.11855 0.0
O21 O 0.12479 0.65545 0.14623 0.0
O22 O 1.10177 0.59949 0.19773 0.0
O23 O 0.15103 0.54486 0.19534 0.0
O24 O 0.21134 0.55108 0.14448 0.0
O25 O 0.20308 0.4811 0.17265 0.0
O26 O 1.08992 0.43782 0.21232 0.0
O27 O 1.0988 0.38548 0.16992 0.0
O28 O 0.1456 0.43675 0.12263 0.0
O29 O 1.10024 0.49588 0.11963 0.0
O30 O 1.03153 0.49093 0.16314 0.0
O31 O 1.04857 0.55486 0.13103 0.0
H32 H 0.23287 0.72554 0.09894 0.0
H33 H 0.30246 0.79221 0.12257 0.0
H34 H 0.25749 0.76212 0.21659 0.0
H35 H 0.1886 0.69573 0.19304 0.0
H36 H 1.05896 0.33072 0.24597 0.0
H37 H 0.97723 0.2793 0.25406 0.0
H38 H 0.91419 0.32846 0.16923 0.0
H39 H 0.99549 0.38083 0.16199 0.0
Nd40 Nd 0.55566 0.07306 0.53603 0.0
Nd41 Nd 0.66077 0.08924 0.51652 0.0
C42 C 0.46809 0.04127 0.55997 0.0
C43 C 0.42851 0.99654 0.55005 0.0
C44 C 0.39503 0.9768 0.57199 0.0
C45 C 0.35758 0.93406 0.56239 0.0
C46 C 0.35296 0.91044 0.5306 0.0
C47 C 0.38701 0.93041 0.5088 0.0
C48 C 0.42455 0.97276 0.51847 0.0
C49 C 0.56255 0.06932 0.47109 0.0
C50 C 0.61548 0.97193 0.52355 0.0
C51 C 0.74629 0.11994 0.48963 0.0
C52 C 0.77992 0.1697 0.48998 0.0
C53 C 0.81789 0.17521 0.4681 0.0
C54 C 0.84986 0.22262 0.46832 0.0
C55 C 0.84437 0.26524 0.49052 0.0
C56 C 0.80576 0.25953 0.51219 0.0
C57 C 0.7738 0.21222 0.51189 0.0
C58 C 0.65272 0.09204 0.58152 0.0
C59 C 0.60196 0.19064 0.53102 0.0
O60 O 0.51103 0.0304 0.57081 0.0
O61 O 0.47416 0.0765 0.54039 0.0
O62 O 0.52866 0.08989 0.48684 0.0
O63 O 0.58988 0.04889 0.48921 0.0
O64 O 0.58047 0.99285 0.53937 0.0
O65 O 0.64829 1.00058 0.50775 0.0
O66 O 0.70165 0.11705 0.4755 0.0
O67 O 0.74442 0.09968 0.51646 0.0
O68 O 0.68593 0.07012 0.56574 0.0
O69 O 0.62666 0.11363 0.56329 0.0
O70 O 0.63625 0.16985 0.5144 0.0
O71 O 0.56989 0.16161 0.54707 0.0
H72 H 0.39789 0.99437 0.59654 0.0
H73 H 0.33254 0.91928 0.57993 0.0
H74 H 0.38422 0.9139 0.48405 0.0
H75 H 0.45034 0.98722 0.50118 0.0
H76 H 0.82294 0.14278 0.45094 0.0
H77 H 0.87946 0.22564 0.45152 0.0
H78 H 0.80002 0.29178 0.52927 0.0
H79 H 0.74433 0.20879 0.52878 0.0
Nd80 Nd 0.59896 0.62107 0.83706 0.0
Nd81 Nd 0.7189 0.63902 0.85387 0.0
C82 C 0.5113 0.59711 0.80465 0.0
C83 C 0.46877 0.55476 0.80377 0.0
C84 C 0.43193 0.54638 0.77868 0.0
C85 C 0.39238 0.50471 0.77716 0.0
C86 C 0.38924 0.4708 0.80074 0.0
C87 C 0.42669 0.47935 0.82572 0.0
C88 C 0.46621 0.52085 0.82715 0.0
C89 C 0.62025 0.6143 0.90134 0.0
C90 C 0.65843 0.74027 0.84975 0.0
C91 C 0.81377 0.66034 0.87518 0.0
C92 C 0.85585 0.63094 0.8702 0.0
C93 C 0.84802 0.57704 0.87067 0.0
C94 C 0.88665 0.54851 0.86318 0.0
C95 C 0.93373 0.57305 0.85454 0.0
C96 C 0.94138 0.62708 0.85393 0.0
C97 C 0.9027 0.65577 0.86173 0.0
C98 C 0.68906 0.6145 0.79108 0.0
C99 C 0.65939 0.52028 0.84051 0.0
O100 O 0.51847 0.62984 0.83085 0.0
O101 O 0.55319 0.58309 0.79412 0.0
O102 O 0.57441 0.60856 0.88891 0.0
O103 O 0.64978 0.62477 0.87989 0.0
O104 O 0.61655 0.70918 0.83855 0.0
O105 O 0.69952 0.72263 0.85953 0.0
O106 O 0.77735 0.64071 0.89235 0.0
O107 O 0.79719 0.67765 0.84962 0.0
O108 O 0.72798 0.59935 0.80412 0.0
O109 O 0.66914 0.6443 0.81074 0.0
O110 O 0.70005 0.55051 0.85466 0.0
O111 O 0.62006 0.53916 0.82938 0.0
H112 H 0.43391 0.57188 0.7602 0.0
H113 H 0.36443 0.49888 0.75747 0.0
H114 H 0.42498 0.45456 0.84456 0.0
H115 H 0.49478 0.52655 0.84651 0.0
H116 H 0.8119 0.55676 0.87659 0.0
H117 H 0.87972 0.50721 0.86471 0.0
H118 H 0.97707 0.64712 0.84722 0.0
H119 H 0.90906 0.69722 0.86064 0.0
H120 H 0.52119 0.95776 0.28344 0.0
H121 H 0.66124 0.05928 0.27638 0.0
H122 H 0.57836 0.98121 0.19148 0.0
C123 C 0.5494 0.97629 0.2689 0.0
C124 C 0.54445 0.96486 0.23558 0.0
C125 C 0.59146 1.01016 0.28379 0.0
C126 C 0.62895 0.03299 0.265 0.0
C127 C 0.62394 0.02253 0.23158 0.0
C128 C 0.58193 0.98858 0.21724 0.0
N129 N 0.6599 0.04532 0.21136 0.0
C130 C 0.70296 0.0808 0.22136 0.0
H131 H 0.57947 0.48216 0.61597 0.0
H132 H 0.59611 0.63918 0.59345 0.0
H133 H 0.5706 0.51128 0.5183 0.0
C134 C 0.58018 0.50938 0.59847 0.0
C135 C 0.57377 0.49027 0.56612 0.0
C136 C 0.58928 0.56288 0.60857 0.0
C137 C 0.58904 0.59789 0.58578 0.0
C138 C 0.58196 0.57947 0.55306 0.0
C139 C 0.57528 0.5256 0.54343 0.0
N140 N 0.58241 0.61377 0.52923 0.0
C141 C 0.58546 0.66757 0.53509 0.0
H142 H 1.08314 0.40305 0.91482 0.0
H143 H 0.14302 0.26233 0.92498 0.0
H144 H 1.09777 0.29692 0.83231 0.0
C145 C 1.0932 0.36653 0.90461 0.0
C146 C 1.08716 0.35327 0.87158 0.0
C147 C 0.11237 0.33403 0.92446 0.0
C148 C 0.1267 0.28758 0.91044 0.0
C149 C 0.12245 0.27474 0.87723 0.0
C150 C 1.10136 0.307 0.85792 0.0
N151 N 0.14597 0.23377 0.8631 0.0
C152 C 0.186 0.24647 0.84406 0.0
H153 H 0.17985 0.66925 0.39955 0.0
H154 H 1.04962 0.5577 0.4129 0.0
H155 H 0.13303 0.64845 0.49412 0.0
C156 C 0.15474 0.64943 0.41538 0.0
C157 C 0.16167 0.66342 0.44843 0.0
C158 C 0.11414 0.61181 0.40243 0.0
C159 C 1.08093 0.58674 0.42287 0.0
C160 C 1.0882 0.59969 0.45608 0.0
C161 C 0.12792 0.63849 0.46853 0.0
N162 N 1.05607 0.57541 0.47782 0.0
C163 C 1.02394 0.52846 0.47065 0.0
H164 H 0.67125 0.22538 0.76581 0.0
H165 H 0.69404 0.07341 0.78665 0.0
H166 H 0.709 0.2003 0.86159 0.0
C167 C 0.68026 0.19947 0.78256 0.0
C168 C 0.69073 0.21943 0.81472 0.0
C169 C 0.68187 0.14698 0.7718 0.0
C170 C 0.69215 0.11372 0.79435 0.0
C171 C 0.70132 0.13277 0.82684 0.0
C172 C 0.70145 0.18568 0.83663 0.0
N173 N 0.71096 0.1003 0.85039 0.0
C174 C 0.70846 0.04657 0.84532 0.0
H175 H 0.72942 0.54311 0.07392 0.0
H176 H 0.57024 0.52008 0.09134 0.0
H177 H 0.67749 0.48614 0.16034 0.0
C178 C 0.6989 0.5315 0.08888 0.0
C179 C 0.71053 0.51328 0.11803 0.0
C180 C 0.64861 0.53469 0.07873 0.0
C181 C 0.60913 0.51947 0.09876 0.0
C182 C 0.61928 0.5026 0.12832 0.0
C183 C 0.6699 0.49921 0.13754 0.0
N184 N 0.57992 0.48879 0.14945 0.0
C185 C 0.52767 0.4897 0.14499 0.0
H186 H 0.29084 0.43727 0.16145 0.0
H187 H 0.30103 0.59951 0.15003 0.0
H188 H 0.39166 0.606 0.14413 0.0
H189 H 0.46985 0.56634 0.14191 0.0
H190 H 0.46107 0.40425 0.15208 0.0
H191 H 0.36965 0.39702 0.1584 0.0
C192 C 0.31294 0.47409 0.15791 0.0
C193 C 0.28833 0.5178 0.15633 0.0
C194 C 0.36594 0.47763 0.15393 0.0
C195 C 0.31817 0.56497 0.15131 0.0
C196 C 0.37042 0.56887 0.14787 0.0
C197 C 0.44778 0.52936 0.1452 0.0
C198 C 0.47235 0.48575 0.14619 0.0
C199 C 0.39489 0.52552 0.14893 0.0
C200 C 0.44314 0.43831 0.15088 0.0
C201 C 0.39073 0.43422 0.15468 0.0
H202 H 0.8784 0.316 0.44057 0.0
H203 H 0.88915 0.32658 0.54318 0.0
H204 H 0.94558 0.40913 0.54583 0.0
H205 H 0.99193 0.47867 0.51916 0.0
H206 H 0.98243 0.46913 0.41686 0.0
H207 H 0.92583 0.38561 0.41371 0.0
C208 C 0.89342 0.33622 0.46347 0.0
C209 C 0.87931 0.3152 0.49165 0.0
C210 C 0.92604 0.3838 0.46483 0.0
C211 C 0.89871 0.3422 0.52116 0.0
C212 C 0.93123 0.3893 0.52271 0.0
C213 C 0.97733 0.45809 0.49623 0.0
C214 C 0.99083 0.47939 0.46827 0.0
C215 C 0.945 0.41051 0.49475 0.0
C216 C 0.97216 0.45299 0.43862 0.0
C217 C 0.93993 0.40541 0.43688 0.0
H218 H 0.74131 0.81616 0.85274 0.0
H219 H 0.57816 0.79241 0.84586 0.0
H220 H 0.57912 0.88464 0.84278 0.0
H221 H 0.6262 0.97289 0.84204 0.0
H222 H 0.78893 0.99686 0.84805 0.0
H223 H 0.78839 0.90414 0.85119 0.0
C224 C 0.70595 0.83119 0.85083 0.0
C225 C 0.65974 0.79715 0.84972 0.0
C226 C 0.70672 0.88445 0.84857 0.0
C227 C 0.61434 0.81747 0.84679 0.0
C228 C 0.6148 0.87034 0.84497 0.0
C229 C 0.66142 0.9575 0.84373 0.0
C230 C 0.70755 0.99114 0.84454 0.0
C231 C 0.6607 0.90421 0.84568 0.0
C232 C 0.75302 0.97128 0.84708 0.0
C233 C 0.75268 0.91839 0.84904 0.0
H234 H 0.92796 0.46005 0.16137 0.0
H235 H 0.97629 0.59608 0.11501 0.0
H236 H 0.88916 0.60565 0.1041 0.0
H237 H 0.79864 0.57685 0.10695 0.0
H238 H 0.74677 0.43942 0.15083 0.0
H239 H 0.83449 0.43026 0.16386 0.0
C240 C 0.91946 0.49179 0.14891 0.0
C241 C 0.95978 0.52708 0.13905 0.0
C242 C 0.86801 0.49733 0.14229 0.0
C243 C 0.94707 0.56787 0.12291 0.0
C244 C 0.89677 0.57364 0.11661 0.0
C245 C 0.80601 0.54433 0.11902 0.0
C246 C 0.76495 0.50879 0.12752 0.0
C247 C 0.85684 0.53863 0.12599 0.0
C248 C 0.77671 0.46801 0.14408 0.0
C249 C 0.82729 0.46242 0.15138 0.0
H250 H 0.35922 0.82506 0.48859 0.0
H251 H 0.25492 0.89547 0.54846 0.0
H252 H 0.18751 0.82422 0.52952 0.0
H253 H 0.15698 0.74392 0.4941 0.0
H254 H 0.26034 0.67559 0.43263 0.0
H255 H 0.32894 0.74476 0.45345 0.0
C256 C 0.32167 0.82516 0.49734 0.0
C257 C 0.31235 0.86584 0.51992 0.0
C258 C 0.28273 0.78462 0.48584 0.0
C259 C 0.26357 0.86448 0.53143 0.0
C260 C 0.22479 0.82391 0.52041 0.0
C261 C 0.19466 0.74392 0.48552 0.0
C262 C 0.20355 0.70471 0.46184 0.0
C263 C 0.23383 0.784 0.49743 0.0
C264 C 0.25241 0.70562 0.45061 0.0
C265 C 0.29168 0.74503 0.4626 0.0
H266 H 0.7282 0.46131 0.86123 0.0
H267 H 0.58592 0.44937 0.80751 0.0
H268 H 0.58252 0.35641 0.79598 0.0
H269 H 0.62027 0.27805 0.79941 0.0
H270 H 0.76162 0.28736 0.85306 0.0
H271 H 0.76455 0.381 0.86661 0.0
C272 C 0.69638 0.43836 0.84712 0.0
C273 C 0.65759 0.46292 0.8352 0.0
C274 C 0.69431 0.38411 0.84051 0.0
C275 C 0.61653 0.43213 0.81706 0.0
C276 C 0.61443 0.37865 0.81035 0.0
C277 C 0.65177 0.30057 0.81405 0.0
C278 C 0.69082 0.27571 0.82499 0.0
C279 C 0.65322 0.35426 0.82168 0.0
C280 C 0.73089 0.30541 0.84445 0.0
C281 C 0.73272 0.35905 0.85204 0.0
H282 H 0.55754 0.90225 0.55599 0.0
H283 H 0.67732 0.91392 0.49023 0.0
H284 H 0.6796 0.8212 0.48878 0.0
H285 H 0.64646 0.73574 0.5053 0.0
H286 H 0.52718 0.72381 0.57097 0.0
H287 H 0.52588 0.81738 0.5735 0.0
C288 C 0.58425 0.88463 0.54135 0.0
C289 C 0.61714 0.91537 0.52317 0.0
C290 C 0.58549 0.83105 0.54068 0.0
C291 C 0.65151 0.89153 0.50447 0.0
C292 C 0.65287 0.83835 0.50361 0.0
C293 C 0.62054 0.75391 0.52033 0.0
C294 C 0.58709 0.72337 0.53805 0.0
C295 C 0.61997 0.80766 0.52151 0.0
C296 C 0.55339 0.74688 0.55728 0.0
C297 C 0.55259 0.80027 0.55863 0.0
H298 H 0.92769 0.47587 0.82282 0.0
H299 H 1.03372 0.60132 0.87324 0.0
H300 H 1.09749 0.54472 0.8745 0.0
H301 H 0.11595 0.4562 0.87227 0.0
H302 H 1.00593 0.32839 0.82909 0.0
H303 H 0.95149 0.38898 0.81325 0.0
C304 C 0.96495 0.49096 0.83378 0.0
C305 C 0.97539 0.54239 0.84868 0.0
C306 C 1.00065 0.45749 0.83588 0.0
C307 C 1.02443 0.56191 0.86171 0.0
C308 C 1.06088 0.52941 0.86269 0.0
C309 C 1.08064 0.44186 0.85857 0.0
C310 C 1.06418 0.38818 0.85245 0.0
C311 C 1.0484 0.47661 0.85144 0.0
C312 C 1.01909 0.36966 0.83417 0.0
C313 C 0.98772 0.40427 0.82553 0.0
H314 H 0.38323 0.79419 0.15491 0.0
H315 H 0.2837 0.85816 0.22115 0.0
H316 H 0.35476 0.92012 0.2468 0.0
H317 H 0.44532 0.95597 0.25054 0.0
H318 H 0.54511 0.89016 0.18512 0.0
H319 H 0.47377 0.8299 0.15873 0.0
C320 C 0.37704 0.82209 0.17473 0.0
C321 C 0.32824 0.8216 0.18607 0.0
C322 C 0.41813 0.85737 0.18952 0.0
C323 C 0.32097 0.85746 0.21213 0.0
C324 C 0.36156 0.89299 0.22676 0.0
C325 C 0.45157 0.92815 0.2307 0.0
C326 C 0.50063 0.92785 0.21983 0.0
C327 C 0.41038 0.89311 0.21578 0.0
C328 C 0.50775 0.89192 0.19374 0.0
C329 C 0.46697 0.85717 0.17871 0.0
H330 H 0.53315 0.24632 0.5586 0.0
H331 H 0.66906 0.26315 0.50634 0.0
H332 H 0.66965 0.35653 0.50969 0.0
H333 H 0.63413 0.43485 0.53007 0.0
H334 H 0.49991 0.41789 0.58355 0.0
H335 H 0.49558 0.32363 0.57667 0.0
C336 C 0.56282 0.27032 0.54783 0.0
C337 C 0.6011 0.24743 0.53239 0.0
C338 C 0.56305 0.32426 0.54987 0.0
C339 C 0.63907 0.27941 0.51845 0.0
C340 C 0.63946 0.33301 0.52031 0.0
C341 C 0.60339 0.41029 0.53956 0.0
C342 C 0.56712 0.43318 0.55705 0.0
C343 C 0.6019 0.35602 0.53619 0.0
C344 C 0.52804 0.40106 0.56983 0.0
C345 C 0.52575 0.3472 0.56607 0.0
H346 H 0.39101 0.37233 0.81474 0.0
H347 H 0.2898 0.47388 0.78617 0.0
H348 H 0.21727 0.40807 0.79194 0.0
H349 H 0.18243 0.32684 0.81188 0.0
H350 H 0.28249 0.22814 0.8448 0.0
H351 H 0.35588 0.28733 0.8304 0.0
C352 C 0.35308 0.37994 0.80965 0.0
C353 C 0.34587 0.42822 0.80039 0.0
C354 C 0.31143 0.34242 0.81384 0.0
C355 C 0.29653 0.43702 0.79315 0.0
C356 C 0.25496 0.39953 0.79666 0.0
C357 C 0.2203 0.31774 0.81504 0.0
C358 C 0.22761 0.27343 0.82899 0.0
C359 C 0.26194 0.35279 0.80784 0.0
C360 C 0.27647 0.26196 0.83361 0.0
C361 C 0.31825 0.29599 0.82569 0.0
H362 H 0.92316 0.20247 0.23092 0.0
H363 H 0.84369 0.3224 0.20244 0.0
H364 H 0.763 0.26614 0.20489 0.0
H365 H 0.71502 0.18079 0.21208 0.0
H366 H 0.79411 0.0613 0.24075 0.0
H367 H 0.87494 0.11982 0.24214 0.0
C368 C 0.88823 0.21677 0.22583 0.0
C369 C 0.88974 0.26656 0.21621 0.0
C370 C 0.84184 0.18427 0.22743 0.0
C371 C 0.84388 0.28394 0.20927 0.0
C372 C 0.79761 0.25191 0.21087 0.0
C373 C 0.75001 0.16814 0.21917 0.0
C374 C 0.74918 0.11735 0.22653 0.0
C375 C 0.79617 0.20175 0.21945 0.0
C376 C 0.79431 0.10063 0.2353 0.0
C377 C 0.84038 0.13392 0.23589 0.0
H378 H 0.18358 0.40942 0.06829 0.0
H379 H 1.05074 0.48324 0.0636 0.0
H380 H 1.03247 0.44466 0.00821 0.0
H381 H 1.05256 0.38754 0.96233 0.0
H382 H 0.19005 0.32046 0.96529 0.0
H383 H 0.20658 0.35644 0.02101 0.0
C384 C 0.1509 0.41743 0.05497 0.0
C385 C 0.11848 0.44898 0.06984 0.0
C386 C 0.14077 0.39523 0.02328 0.0
C387 C 1.0764 0.45937 0.05249 0.0
C388 C 1.06571 0.43691 0.02099 0.0
C389 C 1.08668 0.38133 0.97485 0.0
C390 C 0.12012 0.35141 0.95929 0.0
C391 C 1.09739 0.40438 0.00631 0.0
C392 C 0.1631 0.34247 0.97655 0.0
C393 C 0.17304 0.36374 0.00834 0.0
H394 H 0.63577 0.03892 0.43324 0.0
H395 H 0.48705 0.0827 0.43016 0.0
H396 H 0.48306 0.06857 0.37212 0.0
H397 H 0.52104 0.04262 0.32211 0.0
H398 H 0.6713 1.00312 0.32418 0.0
H399 H 0.67592 0.01729 0.38258 0.0
C400 C 0.60262 0.0454 0.41978 0.0
C401 C 0.56162 0.06146 0.43593 0.0
C402 C 0.60094 0.03814 0.38624 0.0
C403 C 0.51905 0.07022 0.41827 0.0
C404 C 0.5167 0.06214 0.38507 0.0
C405 C 0.55477 0.03716 0.33542 0.0
C406 C 0.59561 0.02153 0.31901 0.0
C407 C 0.55728 0.04592 0.36881 0.0
C408 C 0.63945 0.0153 0.33639 0.0
C409 C 0.64198 0.02317 0.36973 0.0
H410 H 0.62206 0.65548 0.75441 0.0
H411 H 0.7205 0.53952 0.75185 0.0
H412 H 0.69909 0.51468 0.69542 0.0
H413 H 0.65429 0.52626 0.6467 0.0
H414 H 0.55472 0.64061 0.64708 0.0
H415 H 0.5755 0.66662 0.70422 0.0
C416 C 0.63847 0.62466 0.74141 0.0
C417 C 0.67287 0.59941 0.75723 0.0
C418 C 0.62625 0.61065 0.70857 0.0
C419 C 0.69411 0.55969 0.74019 0.0
C420 C 0.68195 0.54543 0.70789 0.0
C421 C 0.63663 0.55654 0.6593 0.0
C422 C 0.60257 0.58103 0.64279 0.0
C423 C 0.64835 0.57075 0.69186 0.0
C424 C 0.58117 0.62122 0.65929 0.0
C425 C 0.59281 0.63584 0.69196 0.0
H426 H 0.62966 0.03565 0.6304 0.0
H427 H 0.69405 0.18733 0.60886 0.0
H428 H 0.711 0.21703 0.66572 0.0
H429 H 0.7087 0.19944 0.72106 0.0
H430 H 0.63609 0.05053 0.74358 0.0
H431 H 0.62258 0.0197 0.68691 0.0
C432 C 0.64723 0.07518 0.63837 0.0
C433 C 0.66078 0.10943 0.61581 0.0
C434 C 0.65584 0.09224 0.67116 0.0
C435 C 0.6833 0.16058 0.62605 0.0
C436 C 0.69306 0.17744 0.65846 0.0
C437 C 0.68892 0.16053 0.71385 0.0
C438 C 0.67343 0.12765 0.73702 0.0
C439 C 0.67947 0.14361 0.68122 0.0
C440 C 0.64937 0.07674 0.72662 0.0
C441 C 0.64111 0.05911 0.69409 0.0
H442 H 0.56776 0.62171 0.95512 0.0
H443 H 0.70424 0.57519 0.91871 0.0
H444 H 0.72431 0.54505 0.96953 0.0
H445 H 0.70112 0.5284 0.02339 0.0
H446 H 0.57045 0.58616 0.06239 0.0
H447 H 0.54958 0.61368 0.0114 0.0
C448 C 0.6021 0.60537 0.95848 0.0
C449 C 0.63442 0.6006 0.93315 0.0
C450 C 0.61409 0.58926 0.98814 0.0
C451 C 0.67893 0.57966 0.93786 0.0
C452 C 0.69027 0.56212 0.96691 0.0
C453 C 0.66864 0.54802 0.02136 0.0
C454 C 0.63726 0.55398 0.04734 0.0
C455 C 0.65793 0.56639 0.9922 0.0
C456 C 0.59478 0.57885 0.04306 0.0
C457 C 0.58296 0.59546 0.01381 0.0
H458 H 1.05772 0.59933 0.25541 0.0
H459 H 0.20238 0.54688 0.24987 0.0
H460 H 0.21084 0.55316 0.30792 0.0
H461 H 0.17857 0.57684 0.36045 0.0
H462 H 1.03161 0.62359 0.36641 0.0
H463 H 1.02202 0.61569 0.30811 0.0
C464 C 1.09097 0.58926 0.26703 0.0
C465 C 0.12968 0.57335 0.24856 0.0
C466 C 1.09499 0.5917 0.30043 0.0
C467 C 0.17222 0.55947 0.2637 0.0
C468 C 0.17709 0.56305 0.29685 0.0
C469 C 0.14429 0.5847 0.34884 0.0
C470 C 0.10589 0.60087 0.36743 0.0
C471 C 0.13893 0.5795 0.31546 0.0
C472 C 1.06146 0.61077 0.35239 0.0
C473 C 1.05616 0.60658 0.31914 0.0
loop_
_geom_bond_atom_site_label_1
_geom_bond_atom_site_label_2
_geom_bond_distance
_geom_bond_site_symmetry_2
_ccdc_geom_bond_type
Nd0 C2 2.836 . S
Nd0 O20 2.500 . S
Nd0 O21 2.492 . S
Nd0 O22 2.487 . S
Nd0 O23 2.682 . S
Nd0 O24 2.410 . S
Nd0 O29 2.414 . S
Nd0 O31 2.424 1_455 S
Nd1 C11 2.836 1_455 S
Nd1 O23 2.414 . S
Nd1 O25 2.424 . S
Nd1 O26 2.500 1_455 S
Nd1 O27 2.492 1_455 S
Nd1 O28 2.487 . S
Nd1 O29 2.682 . S
Nd1 O30 2.410 1_455 S
C2 Nd0 2.836 . S
C2 C3 1.498 . S
C2 O20 1.258 . S
C2 O21 1.239 . S
C3 C2 1.498 . S
C3 C4 1.366 . S
C3 C8 1.407 . S
C4 C3 1.366 . S
C4 C5 1.392 . S
C4 H32 0.930 . S
C5 C4 1.392 . S
C5 C6 1.398 . S
C5 H33 0.929 . S
C6 C5 1.398 . S
C6 C7 1.352 . S
C7 C6 1.352 . S
C7 C8 1.384 . S
C7 H34 0.930 . S
C8 C3 1.407 . S
C8 C7 1.384 . S
C8 H35 0.929 . S
C9 O22 1.241 . S
C9 O23 1.273 . S
C10 O24 1.251 . S
C10 O25 1.268 . S
C11 Nd1 2.836 1_655 S
C11 C12 1.498 . S
C11 O26 1.258 . S
C11 O27 1.239 . S
C12 C11 1.498 . S
C12 C13 1.366 . S
C12 C17 1.407 . S
C13 C12 1.366 . S
C13 C14 1.392 . S
C13 H36 0.930 . S
C14 C13 1.392 . S
C14 C15 1.398 . S
C14 H37 0.929 . S
C15 C14 1.398 . S
C15 C16 1.352 . S
C16 C15 1.352 . S
C16 C17 1.384 . S
C16 H38 0.930 . S
C17 C12 1.407 . S
C17 C16 1.384 . S
C17 H39 0.929 . S
C18 O28 1.241 . S
C18 O29 1.273 . S
C19 O30 1.251 . S
C19 O31 1.268 . S
O20 Nd0 2.500 . S
O20 C2 1.258 . S
O21 Nd0 2.492 . S
O21 C2 1.239 . S
O22 Nd0 2.487 . S
O22 C9 1.241 . S
O23 Nd0 2.682 . S
O23 Nd1 2.414 . S
O23 C9 1.273 . S
O24 Nd0 2.410 . S
O24 C10 1.251 . S
O25 Nd1 2.424 . S
O25 C10 1.268 . S
O26 Nd1 2.500 1_655 S
O26 C11 1.258 . S
O27 Nd1 2.492 1_655 S
O27 C11 1.239 . S
O28 Nd1 2.487 . S
O28 C18 1.241 . S
O29 Nd0 2.414 . S
O29 Nd1 2.682 . S
O29 C18 1.273 . S
O30 Nd1 2.410 1_655 S
O30 C19 1.251 . S
O31 Nd0 2.424 1_655 S
O31 C19 1.268 . S
H32 C4 0.930 . S
H33 C5 0.929 . S
H34 C7 0.930 . S
H35 C8 0.929 . S
H36 C13 0.930 . S
H37 C14 0.929 . S
H38 C16 0.930 . S
H39 C17 0.929 . S
Nd40 C42 2.836 1_545 S
Nd40 O60 2.500 1_545 S
Nd40 O61 2.492 1_545 S
Nd40 O62 2.487 . S
Nd40 O63 2.682 . S
Nd40 O64 2.410 1_545 S
Nd40 O69 2.414 . S
Nd40 O71 2.424 . S
Nd41 C51 2.836 . S
Nd41 O63 2.414 . S
Nd41 O65 2.424 1_545 S
Nd41 O66 2.500 . S
Nd41 O67 2.492 . S
Nd41 O68 2.487 . S
Nd41 O69 2.682 . S
Nd41 O70 2.410 . S
C42 Nd40 2.836 1_565 S
C42 C43 1.498 . S
C42 O60 1.258 . S
C42 O61 1.239 . S
C43 C42 1.498 . S
C43 C44 1.366 . S
C43 C48 1.407 . S
C44 C43 1.366 . S
C44 C45 1.392 . S
C44 H72 0.930 . S
C45 C44 1.392 . S
C45 C46 1.398 . S
C45 H73 0.929 . S
C46 C45 1.398 . S
C46 C47 1.352 . S
C47 C46 1.352 . S
C47 C48 1.384 . S
C47 H74 0.930 . S
C48 C43 1.407 . S
C48 C47 1.384 . S
C48 H75 0.929 . S
C49 O62 1.241 . S
C49 O63 1.273 . S
C50 O64 1.251 . S
C50 O65 1.268 . S
C51 Nd41 2.836 . S
C51 C52 1.498 . S
C51 O66 1.258 . S
C51 O67 1.239 . S
C52 C51 1.498 . S
C52 C53 1.366 . S
C52 C57 1.407 . S
C53 C52 1.366 . S
C53 C54 1.392 . S
C53 H76 0.930 . S
C54 C53 1.392 . S
C54 C55 1.398 . S
C54 H77 0.929 . S
C55 C54 1.398 . S
C55 C56 1.352 . S
C56 C55 1.352 . S
C56 C57 1.384 . S
C56 H78 0.930 . S
C57 C52 1.407 . S
C57 C56 1.384 . S
C57 H79 0.929 . S
C58 O68 1.241 . S
C58 O69 1.273 . S
C59 O70 1.251 . S
C59 O71 1.268 . S
O60 Nd40 2.500 1_565 S
O60 C42 1.258 . S
O61 Nd40 2.492 1_565 S
O61 C42 1.239 . S
O62 Nd40 2.487 . S
O62 C49 1.241 . S
O63 Nd40 2.682 . S
O63 Nd41 2.414 . S
O63 C49 1.273 . S
O64 Nd40 2.410 1_565 S
O64 C50 1.251 . S
O65 Nd41 2.424 1_565 S
O65 C50 1.268 . S
O66 Nd41 2.500 . S
O66 C51 1.258 . S
O67 Nd41 2.492 . S
O67 C51 1.239 . S
O68 Nd41 2.487 . S
O68 C58 1.241 . S
O69 Nd40 2.414 . S
O69 Nd41 2.682 . S
O69 C58 1.273 . S
O70 Nd41 2.410 . S
O70 C59 1.251 . S
O71 Nd40 2.424 . S
O71 C59 1.268 . S
H72 C44 0.930 . S
H73 C45 0.929 . S
H74 C47 0.930 . S
H75 C48 0.929 . S
H76 C53 0.930 . S
H77 C54 0.929 . S
H78 C56 0.930 . S
H79 C57 0.929 . S
Nd80 C82 2.836 . S
Nd80 O100 2.500 . S
Nd80 O101 2.492 . S
Nd80 O102 2.487 . S
Nd80 O103 2.682 . S
Nd80 O104 2.410 . S
Nd80 O109 2.414 . S
Nd80 O111 2.424 . S
Nd81 C91 2.836 . S
Nd81 O103 2.414 . S
Nd81 O105 2.424 . S
Nd81 O106 2.500 . S
Nd81 O107 2.492 . S
Nd81 O108 2.487 . S
Nd81 O109 2.682 . S
Nd81 O110 2.410 . S
C82 Nd80 2.836 . S
C82 C83 1.498 . S
C82 O100 1.258 . S
C82 O101 1.239 . S
C83 C82 1.498 . S
C83 C84 1.366 . S
C83 C88 1.407 . S
C84 C83 1.366 . S
C84 C85 1.392 . S
C84 H112 0.930 . S
C85 C84 1.392 . S
C85 C86 1.398 . S
C85 H113 0.929 . S
C86 C85 1.398 . S
C86 C87 1.352 . S
C87 C86 1.352 . S
C87 C88 1.384 . S
C87 H114 0.930 . S
C88 C83 1.407 . S
C88 C87 1.384 . S
C88 H115 0.929 . S
C89 O102 1.241 . S
C89 O103 1.273 . S
C90 O104 1.251 . S
C90 O105 1.268 . S
C91 Nd81 2.836 . S
C91 C92 1.498 . S
C91 O106 1.258 . S
C91 O107 1.239 . S
C92 C91 1.498 . S
C92 C93 1.366 . S
C92 C97 1.407 . S
C93 C92 1.366 . S
C93 C94 1.392 . S
C93 H116 0.930 . S
C94 C93 1.392 . S
C94 C95 1.398 . S
C94 H117 0.929 . S
C95 C94 1.398 . S
C95 C96 1.352 . S
C96 C95 1.352 . S
C96 C97 1.384 . S
C96 H118 0.930 . S
C97 C92 1.407 . S
C97 C96 1.384 . S
C97 H119 0.929 . S
C98 O108 1.241 . S
C98 O109 1.273 . S
C99 O110 1.251 . S
C99 O111 1.268 . S
O100 Nd80 2.500 . S
O100 C82 1.258 . S
O101 Nd80 2.492 . S
O101 C82 1.239 . S
O102 Nd80 2.487 . S
O102 C89 1.241 . S
O103 Nd80 2.682 . S
O103 Nd81 2.414 . S
O103 C89 1.273 . S
O104 Nd80 2.410 . S
O104 C90 1.251 . S
O105 Nd81 2.424 . S
O105 C90 1.268 . S
O106 Nd81 2.500 . S
O106 C91 1.258 . S
O107 Nd81 2.492 . S
O107 C91 1.239 . S
O108 Nd81 2.487 . S
O108 C98 1.241 . S
O109 Nd80 2.414 . S
O109 Nd81 2.682 . S
O109 C98 1.273 . S
O110 Nd81 2.410 . S
O110 C99 1.251 . S
O111 Nd80 2.424 . S
O111 C99 1.268 . S
H112 C84 0.930 . S
H113 C85 0.929 . S
H114 C87 0.930 . S
H115 C88 0.929 . S
H116 C93 0.930 . S
H117 C94 0.929 . S
H118 C96 0.930 . S
H119 C97 0.929 . S
H120 C123 0.929 1_565 S
H121 C126 0.929 . S
H122 C128 0.930 . S
C123 H120 0.929 1_545 S
C123 C124 1.398 1_545 S
C123 C125 1.396 . S
C124 C123 1.398 1_565 S
C124 C128 1.408 1_565 S
C125 C123 1.396 . S
C125 C126 1.394 . S
C126 H121 0.929 . S
C126 C125 1.394 . S
C126 C127 1.382 . S
C127 C126 1.382 . S
C127 C128 1.392 . S
C127 N129 1.420 . S
C128 H122 0.930 . S
C128 C124 1.408 1_545 S
C128 C127 1.392 . S
N129 C127 1.420 . S
N129 C130 1.244 . S
C130 N129 1.244 . S
H131 C134 0.929 . S
H132 C137 0.929 . S
H133 C139 0.930 . S
C134 H131 0.929 . S
C134 C135 1.398 . S
C134 C136 1.396 . S
C135 C134 1.398 . S
C135 C139 1.407 . S
C136 C134 1.396 . S
C136 C137 1.394 . S
C137 H132 0.929 . S
C137 C136 1.394 . S
C137 C138 1.382 . S
C138 C137 1.382 . S
C138 C139 1.392 . S
C138 N140 1.420 . S
C139 H133 0.930 . S
C139 C135 1.407 . S
C139 C138 1.392 . S
N140 C138 1.420 . S
N140 C141 1.244 . S
C141 N140 1.244 . S
H142 C145 0.929 . S
H143 C148 0.929 . S
H144 C150 0.930 . S
C145 H142 0.929 . S
C145 C146 1.398 . S
C145 C147 1.396 1_655 S
C146 C145 1.398 . S
C146 C150 1.407 1_655 S
C147 C145 1.396 1_455 S
C147 C148 1.394 . S
C148 H143 0.929 . S
C148 C147 1.394 . S
C148 C149 1.382 . S
C149 C148 1.382 . S
C149 C150 1.392 . S
C149 N151 1.420 . S
C150 H144 0.930 . S
C150 C146 1.407 1_455 S
C150 C149 1.392 . S
N151 C149 1.420 . S
N151 C152 1.244 . S
C152 N151 1.244 . S
H153 C156 0.929 . S
H154 C159 0.929 . S
H155 C161 0.930 . S
C156 H153 0.929 . S
C156 C157 1.398 . S
C156 C158 1.396 . S
C157 C156 1.398 . S
C157 C161 1.407 . S
C158 C156 1.396 . S
C158 C159 1.394 1_455 S
C159 H154 0.929 . S
C159 C158 1.394 1_655 S
C159 C160 1.382 . S
C160 C159 1.382 . S
C160 C161 1.392 1_655 S
C160 N162 1.420 . S
C161 H155 0.930 . S
C161 C157 1.407 . S
C161 C160 1.392 1_455 S
N162 C160 1.420 . S
N162 C163 1.244 . S
C163 N162 1.244 . S
H164 C167 0.929 . S
H165 C170 0.929 . S
H166 C172 0.930 . S
C167 H164 0.929 . S
C167 C168 1.398 . S
C167 C169 1.396 . S
C168 C167 1.398 . S
C168 C172 1.407 . S
C169 C167 1.396 . S
C169 C170 1.394 1_545 S
C170 H165 0.929 . S
C170 C169 1.394 1_565 S
C170 C171 1.382 1_565 S
C171 C170 1.382 1_545 S
C171 C172 1.392 . S
C171 N173 1.420 1_545 S
C172 H166 0.930 . S
C172 C168 1.407 . S
C172 C171 1.392 . S
N173 C171 1.420 1_565 S
N173 C174 1.244 . S
C174 N173 1.244 . S
H175 C178 0.929 . S
H176 C181 0.929 . S
H177 C183 0.930 . S
C178 H175 0.929 . S
C178 C179 1.398 . S
C178 C180 1.396 . S
C179 C178 1.398 . S
C179 C183 1.407 . S
C180 C178 1.396 . S
C180 C181 1.394 . S
C181 H176 0.929 . S
C181 C180 1.394 . S
C181 C182 1.382 . S
C182 C181 1.382 . S
C182 C183 1.392 . S
C182 N184 1.420 . S
C183 H177 0.930 . S
C183 C179 1.407 . S
C183 C182 1.392 . S
N184 C182 1.420 . S
N184 C185 1.244 . S
C185 N184 1.244 . S
H186 C192 0.930 . S
H187 C195 0.930 . S
H188 C196 0.930 . S
H189 C197 0.930 . S
H190 C200 0.930 . S
H191 C201 0.930 . S
C192 H186 0.930 . S
C192 C193 1.355 . S
C192 C194 1.415 . S
C193 C192 1.355 . S
C193 C195 1.419 . S
C194 C192 1.415 . S
C194 C199 1.425 . S
C194 C201 1.409 . S
C195 H187 0.930 . S
C195 C193 1.419 . S
C195 C196 1.362 . S
C196 H188 0.930 . S
C196 C195 1.362 . S
C196 C199 1.409 . S
C197 H189 0.930 . S
C197 C198 1.355 . S
C197 C199 1.415 . S
C198 C197 1.355 . S
C198 C200 1.419 . S
C199 C194 1.425 . S
C199 C196 1.409 . S
C199 C197 1.415 . S
C200 H190 0.930 . S
C200 C198 1.419 . S
C200 C201 1.362 . S
C201 H191 0.930 . S
C201 C194 1.409 . S
C201 C200 1.362 . S
H202 C208 0.930 . S
H203 C211 0.930 . S
H204 C212 0.930 . S
H205 C213 0.930 . S
H206 C216 0.930 . S
H207 C217 0.930 . S
C208 H202 0.930 . S
C208 C209 1.355 . S
C208 C210 1.415 . S
C209 C208 1.355 . S
C209 C211 1.419 . S
C210 C208 1.415 . S
C210 C215 1.425 . S
C210 C217 1.409 . S
C211 H203 0.930 . S
C211 C209 1.419 . S
C211 C212 1.362 . S
C212 H204 0.930 . S
C212 C211 1.362 . S
C212 C215 1.409 . S
C213 H205 0.930 . S
C213 C214 1.355 . S
C213 C215 1.415 . S
C214 C213 1.355 . S
C214 C216 1.419 . S
C215 C210 1.425 . S
C215 C212 1.409 . S
C215 C213 1.415 . S
C216 H206 0.930 . S
C216 C214 1.419 . S
C216 C217 1.362 . S
C217 H207 0.930 . S
C217 C210 1.409 . S
C217 C216 1.362 . S
H218 C224 0.930 . S
H219 C227 0.930 . S
H220 C228 0.930 . S
H221 C229 0.930 . S
H222 C232 0.930 . S
H223 C233 0.930 . S
C224 H218 0.930 . S
C224 C225 1.355 . S
C224 C226 1.415 . S
C225 C224 1.355 . S
C225 C227 1.419 . S
C226 C224 1.415 . S
C226 C231 1.425 . S
C226 C233 1.409 . S
C227 H219 0.930 . S
C227 C225 1.419 . S
C227 C228 1.362 . S
C228 H220 0.930 . S
C228 C227 1.362 . S
C228 C231 1.409 . S
C229 H221 0.930 . S
C229 C230 1.355 . S
C229 C231 1.415 . S
C230 C229 1.355 . S
C230 C232 1.419 . S
C231 C226 1.425 . S
C231 C228 1.409 . S
C231 C229 1.415 . S
C232 H222 0.930 . S
C232 C230 1.419 . S
C232 C233 1.362 . S
C233 H223 0.930 . S
C233 C226 1.409 . S
C233 C232 1.362 . S
H234 C240 0.930 . S
H235 C243 0.930 . S
H236 C244 0.930 . S
H237 C245 0.930 . S
H238 C248 0.930 . S
H239 C249 0.930 . S
C240 H234 0.930 . S
C240 C241 1.355 . S
C240 C242 1.415 . S
C241 C240 1.355 . S
C241 C243 1.419 . S
C242 C240 1.415 . S
C242 C247 1.425 . S
C242 C249 1.409 . S
C243 H235 0.930 . S
C243 C241 1.419 . S
C243 C244 1.362 . S
C244 H236 0.930 . S
C244 C243 1.362 . S
C244 C247 1.409 . S
C245 H237 0.930 . S
C245 C246 1.355 . S
C245 C247 1.415 . S
C246 C245 1.355 . S
C246 C248 1.419 . S
C247 C242 1.425 . S
C247 C244 1.409 . S
C247 C245 1.415 . S
C248 H238 0.930 . S
C248 C246 1.419 . S
C248 C249 1.362 . S
C249 H239 0.930 . S
C249 C242 1.409 . S
C249 C248 1.362 . S
H250 C256 0.930 . S
H251 C259 0.930 . S
H252 C260 0.930 . S
H253 C261 0.930 . S
H254 C264 0.930 . S
H255 C265 0.930 . S
C256 H250 0.930 . S
C256 C257 1.355 . S
C256 C258 1.415 . S
C257 C256 1.355 . S
C257 C259 1.419 . S
C258 C256 1.415 . S
C258 C263 1.425 . S
C258 C265 1.409 . S
C259 H251 0.930 . S
C259 C257 1.419 . S
C259 C260 1.362 . S
C260 H252 0.930 . S
C260 C259 1.362 . S
C260 C263 1.409 . S
C261 H253 0.930 . S
C261 C262 1.355 . S
C261 C263 1.415 . S
C262 C261 1.355 . S
C262 C264 1.419 . S
C263 C258 1.425 . S
C263 C260 1.409 . S
C263 C261 1.415 . S
C264 H254 0.930 . S
C264 C262 1.419 . S
C264 C265 1.362 . S
C265 H255 0.930 . S
C265 C258 1.409 . S
C265 C264 1.362 . S
H266 C272 0.930 . S
H267 C275 0.930 . S
H268 C276 0.930 . S
H269 C277 0.930 . S
H270 C280 0.930 . S
H271 C281 0.930 . S
C272 H266 0.930 . S
C272 C273 1.355 . S
C272 C274 1.415 . S
C273 C272 1.355 . S
C273 C275 1.419 . S
C274 C272 1.415 . S
C274 C279 1.425 . S
C274 C281 1.409 . S
C275 H267 0.930 . S
C275 C273 1.419 . S
C275 C276 1.362 . S
C276 H268 0.930 . S
C276 C275 1.362 . S
C276 C279 1.409 . S
C277 H269 0.930 . S
C277 C278 1.355 . S
C277 C279 1.415 . S
C278 C277 1.355 . S
C278 C280 1.419 . S
C279 C274 1.425 . S
C279 C276 1.409 . S
C279 C277 1.415 . S
C280 H270 0.930 . S
C280 C278 1.419 . S
C280 C281 1.362 . S
C281 H271 0.930 . S
C281 C274 1.409 . S
C281 C280 1.362 . S
H282 C288 0.930 . S
H283 C291 0.930 . S
H284 C292 0.930 . S
H285 C293 0.930 . S
H286 C296 0.930 . S
H287 C297 0.930 . S
C288 H282 0.930 . S
C288 C289 1.355 . S
C288 C290 1.415 . S
C289 C288 1.355 . S
C289 C291 1.419 . S
C290 C288 1.415 . S
C290 C295 1.425 . S
C290 C297 1.409 . S
C291 H283 0.930 . S
C291 C289 1.419 . S
C291 C292 1.362 . S
C292 H284 0.930 . S
C292 C291 1.362 . S
C292 C295 1.409 . S
C293 H285 0.930 . S
C293 C294 1.355 . S
C293 C295 1.415 . S
C294 C293 1.355 . S
C294 C296 1.419 . S
C295 C290 1.425 . S
C295 C292 1.409 . S
C295 C293 1.415 . S
C296 H286 0.930 . S
C296 C294 1.419 . S
C296 C297 1.362 . S
C297 H287 0.930 . S
C297 C290 1.409 . S
C297 C296 1.362 . S
H298 C304 0.930 . S
H299 C307 0.930 . S
H300 C308 0.930 . S
H301 C309 0.930 . S
H302 C312 0.930 . S
H303 C313 0.930 . S
C304 H298 0.930 . S
C304 C305 1.355 . S
C304 C306 1.415 . S
C305 C304 1.355 . S
C305 C307 1.419 . S
C306 C304 1.415 . S
C306 C311 1.425 . S
C306 C313 1.409 . S
C307 H299 0.930 . S
C307 C305 1.419 . S
C307 C308 1.362 . S
C308 H300 0.930 . S
C308 C307 1.362 . S
C308 C311 1.409 . S
C309 H301 0.930 . S
C309 C310 1.355 . S
C309 C311 1.415 . S
C310 C309 1.355 . S
C310 C312 1.419 . S
C311 C306 1.425 . S
C311 C308 1.409 . S
C311 C309 1.415 . S
C312 H302 0.930 . S
C312 C310 1.419 . S
C312 C313 1.362 . S
C313 H303 0.930 . S
C313 C306 1.409 . S
C313 C312 1.362 . S
H314 C320 0.930 . S
H315 C323 0.930 . S
H316 C324 0.930 . S
H317 C325 0.930 1_545 S
H318 C328 0.930 . S
H319 C329 0.930 . S
C320 H314 0.930 . S
C320 C321 1.355 . S
C320 C322 1.415 . S
C321 C320 1.355 . S
C321 C323 1.419 . S
C322 C320 1.415 . S
C322 C327 1.425 . S
C322 C329 1.409 . S
C323 H315 0.930 . S
C323 C321 1.419 . S
C323 C324 1.362 . S
C324 H316 0.930 . S
C324 C323 1.362 . S
C324 C327 1.409 . S
C325 H317 0.930 1_565 S
C325 C326 1.355 . S
C325 C327 1.415 . S
C326 C325 1.355 . S
C326 C328 1.419 . S
C327 C322 1.425 . S
C327 C324 1.409 . S
C327 C325 1.415 . S
C328 H318 0.930 . S
C328 C326 1.419 . S
C328 C329 1.362 . S
C329 H319 0.930 . S
C329 C322 1.409 . S
C329 C328 1.362 . S
H330 C336 0.930 . S
H331 C339 0.930 . S
H332 C340 0.930 . S
H333 C341 0.930 . S
H334 C344 0.930 . S
H335 C345 0.930 . S
C336 H330 0.930 . S
C336 C337 1.355 . S
C336 C338 1.415 . S
C337 C336 1.355 . S
C337 C339 1.419 . S
C338 C336 1.415 . S
C338 C343 1.425 . S
C338 C345 1.409 . S
C339 H331 0.930 . S
C339 C337 1.419 . S
C339 C340 1.362 . S
C340 H332 0.930 . S
C340 C339 1.362 . S
C340 C343 1.409 . S
C341 H333 0.930 . S
C341 C342 1.355 . S
C341 C343 1.415 . S
C342 C341 1.355 . S
C342 C344 1.419 . S
C343 C338 1.425 . S
C343 C340 1.409 . S
C343 C341 1.415 . S
C344 H334 0.930 . S
C344 C342 1.419 . S
C344 C345 1.362 . S
C345 H335 0.930 . S
C345 C338 1.409 . S
C345 C344 1.362 . S
H346 C352 0.930 . S
H347 C355 0.930 . S
H348 C356 0.930 . S
H349 C357 0.930 . S
H350 C360 0.930 . S
H351 C361 0.930 . S
C352 H346 0.930 . S
C352 C353 1.355 . S
C352 C354 1.415 . S
C353 C352 1.355 . S
C353 C355 1.419 . S
C354 C352 1.415 . S
C354 C359 1.425 . S
C354 C361 1.409 . S
C355 H347 0.930 . S
C355 C353 1.419 . S
C355 C356 1.362 . S
C356 H348 0.930 . S
C356 C355 1.362 . S
C356 C359 1.409 . S
C357 H349 0.930 . S
C357 C358 1.355 . S
C357 C359 1.415 . S
C358 C357 1.355 . S
C358 C360 1.419 . S
C359 C354 1.425 . S
C359 C356 1.409 . S
C359 C357 1.415 . S
C360 H350 0.930 . S
C360 C358 1.419 . S
C360 C361 1.362 . S
C361 H351 0.930 . S
C361 C354 1.409 . S
C361 C360 1.362 . S
H362 C368 0.930 . S
H363 C371 0.930 . S
H364 C372 0.930 . S
H365 C373 0.930 . S
H366 C376 0.930 . S
H367 C377 0.930 . S
C368 H362 0.930 . S
C368 C369 1.355 . S
C368 C370 1.415 . S
C369 C368 1.355 . S
C369 C371 1.419 . S
C370 C368 1.415 . S
C370 C375 1.425 . S
C370 C377 1.409 . S
C371 H363 0.930 . S
C371 C369 1.419 . S
C371 C372 1.362 . S
C372 H364 0.930 . S
C372 C371 1.362 . S
C372 C375 1.409 . S
C373 H365 0.930 . S
C373 C374 1.355 . S
C373 C375 1.415 . S
C374 C373 1.355 . S
C374 C376 1.419 . S
C375 C370 1.425 . S
C375 C372 1.409 . S
C375 C373 1.415 . S
C376 H366 0.930 . S
C376 C374 1.419 . S
C376 C377 1.362 . S
C377 H367 0.930 . S
C377 C370 1.409 . S
C377 C376 1.362 . S
H378 C384 0.930 . S
H379 C387 0.930 . S
H380 C388 0.930 . S
H381 C389 0.930 1_655 S
H382 C392 0.930 . S
H383 C393 0.930 . S
C384 H378 0.930 . S
C384 C385 1.355 . S
C384 C386 1.415 . S
C385 C384 1.355 . S
C385 C387 1.419 1_455 S
C386 C384 1.415 . S
C386 C391 1.425 . S
C386 C393 1.409 . S
C387 H379 0.930 . S
C387 C385 1.419 1_655 S
C387 C388 1.362 . S
C388 H380 0.930 . S
C388 C387 1.362 . S
C388 C391 1.409 1_655 S
C389 H381 0.930 1_455 S
C389 C390 1.355 . S
C389 C391 1.415 1_556 S
C390 C389 1.355 . S
C390 C392 1.419 . S
C391 C386 1.425 . S
C391 C388 1.409 1_455 S
C391 C389 1.415 1_554 S
C392 H382 0.930 . S
C392 C390 1.419 . S
C392 C393 1.362 1_556 S
C393 H383 0.930 . S
C393 C386 1.409 . S
C393 C392 1.362 1_554 S
H394 C400 0.930 . S
H395 C403 0.930 . S
H396 C404 0.930 . S
H397 C405 0.930 . S
H398 C408 0.930 . S
H399 C409 0.930 . S
C400 H394 0.930 . S
C400 C401 1.355 . S
C400 C402 1.415 . S
C401 C400 1.355 . S
C401 C403 1.419 . S
C402 C400 1.415 . S
C402 C407 1.425 . S
C402 C409 1.409 . S
C403 H395 0.930 . S
C403 C401 1.419 . S
C403 C404 1.362 . S
C404 H396 0.930 . S
C404 C403 1.362 . S
C404 C407 1.409 . S
C405 H397 0.930 . S
C405 C406 1.355 . S
C405 C407 1.415 . S
C406 C405 1.355 . S
C406 C408 1.419 . S
C407 C402 1.425 . S
C407 C404 1.409 . S
C407 C405 1.415 . S
C408 H398 0.930 . S
C408 C406 1.419 . S
C408 C409 1.362 . S
C409 H399 0.930 . S
C409 C402 1.409 . S
C409 C408 1.362 . S
H410 C416 0.930 . S
H411 C419 0.930 . S
H412 C420 0.930 . S
H413 C421 0.930 . S
H414 C424 0.930 . S
H415 C425 0.930 . S
C416 H410 0.930 . S
C416 C417 1.355 . S
C416 C418 1.415 . S
C417 C416 1.355 . S
C417 C419 1.419 . S
C418 C416 1.415 . S
C418 C423 1.425 . S
C418 C425 1.409 . S
C419 H411 0.930 . S
C419 C417 1.419 . S
C419 C420 1.362 . S
C420 H412 0.930 . S
C420 C419 1.362 . S
C420 C423 1.409 . S
C421 H413 0.930 . S
C421 C422 1.355 . S
C421 C423 1.415 . S
C422 C421 1.355 . S
C422 C424 1.419 . S
C423 C418 1.425 . S
C423 C420 1.409 . S
C423 C421 1.415 . S
C424 H414 0.930 . S
C424 C422 1.419 . S
C424 C425 1.362 . S
C425 H415 0.930 . S
C425 C418 1.409 . S
C425 C424 1.362 . S
H426 C432 0.930 1_565 S
H427 C435 0.930 . S
H428 C436 0.930 . S
H429 C437 0.930 . S
H430 C440 0.930 . S
H431 C441 0.930 . S
C432 H426 0.930 1_545 S
C432 C433 1.355 . S
C432 C434 1.415 . S
C433 C432 1.355 . S
C433 C435 1.419 . S
C434 C432 1.415 . S
C434 C439 1.425 . S
C434 C441 1.409 1_545 S
C435 H427 0.930 . S
C435 C433 1.419 . S
C435 C436 1.362 . S
C436 H428 0.930 . S
C436 C435 1.362 . S
C436 C439 1.409 . S
C437 H429 0.930 . S
C437 C438 1.355 . S
C437 C439 1.415 . S
C438 C437 1.355 . S
C438 C440 1.419 1_545 S
C439 C434 1.425 . S
C439 C436 1.409 . S
C439 C437 1.415 . S
C440 H430 0.930 . S
C440 C438 1.419 1_565 S
C440 C441 1.362 . S
C441 H431 0.930 . S
C441 C434 1.409 1_565 S
C441 C440 1.362 . S
H442 C448 0.930 . S
H443 C451 0.930 . S
H444 C452 0.930 . S
H445 C453 0.930 . S
H446 C456 0.930 . S
H447 C457 0.930 . S
C448 H442 0.930 . S
C448 C449 1.355 . S
C448 C450 1.415 . S
C449 C448 1.355 . S
C449 C451 1.419 . S
C450 C448 1.415 . S
C450 C455 1.425 . S
C450 C457 1.409 . S
C451 H443 0.930 . S
C451 C449 1.419 . S
C451 C452 1.362 . S
C452 H444 0.930 . S
C452 C451 1.362 . S
C452 C455 1.409 . S
C453 H445 0.930 . S
C453 C454 1.355 . S
C453 C455 1.415 1_554 S
C454 C453 1.355 . S
C454 C456 1.419 . S
C455 C450 1.425 . S
C455 C452 1.409 . S
C455 C453 1.415 1_556 S
C456 H446 0.930 . S
C456 C454 1.419 . S
C456 C457 1.362 1_554 S
C457 H447 0.930 . S
C457 C450 1.409 . S
C457 C456 1.362 1_556 S
H458 C464 0.930 . S
H459 C467 0.930 . S
H460 C468 0.930 . S
H461 C469 0.930 . S
H462 C472 0.930 . S
H463 C473 0.930 . S
C464 H458 0.930 . S
C464 C465 1.355 . S
C464 C466 1.415 . S
C465 C464 1.355 . S
C465 C467 1.419 1_455 S
C466 C464 1.415 . S
C466 C471 1.425 . S
C466 C473 1.409 . S
C467 H459 0.930 . S
C467 C465 1.419 1_655 S
C467 C468 1.362 . S
C468 H460 0.930 . S
C468 C467 1.362 . S
C468 C471 1.409 1_655 S
C469 H461 0.930 . S
C469 C470 1.355 1_655 S
C469 C471 1.415 1_655 S
C470 C469 1.355 1_455 S
C470 C472 1.419 . S
C471 C466 1.425 . S
C471 C468 1.409 1_455 S
C471 C469 1.415 1_455 S
C472 H462 0.930 . S
C472 C470 1.419 . S
C472 C473 1.362 . S
C473 H463 0.930 . S
C473 C466 1.409 . S
C473 C472 1.362 . S
C193 C10 3.169 . S
C198 C185 3.093 . S
C209 C55 1.288 . S
C214 C163 1.297 . S
C225 C90 1.962 . S
C230 C174 1.908 . S
C241 C19 2.959 . S
C246 C179 2.933 . S
C262 C157 1.178 . S
C257 C46 1.192 . S
C278 C168 1.886 . S
C273 C99 1.915 . S
C289 C50 1.945 . S
C294 C141 1.909 . S
C305 C95 0.526 . S
C310 C146 0.534 . S
C321 C6 1.192 . S
C326 C124 1.195 . S
C342 C135 1.878 . S
C337 C59 1.885 . S
C358 C152 0.560 . S
C353 C86 0.722 . S
C369 C15 1.350 . S
C374 C130 1.322 . S
C390 C147 1.209 . S
C385 C18 1.139 . S
C401 C49 1.495 . S
C406 C125 1.518 . S
C417 C98 1.422 . S
C422 C136 1.457 . S
C438 C169 1.472 . S
C433 C58 1.396 . S
C454 C180 1.776 . S
C449 C89 1.711 . S
C465 C9 1.531 . S
C470 C158 1.508 . S
