# Generated by pormake.
# Topology pyr, (3,6)-cn, num edge types: 1
# Building blocks:
#     Node 0, Type 0, BuildingBlock: MIDCAF_clean_linker_0, # of connection points: 3
#     Node 1, Type 0, BuildingBlock: MIDCAF_clean_linker_0, # of connection points: 3
#     Node 2, Type 0, BuildingBlock: MIDCAF_clean_linker_0, # of connection points: 3
#     Node 3, Type 0, BuildingBlock: MIDCAF_clean_linker_0, # of connection points: 3
#     Node 4, Type 0, BuildingBlock: MIDCAF_clean_linker_0, # of connection points: 3
#     Node 5, Type 0, BuildingBlock: MIDCAF_clean_linker_0, # of connection points: 3
#     Node 6, Type 0, BuildingBlock: MIDCAF_clean_linker_0, # of connection points: 3
#     Node 7, Type 0, BuildingBlock: MIDCAF_clean_linker_0, # of connection points: 3
#     Node 8, Type 1, BuildingBlock: LEVNOQ01_clean_sbu_1, # of connection points: 6
#     Node 9, Type 1, BuildingBlock: LEVNOQ01_clean_sbu_1, # of connection points: 6
#     Node 10, Type 1, BuildingBlock: LEVNOQ01_clean_sbu_1, # of connection points: 6
#     Node 11, Type 1, BuildingBlock: LEVNOQ01_clean_sbu_1, # of connection points: 6
#     Edge 12, Type (0, 1), BuildingBlock: AJUNOK_clean_linker_0, # of connection points: 2
#     Edge 13, Type (0, 1), BuildingBlock: AJUNOK_clean_linker_0, # of connection points: 2
#     Edge 14, Type (0, 1), BuildingBlock: AJUNOK_clean_linker_0, # of connection points: 2
#     Edge 15, Type (0, 1), BuildingBlock: AJUNOK_clean_linker_0, # of connection points: 2
#     Edge 16, Type (0, 1), BuildingBlock: AJUNOK_clean_linker_0, # of connection points: 2
#     Edge 17, Type (0, 1), BuildingBlock: AJUNOK_clean_linker_0, # of connection points: 2
#     Edge 18, Type (0, 1), BuildingBlock: AJUNOK_clean_linker_0, # of connection points: 2
#     Edge 19, Type (0, 1), BuildingBlock: AJUNOK_clean_linker_0, # of connection points: 2
#     Edge 20, Type (0, 1), BuildingBlock: AJUNOK_clean_linker_0, # of connection points: 2
#     Edge 21, Type (0, 1), BuildingBlock: AJUNOK_clean_linker_0, # of connection points: 2
#     Edge 22, Type (0, 1), BuildingBlock: AJUNOK_clean_linker_0, # of connection points: 2
#     Edge 23, Type (0, 1), BuildingBlock: AJUNOK_clean_linker_0, # of connection points: 2
#     Edge 24, Type (0, 1), BuildingBlock: AJUNOK_clean_linker_0, # of connection points: 2
#     Edge 25, Type (0, 1), BuildingBlock: AJUNOK_clean_linker_0, # of connection points: 2
#     Edge 26, Type (0, 1), BuildingBlock: AJUNOK_clean_linker_0, # of connection points: 2
#     Edge 27, Type (0, 1), BuildingBlock: AJUNOK_clean_linker_0, # of connection points: 2
#     Edge 28, Type (0, 1), BuildingBlock: AJUNOK_clean_linker_0, # of connection points: 2
#     Edge 29, Type (0, 1), BuildingBlock: AJUNOK_clean_linker_0, # of connection points: 2
#     Edge 30, Type (0, 1), BuildingBlock: AJUNOK_clean_linker_0, # of connection points: 2
#     Edge 31, Type (0, 1), BuildingBlock: AJUNOK_clean_linker_0, # of connection points: 2
#     Edge 32, Type (0, 1), BuildingBlock: AJUNOK_clean_linker_0, # of connection points: 2
#     Edge 33, Type (0, 1), BuildingBlock: AJUNOK_clean_linker_0, # of connection points: 2
#     Edge 34, Type (0, 1), BuildingBlock: AJUNOK_clean_linker_0, # of connection points: 2
#     Edge 35, Type (0, 1), BuildingBlock: AJUNOK_clean_linker_0, # of connection points: 2
# Relax obj value: 0.035
# Max RMSD: 0.110
# Mean RMSD: 0.047
data_MOF--net-pry--node1-LEVNOQ01_clean_sbu_1--node2-MIDCAF_clean_linker_0--edge1-AJUNOK_clean_linker_0
_symmetry_space_group_name_H-M    P1
_symmetry_Int_Tables_number       1
_symmetry_cell_setting            triclinic
loop_
_symmetry_equiv_pos_as_xyz
'x, y, z'
_cell_length_a     35.951032
_cell_length_b     34.570749
_cell_length_c     34.429646
_cell_angle_alpha  92.404722
_cell_angle_beta   91.283761
_cell_angle_gamma 93.534082
loop_
_atom_site_label
_atom_site_type_symbol
_atom_site_fract_x
_atom_site_fract_y
_atom_site_fract_z
_atom_type_partial_charge
C0 C 0.0941 0.14161 0.28204 0.0
C1 C 0.11729 0.1199 0.30496 0.0
C2 C 0.15421 0.11584 0.29368 0.0
C3 C 0.16683 0.13065 0.25886 0.0
H4 H 0.23921 0.10213 0.17546 0.0
H5 H 0.2937 0.07367 0.14834 0.0
H6 H 0.28067 0.13747 0.04441 0.0
H7 H 0.22575 0.1662 0.07132 0.0
H8 H 0.17417 0.23927 0.07717 0.0
H9 H 0.14882 0.2957 0.04845 0.0
H10 H 0.06311 0.29593 0.13411 0.0
H11 H 0.08813 0.23934 0.16301 0.0
H12 H 0.08794 0.17232 0.22965 0.0
H13 H 0.06547 0.14514 0.28994 0.0
H14 H 0.17306 0.10013 0.31122 0.0
H15 H 0.19511 0.12588 0.25051 0.0
N16 N 0.18434 0.14558 0.17908 0.0
N17 N 0.17937 0.18453 0.12539 0.0
N18 N 0.13878 0.19121 0.17749 0.0
C19 C 0.19626 0.15593 0.14362 0.0
C20 C 0.1506 0.20235 0.1421 0.0
C21 C 0.15568 0.16293 0.19623 0.0
C22 C 0.22809 0.13682 0.12577 0.0
C23 C 0.24754 0.10995 0.14665 0.0
C24 C 0.27879 0.09353 0.13114 0.0
C25 C 0.29126 0.10322 0.09425 0.0
C26 C 0.2713 0.12906 0.07271 0.0
C27 C 0.24005 0.14576 0.08833 0.0
C28 C 0.13348 0.23485 0.12275 0.0
C29 C 0.14973 0.25102 0.0898 0.0
C30 C 0.13533 0.28347 0.07336 0.0
C31 C 0.10427 0.30038 0.08933 0.0
C32 C 0.08707 0.2834 0.12121 0.0
C33 C 0.10159 0.2511 0.13786 0.0
C34 C 0.14307 0.15057 0.23482 0.0
C35 C 0.10691 0.15695 0.24738 0.0
C36 C 0.25592 0.96273 0.57704 0.0
C37 C 0.22883 0.93659 0.55897 0.0
C38 C 0.23857 0.89897 0.54805 0.0
C39 C 0.2743 0.88715 0.55713 0.0
H40 H 0.35034 0.79431 0.54945 0.0
H41 H 0.37693 0.73233 0.53274 0.0
H42 H 0.48323 0.77682 0.58205 0.0
H43 H 0.45668 0.83807 0.59976 0.0
H44 H 0.44556 0.88775 0.68373 0.0
H45 H 0.46556 0.91316 0.74848 0.0
H46 H 0.37789 0.99292 0.74764 0.0
H47 H 0.3574 0.96749 0.68302 0.0
H48 H 0.31097 0.97164 0.60138 0.0
H49 H 0.24929 0.99206 0.58531 0.0
H50 H 0.21806 0.87818 0.53435 0.0
H51 H 0.28065 0.85749 0.55003 0.0
N52 N 0.35184 0.86783 0.57706 0.0
N53 N 0.40006 0.87528 0.6246 0.0
N54 N 0.35253 0.91839 0.62484 0.0
C55 C 0.38421 0.85593 0.59255 0.0
C56 C 0.3843 0.90646 0.64105 0.0
C57 C 0.33619 0.89953 0.59288 0.0
C58 C 0.4012 0.82081 0.57667 0.0
C59 C 0.37954 0.79107 0.55612 0.0
C60 C 0.39477 0.75566 0.54639 0.0
C61 C 0.43192 0.74959 0.5568 0.0
C62 C 0.45427 0.78043 0.5745 0.0
C63 C 0.43902 0.81549 0.58464 0.0
C64 C 0.39953 0.92515 0.6782 0.0
C65 C 0.43076 0.91105 0.69699 0.0
C66 C 0.44238 0.92572 0.73405 0.0
C67 C 0.423 0.95471 0.75317 0.0
C68 C 0.39296 0.97017 0.73374 0.0
C69 C 0.38136 0.9556 0.69664 0.0
C70 C 0.30055 0.91275 0.5775 0.0
C71 C 0.29125 0.95096 0.58627 0.0
C72 C 0.64272 0.19694 0.87096 0.0
C73 C 0.60523 0.18933 0.85931 0.0
C74 C 0.58929 0.21298 0.83209 0.0
C75 C 0.60993 0.24505 0.81842 0.0
H76 H 0.625 0.32181 0.72701 0.0
H77 H 0.60242 0.35915 0.67423 0.0
H78 H 0.67939 0.45528 0.71058 0.0
H79 H 0.70167 0.41827 0.76429 0.0
H80 H 0.75244 0.41119 0.84274 0.0
H81 H 0.79846 0.43775 0.8915 0.0
H82 H 0.76338 0.34869 0.96937 0.0
H83 H 0.71789 0.32152 0.92059 0.0
H84 H 0.69134 0.23557 0.86899 0.0
H85 H 0.65546 0.17956 0.89245 0.0
H86 H 0.56029 0.20783 0.82301 0.0
H87 H 0.59641 0.26393 0.79894 0.0
N88 N 0.65806 0.31073 0.79181 0.0
N89 N 0.6987 0.36347 0.81341 0.0
N90 N 0.6899 0.30944 0.85178 0.0
C91 C 0.67466 0.34635 0.78575 0.0
C92 C 0.70632 0.34517 0.84663 0.0
C93 C 0.66588 0.292 0.82459 0.0
C94 C 0.66478 0.36718 0.75044 0.0
C95 C 0.63773 0.35062 0.7235 0.0
C96 C 0.62508 0.37186 0.69276 0.0
C97 C 0.63934 0.41007 0.68799 0.0
C98 C 0.66792 0.42586 0.71353 0.0
C99 C 0.68054 0.40465 0.7444 0.0
C100 C 0.73195 0.36372 0.87732 0.0
C101 C 0.75424 0.39743 0.87034 0.0
C102 C 0.78041 0.41285 0.8984 0.0
C103 C 0.78476 0.39497 0.93403 0.0
C104 C 0.76109 0.36261 0.94188 0.0
C105 C 0.73506 0.34707 0.91382 0.0
C106 C 0.64651 0.25436 0.83253 0.0
C107 C 0.66309 0.22927 0.85788 0.0
C108 C 0.76252 0.6075 0.4828 0.0
C109 C 0.73901 0.57835 0.46415 0.0
C110 C 0.75245 0.5557 0.43345 0.0
C111 C 0.78841 0.56346 0.42008 0.0
H112 H 0.86054 0.53908 0.32595 0.0
H113 H 0.87447 0.51694 0.25953 0.0
H114 H 0.93843 0.62459 0.24373 0.0
H115 H 0.92518 0.64662 0.3099 0.0
H116 H 0.95145 0.69747 0.38297 0.0
H117 H 0.98056 0.75852 0.40831 0.0
H118 H 0.93201 0.73965 0.52016 0.0
H119 H 0.90112 0.6788 0.49406 0.0
H120 H 0.81567 0.63888 0.4837 0.0
H121 H 0.75235 0.6255 0.50629 0.0
H122 H 0.7344 0.53332 0.41849 0.0
H123 H 0.79742 0.54651 0.39524 0.0
N124 N 0.85475 0.59295 0.38266 0.0
N125 N 0.90745 0.6363 0.38182 0.0
N126 N 0.87003 0.63511 0.43664 0.0
C127 C 0.88493 0.60767 0.36387 0.0
C128 C 0.90046 0.64991 0.41836 0.0
C129 C 0.84706 0.60658 0.41907 0.0
C130 C 0.89199 0.59449 0.32333 0.0
C131 C 0.87728 0.55816 0.30817 0.0
C132 C 0.88508 0.54552 0.2702 0.0
C133 C 0.90695 0.56936 0.24645 0.0
C134 C 0.92084 0.60601 0.26122 0.0
C135 C 0.91363 0.61836 0.29929 0.0
C136 C 0.92323 0.68355 0.43617 0.0
C137 C 0.9473 0.70586 0.41315 0.0
C138 C 0.96433 0.7409 0.42787 0.0
C139 C 0.95818 0.75441 0.46618 0.0
C140 C 0.93651 0.73062 0.49024 0.0
C141 C 0.91896 0.69566 0.47529 0.0
C142 C 0.81156 0.59407 0.43726 0.0
C143 C 0.79867 0.61512 0.46969 0.0
C144 C 0.72528 0.92387 0.89555 0.0
C145 C 0.72026 0.91881 0.93543 0.0
C146 C 0.74773 0.90072 0.95658 0.0
C147 C 0.77797 0.8854 0.93773 0.0
H148 H 0.84963 0.79451 0.9483 0.0
H149 H 0.87358 0.73565 0.97427 0.0
H150 H 0.91695 0.70552 0.86203 0.0
H151 H 0.89359 0.76404 0.83591 0.0
H152 H 0.88637 0.81887 0.76691 0.0
H153 H 0.90946 0.84053 0.70493 0.0
H154 H 0.85741 0.94881 0.7232 0.0
H155 H 0.83321 0.92682 0.7847 0.0
H156 H 0.75802 0.91218 0.84573 0.0
H157 H 0.7046 0.93757 0.87839 0.0
H158 H 0.74527 0.89738 0.98757 0.0
H159 H 0.79789 0.87041 0.95466 0.0
N160 N 0.82764 0.83831 0.89283 0.0
N161 N 0.86247 0.82901 0.83683 0.0
N162 N 0.82132 0.87899 0.84043 0.0
C163 C 0.85312 0.81828 0.87304 0.0
C164 C 0.84692 0.8594 0.82036 0.0
C165 C 0.81152 0.86864 0.87668 0.0
C166 C 0.86939 0.78398 0.88987 0.0
C167 C 0.86449 0.77551 0.92918 0.0
C168 C 0.87831 0.74198 0.94417 0.0
C169 C 0.89678 0.71609 0.92001 0.0
C170 C 0.90251 0.72496 0.88112 0.0
C171 C 0.88914 0.75857 0.86625 0.0
C172 C 0.85836 0.87133 0.78119 0.0
C173 C 0.87952 0.84719 0.75765 0.0
C174 C 0.89284 0.85959 0.72212 0.0
C175 C 0.88579 0.89663 0.70949 0.0
C176 C 0.86319 0.92004 0.73207 0.0
C177 C 0.84954 0.90751 0.76747 0.0
C178 C 0.78188 0.88856 0.89743 0.0
C179 C 0.75584 0.90909 0.87679 0.0
C180 C 0.60201 0.03789 0.27405 0.0
C181 C 0.57322 0.05375 0.253 0.0
C182 C 0.5549 0.08472 0.27006 0.0
C183 C 0.56622 0.10056 0.30686 0.0
H184 H 0.55095 0.19187 0.38541 0.0
H185 H 0.52965 0.25478 0.40666 0.0
H186 H 0.61819 0.26765 0.49373 0.0
H187 H 0.64004 0.20498 0.47244 0.0
H188 H 0.71397 0.15337 0.45687 0.0
H189 H 0.77668 0.13346 0.47272 0.0
H190 H 0.74787 0.02037 0.41868 0.0
H191 H 0.68593 0.04007 0.40239 0.0
H192 H 0.63623 0.0411 0.32564 0.0
H193 H 0.61657 0.01402 0.26154 0.0
H194 H 0.53303 0.09797 0.25417 0.0
H195 H 0.5524 0.12529 0.31855 0.0
N196 N 0.59678 0.13759 0.3794 0.0
N197 N 0.64458 0.14411 0.4274 0.0
N198 N 0.64278 0.09262 0.38081 0.0
C199 C 0.61294 0.15705 0.4113 0.0
C200 C 0.65946 0.11167 0.41243 0.0
C201 C 0.61155 0.10525 0.36402 0.0
C202 C 0.59763 0.19344 0.42677 0.0
C203 C 0.56576 0.2078 0.40935 0.0
C204 C 0.55331 0.24375 0.42168 0.0
C205 C 0.57249 0.26618 0.45156 0.0
C206 C 0.60321 0.25112 0.47026 0.0
C207 C 0.61566 0.21516 0.45801 0.0
C208 C 0.69514 0.09849 0.42785 0.0
C209 C 0.72083 0.12402 0.4491 0.0
C210 C 0.75666 0.11263 0.45829 0.0
C211 C 0.76715 0.0755 0.4466 0.0
C212 C 0.74066 0.04935 0.42757 0.0
C213 C 0.70516 0.06069 0.41824 0.0
C214 C 0.59616 0.08575 0.32729 0.0
C215 C 0.61323 0.05355 0.31081 0.0
C216 C 0.22205 0.60804 0.11479 0.0
C217 C 0.21621 0.62652 0.07974 0.0
C218 C 0.23849 0.66002 0.07222 0.0
C219 C 0.26439 0.6761 0.10019 0.0
H220 H 0.29514 0.79399 0.16945 0.0
H221 H 0.32228 0.85433 0.14479 0.0
H222 H 0.43257 0.81683 0.16929 0.0
H223 H 0.40513 0.75798 0.19647 0.0
H224 H 0.3871 0.69337 0.27744 0.0
H225 H 0.41081 0.65349 0.32796 0.0
H226 H 0.32135 0.5666 0.30179 0.0
H227 H 0.29805 0.60587 0.25038 0.0
H228 H 0.25108 0.6096 0.16985 0.0
H229 H 0.20511 0.58229 0.12151 0.0
H230 H 0.23512 0.67445 0.04516 0.0
H231 H 0.28042 0.70252 0.09379 0.0
N232 N 0.30803 0.71464 0.16344 0.0
N233 N 0.34309 0.71181 0.22144 0.0
N234 N 0.30472 0.65786 0.19829 0.0
C235 C 0.33218 0.73197 0.19059 0.0
C236 C 0.32896 0.67483 0.2258 0.0
C237 C 0.2944 0.67751 0.16681 0.0
C238 C 0.34815 0.7714 0.18444 0.0
C239 C 0.32515 0.79953 0.17091 0.0
C240 C 0.34072 0.834 0.15679 0.0
C241 C 0.37963 0.84041 0.15466 0.0
C242 C 0.40254 0.81347 0.17116 0.0
C243 C 0.38687 0.77946 0.1864 0.0
C244 C 0.34105 0.65255 0.25928 0.0
C245 C 0.37216 0.66598 0.28264 0.0
C246 C 0.38563 0.64326 0.31185 0.0
C247 C 0.36821 0.60671 0.3185 0.0
C248 C 0.3358 0.5943 0.29677 0.0
C249 C 0.32248 0.61685 0.26732 0.0
C250 C 0.26888 0.65876 0.13615 0.0
C251 C 0.24818 0.62391 0.14265 0.0
C252 C 0.06087 0.2836 0.52339 0.0
C253 C 0.03896 0.25945 0.54692 0.0
C254 C 0.03358 0.27187 0.58574 0.0
C255 C 0.05152 0.30608 0.60137 0.0
H256 H 0.0578 0.37612 0.6971 0.0
H257 H 0.04044 0.40056 0.76076 0.0
H258 H 0.1339 0.48505 0.76364 0.0
H259 H 0.1519 0.46059 0.69907 0.0
H260 H 0.202 0.46527 0.61862 0.0
H261 H 0.26423 0.4801 0.59367 0.0
H262 H 0.25076 0.38009 0.51437 0.0
H263 H 0.18836 0.36529 0.53853 0.0
H264 H 0.09743 0.33478 0.52088 0.0
H265 H 0.06475 0.27552 0.4931 0.0
H266 H 0.01725 0.25396 0.60497 0.0
H267 H 0.04792 0.31358 0.63186 0.0
N268 N 0.09177 0.37516 0.63358 0.0
N269 N 0.14626 0.41614 0.63484 0.0
N270 N 0.13092 0.37466 0.58024 0.0
C271 C 0.11485 0.40272 0.65251 0.0
C272 C 0.15444 0.40217 0.59864 0.0
C273 C 0.09941 0.36116 0.59741 0.0
C274 C 0.10602 0.4167 0.69248 0.0
C275 C 0.075 0.39976 0.71106 0.0
C276 C 0.06507 0.41359 0.7477 0.0
C277 C 0.08584 0.44462 0.76692 0.0
C278 C 0.11768 0.46085 0.74939 0.0
C279 C 0.12772 0.447 0.71238 0.0
C280 C 0.19028 0.41394 0.58082 0.0
C281 C 0.21199 0.44677 0.59544 0.0
C282 C 0.24744 0.45544 0.58104 0.0
C283 C 0.26195 0.43117 0.55219 0.0
C284 C 0.23993 0.3992 0.53656 0.0
C285 C 0.20427 0.39084 0.55048 0.0
C286 C 0.07582 0.32859 0.57879 0.0
C287 C 0.07942 0.31765 0.53927 0.0
O288 O 0.98005 0.00961 0.61147 0.0
Mg289 Mg 0.02232 0.04331 0.58635 0.0
O290 O 0.96737 0.97619 0.55589 0.0
Mg291 Mg -0.00189 0.00722 0.50419 0.0
O292 O 0.00638 0.06736 0.53591 0.0
O293 O 0.02091 0.10217 0.59095 0.0
O294 O 0.02993 0.03786 0.45258 0.0
O295 O 0.93949 0.02678 0.48436 0.0
Mg296 Mg 0.97493 0.97049 0.42178 0.0
O297 O 0.98928 0.94698 0.47287 0.0
O298 O 0.01997 0.00131 0.39848 0.0
O299 O 0.92442 -0.00209 0.42704 0.0
O300 O 0.97468 0.91137 0.41842 0.0
C301 C 0.08054 0.99483 0.5517 0.0
C302 C 0.96285 0.98174 0.59242 0.0
C303 C 0.01119 0.10076 0.55459 0.0
C304 C 0.03666 0.02995 0.41684 0.0
C305 C 0.91661 0.02018 0.45554 0.0
C306 C 0.98422 0.91332 0.45482 0.0
O307 O 0.07363 0.0179 0.57987 0.0
O308 O 0.05679 0.98749 0.52377 0.0
O309 O 0.46351 0.07846 0.05733 0.0
Mg310 Mg 0.51759 0.07482 0.03472 0.0
O311 O 0.44147 0.03108 0.01714 0.0
Mg312 Mg 0.49866 0.00543 0.00307 0.0
O313 O 0.52415 0.06359 0.97673 0.0
O314 O 0.53154 0.12298 0.00648 0.0
O315 O 0.55746 0.98055 0.98992 0.0
O316 O 0.47736 0.99597 0.93795 0.0
Mg317 Mg 0.4915 0.91973 0.97702 0.0
O318 O 0.47084 0.94776 0.02458 0.0
O319 O 0.54936 0.91699 0.97977 0.0
O320 O 0.46652 0.93308 0.92418 0.0
O321 O 0.46149 0.8838 0.01088 0.0
C322 C 0.54511 0.03175 0.08799 0.0
C323 C 0.43599 0.05818 0.04225 0.0
C324 C 0.53326 0.10061 0.97574 0.0
C325 C 0.57076 0.94739 0.9838 0.0
C326 C 0.46593 0.96791 0.91454 0.0
C327 C 0.45669 0.91379 0.03339 0.0
O328 O 0.56077 0.06013 0.07181 0.0
O329 O 0.51827 0.01221 0.06998 0.0
O330 O 0.46694 0.57227 0.58044 0.0
Mg331 Mg 0.47506 0.51341 0.58492 0.0
O332 O 0.48562 0.5717 0.51983 0.0
Mg333 Mg 0.49987 0.50677 0.50524 0.0
O334 O 0.52524 0.49528 0.56746 0.0
O335 O 0.50866 0.50266 0.62984 0.0
O336 O 0.51419 0.44208 0.49167 0.0
O337 O 0.56229 0.53114 0.49643 0.0
Mg338 Mg 0.52576 0.49988 0.42747 0.0
O339 O 0.47454 0.51766 0.4427 0.0
O340 O 0.53908 0.44231 0.43373 0.0
O341 O 0.56905 0.54225 0.43448 0.0
O342 O 0.49261 0.50677 0.38114 0.0
C343 C 0.41802 0.46937 0.54158 0.0
C344 C 0.47392 0.58991 0.54978 0.0
C345 C 0.53251 0.49243 0.60452 0.0
C346 C 0.53015 0.42471 0.46385 0.0
C347 C 0.58143 0.5455 0.46908 0.0
C348 C 0.46831 0.51857 0.40523 0.0
O349 O 0.42975 0.47335 0.57638 0.0
O350 O 0.43769 0.48262 0.51413 0.0
O351 O 0.06408 0.47749 0.0613 0.0
Mg352 Mg 0.03187 0.52766 0.06455 0.0
O353 O 0.01867 0.44968 0.0251 0.0
Mg354 Mg -0.00059 0.5098 0.00796 0.0
O355 O 0.97632 0.52417 0.07276 0.0
O356 O 0.01971 0.53241 0.12103 0.0
O357 O 0.97995 0.56957 0.99051 0.0
O358 O 0.93468 0.48451 0.01211 0.0
Mg359 Mg 0.97031 0.48898 0.95866 0.0
O360 O 0.02323 0.49517 0.94184 0.0
O361 O 0.93616 0.53778 0.95564 0.0
O362 O 0.94866 0.43449 0.97772 0.0
O363 O 0.97491 0.4773 0.90166 0.0
C364 C 0.07408 0.56913 0.0223 0.0
C365 C 0.04857 0.44704 0.04496 0.0
C366 C 0.98532 0.52942 0.10957 0.0
C367 C 0.95045 0.56989 0.96951 0.0
C368 C 0.92561 0.45019 0.9992 0.0
C369 C 0.01005 0.48522 0.90703 0.0
O370 O 0.05413 0.58231 0.04858 0.0
O371 O 0.06333 0.53645 0.00606 0.0
C372 C 0.07967 0.11619 0.36593 0.0
C373 C 0.10179 0.09813 0.338 0.0
C374 C 0.06094 0.09457 0.39416 0.0
C375 C 0.06338 0.05417 0.39489 0.0
H376 H 0.07587 0.14699 0.36515 0.0
H377 H 0.04264 0.1091 0.41378 0.0
S378 S 0.11953 0.99342 0.33039 0.0
N379 N 0.12641 0.03765 0.31462 0.0
N380 N 0.09165 -0.00252 0.36757 0.0
C381 C 0.08695 0.03625 0.36859 0.0
C382 C 0.10602 0.05808 0.34014 0.0
C383 C 0.4697 0.9757 0.80629 0.0
C384 C 0.43241 0.96608 0.79445 0.0
C385 C 0.48005 0.98012 0.84585 0.0
C386 C 0.45346 0.97479 0.87471 0.0
H387 H 0.49123 0.97817 0.78484 0.0
H388 H 0.50932 0.98517 0.85391 0.0
S389 S 0.3522 0.95166 0.85942 0.0
N390 N 0.36865 0.95354 0.81508 0.0
N391 N 0.38843 0.96147 0.88933 0.0
C392 C 0.41598 0.96715 0.8634 0.0
C393 C 0.40533 0.96298 0.82323 0.0
C394 C 0.60764 0.47056 0.67621 0.0
C395 C 0.61986 0.43522 0.66122 0.0
C396 C 0.58166 0.49073 0.65568 0.0
C397 C 0.56704 0.47658 0.61923 0.0
H398 H 0.61591 0.48127 0.70535 0.0
H399 H 0.57117 0.51642 0.66962 0.0
S400 S 0.59498 0.38921 0.56405 0.0
N401 N 0.61938 0.3897 0.60534 0.0
N402 N 0.5702 0.42791 0.56663 0.0
C403 C 0.58162 0.44337 0.60214 0.0
C404 C 0.60802 0.42252 0.62326 0.0
C405 C 0.93999 0.52155 0.20621 0.0
C406 C 0.91919 0.55465 0.20809 0.0
C407 C 0.95899 0.51158 0.17254 0.0
C408 C 0.95707 0.53378 0.13936 0.0
H409 H 0.94384 0.50491 0.23181 0.0
H410 H 0.97702 0.4876 0.17318 0.0
S411 S 0.90285 0.62034 0.12787 0.0
N412 N 0.89522 0.60773 0.17293 0.0
N413 N 0.93038 0.58823 0.10916 0.0
C414 C 0.93407 0.56509 0.13976 0.0
C415 C 0.91528 0.57576 0.17434 0.0
C416 C 0.35915 0.09539 0.10439 0.0
C417 C 0.32709 0.08931 0.08029 0.0
C418 C 0.39388 0.0845 0.09186 0.0
C419 C 0.39804 0.06662 0.05484 0.0
H420 H 0.35756 0.10957 0.13292 0.0
H421 H 0.41778 0.09038 0.11143 0.0
S422 S 0.3223 0.04237 0.98129 0.0
N423 N 0.30124 0.06316 0.01812 0.0
N424 N 0.36674 0.04212 0.9946 0.0
C425 C 0.36603 0.05933 0.03075 0.0
C426 C 0.33055 0.07096 0.0434 0.0
C427 C 0.17351 0.964 0.58903 0.0
C428 C 0.18981 0.94805 0.55581 0.0
C429 C 0.13798 0.97803 0.58727 0.0
C430 C 0.11696 0.97672 0.55219 0.0
H431 H 0.1886 0.96605 0.61672 0.0
H432 H 0.12712 0.9904 0.61381 0.0
S433 S 0.14652 0.93635 0.45692 0.0
N434 N 0.18211 0.93052 0.48689 0.0
N435 N 0.11476 0.95684 0.48342 0.0
C436 C 0.13239 0.95964 0.51883 0.0
C437 C 0.16891 0.94529 0.52069 0.0
C438 C 0.82434 0.44741 0.97042 0.0
C439 C 0.81662 0.40774 0.96069 0.0
C440 C 0.85853 0.46088 0.98809 0.0
C441 C 0.88631 0.43513 0.99595 0.0
H442 H 0.80474 0.46839 0.96222 0.0
H443 H 0.86449 0.49192 0.99207 0.0
S444 S 0.87789 0.32814 0.98139 0.0
N445 N 0.8379 0.34251 0.96452 0.0
N446 N 0.90212 0.36797 0.99741 0.0
C447 C 0.87756 0.39518 0.98972 0.0
C448 C 0.84272 0.38143 0.97207 0.0
C449 C 0.6838 0.54647 0.49578 0.0
C450 C 0.6989 0.57532 0.47213 0.0
C451 C 0.64499 0.5393 0.49785 0.0
C452 C 0.62048 0.5603 0.47566 0.0
H453 H 0.70206 0.52826 0.51123 0.0
H454 H 0.6343 0.51533 0.51452 0.0
S455 S 0.64668 0.641 0.4121 0.0
N456 N 0.68686 0.62688 0.42879 0.0
N457 N 0.61408 0.61299 0.43192 0.0
C458 C 0.63544 0.59059 0.45371 0.0
C459 C 0.6747 0.59817 0.45207 0.0
C460 C 0.05326 0.33993 0.06414 0.0
C461 C 0.09108 0.337 0.07439 0.0
C462 C 0.03994 0.37521 0.05267 0.0
C463 C 0.06385 0.40897 0.05184 0.0
H464 H 0.03377 0.31487 0.06547 0.0
H465 H 0.01045 0.37638 0.04594 0.0
S466 S 0.16553 0.41624 0.07459 0.0
N467 N 0.15242 0.37051 0.08167 0.0
N468 N 0.12747 0.43671 0.06054 0.0
C469 C 0.10188 0.4061 0.06108 0.0
C470 C 0.11548 0.37016 0.07224 0.0
C471 C 0.55213 0.17671 0.90262 0.0
C472 C 0.58153 0.16205 0.88147 0.0
C473 C 0.53495 0.15529 0.93152 0.0
C474 C 0.54605 0.11818 0.93979 0.0
H475 H 0.54421 0.20609 0.89887 0.0
H476 H 0.51401 0.16865 0.94881 0.0
S477 S 0.61814 0.06466 0.88902 0.0
N478 N 0.61871 0.10686 0.8681 0.0
N479 N 0.58549 0.06599 0.92201 0.0
C480 C 0.57321 0.10181 0.9167 0.0
C481 C 0.59127 0.12398 0.88767 0.0
C482 C 0.00518 0.81093 0.46598 0.0
C483 C 0.97048 0.79521 0.47815 0.0
C484 C 0.01221 0.85108 0.4638 0.0
C485 C 0.98524 0.87678 0.47477 0.0
H486 H 0.02561 0.79203 0.45448 0.0
H487 H 0.03729 0.86179 0.44982 0.0
S488 S 0.89348 0.85153 0.51649 0.0
N489 N 0.91117 0.8093 0.50689 0.0
N490 N 0.92546 0.88479 0.50411 0.0
C491 C 0.95279 0.86194 0.49204 0.0
C492 C 0.94515 0.82103 0.49355 0.0
C493 C 0.44258 0.68742 0.51868 0.0
C494 C 0.446 0.71008 0.55373 0.0
C495 C 0.45361 0.649 0.51669 0.0
C496 C 0.4677 0.63188 0.54988 0.0
H497 H 0.43087 0.69932 0.49284 0.0
H498 H 0.44959 0.63215 0.48953 0.0
S499 S 0.48309 0.67924 0.64824 0.0
N500 N 0.46518 0.71268 0.62199 0.0
N501 N 0.48607 0.64115 0.61824 0.0
C502 C 0.47214 0.65468 0.58471 0.0
C503 C 0.4612 0.69357 0.58666 0.0
C504 C 0.88483 0.93258 0.64725 0.0
C505 C 0.90471 0.91244 0.67497 0.0
C506 C 0.90338 0.95248 0.61776 0.0
C507 C 0.9423 0.95279 0.61516 0.0
H508 H 0.85494 0.93415 0.64928 0.0
H509 H 0.8875 0.96954 0.59843 0.0
S510 S 0.00719 0.90419 0.67935 0.0
N511 N 0.96559 0.89361 0.69685 0.0
N512 N -2e-05 0.93057 0.64135 0.0
C513 C 0.96222 0.93146 0.64143 0.0
C514 C 0.94354 0.91132 0.67134 0.0
C515 C 0.59505 0.04154 0.18559 0.0
C516 C 0.56548 0.04118 0.2117 0.0
C517 C 0.58838 0.03566 0.14549 0.0
C518 C 0.55198 0.02846 0.13008 0.0
H519 H 0.62342 0.04863 0.19599 0.0
H520 H 0.61173 0.03847 0.12623 0.0
S521 S 0.46515 0.0215 0.18623 0.0
N522 N 0.49866 0.03065 0.21958 0.0
N523 N 0.48609 0.01934 0.14405 0.0
C524 C 0.52232 0.02576 0.15598 0.0
C525 C 0.52908 0.03229 0.19684 0.0
C526 C 0.40065 0.59377 0.38173 0.0
C527 C 0.38655 0.58019 0.34477 0.0
C528 C 0.42438 0.5717 0.4036 0.0
C529 C 0.43512 0.53566 0.38886 0.0
H530 H 0.39476 0.62244 0.39295 0.0
H531 H 0.43666 0.58425 0.43063 0.0
S532 S 0.40272 0.48509 0.29602 0.0
N533 N 0.3826 0.52674 0.29627 0.0
N534 N 0.42691 0.48549 0.33737 0.0
C535 C 0.41901 0.52055 0.35344 0.0
C536 C 0.39478 0.54277 0.33135 0.0
C537 C 0.03507 0.47509 0.80171 0.0
C538 C 0.07114 0.46185 0.80308 0.0
C539 C 0.01686 0.48503 0.83568 0.0
C540 C 0.03383 0.48198 0.87261 0.0
H541 H 0.02016 0.4762 0.77411 0.0
H542 H 0.98849 0.49366 0.8329 0.0
S543 S 0.12989 0.45308 0.89173 0.0
N544 N 0.12482 0.44951 0.84383 0.0
N545 N 0.09028 0.46825 0.90834 0.0
C546 C 0.07097 0.47146 0.8744 0.0
C547 C 0.0897 0.4613 0.83944 0.0
C548 C 0.66879 0.96419 0.94651 0.0
C549 C 0.68464 0.92875 0.95363 0.0
C550 C 0.63277 0.97154 0.95894 0.0
C551 C 0.61118 0.94348 0.97841 0.0
H552 H 0.68389 0.9859 0.93017 0.0
H553 H 0.621 -0.00163 0.95132 0.0
S554 S 0.64074 0.84751 0.00716 0.0
N555 N 0.67646 0.86639 0.98359 0.0
N556 N 0.60941 0.88044 0.00727 0.0
C557 C 0.62751 0.90894 0.98759 0.0
C558 C 0.66404 0.9015 0.97512 0.0
C559 C 0.82347 0.04959 0.4171 0.0
C560 C 0.80637 0.0647 0.45022 0.0
C561 C 0.85935 0.03643 0.41922 0.0
C562 C 0.87991 0.03776 0.45461 0.0
H563 H 0.80879 0.04755 0.38918 0.0
H564 H 0.87081 0.02463 0.39274 0.0
S565 S 0.8482 0.07626 0.54975 0.0
N566 N 0.81283 0.08157 0.51935 0.0
N567 N 0.88078 0.05685 0.52354 0.0
C568 C 0.86365 0.05404 0.48788 0.0
C569 C 0.8268 0.06753 0.48563 0.0
C570 C 0.17653 0.57347 0.04417 0.0
C571 C 0.18392 0.61326 0.05379 0.0
C572 C 0.14175 0.55934 0.02828 0.0
C573 C 0.11318 0.58457 0.02205 0.0
H574 H 0.19684 0.55286 0.0514 0.0
H575 H 0.13604 0.52823 0.02471 0.0
S576 S 0.12008 0.69152 0.0366 0.0
N577 N 0.16115 0.67799 0.05125 0.0
N578 N 0.09596 0.65126 0.02165 0.0
C579 C 0.12149 0.62461 0.02782 0.0
C580 C 0.15684 0.63904 0.0437 0.0
C581 C 0.31463 0.4714 0.52509 0.0
C582 C 0.30145 0.43696 0.54185 0.0
C583 C 0.353 0.47999 0.52112 0.0
C584 C 0.37914 0.45476 0.53466 0.0
H585 H 0.29526 0.49249 0.51657 0.0
H586 H 0.36231 0.50781 0.5102 0.0
S587 S 0.35863 0.36001 0.5784 0.0
N588 N 0.31722 0.37639 0.56948 0.0
N589 N 0.38935 0.39324 0.56328 0.0
C590 C 0.36619 0.41949 0.5497 0.0
C591 C 0.32726 0.41039 0.55299 0.0
C592 C 0.93477 0.67785 0.96511 0.0
C593 C 0.90843 0.67875 0.9344 0.0
C594 C 0.94781 0.64251 0.9769 0.0
C595 C 0.93449 0.60684 0.95877 0.0
H596 H 0.94611 0.70469 0.97934 0.0
H597 H 0.96879 0.64323 1.00004 0.0
S598 S 0.86305 0.59403 0.87863 0.0
N599 N 0.86811 0.64137 0.88739 0.0
N600 N 0.89185 0.57508 0.90951 0.0
C601 C 0.90709 0.60756 0.92885 0.0
C602 C 0.89428 0.64347 0.91667 0.0
C603 C 0.37903 0.87152 0.09077 0.0
C604 C 0.39565 0.86962 0.12805 0.0
C605 C 0.39772 0.8902 0.06105 0.0
C606 C 0.43354 0.908 0.06743 0.0
H607 H 0.35283 0.85553 0.08326 0.0
H608 H 0.38528 0.88796 0.032 0.0
S609 S 0.48695 0.91734 0.16083 0.0
N610 N 0.44804 0.89215 0.17093 0.0
N611 N 0.48343 0.92683 0.11428 0.0
C612 C 0.44914 0.90973 0.10518 0.0
C613 C 0.43012 0.89056 0.1357 0.0
C614 C 0.99107 0.20368 0.54658 0.0
C615 C 0.02561 0.21923 0.53378 0.0
C616 C 0.98357 0.16352 0.54792 0.0
C617 C 0.00981 0.13765 0.53534 0.0
H618 H 0.97128 0.22261 0.55932 0.0
H619 H 0.95885 0.15283 0.56254 0.0
S620 S 0.10024 0.16261 0.49068 0.0
N621 N 0.08358 0.20492 0.50226 0.0
N622 N 0.06827 0.12947 0.50335 0.0
C623 C 0.04177 0.15246 0.51717 0.0
C624 C 0.04996 0.19338 0.51659 0.0
C625 C 0.52548 0.31512 0.46763 0.0
C626 C 0.56262 0.30666 0.4603 0.0
C627 C 0.51516 0.35369 0.4714 0.0
C628 C 0.54157 0.38478 0.46711 0.0
H629 H 0.50417 0.29177 0.46953 0.0
H630 H 0.48616 0.35915 0.4757 0.0
S631 S 0.64241 0.37848 0.44985 0.0
N632 N 0.62595 0.33288 0.45085 0.0
N633 N 0.60638 0.40499 0.45727 0.0
C634 C 0.57884 0.37674 0.46109 0.0
C635 C 0.58944 0.33776 0.4579 0.0
loop_
_geom_bond_atom_site_label_1
_geom_bond_atom_site_label_2
_geom_bond_distance
_geom_bond_site_symmetry_2
_ccdc_geom_bond_type
C0 C1 1.384 . S
C0 H13 0.947 . S
C0 C35 1.382 . S
C1 C0 1.384 . S
C1 C2 1.378 . S
C2 C1 1.378 . S
C2 C3 1.378 . S
C2 H14 0.952 . S
C3 C2 1.378 . S
C3 H15 0.950 . S
C3 C34 1.383 . S
H4 C23 0.947 . S
H5 C24 0.946 . S
H6 C26 0.953 . S
H7 C27 0.945 . S
H8 C29 0.952 . S
H9 C30 0.949 . S
H10 C32 0.950 . S
H11 C33 0.948 . S
H12 C35 0.951 . S
H13 C0 0.947 . S
H14 C2 0.952 . S
H15 C3 0.950 . S
N16 C19 1.382 . S
N16 C21 1.363 . S
N17 C19 1.371 . S
N17 C20 1.372 . S
N18 C20 1.361 . S
N18 C21 1.377 . S
C19 N16 1.382 . S
C19 N17 1.371 . S
C19 C22 1.480 . S
C20 N17 1.372 . S
C20 N18 1.361 . S
C20 C28 1.457 . S
C21 N16 1.363 . S
C21 N18 1.377 . S
C21 C34 1.479 . S
C22 C19 1.480 . S
C22 C23 1.383 . S
C22 C27 1.385 . S
C23 H4 0.947 . S
C23 C22 1.383 . S
C23 C24 1.388 . S
C24 H5 0.946 . S
C24 C23 1.388 . S
C24 C25 1.384 . S
C25 C24 1.384 . S
C25 C26 1.377 . S
C26 H6 0.953 . S
C26 C25 1.377 . S
C26 C27 1.369 . S
C27 H7 0.945 . S
C27 C22 1.385 . S
C27 C26 1.369 . S
C28 C20 1.457 . S
C28 C29 1.372 . S
C28 C33 1.364 . S
C29 H8 0.952 . S
C29 C28 1.372 . S
C29 C30 1.389 . S
C30 H9 0.949 . S
C30 C29 1.389 . S
C30 C31 1.387 . S
C31 C30 1.387 . S
C31 C32 1.372 . S
C32 H10 0.950 . S
C32 C31 1.372 . S
C32 C33 1.379 . S
C33 H11 0.948 . S
C33 C28 1.364 . S
C33 C32 1.379 . S
C34 C3 1.383 . S
C34 C21 1.479 . S
C34 C35 1.398 . S
C35 C0 1.382 . S
C35 H12 0.951 . S
C35 C34 1.398 . S
C36 C37 1.384 . S
C36 H49 0.947 . S
C36 C71 1.382 . S
C37 C36 1.384 . S
C37 C38 1.378 . S
C38 C37 1.378 . S
C38 C39 1.378 . S
C38 H50 0.952 . S
C39 C38 1.378 . S
C39 H51 0.950 . S
C39 C70 1.383 . S
H40 C59 0.947 . S
H41 C60 0.946 . S
H42 C62 0.953 . S
H43 C63 0.945 . S
H44 C65 0.952 . S
H45 C66 0.949 . S
H46 C68 0.950 . S
H47 C69 0.948 . S
H48 C71 0.951 . S
H49 C36 0.947 . S
H50 C38 0.952 . S
H51 C39 0.950 . S
N52 C55 1.382 . S
N52 C57 1.363 . S
N53 C55 1.371 . S
N53 C56 1.372 . S
N54 C56 1.361 . S
N54 C57 1.377 . S
C55 N52 1.382 . S
C55 N53 1.371 . S
C55 C58 1.480 . S
C56 N53 1.372 . S
C56 N54 1.361 . S
C56 C64 1.457 . S
C57 N52 1.363 . S
C57 N54 1.377 . S
C57 C70 1.479 . S
C58 C55 1.480 . S
C58 C59 1.383 . S
C58 C63 1.385 . S
C59 H40 0.947 . S
C59 C58 1.383 . S
C59 C60 1.388 . S
C60 H41 0.946 . S
C60 C59 1.388 . S
C60 C61 1.384 . S
C61 C60 1.384 . S
C61 C62 1.377 . S
C62 H42 0.953 . S
C62 C61 1.377 . S
C62 C63 1.369 . S
C63 H43 0.945 . S
C63 C58 1.385 . S
C63 C62 1.369 . S
C64 C56 1.457 . S
C64 C65 1.372 . S
C64 C69 1.364 . S
C65 H44 0.952 . S
C65 C64 1.372 . S
C65 C66 1.389 . S
C66 H45 0.949 . S
C66 C65 1.389 . S
C66 C67 1.387 . S
C67 C66 1.387 . S
C67 C68 1.372 . S
C68 H46 0.950 . S
C68 C67 1.372 . S
C68 C69 1.379 . S
C69 H47 0.948 . S
C69 C64 1.364 . S
C69 C68 1.379 . S
C70 C39 1.383 . S
C70 C57 1.479 . S
C70 C71 1.398 . S
C71 C36 1.382 . S
C71 H48 0.951 . S
C71 C70 1.398 . S
C72 C73 1.384 . S
C72 H85 0.947 . S
C72 C107 1.382 . S
C73 C72 1.384 . S
C73 C74 1.378 . S
C74 C73 1.378 . S
C74 C75 1.378 . S
C74 H86 0.952 . S
C75 C74 1.378 . S
C75 H87 0.950 . S
C75 C106 1.383 . S
H76 C95 0.947 . S
H77 C96 0.946 . S
H78 C98 0.953 . S
H79 C99 0.945 . S
H80 C101 0.952 . S
H81 C102 0.949 . S
H82 C104 0.950 . S
H83 C105 0.948 . S
H84 C107 0.951 . S
H85 C72 0.947 . S
H86 C74 0.952 . S
H87 C75 0.950 . S
N88 C91 1.382 . S
N88 C93 1.363 . S
N89 C91 1.371 . S
N89 C92 1.372 . S
N90 C92 1.361 . S
N90 C93 1.377 . S
C91 N88 1.382 . S
C91 N89 1.371 . S
C91 C94 1.480 . S
C92 N89 1.372 . S
C92 N90 1.361 . S
C92 C100 1.457 . S
C93 N88 1.363 . S
C93 N90 1.377 . S
C93 C106 1.479 . S
C94 C91 1.480 . S
C94 C95 1.383 . S
C94 C99 1.385 . S
C95 H76 0.947 . S
C95 C94 1.383 . S
C95 C96 1.388 . S
C96 H77 0.946 . S
C96 C95 1.388 . S
C96 C97 1.384 . S
C97 C96 1.384 . S
C97 C98 1.377 . S
C98 H78 0.953 . S
C98 C97 1.377 . S
C98 C99 1.369 . S
C99 H79 0.945 . S
C99 C94 1.385 . S
C99 C98 1.369 . S
C100 C92 1.457 . S
C100 C101 1.372 . S
C100 C105 1.364 . S
C101 H80 0.952 . S
C101 C100 1.372 . S
C101 C102 1.389 . S
C102 H81 0.949 . S
C102 C101 1.389 . S
C102 C103 1.387 . S
C103 C102 1.387 . S
C103 C104 1.372 . S
C104 H82 0.950 . S
C104 C103 1.372 . S
C104 C105 1.379 . S
C105 H83 0.948 . S
C105 C100 1.364 . S
C105 C104 1.379 . S
C106 C75 1.383 . S
C106 C93 1.479 . S
C106 C107 1.398 . S
C107 C72 1.382 . S
C107 H84 0.951 . S
C107 C106 1.398 . S
C108 C109 1.384 . S
C108 H121 0.947 . S
C108 C143 1.382 . S
C109 C108 1.384 . S
C109 C110 1.378 . S
C110 C109 1.378 . S
C110 C111 1.378 . S
C110 H122 0.952 . S
C111 C110 1.378 . S
C111 H123 0.950 . S
C111 C142 1.383 . S
H112 C131 0.947 . S
H113 C132 0.946 . S
H114 C134 0.953 . S
H115 C135 0.945 . S
H116 C137 0.952 . S
H117 C138 0.949 . S
H118 C140 0.950 . S
H119 C141 0.948 . S
H120 C143 0.951 . S
H121 C108 0.947 . S
H122 C110 0.952 . S
H123 C111 0.950 . S
N124 C127 1.382 . S
N124 C129 1.363 . S
N125 C127 1.371 . S
N125 C128 1.372 . S
N126 C128 1.361 . S
N126 C129 1.377 . S
C127 N124 1.382 . S
C127 N125 1.371 . S
C127 C130 1.480 . S
C128 N125 1.372 . S
C128 N126 1.361 . S
C128 C136 1.457 . S
C129 N124 1.363 . S
C129 N126 1.377 . S
C129 C142 1.479 . S
C130 C127 1.480 . S
C130 C131 1.383 . S
C130 C135 1.385 . S
C131 H112 0.947 . S
C131 C130 1.383 . S
C131 C132 1.388 . S
C132 H113 0.946 . S
C132 C131 1.388 . S
C132 C133 1.384 . S
C133 C132 1.384 . S
C133 C134 1.377 . S
C134 H114 0.953 . S
C134 C133 1.377 . S
C134 C135 1.369 . S
C135 H115 0.945 . S
C135 C130 1.385 . S
C135 C134 1.369 . S
C136 C128 1.457 . S
C136 C137 1.372 . S
C136 C141 1.364 . S
C137 H116 0.952 . S
C137 C136 1.372 . S
C137 C138 1.389 . S
C138 H117 0.949 . S
C138 C137 1.389 . S
C138 C139 1.387 . S
C139 C138 1.387 . S
C139 C140 1.372 . S
C140 H118 0.950 . S
C140 C139 1.372 . S
C140 C141 1.379 . S
C141 H119 0.948 . S
C141 C136 1.364 . S
C141 C140 1.379 . S
C142 C111 1.383 . S
C142 C129 1.479 . S
C142 C143 1.398 . S
C143 C108 1.382 . S
C143 H120 0.951 . S
C143 C142 1.398 . S
C144 C145 1.384 . S
C144 H157 0.947 . S
C144 C179 1.382 . S
C145 C144 1.384 . S
C145 C146 1.378 . S
C146 C145 1.378 . S
C146 C147 1.378 . S
C146 H158 0.952 . S
C147 C146 1.378 . S
C147 H159 0.950 . S
C147 C178 1.383 . S
H148 C167 0.947 . S
H149 C168 0.946 . S
H150 C170 0.953 . S
H151 C171 0.945 . S
H152 C173 0.952 . S
H153 C174 0.949 . S
H154 C176 0.950 . S
H155 C177 0.948 . S
H156 C179 0.951 . S
H157 C144 0.947 . S
H158 C146 0.952 . S
H159 C147 0.950 . S
N160 C163 1.382 . S
N160 C165 1.363 . S
N161 C163 1.371 . S
N161 C164 1.372 . S
N162 C164 1.361 . S
N162 C165 1.377 . S
C163 N160 1.382 . S
C163 N161 1.371 . S
C163 C166 1.480 . S
C164 N161 1.372 . S
C164 N162 1.361 . S
C164 C172 1.457 . S
C165 N160 1.363 . S
C165 N162 1.377 . S
C165 C178 1.479 . S
C166 C163 1.480 . S
C166 C167 1.383 . S
C166 C171 1.385 . S
C167 H148 0.947 . S
C167 C166 1.383 . S
C167 C168 1.388 . S
C168 H149 0.946 . S
C168 C167 1.388 . S
C168 C169 1.384 . S
C169 C168 1.384 . S
C169 C170 1.377 . S
C170 H150 0.953 . S
C170 C169 1.377 . S
C170 C171 1.369 . S
C171 H151 0.945 . S
C171 C166 1.385 . S
C171 C170 1.369 . S
C172 C164 1.457 . S
C172 C173 1.372 . S
C172 C177 1.364 . S
C173 H152 0.952 . S
C173 C172 1.372 . S
C173 C174 1.389 . S
C174 H153 0.949 . S
C174 C173 1.389 . S
C174 C175 1.387 . S
C175 C174 1.387 . S
C175 C176 1.372 . S
C176 H154 0.950 . S
C176 C175 1.372 . S
C176 C177 1.379 . S
C177 H155 0.948 . S
C177 C172 1.364 . S
C177 C176 1.379 . S
C178 C147 1.383 . S
C178 C165 1.479 . S
C178 C179 1.398 . S
C179 C144 1.382 . S
C179 H156 0.951 . S
C179 C178 1.398 . S
C180 C181 1.384 . S
C180 H193 0.947 . S
C180 C215 1.382 . S
C181 C180 1.384 . S
C181 C182 1.378 . S
C182 C181 1.378 . S
C182 C183 1.378 . S
C182 H194 0.952 . S
C183 C182 1.378 . S
C183 H195 0.950 . S
C183 C214 1.383 . S
H184 C203 0.947 . S
H185 C204 0.946 . S
H186 C206 0.953 . S
H187 C207 0.945 . S
H188 C209 0.952 . S
H189 C210 0.949 . S
H190 C212 0.950 . S
H191 C213 0.948 . S
H192 C215 0.951 . S
H193 C180 0.947 . S
H194 C182 0.952 . S
H195 C183 0.950 . S
N196 C199 1.382 . S
N196 C201 1.363 . S
N197 C199 1.371 . S
N197 C200 1.372 . S
N198 C200 1.361 . S
N198 C201 1.377 . S
C199 N196 1.382 . S
C199 N197 1.371 . S
C199 C202 1.480 . S
C200 N197 1.372 . S
C200 N198 1.361 . S
C200 C208 1.457 . S
C201 N196 1.363 . S
C201 N198 1.377 . S
C201 C214 1.479 . S
C202 C199 1.480 . S
C202 C203 1.383 . S
C202 C207 1.385 . S
C203 H184 0.947 . S
C203 C202 1.383 . S
C203 C204 1.388 . S
C204 H185 0.946 . S
C204 C203 1.388 . S
C204 C205 1.384 . S
C205 C204 1.384 . S
C205 C206 1.377 . S
C206 H186 0.953 . S
C206 C205 1.377 . S
C206 C207 1.369 . S
C207 H187 0.945 . S
C207 C202 1.385 . S
C207 C206 1.369 . S
C208 C200 1.457 . S
C208 C209 1.372 . S
C208 C213 1.364 . S
C209 H188 0.952 . S
C209 C208 1.372 . S
C209 C210 1.389 . S
C210 H189 0.949 . S
C210 C209 1.389 . S
C210 C211 1.387 . S
C211 C210 1.387 . S
C211 C212 1.372 . S
C212 H190 0.950 . S
C212 C211 1.372 . S
C212 C213 1.379 . S
C213 H191 0.948 . S
C213 C208 1.364 . S
C213 C212 1.379 . S
C214 C183 1.383 . S
C214 C201 1.479 . S
C214 C215 1.398 . S
C215 C180 1.382 . S
C215 H192 0.951 . S
C215 C214 1.398 . S
C216 C217 1.384 . S
C216 H229 0.947 . S
C216 C251 1.382 . S
C217 C216 1.384 . S
C217 C218 1.378 . S
C218 C217 1.378 . S
C218 C219 1.378 . S
C218 H230 0.952 . S
C219 C218 1.378 . S
C219 H231 0.950 . S
C219 C250 1.383 . S
H220 C239 0.947 . S
H221 C240 0.946 . S
H222 C242 0.953 . S
H223 C243 0.945 . S
H224 C245 0.952 . S
H225 C246 0.949 . S
H226 C248 0.950 . S
H227 C249 0.948 . S
H228 C251 0.951 . S
H229 C216 0.947 . S
H230 C218 0.952 . S
H231 C219 0.950 . S
N232 C235 1.382 . S
N232 C237 1.363 . S
N233 C235 1.371 . S
N233 C236 1.372 . S
N234 C236 1.361 . S
N234 C237 1.377 . S
C235 N232 1.382 . S
C235 N233 1.371 . S
C235 C238 1.480 . S
C236 N233 1.372 . S
C236 N234 1.361 . S
C236 C244 1.457 . S
C237 N232 1.363 . S
C237 N234 1.377 . S
C237 C250 1.479 . S
C238 C235 1.480 . S
C238 C239 1.383 . S
C238 C243 1.385 . S
C239 H220 0.947 . S
C239 C238 1.383 . S
C239 C240 1.388 . S
C240 H221 0.946 . S
C240 C239 1.388 . S
C240 C241 1.384 . S
C241 C240 1.384 . S
C241 C242 1.377 . S
C242 H222 0.953 . S
C242 C241 1.377 . S
C242 C243 1.369 . S
C243 H223 0.945 . S
C243 C238 1.385 . S
C243 C242 1.369 . S
C244 C236 1.457 . S
C244 C245 1.372 . S
C244 C249 1.364 . S
C245 H224 0.952 . S
C245 C244 1.372 . S
C245 C246 1.389 . S
C246 H225 0.949 . S
C246 C245 1.389 . S
C246 C247 1.387 . S
C247 C246 1.387 . S
C247 C248 1.372 . S
C248 H226 0.950 . S
C248 C247 1.372 . S
C248 C249 1.379 . S
C249 H227 0.948 . S
C249 C244 1.364 . S
C249 C248 1.379 . S
C250 C219 1.383 . S
C250 C237 1.479 . S
C250 C251 1.398 . S
C251 C216 1.382 . S
C251 H228 0.951 . S
C251 C250 1.398 . S
C252 C253 1.384 . S
C252 H265 0.947 . S
C252 C287 1.382 . S
C253 C252 1.384 . S
C253 C254 1.378 . S
C254 C253 1.378 . S
C254 C255 1.378 . S
C254 H266 0.952 . S
C255 C254 1.378 . S
C255 H267 0.950 . S
C255 C286 1.383 . S
H256 C275 0.947 . S
H257 C276 0.946 . S
H258 C278 0.953 . S
H259 C279 0.945 . S
H260 C281 0.952 . S
H261 C282 0.949 . S
H262 C284 0.950 . S
H263 C285 0.948 . S
H264 C287 0.951 . S
H265 C252 0.947 . S
H266 C254 0.952 . S
H267 C255 0.950 . S
N268 C271 1.382 . S
N268 C273 1.363 . S
N269 C271 1.371 . S
N269 C272 1.372 . S
N270 C272 1.361 . S
N270 C273 1.377 . S
C271 N268 1.382 . S
C271 N269 1.371 . S
C271 C274 1.480 . S
C272 N269 1.372 . S
C272 N270 1.361 . S
C272 C280 1.457 . S
C273 N268 1.363 . S
C273 N270 1.377 . S
C273 C286 1.479 . S
C274 C271 1.480 . S
C274 C275 1.383 . S
C274 C279 1.385 . S
C275 H256 0.947 . S
C275 C274 1.383 . S
C275 C276 1.388 . S
C276 H257 0.946 . S
C276 C275 1.388 . S
C276 C277 1.384 . S
C277 C276 1.384 . S
C277 C278 1.377 . S
C278 H258 0.953 . S
C278 C277 1.377 . S
C278 C279 1.369 . S
C279 H259 0.945 . S
C279 C274 1.385 . S
C279 C278 1.369 . S
C280 C272 1.457 . S
C280 C281 1.372 . S
C280 C285 1.364 . S
C281 H260 0.952 . S
C281 C280 1.372 . S
C281 C282 1.389 . S
C282 H261 0.949 . S
C282 C281 1.389 . S
C282 C283 1.387 . S
C283 C282 1.387 . S
C283 C284 1.372 . S
C284 H262 0.950 . S
C284 C283 1.372 . S
C284 C285 1.379 . S
C285 H263 0.948 . S
C285 C280 1.364 . S
C285 C284 1.379 . S
C286 C255 1.383 . S
C286 C273 1.479 . S
C286 C287 1.398 . S
C287 C252 1.382 . S
C287 H264 0.951 . S
C287 C286 1.398 . S
O288 Mg289 1.990 . S
O288 C302 1.253 1_445 S
Mg289 O288 1.990 . S
Mg289 O292 2.180 . S
Mg289 O293 2.117 . S
Mg289 O307 2.030 1_545 S
O290 Mg291 2.072 1_665 S
O290 C302 1.260 . S
Mg291 O290 2.072 1_445 S
Mg291 O292 2.099 . S
Mg291 O294 2.079 . S
Mg291 O295 2.072 1_455 S
Mg291 O297 2.099 1_445 S
Mg291 O308 2.079 1_545 S
O292 Mg289 2.180 . S
O292 Mg291 2.099 . S
O292 C303 1.279 . S
O293 Mg289 2.117 . S
O293 C303 1.250 . S
O294 Mg291 2.079 . S
O294 C304 1.264 . S
O295 Mg291 2.072 1_655 S
O295 C305 1.260 . S
Mg296 O297 2.180 . S
Mg296 O298 2.030 1_565 S
Mg296 O299 1.990 1_565 S
Mg296 O300 2.117 . S
O297 Mg291 2.099 1_665 S
O297 Mg296 2.180 . S
O297 C306 1.279 . S
O298 Mg296 2.030 1_545 S
O298 C304 1.248 1_655 S
O299 Mg296 1.990 1_545 S
O299 C305 1.253 . S
O300 Mg296 2.117 . S
O300 C306 1.250 . S
C301 O307 1.248 . S
C301 O308 1.264 . S
C302 O288 1.253 1_665 S
C302 O290 1.260 . S
C303 O292 1.279 . S
C303 O293 1.250 . S
C304 O294 1.264 . S
C304 O298 1.248 1_455 S
C305 O295 1.260 . S
C305 O299 1.253 . S
C306 O297 1.279 . S
C306 O300 1.250 . S
O307 Mg289 2.030 1_565 S
O307 C301 1.248 . S
O308 Mg291 2.079 1_565 S
O308 C301 1.264 . S
O309 Mg310 1.990 . S
O309 C323 1.253 . S
Mg310 O309 1.990 . S
Mg310 O313 2.180 1_554 S
Mg310 O314 2.117 1_554 S
Mg310 O328 2.030 . S
O311 Mg312 2.072 . S
O311 C323 1.260 . S
Mg312 O311 2.072 . S
Mg312 O313 2.099 1_554 S
Mg312 O315 2.075 1_544 S
Mg312 O316 2.072 1_554 S
Mg312 O318 2.099 1_545 S
Mg312 O329 2.079 . S
O313 Mg310 2.180 1_556 S
O313 Mg312 2.099 1_556 S
O313 C324 1.279 . S
O314 Mg310 2.117 1_556 S
O314 C324 1.250 . S
O315 Mg312 2.075 1_566 S
O315 C325 1.273 . S
O316 Mg312 2.072 1_556 S
O316 C326 1.260 1_545 S
Mg317 O318 2.180 1_556 S
Mg317 O319 2.030 . S
Mg317 O320 1.990 . S
Mg317 O321 2.117 1_556 S
O318 Mg312 2.099 1_565 S
O318 Mg317 2.180 1_554 S
O318 C327 1.279 . S
O319 Mg317 2.030 . S
O319 C325 1.248 . S
O320 Mg317 1.990 . S
O320 C326 1.253 . S
O321 Mg317 2.117 1_554 S
O321 C327 1.250 . S
C322 O328 1.248 . S
C322 O329 1.264 . S
C323 O309 1.253 . S
C323 O311 1.260 . S
C324 O313 1.279 . S
C324 O314 1.250 . S
C325 O315 1.273 . S
C325 O319 1.248 . S
C326 O316 1.260 1_565 S
C326 O320 1.253 . S
C327 O318 1.279 . S
C327 O321 1.250 . S
O328 Mg310 2.030 . S
O328 C322 1.248 . S
O329 Mg312 2.079 . S
O329 C322 1.264 . S
O330 Mg331 1.990 . S
O330 C344 1.253 . S
Mg331 O330 1.990 . S
Mg331 O334 2.180 . S
Mg331 O335 2.117 . S
Mg331 O349 2.030 . S
O332 Mg333 2.072 . S
O332 C344 1.260 . S
Mg333 O332 2.072 . S
Mg333 O334 2.099 . S
Mg333 O336 2.079 . S
Mg333 O337 2.072 . S
Mg333 O339 2.099 . S
Mg333 O350 2.079 . S
O334 Mg331 2.180 . S
O334 Mg333 2.099 . S
O334 C345 1.279 . S
O335 Mg331 2.117 . S
O335 C345 1.250 . S
O336 Mg333 2.079 . S
O336 C346 1.264 . S
O337 Mg333 2.072 . S
O337 C347 1.260 . S
Mg338 O339 2.180 . S
Mg338 O340 2.030 . S
Mg338 O341 1.990 . S
Mg338 O342 2.117 . S
O339 Mg333 2.099 . S
O339 Mg338 2.180 . S
O339 C348 1.279 . S
O340 Mg338 2.030 . S
O340 C346 1.248 . S
O341 Mg338 1.990 . S
O341 C347 1.253 . S
O342 Mg338 2.117 . S
O342 C348 1.250 . S
C343 O349 1.248 . S
C343 O350 1.264 . S
C344 O330 1.253 . S
C344 O332 1.260 . S
C345 O334 1.279 . S
C345 O335 1.250 . S
C346 O336 1.264 . S
C346 O340 1.248 . S
C347 O337 1.260 . S
C347 O341 1.253 . S
C348 O339 1.279 . S
C348 O342 1.250 . S
O349 Mg331 2.030 . S
O349 C343 1.248 . S
O350 Mg333 2.079 . S
O350 C343 1.264 . S
O351 Mg352 1.990 . S
O351 C365 1.253 . S
Mg352 O351 1.990 . S
Mg352 O355 2.180 1_455 S
Mg352 O356 2.117 1_455 S
Mg352 O370 2.030 . S
O353 Mg354 2.072 . S
O353 C365 1.260 . S
Mg354 O353 2.072 . S
Mg354 O355 2.099 1_455 S
Mg354 O357 2.079 1_454 S
Mg354 O358 2.072 1_455 S
Mg354 O360 2.099 1_554 S
Mg354 O371 2.079 . S
O355 Mg352 2.180 1_655 S
O355 Mg354 2.099 1_655 S
O355 C366 1.279 . S
O356 Mg352 2.117 1_655 S
O356 C366 1.250 . S
O357 Mg354 2.079 1_656 S
O357 C367 1.264 . S
O358 Mg354 2.072 1_655 S
O358 C368 1.260 1_554 S
Mg359 O360 2.180 1_655 S
Mg359 O361 2.030 . S
Mg359 O362 1.990 . S
Mg359 O363 2.123 . S
O360 Mg354 2.099 1_556 S
O360 Mg359 2.180 1_455 S
O360 C369 1.279 . S
O361 Mg359 2.030 . S
O361 C367 1.248 . S
O362 Mg359 1.990 . S
O362 C368 1.253 . S
O363 Mg359 2.123 . S
O363 C369 1.244 1_655 S
C364 O370 1.248 . S
C364 O371 1.264 . S
C365 O351 1.253 . S
C365 O353 1.260 . S
C366 O355 1.279 . S
C366 O356 1.250 . S
C367 O357 1.264 . S
C367 O361 1.248 . S
C368 O358 1.260 1_556 S
C368 O362 1.253 . S
C369 O360 1.279 . S
C369 O363 1.244 1_455 S
O370 Mg352 2.030 . S
O370 C364 1.248 . S
O371 Mg354 2.079 . S
O371 C364 1.264 . S
C372 C373 1.369 . S
C372 C374 1.419 . S
C372 H376 0.930 . S
C373 C372 1.369 . S
C373 C382 1.429 . S
C374 C372 1.419 . S
C374 C375 1.363 . S
C374 H377 0.929 . S
C375 C374 1.363 . S
C375 C381 1.428 . S
H376 C372 0.930 . S
H377 C374 0.929 . S
S378 N379 1.613 1_665 S
S378 N380 1.610 1_655 S
N379 S378 1.613 1_445 S
N379 C382 1.350 . S
N380 S378 1.610 1_455 S
N380 C381 1.351 1_565 S
C381 C375 1.428 . S
C381 N380 1.351 1_545 S
C381 C382 1.434 . S
C382 C373 1.429 . S
C382 N379 1.350 . S
C382 C381 1.434 . S
C383 C384 1.369 . S
C383 C385 1.419 . S
C383 H387 0.930 . S
C384 C383 1.369 . S
C384 C393 1.429 . S
C385 C383 1.419 . S
C385 C386 1.363 . S
C385 H388 0.929 1_565 S
C386 C385 1.363 . S
C386 C392 1.428 . S
H387 C383 0.930 . S
H388 C385 0.929 1_545 S
S389 N390 1.613 . S
S389 N391 1.610 . S
N390 S389 1.613 . S
N390 C393 1.350 . S
N391 S389 1.610 . S
N391 C392 1.351 . S
C392 C386 1.428 . S
C392 N391 1.351 . S
C392 C393 1.434 . S
C393 C384 1.429 . S
C393 N390 1.350 . S
C393 C392 1.434 . S
C394 C395 1.369 . S
C394 C396 1.419 . S
C394 H398 0.930 . S
C395 C394 1.369 . S
C395 C404 1.429 . S
C396 C394 1.419 . S
C396 C397 1.363 . S
C396 H399 0.929 . S
C397 C396 1.363 . S
C397 C403 1.428 . S
H398 C394 0.930 . S
H399 C396 0.929 . S
S400 N401 1.613 . S
S400 N402 1.610 . S
N401 S400 1.613 . S
N401 C404 1.350 . S
N402 S400 1.610 . S
N402 C403 1.351 . S
C403 C397 1.428 . S
C403 N402 1.351 . S
C403 C404 1.434 . S
C404 C395 1.429 . S
C404 N401 1.350 . S
C404 C403 1.434 . S
C405 C406 1.369 . S
C405 C407 1.419 . S
C405 H409 0.930 . S
C406 C405 1.369 . S
C406 C415 1.429 . S
C407 C405 1.419 . S
C407 C408 1.363 . S
C407 H410 0.929 . S
C408 C407 1.363 . S
C408 C414 1.428 . S
H409 C405 0.930 . S
H410 C407 0.929 . S
S411 N412 1.613 1_455 S
S411 N413 1.610 1_455 S
N412 S411 1.613 1_655 S
N412 C415 1.350 . S
N413 S411 1.610 1_655 S
N413 C414 1.351 . S
C414 C408 1.428 . S
C414 N413 1.351 . S
C414 C415 1.434 . S
C415 C406 1.429 . S
C415 N412 1.350 . S
C415 C414 1.434 . S
C416 C417 1.369 . S
C416 C418 1.419 . S
C416 H420 0.930 . S
C417 C416 1.369 . S
C417 C426 1.429 . S
C418 C416 1.419 . S
C418 C419 1.363 . S
C418 H421 0.929 . S
C419 C418 1.363 . S
C419 C425 1.428 . S
H420 C416 0.930 . S
H421 C418 0.929 . S
S422 N423 1.613 . S
S422 N424 1.610 . S
N423 S422 1.613 . S
N423 C426 1.350 1_556 S
N424 S422 1.610 . S
N424 C425 1.351 1_556 S
C425 C419 1.428 . S
C425 N424 1.351 1_554 S
C425 C426 1.434 . S
C426 C417 1.429 . S
C426 N423 1.350 1_554 S
C426 C425 1.434 . S
C427 C428 1.369 . S
C427 C429 1.419 . S
C427 H431 0.930 . S
C428 C427 1.369 . S
C428 C437 1.429 . S
C429 C427 1.419 . S
C429 C430 1.363 . S
C429 H432 0.929 . S
C430 C429 1.363 . S
C430 C436 1.428 . S
H431 C427 0.930 . S
H432 C429 0.929 . S
S433 N434 1.613 . S
S433 N435 1.610 . S
N434 S433 1.613 . S
N434 C437 1.350 . S
N435 S433 1.610 . S
N435 C436 1.351 . S
C436 C430 1.428 . S
C436 N435 1.351 . S
C436 C437 1.434 . S
C437 C428 1.429 . S
C437 N434 1.350 . S
C437 C436 1.434 . S
C438 C439 1.369 . S
C438 C440 1.419 . S
C438 H442 0.930 . S
C439 C438 1.369 . S
C439 C448 1.429 . S
C440 C438 1.419 . S
C440 C441 1.363 . S
C440 H443 0.929 . S
C441 C440 1.363 . S
C441 C447 1.428 . S
H442 C438 0.930 . S
H443 C440 0.929 . S
S444 N445 1.613 . S
S444 N446 1.610 . S
N445 S444 1.613 . S
N445 C448 1.350 . S
N446 S444 1.610 . S
N446 C447 1.351 . S
C447 C441 1.428 . S
C447 N446 1.351 . S
C447 C448 1.434 . S
C448 C439 1.429 . S
C448 N445 1.350 . S
C448 C447 1.434 . S
C449 C450 1.369 . S
C449 C451 1.419 . S
C449 H453 0.930 . S
C450 C449 1.369 . S
C450 C459 1.429 . S
C451 C449 1.419 . S
C451 C452 1.363 . S
C451 H454 0.929 . S
C452 C451 1.363 . S
C452 C458 1.428 . S
H453 C449 0.930 . S
H454 C451 0.929 . S
S455 N456 1.613 . S
S455 N457 1.610 . S
N456 S455 1.613 . S
N456 C459 1.350 . S
N457 S455 1.610 . S
N457 C458 1.351 . S
C458 C452 1.428 . S
C458 N457 1.351 . S
C458 C459 1.434 . S
C459 C450 1.429 . S
C459 N456 1.350 . S
C459 C458 1.434 . S
C460 C461 1.369 . S
C460 C462 1.419 . S
C460 H464 0.930 . S
C461 C460 1.369 . S
C461 C470 1.429 . S
C462 C460 1.419 . S
C462 C463 1.363 . S
C462 H465 0.929 . S
C463 C462 1.363 . S
C463 C469 1.428 . S
H464 C460 0.930 . S
H465 C462 0.929 . S
S466 N467 1.613 . S
S466 N468 1.610 . S
N467 S466 1.613 . S
N467 C470 1.350 . S
N468 S466 1.610 . S
N468 C469 1.351 . S
C469 C463 1.428 . S
C469 N468 1.351 . S
C469 C470 1.434 . S
C470 C461 1.429 . S
C470 N467 1.350 . S
C470 C469 1.434 . S
C471 C472 1.369 . S
C471 C473 1.419 . S
C471 H475 0.930 . S
C472 C471 1.369 . S
C472 C481 1.429 . S
C473 C471 1.419 . S
C473 C474 1.363 . S
C473 H476 0.929 . S
C474 C473 1.363 . S
C474 C480 1.428 . S
H475 C471 0.930 . S
H476 C473 0.929 . S
S477 N478 1.613 . S
S477 N479 1.610 . S
N478 S477 1.613 . S
N478 C481 1.350 . S
N479 S477 1.610 . S
N479 C480 1.351 . S
C480 C474 1.428 . S
C480 N479 1.351 . S
C480 C481 1.434 . S
C481 C472 1.429 . S
C481 N478 1.350 . S
C481 C480 1.434 . S
C482 C483 1.369 . S
C482 C484 1.419 . S
C482 H486 0.930 . S
C483 C482 1.369 . S
C483 C492 1.429 . S
C484 C482 1.419 . S
C484 C485 1.363 . S
C484 H487 0.929 1_655 S
C485 C484 1.363 . S
C485 C491 1.428 . S
H486 C482 0.930 . S
H487 C484 0.929 1_455 S
S488 N489 1.613 . S
S488 N490 1.610 . S
N489 S488 1.613 . S
N489 C492 1.350 . S
N490 S488 1.610 . S
N490 C491 1.351 . S
C491 C485 1.428 . S
C491 N490 1.351 . S
C491 C492 1.434 . S
C492 C483 1.429 . S
C492 N489 1.350 . S
C492 C491 1.434 . S
C493 C494 1.369 . S
C493 C495 1.419 . S
C493 H497 0.930 . S
C494 C493 1.369 . S
C494 C503 1.429 . S
C495 C493 1.419 . S
C495 C496 1.363 . S
C495 H498 0.929 . S
C496 C495 1.363 . S
C496 C502 1.428 . S
H497 C493 0.930 . S
H498 C495 0.929 . S
S499 N500 1.613 . S
S499 N501 1.610 . S
N500 S499 1.613 . S
N500 C503 1.350 . S
N501 S499 1.610 . S
N501 C502 1.351 . S
C502 C496 1.428 . S
C502 N501 1.351 . S
C502 C503 1.434 . S
C503 C494 1.429 . S
C503 N500 1.350 . S
C503 C502 1.434 . S
C504 C505 1.369 . S
C504 C506 1.419 . S
C504 H508 0.930 . S
C505 C504 1.369 . S
C505 C514 1.429 . S
C506 C504 1.419 . S
C506 C507 1.363 . S
C506 H509 0.929 . S
C507 C506 1.363 . S
C507 C513 1.428 . S
H508 C504 0.930 . S
H509 C506 0.929 . S
S510 N511 1.613 1_545 S
S510 N512 1.610 1_545 S
N511 S510 1.613 1_565 S
N511 C514 1.350 1_455 S
N512 S510 1.610 1_565 S
N512 C513 1.351 1_455 S
C513 C507 1.428 . S
C513 N512 1.351 1_655 S
C513 C514 1.434 . S
C514 C505 1.429 . S
C514 N511 1.350 1_655 S
C514 C513 1.434 . S
C515 C516 1.369 . S
C515 C517 1.419 . S
C515 H519 0.930 . S
C516 C515 1.369 . S
C516 C525 1.429 . S
C517 C515 1.419 . S
C517 C518 1.363 . S
C517 H520 0.929 . S
C518 C517 1.363 . S
C518 C524 1.428 . S
H519 C515 0.930 . S
H520 C517 0.929 . S
S521 N522 1.613 . S
S521 N523 1.610 . S
N522 S521 1.613 . S
N522 C525 1.350 . S
N523 S521 1.610 . S
N523 C524 1.351 . S
C524 C518 1.428 . S
C524 N523 1.351 . S
C524 C525 1.434 . S
C525 C516 1.429 . S
C525 N522 1.350 . S
C525 C524 1.434 . S
C526 C527 1.369 . S
C526 C528 1.419 . S
C526 H530 0.930 . S
C527 C526 1.369 . S
C527 C536 1.429 . S
C528 C526 1.419 . S
C528 C529 1.363 . S
C528 H531 0.929 . S
C529 C528 1.363 . S
C529 C535 1.428 . S
H530 C526 0.930 . S
H531 C528 0.929 . S
S532 N533 1.613 . S
S532 N534 1.610 . S
N533 S532 1.613 . S
N533 C536 1.350 . S
N534 S532 1.610 . S
N534 C535 1.351 . S
C535 C529 1.428 . S
C535 N534 1.351 . S
C535 C536 1.434 . S
C536 C527 1.429 . S
C536 N533 1.350 . S
C536 C535 1.434 . S
C537 C538 1.369 . S
C537 C539 1.419 . S
C537 H541 0.930 . S
C538 C537 1.369 . S
C538 C547 1.429 . S
C539 C537 1.419 . S
C539 C540 1.363 . S
C539 H542 0.928 1_455 S
C540 C539 1.363 . S
C540 C546 1.428 . S
H541 C537 0.930 . S
H542 C539 0.928 1_655 S
S543 N544 1.613 . S
S543 N545 1.610 . S
N544 S543 1.613 . S
N544 C547 1.350 . S
N545 S543 1.610 . S
N545 C546 1.351 . S
C546 C540 1.428 . S
C546 N545 1.351 . S
C546 C547 1.434 . S
C547 C538 1.429 . S
C547 N544 1.350 . S
C547 C546 1.434 . S
C548 C549 1.369 . S
C548 C550 1.419 . S
C548 H552 0.930 . S
C549 C548 1.369 . S
C549 C558 1.429 . S
C550 C548 1.419 . S
C550 C551 1.363 . S
C550 H553 0.929 1_565 S
C551 C550 1.363 . S
C551 C557 1.428 . S
H552 C548 0.930 . S
H553 C550 0.929 1_545 S
S554 N555 1.613 1_554 S
S554 N556 1.610 . S
N555 S554 1.613 1_556 S
N555 C558 1.350 . S
N556 S554 1.610 . S
N556 C557 1.351 1_554 S
C557 C551 1.428 . S
C557 N556 1.351 1_556 S
C557 C558 1.434 . S
C558 C549 1.429 . S
C558 N555 1.350 . S
C558 C557 1.434 . S
C559 C560 1.369 . S
C559 C561 1.419 . S
C559 H563 0.930 . S
C560 C559 1.369 . S
C560 C569 1.429 . S
C561 C559 1.419 . S
C561 C562 1.363 . S
C561 H564 0.929 . S
C562 C561 1.363 . S
C562 C568 1.428 . S
H563 C559 0.930 . S
H564 C561 0.929 . S
S565 N566 1.613 . S
S565 N567 1.610 . S
N566 S565 1.613 . S
N566 C569 1.350 . S
N567 S565 1.610 . S
N567 C568 1.351 . S
C568 C562 1.428 . S
C568 N567 1.351 . S
C568 C569 1.434 . S
C569 C560 1.429 . S
C569 N566 1.350 . S
C569 C568 1.434 . S
C570 C571 1.369 . S
C570 C572 1.419 . S
C570 H574 0.930 . S
C571 C570 1.369 . S
C571 C580 1.429 . S
C572 C570 1.419 . S
C572 C573 1.363 . S
C572 H575 0.929 . S
C573 C572 1.363 . S
C573 C579 1.428 . S
H574 C570 0.930 . S
H575 C572 0.929 . S
S576 N577 1.613 . S
S576 N578 1.610 . S
N577 S576 1.613 . S
N577 C580 1.350 . S
N578 S576 1.610 . S
N578 C579 1.351 . S
C579 C573 1.428 . S
C579 N578 1.351 . S
C579 C580 1.434 . S
C580 C571 1.429 . S
C580 N577 1.350 . S
C580 C579 1.434 . S
C581 C582 1.369 . S
C581 C583 1.419 . S
C581 H585 0.930 . S
C582 C581 1.369 . S
C582 C591 1.429 . S
C583 C581 1.419 . S
C583 C584 1.363 . S
C583 H586 0.929 . S
C584 C583 1.363 . S
C584 C590 1.428 . S
H585 C581 0.930 . S
H586 C583 0.929 . S
S587 N588 1.613 . S
S587 N589 1.610 . S
N588 S587 1.613 . S
N588 C591 1.350 . S
N589 S587 1.610 . S
N589 C590 1.351 . S
C590 C584 1.428 . S
C590 N589 1.351 . S
C590 C591 1.434 . S
C591 C582 1.429 . S
C591 N588 1.350 . S
C591 C590 1.434 . S
C592 C593 1.369 . S
C592 C594 1.419 . S
C592 H596 0.930 1_556 S
C593 C592 1.369 . S
C593 C602 1.429 . S
C594 C592 1.419 . S
C594 C595 1.363 . S
C594 H597 0.929 1_556 S
C595 C594 1.363 . S
C595 C601 1.428 . S
H596 C592 0.930 1_554 S
H597 C594 0.929 1_554 S
S598 N599 1.613 . S
S598 N600 1.610 . S
N599 S598 1.613 . S
N599 C602 1.350 . S
N600 S598 1.610 . S
N600 C601 1.351 . S
C601 C595 1.428 . S
C601 N600 1.351 . S
C601 C602 1.434 . S
C602 C593 1.429 . S
C602 N599 1.350 . S
C602 C601 1.434 . S
C603 C604 1.369 . S
C603 C605 1.419 . S
C603 H607 0.930 . S
C604 C603 1.369 . S
C604 C613 1.429 . S
C605 C603 1.419 . S
C605 C606 1.363 . S
C605 H608 0.927 . S
C606 C605 1.363 . S
C606 C612 1.428 . S
H607 C603 0.930 . S
H608 C605 0.927 . S
S609 N610 1.613 . S
S609 N611 1.610 . S
N610 S609 1.613 . S
N610 C613 1.350 . S
N611 S609 1.610 . S
N611 C612 1.351 . S
C612 C606 1.428 . S
C612 N611 1.351 . S
C612 C613 1.434 . S
C613 C604 1.429 . S
C613 N610 1.350 . S
C613 C612 1.434 . S
C614 C615 1.369 . S
C614 C616 1.417 1_455 S
C614 H618 0.930 1_455 S
C615 C614 1.369 . S
C615 C624 1.429 . S
C616 C614 1.417 1_655 S
C616 C617 1.349 1_655 S
C616 H619 0.946 . S
C617 C616 1.349 1_455 S
C617 C623 1.428 . S
H618 C614 0.930 1_655 S
H619 C616 0.946 . S
S620 N621 1.613 . S
S620 N622 1.610 . S
N621 S620 1.613 . S
N621 C624 1.350 . S
N622 S620 1.610 . S
N622 C623 1.351 . S
C623 C617 1.428 . S
C623 N622 1.351 . S
C623 C624 1.434 . S
C624 C615 1.429 . S
C624 N621 1.350 . S
C624 C623 1.434 . S
C625 C626 1.369 . S
C625 C627 1.419 . S
C625 H629 0.930 . S
C626 C625 1.369 . S
C626 C635 1.429 . S
C627 C625 1.419 . S
C627 C628 1.363 . S
C627 H630 0.929 . S
C628 C627 1.363 . S
C628 C634 1.428 . S
H629 C625 0.930 . S
H630 C627 0.929 . S
S631 N632 1.613 . S
S631 N633 1.610 . S
N632 S631 1.613 . S
N632 C635 1.350 . S
N633 S631 1.610 . S
N633 C634 1.351 . S
C634 C628 1.428 . S
C634 N633 1.351 . S
C634 C635 1.434 . S
C635 C626 1.429 . S
C635 N632 1.350 . S
C635 C634 1.434 . S
C373 C1 1.577 . S
C375 C304 1.529 . S
C384 C67 1.490 . S
C386 C326 1.475 . S
C397 C345 1.199 . S
C395 C97 1.468 . S
C406 C133 1.862 . S
C408 C366 1.448 . S
C419 C323 1.739 . S
C417 C25 1.760 . S
C430 C301 1.669 . S
C428 C37 1.683 . S
C441 C368 1.363 . S
C439 C103 1.400 . S
C452 C347 1.518 . S
C450 C109 1.558 . S
C461 C31 1.684 . S
C463 C365 1.679 . S
C474 C324 1.287 . S
C472 C73 1.601 . S
C483 C139 1.715 . S
C485 C306 1.594 . S
C494 C61 1.506 . S
C496 C344 1.553 . S
C507 C302 1.535 . S
C505 C175 1.638 . S
C516 C181 1.348 . S
C518 C322 1.338 . S
C527 C247 1.557 . S
C529 C348 1.259 . S
C538 C277 1.795 . S
C540 C369 1.375 . S
C549 C145 1.711 . S
C551 C325 1.686 . S
C562 C305 1.712 . S
C560 C211 1.739 . S
C573 C364 1.254 . S
C571 C217 1.309 . S
C584 C343 1.578 . S
C582 C283 1.621 . S
C593 C169 1.563 . S
C595 C367 1.536 . S
C606 C327 1.261 . S
C604 C241 1.556 . S
C617 C303 1.447 . S
C615 C253 1.558 . S
C626 C205 1.473 . S
C628 C346 1.500 . S
