# Generated by pormake.
# Topology tsx, (6,3)-cn, num edge types: 1
# Building blocks:
#     Node 0, Type 0, BuildingBlock: VOLQOD_clean_sbu_1, # of connection points: 6
#     Node 1, Type 0, BuildingBlock: VOLQOD_clean_sbu_1, # of connection points: 6
#     Node 2, Type 1, BuildingBlock: QEWDON_clean_linker_0, # of connection points: 3
#     Node 3, Type 1, BuildingBlock: QEWDON_clean_linker_0, # of connection points: 3
#     Node 4, Type 1, BuildingBlock: QEWDON_clean_linker_0, # of connection points: 3
#     Node 5, Type 1, BuildingBlock: QEWDON_clean_linker_0, # of connection points: 3
#     Edge 6, Type (0, 1), BuildingBlock: XUDNAN_clean_linker_2, # of connection points: 2
#     Edge 7, Type (0, 1), BuildingBlock: XUDNAN_clean_linker_2, # of connection points: 2
#     Edge 8, Type (0, 1), BuildingBlock: XUDNAN_clean_linker_2, # of connection points: 2
#     Edge 9, Type (0, 1), BuildingBlock: XUDNAN_clean_linker_2, # of connection points: 2
#     Edge 10, Type (0, 1), BuildingBlock: XUDNAN_clean_linker_2, # of connection points: 2
#     Edge 11, Type (0, 1), BuildingBlock: XUDNAN_clean_linker_2, # of connection points: 2
#     Edge 12, Type (0, 1), BuildingBlock: XUDNAN_clean_linker_2, # of connection points: 2
#     Edge 13, Type (0, 1), BuildingBlock: XUDNAN_clean_linker_2, # of connection points: 2
#     Edge 14, Type (0, 1), BuildingBlock: XUDNAN_clean_linker_2, # of connection points: 2
#     Edge 15, Type (0, 1), BuildingBlock: XUDNAN_clean_linker_2, # of connection points: 2
#     Edge 16, Type (0, 1), BuildingBlock: XUDNAN_clean_linker_2, # of connection points: 2
#     Edge 17, Type (0, 1), BuildingBlock: XUDNAN_clean_linker_2, # of connection points: 2
# Relax obj value: 0.078
# Max RMSD: 0.176
# Mean RMSD: 0.148
data_MOF--net-tsx--node1-VOLQOD_clean_sbu_1--node2-QEWDON_clean_linker_0--edge1-XUDNAN_clean_linker_2
_symmetry_space_group_name_H-M    P1
_symmetry_Int_Tables_number       1
_symmetry_cell_setting            triclinic
loop_
_symmetry_equiv_pos_as_xyz
'x, y, z'
_cell_length_a     22.1175
_cell_length_b     22.668099
_cell_length_c     38.60844
_cell_angle_alpha  89.97772
_cell_angle_beta   101.769
_cell_angle_gamma 90.397331
loop_
_atom_site_label
_atom_site_type_symbol
_atom_site_fract_x
_atom_site_fract_y
_atom_site_fract_z
_atom_type_partial_charge
O0 O 0.01241 0.96628 0.06508 0.0
Zn1 Zn 0.05303 0.97708 0.02243 0.0
O2 O 0.99178 1.00454 -0.01704 0.0
Zn3 Zn 0.97388 0.94714 0.94659 0.0
Zn4 Zn 0.91596 0.02214 -0.00251 0.0
Zn5 Zn 0.02319 0.07085 0.96171 0.0
O6 O 0.9637 0.98603 0.89846 0.0
O7 O 0.0405 0.05032 0.91453 0.0
O8 O 0.10099 0.90755 0.00646 0.0
O9 O 0.04721 0.89603 0.95149 0.0
O10 O 0.90308 0.89573 0.95409 0.0
O11 O 0.85847 0.9508 -0.01079 0.0
O12 O 0.87736 0.09635 0.97236 0.0
O13 O 0.11423 0.04278 0.0381 0.0
O14 O 0.95663 0.13059 0.95067 0.0
O15 O 0.09753 0.10659 -0.00656 0.0
C16 C 0.97182 1.00078 0.0733 0.0
C17 C 0.00283 0.02276 0.89055 0.0
C18 C 0.86169 0.90295 0.97233 0.0
C19 C 0.0931 0.88313 0.97592 0.0
C20 C 0.90135 0.13503 0.95503 0.0
C21 C 0.12723 0.09043 0.02369 0.0
O22 O 0.93687 0.03212 0.05008 0.0
O23 O 0.53727 0.48503 0.56535 0.0
Zn24 Zn 0.57965 0.50295 0.52465 0.0
O25 O 0.51767 0.5326 0.48627 0.0
Zn26 Zn 0.49673 0.47212 0.45155 0.0
Zn27 Zn 0.44421 0.55416 0.50331 0.0
Zn28 Zn 0.54997 0.598 0.46485 0.0
O29 O 0.48493 0.506 0.40244 0.0
O30 O 0.55092 0.58171 0.41414 0.0
O31 O 0.62575 0.4337 0.50797 0.0
O32 O 0.56809 0.41871 0.45456 0.0
O33 O 0.42606 0.42443 0.46257 0.0
O34 O 0.38099 0.48691 0.49368 0.0
O35 O 0.41058 0.63372 0.48223 0.0
O36 O 0.64475 0.56565 0.54037 0.0
O37 O 0.49213 0.66485 0.46173 0.0
O38 O 0.63291 0.62308 0.49259 0.0
C39 C 0.49675 0.5162 0.57612 0.0
C40 C 0.51675 0.54736 0.39231 0.0
C41 C 0.38378 0.43644 0.47945 0.0
C42 C 0.61568 0.40732 0.47808 0.0
C43 C 0.43812 0.67314 0.46727 0.0
C44 C 0.66234 0.60817 0.52316 0.0
O45 O 0.46565 0.55563 0.55673 0.0
H46 H 0.99479 0.06853 0.35195 0.0
C47 C 0.04084 0.05023 0.35756 0.0
C48 C 0.06516 0.02404 0.33007 0.0
C49 C 0.07502 0.04976 0.39255 0.0
H50 H 0.14186 0.97347 0.31836 0.0
C51 C 0.12287 0.99559 0.33855 0.0
C52 C 0.15599 0.99394 0.37338 0.0
C53 C 0.13422 0.02496 0.39935 0.0
C54 C 0.04867 0.06798 0.42326 0.0
H55 H 0.16327 0.02685 0.42553 0.0
C56 C 0.99535 0.12774 0.41899 0.0
C57 C 0.96225 0.15858 0.45318 0.0
C58 C 0.07776 0.02767 0.46239 0.0
H59 H 0.10799 0.99063 0.46176 0.0
C60 C 0.05843 0.04272 0.50327 0.0
H61 H 0.98191 0.14735 0.39306 0.0
C62 C 0.98054 0.13094 0.49737 0.0
H63 H 0.95661 0.15201 0.51622 0.0
H64 H 0.03909 0.06353 0.50747 0.0
H65 H 0.98655 0.10169 0.61219 0.0
C66 C 0.97248 0.05589 0.60843 0.0
C67 C 0.95712 0.02375 0.63672 0.0
C68 C 0.96895 0.02875 0.57536 0.0
H69 H 0.92666 0.9391 0.65316 0.0
C70 C 0.93749 0.96467 0.63145 0.0
C71 C 0.93461 0.93707 0.59887 0.0
C72 C 0.95169 0.96892 0.57135 0.0
C73 C 0.98523 0.06028 0.54488 0.0
H74 H 0.95147 0.94624 0.54671 0.0
C75 C 0.04818 0.11181 0.55337 0.0
C76 C 0.08605 0.14409 0.5217 0.0
C77 C 0.94773 0.033 0.50275 0.0
H78 H 0.9093 1.00262 0.5008 0.0
C79 C 0.9702 0.05246 0.46292 0.0
H80 H 0.06717 0.1226 0.58071 0.0
C81 C 0.06373 0.12756 0.47596 0.0
H82 H 0.09113 0.14995 0.45916 0.0
H83 H 0.99321 0.07081 0.46012 0.0
H84 H 0.4494 0.53245 0.84517 0.0
C85 C 0.49345 0.51012 0.85023 0.0
C86 C 0.51309 0.48023 0.82249 0.0
C87 C 0.52981 0.5079 0.88471 0.0
H88 H 0.58157 0.42227 0.8085 0.0
C89 C 0.56798 0.44753 0.82949 0.0
C90 C 0.60445 0.44581 0.86348 0.0
C91 C 0.58705 0.479 0.89017 0.0
C92 C 0.50801 0.52959 0.91626 0.0
H93 H 0.61816 0.48026 0.91574 0.0
C94 C 0.46111 0.59405 0.91302 0.0
C95 C 0.43553 0.63028 0.94833 0.0
C96 C 0.53699 0.48905 0.95534 0.0
H97 H 0.56322 0.44935 0.95409 0.0
C98 C 0.52427 0.50868 -0.00281 0.0
H99 H 0.44675 0.61301 0.88697 0.0
C100 C 0.45609 0.60396 -0.00722 0.0
H101 H 0.43662 0.62825 0.01237 0.0
H102 H 0.50784 0.53162 0.00185 0.0
H103 H 0.48969 0.57621 0.11102 0.0
C104 C 0.46531 0.53448 0.10811 0.0
C105 C 0.45641 0.50466 0.13864 0.0
C106 C 0.44386 0.50968 0.07437 0.0
H107 H 0.41577 0.42895 0.15877 0.0
C108 C 0.42301 0.45135 0.1352 0.0
C109 C 0.39907 0.42665 0.10202 0.0
C110 C 0.41101 0.4557 0.07199 0.0
C111 C 0.45932 0.53641 0.0418 0.0
H112 H 0.39502 0.43512 0.04679 0.0
C113 C 0.52724 0.58201 0.04707 0.0
C114 C 0.56364 0.60798 0.01316 0.0
C115 C 0.41484 0.51027 0.00082 0.0
H116 H 0.37297 0.48517 2e-05 0.0
C117 C 0.43419 0.52462 0.95945 0.0
H118 H 0.55105 0.59284 0.07359 0.0
C119 C 0.53462 0.59074 0.96809 0.0
H120 H 0.56174 0.60914 0.94979 0.0
H121 H 0.45829 0.54037 0.95551 0.0
H122 H 0.22017 0.14947 0.00118 0.0
H123 H 0.13446 0.12429 0.0916 0.0
H124 H 0.20002 0.20387 0.12363 0.0
H125 H 0.37814 0.18074 0.05531 0.0
H126 H 0.39505 0.23337 0.02353 0.0
H127 H 0.34451 0.1716 0.00899 0.0
H128 H 0.25966 0.24373 0.97854 0.0
H129 H 0.30948 0.30567 -0.00659 0.0
H130 H 0.23414 0.30128 0.00432 0.0
H131 H 0.2602 0.29688 0.14056 0.0
H132 H 0.32355 0.38664 0.14622 0.0
H133 H 0.38526 0.33999 0.04963 0.0
C134 C 0.21643 0.16002 0.02803 0.0
C135 C 0.17263 0.13123 0.04412 0.0
C136 C 0.16838 0.1458 0.07914 0.0
C137 C 0.20516 0.19095 0.09741 0.0
C138 C 0.2471 0.21955 0.08057 0.0
C139 C 0.25433 0.20354 0.04711 0.0
C140 C 0.30256 0.24165 0.03502 0.0
C141 C 0.35839 0.20462 0.03046 0.0
C142 C 0.27477 0.27504 0.00081 0.0
C143 C 0.31915 0.28325 0.06623 0.0
C144 C 0.28623 0.27008 0.09202 0.0
C145 C 0.28821 0.30635 0.12126 0.0
C146 C 0.32511 0.3573 0.12435 0.0
C147 C 0.36123 0.37104 0.09883 0.0
C148 C 0.35843 0.33234 0.06969 0.0
H149 H 0.2128 0.86087 0.01227 0.0
H150 H 0.07845 0.81308 0.91758 0.0
H151 H 0.15629 0.75341 0.89706 0.0
H152 H 0.34549 0.87011 0.97051 0.0
H153 H 0.39822 0.83758 0.00721 0.0
H154 H 0.3327 0.87866 0.01488 0.0
H155 H 0.29606 0.7887 0.04686 0.0
H156 H 0.3621 0.74793 0.03987 0.0
H157 H 0.28546 0.7183 0.02464 0.0
H158 H 0.24689 0.69767 0.88643 0.0
H159 H 0.34123 0.6385 0.89085 0.0
H160 H 0.41933 0.72312 -0.00905 0.0
C161 C 0.19968 0.83746 -0.0126 0.0
C162 C 0.13938 0.84213 0.96655 0.0
C163 C 0.12429 0.81075 0.93406 0.0
C164 C 0.16832 0.77687 0.92195 0.0
C165 C 0.22758 0.77447 0.94253 0.0
C166 C 0.24332 0.80313 0.97478 0.0
C167 C 0.30988 0.79074 -0.00776 0.0
C168 C 0.34886 0.84768 -0.00355 0.0
C169 C 0.31356 0.75955 0.02801 0.0
C170 C 0.32827 0.74989 0.96505 0.0
C171 C 0.28034 0.74188 0.93634 0.0
C172 C 0.28508 0.7039 0.90862 0.0
C173 C 0.33924 0.67098 0.91113 0.0
C174 C 0.38757 0.67612 0.94121 0.0
C175 C 0.38286 0.71785 0.96775 0.0
H176 H 0.74714 0.90171 -0.00917 0.0
H177 H 0.89181 0.78735 0.9693 0.0
H178 H 0.83678 0.7009 -0.01351 0.0
H179 H 0.71162 0.82153 0.06543 0.0
H180 H 0.62928 0.83123 0.05237 0.0
H181 H 0.68114 0.88563 0.04033 0.0
H182 H 0.62928 0.87402 0.9741 0.0
H183 H 0.57641 0.8208 -0.01388 0.0
H184 H 0.62245 0.8016 0.95433 0.0
H185 H 0.76719 0.62666 0.00547 0.0
H186 H 0.67769 0.56733 0.01475 0.0
H187 H 0.57479 0.72708 0.02156 0.0
C188 C 0.76701 0.85841 -0.01035 0.0
C189 C 0.82388 0.85138 0.97875 0.0
C190 C 0.84811 0.79392 0.97724 0.0
C191 C 0.81758 0.74452 -0.01261 0.0
C192 C 0.76234 0.75297 -0.00137 0.0
C193 C 0.73636 0.80819 -0.001 0.0
C194 C 0.67378 0.80406 0.00931 0.0
C195 C 0.674 0.83762 0.04392 0.0
C196 C 0.62245 0.82642 0.97917 0.0
C197 C 0.66871 0.73793 0.0145 0.0
C198 C 0.72104 0.70957 0.00891 0.0
C199 C 0.72632 0.64834 0.01038 0.0
C200 C 0.6757 0.61501 0.01611 0.0
C201 C 0.62078 0.64293 0.02026 0.0
C202 C 0.61755 0.70509 0.02015 0.0
H203 H 0.79573 0.18317 0.97067 0.0
H204 H 0.92297 0.19858 0.89898 0.0
H205 H 0.86183 0.28022 0.86806 0.0
H206 H 0.65714 0.21426 0.90708 0.0
H207 H 0.62278 0.25698 0.9373 0.0
H208 H 0.67644 0.19924 0.95389 0.0
H209 H 0.7441 0.2741 -0.00416 0.0
H210 H 0.6907 0.33211 0.97929 0.0
H211 H 0.77121 0.34015 0.97769 0.0
H212 H 0.78512 0.35805 0.84335 0.0
H213 H 0.69987 0.43012 0.82874 0.0
H214 H 0.6254 0.36693 0.91764 0.0
C215 C 0.81062 0.20375 0.94848 0.0
C216 C 0.86414 0.18453 0.93732 0.0
C217 C 0.88238 0.21283 0.90825 0.0
C218 C 0.84787 0.25917 0.89038 0.0
C219 C 0.79552 0.27723 0.90206 0.0
C220 C 0.77714 0.25079 0.93057 0.0
C221 C 0.7195 0.27945 0.93801 0.0
C222 C 0.66579 0.23482 0.93381 0.0
C223 C 0.73217 0.30816 0.9749 0.0
C224 C 0.70823 0.32556 0.90904 0.0
C225 C 0.75238 0.3234 0.88846 0.0
C226 C 0.75048 0.36058 0.85944 0.0
C227 C 0.70202 0.40117 0.85128 0.0
C228 C 0.6568 0.40446 0.87234 0.0
C229 C 0.66018 0.36612 0.90154 0.0
H230 H 0.67156 0.69359 0.57302 0.0
H231 H 0.77497 0.60089 0.5064 0.0
H232 H 0.8646 0.66731 0.52676 0.0
H233 H 0.7162 0.83199 0.55313 0.0
H234 H 0.72061 0.86389 0.59634 0.0
H235 H 0.67008 0.80215 0.58255 0.0
H236 H 0.72346 0.74346 0.63788 0.0
H237 H 0.77422 0.80532 0.65194 0.0
H238 H 0.806 0.7337 0.64654 0.0
H239 H 0.93631 0.75076 0.54774 0.0
H240 H 0.98387 0.84773 0.56582 0.0
H241 H 0.83206 0.88879 0.6171 0.0
C242 C 0.71405 0.68628 0.56385 0.0
C243 C 0.71767 0.64187 0.53891 0.0
C244 C 0.77247 0.63436 0.52608 0.0
C245 C 0.8234 0.67164 0.53757 0.0
C246 C 0.81825 0.71613 0.56172 0.0
C247 C 0.76498 0.7236 0.57478 0.0
C248 C 0.76831 0.77927 0.59677 0.0
C249 C 0.71571 0.82181 0.58125 0.0
C250 C 0.76799 0.76453 0.63559 0.0
C251 C 0.83055 0.80324 0.59277 0.0
C252 C 0.85918 0.76552 0.57312 0.0
C253 C 0.91483 0.78025 0.5636 0.0
C254 C 0.94124 0.83553 0.57375 0.0
C255 C 0.91159 0.87562 0.59285 0.0
C256 C 0.85636 0.8585 0.60317 0.0
H257 H 0.73411 0.38437 0.51501 0.0
H258 H 0.60291 0.33978 0.41847 0.0
H259 H 0.68201 0.28068 0.39844 0.0
H260 H 0.86877 0.3958 0.47543 0.0
H261 H 0.92011 0.36259 0.51246 0.0
H262 H 0.85378 0.40314 0.5194 0.0
H263 H 0.81565 0.31218 0.54987 0.0
H264 H 0.88243 0.27189 0.54361 0.0
H265 H 0.80618 0.24232 0.52702 0.0
H266 H 0.77437 0.22459 0.3889 0.0
H267 H 0.86994 0.16622 0.39449 0.0
H268 H 0.9423 0.24918 0.4958 0.0
C269 C 0.72186 0.36184 0.4898 0.0
C270 C 0.66214 0.36696 0.46839 0.0
C271 C 0.64826 0.3368 0.43545 0.0
C272 C 0.69303 0.30333 0.42364 0.0
C273 C 0.75172 0.30031 0.44494 0.0
C274 C 0.76614 0.32814 0.47749 0.0
C275 C 0.83213 0.31569 0.4958 0.0
C276 C 0.87098 0.37271 0.50107 0.0
C277 C 0.83419 0.2836 0.53115 0.0
C278 C 0.85191 0.27569 0.46874 0.0
C279 C 0.80516 0.26801 0.43936 0.0
C280 C 0.81159 0.23061 0.41164 0.0
C281 C 0.86627 0.19812 0.41481 0.0
C282 C 0.91322 0.20316 0.44555 0.0
C283 C 0.9068 0.24411 0.4721 0.0
H284 H 0.2603 0.43519 0.48417 0.0
H285 H 0.42423 0.32664 0.49805 0.0
H286 H 0.3684 0.24538 0.52046 0.0
H287 H 0.19975 0.38003 0.55949 0.0
H288 H 0.12049 0.37912 0.53594 0.0
H289 H 0.17431 0.43181 0.52415 0.0
H290 H 0.14937 0.39464 0.45924 0.0
H291 H 0.09451 0.34308 0.47076 0.0
H292 H 0.15582 0.31708 0.45041 0.0
H293 H 0.29569 0.17511 0.54046 0.0
H294 H 0.20484 0.11363 0.5452 0.0
H295 H 0.08527 0.26299 0.51426 0.0
C296 C 0.28418 0.39425 0.49196 0.0
C297 C 0.34655 0.38713 0.48937 0.0
C298 C 0.37625 0.33279 0.49947 0.0
C299 C 0.34521 0.28663 0.5127 0.0
C300 C 0.28401 0.29499 0.51527 0.0
C301 C 0.25318 0.34679 0.50435 0.0
C302 C 0.18549 0.34158 0.50631 0.0
C303 C 0.16906 0.38577 0.53307 0.0
C304 C 0.14386 0.34954 0.46949 0.0
C305 C 0.18315 0.27861 0.51948 0.0
C306 C 0.24097 0.25323 0.5255 0.0
C307 C 0.25027 0.19465 0.53627 0.0
C308 C 0.19868 0.16023 0.53936 0.0
C309 C 0.13886 0.1844 0.53135 0.0
C310 C 0.13108 0.24449 0.52199 0.0
H311 H 0.3272 0.71881 0.4779 0.0
H312 H 0.47631 0.75065 0.42212 0.0
H313 H 0.42199 0.83699 0.39316 0.0
H314 H 0.20421 0.75857 0.40765 0.0
H315 H 0.15948 0.79508 0.43534 0.0
H316 H 0.21092 0.73632 0.45312 0.0
H317 H 0.26648 0.80549 0.50324 0.0
H318 H 0.21501 0.86443 0.48564 0.0
H319 H 0.29738 0.87514 0.49206 0.0
H320 H 0.34841 0.91568 0.36628 0.0
H321 H 0.26283 0.98659 0.34767 0.0
H322 H 0.16464 0.90761 0.4226 0.0
C323 C 0.34866 0.7443 0.4599 0.0
C324 C 0.4061 0.72765 0.45244 0.0
C325 C 0.43252 0.76234 0.42859 0.0
C326 C 0.40198 0.81159 0.4118 0.0
C327 C 0.34524 0.82637 0.41933 0.0
C328 C 0.3191 0.79436 0.44314 0.0
C329 C 0.25742 0.81998 0.44632 0.0
C330 C 0.20492 0.77479 0.43492 0.0
C331 C 0.25921 0.84261 0.48406 0.0
C332 C 0.25285 0.8705 0.4202 0.0
C333 C 0.3038 0.8733 0.40475 0.0
C334 C 0.30857 0.91459 0.37855 0.0
C335 C 0.25995 0.95446 0.36805 0.0
C336 C 0.20806 0.95292 0.38414 0.0
C337 C 0.20462 0.91037 0.41046 0.0
H338 H 0.01467 0.92667 0.1293 0.0
H339 H 0.92109 0.09319 0.10221 0.0
H340 H 0.92298 0.11193 0.16523 0.0
H341 H 0.93635 0.89156 0.20433 0.0
H342 H 0.00516 0.85868 0.22991 0.0
H343 H 0.99014 0.85514 0.18227 0.0
H344 H 0.09679 0.90349 0.18253 0.0
H345 H 0.11199 0.90739 0.23002 0.0
H346 H 0.11559 0.97342 0.20447 0.0
H347 H 0.9491 0.1197 0.23134 0.0
H348 H 0.99356 0.1132 0.29525 0.0
H349 H 0.05999 0.93727 0.27948 0.0
C350 C 0.99358 0.96652 0.1366 0.0
C351 C 0.96785 0.00843 0.11083 0.0
C352 C 0.94079 0.06017 0.12144 0.0
C353 C 0.94154 0.07127 0.15721 0.0
C354 C 0.96828 0.02963 0.18203 0.0
C355 C 0.99286 0.9778 0.17218 0.0
C356 C 0.0215 0.94172 0.20424 0.0
C357 C 0.98616 0.88331 0.20524 0.0
C358 C 0.09054 0.93092 0.20537 0.0
C359 C 0.01209 0.98282 0.23356 0.0
C360 C 0.98088 0.03309 0.22028 0.0
C361 C 0.97226 0.07988 0.24218 0.0
C362 C -0.00253 0.07567 0.27853 0.0
C363 C 0.03077 0.02495 0.29263 0.0
C364 C 0.03589 0.97724 0.26975 0.0
H365 H 0.91193 0.99941 0.83236 0.0
H366 H 0.09469 0.07725 0.86454 0.0
H367 H 0.09544 0.10137 0.80236 0.0
H368 H 0.93598 0.93137 0.75571 0.0
H369 H 0.85982 0.94559 0.73006 0.0
H370 H 0.87168 0.94009 0.77739 0.0
H371 H 0.82357 0.04373 0.77974 0.0
H372 H 0.81246 0.0498 0.7323 0.0
H373 H 0.85556 0.1058 0.76024 0.0
H374 H 0.0814 0.10695 0.73658 0.0
H375 H 0.05571 0.08783 0.67226 0.0
H376 H 0.87948 0.01293 0.68301 0.0
C377 C 0.95193 0.02185 0.82634 0.0
C378 C 0.00326 0.03631 0.85323 0.0
C379 C 0.05471 0.06586 0.84433 0.0
C380 C 0.05544 0.08012 0.80913 0.0
C381 C 0.00397 0.06548 0.78323 0.0
C382 C 0.9531 0.03713 0.79141 0.0
C383 C 0.90542 0.02289 0.75845 0.0
C384 C 0.89253 0.95604 0.75522 0.0
C385 C 0.84572 0.05764 0.75765 0.0
C386 C 0.93889 0.04481 0.73041 0.0
C387 C 0.99518 0.07024 0.7452 0.0
C388 C 0.03687 0.08831 0.72459 0.0
C389 C 0.02175 0.07768 0.68805 0.0
C390 C 0.96566 0.04894 0.67275 0.0
C391 C 0.92268 0.03503 0.69406 0.0
H392 H 0.49068 0.59317 0.62972 0.0
H393 H 0.46977 0.40885 0.59981 0.0
H394 H 0.44527 0.38459 0.65787 0.0
H395 H 0.57346 0.56735 0.71376 0.0
H396 H 0.5416 0.62722 0.73488 0.0
H397 H 0.54348 0.63165 0.68868 0.0
H398 H 0.4252 0.64908 0.67433 0.0
H399 H 0.42305 0.64354 0.72067 0.0
H400 H 0.37444 0.59633 0.68897 0.0
H401 H 0.43535 0.37805 0.72007 0.0
H402 H 0.45966 0.38604 0.78512 0.0
H403 H 0.49356 0.57334 0.77719 0.0
C404 C 0.47948 0.54803 0.63532 0.0
C405 C 0.48141 0.50278 0.61053 0.0
C406 C 0.4684 0.4439 0.61871 0.0
C407 C 0.45364 0.42995 0.65134 0.0
C408 C 0.45268 0.47538 0.67556 0.0
C409 C 0.46621 0.53315 0.66821 0.0
C410 C 0.47222 0.57173 0.70082 0.0
C411 C 0.53651 0.60116 0.71008 0.0
C412 C 0.42065 0.61791 0.69589 0.0
C413 C 0.46351 0.52599 0.72809 0.0
C414 C 0.44962 0.47122 0.71254 0.0
C415 C 0.44503 0.42081 0.73249 0.0
C416 C 0.45855 0.42575 0.76938 0.0
C417 C 0.47741 0.48044 0.78583 0.0
C418 C 0.4772 0.5316 0.76503 0.0
H419 H 0.53026 0.46318 0.34471 0.0
H420 H 0.4999 0.65027 0.35548 0.0
H421 H 0.49384 0.66369 0.29109 0.0
H422 H 0.62751 0.4804 0.27757 0.0
H423 H 0.59723 0.41369 0.2549 0.0
H424 H 0.60275 0.42018 0.30198 0.0
H425 H 0.48586 0.39618 0.29404 0.0
H426 H 0.48015 0.38925 0.24712 0.0
H427 H 0.4308 0.43998 0.26403 0.0
H428 H 0.47699 0.65289 0.22446 0.0
H429 H 0.45461 0.61933 0.16211 0.0
H430 H 0.51093 0.44235 0.19686 0.0
C431 C 0.52274 0.50693 0.3334 0.0
C432 C 0.51479 0.55564 0.35449 0.0
C433 C 0.50589 0.61254 0.33933 0.0
C434 C 0.50266 0.62054 0.30297 0.0
C435 C 0.51047 0.57142 0.28266 0.0
C436 C 0.52141 0.51593 0.2975 0.0
C437 C 0.52695 0.47013 0.27001 0.0
C438 C 0.59252 0.44462 0.27651 0.0
C439 C 0.47801 0.42104 0.26873 0.0
C440 C 0.51416 0.50783 0.2371 0.0
C441 C 0.50501 0.5662 0.24477 0.0
C442 C 0.48561 0.60762 0.21812 0.0
C443 C 0.47332 0.58829 0.18278 0.0
C444 C 0.48073 0.5282 0.17466 0.0
C445 C 0.50425 0.48848 0.20222 0.0
loop_
_geom_bond_atom_site_label_1
_geom_bond_atom_site_label_2
_geom_bond_distance
_geom_bond_site_symmetry_2
_ccdc_geom_bond_type
O0 Zn1 1.953 . S
O0 C16 1.225 1_565 S
Zn1 O0 1.953 . S
Zn1 O2 1.949 1_565 S
Zn1 O8 1.919 . S
Zn1 O13 1.924 1_565 S
O2 Zn1 1.949 1_545 S
O2 Zn3 1.923 1_444 S
O2 Zn4 1.950 1_455 S
O2 Zn5 1.945 1_554 S
Zn3 O2 1.923 1_666 S
Zn3 O6 1.933 . S
Zn3 O9 1.941 1_655 S
Zn3 O10 1.965 . S
Zn4 O2 1.950 1_655 S
Zn4 O11 1.938 1_545 S
Zn4 O12 1.906 . S
Zn4 O22 1.953 . S
Zn5 O2 1.945 1_556 S
Zn5 O7 1.932 . S
Zn5 O14 1.977 1_455 S
Zn5 O15 1.910 . S
O6 Zn3 1.933 . S
O6 C17 1.226 1_565 S
O7 Zn5 1.932 . S
O7 C17 1.307 1_455 S
O8 Zn1 1.919 . S
O8 C19 1.252 1_554 S
O9 Zn3 1.941 1_455 S
O9 C19 1.284 . S
O10 Zn3 1.965 . S
O10 C18 1.303 1_556 S
O11 Zn4 1.938 1_565 S
O11 C18 1.247 . S
O12 Zn4 1.906 . S
O12 C20 1.304 1_554 S
O13 Zn1 1.924 1_545 S
O13 C21 1.311 . S
O14 Zn5 1.977 1_655 S
O14 C20 1.272 . S
O15 Zn5 1.910 . S
O15 C21 1.231 1_556 S
C16 O0 1.225 1_545 S
C16 O22 1.298 1_455 S
C17 O6 1.226 1_545 S
C17 O7 1.307 1_655 S
C18 O10 1.303 1_554 S
C18 O11 1.247 . S
C19 O8 1.252 1_556 S
C19 O9 1.284 . S
C20 O12 1.304 1_556 S
C20 O14 1.272 . S
C21 O13 1.311 . S
C21 O15 1.231 1_554 S
O22 Zn4 1.953 . S
O22 C16 1.298 1_655 S
O23 Zn24 1.953 . S
O23 C39 1.225 . S
Zn24 O23 1.953 . S
Zn24 O25 1.949 . S
Zn24 O31 1.919 . S
Zn24 O36 1.924 . S
O25 Zn24 1.949 . S
O25 Zn26 1.923 . S
O25 Zn27 1.950 . S
O25 Zn28 1.945 . S
Zn26 O25 1.923 . S
Zn26 O29 1.933 . S
Zn26 O32 1.941 . S
Zn26 O33 1.965 . S
Zn27 O25 1.950 . S
Zn27 O34 1.938 . S
Zn27 O35 1.906 . S
Zn27 O45 1.953 . S
Zn28 O25 1.945 . S
Zn28 O30 1.932 . S
Zn28 O37 1.977 . S
Zn28 O38 1.910 . S
O29 Zn26 1.933 . S
O29 C40 1.226 . S
O30 Zn28 1.932 . S
O30 C40 1.307 . S
O31 Zn24 1.919 . S
O31 C42 1.253 . S
O32 Zn26 1.941 . S
O32 C42 1.283 . S
O33 Zn26 1.965 . S
O33 C41 1.303 . S
O34 Zn27 1.938 . S
O34 C41 1.247 . S
O35 Zn27 1.906 . S
O35 C43 1.304 . S
O36 Zn24 1.924 . S
O36 C44 1.311 . S
O37 Zn28 1.977 . S
O37 C43 1.272 . S
O38 Zn28 1.910 . S
O38 C44 1.231 . S
C39 O23 1.225 . S
C39 O45 1.298 . S
C40 O29 1.226 . S
C40 O30 1.307 . S
C41 O33 1.303 . S
C41 O34 1.247 . S
C42 O31 1.253 . S
C42 O32 1.283 . S
C43 O35 1.304 . S
C43 O37 1.272 . S
C44 O36 1.311 . S
C44 O38 1.231 . S
O45 Zn27 1.953 . S
O45 C39 1.298 . S
H46 C47 0.949 1_655 S
C47 H46 0.949 1_455 S
C47 C48 1.395 1_545 S
C47 C49 1.391 . S
C48 C47 1.395 1_565 S
C48 C51 1.390 . S
C49 C47 1.391 . S
C49 C53 1.387 1_545 S
C49 C54 1.491 . S
H50 C51 0.950 . S
C51 C48 1.390 . S
C51 H50 0.950 . S
C51 C52 1.378 . S
C52 C51 1.378 . S
C52 C53 1.409 . S
C53 C49 1.387 1_565 S
C53 C52 1.409 . S
C53 H55 0.951 . S
C54 C49 1.491 . S
C54 C56 1.382 1_455 S
C54 C58 1.404 . S
H55 C53 0.951 . S
C56 C54 1.382 1_655 S
C56 C57 1.390 . S
C56 H61 0.949 . S
C57 C56 1.390 . S
C57 C62 1.399 . S
C58 C54 1.404 . S
C58 H59 0.950 . S
C58 C60 1.375 . S
H59 C58 0.950 . S
C60 C58 1.375 . S
C60 C62 1.382 1_455 S
C60 H64 0.950 . S
H61 C56 0.949 . S
C62 C57 1.399 . S
C62 C60 1.382 1_655 S
C62 H63 0.952 . S
H63 C62 0.952 . S
H64 C60 0.950 . S
H65 C66 0.949 . S
C66 H65 0.949 . S
C66 C67 1.395 1_445 S
C66 C68 1.391 1_455 S
C67 C66 1.395 1_665 S
C67 C70 1.390 . S
C68 C66 1.391 1_655 S
C68 C72 1.387 1_545 S
C68 C73 1.491 1_655 S
H69 C70 0.950 . S
C70 C67 1.390 . S
C70 H69 0.950 . S
C70 C71 1.378 . S
C71 C70 1.378 . S
C71 C72 1.409 . S
C72 C68 1.387 1_565 S
C72 C71 1.409 . S
C72 H74 0.951 . S
C73 C68 1.491 1_455 S
C73 C75 1.382 . S
C73 C77 1.404 1_455 S
H74 C72 0.951 . S
C75 C73 1.382 . S
C75 C76 1.390 . S
C75 H80 0.949 . S
C76 C75 1.390 . S
C76 C81 1.399 . S
C77 C73 1.404 1_655 S
C77 H78 0.950 . S
C77 C79 1.375 . S
H78 C77 0.950 . S
C79 C77 1.375 . S
C79 C81 1.382 1_655 S
C79 H83 0.950 . S
H80 C75 0.949 . S
C81 C76 1.399 . S
C81 C79 1.382 1_455 S
C81 H82 0.952 . S
H82 C81 0.952 . S
H83 C79 0.950 . S
H84 C85 0.949 . S
C85 H84 0.949 . S
C85 C86 1.395 . S
C85 C87 1.391 . S
C86 C85 1.395 . S
C86 C89 1.390 . S
C87 C85 1.391 . S
C87 C91 1.387 . S
C87 C92 1.491 . S
H88 C89 0.950 . S
C89 C86 1.390 . S
C89 H88 0.950 . S
C89 C90 1.378 . S
C90 C89 1.378 . S
C90 C91 1.409 . S
C91 C87 1.387 . S
C91 C90 1.409 . S
C91 H93 0.951 . S
C92 C87 1.491 . S
C92 C94 1.382 . S
C92 C96 1.404 . S
H93 C91 0.951 . S
C94 C92 1.382 . S
C94 C95 1.390 . S
C94 H99 0.949 . S
C95 C94 1.390 . S
C95 C100 1.399 . S
C96 C92 1.404 . S
C96 H97 0.950 . S
C96 C98 1.375 1_556 S
H97 C96 0.950 . S
C98 C96 1.375 1_554 S
C98 C100 1.382 1_554 S
C98 H102 0.950 . S
H99 C94 0.949 . S
C100 C95 1.399 . S
C100 C98 1.382 1_556 S
C100 H101 0.952 1_556 S
H101 C100 0.952 1_554 S
H102 C98 0.950 . S
H103 C104 0.949 . S
C104 H103 0.949 . S
C104 C105 1.395 . S
C104 C106 1.391 . S
C105 C104 1.395 . S
C105 C108 1.390 . S
C106 C104 1.391 . S
C106 C110 1.387 . S
C106 C111 1.491 . S
H107 C108 0.950 . S
C108 C105 1.390 . S
C108 H107 0.950 . S
C108 C109 1.378 . S
C109 C108 1.378 . S
C109 C110 1.409 . S
C110 C106 1.387 . S
C110 C109 1.409 . S
C110 H112 0.951 . S
C111 C106 1.491 . S
C111 C113 1.382 . S
C111 C115 1.404 . S
H112 C110 0.951 . S
C113 C111 1.382 . S
C113 C114 1.390 . S
C113 H118 0.949 . S
C114 C113 1.390 . S
C114 C119 1.399 . S
C115 C111 1.404 . S
C115 H116 0.950 . S
C115 C117 1.378 . S
H116 C115 0.950 . S
C117 C115 1.378 . S
C117 C119 1.383 . S
C117 H121 0.946 1_554 S
H118 C113 0.949 . S
C119 C114 1.399 . S
C119 C117 1.383 . S
C119 H120 0.952 1_554 S
H120 C119 0.952 1_556 S
H121 C117 0.946 1_556 S
H122 C134 0.930 . S
H123 C136 0.930 . S
H124 C137 0.930 . S
H125 C141 0.959 . S
H126 C141 0.959 . S
H127 C141 0.961 . S
H128 C142 0.960 . S
H129 C142 0.961 . S
H130 C142 0.959 . S
H131 C145 0.929 . S
H132 C146 0.931 . S
H133 C148 0.930 . S
C134 H122 0.930 . S
C134 C135 1.399 . S
C134 C139 1.399 . S
C135 C134 1.399 . S
C135 C136 1.376 . S
C136 H123 0.930 . S
C136 C135 1.376 . S
C136 C137 1.388 . S
C137 H124 0.930 . S
C137 C136 1.388 . S
C137 C138 1.390 . S
C138 C137 1.390 . S
C138 C139 1.394 . S
C138 C144 1.465 . S
C139 C134 1.399 . S
C139 C138 1.394 . S
C139 C140 1.516 . S
C140 C139 1.516 . S
C140 C141 1.502 . S
C140 C142 1.561 1_554 S
C140 C143 1.526 . S
C141 H125 0.959 . S
C141 H126 0.959 . S
C141 H127 0.961 . S
C141 C140 1.502 . S
C142 H128 0.960 . S
C142 H129 0.961 . S
C142 H130 0.959 . S
C142 C140 1.561 1_556 S
C143 C140 1.526 . S
C143 C144 1.396 . S
C143 C148 1.390 . S
C144 C138 1.465 . S
C144 C143 1.396 . S
C144 C145 1.399 . S
C145 H131 0.929 . S
C145 C144 1.399 . S
C145 C146 1.385 . S
C146 H132 0.931 . S
C146 C145 1.385 . S
C146 C147 1.389 . S
C147 C146 1.389 . S
C147 C148 1.387 . S
C148 H133 0.930 . S
C148 C143 1.390 . S
C148 C147 1.387 . S
H149 C161 0.944 . S
H150 C163 0.930 . S
H151 C164 0.930 . S
H152 C168 0.959 . S
H153 C168 0.959 1_554 S
H154 C168 0.961 1_554 S
H155 C169 0.960 . S
H156 C169 0.961 . S
H157 C169 0.959 . S
H158 C172 0.929 . S
H159 C173 0.931 . S
H160 C175 0.930 . S
C161 H149 0.944 . S
C161 C162 1.397 1_554 S
C161 C166 1.387 1_554 S
C162 C161 1.397 1_556 S
C162 C163 1.376 . S
C163 H150 0.930 . S
C163 C162 1.376 . S
C163 C164 1.388 . S
C164 H151 0.930 . S
C164 C163 1.388 . S
C164 C165 1.390 . S
C165 C164 1.390 . S
C165 C166 1.394 . S
C165 C171 1.465 . S
C166 C161 1.387 1_556 S
C166 C165 1.394 . S
C166 C167 1.516 1_556 S
C167 C166 1.516 1_554 S
C167 C168 1.502 1_554 S
C167 C169 1.561 . S
C167 C170 1.526 1_554 S
C168 H152 0.959 . S
C168 H153 0.959 1_556 S
C168 H154 0.961 1_556 S
C168 C167 1.502 1_556 S
C169 H155 0.960 . S
C169 H156 0.961 . S
C169 H157 0.959 . S
C169 C167 1.561 . S
C170 C167 1.526 1_556 S
C170 C171 1.396 . S
C170 C175 1.390 . S
C171 C165 1.465 . S
C171 C170 1.396 . S
C171 C172 1.399 . S
C172 H158 0.929 . S
C172 C171 1.399 . S
C172 C173 1.385 . S
C173 H159 0.931 . S
C173 C172 1.385 . S
C173 C174 1.389 . S
C174 C173 1.389 . S
C174 C175 1.387 . S
C175 H160 0.930 . S
C175 C170 1.390 . S
C175 C174 1.387 . S
H176 C188 0.930 . S
H177 C190 0.930 . S
H178 C191 0.930 . S
H179 C195 0.959 . S
H180 C195 0.959 . S
H181 C195 0.961 . S
H182 C196 0.960 . S
H183 C196 0.961 . S
H184 C196 0.959 . S
H185 C199 0.929 . S
H186 C200 0.931 1_556 S
H187 C202 0.930 . S
C188 H176 0.930 . S
C188 C189 1.399 . S
C188 C193 1.399 . S
C189 C188 1.399 . S
C189 C190 1.376 1_554 S
C190 H177 0.930 . S
C190 C189 1.376 1_556 S
C190 C191 1.388 . S
C191 H178 0.930 . S
C191 C190 1.388 . S
C191 C192 1.390 1_556 S
C192 C191 1.390 1_554 S
C192 C193 1.394 . S
C192 C198 1.465 . S
C193 C188 1.399 . S
C193 C192 1.394 . S
C193 C194 1.516 . S
C194 C193 1.516 . S
C194 C195 1.502 . S
C194 C196 1.561 . S
C194 C197 1.526 . S
C195 H179 0.959 . S
C195 H180 0.959 . S
C195 H181 0.961 . S
C195 C194 1.502 . S
C196 H182 0.960 . S
C196 H183 0.961 . S
C196 H184 0.959 . S
C196 C194 1.561 . S
C197 C194 1.526 . S
C197 C198 1.396 . S
C197 C202 1.390 . S
C198 C192 1.465 . S
C198 C197 1.396 . S
C198 C199 1.399 1_554 S
C199 H185 0.929 . S
C199 C198 1.399 1_556 S
C199 C200 1.385 1_556 S
C200 H186 0.931 1_554 S
C200 C199 1.385 1_554 S
C200 C201 1.389 . S
C201 C200 1.389 . S
C201 C202 1.387 . S
C202 H187 0.930 . S
C202 C197 1.390 . S
C202 C201 1.387 . S
H203 C215 0.930 1_554 S
H204 C217 0.930 . S
H205 C218 0.930 . S
H206 C222 0.959 . S
H207 C222 0.959 . S
H208 C222 0.961 1_554 S
H209 C223 0.960 . S
H210 C223 0.961 . S
H211 C223 0.959 . S
H212 C226 0.929 . S
H213 C227 0.931 . S
H214 C229 0.930 . S
C215 H203 0.930 1_556 S
C215 C216 1.399 . S
C215 C220 1.399 . S
C216 C215 1.399 . S
C216 C217 1.376 . S
C217 H204 0.930 . S
C217 C216 1.376 . S
C217 C218 1.388 . S
C218 H205 0.930 . S
C218 C217 1.388 . S
C218 C219 1.390 . S
C219 C218 1.390 . S
C219 C220 1.394 . S
C219 C225 1.465 . S
C220 C215 1.399 . S
C220 C219 1.394 . S
C220 C221 1.516 . S
C221 C220 1.516 . S
C221 C222 1.502 . S
C221 C223 1.561 1_556 S
C221 C224 1.526 . S
C222 H206 0.959 . S
C222 H207 0.959 . S
C222 H208 0.961 1_556 S
C222 C221 1.502 . S
C223 H209 0.960 . S
C223 H210 0.961 . S
C223 H211 0.959 . S
C223 C221 1.561 1_554 S
C224 C221 1.526 . S
C224 C225 1.396 . S
C224 C229 1.390 . S
C225 C219 1.465 . S
C225 C224 1.396 . S
C225 C226 1.399 . S
C226 H212 0.929 . S
C226 C225 1.399 . S
C226 C227 1.385 . S
C227 H213 0.931 . S
C227 C226 1.385 . S
C227 C228 1.389 . S
C228 C227 1.389 . S
C228 C229 1.387 . S
C229 H214 0.930 . S
C229 C224 1.390 . S
C229 C228 1.387 . S
H230 C242 0.930 . S
H231 C244 0.930 . S
H232 C245 0.930 . S
H233 C249 0.959 . S
H234 C249 0.959 . S
H235 C249 0.961 . S
H236 C250 0.960 . S
H237 C250 0.961 . S
H238 C250 0.959 . S
H239 C253 0.929 . S
H240 C254 0.931 . S
H241 C256 0.930 . S
C242 H230 0.930 . S
C242 C243 1.399 . S
C242 C247 1.399 . S
C243 C242 1.399 . S
C243 C244 1.376 . S
C244 H231 0.930 . S
C244 C243 1.376 . S
C244 C245 1.388 . S
C245 H232 0.930 . S
C245 C244 1.388 . S
C245 C246 1.390 . S
C246 C245 1.390 . S
C246 C247 1.394 . S
C246 C252 1.465 . S
C247 C242 1.399 . S
C247 C246 1.394 . S
C247 C248 1.516 . S
C248 C247 1.516 . S
C248 C249 1.502 . S
C248 C250 1.561 . S
C248 C251 1.526 . S
C249 H233 0.959 . S
C249 H234 0.959 . S
C249 H235 0.961 . S
C249 C248 1.502 . S
C250 H236 0.960 . S
C250 H237 0.961 . S
C250 H238 0.959 . S
C250 C248 1.561 . S
C251 C248 1.526 . S
C251 C252 1.396 . S
C251 C256 1.390 . S
C252 C246 1.465 . S
C252 C251 1.396 . S
C252 C253 1.399 . S
C253 H239 0.929 . S
C253 C252 1.399 . S
C253 C254 1.385 . S
C254 H240 0.931 . S
C254 C253 1.385 . S
C254 C255 1.389 . S
C255 C254 1.389 . S
C255 C256 1.387 . S
C256 H241 0.930 . S
C256 C251 1.390 . S
C256 C255 1.387 . S
H257 C269 0.930 . S
H258 C271 0.930 . S
H259 C272 0.930 . S
H260 C276 0.959 . S
H261 C276 0.959 . S
H262 C276 0.961 . S
H263 C277 0.960 . S
H264 C277 0.961 . S
H265 C277 0.959 . S
H266 C280 0.929 . S
H267 C281 0.931 . S
H268 C283 0.930 . S
C269 H257 0.930 . S
C269 C270 1.399 . S
C269 C274 1.399 . S
C270 C269 1.399 . S
C270 C271 1.376 . S
C271 H258 0.930 . S
C271 C270 1.376 . S
C271 C272 1.388 . S
C272 H259 0.930 . S
C272 C271 1.388 . S
C272 C273 1.390 . S
C273 C272 1.390 . S
C273 C274 1.394 . S
C273 C279 1.465 . S
C274 C269 1.399 . S
C274 C273 1.394 . S
C274 C275 1.516 . S
C275 C274 1.516 . S
C275 C276 1.502 . S
C275 C277 1.561 . S
C275 C278 1.526 . S
C276 H260 0.959 . S
C276 H261 0.959 . S
C276 H262 0.961 . S
C276 C275 1.502 . S
C277 H263 0.960 . S
C277 H264 0.961 . S
C277 H265 0.959 . S
C277 C275 1.561 . S
C278 C275 1.526 . S
C278 C279 1.396 . S
C278 C283 1.390 . S
C279 C273 1.465 . S
C279 C278 1.396 . S
C279 C280 1.399 . S
C280 H266 0.929 . S
C280 C279 1.399 . S
C280 C281 1.385 . S
C281 H267 0.931 . S
C281 C280 1.385 . S
C281 C282 1.389 . S
C282 C281 1.389 . S
C282 C283 1.387 . S
C283 H268 0.930 . S
C283 C278 1.390 . S
C283 C282 1.387 . S
H284 C296 0.930 . S
H285 C298 0.930 . S
H286 C299 0.930 . S
H287 C303 0.959 . S
H288 C303 0.959 . S
H289 C303 0.961 . S
H290 C304 0.960 . S
H291 C304 0.961 . S
H292 C304 0.959 . S
H293 C307 0.929 . S
H294 C308 0.931 . S
H295 C310 0.930 . S
C296 H284 0.930 . S
C296 C297 1.399 . S
C296 C301 1.399 . S
C297 C296 1.399 . S
C297 C298 1.376 . S
C298 H285 0.930 . S
C298 C297 1.376 . S
C298 C299 1.388 . S
C299 H286 0.930 . S
C299 C298 1.388 . S
C299 C300 1.390 . S
C300 C299 1.390 . S
C300 C301 1.394 . S
C300 C306 1.465 . S
C301 C296 1.399 . S
C301 C300 1.394 . S
C301 C302 1.516 . S
C302 C301 1.516 . S
C302 C303 1.502 . S
C302 C304 1.561 . S
C302 C305 1.526 . S
C303 H287 0.959 . S
C303 H288 0.959 . S
C303 H289 0.961 . S
C303 C302 1.502 . S
C304 H290 0.960 . S
C304 H291 0.961 . S
C304 H292 0.959 . S
C304 C302 1.561 . S
C305 C302 1.526 . S
C305 C306 1.396 . S
C305 C310 1.390 . S
C306 C300 1.465 . S
C306 C305 1.396 . S
C306 C307 1.399 . S
C307 H293 0.929 . S
C307 C306 1.399 . S
C307 C308 1.385 . S
C308 H294 0.931 . S
C308 C307 1.385 . S
C308 C309 1.389 . S
C309 C308 1.389 . S
C309 C310 1.387 . S
C310 H295 0.930 . S
C310 C305 1.390 . S
C310 C309 1.387 . S
H311 C323 0.930 . S
H312 C325 0.930 . S
H313 C326 0.930 . S
H314 C330 0.959 . S
H315 C330 0.959 . S
H316 C330 0.961 . S
H317 C331 0.960 . S
H318 C331 0.961 . S
H319 C331 0.959 . S
H320 C334 0.929 . S
H321 C335 0.931 . S
H322 C337 0.930 . S
C323 H311 0.930 . S
C323 C324 1.399 . S
C323 C328 1.399 . S
C324 C323 1.399 . S
C324 C325 1.376 . S
C325 H312 0.930 . S
C325 C324 1.376 . S
C325 C326 1.388 . S
C326 H313 0.930 . S
C326 C325 1.388 . S
C326 C327 1.390 . S
C327 C326 1.390 . S
C327 C328 1.394 . S
C327 C333 1.465 . S
C328 C323 1.399 . S
C328 C327 1.394 . S
C328 C329 1.516 . S
C329 C328 1.516 . S
C329 C330 1.502 . S
C329 C331 1.561 . S
C329 C332 1.526 . S
C330 H314 0.959 . S
C330 H315 0.959 . S
C330 H316 0.961 . S
C330 C329 1.502 . S
C331 H317 0.960 . S
C331 H318 0.961 . S
C331 H319 0.959 . S
C331 C329 1.561 . S
C332 C329 1.526 . S
C332 C333 1.396 . S
C332 C337 1.390 . S
C333 C327 1.465 . S
C333 C332 1.396 . S
C333 C334 1.399 . S
C334 H320 0.929 . S
C334 C333 1.399 . S
C334 C335 1.385 . S
C335 H321 0.931 . S
C335 C334 1.385 . S
C335 C336 1.389 . S
C336 C335 1.389 . S
C336 C337 1.387 . S
C337 H322 0.930 . S
C337 C332 1.390 . S
C337 C336 1.387 . S
H338 C350 0.930 . S
H339 C352 0.930 . S
H340 C353 0.930 . S
H341 C357 0.959 . S
H342 C357 0.959 . S
H343 C357 0.961 . S
H344 C358 0.960 . S
H345 C358 0.961 . S
H346 C358 0.959 . S
H347 C361 0.929 . S
H348 C362 0.931 . S
H349 C364 0.930 . S
C350 H338 0.930 . S
C350 C351 1.399 1_565 S
C350 C355 1.399 . S
C351 C350 1.399 1_545 S
C351 C352 1.376 . S
C352 H339 0.930 . S
C352 C351 1.376 . S
C352 C353 1.388 . S
C353 H340 0.930 . S
C353 C352 1.388 . S
C353 C354 1.390 . S
C354 C353 1.390 . S
C354 C355 1.394 1_545 S
C354 C360 1.465 . S
C355 C350 1.399 . S
C355 C354 1.394 1_565 S
C355 C356 1.516 . S
C356 C355 1.516 . S
C356 C357 1.502 1_455 S
C356 C358 1.561 . S
C356 C359 1.526 . S
C357 H341 0.959 . S
C357 H342 0.959 . S
C357 H343 0.961 . S
C357 C356 1.502 1_655 S
C358 H344 0.960 . S
C358 H345 0.961 . S
C358 H346 0.959 . S
C358 C356 1.561 . S
C359 C356 1.526 . S
C359 C360 1.396 1_565 S
C359 C364 1.390 . S
C360 C354 1.465 . S
C360 C359 1.396 1_545 S
C360 C361 1.399 . S
C361 H347 0.929 . S
C361 C360 1.399 . S
C361 C362 1.385 . S
C362 H348 0.931 . S
C362 C361 1.385 . S
C362 C363 1.389 . S
C363 C362 1.389 . S
C363 C364 1.387 1_545 S
C364 H349 0.930 . S
C364 C359 1.390 . S
C364 C363 1.387 1_565 S
H365 C377 0.930 . S
H366 C379 0.930 . S
H367 C380 0.930 . S
H368 C384 0.959 . S
H369 C384 0.959 . S
H370 C384 0.961 . S
H371 C385 0.960 . S
H372 C385 0.961 . S
H373 C385 0.959 1_455 S
H374 C388 0.929 . S
H375 C389 0.931 . S
H376 C391 0.930 . S
C377 H365 0.930 . S
C377 C378 1.399 . S
C377 C382 1.399 . S
C378 C377 1.399 . S
C378 C379 1.376 1_645 S
C379 H366 0.930 . S
C379 C378 1.376 1_465 S
C379 C380 1.388 . S
C380 H367 0.930 . S
C380 C379 1.388 . S
C380 C381 1.390 . S
C381 C380 1.390 . S
C381 C382 1.394 1_465 S
C381 C387 1.465 . S
C382 C377 1.399 . S
C382 C381 1.394 1_645 S
C382 C383 1.516 . S
C383 C382 1.516 . S
C383 C384 1.502 . S
C383 C385 1.561 . S
C383 C386 1.526 . S
C384 H368 0.959 . S
C384 H369 0.959 . S
C384 H370 0.961 . S
C384 C383 1.502 . S
C385 H371 0.960 . S
C385 H372 0.961 . S
C385 H373 0.959 1_655 S
C385 C383 1.561 . S
C386 C383 1.526 . S
C386 C387 1.396 1_645 S
C386 C391 1.390 . S
C387 C381 1.465 . S
C387 C386 1.396 1_465 S
C387 C388 1.399 . S
C388 H374 0.929 . S
C388 C387 1.399 . S
C388 C389 1.385 . S
C389 H375 0.931 . S
C389 C388 1.385 . S
C389 C390 1.391 1_455 S
C390 C389 1.391 1_655 S
C390 C391 1.385 1_565 S
C391 H376 0.930 . S
C391 C386 1.390 . S
C391 C390 1.385 1_545 S
H392 C404 0.930 . S
H393 C406 0.930 . S
H394 C407 0.930 . S
H395 C411 0.959 . S
H396 C411 0.959 . S
H397 C411 0.961 . S
H398 C412 0.960 . S
H399 C412 0.961 . S
H400 C412 0.959 . S
H401 C415 0.929 . S
H402 C416 0.931 . S
H403 C418 0.930 . S
C404 H392 0.930 . S
C404 C405 1.399 . S
C404 C409 1.399 . S
C405 C404 1.399 . S
C405 C406 1.376 . S
C406 H393 0.930 . S
C406 C405 1.376 . S
C406 C407 1.388 . S
C407 H394 0.930 . S
C407 C406 1.388 . S
C407 C408 1.390 . S
C408 C407 1.390 . S
C408 C409 1.394 . S
C408 C414 1.465 . S
C409 C404 1.399 . S
C409 C408 1.394 . S
C409 C410 1.516 . S
C410 C409 1.516 . S
C410 C411 1.502 . S
C410 C412 1.561 . S
C410 C413 1.526 . S
C411 H395 0.959 . S
C411 H396 0.959 . S
C411 H397 0.961 . S
C411 C410 1.502 . S
C412 H398 0.960 . S
C412 H399 0.961 . S
C412 H400 0.959 . S
C412 C410 1.561 . S
C413 C410 1.526 . S
C413 C414 1.396 . S
C413 C418 1.390 . S
C414 C408 1.465 . S
C414 C413 1.396 . S
C414 C415 1.399 . S
C415 H401 0.929 . S
C415 C414 1.399 . S
C415 C416 1.385 . S
C416 H402 0.931 . S
C416 C415 1.385 . S
C416 C417 1.389 . S
C417 C416 1.389 . S
C417 C418 1.387 . S
C418 H403 0.930 . S
C418 C413 1.390 . S
C418 C417 1.387 . S
H419 C431 0.930 . S
H420 C433 0.930 . S
H421 C434 0.930 . S
H422 C438 0.959 . S
H423 C438 0.959 . S
H424 C438 0.961 . S
H425 C439 0.960 . S
H426 C439 0.961 . S
H427 C439 0.959 . S
H428 C442 0.929 . S
H429 C443 0.931 . S
H430 C445 0.930 . S
C431 H419 0.930 . S
C431 C432 1.399 . S
C431 C436 1.399 . S
C432 C431 1.399 . S
C432 C433 1.376 . S
C433 H420 0.930 . S
C433 C432 1.376 . S
C433 C434 1.388 . S
C434 H421 0.930 . S
C434 C433 1.388 . S
C434 C435 1.390 . S
C435 C434 1.390 . S
C435 C436 1.394 . S
C435 C441 1.465 . S
C436 C431 1.399 . S
C436 C435 1.394 . S
C436 C437 1.516 . S
C437 C436 1.516 . S
C437 C438 1.502 . S
C437 C439 1.561 . S
C437 C440 1.526 . S
C438 H422 0.959 . S
C438 H423 0.959 . S
C438 H424 0.961 . S
C438 C437 1.502 . S
C439 H425 0.960 . S
C439 H426 0.961 . S
C439 H427 0.959 . S
C439 C437 1.561 . S
C440 C437 1.526 . S
C440 C441 1.396 . S
C440 C445 1.390 . S
C441 C435 1.465 . S
C441 C440 1.396 . S
C441 C442 1.399 . S
C442 H428 0.929 . S
C442 C441 1.399 . S
C442 C443 1.385 . S
C443 H429 0.931 . S
C443 C442 1.385 . S
C443 C444 1.389 . S
C444 C443 1.389 . S
C444 C445 1.387 . S
C445 H430 0.930 . S
C445 C440 1.390 . S
C445 C444 1.387 . S
C147 C109 1.571 . S
C135 C21 1.586 . S
C162 C19 1.388 . S
C174 C95 1.386 . S
C189 C18 1.334 . S
C201 C114 1.286 . S
C216 C20 1.547 . S
C228 C90 1.558 . S
C243 C44 1.551 . S
C255 C71 1.598 . S
C270 C42 1.378 . S
C282 C57 1.364 . S
C309 C76 1.335 . S
C297 C41 1.368 . S
C336 C52 1.555 . S
C324 C43 1.555 . S
C351 C16 1.558 . S
C363 C48 1.548 1_545 S
C378 C17 1.511 . S
C390 C67 1.505 . S
C417 C86 1.540 . S
C405 C39 1.548 . S
C432 C40 1.516 . S
C444 C105 1.512 . S
