# Generated by pormake.
# Topology ssc, (4,4)-cn, num edge types: 1
# Building blocks:
#     Node 0, Type 0, BuildingBlock: ESEHIV_clean_sbu_0, # of connection points: 4
#     Node 1, Type 0, BuildingBlock: ESEHIV_clean_sbu_0, # of connection points: 4
#     Node 2, Type 0, BuildingBlock: ESEHIV_clean_sbu_0, # of connection points: 4
#     Node 3, Type 0, BuildingBlock: ESEHIV_clean_sbu_0, # of connection points: 4
#     Node 4, Type 0, BuildingBlock: ESEHIV_clean_sbu_0, # of connection points: 4
#     Node 5, Type 0, BuildingBlock: ESEHIV_clean_sbu_0, # of connection points: 4
#     Node 6, Type 0, BuildingBlock: ESEHIV_clean_sbu_0, # of connection points: 4
#     Node 7, Type 0, BuildingBlock: ESEHIV_clean_sbu_0, # of connection points: 4
#     Node 8, Type 0, BuildingBlock: ESEHIV_clean_sbu_0, # of connection points: 4
#     Node 9, Type 0, BuildingBlock: ESEHIV_clean_sbu_0, # of connection points: 4
#     Node 10, Type 0, BuildingBlock: ESEHIV_clean_sbu_0, # of connection points: 4
#     Node 11, Type 0, BuildingBlock: ESEHIV_clean_sbu_0, # of connection points: 4
#     Node 12, Type 1, BuildingBlock: KUFVIS_clean_linker_0, # of connection points: 4
#     Node 13, Type 1, BuildingBlock: KUFVIS_clean_linker_0, # of connection points: 4
#     Node 14, Type 1, BuildingBlock: KUFVIS_clean_linker_0, # of connection points: 4
#     Node 15, Type 1, BuildingBlock: KUFVIS_clean_linker_0, # of connection points: 4
#     Node 16, Type 1, BuildingBlock: KUFVIS_clean_linker_0, # of connection points: 4
#     Node 17, Type 1, BuildingBlock: KUFVIS_clean_linker_0, # of connection points: 4
#     Node 18, Type 1, BuildingBlock: KUFVIS_clean_linker_0, # of connection points: 4
#     Node 19, Type 1, BuildingBlock: KUFVIS_clean_linker_0, # of connection points: 4
#     Node 20, Type 1, BuildingBlock: KUFVIS_clean_linker_0, # of connection points: 4
#     Node 21, Type 1, BuildingBlock: KUFVIS_clean_linker_0, # of connection points: 4
#     Node 22, Type 1, BuildingBlock: KUFVIS_clean_linker_0, # of connection points: 4
#     Node 23, Type 1, BuildingBlock: KUFVIS_clean_linker_0, # of connection points: 4
#     Edge 24, Type (0, 1), BuildingBlock: KIFKEQ_clean_linker_1, # of connection points: 2
#     Edge 25, Type (0, 1), BuildingBlock: KIFKEQ_clean_linker_1, # of connection points: 2
#     Edge 26, Type (0, 1), BuildingBlock: KIFKEQ_clean_linker_1, # of connection points: 2
#     Edge 27, Type (0, 1), BuildingBlock: KIFKEQ_clean_linker_1, # of connection points: 2
#     Edge 28, Type (0, 1), BuildingBlock: KIFKEQ_clean_linker_1, # of connection points: 2
#     Edge 29, Type (0, 1), BuildingBlock: KIFKEQ_clean_linker_1, # of connection points: 2
#     Edge 30, Type (0, 1), BuildingBlock: KIFKEQ_clean_linker_1, # of connection points: 2
#     Edge 31, Type (0, 1), BuildingBlock: KIFKEQ_clean_linker_1, # of connection points: 2
#     Edge 32, Type (0, 1), BuildingBlock: KIFKEQ_clean_linker_1, # of connection points: 2
#     Edge 33, Type (0, 1), BuildingBlock: KIFKEQ_clean_linker_1, # of connection points: 2
#     Edge 34, Type (0, 1), BuildingBlock: KIFKEQ_clean_linker_1, # of connection points: 2
#     Edge 35, Type (0, 1), BuildingBlock: KIFKEQ_clean_linker_1, # of connection points: 2
#     Edge 36, Type (0, 1), BuildingBlock: KIFKEQ_clean_linker_1, # of connection points: 2
#     Edge 37, Type (0, 1), BuildingBlock: KIFKEQ_clean_linker_1, # of connection points: 2
#     Edge 38, Type (0, 1), BuildingBlock: KIFKEQ_clean_linker_1, # of connection points: 2
#     Edge 39, Type (0, 1), BuildingBlock: KIFKEQ_clean_linker_1, # of connection points: 2
#     Edge 40, Type (0, 1), BuildingBlock: KIFKEQ_clean_linker_1, # of connection points: 2
#     Edge 41, Type (0, 1), BuildingBlock: KIFKEQ_clean_linker_1, # of connection points: 2
#     Edge 42, Type (0, 1), BuildingBlock: KIFKEQ_clean_linker_1, # of connection points: 2
#     Edge 43, Type (0, 1), BuildingBlock: KIFKEQ_clean_linker_1, # of connection points: 2
#     Edge 44, Type (0, 1), BuildingBlock: KIFKEQ_clean_linker_1, # of connection points: 2
#     Edge 45, Type (0, 1), BuildingBlock: KIFKEQ_clean_linker_1, # of connection points: 2
#     Edge 46, Type (0, 1), BuildingBlock: KIFKEQ_clean_linker_1, # of connection points: 2
#     Edge 47, Type (0, 1), BuildingBlock: KIFKEQ_clean_linker_1, # of connection points: 2
#     Edge 48, Type (0, 1), BuildingBlock: KIFKEQ_clean_linker_1, # of connection points: 2
#     Edge 49, Type (0, 1), BuildingBlock: KIFKEQ_clean_linker_1, # of connection points: 2
#     Edge 50, Type (0, 1), BuildingBlock: KIFKEQ_clean_linker_1, # of connection points: 2
#     Edge 51, Type (0, 1), BuildingBlock: KIFKEQ_clean_linker_1, # of connection points: 2
#     Edge 52, Type (0, 1), BuildingBlock: KIFKEQ_clean_linker_1, # of connection points: 2
#     Edge 53, Type (0, 1), BuildingBlock: KIFKEQ_clean_linker_1, # of connection points: 2
#     Edge 54, Type (0, 1), BuildingBlock: KIFKEQ_clean_linker_1, # of connection points: 2
#     Edge 55, Type (0, 1), BuildingBlock: KIFKEQ_clean_linker_1, # of connection points: 2
#     Edge 56, Type (0, 1), BuildingBlock: KIFKEQ_clean_linker_1, # of connection points: 2
#     Edge 57, Type (0, 1), BuildingBlock: KIFKEQ_clean_linker_1, # of connection points: 2
#     Edge 58, Type (0, 1), BuildingBlock: KIFKEQ_clean_linker_1, # of connection points: 2
#     Edge 59, Type (0, 1), BuildingBlock: KIFKEQ_clean_linker_1, # of connection points: 2
#     Edge 60, Type (0, 1), BuildingBlock: KIFKEQ_clean_linker_1, # of connection points: 2
#     Edge 61, Type (0, 1), BuildingBlock: KIFKEQ_clean_linker_1, # of connection points: 2
#     Edge 62, Type (0, 1), BuildingBlock: KIFKEQ_clean_linker_1, # of connection points: 2
#     Edge 63, Type (0, 1), BuildingBlock: KIFKEQ_clean_linker_1, # of connection points: 2
#     Edge 64, Type (0, 1), BuildingBlock: KIFKEQ_clean_linker_1, # of connection points: 2
#     Edge 65, Type (0, 1), BuildingBlock: KIFKEQ_clean_linker_1, # of connection points: 2
#     Edge 66, Type (0, 1), BuildingBlock: KIFKEQ_clean_linker_1, # of connection points: 2
#     Edge 67, Type (0, 1), BuildingBlock: KIFKEQ_clean_linker_1, # of connection points: 2
#     Edge 68, Type (0, 1), BuildingBlock: KIFKEQ_clean_linker_1, # of connection points: 2
#     Edge 69, Type (0, 1), BuildingBlock: KIFKEQ_clean_linker_1, # of connection points: 2
#     Edge 70, Type (0, 1), BuildingBlock: KIFKEQ_clean_linker_1, # of connection points: 2
#     Edge 71, Type (0, 1), BuildingBlock: KIFKEQ_clean_linker_1, # of connection points: 2
# Relax obj value: 0.051
# Max RMSD: 0.293
# Mean RMSD: 0.193
data_MOF--net-ssc--node1-ESEHIV_clean_sbu_0--node2-KUFVIS_clean_linker_0--edge1-KIFKEQ_clean_linker_1
_symmetry_space_group_name_H-M    P1
_symmetry_Int_Tables_number       1
_symmetry_cell_setting            triclinic
loop_
_symmetry_equiv_pos_as_xyz
'x, y, z'
_cell_length_a     33.292963
_cell_length_b     33.417319
_cell_length_c     33.293227
_cell_angle_alpha  89.829966
_cell_angle_beta   93.068243
_cell_angle_gamma 96.438088
loop_
_atom_site_label
_atom_site_type_symbol
_atom_site_fract_x
_atom_site_fract_y
_atom_site_fract_z
_atom_type_partial_charge
Cu0 Cu 0.02281 0.27873 0.16275 0.0
N1 N 0.9682 0.27129 0.1753 0.0
N2 N 0.91148 0.26267 0.20899 0.0
C3 C 0.95215 0.27195 0.21167 0.0
C4 C 0.90163 0.25613 0.16956 0.0
C5 C 0.93657 0.26181 0.14887 0.0
O6 O 0.05746 0.27591 0.21171 0.0
C7 C 0.0158 0.20205 0.12389 0.0
O8 O 0.99108 0.19095 0.15234 0.0
H9 H 0.97002 0.27754 0.23963 0.0
H10 H 0.93898 0.2582 0.11684 0.0
N11 N 0.0333 0.32982 0.13975 0.0
N12 N 0.04019 0.38028 0.09522 0.0
C13 C 0.02937 0.3404 0.10067 0.0
C14 C 0.04677 0.36404 0.15967 0.0
C15 C 0.05114 0.39508 0.13238 0.0
C16 C 0.09519 0.2725 0.21117 0.0
O17 O 0.11152 0.26975 0.17636 0.0
H18 H 0.0196 0.31912 0.07672 0.0
H19 H 0.05315 0.36618 0.19185 0.0
O20 O 0.03321 0.23802 0.12371 0.0
H21 H 0.87137 0.24731 0.15672 0.0
H22 H 0.06153 0.42619 0.13939 0.0
Cu23 Cu 0.02874 0.77924 0.39595 0.0
N24 N 0.02437 0.83159 0.41422 0.0
N25 N 0.0217 0.8851 0.454 0.0
C26 C 0.02643 0.84542 0.45244 0.0
C27 C 0.0168 0.89656 0.41533 0.0
C28 C 0.0187 0.86366 0.39093 0.0
O29 O 0.02242 0.74141 0.44076 0.0
C30 C 0.95474 0.77678 0.34674 0.0
O31 O 0.94211 0.79772 0.37594 0.0
H32 H 0.03051 0.82664 0.47856 0.0
H33 H 0.01593 0.86302 0.35841 0.0
N34 N 0.08076 0.77824 0.37773 0.0
N35 N 0.13206 0.77331 0.33791 0.0
C36 C 0.09213 0.7771 0.33949 0.0
C37 C 0.11457 0.77547 0.40103 0.0
C38 C 0.14615 0.77223 0.3766 0.0
C39 C 0.03009 0.70503 0.43779 0.0
O40 O 0.0396 0.69189 0.40276 0.0
H41 H 0.07125 0.77728 0.31343 0.0
H42 H 0.11583 0.77468 0.43356 0.0
O43 O 0.98987 0.76499 0.35051 0.0
H44 H 1.01245 0.92662 0.40539 0.0
H45 H 0.1769 0.76859 0.38657 0.0
Cu46 Cu 0.5241 0.78005 0.6493 0.0
N47 N 0.5361 0.83355 0.63287 0.0
N48 N 0.54305 0.88963 0.59569 0.0
C49 C 0.53028 0.84971 0.59609 0.0
C50 C 0.55716 0.89882 0.6337 0.0
C51 C 0.55268 0.86428 0.65651 0.0
O52 O 0.52267 0.7443 0.6029 0.0
C53 C 0.60221 0.76724 0.68157 0.0
O54 O 0.61242 0.77396 0.64436 0.0
H55 H 0.51787 0.83238 0.56999 0.0
H56 H 0.56113 0.86163 0.68816 0.0
N57 N 0.47316 0.77544 0.67133 0.0
N58 N 0.42284 0.76461 0.71363 0.0
C59 C 0.46247 0.76183 0.7079 0.0
C60 C 0.43937 0.78731 0.6534 0.0
C61 C 0.40836 0.78066 0.67924 0.0
C62 C 0.52372 0.70637 0.60566 0.0
O63 O 0.52631 0.68991 0.64146 0.0
H64 H 0.48333 0.74995 0.72965 0.0
H65 H 0.43759 0.8004 0.62368 0.0
O66 O 0.56532 0.76769 0.68985 0.0
H67 H 0.56979 0.92842 0.64428 0.0
H68 H 0.3777 0.78782 0.67326 0.0
Cu69 Cu 0.49659 0.28928 0.89351 0.0
N70 N 0.45012 0.30445 0.91513 0.0
N71 N 0.41925 0.33761 0.96059 0.0
C72 C 0.45044 0.33882 0.93626 0.0
C73 C 0.39839 0.30088 0.95444 0.0
C74 C 0.41735 0.28059 0.92619 0.0
O75 O 0.52057 0.2568 0.93544 0.0
C76 C 0.53075 0.36201 0.85415 0.0
O77 O 0.55892 0.39269 0.85222 0.0
H78 H 0.47566 0.36233 0.93724 0.0
H79 H 0.41019 0.2493 0.91766 0.0
N80 N 0.48898 0.26223 0.8441 0.0
N81 N 0.50477 0.24835 0.7814 0.0
C82 C 0.51886 0.26098 0.81857 0.0
C83 C 0.45462 0.24905 0.82278 0.0
C84 C 0.46428 0.24031 0.7841 0.0
C85 C 0.50506 0.22138 0.94422 0.0
O86 O 0.47488 0.20391 0.92122 0.0
H87 H 0.55011 0.27163 0.82671 0.0
H88 H 0.42454 0.2487 0.83363 0.0
O89 O 0.53172 0.33873 0.88465 0.0
H90 H 0.37332 0.28823 0.9715 0.0
H91 H 0.44283 0.23138 0.75932 0.0
Cu92 Cu 0.13752 1.00414 0.31443 0.0
N93 N 0.10506 1.00495 0.35922 0.0
N94 N 0.05291 0.01025 0.39826 0.0
C95 C 0.06572 0.01156 0.36026 0.0
C96 C 0.0851 1.00198 0.4218 0.0
C97 C 0.1171 0.99873 0.39776 0.0
O98 O 0.10296 1.00709 0.26525 0.0
C99 C 0.1746 0.08622 0.32187 0.0
O100 O 0.13755 0.09543 0.32499 0.0
H101 H 0.04707 0.01782 0.33385 0.0
H102 H 0.14713 0.99213 0.40765 0.0
N103 N 0.16276 0.95624 0.31522 0.0
N104 N 0.20892 0.91259 0.30916 0.0
C105 C 0.20069 0.95131 0.30501 0.0
C106 C 0.14652 0.9195 0.32644 0.0
C107 C 0.17473 0.89262 0.32271 0.0
C108 C 0.11003 0.99141 0.23185 0.0
O109 O 0.14262 0.97294 0.22941 0.0
H110 H 0.22149 0.9756 0.29407 0.0
H111 H 0.11623 0.91275 0.33672 0.0
O112 O 0.1803 0.04946 0.31715 0.0
H113 H 0.08514 0.99788 0.45405 0.0
H114 H 0.1704 0.86089 0.32993 0.0
Cu115 Cu 0.27639 0.92971 0.5251 0.0
N116 N 0.28525 0.91285 0.4733 0.0
N117 N 0.29175 0.87191 0.4217 0.0
C118 C 0.27858 0.87488 0.45914 0.0
C119 C 0.30718 0.90954 0.41193 0.0
C120 C 0.30296 0.93478 0.4438 0.0
O121 O 0.28146 0.88452 0.56126 0.0
C122 C 0.35337 0.97467 0.54133 0.0
O123 O 0.36765 0.94036 0.53456 0.0
H124 H 0.26616 0.84962 0.47675 0.0
H125 H 0.31328 0.96661 0.44589 0.0
N126 N 0.22392 0.94444 0.52628 0.0
N127 N 0.17115 0.98056 0.52419 0.0
C128 C 0.2108 0.98033 0.5172 0.0
C129 C 0.19153 0.92119 0.53907 0.0
C130 C 0.15905 0.94338 0.53799 0.0
C131 C 0.28014 0.88707 0.59928 0.0
O132 O 0.27692 0.92224 0.61563 0.0
H133 H 0.23029 1.00615 0.50721 0.0
H134 H 0.19183 0.89049 0.54937 0.0
O135 O 0.31521 0.97582 0.53977 0.0
H136 H 0.32128 0.91801 0.38414 0.0
H137 H 0.12905 0.9331 0.54723 0.0
Cu138 Cu 0.41143 0.02133 0.76597 0.0
N139 N 0.44781 0.98442 0.75602 0.0
N140 N 0.50106 0.95311 0.77736 0.0
C141 C 0.46914 0.97143 0.78787 0.0
C142 C 0.499 0.95355 0.73662 0.0
C143 C 0.46596 0.97297 0.72347 0.0
O144 O 0.44285 0.06253 0.79919 0.0
C145 C 0.34721 0.9624 0.77744 0.0
O146 O 0.35608 0.95297 0.74091 0.0
H147 H 0.46374 0.97958 0.81838 0.0
H148 H 0.45811 0.98118 0.69284 0.0
N149 N 0.38656 0.04819 0.72376 0.0
N150 N 0.34553 0.09184 0.69799 0.0
C151 C 0.3638 0.07784 0.73153 0.0
C152 C 0.383 0.04302 0.68363 0.0
C153 C 0.3578 0.07008 0.66762 0.0
C154 C 0.47942 0.07705 0.79403 0.0
O155 O 0.49804 0.10214 0.82104 0.0
H156 H 0.36047 0.08846 0.76169 0.0
H157 H 0.39678 0.02065 0.66733 0.0
O158 O 0.36805 0.99222 0.79513 0.0
H159 H 0.52119 0.94318 0.71771 0.0
H160 H 0.34818 0.07242 0.63623 0.0
Cu161 Cu 0.2875 0.17378 0.03895 0.0
N162 N 0.29021 0.20301 0.99089 0.0
N163 N 0.29062 0.25233 0.94515 0.0
C164 C 0.28806 0.24268 0.98455 0.0
C165 C 0.29485 0.21747 0.92628 0.0
C166 C 0.29469 0.18726 0.9545 0.0
O167 O 0.27449 0.20889 0.08198 0.0
C168 C 0.22554 0.1118 0.06038 0.0
O169 O 0.23575 0.12338 0.09754 0.0
H170 H 0.2838 0.26379 1.00812 0.0
H171 H 0.29743 0.15583 0.94894 0.0
N172 N 0.33838 0.15574 0.04984 0.0
N173 N 0.3889 0.11708 0.05866 0.0
C174 C 0.3489 0.1179 0.04928 0.0
C175 C 0.37291 0.17953 0.05938 0.0
C176 C 0.40402 0.15581 0.06512 0.0
C177 C 0.28806 0.20625 0.11829 0.0
O178 O 0.31188 0.17857 0.12804 0.0
H179 H 0.32759 0.0915 0.04286 0.0
H180 H 0.37518 0.21197 0.06213 0.0
O181 O 0.24472 0.12886 0.03166 0.0
H182 H 0.29789 0.21405 0.8943 0.0
H183 H 0.43538 0.16625 0.07318 0.0
Cu184 Cu 0.79773 0.44714 0.02462 0.0
N185 N 0.84097 0.42617 1.00105 0.0
N186 N 0.87022 0.38701 0.95905 0.0
C187 C 0.83515 0.39646 0.97328 0.0
C188 C 0.89936 0.41184 0.97921 0.0
C189 C 0.88129 0.43585 1.00509 0.0
O190 O 0.77765 0.40886 0.06528 0.0
C191 C 0.75862 0.48169 0.95609 0.0
O192 O 0.72787 0.48393 0.93016 0.0
H193 H 0.80542 0.38209 0.96389 0.0
H194 H 0.89645 0.45904 0.02485 0.0
N195 N 0.80614 0.4986 0.04822 0.0
N196 N 0.7863 0.55828 0.0645 0.0
C197 C 0.77461 0.51956 0.05393 0.0
C198 C 0.8394 0.52459 0.05663 0.0
C199 C 0.82722 0.56143 0.06683 0.0
C200 C 0.80251 0.39637 0.09167 0.0
O201 O 0.84105 0.40998 0.09093 0.0
H202 H 0.74349 0.50685 0.04829 0.0
H203 H 0.87012 0.51811 0.05326 0.0
O204 O 0.7575 0.45221 0.9808 0.0
H205 H 0.93146 0.41324 0.97522 0.0
H206 H 0.84701 0.58892 0.07296 0.0
Cu207 Cu 0.90326 0.52861 0.30339 0.0
N208 N 0.9258 0.51646 0.35407 0.0
N209 N 0.96961 0.50797 0.40586 0.0
C210 C 0.96498 0.52084 0.3675 0.0
C211 C 0.93191 0.49545 0.41702 0.0
C212 C 0.90499 0.50096 0.38513 0.0
O213 O 0.94285 0.52773 0.26168 0.0
C214 C 0.85187 0.45336 0.29659 0.0
O215 O 0.88443 0.43653 0.30789 0.0
H216 H 0.98966 0.53196 0.34911 0.0
H217 H 0.87247 0.49368 0.38439 0.0
N218 N 0.88716 0.58042 0.30648 0.0
N219 N 0.849 0.63128 0.31008 0.0
C220 C 0.84921 0.59089 0.3077 0.0
C221 C 0.91169 0.61526 0.30855 0.0
C222 C 0.88828 0.64663 0.31065 0.0
C223 C 0.96728 0.50109 0.25932 0.0
O224 O 0.96573 0.47153 0.28548 0.0
H225 H 0.82231 0.56939 0.30608 0.0
H226 H 0.94437 0.61761 0.30857 0.0
O227 O 0.85456 0.49139 0.29162 0.0
H228 H 0.92438 0.48289 0.44603 0.0
H229 H 0.89928 0.67827 0.31285 0.0
Cu230 Cu 0.79133 0.68979 0.52871 0.0
N231 N 0.78303 0.71785 0.48067 0.0
N232 N 0.77562 0.766 0.4348 0.0
C233 C 0.78422 0.75788 0.474 0.0
C234 C 0.76916 0.7298 0.41633 0.0
C235 C 0.77389 0.70031 0.44454 0.0
O236 O 0.79592 0.72656 0.57492 0.0
C237 C 0.711 0.64783 0.52119 0.0
O238 O 0.70041 0.68231 0.50768 0.0
H239 H 0.79024 0.78044 0.49746 0.0
H240 H 0.77054 0.66815 0.43924 0.0
N241 N 0.84032 0.66729 0.52603 0.0
N242 N 0.88627 0.62302 0.5243 0.0
C243 C 0.84662 0.62807 0.52706 0.0
C244 C 0.87704 0.68778 0.52239 0.0
C245 C 0.90534 0.66074 0.52138 0.0
C246 C 0.76869 0.74825 0.58439 0.0
O247 O 0.73429 0.74563 0.56281 0.0
H248 H 0.82246 0.60385 0.52961 0.0
H249 H 0.88282 0.72025 0.52087 0.0
O250 O 0.74781 0.64557 0.53284 0.0
H251 H 0.76154 0.72506 0.38464 0.0
H252 H 0.9376 0.66854 0.51958 0.0
Cu253 Cu 0.6604 0.51156 0.78808 0.0
N254 N 0.63086 0.50171 0.83439 0.0
N255 N 0.58125 0.4976 0.87793 0.0
C256 C 0.59363 0.5115 0.84176 0.0
C257 C 0.61197 0.47826 0.89359 0.0
C258 C 0.64224 0.4807 0.86671 0.0
O259 O 0.62206 0.52041 0.74343 0.0
C260 C 0.72163 0.57399 0.76806 0.0
O261 O 0.71918 0.55545 0.73319 0.0
H262 H 0.57607 0.52849 0.82099 0.0
H263 H 0.67032 0.46731 0.87002 0.0
N264 N 0.68644 0.46577 0.77805 0.0
N265 N 0.73262 0.42289 0.7698 0.0
C266 C 0.72631 0.46105 0.77926 0.0
C267 C 0.66707 0.42942 0.76795 0.0
C268 C 0.69532 0.40306 0.7627 0.0
C269 C 0.62803 0.51422 0.70658 0.0
O270 O 0.66172 0.50048 0.69703 0.0
H271 H 0.75013 0.48524 0.78608 0.0
H272 H 0.63452 0.42267 0.76448 0.0
O273 O 0.6995 0.55952 0.79593 0.0
H274 H 0.61224 0.46248 0.92202 0.0
H275 H 0.68882 0.37161 0.75443 0.0
H276 H 0.96272 0.40175 0.6447 0.0
H277 H 1.01152 0.29497 0.68843 0.0
H278 H 0.04619 0.34715 0.57446 0.0
H279 H 0.02495 0.26018 0.5723 0.0
H280 H 0.12995 0.20229 0.60805 0.0
H281 H 0.10087 0.30251 0.67689 0.0
C282 C 0.98282 0.37864 0.6415 0.0
C283 C 1.00445 0.37821 0.6068 0.0
C284 C 0.98484 0.349 0.67108 0.0
C285 C 1.01008 0.31837 0.66596 0.0
C286 C 0.03295 0.31772 0.63129 0.0
C287 C 0.02953 0.34767 0.60151 0.0
C288 C 0.05951 0.28526 0.62544 0.0
C289 C 0.05113 0.25808 0.59266 0.0
C290 C 0.07677 0.22822 0.58641 0.0
C291 C 0.11038 0.22562 0.61273 0.0
C292 C 0.11951 0.25197 0.64505 0.0
C293 C 0.09387 0.28182 0.65185 0.0
H294 H 0.90389 0.70274 0.89293 0.0
H295 H 1.00715 0.74602 0.96978 0.0
H296 H 0.97842 0.80982 0.86023 0.0
H297 H 0.06781 0.79072 0.87871 0.0
H298 H 0.12511 0.89188 0.94767 0.0
H299 H 1.00429 0.84254 0.97224 0.0
C300 C 0.92977 0.72504 0.89965 0.0
C301 C 0.93803 0.75669 0.87298 0.0
C302 C 0.95435 0.72053 0.93409 0.0
C303 C 0.98782 0.74933 0.94302 0.0
C304 C 0.99667 0.78201 0.91644 0.0
C305 C 0.97176 0.78526 0.88103 0.0
C306 C 0.03226 0.81233 0.92518 0.0
C307 C 0.06706 0.81261 0.90254 0.0
C308 C 0.10112 0.84078 0.91131 0.0
C309 C 0.09951 0.86915 0.94177 0.0
C310 C 0.06494 0.87035 0.9635 0.0
C311 C 0.03123 0.84167 0.95552 0.0
H312 H 0.43471 0.87681 0.17584 0.0
H313 H 0.49662 0.78523 0.2347 0.0
H314 H 0.54856 0.85062 0.13368 0.0
H315 H 0.56176 0.77842 0.12218 0.0
H316 H 0.65644 0.73001 0.19258 0.0
H317 H 0.57218 0.79468 0.25184 0.0
C318 C 0.46019 0.8591 0.17778 0.0
C319 C 0.491 0.86672 0.15098 0.0
C320 C 0.46185 0.8302 0.20791 0.0
C321 C 0.49541 0.80783 0.21141 0.0
C322 C 0.52694 0.81431 0.18412 0.0
C323 C 0.52448 0.84442 0.15422 0.0
C324 C 0.56249 0.79014 0.18666 0.0
C325 C 0.57701 0.77429 0.15122 0.0
C326 C 0.61109 0.75269 0.15356 0.0
C327 C 0.63034 0.74693 0.19087 0.0
C328 C 0.61651 0.76135 0.22618 0.0
C329 C 0.58253 0.78305 0.22435 0.0
H330 H 0.40945 0.20432 0.44193 0.0
H331 H 0.52851 0.26502 0.46852 0.0
H332 H 0.45099 0.30895 0.3738 0.0
H333 H 0.55376 0.29173 0.36916 0.0
H334 H 0.61136 0.41081 0.39665 0.0
H335 H 0.50608 0.36442 0.45855 0.0
C336 C 0.43256 0.22902 0.43636 0.0
C337 C 0.42551 0.25642 0.40568 0.0
C338 C 0.46949 0.23163 0.45875 0.0
C339 C 0.49982 0.26299 0.45123 0.0
C340 C 0.49311 0.29149 0.42098 0.0
C341 C 0.45603 0.28772 0.39772 0.0
C342 C 0.52522 0.32479 0.41356 0.0
C343 C 0.55468 0.31982 0.38556 0.0
C344 C 0.58568 0.35104 0.37939 0.0
C345 C 0.58697 0.38701 0.40099 0.0
C346 C 0.55869 0.39212 0.42959 0.0
C347 C 0.52779 0.36085 0.43606 0.0
H348 H 0.65328 0.98887 0.38211 0.0
H349 H 0.70749 0.04944 0.28106 0.0
H350 H 0.59215 0.07897 0.31974 0.0
H351 H 0.59275 0.07233 0.23417 0.0
H352 H 0.64469 0.18383 0.18414 0.0
H353 H 0.70447 0.13401 0.28689 0.0
C354 C 0.65253 0.01114 0.35832 0.0
C355 C 0.61931 0.03303 0.35392 0.0
C356 C 0.68439 0.01667 0.33255 0.0
C357 C 0.68298 0.04513 0.30133 0.0
C358 C 0.64968 0.06799 0.29642 0.0
C359 C 0.61773 0.06159 0.32293 0.0
C360 C 0.64872 0.09931 0.26444 0.0
C361 C 0.61648 0.09736 0.23464 0.0
C362 C 0.61509 0.12795 0.20553 0.0
C363 C 0.64561 0.16029 0.20664 0.0
C364 C 0.67768 0.16276 0.23559 0.0
C365 C 0.67964 0.13202 0.2643 0.0
H366 H 0.19059 0.38195 0.448 0.0
H367 H 0.26491 0.44047 0.54484 0.0
H368 H 0.30268 0.33708 0.48544 0.0
H369 H 0.30677 0.346 0.58692 0.0
H370 H 0.42623 0.40719 0.61036 0.0
H371 H 0.35271 0.44314 0.50974 0.0
C372 C 0.21747 0.38343 0.46815 0.0
C373 C 0.24526 0.35558 0.46375 0.0
C374 C 0.22428 0.41406 0.497 0.0
C375 C 0.25925 0.41643 0.52278 0.0
C376 C 0.28754 0.38836 0.51914 0.0
C377 C 0.28056 0.35803 0.48926 0.0
C378 C 0.32584 0.39291 0.5444 0.0
C379 C 0.33104 0.36834 0.5786 0.0
C380 C 0.36758 0.37349 0.60233 0.0
C381 C 0.39841 0.40265 0.59152 0.0
C382 C 0.39335 0.42786 0.55855 0.0
C383 C 0.35692 0.42326 0.53503 0.0
H384 H 0.95273 0.16105 0.87314 0.0
H385 H 0.89495 0.11912 0.76027 0.0
H386 H 0.9703 0.04367 0.82972 0.0
H387 H 0.98017 0.06577 0.72921 0.0
H388 H 0.9103 0.95973 0.67973 0.0
H389 H 0.8694 0.01726 0.7828 0.0
C390 C 0.94735 0.13792 0.85002 0.0
C391 C 0.96485 0.10203 0.85524 0.0
C392 C 0.92226 0.14451 0.81632 0.0
C393 C 0.91434 0.11424 0.7866 0.0
C394 C 0.93202 0.07768 0.79102 0.0
C395 C 0.95692 0.07163 0.82581 0.0
C396 C 0.92515 0.04586 0.75933 0.0
C397 C 0.95372 0.04371 0.72956 0.0
C398 C 0.94842 0.01232 0.70095 0.0
C399 C 0.91445 0.98384 0.7019 0.0
C400 C 0.88593 0.98525 0.73092 0.0
C401 C 0.89121 0.01629 0.75989 0.0
H402 H 0.34424 0.60179 0.92356 0.0
H403 H 0.30629 0.55714 0.03832 0.0
H404 H 0.25817 0.66157 0.98553 0.0
H405 H 0.27553 0.6738 0.06475 0.0
H406 H 0.18219 0.62211 0.13941 0.0
H407 H 0.2208 0.55116 0.04435 0.0
C408 C 0.32515 0.60319 0.94888 0.0
C409 C 0.30053 0.63421 0.95057 0.0
C410 C 0.328 0.57572 0.98032 0.0
C411 C 0.30398 0.57818 0.0137 0.0
C412 C 0.27779 0.60873 0.01558 0.0
C413 C 0.2771 0.63731 0.98412 0.0
C414 C 0.25202 0.61179 0.05069 0.0
C415 C 0.25441 0.6483 0.07269 0.0
C416 C 0.22914 0.65188 0.10471 0.0
C417 C 0.20182 0.61912 0.11479 0.0
C418 C 0.19841 0.58293 0.09348 0.0
C419 C 0.22368 0.57903 0.06135 0.0
H420 H 0.71888 0.85797 0.88734 0.0
H421 H 0.76111 0.9096 1.00182 0.0
H422 H 0.81784 0.81111 0.95289 0.0
H423 H 0.7999 0.80438 0.04112 0.0
H424 H 0.89962 0.86879 0.10961 0.0
H425 H 0.85214 0.92177 1.00218 0.0
C426 C 0.73993 0.85896 0.91355 0.0
C427 C 0.76888 0.83195 0.9162 0.0
C428 C 0.73655 0.88658 0.94398 0.0
C429 C 0.76349 0.88798 0.97812 0.0
C430 C 0.79325 0.86075 0.98165 0.0
C431 C 0.79538 0.83222 0.95061 0.0
C432 C 0.82255 0.86275 0.01724 0.0
C433 C 0.82197 0.83064 0.04523 0.0
C434 C 0.85004 0.83285 0.0786 0.0
C435 C 0.87816 0.86694 0.08372 0.0
C436 C 0.87921 0.89896 0.05671 0.0
C437 C 0.85137 0.89699 0.02331 0.0
H438 H 0.39433 0.63214 0.38073 0.0
H439 H 0.3288 0.5835 0.27394 0.0
H440 H 0.42598 0.52304 0.32889 0.0
H441 H 0.41468 0.54282 0.22761 0.0
H442 H 0.34248 0.43571 0.18423 0.0
H443 H 0.32061 0.48419 0.29936 0.0
C444 C 0.38941 0.60911 0.35748 0.0
C445 C 0.41382 0.57769 0.35823 0.0
C446 C 0.35885 0.61152 0.32739 0.0
C447 C 0.35265 0.58193 0.2972 0.0
C448 C 0.37669 0.54974 0.29763 0.0
C449 C 0.40748 0.54775 0.32824 0.0
C450 C 0.36828 0.51759 0.26684 0.0
C451 C 0.39034 0.51902 0.23162 0.0
C452 C 0.38059 0.4894 0.20172 0.0
C453 C 0.34916 0.45897 0.20712 0.0
C454 C 0.32748 0.45661 0.24196 0.0
C455 C 0.33718 0.48589 0.27215 0.0
H456 H 0.82046 0.13177 0.42415 0.0
H457 H 0.75986 0.07547 0.52388 0.0
H458 H 0.71866 0.18214 0.46732 0.0
H459 H 0.70628 0.19583 0.53242 0.0
H460 H 0.61257 0.13535 0.60011 0.0
H461 H 0.69152 0.06508 0.54001 0.0
C462 C 0.79647 0.1306 0.44515 0.0
C463 C 0.77051 0.16045 0.44333 0.0
C464 C 0.79251 0.09939 0.47313 0.0
C465 C 0.76209 0.09894 0.50138 0.0
C466 C 0.7349 0.1291 0.50025 0.0
C467 C 0.73927 0.15931 0.4701 0.0
C468 C 0.7021 0.13008 0.52996 0.0
C469 C 0.69009 0.16774 0.54179 0.0
C470 C 0.6573 0.1693 0.56635 0.0
C471 C 0.63704 0.13373 0.57999 0.0
C472 C 0.64974 0.09646 0.57202 0.0
C473 C 0.68226 0.09425 0.54672 0.0
H474 H 0.15758 0.46535 0.879 0.0
H475 H 0.21753 0.52652 0.7815 0.0
H476 H 0.09501 0.54712 0.80598 0.0
H477 H 0.10385 0.53898 0.72248 0.0
H478 H 0.15937 0.64625 0.66729 0.0
H479 H 0.20863 0.60797 0.7809 0.0
C480 C 0.15742 0.48646 0.85413 0.0
C481 C 0.12257 0.50504 0.84511 0.0
C482 C 0.19181 0.494 0.83185 0.0
C483 C 0.1911 0.52079 0.79918 0.0
C484 C 0.15617 0.54026 0.78947 0.0
C485 C 0.12181 0.53217 0.81274 0.0
C486 C 0.15625 0.56979 0.75579 0.0
C487 C 0.12695 0.56458 0.72317 0.0
C488 C 0.12856 0.59195 0.69084 0.0
C489 C 0.15847 0.62482 0.69192 0.0
C490 C 0.18703 0.63095 0.72415 0.0
C491 C 0.18629 0.60327 0.75597 0.0
H492 H 0.08878 0.44863 0.07962 0.0
H493 H 0.99552 0.36237 0.02537 0.0
H494 H 0.0945 0.48406 0.01634 0.0
H495 H 1.00108 0.39812 0.96152 0.0
H496 H 0.0737 0.43506 0.84847 0.0
H497 H 0.04467 0.40754 0.90935 0.0
H498 H 0.06897 0.52471 0.96596 0.0
H499 H 0.09982 0.55145 0.90503 0.0
C500 C 0.06881 0.43763 0.05439 0.0
C501 C 0.04181 0.40239 0.05776 0.0
C502 C 0.07191 0.45822 0.01786 0.0
C503 C 0.04803 0.44431 0.98344 0.0
C504 C 0.02021 0.40964 0.98712 0.0
C505 C 0.01714 0.38896 0.02376 0.0
C506 C 0.07086 0.45535 0.87324 0.0
C507 C 0.08884 0.49539 0.872 0.0
C508 C 0.05447 0.43951 0.90851 0.0
C509 C 0.05545 0.4635 0.94334 0.0
C510 C 0.06883 0.50493 0.94024 0.0
C511 C 0.08562 0.52064 0.90498 0.0
H512 H 0.96637 0.72812 0.28303 0.0
H513 H 0.88768 0.81273 0.32234 0.0
H514 H 0.93069 0.72442 0.21717 0.0
H515 H 0.85388 0.8115 0.25602 0.0
H516 H 0.79572 0.81282 0.13618 0.0
H517 H 0.81321 0.78578 0.20238 0.0
H518 H 0.92893 0.76169 0.16028 0.0
H519 H 0.90991 0.78604 0.09434 0.0
C520 C 0.94143 0.74598 0.2776 0.0
C521 C 0.93034 0.77114 0.30791 0.0
C522 C 0.92099 0.74411 0.23959 0.0
C523 C 0.88962 0.76829 0.23032 0.0
C524 C 0.87739 0.79197 0.26148 0.0
C525 C 0.89719 0.79306 0.29974 0.0
C526 C 0.82382 0.7995 0.14068 0.0
C527 C 0.85146 0.80151 0.11016 0.0
C528 C 0.83445 0.78491 0.17898 0.0
C529 C 0.87331 0.7728 0.1877 0.0
C530 C 0.89877 0.77052 0.15547 0.0
C531 C 0.88781 0.78437 0.11722 0.0
H532 H 0.51792 0.62367 0.60033 0.0
H533 H 0.51986 0.73097 0.52736 0.0
H534 H 0.50428 0.58209 0.53965 0.0
H535 H 0.50563 0.68962 0.46733 0.0
H536 H 0.48989 0.61624 0.3603 0.0
H537 H 0.52855 0.64118 0.42142 0.0
H538 H 0.44371 0.5691 0.49324 0.0
H539 H 0.40568 0.54398 0.43197 0.0
C540 C 0.51585 0.63843 0.57141 0.0
C541 C 0.51944 0.68077 0.56883 0.0
C542 C 0.50795 0.61454 0.53668 0.0
C543 C 0.50367 0.6324 0.49861 0.0
C544 C 0.50928 0.67469 0.496 0.0
C545 C 0.51702 0.69852 0.53059 0.0
C546 C 0.48092 0.60412 0.3891 0.0
C547 C 0.44509 0.57797 0.39151 0.0
C548 C 0.50262 0.61886 0.42416 0.0
C549 C 0.48863 0.60799 0.46227 0.0
C550 C 0.45541 0.57816 0.46446 0.0
C551 C 0.4337 0.56347 0.42934 0.0
H552 H 0.4846 0.20468 0.71314 0.0
H553 H 0.57716 0.29167 0.76762 0.0
H554 H 0.52436 0.20187 0.65421 0.0
H555 H 0.61669 0.28917 0.70859 0.0
H556 H 0.59012 0.20545 0.54579 0.0
H557 H 0.55176 0.23567 0.59582 0.0
H558 H 0.65589 0.24159 0.67969 0.0
H559 H 0.69406 0.21222 0.62925 0.0
C560 C 0.51307 0.22371 0.71238 0.0
C561 C 0.52764 0.24801 0.74559 0.0
C562 C 0.53587 0.22236 0.67834 0.0
C563 C 0.57385 0.24543 0.67641 0.0
C564 C 0.58785 0.27066 0.7091 0.0
C565 C 0.56513 0.27189 0.74319 0.0
C566 C 0.60557 0.21581 0.57397 0.0
C567 C 0.64511 0.20655 0.58363 0.0
C568 C 0.58326 0.23214 0.6031 0.0
C569 C 0.6002 0.23973 0.64236 0.0
C570 C 0.64166 0.23601 0.64993 0.0
C571 C 0.66394 0.21972 0.62073 0.0
H572 H 0.0176 0.7239 0.51601 0.0
H573 H 0.05001 0.6277 0.44225 0.0
H574 H 0.03125 0.68514 0.57612 0.0
H575 H 0.06286 0.58842 0.50231 0.0
H576 H 0.14465 0.56773 0.61666 0.0
H577 H 0.11216 0.58784 0.55396 0.0
H578 H 0.01726 0.63112 0.62007 0.0
H579 H 0.05136 0.61216 0.68311 0.0
C580 C 0.02693 0.69413 0.51255 0.0
C581 C 0.03313 0.67923 0.47419 0.0
C582 C 0.03446 0.67157 0.54716 0.0
C583 C 0.04843 0.63339 0.54447 0.0
C584 C 0.05284 0.61785 0.50587 0.0
C585 C 0.04521 0.64036 0.47127 0.0
C586 C 0.11585 0.57985 0.61756 0.0
C587 C 0.10037 0.58812 0.65468 0.0
C588 C 0.09715 0.59171 0.5815 0.0
C589 C 0.06241 0.61224 0.58165 0.0
C590 C 0.04458 0.61652 0.61869 0.0
C591 C 0.06356 0.60485 0.65486 0.0
H592 H 0.68432 0.77051 0.67518 0.0
H593 H 0.59184 0.75428 0.76173 0.0
H594 H 0.73665 0.77163 0.72968 0.0
H595 H 0.64377 0.75576 0.81599 0.0
H596 H 0.73417 0.75457 0.91207 0.0
H597 H 0.69886 0.72582 0.85075 0.0
H598 H 0.76023 0.82116 0.78131 0.0
H599 H 0.79611 0.84873 0.84236 0.0
C600 C 0.67512 0.76668 0.70577 0.0
C601 C 0.63384 0.76292 0.71408 0.0
C602 C 0.70515 0.76728 0.73702 0.0
C603 C 0.69457 0.76382 0.77735 0.0
C604 C 0.65321 0.75785 0.78535 0.0
C605 C 0.62328 0.75743 0.75418 0.0
C606 C 0.7421 0.76765 0.88335 0.0
C607 C 0.76792 0.80378 0.88195 0.0
C608 C 0.72114 0.75181 0.84827 0.0
C609 C 0.72561 0.77195 0.81126 0.0
C610 C 0.75578 0.80484 0.80917 0.0
C611 C 0.77686 0.82046 0.84419 0.0
H612 H 0.43707 0.41872 0.95918 0.0
H613 H 0.39449 0.31988 0.03537 0.0
H614 H 0.43749 0.46539 0.01628 0.0
H615 H 0.3951 0.36642 0.09188 0.0
H616 H 0.44364 0.44686 0.19353 0.0
H617 H 0.45665 0.41329 0.13118 0.0
H618 H 0.37793 0.48681 0.06463 0.0
H619 H 0.36411 0.51969 0.12744 0.0
C620 C 0.42758 0.40707 0.98797 0.0
C621 C 0.41569 0.36561 0.99278 0.0
C622 C 0.42779 0.43376 0.02042 0.0
C623 C 0.41684 0.41942 0.05837 0.0
C624 C 0.40426 0.37816 0.063 0.0
C625 C 0.4034 0.3516 0.03052 0.0
C626 C 0.43104 0.45748 0.1653 0.0
C627 C 0.40334 0.48622 0.1652 0.0
C628 C 0.43786 0.43776 0.12975 0.0
C629 C 0.41763 0.44696 0.09336 0.0
C630 C 0.39383 0.47916 0.09236 0.0
C631 C 0.38642 0.49842 0.12816 0.0
H632 H 0.85117 0.2027 0.21609 0.0
H633 H 0.91097 0.30916 0.27536 0.0
H634 H 0.80882 0.1891 0.27291 0.0
H635 H 0.86696 0.29716 0.33186 0.0
H636 H 0.83229 0.22001 0.44477 0.0
H637 H 0.86114 0.25307 0.38624 0.0
H638 H 0.75639 0.20372 0.31266 0.0
H639 H 0.7286 0.1691 0.37162 0.0
C640 C 0.85454 0.22371 0.24105 0.0
C641 C 0.88459 0.25672 0.24156 0.0
C642 C 0.82991 0.21623 0.27359 0.0
C643 C 0.8341 0.24203 0.3073 0.0
C644 C 0.86314 0.27617 0.30688 0.0
C645 C 0.88839 0.28316 0.27458 0.0
C646 C 0.81465 0.21779 0.41638 0.0
C647 C 0.77817 0.19225 0.41272 0.0
C648 C 0.83125 0.23666 0.38258 0.0
C649 C 0.81167 0.23049 0.3442 0.0
C650 C 0.77291 0.20837 0.34145 0.0
C651 C 0.75647 0.18915 0.37535 0.0
H652 H 0.03709 0.05314 0.46297 0.0
H653 H 0.97975 0.98128 0.36455 0.0
H654 H 0.97141 0.06499 0.48584 0.0
H655 H 0.91364 0.98901 0.38916 0.0
H656 H 0.80243 0.05232 0.40959 0.0
H657 H 0.86392 0.02614 0.39343 0.0
H658 H 0.91276 0.05138 0.51514 0.0
H659 H 0.8513 0.08115 0.52962 0.0
C660 C 1.01015 0.03938 0.44657 0.0
C661 C 0.01354 0.01672 0.4117 0.0
C662 C 0.97209 0.04565 0.45997 0.0
C663 C 0.93599 0.02822 0.43968 0.0
C664 C 0.93989 1.00433 0.40535 0.0
C665 C 0.97799 0.9995 0.3911 0.0
C666 C 0.82576 0.05091 0.43336 0.0
C667 C 0.8219 0.06897 0.47083 0.0
C668 C 0.86169 0.0359 0.42406 0.0
C669 C 0.89493 0.03738 0.45234 0.0
C670 C 0.88904 0.05112 0.49161 0.0
C671 C 0.85318 0.06722 0.50055 0.0
H672 H 0.27371 0.8809 0.68065 0.0
H673 H 0.28176 0.80931 0.57439 0.0
H674 H 0.26442 0.81962 0.7209 0.0
H675 H 0.27039 0.74826 0.61376 0.0
H676 H 0.25806 0.63986 0.68722 0.0
H677 H 0.29154 0.70347 0.66295 0.0
H678 H 0.21115 0.76811 0.72953 0.0
H679 H 0.17892 0.70445 0.75437 0.0
C680 C 0.27398 0.8521 0.66601 0.0
C681 C 0.27833 0.85008 0.62433 0.0
C682 C 0.26827 0.8169 0.68899 0.0
C683 C 0.26623 0.77873 0.67072 0.0
C684 C 0.27234 0.77691 0.62924 0.0
C685 C 0.27846 0.81207 0.60642 0.0
C686 C 0.2491 0.66787 0.69814 0.0
C687 C 0.21636 0.66745 0.72301 0.0
C688 C 0.26762 0.70432 0.68361 0.0
C689 C 0.25349 0.74111 0.69338 0.0
C690 C 0.22319 0.74064 0.72142 0.0
C691 C 0.20477 0.70414 0.73598 0.0
H692 H 0.58034 0.95134 0.76111 0.0
H693 H 0.49731 0.93504 0.85662 0.0
H694 H 0.63654 0.94352 0.80942 0.0
H695 H 0.55343 0.92953 0.90513 0.0
H696 H 0.66002 0.86847 0.9664 0.0
H697 H 0.60097 0.88638 0.92714 0.0
H698 H 0.67731 0.9758 0.86372 0.0
H699 H 0.73649 0.95646 0.90241 0.0
C700 C 0.57395 0.94599 0.7923 0.0
C701 C 0.53412 0.9442 0.80481 0.0
C702 C 0.60635 0.94226 0.82029 0.0
C703 C 0.59984 0.93665 0.86156 0.0
C704 C 0.55986 0.93382 0.87377 0.0
C705 C 0.52756 0.93728 0.84584 0.0
C706 C 0.66378 0.89358 0.94575 0.0
C707 C 0.70275 0.91149 0.93792 0.0
C708 C 0.62994 0.90351 0.92262 0.0
C709 C 0.63434 0.93183 0.89128 0.0
C710 C 0.67285 0.95302 0.88673 0.0
C711 C 0.7067 0.94285 0.90974 0.0
H712 H 0.22381 0.25056 0.11897 0.0
H713 H 0.33369 0.22939 0.18624 0.0
H714 H 0.21459 0.30502 0.1646 0.0
H715 H 0.32679 0.28539 0.22998 0.0
H716 H 0.33035 0.39411 0.29467 0.0
H717 H 0.30516 0.32492 0.2764 0.0
H718 H 0.23687 0.36921 0.17448 0.0
H719 H 0.25922 0.43724 0.1953 0.0
C720 C 0.24602 0.25764 0.14363 0.0
C721 C 0.2799 0.23628 0.14855 0.0
C722 C 0.24098 0.28918 0.16983 0.0
C723 C 0.27036 0.30102 0.20094 0.0
C724 C 0.30292 0.27761 0.20711 0.0
C725 C 0.30733 0.24547 0.18154 0.0
C726 C 0.30785 0.38879 0.26997 0.0
C727 C 0.29747 0.42084 0.24575 0.0
C728 C 0.29427 0.349 0.25858 0.0
C729 C 0.2711 0.34078 0.22214 0.0
C730 C 0.25521 0.37335 0.20224 0.0
C731 C 0.26785 0.4129 0.21434 0.0
H732 H 0.10417 0.94284 0.16545 0.0
H733 H 0.04787 0.03823 0.21932 0.0
H734 H 0.05005 0.93452 0.11355 0.0
H735 H 0.99464 0.03183 0.16574 0.0
H736 H 0.87809 0.95523 0.11429 0.0
H737 H 0.93768 0.98842 0.15023 0.0
H738 H 1.01215 0.95162 0.0575 0.0
H739 H 0.9519 0.91642 0.02281 0.0
C740 C 0.08066 0.96275 0.16567 0.0
C741 C 0.07994 0.99061 0.1971 0.0
C742 C 0.04962 0.95833 0.13542 0.0
C743 C 0.01721 0.98214 0.13528 0.0
C744 C 0.01824 0.01208 0.16522 0.0
C745 C 0.04893 0.01594 0.19596 0.0
C746 C 0.90698 0.95605 0.10059 0.0
C747 C 0.91035 0.93341 0.06574 0.0
C748 C 0.94151 0.97496 0.12137 0.0
C749 C 0.98037 0.97197 0.1076 0.0
C750 C 0.98303 0.9536 0.06984 0.0
C751 C 0.94838 0.93417 0.04931 0.0
H752 H 0.23717 0.80587 0.42061 0.0
H753 H 0.35005 0.85486 0.37286 0.0
H754 H 0.2428 0.74128 0.38841 0.0
H755 H 0.35616 0.79032 0.34106 0.0
H756 H 0.35604 0.67503 0.27571 0.0
H757 H 0.33123 0.73955 0.29078 0.0
H758 H 0.28454 0.68914 0.40096 0.0
H759 H 0.30838 0.62521 0.38522 0.0
C760 C 0.26291 0.80288 0.40277 0.0
C761 C 0.29313 0.83533 0.39926 0.0
C762 C 0.26611 0.76599 0.3842 0.0
C763 C 0.29972 0.7606 0.36177 0.0
C764 C 0.32937 0.79355 0.35728 0.0
C765 C 0.32602 0.83054 0.37569 0.0
C766 C 0.33897 0.67754 0.30221 0.0
C767 C 0.33397 0.64536 0.32934 0.0
C768 C 0.32528 0.71454 0.31118 0.0
C769 C 0.30649 0.7198 0.34745 0.0
C770 C 0.29853 0.6863 0.37264 0.0
C771 C 0.31219 0.64956 0.3637 0.0
H772 H 0.54966 0.04274 0.79701 0.0
H773 H 0.462 0.08754 0.71384 0.0
H774 H 0.59021 0.02749 0.74144 0.0
H775 H 0.50313 0.07478 0.65802 0.0
H776 H 0.57521 0.05456 0.55846 0.0
H777 H 0.53089 0.03657 0.61293 0.0
H778 H 0.63438 0.05466 0.69782 0.0
H779 H 0.67826 0.06879 0.64285 0.0
C780 C 0.53904 0.04914 0.76659 0.0
C781 C 0.50221 0.06539 0.75961 0.0
C782 C 0.56245 0.04067 0.73452 0.0
C783 C 0.55048 0.04963 0.69448 0.0
C784 C 0.5133 0.066 0.68783 0.0
C785 C 0.48947 0.07357 0.71993 0.0
C786 C 0.58874 0.05146 0.58846 0.0
C787 C 0.6304 0.06296 0.59618 0.0
C788 C 0.56306 0.04273 0.62018 0.0
C789 C 0.57828 0.04623 0.66055 0.0
C790 C 0.62076 0.05184 0.6676 0.0
C791 C 0.64645 0.0594 0.63574 0.0
H792 H 0.31595 0.32654 0.97634 0.0
H793 H 0.25708 0.26575 0.87143 0.0
H794 H 0.30972 0.39134 0.94445 0.0
H795 H 0.24731 0.32985 0.84081 0.0
H796 H 0.22893 0.44358 0.78479 0.0
H797 H 0.26604 0.38875 0.80968 0.0
H798 H 0.2647 0.4353 0.93081 0.0
H799 H 0.23105 0.49114 0.90512 0.0
C800 C 0.30153 0.32706 0.94646 0.0
C801 C 0.2872 0.29093 0.92638 0.0
C802 C 0.2976 0.36434 0.9281 0.0
C803 C 0.27763 0.36658 0.88977 0.0
C804 C 0.26381 0.33012 0.8697 0.0
C805 C 0.26897 0.29299 0.88752 0.0
C806 C 0.23851 0.44299 0.81638 0.0
C807 C 0.22649 0.47114 0.84313 0.0
C808 C 0.25894 0.41095 0.831 0.0
C809 C 0.2669 0.40598 0.87276 0.0
C810 C 0.25917 0.43722 0.8986 0.0
C811 C 0.23967 0.46955 0.88386 0.0
H812 H 0.37696 0.04874 0.01421 0.0
H813 H 0.45067 0.10665 0.11243 0.0
H814 H 0.41098 0.98825 0.02393 0.0
H815 H 0.48328 0.04583 0.12399 0.0
H816 H 0.5428 0.93548 0.14121 0.0
H817 H 0.525 0.99765 0.10923 0.0
H818 H 0.40967 0.93509 0.06691 0.0
H819 H 0.4288 0.87342 0.09657 0.0
C820 C 0.40034 0.04836 0.03805 0.0
C821 C 0.41066 0.08217 0.06293 0.0
C822 C 0.4199 0.01363 0.0438 0.0
C823 C 0.44965 0.01139 0.0753 0.0
C824 C 0.46103 0.04607 0.0991 0.0
C825 C 0.44201 0.08103 0.09277 0.0
C826 C 0.51453 0.93486 0.12341 0.0
C827 C 0.4871 0.89973 0.1215 0.0
C828 C 0.50383 0.97068 0.10573 0.0
C829 C 0.46528 0.97211 0.0862 0.0
C830 C 0.43967 0.93575 0.08126 0.0
C831 C 0.45058 0.90009 0.0984 0.0
H832 H 0.75278 0.56155 0.96539 0.0
H833 H 0.83894 0.47799 0.94612 0.0
H834 H 0.80741 0.6166 0.97085 0.0
H835 H 0.89451 0.53145 0.95638 0.0
H836 H 0.97398 0.64639 0.91871 0.0
H837 H 0.92825 0.58581 0.92755 0.0
H838 H 0.8609 0.64987 1.00899 0.0
H839 H 0.90569 0.71135 0.9974 0.0
C840 C 0.7837 0.55485 0.96342 0.0
C841 C 0.792 0.51503 0.95812 0.0
C842 C 0.81526 0.58631 0.96718 0.0
C843 C 0.85604 0.57879 0.96553 0.0
C844 C 0.86388 0.53887 0.95847 0.0
C845 C 0.83215 0.50768 0.95393 0.0
C846 C 0.95077 0.64689 0.94026 0.0
C847 C 0.94359 0.68355 0.95751 0.0
C848 C 0.92391 0.61208 0.94502 0.0
C849 C 0.88961 0.61287 0.96793 0.0
C850 C 0.8859 0.6483 0.98976 0.0
C851 C 0.91237 0.68337 0.98426 0.0
H852 H 0.84213 0.70334 0.27524 0.0
H853 H 0.77726 0.6101 0.34375 0.0
H854 H 0.78293 0.7395 0.26997 0.0
H855 H 0.71788 0.64704 0.34043 0.0
H856 H 0.60821 0.69175 0.26764 0.0
H857 H 0.6657 0.66177 0.29734 0.0
H858 H 0.73758 0.77788 0.29567 0.0
H859 H 0.67997 0.807 0.264 0.0
C860 C 0.81532 0.69104 0.28997 0.0
C861 C 0.8143 0.65372 0.30958 0.0
C862 C 0.78118 0.71197 0.28729 0.0
C863 C 0.74498 0.6965 0.30474 0.0
C864 C 0.74459 0.65971 0.32574 0.0
C865 C 0.77869 0.63846 0.32781 0.0
C866 C 0.63559 0.7113 0.27593 0.0
C867 C 0.63955 0.75169 0.2635 0.0
C868 C 0.66907 0.69398 0.29255 0.0
C869 C 0.70721 0.71688 0.29772 0.0
C870 C 0.70931 0.75873 0.29075 0.0
C871 C 0.67586 0.7759 0.27371 0.0
H872 H 0.62974 0.64221 0.49987 0.0
H873 H 0.72497 0.56971 0.53595 0.0
H874 H 0.58328 0.58121 0.48711 0.0
H875 H 0.67898 0.5089 0.52227 0.0
H876 H 0.5896 0.40137 0.50655 0.0
H877 H 0.62046 0.46448 0.53767 0.0
H878 H 0.57596 0.53037 0.43582 0.0
H879 H 0.54533 0.46723 0.40523 0.0
C880 C 0.64073 0.61329 0.50544 0.0
C881 C 0.68136 0.61095 0.51842 0.0
C882 C 0.61406 0.57826 0.49796 0.0
C883 C 0.62736 0.53995 0.50313 0.0
C884 C 0.66739 0.53773 0.51825 0.0
C885 C 0.69398 0.57273 0.52586 0.0
C886 C 0.58509 0.42958 0.49179 0.0
C887 C 0.56479 0.42961 0.45378 0.0
C888 C 0.60331 0.46571 0.50922 0.0
C889 C 0.60137 0.50265 0.48903 0.0
C890 C 0.57796 0.50274 0.45252 0.0
C891 C 0.56017 0.46658 0.43496 0.0
H892 H 0.28482 0.95214 0.30623 0.0
H893 H 0.21773 0.83447 0.29198 0.0
H894 H 0.34616 0.92445 0.28876 0.0
H895 H 0.27913 0.80646 0.27521 0.0
H896 H 0.3871 0.78984 0.19339 0.0
H897 H 0.32513 0.80624 0.22238 0.0
H898 H 0.39665 0.8824 0.31037 0.0
H899 H 0.45848 0.86626 0.28054 0.0
C900 C 0.283 0.92035 0.29936 0.0
C901 C 0.24587 0.89578 0.30022 0.0
C902 C 0.31846 0.90424 0.28981 0.0
C903 C 0.31796 0.86304 0.28057 0.0
C904 C 0.28086 0.83837 0.2817 0.0
C905 C 0.24551 0.85444 0.2917 0.0
C906 C 0.38952 0.80849 0.22016 0.0
C907 C 0.42768 0.82618 0.23514 0.0
C908 C 0.35393 0.81837 0.23658 0.0
C909 C 0.35563 0.84658 0.26817 0.0
C910 C 0.39401 0.86142 0.28539 0.0
C911 C 0.42958 0.85143 0.26898 0.0
H912 H 0.11113 0.99606 0.57146 0.0
H913 H 0.17748 0.04145 0.47015 0.0
H914 H 0.07568 0.05525 0.57097 0.0
H915 H 0.13983 0.09987 0.46718 0.0
H916 H 0.12278 0.22267 0.52289 0.0
H917 H 0.13822 0.15921 0.49711 0.0
H918 H 0.03218 0.09905 0.55076 0.0
H919 H 0.01942 0.16308 0.57973 0.0
C920 C 0.11735 0.01835 0.5483 0.0
C921 C 0.14759 0.01431 0.52124 0.0
C922 C 0.09656 0.05247 0.54762 0.0
C923 C 0.10476 0.08339 0.51926 0.0
C924 C 0.13335 0.07786 0.49051 0.0
C925 C 0.15502 0.04421 0.49202 0.0
C926 C 0.10165 0.19613 0.52745 0.0
C927 C 0.07037 0.1977 0.55387 0.0
C928 C 0.11066 0.15919 0.51286 0.0
C929 C 0.08777 0.12296 0.52339 0.0
C930 C 0.05203 0.12577 0.5438 0.0
C931 C 0.04377 0.16275 0.55945 0.0
H932 H 0.83382 0.37183 0.30794 0.0
H933 H 0.77801 0.48044 0.28256 0.0
H934 H 0.76703 0.33486 0.31559 0.0
H935 H 0.71191 0.44415 0.29127 0.0
H936 H 0.59379 0.37937 0.3034 0.0
H937 H 0.65783 0.39496 0.27095 0.0
H938 H 0.71889 0.33401 0.36693 0.0
H939 H 0.65453 0.31741 0.39814 0.0
C940 C 0.80733 0.38774 0.30347 0.0
C941 C 0.8114 0.42932 0.29523 0.0
C942 C 0.76901 0.36654 0.30801 0.0
C943 C 0.73387 0.38646 0.30446 0.0
C944 C 0.73799 0.42746 0.29374 0.0
C945 C 0.77614 0.44853 0.28908 0.0
C946 C 0.62065 0.36762 0.31629 0.0
C947 C 0.61931 0.3469 0.35298 0.0
C948 C 0.65749 0.37707 0.29813 0.0
C949 C 0.69387 0.3667 0.3168 0.0
C950 C 0.69167 0.34243 0.35147 0.0
C951 C 0.65472 0.3327 0.3694 0.0
H952 H 0.7735 0.61149 0.71495 0.0
H953 H 0.73505 0.62045 0.83618 0.0
H954 H 0.82359 0.66994 0.72701 0.0
H955 H 0.78539 0.67821 0.84844 0.0
H956 H 0.86555 0.78574 0.86761 0.0
H957 H 0.80751 0.74673 0.83377 0.0
H958 H 0.88736 0.6831 0.76645 0.0
H959 H 0.94547 0.7216 0.80096 0.0
C960 C 0.77554 0.62603 0.74413 0.0
C961 C 0.75049 0.61093 0.77478 0.0
C962 C 0.8043 0.65957 0.75099 0.0
C963 C 0.80863 0.67896 0.78862 0.0
C964 C 0.78257 0.66462 0.81879 0.0
C965 C 0.7539 0.63109 0.81196 0.0
C966 C 0.87069 0.76557 0.84344 0.0
C967 C 0.91003 0.75651 0.83709 0.0
C968 C 0.83732 0.74263 0.82461 0.0
C969 C 0.8426 0.71114 0.79826 0.0
C970 C 0.88199 0.70696 0.78675 0.0
C971 C 0.91549 0.7296 0.80601 0.0
H972 H 0.59963 0.95212 0.58258 0.0
H973 H 0.48941 0.88779 0.53116 0.0
H974 H 0.60528 0.99394 0.52297 0.0
H975 H 0.49387 0.93109 0.4717 0.0
H976 H 0.56223 0.96892 0.35451 0.0
H977 H 0.53461 0.93852 0.41504 0.0
H978 H 0.58094 0.0457 0.48249 0.0
H979 H 0.60973 0.07527 0.4217 0.0
C980 C 0.57603 0.94755 0.55887 0.0
C981 C 0.54426 0.91638 0.56149 0.0
C982 C 0.579 0.97188 0.52469 0.0
C983 C 0.54982 0.96637 0.49241 0.0
C984 C 0.51713 0.93607 0.49571 0.0
C985 C 0.51456 0.91119 0.52973 0.0
C986 C 0.56453 0.98677 0.38184 0.0
C987 C 0.58776 0.02455 0.38338 0.0
C988 C 0.54897 0.96922 0.41679 0.0
C989 C 0.55636 0.98915 0.45409 0.0
C990 C 0.57551 0.02901 0.45454 0.0
C991 C 0.59128 0.04643 0.41954 0.0
H992 H 0.54721 0.35798 0.77579 0.0
H993 H 0.44758 0.35169 0.85366 0.0
H994 H 0.4998 0.34821 0.71739 0.0
H995 H 0.39964 0.34068 0.79546 0.0
H996 H 0.3406 0.39059 0.67495 0.0
H997 H 0.37645 0.37995 0.7393 0.0
H998 H 0.4503 0.30157 0.68097 0.0
H999 H 0.41493 0.31337 0.61651 0.0
C1000 C 0.51505 0.3536 0.78044 0.0
C1001 C 0.50114 0.35398 0.81946 0.0
C1002 C 0.48778 0.34764 0.747 0.0
C1003 C 0.44568 0.34284 0.75157 0.0
C1004 C 0.43177 0.34384 0.79072 0.0
C1005 C 0.45923 0.34949 0.82426 0.0
C1006 C 0.36296 0.36936 0.67637 0.0
C1007 C 0.37467 0.35245 0.64086 0.0
C1008 C 0.38391 0.36353 0.71323 0.0
C1009 C 0.41705 0.34069 0.71523 0.0
C1010 C 0.42561 0.32013 0.68038 0.0
C1011 C 0.40479 0.32614 0.64356 0.0
H1012 H 0.07878 0.20058 0.0744 0.0
H1013 H 0.95972 0.14189 0.09543 0.0
H1014 H 0.07999 0.16126 0.01301 0.0
H1015 H 0.95906 0.10508 0.03285 0.0
H1016 H 0.95129 0.04798 0.91645 0.0
H1017 H 0.97486 0.06017 0.98661 0.0
H1018 H 0.05401 0.16384 0.94944 0.0
H1019 H 0.03262 0.14939 0.88017 0.0
C1020 C 0.05288 0.17915 0.06586 0.0
C1021 C 0.01891 0.1748 0.08937 0.0
C1022 C 0.05334 0.15669 0.03042 0.0
C1023 C 0.01919 0.13038 0.01678 0.0
C1024 C 0.98626 0.12443 0.04192 0.0
C1025 C 0.98636 0.146 0.0779 0.0
C1026 C 0.97537 0.07192 0.92338 0.0
C1027 C 0.98981 0.09804 0.89302 0.0
C1028 C 0.98829 0.07965 0.96375 0.0
C1029 C 0.01517 0.11421 0.97448 0.0
C1030 C 0.03328 0.13703 0.94323 0.0
C1031 C 0.02102 0.12876 0.90308 0.0
H1032 H 0.19292 0.72692 0.33161 0.0
H1033 H 0.12132 0.80635 0.26425 0.0
H1034 H 0.22639 0.71213 0.27144 0.0
H1035 H 0.15575 0.79286 0.20359 0.0
H1036 H 0.17054 0.70133 0.10208 0.0
H1037 H 0.15354 0.7414 0.15783 0.0
H1038 H 0.26867 0.72562 0.21902 0.0
H1039 H 0.2842 0.68315 0.16342 0.0
C1040 C 0.1851 0.74208 0.30402 0.0
C1041 C 0.15414 0.76744 0.30262 0.0
C1042 C 0.20453 0.73379 0.26927 0.0
C1043 C 0.19375 0.7509 0.23203 0.0
C1044 C 0.16428 0.77817 0.23126 0.0
C1045 C 0.14441 0.78595 0.26601 0.0
C1046 C 0.19297 0.70803 0.12665 0.0
C1047 C 0.22864 0.68921 0.12845 0.0
C1048 C 0.18321 0.73101 0.15897 0.0
C1049 C 0.20914 0.73609 0.19387 0.0
C1050 C 0.24724 0.72134 0.19335 0.0
C1051 C 0.2567 0.69773 0.16109 0.0
H1052 H 0.48659 0.14278 0.96786 0.0
H1053 H 0.5506 0.25637 1.00815 0.0
H1054 H 0.50364 0.11254 0.03297 0.0
H1055 H 0.56682 0.22641 0.07298 0.0
H1056 H 0.55866 0.1799 0.19622 0.0
H1057 H 0.52628 0.19821 0.13229 0.0
H1058 H 0.57011 0.09729 0.07477 0.0
H1059 H 0.6029 0.07914 0.13912 0.0
C1060 C 0.50438 0.16127 0.99048 0.0
C1061 C 0.51739 0.20203 0.98263 0.0
C1062 C 0.51401 0.14392 0.02777 0.0
C1063 C 0.53603 0.16722 0.05832 0.0
C1064 C 0.54919 0.20782 0.05031 0.0
C1065 C 0.54025 0.22491 0.01294 0.0
C1066 C 0.55979 0.16055 0.17034 0.0
C1067 C 0.58315 0.12803 0.17265 0.0
C1068 C 0.54176 0.17136 0.1336 0.0
C1069 C 0.54655 0.14981 0.09832 0.0
C1070 C 0.56607 0.11458 0.10143 0.0
C1071 C 0.58448 0.10391 0.13833 0.0
H1072 H 0.07215 0.28232 0.28792 0.0
H1073 H 0.17666 0.26639 0.22086 0.0
H1074 H 0.11502 0.29085 0.34944 0.0
H1075 H 0.21987 0.27489 0.28269 0.0
H1076 H 0.27759 0.36003 0.39049 0.0
H1077 H 0.24403 0.33081 0.32857 0.0
H1078 H 0.15734 0.25892 0.39849 0.0
H1079 H 0.19047 0.28913 0.46017 0.0
C1080 C 0.10425 0.28015 0.28632 0.0
C1081 C 0.12097 0.27421 0.24923 0.0
C1082 C 0.1289 0.28471 0.32176 0.0
C1083 C 0.17103 0.28353 0.32117 0.0
C1084 C 0.18765 0.27637 0.28425 0.0
C1085 C 0.16287 0.27155 0.24877 0.0
C1086 C 0.2526 0.3365 0.39259 0.0
C1087 C 0.23675 0.32658 0.43003 0.0
C1088 C 0.23311 0.31992 0.35708 0.0
C1089 C 0.19732 0.29324 0.35845 0.0
C1090 C 0.18421 0.28013 0.39628 0.0
C1091 C 0.20359 0.29682 0.43168 0.0
H1092 H 0.97386 0.94412 0.46372 0.0
H1093 H 0.06597 0.8819 0.52429 0.0
H1094 H 0.96772 0.98292 0.52431 0.0
H1095 H 0.06172 0.92203 0.58473 0.0
H1096 H 0.99587 0.95237 0.69739 0.0
H1097 H 0.02101 0.92638 0.63696 0.0
H1098 H 0.98996 0.03182 0.57175 0.0
H1099 H 0.96261 0.05649 0.63266 0.0
C1100 C 0.99355 0.93951 0.48983 0.0
C1101 C 0.02021 0.9098 0.48932 0.0
C1102 C 0.99035 0.96206 0.52469 0.0
C1103 C 0.01421 0.95598 0.55998 0.0
C1104 C 0.04208 0.9272 0.55873 0.0
C1105 C 0.04469 0.90415 0.52403 0.0
C1106 C 0.99601 0.97076 0.67051 0.0
C1107 C 0.9775 1.00651 0.66979 0.0
C1108 C 1.01037 0.9558 0.63551 0.0
C1109 C 1.00694 0.97638 0.5987 0.0
C1110 C 0.99215 0.01439 0.59908 0.0
C1111 C 0.97727 0.02913 0.6342 0.0
H1112 H 0.34153 0.74615 0.71676 0.0
H1113 H 0.45278 0.75606 0.79053 0.0
H1114 H 0.30368 0.72348 0.77487 0.0
H1115 H 0.41517 0.73247 0.84841 0.0
H1116 H 0.33987 0.70991 0.95375 0.0
H1117 H 0.36557 0.74863 0.89609 0.0
H1118 H 0.29715 0.66214 0.81544 0.0
H1119 H 0.27164 0.62388 0.87313 0.0
C1120 C 0.35794 0.74382 0.74536 0.0
C1121 C 0.40036 0.75262 0.74862 0.0
C1122 C 0.3362 0.73061 0.77871 0.0
C1123 C 0.35628 0.72614 0.81641 0.0
C1124 C 0.39857 0.73603 0.81999 0.0
C1125 C 0.42031 0.74901 0.78656 0.0
C1126 C 0.32894 0.70037 0.92367 0.0
C1127 C 0.30338 0.66429 0.91781 0.0
C1128 C 0.34418 0.72207 0.89063 0.0
C1129 C 0.33404 0.70812 0.85109 0.0
C1130 C 0.30553 0.67392 0.84536 0.0
C1131 C 0.29061 0.6521 0.87839 0.0
H1132 H 0.56658 0.49513 0.95761 0.0
H1133 H 0.50919 0.50965 0.8399 0.0
H1134 H 0.50321 0.5033 0.98838 0.0
H1135 H 0.44618 0.51912 0.87071 0.0
H1136 H 0.32939 0.5126 0.9292 0.0
H1137 H 0.39045 0.48681 0.90698 0.0
H1138 H 0.4616 0.55642 1.00014 0.0
H1139 H 0.40023 0.58097 0.02286 0.0
C1140 C 0.54044 0.49979 0.93818 0.0
C1141 C 0.54331 0.5019 0.89612 0.0
C1142 C 0.50405 0.50478 0.95593 0.0
C1143 C 0.46934 0.51185 0.93217 0.0
C1144 C 0.47201 0.51318 0.89007 0.0
C1145 C 0.50844 0.50835 0.87233 0.0
C1146 C 0.35786 0.52073 0.94609 0.0
C1147 C 0.36003 0.5484 0.97807 0.0
C1148 C 0.39302 0.50671 0.93282 0.0
C1149 C 0.43126 0.52038 0.95097 0.0
C1150 C 0.43282 0.5452 0.98532 0.0
C1151 C 0.39755 0.55897 0.99876 0.0
H1152 H 0.8493 0.35162 0.14008 0.0
H1153 H 0.72496 0.37176 0.112 0.0
H1154 H 0.82669 0.29837 0.18703 0.0
H1155 H 0.70261 0.31871 0.15913 0.0
H1156 H 0.67153 0.23842 0.2616 0.0
H1157 H 0.70713 0.29998 0.2346 0.0
H1158 H 0.78539 0.22853 0.17344 0.0
H1159 H 0.74984 0.16714 0.20073 0.0
C1160 C 0.81718 0.34502 0.14419 0.0
C1161 C 0.78886 0.36575 0.12196 0.0
C1162 C 0.80434 0.31448 0.17108 0.0
C1163 C 0.76297 0.30442 0.17681 0.0
C1164 C 0.73476 0.32613 0.15572 0.0
C1165 C 0.74752 0.35626 0.12841 0.0
C1166 C 0.69768 0.23615 0.24406 0.0
C1167 C 0.70836 0.19818 0.23361 0.0
C1168 C 0.71764 0.27127 0.22813 0.0
C1169 C 0.74861 0.26897 0.20143 0.0
C1170 C 0.76177 0.23124 0.1941 0.0
C1171 C 0.74169 0.1961 0.20995 0.0
H1172 H 0.03938 0.55801 0.40456 0.0
H1173 H 0.98481 0.44905 0.45823 0.0
H1174 H 0.10457 0.54784 0.43815 0.0
H1175 H 0.04956 0.43802 0.49088 0.0
H1176 H 0.16628 0.42111 0.55069 0.0
H1177 H 0.10492 0.45441 0.53773 0.0
H1178 H 0.15294 0.50334 0.42746 0.0
H1179 H 0.21413 0.47135 0.44151 0.0
C1180 C 0.04135 0.53201 0.42374 0.0
C1181 C 1.00711 0.50417 0.42853 0.0
C1182 C 0.07865 0.52611 0.44302 0.0
C1183 C 0.08267 0.49189 0.46709 0.0
C1184 C 0.0478 0.46511 0.47326 0.0
C1185 C 1.01054 0.47126 0.45431 0.0
C1186 C 0.16426 0.44063 0.52479 0.0
C1187 C 0.19483 0.44399 0.49719 0.0
C1188 C 0.12891 0.45919 0.51693 0.0
C1189 C 0.12344 0.48098 0.48107 0.0
C1190 C 0.1559 0.48721 0.45552 0.0
C1191 C 0.19114 0.46889 0.46351 0.0
H1192 H 0.83671 0.76252 0.63473 0.0
H1193 H 0.7196 0.80337 0.60854 0.0
H1194 H 0.85372 0.81759 0.6824 0.0
H1195 H 0.73622 0.85804 0.65712 0.0
H1196 H 0.88166 0.91369 0.7703 0.0
H1197 H 0.84408 0.85118 0.74425 0.0
H1198 H 0.78041 0.91976 0.65647 0.0
H1199 H 0.81719 0.98175 0.68342 0.0
C1200 C 0.81426 0.78283 0.63964 0.0
C1201 C 0.77704 0.77879 0.6172 0.0
C1202 C 0.82385 0.8143 0.66743 0.0
C1203 C 0.79648 0.84267 0.67361 0.0
C1204 C 0.75834 0.83725 0.65276 0.0
C1205 C 0.74877 0.80577 0.6249 0.0
C1206 C 0.85786 0.9154 0.74705 0.0
C1207 C 0.85194 0.95257 0.72919 0.0
C1208 C 0.83692 0.87954 0.73148 0.0
C1209 C 0.80993 0.88018 0.69746 0.0
C1210 C 0.80076 0.91784 0.68271 0.0
C1211 C 0.8216 0.95361 0.69838 0.0
H1212 H 0.54898 0.52455 0.7168 0.0
H1213 H 0.63418 0.51527 0.62478 0.0
H1214 H 0.49401 0.52129 0.66566 0.0
H1215 H 0.57901 0.51378 0.57323 0.0
H1216 H 0.46621 0.42176 0.52823 0.0
H1217 H 0.52783 0.45961 0.55584 0.0
H1218 H 0.45717 0.54495 0.60814 0.0
H1219 H 0.39527 0.5059 0.58111 0.0
C1220 C 0.55614 0.52287 0.68553 0.0
C1221 C 0.59582 0.51908 0.675 0.0
C1222 C 0.52456 0.52149 0.65599 0.0
C1223 C 0.53194 0.51668 0.6151 0.0
C1224 C 0.57219 0.51649 0.6044 0.0
C1225 C 0.60377 0.51736 0.634 0.0
C1226 C 0.46404 0.45003 0.54339 0.0
C1227 C 0.4261 0.46066 0.55305 0.0
C1228 C 0.49947 0.47175 0.55961 0.0
C1229 C 0.4974 0.50449 0.58566 0.0
C1230 C 0.45968 0.51905 0.58934 0.0
C1231 C 0.42421 0.4972 0.57315 0.0
H1232 H 0.81298 0.35097 0.90459 0.0
H1233 H 0.93876 0.35291 0.94481 0.0
H1234 H 0.82045 0.29654 0.85787 0.0
H1235 H 0.94627 0.29948 0.8974 0.0
H1236 H 0.84794 0.15945 0.83848 0.0
H1237 H 0.83259 0.22357 0.86583 0.0
H1238 H 0.94509 0.28181 0.82434 0.0
H1239 H 0.96025 0.21756 0.79724 0.0
C1240 C 0.84227 0.34006 0.90362 0.0
C1241 C 0.87518 0.3565 0.92918 0.0
C1242 C 0.84654 0.30889 0.8765 0.0
C1243 C 0.88395 0.29362 0.87369 0.0
C1244 C 0.91714 0.31091 0.89819 0.0
C1245 C 0.91279 0.34171 0.92558 0.0
C1246 C 0.86819 0.18643 0.83318 0.0
C1247 C 0.90498 0.1836 0.81517 0.0
C1248 C 0.85968 0.22317 0.8493 0.0
C1249 C 0.88805 0.25771 0.84809 0.0
C1250 C 0.92293 0.25566 0.82644 0.0
C1251 C 0.93127 0.21903 0.81018 0.0
H1252 H 0.02897 0.45417 0.25192 0.0
H1253 H 0.97745 0.5557 0.19775 0.0
H1254 H 0.08318 0.46209 0.20526 0.0
H1255 H 0.0318 0.5638 0.15114 0.0
H1256 H 0.12245 0.5659 0.05905 0.0
H1257 H 0.06326 0.53817 0.09478 0.0
H1258 H 0.14214 0.50706 0.19455 0.0
H1259 H 0.20078 0.53396 0.1583 0.0
C1260 C 0.02895 0.47802 0.22983 0.0
C1261 C 0.99882 0.50445 0.22887 0.0
C1262 C 0.06023 0.48264 0.20303 0.0
C1263 C 0.06208 0.5135 0.17407 0.0
C1264 C 0.03119 0.53917 0.17239 0.0
C1265 C 1.00009 0.53479 0.19945 0.0
C1266 C 0.12705 0.55113 0.08768 0.0
C1267 C 0.16625 0.55152 0.10563 0.0
C1268 C 0.09311 0.53608 0.10866 0.0
C1269 C 0.09765 0.52124 0.14814 0.0
C1270 C 0.13716 0.51802 0.16427 0.0
C1271 C 0.17099 0.53308 0.1433 0.0
H1272 H 0.7226 0.78141 0.37435 0.0
H1273 H 0.81876 0.83803 0.45362 0.0
H1274 H 0.71365 0.84588 0.34344 0.0
H1275 H 0.81057 0.90325 0.42222 0.0
H1276 H 0.73377 0.01135 0.39924 0.0
H1277 H 0.76477 0.9519 0.42068 0.0
H1278 H 0.7373 0.89984 0.30228 0.0
H1279 H 0.70494 0.95936 0.28155 0.0
C1280 C 0.74249 0.80766 0.38452 0.0
C1281 C 0.77144 0.80458 0.41631 0.0
C1282 C 0.73756 0.8448 0.36664 0.0
C1283 C 0.76159 0.88015 0.3799 0.0
C1284 C 0.79119 0.87691 0.41135 0.0
C1285 C 0.79589 0.83958 0.42947 0.0
C1286 C 0.73607 0.98795 0.37728 0.0
C1287 C 0.71689 0.98992 0.33877 0.0
C1288 C 0.75368 0.95357 0.38963 0.0
C1289 C 0.75259 0.92026 0.36366 0.0
C1290 C 0.73763 0.92435 0.32354 0.0
C1291 C 0.71981 0.9588 0.31126 0.0
H1292 H 0.96091 0.61009 0.50025 0.0
H1293 H 0.85425 0.55032 0.55251 0.0
H1294 H 0.99415 0.54877 0.50886 0.0
H1295 H 0.88728 0.4893 0.56012 0.0
H1296 H 0.94303 0.37618 0.55022 0.0
H1297 H 0.91518 0.43522 0.52129 0.0
H1298 H 0.01959 0.51132 0.57021 0.0
H1299 H 0.04715 0.45203 0.59928 0.0
C1300 C 0.94447 0.58412 0.5136 0.0
C1301 C 0.90488 0.58574 0.52622 0.0
C1302 C 0.96358 0.54893 0.51831 0.0
C1303 C 0.9435 0.51429 0.53527 0.0
C1304 C 0.90348 0.51532 0.54645 0.0
C1305 C 0.88448 0.55052 0.5421 0.0
C1306 C 0.9609 0.4053 0.55302 0.0
C1307 C 0.99748 0.40952 0.57645 0.0
C1308 C 0.94464 0.43919 0.53714 0.0
C1309 C 0.96473 0.47802 0.54421 0.0
C1310 C 1.00333 0.48183 0.56423 0.0
C1311 C 0.0194 0.44787 0.5805 0.0
H1312 H 0.43599 0.98552 0.53555 0.0
H1313 H 0.33347 0.05009 0.5558 0.0
H1314 H 0.47896 0.04944 0.53072 0.0
H1315 H 0.37572 0.11344 0.55008 0.0
H1316 H 0.44677 0.22606 0.53587 0.0
H1317 H 0.42954 0.16273 0.5712 0.0
H1318 H 0.48301 0.09903 0.47853 0.0
H1319 H 0.50127 0.1625 0.44452 0.0
C1320 C 0.42273 0.01328 0.53965 0.0
C1321 C 0.38105 0.01268 0.54524 0.0
C1322 C 0.44738 0.04996 0.53678 0.0
C1323 C 0.43086 0.0868 0.53948 0.0
C1324 C 0.38984 0.0859 0.54819 0.0
C1325 C 0.36531 0.04938 0.55102 0.0
C1326 C 0.4568 0.19871 0.52448 0.0
C1327 C 0.4754 0.19897 0.48766 0.0
C1328 C 0.44639 0.16231 0.54428 0.0
C1329 C 0.4537 0.12551 0.5271 0.0
C1330 C 0.47682 0.12659 0.49281 0.0
C1331 C 0.48752 0.16304 0.47327 0.0
H1332 H 0.32416 0.13635 0.63311 0.0
H1333 H 0.30113 0.11559 0.75837 0.0
H1334 H 0.27377 0.18403 0.62927 0.0
H1335 H 0.25224 0.16431 0.75491 0.0
H1336 H 0.126 0.20265 0.70915 0.0
H1337 H 0.18523 0.16807 0.72638 0.0
H1338 H 0.25628 0.24906 0.64939 0.0
H1339 H 0.19641 0.28298 0.63178 0.0
C1340 C 0.30869 0.14206 0.65992 0.0
C1341 C 0.31695 0.12171 0.69597 0.0
C1342 C 0.2801 0.16996 0.6579 0.0
C1343 C 0.25884 0.17834 0.69187 0.0
C1344 C 0.26768 0.15856 0.72806 0.0
C1345 C 0.29621 0.13072 0.73008 0.0
C1346 C 0.15485 0.21451 0.69783 0.0
C1347 C 0.15672 0.24603 0.66976 0.0
C1348 C 0.18885 0.19432 0.70722 0.0
C1349 C 0.22553 0.20509 0.68859 0.0
C1350 C 0.22838 0.2393 0.66365 0.0
C1351 C 0.19434 0.25949 0.65432 0.0
H1352 H 0.18978 0.08735 0.98732 0.0
H1353 H 0.18457 0.06267 0.11449 0.0
H1354 H 0.13709 0.03192 0.97311 0.0
H1355 H 0.13146 1.00706 0.10017 0.0
H1356 H 0.1005 0.87673 0.0387 0.0
H1357 H 0.13102 0.94017 0.06872 0.0
H1358 H 0.06566 1.00547 0.97951 0.0
H1359 H 0.03545 0.94167 0.94949 0.0
C1360 C 0.17715 0.07034 0.01231 0.0
C1361 C 0.19185 0.07924 0.052 0.0
C1362 C 0.14648 0.0388 1.0042 0.0
C1363 C 0.12979 0.01506 0.03552 0.0
C1364 C 0.1437 0.02463 0.07535 0.0
C1365 C 0.1742 0.05649 0.08351 0.0
C1366 C 0.09083 0.90463 0.02708 0.0
C1367 C 0.06553 0.90435 0.99193 0.0
C1368 C 0.10866 0.9411 0.04398 0.0
C1369 C 0.10172 0.97793 0.02577 0.0
C1370 C 0.07235 0.97758 0.99369 0.0
C1371 C 0.05439 0.94107 0.97694 0.0
H1372 H 0.74763 0.36437 0.71857 0.0
H1373 H 0.80429 0.44449 0.81152 0.0
H1374 H 0.81186 0.33942 0.7082 0.0
H1375 H 0.86905 0.41851 0.80225 0.0
H1376 H 0.97951 0.41093 0.72248 0.0
H1377 H 0.91927 0.42405 0.75576 0.0
H1378 H 0.8654 0.30277 0.72829 0.0
H1379 H 0.92548 0.29068 0.6929 0.0
C1380 C 0.77374 0.37609 0.73746 0.0
C1381 C 0.77078 0.40675 0.76562 0.0
C1382 C 0.81079 0.36146 0.73176 0.0
C1383 C 0.84615 0.37671 0.75435 0.0
C1384 C 0.84283 0.40638 0.78372 0.0
C1385 C 0.80569 0.4214 0.78906 0.0
C1386 C 0.95537 0.38658 0.72487 0.0
C1387 C 0.95698 0.35 0.70452 0.0
C1388 C 0.92057 0.39408 0.74402 0.0
C1389 C 0.88654 0.36498 0.74373 0.0
C1390 C 0.89035 0.32649 0.72791 0.0
C1391 C 0.92515 0.31915 0.70829 0.0
H1392 H 0.80279 0.6286 0.10633 0.0
H1393 H 0.71045 0.56088 0.03015 0.0
H1394 H 0.75755 0.68014 0.1151 0.0
H1395 H 0.66546 0.61228 0.03869 0.0
H1396 H 0.67919 0.778 0.11523 0.0
H1397 H 0.72245 0.73304 0.08534 0.0
H1398 H 0.62634 0.63521 0.09056 0.0
H1399 H 0.58326 0.68059 0.11967 0.0
C1400 C 0.77309 0.62485 0.09105 0.0
C1401 C 0.76028 0.59002 0.06813 0.0
C1402 C 0.74708 0.6546 0.09586 0.0
C1403 C 0.70755 0.65049 0.07771 0.0
C1404 C 0.6953 0.61628 0.05372 0.0
C1405 C 0.72123 0.58657 0.04898 0.0
C1406 C 0.6666 0.74746 0.1077 0.0
C1407 C 0.62755 0.733 0.11912 0.0
C1408 C 0.69174 0.72135 0.09152 0.0
C1409 C 0.67841 0.6801 0.08641 0.0
C1410 C 0.6378 0.66671 0.09386 0.0
C1411 C 0.6127 0.69288 0.11007 0.0
H1412 H 0.3198 0.9725 0.85278 0.0
H1413 H 0.297 0.89872 0.74608 0.0
H1414 H 0.26192 0.93479 0.88303 0.0
H1415 H 0.23875 0.8614 0.77605 0.0
H1416 H 0.10784 0.85032 0.83007 0.0
H1417 H 0.16959 0.87523 0.79653 0.0
H1418 H 0.23993 0.86558 0.90819 0.0
H1419 H 0.17849 0.84062 0.94137 0.0
C1420 C 0.30255 0.9482 0.83579 0.0
C1421 C 0.31286 0.93891 0.79679 0.0
C1422 C 0.26948 0.92641 0.85318 0.0
C1423 C 0.24573 0.89501 0.83191 0.0
C1424 C 0.25622 0.88556 0.79307 0.0
C1425 C 0.28957 0.90702 0.7759 0.0
C1426 C 0.13673 0.85207 0.84693 0.0
C1427 C 0.13838 0.8437 0.88831 0.0
C1428 C 0.17206 0.86664 0.82788 0.0
C1429 C 0.20952 0.87327 0.84999 0.0
C1430 C 0.21145 0.8617 0.89057 0.0
C1431 C 0.17635 0.84697 0.90944 0.0
H1432 H 0.25472 0.07805 0.31393 0.0
H1433 H 0.17428 0.1669 0.3381 0.0
H1434 H 0.31267 0.12873 0.32485 0.0
H1435 H 0.23257 0.21785 0.34868 0.0
H1436 H 0.35025 0.26638 0.42879 0.0
H1437 H 0.28687 0.23118 0.40055 0.0
H1438 H 0.35016 0.19026 0.30121 0.0
H1439 H 0.41362 0.2255 0.32998 0.0
C1440 C 0.24931 0.10852 0.3211 0.0
C1441 C 0.20973 0.11813 0.32552 0.0
C1442 C 0.28264 0.1378 0.32698 0.0
C1443 C 0.27743 0.17758 0.3376 0.0
C1444 C 0.23775 0.18753 0.34082 0.0
C1445 C 0.20431 0.15824 0.33471 0.0
C1446 C 0.35016 0.25137 0.39997 0.0
C1447 C 0.38673 0.24888 0.38139 0.0
C1448 C 0.31387 0.23093 0.38382 0.0
C1449 C 0.31348 0.20701 0.34902 0.0
C1450 C 0.3495 0.2077 0.32848 0.0
C1451 C 0.38576 0.22843 0.34453 0.0
loop_
_geom_bond_atom_site_label_1
_geom_bond_atom_site_label_2
_geom_bond_distance
_geom_bond_site_symmetry_2
_ccdc_geom_bond_type
Cu0 N1 1.999 1_455 S
Cu0 O6 1.974 . S
Cu0 N11 1.985 . S
Cu0 O20 1.959 1_455 S
N1 Cu0 1.999 1_655 S
N1 C3 1.263 . S
N1 C5 1.389 . S
N2 C3 1.358 . S
N2 C4 1.400 . S
C3 N1 1.263 . S
C3 N2 1.358 . S
C3 H9 0.930 1_655 S
C4 N2 1.400 . S
C4 C5 1.351 . S
C4 H21 0.930 . S
C5 N1 1.389 . S
C5 C4 1.351 . S
C5 H10 0.930 . S
O6 Cu0 1.974 . S
O6 C16 1.282 . S
C7 O8 1.261 1_655 S
C7 O20 1.251 . S
O8 C7 1.261 1_455 S
H9 C3 0.930 1_455 S
H10 C5 0.930 . S
N11 Cu0 1.985 . S
N11 C13 1.335 . S
N11 C14 1.390 . S
N12 C13 1.345 . S
N12 C15 1.336 . S
C13 N11 1.335 . S
C13 N12 1.345 . S
C13 H18 0.930 . S
C14 N11 1.390 . S
C14 C15 1.346 . S
C14 H19 0.930 . S
C15 N12 1.336 . S
C15 C14 1.346 . S
C15 H22 0.929 . S
C16 O6 1.282 . S
C16 O17 1.216 . S
O17 C16 1.216 . S
H18 C13 0.930 . S
H19 C14 0.930 . S
O20 Cu0 1.959 1_655 S
O20 C7 1.251 . S
H21 C4 0.930 . S
H22 C15 0.929 . S
Cu23 N24 1.999 . S
Cu23 O29 1.974 . S
Cu23 N34 1.985 . S
Cu23 O43 1.959 . S
N24 Cu23 1.999 . S
N24 C26 1.263 1_455 S
N24 C28 1.389 1_455 S
N25 C26 1.358 . S
N25 C27 1.400 . S
C26 N24 1.263 1_655 S
C26 N25 1.358 . S
C26 H32 0.930 . S
C27 N25 1.400 . S
C27 C28 1.351 . S
C27 H44 0.930 . S
C28 N24 1.389 1_655 S
C28 C27 1.351 . S
C28 H33 0.931 . S
O29 Cu23 1.974 . S
O29 C39 1.282 . S
C30 O31 1.261 . S
C30 O43 1.251 1_655 S
O31 C30 1.261 . S
H32 C26 0.930 . S
H33 C28 0.931 . S
N34 Cu23 1.985 . S
N34 C36 1.335 . S
N34 C37 1.390 . S
N35 C36 1.345 . S
N35 C38 1.336 . S
C36 N34 1.335 . S
C36 N35 1.345 . S
C36 H41 0.930 . S
C37 N34 1.390 . S
C37 C38 1.346 . S
C37 H42 0.930 . S
C38 N35 1.336 . S
C38 C37 1.346 . S
C38 H45 0.929 . S
C39 O29 1.282 . S
C39 O40 1.216 . S
O40 C39 1.216 . S
H41 C36 0.930 . S
H42 C37 0.930 . S
O43 Cu23 1.959 . S
O43 C30 1.251 1_455 S
H44 C27 0.930 . S
H45 C38 0.929 . S
Cu46 N47 1.999 . S
Cu46 O52 1.974 . S
Cu46 N57 1.985 . S
Cu46 O66 1.959 . S
N47 Cu46 1.999 . S
N47 C49 1.263 . S
N47 C51 1.389 . S
N48 C49 1.358 . S
N48 C50 1.400 . S
C49 N47 1.263 . S
C49 N48 1.358 . S
C49 H55 0.930 . S
C50 N48 1.400 . S
C50 C51 1.351 . S
C50 H67 0.930 . S
C51 N47 1.389 . S
C51 C50 1.351 . S
C51 H56 0.930 . S
O52 Cu46 1.974 . S
O52 C62 1.282 . S
C53 O54 1.261 . S
C53 O66 1.251 . S
O54 C53 1.261 . S
H55 C49 0.930 . S
H56 C51 0.930 . S
N57 Cu46 1.985 . S
N57 C59 1.335 . S
N57 C60 1.390 . S
N58 C59 1.345 . S
N58 C61 1.336 . S
C59 N57 1.335 . S
C59 N58 1.345 . S
C59 H64 0.930 . S
C60 N57 1.390 . S
C60 C61 1.346 . S
C60 H65 0.930 . S
C61 N58 1.336 . S
C61 C60 1.346 . S
C61 H68 0.929 . S
C62 O52 1.282 . S
C62 O63 1.216 . S
O63 C62 1.216 . S
H64 C59 0.930 . S
H65 C60 0.930 . S
O66 Cu46 1.959 . S
O66 C53 1.251 . S
H67 C50 0.930 . S
H68 C61 0.929 . S
Cu69 N70 1.999 . S
Cu69 O75 1.974 . S
Cu69 N80 1.985 . S
Cu69 O89 1.959 . S
N70 Cu69 1.999 . S
N70 C72 1.263 . S
N70 C74 1.389 . S
N71 C72 1.358 . S
N71 C73 1.400 . S
C72 N70 1.263 . S
C72 N71 1.358 . S
C72 H78 0.930 . S
C73 N71 1.400 . S
C73 C74 1.351 . S
C73 H90 0.930 . S
C74 N70 1.389 . S
C74 C73 1.351 . S
C74 H79 0.930 . S
O75 Cu69 1.974 . S
O75 C85 1.282 . S
C76 O77 1.261 . S
C76 O89 1.251 . S
O77 C76 1.261 . S
H78 C72 0.930 . S
H79 C74 0.930 . S
N80 Cu69 1.985 . S
N80 C82 1.335 . S
N80 C83 1.390 . S
N81 C82 1.345 . S
N81 C84 1.336 . S
C82 N80 1.335 . S
C82 N81 1.345 . S
C82 H87 0.930 . S
C83 N80 1.390 . S
C83 C84 1.346 . S
C83 H88 0.930 . S
C84 N81 1.336 . S
C84 C83 1.346 . S
C84 H91 0.929 . S
C85 O75 1.282 . S
C85 O86 1.216 . S
O86 C85 1.216 . S
H87 C82 0.930 . S
H88 C83 0.930 . S
O89 Cu69 1.959 . S
O89 C76 1.251 . S
H90 C73 0.930 . S
H91 C84 0.929 . S
Cu92 N93 1.999 1_565 S
Cu92 O98 1.974 . S
Cu92 N103 1.985 . S
Cu92 O112 1.959 1_565 S
N93 Cu92 1.999 1_545 S
N93 C95 1.263 . S
N93 C97 1.389 . S
N94 C95 1.358 . S
N94 C96 1.400 . S
C95 N93 1.263 . S
C95 N94 1.358 . S
C95 H101 0.930 . S
C96 N94 1.400 . S
C96 C97 1.351 . S
C96 H113 0.930 . S
C97 N93 1.389 . S
C97 C96 1.351 . S
C97 H102 0.930 . S
O98 Cu92 1.974 . S
O98 C108 1.282 . S
C99 O100 1.261 . S
C99 O112 1.251 . S
O100 C99 1.261 . S
H101 C95 0.930 . S
H102 C97 0.930 . S
N103 Cu92 1.985 . S
N103 C105 1.335 . S
N103 C106 1.390 . S
N104 C105 1.345 . S
N104 C107 1.336 . S
C105 N103 1.335 . S
C105 N104 1.345 . S
C105 H110 0.930 . S
C106 N103 1.390 . S
C106 C107 1.346 . S
C106 H111 0.930 . S
C107 N104 1.336 . S
C107 C106 1.346 . S
C107 H114 0.929 . S
C108 O98 1.282 . S
C108 O109 1.216 . S
O109 C108 1.216 . S
H110 C105 0.930 . S
H111 C106 0.930 . S
O112 Cu92 1.959 1_545 S
O112 C99 1.251 . S
H113 C96 0.930 . S
H114 C107 0.929 . S
Cu115 N116 1.999 . S
Cu115 O121 1.974 . S
Cu115 N126 1.985 . S
Cu115 O135 1.959 . S
N116 Cu115 1.999 . S
N116 C118 1.263 . S
N116 C120 1.389 . S
N117 C118 1.358 . S
N117 C119 1.400 . S
C118 N116 1.263 . S
C118 N117 1.358 . S
C118 H124 0.930 . S
C119 N117 1.400 . S
C119 C120 1.351 . S
C119 H136 0.930 . S
C120 N116 1.389 . S
C120 C119 1.351 . S
C120 H125 0.930 . S
O121 Cu115 1.974 . S
O121 C131 1.282 . S
C122 O123 1.261 . S
C122 O135 1.251 . S
O123 C122 1.261 . S
H124 C118 0.930 . S
H125 C120 0.930 . S
N126 Cu115 1.985 . S
N126 C128 1.335 . S
N126 C129 1.390 . S
N127 C128 1.345 1_545 S
N127 C130 1.336 1_545 S
C128 N126 1.335 . S
C128 N127 1.345 1_565 S
C128 H133 0.930 1_565 S
C129 N126 1.390 . S
C129 C130 1.346 . S
C129 H134 0.930 . S
C130 N127 1.336 1_565 S
C130 C129 1.346 . S
C130 H137 0.929 . S
C131 O121 1.282 . S
C131 O132 1.216 . S
O132 C131 1.216 . S
H133 C128 0.930 1_545 S
H134 C129 0.930 . S
O135 Cu115 1.959 . S
O135 C122 1.251 . S
H136 C119 0.930 . S
H137 C130 0.929 . S
Cu138 N139 1.999 . S
Cu138 O144 1.974 . S
Cu138 N149 1.985 . S
Cu138 O158 1.959 . S
N139 Cu138 1.999 . S
N139 C141 1.263 1_545 S
N139 C143 1.389 1_545 S
N140 C141 1.358 . S
N140 C142 1.400 . S
C141 N139 1.263 1_565 S
C141 N140 1.358 . S
C141 H147 0.930 . S
C142 N140 1.400 . S
C142 C143 1.351 . S
C142 H159 0.930 . S
C143 N139 1.389 1_565 S
C143 C142 1.351 . S
C143 H148 0.922 1_565 S
O144 Cu138 1.974 . S
O144 C154 1.282 . S
C145 O146 1.261 . S
C145 O158 1.251 1_565 S
O146 C145 1.261 . S
H147 C141 0.930 . S
H148 C143 0.922 1_545 S
N149 Cu138 1.985 . S
N149 C151 1.335 . S
N149 C152 1.390 . S
N150 C151 1.345 . S
N150 C153 1.336 . S
C151 N149 1.335 . S
C151 N150 1.345 . S
C151 H156 0.930 . S
C152 N149 1.390 . S
C152 C153 1.346 . S
C152 H157 0.930 . S
C153 N150 1.336 . S
C153 C152 1.346 . S
C153 H160 0.929 . S
C154 O144 1.282 . S
C154 O155 1.216 . S
O155 C154 1.216 . S
H156 C151 0.930 . S
H157 C152 0.930 . S
O158 Cu138 1.959 . S
O158 C145 1.251 1_545 S
H159 C142 0.930 . S
H160 C153 0.929 . S
Cu161 N162 1.999 . S
Cu161 O167 1.974 1_556 S
Cu161 N172 1.985 1_556 S
Cu161 O181 1.959 . S
N162 Cu161 1.999 . S
N162 C164 1.263 . S
N162 C166 1.389 . S
N163 C164 1.358 . S
N163 C165 1.400 . S
C164 N162 1.263 . S
C164 N163 1.358 . S
C164 H170 0.930 . S
C165 N163 1.400 . S
C165 C166 1.351 . S
C165 H182 0.930 . S
C166 N162 1.389 . S
C166 C165 1.351 . S
C166 H171 0.930 . S
O167 Cu161 1.974 1_554 S
O167 C177 1.282 . S
C168 O169 1.261 1_556 S
C168 O181 1.251 . S
O169 C168 1.261 1_554 S
H170 C164 0.930 . S
H171 C166 0.930 . S
N172 Cu161 1.985 1_554 S
N172 C174 1.335 . S
N172 C175 1.390 . S
N173 C174 1.345 . S
N173 C176 1.336 . S
C174 N172 1.335 . S
C174 N173 1.345 . S
C174 H179 0.934 . S
C175 N172 1.390 . S
C175 C176 1.346 . S
C175 H180 0.930 . S
C176 N173 1.336 . S
C176 C175 1.346 . S
C176 H183 0.929 . S
C177 O167 1.282 . S
C177 O178 1.216 . S
O178 C177 1.216 . S
H179 C174 0.934 . S
H180 C175 0.930 . S
O181 Cu161 1.959 . S
O181 C168 1.251 . S
H182 C165 0.930 . S
H183 C176 0.929 . S
Cu184 N185 1.999 . S
Cu184 O190 1.974 1_556 S
Cu184 N195 1.985 1_556 S
Cu184 O204 1.959 . S
N185 Cu184 1.999 . S
N185 C187 1.263 . S
N185 C189 1.389 . S
N186 C187 1.358 . S
N186 C188 1.400 . S
C187 N185 1.263 . S
C187 N186 1.358 . S
C187 H193 0.930 . S
C188 N186 1.400 . S
C188 C189 1.351 . S
C188 H205 0.930 . S
C189 N185 1.389 . S
C189 C188 1.351 . S
C189 H194 0.930 . S
O190 Cu184 1.974 1_554 S
O190 C200 1.282 . S
C191 O192 1.261 1_556 S
C191 O204 1.251 . S
O192 C191 1.261 1_554 S
H193 C187 0.930 . S
H194 C189 0.930 . S
N195 Cu184 1.985 1_554 S
N195 C197 1.335 . S
N195 C198 1.390 . S
N196 C197 1.345 . S
N196 C199 1.336 . S
C197 N195 1.335 . S
C197 N196 1.345 . S
C197 H202 0.914 1_554 S
C198 N195 1.390 . S
C198 C199 1.346 . S
C198 H203 0.930 . S
C199 N196 1.336 . S
C199 C198 1.346 . S
C199 H206 0.929 . S
C200 O190 1.282 . S
C200 O201 1.216 . S
O201 C200 1.216 . S
H202 C197 0.914 1_556 S
H203 C198 0.930 . S
O204 Cu184 1.959 . S
O204 C191 1.251 . S
H205 C188 0.930 . S
H206 C199 0.929 . S
Cu207 N208 1.999 . S
Cu207 O213 1.974 . S
Cu207 N218 1.985 . S
Cu207 O227 1.959 . S
N208 Cu207 1.999 . S
N208 C210 1.263 . S
N208 C212 1.389 . S
N209 C210 1.358 . S
N209 C211 1.400 . S
C210 N208 1.263 . S
C210 N209 1.358 . S
C210 H216 0.930 . S
C211 N209 1.400 . S
C211 C212 1.351 . S
C211 H228 0.930 . S
C212 N208 1.389 . S
C212 C211 1.351 . S
C212 H217 0.930 . S
O213 Cu207 1.974 . S
O213 C223 1.282 . S
C214 O215 1.261 . S
C214 O227 1.251 . S
O215 C214 1.261 . S
H216 C210 0.930 . S
H217 C212 0.930 . S
N218 Cu207 1.985 . S
N218 C220 1.335 . S
N218 C221 1.390 . S
N219 C220 1.345 . S
N219 C222 1.336 . S
C220 N218 1.335 . S
C220 N219 1.345 . S
C220 H225 0.930 . S
C221 N218 1.390 . S
C221 C222 1.346 . S
C221 H226 0.930 . S
C222 N219 1.336 . S
C222 C221 1.346 . S
C222 H229 0.929 . S
C223 O213 1.282 . S
C223 O224 1.216 . S
O224 C223 1.216 . S
H225 C220 0.930 . S
H226 C221 0.930 . S
O227 Cu207 1.959 . S
O227 C214 1.251 . S
H228 C211 0.930 . S
H229 C222 0.929 . S
Cu230 N231 1.999 . S
Cu230 O236 1.974 . S
Cu230 N241 1.985 . S
Cu230 O250 1.959 . S
N231 Cu230 1.999 . S
N231 C233 1.263 . S
N231 C235 1.389 . S
N232 C233 1.358 . S
N232 C234 1.400 . S
C233 N231 1.263 . S
C233 N232 1.358 . S
C233 H239 0.930 . S
C234 N232 1.400 . S
C234 C235 1.351 . S
C234 H251 0.930 . S
C235 N231 1.389 . S
C235 C234 1.351 . S
C235 H240 0.930 . S
O236 Cu230 1.974 . S
O236 C246 1.282 . S
C237 O238 1.261 . S
C237 O250 1.251 . S
O238 C237 1.261 . S
H239 C233 0.930 . S
H240 C235 0.930 . S
N241 Cu230 1.985 . S
N241 C243 1.335 . S
N241 C244 1.390 . S
N242 C243 1.345 . S
N242 C245 1.336 . S
C243 N241 1.335 . S
C243 N242 1.345 . S
C243 H248 0.930 . S
C244 N241 1.390 . S
C244 C245 1.346 . S
C244 H249 0.930 . S
C245 N242 1.336 . S
C245 C244 1.346 . S
C245 H252 0.929 . S
C246 O236 1.282 . S
C246 O247 1.216 . S
O247 C246 1.216 . S
H248 C243 0.930 . S
H249 C244 0.930 . S
O250 Cu230 1.959 . S
O250 C237 1.251 . S
H251 C234 0.930 . S
H252 C245 0.929 . S
Cu253 N254 1.999 . S
Cu253 O259 1.974 . S
Cu253 N264 1.985 . S
Cu253 O273 1.959 . S
N254 Cu253 1.999 . S
N254 C256 1.263 . S
N254 C258 1.389 . S
N255 C256 1.358 . S
N255 C257 1.400 . S
C256 N254 1.263 . S
C256 N255 1.358 . S
C256 H262 0.930 . S
C257 N255 1.400 . S
C257 C258 1.351 . S
C257 H274 0.930 . S
C258 N254 1.389 . S
C258 C257 1.351 . S
C258 H263 0.930 . S
O259 Cu253 1.974 . S
O259 C269 1.282 . S
C260 O261 1.261 . S
C260 O273 1.251 . S
O261 C260 1.261 . S
H262 C256 0.930 . S
H263 C258 0.930 . S
N264 Cu253 1.985 . S
N264 C266 1.335 . S
N264 C267 1.390 . S
N265 C266 1.345 . S
N265 C268 1.336 . S
C266 N264 1.335 . S
C266 N265 1.345 . S
C266 H271 0.930 . S
C267 N264 1.390 . S
C267 C268 1.346 . S
C267 H272 0.930 . S
C268 N265 1.336 . S
C268 C267 1.346 . S
C268 H275 0.929 . S
C269 O259 1.282 . S
C269 O270 1.216 . S
O270 C269 1.216 . S
H271 C266 0.930 . S
H272 C267 0.930 . S
O273 Cu253 1.959 . S
O273 C260 1.251 . S
H274 C257 0.930 . S
H275 C268 0.929 . S
H276 C282 0.930 . S
H277 C285 0.927 1_455 S
H278 C287 0.931 . S
H279 C289 0.930 . S
H280 C291 0.930 . S
H281 C293 0.931 . S
C282 H276 0.930 . S
C282 C283 1.380 . S
C282 C284 1.394 . S
C283 C282 1.380 . S
C283 C287 1.382 1_655 S
C284 C282 1.394 . S
C284 C285 1.400 . S
C285 H277 0.927 1_655 S
C285 C284 1.400 . S
C285 C286 1.375 1_655 S
C286 C285 1.375 1_455 S
C286 C287 1.415 . S
C286 C288 1.501 . S
C287 H278 0.931 . S
C287 C283 1.382 1_455 S
C287 C286 1.415 . S
C288 C286 1.501 . S
C288 C289 1.384 . S
C288 C293 1.408 . S
C289 H279 0.930 . S
C289 C288 1.384 . S
C289 C290 1.389 . S
C290 C289 1.389 . S
C290 C291 1.405 . S
C291 H280 0.930 . S
C291 C290 1.405 . S
C291 C292 1.364 . S
C292 C291 1.364 . S
C292 C293 1.400 . S
C293 H281 0.931 . S
C293 C288 1.408 . S
C293 C292 1.400 . S
H294 C300 0.930 . S
H295 C303 0.931 . S
H296 C305 0.931 . S
H297 C307 0.930 . S
H298 C309 0.930 . S
H299 C311 0.931 . S
C300 H294 0.930 . S
C300 C301 1.380 . S
C300 C302 1.394 . S
C301 C300 1.380 . S
C301 C305 1.382 . S
C302 C300 1.394 . S
C302 C303 1.400 . S
C303 H295 0.931 . S
C303 C302 1.400 . S
C303 C304 1.375 . S
C304 C303 1.375 . S
C304 C305 1.415 . S
C304 C306 1.501 1_655 S
C305 H296 0.931 . S
C305 C301 1.382 . S
C305 C304 1.415 . S
C306 C304 1.501 1_455 S
C306 C307 1.384 . S
C306 C311 1.408 . S
C307 H297 0.930 . S
C307 C306 1.384 . S
C307 C308 1.389 . S
C308 C307 1.389 . S
C308 C309 1.405 . S
C309 H298 0.930 . S
C309 C308 1.405 . S
C309 C310 1.364 . S
C310 C309 1.364 . S
C310 C311 1.400 . S
C311 H299 0.931 . S
C311 C306 1.408 . S
C311 C310 1.400 . S
H312 C318 0.930 . S
H313 C321 0.931 . S
H314 C323 0.931 . S
H315 C325 0.930 . S
H316 C327 0.930 . S
H317 C329 0.931 . S
C318 H312 0.930 . S
C318 C319 1.380 . S
C318 C320 1.394 . S
C319 C318 1.380 . S
C319 C323 1.382 . S
C320 C318 1.394 . S
C320 C321 1.400 . S
C321 H313 0.931 . S
C321 C320 1.400 . S
C321 C322 1.375 . S
C322 C321 1.375 . S
C322 C323 1.415 . S
C322 C324 1.501 . S
C323 H314 0.931 . S
C323 C319 1.382 . S
C323 C322 1.415 . S
C324 C322 1.501 . S
C324 C325 1.384 . S
C324 C329 1.408 . S
C325 H315 0.930 . S
C325 C324 1.384 . S
C325 C326 1.389 . S
C326 C325 1.389 . S
C326 C327 1.405 . S
C327 H316 0.930 . S
C327 C326 1.405 . S
C327 C328 1.364 . S
C328 C327 1.364 . S
C328 C329 1.400 . S
C329 H317 0.931 . S
C329 C324 1.408 . S
C329 C328 1.400 . S
H330 C336 0.930 . S
H331 C339 0.931 . S
H332 C341 0.931 . S
H333 C343 0.930 . S
H334 C345 0.930 . S
H335 C347 0.931 . S
C336 H330 0.930 . S
C336 C337 1.380 . S
C336 C338 1.394 . S
C337 C336 1.380 . S
C337 C341 1.382 . S
C338 C336 1.394 . S
C338 C339 1.400 . S
C339 H331 0.931 . S
C339 C338 1.400 . S
C339 C340 1.375 . S
C340 C339 1.375 . S
C340 C341 1.415 . S
C340 C342 1.501 . S
C341 H332 0.931 . S
C341 C337 1.382 . S
C341 C340 1.415 . S
C342 C340 1.501 . S
C342 C343 1.384 . S
C342 C347 1.408 . S
C343 H333 0.930 . S
C343 C342 1.384 . S
C343 C344 1.389 . S
C344 C343 1.389 . S
C344 C345 1.405 . S
C345 H334 0.930 . S
C345 C344 1.405 . S
C345 C346 1.364 . S
C346 C345 1.364 . S
C346 C347 1.400 . S
C347 H335 0.931 . S
C347 C342 1.408 . S
C347 C346 1.400 . S
H348 C354 0.930 . S
H349 C357 0.931 . S
H350 C359 0.931 . S
H351 C361 0.930 . S
H352 C363 0.930 . S
H353 C365 0.931 . S
C354 H348 0.930 . S
C354 C355 1.380 1_565 S
C354 C356 1.394 1_565 S
C355 C354 1.380 1_545 S
C355 C359 1.382 . S
C356 C354 1.394 1_545 S
C356 C357 1.400 . S
C357 H349 0.931 . S
C357 C356 1.400 . S
C357 C358 1.375 . S
C358 C357 1.375 . S
C358 C359 1.415 . S
C358 C360 1.501 . S
C359 H350 0.931 . S
C359 C355 1.382 . S
C359 C358 1.415 . S
C360 C358 1.501 . S
C360 C361 1.384 . S
C360 C365 1.408 . S
C361 H351 0.930 . S
C361 C360 1.384 . S
C361 C362 1.389 . S
C362 C361 1.389 . S
C362 C363 1.405 . S
C363 H352 0.930 . S
C363 C362 1.405 . S
C363 C364 1.364 . S
C364 C363 1.364 . S
C364 C365 1.400 . S
C365 H353 0.931 . S
C365 C360 1.408 . S
C365 C364 1.400 . S
H366 C372 0.930 . S
H367 C375 0.931 . S
H368 C377 0.931 . S
H369 C379 0.930 . S
H370 C381 0.930 . S
H371 C383 0.931 . S
C372 H366 0.930 . S
C372 C373 1.380 . S
C372 C374 1.394 . S
C373 C372 1.380 . S
C373 C377 1.382 . S
C374 C372 1.394 . S
C374 C375 1.400 . S
C375 H367 0.931 . S
C375 C374 1.400 . S
C375 C376 1.375 . S
C376 C375 1.375 . S
C376 C377 1.415 . S
C376 C378 1.501 . S
C377 H368 0.931 . S
C377 C373 1.382 . S
C377 C376 1.415 . S
C378 C376 1.501 . S
C378 C379 1.384 . S
C378 C383 1.408 . S
C379 H369 0.930 . S
C379 C378 1.384 . S
C379 C380 1.389 . S
C380 C379 1.389 . S
C380 C381 1.405 . S
C381 H370 0.930 . S
C381 C380 1.405 . S
C381 C382 1.364 . S
C382 C381 1.364 . S
C382 C383 1.400 . S
C383 H371 0.931 . S
C383 C378 1.408 . S
C383 C382 1.400 . S
H384 C390 0.930 . S
H385 C393 0.931 . S
H386 C395 0.931 . S
H387 C397 0.930 . S
H388 C399 0.930 . S
H389 C401 0.931 1_545 S
C390 H384 0.930 . S
C390 C391 1.380 . S
C390 C392 1.394 . S
C391 C390 1.380 . S
C391 C395 1.382 . S
C392 C390 1.394 . S
C392 C393 1.400 . S
C393 H385 0.931 . S
C393 C392 1.400 . S
C393 C394 1.375 . S
C394 C393 1.375 . S
C394 C395 1.415 . S
C394 C396 1.501 . S
C395 H386 0.931 . S
C395 C391 1.382 . S
C395 C394 1.415 . S
C396 C394 1.501 . S
C396 C397 1.384 . S
C396 C401 1.408 1_545 S
C397 H387 0.930 . S
C397 C396 1.384 . S
C397 C398 1.389 1_545 S
C398 C397 1.389 1_565 S
C398 C399 1.405 . S
C399 H388 0.930 . S
C399 C398 1.405 . S
C399 C400 1.364 . S
C400 C399 1.364 . S
C400 C401 1.399 . S
C401 H389 0.931 1_565 S
C401 C396 1.408 1_565 S
C401 C400 1.399 . S
H402 C408 0.930 . S
H403 C411 0.931 1_554 S
H404 C413 0.931 . S
H405 C415 0.930 . S
H406 C417 0.930 . S
H407 C419 0.931 . S
C408 H402 0.930 . S
C408 C409 1.380 . S
C408 C410 1.394 . S
C409 C408 1.380 . S
C409 C413 1.382 . S
C410 C408 1.394 . S
C410 C411 1.400 . S
C411 H403 0.931 1_556 S
C411 C410 1.400 . S
C411 C412 1.375 1_556 S
C412 C411 1.375 1_554 S
C412 C413 1.415 1_554 S
C412 C414 1.501 . S
C413 H404 0.931 . S
C413 C409 1.382 . S
C413 C412 1.415 1_556 S
C414 C412 1.501 . S
C414 C415 1.384 . S
C414 C419 1.408 . S
C415 H405 0.930 . S
C415 C414 1.384 . S
C415 C416 1.389 . S
C416 C415 1.389 . S
C416 C417 1.405 . S
C417 H406 0.930 . S
C417 C416 1.405 . S
C417 C418 1.364 . S
C418 C417 1.364 . S
C418 C419 1.400 . S
C419 H407 0.931 . S
C419 C414 1.408 . S
C419 C418 1.400 . S
H420 C426 0.930 . S
H421 C429 0.931 1_554 S
H422 C431 0.931 . S
H423 C433 0.930 . S
H424 C435 0.930 . S
H425 C437 0.931 . S
C426 H420 0.930 . S
C426 C427 1.380 . S
C426 C428 1.394 . S
C427 C426 1.380 . S
C427 C431 1.382 . S
C428 C426 1.394 . S
C428 C429 1.400 . S
C429 H421 0.931 1_556 S
C429 C428 1.400 . S
C429 C430 1.375 1_556 S
C430 C429 1.375 1_554 S
C430 C431 1.415 1_554 S
C430 C432 1.501 . S
C431 H422 0.931 . S
C431 C427 1.382 . S
C431 C430 1.415 1_556 S
C432 C430 1.501 . S
C432 C433 1.384 . S
C432 C437 1.408 . S
C433 H423 0.930 . S
C433 C432 1.384 . S
C433 C434 1.389 . S
C434 C433 1.389 . S
C434 C435 1.405 . S
C435 H424 0.930 . S
C435 C434 1.405 . S
C435 C436 1.364 . S
C436 C435 1.364 . S
C436 C437 1.400 . S
C437 H425 0.931 . S
C437 C432 1.408 . S
C437 C436 1.400 . S
H438 C444 0.930 . S
H439 C447 0.931 . S
H440 C449 0.931 . S
H441 C451 0.930 . S
H442 C453 0.930 . S
H443 C455 0.931 . S
C444 H438 0.930 . S
C444 C445 1.380 . S
C444 C446 1.394 . S
C445 C444 1.380 . S
C445 C449 1.382 . S
C446 C444 1.394 . S
C446 C447 1.400 . S
C447 H439 0.931 . S
C447 C446 1.400 . S
C447 C448 1.375 . S
C448 C447 1.375 . S
C448 C449 1.415 . S
C448 C450 1.501 . S
C449 H440 0.931 . S
C449 C445 1.382 . S
C449 C448 1.415 . S
C450 C448 1.501 . S
C450 C451 1.384 . S
C450 C455 1.408 . S
C451 H441 0.930 . S
C451 C450 1.384 . S
C451 C452 1.389 . S
C452 C451 1.389 . S
C452 C453 1.405 . S
C453 H442 0.930 . S
C453 C452 1.405 . S
C453 C454 1.364 . S
C454 C453 1.364 . S
C454 C455 1.400 . S
C455 H443 0.931 . S
C455 C450 1.408 . S
C455 C454 1.400 . S
H456 C462 0.930 . S
H457 C465 0.931 . S
H458 C467 0.931 . S
H459 C469 0.930 . S
H460 C471 0.930 . S
H461 C473 0.931 . S
C462 H456 0.930 . S
C462 C463 1.380 . S
C462 C464 1.394 . S
C463 C462 1.380 . S
C463 C467 1.382 . S
C464 C462 1.394 . S
C464 C465 1.400 . S
C465 H457 0.931 . S
C465 C464 1.400 . S
C465 C466 1.375 . S
C466 C465 1.375 . S
C466 C467 1.415 . S
C466 C468 1.501 . S
C467 H458 0.931 . S
C467 C463 1.382 . S
C467 C466 1.415 . S
C468 C466 1.501 . S
C468 C469 1.384 . S
C468 C473 1.408 . S
C469 H459 0.930 . S
C469 C468 1.384 . S
C469 C470 1.389 . S
C470 C469 1.389 . S
C470 C471 1.405 . S
C471 H460 0.930 . S
C471 C470 1.405 . S
C471 C472 1.364 . S
C472 C471 1.364 . S
C472 C473 1.400 . S
C473 H461 0.931 . S
C473 C468 1.408 . S
C473 C472 1.400 . S
H474 C480 0.930 . S
H475 C483 0.931 . S
H476 C485 0.931 . S
H477 C487 0.930 . S
H478 C489 0.930 . S
H479 C491 0.931 . S
C480 H474 0.930 . S
C480 C481 1.380 . S
C480 C482 1.394 . S
C481 C480 1.380 . S
C481 C485 1.382 . S
C482 C480 1.394 . S
C482 C483 1.400 . S
C483 H475 0.931 . S
C483 C482 1.400 . S
C483 C484 1.375 . S
C484 C483 1.375 . S
C484 C485 1.415 . S
C484 C486 1.501 . S
C485 H476 0.931 . S
C485 C481 1.382 . S
C485 C484 1.415 . S
C486 C484 1.501 . S
C486 C487 1.384 . S
C486 C491 1.408 . S
C487 H477 0.930 . S
C487 C486 1.384 . S
C487 C488 1.389 . S
C488 C487 1.389 . S
C488 C489 1.405 . S
C489 H478 0.930 . S
C489 C488 1.405 . S
C489 C490 1.364 . S
C490 C489 1.364 . S
C490 C491 1.400 . S
C491 H479 0.931 . S
C491 C486 1.408 . S
C491 C490 1.400 . S
H492 C500 0.950 . S
H493 C505 0.950 . S
H494 C502 0.950 . S
H495 C504 0.950 . S
H496 C506 0.950 . S
H497 C508 0.950 . S
H498 C510 0.950 . S
H499 C511 0.950 . S
C500 H492 0.950 . S
C500 C501 1.386 . S
C500 C502 1.391 1_554 S
C501 C500 1.386 . S
C501 C505 1.393 1_554 S
C502 H494 0.950 . S
C502 C500 1.391 1_556 S
C502 C503 1.400 . S
C503 C502 1.400 . S
C503 C504 1.398 . S
C503 C509 1.491 . S
C504 H495 0.950 . S
C504 C503 1.398 . S
C504 C505 1.391 . S
C505 H493 0.950 . S
C505 C501 1.393 1_556 S
C505 C504 1.391 . S
C506 H496 0.950 . S
C506 C507 1.386 . S
C506 C508 1.391 . S
C507 C506 1.386 . S
C507 C511 1.393 . S
C508 H497 0.950 . S
C508 C506 1.391 . S
C508 C509 1.400 . S
C509 C503 1.491 . S
C509 C508 1.400 . S
C509 C510 1.398 . S
C510 H498 0.950 . S
C510 C509 1.398 . S
C510 C511 1.391 . S
C511 H499 0.950 . S
C511 C507 1.393 . S
C511 C510 1.391 . S
H512 C520 0.950 . S
H513 C525 0.950 . S
H514 C522 0.950 . S
H515 C524 0.950 . S
H516 C526 0.950 . S
H517 C528 0.950 . S
H518 C530 0.950 . S
H519 C531 0.950 . S
C520 H512 0.950 . S
C520 C521 1.386 . S
C520 C522 1.391 . S
C521 C520 1.386 . S
C521 C525 1.393 . S
C522 H514 0.950 . S
C522 C520 1.391 . S
C522 C523 1.400 . S
C523 C522 1.400 . S
C523 C524 1.398 . S
C523 C529 1.491 . S
C524 H515 0.950 . S
C524 C523 1.398 . S
C524 C525 1.391 . S
C525 H513 0.950 . S
C525 C521 1.393 . S
C525 C524 1.391 . S
C526 H516 0.950 . S
C526 C527 1.386 . S
C526 C528 1.391 . S
C527 C526 1.386 . S
C527 C531 1.393 . S
C528 H517 0.950 . S
C528 C526 1.391 . S
C528 C529 1.400 . S
C529 C523 1.491 . S
C529 C528 1.400 . S
C529 C530 1.398 . S
C530 H518 0.950 . S
C530 C529 1.398 . S
C530 C531 1.391 . S
C531 H519 0.950 . S
C531 C527 1.393 . S
C531 C530 1.391 . S
H532 C540 0.950 . S
H533 C545 0.950 . S
H534 C542 0.950 . S
H535 C544 0.950 . S
H536 C546 0.950 . S
H537 C548 0.950 . S
H538 C550 0.950 . S
H539 C551 0.950 . S
C540 H532 0.950 . S
C540 C541 1.386 . S
C540 C542 1.391 . S
C541 C540 1.386 . S
C541 C545 1.393 . S
C542 H534 0.950 . S
C542 C540 1.391 . S
C542 C543 1.400 . S
C543 C542 1.400 . S
C543 C544 1.398 . S
C543 C549 1.491 . S
C544 H535 0.950 . S
C544 C543 1.398 . S
C544 C545 1.391 . S
C545 H533 0.950 . S
C545 C541 1.393 . S
C545 C544 1.391 . S
C546 H536 0.950 . S
C546 C547 1.386 . S
C546 C548 1.391 . S
C547 C546 1.386 . S
C547 C551 1.393 . S
C548 H537 0.950 . S
C548 C546 1.391 . S
C548 C549 1.400 . S
C549 C543 1.491 . S
C549 C548 1.400 . S
C549 C550 1.398 . S
C550 H538 0.950 . S
C550 C549 1.398 . S
C550 C551 1.391 . S
C551 H539 0.950 . S
C551 C547 1.393 . S
C551 C550 1.391 . S
H552 C560 0.950 . S
H553 C565 0.950 . S
H554 C562 0.950 . S
H555 C564 0.950 . S
H556 C566 0.950 . S
H557 C568 0.950 . S
H558 C570 0.950 . S
H559 C571 0.950 . S
C560 H552 0.950 . S
C560 C561 1.386 . S
C560 C562 1.391 . S
C561 C560 1.386 . S
C561 C565 1.393 . S
C562 H554 0.950 . S
C562 C560 1.391 . S
C562 C563 1.400 . S
C563 C562 1.400 . S
C563 C564 1.398 . S
C563 C569 1.491 . S
C564 H555 0.950 . S
C564 C563 1.398 . S
C564 C565 1.391 . S
C565 H553 0.950 . S
C565 C561 1.393 . S
C565 C564 1.391 . S
C566 H556 0.950 . S
C566 C567 1.386 . S
C566 C568 1.391 . S
C567 C566 1.386 . S
C567 C571 1.393 . S
C568 H557 0.950 . S
C568 C566 1.391 . S
C568 C569 1.400 . S
C569 C563 1.491 . S
C569 C568 1.400 . S
C569 C570 1.398 . S
C570 H558 0.950 . S
C570 C569 1.398 . S
C570 C571 1.391 . S
C571 H559 0.950 . S
C571 C567 1.393 . S
C571 C570 1.391 . S
H572 C580 0.950 . S
H573 C585 0.950 1_655 S
H574 C582 0.950 . S
H575 C584 0.950 . S
H576 C586 0.950 . S
H577 C588 0.950 . S
H578 C590 0.950 . S
H579 C591 0.950 . S
C580 H572 0.950 . S
C580 C581 1.386 . S
C580 C582 1.391 . S
C581 C580 1.386 . S
C581 C585 1.393 . S
C582 H574 0.950 . S
C582 C580 1.391 . S
C582 C583 1.400 . S
C583 C582 1.400 . S
C583 C584 1.398 . S
C583 C589 1.491 . S
C584 H575 0.950 . S
C584 C583 1.398 . S
C584 C585 1.391 . S
C585 H573 0.950 1_455 S
C585 C581 1.393 . S
C585 C584 1.391 . S
C586 H576 0.950 . S
C586 C587 1.386 . S
C586 C588 1.391 . S
C587 C586 1.386 . S
C587 C591 1.393 . S
C588 H577 0.950 . S
C588 C586 1.391 . S
C588 C589 1.400 . S
C589 C583 1.491 . S
C589 C588 1.400 . S
C589 C590 1.398 . S
C590 H578 0.950 . S
C590 C589 1.398 . S
C590 C591 1.391 . S
C591 H579 0.950 . S
C591 C587 1.393 . S
C591 C590 1.391 . S
H592 C600 0.950 . S
H593 C605 0.950 . S
H594 C602 0.950 . S
H595 C604 0.950 . S
H596 C606 0.950 . S
H597 C608 0.950 . S
H598 C610 0.950 . S
H599 C611 0.950 . S
C600 H592 0.950 . S
C600 C601 1.386 . S
C600 C602 1.391 . S
C601 C600 1.386 . S
C601 C605 1.393 . S
C602 H594 0.950 . S
C602 C600 1.391 . S
C602 C603 1.400 . S
C603 C602 1.400 . S
C603 C604 1.398 . S
C603 C609 1.491 . S
C604 H595 0.950 . S
C604 C603 1.398 . S
C604 C605 1.391 . S
C605 H593 0.950 . S
C605 C601 1.393 . S
C605 C604 1.391 . S
C606 H596 0.950 . S
C606 C607 1.386 . S
C606 C608 1.391 . S
C607 C606 1.386 . S
C607 C611 1.393 . S
C608 H597 0.950 . S
C608 C606 1.391 . S
C608 C609 1.400 . S
C609 C603 1.491 . S
C609 C608 1.400 . S
C609 C610 1.398 . S
C610 H598 0.950 . S
C610 C609 1.398 . S
C610 C611 1.391 . S
C611 H599 0.950 . S
C611 C607 1.393 . S
C611 C610 1.391 . S
H612 C620 0.963 . S
H613 C625 0.950 . S
H614 C622 0.950 . S
H615 C624 0.950 . S
H616 C626 0.950 . S
H617 C628 0.950 . S
H618 C630 0.950 . S
H619 C631 0.950 . S
C620 H612 0.963 . S
C620 C621 1.386 . S
C620 C622 1.391 . S
C621 C620 1.386 . S
C621 C625 1.393 . S
C622 H614 0.950 . S
C622 C620 1.391 . S
C622 C623 1.400 . S
C623 C622 1.400 . S
C623 C624 1.398 . S
C623 C629 1.491 . S
C624 H615 0.950 . S
C624 C623 1.398 . S
C624 C625 1.391 . S
C625 H613 0.950 . S
C625 C621 1.393 . S
C625 C624 1.391 . S
C626 H616 0.950 . S
C626 C627 1.386 . S
C626 C628 1.391 . S
C627 C626 1.386 . S
C627 C631 1.393 . S
C628 H617 0.950 . S
C628 C626 1.391 . S
C628 C629 1.400 . S
C629 C623 1.491 . S
C629 C628 1.400 . S
C629 C630 1.398 . S
C630 H618 0.950 . S
C630 C629 1.398 . S
C630 C631 1.391 . S
C631 H619 0.950 . S
C631 C627 1.393 . S
C631 C630 1.391 . S
H632 C640 0.950 . S
H633 C645 0.950 . S
H634 C642 0.950 . S
H635 C644 0.950 . S
H636 C646 0.950 . S
H637 C648 0.950 . S
H638 C650 0.950 . S
H639 C651 0.950 . S
C640 H632 0.950 . S
C640 C641 1.386 . S
C640 C642 1.391 . S
C641 C640 1.386 . S
C641 C645 1.393 . S
C642 H634 0.950 . S
C642 C640 1.391 . S
C642 C643 1.400 . S
C643 C642 1.400 . S
C643 C644 1.398 . S
C643 C649 1.491 . S
C644 H635 0.950 . S
C644 C643 1.398 . S
C644 C645 1.391 . S
C645 H633 0.950 . S
C645 C641 1.393 . S
C645 C644 1.391 . S
C646 H636 0.950 . S
C646 C647 1.386 . S
C646 C648 1.391 . S
C647 C646 1.386 . S
C647 C651 1.393 . S
C648 H637 0.950 . S
C648 C646 1.391 . S
C648 C649 1.400 . S
C649 C643 1.491 . S
C649 C648 1.400 . S
C649 C650 1.398 . S
C650 H638 0.950 . S
C650 C649 1.398 . S
C650 C651 1.391 . S
C651 H639 0.950 . S
C651 C647 1.393 . S
C651 C650 1.391 . S
H652 C660 0.950 . S
H653 C665 0.950 1_565 S
H654 C662 0.950 . S
H655 C664 0.950 1_565 S
H656 C666 0.943 1_565 S
H657 C668 0.950 1_565 S
H658 C670 0.950 . S
H659 C671 0.950 . S
C660 H652 0.950 . S
C660 C661 1.386 . S
C660 C662 1.391 1_455 S
C661 C660 1.386 . S
C661 C665 1.393 1_455 S
C662 H654 0.950 . S
C662 C660 1.391 1_655 S
C662 C663 1.400 . S
C663 C662 1.400 . S
C663 C664 1.398 . S
C663 C669 1.491 . S
C664 H655 0.950 1_545 S
C664 C663 1.398 . S
C664 C665 1.391 . S
C665 H653 0.950 1_545 S
C665 C661 1.393 1_655 S
C665 C664 1.391 . S
C666 H656 0.943 1_545 S
C666 C667 1.386 . S
C666 C668 1.391 . S
C667 C666 1.386 . S
C667 C671 1.393 . S
C668 H657 0.950 1_545 S
C668 C666 1.391 . S
C668 C669 1.400 . S
C669 C663 1.491 . S
C669 C668 1.400 . S
C669 C670 1.398 . S
C670 H658 0.950 . S
C670 C669 1.398 . S
C670 C671 1.391 . S
C671 H659 0.950 . S
C671 C667 1.393 . S
C671 C670 1.391 . S
H672 C680 0.950 . S
H673 C685 0.950 . S
H674 C682 0.950 . S
H675 C684 0.950 . S
H676 C686 0.950 . S
H677 C688 0.950 . S
H678 C690 0.950 . S
H679 C691 0.950 . S
C680 H672 0.950 . S
C680 C681 1.386 . S
C680 C682 1.391 . S
C681 C680 1.386 . S
C681 C685 1.393 . S
C682 H674 0.950 . S
C682 C680 1.391 . S
C682 C683 1.400 . S
C683 C682 1.400 . S
C683 C684 1.398 . S
C683 C689 1.491 . S
C684 H675 0.950 . S
C684 C683 1.398 . S
C684 C685 1.391 . S
C685 H673 0.950 . S
C685 C681 1.393 . S
C685 C684 1.391 . S
C686 H676 0.950 . S
C686 C687 1.386 . S
C686 C688 1.391 . S
C687 C686 1.386 . S
C687 C691 1.393 . S
C688 H677 0.950 . S
C688 C686 1.391 . S
C688 C689 1.400 . S
C689 C683 1.491 . S
C689 C688 1.400 . S
C689 C690 1.398 . S
C690 H678 0.950 . S
C690 C689 1.398 . S
C690 C691 1.391 . S
C691 H679 0.950 . S
C691 C687 1.393 . S
C691 C690 1.391 . S
H692 C700 0.950 . S
H693 C705 0.950 . S
H694 C702 0.950 . S
H695 C704 0.950 . S
H696 C706 0.950 . S
H697 C708 0.950 . S
H698 C710 0.950 . S
H699 C711 0.950 . S
C700 H692 0.950 . S
C700 C701 1.386 . S
C700 C702 1.391 . S
C701 C700 1.386 . S
C701 C705 1.393 . S
C702 H694 0.950 . S
C702 C700 1.391 . S
C702 C703 1.400 . S
C703 C702 1.400 . S
C703 C704 1.398 . S
C703 C709 1.491 . S
C704 H695 0.950 . S
C704 C703 1.398 . S
C704 C705 1.391 . S
C705 H693 0.950 . S
C705 C701 1.393 . S
C705 C704 1.391 . S
C706 H696 0.950 . S
C706 C707 1.386 . S
C706 C708 1.391 . S
C707 C706 1.386 . S
C707 C711 1.393 . S
C708 H697 0.950 . S
C708 C706 1.391 . S
C708 C709 1.400 . S
C709 C703 1.491 . S
C709 C708 1.400 . S
C709 C710 1.398 . S
C710 H698 0.950 . S
C710 C709 1.398 . S
C710 C711 1.391 . S
C711 H699 0.950 . S
C711 C707 1.393 . S
C711 C710 1.391 . S
H712 C720 0.950 . S
H713 C725 0.950 . S
H714 C722 0.950 . S
H715 C724 0.950 . S
H716 C726 0.950 . S
H717 C728 0.950 . S
H718 C730 0.950 . S
H719 C731 0.950 . S
C720 H712 0.950 . S
C720 C721 1.386 . S
C720 C722 1.391 . S
C721 C720 1.386 . S
C721 C725 1.393 . S
C722 H714 0.950 . S
C722 C720 1.391 . S
C722 C723 1.400 . S
C723 C722 1.400 . S
C723 C724 1.398 . S
C723 C729 1.491 . S
C724 H715 0.950 . S
C724 C723 1.398 . S
C724 C725 1.391 . S
C725 H713 0.950 . S
C725 C721 1.393 . S
C725 C724 1.391 . S
C726 H716 0.950 . S
C726 C727 1.386 . S
C726 C728 1.391 . S
C727 C726 1.386 . S
C727 C731 1.393 . S
C728 H717 0.950 . S
C728 C726 1.391 . S
C728 C729 1.400 . S
C729 C723 1.491 . S
C729 C728 1.400 . S
C729 C730 1.398 . S
C730 H718 0.950 . S
C730 C729 1.398 . S
C730 C731 1.391 . S
C731 H719 0.950 . S
C731 C727 1.393 . S
C731 C730 1.391 . S
H732 C740 0.950 . S
H733 C745 0.950 . S
H734 C742 0.950 . S
H735 C744 0.950 . S
H736 C746 0.950 . S
H737 C748 0.950 . S
H738 C750 0.950 . S
H739 C751 0.950 . S
C740 H732 0.950 . S
C740 C741 1.386 . S
C740 C742 1.391 . S
C741 C740 1.386 . S
C741 C745 1.393 . S
C742 H734 0.950 . S
C742 C740 1.391 . S
C742 C743 1.400 1_455 S
C743 C742 1.400 1_655 S
C743 C744 1.398 . S
C743 C749 1.491 . S
C744 H735 0.950 . S
C744 C743 1.398 . S
C744 C745 1.391 1_655 S
C745 H733 0.950 . S
C745 C741 1.393 . S
C745 C744 1.391 1_455 S
C746 H736 0.950 . S
C746 C747 1.386 . S
C746 C748 1.391 . S
C747 C746 1.386 . S
C747 C751 1.393 . S
C748 H737 0.950 . S
C748 C746 1.391 . S
C748 C749 1.400 . S
C749 C743 1.491 . S
C749 C748 1.400 . S
C749 C750 1.398 . S
C750 H738 0.950 . S
C750 C749 1.398 . S
C750 C751 1.391 . S
C751 H739 0.950 . S
C751 C747 1.393 . S
C751 C750 1.391 . S
H752 C760 0.950 . S
H753 C765 0.950 . S
H754 C762 0.950 . S
H755 C764 0.950 . S
H756 C766 0.950 . S
H757 C768 0.950 . S
H758 C770 0.950 . S
H759 C771 0.950 . S
C760 H752 0.950 . S
C760 C761 1.386 . S
C760 C762 1.391 . S
C761 C760 1.386 . S
C761 C765 1.393 . S
C762 H754 0.950 . S
C762 C760 1.391 . S
C762 C763 1.400 . S
C763 C762 1.400 . S
C763 C764 1.398 . S
C763 C769 1.491 . S
C764 H755 0.950 . S
C764 C763 1.398 . S
C764 C765 1.391 . S
C765 H753 0.950 . S
C765 C761 1.393 . S
C765 C764 1.391 . S
C766 H756 0.950 . S
C766 C767 1.386 . S
C766 C768 1.391 . S
C767 C766 1.386 . S
C767 C771 1.393 . S
C768 H757 0.950 . S
C768 C766 1.391 . S
C768 C769 1.400 . S
C769 C763 1.491 . S
C769 C768 1.400 . S
C769 C770 1.398 . S
C770 H758 0.950 . S
C770 C769 1.398 . S
C770 C771 1.391 . S
C771 H759 0.950 . S
C771 C767 1.393 . S
C771 C770 1.391 . S
H772 C780 0.950 . S
H773 C785 0.950 . S
H774 C782 0.950 . S
H775 C784 0.950 . S
H776 C786 0.950 . S
H777 C788 0.950 . S
H778 C790 0.950 . S
H779 C791 0.950 . S
C780 H772 0.950 . S
C780 C781 1.386 . S
C780 C782 1.391 . S
C781 C780 1.386 . S
C781 C785 1.393 . S
C782 H774 0.950 . S
C782 C780 1.391 . S
C782 C783 1.400 . S
C783 C782 1.400 . S
C783 C784 1.398 . S
C783 C789 1.491 . S
C784 H775 0.950 . S
C784 C783 1.398 . S
C784 C785 1.391 . S
C785 H773 0.950 . S
C785 C781 1.393 . S
C785 C784 1.391 . S
C786 H776 0.950 . S
C786 C787 1.386 . S
C786 C788 1.391 . S
C787 C786 1.386 . S
C787 C791 1.393 . S
C788 H777 0.950 . S
C788 C786 1.391 . S
C788 C789 1.400 . S
C789 C783 1.491 . S
C789 C788 1.400 . S
C789 C790 1.398 . S
C790 H778 0.950 . S
C790 C789 1.398 . S
C790 C791 1.391 . S
C791 H779 0.950 . S
C791 C787 1.393 . S
C791 C790 1.391 . S
H792 C800 0.950 . S
H793 C805 0.950 . S
H794 C802 0.950 . S
H795 C804 0.950 . S
H796 C806 0.950 . S
H797 C808 0.950 . S
H798 C810 0.950 . S
H799 C811 0.950 . S
C800 H792 0.950 . S
C800 C801 1.386 . S
C800 C802 1.391 . S
C801 C800 1.386 . S
C801 C805 1.393 . S
C802 H794 0.950 . S
C802 C800 1.391 . S
C802 C803 1.400 . S
C803 C802 1.400 . S
C803 C804 1.398 . S
C803 C809 1.491 . S
C804 H795 0.950 . S
C804 C803 1.398 . S
C804 C805 1.391 . S
C805 H793 0.950 . S
C805 C801 1.393 . S
C805 C804 1.391 . S
C806 H796 0.950 . S
C806 C807 1.386 . S
C806 C808 1.391 . S
C807 C806 1.386 . S
C807 C811 1.393 . S
C808 H797 0.950 . S
C808 C806 1.391 . S
C808 C809 1.400 . S
C809 C803 1.491 . S
C809 C808 1.400 . S
C809 C810 1.398 . S
C810 H798 0.950 . S
C810 C809 1.398 . S
C810 C811 1.391 . S
C811 H799 0.950 . S
C811 C807 1.393 . S
C811 C810 1.391 . S
H812 C820 0.950 . S
H813 C825 0.950 . S
H814 C822 0.962 . S
H815 C824 0.954 . S
H816 C826 0.950 . S
H817 C828 0.950 . S
H818 C830 0.950 . S
H819 C831 0.950 . S
C820 H812 0.950 . S
C820 C821 1.386 . S
C820 C822 1.371 1_545 S
C821 C820 1.386 . S
C821 C825 1.393 . S
C822 H814 0.962 . S
C822 C820 1.371 1_565 S
C822 C823 1.409 . S
C823 C822 1.409 . S
C823 C824 1.398 1_565 S
C823 C829 1.491 . S
C824 H815 0.954 . S
C824 C823 1.398 1_545 S
C824 C825 1.391 . S
C825 H813 0.950 . S
C825 C821 1.393 . S
C825 C824 1.391 . S
C826 H816 0.950 . S
C826 C827 1.386 . S
C826 C828 1.391 . S
C827 C826 1.386 . S
C827 C831 1.393 . S
C828 H817 0.950 . S
C828 C826 1.391 . S
C828 C829 1.400 . S
C829 C823 1.491 . S
C829 C828 1.400 . S
C829 C830 1.398 . S
C830 H818 0.950 . S
C830 C829 1.398 . S
C830 C831 1.391 . S
C831 H819 0.950 . S
C831 C827 1.393 . S
C831 C830 1.391 . S
H832 C840 0.950 . S
H833 C845 0.950 . S
H834 C842 0.950 . S
H835 C844 0.950 . S
H836 C846 0.950 . S
H837 C848 0.950 . S
H838 C850 0.950 . S
H839 C851 0.950 . S
C840 H832 0.950 . S
C840 C841 1.386 . S
C840 C842 1.391 . S
C841 C840 1.386 . S
C841 C845 1.393 . S
C842 H834 0.950 . S
C842 C840 1.391 . S
C842 C843 1.400 . S
C843 C842 1.400 . S
C843 C844 1.398 . S
C843 C849 1.491 . S
C844 H835 0.950 . S
C844 C843 1.398 . S
C844 C845 1.391 . S
C845 H833 0.950 . S
C845 C841 1.393 . S
C845 C844 1.391 . S
C846 H836 0.950 . S
C846 C847 1.386 . S
C846 C848 1.391 . S
C847 C846 1.386 . S
C847 C851 1.393 . S
C848 H837 0.950 . S
C848 C846 1.391 . S
C848 C849 1.400 . S
C849 C843 1.491 . S
C849 C848 1.400 . S
C849 C850 1.398 . S
C850 H838 0.950 . S
C850 C849 1.398 . S
C850 C851 1.391 . S
C851 H839 0.950 . S
C851 C847 1.393 . S
C851 C850 1.391 . S
H852 C860 0.950 . S
H853 C865 0.950 . S
H854 C862 0.950 . S
H855 C864 0.950 . S
H856 C866 0.950 . S
H857 C868 0.950 . S
H858 C870 0.950 . S
H859 C871 0.950 . S
C860 H852 0.950 . S
C860 C861 1.386 . S
C860 C862 1.391 . S
C861 C860 1.386 . S
C861 C865 1.393 . S
C862 H854 0.950 . S
C862 C860 1.391 . S
C862 C863 1.400 . S
C863 C862 1.400 . S
C863 C864 1.398 . S
C863 C869 1.491 . S
C864 H855 0.950 . S
C864 C863 1.398 . S
C864 C865 1.391 . S
C865 H853 0.950 . S
C865 C861 1.393 . S
C865 C864 1.391 . S
C866 H856 0.950 . S
C866 C867 1.386 . S
C866 C868 1.391 . S
C867 C866 1.386 . S
C867 C871 1.393 . S
C868 H857 0.950 . S
C868 C866 1.391 . S
C868 C869 1.400 . S
C869 C863 1.491 . S
C869 C868 1.400 . S
C869 C870 1.398 . S
C870 H858 0.950 . S
C870 C869 1.398 . S
C870 C871 1.391 . S
C871 H859 0.950 . S
C871 C867 1.393 . S
C871 C870 1.391 . S
H872 C880 0.950 . S
H873 C885 0.950 . S
H874 C882 0.950 . S
H875 C884 0.950 . S
H876 C886 0.950 . S
H877 C888 0.950 . S
H878 C890 0.950 . S
H879 C891 0.950 . S
C880 H872 0.950 . S
C880 C881 1.386 . S
C880 C882 1.391 . S
C881 C880 1.386 . S
C881 C885 1.393 . S
C882 H874 0.950 . S
C882 C880 1.391 . S
C882 C883 1.400 . S
C883 C882 1.400 . S
C883 C884 1.398 . S
C883 C889 1.491 . S
C884 H875 0.950 . S
C884 C883 1.398 . S
C884 C885 1.391 . S
C885 H873 0.950 . S
C885 C881 1.393 . S
C885 C884 1.391 . S
C886 H876 0.950 . S
C886 C887 1.386 . S
C886 C888 1.391 . S
C887 C886 1.386 . S
C887 C891 1.393 . S
C888 H877 0.950 . S
C888 C886 1.391 . S
C888 C889 1.400 . S
C889 C883 1.491 . S
C889 C888 1.400 . S
C889 C890 1.398 . S
C890 H878 0.950 . S
C890 C889 1.398 . S
C890 C891 1.391 . S
C891 H879 0.950 . S
C891 C887 1.393 . S
C891 C890 1.391 . S
H892 C900 0.950 . S
H893 C905 0.950 . S
H894 C902 0.950 . S
H895 C904 0.950 . S
H896 C906 0.950 . S
H897 C908 0.950 . S
H898 C910 0.950 . S
H899 C911 0.950 . S
C900 H892 0.950 . S
C900 C901 1.386 . S
C900 C902 1.391 . S
C901 C900 1.386 . S
C901 C905 1.393 . S
C902 H894 0.950 . S
C902 C900 1.391 . S
C902 C903 1.400 . S
C903 C902 1.400 . S
C903 C904 1.398 . S
C903 C909 1.491 . S
C904 H895 0.950 . S
C904 C903 1.398 . S
C904 C905 1.391 . S
C905 H893 0.950 . S
C905 C901 1.393 . S
C905 C904 1.391 . S
C906 H896 0.950 . S
C906 C907 1.386 . S
C906 C908 1.391 . S
C907 C906 1.386 . S
C907 C911 1.393 . S
C908 H897 0.950 . S
C908 C906 1.391 . S
C908 C909 1.400 . S
C909 C903 1.491 . S
C909 C908 1.400 . S
C909 C910 1.398 . S
C910 H898 0.950 . S
C910 C909 1.398 . S
C910 C911 1.391 . S
C911 H899 0.950 . S
C911 C907 1.393 . S
C911 C910 1.391 . S
H912 C920 0.950 . S
H913 C925 0.950 . S
H914 C922 0.950 . S
H915 C924 0.950 . S
H916 C926 0.950 . S
H917 C928 0.950 . S
H918 C930 0.950 . S
H919 C931 0.950 . S
C920 H912 0.950 . S
C920 C921 1.386 . S
C920 C922 1.391 . S
C921 C920 1.386 . S
C921 C925 1.393 . S
C922 H914 0.950 . S
C922 C920 1.391 . S
C922 C923 1.400 . S
C923 C922 1.400 . S
C923 C924 1.398 . S
C923 C929 1.491 . S
C924 H915 0.950 . S
C924 C923 1.398 . S
C924 C925 1.391 . S
C925 H913 0.950 . S
C925 C921 1.393 . S
C925 C924 1.391 . S
C926 H916 0.950 . S
C926 C927 1.386 . S
C926 C928 1.391 . S
C927 C926 1.386 . S
C927 C931 1.393 . S
C928 H917 0.950 . S
C928 C926 1.391 . S
C928 C929 1.400 . S
C929 C923 1.491 . S
C929 C928 1.400 . S
C929 C930 1.398 . S
C930 H918 0.950 . S
C930 C929 1.398 . S
C930 C931 1.391 . S
C931 H919 0.950 . S
C931 C927 1.393 . S
C931 C930 1.391 . S
H932 C940 0.950 . S
H933 C945 0.950 . S
H934 C942 0.950 . S
H935 C944 0.950 . S
H936 C946 0.950 . S
H937 C948 0.950 . S
H938 C950 0.950 . S
H939 C951 0.950 . S
C940 H932 0.950 . S
C940 C941 1.386 . S
C940 C942 1.391 . S
C941 C940 1.386 . S
C941 C945 1.393 . S
C942 H934 0.950 . S
C942 C940 1.391 . S
C942 C943 1.400 . S
C943 C942 1.400 . S
C943 C944 1.398 . S
C943 C949 1.491 . S
C944 H935 0.950 . S
C944 C943 1.398 . S
C944 C945 1.391 . S
C945 H933 0.950 . S
C945 C941 1.393 . S
C945 C944 1.391 . S
C946 H936 0.950 . S
C946 C947 1.386 . S
C946 C948 1.391 . S
C947 C946 1.386 . S
C947 C951 1.393 . S
C948 H937 0.950 . S
C948 C946 1.391 . S
C948 C949 1.400 . S
C949 C943 1.491 . S
C949 C948 1.400 . S
C949 C950 1.398 . S
C950 H938 0.950 . S
C950 C949 1.398 . S
C950 C951 1.391 . S
C951 H939 0.950 . S
C951 C947 1.393 . S
C951 C950 1.391 . S
H952 C960 0.950 . S
H953 C965 0.950 . S
H954 C962 0.950 . S
H955 C964 0.950 . S
H956 C966 0.950 . S
H957 C968 0.950 . S
H958 C970 0.950 . S
H959 C971 0.950 . S
C960 H952 0.950 . S
C960 C961 1.386 . S
C960 C962 1.391 . S
C961 C960 1.386 . S
C961 C965 1.393 . S
C962 H954 0.950 . S
C962 C960 1.391 . S
C962 C963 1.400 . S
C963 C962 1.400 . S
C963 C964 1.398 . S
C963 C969 1.491 . S
C964 H955 0.950 . S
C964 C963 1.398 . S
C964 C965 1.391 . S
C965 H953 0.950 . S
C965 C961 1.393 . S
C965 C964 1.391 . S
C966 H956 0.950 . S
C966 C967 1.386 . S
C966 C968 1.391 . S
C967 C966 1.386 . S
C967 C971 1.393 . S
C968 H957 0.950 . S
C968 C966 1.391 . S
C968 C969 1.400 . S
C969 C963 1.491 . S
C969 C968 1.400 . S
C969 C970 1.398 . S
C970 H958 0.950 . S
C970 C969 1.398 . S
C970 C971 1.391 . S
C971 H959 0.950 . S
C971 C967 1.393 . S
C971 C970 1.391 . S
H972 C980 0.950 . S
H973 C985 0.950 . S
H974 C982 0.950 . S
H975 C984 0.950 . S
H976 C986 0.950 . S
H977 C988 0.950 . S
H978 C990 0.950 . S
H979 C991 0.950 1_545 S
C980 H972 0.950 . S
C980 C981 1.386 . S
C980 C982 1.391 . S
C981 C980 1.386 . S
C981 C985 1.393 . S
C982 H974 0.950 . S
C982 C980 1.391 . S
C982 C983 1.400 . S
C983 C982 1.400 . S
C983 C984 1.398 . S
C983 C989 1.491 . S
C984 H975 0.950 . S
C984 C983 1.398 . S
C984 C985 1.391 . S
C985 H973 0.950 . S
C985 C981 1.393 . S
C985 C984 1.391 . S
C986 H976 0.950 . S
C986 C987 1.386 . S
C986 C988 1.391 . S
C987 C986 1.386 . S
C987 C991 1.393 . S
C988 H977 0.950 . S
C988 C986 1.391 . S
C988 C989 1.400 . S
C989 C983 1.491 . S
C989 C988 1.400 . S
C989 C990 1.398 . S
C990 H978 0.950 . S
C990 C989 1.398 . S
C990 C991 1.391 . S
C991 H979 0.950 1_565 S
C991 C987 1.393 . S
C991 C990 1.391 . S
H992 C1000 0.950 . S
H993 C1005 0.950 . S
H994 C1002 0.950 . S
H995 C1004 0.950 . S
H996 C1006 0.950 . S
H997 C1008 0.950 . S
H998 C1010 0.950 . S
H999 C1011 0.950 . S
C1000 H992 0.950 . S
C1000 C1001 1.386 . S
C1000 C1002 1.391 . S
C1001 C1000 1.386 . S
C1001 C1005 1.393 . S
C1002 H994 0.950 . S
C1002 C1000 1.391 . S
C1002 C1003 1.400 . S
C1003 C1002 1.400 . S
C1003 C1004 1.398 . S
C1003 C1009 1.491 . S
C1004 H995 0.950 . S
C1004 C1003 1.398 . S
C1004 C1005 1.391 . S
C1005 H993 0.950 . S
C1005 C1001 1.393 . S
C1005 C1004 1.391 . S
C1006 H996 0.950 . S
C1006 C1007 1.386 . S
C1006 C1008 1.391 . S
C1007 C1006 1.386 . S
C1007 C1011 1.393 . S
C1008 H997 0.950 . S
C1008 C1006 1.391 . S
C1008 C1009 1.400 . S
C1009 C1003 1.491 . S
C1009 C1008 1.400 . S
C1009 C1010 1.398 . S
C1010 H998 0.950 . S
C1010 C1009 1.398 . S
C1010 C1011 1.391 . S
C1011 H999 0.950 . S
C1011 C1007 1.393 . S
C1011 C1010 1.391 . S
H1012 C1020 0.953 . S
H1013 C1025 0.950 . S
H1014 C1022 0.950 1_455 S
H1015 C1024 0.950 . S
H1016 C1026 0.950 . S
H1017 C1028 0.950 . S
H1018 C1030 0.939 1_455 S
H1019 C1031 0.950 . S
C1020 H1012 0.953 . S
C1020 C1021 1.383 1_455 S
C1020 C1022 1.391 1_454 S
C1021 C1020 1.383 1_655 S
C1021 C1025 1.393 . S
C1022 H1014 0.950 1_655 S
C1022 C1020 1.391 1_656 S
C1022 C1023 1.400 . S
C1023 C1022 1.400 . S
C1023 C1024 1.398 1_556 S
C1023 C1029 1.491 . S
C1024 H1015 0.950 . S
C1024 C1023 1.398 1_554 S
C1024 C1025 1.391 . S
C1025 H1013 0.950 . S
C1025 C1021 1.393 . S
C1025 C1024 1.391 . S
C1026 H1016 0.950 . S
C1026 C1027 1.386 . S
C1026 C1028 1.391 . S
C1027 C1026 1.386 . S
C1027 C1031 1.393 . S
C1028 H1017 0.950 . S
C1028 C1026 1.391 . S
C1028 C1029 1.400 . S
C1029 C1023 1.491 . S
C1029 C1028 1.400 . S
C1029 C1030 1.398 . S
C1030 H1018 0.939 1_655 S
C1030 C1029 1.398 . S
C1030 C1031 1.391 . S
C1031 H1019 0.950 . S
C1031 C1027 1.393 . S
C1031 C1030 1.391 . S
H1032 C1040 0.950 . S
H1033 C1045 0.950 . S
H1034 C1042 0.950 . S
H1035 C1044 0.950 . S
H1036 C1046 0.950 . S
H1037 C1048 0.950 . S
H1038 C1050 0.950 . S
H1039 C1051 0.950 . S
C1040 H1032 0.950 . S
C1040 C1041 1.386 . S
C1040 C1042 1.391 . S
C1041 C1040 1.386 . S
C1041 C1045 1.393 . S
C1042 H1034 0.950 . S
C1042 C1040 1.391 . S
C1042 C1043 1.400 . S
C1043 C1042 1.400 . S
C1043 C1044 1.398 . S
C1043 C1049 1.491 . S
C1044 H1035 0.950 . S
C1044 C1043 1.398 . S
C1044 C1045 1.391 . S
C1045 H1033 0.950 . S
C1045 C1041 1.393 . S
C1045 C1044 1.391 . S
C1046 H1036 0.950 . S
C1046 C1047 1.386 . S
C1046 C1048 1.391 . S
C1047 C1046 1.386 . S
C1047 C1051 1.393 . S
C1048 H1037 0.950 . S
C1048 C1046 1.391 . S
C1048 C1049 1.400 . S
C1049 C1043 1.491 . S
C1049 C1048 1.400 . S
C1049 C1050 1.398 . S
C1050 H1038 0.950 . S
C1050 C1049 1.398 . S
C1050 C1051 1.391 . S
C1051 H1039 0.950 . S
C1051 C1047 1.393 . S
C1051 C1050 1.391 . S
H1052 C1060 0.950 . S
H1053 C1065 0.950 . S
H1054 C1062 0.950 . S
H1055 C1064 0.950 . S
H1056 C1066 0.950 . S
H1057 C1068 0.950 . S
H1058 C1070 0.950 . S
H1059 C1071 0.950 . S
C1060 H1052 0.950 . S
C1060 C1061 1.386 . S
C1060 C1062 1.391 1_556 S
C1061 C1060 1.386 . S
C1061 C1065 1.393 1_556 S
C1062 H1054 0.950 . S
C1062 C1060 1.391 1_554 S
C1062 C1063 1.400 . S
C1063 C1062 1.400 . S
C1063 C1064 1.398 . S
C1063 C1069 1.491 . S
C1064 H1055 0.950 . S
C1064 C1063 1.398 . S
C1064 C1065 1.391 . S
C1065 H1053 0.950 . S
C1065 C1061 1.393 1_554 S
C1065 C1064 1.391 . S
C1066 H1056 0.950 . S
C1066 C1067 1.386 . S
C1066 C1068 1.391 . S
C1067 C1066 1.386 . S
C1067 C1071 1.393 . S
C1068 H1057 0.950 . S
C1068 C1066 1.391 . S
C1068 C1069 1.400 . S
C1069 C1063 1.491 . S
C1069 C1068 1.400 . S
C1069 C1070 1.398 . S
C1070 H1058 0.950 . S
C1070 C1069 1.398 . S
C1070 C1071 1.391 . S
C1071 H1059 0.950 . S
C1071 C1067 1.393 . S
C1071 C1070 1.391 . S
H1072 C1080 0.950 . S
H1073 C1085 0.950 . S
H1074 C1082 0.950 . S
H1075 C1084 0.950 . S
H1076 C1086 0.950 . S
H1077 C1088 0.950 . S
H1078 C1090 0.950 . S
H1079 C1091 0.950 . S
C1080 H1072 0.950 . S
C1080 C1081 1.386 . S
C1080 C1082 1.391 . S
C1081 C1080 1.386 . S
C1081 C1085 1.393 . S
C1082 H1074 0.950 . S
C1082 C1080 1.391 . S
C1082 C1083 1.400 . S
C1083 C1082 1.400 . S
C1083 C1084 1.398 . S
C1083 C1089 1.491 . S
C1084 H1075 0.950 . S
C1084 C1083 1.398 . S
C1084 C1085 1.391 . S
C1085 H1073 0.950 . S
C1085 C1081 1.393 . S
C1085 C1084 1.391 . S
C1086 H1076 0.950 . S
C1086 C1087 1.386 . S
C1086 C1088 1.391 . S
C1087 C1086 1.386 . S
C1087 C1091 1.393 . S
C1088 H1077 0.950 . S
C1088 C1086 1.391 . S
C1088 C1089 1.400 . S
C1089 C1083 1.491 . S
C1089 C1088 1.400 . S
C1089 C1090 1.398 . S
C1090 H1078 0.950 . S
C1090 C1089 1.398 . S
C1090 C1091 1.391 . S
C1091 H1079 0.950 . S
C1091 C1087 1.393 . S
C1091 C1090 1.391 . S
H1092 C1100 0.950 . S
H1093 C1105 0.949 1_455 S
H1094 C1102 0.950 . S
H1095 C1104 0.950 . S
H1096 C1106 0.950 . S
H1097 C1108 0.950 . S
H1098 C1110 0.950 . S
H1099 C1111 0.950 . S
C1100 H1092 0.950 . S
C1100 C1101 1.386 . S
C1100 C1102 1.391 . S
C1101 C1100 1.386 . S
C1101 C1105 1.393 . S
C1102 H1094 0.950 . S
C1102 C1100 1.391 . S
C1102 C1103 1.400 . S
C1103 C1102 1.400 . S
C1103 C1104 1.398 . S
C1103 C1109 1.491 . S
C1104 H1095 0.950 . S
C1104 C1103 1.398 . S
C1104 C1105 1.391 . S
C1105 H1093 0.949 1_655 S
C1105 C1101 1.393 . S
C1105 C1104 1.391 . S
C1106 H1096 0.950 . S
C1106 C1107 1.386 . S
C1106 C1108 1.391 . S
C1107 C1106 1.386 . S
C1107 C1111 1.393 . S
C1108 H1097 0.950 . S
C1108 C1106 1.391 . S
C1108 C1109 1.400 . S
C1109 C1103 1.491 . S
C1109 C1108 1.400 . S
C1109 C1110 1.398 . S
C1110 H1098 0.950 . S
C1110 C1109 1.398 . S
C1110 C1111 1.391 . S
C1111 H1099 0.950 . S
C1111 C1107 1.393 . S
C1111 C1110 1.391 . S
H1112 C1120 0.950 . S
H1113 C1125 0.950 . S
H1114 C1122 0.950 . S
H1115 C1124 0.950 . S
H1116 C1126 0.950 . S
H1117 C1128 0.950 . S
H1118 C1130 0.950 . S
H1119 C1131 0.950 . S
C1120 H1112 0.950 . S
C1120 C1121 1.386 . S
C1120 C1122 1.391 . S
C1121 C1120 1.386 . S
C1121 C1125 1.393 . S
C1122 H1114 0.950 . S
C1122 C1120 1.391 . S
C1122 C1123 1.400 . S
C1123 C1122 1.400 . S
C1123 C1124 1.398 . S
C1123 C1129 1.491 . S
C1124 H1115 0.950 . S
C1124 C1123 1.398 . S
C1124 C1125 1.391 . S
C1125 H1113 0.950 . S
C1125 C1121 1.393 . S
C1125 C1124 1.391 . S
C1126 H1116 0.950 . S
C1126 C1127 1.386 . S
C1126 C1128 1.391 . S
C1127 C1126 1.386 . S
C1127 C1131 1.393 . S
C1128 H1117 0.950 . S
C1128 C1126 1.391 . S
C1128 C1129 1.400 . S
C1129 C1123 1.491 . S
C1129 C1128 1.400 . S
C1129 C1130 1.398 . S
C1130 H1118 0.950 . S
C1130 C1129 1.398 . S
C1130 C1131 1.391 . S
C1131 H1119 0.950 . S
C1131 C1127 1.393 . S
C1131 C1130 1.391 . S
H1132 C1140 0.950 . S
H1133 C1145 0.950 . S
H1134 C1142 0.950 . S
H1135 C1144 0.950 . S
H1136 C1146 0.950 . S
H1137 C1148 0.950 . S
H1138 C1150 0.950 . S
H1139 C1151 0.950 1_554 S
C1140 H1132 0.950 . S
C1140 C1141 1.386 . S
C1140 C1142 1.391 . S
C1141 C1140 1.386 . S
C1141 C1145 1.393 . S
C1142 H1134 0.950 . S
C1142 C1140 1.391 . S
C1142 C1143 1.400 . S
C1143 C1142 1.400 . S
C1143 C1144 1.398 . S
C1143 C1149 1.491 . S
C1144 H1135 0.950 . S
C1144 C1143 1.398 . S
C1144 C1145 1.391 . S
C1145 H1133 0.950 . S
C1145 C1141 1.393 . S
C1145 C1144 1.391 . S
C1146 H1136 0.950 . S
C1146 C1147 1.386 . S
C1146 C1148 1.391 . S
C1147 C1146 1.386 . S
C1147 C1151 1.393 . S
C1148 H1137 0.950 . S
C1148 C1146 1.391 . S
C1148 C1149 1.400 . S
C1149 C1143 1.491 . S
C1149 C1148 1.400 . S
C1149 C1150 1.398 . S
C1150 H1138 0.950 . S
C1150 C1149 1.398 . S
C1150 C1151 1.391 . S
C1151 H1139 0.950 1_556 S
C1151 C1147 1.393 . S
C1151 C1150 1.391 . S
H1152 C1160 0.950 . S
H1153 C1165 0.950 . S
H1154 C1162 0.950 . S
H1155 C1164 0.950 . S
H1156 C1166 0.950 . S
H1157 C1168 0.950 . S
H1158 C1170 0.950 . S
H1159 C1171 0.950 . S
C1160 H1152 0.950 . S
C1160 C1161 1.386 . S
C1160 C1162 1.391 . S
C1161 C1160 1.386 . S
C1161 C1165 1.393 . S
C1162 H1154 0.950 . S
C1162 C1160 1.391 . S
C1162 C1163 1.400 . S
C1163 C1162 1.400 . S
C1163 C1164 1.398 . S
C1163 C1169 1.491 . S
C1164 H1155 0.950 . S
C1164 C1163 1.398 . S
C1164 C1165 1.391 . S
C1165 H1153 0.950 . S
C1165 C1161 1.393 . S
C1165 C1164 1.391 . S
C1166 H1156 0.950 . S
C1166 C1167 1.386 . S
C1166 C1168 1.391 . S
C1167 C1166 1.386 . S
C1167 C1171 1.393 . S
C1168 H1157 0.950 . S
C1168 C1166 1.391 . S
C1168 C1169 1.400 . S
C1169 C1163 1.491 . S
C1169 C1168 1.400 . S
C1169 C1170 1.398 . S
C1170 H1158 0.950 . S
C1170 C1169 1.398 . S
C1170 C1171 1.391 . S
C1171 H1159 0.950 . S
C1171 C1167 1.393 . S
C1171 C1170 1.391 . S
H1172 C1180 0.950 . S
H1173 C1185 0.950 1_655 S
H1174 C1182 0.950 . S
H1175 C1184 0.950 . S
H1176 C1186 0.950 . S
H1177 C1188 0.950 . S
H1178 C1190 0.950 . S
H1179 C1191 0.950 . S
C1180 H1172 0.950 . S
C1180 C1181 1.386 . S
C1180 C1182 1.391 . S
C1181 C1180 1.386 . S
C1181 C1185 1.393 . S
C1182 H1174 0.950 . S
C1182 C1180 1.391 . S
C1182 C1183 1.400 . S
C1183 C1182 1.400 . S
C1183 C1184 1.398 . S
C1183 C1189 1.491 . S
C1184 H1175 0.950 . S
C1184 C1183 1.398 . S
C1184 C1185 1.391 . S
C1185 H1173 0.950 1_455 S
C1185 C1181 1.393 . S
C1185 C1184 1.391 . S
C1186 H1176 0.950 . S
C1186 C1187 1.386 . S
C1186 C1188 1.391 . S
C1187 C1186 1.386 . S
C1187 C1191 1.393 . S
C1188 H1177 0.950 . S
C1188 C1186 1.391 . S
C1188 C1189 1.400 . S
C1189 C1183 1.491 . S
C1189 C1188 1.400 . S
C1189 C1190 1.398 . S
C1190 H1178 0.950 . S
C1190 C1189 1.398 . S
C1190 C1191 1.391 . S
C1191 H1179 0.950 . S
C1191 C1187 1.393 . S
C1191 C1190 1.391 . S
H1192 C1200 0.950 . S
H1193 C1205 0.950 . S
H1194 C1202 0.950 . S
H1195 C1204 0.950 . S
H1196 C1206 0.950 . S
H1197 C1208 0.950 . S
H1198 C1210 0.950 . S
H1199 C1211 0.950 . S
C1200 H1192 0.950 . S
C1200 C1201 1.386 . S
C1200 C1202 1.391 . S
C1201 C1200 1.386 . S
C1201 C1205 1.393 . S
C1202 H1194 0.950 . S
C1202 C1200 1.391 . S
C1202 C1203 1.400 . S
C1203 C1202 1.400 . S
C1203 C1204 1.398 . S
C1203 C1209 1.491 . S
C1204 H1195 0.950 . S
C1204 C1203 1.398 . S
C1204 C1205 1.391 . S
C1205 H1193 0.950 . S
C1205 C1201 1.393 . S
C1205 C1204 1.391 . S
C1206 H1196 0.950 . S
C1206 C1207 1.386 . S
C1206 C1208 1.391 . S
C1207 C1206 1.386 . S
C1207 C1211 1.393 . S
C1208 H1197 0.950 . S
C1208 C1206 1.391 . S
C1208 C1209 1.400 . S
C1209 C1203 1.491 . S
C1209 C1208 1.400 . S
C1209 C1210 1.398 . S
C1210 H1198 0.950 . S
C1210 C1209 1.398 . S
C1210 C1211 1.391 . S
C1211 H1199 0.950 . S
C1211 C1207 1.393 . S
C1211 C1210 1.391 . S
H1212 C1220 0.950 . S
H1213 C1225 0.950 . S
H1214 C1222 0.950 . S
H1215 C1224 0.950 . S
H1216 C1226 0.950 . S
H1217 C1228 0.950 . S
H1218 C1230 0.950 . S
H1219 C1231 0.950 . S
C1220 H1212 0.950 . S
C1220 C1221 1.386 . S
C1220 C1222 1.391 . S
C1221 C1220 1.386 . S
C1221 C1225 1.393 . S
C1222 H1214 0.950 . S
C1222 C1220 1.391 . S
C1222 C1223 1.400 . S
C1223 C1222 1.400 . S
C1223 C1224 1.398 . S
C1223 C1229 1.491 . S
C1224 H1215 0.950 . S
C1224 C1223 1.398 . S
C1224 C1225 1.391 . S
C1225 H1213 0.950 . S
C1225 C1221 1.393 . S
C1225 C1224 1.391 . S
C1226 H1216 0.950 . S
C1226 C1227 1.386 . S
C1226 C1228 1.391 . S
C1227 C1226 1.386 . S
C1227 C1231 1.393 . S
C1228 H1217 0.950 . S
C1228 C1226 1.391 . S
C1228 C1229 1.400 . S
C1229 C1223 1.491 . S
C1229 C1228 1.400 . S
C1229 C1230 1.398 . S
C1230 H1218 0.950 . S
C1230 C1229 1.398 . S
C1230 C1231 1.391 . S
C1231 H1219 0.950 . S
C1231 C1227 1.393 . S
C1231 C1230 1.391 . S
H1232 C1240 0.950 . S
H1233 C1245 0.950 . S
H1234 C1242 0.950 . S
H1235 C1244 0.950 . S
H1236 C1246 0.950 . S
H1237 C1248 0.950 . S
H1238 C1250 0.950 . S
H1239 C1251 0.950 . S
C1240 H1232 0.950 . S
C1240 C1241 1.386 . S
C1240 C1242 1.391 . S
C1241 C1240 1.386 . S
C1241 C1245 1.393 . S
C1242 H1234 0.950 . S
C1242 C1240 1.391 . S
C1242 C1243 1.400 . S
C1243 C1242 1.400 . S
C1243 C1244 1.398 . S
C1243 C1249 1.491 . S
C1244 H1235 0.950 . S
C1244 C1243 1.398 . S
C1244 C1245 1.391 . S
C1245 H1233 0.950 . S
C1245 C1241 1.393 . S
C1245 C1244 1.391 . S
C1246 H1236 0.950 . S
C1246 C1247 1.386 . S
C1246 C1248 1.391 . S
C1247 C1246 1.386 . S
C1247 C1251 1.393 . S
C1248 H1237 0.950 . S
C1248 C1246 1.391 . S
C1248 C1249 1.400 . S
C1249 C1243 1.491 . S
C1249 C1248 1.400 . S
C1249 C1250 1.398 . S
C1250 H1238 0.950 . S
C1250 C1249 1.398 . S
C1250 C1251 1.391 . S
C1251 H1239 0.950 . S
C1251 C1247 1.393 . S
C1251 C1250 1.391 . S
H1252 C1260 0.950 . S
H1253 C1265 0.950 . S
H1254 C1262 0.950 . S
H1255 C1264 0.950 . S
H1256 C1266 0.950 . S
H1257 C1268 0.950 . S
H1258 C1270 0.950 . S
H1259 C1271 0.950 . S
C1260 H1252 0.950 . S
C1260 C1261 1.386 1_455 S
C1260 C1262 1.391 . S
C1261 C1260 1.386 1_655 S
C1261 C1265 1.393 . S
C1262 H1254 0.950 . S
C1262 C1260 1.391 . S
C1262 C1263 1.400 . S
C1263 C1262 1.400 . S
C1263 C1264 1.398 . S
C1263 C1269 1.491 . S
C1264 H1255 0.950 . S
C1264 C1263 1.398 . S
C1264 C1265 1.391 1_455 S
C1265 H1253 0.950 . S
C1265 C1261 1.393 . S
C1265 C1264 1.391 1_655 S
C1266 H1256 0.950 . S
C1266 C1267 1.386 . S
C1266 C1268 1.391 . S
C1267 C1266 1.386 . S
C1267 C1271 1.393 . S
C1268 H1257 0.950 . S
C1268 C1266 1.391 . S
C1268 C1269 1.400 . S
C1269 C1263 1.491 . S
C1269 C1268 1.400 . S
C1269 C1270 1.398 . S
C1270 H1258 0.950 . S
C1270 C1269 1.398 . S
C1270 C1271 1.391 . S
C1271 H1259 0.950 . S
C1271 C1267 1.393 . S
C1271 C1270 1.391 . S
H1272 C1280 0.950 . S
H1273 C1285 0.950 . S
H1274 C1282 0.950 . S
H1275 C1284 0.950 . S
H1276 C1286 0.950 1_545 S
H1277 C1288 0.950 . S
H1278 C1290 0.950 . S
H1279 C1291 0.950 . S
C1280 H1272 0.950 . S
C1280 C1281 1.386 . S
C1280 C1282 1.391 . S
C1281 C1280 1.386 . S
C1281 C1285 1.393 . S
C1282 H1274 0.950 . S
C1282 C1280 1.391 . S
C1282 C1283 1.400 . S
C1283 C1282 1.400 . S
C1283 C1284 1.398 . S
C1283 C1289 1.491 . S
C1284 H1275 0.950 . S
C1284 C1283 1.398 . S
C1284 C1285 1.391 . S
C1285 H1273 0.950 . S
C1285 C1281 1.393 . S
C1285 C1284 1.391 . S
C1286 H1276 0.950 1_565 S
C1286 C1287 1.386 . S
C1286 C1288 1.391 . S
C1287 C1286 1.386 . S
C1287 C1291 1.393 . S
C1288 H1277 0.950 . S
C1288 C1286 1.391 . S
C1288 C1289 1.400 . S
C1289 C1283 1.491 . S
C1289 C1288 1.400 . S
C1289 C1290 1.398 . S
C1290 H1278 0.950 . S
C1290 C1289 1.398 . S
C1290 C1291 1.391 . S
C1291 H1279 0.950 . S
C1291 C1287 1.393 . S
C1291 C1290 1.391 . S
H1292 C1300 0.950 . S
H1293 C1305 0.950 . S
H1294 C1302 0.950 . S
H1295 C1304 0.950 . S
H1296 C1306 0.950 . S
H1297 C1308 0.950 . S
H1298 C1310 0.950 . S
H1299 C1311 0.950 . S
C1300 H1292 0.950 . S
C1300 C1301 1.386 . S
C1300 C1302 1.391 . S
C1301 C1300 1.386 . S
C1301 C1305 1.393 . S
C1302 H1294 0.950 . S
C1302 C1300 1.391 . S
C1302 C1303 1.400 . S
C1303 C1302 1.400 . S
C1303 C1304 1.398 . S
C1303 C1309 1.491 . S
C1304 H1295 0.950 . S
C1304 C1303 1.398 . S
C1304 C1305 1.391 . S
C1305 H1293 0.950 . S
C1305 C1301 1.393 . S
C1305 C1304 1.391 . S
C1306 H1296 0.950 . S
C1306 C1307 1.386 . S
C1306 C1308 1.391 . S
C1307 C1306 1.386 . S
C1307 C1311 1.393 . S
C1308 H1297 0.950 . S
C1308 C1306 1.391 . S
C1308 C1309 1.400 . S
C1309 C1303 1.491 . S
C1309 C1308 1.400 . S
C1309 C1310 1.398 . S
C1310 H1298 0.950 . S
C1310 C1309 1.398 . S
C1310 C1311 1.391 . S
C1311 H1299 0.950 . S
C1311 C1307 1.393 . S
C1311 C1310 1.391 . S
H1312 C1320 0.939 1_565 S
H1313 C1325 0.950 . S
H1314 C1322 0.950 . S
H1315 C1324 0.950 . S
H1316 C1326 0.950 . S
H1317 C1328 0.950 . S
H1318 C1330 0.950 . S
H1319 C1331 0.950 . S
C1320 H1312 0.939 1_545 S
C1320 C1321 1.386 . S
C1320 C1322 1.391 . S
C1321 C1320 1.386 . S
C1321 C1325 1.393 . S
C1322 H1314 0.950 . S
C1322 C1320 1.391 . S
C1322 C1323 1.400 . S
C1323 C1322 1.400 . S
C1323 C1324 1.398 . S
C1323 C1329 1.491 . S
C1324 H1315 0.950 . S
C1324 C1323 1.398 . S
C1324 C1325 1.391 . S
C1325 H1313 0.950 . S
C1325 C1321 1.393 . S
C1325 C1324 1.391 . S
C1326 H1316 0.950 . S
C1326 C1327 1.386 . S
C1326 C1328 1.391 . S
C1327 C1326 1.386 . S
C1327 C1331 1.393 . S
C1328 H1317 0.950 . S
C1328 C1326 1.391 . S
C1328 C1329 1.400 . S
C1329 C1323 1.491 . S
C1329 C1328 1.400 . S
C1329 C1330 1.398 . S
C1330 H1318 0.950 . S
C1330 C1329 1.398 . S
C1330 C1331 1.391 . S
C1331 H1319 0.950 . S
C1331 C1327 1.393 . S
C1331 C1330 1.391 . S
H1332 C1340 0.950 . S
H1333 C1345 0.950 . S
H1334 C1342 0.950 . S
H1335 C1344 0.950 . S
H1336 C1346 0.950 . S
H1337 C1348 0.950 . S
H1338 C1350 0.950 . S
H1339 C1351 0.950 . S
C1340 H1332 0.950 . S
C1340 C1341 1.386 . S
C1340 C1342 1.391 . S
C1341 C1340 1.386 . S
C1341 C1345 1.393 . S
C1342 H1334 0.950 . S
C1342 C1340 1.391 . S
C1342 C1343 1.400 . S
C1343 C1342 1.400 . S
C1343 C1344 1.398 . S
C1343 C1349 1.491 . S
C1344 H1335 0.950 . S
C1344 C1343 1.398 . S
C1344 C1345 1.391 . S
C1345 H1333 0.950 . S
C1345 C1341 1.393 . S
C1345 C1344 1.391 . S
C1346 H1336 0.950 . S
C1346 C1347 1.386 . S
C1346 C1348 1.391 . S
C1347 C1346 1.386 . S
C1347 C1351 1.393 . S
C1348 H1337 0.950 . S
C1348 C1346 1.391 . S
C1348 C1349 1.400 . S
C1349 C1343 1.491 . S
C1349 C1348 1.400 . S
C1349 C1350 1.398 . S
C1350 H1338 0.950 . S
C1350 C1349 1.398 . S
C1350 C1351 1.391 . S
C1351 H1339 0.950 . S
C1351 C1347 1.393 . S
C1351 C1350 1.391 . S
H1352 C1360 0.950 . S
H1353 C1365 0.950 1_554 S
H1354 C1362 0.950 . S
H1355 C1364 0.950 1_554 S
H1356 C1366 0.950 1_554 S
H1357 C1368 0.950 1_554 S
H1358 C1370 0.950 . S
H1359 C1371 0.950 . S
C1360 H1352 0.950 . S
C1360 C1361 1.386 . S
C1360 C1362 1.391 . S
C1361 C1360 1.386 . S
C1361 C1365 1.393 . S
C1362 H1354 0.950 . S
C1362 C1360 1.391 . S
C1362 C1363 1.400 . S
C1363 C1362 1.400 . S
C1363 C1364 1.398 . S
C1363 C1369 1.491 1_545 S
C1364 H1355 0.950 1_556 S
C1364 C1363 1.398 . S
C1364 C1365 1.391 . S
C1365 H1353 0.950 1_556 S
C1365 C1361 1.393 . S
C1365 C1364 1.391 . S
C1366 H1356 0.950 1_556 S
C1366 C1367 1.386 . S
C1366 C1368 1.391 . S
C1367 C1366 1.386 . S
C1367 C1371 1.393 . S
C1368 H1357 0.950 1_556 S
C1368 C1366 1.391 . S
C1368 C1369 1.400 . S
C1369 C1363 1.491 1_565 S
C1369 C1368 1.400 . S
C1369 C1370 1.398 . S
C1370 H1358 0.950 . S
C1370 C1369 1.398 . S
C1370 C1371 1.391 . S
C1371 H1359 0.950 . S
C1371 C1367 1.393 . S
C1371 C1370 1.391 . S
H1372 C1380 0.950 . S
H1373 C1385 0.950 . S
H1374 C1382 0.950 . S
H1375 C1384 0.950 . S
H1376 C1386 0.950 . S
H1377 C1388 0.950 . S
H1378 C1390 0.950 . S
H1379 C1391 0.950 . S
C1380 H1372 0.950 . S
C1380 C1381 1.386 . S
C1380 C1382 1.391 . S
C1381 C1380 1.386 . S
C1381 C1385 1.393 . S
C1382 H1374 0.950 . S
C1382 C1380 1.391 . S
C1382 C1383 1.400 . S
C1383 C1382 1.400 . S
C1383 C1384 1.398 . S
C1383 C1389 1.491 . S
C1384 H1375 0.950 . S
C1384 C1383 1.398 . S
C1384 C1385 1.391 . S
C1385 H1373 0.950 . S
C1385 C1381 1.393 . S
C1385 C1384 1.391 . S
C1386 H1376 0.950 . S
C1386 C1387 1.386 . S
C1386 C1388 1.391 . S
C1387 C1386 1.386 . S
C1387 C1391 1.393 . S
C1388 H1377 0.950 . S
C1388 C1386 1.391 . S
C1388 C1389 1.400 . S
C1389 C1383 1.491 . S
C1389 C1388 1.400 . S
C1389 C1390 1.398 . S
C1390 H1378 0.950 . S
C1390 C1389 1.398 . S
C1390 C1391 1.391 . S
C1391 H1379 0.950 . S
C1391 C1387 1.393 . S
C1391 C1390 1.391 . S
H1392 C1400 0.950 . S
H1393 C1405 0.950 . S
H1394 C1402 0.950 . S
H1395 C1404 0.950 . S
H1396 C1406 0.950 . S
H1397 C1408 0.950 . S
H1398 C1410 0.950 . S
H1399 C1411 0.950 . S
C1400 H1392 0.950 . S
C1400 C1401 1.386 . S
C1400 C1402 1.391 . S
C1401 C1400 1.386 . S
C1401 C1405 1.393 . S
C1402 H1394 0.950 . S
C1402 C1400 1.391 . S
C1402 C1403 1.400 . S
C1403 C1402 1.400 . S
C1403 C1404 1.398 . S
C1403 C1409 1.491 . S
C1404 H1395 0.950 . S
C1404 C1403 1.398 . S
C1404 C1405 1.391 . S
C1405 H1393 0.950 . S
C1405 C1401 1.393 . S
C1405 C1404 1.391 . S
C1406 H1396 0.950 . S
C1406 C1407 1.386 . S
C1406 C1408 1.391 . S
C1407 C1406 1.386 . S
C1407 C1411 1.393 . S
C1408 H1397 0.950 . S
C1408 C1406 1.391 . S
C1408 C1409 1.400 . S
C1409 C1403 1.491 . S
C1409 C1408 1.400 . S
C1409 C1410 1.398 . S
C1410 H1398 0.950 . S
C1410 C1409 1.398 . S
C1410 C1411 1.391 . S
C1411 H1399 0.950 . S
C1411 C1407 1.393 . S
C1411 C1410 1.391 . S
H1412 C1420 0.950 . S
H1413 C1425 0.950 . S
H1414 C1422 0.950 . S
H1415 C1424 0.950 . S
H1416 C1426 0.950 . S
H1417 C1428 0.950 . S
H1418 C1430 0.950 . S
H1419 C1431 0.950 . S
C1420 H1412 0.950 . S
C1420 C1421 1.386 . S
C1420 C1422 1.391 . S
C1421 C1420 1.386 . S
C1421 C1425 1.393 . S
C1422 H1414 0.950 . S
C1422 C1420 1.391 . S
C1422 C1423 1.400 . S
C1423 C1422 1.400 . S
C1423 C1424 1.398 . S
C1423 C1429 1.491 . S
C1424 H1415 0.950 . S
C1424 C1423 1.398 . S
C1424 C1425 1.391 . S
C1425 H1413 0.950 . S
C1425 C1421 1.393 . S
C1425 C1424 1.391 . S
C1426 H1416 0.950 . S
C1426 C1427 1.386 . S
C1426 C1428 1.391 . S
C1427 C1426 1.386 . S
C1427 C1431 1.393 . S
C1428 H1417 0.950 . S
C1428 C1426 1.391 . S
C1428 C1429 1.400 . S
C1429 C1423 1.491 . S
C1429 C1428 1.400 . S
C1429 C1430 1.398 . S
C1430 H1418 0.950 . S
C1430 C1429 1.398 . S
C1430 C1431 1.391 . S
C1431 H1419 0.950 . S
C1431 C1427 1.393 . S
C1431 C1430 1.391 . S
H1432 C1440 0.950 . S
H1433 C1445 0.950 . S
H1434 C1442 0.950 . S
H1435 C1444 0.950 . S
H1436 C1446 0.950 . S
H1437 C1448 0.950 . S
H1438 C1450 0.950 . S
H1439 C1451 0.950 . S
C1440 H1432 0.950 . S
C1440 C1441 1.386 . S
C1440 C1442 1.391 . S
C1441 C1440 1.386 . S
C1441 C1445 1.393 . S
C1442 H1434 0.950 . S
C1442 C1440 1.391 . S
C1442 C1443 1.400 . S
C1443 C1442 1.400 . S
C1443 C1444 1.398 . S
C1443 C1449 1.491 . S
C1444 H1435 0.950 . S
C1444 C1443 1.398 . S
C1444 C1445 1.391 . S
C1445 H1433 0.950 . S
C1445 C1441 1.393 . S
C1445 C1444 1.391 . S
C1446 H1436 0.950 . S
C1446 C1447 1.386 . S
C1446 C1448 1.391 . S
C1447 C1446 1.386 . S
C1447 C1451 1.393 . S
C1448 H1437 0.950 . S
C1448 C1446 1.391 . S
C1448 C1449 1.400 . S
C1449 C1443 1.491 . S
C1449 C1448 1.400 . S
C1449 C1450 1.398 . S
C1450 H1438 0.950 . S
C1450 C1449 1.398 . S
C1450 C1451 1.391 . S
C1451 H1439 0.950 . S
C1451 C1447 1.393 . S
C1451 C1450 1.391 . S
C507 C481 1.274 . S
C501 N12 1.398 . S
C521 C30 1.427 . S
C527 C434 1.231 . S
C541 C62 1.334 . S
C547 C445 1.257 . S
C567 C470 1.220 . S
C561 N81 1.355 . S
C581 C39 1.328 . S
C587 C488 1.185 . S
C607 C427 1.292 . S
C601 C53 1.431 . S
C627 C452 1.236 . S
C621 N71 1.329 1_554 S
C647 C463 1.266 . S
C641 N2 1.307 . S
C661 N94 1.388 . S
C667 C464 1.261 . S
C687 C490 1.265 . S
C681 C131 1.360 . S
C707 C428 1.228 . S
C701 N140 1.304 . S
C727 C454 1.194 . S
C721 C177 1.310 . S
C741 C108 1.335 . S
C747 C436 1.263 . S
C761 N117 1.323 . S
C767 C446 1.256 . S
C781 C154 1.344 . S
C787 C472 1.201 . S
C807 C482 1.210 . S
C801 N163 1.308 . S
C827 C319 1.250 . S
C821 N173 1.351 . S
C847 C302 1.192 . S
C841 C191 1.368 . S
C867 C328 1.233 . S
C861 N219 1.364 . S
C887 C346 1.323 . S
C881 C237 1.427 . S
C901 N104 1.354 . S
C907 C320 1.213 . S
C921 N127 1.331 . S
C927 C290 1.201 . S
C941 C214 1.400 . S
C947 C344 1.276 . S
C961 C260 1.421 . S
C967 C301 1.263 . S
C987 C355 1.273 1_565 S
C981 N48 1.355 . S
C1007 C380 1.209 . S
C1001 C76 1.402 . S
C1021 C7 1.355 . S
C1027 C391 1.232 . S
C1041 N35 1.329 . S
C1047 C416 1.188 . S
C1067 C362 1.251 . S
C1061 C85 1.364 . S
C1087 C373 1.231 . S
C1081 C16 1.370 . S
C1101 N25 1.368 . S
C1107 C398 1.246 . S
C1127 C409 1.245 . S
C1121 N58 1.331 . S
C1141 N255 1.376 . S
C1147 C410 1.280 . S
C1161 C200 1.338 . S
C1167 C364 1.224 . S
C1187 C374 1.232 . S
C1181 N209 1.294 1_455 S
C1201 C246 1.314 . S
C1207 C400 1.190 . S
C1227 C382 1.229 . S
C1221 C269 1.324 . S
C1241 N186 1.339 . S
C1247 C392 1.278 . S
C1267 C418 1.218 . S
C1261 C223 1.353 . S
C1287 C356 1.248 1_565 S
C1281 N232 1.343 . S
C1307 C283 1.265 . S
C1301 N242 1.354 . S
C1327 C338 1.241 . S
C1321 C122 1.392 1_545 S
C1341 N150 1.361 . S
C1347 C292 1.243 . S
C1367 C310 1.305 . S
C1361 C168 1.426 . S
C1387 C284 1.242 . S
C1381 N265 1.348 . S
C1401 N196 1.333 . S
C1407 C326 1.205 . S
C1421 C145 1.391 . S
C1427 C308 1.258 . S
C1441 C99 1.419 . S
C1447 C337 1.245 . S
