# Generated by pormake.
# Topology nom, (4,4)-cn, num edge types: 1
# Building blocks:
#     Node 0, Type 0, BuildingBlock: MUDLON_clean_linker_0, # of connection points: 4
#     Node 1, Type 0, BuildingBlock: MUDLON_clean_linker_0, # of connection points: 4
#     Node 2, Type 0, BuildingBlock: MUDLON_clean_linker_0, # of connection points: 4
#     Node 3, Type 0, BuildingBlock: MUDLON_clean_linker_0, # of connection points: 4
#     Node 4, Type 0, BuildingBlock: MUDLON_clean_linker_0, # of connection points: 4
#     Node 5, Type 0, BuildingBlock: MUDLON_clean_linker_0, # of connection points: 4
#     Node 6, Type 1, BuildingBlock: QUQFOY_clean_sbu_1, # of connection points: 4
#     Node 7, Type 1, BuildingBlock: QUQFOY_clean_sbu_1, # of connection points: 4
#     Node 8, Type 1, BuildingBlock: QUQFOY_clean_sbu_1, # of connection points: 4
#     Node 9, Type 1, BuildingBlock: QUQFOY_clean_sbu_1, # of connection points: 4
#     Node 10, Type 1, BuildingBlock: QUQFOY_clean_sbu_1, # of connection points: 4
#     Node 11, Type 1, BuildingBlock: QUQFOY_clean_sbu_1, # of connection points: 4
#     Edge 12, Type (0, 1), BuildingBlock: KIFKEQ_clean_linker_1, # of connection points: 2
#     Edge 13, Type (0, 1), BuildingBlock: KIFKEQ_clean_linker_1, # of connection points: 2
#     Edge 14, Type (0, 1), BuildingBlock: KIFKEQ_clean_linker_1, # of connection points: 2
#     Edge 15, Type (0, 1), BuildingBlock: KIFKEQ_clean_linker_1, # of connection points: 2
#     Edge 16, Type (0, 1), BuildingBlock: KIFKEQ_clean_linker_1, # of connection points: 2
#     Edge 17, Type (0, 1), BuildingBlock: KIFKEQ_clean_linker_1, # of connection points: 2
#     Edge 18, Type (0, 1), BuildingBlock: KIFKEQ_clean_linker_1, # of connection points: 2
#     Edge 19, Type (0, 1), BuildingBlock: KIFKEQ_clean_linker_1, # of connection points: 2
#     Edge 20, Type (0, 1), BuildingBlock: KIFKEQ_clean_linker_1, # of connection points: 2
#     Edge 21, Type (0, 1), BuildingBlock: KIFKEQ_clean_linker_1, # of connection points: 2
#     Edge 22, Type (0, 1), BuildingBlock: KIFKEQ_clean_linker_1, # of connection points: 2
#     Edge 23, Type (0, 1), BuildingBlock: KIFKEQ_clean_linker_1, # of connection points: 2
#     Edge 24, Type (0, 1), BuildingBlock: KIFKEQ_clean_linker_1, # of connection points: 2
#     Edge 25, Type (0, 1), BuildingBlock: KIFKEQ_clean_linker_1, # of connection points: 2
#     Edge 26, Type (0, 1), BuildingBlock: KIFKEQ_clean_linker_1, # of connection points: 2
#     Edge 27, Type (0, 1), BuildingBlock: KIFKEQ_clean_linker_1, # of connection points: 2
#     Edge 28, Type (0, 1), BuildingBlock: KIFKEQ_clean_linker_1, # of connection points: 2
#     Edge 29, Type (0, 1), BuildingBlock: KIFKEQ_clean_linker_1, # of connection points: 2
#     Edge 30, Type (0, 1), BuildingBlock: KIFKEQ_clean_linker_1, # of connection points: 2
#     Edge 31, Type (0, 1), BuildingBlock: KIFKEQ_clean_linker_1, # of connection points: 2
#     Edge 32, Type (0, 1), BuildingBlock: KIFKEQ_clean_linker_1, # of connection points: 2
#     Edge 33, Type (0, 1), BuildingBlock: KIFKEQ_clean_linker_1, # of connection points: 2
#     Edge 34, Type (0, 1), BuildingBlock: KIFKEQ_clean_linker_1, # of connection points: 2
#     Edge 35, Type (0, 1), BuildingBlock: KIFKEQ_clean_linker_1, # of connection points: 2
# Relax obj value: 0.009
# Max RMSD: 0.106
# Mean RMSD: 0.097
data_MOF--net-nom--node1-QUQFOY_clean_sbu_1--node2-MUDLON_clean_linker_0--edge1-KIFKEQ_clean_linker_1
_symmetry_space_group_name_H-M    P1
_symmetry_Int_Tables_number       1
_symmetry_cell_setting            triclinic
loop_
_symmetry_equiv_pos_as_xyz
'x, y, z'
_cell_length_a     63.633298
_cell_length_b     64.467259
_cell_length_c     58.271779
_cell_angle_alpha  90.381253
_cell_angle_beta   89.772701
_cell_angle_gamma 120.45826
loop_
_atom_site_label
_atom_site_type_symbol
_atom_site_fract_x
_atom_site_fract_y
_atom_site_fract_z
_atom_type_partial_charge
H0 H 0.13998 0.54487 0.29699 0.0
N1 N 0.10486 0.55153 0.31332 0.0
H2 H 0.17362 0.57173 0.27198 0.0
H3 H 0.1071 0.58856 0.28801 0.0
H4 H 0.14007 0.61493 0.26233 0.0
H5 H 0.12952 0.59835 0.32877 0.0
H6 H 0.15214 0.61273 0.36464 0.0
H7 H 0.10466 0.52503 0.34832 0.0
H8 H 0.12679 0.53951 0.38487 0.0
H9 H 0.06954 0.51224 0.29325 0.0
H10 H 0.08362 0.57743 0.32779 0.0
H11 H 0.02656 0.50045 0.28886 0.0
H12 H 0.04086 0.5657 0.32365 0.0
H13 H 0.91809 0.46695 0.27601 0.0
H14 H 0.89423 0.44798 0.24145 0.0
H15 H 0.89358 0.51321 0.22629 0.0
H16 H 0.91777 0.5321 0.26078 0.0
H17 H 0.91044 0.53426 0.31075 0.0
H18 H 0.87561 0.51712 0.33701 0.0
H19 H 0.87912 0.4521 0.34137 0.0
H20 H 0.9145 0.46973 0.31559 0.0
H21 H 0.96207 0.50733 0.26087 0.0
H22 H 1.00312 0.51574 0.26712 0.0
H23 H 0.99949 0.53405 0.33776 0.0
N24 N 0.93203 0.51217 0.29219 0.0
H25 H 0.95793 0.52536 0.33183 0.0
C26 C 0.12102 0.56458 0.29451 0.0
C27 C 0.13959 0.55978 0.28896 0.0
C28 C 0.15879 0.57517 0.2746 0.0
C29 C 0.15976 0.59572 0.26533 0.0
C30 C 0.14016 0.59954 0.26954 0.0
C31 C 0.12105 0.58423 0.28406 0.0
C32 C 0.11567 0.56047 0.33563 0.0
C33 C 0.12867 0.58528 0.34083 0.0
C34 C 0.1416 0.59354 0.36135 0.0
C35 C 0.14133 0.57721 0.3773 0.0
C36 C 0.12723 0.55241 0.37277 0.0
C37 C 0.11463 0.54415 0.352 0.0
C38 C 0.0798 0.54552 0.31096 0.0
C39 C 0.06334 0.52396 0.29991 0.0
C40 C 0.03886 0.51729 0.2974 0.0
C41 C 0.03032 0.53207 0.30608 0.0
C42 C 0.04683 0.55374 0.31714 0.0
C43 C 0.07136 0.56051 0.31945 0.0
C44 C 0.91975 0.50105 0.27092 0.0
C45 C 0.91284 0.47716 0.26523 0.0
C46 C 0.89915 0.46632 0.24548 0.0
C47 C 0.89194 0.47905 0.23111 0.0
C48 C 0.89913 0.503 0.23675 0.0
C49 C 0.91288 0.51383 0.25645 0.0
C50 C 0.91485 0.50324 0.31099 0.0
C51 C 0.90413 0.51661 0.31792 0.0
C52 C 0.88426 0.50678 0.33291 0.0
C53 C 0.87454 0.48318 0.34107 0.0
C54 C 0.88611 0.47023 0.33513 0.0
C55 C 0.90627 0.48026 0.32039 0.0
C56 C 0.95558 0.51414 0.29624 0.0
C57 C 0.9693 0.51215 0.27808 0.0
C58 C 0.99315 0.51722 0.28154 0.0
C59 C 0.00445 0.52528 0.30297 0.0
C60 C 0.9912 0.52774 0.32104 0.0
C61 C 0.9672 0.5224 0.31769 0.0
H62 H 0.44831 0.90735 0.47324 0.0
N63 N 0.42837 0.93428 0.45927 0.0
H64 H 0.42934 0.87334 0.4992 0.0
H65 H 0.39201 0.92393 0.48811 0.0
H66 H 0.37333 0.89037 0.51509 0.0
H67 H 0.39001 0.91347 0.43163 0.0
H68 H 0.38525 0.89006 0.39674 0.0
H69 H 0.46436 0.92983 0.43792 0.0
H70 H 0.45978 0.90653 0.40315 0.0
H71 H 0.4742 0.95 0.47659 0.0
H72 H 0.4272 0.97345 0.44849 0.0
H73 H 0.50727 0.99179 0.47966 0.0
H74 H 0.46032 0.01533 0.45102 0.0
H75 H 0.596 0.10779 0.50554 0.0
H76 H 0.60531 0.12975 0.54205 0.0
H77 H 0.54987 0.14785 0.52793 0.0
H78 H 0.5417 0.12714 0.49131 0.0
H79 H 0.53382 0.11513 0.45025 0.0
H80 H 0.54586 0.15046 0.42669 0.0
H81 H 0.62112 0.16883 0.43121 0.0
H82 H 0.60891 0.13358 0.45534 0.0
H83 H 0.56797 0.06734 0.45867 0.0
H84 H 0.53484 0.0254 0.45535 0.0
H85 H 0.4837 0.04623 0.47905 0.0
N86 N 0.56527 0.10498 0.47324 0.0
H87 H 0.51649 0.08777 0.48178 0.0
C88 C 0.42133 0.91806 0.47846 0.0
C89 C 0.43229 0.9042 0.48264 0.0
C90 C 0.42142 0.88469 0.49767 0.0
C91 C 0.3995 0.87877 0.50895 0.0
C92 C 0.38986 0.89403 0.50626 0.0
C93 C 0.40064 0.91339 0.49107 0.0
C94 C 0.42742 0.92335 0.43737 0.0
C95 C 0.40541 0.91234 0.42522 0.0
C96 C 0.40275 0.89903 0.40533 0.0
C97 C 0.42212 0.89636 0.39732 0.0
C98 C 0.44447 0.90805 0.4091 0.0
C99 C 0.44715 0.9215 0.42891 0.0
C100 C 0.44809 0.95863 0.46247 0.0
C101 C 0.47093 0.96411 0.47116 0.0
C102 C 0.48992 0.98806 0.47271 0.0
C103 C 0.48647 0.00694 0.46556 0.0
C104 C 0.46354 1.00131 0.45698 0.0
C105 C 0.44462 0.97742 0.45546 0.0
C106 C 0.56809 0.11556 0.49573 0.0
C107 C 0.58571 0.11627 0.51055 0.0
C108 C 0.59092 0.12876 0.53141 0.0
C109 C 0.57845 0.14073 0.53788 0.0
C110 C 0.56015 0.13924 0.52333 0.0
C111 C 0.55516 0.12699 0.50243 0.0
C112 C 0.57056 0.12175 0.45478 0.0
C113 C 0.55282 0.12629 0.44573 0.0
C114 C 0.55975 0.14657 0.43214 0.0
C115 C 0.58451 0.16268 0.42736 0.0
C116 C 0.60195 0.15701 0.43492 0.0
C117 C 0.595 0.13677 0.44848 0.0
C118 C 0.54492 0.08081 0.4704 0.0
C119 C 0.54955 0.06281 0.46295 0.0
C120 C 0.53065 0.03885 0.46128 0.0
C121 C 0.50662 0.03243 0.46705 0.0
C122 C 0.50194 0.05057 0.47424 0.0
C123 C 0.52084 0.07449 0.4759 0.0
H124 H 0.48844 0.61115 0.63563 0.0
N125 N 0.4788 0.56826 0.65009 0.0
H126 H 0.4628 0.62008 0.61145 0.0
H127 H 0.4403 0.53523 0.6237 0.0
H128 H 0.41519 0.54399 0.59882 0.0
H129 H 0.43151 0.54801 0.66527 0.0
H130 H 0.41822 0.55657 0.70161 0.0
H131 H 0.50664 0.59269 0.68581 0.0
H132 H 0.49317 0.60057 0.72284 0.0
H133 H 0.51714 0.57039 0.6295 0.0
H134 H 0.44961 0.52105 0.6632 0.0
H135 H 0.5259 0.53776 0.62393 0.0
H136 H 0.45833 0.48858 0.65789 0.0
H137 H 0.55394 0.46154 0.61044 0.0
H138 H 0.5739 0.45624 0.57691 0.0
H139 H 0.50728 0.3905 0.55983 0.0
H140 H 0.48739 0.39618 0.59336 0.0
H141 H 0.48465 0.38608 0.64253 0.0
H142 H 0.50151 0.36834 0.66824 0.0
H143 H 0.56714 0.43764 0.67555 0.0
H144 H 0.54987 0.45536 0.65015 0.0
H145 H 0.51423 0.46553 0.59457 0.0
H146 H 0.50807 0.49907 0.60137 0.0
H147 H 0.48824 0.47685 0.67159 0.0
N148 N 0.50752 0.43023 0.62542 0.0
H149 H 0.49463 0.44311 0.6651 0.0
C150 C 0.46643 0.57263 0.63163 0.0
C151 C 0.47283 0.59647 0.62712 0.0
C152 C 0.45813 0.60151 0.61324 0.0
C153 C 0.43669 0.58273 0.60341 0.0
C154 C 0.43128 0.55888 0.60652 0.0
C155 C 0.44588 0.55384 0.62057 0.0
C156 C 0.47025 0.57015 0.6726 0.0
C157 C 0.44519 0.55944 0.67765 0.0
C158 C 0.43755 0.56429 0.69844 0.0
C159 C 0.45471 0.57937 0.71479 0.0
C160 C 0.47964 0.58887 0.71041 0.0
C161 C 0.48733 0.5844 0.68937 0.0
C162 C 0.48294 0.54836 0.64691 0.0
C163 C 0.50425 0.55255 0.6357 0.0
C164 C 0.50918 0.53391 0.63251 0.0
C165 C 0.49288 0.51066 0.64064 0.0
C166 C 0.47143 0.5064 0.65179 0.0
C167 C 0.4664 0.525 0.65477 0.0
C168 C 0.51906 0.42919 0.60436 0.0
C169 C 0.5436 0.44607 0.59943 0.0
C170 C 0.55502 0.44296 0.58028 0.0
C171 C 0.54224 0.42286 0.56576 0.0
C172 C 0.51757 0.40633 0.57048 0.0
C173 C 0.50616 0.4095 0.58961 0.0
C174 C 0.51602 0.42187 0.64421 0.0
C175 C 0.50235 0.39755 0.65025 0.0
C176 C 0.51203 0.38749 0.66494 0.0
C177 C 0.53576 0.40158 0.67373 0.0
C178 C 0.54893 0.42631 0.66879 0.0
C179 C 0.53909 0.43644 0.65429 0.0
C180 C 0.50653 0.45205 0.62971 0.0
C181 C 0.50952 0.46804 0.6118 0.0
C182 C 0.50575 0.48733 0.61558 0.0
C183 C 0.49799 0.4908 0.63708 0.0
C184 C 0.49436 0.47471 0.65484 0.0
C185 C 0.4984 0.45554 0.65117 0.0
H186 H 0.1216 0.55812 0.80313 0.0
N187 N 0.09328 0.51123 0.78875 0.0
H188 H 0.15628 0.57322 0.82892 0.0
H189 H 0.10342 0.48527 0.81685 0.0
H190 H 0.13767 0.5002 0.84361 0.0
H191 H 0.11394 0.4942 0.76068 0.0
H192 H 0.13811 0.51344 0.72628 0.0
H193 H 0.09801 0.55142 0.76792 0.0
H194 H 0.12196 0.57067 0.73357 0.0
H195 H 0.07862 0.54152 0.80649 0.0
H196 H 0.05287 0.47046 0.77888 0.0
H197 H 0.0366 0.53242 0.81095 0.0
H198 H 0.01071 0.46127 0.78294 0.0
H199 H 0.91835 0.50427 0.83838 0.0
H200 H 0.8959 0.49273 0.87471 0.0
H201 H 0.87881 0.41938 0.86383 0.0
H202 H 0.89993 0.43075 0.82732 0.0
H203 H 0.91005 0.43272 0.7863 0.0
H204 H 0.87395 0.40816 0.76316 0.0
H205 H 0.85698 0.46512 0.76464 0.0
H206 H 0.89299 0.48942 0.78847 0.0
H207 H 0.95928 0.51567 0.79186 0.0
H208 H 1.00154 0.52507 0.78741 0.0
H209 H 0.98099 0.45441 0.81268 0.0
N210 N 0.9215 0.47546 0.8075 0.0
H211 H 0.93913 0.44509 0.81668 0.0
C212 C 0.11002 0.52044 0.8078 0.0
C213 C 0.12455 0.54528 0.81225 0.0
C214 C 0.14444 0.55394 0.82716 0.0
C215 C 0.15009 0.53796 0.83804 0.0
C216 C 0.13421 0.51305 0.83508 0.0
C217 C 0.11447 0.50444 0.82002 0.0
C218 C 0.10419 0.52128 0.76686 0.0
C219 C 0.11525 0.51064 0.75453 0.0
C220 C 0.12901 0.52164 0.73492 0.0
C221 C 0.13207 0.54366 0.72734 0.0
C222 C 0.12019 0.55387 0.7392 0.0
C223 C 0.10632 0.54277 0.75876 0.0
C224 C 0.06885 0.50652 0.79244 0.0
C225 C 0.06396 0.52394 0.80142 0.0
C226 C 0.03988 0.51876 0.80381 0.0
C227 C 0.02028 0.49611 0.7973 0.0
C228 C 0.02533 0.47877 0.78841 0.0
C229 C 0.04936 0.48398 0.786 0.0
C230 C 0.91114 0.46859 0.83018 0.0
C231 C 0.91006 0.48581 0.8441 0.0
C232 C 0.89726 0.47916 0.86486 0.0
C233 C 0.88536 0.45505 0.87216 0.0
C234 C 0.88735 0.43801 0.85858 0.0
C235 C 0.89988 0.44462 0.83775 0.0
C236 C 0.90418 0.46297 0.78934 0.0
C237 C 0.89902 0.44026 0.78123 0.0
C238 C 0.87829 0.42619 0.76786 0.0
C239 C 0.86235 0.43453 0.76233 0.0
C240 C 0.86863 0.45798 0.76896 0.0
C241 C 0.88932 0.472 0.78234 0.0
C242 C 0.94591 0.47976 0.80452 0.0
C243 C 0.96395 0.50222 0.79631 0.0
C244 C 0.98808 0.5076 0.79397 0.0
C245 C 0.99465 0.4905 0.79975 0.0
C246 C 0.9765 0.46789 0.80782 0.0
C247 C 0.95241 0.46256 0.81021 0.0
H248 H 0.54254 0.14187 0.97952 0.0
N249 N 0.54716 0.10447 0.96873 0.0
H250 H 0.57023 0.17693 0.00186 0.0
H251 H 0.58332 0.10755 -0.00261 0.0
H252 H 0.60971 0.14145 0.02174 0.0
H253 H 0.59301 0.12665 0.95023 0.0
H254 H 0.60521 0.14679 0.91326 0.0
H255 H 0.51812 0.1048 0.93621 0.0
H256 H 0.53028 0.12592 0.89948 0.0
H257 H 0.50671 0.06817 0.98632 0.0
H258 H 0.57648 0.08577 0.95799 0.0
H259 H 0.49609 0.02614 0.99031 0.0
H260 H 0.56578 0.04399 0.96105 0.0
H261 H 0.4662 0.9273 0.0086 0.0
H262 H 0.45 0.90429 0.04383 0.0
H263 H 0.51197 0.89394 0.04706 0.0
H264 H 0.52737 0.91608 0.01115 0.0
H265 H 0.52832 0.91774 0.95684 0.0
H266 H 0.50928 0.88162 0.93273 0.0
H267 H 0.43847 0.87244 0.94757 0.0
H268 H 0.45755 0.90804 0.972 0.0
H269 H 0.4751 0.94908 0.97112 0.0
H270 H 0.4857 0.99093 0.9675 0.0
H271 H 0.5595 0.01406 0.98843 0.0
N272 N 0.50583 0.93301 0.98458 0.0
H273 H 0.54882 0.97201 0.99129 0.0
C274 C 0.56072 0.12204 0.98646 0.0
C275 C 0.55696 0.14154 0.98904 0.0
C276 C 0.57289 0.16165 0.00207 0.0
C277 C 0.59276 0.16255 0.01363 0.0
C278 C 0.59529 0.14204 0.01256 0.0
C279 C 0.57979 0.12223 -0.00119 0.0
C280 C 0.55451 0.11397 0.94587 0.0
C281 C 0.57909 0.12578 0.93898 0.0
C282 C 0.5861 0.13764 0.91795 0.0
C283 C 0.56878 0.13824 0.90347 0.0
C284 C 0.54409 0.12564 0.91005 0.0
C285 C 0.53707 0.1136 0.93104 0.0
C286 C 0.54225 0.08018 0.97182 0.0
C287 C 0.51971 0.06296 0.98097 0.0
C288 C 0.51361 0.03893 0.98301 0.0
C289 C 0.53001 0.03159 0.97585 0.0
C290 C 0.55278 0.04899 0.96695 0.0
C291 C 0.55887 0.073 0.965 0.0
C292 C 0.49793 0.92318 0.00717 0.0
C293 C 0.47641 0.92028 0.017 0.0
C294 C 0.46723 0.90721 0.03726 0.0
C295 C 0.4795 0.89696 0.04815 0.0
C296 C 0.50174 0.90108 0.03887 0.0
C297 C 0.51075 0.91396 0.01853 0.0
C298 C 0.49455 0.91574 0.96622 0.0
C299 C 0.50878 0.90837 0.95423 0.0
C300 C 0.49781 0.88769 0.94046 0.0
C301 C 0.47227 0.87393 0.93844 0.0
C302 C 0.45815 0.8824 0.94906 0.0
C303 C 0.46914 0.90305 0.96286 0.0
C304 C 0.51133 0.95738 0.98124 0.0
C305 C 0.4936 0.96305 0.9747 0.0
C306 C 0.49965 0.98711 0.97286 0.0
C307 C 0.52348 0.00595 0.97767 0.0
C308 C 0.5411 1.0001 0.98421 0.0
C309 C 0.53504 0.9761 0.98594 0.0
H310 H 0.53789 0.41783 0.13357 0.0
N311 N 0.54384 0.4585 0.15098 0.0
H312 H 0.56579 0.41303 0.10825 0.0
H313 H 0.58156 0.49486 0.12705 0.0
H314 H 0.60941 0.49031 0.10125 0.0
H315 H 0.59054 0.48592 0.16734 0.0
H316 H 0.60614 0.47949 0.20318 0.0
H317 H 0.51793 0.42976 0.18532 0.0
H318 H 0.53347 0.42395 0.22184 0.0
H319 H 0.50308 0.44812 0.12952 0.0
H320 H 0.56412 0.5055 0.16553 0.0
H321 H 0.48442 0.473 0.12633 0.0
H322 H 0.545 0.5301 0.16363 0.0
H323 H 0.41771 0.5378 0.12189 0.0
H324 H 0.408 0.54922 0.08513 0.0
H325 H 0.4849 0.5948 0.07126 0.0
H326 H 0.4944 0.58323 0.10783 0.0
H327 H 0.49652 0.60284 0.1431 0.0
H328 H 0.49292 0.63348 0.16474 0.0
H329 H 0.4281 0.57796 0.19788 0.0
H330 H 0.43135 0.54729 0.17558 0.0
H331 H 0.44269 0.50876 0.14816 0.0
H332 H 0.4641 0.48639 0.15049 0.0
H333 H 0.53274 0.55248 0.14051 0.0
N334 N 0.46138 0.55514 0.1407 0.0
H335 H 0.51107 0.5748 0.13957 0.0
C336 C 0.55764 0.45659 0.13225 0.0
C337 C 0.5531 0.43366 0.12601 0.0
C338 C 0.56907 0.43099 0.11149 0.0
C339 C 0.59001 0.45131 0.10288 0.0
C340 C 0.59365 0.47431 0.10789 0.0
C341 C 0.57762 0.47695 0.12246 0.0
C342 C 0.55301 0.4579 0.17344 0.0
C343 C 0.57786 0.47243 0.17908 0.0
C344 C 0.5868 0.46881 0.19958 0.0
C345 C 0.57099 0.45112 0.21505 0.0
C346 C 0.54596 0.43773 0.21013 0.0
C347 C 0.53709 0.441 0.18938 0.0
C348 C 0.53467 0.47468 0.14805 0.0
C349 C 0.51241 0.46612 0.13676 0.0
C350 C 0.50168 0.48031 0.1352 0.0
C351 C 0.51289 0.50342 0.1452 0.0
C352 C 0.53582 0.51243 0.15572 0.0
C353 C 0.54671 0.49827 0.15699 0.0
C354 C 0.45666 0.55962 0.11766 0.0
C355 C 0.43241 0.54985 0.11066 0.0
C356 C 0.42694 0.5564 0.0897 0.0
C357 C 0.44572 0.57305 0.07543 0.0
C358 C 0.47007 0.58217 0.08207 0.0
C359 C 0.47552 0.57544 0.10295 0.0
C360 C 0.46392 0.57272 0.15752 0.0
C361 C 0.48191 0.59713 0.15543 0.0
C362 C 0.47984 0.61467 0.16778 0.0
C363 C 0.46009 0.60803 0.18275 0.0
C364 C 0.44354 0.58352 0.18652 0.0
C365 C 0.44539 0.56602 0.17386 0.0
C366 C 0.47517 0.54327 0.14344 0.0
C367 C 0.46238 0.51837 0.1467 0.0
C368 C 0.47467 0.50563 0.14774 0.0
C369 C 0.50018 0.51751 0.1452 0.0
C370 C 0.51312 0.54271 0.14255 0.0
C371 C 0.50072 0.55551 0.1418 0.0
O372 O 0.61227 0.37569 0.41811 0.0
Cd373 Cd 0.62309 0.36624 0.38819 0.0
Cd374 Cd 0.66182 0.41107 0.39395 0.0
O375 O 0.6459 0.41022 0.42499 0.0
O376 O 0.60039 0.33088 0.3855 0.0
O377 O 0.64019 0.34717 0.38981 0.0
C378 C 0.61894 0.32808 0.38773 0.0
C379 C 0.70275 0.42183 0.39204 0.0
C380 C 0.62452 0.39408 0.43082 0.0
C381 C 0.63059 0.40251 0.35254 0.0
O382 O 0.64738 0.41801 0.36538 0.0
O383 O 0.61955 0.38033 0.35772 0.0
O384 O 0.69637 0.43767 0.39547 0.0
O385 O 0.68571 0.39953 0.39024 0.0
O386 O 0.25454 0.61688 0.5835 0.0
Cd387 Cd 0.27623 0.62813 0.55442 0.0
Cd388 Cd 0.26873 0.66621 0.55985 0.0
O389 O 0.25267 0.64961 0.59019 0.0
O390 O 0.28769 0.60464 0.5518 0.0
O391 O 0.31274 0.64348 0.55775 0.0
C392 C 0.30956 0.62214 0.55526 0.0
C393 C 0.29683 0.70746 0.55945 0.0
C394 C 0.24754 0.62857 0.59587 0.0
C395 C 0.24793 0.63568 0.51766 0.0
O396 O 0.24826 0.65182 0.53053 0.0
O397 O 0.25952 0.62521 0.52327 0.0
O398 O 0.27385 0.69924 0.56237 0.0
O399 O 0.30407 0.6921 0.55723 0.0
O400 O 0.64074 0.24879 0.75276 0.0
Cd401 Cd 0.65451 0.26747 0.72263 0.0
Cd402 Cd 0.60992 0.26442 0.72116 0.0
O403 O 0.60477 0.24604 0.75149 0.0
O404 O 0.69016 0.27975 0.72382 0.0
O405 O 0.67466 0.30365 0.72289 0.0
C406 C 0.69361 0.30126 0.72376 0.0
C407 C 0.59835 0.29351 0.71962 0.0
C408 C 0.61978 0.24154 0.76137 0.0
C409 C 0.62261 0.2416 0.68228 0.0
O410 O 0.6072 0.24646 0.69088 0.0
O411 O 0.6428 0.24842 0.69228 0.0
O412 O 0.58248 0.27084 0.71972 0.0
O413 O 0.62112 0.29985 0.72078 0.0
O414 O 0.41327 0.6493 0.92415 0.0
Cd415 Cd 0.40715 0.66295 0.89447 0.0
Cd416 Cd 0.3641 0.61892 0.89512 0.0
O417 O 0.37683 0.61682 0.92684 0.0
O418 O 0.43286 0.69762 0.89461 0.0
O419 O 0.39352 0.68518 0.89643 0.0
C420 C 0.41582 0.7028 0.89608 0.0
C421 C 0.32257 0.60582 0.89182 0.0
C422 C 0.39803 0.6305 0.93492 0.0
C423 C 0.39894 0.62852 0.85604 0.0
O424 O 0.38008 0.6131 0.8668 0.0
O425 O 0.41147 0.65 0.86342 0.0
O426 O 0.33021 0.59098 0.89479 0.0
O427 O 0.33863 0.62849 0.89095 0.0
O428 O 0.77592 0.38465 0.02464 0.0
Cd429 Cd 0.7576 0.37091 0.05519 0.0
Cd430 Cd 0.75497 0.412 0.05377 0.0
O431 O 0.77301 0.41726 0.02307 0.0
O432 O 0.74864 0.33652 0.05396 0.0
O433 O 0.72128 0.34807 0.05566 0.0
C434 C 0.7261 0.33089 0.0542 0.0
C435 C 0.7221 0.41854 0.05533 0.0
C436 C 0.78027 0.40382 0.01449 0.0
C437 C 0.78199 0.40615 0.0935 0.0
O438 O 0.77516 0.41912 0.08334 0.0
O439 O 0.77648 0.38563 0.08539 0.0
O440 O 0.74426 0.43613 0.0539 0.0
O441 O 0.71848 0.39692 0.05558 0.0
O442 O 0.41795 0.78341 0.19728 0.0
Cd443 Cd 0.40784 0.76291 0.22663 0.0
Cd444 Cd 0.36499 0.761 0.21922 0.0
O445 O 0.38207 0.77921 0.18957 0.0
O446 O 0.43171 0.75188 0.23072 0.0
O447 O 0.39262 0.72716 0.22304 0.0
C448 C 0.41411 0.73034 0.22653 0.0
C449 C 0.32577 0.72735 0.21796 0.0
C450 C 0.40434 0.78746 0.18442 0.0
C451 C 0.39229 0.78587 0.26231 0.0
O452 O 0.37426 0.78064 0.24932 0.0
O453 O 0.40757 0.7795 0.2569 0.0
O454 O 0.32953 0.74879 0.21513 0.0
O455 O 0.34452 0.7249 0.22081 0.0
H456 H 0.18153 0.64457 0.26934 0.0
H457 H 0.18945 0.58916 0.23523 0.0
H458 H 0.22039 0.67506 0.25379 0.0
H459 H 0.2288 0.61995 0.21984 0.0
H460 H 0.31118 0.68053 0.22833 0.0
H461 H 0.26969 0.64785 0.23591 0.0
H462 H 0.24195 0.69458 0.21853 0.0
H463 H 0.28333 0.72727 0.21133 0.0
C464 C 0.19124 0.63887 0.25806 0.0
C465 C 0.18224 0.61433 0.25354 0.0
C466 C 0.21364 0.65643 0.24917 0.0
C467 C 0.22773 0.64995 0.23558 0.0
C468 C 0.2185 0.62549 0.23048 0.0
C469 C 0.19596 0.60787 0.2393 0.0
C470 C 0.29619 0.6837 0.2258 0.0
C471 C 0.30059 0.70658 0.2195 0.0
C472 C 0.27239 0.66494 0.23004 0.0
C473 C 0.25254 0.6687 0.22806 0.0
C474 C 0.25689 0.69123 0.2206 0.0
C475 C 0.28062 0.70994 0.21638 0.0
H476 H 0.62222 0.20631 0.44078 0.0
H477 H 0.56402 0.17312 0.39107 0.0
H478 H 0.63211 0.24586 0.42751 0.0
H479 H 0.57415 0.21292 0.37746 0.0
H480 H 0.57612 0.28527 0.38623 0.0
H481 H 0.56974 0.24525 0.39219 0.0
H482 H 0.64761 0.27516 0.39755 0.0
H483 H 0.65394 0.31551 0.39224 0.0
C484 C 0.61194 0.20744 0.42656 0.0
C485 C 0.59229 0.18653 0.417 0.0
C486 C 0.61764 0.23019 0.41892 0.0
C487 C 0.60388 0.23265 0.40147 0.0
C488 C 0.58487 0.2117 0.39122 0.0
C489 C 0.57909 0.1889 0.39895 0.0
C490 C 0.59193 0.28334 0.38845 0.0
C491 C 0.61554 0.30363 0.38898 0.0
C492 C 0.58827 0.2603 0.39168 0.0
C493 C 0.60814 0.25691 0.39543 0.0
C494 C 0.63186 0.27714 0.39506 0.0
C495 C 0.63551 0.30026 0.3919 0.0
H496 H 0.38706 0.55703 0.6069 0.0
H497 H 0.44576 0.62047 0.57504 0.0
H498 H 0.35782 0.56696 0.59177 0.0
H499 H 0.41623 0.63063 0.56009 0.0
H500 H 0.35694 0.65365 0.56786 0.0
H501 H 0.38868 0.644 0.57616 0.0
H502 H 0.33976 0.57016 0.55606 0.0
H503 H 0.30806 0.57963 0.54814 0.0
C504 C 0.39374 0.57282 0.59622 0.0
C505 C 0.41884 0.58786 0.59213 0.0
C506 C 0.37691 0.57857 0.58759 0.0
C507 C 0.38469 0.59958 0.57469 0.0
C508 C 0.40971 0.61445 0.57018 0.0
C509 C 0.4266 0.60861 0.57874 0.0
C510 C 0.3531 0.63544 0.56493 0.0
C511 C 0.32989 0.61735 0.55761 0.0
C512 C 0.37131 0.62994 0.56958 0.0
C513 C 0.36663 0.60624 0.56701 0.0
C514 C 0.34379 0.58848 0.55862 0.0
C515 C 0.32565 0.59396 0.55399 0.0
H516 H 0.81856 0.42952 0.77443 0.0
H517 H 0.85102 0.40144 0.72762 0.0
H518 H 0.7782 0.39906 0.76157 0.0
H519 H 0.81042 0.37085 0.71459 0.0
H520 H 0.73627 0.30105 0.72579 0.0
H521 H 0.77714 0.33507 0.73146 0.0
H522 H 0.74875 0.38339 0.73068 0.0
H523 H 0.70754 0.34908 0.72549 0.0
C524 C 0.81712 0.41724 0.76093 0.0
C525 C 0.83806 0.4179 0.7521 0.0
C526 C 0.79391 0.39971 0.75355 0.0
C527 C 0.79102 0.38239 0.73714 0.0
C528 C 0.81199 0.38368 0.72755 0.0
C529 C 0.83525 0.40122 0.73498 0.0
C530 C 0.73871 0.31893 0.72664 0.0
C531 C 0.7186 0.32233 0.72538 0.0
C532 C 0.76223 0.3385 0.72969 0.0
C533 C 0.76627 0.362 0.73154 0.0
C534 C 0.74623 0.36549 0.72959 0.0
C535 C 0.72264 0.34586 0.72653 0.0
H536 H 0.43249 0.83278 0.9539 0.0
H537 H 0.48572 0.85965 0.89921 0.0
H538 H 0.41678 0.7919 0.94005 0.0
H539 H 0.46992 0.81854 0.8853 0.0
H540 H 0.46086 0.74291 0.89339 0.0
H541 H 0.47195 0.78447 0.89998 0.0
H542 H 0.39604 0.76214 0.90977 0.0
H543 H 0.38491 0.72021 0.90353 0.0
C544 C 0.44043 0.83005 0.93852 0.0
C545 C 0.46049 0.84954 0.92774 0.0
C546 C 0.4314 0.80654 0.93058 0.0
C547 C 0.44221 0.80189 0.91168 0.0
C548 C 0.46146 0.82147 0.90017 0.0
C549 C 0.4705 0.84502 0.90812 0.0
C550 C 0.44646 0.74682 0.89674 0.0
C551 C 0.422 0.7282 0.89812 0.0
C552 C 0.45282 0.77074 0.90032 0.0
C553 C 0.4349 0.77668 0.90542 0.0
C554 C 0.41032 0.75813 0.90611 0.0
C555 C 0.40393 0.73413 0.90245 0.0
H556 H 0.63927 0.47852 0.10868 0.0
H557 H 0.58413 0.41716 0.07093 0.0
H558 H 0.67037 0.47093 0.09362 0.0
H559 H 0.61546 0.40946 0.05585 0.0
H560 H 0.67389 0.38626 0.06383 0.0
H561 H 0.64154 0.39519 0.07163 0.0
H562 H 0.69208 0.47064 0.05954 0.0
H563 H 0.72443 0.46181 0.05224 0.0
C564 C 0.63383 0.46376 0.09668 0.0
C565 C 0.60916 0.44845 0.09104 0.0
C566 C 0.65171 0.45936 0.08807 0.0
C567 C 0.6454 0.43951 0.0736 0.0
C568 C 0.62086 0.42469 0.06724 0.0
C569 C 0.60293 0.42913 0.07584 0.0
C570 C 0.678 0.4047 0.0626 0.0
C571 C 0.70178 0.42334 0.05768 0.0
C572 C 0.65943 0.40982 0.06693 0.0
C573 C 0.66428 0.43368 0.0664 0.0
C574 C 0.68783 0.45214 0.06049 0.0
C575 C 0.70636 0.44704 0.05622 0.0
H576 H 0.35027 0.8482 0.50824 0.0
H577 H 0.41655 0.85583 0.53652 0.0
H578 H 0.32713 0.80825 0.52439 0.0
H579 H 0.39314 0.81533 0.55259 0.0
H580 H 0.2873 0.74348 0.56793 0.0
H581 H 0.3133 0.78616 0.56003 0.0
H582 H 0.37073 0.77362 0.5376 0.0
H583 H 0.34479 0.73079 0.546 0.0
C584 C 0.35988 0.84163 0.5184 0.0
C585 C 0.38533 0.85539 0.52114 0.0
C586 C 0.34656 0.8186 0.52764 0.0
C587 C 0.35826 0.80858 0.53983 0.0
C588 C 0.38363 0.82246 0.54308 0.0
C589 C 0.39702 0.84565 0.53388 0.0
C590 C 0.30558 0.74983 0.5616 0.0
C591 C 0.31387 0.73369 0.55732 0.0
C592 C 0.32046 0.77431 0.55699 0.0
C593 C 0.34396 0.78326 0.54787 0.0
C594 C 0.35277 0.76733 0.54474 0.0
C595 C 0.33786 0.74277 0.54944 0.0
H596 H 0.58098 0.40797 0.66629 0.0
H597 H 0.51659 0.36816 0.70801 0.0
H598 H 0.59741 0.38386 0.68111 0.0
H599 H 0.53324 0.34434 0.72338 0.0
H600 H 0.55195 0.28459 0.71508 0.0
H601 H 0.53864 0.31315 0.70798 0.0
H602 H 0.61324 0.37174 0.71226 0.0
H603 H 0.62672 0.34283 0.71871 0.0
C604 C 0.57066 0.39452 0.67916 0.0
C605 C 0.54741 0.38982 0.68585 0.0
C606 C 0.58009 0.38068 0.6877 0.0
C607 C 0.56653 0.3619 0.70324 0.0
C608 C 0.54394 0.35826 0.71102 0.0
C609 C 0.53442 0.37197 0.70232 0.0
C610 C 0.56556 0.30357 0.71472 0.0
C611 C 0.59044 0.31141 0.71731 0.0
C612 C 0.55787 0.32003 0.71084 0.0
C613 C 0.57483 0.34483 0.70957 0.0
C614 C 0.5997 0.35276 0.71286 0.0
C615 C 0.60743 0.33621 0.71667 0.0
H616 H 0.17405 0.57775 0.8663 0.0
H617 H 0.18038 0.51961 0.83641 0.0
H618 H 0.21494 0.59471 0.88261 0.0
H619 H 0.22074 0.5363 0.85276 0.0
H620 H 0.28509 0.56005 0.89797 0.0
H621 H 0.24228 0.54367 0.88881 0.0
H622 H 0.25749 0.61427 0.86839 0.0
H623 H 0.30049 0.63086 0.87808 0.0
C624 C 0.18404 0.56849 0.86333 0.0
C625 C 0.1738 0.54721 0.85013 0.0
C626 C 0.20746 0.57822 0.87266 0.0
C627 C 0.22107 0.56682 0.86906 0.0
C628 C 0.21059 0.5453 0.85629 0.0
C629 C 0.18733 0.53566 0.84694 0.0
C630 C 0.27931 0.57217 0.89176 0.0
C631 C 0.29625 0.59672 0.88848 0.0
C632 C 0.25476 0.56275 0.88643 0.0
C633 C 0.24651 0.57758 0.87756 0.0
C634 C 0.26323 0.60237 0.87531 0.0
C635 C 0.28788 0.61186 0.88074 0.0
H636 H 0.5875 0.19897 0.03326 0.0
H637 H 0.64178 0.17887 0.01968 0.0
H638 H 0.61931 0.23875 0.04426 0.0
H639 H 0.67304 0.21734 0.0339 0.0
H640 H 0.72813 0.29644 0.02934 0.0
H641 H 0.69596 0.25545 0.02237 0.0
H642 H 0.64821 0.26645 0.0676 0.0
H643 H 0.68017 0.3084 0.07268 0.0
C644 C 0.60612 0.20277 0.03282 0.0
C645 C 0.61177 0.18549 0.02479 0.0
C646 C 0.62453 0.22569 0.03972 0.0
C647 C 0.64916 0.23185 0.03961 0.0
C648 C 0.65455 0.21389 0.03342 0.0
C649 C 0.63628 0.1913 0.02574 0.0
C650 C 0.71073 0.29001 0.03782 0.0
C651 C 0.70659 0.30555 0.05149 0.0
C652 C 0.69221 0.26629 0.03406 0.0
C653 C 0.66918 0.25712 0.04452 0.0
C654 C 0.66535 0.2727 0.05878 0.0
C655 C 0.68373 0.29676 0.0619 0.0
H656 H 0.45583 0.64099 0.15795 0.0
H657 H 0.45117 0.61566 0.22722 0.0
H658 H 0.44305 0.66895 0.1713 0.0
H659 H 0.43894 0.64434 0.24072 0.0
H660 H 0.4522 0.7275 0.24428 0.0
H661 H 0.46305 0.69673 0.23609 0.0
H662 H 0.3987 0.65805 0.19418 0.0
H663 H 0.38738 0.68835 0.20281 0.0
C664 C 0.45248 0.64174 0.1761 0.0
C665 C 0.45466 0.62637 0.19162 0.0
C666 C 0.44497 0.65754 0.18366 0.0
C667 C 0.43993 0.65858 0.20694 0.0
C668 C 0.44273 0.64373 0.22266 0.0
C669 C 0.44973 0.62746 0.21499 0.0
C670 C 0.44013 0.71218 0.23368 0.0
C671 C 0.41898 0.71033 0.22411 0.0
C672 C 0.44631 0.69461 0.22909 0.0
C673 C 0.43171 0.67522 0.21448 0.0
C674 C 0.41019 0.67292 0.2055 0.0
C675 C 0.40371 0.69019 0.2105 0.0
H676 H 0.83457 0.43931 0.33253 0.0
H677 H 0.8612 0.50105 0.37743 0.0
H678 H 0.7938 0.4231 0.34841 0.0
H679 H 0.82056 0.4845 0.39403 0.0
H680 H 0.7414 0.46758 0.39016 0.0
H681 H 0.78355 0.48048 0.38157 0.0
H682 H 0.76571 0.40625 0.3792 0.0
H683 H 0.72304 0.39328 0.38698 0.0
C684 C 0.83182 0.44906 0.34632 0.0
C685 C 0.851 0.47153 0.35364 0.0
C686 C 0.80842 0.43974 0.35548 0.0
C687 C 0.80371 0.4526 0.37235 0.0
C688 C 0.82333 0.47438 0.38067 0.0
C689 C 0.84666 0.48382 0.37129 0.0
C690 C 0.74646 0.45397 0.38803 0.0
C691 C 0.7288 0.42938 0.38909 0.0
C692 C 0.77077 0.46139 0.38328 0.0
C693 C 0.77819 0.44445 0.37966 0.0
C694 C 0.76064 0.41982 0.38154 0.0
C695 C 0.73619 0.41236 0.38613 0.0
H696 H 0.19011 0.60834 0.37881 0.0
H697 H 0.12758 0.56606 0.42205 0.0
H698 H 0.21639 0.6229 0.41278 0.0
H699 H 0.15384 0.5811 0.45614 0.0
H700 H 0.20854 0.64028 0.50833 0.0
H701 H 0.18241 0.62594 0.47433 0.0
H702 H 0.22743 0.60005 0.44536 0.0
H703 H 0.25332 0.61383 0.47959 0.0
C704 C 0.18203 0.60233 0.39563 0.0
C705 C 0.15689 0.58617 0.39794 0.0
C706 C 0.19703 0.61054 0.41496 0.0
C707 C 0.18705 0.6031 0.43695 0.0
C708 C 0.16187 0.58714 0.43931 0.0
C709 C 0.14692 0.57851 0.41991 0.0
C710 C 0.21294 0.63163 0.49467 0.0
C711 C 0.23298 0.62818 0.49659 0.0
C712 C 0.1979 0.62332 0.47534 0.0
C713 C 0.20296 0.6119 0.45738 0.0
C714 C 0.22325 0.60888 0.45903 0.0
C715 C 0.23799 0.61671 0.47858 0.0
H716 H 0.59106 0.1311 0.57985 0.0
H717 H 0.58126 0.18418 0.54412 0.0
H718 H 0.6024 0.15592 0.61455 0.0
H719 H 0.59196 0.20851 0.57892 0.0
H720 H 0.58464 0.22976 0.65304 0.0
H721 H 0.57415 0.20528 0.61824 0.0
H722 H 0.63644 0.19655 0.62814 0.0
H723 H 0.647 0.22102 0.66302 0.0
C724 C 0.59142 0.14806 0.57933 0.0
C725 C 0.5851 0.15554 0.5592 0.0
C726 C 0.59788 0.16224 0.59921 0.0
C727 C 0.59796 0.18408 0.59942 0.0
C728 C 0.59169 0.19158 0.57934 0.0
C729 C 0.58545 0.17755 0.55944 0.0
C730 C 0.59615 0.22268 0.64779 0.0
C731 C 0.61667 0.22735 0.6608 0.0
C732 C 0.59018 0.20875 0.62782 0.0
C733 C 0.60446 0.199 0.62053 0.0
C734 C 0.62498 0.20366 0.63349 0.0
C735 C 0.6311 0.2178 0.65336 0.0
H736 H 0.42766 0.60094 0.71701 0.0
H737 H 0.4636 0.57362 0.75941 0.0
H738 H 0.41432 0.61315 0.75144 0.0
H739 H 0.44965 0.58527 0.79397 0.0
H740 H 0.38934 0.5835 0.84438 0.0
H741 H 0.40346 0.57158 0.81033 0.0
H742 H 0.43997 0.64487 0.78636 0.0
H743 H 0.42647 0.65704 0.82068 0.0
C744 C 0.43254 0.59745 0.73374 0.0
C745 C 0.44656 0.58634 0.7357 0.0
C746 C 0.42503 0.6045 0.75334 0.0
C747 C 0.43099 0.60009 0.77522 0.0
C748 C 0.4448 0.58874 0.77722 0.0
C749 C 0.4528 0.58218 0.75756 0.0
C750 C 0.40035 0.59706 0.83183 0.0
C751 C 0.4068 0.6212 0.83515 0.0
C752 C 0.40851 0.59025 0.81248 0.0
C753 C 0.42277 0.60735 0.79589 0.0
C754 C 0.42894 0.6314 0.79898 0.0
C755 C 0.42127 0.63833 0.81859 0.0
H756 H 0.8939 0.47931 0.91318 0.0
H757 H 0.84163 0.41361 0.87869 0.0
H758 H 0.86788 0.46695 0.9472 0.0
H759 H 0.81611 0.40109 0.91289 0.0
H760 H 0.80065 0.44724 0.99273 0.0
H761 H 0.82611 0.45963 0.95834 0.0
H762 H 0.81839 0.38923 0.95354 0.0
H763 H 0.79293 0.37675 0.98789 0.0
C764 C 0.87687 0.46231 0.91279 0.0
C765 C 0.86996 0.44743 0.89319 0.0
C766 C 0.862 0.45522 0.93228 0.0
C767 C 0.84002 0.43305 0.93267 0.0
C768 C 0.83313 0.41813 0.91317 0.0
C769 C 0.84785 0.42529 0.89362 0.0
C770 C 0.80427 0.43435 0.98428 0.0
C771 C 0.79476 0.411 0.99305 0.0
C772 C 0.81899 0.44152 0.9647 0.0
C773 C 0.82428 0.42542 0.95335 0.0
C774 C 0.81447 0.40196 0.96188 0.0
C775 C 0.79996 0.39486 0.98159 0.0
H776 H 0.47921 0.8553 0.0575 0.0
H777 H 0.45466 0.90211 0.08434 0.0
H778 H 0.46088 0.82865 0.09013 0.0
H779 H 0.43583 0.87502 0.1168 0.0
H780 H 0.38334 0.80631 0.15706 0.0
H781 H 0.40145 0.83281 0.12411 0.0
H782 H 0.46723 0.82977 0.13248 0.0
H783 H 0.4492 0.80324 0.16532 0.0
C784 C 0.47016 0.86009 0.07048 0.0
C785 C 0.46858 0.88099 0.06835 0.0
C786 C 0.45956 0.84472 0.08912 0.0
C787 C 0.44694 0.84976 0.10599 0.0
C788 C 0.44521 0.87055 0.10388 0.0
C789 C 0.45599 0.88604 0.0853 0.0
C790 C 0.40161 0.81118 0.1518 0.0
C791 C 0.41482 0.80265 0.16382 0.0
C792 C 0.41203 0.8265 0.13305 0.0
C793 C 0.43576 0.8334 0.12579 0.0
C794 C 0.44883 0.8246 0.13759 0.0
C795 C 0.43851 0.80947 0.15645 0.0
H796 H 0.60529 0.43805 0.21569 0.0
H797 H 0.55853 0.45099 0.25994 0.0
H798 H 0.62043 0.42654 0.24904 0.0
H799 H 0.57423 0.44011 0.29344 0.0
H800 H 0.6353 0.44637 0.34504 0.0
H801 H 0.62114 0.4589 0.31175 0.0
H802 H 0.59533 0.38936 0.28027 0.0
H803 H 0.60882 0.37647 0.31381 0.0
C804 C 0.59851 0.43868 0.23261 0.0
C805 C 0.58084 0.44543 0.23539 0.0
C806 C 0.60705 0.43201 0.25158 0.0
C807 C 0.59845 0.4325 0.27365 0.0
C808 C 0.58115 0.43972 0.27652 0.0
C809 C 0.57217 0.44585 0.25746 0.0
C810 C 0.6267 0.43379 0.33097 0.0
C811 C 0.62316 0.41044 0.33197 0.0
C812 C 0.61851 0.44093 0.31205 0.0
C813 C 0.60719 0.42504 0.29361 0.0
C814 C 0.60409 0.4019 0.29434 0.0
C815 C 0.61174 0.39454 0.3135 0.0
H816 H 0.40012 0.89399 0.35643 0.0
H817 H 0.43582 0.86266 0.39346 0.0
H818 H 0.39288 0.86673 0.3243 0.0
H819 H 0.42823 0.83507 0.36156 0.0
H820 H 0.43236 0.80676 0.29025 0.0
H821 H 0.44002 0.83367 0.3227 0.0
H822 H 0.36852 0.82496 0.31427 0.0
H823 H 0.36115 0.79865 0.2814 0.0
C824 C 0.40631 0.88119 0.35771 0.0
C825 C 0.41857 0.88048 0.37741 0.0
C826 C 0.40208 0.86549 0.33937 0.0
C827 C 0.40985 0.8486 0.34039 0.0
C828 C 0.42229 0.84806 0.36006 0.0
C829 C 0.42666 0.86387 0.37834 0.0
C830 C 0.41821 0.81046 0.29541 0.0
C831 C 0.39619 0.80063 0.28316 0.0
C832 C 0.42257 0.82584 0.31408 0.0
C833 C 0.40495 0.83162 0.32101 0.0
C834 C 0.38268 0.82129 0.30911 0.0
C835 C 0.37839 0.80604 0.29036 0.0
H836 H 0.52449 0.40671 0.52252 0.0
H837 H 0.58827 0.42952 0.56476 0.0
H838 H 0.54475 0.39908 0.49074 0.0
H839 H 0.60856 0.42203 0.53291 0.0
H840 H 0.64501 0.43116 0.46193 0.0
H841 H 0.62536 0.43799 0.49476 0.0
H842 H 0.5589 0.37126 0.48009 0.0
H843 H 0.57837 0.36453 0.44709 0.0
C844 C 0.54277 0.40996 0.52507 0.0
C845 C 0.55476 0.41875 0.54618 0.0
C846 C 0.55437 0.40556 0.50687 0.0
C847 C 0.57823 0.40988 0.50933 0.0
C848 C 0.59028 0.4188 0.53038 0.0
C849 C 0.57867 0.42315 0.54861 0.0
C850 C 0.62627 0.41785 0.46578 0.0
C851 C 0.61325 0.39735 0.4518 0.0
C852 C 0.61503 0.42173 0.48466 0.0
C853 C 0.59053 0.40524 0.48993 0.0
C854 C 0.57769 0.38449 0.47625 0.0
C855 C 0.58893 0.38057 0.45743 0.0
H856 H 0.13579 0.5249 0.6863 0.0
H857 H 0.16617 0.59143 0.72472 0.0
H858 H 0.16437 0.54587 0.65511 0.0
H859 H 0.19495 0.61237 0.69373 0.0
H860 H 0.22492 0.64598 0.6233 0.0
H861 H 0.19689 0.62564 0.65488 0.0
H862 H 0.20728 0.56478 0.64642 0.0
H863 H 0.23483 0.58485 0.61442 0.0
C864 C 0.14864 0.54399 0.6881 0.0
C865 C 0.14868 0.55653 0.70791 0.0
C866 C 0.16509 0.556 0.67029 0.0
C867 C 0.18204 0.5808 0.67196 0.0
C868 C 0.18193 0.59335 0.69174 0.0
C869 C 0.16541 0.58136 0.70949 0.0
C870 C 0.22137 0.62833 0.62826 0.0
C871 C 0.23206 0.61702 0.61625 0.0
C872 C 0.20534 0.61669 0.64644 0.0
C873 C 0.19971 0.59351 0.65311 0.0
C874 C 0.21086 0.58244 0.64145 0.0
C875 C 0.22682 0.59404 0.62321 0.0
H876 H 0.54586 0.1277 0.86158 0.0
H877 H 0.60932 0.18262 0.89747 0.0
H878 H 0.55815 0.153 0.82745 0.0
H879 H 0.62175 0.20755 0.86327 0.0
H880 H 0.64853 0.23255 0.78948 0.0
H881 H 0.63624 0.20726 0.82354 0.0
H882 H 0.56238 0.19221 0.81536 0.0
H883 H 0.57456 0.21739 0.78119 0.0
C884 C 0.56238 0.14515 0.86223 0.0
C885 C 0.57663 0.15306 0.88228 0.0
C886 C 0.5694 0.15963 0.84269 0.0
C887 C 0.59091 0.18224 0.84271 0.0
C888 C 0.60526 0.19006 0.86264 0.0
C889 C 0.59816 0.1757 0.88221 0.0
C890 C 0.62968 0.22392 0.79496 0.0
C891 C 0.61253 0.227 0.7826 0.0
C892 C 0.62268 0.20951 0.81452 0.0
C893 C 0.59834 0.19771 0.82206 0.0
C894 C 0.58121 0.20086 0.80979 0.0
C895 C 0.58824 0.21543 0.79032 0.0
H896 H 0.46587 0.61945 0.06091 0.0
H897 H 0.41205 0.54646 0.04256 0.0
H898 H 0.45453 0.63421 0.02752 0.0
H899 H 0.40102 0.56108 0.00885 0.0
H900 H 0.36863 0.59556 0.96524 0.0
H901 H 0.38067 0.58233 -0.00087 0.0
H902 H 0.45607 0.63583 0.98651 0.0
H903 H 0.44389 0.6496 0.95296 0.0
C904 C 0.45187 0.60654 0.04951 0.0
C905 C 0.43982 0.5818 0.05433 0.0
C906 C 0.44536 0.61499 0.03037 0.0
C907 C 0.42676 0.59886 0.01553 0.0
C908 C 0.41506 0.57406 0.02016 0.0
C909 C 0.42144 0.56564 0.0394 0.0
C910 C 0.38777 0.60462 0.96976 0.0
C911 C 0.4053 0.6236 0.95635 0.0
C912 C 0.39471 0.5969 0.98911 0.0
C913 C 0.41938 0.60782 0.99543 0.0
C914 C 0.43688 0.62715 0.98227 0.0
C915 C 0.42991 0.63501 0.96299 0.0
H916 H 0.85326 0.43296 0.22718 0.0
H917 H 0.89551 0.49851 0.18868 0.0
H918 H 0.82661 0.41442 0.19409 0.0
H919 H 0.86871 0.48005 0.15578 0.0
H920 H 0.7992 0.45023 0.11347 0.0
H921 H 0.82588 0.46687 0.14657 0.0
H922 H 0.82663 0.40063 0.15389 0.0
H923 H 0.79961 0.38373 0.12071 0.0
C924 C 0.85706 0.44332 0.21158 0.0
C925 C 0.87645 0.46728 0.21063 0.0
C926 C 0.84176 0.43269 0.19266 0.0
C927 C 0.84545 0.44584 0.17242 0.0
C928 C 0.86513 0.46961 0.1713 0.0
C929 C 0.88047 0.48019 0.19016 0.0
C930 C 0.80493 0.4391 0.12213 0.0
C931 C 0.7973 0.41564 0.11435 0.0
C932 C 0.82038 0.44874 0.14103 0.0
C933 C 0.82854 0.43515 0.1527 0.0
C934 C 0.82055 0.4115 0.14528 0.0
C935 C 0.80514 0.40185 0.12624 0.0
loop_
_geom_bond_atom_site_label_1
_geom_bond_atom_site_label_2
_geom_bond_distance
_geom_bond_site_symmetry_2
_ccdc_geom_bond_type
H0 C27 0.929 . S
N1 C26 1.433 . S
N1 C32 1.435 . S
N1 C38 1.423 . S
H2 C28 0.930 . S
H3 C31 0.931 . S
H4 C30 0.929 . S
H5 C33 0.930 . S
H6 C34 0.932 . S
H7 C37 0.929 . S
H8 C36 0.931 . S
H9 C39 0.929 . S
H10 C43 0.932 . S
H11 C40 0.931 . S
H12 C42 0.929 . S
H13 C45 0.929 . S
H14 C46 0.930 . S
H15 C48 0.929 . S
H16 C49 0.931 . S
H17 C51 0.930 . S
H18 C52 0.932 . S
H19 C54 0.931 . S
H20 C55 0.929 . S
H21 C57 0.929 . S
H22 C58 0.931 . S
H23 C60 0.929 . S
N24 C44 1.433 . S
N24 C50 1.435 . S
N24 C56 1.423 . S
H25 C61 0.932 . S
C26 N1 1.433 . S
C26 C27 1.363 . S
C26 C31 1.370 . S
C27 H0 0.929 . S
C27 C26 1.363 . S
C27 C28 1.385 . S
C28 H2 0.930 . S
C28 C27 1.385 . S
C28 C29 1.357 . S
C29 C28 1.357 . S
C29 C30 1.406 . S
C30 H4 0.929 . S
C30 C29 1.406 . S
C30 C31 1.391 . S
C31 H3 0.931 . S
C31 C26 1.370 . S
C31 C30 1.391 . S
C32 N1 1.435 . S
C32 C33 1.358 . S
C32 C37 1.371 . S
C33 H5 0.930 . S
C33 C32 1.358 . S
C33 C34 1.405 . S
C34 H6 0.932 . S
C34 C33 1.405 . S
C34 C35 1.383 . S
C35 C34 1.383 . S
C35 C36 1.393 . S
C36 H8 0.931 . S
C36 C35 1.393 . S
C36 C37 1.382 . S
C37 H7 0.929 . S
C37 C32 1.371 . S
C37 C36 1.382 . S
C38 N1 1.423 . S
C38 C39 1.362 . S
C38 C43 1.388 . S
C39 H9 0.929 . S
C39 C38 1.362 . S
C39 C40 1.376 . S
C40 H11 0.931 . S
C40 C39 1.376 . S
C40 C41 1.396 . S
C41 C40 1.396 . S
C41 C42 1.348 . S
C41 C59 1.472 1_455 S
C42 H12 0.929 . S
C42 C41 1.348 . S
C42 C43 1.443 . S
C43 H10 0.932 . S
C43 C38 1.388 . S
C43 C42 1.443 . S
C44 N24 1.433 . S
C44 C45 1.363 . S
C44 C49 1.370 . S
C45 H13 0.929 . S
C45 C44 1.363 . S
C45 C46 1.385 . S
C46 H14 0.930 . S
C46 C45 1.385 . S
C46 C47 1.357 . S
C47 C46 1.357 . S
C47 C48 1.406 . S
C48 H15 0.929 . S
C48 C47 1.406 . S
C48 C49 1.391 . S
C49 H16 0.931 . S
C49 C44 1.370 . S
C49 C48 1.391 . S
C50 N24 1.435 . S
C50 C51 1.358 . S
C50 C55 1.371 . S
C51 H17 0.930 . S
C51 C50 1.358 . S
C51 C52 1.405 . S
C52 H18 0.932 . S
C52 C51 1.405 . S
C52 C53 1.383 . S
C53 C52 1.383 . S
C53 C54 1.393 . S
C54 H19 0.931 . S
C54 C53 1.393 . S
C54 C55 1.382 . S
C55 H20 0.929 . S
C55 C50 1.371 . S
C55 C54 1.382 . S
C56 N24 1.423 . S
C56 C57 1.362 . S
C56 C61 1.388 . S
C57 H21 0.929 . S
C57 C56 1.362 . S
C57 C58 1.376 . S
C58 H22 0.931 . S
C58 C57 1.376 . S
C58 C59 1.396 . S
C59 C41 1.472 1_655 S
C59 C58 1.396 . S
C59 C60 1.348 . S
C60 H23 0.929 . S
C60 C59 1.348 . S
C60 C61 1.443 . S
C61 H25 0.932 . S
C61 C56 1.388 . S
C61 C60 1.443 . S
H62 C89 0.929 . S
N63 C88 1.433 . S
N63 C94 1.435 . S
N63 C100 1.423 . S
H64 C90 0.930 . S
H65 C93 0.931 . S
H66 C92 0.929 . S
H67 C95 0.930 . S
H68 C96 0.932 . S
H69 C99 0.929 . S
H70 C98 0.931 . S
H71 C101 0.929 . S
H72 C105 0.932 . S
H73 C102 0.931 . S
H74 C104 0.929 1_545 S
H75 C107 0.929 . S
H76 C108 0.930 . S
H77 C110 0.929 . S
H78 C111 0.931 . S
H79 C113 0.930 . S
H80 C114 0.932 . S
H81 C116 0.931 . S
H82 C117 0.929 . S
H83 C119 0.929 . S
H84 C120 0.931 . S
H85 C122 0.929 . S
N86 C106 1.433 . S
N86 C112 1.435 . S
N86 C118 1.423 . S
H87 C123 0.932 . S
C88 N63 1.433 . S
C88 C89 1.363 . S
C88 C93 1.370 . S
C89 H62 0.929 . S
C89 C88 1.363 . S
C89 C90 1.385 . S
C90 H64 0.930 . S
C90 C89 1.385 . S
C90 C91 1.357 . S
C91 C90 1.357 . S
C91 C92 1.406 . S
C92 H66 0.929 . S
C92 C91 1.406 . S
C92 C93 1.391 . S
C93 H65 0.931 . S
C93 C88 1.370 . S
C93 C92 1.391 . S
C94 N63 1.435 . S
C94 C95 1.358 . S
C94 C99 1.371 . S
C95 H67 0.930 . S
C95 C94 1.358 . S
C95 C96 1.405 . S
C96 H68 0.932 . S
C96 C95 1.405 . S
C96 C97 1.383 . S
C97 C96 1.383 . S
C97 C98 1.393 . S
C98 H70 0.931 . S
C98 C97 1.393 . S
C98 C99 1.382 . S
C99 H69 0.929 . S
C99 C94 1.371 . S
C99 C98 1.382 . S
C100 N63 1.423 . S
C100 C101 1.362 . S
C100 C105 1.388 . S
C101 H71 0.929 . S
C101 C100 1.362 . S
C101 C102 1.376 . S
C102 H73 0.931 . S
C102 C101 1.376 . S
C102 C103 1.396 1_565 S
C103 C102 1.396 1_545 S
C103 C104 1.348 1_545 S
C103 C121 1.472 . S
C104 H74 0.929 1_565 S
C104 C103 1.348 1_565 S
C104 C105 1.443 . S
C105 H72 0.932 . S
C105 C100 1.388 . S
C105 C104 1.443 . S
C106 N86 1.433 . S
C106 C107 1.363 . S
C106 C111 1.370 . S
C107 H75 0.929 . S
C107 C106 1.363 . S
C107 C108 1.385 . S
C108 H76 0.930 . S
C108 C107 1.385 . S
C108 C109 1.357 . S
C109 C108 1.357 . S
C109 C110 1.406 . S
C110 H77 0.929 . S
C110 C109 1.406 . S
C110 C111 1.391 . S
C111 H78 0.931 . S
C111 C106 1.370 . S
C111 C110 1.391 . S
C112 N86 1.435 . S
C112 C113 1.358 . S
C112 C117 1.371 . S
C113 H79 0.930 . S
C113 C112 1.358 . S
C113 C114 1.405 . S
C114 H80 0.932 . S
C114 C113 1.405 . S
C114 C115 1.383 . S
C115 C114 1.383 . S
C115 C116 1.393 . S
C116 H81 0.931 . S
C116 C115 1.393 . S
C116 C117 1.382 . S
C117 H82 0.929 . S
C117 C112 1.371 . S
C117 C116 1.382 . S
C118 N86 1.423 . S
C118 C119 1.362 . S
C118 C123 1.388 . S
C119 H83 0.929 . S
C119 C118 1.362 . S
C119 C120 1.376 . S
C120 H84 0.931 . S
C120 C119 1.376 . S
C120 C121 1.396 . S
C121 C103 1.472 . S
C121 C120 1.396 . S
C121 C122 1.348 . S
C122 H85 0.929 . S
C122 C121 1.348 . S
C122 C123 1.443 . S
C123 H87 0.932 . S
C123 C118 1.388 . S
C123 C122 1.443 . S
H124 C151 0.929 . S
N125 C150 1.433 . S
N125 C156 1.435 . S
N125 C162 1.423 . S
H126 C152 0.930 . S
H127 C155 0.931 . S
H128 C154 0.929 . S
H129 C157 0.930 . S
H130 C158 0.932 . S
H131 C161 0.929 . S
H132 C160 0.931 . S
H133 C163 0.929 . S
H134 C167 0.932 . S
H135 C164 0.931 . S
H136 C166 0.929 . S
H137 C169 0.929 . S
H138 C170 0.930 . S
H139 C172 0.929 . S
H140 C173 0.931 . S
H141 C175 0.930 . S
H142 C176 0.932 . S
H143 C178 0.931 . S
H144 C179 0.929 . S
H145 C181 0.929 . S
H146 C182 0.931 . S
H147 C184 0.929 . S
N148 C168 1.433 . S
N148 C174 1.435 . S
N148 C180 1.423 . S
H149 C185 0.932 . S
C150 N125 1.433 . S
C150 C151 1.363 . S
C150 C155 1.370 . S
C151 H124 0.929 . S
C151 C150 1.363 . S
C151 C152 1.385 . S
C152 H126 0.930 . S
C152 C151 1.385 . S
C152 C153 1.357 . S
C153 C152 1.357 . S
C153 C154 1.406 . S
C154 H128 0.929 . S
C154 C153 1.406 . S
C154 C155 1.391 . S
C155 H127 0.931 . S
C155 C150 1.370 . S
C155 C154 1.391 . S
C156 N125 1.435 . S
C156 C157 1.358 . S
C156 C161 1.371 . S
C157 H129 0.930 . S
C157 C156 1.358 . S
C157 C158 1.405 . S
C158 H130 0.932 . S
C158 C157 1.405 . S
C158 C159 1.383 . S
C159 C158 1.383 . S
C159 C160 1.393 . S
C160 H132 0.931 . S
C160 C159 1.393 . S
C160 C161 1.382 . S
C161 H131 0.929 . S
C161 C156 1.371 . S
C161 C160 1.382 . S
C162 N125 1.423 . S
C162 C163 1.362 . S
C162 C167 1.388 . S
C163 H133 0.929 . S
C163 C162 1.362 . S
C163 C164 1.376 . S
C164 H135 0.931 . S
C164 C163 1.376 . S
C164 C165 1.396 . S
C165 C164 1.396 . S
C165 C166 1.348 . S
C165 C183 1.472 . S
C166 H136 0.929 . S
C166 C165 1.348 . S
C166 C167 1.443 . S
C167 H134 0.932 . S
C167 C162 1.388 . S
C167 C166 1.443 . S
C168 N148 1.433 . S
C168 C169 1.363 . S
C168 C173 1.370 . S
C169 H137 0.929 . S
C169 C168 1.363 . S
C169 C170 1.385 . S
C170 H138 0.930 . S
C170 C169 1.385 . S
C170 C171 1.357 . S
C171 C170 1.357 . S
C171 C172 1.406 . S
C172 H139 0.929 . S
C172 C171 1.406 . S
C172 C173 1.391 . S
C173 H140 0.931 . S
C173 C168 1.370 . S
C173 C172 1.391 . S
C174 N148 1.435 . S
C174 C175 1.358 . S
C174 C179 1.371 . S
C175 H141 0.930 . S
C175 C174 1.358 . S
C175 C176 1.405 . S
C176 H142 0.932 . S
C176 C175 1.405 . S
C176 C177 1.383 . S
C177 C176 1.383 . S
C177 C178 1.393 . S
C178 H143 0.931 . S
C178 C177 1.393 . S
C178 C179 1.382 . S
C179 H144 0.929 . S
C179 C174 1.371 . S
C179 C178 1.382 . S
C180 N148 1.423 . S
C180 C181 1.362 . S
C180 C185 1.388 . S
C181 H145 0.929 . S
C181 C180 1.362 . S
C181 C182 1.376 . S
C182 H146 0.931 . S
C182 C181 1.376 . S
C182 C183 1.396 . S
C183 C165 1.472 . S
C183 C182 1.396 . S
C183 C184 1.348 . S
C184 H147 0.929 . S
C184 C183 1.348 . S
C184 C185 1.443 . S
C185 H149 0.932 . S
C185 C180 1.388 . S
C185 C184 1.443 . S
H186 C213 0.929 . S
N187 C212 1.433 . S
N187 C218 1.435 . S
N187 C224 1.423 . S
H188 C214 0.930 . S
H189 C217 0.931 . S
H190 C216 0.929 . S
H191 C219 0.930 . S
H192 C220 0.932 . S
H193 C223 0.929 . S
H194 C222 0.931 . S
H195 C225 0.929 . S
H196 C229 0.932 . S
H197 C226 0.931 . S
H198 C228 0.929 . S
H199 C231 0.929 . S
H200 C232 0.930 . S
H201 C234 0.929 . S
H202 C235 0.931 . S
H203 C237 0.930 . S
H204 C238 0.932 . S
H205 C240 0.931 . S
H206 C241 0.929 . S
H207 C243 0.929 . S
H208 C244 0.931 . S
H209 C246 0.929 . S
N210 C230 1.433 . S
N210 C236 1.435 . S
N210 C242 1.423 . S
H211 C247 0.932 . S
C212 N187 1.433 . S
C212 C213 1.363 . S
C212 C217 1.370 . S
C213 H186 0.929 . S
C213 C212 1.363 . S
C213 C214 1.385 . S
C214 H188 0.930 . S
C214 C213 1.385 . S
C214 C215 1.357 . S
C215 C214 1.357 . S
C215 C216 1.406 . S
C216 H190 0.929 . S
C216 C215 1.406 . S
C216 C217 1.391 . S
C217 H189 0.931 . S
C217 C212 1.370 . S
C217 C216 1.391 . S
C218 N187 1.435 . S
C218 C219 1.358 . S
C218 C223 1.371 . S
C219 H191 0.930 . S
C219 C218 1.358 . S
C219 C220 1.405 . S
C220 H192 0.932 . S
C220 C219 1.405 . S
C220 C221 1.383 . S
C221 C220 1.383 . S
C221 C222 1.393 . S
C222 H194 0.931 . S
C222 C221 1.393 . S
C222 C223 1.382 . S
C223 H193 0.929 . S
C223 C218 1.371 . S
C223 C222 1.382 . S
C224 N187 1.423 . S
C224 C225 1.362 . S
C224 C229 1.388 . S
C225 H195 0.929 . S
C225 C224 1.362 . S
C225 C226 1.376 . S
C226 H197 0.931 . S
C226 C225 1.376 . S
C226 C227 1.396 . S
C227 C226 1.396 . S
C227 C228 1.348 . S
C227 C245 1.472 1_455 S
C228 H198 0.929 . S
C228 C227 1.348 . S
C228 C229 1.443 . S
C229 H196 0.932 . S
C229 C224 1.388 . S
C229 C228 1.443 . S
C230 N210 1.433 . S
C230 C231 1.363 . S
C230 C235 1.370 . S
C231 H199 0.929 . S
C231 C230 1.363 . S
C231 C232 1.385 . S
C232 H200 0.930 . S
C232 C231 1.385 . S
C232 C233 1.357 . S
C233 C232 1.357 . S
C233 C234 1.406 . S
C234 H201 0.929 . S
C234 C233 1.406 . S
C234 C235 1.391 . S
C235 H202 0.931 . S
C235 C230 1.370 . S
C235 C234 1.391 . S
C236 N210 1.435 . S
C236 C237 1.358 . S
C236 C241 1.371 . S
C237 H203 0.930 . S
C237 C236 1.358 . S
C237 C238 1.405 . S
C238 H204 0.932 . S
C238 C237 1.405 . S
C238 C239 1.383 . S
C239 C238 1.383 . S
C239 C240 1.393 . S
C240 H205 0.931 . S
C240 C239 1.393 . S
C240 C241 1.382 . S
C241 H206 0.929 . S
C241 C236 1.371 . S
C241 C240 1.382 . S
C242 N210 1.423 . S
C242 C243 1.362 . S
C242 C247 1.388 . S
C243 H207 0.929 . S
C243 C242 1.362 . S
C243 C244 1.376 . S
C244 H208 0.931 . S
C244 C243 1.376 . S
C244 C245 1.396 . S
C245 C227 1.472 1_655 S
C245 C244 1.396 . S
C245 C246 1.348 . S
C246 H209 0.929 . S
C246 C245 1.348 . S
C246 C247 1.443 . S
C247 H211 0.932 . S
C247 C242 1.388 . S
C247 C246 1.443 . S
H248 C275 0.929 . S
N249 C274 1.433 . S
N249 C280 1.435 . S
N249 C286 1.423 . S
H250 C276 0.930 . S
H251 C279 0.931 . S
H252 C278 0.929 . S
H253 C281 0.930 . S
H254 C282 0.932 . S
H255 C285 0.929 . S
H256 C284 0.931 . S
H257 C287 0.929 . S
H258 C291 0.932 . S
H259 C288 0.931 . S
H260 C290 0.929 . S
H261 C293 0.929 . S
H262 C294 0.930 . S
H263 C296 0.929 . S
H264 C297 0.931 . S
H265 C299 0.930 1_554 S
H266 C300 0.932 . S
H267 C302 0.931 . S
H268 C303 0.929 . S
H269 C305 0.929 . S
H270 C306 0.921 1_554 S
H271 C308 0.929 . S
N272 C292 1.433 . S
N272 C298 1.435 1_554 S
N272 C304 1.423 1_554 S
H273 C309 0.932 . S
C274 N249 1.433 . S
C274 C275 1.363 . S
C274 C279 1.370 . S
C275 H248 0.929 . S
C275 C274 1.363 . S
C275 C276 1.385 . S
C276 H250 0.930 . S
C276 C275 1.385 . S
C276 C277 1.357 1_556 S
C277 C276 1.357 1_554 S
C277 C278 1.406 . S
C278 H252 0.929 . S
C278 C277 1.406 . S
C278 C279 1.391 1_554 S
C279 H251 0.931 . S
C279 C274 1.370 . S
C279 C278 1.391 1_556 S
C280 N249 1.435 . S
C280 C281 1.358 . S
C280 C285 1.371 . S
C281 H253 0.930 . S
C281 C280 1.358 . S
C281 C282 1.405 . S
C282 H254 0.932 . S
C282 C281 1.405 . S
C282 C283 1.383 . S
C283 C282 1.383 . S
C283 C284 1.393 . S
C284 H256 0.931 . S
C284 C283 1.393 . S
C284 C285 1.382 . S
C285 H255 0.929 . S
C285 C280 1.371 . S
C285 C284 1.382 . S
C286 N249 1.423 . S
C286 C287 1.362 . S
C286 C291 1.388 . S
C287 H257 0.929 . S
C287 C286 1.362 . S
C287 C288 1.376 . S
C288 H259 0.931 . S
C288 C287 1.376 . S
C288 C289 1.396 . S
C289 C288 1.396 . S
C289 C290 1.348 . S
C289 C307 1.472 1_545 S
C290 H260 0.929 . S
C290 C289 1.348 . S
C290 C291 1.443 . S
C291 H258 0.932 . S
C291 C286 1.388 . S
C291 C290 1.443 . S
C292 N272 1.433 . S
C292 C293 1.363 . S
C292 C297 1.370 . S
C293 H261 0.929 . S
C293 C292 1.363 . S
C293 C294 1.385 . S
C294 H262 0.930 . S
C294 C293 1.385 . S
C294 C295 1.357 . S
C295 C294 1.357 . S
C295 C296 1.406 . S
C296 H263 0.929 . S
C296 C295 1.406 . S
C296 C297 1.391 . S
C297 H264 0.931 . S
C297 C292 1.370 . S
C297 C296 1.391 . S
C298 N272 1.435 1_556 S
C298 C299 1.358 . S
C298 C303 1.371 . S
C299 H265 0.930 1_556 S
C299 C298 1.358 . S
C299 C300 1.405 . S
C300 H266 0.932 . S
C300 C299 1.405 . S
C300 C301 1.383 . S
C301 C300 1.383 . S
C301 C302 1.393 . S
C302 H267 0.931 . S
C302 C301 1.393 . S
C302 C303 1.382 . S
C303 H268 0.929 . S
C303 C298 1.371 . S
C303 C302 1.382 . S
C304 N272 1.423 1_556 S
C304 C305 1.362 1_556 S
C304 C309 1.388 . S
C305 H269 0.929 . S
C305 C304 1.362 1_554 S
C305 C306 1.376 1_554 S
C306 H270 0.921 1_556 S
C306 C305 1.376 1_556 S
C306 C307 1.396 . S
C307 C289 1.472 1_565 S
C307 C306 1.396 . S
C307 C308 1.348 . S
C308 H271 0.929 . S
C308 C307 1.348 . S
C308 C309 1.443 . S
C309 H273 0.932 . S
C309 C304 1.388 . S
C309 C308 1.443 . S
H310 C337 0.929 . S
N311 C336 1.433 . S
N311 C342 1.435 . S
N311 C348 1.423 . S
H312 C338 0.930 . S
H313 C341 0.931 . S
H314 C340 0.929 . S
H315 C343 0.930 . S
H316 C344 0.932 . S
H317 C347 0.929 . S
H318 C346 0.931 . S
H319 C349 0.929 . S
H320 C353 0.932 . S
H321 C350 0.931 . S
H322 C352 0.929 . S
H323 C355 0.929 . S
H324 C356 0.930 . S
H325 C358 0.929 . S
H326 C359 0.931 . S
H327 C361 0.930 . S
H328 C362 0.932 . S
H329 C364 0.931 . S
H330 C365 0.929 . S
H331 C367 0.929 . S
H332 C368 0.931 . S
H333 C370 0.929 . S
N334 C354 1.433 . S
N334 C360 1.435 . S
N334 C366 1.423 . S
H335 C371 0.932 . S
C336 N311 1.433 . S
C336 C337 1.363 . S
C336 C341 1.370 . S
C337 H310 0.929 . S
C337 C336 1.363 . S
C337 C338 1.385 . S
C338 H312 0.930 . S
C338 C337 1.385 . S
C338 C339 1.357 . S
C339 C338 1.357 . S
C339 C340 1.406 . S
C340 H314 0.929 . S
C340 C339 1.406 . S
C340 C341 1.391 . S
C341 H313 0.931 . S
C341 C336 1.370 . S
C341 C340 1.391 . S
C342 N311 1.435 . S
C342 C343 1.358 . S
C342 C347 1.371 . S
C343 H315 0.930 . S
C343 C342 1.358 . S
C343 C344 1.405 . S
C344 H316 0.932 . S
C344 C343 1.405 . S
C344 C345 1.383 . S
C345 C344 1.383 . S
C345 C346 1.393 . S
C346 H318 0.931 . S
C346 C345 1.393 . S
C346 C347 1.382 . S
C347 H317 0.929 . S
C347 C342 1.371 . S
C347 C346 1.382 . S
C348 N311 1.423 . S
C348 C349 1.362 . S
C348 C353 1.388 . S
C349 H319 0.929 . S
C349 C348 1.362 . S
C349 C350 1.376 . S
C350 H321 0.931 . S
C350 C349 1.376 . S
C350 C351 1.396 . S
C351 C350 1.396 . S
C351 C352 1.348 . S
C351 C369 1.472 . S
C352 H322 0.929 . S
C352 C351 1.348 . S
C352 C353 1.443 . S
C353 H320 0.932 . S
C353 C348 1.388 . S
C353 C352 1.443 . S
C354 N334 1.433 . S
C354 C355 1.363 . S
C354 C359 1.370 . S
C355 H323 0.929 . S
C355 C354 1.363 . S
C355 C356 1.385 . S
C356 H324 0.930 . S
C356 C355 1.385 . S
C356 C357 1.357 . S
C357 C356 1.357 . S
C357 C358 1.406 . S
C358 H325 0.929 . S
C358 C357 1.406 . S
C358 C359 1.391 . S
C359 H326 0.931 . S
C359 C354 1.370 . S
C359 C358 1.391 . S
C360 N334 1.435 . S
C360 C361 1.358 . S
C360 C365 1.371 . S
C361 H327 0.930 . S
C361 C360 1.358 . S
C361 C362 1.405 . S
C362 H328 0.932 . S
C362 C361 1.405 . S
C362 C363 1.383 . S
C363 C362 1.383 . S
C363 C364 1.393 . S
C364 H329 0.931 . S
C364 C363 1.393 . S
C364 C365 1.382 . S
C365 H330 0.929 . S
C365 C360 1.371 . S
C365 C364 1.382 . S
C366 N334 1.423 . S
C366 C367 1.362 . S
C366 C371 1.388 . S
C367 H331 0.929 . S
C367 C366 1.362 . S
C367 C368 1.376 . S
C368 H332 0.931 . S
C368 C367 1.376 . S
C368 C369 1.396 . S
C369 C351 1.472 . S
C369 C368 1.396 . S
C369 C370 1.348 . S
C370 H333 0.929 . S
C370 C369 1.348 . S
C370 C371 1.443 . S
C371 H335 0.932 . S
C371 C366 1.388 . S
C371 C370 1.443 . S
O372 Cd373 2.223 . S
O372 C380 1.315 . S
Cd373 O372 2.223 . S
Cd373 O376 2.297 . S
Cd373 O377 2.439 . S
Cd373 O383 2.240 . S
Cd374 O375 2.240 . S
Cd374 O382 2.223 . S
Cd374 O384 2.297 . S
Cd374 O385 2.439 . S
O375 Cd374 2.240 . S
O375 C380 1.279 . S
O376 Cd373 2.297 . S
O376 C378 1.247 . S
O377 Cd373 2.439 . S
O377 C378 1.208 . S
C378 O376 1.247 . S
C378 O377 1.208 . S
C379 O384 1.247 . S
C379 O385 1.208 . S
C380 O372 1.315 . S
C380 O375 1.279 . S
C381 O382 1.315 . S
C381 O383 1.279 . S
O382 Cd374 2.223 . S
O382 C381 1.315 . S
O383 Cd373 2.240 . S
O383 C381 1.279 . S
O384 Cd374 2.297 . S
O384 C379 1.247 . S
O385 Cd374 2.439 . S
O385 C379 1.208 . S
O386 Cd387 2.223 . S
O386 C394 1.315 . S
Cd387 O386 2.223 . S
Cd387 O390 2.297 . S
Cd387 O391 2.439 . S
Cd387 O397 2.240 . S
Cd388 O389 2.240 . S
Cd388 O396 2.223 . S
Cd388 O398 2.297 . S
Cd388 O399 2.439 . S
O389 Cd388 2.240 . S
O389 C394 1.279 . S
O390 Cd387 2.297 . S
O390 C392 1.247 . S
O391 Cd387 2.439 . S
O391 C392 1.208 . S
C392 O390 1.247 . S
C392 O391 1.208 . S
C393 O398 1.247 . S
C393 O399 1.208 . S
C394 O386 1.315 . S
C394 O389 1.279 . S
C395 O396 1.315 . S
C395 O397 1.279 . S
O396 Cd388 2.223 . S
O396 C395 1.315 . S
O397 Cd387 2.240 . S
O397 C395 1.279 . S
O398 Cd388 2.297 . S
O398 C393 1.247 . S
O399 Cd388 2.439 . S
O399 C393 1.208 . S
O400 Cd401 2.223 . S
O400 C408 1.315 . S
Cd401 O400 2.223 . S
Cd401 O404 2.297 . S
Cd401 O405 2.439 . S
Cd401 O411 2.240 . S
Cd402 O403 2.240 . S
Cd402 O410 2.223 . S
Cd402 O412 2.297 . S
Cd402 O413 2.439 . S
O403 Cd402 2.240 . S
O403 C408 1.279 . S
O404 Cd401 2.297 . S
O404 C406 1.247 . S
O405 Cd401 2.439 . S
O405 C406 1.208 . S
C406 O404 1.247 . S
C406 O405 1.208 . S
C407 O412 1.247 . S
C407 O413 1.208 . S
C408 O400 1.315 . S
C408 O403 1.279 . S
C409 O410 1.315 . S
C409 O411 1.279 . S
O410 Cd402 2.223 . S
O410 C409 1.315 . S
O411 Cd401 2.240 . S
O411 C409 1.279 . S
O412 Cd402 2.297 . S
O412 C407 1.247 . S
O413 Cd402 2.439 . S
O413 C407 1.208 . S
O414 Cd415 2.223 . S
O414 C422 1.315 . S
Cd415 O414 2.223 . S
Cd415 O418 2.297 . S
Cd415 O419 2.439 . S
Cd415 O425 2.240 . S
Cd416 O417 2.240 . S
Cd416 O424 2.223 . S
Cd416 O426 2.297 . S
Cd416 O427 2.439 . S
O417 Cd416 2.240 . S
O417 C422 1.279 . S
O418 Cd415 2.297 . S
O418 C420 1.247 . S
O419 Cd415 2.439 . S
O419 C420 1.208 . S
C420 O418 1.247 . S
C420 O419 1.208 . S
C421 O426 1.247 . S
C421 O427 1.208 . S
C422 O414 1.315 . S
C422 O417 1.279 . S
C423 O424 1.315 . S
C423 O425 1.279 . S
O424 Cd416 2.223 . S
O424 C423 1.315 . S
O425 Cd415 2.240 . S
O425 C423 1.279 . S
O426 Cd416 2.297 . S
O426 C421 1.247 . S
O427 Cd416 2.439 . S
O427 C421 1.208 . S
O428 Cd429 2.223 . S
O428 C436 1.315 . S
Cd429 O428 2.223 . S
Cd429 O432 2.297 . S
Cd429 O433 2.439 . S
Cd429 O439 2.240 . S
Cd430 O431 2.240 . S
Cd430 O438 2.223 . S
Cd430 O440 2.297 . S
Cd430 O441 2.439 . S
O431 Cd430 2.240 . S
O431 C436 1.279 . S
O432 Cd429 2.297 . S
O432 C434 1.247 . S
O433 Cd429 2.439 . S
O433 C434 1.208 . S
C434 O432 1.247 . S
C434 O433 1.208 . S
C435 O440 1.247 . S
C435 O441 1.208 . S
C436 O428 1.315 . S
C436 O431 1.279 . S
C437 O438 1.315 . S
C437 O439 1.279 . S
O438 Cd430 2.223 . S
O438 C437 1.315 . S
O439 Cd429 2.240 . S
O439 C437 1.279 . S
O440 Cd430 2.297 . S
O440 C435 1.247 . S
O441 Cd430 2.439 . S
O441 C435 1.208 . S
O442 Cd443 2.223 . S
O442 C450 1.315 . S
Cd443 O442 2.223 . S
Cd443 O446 2.297 . S
Cd443 O447 2.439 . S
Cd443 O453 2.240 . S
Cd444 O445 2.240 . S
Cd444 O452 2.223 . S
Cd444 O454 2.297 . S
Cd444 O455 2.439 . S
O445 Cd444 2.240 . S
O445 C450 1.279 . S
O446 Cd443 2.297 . S
O446 C448 1.247 . S
O447 Cd443 2.439 . S
O447 C448 1.208 . S
C448 O446 1.247 . S
C448 O447 1.208 . S
C449 O454 1.247 . S
C449 O455 1.208 . S
C450 O442 1.315 . S
C450 O445 1.279 . S
C451 O452 1.315 . S
C451 O453 1.279 . S
O452 Cd444 2.223 . S
O452 C451 1.315 . S
O453 Cd443 2.240 . S
O453 C451 1.279 . S
O454 Cd444 2.297 . S
O454 C449 1.247 . S
O455 Cd444 2.439 . S
O455 C449 1.208 . S
H456 C464 0.950 . S
H457 C469 0.950 . S
H458 C466 0.950 . S
H459 C468 0.950 . S
H460 C470 0.950 . S
H461 C472 0.950 . S
H462 C474 0.950 . S
H463 C475 0.950 . S
C464 H456 0.950 . S
C464 C465 1.386 . S
C464 C466 1.391 . S
C465 C464 1.386 . S
C465 C469 1.393 . S
C466 H458 0.950 . S
C466 C464 1.391 . S
C466 C467 1.400 . S
C467 C466 1.400 . S
C467 C468 1.398 . S
C467 C473 1.491 . S
C468 H459 0.950 . S
C468 C467 1.398 . S
C468 C469 1.391 . S
C469 H457 0.950 . S
C469 C465 1.393 . S
C469 C468 1.391 . S
C470 H460 0.950 . S
C470 C471 1.386 . S
C470 C472 1.391 . S
C471 C470 1.386 . S
C471 C475 1.393 . S
C472 H461 0.950 . S
C472 C470 1.391 . S
C472 C473 1.400 . S
C473 C467 1.491 . S
C473 C472 1.400 . S
C473 C474 1.398 . S
C474 H462 0.950 . S
C474 C473 1.398 . S
C474 C475 1.391 . S
C475 H463 0.950 . S
C475 C471 1.393 . S
C475 C474 1.391 . S
H476 C484 0.950 . S
H477 C489 0.950 . S
H478 C486 0.950 . S
H479 C488 0.950 . S
H480 C490 0.950 . S
H481 C492 0.950 . S
H482 C494 0.950 . S
H483 C495 0.950 . S
C484 H476 0.950 . S
C484 C485 1.386 . S
C484 C486 1.391 . S
C485 C484 1.386 . S
C485 C489 1.393 . S
C486 H478 0.950 . S
C486 C484 1.391 . S
C486 C487 1.400 . S
C487 C486 1.400 . S
C487 C488 1.398 . S
C487 C493 1.491 . S
C488 H479 0.950 . S
C488 C487 1.398 . S
C488 C489 1.391 . S
C489 H477 0.950 . S
C489 C485 1.393 . S
C489 C488 1.391 . S
C490 H480 0.950 . S
C490 C491 1.386 . S
C490 C492 1.391 . S
C491 C490 1.386 . S
C491 C495 1.393 . S
C492 H481 0.950 . S
C492 C490 1.391 . S
C492 C493 1.400 . S
C493 C487 1.491 . S
C493 C492 1.400 . S
C493 C494 1.398 . S
C494 H482 0.950 . S
C494 C493 1.398 . S
C494 C495 1.391 . S
C495 H483 0.950 . S
C495 C491 1.393 . S
C495 C494 1.391 . S
H496 C504 0.950 . S
H497 C509 0.950 . S
H498 C506 0.950 . S
H499 C508 0.950 . S
H500 C510 0.950 . S
H501 C512 0.950 . S
H502 C514 0.950 . S
H503 C515 0.950 . S
C504 H496 0.950 . S
C504 C505 1.386 . S
C504 C506 1.391 . S
C505 C504 1.386 . S
C505 C509 1.393 . S
C506 H498 0.950 . S
C506 C504 1.391 . S
C506 C507 1.400 . S
C507 C506 1.400 . S
C507 C508 1.398 . S
C507 C513 1.491 . S
C508 H499 0.950 . S
C508 C507 1.398 . S
C508 C509 1.391 . S
C509 H497 0.950 . S
C509 C505 1.393 . S
C509 C508 1.391 . S
C510 H500 0.950 . S
C510 C511 1.386 . S
C510 C512 1.391 . S
C511 C510 1.386 . S
C511 C515 1.393 . S
C512 H501 0.950 . S
C512 C510 1.391 . S
C512 C513 1.400 . S
C513 C507 1.491 . S
C513 C512 1.400 . S
C513 C514 1.398 . S
C514 H502 0.950 . S
C514 C513 1.398 . S
C514 C515 1.391 . S
C515 H503 0.950 . S
C515 C511 1.393 . S
C515 C514 1.391 . S
H516 C524 0.950 . S
H517 C529 0.950 . S
H518 C526 0.950 . S
H519 C528 0.950 . S
H520 C530 0.950 . S
H521 C532 0.950 . S
H522 C534 0.950 . S
H523 C535 0.950 . S
C524 H516 0.950 . S
C524 C525 1.386 . S
C524 C526 1.391 . S
C525 C524 1.386 . S
C525 C529 1.393 . S
C526 H518 0.950 . S
C526 C524 1.391 . S
C526 C527 1.400 . S
C527 C526 1.400 . S
C527 C528 1.398 . S
C527 C533 1.491 . S
C528 H519 0.950 . S
C528 C527 1.398 . S
C528 C529 1.391 . S
C529 H517 0.950 . S
C529 C525 1.393 . S
C529 C528 1.391 . S
C530 H520 0.950 . S
C530 C531 1.386 . S
C530 C532 1.391 . S
C531 C530 1.386 . S
C531 C535 1.393 . S
C532 H521 0.950 . S
C532 C530 1.391 . S
C532 C533 1.400 . S
C533 C527 1.491 . S
C533 C532 1.400 . S
C533 C534 1.398 . S
C534 H522 0.950 . S
C534 C533 1.398 . S
C534 C535 1.391 . S
C535 H523 0.950 . S
C535 C531 1.393 . S
C535 C534 1.391 . S
H536 C544 0.950 . S
H537 C549 0.950 . S
H538 C546 0.950 . S
H539 C548 0.950 . S
H540 C550 0.950 . S
H541 C552 0.950 . S
H542 C554 0.950 . S
H543 C555 0.950 . S
C544 H536 0.950 . S
C544 C545 1.386 . S
C544 C546 1.391 . S
C545 C544 1.386 . S
C545 C549 1.393 . S
C546 H538 0.950 . S
C546 C544 1.391 . S
C546 C547 1.400 . S
C547 C546 1.400 . S
C547 C548 1.398 . S
C547 C553 1.491 . S
C548 H539 0.950 . S
C548 C547 1.398 . S
C548 C549 1.391 . S
C549 H537 0.950 . S
C549 C545 1.393 . S
C549 C548 1.391 . S
C550 H540 0.950 . S
C550 C551 1.386 . S
C550 C552 1.391 . S
C551 C550 1.386 . S
C551 C555 1.393 . S
C552 H541 0.950 . S
C552 C550 1.391 . S
C552 C553 1.400 . S
C553 C547 1.491 . S
C553 C552 1.400 . S
C553 C554 1.398 . S
C554 H542 0.950 . S
C554 C553 1.398 . S
C554 C555 1.391 . S
C555 H543 0.950 . S
C555 C551 1.393 . S
C555 C554 1.391 . S
H556 C564 0.950 . S
H557 C569 0.950 . S
H558 C566 0.950 . S
H559 C568 0.950 . S
H560 C570 0.950 . S
H561 C572 0.950 . S
H562 C574 0.950 . S
H563 C575 0.950 . S
C564 H556 0.950 . S
C564 C565 1.386 . S
C564 C566 1.391 . S
C565 C564 1.386 . S
C565 C569 1.393 . S
C566 H558 0.950 . S
C566 C564 1.391 . S
C566 C567 1.400 . S
C567 C566 1.400 . S
C567 C568 1.398 . S
C567 C573 1.491 . S
C568 H559 0.950 . S
C568 C567 1.398 . S
C568 C569 1.391 . S
C569 H557 0.950 . S
C569 C565 1.393 . S
C569 C568 1.391 . S
C570 H560 0.950 . S
C570 C571 1.386 . S
C570 C572 1.391 . S
C571 C570 1.386 . S
C571 C575 1.393 . S
C572 H561 0.950 . S
C572 C570 1.391 . S
C572 C573 1.400 . S
C573 C567 1.491 . S
C573 C572 1.400 . S
C573 C574 1.398 . S
C574 H562 0.950 . S
C574 C573 1.398 . S
C574 C575 1.391 . S
C575 H563 0.950 . S
C575 C571 1.393 . S
C575 C574 1.391 . S
H576 C584 0.950 . S
H577 C589 0.950 . S
H578 C586 0.950 . S
H579 C588 0.950 . S
H580 C590 0.950 . S
H581 C592 0.950 . S
H582 C594 0.950 . S
H583 C595 0.950 . S
C584 H576 0.950 . S
C584 C585 1.386 . S
C584 C586 1.391 . S
C585 C584 1.386 . S
C585 C589 1.393 . S
C586 H578 0.950 . S
C586 C584 1.391 . S
C586 C587 1.400 . S
C587 C586 1.400 . S
C587 C588 1.398 . S
C587 C593 1.491 . S
C588 H579 0.950 . S
C588 C587 1.398 . S
C588 C589 1.391 . S
C589 H577 0.950 . S
C589 C585 1.393 . S
C589 C588 1.391 . S
C590 H580 0.950 . S
C590 C591 1.386 . S
C590 C592 1.391 . S
C591 C590 1.386 . S
C591 C595 1.393 . S
C592 H581 0.950 . S
C592 C590 1.391 . S
C592 C593 1.400 . S
C593 C587 1.491 . S
C593 C592 1.400 . S
C593 C594 1.398 . S
C594 H582 0.950 . S
C594 C593 1.398 . S
C594 C595 1.391 . S
C595 H583 0.950 . S
C595 C591 1.393 . S
C595 C594 1.391 . S
H596 C604 0.950 . S
H597 C609 0.950 . S
H598 C606 0.950 . S
H599 C608 0.950 . S
H600 C610 0.950 . S
H601 C612 0.950 . S
H602 C614 0.950 . S
H603 C615 0.950 . S
C604 H596 0.950 . S
C604 C605 1.386 . S
C604 C606 1.391 . S
C605 C604 1.386 . S
C605 C609 1.393 . S
C606 H598 0.950 . S
C606 C604 1.391 . S
C606 C607 1.400 . S
C607 C606 1.400 . S
C607 C608 1.398 . S
C607 C613 1.491 . S
C608 H599 0.950 . S
C608 C607 1.398 . S
C608 C609 1.391 . S
C609 H597 0.950 . S
C609 C605 1.393 . S
C609 C608 1.391 . S
C610 H600 0.950 . S
C610 C611 1.386 . S
C610 C612 1.391 . S
C611 C610 1.386 . S
C611 C615 1.393 . S
C612 H601 0.950 . S
C612 C610 1.391 . S
C612 C613 1.400 . S
C613 C607 1.491 . S
C613 C612 1.400 . S
C613 C614 1.398 . S
C614 H602 0.950 . S
C614 C613 1.398 . S
C614 C615 1.391 . S
C615 H603 0.950 . S
C615 C611 1.393 . S
C615 C614 1.391 . S
H616 C624 0.950 . S
H617 C629 0.950 . S
H618 C626 0.950 . S
H619 C628 0.950 . S
H620 C630 0.950 . S
H621 C632 0.950 . S
H622 C634 0.950 . S
H623 C635 0.950 . S
C624 H616 0.950 . S
C624 C625 1.386 . S
C624 C626 1.391 . S
C625 C624 1.386 . S
C625 C629 1.393 . S
C626 H618 0.950 . S
C626 C624 1.391 . S
C626 C627 1.400 . S
C627 C626 1.400 . S
C627 C628 1.398 . S
C627 C633 1.491 . S
C628 H619 0.950 . S
C628 C627 1.398 . S
C628 C629 1.391 . S
C629 H617 0.950 . S
C629 C625 1.393 . S
C629 C628 1.391 . S
C630 H620 0.950 . S
C630 C631 1.386 . S
C630 C632 1.391 . S
C631 C630 1.386 . S
C631 C635 1.393 . S
C632 H621 0.950 . S
C632 C630 1.391 . S
C632 C633 1.400 . S
C633 C627 1.491 . S
C633 C632 1.400 . S
C633 C634 1.398 . S
C634 H622 0.950 . S
C634 C633 1.398 . S
C634 C635 1.391 . S
C635 H623 0.950 . S
C635 C631 1.393 . S
C635 C634 1.391 . S
H636 C644 0.950 . S
H637 C649 0.950 . S
H638 C646 0.950 . S
H639 C648 0.950 . S
H640 C650 0.950 . S
H641 C652 0.950 . S
H642 C654 0.950 . S
H643 C655 0.950 . S
C644 H636 0.950 . S
C644 C645 1.386 . S
C644 C646 1.391 . S
C645 C644 1.386 . S
C645 C649 1.393 . S
C646 H638 0.950 . S
C646 C644 1.391 . S
C646 C647 1.400 . S
C647 C646 1.400 . S
C647 C648 1.398 . S
C647 C653 1.491 . S
C648 H639 0.950 . S
C648 C647 1.398 . S
C648 C649 1.391 . S
C649 H637 0.950 . S
C649 C645 1.393 . S
C649 C648 1.391 . S
C650 H640 0.950 . S
C650 C651 1.386 . S
C650 C652 1.391 . S
C651 C650 1.386 . S
C651 C655 1.393 . S
C652 H641 0.950 . S
C652 C650 1.391 . S
C652 C653 1.400 . S
C653 C647 1.491 . S
C653 C652 1.400 . S
C653 C654 1.398 . S
C654 H642 0.950 . S
C654 C653 1.398 . S
C654 C655 1.391 . S
C655 H643 0.950 . S
C655 C651 1.393 . S
C655 C654 1.391 . S
H656 C664 0.950 . S
H657 C669 0.950 . S
H658 C666 0.950 . S
H659 C668 0.950 . S
H660 C670 0.950 . S
H661 C672 0.950 . S
H662 C674 0.950 . S
H663 C675 0.950 . S
C664 H656 0.950 . S
C664 C665 1.386 . S
C664 C666 1.391 . S
C665 C664 1.386 . S
C665 C669 1.393 . S
C666 H658 0.950 . S
C666 C664 1.391 . S
C666 C667 1.400 . S
C667 C666 1.400 . S
C667 C668 1.398 . S
C667 C673 1.491 . S
C668 H659 0.950 . S
C668 C667 1.398 . S
C668 C669 1.391 . S
C669 H657 0.950 . S
C669 C665 1.393 . S
C669 C668 1.391 . S
C670 H660 0.950 . S
C670 C671 1.386 . S
C670 C672 1.391 . S
C671 C670 1.386 . S
C671 C675 1.393 . S
C672 H661 0.950 . S
C672 C670 1.391 . S
C672 C673 1.400 . S
C673 C667 1.491 . S
C673 C672 1.400 . S
C673 C674 1.398 . S
C674 H662 0.950 . S
C674 C673 1.398 . S
C674 C675 1.391 . S
C675 H663 0.950 . S
C675 C671 1.393 . S
C675 C674 1.391 . S
H676 C684 0.950 . S
H677 C689 0.950 . S
H678 C686 0.950 . S
H679 C688 0.950 . S
H680 C690 0.950 . S
H681 C692 0.950 . S
H682 C694 0.950 . S
H683 C695 0.950 . S
C684 H676 0.950 . S
C684 C685 1.386 . S
C684 C686 1.391 . S
C685 C684 1.386 . S
C685 C689 1.393 . S
C686 H678 0.950 . S
C686 C684 1.391 . S
C686 C687 1.400 . S
C687 C686 1.400 . S
C687 C688 1.398 . S
C687 C693 1.491 . S
C688 H679 0.950 . S
C688 C687 1.398 . S
C688 C689 1.391 . S
C689 H677 0.950 . S
C689 C685 1.393 . S
C689 C688 1.391 . S
C690 H680 0.950 . S
C690 C691 1.386 . S
C690 C692 1.391 . S
C691 C690 1.386 . S
C691 C695 1.393 . S
C692 H681 0.950 . S
C692 C690 1.391 . S
C692 C693 1.400 . S
C693 C687 1.491 . S
C693 C692 1.400 . S
C693 C694 1.398 . S
C694 H682 0.950 . S
C694 C693 1.398 . S
C694 C695 1.391 . S
C695 H683 0.950 . S
C695 C691 1.393 . S
C695 C694 1.391 . S
H696 C704 0.950 . S
H697 C709 0.950 . S
H698 C706 0.950 . S
H699 C708 0.950 . S
H700 C710 0.950 . S
H701 C712 0.950 . S
H702 C714 0.950 . S
H703 C715 0.950 . S
C704 H696 0.950 . S
C704 C705 1.386 . S
C704 C706 1.391 . S
C705 C704 1.386 . S
C705 C709 1.393 . S
C706 H698 0.950 . S
C706 C704 1.391 . S
C706 C707 1.400 . S
C707 C706 1.400 . S
C707 C708 1.398 . S
C707 C713 1.491 . S
C708 H699 0.950 . S
C708 C707 1.398 . S
C708 C709 1.391 . S
C709 H697 0.950 . S
C709 C705 1.393 . S
C709 C708 1.391 . S
C710 H700 0.950 . S
C710 C711 1.386 . S
C710 C712 1.391 . S
C711 C710 1.386 . S
C711 C715 1.393 . S
C712 H701 0.950 . S
C712 C710 1.391 . S
C712 C713 1.400 . S
C713 C707 1.491 . S
C713 C712 1.400 . S
C713 C714 1.398 . S
C714 H702 0.950 . S
C714 C713 1.398 . S
C714 C715 1.391 . S
C715 H703 0.950 . S
C715 C711 1.393 . S
C715 C714 1.391 . S
H716 C724 0.950 . S
H717 C729 0.950 . S
H718 C726 0.950 . S
H719 C728 0.950 . S
H720 C730 0.950 . S
H721 C732 0.950 . S
H722 C734 0.950 . S
H723 C735 0.950 . S
C724 H716 0.950 . S
C724 C725 1.386 . S
C724 C726 1.391 . S
C725 C724 1.386 . S
C725 C729 1.393 . S
C726 H718 0.950 . S
C726 C724 1.391 . S
C726 C727 1.400 . S
C727 C726 1.400 . S
C727 C728 1.398 . S
C727 C733 1.491 . S
C728 H719 0.950 . S
C728 C727 1.398 . S
C728 C729 1.391 . S
C729 H717 0.950 . S
C729 C725 1.393 . S
C729 C728 1.391 . S
C730 H720 0.950 . S
C730 C731 1.386 . S
C730 C732 1.391 . S
C731 C730 1.386 . S
C731 C735 1.393 . S
C732 H721 0.950 . S
C732 C730 1.391 . S
C732 C733 1.400 . S
C733 C727 1.491 . S
C733 C732 1.400 . S
C733 C734 1.398 . S
C734 H722 0.950 . S
C734 C733 1.398 . S
C734 C735 1.391 . S
C735 H723 0.950 . S
C735 C731 1.393 . S
C735 C734 1.391 . S
H736 C744 0.950 . S
H737 C749 0.950 . S
H738 C746 0.950 . S
H739 C748 0.950 . S
H740 C750 0.950 . S
H741 C752 0.950 . S
H742 C754 0.950 . S
H743 C755 0.950 . S
C744 H736 0.950 . S
C744 C745 1.386 . S
C744 C746 1.391 . S
C745 C744 1.386 . S
C745 C749 1.393 . S
C746 H738 0.950 . S
C746 C744 1.391 . S
C746 C747 1.400 . S
C747 C746 1.400 . S
C747 C748 1.398 . S
C747 C753 1.491 . S
C748 H739 0.950 . S
C748 C747 1.398 . S
C748 C749 1.391 . S
C749 H737 0.950 . S
C749 C745 1.393 . S
C749 C748 1.391 . S
C750 H740 0.950 . S
C750 C751 1.386 . S
C750 C752 1.391 . S
C751 C750 1.386 . S
C751 C755 1.393 . S
C752 H741 0.950 . S
C752 C750 1.391 . S
C752 C753 1.400 . S
C753 C747 1.491 . S
C753 C752 1.400 . S
C753 C754 1.398 . S
C754 H742 0.950 . S
C754 C753 1.398 . S
C754 C755 1.391 . S
C755 H743 0.950 . S
C755 C751 1.393 . S
C755 C754 1.391 . S
H756 C764 0.950 . S
H757 C769 0.950 . S
H758 C766 0.950 . S
H759 C768 0.950 . S
H760 C770 0.950 . S
H761 C772 0.950 . S
H762 C774 0.950 . S
H763 C775 0.950 . S
C764 H756 0.950 . S
C764 C765 1.386 . S
C764 C766 1.391 . S
C765 C764 1.386 . S
C765 C769 1.393 . S
C766 H758 0.950 . S
C766 C764 1.391 . S
C766 C767 1.400 . S
C767 C766 1.400 . S
C767 C768 1.398 . S
C767 C773 1.491 . S
C768 H759 0.950 . S
C768 C767 1.398 . S
C768 C769 1.391 . S
C769 H757 0.950 . S
C769 C765 1.393 . S
C769 C768 1.391 . S
C770 H760 0.950 . S
C770 C771 1.386 1_556 S
C770 C772 1.391 . S
C771 C770 1.386 1_554 S
C771 C775 1.393 . S
C772 H761 0.950 . S
C772 C770 1.391 . S
C772 C773 1.400 . S
C773 C767 1.491 . S
C773 C772 1.400 . S
C773 C774 1.398 1_556 S
C774 H762 0.950 . S
C774 C773 1.398 1_554 S
C774 C775 1.391 . S
C775 H763 0.950 . S
C775 C771 1.393 . S
C775 C774 1.391 . S
H776 C784 0.950 . S
H777 C789 0.950 . S
H778 C786 0.950 . S
H779 C788 0.950 . S
H780 C790 0.950 . S
H781 C792 0.950 . S
H782 C794 0.950 . S
H783 C795 0.950 . S
C784 H776 0.950 . S
C784 C785 1.386 . S
C784 C786 1.391 . S
C785 C784 1.386 . S
C785 C789 1.393 . S
C786 H778 0.950 . S
C786 C784 1.391 . S
C786 C787 1.400 . S
C787 C786 1.400 . S
C787 C788 1.398 . S
C787 C793 1.491 . S
C788 H779 0.950 . S
C788 C787 1.398 . S
C788 C789 1.391 . S
C789 H777 0.950 . S
C789 C785 1.393 . S
C789 C788 1.391 . S
C790 H780 0.950 . S
C790 C791 1.386 . S
C790 C792 1.391 . S
C791 C790 1.386 . S
C791 C795 1.393 . S
C792 H781 0.950 . S
C792 C790 1.391 . S
C792 C793 1.400 . S
C793 C787 1.491 . S
C793 C792 1.400 . S
C793 C794 1.398 . S
C794 H782 0.950 . S
C794 C793 1.398 . S
C794 C795 1.391 . S
C795 H783 0.950 . S
C795 C791 1.393 . S
C795 C794 1.391 . S
H796 C804 0.950 . S
H797 C809 0.950 . S
H798 C806 0.950 . S
H799 C808 0.950 . S
H800 C810 0.950 . S
H801 C812 0.950 . S
H802 C814 0.950 . S
H803 C815 0.950 . S
C804 H796 0.950 . S
C804 C805 1.386 . S
C804 C806 1.391 . S
C805 C804 1.386 . S
C805 C809 1.393 . S
C806 H798 0.950 . S
C806 C804 1.391 . S
C806 C807 1.400 . S
C807 C806 1.400 . S
C807 C808 1.398 . S
C807 C813 1.491 . S
C808 H799 0.950 . S
C808 C807 1.398 . S
C808 C809 1.391 . S
C809 H797 0.950 . S
C809 C805 1.393 . S
C809 C808 1.391 . S
C810 H800 0.950 . S
C810 C811 1.386 . S
C810 C812 1.391 . S
C811 C810 1.386 . S
C811 C815 1.393 . S
C812 H801 0.950 . S
C812 C810 1.391 . S
C812 C813 1.400 . S
C813 C807 1.491 . S
C813 C812 1.400 . S
C813 C814 1.398 . S
C814 H802 0.950 . S
C814 C813 1.398 . S
C814 C815 1.391 . S
C815 H803 0.950 . S
C815 C811 1.393 . S
C815 C814 1.391 . S
H816 C824 0.950 . S
H817 C829 0.950 . S
H818 C826 0.950 . S
H819 C828 0.950 . S
H820 C830 0.950 . S
H821 C832 0.950 . S
H822 C834 0.950 . S
H823 C835 0.950 . S
C824 H816 0.950 . S
C824 C825 1.386 . S
C824 C826 1.391 . S
C825 C824 1.386 . S
C825 C829 1.393 . S
C826 H818 0.950 . S
C826 C824 1.391 . S
C826 C827 1.400 . S
C827 C826 1.400 . S
C827 C828 1.398 . S
C827 C833 1.491 . S
C828 H819 0.950 . S
C828 C827 1.398 . S
C828 C829 1.391 . S
C829 H817 0.950 . S
C829 C825 1.393 . S
C829 C828 1.391 . S
C830 H820 0.950 . S
C830 C831 1.386 . S
C830 C832 1.391 . S
C831 C830 1.386 . S
C831 C835 1.393 . S
C832 H821 0.950 . S
C832 C830 1.391 . S
C832 C833 1.400 . S
C833 C827 1.491 . S
C833 C832 1.400 . S
C833 C834 1.398 . S
C834 H822 0.950 . S
C834 C833 1.398 . S
C834 C835 1.391 . S
C835 H823 0.950 . S
C835 C831 1.393 . S
C835 C834 1.391 . S
H836 C844 0.950 . S
H837 C849 0.950 . S
H838 C846 0.950 . S
H839 C848 0.950 . S
H840 C850 0.950 . S
H841 C852 0.950 . S
H842 C854 0.950 . S
H843 C855 0.950 . S
C844 H836 0.950 . S
C844 C845 1.386 . S
C844 C846 1.391 . S
C845 C844 1.386 . S
C845 C849 1.393 . S
C846 H838 0.950 . S
C846 C844 1.391 . S
C846 C847 1.400 . S
C847 C846 1.400 . S
C847 C848 1.398 . S
C847 C853 1.491 . S
C848 H839 0.950 . S
C848 C847 1.398 . S
C848 C849 1.391 . S
C849 H837 0.950 . S
C849 C845 1.393 . S
C849 C848 1.391 . S
C850 H840 0.950 . S
C850 C851 1.386 . S
C850 C852 1.391 . S
C851 C850 1.386 . S
C851 C855 1.393 . S
C852 H841 0.950 . S
C852 C850 1.391 . S
C852 C853 1.400 . S
C853 C847 1.491 . S
C853 C852 1.400 . S
C853 C854 1.398 . S
C854 H842 0.950 . S
C854 C853 1.398 . S
C854 C855 1.391 . S
C855 H843 0.950 . S
C855 C851 1.393 . S
C855 C854 1.391 . S
H856 C864 0.950 . S
H857 C869 0.950 . S
H858 C866 0.950 . S
H859 C868 0.950 . S
H860 C870 0.950 . S
H861 C872 0.950 . S
H862 C874 0.950 . S
H863 C875 0.950 . S
C864 H856 0.950 . S
C864 C865 1.386 . S
C864 C866 1.391 . S
C865 C864 1.386 . S
C865 C869 1.393 . S
C866 H858 0.950 . S
C866 C864 1.391 . S
C866 C867 1.400 . S
C867 C866 1.400 . S
C867 C868 1.398 . S
C867 C873 1.491 . S
C868 H859 0.950 . S
C868 C867 1.398 . S
C868 C869 1.391 . S
C869 H857 0.950 . S
C869 C865 1.393 . S
C869 C868 1.391 . S
C870 H860 0.950 . S
C870 C871 1.386 . S
C870 C872 1.391 . S
C871 C870 1.386 . S
C871 C875 1.393 . S
C872 H861 0.950 . S
C872 C870 1.391 . S
C872 C873 1.400 . S
C873 C867 1.491 . S
C873 C872 1.400 . S
C873 C874 1.398 . S
C874 H862 0.950 . S
C874 C873 1.398 . S
C874 C875 1.391 . S
C875 H863 0.950 . S
C875 C871 1.393 . S
C875 C874 1.391 . S
H876 C884 0.950 . S
H877 C889 0.950 . S
H878 C886 0.950 . S
H879 C888 0.950 . S
H880 C890 0.950 . S
H881 C892 0.950 . S
H882 C894 0.950 . S
H883 C895 0.950 . S
C884 H876 0.950 . S
C884 C885 1.386 . S
C884 C886 1.391 . S
C885 C884 1.386 . S
C885 C889 1.393 . S
C886 H878 0.950 . S
C886 C884 1.391 . S
C886 C887 1.400 . S
C887 C886 1.400 . S
C887 C888 1.398 . S
C887 C893 1.491 . S
C888 H879 0.950 . S
C888 C887 1.398 . S
C888 C889 1.391 . S
C889 H877 0.950 . S
C889 C885 1.393 . S
C889 C888 1.391 . S
C890 H880 0.950 . S
C890 C891 1.386 . S
C890 C892 1.391 . S
C891 C890 1.386 . S
C891 C895 1.393 . S
C892 H881 0.950 . S
C892 C890 1.391 . S
C892 C893 1.400 . S
C893 C887 1.491 . S
C893 C892 1.400 . S
C893 C894 1.398 . S
C894 H882 0.950 . S
C894 C893 1.398 . S
C894 C895 1.391 . S
C895 H883 0.950 . S
C895 C891 1.393 . S
C895 C894 1.391 . S
H896 C904 0.950 1_556 S
H897 C909 0.950 . S
H898 C906 0.950 . S
H899 C908 0.950 . S
H900 C910 0.950 . S
H901 C912 0.950 . S
H902 C914 0.950 . S
H903 C915 0.950 . S
C904 H896 0.950 1_554 S
C904 C905 1.386 . S
C904 C906 1.391 1_554 S
C905 C904 1.386 . S
C905 C909 1.393 . S
C906 H898 0.950 . S
C906 C904 1.391 1_556 S
C906 C907 1.400 . S
C907 C906 1.400 . S
C907 C908 1.398 1_556 S
C907 C913 1.491 . S
C908 H899 0.950 . S
C908 C907 1.398 1_554 S
C908 C909 1.391 . S
C909 H897 0.950 . S
C909 C905 1.393 . S
C909 C908 1.391 . S
C910 H900 0.950 . S
C910 C911 1.386 . S
C910 C912 1.391 . S
C911 C910 1.386 . S
C911 C915 1.393 . S
C912 H901 0.950 . S
C912 C910 1.391 . S
C912 C913 1.400 . S
C913 C907 1.491 . S
C913 C912 1.400 . S
C913 C914 1.398 . S
C914 H902 0.950 . S
C914 C913 1.398 . S
C914 C915 1.391 . S
C915 H903 0.950 . S
C915 C911 1.393 . S
C915 C914 1.391 . S
H916 C924 0.950 . S
H917 C929 0.950 . S
H918 C926 0.950 . S
H919 C928 0.950 . S
H920 C930 0.950 . S
H921 C932 0.950 . S
H922 C934 0.950 . S
H923 C935 0.950 . S
C924 H916 0.950 . S
C924 C925 1.386 . S
C924 C926 1.391 . S
C925 C924 1.386 . S
C925 C929 1.393 . S
C926 H918 0.950 . S
C926 C924 1.391 . S
C926 C927 1.400 . S
C927 C926 1.400 . S
C927 C928 1.398 . S
C927 C933 1.491 . S
C928 H919 0.950 . S
C928 C927 1.398 . S
C928 C929 1.391 . S
C929 H917 0.950 . S
C929 C925 1.393 . S
C929 C928 1.391 . S
C930 H920 0.950 . S
C930 C931 1.386 . S
C930 C932 1.391 . S
C931 C930 1.386 . S
C931 C935 1.393 . S
C932 H921 0.950 . S
C932 C930 1.391 . S
C932 C933 1.400 . S
C933 C927 1.491 . S
C933 C932 1.400 . S
C933 C934 1.398 . S
C934 H922 0.950 . S
C934 C933 1.398 . S
C934 C935 1.391 . S
C935 H923 0.950 . S
C935 C931 1.393 . S
C935 C934 1.391 . S
C471 C449 1.511 . S
C465 C29 1.413 . S
C485 C115 1.415 . S
C491 C378 1.417 . S
C505 C153 1.427 . S
C511 C392 1.517 . S
C525 C239 1.383 . S
C531 C406 1.390 . S
C551 C420 1.473 . S
C545 C301 1.466 . S
C565 C339 1.659 . S
C571 C435 1.776 . S
C585 C91 1.436 . S
C591 C393 1.515 . S
C605 C177 1.415 . S
C611 C407 1.415 . S
C625 C215 1.446 . S
C631 C421 1.522 . S
C651 C434 1.793 . S
C645 C277 1.689 . S
C671 C448 1.455 . S
C665 C363 1.460 . S
C691 C379 1.377 . S
C685 C53 1.381 . S
C705 C35 1.609 . S
C711 C395 1.634 . S
C725 C109 1.417 . S
C731 C409 1.555 . S
C751 C423 1.503 . S
C745 C159 1.491 . S
C765 C233 1.644 . S
C771 C436 1.772 . S
C791 C450 1.605 . S
C785 C295 1.477 . S
C811 C381 1.473 . S
C805 C345 1.473 . S
C831 C451 1.497 . S
C825 C97 1.495 . S
C845 C171 1.426 . S
C851 C380 1.543 . S
C871 C394 1.619 . S
C865 C221 1.606 . S
C885 C283 1.450 . S
C891 C408 1.458 . S
C905 C357 1.469 . S
C911 C422 1.601 . S
C925 C47 1.661 . S
C931 C437 1.788 . S
