# Generated by pormake.
# Topology cml, (3,6)-cn, num edge types: 1
# Building blocks:
#     Node 0, Type 0, BuildingBlock: CUQRIR_clean_linker_1, # of connection points: 3
#     Node 1, Type 0, BuildingBlock: CUQRIR_clean_linker_1, # of connection points: 3
#     Node 2, Type 0, BuildingBlock: CUQRIR_clean_linker_1, # of connection points: 3
#     Node 3, Type 0, BuildingBlock: CUQRIR_clean_linker_1, # of connection points: 3
#     Node 4, Type 0, BuildingBlock: CUQRIR_clean_linker_1, # of connection points: 3
#     Node 5, Type 0, BuildingBlock: CUQRIR_clean_linker_1, # of connection points: 3
#     Node 6, Type 0, BuildingBlock: CUQRIR_clean_linker_1, # of connection points: 3
#     Node 7, Type 0, BuildingBlock: CUQRIR_clean_linker_1, # of connection points: 3
#     Node 8, Type 1, BuildingBlock: IZENUY_clean_sbu_0, # of connection points: 6
#     Node 9, Type 1, BuildingBlock: IZENUY_clean_sbu_0, # of connection points: 6
#     Node 10, Type 1, BuildingBlock: IZENUY_clean_sbu_0, # of connection points: 6
#     Node 11, Type 1, BuildingBlock: IZENUY_clean_sbu_0, # of connection points: 6
#     Edge 12, Type (0, 1), BuildingBlock: CIFDUS_clean_linker_0, # of connection points: 2
#     Edge 13, Type (0, 1), BuildingBlock: CIFDUS_clean_linker_0, # of connection points: 2
#     Edge 14, Type (0, 1), BuildingBlock: CIFDUS_clean_linker_0, # of connection points: 2
#     Edge 15, Type (0, 1), BuildingBlock: CIFDUS_clean_linker_0, # of connection points: 2
#     Edge 16, Type (0, 1), BuildingBlock: CIFDUS_clean_linker_0, # of connection points: 2
#     Edge 17, Type (0, 1), BuildingBlock: CIFDUS_clean_linker_0, # of connection points: 2
#     Edge 18, Type (0, 1), BuildingBlock: CIFDUS_clean_linker_0, # of connection points: 2
#     Edge 19, Type (0, 1), BuildingBlock: CIFDUS_clean_linker_0, # of connection points: 2
#     Edge 20, Type (0, 1), BuildingBlock: CIFDUS_clean_linker_0, # of connection points: 2
#     Edge 21, Type (0, 1), BuildingBlock: CIFDUS_clean_linker_0, # of connection points: 2
#     Edge 22, Type (0, 1), BuildingBlock: CIFDUS_clean_linker_0, # of connection points: 2
#     Edge 23, Type (0, 1), BuildingBlock: CIFDUS_clean_linker_0, # of connection points: 2
#     Edge 24, Type (0, 1), BuildingBlock: CIFDUS_clean_linker_0, # of connection points: 2
#     Edge 25, Type (0, 1), BuildingBlock: CIFDUS_clean_linker_0, # of connection points: 2
#     Edge 26, Type (0, 1), BuildingBlock: CIFDUS_clean_linker_0, # of connection points: 2
#     Edge 27, Type (0, 1), BuildingBlock: CIFDUS_clean_linker_0, # of connection points: 2
#     Edge 28, Type (0, 1), BuildingBlock: CIFDUS_clean_linker_0, # of connection points: 2
#     Edge 29, Type (0, 1), BuildingBlock: CIFDUS_clean_linker_0, # of connection points: 2
#     Edge 30, Type (0, 1), BuildingBlock: CIFDUS_clean_linker_0, # of connection points: 2
#     Edge 31, Type (0, 1), BuildingBlock: CIFDUS_clean_linker_0, # of connection points: 2
#     Edge 32, Type (0, 1), BuildingBlock: CIFDUS_clean_linker_0, # of connection points: 2
#     Edge 33, Type (0, 1), BuildingBlock: CIFDUS_clean_linker_0, # of connection points: 2
#     Edge 34, Type (0, 1), BuildingBlock: CIFDUS_clean_linker_0, # of connection points: 2
#     Edge 35, Type (0, 1), BuildingBlock: CIFDUS_clean_linker_0, # of connection points: 2
# Relax obj value: 0.001
# Max RMSD: 0.076
# Mean RMSD: 0.056
data_MOF--net-cml--node1-IZENUY_clean_sbu_0--node2-CUQRIR_clean_linker_1--edge1-CIFDUS_clean_linker_0
_symmetry_space_group_name_H-M    P1
_symmetry_Int_Tables_number       1
_symmetry_cell_setting            triclinic
loop_
_symmetry_equiv_pos_as_xyz
'x, y, z'
_cell_length_a     30.629866
_cell_length_b     32.48037
_cell_length_c     27.878475
_cell_angle_alpha  89.105586
_cell_angle_beta   90.249174
_cell_angle_gamma 89.963364
loop_
_atom_site_label
_atom_site_type_symbol
_atom_site_fract_x
_atom_site_fract_y
_atom_site_fract_z
_atom_type_partial_charge
C0 C 0.24875 0.36865 0.0598 0.0
N1 N 0.28291 0.39504 0.05773 0.0
N2 N 0.23163 0.36261 1.01541 0.0
C3 C 0.2334 0.34764 0.10513 0.0
C4 C 0.25677 0.38648 0.98628 0.0
N5 N 0.28786 0.40592 1.01201 0.0
C6 C 0.25248 0.38894 0.93244 0.0
H7 H 0.25485 0.32085 0.11319 0.0
H8 H 0.19918 0.33691 0.10157 0.0
H9 H 0.23566 0.36891 0.13577 0.0
H10 H 0.22497 0.40976 0.92287 0.0
H11 H 0.24531 0.3581 0.91778 0.0
H12 H 0.28224 0.40131 0.91504 0.0
C13 C 0.74629 0.6895 0.55543 0.0
N14 N 0.71712 0.65814 0.55681 0.0
N15 N 0.77274 0.68634 0.51688 0.0
C16 C 0.74587 0.72569 0.58858 0.0
C17 C 0.75833 0.65214 0.49451 0.0
N18 N 0.72428 0.63507 0.51856 0.0
C19 C 0.77956 0.63385 0.45118 0.0
H20 H 0.71263 0.73119 0.60278 0.0
H21 H 0.75726 0.75405 0.56982 0.0
H22 H 0.76819 0.71927 0.61924 0.0
H23 H 0.81494 0.64114 0.45043 0.0
H24 H 0.76426 0.64712 0.41828 0.0
H25 H 0.77518 0.59994 0.45092 0.0
C26 C 0.72222 0.34027 0.05332 0.0
N27 N 0.69089 0.36952 0.04768 0.0
N28 N 0.74718 0.33798 1.01348 0.0
C29 C 0.72573 0.31105 0.09564 0.0
C30 C 0.72974 0.36663 0.9832 0.0
N31 N 0.6952 0.38548 1.00367 0.0
C32 C 0.74882 0.37872 0.93532 0.0
H33 H 0.74811 0.32432 0.1227 0.0
H34 H 0.73914 0.28091 0.08465 0.0
H35 H 0.6934 0.30603 0.11253 0.0
H36 H 0.73349 0.35992 0.90697 0.0
H37 H 0.78456 0.37319 0.93487 0.0
H38 H 0.74244 0.41168 0.92686 0.0
C39 C 0.24336 0.68042 0.55914 0.0
N40 N 0.27765 0.65401 0.56097 0.0
N41 N 0.22645 0.68276 0.5141 0.0
C42 C 0.22538 0.70264 0.60161 0.0
C43 C 0.25202 0.65706 0.4886 0.0
N44 N 0.28285 0.63948 0.51711 0.0
C45 C 0.24823 0.65066 0.43538 0.0
H46 H 0.18978 0.708 0.59734 0.0
H47 H 0.24182 0.73294 0.60441 0.0
H48 H 0.23161 0.68488 0.63528 0.0
H49 H 0.23619 0.679 0.41694 0.0
H50 H 0.22455 0.62552 0.42883 0.0
H51 H 0.27995 0.64164 0.41964 0.0
C52 C 0.74629 0.87385 0.04887 0.0
N53 N 0.77792 0.903 0.04958 0.0
N54 N 0.72539 0.87417 1.00594 0.0
C55 C 0.73364 0.84718 0.09118 0.0
C56 C 0.74537 0.90462 0.98059 0.0
N57 N 0.77696 0.92247 1.00727 0.0
C58 C 0.73712 0.91402 0.92825 0.0
H59 H 0.69838 0.83943 0.08983 0.0
H60 H 0.74093 0.86283 0.12539 0.0
H61 H 0.75262 0.81811 0.09037 0.0
H62 H 0.7121 0.93863 0.925 0.0
H63 H 0.72495 0.88642 0.90945 0.0
H64 H 0.76732 0.92496 0.91031 0.0
C65 C 0.24554 0.18535 0.54862 0.0
N66 N 0.21733 0.15354 0.5541 0.0
N67 N 0.26363 0.18516 0.50433 0.0
C68 C 0.25347 0.21792 0.58544 0.0
C69 C 0.24536 0.15204 0.48322 0.0
N70 N 0.21663 0.13312 0.51313 0.0
C71 C 0.25825 0.13634 0.43475 0.0
H72 H 0.25895 0.24833 0.5678 0.0
H73 H 0.28317 0.20968 0.6064 0.0
H74 H 0.22577 0.22032 0.61072 0.0
H75 H 0.29288 0.14389 0.42703 0.0
H76 H 0.23765 0.15123 0.40664 0.0
H77 H 0.25365 0.10251 0.43296 0.0
C78 C 0.25143 0.86316 0.05217 0.0
N79 N 0.21958 0.89223 0.05065 0.0
N80 N 0.27794 0.86702 1.01361 0.0
C81 C 0.25313 0.8275 0.08738 0.0
C82 C 0.26091 0.89913 0.98834 0.0
N83 N 0.22541 0.91436 1.01058 0.0
C84 C 0.27902 0.91602 0.94198 0.0
H85 H 0.27493 0.83554 0.11769 0.0
H86 H 0.26637 0.79954 0.07031 0.0
H87 H 0.22024 0.82027 0.10172 0.0
H88 H 0.26234 0.90098 0.91151 0.0
H89 H 0.3146 0.91001 0.93948 0.0
H90 H 0.27297 0.94966 0.93888 0.0
C91 C 0.766 0.19177 0.55026 0.0
N92 N 0.7913 0.15749 0.55206 0.0
N93 N 0.74253 0.19329 0.50903 0.0
C94 C 0.76516 0.22434 0.58817 0.0
C95 C 0.75445 0.15883 0.48569 0.0
N96 N 0.78457 0.1372 0.51155 0.0
C97 C 0.73752 0.1471 0.43698 0.0
H98 H 0.74451 0.21348 0.61838 0.0
H99 H 0.75127 0.25379 0.57465 0.0
H100 H 0.79857 0.22986 0.60222 0.0
H101 H 0.75619 0.16417 0.40906 0.0
H102 H 0.70268 0.15554 0.43262 0.0
H103 H 0.74105 0.11357 0.43107 0.0
Fe104 Fe 0.00483 0.85732 0.32993 0.0
Fe105 Fe 0.99554 0.91064 0.41951 0.0
O106 O -0.00011 0.90638 0.35624 0.0
Fe107 Fe -0.00039 0.95091 0.31865 0.0
O108 O 0.95101 0.93382 0.287 0.0
O109 O 0.97633 0.87182 0.27409 0.0
O110 O 0.95238 0.84166 0.35319 0.0
C111 C 0.94169 0.84203 0.39682 0.0
C112 C 0.06338 0.90044 0.27613 0.0
O113 O 0.96313 0.86295 0.42705 0.0
C114 C 0.05179 0.97677 0.39233 0.0
O115 O 0.03373 0.8329 0.38072 0.0
O116 O 0.04692 0.88369 0.42945 0.0
O117 O 0.03568 0.92926 0.27303 0.0
O118 O 0.05786 0.8705 0.30485 0.0
C119 C 0.93847 0.97143 0.39097 0.0
O120 O 0.02712 0.95871 0.42243 0.0
O121 O 0.04779 0.97113 0.34779 0.0
C122 C 0.05557 0.84819 0.41461 0.0
O123 O 0.94398 0.93866 0.41523 0.0
O124 O 0.96404 0.98085 0.3571 0.0
C125 C 0.94901 0.9002 0.26502 0.0
Fe126 Fe 0.00651 0.14661 0.92884 0.0
Fe127 Fe 0.00824 0.10065 0.8331 0.0
O128 O 0.00245 0.14703 0.86524 0.0
Fe129 Fe 0.99165 0.19367 0.83352 0.0
O130 O 0.0408 0.21746 0.85652 0.0
O131 O 0.03154 0.19778 0.93191 0.0
O132 O 0.06135 0.12563 0.92764 0.0
C133 C 0.07079 0.09174 0.90884 0.0
C134 C 0.93769 0.19945 0.91454 0.0
O135 O 0.04699 0.07712 0.87593 0.0
C136 C 0.93959 0.14142 0.78365 0.0
O137 O 0.98244 0.09521 0.93686 0.0
O138 O 0.96196 0.07769 0.86407 0.0
O139 O 0.95829 0.21631 0.88044 0.0
O140 O 0.95169 0.16724 0.93512 0.0
C141 C 0.05231 0.15275 0.77324 0.0
O142 O 0.97031 0.11537 0.78437 0.0
O143 O 0.94144 0.17316 0.80891 0.0
C144 C 0.9588 0.07428 0.90907 0.0
O145 O 0.05474 0.12082 0.79965 0.0
O146 O 0.02293 0.17949 0.78019 0.0
C147 C 0.05042 0.2199 0.90045 0.0
Fe148 Fe 0.49447 0.36221 0.33861 0.0
Fe149 Fe 0.50631 0.40844 0.43243 0.0
O150 O 0.49897 0.40927 0.36938 0.0
Fe151 Fe 0.49605 0.45665 0.33705 0.0
O152 O 0.44233 0.44465 0.31295 0.0
O153 O 0.45955 0.38252 0.29008 0.0
O154 O 0.44529 0.34837 0.37148 0.0
C155 C 0.44458 0.34466 0.41671 0.0
C156 C 0.5484 0.40553 0.27894 0.0
O157 O 0.47373 0.36149 0.44226 0.0
C158 C 0.56041 0.47503 0.40181 0.0
O159 O 0.52875 0.33263 0.38082 0.0
O160 O 0.55686 0.37918 0.42797 0.0
O161 O 0.52402 0.43683 0.28351 0.0
O162 O 0.54339 0.37358 0.30466 0.0
C163 C 0.44731 0.47137 0.42156 0.0
O164 O 0.53982 0.45544 0.4342 0.0
O165 O 0.54925 0.4725 0.35839 0.0
C166 C 0.55811 0.34388 0.40981 0.0
O167 O 0.45634 0.43711 0.441 0.0
O168 O 0.46801 0.48451 0.38512 0.0
C169 C 0.43491 0.41372 0.28746 0.0
Fe170 Fe 0.49878 0.64397 0.92909 0.0
Fe171 Fe 0.49947 0.59718 0.83368 0.0
O172 O 0.50227 0.64391 0.86573 0.0
Fe173 Fe 0.50861 0.69108 0.834 0.0
O174 O 0.53866 0.71728 0.88164 0.0
O175 O 0.55174 0.66855 0.93489 0.0
O176 O 0.52737 0.59487 0.93755 0.0
C177 C 0.55144 0.57416 0.91008 0.0
C178 C 0.4473 0.71239 0.89954 0.0
O179 O 0.54713 0.57643 0.86495 0.0
C180 C 0.45008 0.64752 0.7754 0.0
O181 O 0.44586 0.61901 0.92828 0.0
O182 O 0.46273 0.5713 0.8764 0.0
O183 O 0.45684 0.70971 0.85575 0.0
O184 O 0.46937 0.69337 0.9315 0.0
C185 C 0.56509 0.64292 0.78523 0.0
O186 O 0.45117 0.61465 0.80029 0.0
O187 O 0.47946 0.67446 0.78031 0.0
C188 C 0.43852 0.58464 0.90945 0.0
O189 O 0.53637 0.61479 0.78543 0.0
O190 O 0.56073 0.67456 0.81046 0.0
C191 C 0.56099 0.70295 0.91624 0.0
H192 H 0.16344 0.37442 0.95552 0.0
H193 H 0.22973 0.28222 0.04144 0.0
H194 H 0.17765 0.23012 1.01543 0.0
H195 H 0.11454 0.2103 0.96601 0.0
H196 H 0.05521 0.29995 0.87059 0.0
H197 H 0.10417 0.3534 0.90093 0.0
C198 C 0.16668 0.34284 0.96807 0.0
C199 C 0.1999 0.33235 1.001 0.0
C200 C 0.13824 0.31258 0.95067 0.0
C201 C 0.20357 0.29134 1.01734 0.0
C202 C 0.17418 0.26144 1.00195 0.0
C203 C 0.11253 0.24158 0.95191 0.0
C204 C 0.08141 0.25147 0.91645 0.0
C205 C 0.14155 0.27166 0.96842 0.0
C206 C 0.0792 0.2918 0.8978 0.0
C207 C 0.10697 0.32231 0.91529 0.0
H208 H 0.78194 0.72221 0.43022 0.0
H209 H 0.83975 0.71315 0.57092 0.0
H210 H 0.89637 0.76271 0.54731 0.0
H211 H 0.92986 0.80794 0.48586 0.0
H212 H 0.87393 0.8136 0.34356 0.0
H213 H 0.81642 0.76588 0.36821 0.0
C214 C 0.80734 0.73077 0.45534 0.0
C215 C 0.80691 0.71421 0.50213 0.0
C216 C 0.83998 0.75873 0.44121 0.0
C217 C 0.83943 0.72592 0.53483 0.0
C218 C 0.87176 0.75411 0.52128 0.0
C219 C 0.90489 0.79893 0.4604 0.0
C220 C 0.90609 0.8144 0.41302 0.0
C221 C 0.87234 0.77078 0.47455 0.0
C222 C 0.87382 0.80204 0.38023 0.0
C223 C 0.8409 0.77475 0.39426 0.0
H224 H 0.75808 0.29 0.93731 0.0
H225 H 0.8175 0.3255 0.07051 0.0
H226 H 0.88069 0.28145 0.05444 0.0
H227 H 0.9212 0.23633 0.99922 0.0
H228 H 0.86401 0.20667 0.86265 0.0
H229 H 0.79785 0.24491 0.88271 0.0
C230 C 0.78505 0.28812 0.96255 0.0
C231 C 0.78347 0.3109 1.00484 0.0
C232 C 0.82156 0.26378 0.95232 0.0
C233 C 0.81808 0.30786 0.0379 0.0
C234 C 0.85419 0.2829 0.02857 0.0
C235 C 0.89382 0.23784 0.97444 0.0
C236 C 0.89681 0.21858 0.92988 0.0
C237 C 0.85656 0.2611 0.98559 0.0
C238 C 0.86188 0.22118 0.89731 0.0
C239 C 0.82426 0.2431 0.90867 0.0
H240 H 0.21572 0.76461 0.52323 0.0
H241 H 0.15652 0.65593 0.46524 0.0
H242 H 0.09814 0.69764 0.42899 0.0
H243 H 0.06525 0.76513 0.41196 0.0
H244 H 0.12235 0.87421 0.4724 0.0
H245 H 0.17989 0.83236 0.51013 0.0
C246 C 0.18959 0.7502 0.50326 0.0
C247 C 0.19041 0.70738 0.49648 0.0
C248 C 0.15595 0.77445 0.48291 0.0
C249 C 0.15671 0.68892 0.47021 0.0
C250 C 0.12337 0.71273 0.44966 0.0
C251 C 0.09025 0.77982 0.43339 0.0
C252 C 0.08963 0.82282 0.439 0.0
C253 C 0.12293 0.75557 0.4553 0.0
C254 C 0.12202 0.84119 0.46746 0.0
C255 C 0.15499 0.81728 0.48899 0.0
H256 H 0.7226 0.79145 1.0113 0.0
H257 H 0.64981 0.89853 0.96532 0.0
H258 H 0.59233 0.85466 0.9327 0.0
H259 H 0.56385 0.78601 0.91578 0.0
H260 H 0.6337 0.6783 0.96618 0.0
H261 H 0.69111 0.72214 0.99951 0.0
C262 C 0.69376 0.80497 0.99482 0.0
C263 C 0.69039 0.84801 0.99018 0.0
C264 C 0.66057 0.7795 0.97698 0.0
C265 C 0.6532 0.86542 0.96843 0.0
C266 C 0.62038 0.84039 0.95001 0.0
C267 C 0.59167 0.77212 0.93403 0.0
C268 C 0.59489 0.72904 0.9381 0.0
C269 C 0.62396 0.79742 0.95365 0.0
C270 C 0.63064 0.71144 0.96258 0.0
C271 C 0.66344 0.73646 0.98152 0.0
H272 H 0.339 0.21405 0.54013 0.0
H273 H 0.25103 0.22479 0.41981 0.0
H274 H 0.29963 0.27479 0.38093 0.0
H275 H 0.36754 0.31548 0.38131 0.0
H276 H 0.45313 0.30769 0.50456 0.0
H277 H 0.40486 0.2574 0.54252 0.0
C278 C 0.33041 0.22776 0.50568 0.0
C279 C 0.2919 0.21552 0.48254 0.0
C280 C 0.35801 0.25718 0.48417 0.0
C281 C 0.28108 0.23317 0.4377 0.0
C282 C 0.30867 0.26195 0.41569 0.0
C283 C 0.37555 0.30279 0.41648 0.0
C284 C 0.41395 0.3153 0.4399 0.0
C285 C 0.34735 0.2741 0.4385 0.0
C286 C 0.42368 0.29881 0.48572 0.0
C287 C 0.39618 0.26988 0.50747 0.0
H288 H 0.2855 0.82902 0.92951 0.0
H289 H 0.34724 0.84373 0.06712 0.0
H290 H 0.40516 0.79561 0.04463 0.0
H291 H 0.43808 0.74989 0.98527 0.0
H292 H 0.37837 0.73892 0.84552 0.0
H293 H 0.32004 0.78577 0.86888 0.0
C294 C 0.31211 0.82215 0.9541 0.0
C295 C 0.31257 0.83987 0.99968 0.0
C296 C 0.34546 0.79526 0.9405 0.0
C297 C 0.34645 0.83013 0.03192 0.0
C298 C 0.37945 0.80281 1.01901 0.0
C299 C 0.41222 0.75769 0.96001 0.0
C300 C 0.41237 0.7409 0.91384 0.0
C301 C 0.37924 0.78516 0.97338 0.0
C302 C 0.37899 0.75161 0.88124 0.0
C303 C 0.34562 0.77829 0.89457 0.0
H304 H 0.65677 0.18808 0.49341 0.0
H305 H 0.76599 0.27088 0.48601 0.0
H306 H 0.71808 0.32673 0.45693 0.0
H307 H 0.64457 0.35125 0.432 0.0
H308 H 0.53717 0.26544 0.4328 0.0
H309 H 0.58451 0.21141 0.46557 0.0
C310 C 0.66982 0.21837 0.48504 0.0
C311 C 0.71441 0.22579 0.49184 0.0
C312 C 0.64237 0.24962 0.4671 0.0
C313 C 0.73147 0.26497 0.48123 0.0
C314 C 0.70417 0.29669 0.46457 0.0
C315 C 0.63174 0.32072 0.43957 0.0
C316 C 0.58763 0.31221 0.43009 0.0
C317 C 0.6595 0.28935 0.45723 0.0
C318 C 0.57121 0.27252 0.43951 0.0
C319 C 0.59817 0.24165 0.45836 0.0
H320 H 0.29076 0.48737 1.02171 0.0
H321 H 0.35816 0.38456 0.96107 0.0
H322 H 0.41072 0.43133 0.92236 0.0
H323 H 0.4356 0.50147 0.9041 0.0
H324 H 0.3691 0.60503 0.96585 0.0
H325 H 0.31757 0.55822 1.00554 0.0
C326 C 0.31736 0.47559 1.00035 0.0
C327 C 0.32097 0.43305 0.99366 0.0
C328 C 0.34695 0.50273 0.97805 0.0
C329 C 0.35521 0.41742 0.96621 0.0
C330 C 0.3849 0.44409 0.94404 0.0
C331 C 0.40961 0.51389 0.92588 0.0
C332 C 0.40588 0.55672 0.93155 0.0
C333 C 0.38068 0.48683 0.94917 0.0
C334 C 0.37252 0.57219 0.9607 0.0
C335 C 0.34315 0.54546 0.98352 0.0
H336 H 0.68692 0.62569 0.43256 0.0
H337 H 0.70264 0.56742 0.57122 0.0
H338 H 0.65333 0.5117 0.54737 0.0
H339 H 0.60389 0.48103 0.48732 0.0
H340 H 0.59245 0.5382 0.34691 0.0
H341 H 0.64288 0.59222 0.37063 0.0
C342 C 0.68021 0.60029 0.4571 0.0
C343 C 0.69811 0.60058 0.50355 0.0
C344 C 0.65267 0.5682 0.44276 0.0
C345 C 0.68873 0.56792 0.53545 0.0
C346 C 0.6607 0.53611 0.52174 0.0
C347 C 0.61265 0.50517 0.46184 0.0
C348 C 0.59406 0.50561 0.41549 0.0
C349 C 0.64211 0.53615 0.47557 0.0
C350 C 0.60617 0.53695 0.38278 0.0
C351 C 0.63493 0.56802 0.39635 0.0
H352 H 0.67496 0.46036 0.03705 0.0
H353 H 0.65327 0.37845 0.91953 0.0
H354 H 0.60914 0.43081 0.87783 0.0
H355 H 0.57597 0.49984 0.87536 0.0
H356 H 0.59368 0.58034 0.99543 0.0
H357 H 0.63991 0.52892 0.03566 0.0
C358 C 0.66012 0.45409 1.00255 0.0
C359 C 0.66737 0.41594 0.98107 0.0
C360 C 0.6343 0.48417 0.97921 0.0
C361 C 0.64838 0.40795 0.93624 0.0
C362 C 0.62316 0.43779 0.91253 0.0
C363 C 0.59038 0.50623 0.91007 0.0
C364 C 0.58174 0.54388 0.93224 0.0
C365 C 0.61601 0.47611 0.93356 0.0
C366 C 0.59993 0.55151 0.97764 0.0
C367 C 0.62629 0.52213 1.00072 0.0
H368 H 0.28588 0.55734 0.51879 0.0
H369 H 0.35811 0.6659 0.47924 0.0
H370 H 0.4162 0.62336 0.4449 0.0
H371 H 0.44485 0.55494 0.42418 0.0
H372 H 0.3744 0.44601 0.46859 0.0
H373 H 0.3172 0.48864 0.50342 0.0
C374 C 0.31483 0.5713 0.50334 0.0
C375 C 0.31844 0.61428 0.50156 0.0
C376 C 0.348 0.5466 0.48437 0.0
C377 C 0.3554 0.63267 0.48103 0.0
C378 C 0.38827 0.60841 0.46134 0.0
C379 C 0.41693 0.54063 0.44147 0.0
C380 C 0.41355 0.49748 0.44346 0.0
C381 C 0.38469 0.56531 0.46236 0.0
C382 C 0.37764 0.47922 0.46665 0.0
C383 C 0.34492 0.50354 0.4865 0.0
H384 H 0.86474 0.92245 1.00682 0.0
H385 H 0.75172 0.99611 0.97248 0.0
H386 H 0.79817 0.04979 0.9371 0.0
H387 H 0.87113 0.07464 0.91363 0.0
H388 H 0.98475 1.00323 0.95226 0.0
H389 H 0.93834 0.94966 0.9885 0.0
C390 C 0.85061 0.95064 0.99234 0.0
C391 C 0.8051 0.95554 0.99184 0.0
C392 C 0.87761 0.98138 0.97245 0.0
C393 C 0.78678 0.99186 0.97266 0.0
C394 C 0.81326 1.02239 0.95246 0.0
C395 C 0.88544 0.04719 0.92989 0.0
C396 C 0.93084 0.04215 0.92988 0.0
C397 C 0.85867 1.01722 0.95153 0.0
C398 C 0.94961 1.00715 0.95168 0.0
C399 C 0.92317 0.97673 0.97243 0.0
H400 H 0.16538 0.13345 0.43542 0.0
H401 H 0.19922 0.06165 0.56119 0.0
H402 H 0.14883 1.00722 0.53644 0.0
H403 H 0.09742 0.9789 0.47636 0.0
H404 H 0.07215 0.04797 0.3457 0.0
H405 H 0.11821 0.10398 0.37385 0.0
C406 C 0.1621 0.10562 0.45705 0.0
C407 C 0.1858 0.10157 0.50009 0.0
C408 C 0.13511 0.07376 0.44122 0.0
C409 C 0.18057 0.06586 0.52848 0.0
C410 C 0.15223 0.03454 0.51395 0.0
C411 C 0.10217 1.00624 0.45416 0.0
C412 C 0.0815 1.00937 0.40905 0.0
C413 C 0.12964 0.03799 0.47008 0.0
C414 C 0.08806 0.04472 0.38034 0.0
C415 C 0.11415 0.07685 0.39653 0.0
H416 H 0.20834 0.99233 0.03621 0.0
H417 H 0.17501 0.89859 0.9352 0.0
H418 H 0.12559 0.94609 0.89284 0.0
H419 H 0.09212 1.0138 0.88474 0.0
H420 H 0.12491 0.10913 0.98489 0.0
H421 H 0.17486 0.06197 0.02696 0.0
C422 C 0.18983 0.98263 1.00515 0.0
C423 C 0.1946 0.94229 0.9887 0.0
C424 C 0.16196 1.01043 0.98064 0.0
C425 C 0.17126 0.92965 0.94817 0.0
C426 C 0.14328 0.95675 0.92402 0.0
C427 C 0.11038 0.02455 0.91552 0.0
C428 C 0.10463 0.06502 0.93153 0.0
C429 C 0.13853 0.99724 0.9398 0.0
C430 C 0.12868 0.07817 0.97163 0.0
C431 C 0.15711 0.05114 0.99592 0.0
H432 H 0.82745 0.1304 0.429 0.0
H433 H 0.79683 0.06501 0.55985 0.0
H434 H 0.84055 1.0059 0.53378 0.0
H435 H 0.88933 0.97399 0.47362 0.0
H436 H 0.915 0.04023 0.34103 0.0
H437 H 0.87005 0.09705 0.36706 0.0
C438 C 0.82954 0.1028 0.45124 0.0
C439 C 0.80874 0.10172 0.49592 0.0
C440 C 0.85367 0.06899 0.43553 0.0
C441 C 0.81274 0.06636 0.52526 0.0
C442 C 0.83753 0.03263 0.51025 0.0
C443 C 0.88456 1.0006 0.4502 0.0
C444 C 0.90605 1.0028 0.4056 0.0
C445 C 0.85836 0.03365 0.46539 0.0
C446 C 0.89938 0.03764 0.37574 0.0
C447 C 0.87368 0.07035 0.39057 0.0
H448 H 0.27937 0.43886 0.13886 0.0
H449 H 0.36028 0.35767 0.05735 0.0
H450 H 0.41497 0.35617 0.12176 0.0
H451 H 0.43796 0.37554 0.20232 0.0
H452 H 0.35907 0.4587 0.28434 0.0
H453 H 0.30506 0.46191 0.21903 0.0
C454 C 0.30929 0.42134 0.13543 0.0
C455 C 0.31629 0.39841 0.09386 0.0
C456 C 0.34042 0.42063 0.17279 0.0
C457 C 0.35486 0.37568 0.08915 0.0
C458 C 0.38578 0.37463 0.12599 0.0
C459 C 0.40883 0.39423 0.20607 0.0
C460 C 0.40211 0.41634 0.24838 0.0
C461 C 0.37859 0.39648 0.16822 0.0
C462 C 0.36477 0.4412 0.25219 0.0
C463 C 0.33396 0.44305 0.21488 0.0
H464 H 0.72986 0.65575 0.6517 0.0
H465 H 0.63051 0.64633 0.54273 0.0
H466 H 0.57473 0.63617 0.60455 0.0
H467 H 0.55395 0.6338 0.69004 0.0
H468 H 0.65204 0.65344 0.79851 0.0
H469 H 0.70882 0.65656 0.73678 0.0
C470 C 0.69591 0.65172 0.64171 0.0
C471 C 0.68422 0.65133 0.59294 0.0
C472 C 0.66398 0.648 0.6774 0.0
C473 C 0.64027 0.64587 0.58009 0.0
C474 C 0.60843 0.64042 0.61541 0.0
C475 C 0.58789 0.63832 0.69995 0.0
C476 C 0.59926 0.64285 0.74845 0.0
C477 C 0.61987 0.6418 0.66418 0.0
C478 C 0.64293 0.64966 0.76123 0.0
C479 C 0.67523 0.65147 0.72604 0.0
H480 H 0.70722 0.3897 0.13847 0.0
H481 H 0.60318 0.37477 0.03601 0.0
H482 H 0.54906 0.38908 0.09827 0.0
H483 H 0.53151 0.40035 0.18389 0.0
H484 H 0.63604 0.40715 0.28731 0.0
H485 H 0.69007 0.40083 0.22323 0.0
C486 C 0.67265 0.38954 0.13 0.0
C487 C 0.65905 0.38115 0.08299 0.0
C488 C 0.64199 0.39594 0.16633 0.0
C489 C 0.6143 0.38161 0.07192 0.0
C490 C 0.58345 0.38941 0.10758 0.0
C491 C 0.56619 0.40088 0.19198 0.0
C492 C 0.58021 0.40448 0.23978 0.0
C493 C 0.5969 0.39588 0.15513 0.0
C494 C 0.62492 0.40454 0.25053 0.0
C495 C 0.65566 0.4009 0.214 0.0
H496 H 0.32496 0.70911 0.60843 0.0
H497 H 0.29359 0.58032 0.60364 0.0
H498 H 0.34361 0.56599 0.67097 0.0
H499 H 0.39749 0.59072 0.73081 0.0
H500 H 0.42783 0.72049 0.73407 0.0
H501 H 0.3768 0.73395 0.66873 0.0
C502 C 0.32902 0.67805 0.62257 0.0
C503 C 0.30614 0.64574 0.60126 0.0
C504 C 0.35758 0.67028 0.66119 0.0
C505 C 0.3116 0.60546 0.61924 0.0
C506 C 0.33992 0.59739 0.65787 0.0
C507 C 0.39267 0.62191 0.71738 0.0
C508 C 0.41679 0.65443 0.73723 0.0
C509 C 0.36331 0.62959 0.67909 0.0
C510 C 0.41016 0.69472 0.71924 0.0
C511 C 0.38087 0.70257 0.68182 0.0
H512 H 0.83018 0.84726 0.09104 0.0
H513 H 0.79374 0.97504 0.09374 0.0
H514 H 0.84373 0.98622 0.16158 0.0
H515 H 0.89685 0.95855 0.22117 0.0
H516 H 0.93155 0.82967 0.21755 0.0
H517 H 0.88271 0.81977 0.14975 0.0
C518 C 0.83315 0.87742 0.10685 0.0
C519 C 0.80839 0.91024 0.08804 0.0
C520 C 0.86138 0.88328 0.14583 0.0
C521 C 0.81279 0.94947 0.10784 0.0
C522 C 0.84112 0.95571 0.14665 0.0
C523 C 0.89359 0.9283 0.20564 0.0
C524 C 0.91796 0.89495 0.22458 0.0
C525 C 0.8654 0.92271 0.16621 0.0
C526 C 0.91341 0.85597 0.20377 0.0
C527 C 0.88546 0.8502 0.16489 0.0
H528 H 0.13985 0.18737 0.5714 0.0
H529 H 0.23612 0.10408 0.62931 0.0
H530 H 0.19301 0.09486 0.70293 0.0
H531 H 0.12853 0.11279 0.75168 0.0
H532 H 0.03496 0.20029 0.69437 0.0
H533 H 0.07612 0.2059 0.62016 0.0
C534 C 0.15074 0.16687 0.6001 0.0
C535 C 0.19021 0.14565 0.59515 0.0
C536 C 0.12649 0.16293 0.64259 0.0
C537 C 0.20519 0.11994 0.63257 0.0
C538 C 0.18073 0.11496 0.67455 0.0
C539 C 0.1172 0.13303 0.72292 0.0
C540 C 0.07878 0.15617 0.72886 0.0
C541 C 0.14143 0.13662 0.68019 0.0
C542 C 0.06464 0.1824 0.69119 0.0
C543 C 0.08803 0.18553 0.64848 0.0
H544 H 0.23061 0.89505 0.14579 0.0
H545 H 0.13215 0.90014 0.03498 0.0
H546 H 0.07529 0.90649 0.0955 0.0
H547 H 0.05322 0.9068 0.18044 0.0
H548 H 0.15045 0.88996 0.29117 0.0
H549 H 0.20829 0.89023 0.23045 0.0
C550 C 0.19665 0.89727 0.13502 0.0
C551 C 0.18577 0.89788 0.08592 0.0
C552 C 0.16399 0.89797 0.1701 0.0
C553 C 0.14168 0.90111 0.07231 0.0
C554 C 0.10905 0.90399 0.107 0.0
C555 C 0.08716 0.90319 0.19106 0.0
C556 C 0.09796 0.8986 0.23989 0.0
C557 C 0.11981 0.90201 0.15597 0.0
C558 C 0.1417 0.89338 0.25362 0.0
C559 C 0.17461 0.89374 0.21901 0.0
H560 H 0.77627 0.15038 0.64633 0.0
H561 H 0.8774 0.14284 0.54009 0.0
H562 H 0.93215 0.13155 0.60324 0.0
H563 H 0.95192 0.13035 0.6891 0.0
H564 H 0.85212 0.14906 0.79502 0.0
H565 H 0.79601 0.1505 0.73198 0.0
C566 C 0.81036 0.14642 0.63724 0.0
C567 C 0.8229 0.14731 0.58885 0.0
C568 C 0.84176 0.14244 0.67376 0.0
C569 C 0.86698 0.14152 0.57713 0.0
C570 C 0.89827 0.13553 0.61322 0.0
C571 C 0.91775 0.13412 0.6982 0.0
C572 C 0.90575 0.13916 0.74632 0.0
C573 C 0.88613 0.13674 0.66168 0.0
C574 C 0.86174 0.145 0.75804 0.0
C575 C 0.82982 0.14584 0.7221 0.0
loop_
_geom_bond_atom_site_label_1
_geom_bond_atom_site_label_2
_geom_bond_distance
_geom_bond_site_symmetry_2
_ccdc_geom_bond_type
C0 N1 1.317 . S
C0 N2 1.348 1_554 S
C0 C3 1.485 . S
N1 C0 1.317 . S
N1 N5 1.370 1_554 S
N2 C0 1.348 1_556 S
N2 C4 1.346 . S
C3 C0 1.485 . S
C3 H7 0.960 . S
C3 H8 0.961 . S
C3 H9 0.960 . S
C4 N2 1.346 . S
C4 N5 1.307 . S
C4 C6 1.486 . S
N5 N1 1.370 1_556 S
N5 C4 1.307 . S
C6 C4 1.486 . S
C6 H10 0.960 . S
C6 H11 0.960 . S
C6 H12 0.959 . S
H7 C3 0.960 . S
H8 C3 0.961 . S
H9 C3 0.960 . S
H10 C6 0.960 . S
H11 C6 0.960 . S
H12 C6 0.959 . S
C13 N14 1.317 . S
C13 N15 1.348 . S
C13 C16 1.485 . S
N14 C13 1.317 . S
N14 N18 1.370 . S
N15 C13 1.348 . S
N15 C17 1.346 . S
C16 C13 1.485 . S
C16 H20 0.960 . S
C16 H21 0.961 . S
C16 H22 0.960 . S
C17 N15 1.346 . S
C17 N18 1.307 . S
C17 C19 1.486 . S
N18 N14 1.370 . S
N18 C17 1.307 . S
C19 C17 1.486 . S
C19 H23 0.960 . S
C19 H24 0.960 . S
C19 H25 0.959 . S
H20 C16 0.960 . S
H21 C16 0.961 . S
H22 C16 0.960 . S
H23 C19 0.960 . S
H24 C19 0.960 . S
H25 C19 0.959 . S
C26 N27 1.317 . S
C26 N28 1.348 1_554 S
C26 C29 1.485 . S
N27 C26 1.317 . S
N27 N31 1.370 1_554 S
N28 C26 1.348 1_556 S
N28 C30 1.346 . S
C29 C26 1.485 . S
C29 H33 0.960 . S
C29 H34 0.961 . S
C29 H35 0.960 . S
C30 N28 1.346 . S
C30 N31 1.307 . S
C30 C32 1.486 . S
N31 N27 1.370 1_556 S
N31 C30 1.307 . S
C32 C30 1.486 . S
C32 H36 0.960 . S
C32 H37 0.960 . S
C32 H38 0.959 . S
H33 C29 0.960 . S
H34 C29 0.961 . S
H35 C29 0.960 . S
H36 C32 0.960 . S
H37 C32 0.960 . S
H38 C32 0.959 . S
C39 N40 1.317 . S
C39 N41 1.348 . S
C39 C42 1.485 . S
N40 C39 1.317 . S
N40 N44 1.370 . S
N41 C39 1.348 . S
N41 C43 1.346 . S
C42 C39 1.485 . S
C42 H46 0.960 . S
C42 H47 0.961 . S
C42 H48 0.960 . S
C43 N41 1.346 . S
C43 N44 1.307 . S
C43 C45 1.486 . S
N44 N40 1.370 . S
N44 C43 1.307 . S
C45 C43 1.486 . S
C45 H49 0.960 . S
C45 H50 0.960 . S
C45 H51 0.959 . S
H46 C42 0.960 . S
H47 C42 0.961 . S
H48 C42 0.960 . S
H49 C45 0.960 . S
H50 C45 0.960 . S
H51 C45 0.959 . S
C52 N53 1.317 . S
C52 N54 1.348 1_554 S
C52 C55 1.485 . S
N53 C52 1.317 . S
N53 N57 1.370 1_554 S
N54 C52 1.348 1_556 S
N54 C56 1.346 . S
C55 C52 1.485 . S
C55 H59 0.960 . S
C55 H60 0.961 . S
C55 H61 0.960 . S
C56 N54 1.346 . S
C56 N57 1.307 . S
C56 C58 1.486 . S
N57 N53 1.370 1_556 S
N57 C56 1.307 . S
C58 C56 1.486 . S
C58 H62 0.960 . S
C58 H63 0.960 . S
C58 H64 0.959 . S
H59 C55 0.960 . S
H60 C55 0.961 . S
H61 C55 0.960 . S
H62 C58 0.960 . S
H63 C58 0.960 . S
H64 C58 0.959 . S
C65 N66 1.317 . S
C65 N67 1.348 . S
C65 C68 1.485 . S
N66 C65 1.317 . S
N66 N70 1.370 . S
N67 C65 1.348 . S
N67 C69 1.346 . S
C68 C65 1.485 . S
C68 H72 0.960 . S
C68 H73 0.961 . S
C68 H74 0.960 . S
C69 N67 1.346 . S
C69 N70 1.307 . S
C69 C71 1.486 . S
N70 N66 1.370 . S
N70 C69 1.307 . S
C71 C69 1.486 . S
C71 H75 0.960 . S
C71 H76 0.960 . S
C71 H77 0.959 . S
H72 C68 0.960 . S
H73 C68 0.961 . S
H74 C68 0.960 . S
H75 C71 0.960 . S
H76 C71 0.960 . S
H77 C71 0.959 . S
C78 N79 1.317 . S
C78 N80 1.348 1_554 S
C78 C81 1.485 . S
N79 C78 1.317 . S
N79 N83 1.370 1_554 S
N80 C78 1.348 1_556 S
N80 C82 1.346 . S
C81 C78 1.485 . S
C81 H85 0.960 . S
C81 H86 0.961 . S
C81 H87 0.960 . S
C82 N80 1.346 . S
C82 N83 1.307 . S
C82 C84 1.486 . S
N83 N79 1.370 1_556 S
N83 C82 1.307 . S
C84 C82 1.486 . S
C84 H88 0.960 . S
C84 H89 0.960 . S
C84 H90 0.959 . S
H85 C81 0.960 . S
H86 C81 0.961 . S
H87 C81 0.960 . S
H88 C84 0.960 . S
H89 C84 0.960 . S
H90 C84 0.959 . S
C91 N92 1.317 . S
C91 N93 1.348 . S
C91 C94 1.485 . S
N92 C91 1.317 . S
N92 N96 1.370 . S
N93 C91 1.348 . S
N93 C95 1.346 . S
C94 C91 1.485 . S
C94 H98 0.960 . S
C94 H99 0.961 . S
C94 H100 0.960 . S
C95 N93 1.346 . S
C95 N96 1.307 . S
C95 C97 1.486 . S
N96 N92 1.370 . S
N96 C95 1.307 . S
C97 C95 1.486 . S
C97 H101 0.960 . S
C97 H102 0.960 . S
C97 H103 0.959 . S
H98 C94 0.960 . S
H99 C94 0.961 . S
H100 C94 0.960 . S
H101 C97 0.960 . S
H102 C97 0.960 . S
H103 C97 0.959 . S
Fe104 O106 1.918 . S
Fe104 O109 1.997 1_455 S
Fe104 O110 2.002 1_455 S
Fe104 O115 1.976 . S
Fe104 O118 1.996 . S
Fe105 O106 1.918 . S
Fe105 O113 1.997 1_455 S
Fe105 O116 1.996 . S
Fe105 O120 1.976 . S
Fe105 O123 2.002 1_455 S
O106 Fe104 1.918 . S
O106 Fe105 1.918 . S
O106 Fe107 1.918 . S
Fe107 O106 1.918 . S
Fe107 O108 2.002 1_455 S
Fe107 O117 1.976 . S
Fe107 O121 1.996 . S
Fe107 O124 1.997 1_455 S
O108 Fe107 2.002 1_655 S
O108 C125 1.295 . S
O109 Fe104 1.997 1_655 S
O109 C125 1.235 . S
O110 Fe104 2.002 1_655 S
O110 C111 1.295 . S
C111 O110 1.295 . S
C111 O113 1.235 . S
C112 O117 1.287 . S
C112 O118 1.255 . S
O113 Fe105 1.997 1_655 S
O113 C111 1.235 . S
C114 O120 1.287 . S
C114 O121 1.255 . S
O115 Fe104 1.976 . S
O115 C122 1.287 . S
O116 Fe105 1.996 . S
O116 C122 1.255 . S
O117 Fe107 1.976 . S
O117 C112 1.287 . S
O118 Fe104 1.996 . S
O118 C112 1.255 . S
C119 O123 1.295 . S
C119 O124 1.235 . S
O120 Fe105 1.976 . S
O120 C114 1.287 . S
O121 Fe107 1.996 . S
O121 C114 1.255 . S
C122 O115 1.287 . S
C122 O116 1.255 . S
O123 Fe105 2.002 1_655 S
O123 C119 1.295 . S
O124 Fe107 1.997 1_655 S
O124 C119 1.235 . S
C125 O108 1.295 . S
C125 O109 1.235 . S
Fe126 O128 1.919 . S
Fe126 O131 1.984 1_655 S
Fe126 O132 1.989 1_655 S
Fe126 O137 1.989 . S
Fe126 O140 2.008 . S
Fe127 O128 1.919 . S
Fe127 O135 1.984 1_655 S
Fe127 O138 2.008 . S
Fe127 O142 1.989 . S
Fe127 O145 1.989 1_655 S
O128 Fe126 1.919 . S
O128 Fe127 1.919 . S
O128 Fe129 1.918 . S
Fe129 O128 1.918 . S
Fe129 O130 1.989 1_655 S
Fe129 O139 1.989 . S
Fe129 O143 2.009 . S
Fe129 O146 1.983 1_655 S
O130 Fe129 1.989 1_455 S
O130 C147 1.295 . S
O131 Fe126 1.984 1_455 S
O131 C147 1.235 . S
O132 Fe126 1.989 1_455 S
O132 C133 1.295 . S
C133 O132 1.295 . S
C133 O135 1.235 . S
C134 O139 1.287 . S
C134 O140 1.255 . S
O135 Fe127 1.984 1_455 S
O135 C133 1.235 . S
C136 O142 1.287 . S
C136 O143 1.255 . S
O137 Fe126 1.989 . S
O137 C144 1.287 . S
O138 Fe127 2.008 . S
O138 C144 1.255 . S
O139 Fe129 1.989 . S
O139 C134 1.287 . S
O140 Fe126 2.008 . S
O140 C134 1.255 . S
C141 O145 1.295 . S
C141 O146 1.235 . S
O142 Fe127 1.989 . S
O142 C136 1.287 . S
O143 Fe129 2.009 . S
O143 C136 1.255 . S
C144 O137 1.287 . S
C144 O138 1.255 . S
O145 Fe127 1.989 1_455 S
O145 C141 1.295 . S
O146 Fe129 1.983 1_455 S
O146 C141 1.235 . S
C147 O130 1.295 . S
C147 O131 1.235 . S
Fe148 O150 1.918 . S
Fe148 O153 1.997 . S
Fe148 O154 2.002 . S
Fe148 O159 1.976 . S
Fe148 O162 1.996 . S
Fe149 O150 1.918 . S
Fe149 O157 1.997 . S
Fe149 O160 1.996 . S
Fe149 O164 1.976 . S
Fe149 O167 2.002 . S
O150 Fe148 1.918 . S
O150 Fe149 1.918 . S
O150 Fe151 1.918 . S
Fe151 O150 1.918 . S
Fe151 O152 2.002 . S
Fe151 O161 1.976 . S
Fe151 O165 1.996 . S
Fe151 O168 1.997 . S
O152 Fe151 2.002 . S
O152 C169 1.295 . S
O153 Fe148 1.997 . S
O153 C169 1.235 . S
O154 Fe148 2.002 . S
O154 C155 1.295 . S
C155 O154 1.295 . S
C155 O157 1.235 . S
C156 O161 1.287 . S
C156 O162 1.255 . S
O157 Fe149 1.997 . S
O157 C155 1.235 . S
C158 O164 1.287 . S
C158 O165 1.255 . S
O159 Fe148 1.976 . S
O159 C166 1.287 . S
O160 Fe149 1.996 . S
O160 C166 1.255 . S
O161 Fe151 1.976 . S
O161 C156 1.287 . S
O162 Fe148 1.996 . S
O162 C156 1.255 . S
C163 O167 1.295 . S
C163 O168 1.235 . S
O164 Fe149 1.976 . S
O164 C158 1.287 . S
O165 Fe151 1.996 . S
O165 C158 1.255 . S
C166 O159 1.287 . S
C166 O160 1.255 . S
O167 Fe149 2.002 . S
O167 C163 1.295 . S
O168 Fe151 1.997 . S
O168 C163 1.235 . S
C169 O152 1.295 . S
C169 O153 1.235 . S
Fe170 O172 1.918 . S
Fe170 O175 1.997 . S
Fe170 O176 2.002 . S
Fe170 O181 1.976 . S
Fe170 O184 1.996 . S
Fe171 O172 1.918 . S
Fe171 O179 1.997 . S
Fe171 O182 1.996 . S
Fe171 O186 1.976 . S
Fe171 O189 2.002 . S
O172 Fe170 1.918 . S
O172 Fe171 1.918 . S
O172 Fe173 1.918 . S
Fe173 O172 1.918 . S
Fe173 O174 2.002 . S
Fe173 O183 1.976 . S
Fe173 O187 1.996 . S
Fe173 O190 1.997 . S
O174 Fe173 2.002 . S
O174 C191 1.295 . S
O175 Fe170 1.997 . S
O175 C191 1.235 . S
O176 Fe170 2.002 . S
O176 C177 1.295 . S
C177 O176 1.295 . S
C177 O179 1.235 . S
C178 O183 1.287 . S
C178 O184 1.255 . S
O179 Fe171 1.997 . S
O179 C177 1.235 . S
C180 O186 1.287 . S
C180 O187 1.255 . S
O181 Fe170 1.976 . S
O181 C188 1.287 . S
O182 Fe171 1.996 . S
O182 C188 1.255 . S
O183 Fe173 1.976 . S
O183 C178 1.287 . S
O184 Fe170 1.996 . S
O184 C178 1.255 . S
C185 O189 1.295 . S
C185 O190 1.235 . S
O186 Fe171 1.976 . S
O186 C180 1.287 . S
O187 Fe173 1.996 . S
O187 C180 1.255 . S
C188 O181 1.287 . S
C188 O182 1.255 . S
O189 Fe171 2.002 . S
O189 C185 1.295 . S
O190 Fe173 1.997 . S
O190 C185 1.235 . S
C191 O174 1.295 . S
C191 O175 1.235 . S
H192 C198 0.930 . S
H193 C201 0.930 . S
H194 C202 0.930 . S
H195 C203 0.930 . S
H196 C206 0.930 . S
H197 C207 0.930 . S
C198 H192 0.930 . S
C198 C199 1.355 . S
C198 C200 1.415 . S
C199 C198 1.355 . S
C199 C201 1.419 . S
C200 C198 1.415 . S
C200 C205 1.425 . S
C200 C207 1.409 . S
C201 H193 0.930 . S
C201 C199 1.419 . S
C201 C202 1.362 . S
C202 H194 0.930 . S
C202 C201 1.362 . S
C202 C205 1.409 . S
C203 H195 0.930 . S
C203 C204 1.355 . S
C203 C205 1.415 . S
C204 C203 1.355 . S
C204 C206 1.419 . S
C205 C200 1.425 . S
C205 C202 1.409 . S
C205 C203 1.415 . S
C206 H196 0.930 . S
C206 C204 1.419 . S
C206 C207 1.362 . S
C207 H197 0.930 . S
C207 C200 1.409 . S
C207 C206 1.362 . S
H208 C214 0.930 . S
H209 C217 0.930 . S
H210 C218 0.930 . S
H211 C219 0.930 . S
H212 C222 0.930 . S
H213 C223 0.930 . S
C214 H208 0.930 . S
C214 C215 1.355 . S
C214 C216 1.415 . S
C215 C214 1.355 . S
C215 C217 1.419 . S
C216 C214 1.415 . S
C216 C221 1.425 . S
C216 C223 1.409 . S
C217 H209 0.930 . S
C217 C215 1.419 . S
C217 C218 1.362 . S
C218 H210 0.930 . S
C218 C217 1.362 . S
C218 C221 1.409 . S
C219 H211 0.930 . S
C219 C220 1.355 . S
C219 C221 1.415 . S
C220 C219 1.355 . S
C220 C222 1.419 . S
C221 C216 1.425 . S
C221 C218 1.409 . S
C221 C219 1.415 . S
C222 H212 0.930 . S
C222 C220 1.419 . S
C222 C223 1.362 . S
C223 H213 0.930 . S
C223 C216 1.409 . S
C223 C222 1.362 . S
H224 C230 0.930 . S
H225 C233 0.930 1_554 S
H226 C234 0.930 . S
H227 C235 0.930 . S
H228 C238 0.930 . S
H229 C239 0.930 . S
C230 H224 0.930 . S
C230 C231 1.355 . S
C230 C232 1.415 . S
C231 C230 1.355 . S
C231 C233 1.419 . S
C232 C230 1.415 . S
C232 C237 1.425 . S
C232 C239 1.409 . S
C233 H225 0.930 1_556 S
C233 C231 1.419 . S
C233 C234 1.362 . S
C234 H226 0.930 . S
C234 C233 1.362 . S
C234 C237 1.409 . S
C235 H227 0.930 . S
C235 C236 1.355 . S
C235 C237 1.415 . S
C236 C235 1.355 . S
C236 C238 1.419 . S
C237 C232 1.425 . S
C237 C234 1.409 . S
C237 C235 1.415 . S
C238 H228 0.930 . S
C238 C236 1.419 . S
C238 C239 1.362 . S
C239 H229 0.930 . S
C239 C232 1.409 . S
C239 C238 1.362 . S
H240 C246 0.930 . S
H241 C249 0.930 . S
H242 C250 0.930 . S
H243 C251 0.930 . S
H244 C254 0.930 . S
H245 C255 0.930 . S
C246 H240 0.930 . S
C246 C247 1.355 . S
C246 C248 1.415 . S
C247 C246 1.355 . S
C247 C249 1.419 . S
C248 C246 1.415 . S
C248 C253 1.425 . S
C248 C255 1.409 . S
C249 H241 0.930 . S
C249 C247 1.419 . S
C249 C250 1.362 . S
C250 H242 0.930 . S
C250 C249 1.362 . S
C250 C253 1.409 . S
C251 H243 0.930 . S
C251 C252 1.355 . S
C251 C253 1.415 . S
C252 C251 1.355 . S
C252 C254 1.419 . S
C253 C248 1.425 . S
C253 C250 1.409 . S
C253 C251 1.415 . S
C254 H244 0.930 . S
C254 C252 1.419 . S
C254 C255 1.362 . S
C255 H245 0.930 . S
C255 C248 1.409 . S
C255 C254 1.362 . S
H256 C262 0.930 . S
H257 C265 0.930 1_554 S
H258 C266 0.930 . S
H259 C267 0.930 . S
H260 C270 0.930 . S
H261 C271 0.930 . S
C262 H256 0.930 . S
C262 C263 1.355 . S
C262 C264 1.415 . S
C263 C262 1.355 . S
C263 C265 1.419 . S
C264 C262 1.415 . S
C264 C269 1.425 . S
C264 C271 1.409 . S
C265 H257 0.930 1_556 S
C265 C263 1.419 . S
C265 C266 1.362 . S
C266 H258 0.930 . S
C266 C265 1.362 . S
C266 C269 1.409 . S
C267 H259 0.930 . S
C267 C268 1.355 . S
C267 C269 1.415 . S
C268 C267 1.355 . S
C268 C270 1.419 . S
C269 C264 1.425 . S
C269 C266 1.409 . S
C269 C267 1.415 . S
C270 H260 0.930 . S
C270 C268 1.419 . S
C270 C271 1.362 . S
C271 H261 0.930 . S
C271 C264 1.409 . S
C271 C270 1.362 . S
H272 C278 0.930 . S
H273 C281 0.930 . S
H274 C282 0.930 . S
H275 C283 0.930 . S
H276 C286 0.930 . S
H277 C287 0.930 . S
C278 H272 0.930 . S
C278 C279 1.355 . S
C278 C280 1.415 . S
C279 C278 1.355 . S
C279 C281 1.419 . S
C280 C278 1.415 . S
C280 C285 1.425 . S
C280 C287 1.409 . S
C281 H273 0.930 . S
C281 C279 1.419 . S
C281 C282 1.362 . S
C282 H274 0.930 . S
C282 C281 1.362 . S
C282 C285 1.409 . S
C283 H275 0.930 . S
C283 C284 1.355 . S
C283 C285 1.415 . S
C284 C283 1.355 . S
C284 C286 1.419 . S
C285 C280 1.425 . S
C285 C282 1.409 . S
C285 C283 1.415 . S
C286 H276 0.930 . S
C286 C284 1.419 . S
C286 C287 1.362 . S
C287 H277 0.930 . S
C287 C280 1.409 . S
C287 C286 1.362 . S
H288 C294 0.930 . S
H289 C297 0.930 . S
H290 C298 0.930 1_554 S
H291 C299 0.930 . S
H292 C302 0.930 . S
H293 C303 0.930 . S
C294 H288 0.930 . S
C294 C295 1.355 . S
C294 C296 1.415 . S
C295 C294 1.355 . S
C295 C297 1.419 1_556 S
C296 C294 1.415 . S
C296 C301 1.425 . S
C296 C303 1.409 . S
C297 H289 0.930 . S
C297 C295 1.419 1_554 S
C297 C298 1.362 1_554 S
C298 H290 0.930 1_556 S
C298 C297 1.362 1_556 S
C298 C301 1.409 . S
C299 H291 0.930 . S
C299 C300 1.355 . S
C299 C301 1.415 . S
C300 C299 1.355 . S
C300 C302 1.419 . S
C301 C296 1.425 . S
C301 C298 1.409 . S
C301 C299 1.415 . S
C302 H292 0.930 . S
C302 C300 1.419 . S
C302 C303 1.362 . S
C303 H293 0.930 . S
C303 C296 1.409 . S
C303 C302 1.362 . S
H304 C310 0.930 . S
H305 C313 0.930 . S
H306 C314 0.930 . S
H307 C315 0.930 . S
H308 C318 0.930 . S
H309 C319 0.930 . S
C310 H304 0.930 . S
C310 C311 1.355 . S
C310 C312 1.415 . S
C311 C310 1.355 . S
C311 C313 1.419 . S
C312 C310 1.415 . S
C312 C317 1.425 . S
C312 C319 1.409 . S
C313 H305 0.930 . S
C313 C311 1.419 . S
C313 C314 1.362 . S
C314 H306 0.930 . S
C314 C313 1.362 . S
C314 C317 1.409 . S
C315 H307 0.930 . S
C315 C316 1.355 . S
C315 C317 1.415 . S
C316 C315 1.355 . S
C316 C318 1.419 . S
C317 C312 1.425 . S
C317 C314 1.409 . S
C317 C315 1.415 . S
C318 H308 0.930 . S
C318 C316 1.419 . S
C318 C319 1.362 . S
C319 H309 0.930 . S
C319 C312 1.409 . S
C319 C318 1.362 . S
H320 C326 0.930 1_554 S
H321 C329 0.930 . S
H322 C330 0.930 . S
H323 C331 0.930 . S
H324 C334 0.930 . S
H325 C335 0.930 1_554 S
C326 H320 0.930 1_556 S
C326 C327 1.355 . S
C326 C328 1.415 . S
C327 C326 1.355 . S
C327 C329 1.419 . S
C328 C326 1.415 . S
C328 C333 1.425 . S
C328 C335 1.409 . S
C329 H321 0.930 . S
C329 C327 1.419 . S
C329 C330 1.362 . S
C330 H322 0.930 . S
C330 C329 1.362 . S
C330 C333 1.409 . S
C331 H323 0.930 . S
C331 C332 1.355 . S
C331 C333 1.415 . S
C332 C331 1.355 . S
C332 C334 1.419 . S
C333 C328 1.425 . S
C333 C330 1.409 . S
C333 C331 1.415 . S
C334 H324 0.930 . S
C334 C332 1.419 . S
C334 C335 1.362 . S
C335 H325 0.930 1_556 S
C335 C328 1.409 . S
C335 C334 1.362 . S
H336 C342 0.930 . S
H337 C345 0.930 . S
H338 C346 0.930 . S
H339 C347 0.930 . S
H340 C350 0.930 . S
H341 C351 0.930 . S
C342 H336 0.930 . S
C342 C343 1.355 . S
C342 C344 1.415 . S
C343 C342 1.355 . S
C343 C345 1.419 . S
C344 C342 1.415 . S
C344 C349 1.425 . S
C344 C351 1.409 . S
C345 H337 0.930 . S
C345 C343 1.419 . S
C345 C346 1.362 . S
C346 H338 0.930 . S
C346 C345 1.362 . S
C346 C349 1.409 . S
C347 H339 0.930 . S
C347 C348 1.355 . S
C347 C349 1.415 . S
C348 C347 1.355 . S
C348 C350 1.419 . S
C349 C344 1.425 . S
C349 C346 1.409 . S
C349 C347 1.415 . S
C350 H340 0.930 . S
C350 C348 1.419 . S
C350 C351 1.362 . S
C351 H341 0.930 . S
C351 C344 1.409 . S
C351 C350 1.362 . S
H352 C358 0.930 1_554 S
H353 C361 0.930 . S
H354 C362 0.930 . S
H355 C363 0.930 . S
H356 C366 0.930 . S
H357 C367 0.930 . S
C358 H352 0.930 1_556 S
C358 C359 1.355 . S
C358 C360 1.415 . S
C359 C358 1.355 . S
C359 C361 1.419 . S
C360 C358 1.415 . S
C360 C365 1.425 . S
C360 C367 1.409 . S
C361 H353 0.930 . S
C361 C359 1.419 . S
C361 C362 1.362 . S
C362 H354 0.930 . S
C362 C361 1.362 . S
C362 C365 1.409 . S
C363 H355 0.930 . S
C363 C364 1.355 . S
C363 C365 1.415 . S
C364 C363 1.355 . S
C364 C366 1.419 . S
C365 C360 1.425 . S
C365 C362 1.409 . S
C365 C363 1.415 . S
C366 H356 0.930 . S
C366 C364 1.419 . S
C366 C367 1.362 . S
C367 H357 0.930 . S
C367 C360 1.409 . S
C367 C366 1.362 . S
H368 C374 0.930 . S
H369 C377 0.930 . S
H370 C378 0.930 . S
H371 C379 0.930 . S
H372 C382 0.930 . S
H373 C383 0.930 . S
C374 H368 0.930 . S
C374 C375 1.355 . S
C374 C376 1.415 . S
C375 C374 1.355 . S
C375 C377 1.419 . S
C376 C374 1.415 . S
C376 C381 1.425 . S
C376 C383 1.409 . S
C377 H369 0.930 . S
C377 C375 1.419 . S
C377 C378 1.362 . S
C378 H370 0.930 . S
C378 C377 1.362 . S
C378 C381 1.409 . S
C379 H371 0.930 . S
C379 C380 1.355 . S
C379 C381 1.415 . S
C380 C379 1.355 . S
C380 C382 1.419 . S
C381 C376 1.425 . S
C381 C378 1.409 . S
C381 C379 1.415 . S
C382 H372 0.930 . S
C382 C380 1.419 . S
C382 C383 1.362 . S
C383 H373 0.930 . S
C383 C376 1.409 . S
C383 C382 1.362 . S
H384 C390 0.930 1_554 S
H385 C393 0.930 . S
H386 C394 0.930 . S
H387 C395 0.930 . S
H388 C398 0.930 . S
H389 C399 0.950 . S
C390 H384 0.930 1_556 S
C390 C391 1.355 . S
C390 C392 1.415 . S
C391 C390 1.355 . S
C391 C393 1.419 . S
C392 C390 1.415 . S
C392 C397 1.425 . S
C392 C399 1.409 . S
C393 H385 0.930 . S
C393 C391 1.419 . S
C393 C394 1.362 . S
C394 H386 0.930 . S
C394 C393 1.362 . S
C394 C397 1.409 . S
C395 H387 0.930 . S
C395 C396 1.355 . S
C395 C397 1.415 1_545 S
C396 C395 1.355 . S
C396 C398 1.419 . S
C397 C392 1.425 . S
C397 C394 1.409 . S
C397 C395 1.415 1_565 S
C398 H388 0.930 . S
C398 C396 1.419 . S
C398 C399 1.362 1_545 S
C399 H389 0.950 . S
C399 C392 1.409 . S
C399 C398 1.362 1_565 S
H400 C406 0.930 . S
H401 C409 0.930 . S
H402 C410 0.944 . S
H403 C411 0.930 . S
H404 C414 0.930 . S
H405 C415 0.930 . S
C406 H400 0.930 . S
C406 C407 1.355 . S
C406 C408 1.415 . S
C407 C406 1.355 . S
C407 C409 1.419 . S
C408 C406 1.415 . S
C408 C413 1.425 . S
C408 C415 1.409 . S
C409 H401 0.930 . S
C409 C407 1.419 . S
C409 C410 1.351 1_545 S
C410 H402 0.944 . S
C410 C409 1.351 1_565 S
C410 C413 1.408 1_565 S
C411 H403 0.930 . S
C411 C412 1.355 . S
C411 C413 1.415 1_565 S
C412 C411 1.355 . S
C412 C414 1.419 1_565 S
C413 C408 1.425 . S
C413 C410 1.408 1_545 S
C413 C411 1.415 1_545 S
C414 H404 0.930 . S
C414 C412 1.419 1_545 S
C414 C415 1.362 . S
C415 H405 0.930 . S
C415 C408 1.409 . S
C415 C414 1.362 . S
H416 C422 0.930 . S
H417 C425 0.930 . S
H418 C426 0.930 . S
H419 C427 0.930 . S
H420 C430 0.930 . S
H421 C431 0.930 . S
C422 H416 0.930 . S
C422 C423 1.355 . S
C422 C424 1.415 . S
C423 C422 1.355 . S
C423 C425 1.419 . S
C424 C422 1.415 . S
C424 C429 1.425 . S
C424 C431 1.409 1_565 S
C425 H417 0.930 . S
C425 C423 1.419 . S
C425 C426 1.362 . S
C426 H418 0.930 . S
C426 C425 1.362 . S
C426 C429 1.409 . S
C427 H419 0.930 . S
C427 C428 1.355 1_565 S
C427 C429 1.415 . S
C428 C427 1.355 1_545 S
C428 C430 1.419 . S
C429 C424 1.425 . S
C429 C426 1.409 . S
C429 C427 1.415 . S
C430 H420 0.930 . S
C430 C428 1.419 . S
C430 C431 1.362 . S
C431 H421 0.930 . S
C431 C424 1.409 1_545 S
C431 C430 1.362 . S
H432 C438 0.930 . S
H433 C441 0.930 . S
H434 C442 0.930 . S
H435 C443 0.930 . S
H436 C446 0.930 . S
H437 C447 0.930 . S
C438 H432 0.930 . S
C438 C439 1.355 . S
C438 C440 1.415 . S
C439 C438 1.355 . S
C439 C441 1.419 . S
C440 C438 1.415 . S
C440 C445 1.425 1_545 S
C440 C447 1.409 . S
C441 H433 0.930 . S
C441 C439 1.419 . S
C441 C442 1.362 1_545 S
C442 H434 0.930 . S
C442 C441 1.362 1_565 S
C442 C445 1.409 . S
C443 H435 0.930 . S
C443 C444 1.355 . S
C443 C445 1.415 . S
C444 C443 1.355 . S
C444 C446 1.419 1_565 S
C445 C440 1.425 1_565 S
C445 C442 1.409 . S
C445 C443 1.415 . S
C446 H436 0.930 . S
C446 C444 1.419 1_545 S
C446 C447 1.362 . S
C447 H437 0.930 . S
C447 C440 1.409 . S
C447 C446 1.362 . S
H448 C454 0.930 . S
H449 C457 0.930 . S
H450 C458 0.930 . S
H451 C459 0.930 . S
H452 C462 0.930 . S
H453 C463 0.930 . S
C454 H448 0.930 . S
C454 C455 1.355 . S
C454 C456 1.415 . S
C455 C454 1.355 . S
C455 C457 1.419 . S
C456 C454 1.415 . S
C456 C461 1.425 . S
C456 C463 1.409 . S
C457 H449 0.930 . S
C457 C455 1.419 . S
C457 C458 1.362 . S
C458 H450 0.930 . S
C458 C457 1.362 . S
C458 C461 1.409 . S
C459 H451 0.930 . S
C459 C460 1.355 . S
C459 C461 1.415 . S
C460 C459 1.355 . S
C460 C462 1.419 . S
C461 C456 1.425 . S
C461 C458 1.409 . S
C461 C459 1.415 . S
C462 H452 0.930 . S
C462 C460 1.419 . S
C462 C463 1.362 . S
C463 H453 0.930 . S
C463 C456 1.409 . S
C463 C462 1.362 . S
H464 C470 0.930 . S
H465 C473 0.930 . S
H466 C474 0.930 . S
H467 C475 0.930 . S
H468 C478 0.930 . S
H469 C479 0.930 . S
C470 H464 0.930 . S
C470 C471 1.355 . S
C470 C472 1.415 . S
C471 C470 1.355 . S
C471 C473 1.419 . S
C472 C470 1.415 . S
C472 C477 1.425 . S
C472 C479 1.409 . S
C473 H465 0.930 . S
C473 C471 1.419 . S
C473 C474 1.362 . S
C474 H466 0.930 . S
C474 C473 1.362 . S
C474 C477 1.409 . S
C475 H467 0.930 . S
C475 C476 1.355 . S
C475 C477 1.415 . S
C476 C475 1.355 . S
C476 C478 1.419 . S
C477 C472 1.425 . S
C477 C474 1.409 . S
C477 C475 1.415 . S
C478 H468 0.930 . S
C478 C476 1.419 . S
C478 C479 1.362 . S
C479 H469 0.930 . S
C479 C472 1.409 . S
C479 C478 1.362 . S
H480 C486 0.930 . S
H481 C489 0.930 . S
H482 C490 0.930 . S
H483 C491 0.930 . S
H484 C494 0.930 . S
H485 C495 0.930 . S
C486 H480 0.930 . S
C486 C487 1.355 . S
C486 C488 1.415 . S
C487 C486 1.355 . S
C487 C489 1.419 . S
C488 C486 1.415 . S
C488 C493 1.425 . S
C488 C495 1.409 . S
C489 H481 0.930 . S
C489 C487 1.419 . S
C489 C490 1.362 . S
C490 H482 0.930 . S
C490 C489 1.362 . S
C490 C493 1.409 . S
C491 H483 0.930 . S
C491 C492 1.355 . S
C491 C493 1.415 . S
C492 C491 1.355 . S
C492 C494 1.419 . S
C493 C488 1.425 . S
C493 C490 1.409 . S
C493 C491 1.415 . S
C494 H484 0.930 . S
C494 C492 1.419 . S
C494 C495 1.362 . S
C495 H485 0.930 . S
C495 C488 1.409 . S
C495 C494 1.362 . S
H496 C502 0.930 . S
H497 C505 0.930 . S
H498 C506 0.930 . S
H499 C507 0.930 . S
H500 C510 0.930 . S
H501 C511 0.930 . S
C502 H496 0.930 . S
C502 C503 1.355 . S
C502 C504 1.415 . S
C503 C502 1.355 . S
C503 C505 1.419 . S
C504 C502 1.415 . S
C504 C509 1.425 . S
C504 C511 1.409 . S
C505 H497 0.930 . S
C505 C503 1.419 . S
C505 C506 1.362 . S
C506 H498 0.930 . S
C506 C505 1.362 . S
C506 C509 1.409 . S
C507 H499 0.930 . S
C507 C508 1.355 . S
C507 C509 1.415 . S
C508 C507 1.355 . S
C508 C510 1.419 . S
C509 C504 1.425 . S
C509 C506 1.409 . S
C509 C507 1.415 . S
C510 H500 0.930 . S
C510 C508 1.419 . S
C510 C511 1.362 . S
C511 H501 0.930 . S
C511 C504 1.409 . S
C511 C510 1.362 . S
H512 C518 0.930 . S
H513 C521 0.930 . S
H514 C522 0.930 . S
H515 C523 0.930 . S
H516 C526 0.930 . S
H517 C527 0.930 . S
C518 H512 0.930 . S
C518 C519 1.355 . S
C518 C520 1.415 . S
C519 C518 1.355 . S
C519 C521 1.419 . S
C520 C518 1.415 . S
C520 C525 1.425 . S
C520 C527 1.409 . S
C521 H513 0.930 . S
C521 C519 1.419 . S
C521 C522 1.362 . S
C522 H514 0.930 . S
C522 C521 1.362 . S
C522 C525 1.409 . S
C523 H515 0.930 . S
C523 C524 1.355 . S
C523 C525 1.415 . S
C524 C523 1.355 . S
C524 C526 1.419 . S
C525 C520 1.425 . S
C525 C522 1.409 . S
C525 C523 1.415 . S
C526 H516 0.930 . S
C526 C524 1.419 . S
C526 C527 1.362 . S
C527 H517 0.930 . S
C527 C520 1.409 . S
C527 C526 1.362 . S
H528 C534 0.930 . S
H529 C537 0.930 . S
H530 C538 0.930 . S
H531 C539 0.930 . S
H532 C542 0.930 . S
H533 C543 0.930 . S
C534 H528 0.930 . S
C534 C535 1.355 . S
C534 C536 1.415 . S
C535 C534 1.355 . S
C535 C537 1.419 . S
C536 C534 1.415 . S
C536 C541 1.425 . S
C536 C543 1.409 . S
C537 H529 0.930 . S
C537 C535 1.419 . S
C537 C538 1.362 . S
C538 H530 0.930 . S
C538 C537 1.362 . S
C538 C541 1.409 . S
C539 H531 0.930 . S
C539 C540 1.355 . S
C539 C541 1.415 . S
C540 C539 1.355 . S
C540 C542 1.419 . S
C541 C536 1.425 . S
C541 C538 1.409 . S
C541 C539 1.415 . S
C542 H532 0.930 . S
C542 C540 1.419 . S
C542 C543 1.362 . S
C543 H533 0.930 . S
C543 C536 1.409 . S
C543 C542 1.362 . S
H544 C550 0.930 . S
H545 C553 0.930 . S
H546 C554 0.930 . S
H547 C555 0.930 . S
H548 C558 0.930 . S
H549 C559 0.930 . S
C550 H544 0.930 . S
C550 C551 1.355 . S
C550 C552 1.415 . S
C551 C550 1.355 . S
C551 C553 1.419 . S
C552 C550 1.415 . S
C552 C557 1.425 . S
C552 C559 1.409 . S
C553 H545 0.930 . S
C553 C551 1.419 . S
C553 C554 1.362 . S
C554 H546 0.930 . S
C554 C553 1.362 . S
C554 C557 1.409 . S
C555 H547 0.930 . S
C555 C556 1.355 . S
C555 C557 1.415 . S
C556 C555 1.355 . S
C556 C558 1.419 . S
C557 C552 1.425 . S
C557 C554 1.409 . S
C557 C555 1.415 . S
C558 H548 0.930 . S
C558 C556 1.419 . S
C558 C559 1.362 . S
C559 H549 0.930 . S
C559 C552 1.409 . S
C559 C558 1.362 . S
H560 C566 0.930 . S
H561 C569 0.930 . S
H562 C570 0.930 . S
H563 C571 0.930 . S
H564 C574 0.930 . S
H565 C575 0.930 . S
C566 H560 0.930 . S
C566 C567 1.355 . S
C566 C568 1.415 . S
C567 C566 1.355 . S
C567 C569 1.419 . S
C568 C566 1.415 . S
C568 C573 1.425 . S
C568 C575 1.409 . S
C569 H561 0.930 . S
C569 C567 1.419 . S
C569 C570 1.362 . S
C570 H562 0.930 . S
C570 C569 1.362 . S
C570 C573 1.409 . S
C571 H563 0.930 . S
C571 C572 1.355 . S
C571 C573 1.415 . S
C572 C571 1.355 . S
C572 C574 1.419 . S
C573 C568 1.425 . S
C573 C570 1.409 . S
C573 C571 1.415 . S
C574 H564 0.930 . S
C574 C572 1.419 . S
C574 C575 1.362 . S
C575 H565 0.930 . S
C575 C568 1.409 . S
C575 C574 1.362 . S
C199 N2 1.526 . S
C204 C147 1.505 . S
C220 C111 1.540 . S
C215 N15 1.542 . S
C236 C134 1.531 . S
C231 N28 1.527 . S
C252 C122 1.531 . S
C247 N41 1.531 . S
C268 C191 1.540 . S
C263 N54 1.542 . S
C284 C155 1.503 . S
C279 N67 1.525 . S
C295 N80 1.518 . S
C300 C178 1.527 . S
C316 C166 1.516 . S
C311 N93 1.501 . S
C327 N5 1.483 . S
C332 C188 1.504 . S
C348 C158 1.508 . S
C343 N18 1.505 . S
C359 N31 1.503 . S
C364 C177 1.525 . S
C375 N44 1.502 . S
C380 C163 1.523 . S
C396 C144 1.500 . S
C391 N57 1.496 . S
C407 N70 1.511 . S
C412 C114 1.503 . S
C428 C133 1.531 . S
C423 N83 1.509 . S
C444 C119 1.507 . S
C439 N96 1.529 . S
C460 C169 1.536 . S
C455 N1 1.529 . S
C476 C185 1.534 . S
C471 N14 1.535 . S
C487 N27 1.461 . S
C492 C156 1.504 . S
C508 C180 1.500 . S
C503 N40 1.501 . S
C524 C125 1.505 . S
C519 N53 1.521 . S
C535 N66 1.524 . S
C540 C141 1.505 . S
C551 N79 1.475 . S
C556 C112 1.505 . S
C567 N92 1.471 . S
C572 C136 1.505 . S
