# Generated by pormake.
# Topology ctn, (3,4)-cn, num edge types: 1
# Building blocks:
#     Node 0, Type 0, BuildingBlock: PAMTOO_clean_linker_0, # of connection points: 3
#     Node 1, Type 0, BuildingBlock: PAMTOO_clean_linker_0, # of connection points: 3
#     Node 2, Type 0, BuildingBlock: PAMTOO_clean_linker_0, # of connection points: 3
#     Node 3, Type 0, BuildingBlock: PAMTOO_clean_linker_0, # of connection points: 3
#     Node 4, Type 0, BuildingBlock: PAMTOO_clean_linker_0, # of connection points: 3
#     Node 5, Type 0, BuildingBlock: PAMTOO_clean_linker_0, # of connection points: 3
#     Node 6, Type 0, BuildingBlock: PAMTOO_clean_linker_0, # of connection points: 3
#     Node 7, Type 0, BuildingBlock: PAMTOO_clean_linker_0, # of connection points: 3
#     Node 8, Type 0, BuildingBlock: PAMTOO_clean_linker_0, # of connection points: 3
#     Node 9, Type 0, BuildingBlock: PAMTOO_clean_linker_0, # of connection points: 3
#     Node 10, Type 0, BuildingBlock: PAMTOO_clean_linker_0, # of connection points: 3
#     Node 11, Type 0, BuildingBlock: PAMTOO_clean_linker_0, # of connection points: 3
#     Node 12, Type 0, BuildingBlock: PAMTOO_clean_linker_0, # of connection points: 3
#     Node 13, Type 0, BuildingBlock: PAMTOO_clean_linker_0, # of connection points: 3
#     Node 14, Type 0, BuildingBlock: PAMTOO_clean_linker_0, # of connection points: 3
#     Node 15, Type 0, BuildingBlock: PAMTOO_clean_linker_0, # of connection points: 3
#     Node 16, Type 1, BuildingBlock: UXUYUI_clean_sbu_0, # of connection points: 4
#     Node 17, Type 1, BuildingBlock: UXUYUI_clean_sbu_0, # of connection points: 4
#     Node 18, Type 1, BuildingBlock: UXUYUI_clean_sbu_0, # of connection points: 4
#     Node 19, Type 1, BuildingBlock: UXUYUI_clean_sbu_0, # of connection points: 4
#     Node 20, Type 1, BuildingBlock: UXUYUI_clean_sbu_0, # of connection points: 4
#     Node 21, Type 1, BuildingBlock: UXUYUI_clean_sbu_0, # of connection points: 4
#     Node 22, Type 1, BuildingBlock: UXUYUI_clean_sbu_0, # of connection points: 4
#     Node 23, Type 1, BuildingBlock: UXUYUI_clean_sbu_0, # of connection points: 4
#     Node 24, Type 1, BuildingBlock: UXUYUI_clean_sbu_0, # of connection points: 4
#     Node 25, Type 1, BuildingBlock: UXUYUI_clean_sbu_0, # of connection points: 4
#     Node 26, Type 1, BuildingBlock: UXUYUI_clean_sbu_0, # of connection points: 4
#     Node 27, Type 1, BuildingBlock: UXUYUI_clean_sbu_0, # of connection points: 4
#     Edge 28, Type (0, 1), BuildingBlock: XIVTED_clean_linker_0, # of connection points: 2
#     Edge 29, Type (0, 1), BuildingBlock: XIVTED_clean_linker_0, # of connection points: 2
#     Edge 30, Type (0, 1), BuildingBlock: XIVTED_clean_linker_0, # of connection points: 2
#     Edge 31, Type (0, 1), BuildingBlock: XIVTED_clean_linker_0, # of connection points: 2
#     Edge 32, Type (0, 1), BuildingBlock: XIVTED_clean_linker_0, # of connection points: 2
#     Edge 33, Type (0, 1), BuildingBlock: XIVTED_clean_linker_0, # of connection points: 2
#     Edge 34, Type (0, 1), BuildingBlock: XIVTED_clean_linker_0, # of connection points: 2
#     Edge 35, Type (0, 1), BuildingBlock: XIVTED_clean_linker_0, # of connection points: 2
#     Edge 36, Type (0, 1), BuildingBlock: XIVTED_clean_linker_0, # of connection points: 2
#     Edge 37, Type (0, 1), BuildingBlock: XIVTED_clean_linker_0, # of connection points: 2
#     Edge 38, Type (0, 1), BuildingBlock: XIVTED_clean_linker_0, # of connection points: 2
#     Edge 39, Type (0, 1), BuildingBlock: XIVTED_clean_linker_0, # of connection points: 2
#     Edge 40, Type (0, 1), BuildingBlock: XIVTED_clean_linker_0, # of connection points: 2
#     Edge 41, Type (0, 1), BuildingBlock: XIVTED_clean_linker_0, # of connection points: 2
#     Edge 42, Type (0, 1), BuildingBlock: XIVTED_clean_linker_0, # of connection points: 2
#     Edge 43, Type (0, 1), BuildingBlock: XIVTED_clean_linker_0, # of connection points: 2
#     Edge 44, Type (0, 1), BuildingBlock: XIVTED_clean_linker_0, # of connection points: 2
#     Edge 45, Type (0, 1), BuildingBlock: XIVTED_clean_linker_0, # of connection points: 2
#     Edge 46, Type (0, 1), BuildingBlock: XIVTED_clean_linker_0, # of connection points: 2
#     Edge 47, Type (0, 1), BuildingBlock: XIVTED_clean_linker_0, # of connection points: 2
#     Edge 48, Type (0, 1), BuildingBlock: XIVTED_clean_linker_0, # of connection points: 2
#     Edge 49, Type (0, 1), BuildingBlock: XIVTED_clean_linker_0, # of connection points: 2
#     Edge 50, Type (0, 1), BuildingBlock: XIVTED_clean_linker_0, # of connection points: 2
#     Edge 51, Type (0, 1), BuildingBlock: XIVTED_clean_linker_0, # of connection points: 2
#     Edge 52, Type (0, 1), BuildingBlock: XIVTED_clean_linker_0, # of connection points: 2
#     Edge 53, Type (0, 1), BuildingBlock: XIVTED_clean_linker_0, # of connection points: 2
#     Edge 54, Type (0, 1), BuildingBlock: XIVTED_clean_linker_0, # of connection points: 2
#     Edge 55, Type (0, 1), BuildingBlock: XIVTED_clean_linker_0, # of connection points: 2
#     Edge 56, Type (0, 1), BuildingBlock: XIVTED_clean_linker_0, # of connection points: 2
#     Edge 57, Type (0, 1), BuildingBlock: XIVTED_clean_linker_0, # of connection points: 2
#     Edge 58, Type (0, 1), BuildingBlock: XIVTED_clean_linker_0, # of connection points: 2
#     Edge 59, Type (0, 1), BuildingBlock: XIVTED_clean_linker_0, # of connection points: 2
#     Edge 60, Type (0, 1), BuildingBlock: XIVTED_clean_linker_0, # of connection points: 2
#     Edge 61, Type (0, 1), BuildingBlock: XIVTED_clean_linker_0, # of connection points: 2
#     Edge 62, Type (0, 1), BuildingBlock: XIVTED_clean_linker_0, # of connection points: 2
#     Edge 63, Type (0, 1), BuildingBlock: XIVTED_clean_linker_0, # of connection points: 2
#     Edge 64, Type (0, 1), BuildingBlock: XIVTED_clean_linker_0, # of connection points: 2
#     Edge 65, Type (0, 1), BuildingBlock: XIVTED_clean_linker_0, # of connection points: 2
#     Edge 66, Type (0, 1), BuildingBlock: XIVTED_clean_linker_0, # of connection points: 2
#     Edge 67, Type (0, 1), BuildingBlock: XIVTED_clean_linker_0, # of connection points: 2
#     Edge 68, Type (0, 1), BuildingBlock: XIVTED_clean_linker_0, # of connection points: 2
#     Edge 69, Type (0, 1), BuildingBlock: XIVTED_clean_linker_0, # of connection points: 2
#     Edge 70, Type (0, 1), BuildingBlock: XIVTED_clean_linker_0, # of connection points: 2
#     Edge 71, Type (0, 1), BuildingBlock: XIVTED_clean_linker_0, # of connection points: 2
#     Edge 72, Type (0, 1), BuildingBlock: XIVTED_clean_linker_0, # of connection points: 2
#     Edge 73, Type (0, 1), BuildingBlock: XIVTED_clean_linker_0, # of connection points: 2
#     Edge 74, Type (0, 1), BuildingBlock: XIVTED_clean_linker_0, # of connection points: 2
#     Edge 75, Type (0, 1), BuildingBlock: XIVTED_clean_linker_0, # of connection points: 2
# Relax obj value: 0.063
# Max RMSD: 0.182
# Mean RMSD: 0.115
data_MOF--net-ctn--node1-UXUYUI_clean_sbu_0--node2-PAMTOO_clean_linker_0--edge1-XIVTED_clean_linker_0
_symmetry_space_group_name_H-M    P1
_symmetry_Int_Tables_number       1
_symmetry_cell_setting            triclinic
loop_
_symmetry_equiv_pos_as_xyz
'x, y, z'
_cell_length_a     66.90207
_cell_length_b     67.292574
_cell_length_c     68.526513
_cell_angle_alpha  85.245241
_cell_angle_beta   92.399941
_cell_angle_gamma 97.190589
loop_
_atom_site_label
_atom_site_type_symbol
_atom_site_fract_x
_atom_site_fract_y
_atom_site_fract_z
_atom_type_partial_charge
H0 H 0.01706 0.07833 0.0633 0.0
H1 H 0.04642 0.02605 0.08171 0.0
H2 H 0.06298 0.06104 0.02836 0.0
H3 H 0.05766 0.01838 0.02531 0.0
C4 C 0.06357 0.01299 0.03995 0.0
O5 O 0.06906 0.02905 0.05115 0.0
H6 H 0.05147 0.00257 0.0474 0.0
C7 C 0.02803 0.06824 0.06104 0.0
C8 C 0.03975 0.07169 0.0443 0.0
C9 C 0.0304 0.05197 0.07484 0.0
C10 C 0.04433 0.03874 0.07135 0.0
C11 C 0.05594 0.04199 0.05456 0.0
C12 C 0.05391 0.05863 0.04128 0.0
H13 H 0.3132 0.69292 0.26693 0.0
H14 H 0.27657 0.70726 0.21573 0.0
H15 H 0.32747 0.7486 0.2317 0.0
H16 H 0.29291 0.76805 0.21853 0.0
C17 C 0.28537 0.75713 0.20841 0.0
O18 O 0.2973 0.74209 0.20668 0.0
H19 H 0.27066 0.75047 0.21455 0.0
C20 C 0.31003 0.70304 0.25436 0.0
C21 C 0.32245 0.72136 0.25093 0.0
C22 C 0.29346 0.69773 0.24173 0.0
C23 C 0.2894 0.71095 0.22551 0.0
C24 C 0.30155 0.72931 0.2221 0.0
C25 C 0.31807 0.73444 0.23469 0.0
H26 H 0.97212 0.49842 0.10301 0.0
H27 H 0.95353 0.47349 0.04825 0.0
H28 H 0.00374 0.45313 0.08132 0.0
H29 H 0.00812 0.46198 0.03849 0.0
C30 C 0.99295 0.45504 0.03357 0.0
O31 O 0.9812 0.44926 0.04963 0.0
H32 H 0.98584 0.46639 0.02382 0.0
C33 C 0.974 0.48823 0.09198 0.0
C34 C 0.98949 0.47577 0.09447 0.0
C35 C 0.96098 0.48774 0.07529 0.0
C36 C 0.96351 0.47439 0.06109 0.0
C37 C 0.97888 0.46199 0.06338 0.0
C38 C 0.99177 0.46266 0.07998 0.0
H39 H 0.71173 0.82566 0.26295 0.0
H40 H 0.69141 0.76908 0.23911 0.0
H41 H 0.74556 0.80417 0.21867 0.0
H42 H 0.71451 0.78708 0.18934 0.0
C43 C 0.71249 0.77151 0.19649 0.0
O44 O 0.72117 0.77108 0.21511 0.0
H45 H 0.69602 0.76663 0.19737 0.0
C46 C 0.7137 0.81431 0.25309 0.0
C47 C 0.73043 0.81702 0.24101 0.0
C48 C 0.69945 0.79714 0.25252 0.0
C49 C 0.70224 0.78241 0.23984 0.0
C50 C 0.71875 0.78511 0.22754 0.0
C51 C 0.73277 0.80236 0.22812 0.0
H52 H 0.08603 0.96787 0.51593 0.0
H53 H 0.03061 0.95307 0.48292 0.0
H54 H 0.07012 0.0061 0.46563 0.0
H55 H 0.02835 0.01222 0.46236 0.0
C56 C 0.02122 0.99683 0.45958 0.0
O57 O 0.03595 0.98448 0.45792 0.0
H58 H 0.01159 0.99085 0.47212 0.0
C59 C 0.07581 0.97105 0.5037 0.0
C60 C 0.08042 0.98844 0.49108 0.0
C61 C 0.05785 0.95811 0.50104 0.0
C62 C 0.04441 0.96289 0.48552 0.0
C63 C 0.04883 0.98022 0.47294 0.0
C64 C 0.06679 0.99289 0.47567 0.0
H65 H 0.20229 0.76123 0.81113 0.0
H66 H 0.21997 0.71364 0.7799 0.0
H67 H 0.25661 0.73509 0.82835 0.0
H68 H 0.27908 0.72627 0.79416 0.0
C69 C 0.26825 0.71388 0.78866 0.0
O70 O 0.25255 0.70949 0.80138 0.0
H71 H 0.26243 0.71888 0.77385 0.0
C72 C 0.21292 0.75079 0.80894 0.0
C73 C 0.22992 0.74995 0.82165 0.0
C74 C 0.20912 0.73779 0.79381 0.0
C75 C 0.2225 0.72369 0.79155 0.0
C76 C 0.23959 0.72286 0.80395 0.0
C77 C 0.24325 0.73587 0.81898 0.0
H78 H 0.95311 0.56344 0.51825 0.0
H79 H 0.97537 0.5319 0.47306 0.0
H80 H 0.01142 0.58324 0.49423 0.0
H81 H 0.01299 0.5812 0.45068 0.0
C82 C 0.00805 0.56483 0.45024 0.0
O83 O 0.00888 0.55583 0.46907 0.0
H84 H 0.99234 0.56274 0.44406 0.0
C85 C 0.96495 0.56147 0.50853 0.0
C86 C 0.98273 0.57508 0.50817 0.0
C87 C 0.96198 0.54584 0.49588 0.0
C88 C 0.97714 0.54392 0.48282 0.0
C89 C 0.99473 0.55754 0.48213 0.0
C90 C 0.99757 0.573 0.4948 0.0
H91 H 0.77603 0.80383 0.85157 0.0
H92 H 0.82236 0.77395 0.82866 0.0
H93 H 0.80067 0.82388 0.79519 0.0
H94 H 0.80849 0.79251 0.7708 0.0
C95 C 0.81949 0.78505 0.78057 0.0
O96 O 0.82538 0.79665 0.79597 0.0
H97 H 0.81191 0.77009 0.78614 0.0
C98 C 0.78633 0.8024 0.84012 0.0
C99 C 0.78678 0.81581 0.82321 0.0
C100 C 0.79911 0.7872 0.84233 0.0
C101 C 0.81226 0.78543 0.82727 0.0
C102 C 0.81274 0.79861 0.81037 0.0
C103 C 0.8002 0.81385 0.80843 0.0
H104 H 0.27677 0.30582 0.35101 0.0
H105 H 0.32175 0.27335 0.32925 0.0
H106 H 0.30011 0.32173 0.2934 0.0
H107 H 0.30728 0.28847 0.27119 0.0
C108 C 0.3188 0.28186 0.28102 0.0
O109 O 0.32475 0.29441 0.29567 0.0
H110 H 0.31187 0.26699 0.28749 0.0
C111 C 0.28668 0.3034 0.33956 0.0
C112 C 0.28665 0.31556 0.32182 0.0
C113 C 0.29931 0.28809 0.34256 0.0
C114 C 0.31209 0.28519 0.32752 0.0
C115 C 0.31225 0.29726 0.30989 0.0
C116 C 0.29963 0.3124 0.30708 0.0
H117 H 0.47782 0.00366 0.59987 0.0
H118 H 0.45827 0.97973 0.5448 0.0
H119 H 0.5065 0.95623 0.57845 0.0
H120 H 0.51254 0.96653 0.5357 0.0
C121 C 0.49727 0.96031 0.53033 0.0
O122 O 0.48493 0.95452 0.54595 0.0
H123 H 0.49095 0.97234 0.52077 0.0
C124 C 0.47885 0.9931 0.58896 0.0
C125 C 0.49355 0.97976 0.5915 0.0
C126 C 0.466 0.9934 0.57214 0.0
C127 C 0.4681 0.98009 0.55777 0.0
C128 C 0.48286 0.967 0.56 0.0
C129 C 0.49542 0.96675 0.57683 0.0
H130 H 0.20964 0.3235 0.76359 0.0
H131 H 0.18937 0.26772 0.73831 0.0
H132 H 0.244 0.30293 0.71913 0.0
H133 H 0.21689 0.28736 0.68827 0.0
C134 C 0.21146 0.27226 0.69532 0.0
O135 O 0.21922 0.27032 0.71428 0.0
H136 H 0.19472 0.2707 0.69564 0.0
C137 C 0.21177 0.31238 0.75353 0.0
C138 C 0.22867 0.31528 0.74167 0.0
C139 C 0.1975 0.2953 0.75246 0.0
C140 C 0.2003 0.28092 0.73941 0.0
C141 C 0.21693 0.28385 0.72727 0.0
C142 C 0.2311 0.30094 0.72846 0.0
H143 H 0.80602 0.19864 0.77116 0.0
H144 H 0.77053 0.21331 0.71919 0.0
H145 H 0.81963 0.25537 0.73743 0.0
H146 H 0.7843 0.27383 0.72339 0.0
C147 C 0.77782 0.26297 0.71273 0.0
O148 O 0.79056 0.24857 0.71141 0.0
H149 H 0.76294 0.25577 0.71806 0.0
C150 C 0.80285 0.20897 0.75876 0.0
C151 C 0.815 0.22756 0.75594 0.0
C152 C 0.78665 0.20359 0.74568 0.0
C153 C 0.7827 0.21714 0.72966 0.0
C154 C 0.79457 0.2357 0.72683 0.0
C155 C 0.8107 0.24085 0.73982 0.0
H156 H 0.51916 0.58082 0.56658 0.0
H157 H 0.54808 0.52805 0.58321 0.0
H158 H 0.56456 0.56391 0.53048 0.0
H159 H 0.55608 0.51928 0.52827 0.0
C160 C 0.56418 0.51473 0.54214 0.0
O161 O 0.57022 0.53143 0.55231 0.0
H162 H 0.55372 0.50386 0.55112 0.0
C163 C 0.53025 0.57101 0.5639 0.0
C164 C 0.54175 0.57485 0.54697 0.0
C165 C 0.53247 0.55433 0.57722 0.0
C166 C 0.54603 0.54099 0.57315 0.0
C167 C 0.55726 0.54437 0.55615 0.0
C168 C 0.55529 0.56131 0.54325 0.0
H169 H 0.58466 0.46385 0.01591 0.0
H170 H 0.52905 0.44986 0.98307 0.0
H171 H 0.56833 0.50329 0.96662 0.0
H172 H 0.52499 0.50811 0.96653 0.0
C173 C 0.51864 0.49314 0.96173 0.0
O174 O 0.53405 0.48197 0.95888 0.0
H175 H 0.50876 0.4854 0.97343 0.0
C176 C 0.57443 0.46735 0.00379 0.0
C177 C 0.57894 0.48507 0.99156 0.0
C178 C 0.55646 0.4545 1.00096 0.0
C179 C 0.54291 0.45959 0.98567 0.0
C180 C 0.54719 0.47722 0.97351 0.0
C181 C 0.56515 0.48985 0.97637 0.0
H182 H 0.69845 0.25856 0.31418 0.0
H183 H 0.7192 0.21291 0.28237 0.0
H184 H 0.75411 0.23501 0.33158 0.0
H185 H 0.7783 0.22793 0.29721 0.0
C186 C 0.76773 0.21565 0.29121 0.0
O187 O 0.75205 0.21037 0.30383 0.0
H188 H 0.76185 0.22113 0.27658 0.0
C189 C 0.70938 0.24832 0.31231 0.0
C190 C 0.72646 0.2483 0.32501 0.0
C191 C 0.70658 0.23571 0.2968 0.0
C192 C 0.72115 0.22295 0.29406 0.0
C193 C 0.73829 0.22291 0.30648 0.0
C194 C 0.74093 0.23551 0.3219 0.0
H195 H 0.45166 0.0598 0.01973 0.0
H196 H 0.47424 0.0298 0.9736 0.0
H197 H 0.50915 0.08179 0.99494 0.0
H198 H 0.51028 0.08056 0.95231 0.0
C199 C 0.50665 0.06409 0.95121 0.0
O200 O 0.50741 0.05443 0.96975 0.0
H201 H 0.49122 0.06119 0.94449 0.0
C202 C 0.46331 0.05857 0.00952 0.0
C203 C 0.48073 0.07266 0.00908 0.0
C204 C 0.46072 0.04303 0.99679 0.0
C205 C 0.47584 0.04168 0.98351 0.0
C206 C 0.49321 0.05564 0.98291 0.0
C207 C 0.49572 0.07096 0.99575 0.0
Li208 Li 0.27086 0.9062 0.00284 0.0
Li209 Li 0.25356 0.87801 0.02277 0.0
Li210 Li 0.24858 0.87901 0.98668 0.0
Li211 Li 0.23426 0.90146 0.00624 0.0
C212 C 0.28941 0.87378 0.99169 0.0
N213 N 0.32028 0.86673 0.96864 0.0
C214 C 0.30105 0.85833 0.99741 0.0
C215 C 0.29348 0.88568 0.97428 0.0
C216 C 0.3166 0.85499 0.98555 0.0
C217 C 0.30914 0.88187 0.96282 0.0
C218 C 0.25732 0.90689 0.04641 0.0
C219 C 0.24306 0.89894 0.07828 0.0
N220 N 0.26131 0.90491 0.0868 0.0
C221 C 0.27588 0.91315 0.05548 0.0
C222 C 0.24072 0.89992 0.05789 0.0
C223 C 0.27761 0.91197 0.07592 0.0
C224 C 0.29695 0.94021 0.98765 0.0
N225 N 0.29531 0.92378 1.00067 0.0
C226 C 0.32957 0.93137 0.01164 0.0
C227 C 0.3112 0.91903 0.01238 0.0
C228 C 0.33167 0.94869 0.99859 0.0
C229 C 0.31509 0.95297 0.98637 0.0
H230 H 0.28419 0.94342 0.97824 0.0
H231 H 0.30954 0.90561 0.02231 0.0
C232 C 0.24166 0.84763 0.05275 0.0
N233 N 0.25726 0.86075 0.04568 0.0
C234 C 0.2442 0.83557 0.07004 0.0
C235 C 0.27891 0.85058 0.07227 0.0
C236 C 0.27572 0.86224 0.05487 0.0
C237 C 0.263 0.83706 0.08016 0.0
H238 H 0.22721 0.84658 0.045 0.0
H239 H 0.28788 0.87277 0.04882 0.0
C240 C 0.23808 0.92162 0.97203 0.0
N241 N 0.21346 0.94809 0.95386 0.0
C242 C 0.22403 0.91532 0.95745 0.0
C243 C 0.23964 0.94138 0.97735 0.0
C244 C 0.21173 0.92894 0.94842 0.0
C245 C 0.22703 0.95452 0.96801 0.0
C246 C 0.20795 0.86768 0.00555 0.0
C247 C 0.19857 0.86333 0.98752 0.0
C248 C 0.19621 0.86785 0.02193 0.0
C249 C 0.17757 0.8594 0.98614 0.0
C250 C 0.17525 0.8639 0.01994 0.0
N251 N 0.16645 0.8598 1.00224 0.0
C252 C 0.24166 0.84287 0.96832 0.0
C253 C 0.25092 0.87156 0.94665 0.0
C254 C 0.24057 0.8304 0.95291 0.0
N255 N 0.24665 0.86302 0.96491 0.0
C256 C 0.25008 0.85965 0.93081 0.0
C257 C 0.24483 0.83874 0.93381 0.0
H258 H 0.23847 0.83651 0.98305 0.0
H259 H 0.25519 0.8876 0.94443 0.0
C260 C 0.21354 0.92993 0.02246 0.0
N261 N 0.21161 0.91624 0.00876 0.0
C262 C 0.19774 0.94096 0.02547 0.0
C263 C 0.17831 0.92401 0.9999 0.0
C264 C 0.19456 0.91343 0.99728 0.0
C265 C 0.17974 0.93789 0.01426 0.0
H266 H 0.22736 0.93234 0.03111 0.0
H267 H 0.19351 0.90305 0.98601 0.0
O268 O 0.27413 0.87716 0.00317 0.0
O269 O 0.25541 0.90748 0.02641 0.0
O270 O 0.25002 0.90843 0.98126 0.0
O271 O 0.2285 0.87142 0.00722 0.0
H272 H 0.29809 0.84901 0.01088 0.0
H273 H 0.28464 0.89773 0.96962 0.0
H274 H 0.32573 0.84307 0.98978 0.0
H275 H 0.31245 0.89094 0.94929 0.0
H276 H 0.23038 0.89341 0.08733 0.0
H277 H 0.28883 0.91879 0.04685 0.0
H278 H 0.22623 0.89517 0.0511 0.0
H279 H 0.29191 0.91665 0.08313 0.0
H280 H 0.34206 0.92729 0.02107 0.0
H281 H 0.31601 0.9662 0.97616 0.0
H282 H 0.2316 0.82511 0.07534 0.0
H283 H 0.29358 0.85245 0.07964 0.0
H284 H 0.22243 0.90001 0.95335 0.0
H285 H 0.25022 0.9464 0.98883 0.0
H286 H 0.20072 0.92426 0.93717 0.0
H287 H 0.22797 0.96981 0.97208 0.0
H288 H 0.20734 0.86324 0.97465 0.0
H289 H 0.20317 0.87108 0.03601 0.0
H290 H 0.17012 0.85613 0.97226 0.0
H291 H 0.16599 0.8641 0.03247 0.0
H292 H 0.23621 0.81443 0.9559 0.0
H293 H 0.25383 0.86671 0.91644 0.0
H294 H 0.19948 0.95149 0.03672 0.0
H295 H 0.16485 0.92148 0.99066 0.0
Li296 Li 0.12939 0.49395 0.30282 0.0
Li297 Li 0.15379 0.47506 0.28925 0.0
Li298 Li 0.15481 0.51194 0.28089 0.0
Li299 Li 0.12749 0.4885 0.26749 0.0
C300 C 0.16611 0.50685 0.32301 0.0
N301 N 0.17945 0.52613 0.35605 0.0
C302 C 0.17692 0.49702 0.33795 0.0
C303 C 0.16206 0.52644 0.32489 0.0
C304 C 0.18354 0.50703 0.35454 0.0
C305 C 0.16894 0.53595 0.34169 0.0
C306 C 0.11937 0.45262 0.30458 0.0
C307 C 0.09899 0.42226 0.31646 0.0
N308 N 0.11036 0.42193 0.33338 0.0
C309 C 0.13085 0.45198 0.3221 0.0
C310 C 0.1033 0.43765 0.30172 0.0
C311 C 0.12606 0.43635 0.33647 0.0
C312 C 0.09395 0.50111 0.31906 0.0
N313 N 0.11284 0.49675 0.32423 0.0
C314 C 0.10756 0.50126 0.3578 0.0
C315 C 0.11957 0.49606 0.34326 0.0
C316 C 0.08854 0.50723 0.35262 0.0
C317 C 0.08155 0.50658 0.33305 0.0
H318 H 0.0889 0.50127 0.30385 0.0
H319 H 0.13445 0.4921 0.34712 0.0
C320 C 0.18891 0.45825 0.30207 0.0
N321 N 0.17016 0.4539 0.29395 0.0
C322 C 0.20153 0.44324 0.30574 0.0
C323 C 0.17541 0.41959 0.29232 0.0
C324 C 0.16325 0.43506 0.28899 0.0
C325 C 0.19484 0.42358 0.30084 0.0
H326 H 0.19411 0.47346 0.30556 0.0
H327 H 0.14829 0.43207 0.28245 0.0
C328 C 0.11791 0.53131 0.27731 0.0
N329 N 0.10218 0.56754 0.27157 0.0
C330 C 0.11282 0.53895 0.2584 0.0
C331 C 0.11481 0.54208 0.29332 0.0
C332 C 0.10495 0.5573 0.2558 0.0
C333 C 0.1069 0.56037 0.2901 0.0
C334 C 0.16157 0.49627 0.24417 0.0
C335 C 0.15579 0.51429 0.23551 0.0
C336 C 0.17205 0.48449 0.23334 0.0
C337 C 0.1605 0.5202 0.21606 0.0
C338 C 0.17648 0.49091 0.21391 0.0
N339 N 0.17065 0.50847 0.20574 0.0
C340 C 0.19135 0.53404 0.26874 0.0
C341 C 0.16756 0.55447 0.27807 0.0
C342 C 0.20528 0.55098 0.26448 0.0
N343 N 0.17288 0.53606 0.27537 0.0
C344 C 0.18107 0.57174 0.27424 0.0
C345 C 0.20022 0.57012 0.26737 0.0
H346 H 0.19527 0.51923 0.26681 0.0
H347 H 0.15296 0.55588 0.2834 0.0
C348 C 0.0915 0.49161 0.2457 0.0
N349 N 0.10943 0.48411 0.24563 0.0
C350 C 0.07806 0.49001 0.22962 0.0
C351 C 0.10135 0.47212 0.21402 0.0
C352 C 0.11443 0.47419 0.23038 0.0
C353 C 0.08301 0.48034 0.21339 0.0
H354 H 0.08775 0.49908 0.2582 0.0
H355 H 0.12864 0.46808 0.23082 0.0
O356 O 0.15935 0.49716 0.30677 0.0
O357 O 0.12374 0.46775 0.29024 0.0
O358 O 0.12536 0.51318 0.28019 0.0
O359 O 0.15701 0.49011 0.26317 0.0
H360 H 0.18001 0.48176 0.33683 0.0
H361 H 0.15357 0.53415 0.31359 0.0
H362 H 0.19189 0.4996 0.36623 0.0
H363 H 0.16587 0.55112 0.34333 0.0
H364 H 0.0866 0.41056 0.31444 0.0
H365 H 0.14336 0.46338 0.32458 0.0
H366 H 0.09428 0.43793 0.28824 0.0
H367 H 0.13483 0.43568 0.35009 0.0
H368 H 0.11348 0.50152 0.37274 0.0
H369 H 0.06683 0.51073 0.32852 0.0
H370 H 0.2165 0.44707 0.31203 0.0
H371 H 0.16958 0.40463 0.28846 0.0
H372 H 0.11479 0.53078 0.24582 0.0
H373 H 0.11863 0.53654 0.30807 0.0
H374 H 0.10098 0.56336 0.24124 0.0
H375 H 0.10453 0.56886 0.30235 0.0
H376 H 0.14789 0.52366 0.24376 0.0
H377 H 0.17664 0.4705 0.23988 0.0
H378 H 0.15611 0.53412 0.20917 0.0
H379 H 0.18454 0.48192 0.20533 0.0
H380 H 0.21997 0.54909 0.25935 0.0
H381 H 0.17652 0.58625 0.27648 0.0
H382 H 0.06392 0.49623 0.2299 0.0
H383 H 0.10578 0.46461 0.2018 0.0
Li384 Li 0.76481 0.61883 0.03373 0.0
Li385 Li 0.78062 0.64355 0.05578 0.0
Li386 Li 0.78848 0.64745 0.02001 0.0
Li387 Li 0.80213 0.62182 0.04277 0.0
C388 C 0.74496 0.65284 0.02321 0.0
N389 N 0.70994 0.66262 0.00395 0.0
C390 C 0.73004 0.65997 0.03348 0.0
C391 C 0.74216 0.65101 0.00309 0.0
C392 C 0.71241 0.66473 0.0235 0.0
C393 C 0.72435 0.65595 0.99363 0.0
C394 C 0.77364 0.6101 0.0789 0.0
C395 C 0.78303 0.61033 0.11325 0.0
N396 N 0.7636 0.60376 0.11781 0.0
C397 C 0.75381 0.60316 0.08391 0.0
C398 C 0.78842 0.61354 0.09366 0.0
C399 C 0.74902 0.60011 0.10367 0.0
C400 C 0.74282 0.58417 0.01915 0.0
N401 N 0.74119 0.60093 0.02846 0.0
C402 C 0.70549 0.59242 0.03006 0.0
C403 C 0.72305 0.60508 0.0342 0.0
C404 C 0.70662 0.57522 0.02004 0.0
C405 C 0.72564 0.57109 0.01468 0.0
H406 H 0.75748 0.58104 0.01506 0.0
H407 H 0.72222 0.61813 0.04216 0.0
C408 C 0.78932 0.67147 0.08504 0.0
N409 N 0.77504 0.65776 0.07749 0.0
C410 C 0.78462 0.68278 0.10007 0.0
C411 C 0.75074 0.66544 0.09942 0.0
C412 C 0.75609 0.6545 0.08443 0.0
C413 C 0.76502 0.67999 0.10733 0.0
H414 H 0.80424 0.6739 0.07915 0.0
H415 H 0.74497 0.64367 0.07801 0.0
C416 C 0.79021 0.61344 0.99803 0.0
N417 N 0.79435 0.60352 0.96016 0.0
C418 C 0.80887 0.60941 0.99191 0.0
C419 C 0.77357 0.61202 0.98495 0.0
C420 C 0.81069 0.60454 0.97269 0.0
C421 C 0.77599 0.60709 0.96586 0.0
C422 C 0.82731 0.656 0.04627 0.0
C423 C 0.83941 0.66446 0.03084 0.0
C424 C 0.83613 0.65192 0.06478 0.0
C425 C 0.86023 0.66844 0.03414 0.0
C426 C 0.857 0.65608 0.06748 0.0
N427 N 0.86852 0.66417 0.05223 0.0
C428 C 0.78372 0.6833 0.99722 0.0
C429 C 0.80488 0.66317 0.98298 0.0
C430 C 0.78523 0.6972 0.98089 0.0
N431 N 0.79309 0.66646 0.99779 0.0
C432 C 0.80688 0.67671 0.96638 0.0
C433 C 0.79674 0.69388 0.96504 0.0
H434 H 0.7747 0.68576 0.00932 0.0
H435 H 0.81278 0.65009 0.98401 0.0
C436 C 0.82143 0.58998 0.06121 0.0
N437 N 0.82422 0.60637 0.04818 0.0
C438 C 0.83657 0.57747 0.06486 0.0
C439 C 0.85727 0.599 0.04172 0.0
C440 C 0.84173 0.61107 0.03851 0.0
C441 C 0.85475 0.5818 0.05492 0.0
H442 H 0.80727 0.58635 0.06849 0.0
H443 H 0.84355 0.62399 0.02801 0.0
O444 O 0.76227 0.64796 0.0328 0.0
O445 O 0.77856 0.6135 0.05964 0.0
O446 O 0.78818 0.61818 0.01685 0.0
O447 O 0.80692 0.65194 0.04328 0.0
H448 H 0.732 0.66175 0.04899 0.0
H449 H 0.75375 0.64613 0.9948 0.0
H450 H 0.7007 0.67014 0.03131 0.0
H451 H 0.72202 0.65457 0.97806 0.0
H452 H 0.7943 0.61305 0.12482 0.0
H453 H 0.74221 0.60032 0.07267 0.0
H454 H 0.80387 0.6187 0.09002 0.0
H455 H 0.7337 0.59488 0.10777 0.0
H456 H 0.69123 0.59595 0.03489 0.0
H457 H 0.72723 0.55807 0.00686 0.0
H458 H 0.79617 0.69368 0.10585 0.0
H459 H 0.73537 0.66297 0.10427 0.0
H460 H 0.82187 0.6102 1.00182 0.0
H461 H 0.75887 0.61441 0.98952 0.0
H462 H 0.82509 0.60156 0.96775 0.0
H463 H 0.76324 0.60601 0.9556 0.0
H464 H 0.83283 0.66784 0.01646 0.0
H465 H 0.82697 0.64554 0.07691 0.0
H466 H 0.86979 0.67489 0.02231 0.0
H467 H 0.86404 0.65288 0.0817 0.0
H468 H 0.77705 0.71013 0.9805 0.0
H469 H 0.81632 0.67377 0.95475 0.0
H470 H 0.8338 0.56422 0.07493 0.0
H471 H 0.87109 0.60309 0.03388 0.0
Li472 Li 0.87272 0.04086 0.26087 0.0
Li473 Li 0.89601 0.01795 0.27843 0.0
Li474 Li 0.89684 0.02522 0.24331 0.0
Li475 Li 0.86967 0.00333 0.25712 0.0
C476 C 0.91953 0.05581 0.25809 0.0
N477 N 0.95463 0.07775 0.24474 0.0
C478 C 0.938 0.0484 0.26198 0.0
C479 C 0.91888 0.07441 0.24754 0.0
C480 C 0.95559 0.05971 0.25506 0.0
C481 C 0.93681 0.08527 0.24089 0.0
C482 C 0.86395 0.01648 0.30071 0.0
C483 C 0.86474 0.99812 0.33246 0.0
N484 N 0.86036 0.01459 0.34089 0.0
C485 C 0.8593 0.03317 0.30968 0.0
C486 C 0.86654 0.99875 0.31217 0.0
C487 C 0.85759 0.03193 0.33001 0.0
C488 C 0.83944 0.06328 0.25713 0.0
N489 N 0.85903 0.06357 0.26329 0.0
C490 C 0.85915 0.09614 0.27483 0.0
C491 C 0.86899 0.07953 0.27198 0.0
C492 C 0.83887 0.09637 0.26859 0.0
C493 C 0.82905 0.07964 0.25953 0.0
H494 H 0.83189 0.0503 0.25035 0.0
H495 H 0.88448 0.07918 0.27705 0.0
C496 C 0.92403 0.99985 0.30422 0.0
N497 N 0.91209 0.01485 0.30185 0.0
C498 C 0.93593 0.9975 0.32129 0.0
C499 C 0.92329 0.0263 0.33302 0.0
C500 C 0.91181 0.02821 0.31563 0.0
C501 C 0.93553 0.01075 0.33603 0.0
H502 H 0.92443 0.98977 0.29279 0.0
H503 H 0.90267 0.04039 0.3131 0.0
C504 C 0.86701 0.03198 0.21723 0.0
N505 N 0.86598 0.04402 0.17768 0.0
C506 C 0.87141 0.01901 0.20352 0.0
C507 C 0.86203 0.05106 0.2108 0.0
C508 C 0.87085 0.02538 0.1836 0.0
C509 C 0.86159 0.05686 0.19074 0.0
C510 C 0.89649 0.97902 0.2562 0.0
C511 C 0.89774 0.972 0.23769 0.0
C512 C 0.89246 0.96525 0.27239 0.0
C513 C 0.89487 0.95133 0.2357 0.0
C514 C 0.88963 0.94471 0.26978 0.0
N515 N 0.89088 0.93823 0.25165 0.0
C516 C 0.92944 0.0175 0.22144 0.0
C517 C 0.91503 0.04655 0.20898 0.0
C518 C 0.94301 0.01994 0.20625 0.0
N519 N 0.91544 0.03039 0.22225 0.0
C520 C 0.92834 0.0496 0.19355 0.0
C521 C 0.94241 0.03602 0.19189 0.0
H522 H 0.93013 0.00531 0.23264 0.0
H523 H 0.90431 0.05706 0.21029 0.0
C524 C 0.83911 0.97238 0.26959 0.0
N525 N 0.85041 0.98008 0.25409 0.0
C526 C 0.82586 0.95474 0.26834 0.0
C527 C 0.83577 0.95344 0.23502 0.0
C528 C 0.84866 0.97122 0.23688 0.0
C529 C 0.82424 0.94484 0.25095 0.0
H530 H 0.84045 0.97986 0.283 0.0
H531 H 0.85766 0.97762 0.22471 0.0
O532 O 0.90211 0.04471 0.26428 0.0
O533 O 0.86595 0.01751 0.28083 0.0
O534 O 0.86737 0.02602 0.23681 0.0
O535 O 0.89888 0.99924 0.25841 0.0
H536 H 0.9387 0.03397 0.27005 0.0
H537 H 0.90465 0.08026 0.2443 0.0
H538 H 0.97 0.05412 0.25784 0.0
H539 H 0.93654 0.09963 0.23259 0.0
H540 H 0.86686 0.98455 0.3415 0.0
H541 H 0.85709 0.04697 0.30109 0.0
H542 H 0.87008 0.98567 0.30552 0.0
H543 H 0.85409 0.04477 0.33714 0.0
H544 H 0.86727 0.10845 0.28222 0.0
H545 H 0.81354 0.0792 0.25425 0.0
H546 H 0.94516 0.98531 0.32304 0.0
H547 H 0.92285 0.03707 0.34385 0.0
H548 H 0.87569 0.00437 0.2082 0.0
H549 H 0.85869 0.06136 0.22116 0.0
H550 H 0.87439 0.01555 0.17285 0.0
H551 H 0.85781 0.0716 0.18558 0.0
H552 H 0.9005 0.98237 0.2249 0.0
H553 H 0.89138 0.97035 0.2868 0.0
H554 H 0.89567 0.94572 0.22145 0.0
H555 H 0.8864 0.93391 0.28218 0.0
H556 H 0.95398 0.00944 0.20586 0.0
H557 H 0.92735 0.06223 0.18285 0.0
H558 H 0.81695 0.94897 0.28086 0.0
H559 H 0.83526 0.94631 0.22139 0.0
Li560 Li 0.28138 0.144 0.5549 0.0
Li561 Li 0.26876 0.11873 0.53257 0.0
Li562 Li 0.30436 0.1241 0.54338 0.0
Li563 Li 0.29075 0.14874 0.52023 0.0
C564 C 0.27568 0.11125 0.57858 0.0
N565 N 0.26533 0.10612 0.61747 0.0
C566 C 0.257 0.10096 0.58388 0.0
C567 C 0.28924 0.1186 0.59312 0.0
C568 C 0.25201 0.0986 0.6036 0.0
C569 C 0.2837 0.11596 0.61268 0.0
C570 C 0.24925 0.15041 0.51699 0.0
C571 C 0.23559 0.14662 0.48419 0.0
N572 N 0.22042 0.15729 0.48801 0.0
C573 C 0.23351 0.16129 0.52061 0.0
C574 C 0.2503 0.14296 0.49866 0.0
C575 C 0.21909 0.16463 0.50576 0.0
C576 C 0.28665 0.17225 0.58388 0.0
N577 N 0.27344 0.158 0.57575 0.0
C578 C 0.24728 0.16458 0.59612 0.0
C579 C 0.25408 0.15398 0.58156 0.0
C580 C 0.26044 0.17969 0.60461 0.0
C581 C 0.28044 0.18333 0.5984 0.0
H582 H 0.30189 0.17529 0.57879 0.0
H583 H 0.24387 0.14265 0.57471 0.0
C584 C 0.2448 0.08833 0.51121 0.0
N585 N 0.24527 0.10099 0.52576 0.0
C586 C 0.22711 0.07601 0.50672 0.0
C587 C 0.21034 0.09066 0.53153 0.0
C588 C 0.22841 0.10258 0.53564 0.0
C589 C 0.20959 0.07702 0.517 0.0
H590 H 0.25798 0.0879 0.50281 0.0
H591 H 0.229 0.11323 0.5467 0.0
C592 C 0.3285 0.15776 0.54614 0.0
N593 N 0.37001 0.16444 0.55027 0.0
C594 C 0.34019 0.16378 0.52977 0.0
C595 C 0.3379 0.15539 0.56464 0.0
C596 C 0.36116 0.16703 0.53215 0.0
C597 C 0.3589 0.15876 0.56641 0.0
C598 C 0.2966 0.10211 0.51061 0.0
C599 C 0.29399 0.08514 0.52392 0.0
C600 C 0.30307 0.10027 0.49179 0.0
C601 C 0.29789 0.06661 0.51814 0.0
C602 C 0.30678 0.08146 0.48656 0.0
N603 N 0.30414 0.06517 0.49974 0.0
C604 C 0.32791 0.09724 0.56547 0.0
C605 C 0.34242 0.11239 0.53609 0.0
C606 C 0.34375 0.08556 0.56889 0.0
N607 N 0.32751 0.11028 0.54926 0.0
C608 C 0.35863 0.10115 0.53902 0.0
C609 C 0.35935 0.08728 0.55549 0.0
H610 H 0.31561 0.09538 0.57542 0.0
H611 H 0.34148 0.12249 0.52306 0.0
C612 C 0.28672 0.18539 0.49853 0.0
N613 N 0.2948 0.16787 0.49828 0.0
C614 C 0.28794 0.19929 0.4822 0.0
C615 C 0.30633 0.17711 0.46586 0.0
C616 C 0.3046 0.16355 0.48247 0.0
C617 C 0.29772 0.19516 0.4655 0.0
H618 H 0.27901 0.1884 0.51134 0.0
H619 H 0.31086 0.14949 0.4827 0.0
O620 O 0.28072 0.11401 0.5593 0.0
O621 O 0.26339 0.14694 0.53146 0.0
O622 O 0.30796 0.15421 0.54404 0.0
O623 O 0.29338 0.12054 0.51605 0.0
H624 H 0.24648 0.09478 0.57291 0.0
H625 H 0.30381 0.12643 0.5893 0.0
H626 H 0.23756 0.09075 0.60788 0.0
H627 H 0.29398 0.12175 0.62404 0.0
H628 H 0.23623 0.14096 0.46994 0.0
H629 H 0.23247 0.16708 0.53476 0.0
H630 H 0.26232 0.13442 0.49561 0.0
H631 H 0.20682 0.17304 0.50834 0.0
H632 H 0.23183 0.161 0.60061 0.0
H633 H 0.29106 0.19502 0.60424 0.0
H634 H 0.22704 0.06605 0.49508 0.0
H635 H 0.19717 0.09194 0.53979 0.0
H636 H 0.3332 0.16573 0.51536 0.0
H637 H 0.3291 0.15096 0.5775 0.0
H638 H 0.3704 0.17156 0.51959 0.0
H639 H 0.36638 0.15686 0.58063 0.0
H640 H 0.289 0.08619 0.53855 0.0
H641 H 0.30522 0.11323 0.48131 0.0
H642 H 0.29594 0.05337 0.5283 0.0
H643 H 0.31178 0.07983 0.47204 0.0
H644 H 0.34336 0.07481 0.58157 0.0
H645 H 0.37036 0.1032 0.52837 0.0
H646 H 0.28131 0.21312 0.48263 0.0
H647 H 0.31384 0.17326 0.45325 0.0
Li648 Li 0.39577 0.51443 0.7791 0.0
Li649 Li 0.37312 0.53806 0.76188 0.0
Li650 Li 0.36923 0.50063 0.75779 0.0
Li651 Li 0.39686 0.52204 0.74411 0.0
C652 C 0.36481 0.51382 0.80166 0.0
N653 N 0.36355 0.51233 0.84204 0.0
C654 C 0.3621 0.531 0.81091 0.0
C655 C 0.36668 0.49583 0.81297 0.0
C656 C 0.36154 0.52995 0.83133 0.0
C657 C 0.36608 0.4954 0.83335 0.0
C658 C 0.42021 0.55196 0.75939 0.0
C659 C 0.4384 0.58111 0.74251 0.0
N660 N 0.45594 0.57312 0.74664 0.0
C661 C 0.4384 0.54407 0.76355 0.0
C662 C 0.42016 0.57065 0.74885 0.0
C663 C 0.45631 0.55499 0.75694 0.0
C664 C 0.421 0.49412 0.80642 0.0
N665 N 0.41175 0.51094 0.80252 0.0
C666 C 0.42554 0.52411 0.83221 0.0
C667 C 0.41399 0.52593 0.81485 0.0
C668 C 0.435 0.50674 0.83683 0.0
C669 C 0.43265 0.49164 0.82364 0.0
H670 H 0.41953 0.48271 0.7961 0.0
H671 H 0.40673 0.5393 0.8112 0.0
C672 C 0.3402 0.56087 0.75852 0.0
N673 N 0.35989 0.56108 0.76433 0.0
C674 C 0.3301 0.57746 0.76076 0.0
C675 C 0.36066 0.59401 0.77519 0.0
C676 C 0.3702 0.57717 0.77253 0.0
C677 C 0.3403 0.59435 0.76928 0.0
H678 H 0.33237 0.54779 0.75212 0.0
H679 H 0.38577 0.57676 0.77733 0.0
C680 C 0.39513 0.47572 0.75581 0.0
N681 N 0.38805 0.43536 0.74943 0.0
C682 C 0.39694 0.46943 0.73708 0.0
C683 C 0.38971 0.46143 0.77128 0.0
C684 C 0.39334 0.44897 0.73417 0.0
C685 C 0.38617 0.44112 0.76775 0.0
C686 C 0.36712 0.52967 0.71811 0.0
C687 C 0.37135 0.51677 0.70426 0.0
C688 C 0.36229 0.54885 0.71185 0.0
C689 C 0.37076 0.5233 0.68438 0.0
C690 C 0.36182 0.55481 0.69183 0.0
N691 N 0.36604 0.54202 0.67863 0.0
C692 C 0.33796 0.47019 0.76984 0.0
C693 C 0.3475 0.46931 0.73707 0.0
C694 C 0.3244 0.45279 0.76832 0.0
N695 N 0.3494 0.47789 0.75443 0.0
C696 C 0.33429 0.4518 0.73495 0.0
C697 C 0.32261 0.44316 0.75077 0.0
H698 H 0.33948 0.47744 0.78339 0.0
H699 H 0.35664 0.4757 0.725 0.0
C700 C 0.42975 0.51442 0.72257 0.0
N701 N 0.41563 0.52721 0.72319 0.0
C702 C 0.44356 0.51699 0.70759 0.0
C703 C 0.4289 0.5466 0.69474 0.0
C704 C 0.41534 0.54342 0.70996 0.0
C705 C 0.4431 0.53312 0.69327 0.0
H706 H 0.43036 0.50222 0.73379 0.0
H707 H 0.40457 0.5539 0.71117 0.0
O708 O 0.36584 0.51467 0.78169 0.0
O709 O 0.40248 0.54124 0.76526 0.0
O710 O 0.39826 0.49575 0.75892 0.0
O711 O 0.36751 0.52356 0.73766 0.0
H712 H 0.36056 0.54503 0.80245 0.0
H713 H 0.36881 0.4824 0.80611 0.0
H714 H 0.35954 0.54316 0.83867 0.0
H715 H 0.36767 0.48162 0.84227 0.0
H716 H 0.4386 0.59553 0.73423 0.0
H717 H 0.43863 0.52956 0.7716 0.0
H718 H 0.40616 0.57686 0.74537 0.0
H719 H 0.4705 0.54903 0.75995 0.0
H720 H 0.42685 0.53607 0.842 0.0
H721 H 0.44002 0.47819 0.82642 0.0
H722 H 0.31451 0.57709 0.75573 0.0
H723 H 0.36907 0.60646 0.78215 0.0
H724 H 0.4007 0.48021 0.72481 0.0
H725 H 0.38795 0.46596 0.7858 0.0
H726 H 0.3946 0.44393 0.71974 0.0
H727 H 0.38184 0.42994 0.77958 0.0
H728 H 0.37552 0.50206 0.70881 0.0
H729 H 0.35908 0.5591 0.72232 0.0
H730 H 0.37417 0.51352 0.67353 0.0
H731 H 0.35816 0.56963 0.68679 0.0
H732 H 0.31541 0.44699 0.78078 0.0
H733 H 0.33367 0.44486 0.72121 0.0
H734 H 0.45462 0.50656 0.70735 0.0
H735 H 0.42802 0.55928 0.68407 0.0
Li736 Li 0.77236 0.40822 0.50218 0.0
Li737 Li 0.7555 0.38091 0.52375 0.0
Li738 Li 0.7509 0.38205 0.48679 0.0
Li739 Li 0.73482 0.40492 0.50558 0.0
C740 C 0.79588 0.37924 0.50243 0.0
N741 N 0.83718 0.38049 0.50039 0.0
C742 C 0.80742 0.37403 0.51912 0.0
C743 C 0.80531 0.3848 0.48465 0.0
C744 C 0.82829 0.37483 0.5178 0.0
C745 C 0.82622 0.38543 0.48393 0.0
C746 C 0.75414 0.41559 0.54421 0.0
C747 C 0.73319 0.41583 0.57197 0.0
N748 N 0.74878 0.4263 0.58154 0.0
C749 C 0.76987 0.42657 0.55423 0.0
C750 C 0.7356 0.41034 0.55308 0.0
C751 C 0.7669 0.43176 0.57312 0.0
C752 C 0.79987 0.43991 0.48474 0.0
N753 N 0.79644 0.4265 0.50054 0.0
C754 C 0.82809 0.43846 0.51545 0.0
C755 C 0.81004 0.42561 0.51577 0.0
C756 C 0.83213 0.45254 0.49936 0.0
C757 C 0.81772 0.45314 0.48383 0.0
H758 H 0.7887 0.44042 0.4729 0.0
H759 H 0.80689 0.41481 0.52817 0.0
C760 C 0.74871 0.3456 0.54951 0.0
N761 N 0.75863 0.36451 0.5474 0.0
C762 C 0.75092 0.33358 0.56692 0.0
C763 C 0.77388 0.36058 0.57941 0.0
C764 C 0.77125 0.37202 0.56179 0.0
C765 C 0.76361 0.34108 0.5822 0.0
H766 H 0.73909 0.33984 0.53766 0.0
H767 H 0.77943 0.38686 0.55953 0.0
C768 C 0.74652 0.4144 0.46201 0.0
N769 N 0.7373 0.41916 0.42235 0.0
C770 C 0.72727 0.41847 0.45547 0.0
C771 C 0.76115 0.413 0.44838 0.0
C772 C 0.72289 0.42078 0.43535 0.0
C773 C 0.75617 0.41537 0.4284 0.0
C774 C 0.71126 0.36654 0.51158 0.0
C775 C 0.69802 0.35961 0.49661 0.0
C776 C 0.7049 0.36432 0.5309 0.0
C777 C 0.67848 0.35108 0.50114 0.0
C778 C 0.68525 0.35569 0.53485 0.0
N779 N 0.67254 0.34934 0.52 0.0
C780 C 0.76187 0.35304 0.46318 0.0
C781 C 0.732 0.36648 0.452 0.0
C782 C 0.76032 0.34056 0.44775 0.0
N783 N 0.74786 0.36571 0.465 0.0
C784 C 0.72983 0.35424 0.43636 0.0
C785 C 0.74409 0.34101 0.43409 0.0
H786 H 0.77417 0.35243 0.47386 0.0
H787 H 0.72095 0.37653 0.4538 0.0
C788 C 0.71614 0.43745 0.51601 0.0
N789 N 0.71238 0.41966 0.50767 0.0
C790 C 0.7004 0.44851 0.51912 0.0
C791 C 0.67727 0.4233 0.50406 0.0
C792 C 0.69346 0.41265 0.50138 0.0
C793 C 0.68061 0.44136 0.5133 0.0
H794 H 0.73138 0.44296 0.52047 0.0
H795 H 0.69087 0.39881 0.49428 0.0
O796 O 0.77546 0.37891 0.50351 0.0
O797 O 0.75687 0.41029 0.52571 0.0
O798 O 0.75104 0.41199 0.48165 0.0
O799 O 0.7305 0.37486 0.50738 0.0
H800 H 0.80036 0.36956 0.53296 0.0
H801 H 0.7966 0.3887 0.47157 0.0
H802 H 0.83742 0.37096 0.53063 0.0
H803 H 0.83373 0.38985 0.4703 0.0
H804 H 0.7189 0.41184 0.579 0.0
H805 H 0.78426 0.43101 0.54753 0.0
H806 H 0.72309 0.4024 0.54535 0.0
H807 H 0.77899 0.44015 0.58108 0.0
H808 H 0.83884 0.4372 0.52762 0.0
H809 H 0.82006 0.46393 0.47126 0.0
H810 H 0.74298 0.31852 0.56828 0.0
H811 H 0.78371 0.36707 0.59079 0.0
H812 H 0.7158 0.41973 0.4658 0.0
H813 H 0.77616 0.41003 0.45318 0.0
H814 H 0.70803 0.42383 0.43009 0.0
H815 H 0.76731 0.41419 0.41769 0.0
H816 H 0.7027 0.36095 0.48162 0.0
H817 H 0.71507 0.36895 0.54279 0.0
H818 H 0.66805 0.34582 0.48965 0.0
H819 H 0.68014 0.35396 0.54973 0.0
H820 H 0.77149 0.33037 0.44678 0.0
H821 H 0.71718 0.35524 0.42609 0.0
H822 H 0.70372 0.46256 0.52594 0.0
H823 H 0.66226 0.41724 0.49933 0.0
Li824 Li 0.6529 0.97466 0.79037 0.0
Li825 Li 0.63012 0.99666 0.80239 0.0
Li826 Li 0.62895 0.98938 0.7666 0.0
Li827 Li 0.65664 0.01176 0.78084 0.0
C828 C 0.61549 0.95081 0.79408 0.0
N829 N 0.60064 0.91083 0.80168 0.0
C830 C 0.60953 0.94354 0.81291 0.0
C831 C 0.61353 0.93783 0.77903 0.0
C832 C 0.60216 0.92326 0.81649 0.0
C833 C 0.60609 0.91765 0.78319 0.0
C834 C 0.66259 0.99929 0.82685 0.0
C835 C 0.66432 0.01922 0.8547 0.0
N836 N 0.66765 0.00276 0.86671 0.0
C837 C 0.66618 0.98261 0.83945 0.0
C838 C 0.6618 0.01779 0.8345 0.0
C839 C 0.66866 0.98466 0.85956 0.0
C840 C 0.68607 0.95411 0.78683 0.0
N841 N 0.6683 0.95253 0.79607 0.0
C842 C 0.67484 0.92118 0.8127 0.0
C843 C 0.66256 0.93651 0.80891 0.0
C844 C 0.69324 0.92232 0.8032 0.0
C845 C 0.6987 0.93909 0.79003 0.0
H846 H 0.69051 0.96714 0.77695 0.0
H847 H 0.64871 0.9358 0.81659 0.0
C848 C 0.60199 0.01684 0.81941 0.0
N849 N 0.61399 1.00204 0.82341 0.0
C850 C 0.59082 0.02289 0.83409 0.0
C851 C 0.60373 0.99774 0.85672 0.0
C852 C 0.61478 0.99224 0.84157 0.0
C853 C 0.59178 0.01348 0.85311 0.0
H854 H 0.60117 0.02411 0.80481 0.0
H855 H 0.62424 0.98037 0.84442 0.0
C856 C 0.66274 0.98166 0.74731 0.0
N857 N 0.67143 0.96611 0.713 0.0
C858 C 0.67234 0.99418 0.73232 0.0
C859 C 0.65785 0.96118 0.74496 0.0
C860 C 0.67651 0.98605 0.71504 0.0
C861 C 0.6623 0.95361 0.72749 0.0
C862 C 0.6277 0.03516 0.77276 0.0
C863 C 0.6219 0.04135 0.75362 0.0
C864 C 0.63383 0.04955 0.78608 0.0
C865 C 0.62269 0.06187 0.748 0.0
C866 C 0.63445 0.06992 0.7799 0.0
N867 N 0.62893 0.07561 0.76114 0.0
C868 C 0.59343 0.97484 0.74558 0.0
C869 C 0.61841 0.9942 0.72619 0.0
C870 C 0.58044 0.97263 0.72918 0.0
N871 N 0.61202 0.98544 0.74379 0.0
C872 C 0.60595 0.99236 0.70942 0.0
C873 C 0.58662 0.98153 0.71077 0.0
H874 H 0.58858 0.96829 0.75981 0.0
H875 H 0.63297 0.00312 0.72524 0.0
C876 C 0.68901 0.04135 0.78928 0.0
N877 N 0.67538 0.03504 0.77516 0.0
C878 C 0.70207 0.05906 0.78589 0.0
C879 C 0.68708 0.06325 0.75332 0.0
C880 C 0.67443 0.04537 0.7573 0.0
C881 C 0.70102 0.07039 0.76779 0.0
H882 H 0.6896 0.03275 0.80328 0.0
H883 H 0.6636 0.03988 0.74625 0.0
O884 O 0.62266 0.97066 0.79032 0.0
O885 O 0.66003 0.99754 0.80712 0.0
O886 O 0.65844 0.98941 0.76428 0.0
O887 O 0.62737 0.01513 0.77845 0.0
H888 H 0.61072 0.95341 0.82467 0.0
H889 H 0.6175 0.94329 0.76425 0.0
H890 H 0.59764 0.91741 0.83103 0.0
H891 H 0.60457 0.90742 0.77169 0.0
H892 H 0.66362 0.03341 0.86082 0.0
H893 H 0.66695 0.96822 0.83381 0.0
H894 H 0.6592 0.03089 0.82498 0.0
H895 H 0.67135 0.97184 0.86949 0.0
H896 H 0.67015 0.90879 0.82327 0.0
H897 H 0.71256 0.94059 0.78212 0.0
H898 H 0.58145 0.03479 0.83056 0.0
H899 H 0.60492 0.99011 0.87119 0.0
H900 H 0.67641 0.01003 0.73396 0.0
H901 H 0.65091 0.9512 0.75658 0.0
H902 H 0.68381 0.9956 0.70327 0.0
H903 H 0.65855 0.93779 0.72547 0.0
H904 H 0.61691 0.03046 0.74317 0.0
H905 H 0.63819 0.04503 0.80099 0.0
H906 H 0.61836 0.06687 0.73319 0.0
H907 H 0.63932 0.08121 0.79002 0.0
H908 H 0.56573 0.96404 0.7309 0.0
H909 H 0.61121 0.99986 0.69565 0.0
H910 H 0.71252 0.0641 0.79748 0.0
H911 H 0.68598 0.07137 0.73908 0.0
Li912 Li 0.02874 0.27355 0.88605 0.0
Li913 Li 0.00986 0.28627 0.91332 0.0
Li914 Li 0.01299 0.25071 0.91188 0.0
Li915 Li 0.99207 0.26708 0.88807 0.0
C916 C 0.04712 0.26741 0.93037 0.0
N917 N 0.07076 0.25515 0.96207 0.0
C918 C 0.04608 0.27551 0.94839 0.0
C919 C 0.06043 0.2533 0.92841 0.0
C920 C 0.0581 0.26907 0.96425 0.0
C921 C 0.07217 0.24722 0.94463 0.0
C922 C 0.9957 0.30453 0.87395 0.0
C923 C 0.96642 0.32225 0.87228 0.0
N924 N 0.96766 0.32482 0.85245 0.0
C925 C 0.99675 0.30741 0.85357 0.0
C926 C 0.98046 0.31204 0.88342 0.0
C927 C 0.98241 0.31769 0.84296 0.0
C928 C 0.0464 0.27847 0.84926 0.0
N929 N 0.05056 0.27857 0.86883 0.0
C930 C 0.08596 0.28236 0.86357 0.0
C931 C 0.06984 0.2806 0.87617 0.0
C932 C 0.08211 0.28226 0.84327 0.0
C933 C 0.06205 0.28052 0.83611 0.0
H934 H 0.03091 0.27631 0.84391 0.0
H935 H 0.07267 0.28043 0.89183 0.0
C936 C 0.99717 0.30459 0.94543 0.0
N937 N 0.0089 0.30772 0.92948 0.0
C938 C 0.99566 0.32023 0.95726 0.0
C939 C 0.01857 0.34195 0.93618 0.0
C940 C 0.01956 0.32589 0.92469 0.0
C941 C 0.0064 0.33925 0.95266 0.0
H942 H 0.989 0.28993 0.94894 0.0
H943 H 0.02869 0.32793 0.91185 0.0
C944 C 0.01769 0.23305 0.87447 0.0
N945 N 0.03084 0.20178 0.85681 0.0
C946 C 0.00407 0.2202 0.86389 0.0
C947 C 0.03798 0.22996 0.87608 0.0
C948 C 0.01101 0.20448 0.85508 0.0
C949 C 0.04434 0.21409 0.86703 0.0
C950 C 0.97277 0.24845 0.92106 0.0
C951 C 0.96997 0.2313 0.91056 0.0
C952 C 0.95949 0.25043 0.9358 0.0
C953 C 0.95397 0.21642 0.91502 0.0
C954 C 0.94366 0.23521 0.93981 0.0
N955 N 0.94125 0.21866 0.92943 0.0
C956 C 0.0174 0.22816 0.94805 0.0
C957 C 0.015 0.20835 0.92086 0.0
C958 C 0.02028 0.21144 0.96085 0.0
N959 N 0.01547 0.2265 0.92839 0.0
C960 C 0.01738 0.19115 0.93316 0.0
C961 C 0.02039 0.19268 0.95337 0.0
H962 H 0.01681 0.24253 0.9538 0.0
H963 H 0.01266 0.20704 0.90536 0.0
C964 C 0.97061 0.25989 0.853 0.0
N965 N 0.96835 0.26434 0.87169 0.0
C966 C 0.95391 0.25732 0.84017 0.0
C967 C 0.93288 0.26441 0.86595 0.0
C968 C 0.95002 0.26685 0.8783 0.0
C969 C 0.93468 0.25946 0.84661 0.0
H970 H 0.98543 0.25826 0.84809 0.0
H971 H 0.94871 0.27077 0.89314 0.0
O972 O 0.03533 0.27345 0.91472 0.0
O973 O 0.00914 0.29391 0.88457 0.0
O974 O 0.01108 0.24853 0.88315 0.0
O975 O 0.98832 0.26331 0.917 0.0
H976 H 0.036 0.28653 0.95018 0.0
H977 H 0.06159 0.24696 0.9146 0.0
H978 H 0.05734 0.27512 0.9783 0.0
H979 H 0.0824 0.23618 0.94336 0.0
H980 H 0.95448 0.32804 0.87939 0.0
H981 H 0.0084 0.30165 0.84602 0.0
H982 H 0.97931 0.30974 0.89916 0.0
H983 H 0.98297 0.31995 0.82717 0.0
H984 H 0.10125 0.28378 0.86961 0.0
H985 H 0.05851 0.28014 0.82057 0.0
H986 H 0.98633 0.31741 0.96997 0.0
H987 H 0.02693 0.3564 0.93198 0.0
H988 H 0.98827 0.22224 0.86262 0.0
H989 H 0.04871 0.23969 0.8842 0.0
H990 H 1.00063 0.1944 0.84688 0.0
H991 H 0.06002 0.21156 0.86815 0.0
H992 H 0.97996 0.22945 0.89907 0.0
H993 H 0.96133 0.26361 0.94403 0.0
H994 H 0.95166 0.20309 0.907 0.0
H995 H 0.93327 0.23657 0.95117 0.0
H996 H 0.02214 0.21309 0.97643 0.0
H997 H 0.01721 0.17686 0.9269 0.0
H998 H 0.95602 0.25332 0.82548 0.0
H999 H 0.91841 0.26654 0.87143 0.0
Li1000 Li 0.53139 0.77615 0.38759 0.0
Li1001 Li 0.51144 0.78951 0.41157 0.0
Li1002 Li 0.51551 0.75368 0.41327 0.0
Li1003 Li 0.49461 0.76903 0.38734 0.0
C1004 C 0.54798 0.77088 0.43193 0.0
N1005 N 0.56967 0.75753 0.46458 0.0
C1006 C 0.54687 0.77938 0.44972 0.0
C1007 C 0.56016 0.75561 0.43074 0.0
C1008 C 0.55796 0.77244 0.46606 0.0
C1009 C 0.57098 0.74905 0.44741 0.0
C1010 C 0.51185 0.81552 0.38117 0.0
C1011 C 0.49591 0.84547 0.38324 0.0
N1012 N 0.51397 0.85684 0.38031 0.0
C1013 C 0.53025 0.8275 0.37815 0.0
C1014 C 0.49451 0.82455 0.38368 0.0
C1015 C 0.53101 0.84837 0.37775 0.0
C1016 C 0.55031 0.78744 0.35178 0.0
N1017 N 0.5538 0.78103 0.37081 0.0
C1018 C 0.58822 0.77848 0.3646 0.0
C1019 C 0.57236 0.77687 0.37747 0.0
C1020 C 0.58498 0.78465 0.34475 0.0
C1021 C 0.56578 0.78941 0.33843 0.0
H1022 H 0.53535 0.79054 0.34689 0.0
H1023 H 0.57478 0.77195 0.39267 0.0
C1024 C 0.49205 0.8128 0.43581 0.0
N1025 N 0.50956 0.8117 0.42681 0.0
C1026 C 0.49017 0.82887 0.44696 0.0
C1027 C 0.52449 0.84229 0.43963 0.0
C1028 C 0.52567 0.82598 0.42855 0.0
C1029 C 0.50653 0.84391 0.44901 0.0
H1030 H 0.47957 0.80112 0.43442 0.0
H1031 H 0.53947 0.82466 0.42134 0.0
C1032 C 0.52307 0.74301 0.36985 0.0
N1033 N 0.54174 0.73086 0.33845 0.0
C1034 C 0.51516 0.74636 0.35083 0.0
C1035 C 0.54041 0.73339 0.37292 0.0
C1036 C 0.52482 0.7401 0.33514 0.0
C1037 C 0.54965 0.7274 0.35684 0.0
C1038 C 0.47079 0.75885 0.41681 0.0
C1039 C 0.46512 0.73853 0.42233 0.0
C1040 C 0.45598 0.77134 0.41129 0.0
C1041 C 0.44468 0.731 0.42211 0.0
C1042 C 0.43571 0.76322 0.41122 0.0
N1043 N 0.43053 0.74339 0.41659 0.0
C1044 C 0.518 0.73124 0.44996 0.0
C1045 C 0.51895 0.71247 0.42234 0.0
C1046 C 0.52059 0.71435 0.46261 0.0
N1047 N 0.51772 0.73011 0.43025 0.0
C1048 C 0.52118 0.69509 0.43444 0.0
C1049 C 0.52231 0.69589 0.45492 0.0
H1050 H 0.51654 0.74538 0.45586 0.0
H1051 H 0.51814 0.71186 0.40662 0.0
C1052 C 0.46487 0.77874 0.35843 0.0
N1053 N 0.47146 0.76379 0.37062 0.0
C1054 C 0.44845 0.77456 0.3455 0.0
C1055 C 0.44593 0.73971 0.35802 0.0
C1056 C 0.46245 0.74454 0.37059 0.0
C1057 C 0.43879 0.75478 0.34511 0.0
H1058 H 0.47258 0.79383 0.35847 0.0
H1059 H 0.46823 0.73291 0.38026 0.0
O1060 O 0.53714 0.77741 0.4158 0.0
O1061 O 0.51088 0.79505 0.38205 0.0
O1062 O 0.51419 0.74958 0.38534 0.0
O1063 O 0.49074 0.76644 0.41662 0.0
H1064 H 0.53744 0.79111 0.45098 0.0
H1065 H 0.56091 0.74857 0.41721 0.0
H1066 H 0.5572 0.77885 0.47993 0.0
H1067 H 0.58032 0.73713 0.44674 0.0
H1068 H 0.48265 0.85265 0.3853 0.0
H1069 H 0.54384 0.82075 0.37634 0.0
H1070 H 0.4802 0.81548 0.38624 0.0
H1071 H 0.54516 0.85783 0.3755 0.0
H1072 H 0.60288 0.77495 0.37012 0.0
H1073 H 0.5626 0.79407 0.32323 0.0
H1074 H 0.47616 0.82933 0.45418 0.0
H1075 H 0.53741 0.85362 0.44067 0.0
H1076 H 0.50186 0.75394 0.34815 0.0
H1077 H 0.54684 0.73086 0.38753 0.0
H1078 H 0.51893 0.74268 0.32033 0.0
H1079 H 0.56317 0.72009 0.35899 0.0
H1080 H 0.47635 0.72863 0.42661 0.0
H1081 H 0.46011 0.78706 0.40678 0.0
H1082 H 0.44008 0.71528 0.42627 0.0
H1083 H 0.42411 0.77267 0.40683 0.0
H1084 H 0.52159 0.7159 0.47822 0.0
H1085 H 0.52185 0.68118 0.42777 0.0
H1086 H 0.44373 0.78661 0.3356 0.0
H1087 H 0.43884 0.72431 0.35844 0.0
Li1088 Li 0.01635 0.77756 0.63748 0.0
Li1089 Li 0.99296 0.76076 0.66209 0.0
Li1090 Li 0.02998 0.7567 0.66387 0.0
Li1091 Li 0.00755 0.73997 0.63939 0.0
C1092 C 0.01997 0.80162 0.66667 0.0
N1093 N 0.02637 0.84296 0.66707 0.0
C1094 C 0.00421 0.81226 0.67084 0.0
C1095 C 0.03904 0.81197 0.66296 0.0
C1096 C 0.00774 0.83316 0.67092 0.0
C1097 C 0.04195 0.83288 0.66314 0.0
C1098 C 0.9705 0.75929 0.62559 0.0
C1099 C 0.93914 0.73857 0.61935 0.0
N1100 N 0.93147 0.75482 0.61024 0.0
C1101 C 0.96239 0.77572 0.61592 0.0
C1102 C 0.95886 0.74051 0.62712 0.0
C1103 C 0.9426 0.77319 0.60837 0.0
C1104 C 0.03705 0.80206 0.60745 0.0
N1105 N 0.02155 0.80092 0.61984 0.0
C1106 C 0.01347 0.83315 0.60692 0.0
C1107 C 0.00968 0.81592 0.61968 0.0
C1108 C 0.0295 0.83486 0.59401 0.0
C1109 C 0.04132 0.81895 0.59437 0.0
H1110 H 0.04604 0.78977 0.60762 0.0
H1111 H 0.99729 0.81455 0.62953 0.0
C1112 C 0.96945 0.7551 0.6958 0.0
N1113 N 0.97018 0.76354 0.67708 0.0
C1114 C 0.9534 0.75731 0.70753 0.0
C1115 C 0.93924 0.77707 0.68057 0.0
C1116 C 0.95557 0.77448 0.66939 0.0
C1117 C 0.938 0.76847 0.69996 0.0
H1118 H 0.98147 0.74679 0.70169 0.0
H1119 H 0.95674 0.78155 0.6547 0.0
C1120 C 0.05365 0.75273 0.63444 0.0
N1121 N 0.09322 0.74507 0.63355 0.0
C1122 C 0.05802 0.73371 0.63052 0.0
C1123 C 0.06941 0.76792 0.63766 0.0
C1124 C 0.07812 0.73012 0.63018 0.0
C1125 C 0.08931 0.76373 0.63724 0.0
C1126 C 0.99768 0.71747 0.67556 0.0
C1127 C 0.00961 0.70359 0.68477 0.0
C1128 C 0.97679 0.71245 0.67409 0.0
C1129 C 1.00048 0.68473 0.69193 0.0
C1130 C 0.96822 0.69345 0.68145 0.0
N1131 N 0.98015 0.68009 0.69011 0.0
C1132 C 0.05934 0.76856 0.69293 0.0
C1133 C 0.06217 0.73693 0.6812 0.0
C1134 C 0.07634 0.76707 0.70525 0.0
N1135 N 0.05273 0.75369 0.68111 0.0
C1136 C 0.07929 0.73485 0.6932 0.0
C1137 C 0.08667 0.75009 0.70541 0.0
H1138 H 0.0514 0.7816 0.69281 0.0
H1139 H 0.05653 0.72525 0.67176 0.0
C1140 C 0.99629 0.72095 0.60507 0.0
N1141 N 1.00283 0.71742 0.62394 0.0
C1142 C 0.99351 0.70542 0.59255 0.0
C1143 C 0.00438 0.68288 0.61906 0.0
C1144 C 0.00695 0.69886 0.63107 0.0
C1145 C 0.99766 0.68607 0.59947 0.0
H1146 H 0.99341 0.73593 0.59968 0.0
H1147 H 0.01278 0.69654 0.64588 0.0
O1148 O 0.01673 0.78117 0.66629 0.0
O1149 O 0.98989 0.76154 0.63302 0.0
O1150 O 0.03406 0.75645 0.63509 0.0
O1151 O 0.00641 0.73602 0.66853 0.0
H1152 H 0.9894 0.8045 0.67388 0.0
H1153 H 0.05142 0.80397 0.65985 0.0
H1154 H 0.99565 0.8416 0.67401 0.0
H1155 H 0.0566 0.84109 0.66015 0.0
H1156 H 0.92997 0.72412 0.62048 0.0
H1157 H 0.97124 0.79032 0.61437 0.0
H1158 H 0.96505 0.72749 0.63398 0.0
H1159 H 0.93609 0.78582 0.60099 0.0
H1160 H 0.00408 0.84508 0.60735 0.0
H1161 H 0.05357 0.81939 0.58445 0.0
H1162 H 0.95328 0.7507 0.72248 0.0
H1163 H 0.92769 0.78566 0.67404 0.0
H1164 H 0.04604 0.7218 0.62789 0.0
H1165 H 0.06631 0.78276 0.64057 0.0
H1166 H 0.08172 0.71543 0.62727 0.0
H1167 H 0.10164 0.77531 0.63984 0.0
H1168 H 0.02577 0.70729 0.68628 0.0
H1169 H 0.96724 0.72317 0.66757 0.0
H1170 H 0.00956 0.6738 0.69895 0.0
H1171 H 0.95207 0.68937 0.68035 0.0
H1172 H 0.0812 0.77901 0.71467 0.0
H1173 H 0.08684 0.72159 0.69264 0.0
H1174 H 0.98813 0.70855 0.57762 0.0
H1175 H 0.00815 0.66832 0.62491 0.0
Li1176 Li 0.51424 0.27517 0.13897 0.0
Li1177 Li 0.49276 0.25863 0.16241 0.0
Li1178 Li 0.52898 0.25514 0.16557 0.0
Li1179 Li 0.50516 0.23857 0.13876 0.0
C1180 C 0.52205 0.29935 0.16736 0.0
N1181 N 0.53518 0.34001 0.16666 0.0
C1182 C 0.50864 0.31339 0.16215 0.0
C1183 C 0.5421 0.30599 0.17238 0.0
C1184 C 0.51559 0.33388 0.16182 0.0
C1185 C 0.54845 0.32661 0.17191 0.0
C1186 C 0.46739 0.26033 0.13211 0.0
C1187 C 0.43372 0.24342 0.12777 0.0
N1188 N 0.42613 0.26091 0.12993 0.0
C1189 C 0.45927 0.27818 0.13413 0.0
C1190 C 0.45454 0.24282 0.12881 0.0
C1191 C 0.43837 0.27814 0.13305 0.0
C1192 C 0.50584 0.30302 0.10741 0.0
N1193 N 0.52014 0.29865 0.12123 0.0
C1194 C 0.5426 0.32697 0.10897 0.0
C1195 C 0.53832 0.31017 0.12215 0.0
C1196 C 0.52807 0.33193 0.09459 0.0
C1197 C 0.50947 0.31968 0.09392 0.0
H1198 H 0.49166 0.29343 0.10669 0.0
H1199 H 0.54959 0.30629 0.13305 0.0
C1200 C 0.47093 0.27615 0.1895 0.0
N1201 N 0.46991 0.26041 0.17813 0.0
C1202 C 0.45478 0.27849 0.20102 0.0
C1203 C 0.43693 0.24807 0.18937 0.0
C1204 C 0.45338 0.24639 0.17799 0.0
C1205 C 0.43745 0.26437 0.20102 0.0
H1206 H 0.48433 0.2869 0.18971 0.0
H1207 H 0.45291 0.23389 0.16901 0.0
C1208 C 0.54513 0.26186 0.12238 0.0
N1209 N 0.56989 0.2783 0.09244 0.0
C1210 C 0.538 0.26178 0.10292 0.0
C1211 C 0.56489 0.27014 0.12663 0.0
C1212 C 0.55074 0.27023 0.08799 0.0
C1213 C 0.57717 0.27841 0.11128 0.0
C1214 C 0.49477 0.22287 0.18242 0.0
C1215 C 0.49735 0.22896 0.20146 0.0
C1216 C 0.48083 0.2063 0.17853 0.0
C1217 C 0.48569 0.21848 0.21632 0.0
C1218 C 0.46948 0.19619 0.1938 0.0
N1219 N 0.47211 0.20246 0.21221 0.0
C1220 C 0.55256 0.25912 0.20039 0.0
C1221 C 0.56584 0.24067 0.17703 0.0
C1222 C 0.56902 0.25668 0.21318 0.0
N1223 N 0.55138 0.25129 0.18268 0.0
C1224 C 0.58255 0.2378 0.18939 0.0
C1225 C 0.58435 0.24591 0.20774 0.0
H1226 H 0.54078 0.26747 0.20449 0.0
H1227 H 0.56437 0.23445 0.16291 0.0
C1228 C 0.49247 0.21887 0.10492 0.0
N1229 N 0.50107 0.21636 0.12313 0.0
C1230 C 0.48998 0.20306 0.09272 0.0
C1231 C 0.50543 0.18244 0.11819 0.0
C1232 C 0.50753 0.19864 0.12995 0.0
C1233 C 0.49658 0.18456 0.09928 0.0
H1234 H 0.48772 0.23323 0.09981 0.0
H1235 H 0.51444 0.19716 0.14447 0.0
O1236 O 0.51555 0.27922 0.16769 0.0
O1237 O 0.48782 0.26003 0.13327 0.0
O1238 O 0.53277 0.25402 0.13721 0.0
O1239 O 0.50579 0.23311 0.16764 0.0
H1240 H 0.49307 0.30853 0.1583 0.0
H1241 H 0.55275 0.29538 0.17627 0.0
H1242 H 0.5054 0.3449 0.1577 0.0
H1243 H 0.56396 0.33196 0.17563 0.0
H1244 H 0.42359 0.22994 0.12536 0.0
H1245 H 0.46899 0.29188 0.13659 0.0
H1246 H 0.46053 0.22883 0.12739 0.0
H1247 H 0.43188 0.29182 0.1347 0.0
H1248 H 0.55707 0.33606 0.11016 0.0
H1249 H 0.49796 0.32272 0.08288 0.0
H1250 H 0.45597 0.29109 0.21004 0.0
H1251 H 0.42382 0.2369 0.18881 0.0
H1252 H 0.5227 0.25552 0.09943 0.0
H1253 H 0.57059 0.27041 0.14163 0.0
H1254 H 0.54538 0.27041 0.07287 0.0
H1255 H 0.59246 0.28499 0.11434 0.0
H1256 H 0.50806 0.2418 0.20466 0.0
H1257 H 0.47865 0.20144 0.16384 0.0
H1258 H 0.48741 0.22311 0.2311 0.0
H1259 H 0.45854 0.18341 0.191 0.0
H1260 H 0.56987 0.26344 0.22704 0.0
H1261 H 0.59381 0.22913 0.18469 0.0
H1262 H 0.48335 0.20545 0.07816 0.0
H1263 H 0.51056 0.1684 0.12389 0.0
H1264 H 0.22457 0.78981 0.82056 0.0
H1265 H 0.25655 0.80105 0.93343 0.0
H1266 H 0.24346 0.74139 0.85949 0.0
H1267 H 0.23064 0.84671 0.89613 0.0
H1268 H 0.25387 0.77968 0.90607 0.0
H1269 H 0.22887 0.8116 0.84756 0.0
C1270 C 0.22957 0.78372 0.8348 0.0
C1271 C 0.23351 0.76365 0.83775 0.0
C1272 C 0.2488 0.79439 0.90387 0.0
C1273 C 0.2387 0.78867 0.86877 0.0
C1274 C 0.25021 0.80657 0.91953 0.0
C1275 C 0.24374 0.82573 0.91715 0.0
C1276 C 0.24089 0.80138 0.88563 0.0
C1277 C 0.23604 0.83219 0.89863 0.0
C1278 C 0.23212 0.79622 0.85021 0.0
C1279 C 0.2404 0.75678 0.85646 0.0
N1280 N 0.2348 0.82004 0.88363 0.0
N1281 N 0.2427 0.76924 0.87126 0.0
H1282 H 0.01995 0.52651 0.45285 0.0
H1283 H 0.06951 0.54091 0.34789 0.0
H1284 H 0.02486 0.58234 0.41661 0.0
H1285 H 0.08066 0.49232 0.39049 0.0
H1286 H 0.05038 0.55475 0.37196 0.0
H1287 H 0.03981 0.51231 0.42942 0.0
C1288 C 0.02547 0.53588 0.44012 0.0
C1289 C 0.02128 0.55586 0.43692 0.0
C1290 C 0.057 0.54106 0.37607 0.0
C1291 C 0.04336 0.53948 0.40978 0.0
C1292 C 0.06778 0.53306 0.36229 0.0
C1293 C 0.07658 0.51537 0.36717 0.0
C1294 C 0.05481 0.53125 0.39489 0.0
C1295 C 0.07417 0.50604 0.38617 0.0
C1296 C 0.03673 0.52773 0.42673 0.0
C1297 C 0.02817 0.56704 0.41982 0.0
N1298 N 0.06341 0.51403 0.39933 0.0
N1299 N 0.03885 0.55871 0.40689 0.0
H1300 H 0.80027 0.74647 0.84515 0.0
H1301 H 0.7992 0.73512 0.96243 0.0
H1302 H 0.79732 0.79612 0.88053 0.0
H1303 H 0.79659 0.6849 0.92667 0.0
H1304 H 0.79971 0.75784 0.9327 0.0
H1305 H 0.80032 0.72386 0.87495 0.0
C1306 C 0.79972 0.75264 0.8592 0.0
C1307 C 0.7988 0.77324 0.86033 0.0
C1308 C 0.79905 0.74185 0.93136 0.0
C1309 C 0.79872 0.74738 0.89455 0.0
C1310 C 0.79866 0.72883 0.94834 0.0
C1311 C 0.79781 0.70801 0.94711 0.0
C1312 C 0.7986 0.73403 0.91294 0.0
C1313 C 0.79752 0.70083 0.9284 0.0
C1314 C 0.79964 0.7397 0.87621 0.0
C1315 C 0.79781 0.78032 0.87894 0.0
N1316 N 0.79788 0.7138 0.91209 0.0
N1317 N 0.79784 0.76743 0.8953 0.0
H1318 H 0.03367 1.0004 0.42153 0.0
H1319 H 0.92441 0.01322 0.37367 0.0
H1320 H 0.98032 0.99734 0.45537 0.0
H1321 H 0.97485 0.00314 0.34012 0.0
H1322 H 0.94517 0.00969 0.40371 0.0
H1323 H 0.01286 0.00355 0.39141 0.0
C1324 C 0.01753 1.00017 0.42257 0.0
C1325 C 0.00859 0.99808 0.4409 0.0
C1326 C 0.95169 0.00821 0.38978 0.0
C1327 C 0.98478 1.0022 0.40661 0.0
C1328 C 0.93988 0.01034 0.37263 0.0
C1329 C 0.94792 0.00848 0.35437 0.0
C1330 C 0.97175 0.00436 0.38868 0.0
C1331 C 0.96799 0.00449 0.3539 0.0
C1332 C 0.00567 1.00202 0.40541 0.0
C1333 C 0.98772 0.99851 0.44149 0.0
N1334 N 0.97924 0.00265 0.37079 0.0
N1335 N 0.97651 1.0005 0.42459 0.0
H1336 H 0.18894 0.24916 0.66929 0.0
H1337 H 0.28077 0.19462 0.63713 0.0
H1338 H 0.24941 0.26087 0.69341 0.0
H1339 H 0.22346 0.19326 0.60552 0.0
H1340 H 0.2688 0.21614 0.66006 0.0
H1341 H 0.20049 0.22563 0.64813 0.0
C1342 C 0.20461 0.24655 0.67028 0.0
C1343 C 0.21818 0.25664 0.68335 0.0
C1344 C 0.25885 0.21107 0.64812 0.0
C1345 C 0.23162 0.23001 0.65899 0.0
C1346 C 0.2657 0.19885 0.63495 0.0
C1347 C 0.25315 0.19209 0.61926 0.0
C1348 C 0.23926 0.21653 0.64569 0.0
C1349 C 0.23361 0.1978 0.61749 0.0
C1350 C 0.21123 0.23321 0.65815 0.0
C1351 C 0.23842 0.25308 0.68377 0.0
N1352 N 0.22731 0.20967 0.6305 0.0
N1353 N 0.24453 0.24001 0.67179 0.0
H1354 H 0.5244 0.58236 0.6016 0.0
H1355 H 0.45486 0.50413 0.67192 0.0
H1356 H 0.5134 0.51884 0.59406 0.0
H1357 H 0.46354 0.56814 0.67714 0.0
H1358 H 0.47767 0.50887 0.64453 0.0
H1359 H 0.50343 0.57711 0.63028 0.0
C1360 C 0.51752 0.56729 0.60595 0.0
C1361 C 0.52054 0.55104 0.59528 0.0
C1362 C 0.47462 0.52188 0.65168 0.0
C1363 C 0.49661 0.54487 0.62832 0.0
C1364 C 0.46168 0.51917 0.66741 0.0
C1365 C 0.45724 0.53577 0.67684 0.0
C1366 C 0.48324 0.54132 0.64534 0.0
C1367 C 0.4663 0.55494 0.67015 0.0
C1368 C 0.50561 0.56429 0.6224 0.0
C1369 C 0.5116 0.53179 0.60189 0.0
N1370 N 0.47884 0.55718 0.65482 0.0
N1371 N 0.49997 0.52925 0.61793 0.0
H1372 H 0.74474 0.2607 0.68738 0.0
H1373 H 0.79817 0.3382 0.60475 0.0
H1374 H 0.80559 0.28981 0.69325 0.0
H1375 H 0.73483 0.31578 0.6025 0.0
H1376 H 0.80173 0.3189 0.63618 0.0
H1377 H 0.74136 0.27898 0.65518 0.0
C1378 C 0.75735 0.27102 0.68185 0.0
C1379 C 0.77539 0.27402 0.69298 0.0
C1380 C 0.78705 0.31818 0.62881 0.0
C1381 C 0.77176 0.29477 0.6562 0.0
C1382 C 0.78497 0.32929 0.61089 0.0
C1383 C 0.76613 0.32874 0.60097 0.0
C1384 C 0.77018 0.30635 0.63692 0.0
C1385 C 0.74969 0.31653 0.60948 0.0
C1386 C 0.75544 0.28142 0.66351 0.0
C1387 C 0.79139 0.2873 0.68513 0.0
N1388 N 0.75209 0.30586 0.62697 0.0
N1389 N 0.78921 0.29722 0.66722 0.0
H1390 H 0.48365 0.98254 0.62957 0.0
H1391 H 0.59593 0.97604 0.67309 0.0
H1392 H 0.53408 0.97638 0.5942 0.0
H1393 H 0.5459 0.98394 0.70829 0.0
H1394 H 0.57331 0.97524 0.64417 0.0
H1395 H 0.50604 0.98236 0.65867 0.0
C1396 C 0.49945 0.98125 0.6279 0.0
C1397 C 0.50698 0.97951 0.60936 0.0
C1398 C 0.56726 0.9771 0.65823 0.0
C1399 C 0.5327 0.97907 0.64272 0.0
C1400 C 0.58019 0.97764 0.67475 0.0
C1401 C 0.57285 0.98012 0.69319 0.0
C1402 C 0.54678 0.97907 0.66008 0.0
C1403 C 0.55222 0.98178 0.69445 0.0
C1404 C 0.51221 0.98102 0.64455 0.0
C1405 C 0.52754 0.97752 0.60818 0.0
N1406 N 0.53995 0.98129 0.67813 0.0
N1407 N 0.53967 0.97739 0.6246 0.0
H1408 H 0.81652 0.22118 0.79607 0.0
H1409 H 0.93117 0.27096 0.80737 0.0
H1410 H 0.8527 0.24649 0.74728 0.0
H1411 H 0.89706 0.24039 0.85547 0.0
H1412 H 0.9019 0.26388 0.78544 0.0
H1413 H 0.84523 0.2297 0.81833 0.0
C1414 C 0.83052 0.22845 0.79001 0.0
C1415 C 0.83219 0.23304 0.76973 0.0
C1416 C 0.90079 0.25876 0.8008 0.0
C1417 C 0.86508 0.24309 0.79521 0.0
C1418 C 0.91755 0.26272 0.81333 0.0
C1419 C 0.91665 0.25617 0.83331 0.0
C1420 C 0.88295 0.24817 0.80826 0.0
C1421 C 0.89842 0.24591 0.84024 0.0
C1422 C 0.84688 0.23342 0.80276 0.0
C1423 C 0.85061 0.24284 0.7628 0.0
N1424 N 0.88233 0.24217 0.82773 0.0
N1425 N 0.86633 0.24749 0.7755 0.0
H1426 H 0.52774 0.93634 0.53121 0.0
H1427 H 0.47458 0.86554 0.45064 0.0
H1428 H 0.46986 0.94387 0.50355 0.0
H1429 H 0.53467 0.86129 0.47475 0.0
H1430 H 0.47198 0.89334 0.47083 0.0
H1431 H 0.52998 0.90785 0.51166 0.0
C1432 C 0.51554 0.93197 0.52095 0.0
C1433 C 0.49874 0.94259 0.51868 0.0
C1434 C 0.48574 0.88634 0.4717 0.0
C1435 C 0.50104 0.90996 0.49644 0.0
C1436 C 0.4872 0.87039 0.46025 0.0
C1437 C 0.50487 0.86104 0.46099 0.0
C1438 C 0.50204 0.89299 0.4841 0.0
C1439 C 0.52085 0.86819 0.47351 0.0
C1440 C 0.5168 0.91573 0.50981 0.0
C1441 C 0.48316 0.93617 0.50548 0.0
N1442 N 0.51904 0.88369 0.48459 0.0
N1443 N 0.48471 0.92031 0.4948 0.0
H1444 H 0.17112 0.32238 0.75621 0.0
H1445 H 0.11425 0.26067 0.84588 0.0
H1446 H 0.18344 0.26272 0.77686 0.0
H1447 H 0.08806 0.30683 0.80967 0.0
H1448 H 0.14189 0.2631 0.82305 0.0
H1449 H 0.14252 0.31883 0.77793 0.0
C1450 C 0.16774 0.30852 0.76533 0.0
C1451 C 0.17961 0.29282 0.76482 0.0
C1452 C 0.13005 0.27263 0.82009 0.0
C1453 C 0.14712 0.28872 0.78977 0.0
C1454 C 0.11439 0.27136 0.83316 0.0
C1455 C 0.09892 0.28361 0.82964 0.0
C1456 C 0.1304 0.28649 0.80359 0.0
C1457 C 0.09966 0.29706 0.81284 0.0
C1458 C 0.1514 0.30647 0.77763 0.0
C1459 C 0.17455 0.27511 0.77679 0.0
N1460 N 0.11523 0.29826 0.8005 0.0
N1461 N 0.15877 0.2736 0.78895 0.0
H1462 H 0.53475 0.61235 0.55613 0.0
H1463 H 0.54415 0.66501 0.4485 0.0
H1464 H 0.54389 0.579 0.50665 0.0
H1465 H 0.50749 0.68501 0.49172 0.0
H1466 H 0.54891 0.63542 0.47052 0.0
H1467 H 0.52972 0.64141 0.53363 0.0
C1468 C 0.53557 0.61101 0.54056 0.0
C1469 C 0.53954 0.59297 0.53335 0.0
C1470 C 0.53981 0.64632 0.47509 0.0
C1471 C 0.53437 0.62658 0.50754 0.0
C1472 C 0.53694 0.6632 0.46249 0.0
C1473 C 0.52534 0.67769 0.46814 0.0
C1474 C 0.53134 0.64404 0.49363 0.0
C1475 C 0.51688 0.67458 0.48676 0.0
C1476 C 0.5328 0.6277 0.52774 0.0
C1477 C 0.54108 0.59256 0.51298 0.0
N1478 N 0.52014 0.65818 0.49885 0.0
N1479 N 0.53855 0.60912 0.50079 0.0
H1480 H 0.84134 0.75292 0.78269 0.0
H1481 H 0.91934 0.80239 0.70154 0.0
H1482 H 0.83897 0.81169 0.75317 0.0
H1483 H 0.91768 0.74118 0.72653 0.0
H1484 H 0.89097 0.80664 0.72142 0.0
H1485 H 0.87059 0.74899 0.76361 0.0
C1486 C 0.847 0.76496 0.77212 0.0
C1487 C 0.8376 0.7825 0.76917 0.0
C1488 C 0.89681 0.79228 0.72256 0.0
C1489 C 0.87111 0.77827 0.74748 0.0
C1490 C 0.91296 0.78979 0.71111 0.0
C1491 C 0.92091 0.77135 0.71225 0.0
C1492 C 0.88851 0.77625 0.73533 0.0
C1493 C 0.91223 0.75573 0.72528 0.0
C1494 C 0.86367 0.76274 0.76125 0.0
C1495 C 0.84568 0.79783 0.7556 0.0
N1496 N 0.89651 0.75852 0.73627 0.0
N1497 N 0.86193 0.79534 0.7452 0.0
H1498 H 0.02125 0.94198 0.51586 0.0
H1499 H 0.06639 0.85417 0.58296 0.0
H1500 H 0.08387 0.93219 0.5169 0.0
H1501 H 1.00255 0.85714 0.57362 0.0
H1502 H 0.07318 0.88377 0.56005 0.0
H1503 H 0.01417 0.91189 0.53817 0.0
C1504 C 0.0335 0.93346 0.52065 0.0
C1505 C 0.05321 0.93971 0.51447 0.0
C1506 C 0.05768 0.87793 0.56299 0.0
C1507 C 0.04523 0.90536 0.5403 0.0
C1508 C 0.05377 0.86094 0.57601 0.0
C1509 C 0.03384 0.85304 0.58024 0.0
C1510 C 0.04157 0.88723 0.55415 0.0
C1511 C 0.01816 0.8628 0.57106 0.0
C1512 C 0.02945 0.91632 0.53349 0.0
C1513 C 0.06851 0.92819 0.52149 0.0
N1514 N 0.02236 0.87936 0.55847 0.0
N1515 N 0.0642 0.91163 0.53404 0.0
H1516 H 0.18255 0.707 0.78054 0.0
H1517 H 0.11692 0.77988 0.71401 0.0
H1518 H 0.19507 0.77166 0.77642 0.0
H1519 H 0.09848 0.71634 0.72586 0.0
H1520 H 0.14674 0.77683 0.73525 0.0
H1521 H 0.15298 0.70975 0.75864 0.0
C1522 C 0.17914 0.72176 0.77494 0.0
C1523 C 0.19126 0.73913 0.78036 0.0
C1524 C 0.13616 0.76355 0.73322 0.0
C1525 C 0.15742 0.7424 0.75538 0.0
C1526 C 0.11904 0.76529 0.72116 0.0
C1527 C 0.10505 0.74836 0.71816 0.0
C1528 C 0.13945 0.74471 0.74232 0.0
C1529 C 0.10893 0.72978 0.72751 0.0
C1530 C 0.1622 0.72333 0.76254 0.0
C1531 C 0.186 0.75789 0.77283 0.0
N1532 N 0.12574 0.72846 0.73916 0.0
N1533 N 0.16951 0.75902 0.76071 0.0
H1534 H 0.9985 0.61443 0.50001 0.0
H1535 H 0.98263 0.64654 0.60782 0.0
H1536 H 0.97339 0.57331 0.54693 0.0
H1537 H 0.00776 0.68767 0.56091 0.0
H1538 H 0.9795 0.61943 0.58585 0.0
H1539 H 1.0025 0.64135 0.52224 0.0
C1540 C 0.99396 0.61102 0.51502 0.0
C1541 C 0.98557 0.59156 0.52159 0.0
C1542 C 0.98569 0.63439 0.58035 0.0
C1543 C 0.98991 0.62239 0.54709 0.0
C1544 C 0.98757 0.64987 0.59293 0.0
C1545 C 0.99545 0.66945 0.58622 0.0
C1546 C 0.99176 0.63847 0.5609 0.0
C1547 C 1.00134 0.67289 0.56667 0.0
C1548 C 0.99613 0.62643 0.52768 0.0
C1549 C 0.97967 0.58812 0.54114 0.0
N1550 N 0.99939 0.65757 0.55472 0.0
N1551 N 0.98195 0.60337 0.55318 0.0
H1552 H 0.74651 0.84206 0.21053 0.0
H1553 H 0.81654 0.91394 0.27948 0.0
H1554 H 0.74806 0.83337 0.27363 0.0
H1555 H 0.80144 0.93151 0.21912 0.0
H1556 H 0.79437 0.88255 0.27692 0.0
H1557 H 0.76997 0.87293 0.21266 0.0
C1558 C 0.75192 0.84659 0.22481 0.0
C1559 C 0.74529 0.83523 0.24194 0.0
C1560 C 0.79591 0.8933 0.26425 0.0
C1561 C 0.77203 0.87043 0.24448 0.0
C1562 C 0.80848 0.91132 0.26572 0.0
C1563 C 0.81084 0.92556 0.24952 0.0
C1564 C 0.78572 0.88931 0.24641 0.0
C1565 C 0.80034 0.92096 0.23194 0.0
C1566 C 0.76518 0.86424 0.22602 0.0
C1567 C 0.75263 0.84183 0.26008 0.0
N1568 N 0.78826 0.90324 0.23085 0.0
N1569 N 0.76562 0.85897 0.26088 0.0
H1570 H 0.80834 0.2145 0.28852 0.0
H1571 H 0.7993 0.09611 0.27824 0.0
H1572 H 0.75152 0.17648 0.28688 0.0
H1573 H 0.85358 0.13654 0.26637 0.0
H1574 H 0.78193 0.12489 0.28367 0.0
H1575 H 0.82568 0.1856 0.28289 0.0
C1576 C 0.79956 0.19999 0.28718 0.0
C1577 C 0.77855 0.19773 0.28866 0.0
C1578 C 0.79763 0.12745 0.27984 0.0
C1579 C 0.79818 0.16468 0.28193 0.0
C1580 C 0.80757 0.11101 0.27661 0.0
C1581 C 0.828 0.11381 0.27179 0.0
C1582 C 0.80819 0.14688 0.2784 0.0
C1583 C 0.83794 0.13353 0.27034 0.0
C1584 C 0.80943 0.18354 0.28387 0.0
C1585 C 0.7678 0.17874 0.2863 0.0
N1586 N 0.82797 0.14927 0.27366 0.0
N1587 N 0.77774 0.16291 0.28318 0.0
H1588 H 0.44113 0.02433 0.02889 0.0
H1589 H 0.35093 0.96758 0.96627 0.0
H1590 H 0.43786 0.02858 0.96568 0.0
H1591 H 0.35636 0.96083 0.02939 0.0
H1592 H 0.38254 0.99021 0.96567 0.0
H1593 H 0.40993 1.0012 0.02931 0.0
C1594 C 0.43381 0.02044 0.01509 0.0
C1595 C 0.4421 0.02845 0.99723 0.0
C1596 C 0.37684 0.98374 0.97965 0.0
C1597 C 0.40639 1.00185 0.99757 0.0
C1598 C 0.35873 0.97092 0.98001 0.0
C1599 C 0.35097 0.96228 0.99791 0.0
C1600 C 0.38724 0.98807 0.99733 0.0
C1601 C 0.36188 0.96693 0.01524 0.0
C1602 C 0.41604 0.00715 0.01533 0.0
C1603 C 0.43212 0.02261 0.97979 0.0
N1604 N 0.37941 0.97952 0.01451 0.0
N1605 N 0.41476 0.00973 0.9804 0.0
H1606 H 0.26387 0.32469 0.28888 0.0
H1607 H 0.21948 0.41613 0.33294 0.0
H1608 H 0.27815 0.34247 0.34741 0.0
H1609 H 0.20063 0.39429 0.27679 0.0
H1610 H 0.24181 0.38993 0.33816 0.0
H1611 H 0.24146 0.35081 0.2838 0.0
C1612 C 0.26237 0.33416 0.30064 0.0
C1613 C 0.27294 0.33139 0.3186 0.0
C1614 C 0.23276 0.39083 0.32471 0.0
C1615 C 0.24715 0.36128 0.31293 0.0
C1616 C 0.22009 0.40587 0.32167 0.0
C1617 C 0.20816 0.40745 0.30439 0.0
C1618 C 0.23365 0.3773 0.31031 0.0
C1619 C 0.20937 0.39352 0.29043 0.0
C1620 C 0.24947 0.349 0.29777 0.0
C1621 C 0.27016 0.34393 0.33341 0.0
N1622 N 0.22192 0.3791 0.29367 0.0
N1623 N 0.25759 0.35835 0.33022 0.0
H1624 H 0.08579 0.02957 0.49 0.0
H1625 H 0.20508 0.03705 0.51074 0.0
H1626 H 0.11831 0.97793 0.49904 0.0
H1627 H 0.17108 0.08716 0.5132 0.0
H1628 H 0.17377 0.01561 0.50367 0.0
H1629 H 0.11728 0.05139 0.49567 0.0
C1630 C 0.09959 0.02285 0.49306 0.0
C1631 C 0.09944 1.00191 0.4941 0.0
C1632 C 0.17315 0.03129 0.50577 0.0
C1633 C 0.13547 0.02674 0.50068 0.0
C1634 C 0.19103 0.04356 0.50968 0.0
C1635 C 0.19068 0.06392 0.51259 0.0
C1636 C 0.15477 0.03944 0.50459 0.0
C1637 C 0.17201 0.0715 0.51129 0.0
C1638 C 0.11752 0.03529 0.49642 0.0
C1639 C 0.11771 0.99398 0.49833 0.0
N1640 N 0.1548 0.05927 0.50733 0.0
N1641 N 0.13498 0.0064 0.50142 0.0
H1642 H 0.74563 0.19548 0.74037 0.0
H1643 H 0.74123 0.07909 0.77725 0.0
H1644 H 0.79847 0.16677 0.75797 0.0
H1645 H 0.69049 0.1058 0.75027 0.0
H1646 H 0.76219 0.11143 0.77185 0.0
H1647 H 0.72496 0.16302 0.74521 0.0
C1648 C 0.75293 0.18234 0.74513 0.0
C1649 C 0.77387 0.18391 0.74873 0.0
C1650 C 0.74649 0.1102 0.76705 0.0
C1651 C 0.75017 0.14667 0.75459 0.0
C1652 C 0.7345 0.09178 0.77022 0.0
C1653 C 0.71408 0.08975 0.76419 0.0
C1654 C 0.73798 0.12678 0.75792 0.0
C1655 C 0.70621 0.10663 0.75495 0.0
C1656 C 0.74108 0.16382 0.74798 0.0
C1657 C 0.78238 0.16638 0.75527 0.0
N1658 N 0.71814 0.12444 0.75217 0.0
N1659 N 0.7705 0.14852 0.758 0.0
H1660 H 0.45409 0.01406 0.53818 0.0
H1661 H 0.37802 0.07424 0.58996 0.0
H1662 H 0.44271 0.00554 0.60008 0.0
H1663 H 0.37819 0.0701 0.5274 0.0
H1664 H 0.40401 0.05162 0.59413 0.0
H1665 H 0.42854 0.03711 0.53415 0.0
C1666 C 0.44616 0.01689 0.55093 0.0
C1667 C 0.45058 0.00769 0.56951 0.0
C1668 C 0.39836 0.0557 0.5795 0.0
C1669 C 0.4215 0.03449 0.56499 0.0
C1670 C 0.38344 0.06857 0.57709 0.0
C1671 C 0.37579 0.07415 0.55828 0.0
C1672 C 0.40585 0.04842 0.56299 0.0
C1673 C 0.38378 0.06655 0.54216 0.0
C1674 C 0.43163 0.03018 0.54861 0.0
C1675 C 0.44006 0.01242 0.58551 0.0
N1676 N 0.39834 0.05411 0.54489 0.0
N1677 N 0.42605 0.02548 0.58289 0.0
H1678 H 0.59448 0.50394 0.56754 0.0
H1679 H 0.64848 0.44891 0.48876 0.0
H1680 H 0.57413 0.50187 0.50714 0.0
H1681 H 0.67386 0.45921 0.54651 0.0
H1682 H 0.62036 0.46701 0.4956 0.0
H1683 H 0.62306 0.48642 0.56051 0.0
C1684 C 0.59618 0.49992 0.55276 0.0
C1685 C 0.58219 0.50464 0.53782 0.0
C1686 C 0.6321 0.46536 0.50676 0.0
C1687 C 0.61453 0.4843 0.52971 0.0
C1688 C 0.6481 0.45493 0.5029 0.0
C1689 C 0.66356 0.45255 0.51708 0.0
C1690 C 0.63144 0.47335 0.52499 0.0
C1691 C 0.6624 0.46088 0.53507 0.0
C1692 C 0.61243 0.48991 0.54875 0.0
C1693 C 0.58477 0.49875 0.51901 0.0
N1694 N 0.6466 0.47084 0.53853 0.0
N1695 N 0.60062 0.48888 0.51548 0.0
H1696 H 0.69767 0.25678 0.34935 0.0
H1697 H 0.7736 0.33111 0.41128 0.0
H1698 H 0.76115 0.27021 0.33822 0.0
H1699 H 0.70952 0.31995 0.4199 0.0
H1700 H 0.7696 0.30829 0.38504 0.0
H1701 H 0.70194 0.2794 0.37566 0.0
C1702 C 0.71251 0.26456 0.35236 0.0
C1703 C 0.72906 0.26163 0.34145 0.0
C1704 C 0.75641 0.31085 0.39265 0.0
C1705 C 0.73411 0.28746 0.3718 0.0
C1706 C 0.7587 0.32381 0.40771 0.0
C1707 C 0.74187 0.32748 0.41783 0.0
C1708 C 0.73716 0.3014 0.38769 0.0
C1709 C 0.72288 0.3178 0.41235 0.0
C1710 C 0.71495 0.27741 0.36747 0.0
C1711 C 0.748 0.27183 0.34634 0.0
N1712 N 0.72106 0.3052 0.3977 0.0
N1713 N 0.75 0.28432 0.36112 0.0
H1714 H 0.53619 0.08589 0.92892 0.0
H1715 H 0.5695 0.99056 0.88151 0.0
H1716 H 0.50944 0.02513 0.94365 0.0
H1717 H 0.58852 0.0521 0.86095 0.0
H1718 H 0.55005 0.00253 0.90673 0.0
H1719 H 0.55808 0.0734 0.90623 0.0
C1720 C 0.5351 0.06988 0.92749 0.0
C1721 C 0.52117 0.05647 0.93826 0.0
C1722 C 0.55852 0.0134 0.89671 0.0
C1723 C 0.54598 0.04204 0.9122 0.0
C1724 C 0.5697 0.00658 0.8824 0.0
C1725 C 0.58053 0.02035 0.86901 0.0
C1726 C 0.55829 0.03414 0.89775 0.0
C1727 C 0.58014 0.04094 0.87075 0.0
C1728 C 0.54753 0.06275 0.9145 0.0
C1729 C 0.52016 0.03589 0.93571 0.0
N1730 N 0.5692 0.04719 0.88482 0.0
N1731 N 0.5324 0.02929 0.92293 0.0
H1732 H 0.26662 0.27257 0.36442 0.0
H1733 H 0.32967 0.20731 0.4417 0.0
H1734 H 0.33122 0.27348 0.3632 0.0
H1735 H 0.26742 0.21525 0.44864 0.0
H1736 H 0.33026 0.23027 0.41204 0.0
H1737 H 0.2664 0.25065 0.39464 0.0
C1738 C 0.2808 0.26833 0.37056 0.0
C1739 C 0.29898 0.27496 0.36118 0.0
C1740 C 0.31649 0.22704 0.42009 0.0
C1741 C 0.29875 0.24947 0.3957 0.0
C1742 C 0.31612 0.21385 0.43695 0.0
C1743 C 0.29848 0.20936 0.44768 0.0
C1744 C 0.29904 0.23569 0.41377 0.0
C1745 C 0.28142 0.21846 0.44097 0.0
C1746 C 0.28063 0.25569 0.38779 0.0
C1747 C 0.31679 0.26855 0.36971 0.0
N1748 N 0.2821 0.23111 0.42442 0.0
N1749 N 0.31622 0.25614 0.38643 0.0
H1750 H 0.51965 0.52589 0.93485 0.0
H1751 H 0.43633 0.47305 0.86203 0.0
H1752 H 0.49039 0.46547 0.94598 0.0
H1753 H 0.46188 0.53517 0.8535 0.0
H1754 H 0.45692 0.46955 0.89214 0.0
H1755 H 0.49951 0.52923 0.90431 0.0
C1756 C 0.50888 0.51338 0.93084 0.0
C1757 C 0.50636 0.4955 0.943 0.0
C1758 C 0.45802 0.48396 0.88369 0.0
C1759 C 0.48348 0.49905 0.90808 0.0
C1760 C 0.44635 0.48593 0.86644 0.0
C1761 C 0.44737 0.50443 0.85521 0.0
C1762 C 0.47091 0.50058 0.88977 0.0
C1763 C 0.46042 0.52069 0.8618 0.0
C1764 C 0.49741 0.51526 0.91344 0.0
C1765 C 0.49252 0.47958 0.93705 0.0
N1766 N 0.47169 0.51837 0.87861 0.0
N1767 N 0.48155 0.48173 0.92003 0.0
H1768 H 0.74373 0.78091 0.1713 0.0
H1769 H 0.74017 0.6689 0.13835 0.0
H1770 H 0.70309 0.7308 0.19498 0.0
H1771 H 0.77626 0.7203 0.11049 0.0
H1772 H 0.72864 0.69072 0.1612 0.0
H1773 H 0.75819 0.75832 0.151 0.0
C1774 C 0.73787 0.76511 0.17216 0.0
C1775 C 0.72194 0.7577 0.18444 0.0
C1776 C 0.73917 0.69721 0.15015 0.0
C1777 C 0.73848 0.73175 0.16152 0.0
C1778 C 0.7457 0.68477 0.13703 0.0
C1779 C 0.75913 0.69276 0.12234 0.0
C1780 C 0.74608 0.71785 0.14863 0.0
C1781 C 0.76607 0.71339 0.12165 0.0
C1782 C 0.74612 0.75223 0.16062 0.0
C1783 C 0.71514 0.73709 0.1854 0.0
N1784 N 0.75939 0.72522 0.13451 0.0
N1785 N 0.72336 0.72484 0.17399 0.0
H1786 H 0.01184 0.01667 0.0925 0.0
H1787 H 0.96265 0.07088 0.1752 0.0
H1788 H 0.02154 0.08058 0.09822 0.0
H1789 H 0.95368 0.00679 0.17053 0.0
H1790 H 0.98466 0.07461 0.14725 0.0
H1791 H 0.99124 0.01253 0.12158 0.0
C1792 C 0.00977 0.02981 0.09994 0.0
C1793 C 0.01835 0.04901 0.09283 0.0
C1794 C 0.97792 0.05971 0.15236 0.0
C1795 C 0.99462 0.04442 0.126 0.0
C1796 C 0.96525 0.05759 0.16826 0.0
C1797 C 0.95625 0.0385 0.17522 0.0
C1798 C 0.98161 0.04263 0.14326 0.0
C1799 C 0.96046 0.02178 0.16582 0.0
C1800 C 0.99791 0.02745 0.11648 0.0
C1801 C 0.01494 0.06553 0.10296 0.0
N1802 N 0.97278 0.02424 0.1503 0.0
N1803 N 0.00333 0.06285 0.11898 0.0
H1804 H 0.31343 0.77131 0.18086 0.0
H1805 H 0.23635 0.82691 0.10984 0.0
H1806 H 0.25017 0.76883 0.19189 0.0
H1807 H 0.29636 0.81921 0.09339 0.0
H1808 H 0.24155 0.80691 0.14057 0.0
H1809 H 0.30802 0.79035 0.14941 0.0
C1810 C 0.29837 0.77463 0.17652 0.0
C1811 C 0.28213 0.76815 0.18872 0.0
C1812 C 0.25356 0.80956 0.13021 0.0
C1813 C 0.27587 0.79026 0.15308 0.0
C1814 C 0.25057 0.8209 0.11258 0.0
C1815 C 0.26592 0.82477 0.09891 0.0
C1816 C 0.27209 0.8021 0.13434 0.0
C1817 C 0.28418 0.81689 0.10355 0.0
C1818 C 0.29528 0.78551 0.15863 0.0
C1819 C 0.26301 0.77326 0.18272 0.0
N1820 N 0.28676 0.80598 0.12087 0.0
N1821 N 0.2604 0.78401 0.16531 0.0
H1822 H 0.00571 0.50894 0.11318 0.0
H1823 H 0.07211 0.4482 0.19135 0.0
H1824 H 0.00513 0.44453 0.11587 0.0
H1825 H 0.06269 0.51 0.19533 0.0
H1826 H 0.0495 0.44695 0.16231 0.0
H1827 H 0.02821 0.50994 0.14212 0.0
C1828 C 0.01017 0.49497 0.11991 0.0
C1829 C 0.00338 0.4766 0.11205 0.0
C1830 C 0.05235 0.46076 0.16957 0.0
C1831 C 0.02954 0.47772 0.14509 0.0
C1832 C 0.06534 0.46152 0.18608 0.0
C1833 C 0.06926 0.47922 0.19582 0.0
C1834 C 0.04335 0.47789 0.16263 0.0
C1835 C 0.05991 0.49596 0.18844 0.0
C1836 C 0.02314 0.49558 0.1364 0.0
C1837 C 0.01013 0.45907 0.12122 0.0
N1838 N 0.04746 0.4949 0.17228 0.0
N1839 N 0.02283 0.46007 0.13722 0.0
H1840 H 0.33404 0.75759 0.26616 0.0
H1841 H 0.43062 0.72113 0.32469 0.0
H1842 H 0.35041 0.69756 0.26642 0.0
H1843 H 0.40807 0.77709 0.33316 0.0
H1844 H 0.4025 0.71311 0.30174 0.0
H1845 H 0.36251 0.76604 0.28884 0.0
C1846 C 0.3437 0.74623 0.2709 0.0
C1847 C 0.33984 0.72683 0.26442 0.0
C1848 C 0.40368 0.72713 0.30864 0.0
C1849 C 0.37235 0.73635 0.29042 0.0
C1850 C 0.41969 0.73169 0.32187 0.0
C1851 C 0.42172 0.74979 0.33101 0.0
C1852 C 0.38959 0.74081 0.30437 0.0
C1853 C 0.40728 0.76306 0.32634 0.0
C1854 C 0.35986 0.75102 0.28394 0.0
C1855 C 0.3527 0.71262 0.27122 0.0
N1856 N 0.39184 0.75831 0.31335 0.0
N1857 N 0.36839 0.71768 0.28381 0.0
H1858 H 0.96265 0.42845 0.01909 0.0
H1859 H 0.03655 0.3675 0.96478 0.0
H1860 H 0.02738 0.44156 0.0218 0.0
H1861 H 0.97248 0.34965 0.96838 0.0
H1862 H 0.03338 0.39541 0.98468 0.0
H1863 H 0.96578 0.40003 0.99968 0.0
C1864 C 0.97751 0.4252 0.01568 0.0
C1865 C 0.99478 0.43714 0.02222 0.0
C1866 C 0.02002 0.38537 0.98115 0.0
C1867 C 0.99854 0.40494 0.99983 0.0
C1868 C 0.0218 0.3695 0.96969 0.0
C1869 C 0.00476 0.3562 0.96489 0.0
C1870 C 1.00103 0.38809 0.98779 0.0
C1871 C 0.98607 0.35938 0.9719 0.0
C1872 C 0.97932 0.40904 0.0046 0.0
C1873 C 0.0137 0.43257 0.01719 0.0
N1874 N 0.9847 0.37501 0.98293 0.0
N1875 N 0.01508 0.41684 0.00628 0.0
H1876 H 0.67465 0.8253 0.25824 0.0
H1877 H 0.61179 0.75759 0.34149 0.0
H1878 H 0.68379 0.76388 0.2754 0.0
H1879 H 0.59559 0.8144 0.31598 0.0
H1880 H 0.63908 0.76004 0.3184 0.0
H1881 H 0.64636 0.82198 0.28018 0.0
C1882 C 0.67069 0.81111 0.26666 0.0
C1883 C 0.68165 0.79487 0.26509 0.0
C1884 C 0.62952 0.77194 0.31781 0.0
C1885 C 0.64925 0.79094 0.29023 0.0
C1886 C 0.61404 0.77062 0.33108 0.0
C1887 C 0.60145 0.78586 0.3307 0.0
C1888 C 0.63257 0.78871 0.30417 0.0
C1889 C 0.60484 0.80225 0.31669 0.0
C1890 C 0.65448 0.80919 0.27911 0.0
C1891 C 0.67567 0.77673 0.27611 0.0
N1892 N 0.62013 0.80329 0.30406 0.0
N1893 N 0.65996 0.77529 0.28832 0.0
H1894 H 0.00478 0.08099 0.02602 0.0
H1895 H 0.0506 0.18875 0.98092 0.0
H1896 H 0.06838 0.10147 0.0304 0.0
H1897 H 0.99753 0.15602 0.95574 0.0
H1898 H 0.0558 0.15877 0.00258 0.0
H1899 H 1.00017 0.11033 0.00333 0.0
C1900 C 0.01775 0.0917 0.02215 0.0
C1901 C 0.03698 0.0889 0.03001 0.0
C1902 C 0.04306 0.15817 0.99227 0.0
C1903 C 0.03181 0.12248 0.00439 0.0
C1904 C 0.04002 0.17525 0.98004 0.0
C1905 C 0.02362 0.17477 0.96659 0.0
C1906 C 0.02936 0.14066 0.99127 0.0
C1907 C 0.01042 0.15691 0.96586 0.0
C1908 C 0.01514 0.10834 0.00919 0.0
C1909 C 0.05334 0.1031 0.02452 0.0
N1910 N 0.01348 0.14058 0.97816 0.0
N1911 N 0.05037 0.11943 0.01217 0.0
H1912 H 0.34038 0.31022 0.25676 0.0
H1913 H 0.41419 0.23517 0.22321 0.0
H1914 H 0.33783 0.24814 0.27884 0.0
H1915 H 0.421 0.2988 0.20625 0.0
H1916 H 0.38548 0.23934 0.24277 0.0
H1917 H 0.36944 0.30619 0.2374 0.0
C1918 C 0.346 0.29575 0.25747 0.0
C1919 C 0.33671 0.27946 0.26924 0.0
C1920 C 0.39327 0.2524 0.2348 0.0
C1921 C 0.36982 0.27466 0.24725 0.0
C1922 C 0.40959 0.25001 0.22352 0.0
C1923 C 0.42003 0.26666 0.21306 0.0
C1924 C 0.38722 0.27158 0.23554 0.0
C1925 C 0.41355 0.28558 0.21425 0.0
C1926 C 0.36255 0.29343 0.24647 0.0
C1927 C 0.34453 0.26103 0.26983 0.0
N1928 N 0.39755 0.28751 0.22523 0.0
N1929 N 0.3606 0.2591 0.25892 0.0
H1930 H 0.52025 0.43945 0.01702 0.0
H1931 H 0.56335 0.34525 0.07599 0.0
H1932 H 0.58198 0.42742 0.01508 0.0
H1933 H 0.50252 0.35911 0.08058 0.0
H1934 H 0.57018 0.37475 0.05293 0.0
H1935 H 0.51307 0.4093 0.03925 0.0
C1936 C 0.53226 0.43039 0.02115 0.0
C1937 C 0.55176 0.436 0.01418 0.0
C1938 C 0.55533 0.37134 0.05897 0.0
C1939 C 0.54369 0.40155 0.03981 0.0
C1940 C 0.55145 0.35455 0.07224 0.0
C1941 C 0.53234 0.34969 0.08032 0.0
C1942 C 0.54 0.38342 0.05368 0.0
C1943 C 0.5174 0.36211 0.07458 0.0
C1944 C 0.52818 0.41324 0.03395 0.0
C1945 C 0.5668 0.42383 0.02028 0.0
N1946 N 0.52156 0.37841 0.06165 0.0
N1947 N 0.56245 0.40719 0.03273 0.0
H1948 H 0.70472 0.2356 0.25675 0.0
H1949 H 0.58543 0.23911 0.24784 0.0
H1950 H 0.66738 0.23665 0.3064 0.0
H1951 H 0.62395 0.24681 0.19808 0.0
H1952 H 0.61496 0.23591 0.26948 0.0
H1953 H 0.67492 0.23705 0.23499 0.0
C1954 C 0.69023 0.23599 0.26308 0.0
C1955 C 0.68855 0.23606 0.28342 0.0
C1956 C 0.61695 0.23828 0.25382 0.0
C1957 C 0.65439 0.23786 0.2586 0.0
C1958 C 0.60009 0.24022 0.24144 0.0
C1959 C 0.60215 0.24333 0.22106 0.0
C1960 C 0.63608 0.23939 0.24582 0.0
C1961 C 0.62154 0.24419 0.21365 0.0
C1962 C 0.67324 0.23694 0.25064 0.0
C1963 C 0.66941 0.23683 0.2908 0.0
N1964 N 0.63774 0.24227 0.22601 0.0
N1965 N 0.6531 0.23769 0.2784 0.0
H1966 H 0.45229 0.09626 0.01772 0.0
H1967 H 0.524 0.15864 0.09361 0.0
H1968 H 0.5143 0.08697 0.0305 0.0
H1969 H 0.46432 0.17211 0.07541 0.0
H1970 H 0.5203 0.13131 0.0718 0.0
H1971 H 0.45603 0.12316 0.0399 0.0
C1972 C 0.46668 0.09982 0.02528 0.0
C1973 C 0.48299 0.08928 0.0223 0.0
C1974 C 0.50801 0.14025 0.07257 0.0
C1975 C 0.48743 0.12023 0.04766 0.0
C1976 C 0.51006 0.15577 0.08512 0.0
C1977 C 0.49445 0.1677 0.08634 0.0
C1978 C 0.49016 0.13654 0.06122 0.0
C1979 C 0.47684 0.16346 0.07478 0.0
C1980 C 0.46884 0.11527 0.03786 0.0
C1981 C 0.50138 0.0948 0.03224 0.0
N1982 N 0.47517 0.14823 0.06275 0.0
N1983 N 0.50308 0.10984 0.04452 0.0
H1984 H 0.246 0.3309 0.77476 0.0
H1985 H 0.29967 0.43073 0.7187 0.0
H1986 H 0.24493 0.34099 0.71176 0.0
H1987 H 0.31429 0.41194 0.77887 0.0
H1988 H 0.2778 0.39911 0.71616 0.0
H1989 H 0.2692 0.36181 0.77692 0.0
C1990 C 0.25068 0.33965 0.76138 0.0
C1991 C 0.24353 0.33343 0.74305 0.0
C1992 C 0.28584 0.40192 0.7299 0.0
C1993 C 0.26999 0.36884 0.7454 0.0
C1994 C 0.29842 0.41996 0.73136 0.0
C1995 C 0.30891 0.42412 0.74904 0.0
C1996 C 0.28354 0.38796 0.74628 0.0
C1997 C 0.30628 0.40964 0.76503 0.0
C1998 C 0.26398 0.35723 0.76261 0.0
C1999 C 0.25022 0.3452 0.72617 0.0
N2000 N 0.29383 0.39227 0.76328 0.0
N2001 N 0.26297 0.36243 0.72774 0.0
H2002 H 0.25144 0.67454 0.7864 0.0
H2003 H 0.3555 0.63435 0.76562 0.0
H2004 H 0.30865 0.71198 0.78549 0.0
H2005 H 0.30103 0.595 0.77947 0.0
H2006 H 0.33815 0.66316 0.77092 0.0
H2007 H 0.26883 0.64537 0.78183 0.0
C2008 C 0.2677 0.67654 0.78549 0.0
C2009 C 0.27872 0.69557 0.78687 0.0
C2010 C 0.33 0.64821 0.77282 0.0
C2011 C 0.29865 0.66244 0.78107 0.0
C2012 C 0.33994 0.63171 0.76989 0.0
C2013 C 0.32978 0.61211 0.77213 0.0
C2014 C 0.30967 0.6452 0.77792 0.0
C2015 C 0.30944 0.60978 0.77728 0.0
C2016 C 0.27761 0.65993 0.78281 0.0
C2017 C 0.29968 0.69747 0.78494 0.0
N2018 N 0.30007 0.6261 0.77997 0.0
N2019 N 0.30897 0.68113 0.78215 0.0
H2020 H 0.94008 0.53052 0.46454 0.0
H2021 H 0.85179 0.47167 0.5298 0.0
H2022 H 0.94031 0.52925 0.52765 0.0
H2023 H 0.85597 0.46542 0.46794 0.0
H2024 H 0.88344 0.49401 0.52899 0.0
H2025 H 0.90862 0.50777 0.46521 0.0
C2026 C 0.93362 0.52535 0.47856 0.0
C2027 C 0.94292 0.53183 0.49607 0.0
C2028 C 0.87746 0.48774 0.51559 0.0
C2029 C 0.90667 0.50599 0.4969 0.0
C2030 C 0.85941 0.47488 0.51605 0.0
C2031 C 0.85119 0.46653 0.49892 0.0
C2032 C 0.88741 0.49241 0.49786 0.0
C2033 C 0.86158 0.47165 0.48146 0.0
C2034 C 0.91557 0.51245 0.47891 0.0
C2035 C 0.93358 0.5249 0.51376 0.0
N2036 N 0.87914 0.48424 0.48139 0.0
N2037 N 0.91598 0.51239 0.51371 0.0
H2038 H 0.79621 0.85546 0.81075 0.0
H2039 H 0.68283 0.88146 0.80997 0.0
H2040 H 0.74642 0.81239 0.83032 0.0
H2041 H 0.73469 0.9266 0.80533 0.0
H2042 H 0.70548 0.85559 0.81568 0.0
H2043 H 0.77346 0.88137 0.80644 0.0
C2044 C 0.78047 0.85146 0.81409 0.0
C2045 C 0.77319 0.83175 0.82089 0.0
C2046 C 0.71187 0.87118 0.81345 0.0
C2047 C 0.74705 0.86132 0.816 0.0
C2048 C 0.69894 0.886 0.81029 0.0
C2049 C 0.70678 0.90633 0.80706 0.0
C2050 C 0.73282 0.87666 0.81325 0.0
C2051 C 0.72786 0.91116 0.80733 0.0
C2052 C 0.76751 0.86627 0.81174 0.0
C2053 C 0.75269 0.82745 0.82521 0.0
N2054 N 0.7401 0.89645 0.81028 0.0
N2055 N 0.74031 0.84208 0.82259 0.0
H2056 H 0.58429 0.52629 0.98966 0.0
H2057 H 0.70135 0.53398 0.02171 0.0
H2058 H 0.61677 0.4748 1.00112 0.0
H2059 H 0.66953 0.58555 0.0075 0.0
H2060 H 0.6706 0.51206 0.01398 0.0
H2061 H 0.61544 0.54825 0.99583 0.0
C2062 C 0.598 0.51959 0.99332 0.0
C2063 C 0.59787 0.49864 0.99489 0.0
C2064 C 0.67035 0.52818 0.01253 0.0
C2065 C 0.6336 0.52373 1.00223 0.0
C2066 C 0.68794 0.54072 0.01684 0.0
C2067 C 0.68806 0.56167 0.01529 0.0
C2068 C 0.65268 0.53661 0.00661 0.0
C2069 C 0.6701 0.5695 0.0092 0.0
C2070 C 0.61577 0.53215 0.99696 0.0
C2071 C 0.61607 0.49084 1.0 0.0
N2072 N 0.65316 0.55698 0.0051 0.0
N2073 N 0.63317 0.50338 0.00351 0.0
H2074 H 0.27764 0.68217 0.27666 0.0
H2075 H 0.22393 0.58035 0.23552 0.0
H2076 H 0.27912 0.66981 0.21599 0.0
H2077 H 0.20967 0.60135 0.29048 0.0
H2078 H 0.24725 0.61116 0.22922 0.0
H2079 H 0.25565 0.65064 0.2831 0.0
C2080 C 0.27341 0.67274 0.26472 0.0
C2081 C 0.2802 0.67858 0.24577 0.0
C2082 C 0.239 0.609 0.24265 0.0
C2083 C 0.25501 0.64252 0.25301 0.0
C2084 C 0.22581 0.5914 0.2463 0.0
C2085 C 0.21481 0.58836 0.26351 0.0
C2086 C 0.24138 0.62353 0.25642 0.0
C2087 C 0.21768 0.60321 0.27692 0.0
C2088 C 0.26078 0.65482 0.26838 0.0
C2089 C 0.27407 0.66592 0.23078 0.0
N2090 N 0.23071 0.62012 0.27312 0.0
N2091 N 0.26187 0.64843 0.23473 0.0
H2092 H 0.93611 0.49787 0.10286 0.0
H2093 H 0.87863 0.57033 0.02729 0.0
H2094 H 0.94943 0.50877 0.04153 0.0
H2095 H 0.86717 0.56194 0.08915 0.0
H2096 H 0.90441 0.54761 0.03224 0.0
H2097 H 0.91053 0.52092 0.09812 0.0
C2098 C 0.93373 0.50516 0.0884 0.0
C2099 C 0.945 0.50136 0.07257 0.0
C2100 C 0.89629 0.55075 0.04475 0.0
C2101 C 0.91554 0.52768 0.067 0.0
C2102 C 0.88163 0.56386 0.04196 0.0
C2103 C 0.8707 0.56815 0.05784 0.0
C2104 C 0.9001 0.54178 0.06356 0.0
C2105 C 0.87503 0.55893 0.07643 0.0
C2106 C 0.91904 0.51826 0.08569 0.0
C2107 C 0.94096 0.51102 0.05412 0.0
N2108 N 0.88938 0.5462 0.07877 0.0
N2109 N 0.92661 0.52372 0.05186 0.0
H2110 H 0.10267 0.02902 0.03225 0.0
H2111 H 0.13977 0.92311 0.01615 0.0
H2112 H 0.06465 0.97245 0.03961 0.0
H2113 H 0.18043 0.97778 0.0203 0.0
H2114 H 0.11163 0.94138 0.02245 0.0
H2115 H 0.13104 0.01093 0.02586 0.0
C2116 C 0.1004 0.01276 0.03276 0.0
C2117 C 0.08147 1.00214 0.03699 0.0
C2118 C 0.1267 0.94939 0.022 0.0
C2119 C 0.11362 0.9814 0.02916 0.0
C2120 C 0.14276 0.939 0.01826 0.0
C2121 C 0.16249 0.94894 0.0177 0.0
C2122 C 0.13034 0.96993 0.02506 0.0
C2123 C 0.16549 0.96948 0.02081 0.0
C2124 C 0.11654 0.00246 0.02904 0.0
C2125 C 0.07913 0.98115 0.03683 0.0
N2126 N 0.1496 0.97931 0.0243 0.0
N2127 N 0.09501 0.97146 0.03301 0.0
loop_
_geom_bond_atom_site_label_1
_geom_bond_atom_site_label_2
_geom_bond_distance
_geom_bond_site_symmetry_2
_ccdc_geom_bond_type
H0 C7 0.929 1_655 S
H1 C10 0.930 . S
H2 C12 0.929 . S
H3 C4 0.969 . S
C4 H3 0.969 . S
C4 O5 1.550 1_565 S
C4 H6 0.973 . S
O5 C4 1.550 1_545 S
O5 C11 1.412 . S
H6 C4 0.973 . S
C7 H0 0.929 1_455 S
C7 C8 1.400 . S
C7 C9 1.364 . S
C8 C7 1.400 . S
C8 C12 1.377 . S
C9 C7 1.364 . S
C9 C10 1.374 . S
C10 H1 0.930 . S
C10 C9 1.374 . S
C10 C11 1.383 . S
C11 O5 1.412 . S
C11 C10 1.383 . S
C11 C12 1.394 . S
C12 H2 0.929 . S
C12 C8 1.377 . S
C12 C11 1.394 . S
H13 C20 0.929 . S
H14 C23 0.930 . S
H15 C25 0.929 . S
H16 C17 0.969 . S
C17 H16 0.969 . S
C17 O18 1.550 . S
C17 H19 0.973 . S
O18 C17 1.550 . S
O18 C24 1.412 . S
H19 C17 0.973 . S
C20 H13 0.929 . S
C20 C21 1.400 . S
C20 C22 1.364 . S
C21 C20 1.400 . S
C21 C25 1.377 . S
C22 C20 1.364 . S
C22 C23 1.374 . S
C23 H14 0.930 . S
C23 C22 1.374 . S
C23 C24 1.383 . S
C24 O18 1.412 . S
C24 C23 1.383 . S
C24 C25 1.394 . S
C25 H15 0.929 . S
C25 C21 1.377 . S
C25 C24 1.394 . S
H26 C33 0.929 . S
H27 C36 0.930 . S
H28 C38 0.929 1_455 S
H29 C30 0.969 . S
C30 H29 0.969 . S
C30 O31 1.550 . S
C30 H32 0.973 . S
O31 C30 1.550 . S
O31 C37 1.412 . S
H32 C30 0.973 . S
C33 H26 0.929 . S
C33 C34 1.400 . S
C33 C35 1.364 . S
C34 C33 1.400 . S
C34 C38 1.377 . S
C35 C33 1.364 . S
C35 C36 1.374 . S
C36 H27 0.930 . S
C36 C35 1.374 . S
C36 C37 1.383 . S
C37 O31 1.412 . S
C37 C36 1.383 . S
C37 C38 1.394 . S
C38 H28 0.929 1_655 S
C38 C34 1.377 . S
C38 C37 1.394 . S
H39 C46 0.929 . S
H40 C49 0.930 . S
H41 C51 0.929 . S
H42 C43 0.969 . S
C43 H42 0.969 . S
C43 O44 1.550 . S
C43 H45 0.973 . S
O44 C43 1.550 . S
O44 C50 1.412 . S
H45 C43 0.973 . S
C46 H39 0.929 . S
C46 C47 1.400 . S
C46 C48 1.364 . S
C47 C46 1.400 . S
C47 C51 1.377 . S
C48 C46 1.364 . S
C48 C49 1.374 . S
C49 H40 0.930 . S
C49 C48 1.374 . S
C49 C50 1.383 . S
C50 O44 1.412 . S
C50 C49 1.383 . S
C50 C51 1.394 . S
C51 H41 0.929 . S
C51 C47 1.377 . S
C51 C50 1.394 . S
H52 C59 0.929 . S
H53 C62 0.930 . S
H54 C64 0.929 1_545 S
H55 C56 0.983 . S
C56 H55 0.983 . S
C56 O57 1.550 . S
C56 H58 0.973 . S
O57 C56 1.550 . S
O57 C63 1.412 . S
H58 C56 0.973 . S
C59 H52 0.929 . S
C59 C60 1.400 . S
C59 C61 1.364 . S
C60 C59 1.400 . S
C60 C64 1.377 . S
C61 C59 1.364 . S
C61 C62 1.374 . S
C62 H53 0.930 . S
C62 C61 1.374 . S
C62 C63 1.383 . S
C63 O57 1.412 . S
C63 C62 1.383 . S
C63 C64 1.394 . S
C64 H54 0.929 1_565 S
C64 C60 1.377 . S
C64 C63 1.394 . S
H65 C72 0.929 . S
H66 C75 0.930 . S
H67 C77 0.929 . S
H68 C69 0.969 . S
C69 H68 0.969 . S
C69 O70 1.550 . S
C69 H71 0.973 . S
O70 C69 1.550 . S
O70 C76 1.412 . S
H71 C69 0.973 . S
C72 H65 0.929 . S
C72 C73 1.400 . S
C72 C74 1.364 . S
C73 C72 1.400 . S
C73 C77 1.377 . S
C74 C72 1.364 . S
C74 C75 1.374 . S
C75 H66 0.930 . S
C75 C74 1.374 . S
C75 C76 1.383 . S
C76 O70 1.412 . S
C76 C75 1.383 . S
C76 C77 1.394 . S
C77 H67 0.929 . S
C77 C73 1.377 . S
C77 C76 1.394 . S
H78 C85 0.929 . S
H79 C88 0.930 . S
H80 C90 0.943 . S
H81 C82 0.969 . S
C82 H81 0.969 . S
C82 O83 1.550 . S
C82 H84 0.973 . S
O83 C82 1.550 . S
O83 C89 1.412 1_455 S
H84 C82 0.973 . S
C85 H78 0.929 . S
C85 C86 1.400 . S
C85 C87 1.364 . S
C86 C85 1.400 . S
C86 C90 1.363 1_655 S
C87 C85 1.364 . S
C87 C88 1.374 . S
C88 H79 0.930 . S
C88 C87 1.374 . S
C88 C89 1.383 . S
C89 O83 1.412 1_655 S
C89 C88 1.383 . S
C89 C90 1.394 1_655 S
C90 H80 0.943 . S
C90 C86 1.363 1_455 S
C90 C89 1.394 1_455 S
H91 C98 0.929 . S
H92 C101 0.930 . S
H93 C103 0.929 . S
H94 C95 0.969 . S
C95 H94 0.969 . S
C95 O96 1.550 . S
C95 H97 0.973 . S
O96 C95 1.550 . S
O96 C102 1.412 . S
H97 C95 0.973 . S
C98 H91 0.929 . S
C98 C99 1.400 . S
C98 C100 1.364 . S
C99 C98 1.400 . S
C99 C103 1.377 . S
C100 C98 1.364 . S
C100 C101 1.374 . S
C101 H92 0.930 . S
C101 C100 1.374 . S
C101 C102 1.383 . S
C102 O96 1.412 . S
C102 C101 1.383 . S
C102 C103 1.394 . S
C103 H93 0.929 . S
C103 C99 1.377 . S
C103 C102 1.394 . S
H104 C111 0.929 . S
H105 C114 0.930 . S
H106 C116 0.929 . S
H107 C108 0.969 . S
C108 H107 0.969 . S
C108 O109 1.550 . S
C108 H110 0.973 . S
O109 C108 1.550 . S
O109 C115 1.412 . S
H110 C108 0.973 . S
C111 H104 0.929 . S
C111 C112 1.400 . S
C111 C113 1.364 . S
C112 C111 1.400 . S
C112 C116 1.377 . S
C113 C111 1.364 . S
C113 C114 1.374 . S
C114 H105 0.930 . S
C114 C113 1.374 . S
C114 C115 1.383 . S
C115 O109 1.412 . S
C115 C114 1.383 . S
C115 C116 1.394 . S
C116 H106 0.929 . S
C116 C112 1.377 . S
C116 C115 1.394 . S
H117 C124 0.929 . S
H118 C127 0.930 . S
H119 C129 0.929 . S
H120 C121 0.969 . S
C121 H120 0.969 . S
C121 O122 1.550 . S
C121 H123 0.973 . S
O122 C121 1.550 . S
O122 C128 1.412 . S
H123 C121 0.973 . S
C124 H117 0.929 . S
C124 C125 1.400 . S
C124 C126 1.364 . S
C125 C124 1.400 . S
C125 C129 1.377 . S
C126 C124 1.364 . S
C126 C127 1.374 . S
C127 H118 0.930 . S
C127 C126 1.374 . S
C127 C128 1.383 . S
C128 O122 1.412 . S
C128 C127 1.383 . S
C128 C129 1.394 . S
C129 H119 0.929 . S
C129 C125 1.377 . S
C129 C128 1.394 . S
H130 C137 0.929 . S
H131 C140 0.930 . S
H132 C142 0.929 . S
H133 C134 0.969 . S
C134 H133 0.969 . S
C134 O135 1.550 . S
C134 H136 0.973 . S
O135 C134 1.550 . S
O135 C141 1.412 . S
H136 C134 0.973 . S
C137 H130 0.929 . S
C137 C138 1.400 . S
C137 C139 1.364 . S
C138 C137 1.400 . S
C138 C142 1.377 . S
C139 C137 1.364 . S
C139 C140 1.374 . S
C140 H131 0.930 . S
C140 C139 1.374 . S
C140 C141 1.383 . S
C141 O135 1.412 . S
C141 C140 1.383 . S
C141 C142 1.394 . S
C142 H132 0.929 . S
C142 C138 1.377 . S
C142 C141 1.394 . S
H143 C150 0.929 . S
H144 C153 0.930 . S
H145 C155 0.929 . S
H146 C147 0.969 . S
C147 H146 0.969 . S
C147 O148 1.550 . S
C147 H149 0.973 . S
O148 C147 1.550 . S
O148 C154 1.412 . S
H149 C147 0.973 . S
C150 H143 0.929 . S
C150 C151 1.400 . S
C150 C152 1.364 . S
C151 C150 1.400 . S
C151 C155 1.377 . S
C152 C150 1.364 . S
C152 C153 1.374 . S
C153 H144 0.930 . S
C153 C152 1.374 . S
C153 C154 1.383 . S
C154 O148 1.412 . S
C154 C153 1.383 . S
C154 C155 1.394 . S
C155 H145 0.929 . S
C155 C151 1.377 . S
C155 C154 1.394 . S
H156 C163 0.929 . S
H157 C166 0.930 . S
H158 C168 0.929 . S
H159 C160 0.969 . S
C160 H159 0.969 . S
C160 O161 1.550 . S
C160 H162 0.973 . S
O161 C160 1.550 . S
O161 C167 1.412 . S
H162 C160 0.973 . S
C163 H156 0.929 . S
C163 C164 1.400 . S
C163 C165 1.364 . S
C164 C163 1.400 . S
C164 C168 1.377 . S
C165 C163 1.364 . S
C165 C166 1.374 . S
C166 H157 0.930 . S
C166 C165 1.374 . S
C166 C167 1.383 . S
C167 O161 1.412 . S
C167 C166 1.383 . S
C167 C168 1.394 . S
C168 H158 0.929 . S
C168 C164 1.377 . S
C168 C167 1.394 . S
H169 C176 0.929 1_554 S
H170 C179 0.930 . S
H171 C181 0.929 . S
H172 C173 0.969 . S
C173 H172 0.969 . S
C173 O174 1.550 . S
C173 H175 0.973 . S
O174 C173 1.550 . S
O174 C180 1.412 . S
H175 C173 0.973 . S
C176 H169 0.929 1_556 S
C176 C177 1.400 . S
C176 C178 1.364 . S
C177 C176 1.400 . S
C177 C181 1.377 . S
C178 C176 1.364 . S
C178 C179 1.374 . S
C179 H170 0.930 . S
C179 C178 1.374 . S
C179 C180 1.383 . S
C180 O174 1.412 . S
C180 C179 1.383 . S
C180 C181 1.394 . S
C181 H171 0.929 . S
C181 C177 1.377 . S
C181 C180 1.394 . S
H182 C189 0.929 . S
H183 C192 0.930 . S
H184 C194 0.929 . S
H185 C186 0.969 . S
C186 H185 0.969 . S
C186 O187 1.550 . S
C186 H188 0.973 . S
O187 C186 1.550 . S
O187 C193 1.412 . S
H188 C186 0.973 . S
C189 H182 0.929 . S
C189 C190 1.400 . S
C189 C191 1.364 . S
C190 C189 1.400 . S
C190 C194 1.377 . S
C191 C189 1.364 . S
C191 C192 1.374 . S
C192 H183 0.930 . S
C192 C191 1.374 . S
C192 C193 1.383 . S
C193 O187 1.412 . S
C193 C192 1.383 . S
C193 C194 1.394 . S
C194 H184 0.929 . S
C194 C190 1.377 . S
C194 C193 1.394 . S
H195 C202 0.929 . S
H196 C205 0.930 . S
H197 C207 0.929 . S
H198 C199 0.969 . S
C199 H198 0.969 . S
C199 O200 1.550 . S
C199 H201 0.973 . S
O200 C199 1.550 . S
O200 C206 1.412 . S
H201 C199 0.973 . S
C202 H195 0.929 . S
C202 C203 1.400 . S
C202 C204 1.405 . S
C203 C202 1.400 . S
C203 C207 1.405 . S
C204 C202 1.405 . S
C204 C205 1.336 1_554 S
C205 H196 0.930 . S
C205 C204 1.336 1_556 S
C205 C206 1.383 . S
C206 O200 1.412 . S
C206 C205 1.383 . S
C206 C207 1.365 1_556 S
C207 H197 0.929 . S
C207 C203 1.405 . S
C207 C206 1.365 1_554 S
Li208 N225 1.990 . S
Li208 O268 1.956 . S
Li208 O269 1.970 1_556 S
Li208 O270 1.961 . S
Li209 N233 1.990 . S
Li209 O268 1.968 1_554 S
Li209 O269 1.956 . S
Li209 O271 1.961 . S
Li210 N255 1.990 . S
Li210 O268 1.963 . S
Li210 O270 1.956 . S
Li210 O271 1.970 1_556 S
Li211 N261 1.990 . S
Li211 O269 1.961 . S
Li211 O270 1.970 1_554 S
Li211 O271 1.956 . S
C212 C214 1.348 1_556 S
C212 C215 1.356 . S
C212 O268 1.325 . S
N213 C216 1.314 1_556 S
N213 C217 1.279 . S
C214 C212 1.348 1_554 S
C214 C216 1.353 . S
C214 H272 0.929 . S
C215 C212 1.356 . S
C215 C217 1.358 . S
C215 H273 0.930 . S
C216 N213 1.314 1_554 S
C216 C214 1.353 . S
C216 H274 0.930 . S
C217 N213 1.279 . S
C217 C215 1.358 . S
C217 H275 0.930 . S
C218 C221 1.348 . S
C218 C222 1.356 . S
C218 O269 1.325 . S
C219 N220 1.279 . S
C219 C222 1.358 . S
C219 H276 0.930 . S
N220 C219 1.279 . S
N220 C223 1.314 . S
C221 C218 1.348 . S
C221 C223 1.353 . S
C221 H277 0.929 . S
C222 C218 1.356 . S
C222 C219 1.358 . S
C222 H278 0.930 . S
C223 N220 1.314 . S
C223 C221 1.353 . S
C223 H279 0.930 . S
C224 N225 1.314 . S
C224 C229 1.353 . S
C224 H230 0.930 . S
N225 Li208 1.990 . S
N225 C224 1.314 . S
N225 C227 1.279 . S
C226 C227 1.358 . S
C226 C228 1.356 . S
C226 H280 0.931 . S
C227 N225 1.279 . S
C227 C226 1.358 . S
C227 H231 0.930 1_556 S
C228 C226 1.356 . S
C228 C229 1.348 . S
C229 C224 1.353 . S
C229 C228 1.348 . S
C229 H281 0.929 . S
H230 C224 0.930 . S
H231 C227 0.930 1_554 S
C232 N233 1.314 . S
C232 C234 1.353 . S
C232 H238 0.930 . S
N233 Li209 1.990 . S
N233 C232 1.314 . S
N233 C236 1.279 . S
C234 C232 1.353 . S
C234 C237 1.348 . S
C234 H282 0.929 . S
C235 C236 1.358 . S
C235 C237 1.356 . S
C235 H283 0.930 . S
C236 N233 1.279 . S
C236 C235 1.358 . S
C236 H239 0.930 . S
C237 C234 1.348 . S
C237 C235 1.356 . S
H238 C232 0.930 . S
H239 C236 0.930 . S
C240 C242 1.348 . S
C240 C243 1.356 . S
C240 O270 1.325 . S
N241 C244 1.314 . S
N241 C245 1.279 . S
C242 C240 1.348 . S
C242 C244 1.353 . S
C242 H284 0.929 . S
C243 C240 1.356 . S
C243 C245 1.358 . S
C243 H285 0.930 . S
C244 N241 1.314 . S
C244 C242 1.353 . S
C244 H286 0.930 . S
C245 N241 1.279 . S
C245 C243 1.358 . S
C245 H287 0.930 . S
C246 C247 1.348 1_554 S
C246 C248 1.356 . S
C246 O271 1.325 . S
C247 C246 1.348 1_556 S
C247 C249 1.353 . S
C247 H288 0.929 . S
C248 C246 1.356 . S
C248 C250 1.358 . S
C248 H289 0.930 . S
C249 C247 1.353 . S
C249 N251 1.314 1_556 S
C249 H290 0.930 . S
C250 C248 1.358 . S
C250 N251 1.279 . S
C250 H291 0.930 . S
N251 C249 1.314 1_554 S
N251 C250 1.279 . S
C252 C254 1.353 . S
C252 N255 1.314 . S
C252 H258 0.930 . S
C253 N255 1.279 . S
C253 C256 1.358 . S
C253 H259 0.930 . S
C254 C252 1.353 . S
C254 C257 1.348 . S
C254 H292 0.929 . S
N255 Li210 1.990 . S
N255 C252 1.314 . S
N255 C253 1.279 . S
C256 C253 1.358 . S
C256 C257 1.356 . S
C256 H293 0.930 . S
C257 C254 1.348 . S
C257 C256 1.356 . S
H258 C252 0.930 . S
H259 C253 0.930 . S
C260 N261 1.314 . S
C260 C262 1.353 . S
C260 H266 0.930 . S
N261 Li211 1.990 . S
N261 C260 1.314 . S
N261 C264 1.279 . S
C262 C260 1.353 . S
C262 C265 1.348 . S
C262 H294 0.929 . S
C263 C264 1.358 . S
C263 C265 1.356 . S
C263 H295 0.935 . S
C264 N261 1.279 . S
C264 C263 1.358 . S
C264 H267 0.917 1_554 S
C265 C262 1.348 . S
C265 C263 1.356 . S
H266 C260 0.930 . S
H267 C264 0.917 1_556 S
O268 Li208 1.956 . S
O268 Li209 1.968 1_556 S
O268 Li210 1.963 . S
O268 C212 1.325 . S
O269 Li208 1.970 1_554 S
O269 Li209 1.956 . S
O269 Li211 1.961 . S
O269 C218 1.325 . S
O270 Li208 1.961 . S
O270 Li210 1.956 . S
O270 Li211 1.970 1_556 S
O270 C240 1.325 . S
O271 Li209 1.961 . S
O271 Li210 1.970 1_554 S
O271 Li211 1.956 . S
O271 C246 1.325 . S
H272 C214 0.929 . S
H273 C215 0.930 . S
H274 C216 0.930 . S
H275 C217 0.930 . S
H276 C219 0.930 . S
H277 C221 0.929 . S
H278 C222 0.930 . S
H279 C223 0.930 . S
H280 C226 0.931 . S
H281 C229 0.929 . S
H282 C234 0.929 . S
H283 C235 0.930 . S
H284 C242 0.929 . S
H285 C243 0.930 . S
H286 C244 0.930 . S
H287 C245 0.930 . S
H288 C247 0.929 . S
H289 C248 0.930 . S
H290 C249 0.930 . S
H291 C250 0.930 . S
H292 C254 0.929 . S
H293 C256 0.930 . S
H294 C262 0.929 . S
H295 C263 0.935 . S
Li296 N313 1.990 . S
Li296 O356 1.956 . S
Li296 O357 1.970 . S
Li296 O358 1.961 . S
Li297 N321 1.990 . S
Li297 O356 1.970 . S
Li297 O357 1.956 . S
Li297 O359 1.961 . S
Li298 N343 1.990 . S
Li298 O356 1.961 . S
Li298 O358 1.956 . S
Li298 O359 1.970 . S
Li299 N349 1.990 . S
Li299 O357 1.961 . S
Li299 O358 1.970 . S
Li299 O359 1.956 . S
C300 C302 1.348 . S
C300 C303 1.356 . S
C300 O356 1.325 . S
N301 C304 1.314 . S
N301 C305 1.279 . S
C302 C300 1.348 . S
C302 C304 1.353 . S
C302 H360 0.929 . S
C303 C300 1.356 . S
C303 C305 1.358 . S
C303 H361 0.930 . S
C304 N301 1.314 . S
C304 C302 1.353 . S
C304 H362 0.930 . S
C305 N301 1.279 . S
C305 C303 1.358 . S
C305 H363 0.930 . S
C306 C309 1.348 . S
C306 C310 1.356 . S
C306 O357 1.325 . S
C307 N308 1.279 . S
C307 C310 1.358 . S
C307 H364 0.930 . S
N308 C307 1.279 . S
N308 C311 1.314 . S
C309 C306 1.348 . S
C309 C311 1.353 . S
C309 H365 0.929 . S
C310 C306 1.356 . S
C310 C307 1.358 . S
C310 H366 0.930 . S
C311 N308 1.314 . S
C311 C309 1.353 . S
C311 H367 0.930 . S
C312 N313 1.314 . S
C312 C317 1.353 . S
C312 H318 0.930 . S
N313 Li296 1.990 . S
N313 C312 1.314 . S
N313 C315 1.279 . S
C314 C315 1.358 . S
C314 C316 1.356 . S
C314 H368 0.930 . S
C315 N313 1.279 . S
C315 C314 1.358 . S
C315 H319 0.930 . S
C316 C314 1.356 . S
C316 C317 1.348 . S
C317 C312 1.353 . S
C317 C316 1.348 . S
C317 H369 0.929 . S
H318 C312 0.930 . S
H319 C315 0.930 . S
C320 N321 1.314 . S
C320 C322 1.353 . S
C320 H326 0.930 . S
N321 Li297 1.990 . S
N321 C320 1.314 . S
N321 C324 1.279 . S
C322 C320 1.353 . S
C322 C325 1.348 . S
C322 H370 0.929 . S
C323 C324 1.358 . S
C323 C325 1.356 . S
C323 H371 0.930 . S
C324 N321 1.279 . S
C324 C323 1.358 . S
C324 H327 0.930 . S
C325 C322 1.348 . S
C325 C323 1.356 . S
H326 C320 0.930 . S
H327 C324 0.930 . S
C328 C330 1.348 . S
C328 C331 1.356 . S
C328 O358 1.325 . S
N329 C332 1.314 . S
N329 C333 1.279 . S
C330 C328 1.348 . S
C330 C332 1.353 . S
C330 H372 0.929 . S
C331 C328 1.356 . S
C331 C333 1.358 . S
C331 H373 0.930 . S
C332 N329 1.314 . S
C332 C330 1.353 . S
C332 H374 0.930 . S
C333 N329 1.279 . S
C333 C331 1.358 . S
C333 H375 0.930 . S
C334 C335 1.348 . S
C334 C336 1.356 . S
C334 O359 1.325 . S
C335 C334 1.348 . S
C335 C337 1.353 . S
C335 H376 0.929 . S
C336 C334 1.356 . S
C336 C338 1.358 . S
C336 H377 0.930 . S
C337 C335 1.353 . S
C337 N339 1.314 . S
C337 H378 0.930 . S
C338 C336 1.358 . S
C338 N339 1.279 . S
C338 H379 0.930 . S
N339 C337 1.314 . S
N339 C338 1.279 . S
C340 C342 1.353 . S
C340 N343 1.314 . S
C340 H346 0.930 . S
C341 N343 1.279 . S
C341 C344 1.358 . S
C341 H347 0.930 . S
C342 C340 1.353 . S
C342 C345 1.348 . S
C342 H380 0.929 . S
N343 Li298 1.990 . S
N343 C340 1.314 . S
N343 C341 1.279 . S
C344 C341 1.358 . S
C344 C345 1.356 . S
C344 H381 0.930 . S
C345 C342 1.348 . S
C345 C344 1.356 . S
H346 C340 0.930 . S
H347 C341 0.930 . S
C348 N349 1.314 . S
C348 C350 1.353 . S
C348 H354 0.930 . S
N349 Li299 1.990 . S
N349 C348 1.314 . S
N349 C352 1.279 . S
C350 C348 1.353 . S
C350 C353 1.348 . S
C350 H382 0.929 . S
C351 C352 1.358 . S
C351 C353 1.356 . S
C351 H383 0.930 . S
C352 N349 1.279 . S
C352 C351 1.358 . S
C352 H355 0.930 . S
C353 C350 1.348 . S
C353 C351 1.356 . S
H354 C348 0.930 . S
H355 C352 0.930 . S
O356 Li296 1.956 . S
O356 Li297 1.970 . S
O356 Li298 1.961 . S
O356 C300 1.325 . S
O357 Li296 1.970 . S
O357 Li297 1.956 . S
O357 Li299 1.961 . S
O357 C306 1.325 . S
O358 Li296 1.961 . S
O358 Li298 1.956 . S
O358 Li299 1.970 . S
O358 C328 1.325 . S
O359 Li297 1.961 . S
O359 Li298 1.970 . S
O359 Li299 1.956 . S
O359 C334 1.325 . S
H360 C302 0.929 . S
H361 C303 0.930 . S
H362 C304 0.930 . S
H363 C305 0.930 . S
H364 C307 0.930 . S
H365 C309 0.929 . S
H366 C310 0.930 . S
H367 C311 0.930 . S
H368 C314 0.930 . S
H369 C317 0.929 . S
H370 C322 0.929 . S
H371 C323 0.930 . S
H372 C330 0.929 . S
H373 C331 0.930 . S
H374 C332 0.930 . S
H375 C333 0.930 . S
H376 C335 0.929 . S
H377 C336 0.930 . S
H378 C337 0.930 . S
H379 C338 0.930 . S
H380 C342 0.929 . S
H381 C344 0.930 . S
H382 C350 0.929 . S
H383 C351 0.930 . S
Li384 N401 1.990 . S
Li384 O444 1.956 . S
Li384 O445 1.970 . S
Li384 O446 1.961 . S
Li385 N409 1.990 . S
Li385 O444 1.970 . S
Li385 O445 1.956 . S
Li385 O447 1.961 . S
Li386 N431 1.946 1_554 S
Li386 O444 1.961 . S
Li386 O446 1.956 . S
Li386 O447 1.970 . S
Li387 N437 1.990 . S
Li387 O445 1.961 . S
Li387 O446 1.970 . S
Li387 O447 1.956 . S
C388 C390 1.348 . S
C388 C391 1.356 . S
C388 O444 1.325 . S
N389 C392 1.314 . S
N389 C393 1.279 . S
C390 C388 1.348 . S
C390 C392 1.353 . S
C390 H448 0.929 . S
C391 C388 1.356 . S
C391 C393 1.358 . S
C391 H449 0.930 . S
C392 N389 1.314 . S
C392 C390 1.353 . S
C392 H450 0.930 . S
C393 N389 1.279 . S
C393 C391 1.358 . S
C393 H451 0.878 1_554 S
C394 C397 1.348 . S
C394 C398 1.356 . S
C394 O445 1.325 . S
C395 N396 1.279 . S
C395 C398 1.358 . S
C395 H452 0.930 . S
N396 C395 1.279 . S
N396 C399 1.314 . S
C397 C394 1.348 . S
C397 C399 1.353 . S
C397 H453 0.929 . S
C398 C394 1.356 . S
C398 C395 1.358 . S
C398 H454 0.930 . S
C399 N396 1.314 . S
C399 C397 1.353 . S
C399 H455 0.930 . S
C400 N401 1.314 . S
C400 C405 1.353 . S
C400 H406 0.930 . S
N401 Li384 1.990 . S
N401 C400 1.314 . S
N401 C403 1.279 . S
C402 C403 1.358 . S
C402 C404 1.356 . S
C402 H456 0.930 . S
C403 N401 1.279 . S
C403 C402 1.358 . S
C403 H407 0.930 . S
C404 C402 1.356 . S
C404 C405 1.348 . S
C405 C400 1.353 . S
C405 C404 1.348 . S
C405 H457 0.929 . S
H406 C400 0.930 . S
H407 C403 0.930 . S
C408 N409 1.314 . S
C408 C410 1.353 . S
C408 H414 0.930 . S
N409 Li385 1.990 . S
N409 C408 1.314 . S
N409 C412 1.279 . S
C410 C408 1.353 . S
C410 C413 1.348 . S
C410 H458 0.929 . S
C411 C412 1.358 . S
C411 C413 1.356 . S
C411 H459 0.930 . S
C412 N409 1.279 . S
C412 C411 1.358 . S
C412 H415 0.930 . S
C413 C410 1.348 . S
C413 C411 1.356 . S
H414 C408 0.930 . S
H415 C412 0.930 . S
C416 C418 1.348 . S
C416 C419 1.356 1_554 S
C416 O446 1.325 . S
N417 C420 1.314 . S
N417 C421 1.279 . S
C418 C416 1.348 . S
C418 C420 1.353 1_554 S
C418 H460 0.929 . S
C419 C416 1.356 1_556 S
C419 C421 1.358 . S
C419 H461 0.930 . S
C420 N417 1.314 . S
C420 C418 1.353 1_556 S
C420 H462 0.930 . S
C421 N417 1.279 . S
C421 C419 1.358 . S
C421 H463 0.930 . S
C422 C423 1.348 . S
C422 C424 1.356 . S
C422 O447 1.325 . S
C423 C422 1.348 . S
C423 C425 1.353 . S
C423 H464 0.929 . S
C424 C422 1.356 . S
C424 C426 1.358 . S
C424 H465 0.930 . S
C425 C423 1.353 . S
C425 N427 1.314 . S
C425 H466 0.930 . S
C426 C424 1.358 . S
C426 N427 1.279 . S
C426 H467 0.930 . S
N427 C425 1.314 . S
N427 C426 1.279 . S
C428 C430 1.353 . S
C428 N431 1.312 . S
C428 H434 0.930 1_556 S
C429 N431 1.330 . S
C429 C432 1.358 . S
C429 H435 0.930 . S
C430 C428 1.353 . S
C430 C433 1.348 . S
C430 H468 0.929 . S
N431 Li386 1.946 1_556 S
N431 C428 1.312 . S
N431 C429 1.330 . S
C432 C429 1.358 . S
C432 C433 1.356 . S
C432 H469 0.930 . S
C433 C430 1.348 . S
C433 C432 1.356 . S
H434 C428 0.930 1_554 S
H435 C429 0.930 . S
C436 N437 1.314 . S
C436 C438 1.353 . S
C436 H442 0.930 . S
N437 Li387 1.990 . S
N437 C436 1.314 . S
N437 C440 1.279 . S
C438 C436 1.353 . S
C438 C441 1.348 . S
C438 H470 0.929 . S
C439 C440 1.358 . S
C439 C441 1.356 . S
C439 H471 0.930 . S
C440 N437 1.279 . S
C440 C439 1.358 . S
C440 H443 0.930 . S
C441 C438 1.348 . S
C441 C439 1.356 . S
H442 C436 0.930 . S
H443 C440 0.930 . S
O444 Li384 1.956 . S
O444 Li385 1.970 . S
O444 Li386 1.961 . S
O444 C388 1.325 . S
O445 Li384 1.970 . S
O445 Li385 1.956 . S
O445 Li387 1.961 . S
O445 C394 1.325 . S
O446 Li384 1.961 . S
O446 Li386 1.956 . S
O446 Li387 1.970 . S
O446 C416 1.325 . S
O447 Li385 1.961 . S
O447 Li386 1.970 . S
O447 Li387 1.956 . S
O447 C422 1.325 . S
H448 C390 0.929 . S
H449 C391 0.930 . S
H450 C392 0.930 . S
H451 C393 0.878 1_556 S
H452 C395 0.930 . S
H453 C397 0.929 . S
H454 C398 0.930 . S
H455 C399 0.930 . S
H456 C402 0.930 . S
H457 C405 0.929 . S
H458 C410 0.929 . S
H459 C411 0.930 . S
H460 C418 0.929 . S
H461 C419 0.930 . S
H462 C420 0.930 . S
H463 C421 0.930 . S
H464 C423 0.929 . S
H465 C424 0.930 . S
H466 C425 0.930 . S
H467 C426 0.930 . S
H468 C430 0.929 . S
H469 C432 0.930 . S
H470 C438 0.929 . S
H471 C439 0.930 . S
Li472 N489 1.990 . S
Li472 O532 1.956 . S
Li472 O533 1.970 . S
Li472 O534 1.961 . S
Li473 N497 1.990 . S
Li473 O532 1.970 . S
Li473 O533 1.956 . S
Li473 O535 1.961 1_545 S
Li474 N519 1.990 . S
Li474 O532 1.961 . S
Li474 O534 1.956 . S
Li474 O535 1.970 1_545 S
Li475 N525 1.990 . S
Li475 O533 1.961 1_565 S
Li475 O534 1.970 1_565 S
Li475 O535 1.956 . S
C476 C478 1.348 . S
C476 C479 1.356 . S
C476 O532 1.325 . S
N477 C480 1.314 . S
N477 C481 1.279 . S
C478 C476 1.348 . S
C478 C480 1.353 . S
C478 H536 0.929 . S
C479 C476 1.356 . S
C479 C481 1.358 . S
C479 H537 0.930 . S
C480 N477 1.314 . S
C480 C478 1.353 . S
C480 H538 0.930 . S
C481 N477 1.279 . S
C481 C479 1.358 . S
C481 H539 0.930 . S
C482 C485 1.348 . S
C482 C486 1.356 1_545 S
C482 O533 1.325 . S
C483 N484 1.279 1_565 S
C483 C486 1.358 . S
C483 H540 0.930 . S
N484 C483 1.279 1_545 S
N484 C487 1.314 . S
C485 C482 1.348 . S
C485 C487 1.353 . S
C485 H541 0.929 . S
C486 C482 1.356 1_565 S
C486 C483 1.358 . S
C486 H542 0.930 . S
C487 N484 1.314 . S
C487 C485 1.353 . S
C487 H543 0.930 . S
C488 N489 1.314 . S
C488 C493 1.353 . S
C488 H494 0.930 . S
N489 Li472 1.990 . S
N489 C488 1.314 . S
N489 C491 1.279 . S
C490 C491 1.358 . S
C490 C492 1.356 . S
C490 H544 0.930 . S
C491 N489 1.279 . S
C491 C490 1.358 . S
C491 H495 0.930 . S
C492 C490 1.356 . S
C492 C493 1.348 . S
C493 C488 1.353 . S
C493 C492 1.348 . S
C493 H545 0.929 . S
H494 C488 0.930 . S
H495 C491 0.930 . S
C496 N497 1.314 . S
C496 C498 1.353 . S
C496 H502 0.930 . S
N497 Li473 1.990 . S
N497 C496 1.314 . S
N497 C500 1.279 . S
C498 C496 1.353 . S
C498 C501 1.348 . S
C498 H546 0.929 . S
C499 C500 1.358 . S
C499 C501 1.356 . S
C499 H547 0.930 . S
C500 N497 1.279 . S
C500 C499 1.358 . S
C500 H503 0.930 . S
C501 C498 1.348 . S
C501 C499 1.356 . S
H502 C496 0.930 . S
H503 C500 0.930 . S
C504 C506 1.348 . S
C504 C507 1.356 . S
C504 O534 1.325 . S
N505 C508 1.314 . S
N505 C509 1.279 . S
C506 C504 1.348 . S
C506 C508 1.353 . S
C506 H548 0.929 1_545 S
C507 C504 1.356 . S
C507 C509 1.358 . S
C507 H549 0.930 . S
C508 N505 1.314 . S
C508 C506 1.353 . S
C508 H550 0.924 1_545 S
C509 N505 1.279 . S
C509 C507 1.358 . S
C509 H551 0.930 . S
C510 C511 1.348 . S
C510 C512 1.356 . S
C510 O535 1.325 . S
C511 C510 1.348 . S
C511 C513 1.353 . S
C511 H552 0.929 . S
C512 C510 1.356 . S
C512 C514 1.358 . S
C512 H553 0.930 . S
C513 C511 1.353 . S
C513 N515 1.314 . S
C513 H554 0.930 . S
C514 C512 1.358 . S
C514 N515 1.279 . S
C514 H555 0.930 . S
N515 C513 1.314 . S
N515 C514 1.279 . S
C516 C518 1.353 . S
C516 N519 1.314 . S
C516 H522 0.930 . S
C517 N519 1.279 . S
C517 C520 1.358 . S
C517 H523 0.930 . S
C518 C516 1.353 . S
C518 C521 1.348 . S
C518 H556 0.929 . S
N519 Li474 1.990 . S
N519 C516 1.314 . S
N519 C517 1.279 . S
C520 C517 1.358 . S
C520 C521 1.356 . S
C520 H557 0.930 . S
C521 C518 1.348 . S
C521 C520 1.356 . S
H522 C516 0.930 . S
H523 C517 0.930 . S
C524 N525 1.314 . S
C524 C526 1.353 . S
C524 H530 0.930 . S
N525 Li475 1.990 . S
N525 C524 1.314 . S
N525 C528 1.279 . S
C526 C524 1.353 . S
C526 C529 1.348 . S
C526 H558 0.929 . S
C527 C528 1.358 . S
C527 C529 1.356 . S
C527 H559 0.930 . S
C528 N525 1.279 . S
C528 C527 1.358 . S
C528 H531 0.930 . S
C529 C526 1.348 . S
C529 C527 1.356 . S
H530 C524 0.930 . S
H531 C528 0.930 . S
O532 Li472 1.956 . S
O532 Li473 1.970 . S
O532 Li474 1.961 . S
O532 C476 1.325 . S
O533 Li472 1.970 . S
O533 Li473 1.956 . S
O533 Li475 1.961 1_545 S
O533 C482 1.325 . S
O534 Li472 1.961 . S
O534 Li474 1.956 . S
O534 Li475 1.970 1_545 S
O534 C504 1.325 . S
O535 Li473 1.961 1_565 S
O535 Li474 1.970 1_565 S
O535 Li475 1.956 . S
O535 C510 1.325 . S
H536 C478 0.929 . S
H537 C479 0.930 . S
H538 C480 0.930 . S
H539 C481 0.930 . S
H540 C483 0.930 . S
H541 C485 0.929 . S
H542 C486 0.930 . S
H543 C487 0.930 . S
H544 C490 0.930 . S
H545 C493 0.929 . S
H546 C498 0.929 . S
H547 C499 0.930 . S
H548 C506 0.929 1_565 S
H549 C507 0.930 . S
H550 C508 0.924 1_565 S
H551 C509 0.930 . S
H552 C511 0.929 . S
H553 C512 0.930 . S
H554 C513 0.930 . S
H555 C514 0.930 . S
H556 C518 0.929 . S
H557 C520 0.930 . S
H558 C526 0.929 . S
H559 C527 0.930 . S
Li560 N577 1.990 . S
Li560 O620 1.956 . S
Li560 O621 1.970 . S
Li560 O622 1.961 . S
Li561 N585 1.990 . S
Li561 O620 1.970 . S
Li561 O621 1.956 . S
Li561 O623 1.961 . S
Li562 N607 1.990 . S
Li562 O620 1.961 . S
Li562 O622 1.956 . S
Li562 O623 1.970 . S
Li563 N613 1.990 . S
Li563 O621 1.961 . S
Li563 O622 1.970 . S
Li563 O623 1.956 . S
C564 C566 1.348 . S
C564 C567 1.356 . S
C564 O620 1.325 . S
N565 C568 1.314 . S
N565 C569 1.279 . S
C566 C564 1.348 . S
C566 C568 1.353 . S
C566 H624 0.929 . S
C567 C564 1.356 . S
C567 C569 1.358 . S
C567 H625 0.930 . S
C568 N565 1.314 . S
C568 C566 1.353 . S
C568 H626 0.930 . S
C569 N565 1.279 . S
C569 C567 1.358 . S
C569 H627 0.930 . S
C570 C573 1.348 . S
C570 C574 1.356 . S
C570 O621 1.325 . S
C571 N572 1.279 . S
C571 C574 1.358 . S
C571 H628 0.930 . S
N572 C571 1.279 . S
N572 C575 1.314 . S
C573 C570 1.348 . S
C573 C575 1.353 . S
C573 H629 0.929 . S
C574 C570 1.356 . S
C574 C571 1.358 . S
C574 H630 0.930 . S
C575 N572 1.314 . S
C575 C573 1.353 . S
C575 H631 0.930 . S
C576 N577 1.314 . S
C576 C581 1.353 . S
C576 H582 0.930 . S
N577 Li560 1.990 . S
N577 C576 1.314 . S
N577 C579 1.279 . S
C578 C579 1.358 . S
C578 C580 1.356 . S
C578 H632 0.930 . S
C579 N577 1.279 . S
C579 C578 1.358 . S
C579 H583 0.930 . S
C580 C578 1.356 . S
C580 C581 1.348 . S
C581 C576 1.353 . S
C581 C580 1.348 . S
C581 H633 0.929 . S
H582 C576 0.930 . S
H583 C579 0.930 . S
C584 N585 1.314 . S
C584 C586 1.353 . S
C584 H590 0.930 . S
N585 Li561 1.990 . S
N585 C584 1.314 . S
N585 C588 1.279 . S
C586 C584 1.353 . S
C586 C589 1.348 . S
C586 H634 0.929 . S
C587 C588 1.358 . S
C587 C589 1.356 . S
C587 H635 0.930 . S
C588 N585 1.279 . S
C588 C587 1.358 . S
C588 H591 0.930 . S
C589 C586 1.348 . S
C589 C587 1.356 . S
H590 C584 0.930 . S
H591 C588 0.930 . S
C592 C594 1.348 . S
C592 C595 1.356 . S
C592 O622 1.325 . S
N593 C596 1.314 . S
N593 C597 1.279 . S
C594 C592 1.348 . S
C594 C596 1.353 . S
C594 H636 0.929 . S
C595 C592 1.356 . S
C595 C597 1.358 . S
C595 H637 0.930 . S
C596 N593 1.314 . S
C596 C594 1.353 . S
C596 H638 0.930 . S
C597 N593 1.279 . S
C597 C595 1.358 . S
C597 H639 0.930 . S
C598 C599 1.348 . S
C598 C600 1.356 . S
C598 O623 1.325 . S
C599 C598 1.348 . S
C599 C601 1.353 . S
C599 H640 0.929 . S
C600 C598 1.356 . S
C600 C602 1.358 . S
C600 H641 0.930 . S
C601 C599 1.353 . S
C601 N603 1.314 . S
C601 H642 0.930 . S
C602 C600 1.358 . S
C602 N603 1.279 . S
C602 H643 0.930 . S
N603 C601 1.314 . S
N603 C602 1.279 . S
C604 C606 1.353 . S
C604 N607 1.314 . S
C604 H610 0.930 . S
C605 N607 1.279 . S
C605 C608 1.358 . S
C605 H611 0.930 . S
C606 C604 1.353 . S
C606 C609 1.348 . S
C606 H644 0.929 . S
N607 Li562 1.990 . S
N607 C604 1.314 . S
N607 C605 1.279 . S
C608 C605 1.358 . S
C608 C609 1.356 . S
C608 H645 0.930 . S
C609 C606 1.348 . S
C609 C608 1.356 . S
H610 C604 0.930 . S
H611 C605 0.930 . S
C612 N613 1.314 . S
C612 C614 1.353 . S
C612 H618 0.930 . S
N613 Li563 1.990 . S
N613 C612 1.314 . S
N613 C616 1.279 . S
C614 C612 1.353 . S
C614 C617 1.348 . S
C614 H646 0.929 . S
C615 C616 1.358 . S
C615 C617 1.356 . S
C615 H647 0.930 . S
C616 N613 1.279 . S
C616 C615 1.358 . S
C616 H619 0.930 . S
C617 C614 1.348 . S
C617 C615 1.356 . S
H618 C612 0.930 . S
H619 C616 0.930 . S
O620 Li560 1.956 . S
O620 Li561 1.970 . S
O620 Li562 1.961 . S
O620 C564 1.325 . S
O621 Li560 1.970 . S
O621 Li561 1.956 . S
O621 Li563 1.961 . S
O621 C570 1.325 . S
O622 Li560 1.961 . S
O622 Li562 1.956 . S
O622 Li563 1.970 . S
O622 C592 1.325 . S
O623 Li561 1.961 . S
O623 Li562 1.970 . S
O623 Li563 1.956 . S
O623 C598 1.325 . S
H624 C566 0.929 . S
H625 C567 0.930 . S
H626 C568 0.930 . S
H627 C569 0.930 . S
H628 C571 0.930 . S
H629 C573 0.929 . S
H630 C574 0.930 . S
H631 C575 0.930 . S
H632 C578 0.930 . S
H633 C581 0.929 . S
H634 C586 0.929 . S
H635 C587 0.930 . S
H636 C594 0.929 . S
H637 C595 0.930 . S
H638 C596 0.930 . S
H639 C597 0.930 . S
H640 C599 0.929 . S
H641 C600 0.930 . S
H642 C601 0.930 . S
H643 C602 0.930 . S
H644 C606 0.929 . S
H645 C608 0.930 . S
H646 C614 0.929 . S
H647 C615 0.930 . S
Li648 N665 1.990 . S
Li648 O708 1.956 . S
Li648 O709 1.970 . S
Li648 O710 1.961 . S
Li649 N673 1.990 . S
Li649 O708 1.970 . S
Li649 O709 1.956 . S
Li649 O711 1.961 . S
Li650 N695 1.990 . S
Li650 O708 1.961 . S
Li650 O710 1.956 . S
Li650 O711 1.970 . S
Li651 N701 1.990 . S
Li651 O709 1.961 . S
Li651 O710 1.970 . S
Li651 O711 1.956 . S
C652 C654 1.348 . S
C652 C655 1.356 . S
C652 O708 1.325 . S
N653 C656 1.314 . S
N653 C657 1.279 . S
C654 C652 1.348 . S
C654 C656 1.353 . S
C654 H712 0.929 . S
C655 C652 1.356 . S
C655 C657 1.358 . S
C655 H713 0.930 . S
C656 N653 1.314 . S
C656 C654 1.353 . S
C656 H714 0.930 . S
C657 N653 1.279 . S
C657 C655 1.358 . S
C657 H715 0.930 . S
C658 C661 1.348 . S
C658 C662 1.356 . S
C658 O709 1.325 . S
C659 N660 1.279 . S
C659 C662 1.358 . S
C659 H716 0.930 . S
N660 C659 1.279 . S
N660 C663 1.314 . S
C661 C658 1.348 . S
C661 C663 1.353 . S
C661 H717 0.929 . S
C662 C658 1.356 . S
C662 C659 1.358 . S
C662 H718 0.930 . S
C663 N660 1.314 . S
C663 C661 1.353 . S
C663 H719 0.930 . S
C664 N665 1.314 . S
C664 C669 1.353 . S
C664 H670 0.930 . S
N665 Li648 1.990 . S
N665 C664 1.314 . S
N665 C667 1.279 . S
C666 C667 1.358 . S
C666 C668 1.356 . S
C666 H720 0.930 . S
C667 N665 1.279 . S
C667 C666 1.358 . S
C667 H671 0.930 . S
C668 C666 1.356 . S
C668 C669 1.348 . S
C669 C664 1.353 . S
C669 C668 1.348 . S
C669 H721 0.929 . S
H670 C664 0.930 . S
H671 C667 0.930 . S
C672 N673 1.314 . S
C672 C674 1.353 . S
C672 H678 0.930 . S
N673 Li649 1.990 . S
N673 C672 1.314 . S
N673 C676 1.279 . S
C674 C672 1.353 . S
C674 C677 1.348 . S
C674 H722 0.929 . S
C675 C676 1.358 . S
C675 C677 1.356 . S
C675 H723 0.930 . S
C676 N673 1.279 . S
C676 C675 1.358 . S
C676 H679 0.930 . S
C677 C674 1.348 . S
C677 C675 1.356 . S
H678 C672 0.930 . S
H679 C676 0.930 . S
C680 C682 1.348 . S
C680 C683 1.356 . S
C680 O710 1.325 . S
N681 C684 1.314 . S
N681 C685 1.279 . S
C682 C680 1.348 . S
C682 C684 1.353 . S
C682 H724 0.929 . S
C683 C680 1.356 . S
C683 C685 1.358 . S
C683 H725 0.930 . S
C684 N681 1.314 . S
C684 C682 1.353 . S
C684 H726 0.930 . S
C685 N681 1.279 . S
C685 C683 1.358 . S
C685 H727 0.930 . S
C686 C687 1.348 . S
C686 C688 1.356 . S
C686 O711 1.325 . S
C687 C686 1.348 . S
C687 C689 1.353 . S
C687 H728 0.929 . S
C688 C686 1.356 . S
C688 C690 1.358 . S
C688 H729 0.930 . S
C689 C687 1.353 . S
C689 N691 1.314 . S
C689 H730 0.930 . S
C690 C688 1.358 . S
C690 N691 1.279 . S
C690 H731 0.930 . S
N691 C689 1.314 . S
N691 C690 1.279 . S
C692 C694 1.353 . S
C692 N695 1.314 . S
C692 H698 0.930 . S
C693 N695 1.279 . S
C693 C696 1.358 . S
C693 H699 0.930 . S
C694 C692 1.353 . S
C694 C697 1.348 . S
C694 H732 0.929 . S
N695 Li650 1.990 . S
N695 C692 1.314 . S
N695 C693 1.279 . S
C696 C693 1.358 . S
C696 C697 1.356 . S
C696 H733 0.930 . S
C697 C694 1.348 . S
C697 C696 1.356 . S
H698 C692 0.930 . S
H699 C693 0.930 . S
C700 N701 1.314 . S
C700 C702 1.353 . S
C700 H706 0.930 . S
N701 Li651 1.990 . S
N701 C700 1.314 . S
N701 C704 1.279 . S
C702 C700 1.353 . S
C702 C705 1.348 . S
C702 H734 0.929 . S
C703 C704 1.358 . S
C703 C705 1.356 . S
C703 H735 0.930 . S
C704 N701 1.279 . S
C704 C703 1.358 . S
C704 H707 0.930 . S
C705 C702 1.348 . S
C705 C703 1.356 . S
H706 C700 0.930 . S
H707 C704 0.930 . S
O708 Li648 1.956 . S
O708 Li649 1.970 . S
O708 Li650 1.961 . S
O708 C652 1.325 . S
O709 Li648 1.970 . S
O709 Li649 1.956 . S
O709 Li651 1.961 . S
O709 C658 1.325 . S
O710 Li648 1.961 . S
O710 Li650 1.956 . S
O710 Li651 1.970 . S
O710 C680 1.325 . S
O711 Li649 1.961 . S
O711 Li650 1.970 . S
O711 Li651 1.956 . S
O711 C686 1.325 . S
H712 C654 0.929 . S
H713 C655 0.930 . S
H714 C656 0.930 . S
H715 C657 0.930 . S
H716 C659 0.930 . S
H717 C661 0.929 . S
H718 C662 0.930 . S
H719 C663 0.930 . S
H720 C666 0.930 . S
H721 C669 0.929 . S
H722 C674 0.929 . S
H723 C675 0.930 . S
H724 C682 0.929 . S
H725 C683 0.930 . S
H726 C684 0.930 . S
H727 C685 0.930 . S
H728 C687 0.929 . S
H729 C688 0.930 . S
H730 C689 0.930 . S
H731 C690 0.930 . S
H732 C694 0.929 . S
H733 C696 0.930 . S
H734 C702 0.929 . S
H735 C703 0.930 . S
Li736 N753 1.990 . S
Li736 O796 1.956 . S
Li736 O797 1.970 . S
Li736 O798 1.961 . S
Li737 N761 1.990 . S
Li737 O796 1.970 . S
Li737 O797 1.956 . S
Li737 O799 1.961 . S
Li738 N783 1.990 . S
Li738 O796 1.961 . S
Li738 O798 1.956 . S
Li738 O799 1.970 . S
Li739 N789 1.990 . S
Li739 O797 1.961 . S
Li739 O798 1.970 . S
Li739 O799 1.956 . S
C740 C742 1.348 . S
C740 C743 1.356 . S
C740 O796 1.325 . S
N741 C744 1.314 . S
N741 C745 1.279 . S
C742 C740 1.348 . S
C742 C744 1.353 . S
C742 H800 0.929 . S
C743 C740 1.356 . S
C743 C745 1.358 . S
C743 H801 0.930 . S
C744 N741 1.314 . S
C744 C742 1.353 . S
C744 H802 0.930 . S
C745 N741 1.279 . S
C745 C743 1.358 . S
C745 H803 0.930 . S
C746 C749 1.348 . S
C746 C750 1.356 . S
C746 O797 1.325 . S
C747 N748 1.279 . S
C747 C750 1.358 . S
C747 H804 0.930 . S
N748 C747 1.279 . S
N748 C751 1.314 . S
C749 C746 1.348 . S
C749 C751 1.353 . S
C749 H805 0.929 . S
C750 C746 1.356 . S
C750 C747 1.358 . S
C750 H806 0.930 . S
C751 N748 1.314 . S
C751 C749 1.353 . S
C751 H807 0.930 . S
C752 N753 1.314 . S
C752 C757 1.353 . S
C752 H758 0.930 . S
N753 Li736 1.990 . S
N753 C752 1.314 . S
N753 C755 1.279 . S
C754 C755 1.358 . S
C754 C756 1.356 . S
C754 H808 0.930 . S
C755 N753 1.279 . S
C755 C754 1.358 . S
C755 H759 0.930 . S
C756 C754 1.356 . S
C756 C757 1.348 . S
C757 C752 1.353 . S
C757 C756 1.348 . S
C757 H809 0.929 . S
H758 C752 0.930 . S
H759 C755 0.930 . S
C760 N761 1.314 . S
C760 C762 1.353 . S
C760 H766 0.930 . S
N761 Li737 1.990 . S
N761 C760 1.314 . S
N761 C764 1.279 . S
C762 C760 1.353 . S
C762 C765 1.348 . S
C762 H810 0.929 . S
C763 C764 1.358 . S
C763 C765 1.356 . S
C763 H811 0.930 . S
C764 N761 1.279 . S
C764 C763 1.358 . S
C764 H767 0.930 . S
C765 C762 1.348 . S
C765 C763 1.356 . S
H766 C760 0.930 . S
H767 C764 0.930 . S
C768 C770 1.348 . S
C768 C771 1.356 . S
C768 O798 1.325 . S
N769 C772 1.314 . S
N769 C773 1.279 . S
C770 C768 1.348 . S
C770 C772 1.353 . S
C770 H812 0.929 . S
C771 C768 1.356 . S
C771 C773 1.358 . S
C771 H813 0.930 . S
C772 N769 1.314 . S
C772 C770 1.353 . S
C772 H814 0.930 . S
C773 N769 1.279 . S
C773 C771 1.358 . S
C773 H815 0.930 . S
C774 C775 1.348 . S
C774 C776 1.356 . S
C774 O799 1.325 . S
C775 C774 1.348 . S
C775 C777 1.353 . S
C775 H816 0.929 . S
C776 C774 1.356 . S
C776 C778 1.358 . S
C776 H817 0.930 . S
C777 C775 1.353 . S
C777 N779 1.314 . S
C777 H818 0.930 . S
C778 C776 1.358 . S
C778 N779 1.279 . S
C778 H819 0.930 . S
N779 C777 1.314 . S
N779 C778 1.279 . S
C780 C782 1.353 . S
C780 N783 1.314 . S
C780 H786 0.930 . S
C781 N783 1.279 . S
C781 C784 1.358 . S
C781 H787 0.930 . S
C782 C780 1.353 . S
C782 C785 1.348 . S
C782 H820 0.929 . S
N783 Li738 1.990 . S
N783 C780 1.314 . S
N783 C781 1.279 . S
C784 C781 1.358 . S
C784 C785 1.356 . S
C784 H821 0.930 . S
C785 C782 1.348 . S
C785 C784 1.356 . S
H786 C780 0.930 . S
H787 C781 0.930 . S
C788 N789 1.314 . S
C788 C790 1.353 . S
C788 H794 0.930 . S
N789 Li739 1.990 . S
N789 C788 1.314 . S
N789 C792 1.279 . S
C790 C788 1.353 . S
C790 C793 1.348 . S
C790 H822 0.929 . S
C791 C792 1.358 . S
C791 C793 1.356 . S
C791 H823 0.930 . S
C792 N789 1.279 . S
C792 C791 1.358 . S
C792 H795 0.930 . S
C793 C790 1.348 . S
C793 C791 1.356 . S
H794 C788 0.930 . S
H795 C792 0.930 . S
O796 Li736 1.956 . S
O796 Li737 1.970 . S
O796 Li738 1.961 . S
O796 C740 1.325 . S
O797 Li736 1.970 . S
O797 Li737 1.956 . S
O797 Li739 1.961 . S
O797 C746 1.325 . S
O798 Li736 1.961 . S
O798 Li738 1.956 . S
O798 Li739 1.970 . S
O798 C768 1.325 . S
O799 Li737 1.961 . S
O799 Li738 1.970 . S
O799 Li739 1.956 . S
O799 C774 1.325 . S
H800 C742 0.929 . S
H801 C743 0.930 . S
H802 C744 0.930 . S
H803 C745 0.930 . S
H804 C747 0.930 . S
H805 C749 0.929 . S
H806 C750 0.930 . S
H807 C751 0.930 . S
H808 C754 0.930 . S
H809 C757 0.929 . S
H810 C762 0.929 . S
H811 C763 0.930 . S
H812 C770 0.929 . S
H813 C771 0.930 . S
H814 C772 0.930 . S
H815 C773 0.930 . S
H816 C775 0.929 . S
H817 C776 0.930 . S
H818 C777 0.930 . S
H819 C778 0.930 . S
H820 C782 0.929 . S
H821 C784 0.930 . S
H822 C790 0.929 . S
H823 C791 0.930 . S
Li824 N841 1.990 . S
Li824 O884 1.956 . S
Li824 O885 1.970 1_565 S
Li824 O886 1.961 . S
Li825 N849 1.990 . S
Li825 O884 1.970 1_545 S
Li825 O885 1.956 . S
Li825 O887 1.961 . S
Li826 N871 1.990 . S
Li826 O884 1.961 . S
Li826 O886 1.956 . S
Li826 O887 1.970 1_565 S
Li827 N877 1.990 . S
Li827 O885 1.961 . S
Li827 O886 1.970 1_545 S
Li827 O887 1.956 . S
C828 C830 1.348 . S
C828 C831 1.356 . S
C828 O884 1.325 . S
N829 C832 1.314 . S
N829 C833 1.279 . S
C830 C828 1.348 . S
C830 C832 1.353 . S
C830 H888 0.929 . S
C831 C828 1.356 . S
C831 C833 1.358 . S
C831 H889 0.930 . S
C832 N829 1.314 . S
C832 C830 1.353 . S
C832 H890 0.930 . S
C833 N829 1.279 . S
C833 C831 1.358 . S
C833 H891 0.930 . S
C834 C837 1.348 1_545 S
C834 C838 1.356 . S
C834 O885 1.325 . S
C835 N836 1.279 . S
C835 C838 1.358 . S
C835 H892 0.930 . S
N836 C835 1.279 . S
N836 C839 1.314 . S
C837 C834 1.348 1_565 S
C837 C839 1.353 1_565 S
C837 H893 0.929 . S
C838 C834 1.356 . S
C838 C835 1.358 . S
C838 H894 0.930 . S
C839 N836 1.314 . S
C839 C837 1.353 1_545 S
C839 H895 0.930 1_545 S
C840 N841 1.314 . S
C840 C845 1.353 . S
C840 H846 0.930 . S
N841 Li824 1.990 . S
N841 C840 1.314 . S
N841 C843 1.279 . S
C842 C843 1.358 . S
C842 C844 1.356 . S
C842 H896 0.930 . S
C843 N841 1.279 . S
C843 C842 1.358 . S
C843 H847 0.930 . S
C844 C842 1.356 . S
C844 C845 1.348 . S
C845 C840 1.353 . S
C845 C844 1.348 . S
C845 H897 0.929 . S
H846 C840 0.930 . S
H847 C843 0.930 . S
C848 N849 1.314 . S
C848 C850 1.353 . S
C848 H854 0.930 . S
N849 Li825 1.990 . S
N849 C848 1.314 . S
N849 C852 1.279 . S
C850 C848 1.353 . S
C850 C853 1.348 . S
C850 H898 0.929 . S
C851 C852 1.358 . S
C851 C853 1.356 . S
C851 H899 0.930 . S
C852 N849 1.279 . S
C852 C851 1.358 . S
C852 H855 0.930 . S
C853 C850 1.348 . S
C853 C851 1.356 . S
H854 C848 0.930 . S
H855 C852 0.930 . S
C856 C858 1.348 1_565 S
C856 C859 1.356 . S
C856 O886 1.325 . S
N857 C860 1.314 1_565 S
N857 C861 1.279 . S
C858 C856 1.348 1_545 S
C858 C860 1.353 . S
C858 H900 0.929 . S
C859 C856 1.356 . S
C859 C861 1.358 . S
C859 H901 0.930 . S
C860 N857 1.314 1_545 S
C860 C858 1.353 . S
C860 H902 0.930 . S
C861 N857 1.279 . S
C861 C859 1.358 . S
C861 H903 0.930 . S
C862 C863 1.348 . S
C862 C864 1.356 . S
C862 O887 1.325 . S
C863 C862 1.348 . S
C863 C865 1.353 . S
C863 H904 0.929 . S
C864 C862 1.356 . S
C864 C866 1.358 . S
C864 H905 0.930 . S
C865 C863 1.353 . S
C865 N867 1.314 . S
C865 H906 0.930 . S
C866 C864 1.358 . S
C866 N867 1.279 . S
C866 H907 0.930 . S
N867 C865 1.314 . S
N867 C866 1.279 . S
C868 C870 1.353 . S
C868 N871 1.314 . S
C868 H874 0.930 . S
C869 N871 1.279 . S
C869 C872 1.358 . S
C869 H875 0.930 . S
C870 C868 1.353 . S
C870 C873 1.348 . S
C870 H908 0.929 . S
N871 Li826 1.990 . S
N871 C868 1.314 . S
N871 C869 1.279 . S
C872 C869 1.358 . S
C872 C873 1.356 . S
C872 H909 0.930 . S
C873 C870 1.348 . S
C873 C872 1.356 . S
H874 C868 0.930 . S
H875 C869 0.930 . S
C876 N877 1.314 . S
C876 C878 1.353 . S
C876 H882 0.930 . S
N877 Li827 1.990 . S
N877 C876 1.314 . S
N877 C880 1.279 . S
C878 C876 1.353 . S
C878 C881 1.348 . S
C878 H910 0.929 . S
C879 C880 1.358 . S
C879 C881 1.356 . S
C879 H911 0.930 . S
C880 N877 1.279 . S
C880 C879 1.358 . S
C880 H883 0.930 . S
C881 C878 1.348 . S
C881 C879 1.356 . S
H882 C876 0.930 . S
H883 C880 0.930 . S
O884 Li824 1.956 . S
O884 Li825 1.970 1_565 S
O884 Li826 1.961 . S
O884 C828 1.325 . S
O885 Li824 1.970 1_545 S
O885 Li825 1.956 . S
O885 Li827 1.961 . S
O885 C834 1.325 . S
O886 Li824 1.961 . S
O886 Li826 1.956 . S
O886 Li827 1.970 1_565 S
O886 C856 1.325 . S
O887 Li825 1.961 . S
O887 Li826 1.970 1_545 S
O887 Li827 1.956 . S
O887 C862 1.325 . S
H888 C830 0.929 . S
H889 C831 0.930 . S
H890 C832 0.930 . S
H891 C833 0.930 . S
H892 C835 0.930 . S
H893 C837 0.929 . S
H894 C838 0.930 . S
H895 C839 0.930 1_565 S
H896 C842 0.930 . S
H897 C845 0.929 . S
H898 C850 0.929 . S
H899 C851 0.930 . S
H900 C858 0.929 . S
H901 C859 0.930 . S
H902 C860 0.930 . S
H903 C861 0.930 . S
H904 C863 0.929 . S
H905 C864 0.930 . S
H906 C865 0.930 . S
H907 C866 0.930 . S
H908 C870 0.929 . S
H909 C872 0.930 . S
H910 C878 0.929 . S
H911 C879 0.930 . S
Li912 N929 1.990 . S
Li912 O972 1.956 . S
Li912 O973 1.945 1_455 S
Li912 O974 1.988 . S
Li913 N937 1.990 . S
Li913 O972 1.970 1_655 S
Li913 O973 1.958 . S
Li913 O975 1.961 . S
Li914 N959 1.990 . S
Li914 O972 1.961 . S
Li914 O974 1.956 . S
Li914 O975 1.970 1_455 S
Li915 N965 1.990 . S
Li915 O973 1.979 . S
Li915 O974 1.933 1_655 S
Li915 O975 1.956 . S
C916 C918 1.348 . S
C916 C919 1.356 . S
C916 O972 1.325 . S
N917 C920 1.314 . S
N917 C921 1.279 . S
C918 C916 1.348 . S
C918 C920 1.353 . S
C918 H976 0.929 . S
C919 C916 1.356 . S
C919 C921 1.358 . S
C919 H977 0.930 . S
C920 N917 1.314 . S
C920 C918 1.353 . S
C920 H978 0.930 . S
C921 N917 1.279 . S
C921 C919 1.358 . S
C921 H979 0.930 . S
C922 C925 1.348 1_655 S
C922 C926 1.356 . S
C922 O973 1.330 . S
C923 N924 1.279 . S
C923 C926 1.358 . S
C923 H980 0.930 . S
N924 C923 1.279 . S
N924 C927 1.314 1_655 S
C925 C922 1.348 1_455 S
C925 C927 1.353 . S
C925 H981 0.929 . S
C926 C922 1.356 . S
C926 C923 1.358 . S
C926 H982 0.930 . S
C927 N924 1.314 1_455 S
C927 C925 1.353 . S
C927 H983 0.930 . S
C928 N929 1.314 . S
C928 C933 1.353 . S
C928 H934 0.930 . S
N929 Li912 1.990 . S
N929 C928 1.314 . S
N929 C931 1.279 . S
C930 C931 1.358 . S
C930 C932 1.356 . S
C930 H984 0.930 . S
C931 N929 1.279 . S
C931 C930 1.358 . S
C931 H935 0.930 . S
C932 C930 1.356 . S
C932 C933 1.348 . S
C933 C928 1.353 . S
C933 C932 1.348 . S
C933 H985 0.929 . S
H934 C928 0.930 . S
H935 C931 0.930 . S
C936 N937 1.314 . S
C936 C938 1.353 . S
C936 H942 0.930 . S
N937 Li913 1.990 . S
N937 C936 1.314 . S
N937 C940 1.278 1_655 S
C938 C936 1.353 . S
C938 C941 1.348 . S
C938 H986 0.929 . S
C939 C940 1.357 . S
C939 C941 1.354 1_455 S
C939 H987 0.930 . S
C940 N937 1.278 1_455 S
C940 C939 1.357 . S
C940 H943 0.936 . S
C941 C938 1.348 . S
C941 C939 1.354 1_655 S
H942 C936 0.930 . S
H943 C940 0.936 . S
C944 C946 1.348 1_455 S
C944 C947 1.356 . S
C944 O974 1.334 . S
N945 C948 1.314 1_455 S
N945 C949 1.279 . S
C946 C944 1.348 1_655 S
C946 C948 1.353 . S
C946 H988 0.929 . S
C947 C944 1.356 . S
C947 C949 1.358 . S
C947 H989 0.930 . S
C948 N945 1.314 1_655 S
C948 C946 1.353 . S
C948 H990 0.930 . S
C949 N945 1.279 . S
C949 C947 1.358 . S
C949 H991 0.930 . S
C950 C951 1.348 . S
C950 C952 1.356 . S
C950 O975 1.325 . S
C951 C950 1.348 . S
C951 C953 1.353 . S
C951 H992 0.929 . S
C952 C950 1.356 . S
C952 C954 1.358 . S
C952 H993 0.930 . S
C953 C951 1.353 . S
C953 N955 1.314 . S
C953 H994 0.930 . S
C954 C952 1.358 . S
C954 N955 1.279 . S
C954 H995 0.930 . S
N955 C953 1.314 . S
N955 C954 1.279 . S
C956 C958 1.353 . S
C956 N959 1.314 . S
C956 H962 0.930 . S
C957 N959 1.279 1_655 S
C957 C960 1.357 . S
C957 H963 0.932 . S
C958 C956 1.353 . S
C958 C961 1.348 . S
C958 H996 0.929 . S
N959 Li914 1.990 . S
N959 C956 1.314 . S
N959 C957 1.279 1_455 S
C960 C957 1.357 . S
C960 C961 1.356 1_655 S
C960 H997 0.929 . S
C961 C958 1.348 . S
C961 C960 1.356 1_455 S
H962 C956 0.930 . S
H963 C957 0.932 . S
C964 N965 1.314 . S
C964 C966 1.353 . S
C964 H970 0.930 . S
N965 Li915 1.990 . S
N965 C964 1.314 . S
N965 C968 1.279 . S
C966 C964 1.353 . S
C966 C969 1.348 . S
C966 H998 0.929 . S
C967 C968 1.358 . S
C967 C969 1.356 . S
C967 H999 0.930 . S
C968 N965 1.279 . S
C968 C967 1.358 . S
C968 H971 0.930 . S
C969 C966 1.348 . S
C969 C967 1.356 . S
H970 C964 0.930 . S
H971 C968 0.930 . S
O972 Li912 1.956 . S
O972 Li913 1.970 1_455 S
O972 Li914 1.961 . S
O972 C916 1.325 . S
O973 Li912 1.945 1_655 S
O973 Li913 1.958 . S
O973 Li915 1.979 . S
O973 C922 1.330 . S
O974 Li912 1.988 . S
O974 Li914 1.956 . S
O974 Li915 1.933 1_455 S
O974 C944 1.334 . S
O975 Li913 1.961 . S
O975 Li914 1.970 1_655 S
O975 Li915 1.956 . S
O975 C950 1.325 . S
H976 C918 0.929 . S
H977 C919 0.930 . S
H978 C920 0.930 . S
H979 C921 0.930 . S
H980 C923 0.930 . S
H981 C925 0.929 . S
H982 C926 0.930 . S
H983 C927 0.930 . S
H984 C930 0.930 . S
H985 C933 0.929 . S
H986 C938 0.929 . S
H987 C939 0.930 . S
H988 C946 0.929 . S
H989 C947 0.930 . S
H990 C948 0.930 . S
H991 C949 0.930 . S
H992 C951 0.929 . S
H993 C952 0.930 . S
H994 C953 0.930 . S
H995 C954 0.930 . S
H996 C958 0.929 . S
H997 C960 0.929 . S
H998 C966 0.929 . S
H999 C967 0.930 . S
Li1000 N1017 1.990 . S
Li1000 O1060 1.956 . S
Li1000 O1061 1.970 . S
Li1000 O1062 1.961 . S
Li1001 N1025 1.990 . S
Li1001 O1060 1.970 . S
Li1001 O1061 1.956 . S
Li1001 O1063 1.961 . S
Li1002 N1047 1.990 . S
Li1002 O1060 1.961 . S
Li1002 O1062 1.956 . S
Li1002 O1063 1.970 . S
Li1003 N1053 1.990 . S
Li1003 O1061 1.961 . S
Li1003 O1062 1.970 . S
Li1003 O1063 1.956 . S
C1004 C1006 1.348 . S
C1004 C1007 1.356 . S
C1004 O1060 1.325 . S
N1005 C1008 1.314 . S
N1005 C1009 1.279 . S
C1006 C1004 1.348 . S
C1006 C1008 1.353 . S
C1006 H1064 0.929 . S
C1007 C1004 1.356 . S
C1007 C1009 1.358 . S
C1007 H1065 0.930 . S
C1008 N1005 1.314 . S
C1008 C1006 1.353 . S
C1008 H1066 0.930 . S
C1009 N1005 1.279 . S
C1009 C1007 1.358 . S
C1009 H1067 0.930 . S
C1010 C1013 1.348 . S
C1010 C1014 1.356 . S
C1010 O1061 1.325 . S
C1011 N1012 1.279 . S
C1011 C1014 1.358 . S
C1011 H1068 0.930 . S
N1012 C1011 1.279 . S
N1012 C1015 1.314 . S
C1013 C1010 1.348 . S
C1013 C1015 1.353 . S
C1013 H1069 0.929 . S
C1014 C1010 1.356 . S
C1014 C1011 1.358 . S
C1014 H1070 0.930 . S
C1015 N1012 1.314 . S
C1015 C1013 1.353 . S
C1015 H1071 0.930 . S
C1016 N1017 1.314 . S
C1016 C1021 1.353 . S
C1016 H1022 0.930 . S
N1017 Li1000 1.990 . S
N1017 C1016 1.314 . S
N1017 C1019 1.279 . S
C1018 C1019 1.358 . S
C1018 C1020 1.356 . S
C1018 H1072 0.930 . S
C1019 N1017 1.279 . S
C1019 C1018 1.358 . S
C1019 H1023 0.930 . S
C1020 C1018 1.356 . S
C1020 C1021 1.348 . S
C1021 C1016 1.353 . S
C1021 C1020 1.348 . S
C1021 H1073 0.929 . S
H1022 C1016 0.930 . S
H1023 C1019 0.930 . S
C1024 N1025 1.314 . S
C1024 C1026 1.353 . S
C1024 H1030 0.930 . S
N1025 Li1001 1.990 . S
N1025 C1024 1.314 . S
N1025 C1028 1.279 . S
C1026 C1024 1.353 . S
C1026 C1029 1.348 . S
C1026 H1074 0.929 . S
C1027 C1028 1.358 . S
C1027 C1029 1.356 . S
C1027 H1075 0.930 . S
C1028 N1025 1.279 . S
C1028 C1027 1.358 . S
C1028 H1031 0.930 . S
C1029 C1026 1.348 . S
C1029 C1027 1.356 . S
H1030 C1024 0.930 . S
H1031 C1028 0.930 . S
C1032 C1034 1.348 . S
C1032 C1035 1.356 . S
C1032 O1062 1.325 . S
N1033 C1036 1.314 . S
N1033 C1037 1.279 . S
C1034 C1032 1.348 . S
C1034 C1036 1.353 . S
C1034 H1076 0.929 . S
C1035 C1032 1.356 . S
C1035 C1037 1.358 . S
C1035 H1077 0.930 . S
C1036 N1033 1.314 . S
C1036 C1034 1.353 . S
C1036 H1078 0.930 . S
C1037 N1033 1.279 . S
C1037 C1035 1.358 . S
C1037 H1079 0.930 . S
C1038 C1039 1.348 . S
C1038 C1040 1.356 . S
C1038 O1063 1.325 . S
C1039 C1038 1.348 . S
C1039 C1041 1.353 . S
C1039 H1080 0.929 . S
C1040 C1038 1.356 . S
C1040 C1042 1.358 . S
C1040 H1081 0.930 . S
C1041 C1039 1.353 . S
C1041 N1043 1.314 . S
C1041 H1082 0.930 . S
C1042 C1040 1.358 . S
C1042 N1043 1.279 . S
C1042 H1083 0.930 . S
N1043 C1041 1.314 . S
N1043 C1042 1.279 . S
C1044 C1046 1.353 . S
C1044 N1047 1.314 . S
C1044 H1050 0.930 . S
C1045 N1047 1.279 . S
C1045 C1048 1.358 . S
C1045 H1051 0.930 . S
C1046 C1044 1.353 . S
C1046 C1049 1.348 . S
C1046 H1084 0.929 . S
N1047 Li1002 1.990 . S
N1047 C1044 1.314 . S
N1047 C1045 1.279 . S
C1048 C1045 1.358 . S
C1048 C1049 1.356 . S
C1048 H1085 0.930 . S
C1049 C1046 1.348 . S
C1049 C1048 1.356 . S
H1050 C1044 0.930 . S
H1051 C1045 0.930 . S
C1052 N1053 1.314 . S
C1052 C1054 1.353 . S
C1052 H1058 0.930 . S
N1053 Li1003 1.990 . S
N1053 C1052 1.314 . S
N1053 C1056 1.279 . S
C1054 C1052 1.353 . S
C1054 C1057 1.348 . S
C1054 H1086 0.929 . S
C1055 C1056 1.358 . S
C1055 C1057 1.356 . S
C1055 H1087 0.930 . S
C1056 N1053 1.279 . S
C1056 C1055 1.358 . S
C1056 H1059 0.930 . S
C1057 C1054 1.348 . S
C1057 C1055 1.356 . S
H1058 C1052 0.930 . S
H1059 C1056 0.930 . S
O1060 Li1000 1.956 . S
O1060 Li1001 1.970 . S
O1060 Li1002 1.961 . S
O1060 C1004 1.325 . S
O1061 Li1000 1.970 . S
O1061 Li1001 1.956 . S
O1061 Li1003 1.961 . S
O1061 C1010 1.325 . S
O1062 Li1000 1.961 . S
O1062 Li1002 1.956 . S
O1062 Li1003 1.970 . S
O1062 C1032 1.325 . S
O1063 Li1001 1.961 . S
O1063 Li1002 1.970 . S
O1063 Li1003 1.956 . S
O1063 C1038 1.325 . S
H1064 C1006 0.929 . S
H1065 C1007 0.930 . S
H1066 C1008 0.930 . S
H1067 C1009 0.930 . S
H1068 C1011 0.930 . S
H1069 C1013 0.929 . S
H1070 C1014 0.930 . S
H1071 C1015 0.930 . S
H1072 C1018 0.930 . S
H1073 C1021 0.929 . S
H1074 C1026 0.929 . S
H1075 C1027 0.930 . S
H1076 C1034 0.929 . S
H1077 C1035 0.930 . S
H1078 C1036 0.930 . S
H1079 C1037 0.930 . S
H1080 C1039 0.929 . S
H1081 C1040 0.930 . S
H1082 C1041 0.930 . S
H1083 C1042 0.930 . S
H1084 C1046 0.929 . S
H1085 C1048 0.930 . S
H1086 C1054 0.929 . S
H1087 C1055 0.930 . S
Li1088 N1105 1.990 . S
Li1088 O1148 1.956 . S
Li1088 O1149 1.970 1_455 S
Li1088 O1150 1.961 . S
Li1089 N1113 1.997 . S
Li1089 O1148 1.965 1_655 S
Li1089 O1149 1.957 . S
Li1089 O1151 1.956 1_655 S
Li1090 N1135 1.990 . S
Li1090 O1148 1.961 . S
Li1090 O1150 1.956 . S
Li1090 O1151 1.970 . S
Li1091 N1141 1.990 . S
Li1091 O1149 1.961 1_455 S
Li1091 O1150 1.970 . S
Li1091 O1151 1.956 . S
C1092 C1094 1.348 . S
C1092 C1095 1.356 . S
C1092 O1148 1.325 . S
N1093 C1096 1.314 . S
N1093 C1097 1.279 . S
C1094 C1092 1.348 . S
C1094 C1096 1.353 . S
C1094 H1152 0.970 . S
C1095 C1092 1.356 . S
C1095 C1097 1.358 . S
C1095 H1153 0.930 . S
C1096 N1093 1.314 . S
C1096 C1094 1.353 . S
C1096 H1154 0.930 . S
C1097 N1093 1.279 . S
C1097 C1095 1.358 . S
C1097 H1155 0.930 . S
C1098 C1101 1.348 . S
C1098 C1102 1.356 . S
C1098 O1149 1.325 . S
C1099 N1100 1.279 . S
C1099 C1102 1.358 . S
C1099 H1156 0.930 . S
N1100 C1099 1.279 . S
N1100 C1103 1.314 . S
C1101 C1098 1.348 . S
C1101 C1103 1.353 . S
C1101 H1157 0.929 . S
C1102 C1098 1.356 . S
C1102 C1099 1.358 . S
C1102 H1158 0.930 . S
C1103 N1100 1.314 . S
C1103 C1101 1.353 . S
C1103 H1159 0.930 . S
C1104 N1105 1.314 . S
C1104 C1109 1.353 . S
C1104 H1110 0.930 . S
N1105 Li1088 1.990 . S
N1105 C1104 1.314 . S
N1105 C1107 1.279 . S
C1106 C1107 1.358 . S
C1106 C1108 1.356 . S
C1106 H1160 0.930 . S
C1107 N1105 1.279 . S
C1107 C1106 1.358 . S
C1107 H1111 0.930 . S
C1108 C1106 1.356 . S
C1108 C1109 1.348 . S
C1109 C1104 1.353 . S
C1109 C1108 1.348 . S
C1109 H1161 0.929 . S
H1110 C1104 0.930 . S
H1111 C1107 0.930 . S
C1112 N1113 1.314 . S
C1112 C1114 1.353 . S
C1112 H1118 0.930 . S
N1113 Li1089 1.997 . S
N1113 C1112 1.314 . S
N1113 C1116 1.279 . S
C1114 C1112 1.353 . S
C1114 C1117 1.348 . S
C1114 H1162 0.929 . S
C1115 C1116 1.358 . S
C1115 C1117 1.356 . S
C1115 H1163 0.930 . S
C1116 N1113 1.279 . S
C1116 C1115 1.358 . S
C1116 H1119 0.930 . S
C1117 C1114 1.348 . S
C1117 C1115 1.356 . S
H1118 C1112 0.930 . S
H1119 C1116 0.930 . S
C1120 C1122 1.348 . S
C1120 C1123 1.356 . S
C1120 O1150 1.325 . S
N1121 C1124 1.314 . S
N1121 C1125 1.279 . S
C1122 C1120 1.348 . S
C1122 C1124 1.353 . S
C1122 H1164 0.929 . S
C1123 C1120 1.356 . S
C1123 C1125 1.358 . S
C1123 H1165 0.930 . S
C1124 N1121 1.314 . S
C1124 C1122 1.353 . S
C1124 H1166 0.930 . S
C1125 N1121 1.279 . S
C1125 C1123 1.358 . S
C1125 H1167 0.930 . S
C1126 C1127 1.348 . S
C1126 C1128 1.356 1_455 S
C1126 O1151 1.325 . S
C1127 C1126 1.348 . S
C1127 C1129 1.353 . S
C1127 H1168 0.929 . S
C1128 C1126 1.356 1_655 S
C1128 C1130 1.358 . S
C1128 H1169 0.930 . S
C1129 C1127 1.353 . S
C1129 N1131 1.314 . S
C1129 H1170 0.930 . S
C1130 C1128 1.358 . S
C1130 N1131 1.279 1_655 S
C1130 H1171 0.930 . S
N1131 C1129 1.314 . S
N1131 C1130 1.279 1_455 S
C1132 C1134 1.353 . S
C1132 N1135 1.314 . S
C1132 H1138 0.930 . S
C1133 N1135 1.279 . S
C1133 C1136 1.358 . S
C1133 H1139 0.930 . S
C1134 C1132 1.353 . S
C1134 C1137 1.348 . S
C1134 H1172 0.929 . S
N1135 Li1090 1.990 . S
N1135 C1132 1.314 . S
N1135 C1133 1.279 . S
C1136 C1133 1.358 . S
C1136 C1137 1.356 . S
C1136 H1173 0.930 . S
C1137 C1134 1.348 . S
C1137 C1136 1.356 . S
H1138 C1132 0.930 . S
H1139 C1133 0.930 . S
C1140 N1141 1.318 . S
C1140 C1142 1.352 1_455 S
C1140 H1146 0.926 1_455 S
N1141 Li1091 1.990 . S
N1141 C1140 1.318 . S
N1141 C1144 1.279 . S
C1142 C1140 1.352 1_655 S
C1142 C1145 1.361 . S
C1142 H1174 0.929 . S
C1143 C1144 1.358 . S
C1143 C1145 1.346 1_455 S
C1143 H1175 0.930 . S
C1144 N1141 1.279 . S
C1144 C1143 1.358 . S
C1144 H1147 0.930 . S
C1145 C1142 1.361 . S
C1145 C1143 1.346 1_655 S
H1146 C1140 0.926 1_655 S
H1147 C1144 0.930 . S
O1148 Li1088 1.956 . S
O1148 Li1089 1.965 1_455 S
O1148 Li1090 1.961 . S
O1148 C1092 1.325 . S
O1149 Li1088 1.970 1_655 S
O1149 Li1089 1.957 . S
O1149 Li1091 1.961 1_655 S
O1149 C1098 1.325 . S
O1150 Li1088 1.961 . S
O1150 Li1090 1.956 . S
O1150 Li1091 1.970 . S
O1150 C1120 1.325 . S
O1151 Li1089 1.956 1_455 S
O1151 Li1090 1.970 . S
O1151 Li1091 1.956 . S
O1151 C1126 1.325 . S
H1152 C1094 0.970 . S
H1153 C1095 0.930 . S
H1154 C1096 0.930 . S
H1155 C1097 0.930 . S
H1156 C1099 0.930 . S
H1157 C1101 0.929 . S
H1158 C1102 0.930 . S
H1159 C1103 0.930 . S
H1160 C1106 0.930 . S
H1161 C1109 0.929 . S
H1162 C1114 0.929 . S
H1163 C1115 0.930 . S
H1164 C1122 0.929 . S
H1165 C1123 0.930 . S
H1166 C1124 0.930 . S
H1167 C1125 0.930 . S
H1168 C1127 0.929 . S
H1169 C1128 0.930 . S
H1170 C1129 0.930 . S
H1171 C1130 0.930 . S
H1172 C1134 0.929 . S
H1173 C1136 0.930 . S
H1174 C1142 0.929 . S
H1175 C1143 0.930 . S
Li1176 N1193 1.990 . S
Li1176 O1236 1.956 . S
Li1176 O1237 1.970 . S
Li1176 O1238 1.961 . S
Li1177 N1201 1.990 . S
Li1177 O1236 1.970 . S
Li1177 O1237 1.956 . S
Li1177 O1239 1.961 . S
Li1178 N1223 1.990 . S
Li1178 O1236 1.961 . S
Li1178 O1238 1.956 . S
Li1178 O1239 1.970 . S
Li1179 N1229 1.990 . S
Li1179 O1237 1.961 . S
Li1179 O1238 1.970 . S
Li1179 O1239 1.956 . S
C1180 C1182 1.348 . S
C1180 C1183 1.356 . S
C1180 O1236 1.325 . S
N1181 C1184 1.314 . S
N1181 C1185 1.279 . S
C1182 C1180 1.348 . S
C1182 C1184 1.353 . S
C1182 H1240 0.929 . S
C1183 C1180 1.356 . S
C1183 C1185 1.358 . S
C1183 H1241 0.930 . S
C1184 N1181 1.314 . S
C1184 C1182 1.353 . S
C1184 H1242 0.930 . S
C1185 N1181 1.279 . S
C1185 C1183 1.358 . S
C1185 H1243 0.930 . S
C1186 C1189 1.348 . S
C1186 C1190 1.356 . S
C1186 O1237 1.325 . S
C1187 N1188 1.279 . S
C1187 C1190 1.358 . S
C1187 H1244 0.930 . S
N1188 C1187 1.279 . S
N1188 C1191 1.314 . S
C1189 C1186 1.348 . S
C1189 C1191 1.353 . S
C1189 H1245 0.929 . S
C1190 C1186 1.356 . S
C1190 C1187 1.358 . S
C1190 H1246 0.930 . S
C1191 N1188 1.314 . S
C1191 C1189 1.353 . S
C1191 H1247 0.930 . S
C1192 N1193 1.314 . S
C1192 C1197 1.353 . S
C1192 H1198 0.930 . S
N1193 Li1176 1.990 . S
N1193 C1192 1.314 . S
N1193 C1195 1.279 . S
C1194 C1195 1.358 . S
C1194 C1196 1.356 . S
C1194 H1248 0.930 . S
C1195 N1193 1.279 . S
C1195 C1194 1.358 . S
C1195 H1199 0.930 . S
C1196 C1194 1.356 . S
C1196 C1197 1.348 . S
C1197 C1192 1.353 . S
C1197 C1196 1.348 . S
C1197 H1249 0.929 . S
H1198 C1192 0.930 . S
H1199 C1195 0.930 . S
C1200 N1201 1.314 . S
C1200 C1202 1.353 . S
C1200 H1206 0.930 . S
N1201 Li1177 1.990 . S
N1201 C1200 1.314 . S
N1201 C1204 1.279 . S
C1202 C1200 1.353 . S
C1202 C1205 1.348 . S
C1202 H1250 0.929 . S
C1203 C1204 1.358 . S
C1203 C1205 1.356 . S
C1203 H1251 0.930 . S
C1204 N1201 1.279 . S
C1204 C1203 1.358 . S
C1204 H1207 0.930 . S
C1205 C1202 1.348 . S
C1205 C1203 1.356 . S
H1206 C1200 0.930 . S
H1207 C1204 0.930 . S
C1208 C1210 1.348 . S
C1208 C1211 1.356 . S
C1208 O1238 1.325 . S
N1209 C1212 1.314 . S
N1209 C1213 1.279 . S
C1210 C1208 1.348 . S
C1210 C1212 1.353 . S
C1210 H1252 0.929 . S
C1211 C1208 1.356 . S
C1211 C1213 1.358 . S
C1211 H1253 0.930 . S
C1212 N1209 1.314 . S
C1212 C1210 1.353 . S
C1212 H1254 0.930 . S
C1213 N1209 1.279 . S
C1213 C1211 1.358 . S
C1213 H1255 0.930 . S
C1214 C1215 1.348 . S
C1214 C1216 1.356 . S
C1214 O1239 1.325 . S
C1215 C1214 1.348 . S
C1215 C1217 1.353 . S
C1215 H1256 0.929 . S
C1216 C1214 1.356 . S
C1216 C1218 1.358 . S
C1216 H1257 0.930 . S
C1217 C1215 1.353 . S
C1217 N1219 1.314 . S
C1217 H1258 0.930 . S
C1218 C1216 1.358 . S
C1218 N1219 1.279 . S
C1218 H1259 0.930 . S
N1219 C1217 1.314 . S
N1219 C1218 1.279 . S
C1220 C1222 1.353 . S
C1220 N1223 1.314 . S
C1220 H1226 0.930 . S
C1221 N1223 1.279 . S
C1221 C1224 1.358 . S
C1221 H1227 0.930 . S
C1222 C1220 1.353 . S
C1222 C1225 1.348 . S
C1222 H1260 0.929 . S
N1223 Li1178 1.990 . S
N1223 C1220 1.314 . S
N1223 C1221 1.279 . S
C1224 C1221 1.358 . S
C1224 C1225 1.356 . S
C1224 H1261 0.930 . S
C1225 C1222 1.348 . S
C1225 C1224 1.356 . S
H1226 C1220 0.930 . S
H1227 C1221 0.930 . S
C1228 N1229 1.314 . S
C1228 C1230 1.353 . S
C1228 H1234 0.930 . S
N1229 Li1179 1.990 . S
N1229 C1228 1.314 . S
N1229 C1232 1.279 . S
C1230 C1228 1.353 . S
C1230 C1233 1.348 . S
C1230 H1262 0.929 . S
C1231 C1232 1.358 . S
C1231 C1233 1.356 . S
C1231 H1263 0.930 . S
C1232 N1229 1.279 . S
C1232 C1231 1.358 . S
C1232 H1235 0.930 . S
C1233 C1230 1.348 . S
C1233 C1231 1.356 . S
H1234 C1228 0.930 . S
H1235 C1232 0.930 . S
O1236 Li1176 1.956 . S
O1236 Li1177 1.970 . S
O1236 Li1178 1.961 . S
O1236 C1180 1.325 . S
O1237 Li1176 1.970 . S
O1237 Li1177 1.956 . S
O1237 Li1179 1.961 . S
O1237 C1186 1.325 . S
O1238 Li1176 1.961 . S
O1238 Li1178 1.956 . S
O1238 Li1179 1.970 . S
O1238 C1208 1.325 . S
O1239 Li1177 1.961 . S
O1239 Li1178 1.970 . S
O1239 Li1179 1.956 . S
O1239 C1214 1.325 . S
H1240 C1182 0.929 . S
H1241 C1183 0.930 . S
H1242 C1184 0.930 . S
H1243 C1185 0.930 . S
H1244 C1187 0.930 . S
H1245 C1189 0.929 . S
H1246 C1190 0.930 . S
H1247 C1191 0.930 . S
H1248 C1194 0.930 . S
H1249 C1197 0.929 . S
H1250 C1202 0.929 . S
H1251 C1203 0.930 . S
H1252 C1210 0.929 . S
H1253 C1211 0.930 . S
H1254 C1212 0.930 . S
H1255 C1213 0.930 . S
H1256 C1215 0.929 . S
H1257 C1216 0.930 . S
H1258 C1217 0.930 . S
H1259 C1218 0.930 . S
H1260 C1222 0.929 . S
H1261 C1224 0.930 . S
H1262 C1230 0.929 . S
H1263 C1231 0.930 . S
H1264 C1270 0.930 . S
H1265 C1274 0.930 . S
H1266 C1279 0.929 . S
H1267 C1277 0.929 . S
H1268 C1272 0.929 . S
H1269 C1278 0.929 . S
C1270 H1264 0.930 . S
C1270 C1271 1.367 . S
C1270 C1278 1.378 . S
C1271 C1270 1.367 . S
C1271 C1279 1.433 . S
C1272 H1268 0.929 . S
C1272 C1274 1.378 . S
C1272 C1276 1.350 . S
C1273 C1276 1.463 . S
C1273 C1278 1.350 . S
C1273 N1281 1.427 . S
C1274 H1265 0.930 . S
C1274 C1272 1.378 . S
C1274 C1275 1.367 . S
C1275 C1274 1.367 . S
C1275 C1277 1.433 . S
C1276 C1272 1.350 . S
C1276 C1273 1.463 . S
C1276 N1280 1.427 . S
C1277 H1267 0.929 . S
C1277 C1275 1.433 . S
C1277 N1280 1.384 . S
C1278 H1269 0.929 . S
C1278 C1270 1.378 . S
C1278 C1273 1.350 . S
C1279 H1266 0.929 . S
C1279 C1271 1.433 . S
C1279 N1281 1.384 . S
N1280 C1276 1.427 . S
N1280 C1277 1.384 . S
N1281 C1273 1.427 . S
N1281 C1279 1.384 . S
H1282 C1288 0.930 . S
H1283 C1292 0.930 . S
H1284 C1297 0.929 . S
H1285 C1295 0.929 . S
H1286 C1290 0.929 . S
H1287 C1296 0.929 . S
C1288 H1282 0.930 . S
C1288 C1289 1.367 . S
C1288 C1296 1.378 . S
C1289 C1288 1.367 . S
C1289 C1297 1.433 . S
C1290 H1286 0.929 . S
C1290 C1292 1.378 . S
C1290 C1294 1.350 . S
C1291 C1294 1.463 . S
C1291 C1296 1.350 . S
C1291 N1299 1.427 . S
C1292 H1283 0.930 . S
C1292 C1290 1.378 . S
C1292 C1293 1.367 . S
C1293 C1292 1.367 . S
C1293 C1295 1.433 . S
C1294 C1290 1.350 . S
C1294 C1291 1.463 . S
C1294 N1298 1.427 . S
C1295 H1285 0.929 . S
C1295 C1293 1.433 . S
C1295 N1298 1.384 . S
C1296 H1287 0.929 . S
C1296 C1288 1.378 . S
C1296 C1291 1.350 . S
C1297 H1284 0.929 . S
C1297 C1289 1.433 . S
C1297 N1299 1.384 . S
N1298 C1294 1.427 . S
N1298 C1295 1.384 . S
N1299 C1291 1.427 . S
N1299 C1297 1.384 . S
H1300 C1306 0.930 . S
H1301 C1310 0.930 . S
H1302 C1315 0.929 . S
H1303 C1313 0.929 . S
H1304 C1308 0.929 . S
H1305 C1314 0.929 . S
C1306 H1300 0.930 . S
C1306 C1307 1.367 . S
C1306 C1314 1.378 . S
C1307 C1306 1.367 . S
C1307 C1315 1.433 . S
C1308 H1304 0.929 . S
C1308 C1310 1.378 . S
C1308 C1312 1.350 . S
C1309 C1312 1.463 . S
C1309 C1314 1.350 . S
C1309 N1317 1.427 . S
C1310 H1301 0.930 . S
C1310 C1308 1.378 . S
C1310 C1311 1.367 . S
C1311 C1310 1.367 . S
C1311 C1313 1.433 . S
C1312 C1308 1.350 . S
C1312 C1309 1.463 . S
C1312 N1316 1.427 . S
C1313 H1303 0.929 . S
C1313 C1311 1.433 . S
C1313 N1316 1.384 . S
C1314 H1305 0.929 . S
C1314 C1306 1.378 . S
C1314 C1309 1.350 . S
C1315 H1302 0.929 . S
C1315 C1307 1.433 . S
C1315 N1317 1.384 . S
N1316 C1312 1.427 . S
N1316 C1313 1.384 . S
N1317 C1309 1.427 . S
N1317 C1315 1.384 . S
H1318 C1324 0.930 . S
H1319 C1328 0.930 . S
H1320 C1333 0.929 . S
H1321 C1331 0.929 . S
H1322 C1326 0.929 . S
H1323 C1332 0.929 . S
C1324 H1318 0.930 . S
C1324 C1325 1.367 1_545 S
C1324 C1332 1.378 1_455 S
C1325 C1324 1.367 1_565 S
C1325 C1333 1.433 1_455 S
C1326 H1322 0.929 . S
C1326 C1328 1.378 . S
C1326 C1330 1.350 . S
C1327 C1330 1.463 . S
C1327 C1332 1.350 1_565 S
C1327 N1335 1.427 . S
C1328 H1319 0.930 . S
C1328 C1326 1.378 . S
C1328 C1329 1.367 1_565 S
C1329 C1328 1.367 1_545 S
C1329 C1331 1.433 . S
C1330 C1326 1.350 . S
C1330 C1327 1.463 . S
C1330 N1334 1.427 1_565 S
C1331 H1321 0.929 . S
C1331 C1329 1.433 . S
C1331 N1334 1.384 . S
C1332 H1323 0.929 . S
C1332 C1324 1.378 1_655 S
C1332 C1327 1.350 1_545 S
C1333 H1320 0.929 . S
C1333 C1325 1.433 1_655 S
C1333 N1335 1.384 . S
N1334 C1330 1.427 1_545 S
N1334 C1331 1.384 . S
N1335 C1327 1.427 . S
N1335 C1333 1.384 . S
H1336 C1342 0.930 . S
H1337 C1346 0.930 . S
H1338 C1351 0.929 . S
H1339 C1349 0.929 . S
H1340 C1344 0.929 . S
H1341 C1350 0.929 . S
C1342 H1336 0.930 . S
C1342 C1343 1.367 . S
C1342 C1350 1.378 . S
C1343 C1342 1.367 . S
C1343 C1351 1.433 . S
C1344 H1340 0.929 . S
C1344 C1346 1.378 . S
C1344 C1348 1.350 . S
C1345 C1348 1.463 . S
C1345 C1350 1.350 . S
C1345 N1353 1.427 . S
C1346 H1337 0.930 . S
C1346 C1344 1.378 . S
C1346 C1347 1.367 . S
C1347 C1346 1.367 . S
C1347 C1349 1.433 . S
C1348 C1344 1.350 . S
C1348 C1345 1.463 . S
C1348 N1352 1.427 . S
C1349 H1339 0.929 . S
C1349 C1347 1.433 . S
C1349 N1352 1.384 . S
C1350 H1341 0.929 . S
C1350 C1342 1.378 . S
C1350 C1345 1.350 . S
C1351 H1338 0.929 . S
C1351 C1343 1.433 . S
C1351 N1353 1.384 . S
N1352 C1348 1.427 . S
N1352 C1349 1.384 . S
N1353 C1345 1.427 . S
N1353 C1351 1.384 . S
H1354 C1360 0.930 . S
H1355 C1364 0.930 . S
H1356 C1369 0.929 . S
H1357 C1367 0.929 . S
H1358 C1362 0.929 . S
H1359 C1368 0.929 . S
C1360 H1354 0.930 . S
C1360 C1361 1.367 . S
C1360 C1368 1.378 . S
C1361 C1360 1.367 . S
C1361 C1369 1.433 . S
C1362 H1358 0.929 . S
C1362 C1364 1.378 . S
C1362 C1366 1.350 . S
C1363 C1366 1.463 . S
C1363 C1368 1.350 . S
C1363 N1371 1.427 . S
C1364 H1355 0.930 . S
C1364 C1362 1.378 . S
C1364 C1365 1.367 . S
C1365 C1364 1.367 . S
C1365 C1367 1.433 . S
C1366 C1362 1.350 . S
C1366 C1363 1.463 . S
C1366 N1370 1.427 . S
C1367 H1357 0.929 . S
C1367 C1365 1.433 . S
C1367 N1370 1.384 . S
C1368 H1359 0.929 . S
C1368 C1360 1.378 . S
C1368 C1363 1.350 . S
C1369 H1356 0.929 . S
C1369 C1361 1.433 . S
C1369 N1371 1.384 . S
N1370 C1366 1.427 . S
N1370 C1367 1.384 . S
N1371 C1363 1.427 . S
N1371 C1369 1.384 . S
H1372 C1378 0.930 . S
H1373 C1382 0.930 . S
H1374 C1387 0.929 . S
H1375 C1385 0.929 . S
H1376 C1380 0.929 . S
H1377 C1386 0.929 . S
C1378 H1372 0.930 . S
C1378 C1379 1.367 . S
C1378 C1386 1.378 . S
C1379 C1378 1.367 . S
C1379 C1387 1.433 . S
C1380 H1376 0.929 . S
C1380 C1382 1.378 . S
C1380 C1384 1.350 . S
C1381 C1384 1.463 . S
C1381 C1386 1.350 . S
C1381 N1389 1.427 . S
C1382 H1373 0.930 . S
C1382 C1380 1.378 . S
C1382 C1383 1.367 . S
C1383 C1382 1.367 . S
C1383 C1385 1.433 . S
C1384 C1380 1.350 . S
C1384 C1381 1.463 . S
C1384 N1388 1.427 . S
C1385 H1375 0.929 . S
C1385 C1383 1.433 . S
C1385 N1388 1.384 . S
C1386 H1377 0.929 . S
C1386 C1378 1.378 . S
C1386 C1381 1.350 . S
C1387 H1374 0.929 . S
C1387 C1379 1.433 . S
C1387 N1389 1.384 . S
N1388 C1384 1.427 . S
N1388 C1385 1.384 . S
N1389 C1381 1.427 . S
N1389 C1387 1.384 . S
H1390 C1396 0.930 . S
H1391 C1400 0.930 . S
H1392 C1405 0.929 . S
H1393 C1403 0.929 . S
H1394 C1398 0.929 . S
H1395 C1404 0.929 . S
C1396 H1390 0.930 . S
C1396 C1397 1.367 . S
C1396 C1404 1.378 . S
C1397 C1396 1.367 . S
C1397 C1405 1.433 . S
C1398 H1394 0.929 . S
C1398 C1400 1.378 . S
C1398 C1402 1.350 . S
C1399 C1402 1.463 . S
C1399 C1404 1.350 . S
C1399 N1407 1.427 . S
C1400 H1391 0.930 . S
C1400 C1398 1.378 . S
C1400 C1401 1.367 . S
C1401 C1400 1.367 . S
C1401 C1403 1.433 . S
C1402 C1398 1.350 . S
C1402 C1399 1.463 . S
C1402 N1406 1.427 . S
C1403 H1393 0.929 . S
C1403 C1401 1.433 . S
C1403 N1406 1.384 . S
C1404 H1395 0.929 . S
C1404 C1396 1.378 . S
C1404 C1399 1.350 . S
C1405 H1392 0.929 . S
C1405 C1397 1.433 . S
C1405 N1407 1.384 . S
N1406 C1402 1.427 . S
N1406 C1403 1.384 . S
N1407 C1399 1.427 . S
N1407 C1405 1.384 . S
H1408 C1414 0.930 . S
H1409 C1418 0.930 . S
H1410 C1423 0.929 . S
H1411 C1421 0.929 . S
H1412 C1416 0.929 . S
H1413 C1422 0.929 . S
C1414 H1408 0.930 . S
C1414 C1415 1.367 . S
C1414 C1422 1.378 . S
C1415 C1414 1.367 . S
C1415 C1423 1.433 . S
C1416 H1412 0.929 . S
C1416 C1418 1.378 . S
C1416 C1420 1.350 . S
C1417 C1420 1.463 . S
C1417 C1422 1.350 . S
C1417 N1425 1.427 . S
C1418 H1409 0.930 . S
C1418 C1416 1.378 . S
C1418 C1419 1.367 . S
C1419 C1418 1.367 . S
C1419 C1421 1.433 . S
C1420 C1416 1.350 . S
C1420 C1417 1.463 . S
C1420 N1424 1.427 . S
C1421 H1411 0.929 . S
C1421 C1419 1.433 . S
C1421 N1424 1.384 . S
C1422 H1413 0.929 . S
C1422 C1414 1.378 . S
C1422 C1417 1.350 . S
C1423 H1410 0.929 . S
C1423 C1415 1.433 . S
C1423 N1425 1.384 . S
N1424 C1420 1.427 . S
N1424 C1421 1.384 . S
N1425 C1417 1.427 . S
N1425 C1423 1.384 . S
H1426 C1432 0.930 . S
H1427 C1436 0.930 . S
H1428 C1441 0.929 . S
H1429 C1439 0.929 . S
H1430 C1434 0.929 . S
H1431 C1440 0.929 . S
C1432 H1426 0.930 . S
C1432 C1433 1.367 . S
C1432 C1440 1.378 . S
C1433 C1432 1.367 . S
C1433 C1441 1.433 . S
C1434 H1430 0.929 . S
C1434 C1436 1.378 . S
C1434 C1438 1.350 . S
C1435 C1438 1.463 . S
C1435 C1440 1.350 . S
C1435 N1443 1.427 . S
C1436 H1427 0.930 . S
C1436 C1434 1.378 . S
C1436 C1437 1.367 . S
C1437 C1436 1.367 . S
C1437 C1439 1.433 . S
C1438 C1434 1.350 . S
C1438 C1435 1.463 . S
C1438 N1442 1.427 . S
C1439 H1429 0.929 . S
C1439 C1437 1.433 . S
C1439 N1442 1.384 . S
C1440 H1431 0.929 . S
C1440 C1432 1.378 . S
C1440 C1435 1.350 . S
C1441 H1428 0.929 . S
C1441 C1433 1.433 . S
C1441 N1443 1.384 . S
N1442 C1438 1.427 . S
N1442 C1439 1.384 . S
N1443 C1435 1.427 . S
N1443 C1441 1.384 . S
H1444 C1450 0.930 . S
H1445 C1454 0.930 . S
H1446 C1459 0.929 . S
H1447 C1457 0.929 . S
H1448 C1452 0.929 . S
H1449 C1458 0.929 . S
C1450 H1444 0.930 . S
C1450 C1451 1.367 . S
C1450 C1458 1.378 . S
C1451 C1450 1.367 . S
C1451 C1459 1.433 . S
C1452 H1448 0.929 . S
C1452 C1454 1.378 . S
C1452 C1456 1.350 . S
C1453 C1456 1.463 . S
C1453 C1458 1.350 . S
C1453 N1461 1.427 . S
C1454 H1445 0.930 . S
C1454 C1452 1.378 . S
C1454 C1455 1.367 . S
C1455 C1454 1.367 . S
C1455 C1457 1.433 . S
C1456 C1452 1.350 . S
C1456 C1453 1.463 . S
C1456 N1460 1.427 . S
C1457 H1447 0.929 . S
C1457 C1455 1.433 . S
C1457 N1460 1.384 . S
C1458 H1449 0.929 . S
C1458 C1450 1.378 . S
C1458 C1453 1.350 . S
C1459 H1446 0.929 . S
C1459 C1451 1.433 . S
C1459 N1461 1.384 . S
N1460 C1456 1.427 . S
N1460 C1457 1.384 . S
N1461 C1453 1.427 . S
N1461 C1459 1.384 . S
H1462 C1468 0.930 . S
H1463 C1472 0.930 . S
H1464 C1477 0.929 . S
H1465 C1475 0.929 . S
H1466 C1470 0.929 . S
H1467 C1476 0.929 . S
C1468 H1462 0.930 . S
C1468 C1469 1.367 . S
C1468 C1476 1.378 . S
C1469 C1468 1.367 . S
C1469 C1477 1.433 . S
C1470 H1466 0.929 . S
C1470 C1472 1.378 . S
C1470 C1474 1.350 . S
C1471 C1474 1.463 . S
C1471 C1476 1.350 . S
C1471 N1479 1.427 . S
C1472 H1463 0.930 . S
C1472 C1470 1.378 . S
C1472 C1473 1.367 . S
C1473 C1472 1.367 . S
C1473 C1475 1.433 . S
C1474 C1470 1.350 . S
C1474 C1471 1.463 . S
C1474 N1478 1.427 . S
C1475 H1465 0.929 . S
C1475 C1473 1.433 . S
C1475 N1478 1.384 . S
C1476 H1467 0.929 . S
C1476 C1468 1.378 . S
C1476 C1471 1.350 . S
C1477 H1464 0.929 . S
C1477 C1469 1.433 . S
C1477 N1479 1.384 . S
N1478 C1474 1.427 . S
N1478 C1475 1.384 . S
N1479 C1471 1.427 . S
N1479 C1477 1.384 . S
H1480 C1486 0.930 . S
H1481 C1490 0.930 . S
H1482 C1495 0.929 . S
H1483 C1493 0.929 . S
H1484 C1488 0.929 . S
H1485 C1494 0.929 . S
C1486 H1480 0.930 . S
C1486 C1487 1.367 . S
C1486 C1494 1.378 . S
C1487 C1486 1.367 . S
C1487 C1495 1.433 . S
C1488 H1484 0.929 . S
C1488 C1490 1.378 . S
C1488 C1492 1.350 . S
C1489 C1492 1.463 . S
C1489 C1494 1.350 . S
C1489 N1497 1.427 . S
C1490 H1481 0.930 . S
C1490 C1488 1.378 . S
C1490 C1491 1.367 . S
C1491 C1490 1.367 . S
C1491 C1493 1.433 . S
C1492 C1488 1.350 . S
C1492 C1489 1.463 . S
C1492 N1496 1.427 . S
C1493 H1483 0.929 . S
C1493 C1491 1.433 . S
C1493 N1496 1.384 . S
C1494 H1485 0.929 . S
C1494 C1486 1.378 . S
C1494 C1489 1.350 . S
C1495 H1482 0.929 . S
C1495 C1487 1.433 . S
C1495 N1497 1.384 . S
N1496 C1492 1.427 . S
N1496 C1493 1.384 . S
N1497 C1489 1.427 . S
N1497 C1495 1.384 . S
H1498 C1504 0.930 . S
H1499 C1508 0.930 . S
H1500 C1513 0.929 . S
H1501 C1511 0.929 . S
H1502 C1506 0.929 . S
H1503 C1512 0.929 . S
C1504 H1498 0.930 . S
C1504 C1505 1.367 . S
C1504 C1512 1.378 . S
C1505 C1504 1.367 . S
C1505 C1513 1.433 . S
C1506 H1502 0.929 . S
C1506 C1508 1.378 . S
C1506 C1510 1.350 . S
C1507 C1510 1.463 . S
C1507 C1512 1.350 . S
C1507 N1515 1.427 . S
C1508 H1499 0.930 . S
C1508 C1506 1.378 . S
C1508 C1509 1.367 . S
C1509 C1508 1.367 . S
C1509 C1511 1.433 . S
C1510 C1506 1.350 . S
C1510 C1507 1.463 . S
C1510 N1514 1.427 . S
C1511 H1501 0.929 . S
C1511 C1509 1.433 . S
C1511 N1514 1.384 . S
C1512 H1503 0.929 . S
C1512 C1504 1.378 . S
C1512 C1507 1.350 . S
C1513 H1500 0.929 . S
C1513 C1505 1.433 . S
C1513 N1515 1.384 . S
N1514 C1510 1.427 . S
N1514 C1511 1.384 . S
N1515 C1507 1.427 . S
N1515 C1513 1.384 . S
H1516 C1522 0.930 . S
H1517 C1526 0.930 . S
H1518 C1531 0.929 . S
H1519 C1529 0.929 . S
H1520 C1524 0.929 . S
H1521 C1530 0.929 . S
C1522 H1516 0.930 . S
C1522 C1523 1.367 . S
C1522 C1530 1.378 . S
C1523 C1522 1.367 . S
C1523 C1531 1.433 . S
C1524 H1520 0.929 . S
C1524 C1526 1.378 . S
C1524 C1528 1.350 . S
C1525 C1528 1.463 . S
C1525 C1530 1.350 . S
C1525 N1533 1.427 . S
C1526 H1517 0.930 . S
C1526 C1524 1.378 . S
C1526 C1527 1.367 . S
C1527 C1526 1.367 . S
C1527 C1529 1.433 . S
C1528 C1524 1.350 . S
C1528 C1525 1.463 . S
C1528 N1532 1.427 . S
C1529 H1519 0.929 . S
C1529 C1527 1.433 . S
C1529 N1532 1.384 . S
C1530 H1521 0.929 . S
C1530 C1522 1.378 . S
C1530 C1525 1.350 . S
C1531 H1518 0.929 . S
C1531 C1523 1.433 . S
C1531 N1533 1.384 . S
N1532 C1528 1.427 . S
N1532 C1529 1.384 . S
N1533 C1525 1.427 . S
N1533 C1531 1.384 . S
H1534 C1540 0.930 . S
H1535 C1544 0.926 1_455 S
H1536 C1549 0.929 . S
H1537 C1547 0.929 . S
H1538 C1542 0.923 1_455 S
H1539 C1548 0.929 . S
C1540 H1534 0.930 . S
C1540 C1541 1.367 . S
C1540 C1548 1.378 . S
C1541 C1540 1.367 . S
C1541 C1549 1.433 . S
C1542 H1538 0.923 1_655 S
C1542 C1544 1.377 . S
C1542 C1546 1.350 . S
C1543 C1546 1.463 . S
C1543 C1548 1.350 . S
C1543 N1551 1.427 . S
C1544 H1535 0.926 1_655 S
C1544 C1542 1.377 . S
C1544 C1545 1.372 . S
C1545 C1544 1.372 . S
C1545 C1547 1.433 . S
C1546 C1542 1.350 . S
C1546 C1543 1.463 . S
C1546 N1550 1.427 . S
C1547 H1537 0.929 . S
C1547 C1545 1.433 . S
C1547 N1550 1.384 . S
C1548 H1539 0.929 . S
C1548 C1540 1.378 . S
C1548 C1543 1.350 . S
C1549 H1536 0.929 . S
C1549 C1541 1.433 . S
C1549 N1551 1.384 . S
N1550 C1546 1.427 . S
N1550 C1547 1.384 . S
N1551 C1543 1.427 . S
N1551 C1549 1.384 . S
H1552 C1558 0.930 . S
H1553 C1562 0.930 . S
H1554 C1567 0.929 . S
H1555 C1565 0.929 . S
H1556 C1560 0.929 . S
H1557 C1566 0.929 . S
C1558 H1552 0.930 . S
C1558 C1559 1.367 . S
C1558 C1566 1.378 . S
C1559 C1558 1.367 . S
C1559 C1567 1.433 . S
C1560 H1556 0.929 . S
C1560 C1562 1.378 . S
C1560 C1564 1.350 . S
C1561 C1564 1.463 . S
C1561 C1566 1.350 . S
C1561 N1569 1.427 . S
C1562 H1553 0.930 . S
C1562 C1560 1.378 . S
C1562 C1563 1.367 . S
C1563 C1562 1.367 . S
C1563 C1565 1.433 . S
C1564 C1560 1.350 . S
C1564 C1561 1.463 . S
C1564 N1568 1.427 . S
C1565 H1555 0.929 . S
C1565 C1563 1.433 . S
C1565 N1568 1.384 . S
C1566 H1557 0.929 . S
C1566 C1558 1.378 . S
C1566 C1561 1.350 . S
C1567 H1554 0.929 . S
C1567 C1559 1.433 . S
C1567 N1569 1.384 . S
N1568 C1564 1.427 . S
N1568 C1565 1.384 . S
N1569 C1561 1.427 . S
N1569 C1567 1.384 . S
H1570 C1576 0.930 . S
H1571 C1580 0.930 . S
H1572 C1585 0.929 . S
H1573 C1583 0.929 . S
H1574 C1578 0.929 . S
H1575 C1584 0.929 . S
C1576 H1570 0.930 . S
C1576 C1577 1.367 . S
C1576 C1584 1.378 . S
C1577 C1576 1.367 . S
C1577 C1585 1.433 . S
C1578 H1574 0.929 . S
C1578 C1580 1.378 . S
C1578 C1582 1.350 . S
C1579 C1582 1.463 . S
C1579 C1584 1.350 . S
C1579 N1587 1.427 . S
C1580 H1571 0.930 . S
C1580 C1578 1.378 . S
C1580 C1581 1.367 . S
C1581 C1580 1.367 . S
C1581 C1583 1.433 . S
C1582 C1578 1.350 . S
C1582 C1579 1.463 . S
C1582 N1586 1.427 . S
C1583 H1573 0.929 . S
C1583 C1581 1.433 . S
C1583 N1586 1.384 . S
C1584 H1575 0.929 . S
C1584 C1576 1.378 . S
C1584 C1579 1.350 . S
C1585 H1572 0.929 . S
C1585 C1577 1.433 . S
C1585 N1587 1.384 . S
N1586 C1582 1.427 . S
N1586 C1583 1.384 . S
N1587 C1579 1.427 . S
N1587 C1585 1.384 . S
H1588 C1594 0.930 . S
H1589 C1598 0.930 . S
H1590 C1603 0.929 . S
H1591 C1601 0.929 . S
H1592 C1596 0.900 1_545 S
H1593 C1602 0.950 . S
C1594 H1588 0.930 . S
C1594 C1595 1.402 . S
C1594 C1602 1.365 1_545 S
C1595 C1594 1.402 . S
C1595 C1603 1.394 1_554 S
C1596 H1592 0.900 1_565 S
C1596 C1598 1.396 . S
C1596 C1600 1.363 . S
C1597 C1600 1.463 1_545 S
C1597 C1602 1.342 1_546 S
C1597 N1605 1.427 . S
C1598 H1589 0.930 . S
C1598 C1596 1.396 . S
C1598 C1599 1.367 . S
C1599 C1598 1.367 . S
C1599 C1601 1.433 1_556 S
C1600 C1596 1.363 . S
C1600 C1597 1.463 1_565 S
C1600 N1604 1.427 1_556 S
C1601 H1591 0.929 . S
C1601 C1599 1.433 1_554 S
C1601 N1604 1.384 . S
C1602 H1593 0.950 . S
C1602 C1594 1.365 1_565 S
C1602 C1597 1.342 1_564 S
C1603 H1590 0.929 . S
C1603 C1595 1.394 1_556 S
C1603 N1605 1.384 . S
N1604 C1600 1.427 1_554 S
N1604 C1601 1.384 . S
N1605 C1597 1.427 . S
N1605 C1603 1.384 . S
H1606 C1612 0.930 . S
H1607 C1616 0.930 . S
H1608 C1621 0.929 . S
H1609 C1619 0.929 . S
H1610 C1614 0.929 . S
H1611 C1620 0.929 . S
C1612 H1606 0.930 . S
C1612 C1613 1.367 . S
C1612 C1620 1.378 . S
C1613 C1612 1.367 . S
C1613 C1621 1.433 . S
C1614 H1610 0.929 . S
C1614 C1616 1.378 . S
C1614 C1618 1.350 . S
C1615 C1618 1.463 . S
C1615 C1620 1.350 . S
C1615 N1623 1.427 . S
C1616 H1607 0.930 . S
C1616 C1614 1.378 . S
C1616 C1617 1.367 . S
C1617 C1616 1.367 . S
C1617 C1619 1.433 . S
C1618 C1614 1.350 . S
C1618 C1615 1.463 . S
C1618 N1622 1.427 . S
C1619 H1609 0.929 . S
C1619 C1617 1.433 . S
C1619 N1622 1.384 . S
C1620 H1611 0.929 . S
C1620 C1612 1.378 . S
C1620 C1615 1.350 . S
C1621 H1608 0.929 . S
C1621 C1613 1.433 . S
C1621 N1623 1.384 . S
N1622 C1618 1.427 . S
N1622 C1619 1.384 . S
N1623 C1615 1.427 . S
N1623 C1621 1.384 . S
H1624 C1630 0.930 . S
H1625 C1634 0.930 . S
H1626 C1639 0.929 . S
H1627 C1637 0.929 . S
H1628 C1632 0.929 . S
H1629 C1638 0.929 . S
C1630 H1624 0.930 . S
C1630 C1631 1.367 . S
C1630 C1638 1.378 . S
C1631 C1630 1.367 . S
C1631 C1639 1.433 1_545 S
C1632 H1628 0.929 . S
C1632 C1634 1.378 . S
C1632 C1636 1.350 . S
C1633 C1636 1.463 . S
C1633 C1638 1.350 . S
C1633 N1641 1.427 . S
C1634 H1625 0.930 . S
C1634 C1632 1.378 . S
C1634 C1635 1.367 . S
C1635 C1634 1.367 . S
C1635 C1637 1.433 . S
C1636 C1632 1.350 . S
C1636 C1633 1.463 . S
C1636 N1640 1.427 . S
C1637 H1627 0.929 . S
C1637 C1635 1.433 . S
C1637 N1640 1.384 . S
C1638 H1629 0.929 . S
C1638 C1630 1.378 . S
C1638 C1633 1.350 . S
C1639 H1626 0.929 . S
C1639 C1631 1.433 1_565 S
C1639 N1641 1.384 1_565 S
N1640 C1636 1.427 . S
N1640 C1637 1.384 . S
N1641 C1633 1.427 . S
N1641 C1639 1.384 1_545 S
H1642 C1648 0.930 . S
H1643 C1652 0.930 . S
H1644 C1657 0.929 . S
H1645 C1655 0.929 . S
H1646 C1650 0.929 . S
H1647 C1656 0.929 . S
C1648 H1642 0.930 . S
C1648 C1649 1.367 . S
C1648 C1656 1.378 . S
C1649 C1648 1.367 . S
C1649 C1657 1.433 . S
C1650 H1646 0.929 . S
C1650 C1652 1.378 . S
C1650 C1654 1.350 . S
C1651 C1654 1.463 . S
C1651 C1656 1.350 . S
C1651 N1659 1.427 . S
C1652 H1643 0.930 . S
C1652 C1650 1.378 . S
C1652 C1653 1.367 . S
C1653 C1652 1.367 . S
C1653 C1655 1.433 . S
C1654 C1650 1.350 . S
C1654 C1651 1.463 . S
C1654 N1658 1.427 . S
C1655 H1645 0.929 . S
C1655 C1653 1.433 . S
C1655 N1658 1.384 . S
C1656 H1647 0.929 . S
C1656 C1648 1.378 . S
C1656 C1651 1.350 . S
C1657 H1644 0.929 . S
C1657 C1649 1.433 . S
C1657 N1659 1.384 . S
N1658 C1654 1.427 . S
N1658 C1655 1.384 . S
N1659 C1651 1.427 . S
N1659 C1657 1.384 . S
H1660 C1666 0.930 . S
H1661 C1670 0.930 . S
H1662 C1675 0.929 . S
H1663 C1673 0.929 . S
H1664 C1668 0.929 . S
H1665 C1674 0.929 . S
C1666 H1660 0.930 . S
C1666 C1667 1.367 1_545 S
C1666 C1674 1.378 . S
C1667 C1666 1.367 1_565 S
C1667 C1675 1.433 . S
C1668 H1664 0.929 . S
C1668 C1670 1.378 . S
C1668 C1672 1.350 . S
C1669 C1672 1.463 . S
C1669 C1674 1.350 . S
C1669 N1677 1.438 . S
C1670 H1661 0.930 . S
C1670 C1668 1.378 . S
C1670 C1671 1.367 . S
C1671 C1670 1.367 . S
C1671 C1673 1.433 . S
C1672 C1668 1.350 . S
C1672 C1669 1.463 . S
C1672 N1676 1.427 . S
C1673 H1663 0.929 . S
C1673 C1671 1.433 . S
C1673 N1676 1.384 . S
C1674 H1665 0.929 . S
C1674 C1666 1.378 . S
C1674 C1669 1.350 . S
C1675 H1662 0.929 . S
C1675 C1667 1.433 . S
C1675 N1677 1.372 1_565 S
N1676 C1672 1.427 . S
N1676 C1673 1.384 . S
N1677 C1669 1.438 . S
N1677 C1675 1.372 1_545 S
H1678 C1684 0.930 . S
H1679 C1688 0.930 . S
H1680 C1693 0.929 . S
H1681 C1691 0.929 . S
H1682 C1686 0.929 . S
H1683 C1692 0.929 . S
C1684 H1678 0.930 . S
C1684 C1685 1.367 . S
C1684 C1692 1.378 . S
C1685 C1684 1.367 . S
C1685 C1693 1.433 . S
C1686 H1682 0.929 . S
C1686 C1688 1.378 . S
C1686 C1690 1.350 . S
C1687 C1690 1.463 . S
C1687 C1692 1.350 . S
C1687 N1695 1.427 . S
C1688 H1679 0.930 . S
C1688 C1686 1.378 . S
C1688 C1689 1.367 . S
C1689 C1688 1.367 . S
C1689 C1691 1.433 . S
C1690 C1686 1.350 . S
C1690 C1687 1.463 . S
C1690 N1694 1.427 . S
C1691 H1681 0.929 . S
C1691 C1689 1.433 . S
C1691 N1694 1.384 . S
C1692 H1683 0.929 . S
C1692 C1684 1.378 . S
C1692 C1687 1.350 . S
C1693 H1680 0.929 . S
C1693 C1685 1.433 . S
C1693 N1695 1.384 . S
N1694 C1690 1.427 . S
N1694 C1691 1.384 . S
N1695 C1687 1.427 . S
N1695 C1693 1.384 . S
H1696 C1702 0.930 . S
H1697 C1706 0.930 . S
H1698 C1711 0.929 . S
H1699 C1709 0.929 . S
H1700 C1704 0.929 . S
H1701 C1710 0.929 . S
C1702 H1696 0.930 . S
C1702 C1703 1.367 . S
C1702 C1710 1.378 . S
C1703 C1702 1.367 . S
C1703 C1711 1.433 . S
C1704 H1700 0.929 . S
C1704 C1706 1.378 . S
C1704 C1708 1.350 . S
C1705 C1708 1.463 . S
C1705 C1710 1.350 . S
C1705 N1713 1.427 . S
C1706 H1697 0.930 . S
C1706 C1704 1.378 . S
C1706 C1707 1.367 . S
C1707 C1706 1.367 . S
C1707 C1709 1.433 . S
C1708 C1704 1.350 . S
C1708 C1705 1.463 . S
C1708 N1712 1.427 . S
C1709 H1699 0.929 . S
C1709 C1707 1.433 . S
C1709 N1712 1.384 . S
C1710 H1701 0.929 . S
C1710 C1702 1.378 . S
C1710 C1705 1.350 . S
C1711 H1698 0.929 . S
C1711 C1703 1.433 . S
C1711 N1713 1.384 . S
N1712 C1708 1.427 . S
N1712 C1709 1.384 . S
N1713 C1705 1.427 . S
N1713 C1711 1.384 . S
H1714 C1720 0.930 . S
H1715 C1724 0.930 . S
H1716 C1729 0.929 . S
H1717 C1727 0.929 . S
H1718 C1722 0.957 . S
H1719 C1728 0.929 . S
C1720 H1714 0.930 . S
C1720 C1721 1.367 . S
C1720 C1728 1.378 . S
C1721 C1720 1.367 . S
C1721 C1729 1.433 . S
C1722 H1718 0.957 . S
C1722 C1724 1.396 . S
C1722 C1726 1.304 1_565 S
C1723 C1726 1.463 . S
C1723 C1728 1.350 . S
C1723 N1731 1.427 . S
C1724 H1715 0.930 . S
C1724 C1722 1.396 . S
C1724 C1725 1.367 1_565 S
C1725 C1724 1.367 1_545 S
C1725 C1727 1.433 . S
C1726 C1722 1.304 1_545 S
C1726 C1723 1.463 . S
C1726 N1730 1.427 . S
C1727 H1717 0.929 . S
C1727 C1725 1.433 . S
C1727 N1730 1.384 . S
C1728 H1719 0.929 . S
C1728 C1720 1.378 . S
C1728 C1723 1.350 . S
C1729 H1716 0.929 . S
C1729 C1721 1.433 . S
C1729 N1731 1.384 . S
N1730 C1726 1.427 . S
N1730 C1727 1.384 . S
N1731 C1723 1.427 . S
N1731 C1729 1.384 . S
H1732 C1738 0.930 . S
H1733 C1742 0.930 . S
H1734 C1747 0.929 . S
H1735 C1745 0.929 . S
H1736 C1740 0.929 . S
H1737 C1746 0.929 . S
C1738 H1732 0.930 . S
C1738 C1739 1.367 . S
C1738 C1746 1.378 . S
C1739 C1738 1.367 . S
C1739 C1747 1.433 . S
C1740 H1736 0.929 . S
C1740 C1742 1.378 . S
C1740 C1744 1.350 . S
C1741 C1744 1.463 . S
C1741 C1746 1.350 . S
C1741 N1749 1.427 . S
C1742 H1733 0.930 . S
C1742 C1740 1.378 . S
C1742 C1743 1.367 . S
C1743 C1742 1.367 . S
C1743 C1745 1.433 . S
C1744 C1740 1.350 . S
C1744 C1741 1.463 . S
C1744 N1748 1.427 . S
C1745 H1735 0.929 . S
C1745 C1743 1.433 . S
C1745 N1748 1.384 . S
C1746 H1737 0.929 . S
C1746 C1738 1.378 . S
C1746 C1741 1.350 . S
C1747 H1734 0.929 . S
C1747 C1739 1.433 . S
C1747 N1749 1.384 . S
N1748 C1744 1.427 . S
N1748 C1745 1.384 . S
N1749 C1741 1.427 . S
N1749 C1747 1.384 . S
H1750 C1756 0.930 . S
H1751 C1760 0.930 . S
H1752 C1765 0.929 . S
H1753 C1763 0.929 . S
H1754 C1758 0.929 . S
H1755 C1764 0.929 . S
C1756 H1750 0.930 . S
C1756 C1757 1.367 . S
C1756 C1764 1.378 . S
C1757 C1756 1.367 . S
C1757 C1765 1.433 . S
C1758 H1754 0.929 . S
C1758 C1760 1.378 . S
C1758 C1762 1.350 . S
C1759 C1762 1.463 . S
C1759 C1764 1.350 . S
C1759 N1767 1.427 . S
C1760 H1751 0.930 . S
C1760 C1758 1.378 . S
C1760 C1761 1.367 . S
C1761 C1760 1.367 . S
C1761 C1763 1.433 . S
C1762 C1758 1.350 . S
C1762 C1759 1.463 . S
C1762 N1766 1.427 . S
C1763 H1753 0.929 . S
C1763 C1761 1.433 . S
C1763 N1766 1.384 . S
C1764 H1755 0.929 . S
C1764 C1756 1.378 . S
C1764 C1759 1.350 . S
C1765 H1752 0.929 . S
C1765 C1757 1.433 . S
C1765 N1767 1.384 . S
N1766 C1762 1.427 . S
N1766 C1763 1.384 . S
N1767 C1759 1.427 . S
N1767 C1765 1.384 . S
H1768 C1774 0.930 . S
H1769 C1778 0.930 . S
H1770 C1783 0.929 . S
H1771 C1781 0.929 . S
H1772 C1776 0.929 . S
H1773 C1782 0.929 . S
C1774 H1768 0.930 . S
C1774 C1775 1.367 . S
C1774 C1782 1.378 . S
C1775 C1774 1.367 . S
C1775 C1783 1.433 . S
C1776 H1772 0.929 . S
C1776 C1778 1.378 . S
C1776 C1780 1.350 . S
C1777 C1780 1.463 . S
C1777 C1782 1.350 . S
C1777 N1785 1.427 . S
C1778 H1769 0.930 . S
C1778 C1776 1.378 . S
C1778 C1779 1.367 . S
C1779 C1778 1.367 . S
C1779 C1781 1.433 . S
C1780 C1776 1.350 . S
C1780 C1777 1.463 . S
C1780 N1784 1.427 . S
C1781 H1771 0.929 . S
C1781 C1779 1.433 . S
C1781 N1784 1.384 . S
C1782 H1773 0.929 . S
C1782 C1774 1.378 . S
C1782 C1777 1.350 . S
C1783 H1770 0.929 . S
C1783 C1775 1.433 . S
C1783 N1785 1.384 . S
N1784 C1780 1.427 . S
N1784 C1781 1.384 . S
N1785 C1777 1.427 . S
N1785 C1783 1.384 . S
H1786 C1792 0.921 1_565 S
H1787 C1796 0.930 . S
H1788 C1801 0.929 . S
H1789 C1799 0.929 . S
H1790 C1794 0.929 . S
H1791 C1800 0.929 . S
C1792 H1786 0.921 1_545 S
C1792 C1793 1.367 . S
C1792 C1800 1.378 . S
C1793 C1792 1.367 . S
C1793 C1801 1.433 . S
C1794 H1790 0.929 . S
C1794 C1796 1.378 . S
C1794 C1798 1.350 . S
C1795 C1798 1.463 . S
C1795 C1800 1.350 . S
C1795 N1803 1.427 . S
C1796 H1787 0.930 . S
C1796 C1794 1.378 . S
C1796 C1797 1.367 . S
C1797 C1796 1.367 . S
C1797 C1799 1.433 . S
C1798 C1794 1.350 . S
C1798 C1795 1.463 . S
C1798 N1802 1.427 . S
C1799 H1789 0.929 . S
C1799 C1797 1.433 . S
C1799 N1802 1.384 . S
C1800 H1791 0.929 . S
C1800 C1792 1.378 . S
C1800 C1795 1.350 . S
C1801 H1788 0.929 . S
C1801 C1793 1.433 . S
C1801 N1803 1.384 . S
N1802 C1798 1.427 . S
N1802 C1799 1.384 . S
N1803 C1795 1.427 . S
N1803 C1801 1.384 . S
H1804 C1810 0.930 . S
H1805 C1814 0.930 . S
H1806 C1819 0.929 . S
H1807 C1817 0.929 . S
H1808 C1812 0.929 . S
H1809 C1818 0.929 . S
C1810 H1804 0.930 . S
C1810 C1811 1.367 . S
C1810 C1818 1.378 . S
C1811 C1810 1.367 . S
C1811 C1819 1.433 . S
C1812 H1808 0.929 . S
C1812 C1814 1.378 . S
C1812 C1816 1.350 . S
C1813 C1816 1.463 . S
C1813 C1818 1.350 . S
C1813 N1821 1.427 . S
C1814 H1805 0.930 . S
C1814 C1812 1.378 . S
C1814 C1815 1.367 . S
C1815 C1814 1.367 . S
C1815 C1817 1.433 . S
C1816 C1812 1.350 . S
C1816 C1813 1.463 . S
C1816 N1820 1.427 . S
C1817 H1807 0.929 . S
C1817 C1815 1.433 . S
C1817 N1820 1.384 . S
C1818 H1809 0.929 . S
C1818 C1810 1.378 . S
C1818 C1813 1.350 . S
C1819 H1806 0.929 . S
C1819 C1811 1.433 . S
C1819 N1821 1.384 . S
N1820 C1816 1.427 . S
N1820 C1817 1.384 . S
N1821 C1813 1.427 . S
N1821 C1819 1.384 . S
H1822 C1828 0.930 1_655 S
H1823 C1832 0.930 . S
H1824 C1837 0.929 . S
H1825 C1835 0.929 . S
H1826 C1830 0.929 . S
H1827 C1836 0.929 . S
C1828 H1822 0.930 1_455 S
C1828 C1829 1.367 . S
C1828 C1836 1.378 . S
C1829 C1828 1.367 . S
C1829 C1837 1.433 . S
C1830 H1826 0.929 . S
C1830 C1832 1.378 . S
C1830 C1834 1.350 . S
C1831 C1834 1.463 . S
C1831 C1836 1.350 . S
C1831 N1839 1.427 . S
C1832 H1823 0.930 . S
C1832 C1830 1.378 . S
C1832 C1833 1.367 . S
C1833 C1832 1.367 . S
C1833 C1835 1.433 . S
C1834 C1830 1.350 . S
C1834 C1831 1.463 . S
C1834 N1838 1.427 . S
C1835 H1825 0.929 . S
C1835 C1833 1.433 . S
C1835 N1838 1.384 . S
C1836 H1827 0.929 . S
C1836 C1828 1.378 . S
C1836 C1831 1.350 . S
C1837 H1824 0.929 . S
C1837 C1829 1.433 . S
C1837 N1839 1.384 . S
N1838 C1834 1.427 . S
N1838 C1835 1.384 . S
N1839 C1831 1.427 . S
N1839 C1837 1.384 . S
H1840 C1846 0.930 . S
H1841 C1850 0.930 . S
H1842 C1855 0.929 . S
H1843 C1853 0.929 . S
H1844 C1848 0.929 . S
H1845 C1854 0.929 . S
C1846 H1840 0.930 . S
C1846 C1847 1.367 . S
C1846 C1854 1.378 . S
C1847 C1846 1.367 . S
C1847 C1855 1.433 . S
C1848 H1844 0.929 . S
C1848 C1850 1.378 . S
C1848 C1852 1.350 . S
C1849 C1852 1.463 . S
C1849 C1854 1.350 . S
C1849 N1857 1.427 . S
C1850 H1841 0.930 . S
C1850 C1848 1.378 . S
C1850 C1851 1.367 . S
C1851 C1850 1.367 . S
C1851 C1853 1.433 . S
C1852 C1848 1.350 . S
C1852 C1849 1.463 . S
C1852 N1856 1.427 . S
C1853 H1843 0.929 . S
C1853 C1851 1.433 . S
C1853 N1856 1.384 . S
C1854 H1845 0.929 . S
C1854 C1846 1.378 . S
C1854 C1849 1.350 . S
C1855 H1842 0.929 . S
C1855 C1847 1.433 . S
C1855 N1857 1.384 . S
N1856 C1852 1.427 . S
N1856 C1853 1.384 . S
N1857 C1849 1.427 . S
N1857 C1855 1.384 . S
H1858 C1864 0.930 . S
H1859 C1868 0.930 . S
H1860 C1873 0.929 1_455 S
H1861 C1871 0.929 . S
H1862 C1866 0.929 . S
H1863 C1872 0.929 . S
C1864 H1858 0.930 . S
C1864 C1865 1.367 . S
C1864 C1872 1.378 . S
C1865 C1864 1.367 . S
C1865 C1873 1.433 . S
C1866 H1862 0.929 . S
C1866 C1868 1.378 . S
C1866 C1870 1.350 1_455 S
C1867 C1870 1.463 1_554 S
C1867 C1872 1.350 . S
C1867 N1875 1.424 1_554 S
C1868 H1859 0.930 . S
C1868 C1866 1.378 . S
C1868 C1869 1.367 1_455 S
C1869 C1868 1.367 1_655 S
C1869 C1871 1.433 . S
C1870 C1866 1.350 1_655 S
C1870 C1867 1.463 1_556 S
C1870 N1874 1.427 . S
C1871 H1861 0.929 . S
C1871 C1869 1.433 . S
C1871 N1874 1.384 . S
C1872 H1863 0.929 . S
C1872 C1864 1.378 . S
C1872 C1867 1.350 . S
C1873 H1860 0.929 1_655 S
C1873 C1865 1.433 . S
C1873 N1875 1.347 1_554 S
N1874 C1870 1.427 . S
N1874 C1871 1.384 . S
N1875 C1867 1.424 1_556 S
N1875 C1873 1.347 1_556 S
H1876 C1882 0.930 . S
H1877 C1886 0.930 . S
H1878 C1891 0.929 . S
H1879 C1889 0.929 . S
H1880 C1884 0.929 . S
H1881 C1890 0.929 . S
C1882 H1876 0.930 . S
C1882 C1883 1.367 . S
C1882 C1890 1.378 . S
C1883 C1882 1.367 . S
C1883 C1891 1.433 . S
C1884 H1880 0.929 . S
C1884 C1886 1.378 . S
C1884 C1888 1.350 . S
C1885 C1888 1.463 . S
C1885 C1890 1.350 . S
C1885 N1893 1.427 . S
C1886 H1877 0.930 . S
C1886 C1884 1.378 . S
C1886 C1887 1.367 . S
C1887 C1886 1.367 . S
C1887 C1889 1.433 . S
C1888 C1884 1.350 . S
C1888 C1885 1.463 . S
C1888 N1892 1.427 . S
C1889 H1879 0.929 . S
C1889 C1887 1.433 . S
C1889 N1892 1.384 . S
C1890 H1881 0.929 . S
C1890 C1882 1.378 . S
C1890 C1885 1.350 . S
C1891 H1878 0.929 . S
C1891 C1883 1.433 . S
C1891 N1893 1.384 . S
N1892 C1888 1.427 . S
N1892 C1889 1.384 . S
N1893 C1885 1.427 . S
N1893 C1891 1.384 . S
H1894 C1900 0.930 1_655 S
H1895 C1904 0.930 . S
H1896 C1909 0.929 . S
H1897 C1907 0.929 . S
H1898 C1902 0.929 . S
H1899 C1908 0.903 1_655 S
C1900 H1894 0.930 1_455 S
C1900 C1901 1.367 1_556 S
C1900 C1908 1.389 . S
C1901 C1900 1.367 1_554 S
C1901 C1909 1.433 . S
C1902 H1898 0.929 . S
C1902 C1904 1.378 . S
C1902 C1906 1.350 . S
C1903 C1906 1.463 . S
C1903 C1908 1.368 . S
C1903 N1911 1.427 1_556 S
C1904 H1895 0.930 . S
C1904 C1902 1.378 . S
C1904 C1905 1.367 . S
C1905 C1904 1.367 . S
C1905 C1907 1.433 1_455 S
C1906 C1902 1.350 . S
C1906 C1903 1.463 . S
C1906 N1910 1.427 1_455 S
C1907 H1897 0.929 . S
C1907 C1905 1.433 1_655 S
C1907 N1910 1.384 . S
C1908 H1899 0.903 1_455 S
C1908 C1900 1.389 . S
C1908 C1903 1.368 . S
C1909 H1896 0.929 . S
C1909 C1901 1.433 . S
C1909 N1911 1.384 . S
N1910 C1906 1.427 1_655 S
N1910 C1907 1.384 . S
N1911 C1903 1.427 1_554 S
N1911 C1909 1.384 . S
H1912 C1918 0.930 . S
H1913 C1922 0.930 . S
H1914 C1927 0.929 . S
H1915 C1925 0.929 . S
H1916 C1920 0.929 . S
H1917 C1926 0.929 . S
C1918 H1912 0.930 . S
C1918 C1919 1.367 . S
C1918 C1926 1.378 . S
C1919 C1918 1.367 . S
C1919 C1927 1.433 . S
C1920 H1916 0.929 . S
C1920 C1922 1.378 . S
C1920 C1924 1.350 . S
C1921 C1924 1.463 . S
C1921 C1926 1.350 . S
C1921 N1929 1.427 . S
C1922 H1913 0.930 . S
C1922 C1920 1.378 . S
C1922 C1923 1.367 . S
C1923 C1922 1.367 . S
C1923 C1925 1.433 . S
C1924 C1920 1.350 . S
C1924 C1921 1.463 . S
C1924 N1928 1.427 . S
C1925 H1915 0.929 . S
C1925 C1923 1.433 . S
C1925 N1928 1.384 . S
C1926 H1917 0.929 . S
C1926 C1918 1.378 . S
C1926 C1921 1.350 . S
C1927 H1914 0.929 . S
C1927 C1919 1.433 . S
C1927 N1929 1.384 . S
N1928 C1924 1.427 . S
N1928 C1925 1.384 . S
N1929 C1921 1.427 . S
N1929 C1927 1.384 . S
H1930 C1936 0.930 1_556 S
H1931 C1940 0.930 . S
H1932 C1945 0.929 . S
H1933 C1943 0.929 . S
H1934 C1938 0.929 . S
H1935 C1944 0.929 . S
C1936 H1930 0.930 1_554 S
C1936 C1937 1.367 . S
C1936 C1944 1.378 . S
C1937 C1936 1.367 . S
C1937 C1945 1.433 . S
C1938 H1934 0.929 . S
C1938 C1940 1.378 . S
C1938 C1942 1.350 . S
C1939 C1942 1.463 . S
C1939 C1944 1.350 . S
C1939 N1947 1.427 . S
C1940 H1931 0.930 . S
C1940 C1938 1.378 . S
C1940 C1941 1.367 . S
C1941 C1940 1.367 . S
C1941 C1943 1.433 . S
C1942 C1938 1.350 . S
C1942 C1939 1.463 . S
C1942 N1946 1.427 . S
C1943 H1933 0.929 . S
C1943 C1941 1.433 . S
C1943 N1946 1.384 . S
C1944 H1935 0.929 . S
C1944 C1936 1.378 . S
C1944 C1939 1.350 . S
C1945 H1932 0.929 . S
C1945 C1937 1.433 . S
C1945 N1947 1.384 . S
N1946 C1942 1.427 . S
N1946 C1943 1.384 . S
N1947 C1939 1.427 . S
N1947 C1945 1.384 . S
H1948 C1954 0.930 . S
H1949 C1958 0.930 . S
H1950 C1963 0.929 . S
H1951 C1961 0.929 . S
H1952 C1956 0.929 . S
H1953 C1962 0.929 . S
C1954 H1948 0.930 . S
C1954 C1955 1.367 . S
C1954 C1962 1.378 . S
C1955 C1954 1.367 . S
C1955 C1963 1.433 . S
C1956 H1952 0.929 . S
C1956 C1958 1.378 . S
C1956 C1960 1.350 . S
C1957 C1960 1.463 . S
C1957 C1962 1.350 . S
C1957 N1965 1.427 . S
C1958 H1949 0.930 . S
C1958 C1956 1.378 . S
C1958 C1959 1.367 . S
C1959 C1958 1.367 . S
C1959 C1961 1.433 . S
C1960 C1956 1.350 . S
C1960 C1957 1.463 . S
C1960 N1964 1.427 . S
C1961 H1951 0.929 . S
C1961 C1959 1.433 . S
C1961 N1964 1.384 . S
C1962 H1953 0.929 . S
C1962 C1954 1.378 . S
C1962 C1957 1.350 . S
C1963 H1950 0.929 . S
C1963 C1955 1.433 . S
C1963 N1965 1.384 . S
N1964 C1960 1.427 . S
N1964 C1961 1.384 . S
N1965 C1957 1.427 . S
N1965 C1963 1.384 . S
H1966 C1972 0.930 . S
H1967 C1976 0.930 . S
H1968 C1981 0.929 . S
H1969 C1979 0.929 . S
H1970 C1974 0.929 . S
H1971 C1980 0.929 . S
C1972 H1966 0.930 . S
C1972 C1973 1.367 . S
C1972 C1980 1.378 . S
C1973 C1972 1.367 . S
C1973 C1981 1.433 . S
C1974 H1970 0.929 . S
C1974 C1976 1.378 . S
C1974 C1978 1.350 . S
C1975 C1978 1.463 . S
C1975 C1980 1.350 . S
C1975 N1983 1.427 . S
C1976 H1967 0.930 . S
C1976 C1974 1.378 . S
C1976 C1977 1.367 . S
C1977 C1976 1.367 . S
C1977 C1979 1.433 . S
C1978 C1974 1.350 . S
C1978 C1975 1.463 . S
C1978 N1982 1.427 . S
C1979 H1969 0.929 . S
C1979 C1977 1.433 . S
C1979 N1982 1.384 . S
C1980 H1971 0.929 . S
C1980 C1972 1.378 . S
C1980 C1975 1.350 . S
C1981 H1968 0.929 . S
C1981 C1973 1.433 . S
C1981 N1983 1.384 . S
N1982 C1978 1.427 . S
N1982 C1979 1.384 . S
N1983 C1975 1.427 . S
N1983 C1981 1.384 . S
H1984 C1990 0.930 . S
H1985 C1994 0.930 . S
H1986 C1999 0.929 . S
H1987 C1997 0.929 . S
H1988 C1992 0.929 . S
H1989 C1998 0.929 . S
C1990 H1984 0.930 . S
C1990 C1991 1.367 . S
C1990 C1998 1.378 . S
C1991 C1990 1.367 . S
C1991 C1999 1.433 . S
C1992 H1988 0.929 . S
C1992 C1994 1.378 . S
C1992 C1996 1.350 . S
C1993 C1996 1.463 . S
C1993 C1998 1.350 . S
C1993 N2001 1.427 . S
C1994 H1985 0.930 . S
C1994 C1992 1.378 . S
C1994 C1995 1.367 . S
C1995 C1994 1.367 . S
C1995 C1997 1.433 . S
C1996 C1992 1.350 . S
C1996 C1993 1.463 . S
C1996 N2000 1.427 . S
C1997 H1987 0.929 . S
C1997 C1995 1.433 . S
C1997 N2000 1.384 . S
C1998 H1989 0.929 . S
C1998 C1990 1.378 . S
C1998 C1993 1.350 . S
C1999 H1986 0.929 . S
C1999 C1991 1.433 . S
C1999 N2001 1.384 . S
N2000 C1996 1.427 . S
N2000 C1997 1.384 . S
N2001 C1993 1.427 . S
N2001 C1999 1.384 . S
H2002 C2008 0.930 . S
H2003 C2012 0.930 . S
H2004 C2017 0.929 . S
H2005 C2015 0.929 . S
H2006 C2010 0.929 . S
H2007 C2016 0.929 . S
C2008 H2002 0.930 . S
C2008 C2009 1.367 . S
C2008 C2016 1.378 . S
C2009 C2008 1.367 . S
C2009 C2017 1.433 . S
C2010 H2006 0.929 . S
C2010 C2012 1.378 . S
C2010 C2014 1.350 . S
C2011 C2014 1.463 . S
C2011 C2016 1.350 . S
C2011 N2019 1.427 . S
C2012 H2003 0.930 . S
C2012 C2010 1.378 . S
C2012 C2013 1.367 . S
C2013 C2012 1.367 . S
C2013 C2015 1.433 . S
C2014 C2010 1.350 . S
C2014 C2011 1.463 . S
C2014 N2018 1.427 . S
C2015 H2005 0.929 . S
C2015 C2013 1.433 . S
C2015 N2018 1.384 . S
C2016 H2007 0.929 . S
C2016 C2008 1.378 . S
C2016 C2011 1.350 . S
C2017 H2004 0.929 . S
C2017 C2009 1.433 . S
C2017 N2019 1.384 . S
N2018 C2014 1.427 . S
N2018 C2015 1.384 . S
N2019 C2011 1.427 . S
N2019 C2017 1.384 . S
H2020 C2026 0.930 . S
H2021 C2030 0.930 . S
H2022 C2035 0.929 . S
H2023 C2033 0.929 . S
H2024 C2028 0.929 . S
H2025 C2034 0.929 . S
C2026 H2020 0.930 . S
C2026 C2027 1.367 . S
C2026 C2034 1.378 . S
C2027 C2026 1.367 . S
C2027 C2035 1.433 . S
C2028 H2024 0.929 . S
C2028 C2030 1.378 . S
C2028 C2032 1.350 . S
C2029 C2032 1.463 . S
C2029 C2034 1.350 . S
C2029 N2037 1.427 . S
C2030 H2021 0.930 . S
C2030 C2028 1.378 . S
C2030 C2031 1.367 . S
C2031 C2030 1.367 . S
C2031 C2033 1.433 . S
C2032 C2028 1.350 . S
C2032 C2029 1.463 . S
C2032 N2036 1.427 . S
C2033 H2023 0.929 . S
C2033 C2031 1.433 . S
C2033 N2036 1.384 . S
C2034 H2025 0.929 . S
C2034 C2026 1.378 . S
C2034 C2029 1.350 . S
C2035 H2022 0.929 . S
C2035 C2027 1.433 . S
C2035 N2037 1.384 . S
N2036 C2032 1.427 . S
N2036 C2033 1.384 . S
N2037 C2029 1.427 . S
N2037 C2035 1.384 . S
H2038 C2044 0.930 . S
H2039 C2048 0.930 . S
H2040 C2053 0.929 . S
H2041 C2051 0.929 . S
H2042 C2046 0.929 . S
H2043 C2052 0.929 . S
C2044 H2038 0.930 . S
C2044 C2045 1.367 . S
C2044 C2052 1.378 . S
C2045 C2044 1.367 . S
C2045 C2053 1.433 . S
C2046 H2042 0.929 . S
C2046 C2048 1.378 . S
C2046 C2050 1.350 . S
C2047 C2050 1.463 . S
C2047 C2052 1.350 . S
C2047 N2055 1.427 . S
C2048 H2039 0.930 . S
C2048 C2046 1.378 . S
C2048 C2049 1.367 . S
C2049 C2048 1.367 . S
C2049 C2051 1.433 . S
C2050 C2046 1.350 . S
C2050 C2047 1.463 . S
C2050 N2054 1.427 . S
C2051 H2041 0.929 . S
C2051 C2049 1.433 . S
C2051 N2054 1.384 . S
C2052 H2043 0.929 . S
C2052 C2044 1.378 . S
C2052 C2047 1.350 . S
C2053 H2040 0.929 . S
C2053 C2045 1.433 . S
C2053 N2055 1.384 . S
N2054 C2050 1.427 . S
N2054 C2051 1.384 . S
N2055 C2047 1.427 . S
N2055 C2053 1.384 . S
H2056 C2062 0.930 . S
H2057 C2066 0.930 . S
H2058 C2071 0.929 . S
H2059 C2069 0.929 . S
H2060 C2064 0.929 . S
H2061 C2070 0.929 . S
C2062 H2056 0.930 . S
C2062 C2063 1.367 . S
C2062 C2070 1.378 . S
C2063 C2062 1.367 . S
C2063 C2071 1.433 1_556 S
C2064 H2060 0.929 . S
C2064 C2066 1.378 . S
C2064 C2068 1.350 . S
C2065 C2068 1.463 . S
C2065 C2070 1.350 1_554 S
C2065 N2073 1.427 . S
C2066 H2057 0.930 . S
C2066 C2064 1.378 . S
C2066 C2067 1.367 . S
C2067 C2066 1.367 . S
C2067 C2069 1.433 . S
C2068 C2064 1.350 . S
C2068 C2065 1.463 . S
C2068 N2072 1.427 . S
C2069 H2059 0.929 . S
C2069 C2067 1.433 . S
C2069 N2072 1.384 . S
C2070 H2061 0.929 . S
C2070 C2062 1.378 . S
C2070 C2065 1.350 1_556 S
C2071 H2058 0.929 . S
C2071 C2063 1.433 1_554 S
C2071 N2073 1.384 . S
N2072 C2068 1.427 . S
N2072 C2069 1.384 . S
N2073 C2065 1.427 . S
N2073 C2071 1.384 . S
H2074 C2080 0.930 . S
H2075 C2084 0.930 . S
H2076 C2089 0.929 . S
H2077 C2087 0.929 . S
H2078 C2082 0.929 . S
H2079 C2088 0.929 . S
C2080 H2074 0.930 . S
C2080 C2081 1.367 . S
C2080 C2088 1.378 . S
C2081 C2080 1.367 . S
C2081 C2089 1.433 . S
C2082 H2078 0.929 . S
C2082 C2084 1.378 . S
C2082 C2086 1.350 . S
C2083 C2086 1.463 . S
C2083 C2088 1.350 . S
C2083 N2091 1.427 . S
C2084 H2075 0.930 . S
C2084 C2082 1.378 . S
C2084 C2085 1.367 . S
C2085 C2084 1.367 . S
C2085 C2087 1.433 . S
C2086 C2082 1.350 . S
C2086 C2083 1.463 . S
C2086 N2090 1.427 . S
C2087 H2077 0.929 . S
C2087 C2085 1.433 . S
C2087 N2090 1.384 . S
C2088 H2079 0.929 . S
C2088 C2080 1.378 . S
C2088 C2083 1.350 . S
C2089 H2076 0.929 . S
C2089 C2081 1.433 . S
C2089 N2091 1.384 . S
N2090 C2086 1.427 . S
N2090 C2087 1.384 . S
N2091 C2083 1.427 . S
N2091 C2089 1.384 . S
H2092 C2098 0.930 . S
H2093 C2102 0.930 . S
H2094 C2107 0.929 . S
H2095 C2105 0.929 . S
H2096 C2100 0.929 . S
H2097 C2106 0.929 . S
C2098 H2092 0.930 . S
C2098 C2099 1.367 . S
C2098 C2106 1.378 . S
C2099 C2098 1.367 . S
C2099 C2107 1.433 . S
C2100 H2096 0.929 . S
C2100 C2102 1.378 . S
C2100 C2104 1.350 . S
C2101 C2104 1.463 . S
C2101 C2106 1.350 . S
C2101 N2109 1.427 . S
C2102 H2093 0.930 . S
C2102 C2100 1.378 . S
C2102 C2103 1.367 . S
C2103 C2102 1.367 . S
C2103 C2105 1.433 . S
C2104 C2100 1.350 . S
C2104 C2101 1.463 . S
C2104 N2108 1.427 . S
C2105 H2095 0.929 . S
C2105 C2103 1.433 . S
C2105 N2108 1.384 . S
C2106 H2097 0.929 . S
C2106 C2098 1.378 . S
C2106 C2101 1.350 . S
C2107 H2094 0.929 . S
C2107 C2099 1.433 . S
C2107 N2109 1.384 . S
N2108 C2104 1.427 . S
N2108 C2105 1.384 . S
N2109 C2101 1.427 . S
N2109 C2107 1.384 . S
H2110 C2116 0.930 . S
H2111 C2120 0.930 . S
H2112 C2125 0.929 . S
H2113 C2123 0.929 1_556 S
H2114 C2118 0.929 . S
H2115 C2124 0.929 1_545 S
C2116 H2110 0.930 . S
C2116 C2117 1.367 1_545 S
C2116 C2124 1.378 1_545 S
C2117 C2116 1.367 1_565 S
C2117 C2125 1.433 . S
C2118 H2114 0.929 . S
C2118 C2120 1.378 . S
C2118 C2122 1.350 . S
C2119 C2122 1.463 . S
C2119 C2124 1.350 . S
C2119 N2127 1.427 . S
C2120 H2111 0.930 . S
C2120 C2118 1.378 . S
C2120 C2121 1.367 . S
C2121 C2120 1.367 . S
C2121 C2123 1.433 . S
C2122 C2118 1.350 . S
C2122 C2119 1.463 . S
C2122 N2126 1.427 . S
C2123 H2113 0.929 1_554 S
C2123 C2121 1.433 . S
C2123 N2126 1.384 . S
C2124 H2115 0.929 1_565 S
C2124 C2116 1.378 1_565 S
C2124 C2119 1.350 . S
C2125 H2112 0.929 . S
C2125 C2117 1.433 . S
C2125 N2127 1.384 . S
N2126 C2122 1.427 . S
N2126 C2123 1.384 . S
N2127 C2119 1.427 . S
N2127 C2125 1.384 . S
C1275 C257 1.852 . S
C1271 C73 1.854 . S
C1293 C316 1.252 . S
C1289 C82 1.200 . S
C1307 C100 1.881 . S
C1311 C433 1.874 . S
C1329 C501 1.307 . S
C1325 C56 1.286 . S
C1347 C580 1.370 . S
C1343 C134 1.342 . S
C1365 C705 1.826 . S
C1361 C165 1.807 . S
C1379 C147 1.129 . S
C1383 C765 1.170 . S
C1401 C873 1.848 . S
C1397 C125 1.851 . S
C1415 C151 1.399 . S
C1419 C969 1.404 . S
C1437 C1029 1.437 . S
C1433 C121 1.387 . S
C1451 C139 1.836 . S
C1455 C932 1.839 . S
C1473 C1049 1.261 . S
C1469 C164 1.263 . S
C1487 C95 1.261 . S
C1491 C1117 1.321 . S
C1505 C61 1.507 . S
C1509 C1108 1.515 . S
C1523 C74 1.426 . S
C1527 C1137 1.432 . S
C1541 C86 1.810 . S
C1545 C1145 1.813 . S
C1559 C47 1.390 . S
C1563 C529 1.391 . S
C1577 C186 1.290 . S
C1581 C492 1.340 . S
C1599 C228 1.542 . S
C1595 C204 1.544 . S
C1617 C325 1.918 . S
C1613 C112 1.921 . S
C1631 C60 1.369 1_545 S
C1635 C589 1.367 . S
C1653 C881 1.434 . S
C1649 C152 1.426 . S
C1671 C609 1.977 . S
C1667 C126 1.972 . S
C1689 C793 1.286 . S
C1685 C160 1.278 . S
C1707 C785 1.850 . S
C1703 C190 1.853 . S
C1721 C199 1.206 . S
C1725 C853 1.259 . S
C1739 C113 1.879 . S
C1743 C617 1.875 . S
C1761 C668 1.307 . S
C1757 C173 1.281 . S
C1775 C43 1.349 . S
C1779 C413 1.369 . S
C1797 C521 1.829 . S
C1793 C9 1.814 1_655 S
C1815 C237 1.173 . S
C1811 C17 1.147 . S
C1833 C353 1.849 . S
C1829 C34 1.851 1_455 S
C1847 C21 1.399 . S
C1851 C1057 1.399 . S
C1865 C30 1.397 . S
C1869 C941 1.440 . S
C1883 C48 1.837 . S
C1887 C1020 1.845 . S
C1901 C8 1.265 . S
C1905 C961 1.262 . S
C1923 C1205 1.324 . S
C1919 C108 1.278 . S
C1941 C1196 1.515 . S
C1937 C178 1.508 1_554 S
C1959 C1225 1.433 . S
C1955 C191 1.429 . S
C1973 C203 1.810 . S
C1977 C1233 1.812 . S
C1991 C138 1.396 . S
C1995 C697 1.394 . S
C2013 C677 1.337 . S
C2009 C69 1.288 . S
C2031 C756 1.536 . S
C2027 C87 1.539 . S
C2049 C844 1.916 . S
C2045 C99 1.921 . S
C2063 C177 1.369 . S
C2067 C404 1.367 . S
C2085 C345 1.433 . S
C2081 C22 1.424 . S
C2099 C35 1.969 . S
C2103 C441 1.975 . S
C2121 C265 1.281 . S
C2117 C4 1.283 . S
