# Generated by pormake.
# Topology ftw, (4,12)-cn, num edge types: 1
# Building blocks:
#     Node 0, Type 0, BuildingBlock: KUFVIS_clean_linker_0, # of connection points: 4
#     Node 1, Type 0, BuildingBlock: KUFVIS_clean_linker_0, # of connection points: 4
#     Node 2, Type 0, BuildingBlock: KUFVIS_clean_linker_0, # of connection points: 4
#     Node 3, Type 1, BuildingBlock: EZIPEK_clean_sbu_0, # of connection points: 12
#     Edge 4, Type (0, 1), BuildingBlock: CIFDUS_clean_linker_0, # of connection points: 2
#     Edge 5, Type (0, 1), BuildingBlock: CIFDUS_clean_linker_0, # of connection points: 2
#     Edge 6, Type (0, 1), BuildingBlock: CIFDUS_clean_linker_0, # of connection points: 2
#     Edge 7, Type (0, 1), BuildingBlock: CIFDUS_clean_linker_0, # of connection points: 2
#     Edge 8, Type (0, 1), BuildingBlock: CIFDUS_clean_linker_0, # of connection points: 2
#     Edge 9, Type (0, 1), BuildingBlock: CIFDUS_clean_linker_0, # of connection points: 2
#     Edge 10, Type (0, 1), BuildingBlock: CIFDUS_clean_linker_0, # of connection points: 2
#     Edge 11, Type (0, 1), BuildingBlock: CIFDUS_clean_linker_0, # of connection points: 2
#     Edge 12, Type (0, 1), BuildingBlock: CIFDUS_clean_linker_0, # of connection points: 2
#     Edge 13, Type (0, 1), BuildingBlock: CIFDUS_clean_linker_0, # of connection points: 2
#     Edge 14, Type (0, 1), BuildingBlock: CIFDUS_clean_linker_0, # of connection points: 2
#     Edge 15, Type (0, 1), BuildingBlock: CIFDUS_clean_linker_0, # of connection points: 2
# Relax obj value: 0.081
# Max RMSD: 0.235
# Mean RMSD: 0.179
data_MOF--net-ftw--node1-EZIPEK_clean_sbu_0--node2-KUFVIS_clean_linker_0--edge1-CIFDUS_clean_linker_0
_symmetry_space_group_name_H-M    P1
_symmetry_Int_Tables_number       1
_symmetry_cell_setting            triclinic
loop_
_symmetry_equiv_pos_as_xyz
'x, y, z'
_cell_length_a     21.148815
_cell_length_b     22.346553
_cell_length_c     21.231551
_cell_angle_alpha  90.187493
_cell_angle_beta   89.663665
_cell_angle_gamma 90.752538
loop_
_atom_site_label
_atom_site_type_symbol
_atom_site_fract_x
_atom_site_fract_y
_atom_site_fract_z
_atom_type_partial_charge
H0 H -0.00094 0.31842 0.5246 0.0
H1 H 0.98352 0.48311 0.62568 0.0
H2 H 0.01852 0.48297 0.4245 0.0
H3 H -0.00973 0.5728 0.42523 0.0
H4 H 0.00427 0.73671 0.52852 0.0
H5 H 0.01884 0.57132 0.62705 0.0
C6 C -0.00091 0.36691 0.52496 0.0
C7 C 0.00573 0.39791 0.46783 0.0
C8 C -0.00606 0.39793 0.58235 0.0
C9 C -0.0069 0.46076 0.58163 0.0
C10 C 0.00282 0.4936 0.52543 0.0
C11 C 0.01031 0.46069 0.4688 0.0
C12 C 0.00412 0.56141 0.52603 0.0
C13 C -0.00187 0.59472 0.46988 0.0
C14 C 0.00046 0.65759 0.47001 0.0
C15 C 0.00447 0.68823 0.52781 0.0
C16 C 0.00849 0.65663 0.58472 0.0
C17 C 0.01085 0.59387 0.58302 0.0
H18 H 0.51953 1.02147 0.73152 0.0
H19 H 0.59028 0.04243 0.54511 0.0
H20 H 0.39444 0.0803 0.58698 0.0
H21 H 0.38207 0.08199 0.48632 0.0
H22 H 0.47328 0.12918 0.31253 0.0
H23 H 0.58498 0.10934 0.4768 0.0
C24 C 0.51102 1.03194 0.68251 0.0
C25 C 0.44988 0.04612 0.6629 0.0
C26 C 0.56168 1.03236 0.64007 0.0
C27 C 0.55114 0.04754 0.57746 0.0
C28 C 0.49191 0.06854 0.55736 0.0
C29 C 0.44103 0.06661 0.60087 0.0
C30 C 0.48454 0.09131 0.49124 0.0
C31 C 0.42502 0.09395 0.4614 0.0
C32 C 0.42049 0.11108 0.39786 0.0
C33 C 0.47594 0.12126 0.36281 0.0
C34 C 0.53514 0.11768 0.39108 0.0
C35 C 0.53868 0.10775 0.45576 0.0
H36 H 0.48139 0.73513 0.03737 0.0
H37 H 0.58365 0.57328 0.05953 0.0
H38 H 0.38162 0.56777 0.02522 0.0
H39 H 0.38562 0.47954 0.06743 0.0
H40 H 0.49 0.31833 0.04631 0.0
H41 H 0.58327 0.48628 1.01217 0.0
C42 C 0.48131 0.68669 0.03992 0.0
C43 C 0.42416 0.65489 0.03435 0.0
C44 C 0.53857 0.65763 0.04926 0.0
C45 C 0.53931 0.59478 0.04969 0.0
C46 C 0.4831 0.56058 0.04008 0.0
C47 C 0.42561 0.59187 0.03227 0.0
C48 C 0.4844 0.49287 0.04014 0.0
C49 C 0.42955 0.4583 0.05487 0.0
C50 C 0.43119 0.39541 0.05595 0.0
C51 C 0.4885 0.36671 0.04392 0.0
C52 C 0.54378 0.39913 0.02935 0.0
C53 C 0.54103 0.46198 0.0263 0.0
C54 C 0.97158 0.1674 0.86871 0.0
C55 C 0.96413 0.17456 0.17666 0.0
C56 C 0.01793 0.88358 0.87568 0.0
C57 C 0.97339 0.88618 0.18247 0.0
C58 C 0.14779 0.89592 0.04316 0.0
C59 C 0.12476 0.18559 0.03503 0.0
C60 C 0.84316 0.86897 1.02389 0.0
C61 C 0.81925 0.15832 1.00705 0.0
C62 C 0.81614 1.02595 0.16286 0.0
C63 C 0.11973 0.04433 0.19053 0.0
C64 C 0.84721 0.99502 0.86434 0.0
C65 C 0.14613 0.048 0.88668 0.0
Eu66 Eu 0.97419 0.14249 1.02338 0.0
O67 O 0.02884 0.08657 0.08444 0.0
O68 O 0.92823 0.07558 0.96529 0.0
Eu69 Eu 0.10137 0.03797 0.03591 0.0
Eu70 Eu 0.86594 1.01654 1.01657 0.0
O71 O 0.03953 0.08558 0.97396 0.0
O72 O 0.91853 0.0775 0.07546 0.0
Eu73 Eu -0.00665 1.02614 0.90846 0.0
Eu74 Eu 0.97199 1.02968 0.14396 0.0
O75 O 0.04796 0.97814 0.97654 0.0
O76 O 0.03813 0.97951 0.08756 0.0
O77 O 0.92786 0.96952 0.07815 0.0
O78 O 0.93775 0.96769 0.96746 0.0
Eu79 Eu -0.00677 0.91253 0.02852 0.0
O80 O 0.9729 0.18935 0.9275 0.0
O81 O 0.96816 0.19368 0.117 0.0
O82 O 0.00727 0.8632 0.93424 0.0
O83 O -0.01364 0.86535 0.12451 0.0
O84 O 0.16123 0.95459 0.04502 0.0
O85 O 0.14717 0.13023 0.04058 0.0
O86 O 0.82017 0.92439 0.02485 0.0
O87 O 0.80662 0.0996 1.00268 0.0
O88 O 0.87368 1.03136 0.188 0.0
O89 O 0.05909 1.03502 0.2053 0.0
O90 O 0.9073 1.00594 0.84828 0.0
O91 O 0.08794 0.04599 0.86316 0.0
O92 O 0.90429 0.85478 1.02163 0.0
O93 O 0.0903 0.87142 0.03653 0.0
O94 O 0.87627 0.18287 1.01744 0.0
O95 O 0.06417 0.19962 0.02616 0.0
O96 O 0.96401 0.11766 0.19527 0.0
O97 O 0.9658 0.94347 0.19795 0.0
O98 O 0.9768 0.10995 0.8528 0.0
O99 O 0.01707 0.94071 0.85808 0.0
O100 O 0.16153 0.04238 0.94722 0.0
O101 O 0.14406 0.04815 0.13261 0.0
O102 O 0.82304 0.9974 0.92223 0.0
O103 O 0.80355 1.01896 0.10204 0.0
H104 H 0.92455 0.30957 0.43313 0.0
H105 H 0.08452 0.41246 0.36509 0.0
H106 H 0.08197 0.35704 0.26524 0.0
H107 H 0.0372 0.27456 0.19926 0.0
H108 H 0.87958 0.17117 0.27123 0.0
H109 H 0.87766 0.23158 0.36688 0.0
C110 C 0.95916 0.31964 0.39662 0.0
C111 C 0.00504 0.3646 0.40687 0.0
C112 C 0.95741 0.28767 0.33964 0.0
C113 C 0.04864 0.37803 0.35843 0.0
C114 C 0.04723 0.3463 0.30133 0.0
C115 C 0.00174 0.26637 0.23543 0.0
C116 C 0.95822 0.2187 0.22823 0.0
C117 C 0.00205 0.30063 0.29147 0.0
C118 C 0.91328 0.20766 0.27584 0.0
C119 C 0.91241 0.242 0.33068 0.0
H120 H 0.54943 0.04677 0.29011 0.0
H121 H 0.6508 0.17306 0.40721 0.0
H122 H 0.74915 0.15119 0.35033 0.0
H123 H 0.80563 0.09504 0.2675 0.0
H124 H 0.70176 0.97177 0.14911 0.0
H125 H 0.60481 0.99246 0.20746 0.0
C126 C 0.59275 0.07057 0.30226 0.0
C127 C 0.59286 0.11209 0.35201 0.0
C128 C 0.64866 0.05727 0.27012 0.0
C129 C 0.64968 0.1412 0.36866 0.0
C130 C 0.70582 0.12842 0.33651 0.0
C131 C 0.76188 0.0725 0.25504 0.0
C132 C 0.76065 1.03222 0.20419 0.0
C133 C 0.7059 0.08606 0.28753 0.0
C134 C 0.70368 1.00316 0.1881 0.0
C135 C 0.64823 1.0152 0.22111 0.0
H136 H 0.93013 0.75495 0.44162 0.0
H137 H 0.06701 0.63474 0.36187 0.0
H138 H 0.06734 0.69119 0.26329 0.0
H139 H 0.03295 0.77898 0.20146 0.0
H140 H 0.89693 0.8989 0.28389 0.0
H141 H 0.892 0.83852 0.37884 0.0
C142 C 0.96019 0.74123 0.40274 0.0
C143 C -0.00123 0.69099 0.40936 0.0
C144 C 0.96031 0.77396 0.34632 0.0
C145 C 0.03657 0.67315 0.35798 0.0
C146 C 0.03696 0.70553 0.3016 0.0
C147 C 0.00161 0.79122 0.23986 0.0
C148 C 0.9659 0.84372 0.23566 0.0
C149 C -0.00054 0.75648 0.29532 0.0
C150 C 0.92567 0.85916 0.28608 0.0
C151 C 0.92272 0.82466 0.34058 0.0
H152 H 0.32229 1.03065 0.40421 0.0
H153 H 0.38107 0.19694 0.31749 0.0
H154 H 0.28968 0.19272 0.24811 0.0
H155 H 0.20041 0.13618 0.20421 0.0
H156 H 0.13805 0.97205 0.29178 0.0
H157 H 0.22318 0.98117 0.36965 0.0
C158 C 0.31417 0.0667 0.37128 0.0
C159 C 0.3589 0.1135 0.36516 0.0
C160 C 0.26153 0.06392 0.3313 0.0
C161 C 0.34789 0.15982 0.32209 0.0
C162 C 0.29577 0.15747 0.28241 0.0
C163 C 0.20529 0.10288 0.24089 0.0
C164 C 0.16437 0.05315 0.24225 0.0
C165 C 0.25362 0.10876 0.28521 0.0
C166 C 0.16965 1.01058 0.29023 0.0
C167 C 0.21829 1.01573 0.33439 0.0
H168 H 0.07671 0.75619 0.61775 0.0
H169 H 0.94012 0.62891 0.69056 0.0
H170 H 0.93572 0.68365 0.79037 0.0
H171 H 0.96505 0.77256 0.85463 0.0
H172 H 0.10002 0.90025 0.77936 0.0
H173 H 0.11104 0.84057 0.68382 0.0
C174 C 0.04599 0.74047 0.65547 0.0
C175 C 0.00857 0.68876 0.64644 0.0
C176 C 0.04347 0.77229 0.71268 0.0
C177 C 0.96976 0.66844 0.6963 0.0
C178 C 0.96702 0.69984 0.75341 0.0
C179 C -0.00219 0.78645 0.81783 0.0
C180 C 0.03143 0.84084 0.824 0.0
C181 C 0.00309 0.75234 0.76198 0.0
C182 C 0.07322 0.85873 0.77556 0.0
C183 C 0.07946 0.82474 0.72074 0.0
H184 H 0.34453 0.11586 0.67618 0.0
H185 H 0.43342 0.95819 0.75063 0.0
H186 H 0.35002 0.94776 0.82899 0.0
H187 H 0.25124 0.98251 0.87655 0.0
H188 H 0.15495 0.13192 0.79499 0.0
H189 H 0.24118 0.14593 0.7185 0.0
C190 C 0.34531 0.07866 0.70878 0.0
C191 C 0.39615 0.03867 0.70793 0.0
C192 C 0.29582 0.07143 0.75258 0.0
C193 C 0.39615 0.99096 0.7512 0.0
C194 C 0.34812 0.98449 0.79586 0.0
C195 C 0.24959 1.01823 0.8421 0.0
C196 C 0.19787 0.05662 0.84138 0.0
C197 C 0.29798 1.02461 0.79723 0.0
C198 C 0.1949 0.10207 0.79608 0.0
C199 C 0.24402 0.11003 0.75252 0.0
H200 H 0.92838 0.29483 0.60896 0.0
H201 H 0.05233 0.42691 0.69343 0.0
H202 H 0.05137 0.37095 0.79202 0.0
H203 H 0.02122 0.28018 0.85245 0.0
H204 H 0.90239 0.14613 0.76447 0.0
H205 H 0.89567 0.20674 0.66963 0.0
C206 C 0.95546 0.31131 0.64877 0.0
C207 C -0.00945 0.36495 0.64339 0.0
C208 C 0.95573 0.27833 0.70502 0.0
C209 C 0.0243 0.38609 0.69618 0.0
C210 C 0.02413 0.35389 0.75262 0.0
C211 C -0.00687 0.2649 0.8128 0.0
C212 C 0.96256 0.20873 0.81534 0.0
C213 C -0.00933 0.29949 0.75743 0.0
C214 C 0.92681 0.18904 0.76342 0.0
C215 C 0.92295 0.22363 0.70909 0.0
H216 H 0.59913 0.94453 0.71857 0.0
H217 H 0.66931 0.0956 0.6119 0.0
H218 H 0.77151 0.08919 0.66415 0.0
H219 H 0.83345 0.05204 0.75338 0.0
H220 H 0.75818 0.90775 0.86657 0.0
H221 H 0.6659 0.89941 0.7984 0.0
C222 C 0.63714 0.97552 0.70631 0.0
C223 C 0.62649 1.02105 0.6625 0.0
C224 C 0.69475 0.97298 0.73808 0.0
C225 C 0.67643 0.06013 0.64568 0.0
C226 C 0.73472 0.0568 0.67584 0.0
C227 C 0.79765 1.01771 0.76165 0.0
C228 C 0.8017 0.98094 0.81472 0.0
C229 C 0.74345 1.01502 0.72397 0.0
C230 C 0.75521 0.93679 0.82591 0.0
C231 C 0.70247 0.93219 0.78724 0.0
H232 H 0.31328 0.40595 1.00484 0.0
H233 H 0.42015 0.30023 0.13531 0.0
H234 H 0.33397 0.22701 0.14149 0.0
H235 H 0.23242 0.18846 0.10315 0.0
H236 H 0.12236 0.29433 0.9758 0.0
H237 H 0.20504 0.37229 0.97564 0.0
C238 C 0.31698 0.36763 0.03574 0.0
C239 C 0.3736 0.35809 0.06868 0.0
C240 C 0.26695 0.32537 0.03913 0.0
C241 C 0.37765 0.30807 0.10849 0.0
C242 C 0.32835 0.26614 0.11212 0.0
C243 C 0.22631 0.22876 0.07565 0.0
C244 C 0.17178 0.23523 0.03886 0.0
C245 C 0.27359 0.27345 0.07631 0.0
C246 C 0.16403 0.28821 1.00439 0.0
C247 C 0.21137 0.33272 1.00418 0.0
H248 H 0.39581 0.75475 0.10141 0.0
H249 H 0.31583 0.63213 0.96501 0.0
H250 H 0.22113 0.69385 0.95885 0.0
H251 H 0.16405 0.78666 0.98756 0.0
H252 H 0.25174 0.91296 0.11526 0.0
H253 H 0.34148 0.84665 0.12781 0.0
C254 C 0.35828 0.74165 0.06941 0.0
C255 C 0.36382 0.6891 0.03293 0.0
C256 C 0.30553 0.77852 0.06408 0.0
C257 C 0.31313 0.67205 0.99387 0.0
C258 C 0.25912 0.70768 0.9899 0.0
C259 C 0.20277 0.79936 1.01831 0.0
C260 C 0.20138 0.85468 0.05042 0.0
C261 C 0.25524 0.76155 0.02409 0.0
C262 C 0.252 0.87093 0.08965 0.0
C263 C 0.30318 0.83293 0.09705 0.0
H264 H 0.56203 0.29296 0.96824 0.0
H265 H 0.66234 0.43109 0.07099 0.0
H266 H 0.75795 0.37074 0.06912 0.0
H267 H 0.81024 0.27466 0.04679 0.0
H268 H 0.70595 0.13432 0.9511 0.0
H269 H 0.61452 0.19899 0.94336 0.0
C270 C 0.60467 0.30997 0.9905 0.0
C271 C 0.60442 0.36638 1.02042 0.0
C272 C 0.65869 0.27412 0.99139 0.0
C273 C 0.66095 0.38815 0.04722 0.0
C274 C 0.71557 0.35331 0.04678 0.0
C275 C 0.76771 0.25838 1.02377 0.0
C276 C 0.76505 0.19939 1.00001 0.0
C277 C 0.71458 0.29561 1.02029 0.0
C278 C 0.70931 0.17913 0.97054 0.0
C279 C 0.65694 0.21621 0.96582 0.0
H280 H 0.65527 0.64835 0.99297 0.0
H281 H 0.55098 0.7513 0.12986 0.0
H282 H 0.63669 0.82498 0.13491 0.0
H283 H 0.73689 0.86489 0.09412 0.0
H284 H 0.84528 0.76183 0.96104 0.0
H285 H 0.76285 0.68339 0.96094 0.0
C286 C 0.65209 0.68623 0.02483 0.0
C287 C 0.59634 0.69491 0.0601 0.0
C288 C 0.70186 0.72883 0.02753 0.0
C289 C 0.59289 0.74422 0.10133 0.0
C290 C 0.64182 0.78645 0.10423 0.0
C291 C 0.7425 0.8251 0.06528 0.0
C292 C 0.79634 0.8194 0.02691 0.0
C293 C 0.69564 0.78012 0.06626 0.0
C294 C 0.80392 0.76716 0.99079 0.0
C295 C 0.75679 0.72243 0.99067 0.0
loop_
_geom_bond_atom_site_label_1
_geom_bond_atom_site_label_2
_geom_bond_distance
_geom_bond_site_symmetry_2
_ccdc_geom_bond_type
H0 C6 0.930 1_655 S
H1 C9 0.931 . S
H2 C11 0.931 1_655 S
H3 C13 0.930 . S
H4 C15 0.930 . S
H5 C17 0.930 1_655 S
C6 H0 0.930 1_455 S
C6 C7 1.380 1_455 S
C6 C8 1.394 . S
C7 C6 1.380 1_655 S
C7 C11 1.382 1_655 S
C8 C6 1.394 . S
C8 C9 1.400 . S
C9 H1 0.931 . S
C9 C8 1.400 . S
C9 C10 1.375 . S
C10 C9 1.375 . S
C10 C11 1.415 . S
C10 C12 1.501 . S
C11 H2 0.931 1_455 S
C11 C7 1.382 1_455 S
C11 C10 1.415 . S
C12 C10 1.501 . S
C12 C13 1.384 . S
C12 C17 1.409 . S
C13 H3 0.930 . S
C13 C12 1.384 . S
C13 C14 1.389 . S
C14 C13 1.389 . S
C14 C15 1.405 . S
C15 H4 0.930 . S
C15 C14 1.405 . S
C15 C16 1.364 1_455 S
C16 C15 1.364 1_655 S
C16 C17 1.400 1_655 S
C17 H5 0.930 1_455 S
C17 C12 1.409 . S
C17 C16 1.400 1_455 S
H18 C24 0.930 . S
H19 C27 0.931 . S
H20 C29 0.931 . S
H21 C31 0.930 . S
H22 C33 0.930 . S
H23 C35 0.931 . S
C24 H18 0.930 . S
C24 C25 1.380 . S
C24 C26 1.394 1_545 S
C25 C24 1.380 . S
C25 C29 1.382 . S
C26 C24 1.394 1_565 S
C26 C27 1.400 . S
C27 H19 0.931 . S
C27 C26 1.400 . S
C27 C28 1.375 . S
C28 C27 1.375 . S
C28 C29 1.415 1_565 S
C28 C30 1.501 . S
C29 H20 0.931 . S
C29 C25 1.382 . S
C29 C28 1.415 1_545 S
C30 C28 1.501 . S
C30 C31 1.384 . S
C30 C35 1.408 1_565 S
C31 H21 0.930 . S
C31 C30 1.384 . S
C31 C32 1.389 . S
C32 C31 1.389 . S
C32 C33 1.405 . S
C33 H22 0.930 . S
C33 C32 1.405 . S
C33 C34 1.364 1_565 S
C34 C33 1.364 1_545 S
C34 C35 1.400 . S
C35 H23 0.931 . S
C35 C30 1.408 1_545 S
C35 C34 1.400 . S
H36 C42 0.930 . S
H37 C45 0.931 . S
H38 C47 0.931 1_556 S
H39 C49 0.930 . S
H40 C51 0.930 . S
H41 C53 0.931 1_556 S
C42 H36 0.930 . S
C42 C43 1.380 1_554 S
C42 C44 1.394 . S
C43 C42 1.380 1_556 S
C43 C47 1.382 1_556 S
C44 C42 1.394 . S
C44 C45 1.400 . S
C45 H37 0.931 . S
C45 C44 1.400 . S
C45 C46 1.375 . S
C46 C45 1.375 . S
C46 C47 1.415 . S
C46 C48 1.501 . S
C47 H38 0.931 1_554 S
C47 C43 1.382 1_554 S
C47 C46 1.415 . S
C48 C46 1.501 . S
C48 C49 1.384 . S
C48 C53 1.408 . S
C49 H39 0.930 . S
C49 C48 1.384 . S
C49 C50 1.389 . S
C50 C49 1.389 . S
C50 C51 1.405 . S
C51 H40 0.930 . S
C51 C50 1.405 . S
C51 C52 1.364 . S
C52 C51 1.364 . S
C52 C53 1.400 . S
C53 H41 0.931 1_554 S
C53 C48 1.408 . S
C53 C52 1.400 . S
C54 O80 1.283 . S
C54 O98 1.283 . S
C55 O81 1.283 . S
C55 O96 1.283 . S
C56 O82 1.283 . S
C56 O99 1.283 . S
C57 O83 1.283 . S
C57 O97 1.283 . S
C58 O84 1.283 . S
C58 O93 1.283 . S
C59 O85 1.283 . S
C59 O95 1.283 . S
C60 O86 1.283 . S
C60 O92 1.283 . S
C61 O87 1.283 . S
C61 O94 1.283 . S
C62 O88 1.283 . S
C62 O103 1.283 . S
C63 O89 1.283 . S
C63 O101 1.283 . S
C64 O90 1.283 . S
C64 O102 1.283 . S
C65 O91 1.283 . S
C65 O100 1.283 . S
Eu66 O67 2.370 . S
Eu66 O68 2.370 1_454 S
Eu66 O71 2.370 1_554 S
Eu66 O72 2.370 1_455 S
Eu66 O80 2.363 1_554 S
Eu66 O81 2.363 . S
Eu66 O94 2.363 1_455 S
Eu66 O95 2.363 . S
O67 Eu66 2.370 . S
O67 Eu69 2.370 . S
O67 Eu74 2.371 . S
O68 Eu66 2.370 1_656 S
O68 Eu70 2.371 1_556 S
O68 Eu73 2.370 1_655 S
Eu69 O67 2.370 . S
Eu69 O71 2.370 1_554 S
Eu69 O75 2.371 1_544 S
Eu69 O76 2.371 1_545 S
Eu69 O84 2.364 1_545 S
Eu69 O85 2.362 . S
Eu69 O100 2.363 1_554 S
Eu69 O101 2.363 . S
Eu70 O68 2.371 1_554 S
Eu70 O72 2.371 . S
Eu70 O77 2.370 1_545 S
Eu70 O78 2.370 1_544 S
Eu70 O86 2.362 1_545 S
Eu70 O87 2.364 . S
Eu70 O102 2.363 1_554 S
Eu70 O103 2.363 . S
O71 Eu66 2.370 1_556 S
O71 Eu69 2.370 1_556 S
O71 Eu73 2.370 . S
O72 Eu66 2.370 1_655 S
O72 Eu70 2.371 . S
O72 Eu74 2.371 1_655 S
Eu73 O68 2.370 1_455 S
Eu73 O71 2.370 . S
Eu73 O75 2.371 1_545 S
Eu73 O78 2.371 1_445 S
Eu73 O90 2.363 1_455 S
Eu73 O91 2.363 . S
Eu73 O98 2.362 . S
Eu73 O99 2.364 1_545 S
Eu74 O67 2.371 . S
Eu74 O72 2.371 1_455 S
Eu74 O76 2.370 1_545 S
Eu74 O77 2.370 1_445 S
Eu74 O88 2.363 1_455 S
Eu74 O89 2.363 . S
Eu74 O96 2.364 . S
Eu74 O97 2.362 1_545 S
O75 Eu69 2.371 1_566 S
O75 Eu73 2.371 1_565 S
O75 Eu79 2.370 1_556 S
O76 Eu69 2.371 1_565 S
O76 Eu74 2.370 1_565 S
O76 Eu79 2.370 . S
O77 Eu70 2.370 1_565 S
O77 Eu74 2.370 1_665 S
O77 Eu79 2.370 1_655 S
O78 Eu70 2.370 1_566 S
O78 Eu73 2.371 1_665 S
O78 Eu79 2.370 1_656 S
Eu79 O75 2.370 1_554 S
Eu79 O76 2.370 . S
Eu79 O77 2.370 1_455 S
Eu79 O78 2.370 1_454 S
Eu79 O82 2.363 1_554 S
Eu79 O83 2.363 . S
Eu79 O92 2.363 1_455 S
Eu79 O93 2.363 . S
O80 C54 1.283 . S
O80 Eu66 2.363 1_556 S
O81 C55 1.283 . S
O81 Eu66 2.363 . S
O82 C56 1.283 . S
O82 Eu79 2.363 1_556 S
O83 C57 1.283 . S
O83 Eu79 2.363 . S
O84 C58 1.283 . S
O84 Eu69 2.364 1_565 S
O85 C59 1.283 . S
O85 Eu69 2.362 . S
O86 C60 1.283 . S
O86 Eu70 2.362 1_565 S
O87 C61 1.283 . S
O87 Eu70 2.364 . S
O88 C62 1.283 . S
O88 Eu74 2.363 1_655 S
O89 C63 1.283 . S
O89 Eu74 2.363 . S
O90 C64 1.283 . S
O90 Eu73 2.363 1_655 S
O91 C65 1.283 . S
O91 Eu73 2.363 . S
O92 C60 1.283 . S
O92 Eu79 2.363 1_655 S
O93 C58 1.283 . S
O93 Eu79 2.363 . S
O94 C61 1.283 . S
O94 Eu66 2.363 1_655 S
O95 C59 1.283 . S
O95 Eu66 2.363 . S
O96 C55 1.283 . S
O96 Eu74 2.364 . S
O97 C57 1.283 . S
O97 Eu74 2.362 1_565 S
O98 C54 1.283 . S
O98 Eu73 2.362 . S
O99 C56 1.283 . S
O99 Eu73 2.364 1_565 S
O100 C65 1.283 . S
O100 Eu69 2.363 1_556 S
O101 C63 1.283 . S
O101 Eu69 2.363 . S
O102 C64 1.283 . S
O102 Eu70 2.363 1_556 S
O103 C62 1.283 . S
O103 Eu70 2.363 . S
H104 C110 0.930 . S
H105 C113 0.930 . S
H106 C114 0.930 . S
H107 C115 0.930 . S
H108 C118 0.930 . S
H109 C119 0.930 . S
C110 H104 0.930 . S
C110 C111 1.355 . S
C110 C112 1.415 . S
C111 C110 1.355 . S
C111 C113 1.419 1_655 S
C112 C110 1.415 . S
C112 C117 1.425 1_655 S
C112 C119 1.409 . S
C113 H105 0.930 . S
C113 C111 1.419 1_455 S
C113 C114 1.362 . S
C114 H106 0.930 . S
C114 C113 1.362 . S
C114 C117 1.409 . S
C115 H107 0.930 . S
C115 C116 1.355 1_455 S
C115 C117 1.415 . S
C116 C115 1.355 1_655 S
C116 C118 1.419 . S
C117 C112 1.425 1_455 S
C117 C114 1.409 . S
C117 C115 1.415 . S
C118 H108 0.930 . S
C118 C116 1.419 . S
C118 C119 1.362 . S
C119 H109 0.930 . S
C119 C112 1.409 . S
C119 C118 1.362 . S
H120 C126 0.930 . S
H121 C129 0.930 . S
H122 C130 0.930 . S
H123 C131 0.930 . S
H124 C134 0.930 . S
H125 C135 0.930 . S
C126 H120 0.930 . S
C126 C127 1.355 1_565 S
C126 C128 1.415 . S
C127 C126 1.355 1_545 S
C127 C129 1.419 . S
C128 C126 1.415 . S
C128 C133 1.425 1_565 S
C128 C135 1.409 . S
C129 H121 0.930 . S
C129 C127 1.419 . S
C129 C130 1.362 . S
C130 H122 0.930 . S
C130 C129 1.362 . S
C130 C133 1.409 . S
C131 H123 0.930 . S
C131 C132 1.355 1_545 S
C131 C133 1.415 . S
C132 C131 1.355 1_565 S
C132 C134 1.419 . S
C133 C128 1.425 1_545 S
C133 C130 1.409 . S
C133 C131 1.415 . S
C134 H124 0.930 . S
C134 C132 1.419 . S
C134 C135 1.362 . S
C135 H125 0.930 . S
C135 C128 1.409 . S
C135 C134 1.362 . S
H136 C142 0.930 . S
H137 C145 0.930 . S
H138 C146 0.930 . S
H139 C147 0.930 . S
H140 C150 0.930 . S
H141 C151 0.930 . S
C142 H136 0.930 . S
C142 C143 1.355 1_655 S
C142 C144 1.415 . S
C143 C142 1.355 1_455 S
C143 C145 1.419 . S
C144 C142 1.415 . S
C144 C149 1.425 1_655 S
C144 C151 1.409 . S
C145 H137 0.930 . S
C145 C143 1.419 . S
C145 C146 1.362 . S
C146 H138 0.930 . S
C146 C145 1.362 . S
C146 C149 1.409 . S
C147 H139 0.930 . S
C147 C148 1.358 . S
C147 C149 1.415 . S
C148 C147 1.358 . S
C148 C150 1.416 1_455 S
C149 C144 1.425 1_455 S
C149 C146 1.409 . S
C149 C147 1.415 . S
C150 H140 0.930 . S
C150 C148 1.416 1_655 S
C150 C151 1.362 . S
C151 H141 0.930 . S
C151 C144 1.409 . S
C151 C150 1.362 . S
H152 C158 0.930 . S
H153 C161 0.930 . S
H154 C162 0.930 . S
H155 C163 0.930 . S
H156 C166 0.930 . S
H157 C167 0.930 . S
C158 H152 0.930 . S
C158 C159 1.355 . S
C158 C160 1.415 . S
C159 C158 1.355 . S
C159 C161 1.419 1_565 S
C160 C158 1.415 . S
C160 C165 1.425 1_565 S
C160 C167 1.409 . S
C161 H153 0.930 . S
C161 C159 1.419 1_545 S
C161 C162 1.362 . S
C162 H154 0.930 . S
C162 C161 1.362 . S
C162 C165 1.409 . S
C163 H155 0.930 . S
C163 C164 1.353 1_545 S
C163 C165 1.415 . S
C164 C163 1.353 1_565 S
C164 C166 1.421 . S
C165 C160 1.425 1_545 S
C165 C162 1.409 . S
C165 C163 1.415 . S
C166 H156 0.930 . S
C166 C164 1.421 . S
C166 C167 1.362 . S
C167 H157 0.930 . S
C167 C160 1.409 . S
C167 C166 1.362 . S
H168 C174 0.930 . S
H169 C177 0.930 . S
H170 C178 0.930 . S
H171 C179 0.930 . S
H172 C182 0.930 . S
H173 C183 0.930 . S
C174 H168 0.930 . S
C174 C175 1.355 1_455 S
C174 C176 1.415 . S
C175 C174 1.355 1_655 S
C175 C177 1.419 . S
C176 C174 1.415 . S
C176 C181 1.425 1_455 S
C176 C183 1.409 . S
C177 H169 0.930 . S
C177 C175 1.419 . S
C177 C178 1.362 . S
C178 H170 0.930 . S
C178 C177 1.362 . S
C178 C181 1.409 . S
C179 H171 0.930 . S
C179 C180 1.355 1_655 S
C179 C181 1.415 . S
C180 C179 1.355 1_455 S
C180 C182 1.419 . S
C181 C176 1.425 1_655 S
C181 C178 1.409 . S
C181 C179 1.415 . S
C182 H172 0.930 . S
C182 C180 1.419 . S
C182 C183 1.362 . S
C183 H173 0.930 . S
C183 C176 1.409 . S
C183 C182 1.362 . S
H184 C190 0.930 . S
H185 C193 0.930 . S
H186 C194 0.930 . S
H187 C195 0.930 . S
H188 C198 0.930 . S
H189 C199 0.930 . S
C190 H184 0.930 . S
C190 C191 1.355 . S
C190 C192 1.415 . S
C191 C190 1.355 . S
C191 C193 1.419 1_545 S
C192 C190 1.415 . S
C192 C197 1.425 1_545 S
C192 C199 1.409 . S
C193 H185 0.930 . S
C193 C191 1.419 1_565 S
C193 C194 1.362 . S
C194 H186 0.930 . S
C194 C193 1.362 . S
C194 C197 1.409 . S
C195 H187 0.930 . S
C195 C196 1.355 . S
C195 C197 1.415 . S
C196 C195 1.355 . S
C196 C198 1.419 1_565 S
C197 C192 1.425 1_565 S
C197 C194 1.409 . S
C197 C195 1.415 . S
C198 H188 0.930 . S
C198 C196 1.419 1_545 S
C198 C199 1.362 . S
C199 H189 0.930 . S
C199 C192 1.409 . S
C199 C198 1.362 . S
H200 C206 0.927 1_655 S
H201 C209 0.930 . S
H202 C210 0.930 . S
H203 C211 0.930 . S
H204 C214 0.930 . S
H205 C215 0.930 . S
C206 H200 0.927 1_455 S
C206 C207 1.357 . S
C206 C208 1.415 . S
C207 C206 1.357 . S
C207 C209 1.419 . S
C208 C206 1.415 . S
C208 C213 1.425 . S
C208 C215 1.409 1_455 S
C209 H201 0.930 . S
C209 C207 1.419 . S
C209 C210 1.362 . S
C210 H202 0.930 . S
C210 C209 1.362 . S
C210 C213 1.409 . S
C211 H203 0.930 . S
C211 C212 1.355 . S
C211 C213 1.415 . S
C212 C211 1.355 . S
C212 C214 1.419 1_455 S
C213 C208 1.425 . S
C213 C210 1.409 . S
C213 C211 1.415 . S
C214 H204 0.930 . S
C214 C212 1.419 1_655 S
C214 C215 1.362 . S
C215 H205 0.930 . S
C215 C208 1.409 1_655 S
C215 C214 1.362 . S
H216 C222 0.930 . S
H217 C225 0.930 . S
H218 C226 0.930 . S
H219 C227 0.930 . S
H220 C230 0.930 . S
H221 C231 0.930 . S
C222 H216 0.930 . S
C222 C223 1.355 . S
C222 C224 1.415 . S
C223 C222 1.355 . S
C223 C225 1.419 1_565 S
C224 C222 1.415 . S
C224 C229 1.425 1_565 S
C224 C231 1.409 . S
C225 H217 0.930 . S
C225 C223 1.419 1_545 S
C225 C226 1.362 . S
C226 H218 0.930 . S
C226 C225 1.362 . S
C226 C229 1.409 . S
C227 H219 0.930 . S
C227 C228 1.355 1_545 S
C227 C229 1.415 . S
C228 C227 1.355 1_565 S
C228 C230 1.419 . S
C229 C224 1.425 1_545 S
C229 C226 1.409 . S
C229 C227 1.415 . S
C230 H220 0.930 . S
C230 C228 1.419 . S
C230 C231 1.362 . S
C231 H221 0.930 . S
C231 C224 1.409 . S
C231 C230 1.362 . S
H232 C238 0.930 1_556 S
H233 C241 0.930 . S
H234 C242 0.930 . S
H235 C243 0.930 . S
H236 C246 0.930 . S
H237 C247 0.930 . S
C238 H232 0.930 1_554 S
C238 C239 1.355 . S
C238 C240 1.415 . S
C239 C238 1.355 . S
C239 C241 1.419 . S
C240 C238 1.415 . S
C240 C245 1.425 . S
C240 C247 1.409 1_554 S
C241 H233 0.930 . S
C241 C239 1.419 . S
C241 C242 1.362 . S
C242 H234 0.930 . S
C242 C241 1.362 . S
C242 C245 1.409 . S
C243 H235 0.930 . S
C243 C244 1.355 . S
C243 C245 1.415 . S
C244 C243 1.355 . S
C244 C246 1.419 1_554 S
C245 C240 1.425 . S
C245 C242 1.409 . S
C245 C243 1.415 . S
C246 H236 0.930 . S
C246 C244 1.419 1_556 S
C246 C247 1.362 . S
C247 H237 0.930 . S
C247 C240 1.409 1_556 S
C247 C246 1.362 . S
H248 C254 0.930 . S
H249 C257 0.930 . S
H250 C258 0.930 . S
H251 C259 0.930 . S
H252 C262 0.930 . S
H253 C263 0.930 . S
C254 H248 0.930 . S
C254 C255 1.355 1_554 S
C254 C256 1.415 . S
C255 C254 1.355 1_556 S
C255 C257 1.419 . S
C256 C254 1.415 . S
C256 C261 1.425 1_554 S
C256 C263 1.409 . S
C257 H249 0.930 . S
C257 C255 1.419 . S
C257 C258 1.362 . S
C258 H250 0.930 . S
C258 C257 1.362 . S
C258 C261 1.409 . S
C259 H251 0.930 . S
C259 C260 1.355 1_556 S
C259 C261 1.415 . S
C260 C259 1.355 1_554 S
C260 C262 1.419 . S
C261 C256 1.425 1_556 S
C261 C258 1.409 . S
C261 C259 1.415 . S
C262 H252 0.930 . S
C262 C260 1.419 . S
C262 C263 1.362 . S
C263 H253 0.930 . S
C263 C256 1.409 . S
C263 C262 1.362 . S
H264 C270 0.930 . S
H265 C273 0.930 . S
H266 C274 0.930 . S
H267 C275 0.930 . S
H268 C278 0.930 . S
H269 C279 0.930 . S
C270 H264 0.930 . S
C270 C271 1.355 1_556 S
C270 C272 1.415 . S
C271 C270 1.355 1_554 S
C271 C273 1.419 . S
C272 C270 1.415 . S
C272 C277 1.425 1_556 S
C272 C279 1.409 . S
C273 H265 0.930 . S
C273 C271 1.419 . S
C273 C274 1.362 . S
C274 H266 0.930 . S
C274 C273 1.362 . S
C274 C277 1.409 . S
C275 H267 0.930 . S
C275 C276 1.350 1_554 S
C275 C277 1.415 . S
C276 C275 1.350 1_556 S
C276 C278 1.426 . S
C277 C272 1.425 1_554 S
C277 C274 1.409 . S
C277 C275 1.415 . S
C278 H268 0.930 . S
C278 C276 1.426 . S
C278 C279 1.362 . S
C279 H269 0.930 . S
C279 C272 1.409 . S
C279 C278 1.362 . S
H280 C286 0.930 . S
H281 C289 0.930 . S
H282 C290 0.930 . S
H283 C291 0.930 . S
H284 C294 0.930 . S
H285 C295 0.930 . S
C286 H280 0.930 . S
C286 C287 1.355 . S
C286 C288 1.415 . S
C287 C286 1.355 . S
C287 C289 1.419 . S
C288 C286 1.415 . S
C288 C293 1.425 . S
C288 C295 1.409 1_554 S
C289 H281 0.930 . S
C289 C287 1.419 . S
C289 C290 1.362 . S
C290 H282 0.930 . S
C290 C289 1.362 . S
C290 C293 1.409 . S
C291 H283 0.930 . S
C291 C292 1.355 . S
C291 C293 1.415 . S
C292 C291 1.355 . S
C292 C294 1.419 1_554 S
C293 C288 1.425 . S
C293 C290 1.409 . S
C293 C291 1.415 . S
C294 H284 0.930 . S
C294 C292 1.419 1_556 S
C294 C295 1.362 . S
C295 H285 0.930 . S
C295 C288 1.409 1_556 S
C295 C294 1.362 . S
C116 C55 1.859 1_655 S
C111 C7 1.853 . S
C132 C62 1.243 1_565 S
C127 C34 1.257 . S
C148 C57 1.861 . S
C143 C14 1.863 . S
C164 C63 1.253 1_565 S
C159 C32 1.224 . S
C175 C16 1.859 . S
C180 C56 1.860 . S
C196 C65 1.252 1_565 S
C191 C25 1.221 . S
C207 C8 1.857 . S
C212 C54 1.852 . S
C223 C26 1.247 . S
C228 C64 1.236 1_565 S
C239 C50 1.506 . S
C244 C59 1.538 . S
C255 C43 1.533 . S
C260 C58 1.544 . S
C276 C61 1.538 1_556 S
C271 C52 1.519 . S
C292 C60 1.532 . S
C287 C44 1.502 . S
