# Generated by pormake.
# Topology the, (3,8)-cn, num edge types: 1
# Building blocks:
#     Node 0, Type 0, BuildingBlock: BELTOD_clean_linker_0, # of connection points: 3
#     Node 1, Type 0, BuildingBlock: BELTOD_clean_linker_0, # of connection points: 3
#     Node 2, Type 0, BuildingBlock: BELTOD_clean_linker_0, # of connection points: 3
#     Node 3, Type 0, BuildingBlock: BELTOD_clean_linker_0, # of connection points: 3
#     Node 4, Type 0, BuildingBlock: BELTOD_clean_linker_0, # of connection points: 3
#     Node 5, Type 0, BuildingBlock: BELTOD_clean_linker_0, # of connection points: 3
#     Node 6, Type 0, BuildingBlock: BELTOD_clean_linker_0, # of connection points: 3
#     Node 7, Type 0, BuildingBlock: BELTOD_clean_linker_0, # of connection points: 3
#     Node 8, Type 1, BuildingBlock: GIZVER_clean_sbu_0, # of connection points: 8
#     Node 9, Type 1, BuildingBlock: GIZVER_clean_sbu_0, # of connection points: 8
#     Node 10, Type 1, BuildingBlock: GIZVER_clean_sbu_0, # of connection points: 8
#     Edge 11, Type (0, 1), BuildingBlock: ZUJKAS_clean_linker_0, # of connection points: 2
#     Edge 12, Type (0, 1), BuildingBlock: ZUJKAS_clean_linker_0, # of connection points: 2
#     Edge 13, Type (0, 1), BuildingBlock: ZUJKAS_clean_linker_0, # of connection points: 2
#     Edge 14, Type (0, 1), BuildingBlock: ZUJKAS_clean_linker_0, # of connection points: 2
#     Edge 15, Type (0, 1), BuildingBlock: ZUJKAS_clean_linker_0, # of connection points: 2
#     Edge 16, Type (0, 1), BuildingBlock: ZUJKAS_clean_linker_0, # of connection points: 2
#     Edge 17, Type (0, 1), BuildingBlock: ZUJKAS_clean_linker_0, # of connection points: 2
#     Edge 18, Type (0, 1), BuildingBlock: ZUJKAS_clean_linker_0, # of connection points: 2
#     Edge 19, Type (0, 1), BuildingBlock: ZUJKAS_clean_linker_0, # of connection points: 2
#     Edge 20, Type (0, 1), BuildingBlock: ZUJKAS_clean_linker_0, # of connection points: 2
#     Edge 21, Type (0, 1), BuildingBlock: ZUJKAS_clean_linker_0, # of connection points: 2
#     Edge 22, Type (0, 1), BuildingBlock: ZUJKAS_clean_linker_0, # of connection points: 2
#     Edge 23, Type (0, 1), BuildingBlock: ZUJKAS_clean_linker_0, # of connection points: 2
#     Edge 24, Type (0, 1), BuildingBlock: ZUJKAS_clean_linker_0, # of connection points: 2
#     Edge 25, Type (0, 1), BuildingBlock: ZUJKAS_clean_linker_0, # of connection points: 2
#     Edge 26, Type (0, 1), BuildingBlock: ZUJKAS_clean_linker_0, # of connection points: 2
#     Edge 27, Type (0, 1), BuildingBlock: ZUJKAS_clean_linker_0, # of connection points: 2
#     Edge 28, Type (0, 1), BuildingBlock: ZUJKAS_clean_linker_0, # of connection points: 2
#     Edge 29, Type (0, 1), BuildingBlock: ZUJKAS_clean_linker_0, # of connection points: 2
#     Edge 30, Type (0, 1), BuildingBlock: ZUJKAS_clean_linker_0, # of connection points: 2
#     Edge 31, Type (0, 1), BuildingBlock: ZUJKAS_clean_linker_0, # of connection points: 2
#     Edge 32, Type (0, 1), BuildingBlock: ZUJKAS_clean_linker_0, # of connection points: 2
#     Edge 33, Type (0, 1), BuildingBlock: ZUJKAS_clean_linker_0, # of connection points: 2
#     Edge 34, Type (0, 1), BuildingBlock: ZUJKAS_clean_linker_0, # of connection points: 2
# Relax obj value: 0.043
# Max RMSD: 0.142
# Mean RMSD: 0.066
data_MOF--net-the--node1-GIZVER_clean_sbu_0--node2-BELTOD_clean_linker_0--edge1-ZUJKAS_clean_linker_0
_symmetry_space_group_name_H-M    P1
_symmetry_Int_Tables_number       1
_symmetry_cell_setting            triclinic
loop_
_symmetry_equiv_pos_as_xyz
'x, y, z'
_cell_length_a     58.256276
_cell_length_b     55.255066
_cell_length_c     50.654825
_cell_angle_alpha  86.733799
_cell_angle_beta   93.431482
_cell_angle_gamma 100.25184
loop_
_atom_site_label
_atom_site_type_symbol
_atom_site_fract_x
_atom_site_fract_y
_atom_site_fract_z
_atom_type_partial_charge
P0 P 0.34663 0.3624 0.41889 0.0
H1 H 0.32264 0.37106 0.46525 0.0
H2 H 0.2821 0.37374 0.4721 0.0
H3 H 0.26399 0.35873 0.38987 0.0
H4 H 0.30481 0.35687 0.38305 0.0
H5 H 0.38502 0.34109 0.44469 0.0
H6 H 0.39045 0.29864 0.45472 0.0
H7 H 0.32257 0.27237 0.41748 0.0
H8 H 0.3174 0.31489 0.40722 0.0
H9 H 0.35817 0.41187 0.39553 0.0
H10 H 0.3505 0.33772 0.36963 0.0
O11 O 0.36363 0.38031 0.44035 0.0
H12 H 0.3677 0.42805 0.35085 0.0
H13 H 0.36034 0.35375 0.32497 0.0
C14 C 0.31676 0.3644 0.42354 0.0
C15 C 0.30996 0.36853 0.44867 0.0
C16 C 0.2867 0.36974 0.45262 0.0
C17 C 0.26978 0.36647 0.43151 0.0
C18 C 0.27665 0.36173 0.40643 0.0
C19 C 0.29997 0.36067 0.4025 0.0
C20 C 0.35067 0.33111 0.42561 0.0
C21 C 0.37127 0.3262 0.43879 0.0
C22 C 0.37429 0.30194 0.44465 0.0
C23 C 0.3568 0.28217 0.43718 0.0
C24 C 0.33635 0.28721 0.42348 0.0
C25 C 0.33333 0.3115 0.41772 0.0
C26 C 0.35416 0.37365 0.386 0.0
C27 C 0.35876 0.39908 0.38026 0.0
C28 C 0.36422 0.4083 0.35473 0.0
C29 C 0.36494 0.39218 0.33442 0.0
C30 C 0.35978 0.36663 0.34015 0.0
C31 C 0.35438 0.35744 0.36575 0.0
P32 P 0.71654 0.30118 0.28119 0.0
H33 H 0.75992 0.28887 0.30466 0.0
H34 H 0.79167 0.3111 0.33227 0.0
H35 H 0.75453 0.37218 0.33262 0.0
H36 H 0.72258 0.34952 0.30526 0.0
H37 H 0.68055 0.2616 0.26307 0.0
H38 H 0.65532 0.22779 0.28586 0.0
H39 H 0.68503 0.25442 0.36123 0.0
H40 H 0.71046 0.28809 0.33818 0.0
H41 H 0.7259 0.33243 0.23339 0.0
H42 H 0.67043 0.31439 0.28762 0.0
O43 O 0.72975 0.28734 0.25954 0.0
H44 H 0.70182 0.35599 0.20463 0.0
H45 H 0.64629 0.33819 0.25914 0.0
C46 C 0.73913 0.31773 0.30253 0.0
C47 C 0.75862 0.30706 0.31067 0.0
C48 C 0.77682 0.31985 0.32636 0.0
C49 C 0.77583 0.34358 0.33441 0.0
C50 C 0.75585 0.35392 0.32685 0.0
C51 C 0.73762 0.34106 0.31107 0.0
C52 C 0.69749 0.27721 0.29889 0.0
C53 C 0.68158 0.26018 0.28451 0.0
C54 C 0.66706 0.24094 0.29759 0.0
C55 C 0.66815 0.23834 0.32541 0.0
C56 C 0.68396 0.2557 0.33979 0.0
C57 C 0.69846 0.27503 0.32663 0.0
C58 C 0.69977 0.32125 0.26232 0.0
C59 C 0.70861 0.33379 0.23925 0.0
C60 C 0.69485 0.34737 0.22289 0.0
C61 C 0.67198 0.34875 0.22939 0.0
C62 C 0.66363 0.33709 0.25326 0.0
C63 C 0.67746 0.32355 0.26963 0.0
P64 P 0.72656 0.74103 0.29835 0.0
H65 H 0.74324 0.7862 0.3254 0.0
H66 H 0.72456 0.81133 0.35271 0.0
H67 H 0.66008 0.75901 0.34552 0.0
H68 H 0.6792 0.73362 0.31883 0.0
H69 H 0.77401 0.73447 0.28907 0.0
H70 H 0.80236 0.71394 0.31477 0.0
H71 H 0.7527 0.69219 0.37547 0.0
H72 H 0.72423 0.71276 0.34936 0.0
H73 H 0.68913 0.74943 0.26026 0.0
H74 H 0.71929 0.6873 0.29164 0.0
O75 O 0.7415 0.76144 0.27735 0.0
H76 H 0.66374 0.72291 0.22942 0.0
H77 H 0.69421 0.66075 0.26067 0.0
C78 C 0.71249 0.75832 0.31968 0.0
C79 C 0.72509 0.78012 0.32979 0.0
C80 C 0.71432 0.79455 0.34528 0.0
C81 C 0.69068 0.78743 0.35109 0.0
C82 C 0.67832 0.76505 0.3416 0.0
C83 C 0.68918 0.75057 0.32612 0.0
C84 C 0.74716 0.72549 0.31753 0.0
C85 C 0.76923 0.72543 0.30797 0.0
C86 C 0.78549 0.71376 0.32277 0.0
C87 C 0.77992 0.70165 0.34734 0.0
C88 C 0.75754 0.7013 0.35661 0.0
C89 C 0.74129 0.71314 0.3418 0.0
C90 C 0.70602 0.72038 0.27834 0.0
C91 C 0.69011 0.73002 0.26069 0.0
C92 C 0.67576 0.71487 0.24291 0.0
C93 C 0.67704 0.68971 0.2424 0.0
C94 C 0.69261 0.67998 0.26066 0.0
C95 C 0.70702 0.69519 0.2784 0.0
P96 P 0.29466 0.70952 0.2955 0.0
H97 H 0.32761 0.75289 0.27951 0.0
H98 H 0.35298 0.78494 0.30407 0.0
H99 H 0.3316 0.7465 0.37769 0.0
H100 H 0.30668 0.71416 0.35286 0.0
H101 H 0.28753 0.69169 0.24205 0.0
H102 H 0.3074 0.66576 0.21737 0.0
H103 H 0.35419 0.65762 0.28556 0.0
H104 H 0.33449 0.68444 0.30992 0.0
H105 H 0.26096 0.7233 0.32938 0.0
H106 H 0.27868 0.65596 0.30425 0.0
O107 O 0.28078 0.72598 0.27326 0.0
H108 H 0.22776 0.69964 0.3522 0.0
H109 H 0.2453 0.63226 0.32641 0.0
C110 C 0.31497 0.73138 0.31433 0.0
C111 C 0.32852 0.75129 0.30095 0.0
C112 C 0.34289 0.76971 0.31504 0.0
C113 C 0.34408 0.76856 0.3429 0.0
C114 C 0.33115 0.74798 0.35626 0.0
C115 C 0.31677 0.72952 0.34208 0.0
C116 C 0.30983 0.69038 0.27763 0.0
C117 C 0.30218 0.68451 0.25166 0.0
C118 C 0.31344 0.66939 0.23763 0.0
C119 C 0.33245 0.65949 0.24941 0.0
C120 C 0.33987 0.66519 0.27569 0.0
C121 C 0.32859 0.68046 0.28969 0.0
C122 C 0.27242 0.69146 0.31526 0.0
C123 C 0.25786 0.7034 0.32904 0.0
C124 C 0.23875 0.68984 0.34186 0.0
C125 C 0.2337 0.66401 0.341 0.0
C126 C 0.24877 0.65208 0.32775 0.0
C127 C 0.2679 0.66567 0.31496 0.0
P128 P 0.33587 0.67888 0.6927 0.0
H129 H 0.31107 0.68166 0.6417 0.0
H130 H 0.27061 0.66808 0.62646 0.0
H131 H 0.2523 0.64798 0.70725 0.0
H132 H 0.29317 0.66114 0.72222 0.0
H133 H 0.38392 0.7033 0.68922 0.0
H134 H 0.40224 0.74573 0.67869 0.0
H135 H 0.33426 0.76719 0.67127 0.0
H136 H 0.31599 0.72446 0.68176 0.0
H137 H 0.33296 0.63048 0.71938 0.0
H138 H 0.35424 0.70603 0.74032 0.0
O139 O 0.34894 0.66236 0.67361 0.0
H140 H 0.34821 0.61659 0.76256 0.0
H141 H 0.36947 0.6923 0.78355 0.0
C142 C 0.30516 0.67228 0.68303 0.0
C143 C 0.29827 0.67463 0.65617 0.0
C144 C 0.27503 0.66697 0.64751 0.0
C145 C 0.25805 0.6568 0.66558 0.0
C146 C 0.26492 0.65535 0.69271 0.0
C147 C 0.28828 0.66302 0.70135 0.0
C148 C 0.34862 0.71068 0.68593 0.0
C149 C 0.37295 0.71715 0.68539 0.0
C150 C 0.38341 0.74147 0.67956 0.0
C151 C 0.36972 0.75989 0.67414 0.0
C152 C 0.34527 0.75339 0.67508 0.0
C153 C 0.33481 0.72898 0.68111 0.0
C154 C 0.34271 0.66925 0.72647 0.0
C155 C 0.34051 0.64407 0.73348 0.0
C156 C 0.34919 0.63616 0.75823 0.0
C157 C 0.36032 0.65335 0.77642 0.0
C158 C 0.36137 0.6786 0.76982 0.0
C159 C 0.35255 0.68647 0.7451 0.0
P160 P 0.32964 0.31985 0.67977 0.0
H161 H 0.37718 0.32811 0.70218 0.0
H162 H 0.39451 0.34256 0.74482 0.0
H163 H 0.32553 0.33982 0.77306 0.0
H164 H 0.30829 0.32493 0.73039 0.0
H165 H 0.32948 0.30089 0.62764 0.0
H166 H 0.33789 0.26272 0.61189 0.0
H167 H 0.34594 0.23497 0.69285 0.0
H168 H 0.33799 0.27374 0.70844 0.0
H169 H 0.30858 0.36287 0.68534 0.0
H170 H 0.28537 0.28817 0.66234 0.0
O171 O 0.34533 0.34085 0.66 0.0
H172 H 0.27005 0.37257 0.67237 0.0
H173 H 0.24689 0.29789 0.64877 0.0
C174 C 0.34149 0.32585 0.71296 0.0
C175 C 0.36578 0.33025 0.7177 0.0
C176 C 0.37566 0.33867 0.74203 0.0
C177 C 0.36142 0.34278 0.7622 0.0
C178 C 0.337 0.33685 0.75796 0.0
C179 C 0.32711 0.32844 0.7335 0.0
C180 C 0.33344 0.29027 0.66916 0.0
C181 C 0.33291 0.28652 0.642 0.0
C182 C 0.33755 0.26454 0.63303 0.0
C183 C 0.34269 0.24568 0.65107 0.0
C184 C 0.3424 0.24921 0.67839 0.0
C185 C 0.33775 0.27133 0.68736 0.0
C186 C 0.2999 0.32488 0.67471 0.0
C187 C 0.29506 0.34846 0.67784 0.0
C188 C 0.27308 0.35402 0.67022 0.0
C189 C 0.25548 0.3361 0.65916 0.0
C190 C 0.26001 0.31208 0.6573 0.0
C191 C 0.28209 0.30653 0.66497 0.0
P192 P 0.72703 0.29861 0.72829 0.0
H193 H 0.73407 0.25146 0.71071 0.0
H194 H 0.7104 0.2204 0.68355 0.0
H195 H 0.65771 0.26654 0.67098 0.0
H196 H 0.68143 0.29736 0.69891 0.0
H197 H 0.76435 0.33716 0.74592 0.0
H198 H 0.79729 0.3622 0.72405 0.0
H199 H 0.77214 0.32946 0.64993 0.0
H200 H 0.73949 0.30409 0.67216 0.0
H201 H 0.70588 0.29074 0.77954 0.0
H202 H 0.7103 0.34527 0.71485 0.0
O203 O 0.74084 0.28275 0.75121 0.0
H204 H 0.68554 0.31594 0.80489 0.0
H205 H 0.68998 0.37078 0.74024 0.0
C206 C 0.70932 0.27649 0.70726 0.0
C207 C 0.71738 0.25487 0.70219 0.0
C208 C 0.70388 0.23719 0.6864 0.0
C209 C 0.68204 0.24084 0.67506 0.0
C210 C 0.67424 0.26289 0.67973 0.0
C211 C 0.68782 0.2806 0.69562 0.0
C212 C 0.74948 0.31877 0.71072 0.0
C213 C 0.76582 0.33557 0.7249 0.0
C214 C 0.78461 0.34996 0.7123 0.0
C215 C 0.78747 0.34785 0.68519 0.0
C216 C 0.77069 0.33132 0.6709 0.0
C217 C 0.75188 0.3169 0.68357 0.0
C218 C 0.70994 0.31633 0.7455 0.0
C219 C 0.70243 0.30815 0.77076 0.0
C220 C 0.69091 0.32265 0.78531 0.0
C221 C 0.68643 0.34556 0.77477 0.0
C222 C 0.69315 0.35324 0.74894 0.0
C223 C 0.70482 0.33873 0.73443 0.0
P224 P 0.73987 0.71678 0.67393 0.0
H225 H 0.78474 0.73476 0.65122 0.0
H226 H 0.80759 0.71721 0.6208 0.0
H227 H 0.7531 0.65314 0.61527 0.0
H228 H 0.73054 0.6707 0.64613 0.0
H229 H 0.72118 0.7593 0.68835 0.0
H230 H 0.69781 0.78644 0.66366 0.0
H231 H 0.69616 0.7437 0.59453 0.0
H232 H 0.71951 0.7166 0.61933 0.0
H233 H 0.75147 0.67534 0.70667 0.0
H234 H 0.68968 0.70607 0.68404 0.0
O235 O 0.75846 0.73386 0.69472 0.0
H236 H 0.72855 0.64427 0.73553 0.0
H237 H 0.66674 0.67508 0.71261 0.0
C238 C 0.75637 0.70365 0.6515 0.0
C239 C 0.77779 0.71689 0.64354 0.0
C240 C 0.79067 0.70698 0.62587 0.0
C241 C 0.78216 0.68375 0.61568 0.0
C242 C 0.76025 0.67091 0.62308 0.0
C243 C 0.7474 0.68086 0.64078 0.0
C244 C 0.72248 0.73632 0.65552 0.0
C245 C 0.71583 0.75582 0.66787 0.0
C246 C 0.70233 0.77116 0.65381 0.0
C247 C 0.69525 0.76718 0.62715 0.0
C248 C 0.70164 0.74734 0.61495 0.0
C249 C 0.71498 0.73187 0.62913 0.0
C250 C 0.7223 0.69297 0.69324 0.0
C251 C 0.73293 0.67522 0.70771 0.0
C252 C 0.71981 0.65742 0.72405 0.0
C253 C 0.69587 0.6573 0.72636 0.0
C254 C 0.68521 0.6749 0.71143 0.0
C255 C 0.69832 0.69259 0.69501 0.0
Co256 Co 0.05452 0.47616 0.52385 0.0
Co257 Co 0.02956 0.46768 0.47893 0.0
Co258 Co 0.00862 0.50598 0.5093 0.0
O259 O 0.02232 0.47534 0.51283 0.0
H260 H 0.01202 0.46166 0.52098 0.0
O261 O 0.99498 0.53673 0.50536 0.0
Co262 Co 0.96296 0.53566 0.49285 0.0
Co263 Co 0.98656 0.54438 0.53849 0.0
H264 H 0.00546 0.55043 0.49754 0.0
O265 O 0.03701 0.437 0.47165 0.0
O266 O 0.06117 0.46986 0.48743 0.0
O267 O 0.02874 0.49271 0.45073 0.0
O268 O 0.02922 0.52133 0.47982 0.0
O269 O 0.98436 0.48935 0.48334 0.0
O270 O 0.93419 0.53732 0.48058 0.0
O271 O 0.96557 0.56769 0.48084 0.0
O272 O 0.9559 0.50182 0.50249 0.0
O273 O 0.98808 0.49049 0.53894 0.0
O274 O 0.98585 0.51949 0.56682 0.0
O275 O 0.95553 0.54438 0.5282 0.0
O276 O 0.98128 0.57574 0.54482 0.0
C277 C 0.07412 0.45079 0.53948 0.0
C278 C 0.05463 0.52483 0.53145 0.0
C279 C 0.03375 0.51498 0.45709 0.0
C280 C 0.05798 0.44817 0.47792 0.0
C281 C 0.94338 0.5601 0.47492 0.0
C282 C 0.96262 0.48742 0.48708 0.0
C283 C 0.98241 0.49703 0.56114 0.0
C284 C 0.96016 0.5666 0.53659 0.0
O285 O 0.08359 0.47369 0.53484 0.0
O286 O 0.05185 0.44373 0.53371 0.0
O287 O 0.0329 0.52259 0.53539 0.0
O288 O 0.06161 0.51049 0.51616 0.0
Co289 Co 0.53727 0.96054 0.49474 0.0
Co290 Co 0.54817 0.98264 0.53976 0.0
Co291 Co 0.50981 0.00768 0.50792 0.0
O292 O 0.53875 0.99345 0.50589 0.0
H293 H 0.55129 0.00498 0.49818 0.0
O294 O 0.48079 0.02196 0.50981 0.0
Co295 Co 0.48229 0.0541 0.52308 0.0
Co296 Co 0.47162 0.03482 0.47668 0.0
H297 H 0.46808 0.01011 0.51683 0.0
O298 O 0.57855 0.97701 0.54733 0.0
O299 O 0.54792 0.95059 0.53079 0.0
O300 O 0.52619 0.98003 0.56724 0.0
O301 O 0.49696 0.98461 0.53821 0.0
O302 O 0.52753 0.03181 0.5333 0.0
O303 O 0.48122 0.08278 0.53631 0.0
O304 O 0.45269 0.04951 0.53431 0.0
O305 O 0.51363 0.0632 0.51394 0.0
O306 O 0.52278 0.03081 0.47775 0.0
O307 O 0.49412 0.03942 0.44971 0.0
O308 O 0.4716 0.06615 0.48787 0.0
O309 O 0.44127 0.04094 0.46909 0.0
C310 C 0.55965 0.9413 0.47842 0.0
C311 C 0.4909 0.96016 0.48755 0.0
C312 C 0.5045 0.97724 0.56096 0.0
C313 C 0.56957 0.95519 0.53963 0.0
C314 C 0.46005 0.07214 0.5412 0.0
C315 C 0.52894 0.055 0.52908 0.0
C316 C 0.51568 0.04024 0.45577 0.0
C317 C 0.45013 0.06222 0.47829 0.0
O318 O 0.53848 0.93092 0.4837 0.0
O319 O 0.56687 0.96439 0.48368 0.0
O320 O 0.4923 0.98331 0.48265 0.0
O321 O 0.5058 0.95232 0.50366 0.0
Co322 Co 0.48557 0.5185 0.06574 0.0
Co323 Co 0.47517 0.47436 0.04742 0.0
Co324 Co 0.51284 0.50763 0.01129 0.0
O325 O 0.48392 0.5055 0.03128 0.0
H326 H 0.47106 0.50987 0.02021 0.0
O327 O 0.54181 0.50966 0.99142 0.0
Co328 Co 0.54045 0.49592 0.95735 0.0
Co329 Co 0.5503 0.54038 0.97447 0.0
H330 H 0.55474 0.50568 1.00269 0.0
O331 O 0.44526 0.46299 0.05952 0.0
O332 O 0.47579 0.48503 0.0816 0.0
O333 O 0.49767 0.45268 0.04825 0.0
O334 O 0.5264 0.48233 0.03517 0.0
O335 O 0.49533 0.48126 0.98825 0.0
O336 O 0.54164 0.48254 0.92658 0.0
O337 O 0.56997 0.48928 0.95888 0.0
O338 O 0.50916 0.50011 0.95155 0.0
O339 O 0.49918 0.53291 0.98746 0.0
O340 O 0.52751 0.56179 0.97199 0.0
O341 O 0.55118 0.52902 0.94087 0.0
O342 O 0.58059 0.55166 0.96417 0.0
C343 C 0.46331 0.5327 0.08809 0.0
C344 C 0.53197 0.53096 0.05937 0.0
C345 C 0.51925 0.46108 0.04612 0.0
C346 C 0.45463 0.47259 0.08127 0.0
C347 C 0.56267 0.48084 0.93569 0.0
C348 C 0.49388 0.48445 0.96307 0.0
C349 C 0.50605 0.55367 0.97531 0.0
C350 C 0.57238 0.54137 0.94234 0.0
O351 O 0.48452 0.53136 0.09686 0.0
O352 O 0.45588 0.5243 0.06493 0.0
O353 O 0.53031 0.53414 0.03422 0.0
O354 O 0.51709 0.51488 0.07091 0.0
H355 H 0.24366 0.34986 0.47423 0.0
H356 H 0.20508 0.35838 0.48294 0.0
H357 H 0.20183 0.39685 0.40671 0.0
H358 H 0.24062 0.38909 0.39808 0.0
H359 H 0.19669 0.40901 0.48217 0.0
H360 H 0.13655 0.35037 0.41284 0.0
H361 H 0.16503 0.34387 0.4238 0.0
H362 H 0.16245 0.36782 0.39891 0.0
C363 C 0.23471 0.36005 0.45926 0.0
C364 C 0.24531 0.36898 0.43555 0.0
C365 C 0.21262 0.3647 0.46419 0.0
C366 C 0.20063 0.37802 0.44536 0.0
C367 C 0.2107 0.38614 0.42126 0.0
H368 H 0.10113 0.47164 0.46602 0.0
H369 H 0.13522 0.45335 0.45881 0.0
C370 C 0.23285 0.38166 0.41638 0.0
C371 C 0.17881 0.38577 0.45197 0.0
H372 H 0.12113 0.38138 0.43313 0.0
C373 C 0.18008 0.4028 0.47169 0.0
C374 C 0.15728 0.37751 0.43827 0.0
C375 C 0.15506 0.35873 0.41739 0.0
C376 C 0.16044 0.41249 0.47756 0.0
C377 C 0.13898 0.4049 0.46323 0.0
C378 C 0.13757 0.38719 0.44409 0.0
C379 C 0.11804 0.4158 0.46707 0.0
C380 C 0.16306 0.4309 0.49891 0.0
C381 C 0.09669 0.40069 0.47282 0.0
C382 C 0.07691 0.41111 0.47604 0.0
C383 C 0.07836 0.43676 0.47393 0.0
C384 C 0.09967 0.4518 0.46809 0.0
C385 C 0.11921 0.44139 0.4642 0.0
H386 H 0.17764 0.42854 0.51345 0.0
H387 H 0.16716 0.44979 0.48977 0.0
H388 H 0.14677 0.42928 0.50962 0.0
H389 H 0.09539 0.38088 0.47496 0.0
H390 H 0.06064 0.39919 0.48065 0.0
H391 H 0.68008 0.20951 0.36815 0.0
H392 H 0.65568 0.17386 0.38937 0.0
H393 H 0.5979 0.18397 0.33508 0.0
H394 H 0.62209 0.21962 0.31385 0.0
H395 H 0.61374 0.17024 0.41399 0.0
H396 H 0.6022 0.11186 0.32705 0.0
H397 H 0.62396 0.13947 0.3291 0.0
H398 H 0.59398 0.14147 0.32018 0.0
C399 C 0.66212 0.20428 0.36086 0.0
C400 C 0.6531 0.21733 0.33915 0.0
C401 C 0.64824 0.18381 0.37292 0.0
C402 C 0.62512 0.17593 0.36345 0.0
C403 C 0.61589 0.18929 0.34225 0.0
H404 H 0.50765 0.06674 0.40967 0.0
H405 H 0.53547 0.09837 0.3871 0.0
C406 C 0.62974 0.20971 0.33016 0.0
C407 C 0.61049 0.15401 0.37603 0.0
H408 H 0.57805 0.09766 0.36308 0.0
C409 C 0.6061 0.15427 0.40294 0.0
C410 C 0.60056 0.13318 0.36156 0.0
C411 C 0.60556 0.13129 0.33294 0.0
C412 C 0.59147 0.1346 0.41559 0.0
C413 C 0.58127 0.11392 0.40102 0.0
C414 C 0.58588 0.11353 0.37419 0.0
C415 C 0.56512 0.09294 0.41312 0.0
C416 C 0.58645 0.13647 0.44424 0.0
C417 C 0.57277 0.07869 0.43457 0.0
C418 C 0.55693 0.06052 0.44752 0.0
C419 C 0.5331 0.0562 0.43921 0.0
C420 C 0.52581 0.06956 0.4167 0.0
C421 C 0.54169 0.08772 0.40378 0.0
H422 H 0.59122 0.15567 0.45072 0.0
H423 H 0.56769 0.12974 0.44761 0.0
H424 H 0.59682 0.12486 0.45689 0.0
H425 H 0.59089 0.08205 0.44174 0.0
H426 H 0.56324 0.05056 0.46469 0.0
H427 H 0.77273 0.65644 0.37373 0.0
H428 H 0.80195 0.63524 0.39728 0.0
H429 H 0.85589 0.69715 0.37909 0.0
H430 H 0.82675 0.71866 0.35596 0.0
H431 H 0.84119 0.62304 0.374 0.0
H432 H 0.86807 0.6826 0.45916 0.0
H433 H 0.84132 0.68333 0.43941 0.0
H434 H 0.86877 0.6985 0.42717 0.0
C435 C 0.79074 0.66573 0.37514 0.0
C436 C 0.79739 0.68924 0.36292 0.0
C437 C 0.80744 0.65354 0.3885 0.0
C438 C 0.83106 0.66471 0.39018 0.0
C439 C 0.83772 0.68833 0.3784 0.0
H440 H 0.95569 0.60828 0.45614 0.0
H441 H 0.92952 0.63496 0.43509 0.0
C442 C 0.82106 0.70048 0.36493 0.0
C443 C 0.8489 0.65097 0.40272 0.0
H444 H 0.89017 0.65129 0.45368 0.0
C445 C 0.85183 0.62917 0.39149 0.0
C446 C 0.86297 0.65917 0.42533 0.0
C447 C 0.86008 0.68208 0.43868 0.0
C448 C 0.86838 0.61528 0.40226 0.0
C449 C 0.88211 0.62314 0.42523 0.0
C450 C 0.87959 0.64526 0.43614 0.0
C451 C 0.89807 0.60776 0.43895 0.0
C452 C 0.87116 0.5924 0.38873 0.0
C453 C 0.889 0.58397 0.44876 0.0
C454 C 0.90379 0.56877 0.46054 0.0
C455 C 0.92807 0.57704 0.46305 0.0
C456 C 0.93712 0.60126 0.4542 0.0
C457 C 0.9222 0.61652 0.44224 0.0
H458 H 0.86486 0.59304 0.3676 0.0
H459 H 0.88969 0.58987 0.38978 0.0
H460 H 0.86066 0.57609 0.39873 0.0
H461 H 0.87038 0.57708 0.44719 0.0
H462 H 0.89609 0.55043 0.46761 0.0
H463 H 0.37184 0.76552 0.38839 0.0
H464 H 0.39496 0.79941 0.41268 0.0
H465 H 0.37222 0.85182 0.35511 0.0
H466 H 0.34854 0.81817 0.33119 0.0
H467 H 0.43139 0.83541 0.3941 0.0
H468 H 0.35878 0.87841 0.42532 0.0
H469 H 0.35416 0.84772 0.41321 0.0
H470 H 0.35851 0.87408 0.39042 0.0
C471 C 0.3715 0.78426 0.38107 0.0
C472 C 0.35828 0.78907 0.35782 0.0
C473 C 0.38484 0.80361 0.3949 0.0
C474 C 0.38507 0.82818 0.38593 0.0
C475 C 0.37199 0.83305 0.36269 0.0
H476 H 0.4614 0.96813 0.44452 0.0
H477 H 0.43535 0.93678 0.41909 0.0
C478 C 0.35869 0.81374 0.34884 0.0
C479 C 0.39965 0.84864 0.40038 0.0
H480 H 0.39721 0.90005 0.43393 0.0
C481 C 0.4239 0.8495 0.40287 0.0
C482 C 0.38989 0.86716 0.4116 0.0
C483 C 0.36389 0.86679 0.41026 0.0
C484 C 0.43867 0.86838 0.41617 0.0
C485 C 0.42889 0.88667 0.4278 0.0
C486 C 0.40467 0.88604 0.425 0.0
C487 C 0.44351 0.90591 0.44387 0.0
C488 C 0.46468 0.86873 0.41733 0.0
C489 C 0.45612 0.89903 0.46666 0.0
C490 C 0.47096 0.91678 0.4811 0.0
C491 C 0.47341 0.94192 0.47325 0.0
C492 C 0.45998 0.94894 0.45105 0.0
C493 C 0.44512 0.93105 0.43649 0.0
H494 H 0.46978 0.85813 0.40131 0.0
H495 H 0.47451 0.88787 0.4157 0.0
H496 H 0.46995 0.86016 0.43656 0.0
H497 H 0.4547 0.87982 0.47314 0.0
H498 H 0.48078 0.91068 0.49827 0.0
H499 H 0.22959 0.61478 0.68369 0.0
H500 H 0.19186 0.59532 0.66439 0.0
H501 H 0.19421 0.65471 0.60507 0.0
H502 H 0.23144 0.67496 0.625 0.0
H503 H 0.14965 0.63892 0.62231 0.0
H504 H 0.18909 0.55968 0.5961 0.0
H505 H 0.1914 0.56506 0.63084 0.0
H506 H 0.20642 0.58767 0.60796 0.0
C507 C 0.22189 0.62406 0.66693 0.0
C508 C 0.23382 0.64635 0.65574 0.0
C509 C 0.2004 0.61272 0.6557 0.0
C510 C 0.19046 0.62323 0.63287 0.0
C511 C 0.20164 0.64611 0.62251 0.0
H512 H 0.0981 0.54433 0.51585 0.0
H513 H 0.12936 0.5701 0.54074 0.0
C514 C 0.22306 0.65755 0.63382 0.0
C515 C 0.16922 0.60977 0.61883 0.0
H516 H 0.14857 0.55683 0.58697 0.0
C517 C 0.14935 0.62094 0.61461 0.0
C518 C 0.16897 0.58648 0.60842 0.0
C519 C 0.19016 0.57408 0.61079 0.0
C520 C 0.12926 0.60944 0.6003 0.0
C521 C 0.12891 0.58594 0.59032 0.0
C522 C 0.14876 0.57478 0.5947 0.0
C523 C 0.10872 0.57283 0.57424 0.0
C524 C 0.10892 0.62287 0.59531 0.0
C525 C 0.0864 0.56619 0.58442 0.0
C526 C 0.06827 0.55162 0.56996 0.0
C527 C 0.07232 0.54308 0.54532 0.0
C528 C 0.09445 0.55043 0.53487 0.0
C529 C 0.11237 0.56517 0.5491 0.0
H530 H 0.11421 0.64294 0.59808 0.0
H531 H 0.10104 0.62017 0.57496 0.0
H532 H 0.09534 0.61552 0.60954 0.0
H533 H 0.08322 0.57143 0.60396 0.0
H534 H 0.05147 0.54607 0.5786 0.0
H535 H 0.32439 0.2198 0.60762 0.0
H536 H 0.33881 0.18596 0.58868 0.0
H537 H 0.3908 0.18659 0.65298 0.0
H538 H 0.37688 0.22074 0.67178 0.0
H539 H 0.38456 0.18892 0.57241 0.0
H540 H 0.363 0.11283 0.6479 0.0
H541 H 0.34929 0.1398 0.64583 0.0
H542 H 0.37803 0.14106 0.66135 0.0
C543 C 0.33883 0.2127 0.61784 0.0
C544 C 0.34952 0.22315 0.64121 0.0
C545 C 0.34695 0.19323 0.60704 0.0
C546 C 0.36572 0.18357 0.61954 0.0
C547 C 0.37597 0.1934 0.64328 0.0
H548 H 0.47188 0.11815 0.55971 0.0
H549 H 0.44659 0.14333 0.57714 0.0
C550 C 0.36795 0.21295 0.65404 0.0
C551 C 0.37594 0.16476 0.60663 0.0
H552 H 0.39098 0.1078 0.61673 0.0
C553 C 0.38567 0.17105 0.58195 0.0
C554 C 0.3772 0.14136 0.61893 0.0
C555 C 0.36613 0.1332 0.64485 0.0
C556 C 0.39763 0.15508 0.56986 0.0
C557 C 0.39999 0.13222 0.58285 0.0
C558 C 0.38926 0.12538 0.60688 0.0
C559 C 0.41509 0.11618 0.57276 0.0
C560 C 0.40817 0.16315 0.5436 0.0
C561 C 0.40589 0.09218 0.56515 0.0
C562 C 0.42044 0.07751 0.5552 0.0
C563 C 0.44441 0.08662 0.55292 0.0
C564 C 0.45351 0.11051 0.56107 0.0
C565 C 0.43904 0.12504 0.57094 0.0
H566 H 0.39861 0.17645 0.53238 0.0
H567 H 0.4265 0.1725 0.54719 0.0
H568 H 0.40827 0.14722 0.53126 0.0
H569 H 0.38743 0.08496 0.56653 0.0
H570 H 0.41288 0.05925 0.54898 0.0
H571 H 0.80833 0.39577 0.6926 0.0
H572 H 0.84349 0.41867 0.67274 0.0
H573 H 0.84893 0.35569 0.62857 0.0
H574 H 0.814 0.33249 0.64861 0.0
H575 H 0.88909 0.40589 0.67506 0.0
H576 H 0.85211 0.41263 0.57171 0.0
H577 H 0.83397 0.40477 0.59969 0.0
H578 H 0.8484 0.3821 0.58694 0.0
C579 C 0.81703 0.38672 0.67874 0.0
C580 C 0.80825 0.36226 0.67218 0.0
C581 C 0.83708 0.39988 0.66734 0.0
C582 C 0.8487 0.38897 0.64899 0.0
C583 C 0.84 0.36462 0.64233 0.0
H584 H 0.96744 0.44786 0.55349 0.0
H585 H 0.93706 0.41992 0.57675 0.0
C586 C 0.81997 0.35141 0.65375 0.0
C587 C 0.87014 0.40297 0.63724 0.0
H588 H 0.89243 0.42748 0.57881 0.0
C589 C 0.88986 0.41063 0.65402 0.0
C590 C 0.87112 0.40899 0.60977 0.0
C591 C 0.85025 0.40191 0.59093 0.0
C592 C 0.91059 0.42407 0.64404 0.0
C593 C 0.91147 0.43044 0.61661 0.0
C594 C 0.89181 0.42251 0.59982 0.0
C595 C 0.93211 0.44629 0.60494 0.0
C596 C 0.93145 0.43099 0.66294 0.0
C597 C 0.93984 0.47027 0.61338 0.0
C598 C 0.95734 0.48627 0.60026 0.0
C599 C 0.96733 0.47873 0.57815 0.0
C600 C 0.96024 0.45433 0.57046 0.0
C601 C 0.94277 0.43832 0.58366 0.0
H602 H 0.93052 0.41844 0.68092 0.0
H603 H 0.94803 0.43061 0.65338 0.0
H604 H 0.9318 0.44992 0.66938 0.0
H605 H 0.93158 0.47705 0.62937 0.0
H606 H 0.96219 0.50494 0.60668 0.0
H607 H 0.70236 0.78809 0.5774 0.0
H608 H 0.68244 0.81958 0.55473 0.0
H609 H 0.63778 0.81578 0.62028 0.0
H610 H 0.65758 0.78445 0.64302 0.0
H611 H 0.63385 0.82157 0.54001 0.0
H612 H 0.67256 0.88804 0.61531 0.0
H613 H 0.683 0.85964 0.61148 0.0
H614 H 0.65725 0.8596 0.6294 0.0
C615 C 0.68803 0.79371 0.58674 0.0
C616 C 0.6817 0.78413 0.61212 0.0
C617 C 0.67673 0.81167 0.5738 0.0
C618 C 0.65897 0.82022 0.58609 0.0
C619 C 0.65177 0.80969 0.61074 0.0
H620 H 0.55446 0.90561 0.53915 0.0
H621 H 0.57822 0.8733 0.54486 0.0
C622 C 0.6631 0.79188 0.62372 0.0
C623 C 0.64888 0.84124 0.5742 0.0
H624 H 0.64107 0.89878 0.58764 0.0
C625 C 0.63561 0.83862 0.55017 0.0
C626 C 0.65174 0.86361 0.58719 0.0
C627 C 0.66711 0.86806 0.61213 0.0
C628 C 0.624 0.85745 0.5395 0.0
C629 C 0.6255 0.87915 0.55357 0.0
C630 C 0.63978 0.88213 0.57689 0.0
C631 C 0.61133 0.89843 0.54585 0.0
C632 C 0.61017 0.85372 0.51347 0.0
C633 C 0.62198 0.92332 0.5446 0.0
C634 C 0.60841 0.94181 0.54213 0.0
C635 C 0.58394 0.93571 0.54058 0.0
C636 C 0.5733 0.91082 0.54044 0.0
C637 C 0.58688 0.89232 0.54335 0.0
H638 H 0.61852 0.84271 0.5004 0.0
H639 H 0.59244 0.84335 0.51722 0.0
H640 H 0.6084 0.87146 0.50289 0.0
H641 H 0.64082 0.92845 0.54648 0.0
H642 H 0.61707 0.96086 0.54184 0.0
H643 H 0.34739 0.24362 0.40442 0.0
H644 H 0.35622 0.20214 0.4131 0.0
H645 H 0.38349 0.22138 0.49162 0.0
H646 H 0.37426 0.26272 0.48332 0.0
H647 H 0.40201 0.19456 0.42499 0.0
H648 H 0.34361 0.15254 0.50427 0.0
H649 H 0.33765 0.17825 0.48286 0.0
H650 H 0.35888 0.18314 0.51009 0.0
C651 C 0.35474 0.23883 0.42376 0.0
C652 C 0.36024 0.25645 0.44316 0.0
C653 C 0.35981 0.21516 0.42865 0.0
C654 C 0.37022 0.20864 0.4531 0.0
C655 C 0.37504 0.22591 0.47281 0.0
H656 H 0.46476 0.10978 0.49195 0.0
H657 H 0.4428 0.1436 0.48701 0.0
C658 C 0.37006 0.24961 0.4679 0.0
C659 C 0.37868 0.18495 0.45683 0.0
H660 H 0.37553 0.13248 0.4965 0.0
C661 C 0.39604 0.18087 0.44045 0.0
C662 C 0.37075 0.16712 0.47693 0.0
C663 C 0.35155 0.17029 0.49444 0.0
C664 C 0.40637 0.15985 0.44427 0.0
C665 C 0.39921 0.14258 0.4651 0.0
C666 C 0.38112 0.14601 0.48078 0.0
C667 C 0.41115 0.1214 0.47122 0.0
C668 C 0.42513 0.15639 0.42624 0.0
C669 C 0.40028 0.09763 0.46472 0.0
C670 C 0.41277 0.07816 0.46757 0.0
C671 C 0.43628 0.08226 0.477 0.0
C672 C 0.44674 0.10598 0.4845 0.0
C673 C 0.43424 0.12535 0.48172 0.0
H674 H 0.42522 0.16856 0.408 0.0
H675 H 0.44245 0.16084 0.43688 0.0
H676 H 0.42272 0.13696 0.42049 0.0
H677 H 0.38242 0.09433 0.45661 0.0
H678 H 0.40416 0.06007 0.46184 0.0
H679 H 0.82261 0.34678 0.32784 0.0
H680 H 0.85536 0.36887 0.35434 0.0
H681 H 0.8071 0.39465 0.40272 0.0
H682 H 0.77419 0.37207 0.37674 0.0
H683 H 0.8666 0.41929 0.36285 0.0
H684 H 0.85031 0.3649 0.45745 0.0
H685 H 0.83677 0.35449 0.42615 0.0
H686 H 0.82552 0.37713 0.44329 0.0
C687 C 0.81893 0.35689 0.34433 0.0
C688 C 0.79573 0.35747 0.35029 0.0
C689 C 0.83769 0.36964 0.35934 0.0
C690 C 0.83369 0.38309 0.38076 0.0
C691 C 0.8106 0.38401 0.38658 0.0
H692 H 0.91551 0.47856 0.49227 0.0
H693 H 0.88566 0.45223 0.46612 0.0
C694 C 0.7918 0.37131 0.37152 0.0
C695 C 0.85371 0.39662 0.39661 0.0
H696 H 0.8786 0.40162 0.45932 0.0
C697 C 0.86936 0.41531 0.3839 0.0
C698 C 0.85731 0.39134 0.42405 0.0
C699 C 0.84173 0.37072 0.43855 0.0
C700 C 0.88806 0.42942 0.39806 0.0
C701 C 0.89145 0.42439 0.42559 0.0
C702 C 0.87601 0.40543 0.43821 0.0
C703 C 0.91006 0.43951 0.44194 0.0
C704 C 0.90352 0.45018 0.38362 0.0
C705 C 0.93383 0.44076 0.43742 0.0
C706 C 0.95107 0.4559 0.4524 0.0
C707 C 0.94482 0.46999 0.4722 0.0
C708 C 0.92101 0.46809 0.4771 0.0
C709 C 0.90387 0.45299 0.46219 0.0
H710 H 0.89558 0.45502 0.36397 0.0
H711 H 0.90713 0.46687 0.39545 0.0
H712 H 0.92045 0.44452 0.38042 0.0
H713 H 0.93903 0.43013 0.42221 0.0
H714 H 0.96923 0.45684 0.4482 0.0
H715 H 0.65825 0.77382 0.38894 0.0
H716 H 0.6379 0.8006 0.41245 0.0
H717 H 0.67626 0.86439 0.37191 0.0
H718 H 0.69623 0.83787 0.34773 0.0
H719 H 0.67123 0.86303 0.4345 0.0
H720 H 0.58993 0.8434 0.36985 0.0
H721 H 0.60406 0.81803 0.38146 0.0
H722 H 0.6182 0.84094 0.35848 0.0
C723 C 0.6623 0.79352 0.38487 0.0
C724 C 0.67889 0.80362 0.36634 0.0
C725 C 0.65077 0.80879 0.39848 0.0
C726 C 0.65564 0.83443 0.3939 0.0
C727 C 0.67241 0.84465 0.37583 0.0
H728 H 0.60356 0.95669 0.45968 0.0
H729 H 0.6282 0.93136 0.44027 0.0
C730 C 0.68386 0.82942 0.36212 0.0
C731 C 0.64248 0.85051 0.40711 0.0
H732 H 0.58958 0.86902 0.40519 0.0
C733 C 0.65337 0.8644 0.42818 0.0
C734 C 0.61926 0.85223 0.39872 0.0
C735 C 0.60705 0.838 0.37581 0.0
C736 C 0.6414 0.87968 0.44148 0.0
C737 C 0.61811 0.88149 0.433 0.0
C738 C 0.60738 0.86765 0.41175 0.0
C739 C 0.60413 0.89702 0.44608 0.0
C740 C 0.65373 0.89331 0.46473 0.0
C741 C 0.5823 0.8863 0.4555 0.0
C742 C 0.56814 0.90072 0.4662 0.0
C743 C 0.57539 0.92631 0.46771 0.0
C744 C 0.59745 0.93705 0.45876 0.0
C745 C 0.61163 0.92255 0.44785 0.0
H746 H 0.66786 0.88401 0.47388 0.0
H747 H 0.66182 0.91212 0.45775 0.0
H748 H 0.64146 0.89502 0.48017 0.0
H749 H 0.57613 0.86667 0.45446 0.0
H750 H 0.55139 0.89172 0.47318 0.0
H751 H 0.22874 0.61932 0.36873 0.0
H752 H 0.19306 0.59516 0.38631 0.0
H753 H 0.1547 0.65233 0.35845 0.0
H754 H 0.19003 0.67619 0.34003 0.0
H755 H 0.1645 0.60651 0.42372 0.0
H756 H 0.11521 0.59108 0.32725 0.0
H757 H 0.14626 0.60238 0.32979 0.0
H758 H 0.126 0.62292 0.33314 0.0
C759 C 0.21267 0.62667 0.36611 0.0
C760 C 0.21229 0.64969 0.35284 0.0
C761 C 0.19231 0.61289 0.37632 0.0
C762 C 0.17111 0.62174 0.37332 0.0
C763 C 0.17074 0.6449 0.36055 0.0
H764 H 0.04922 0.56404 0.46452 0.0
H765 H 0.08136 0.59095 0.44304 0.0
C766 C 0.19107 0.65868 0.35034 0.0
C767 C 0.14947 0.60689 0.38387 0.0
H768 H 0.09399 0.57897 0.36584 0.0
C769 C 0.14908 0.60048 0.41107 0.0
C770 C 0.12947 0.59874 0.36729 0.0
C771 C 0.12923 0.6039 0.3377 0.0
C772 C 0.12918 0.58639 0.4222 0.0
C773 C 0.10892 0.57889 0.40574 0.0
C774 C 0.1094 0.58503 0.37848 0.0
C775 C 0.08745 0.56378 0.41638 0.0
C776 C 0.13025 0.57916 0.45139 0.0
C777 C 0.07924 0.54007 0.40743 0.0
C778 C 0.06062 0.52469 0.41942 0.0
C779 C 0.04985 0.53275 0.44066 0.0
C780 C 0.05716 0.55712 0.44836 0.0
C781 C 0.0757 0.57249 0.43627 0.0
H782 H 0.14855 0.58094 0.45965 0.0
H783 H 0.12135 0.59142 0.46223 0.0
H784 H 0.1213 0.55989 0.45518 0.0
H785 H 0.08791 0.53303 0.39194 0.0
H786 H 0.05552 0.50607 0.41294 0.0
H787 H 0.35586 0.79113 0.63473 0.0
H788 H 0.37688 0.83159 0.61985 0.0
H789 H 0.43025 0.82699 0.68175 0.0
H790 H 0.40937 0.78663 0.69677 0.0
H791 H 0.39286 0.87666 0.64574 0.0
H792 H 0.46617 0.83536 0.61344 0.0
H793 H 0.43839 0.81708 0.62148 0.0
H794 H 0.45938 0.82821 0.64742 0.0
C795 C 0.37187 0.79891 0.64544 0.0
C796 C 0.38109 0.78551 0.66674 0.0
C797 C 0.3839 0.822 0.63686 0.0
C798 C 0.40534 0.83208 0.64939 0.0
C799 C 0.41398 0.81931 0.67144 0.0
H800 H 0.51395 0.95574 0.60964 0.0
H801 H 0.48861 0.92283 0.6336 0.0
C802 C 0.40204 0.79623 0.67997 0.0
C803 C 0.41924 0.85534 0.63866 0.0
H804 H 0.47106 0.87873 0.61102 0.0
C805 C 0.40996 0.87717 0.63814 0.0
C806 C 0.44151 0.85592 0.62867 0.0
C807 C 0.45192 0.83288 0.6275 0.0
C808 C 0.42257 0.89965 0.62824 0.0
C809 C 0.44485 0.90019 0.61829 0.0
C810 C 0.45408 0.87835 0.61888 0.0
C811 C 0.4587 0.92285 0.60615 0.0
C812 C 0.41209 0.92266 0.62887 0.0
C813 C 0.45014 0.93426 0.58309 0.0
C814 C 0.46457 0.95318 0.56934 0.0
C815 C 0.48796 0.96091 0.57824 0.0
C816 C 0.49607 0.9503 0.60214 0.0
C817 C 0.48162 0.93141 0.61587 0.0
H818 H 0.39841 0.92062 0.64361 0.0
H819 H 0.4257 0.93882 0.63362 0.0
H820 H 0.40383 0.92641 0.6091 0.0
H821 H 0.43268 0.92768 0.57491 0.0
H822 H 0.45771 0.96079 0.55097 0.0
H823 H 0.25005 0.37741 0.62914 0.0
H824 H 0.21398 0.38885 0.60953 0.0
H825 H 0.1744 0.32189 0.64285 0.0
H826 H 0.21063 0.3103 0.66298 0.0
H827 H 0.17956 0.35689 0.57321 0.0
H828 H 0.14312 0.38178 0.66532 0.0
H829 H 0.17405 0.38229 0.66316 0.0
H830 H 0.15439 0.35343 0.66509 0.0
C831 C 0.23368 0.36522 0.63267 0.0
C832 C 0.23322 0.34303 0.64786 0.0
C833 C 0.21309 0.37172 0.62126 0.0
C834 C 0.19155 0.35629 0.62486 0.0
C835 C 0.19087 0.33411 0.64 0.0
H836 H 0.06048 0.40448 0.56243 0.0
H837 H 0.08597 0.37655 0.58236 0.0
C838 C 0.21157 0.32748 0.65135 0.0
C839 C 0.17006 0.36362 0.61222 0.0
H840 H 0.12416 0.39131 0.62477 0.0
C841 C 0.16719 0.36401 0.58452 0.0
C842 C 0.15386 0.37268 0.62701 0.0
C843 C 0.15635 0.37268 0.65681 0.0
C844 C 0.14918 0.37431 0.57111 0.0
C845 C 0.13392 0.38491 0.5858 0.0
C846 C 0.13591 0.38318 0.61358 0.0
C847 C 0.11813 0.40078 0.57282 0.0
C848 C 0.14735 0.37434 0.54128 0.0
C849 C 0.12781 0.42357 0.56103 0.0
C850 C 0.11343 0.43954 0.54993 0.0
C851 C 0.08899 0.43305 0.55035 0.0
C852 C 0.07924 0.40998 0.56178 0.0
C853 C 0.09375 0.39404 0.57318 0.0
H854 H 0.14927 0.35603 0.5346 0.0
H855 H 0.13061 0.37892 0.53263 0.0
H856 H 0.16204 0.38784 0.53341 0.0
H857 H 0.1466 0.42918 0.56077 0.0
H858 H 0.12153 0.45706 0.5411 0.0
H859 H 0.63442 0.22581 0.67408 0.0
H860 H 0.61081 0.19316 0.64863 0.0
H861 H 0.67284 0.17863 0.61471 0.0
H862 H 0.69647 0.21193 0.6392 0.0
H863 H 0.63751 0.1789 0.57767 0.0
H864 H 0.60554 0.11976 0.66449 0.0
H865 H 0.59918 0.15033 0.66506 0.0
H866 H 0.62907 0.14573 0.66725 0.0
C867 C 0.64305 0.21588 0.66099 0.0
C868 C 0.66743 0.22147 0.65889 0.0
C869 C 0.62954 0.19694 0.64673 0.0
C870 C 0.64009 0.18301 0.6302 0.0
C871 C 0.66432 0.18891 0.62756 0.0
H872 H 0.56443 0.04542 0.56446 0.0
H873 H 0.59343 0.07551 0.58809 0.0
C874 C 0.67784 0.20788 0.64175 0.0
C875 C 0.62582 0.16263 0.61526 0.0
H876 H 0.5863 0.1093 0.62264 0.0
C877 C 0.62644 0.16359 0.58753 0.0
C878 C 0.61174 0.14234 0.6281 0.0
C879 C 0.61148 0.13928 0.65787 0.0
C880 C 0.61277 0.14534 0.57229 0.0
C881 C 0.59766 0.12582 0.58504 0.0
C882 C 0.59768 0.12437 0.61281 0.0
C883 C 0.5809 0.10745 0.56992 0.0
C884 C 0.61475 0.14713 0.54264 0.0
C885 C 0.56414 0.11533 0.552 0.0
C886 C 0.5477 0.09827 0.53846 0.0
C887 C 0.54739 0.0728 0.5427 0.0
C888 C 0.56421 0.06487 0.56065 0.0
C889 C 0.58076 0.08204 0.5742 0.0
H890 H 0.63192 0.15781 0.53702 0.0
H891 H 0.61249 0.12861 0.53439 0.0
H892 H 0.60097 0.15682 0.53338 0.0
H893 H 0.56345 0.13474 0.54882 0.0
H894 H 0.53496 0.10513 0.52494 0.0
H895 H 0.78909 0.63615 0.61881 0.0
H896 H 0.81776 0.61881 0.59606 0.0
H897 H 0.83802 0.6881 0.55293 0.0
H898 H 0.80894 0.70561 0.57521 0.0
H899 H 0.8342 0.6366 0.52461 0.0
H900 H 0.8897 0.65238 0.61754 0.0
H901 H 0.85973 0.63798 0.62113 0.0
H902 H 0.86635 0.66925 0.60835 0.0
C903 C 0.79909 0.64751 0.6039 0.0
C904 C 0.79692 0.67232 0.59898 0.0
C905 C 0.81549 0.63758 0.591 0.0
C906 C 0.82993 0.65227 0.57299 0.0
C907 C 0.82691 0.67655 0.56676 0.0
H908 H 0.96479 0.61575 0.54431 0.0
H909 H 0.93355 0.63948 0.54764 0.0
C910 C 0.81049 0.68654 0.57968 0.0
C911 C 0.85009 0.64316 0.56361 0.0
H912 H 0.90269 0.6291 0.5857 0.0
C913 C 0.84932 0.63512 0.53776 0.0
C914 C 0.86984 0.64172 0.58079 0.0
C915 C 0.87169 0.65093 0.60847 0.0
C916 C 0.86764 0.62469 0.52898 0.0
C917 C 0.88688 0.62211 0.54669 0.0
C918 C 0.88792 0.63108 0.57216 0.0
C919 C 0.90555 0.60885 0.54017 0.0
C920 C 0.86626 0.61652 0.50094 0.0
C921 C 0.90012 0.58386 0.53453 0.0
C922 C 0.91792 0.57025 0.5327 0.0
C923 C 0.94143 0.58137 0.53671 0.0
C924 C 0.94683 0.6066 0.54142 0.0
C925 C 0.92903 0.62022 0.54314 0.0
H926 H 0.85498 0.62678 0.48779 0.0
H927 H 0.88387 0.61913 0.49287 0.0
H928 H 0.85856 0.59667 0.50065 0.0
H929 H 0.88212 0.57458 0.53276 0.0
H930 H 0.91321 0.55083 0.52899 0.0
H931 H 0.40018 0.42982 0.3217 0.0
H932 H 0.41206 0.44544 0.27757 0.0
H933 H 0.35739 0.39213 0.24232 0.0
H934 H 0.34505 0.37664 0.2865 0.0
H935 H 0.42633 0.4156 0.23913 0.0
H936 H 0.35055 0.45884 0.20218 0.0
H937 H 0.35673 0.4523 0.23698 0.0
H938 H 0.34387 0.42784 0.21605 0.0
C939 C 0.39042 0.42168 0.30457 0.0
C940 C 0.37163 0.40204 0.30757 0.0
C941 C 0.39729 0.43056 0.2794 0.0
C942 C 0.38542 0.42012 0.25676 0.0
C943 C 0.36653 0.40066 0.25959 0.0
H944 H 0.41263 0.44257 0.08949 0.0
H945 H 0.39474 0.43074 0.13192 0.0
C946 C 0.35968 0.39168 0.28481 0.0
C947 C 0.3939 0.4286 0.2303 0.0
H948 H 0.37967 0.45761 0.17184 0.0
C949 C 0.41618 0.42484 0.22443 0.0
C950 C 0.38047 0.44045 0.21118 0.0
C951 C 0.35662 0.44531 0.21683 0.0
C952 C 0.4254 0.43251 0.19981 0.0
C953 C 0.41219 0.44479 0.18081 0.0
C954 C 0.38977 0.44832 0.18655 0.0
C955 C 0.42153 0.45398 0.1549 0.0
C956 C 0.44906 0.42698 0.19421 0.0
C957 C 0.44204 0.47159 0.15374 0.0
C958 C 0.45243 0.47816 0.12966 0.0
C959 C 0.44228 0.46753 0.1062 0.0
C960 C 0.42097 0.45098 0.10722 0.0
C961 C 0.41069 0.44424 0.13141 0.0
H962 H 0.454 0.41201 0.20777 0.0
H963 H 0.44941 0.42154 0.17348 0.0
H964 H 0.46246 0.44372 0.19707 0.0
H965 H 0.4504 0.47971 0.17161 0.0
H966 H 0.46874 0.49109 0.12962 0.0
H967 H 0.40331 0.67301 0.79796 0.0
H968 H 0.42455 0.65711 0.83626 0.0
H969 H 0.36595 0.59878 0.84932 0.0
H970 H 0.34459 0.6145 0.81084 0.0
H971 H 0.41558 0.64884 0.88924 0.0
H972 H 0.41886 0.56087 0.84286 0.0
H973 H 0.4098 0.58677 0.82446 0.0
H974 H 0.38991 0.56712 0.84557 0.0
C975 C 0.39476 0.65701 0.8092 0.0
C976 C 0.37227 0.64494 0.80121 0.0
C977 C 0.40699 0.64788 0.83105 0.0
C978 C 0.39704 0.62648 0.84539 0.0
C979 C 0.37422 0.61497 0.83817 0.0
H980 H 0.45867 0.53816 0.96971 0.0
H981 H 0.43065 0.55687 0.94111 0.0
C982 C 0.36201 0.624 0.8162 0.0
C983 C 0.41092 0.61591 0.8673 0.0
H984 H 0.43479 0.56512 0.88658 0.0
C985 C 0.41972 0.6305 0.88871 0.0
C986 C 0.41638 0.59199 0.86658 0.0
C987 C 0.40845 0.57582 0.84355 0.0
C988 C 0.4338 0.62183 0.90938 0.0
C989 C 0.43945 0.59804 0.90847 0.0
C990 C 0.43033 0.5833 0.88732 0.0
C991 C 0.45579 0.58843 0.92839 0.0
C992 C 0.4424 0.63814 0.93209 0.0
C993 C 0.4792 0.60013 0.93106 0.0
C994 C 0.49531 0.5895 0.94739 0.0
C995 C 0.48837 0.56684 0.96133 0.0
C996 C 0.46467 0.55566 0.9594 0.0
C997 C 0.4486 0.56628 0.94298 0.0
H998 H 0.43141 0.65242 0.93375 0.0
H999 H 0.44261 0.62717 0.95114 0.0
H1000 H 0.4605 0.64766 0.92872 0.0
H1001 H 0.48526 0.617 0.91964 0.0
H1002 H 0.51338 0.59861 0.94828 0.0
H1003 H 0.39697 0.38205 0.76562 0.0
H1004 H 0.41416 0.40298 0.80515 0.0
H1005 H 0.367 0.35283 0.85361 0.0
H1006 H 0.3497 0.33146 0.81393 0.0
H1007 H 0.38664 0.42445 0.84378 0.0
H1008 H 0.43614 0.35303 0.88754 0.0
H1009 H 0.42788 0.35468 0.85262 0.0
H1010 H 0.40611 0.34387 0.8761 0.0
C1011 C 0.39042 0.37519 0.7847 0.0
C1012 C 0.37208 0.35492 0.78663 0.0
C1013 C 0.40017 0.3873 0.80725 0.0
C1014 C 0.39195 0.37936 0.83228 0.0
C1015 C 0.3737 0.35911 0.83445 0.0
H1016 H 0.46123 0.44434 0.97861 0.0
H1017 H 0.43286 0.41807 0.94987 0.0
C1018 C 0.36377 0.34703 0.81178 0.0
C1019 C 0.40238 0.39291 0.85579 0.0
H1020 H 0.44214 0.39097 0.90792 0.0
C1021 C 0.39852 0.41703 0.85805 0.0
C1022 C 0.41766 0.38308 0.87451 0.0
C1023 C 0.42239 0.35727 0.87274 0.0
C1024 C 0.41021 0.43193 0.87796 0.0
C1025 C 0.42666 0.42267 0.89568 0.0
C1026 C 0.42959 0.39808 0.89429 0.0
C1027 C 0.44276 0.43899 0.91364 0.0
C1028 C 0.40514 0.45764 0.87949 0.0
C1029 C 0.45779 0.45932 0.90284 0.0
C1030 C 0.47388 0.47425 0.91906 0.0
C1031 C 0.47552 0.46915 0.94659 0.0
C1032 C 0.46034 0.44886 0.95752 0.0
C1033 C 0.44417 0.43381 0.94113 0.0
H1034 H 0.38722 0.45889 0.87137 0.0
H1035 H 0.40699 0.4636 0.9002 0.0
H1036 H 0.41762 0.47062 0.86748 0.0
H1037 H 0.45745 0.46338 0.88165 0.0
H1038 H 0.48531 0.48962 0.90986 0.0
H1039 H 0.69577 0.35536 0.82705 0.0
H1040 H 0.67645 0.38028 0.85414 0.0
H1041 H 0.6327 0.397 0.78633 0.0
H1042 H 0.65177 0.37185 0.75911 0.0
H1043 H 0.671 0.43255 0.8452 0.0
H1044 H 0.58703 0.36637 0.84535 0.0
H1045 H 0.6141 0.3577 0.8371 0.0
H1046 H 0.59872 0.37523 0.81347 0.0
C1047 C 0.68195 0.36423 0.81791 0.0
C1048 C 0.67517 0.36143 0.79095 0.0
C1049 C 0.67106 0.37861 0.83339 0.0
C1050 C 0.65303 0.3903 0.82231 0.0
C1051 C 0.64647 0.38795 0.79531 0.0
H1052 H 0.55517 0.47036 0.88371 0.0
H1053 H 0.57864 0.45016 0.85669 0.0
C1054 C 0.65747 0.3737 0.77975 0.0
C1055 C 0.64071 0.40447 0.83915 0.0
H1056 H 0.588 0.40405 0.86538 0.0
C1057 C 0.65287 0.42635 0.8497 0.0
C1058 C 0.61709 0.39629 0.845 0.0
C1059 C 0.60342 0.37252 0.83486 0.0
C1060 C 0.64183 0.44059 0.86546 0.0
C1061 C 0.61817 0.43238 0.87132 0.0
C1062 C 0.60613 0.41037 0.86089 0.0
C1063 C 0.60521 0.44647 0.88763 0.0
C1064 C 0.65537 0.46464 0.87502 0.0
C1065 C 0.61241 0.45142 0.91408 0.0
C1066 C 0.599 0.46318 0.92968 0.0
C1067 C 0.57799 0.46987 0.91918 0.0
C1068 C 0.57112 0.46526 0.89257 0.0
C1069 C 0.58455 0.45372 0.87702 0.0
H1070 H 0.67096 0.47135 0.86328 0.0
H1071 H 0.64424 0.47906 0.87395 0.0
H1072 H 0.66149 0.46195 0.89597 0.0
H1073 H 0.62805 0.44559 0.92289 0.0
H1074 H 0.60474 0.46641 0.9501 0.0
H1075 H 0.69616 0.60786 0.73475 0.0
H1076 H 0.67433 0.57944 0.76718 0.0
H1077 H 0.64401 0.63906 0.79357 0.0
H1078 H 0.66544 0.6673 0.7612 0.0
H1079 H 0.67617 0.57994 0.82036 0.0
H1080 H 0.58681 0.58723 0.78245 0.0
H1081 H 0.61206 0.59832 0.76333 0.0
H1082 H 0.60357 0.61722 0.78761 0.0
C1083 C 0.68472 0.61481 0.74741 0.0
C1084 C 0.68229 0.63973 0.74527 0.0
C1085 C 0.67224 0.59857 0.76583 0.0
C1086 C 0.65714 0.60701 0.78236 0.0
C1087 C 0.65495 0.63195 0.78043 0.0
H1088 H 0.61533 0.57 0.93706 0.0
H1089 H 0.63645 0.58016 0.89671 0.0
C1090 C 0.66725 0.6481 0.76196 0.0
C1091 C 0.64452 0.59032 0.80272 0.0
H1092 H 0.59106 0.57485 0.82892 0.0
C1093 C 0.65748 0.5784 0.82198 0.0
C1094 C 0.62005 0.5877 0.80445 0.0
C1095 C 0.60482 0.59808 0.78315 0.0
C1096 C 0.64684 0.56549 0.844 0.0
C1097 C 0.62281 0.56514 0.84712 0.0
C1098 C 0.60958 0.57547 0.82683 0.0
C1099 C 0.61142 0.55634 0.87214 0.0
C1100 C 0.66155 0.55269 0.86384 0.0
C1101 C 0.59012 0.5398 0.87178 0.0
C1102 C 0.57769 0.53442 0.89475 0.0
C1103 C 0.58641 0.54534 0.91857 0.0
C1104 C 0.60815 0.56118 0.91909 0.0
C1105 C 0.62041 0.5668 0.89605 0.0
H1106 H 0.67604 0.54661 0.85417 0.0
H1107 H 0.66947 0.56575 0.87906 0.0
H1108 H 0.65097 0.53641 0.87384 0.0
H1109 H 0.58277 0.53164 0.85352 0.0
H1110 H 0.56097 0.5222 0.89361 0.0
H1111 H 0.65341 0.64237 0.24955 0.0
H1112 H 0.63037 0.61641 0.21636 0.0
H1113 H 0.64488 0.67533 0.15695 0.0
H1114 H 0.6683 0.70124 0.18984 0.0
H1115 H 0.59033 0.62714 0.18474 0.0
H1116 H 0.66286 0.61522 0.12287 0.0
H1117 H 0.66779 0.62533 0.15635 0.0
H1118 H 0.66123 0.6464 0.12984 0.0
C1119 C 0.6519 0.64973 0.22937 0.0
C1120 C 0.66274 0.6739 0.22238 0.0
C1121 C 0.63863 0.63491 0.21045 0.0
C1122 C 0.63615 0.64382 0.18411 0.0
C1123 C 0.64685 0.66794 0.17707 0.0
H1124 H 0.55952 0.57512 0.0449 0.0
H1125 H 0.58515 0.60339 0.07425 0.0
C1126 C 0.66001 0.68282 0.19599 0.0
C1127 C 0.62179 0.6281 0.16422 0.0
H1128 H 0.62456 0.59853 0.1073 0.0
C1129 C 0.59781 0.62086 0.16782 0.0
C1130 C 0.63154 0.62015 0.142 0.0
C1131 C 0.65729 0.62697 0.1375 0.0
C1132 C 0.5833 0.6059 0.14983 0.0
C1133 C 0.59313 0.59739 0.12795 0.0
C1134 C 0.61705 0.60499 0.12407 0.0
C1135 C 0.57894 0.5798 0.10963 0.0
C1136 C 0.55748 0.59962 0.15427 0.0
C1137 C 0.56763 0.55683 0.11955 0.0
C1138 C 0.55299 0.54081 0.10296 0.0
C1139 C 0.54951 0.54719 0.0759 0.0
C1140 C 0.56177 0.56968 0.06563 0.0
C1141 C 0.57638 0.58586 0.08239 0.0
H1142 H 0.5518 0.61327 0.16659 0.0
H1143 H 0.54699 0.59881 0.1352 0.0
H1144 H 0.55365 0.58134 0.16488 0.0
H1145 H 0.56984 0.55143 0.1403 0.0
H1146 H 0.5441 0.52349 0.1115 0.0
H1147 H 0.37946 0.65829 0.24959 0.0
H1148 H 0.39917 0.63352 0.22277 0.0
H1149 H 0.33282 0.60041 0.18719 0.0
H1150 H 0.31283 0.62449 0.21441 0.0
H1151 H 0.38887 0.57754 0.21798 0.0
H1152 H 0.3757 0.63274 0.12457 0.0
H1153 H 0.37477 0.64484 0.15681 0.0
H1154 H 0.35083 0.62267 0.14441 0.0
C1155 C 0.36897 0.64548 0.2364 0.0
C1156 C 0.34451 0.64358 0.23409 0.0
C1157 C 0.38031 0.63144 0.22097 0.0
C1158 C 0.36746 0.61537 0.20282 0.0
C1159 C 0.34306 0.61297 0.20085 0.0
H1160 H 0.41641 0.53398 0.07978 0.0
H1161 H 0.39155 0.55177 0.10804 0.0
C1162 C 0.3317 0.62687 0.21635 0.0
C1163 C 0.37962 0.60144 0.1856 0.0
H1164 H 0.39502 0.59909 0.12191 0.0
C1165 C 0.3902 0.58217 0.19697 0.0
C1166 C 0.38104 0.60737 0.15816 0.0
C1167 C 0.37013 0.6281 0.14512 0.0
C1168 C 0.4023 0.5687 0.18159 0.0
C1169 C 0.40445 0.57518 0.15426 0.0
C1170 C 0.39341 0.59414 0.14283 0.0
C1171 C 0.41914 0.56349 0.13753 0.0
C1172 C 0.41241 0.54746 0.19475 0.0
C1173 C 0.44294 0.56439 0.1445 0.0
C1174 C 0.45709 0.5542 0.12852 0.0
C1175 C 0.44787 0.54315 0.10492 0.0
C1176 C 0.42405 0.54238 0.09779 0.0
C1177 C 0.40983 0.55251 0.11394 0.0
H1178 H 0.40286 0.53982 0.21256 0.0
H1179 H 0.41186 0.53242 0.18095 0.0
H1180 H 0.43088 0.55403 0.20125 0.0
H1181 H 0.45072 0.57335 0.16216 0.0
H1182 H 0.47538 0.55529 0.13457 0.0
H1183 H 0.6834 0.39222 0.2001 0.0
H1184 H 0.65828 0.41142 0.16784 0.0
H1185 H 0.60081 0.35254 0.18374 0.0
H1186 H 0.62573 0.33322 0.21585 0.0
H1187 H 0.63483 0.39215 0.12203 0.0
H1188 H 0.57212 0.41367 0.19161 0.0
H1189 H 0.59987 0.40547 0.20269 0.0
H1190 H 0.57554 0.38196 0.19376 0.0
C1191 C 0.6654 0.38337 0.19675 0.0
C1192 C 0.65656 0.36124 0.21072 0.0
C1193 C 0.65106 0.3944 0.17835 0.0
C1194 C 0.62758 0.38361 0.17363 0.0
C1195 C 0.61872 0.36152 0.18749 0.0
H1196 H 0.511 0.41565 0.07198 0.0
H1197 H 0.53832 0.39643 0.10099 0.0
C1198 C 0.633 0.35051 0.20591 0.0
C1199 C 0.61249 0.39499 0.15367 0.0
H1200 H 0.56156 0.4177 0.14573 0.0
C1201 C 0.61888 0.3979 0.12721 0.0
C1202 C 0.5917 0.40249 0.16046 0.0
C1203 C 0.58447 0.40098 0.18871 0.0
C1204 C 0.60471 0.4075 0.10726 0.0
C1205 C 0.58378 0.41469 0.11403 0.0
C1206 C 0.57753 0.412 0.14052 0.0
C1207 C 0.56805 0.4252 0.09409 0.0
C1208 C 0.61198 0.40928 0.07902 0.0
C1209 C 0.57576 0.4476 0.08018 0.0
C1210 C 0.5602 0.45864 0.06343 0.0
C1211 C 0.53651 0.4476 0.06045 0.0
C1212 C 0.52908 0.42472 0.07374 0.0
C1213 C 0.54466 0.4137 0.09043 0.0
H1214 H 0.62497 0.3973 0.07615 0.0
H1215 H 0.59665 0.40409 0.06511 0.0
H1216 H 0.62009 0.42856 0.07386 0.0
H1217 H 0.59362 0.45704 0.08305 0.0
H1218 H 0.56654 0.47633 0.05372 0.0
loop_
_geom_bond_atom_site_label_1
_geom_bond_atom_site_label_2
_geom_bond_distance
_geom_bond_site_symmetry_2
_ccdc_geom_bond_type
P0 O11 1.490 . S
P0 C14 1.812 . S
P0 C20 1.803 . S
P0 C26 1.819 . S
H1 C15 0.941 . S
H2 C16 0.939 . S
H3 C18 0.940 . S
H4 C19 0.940 . S
H5 C21 0.939 . S
H6 C22 0.942 . S
H7 C24 0.940 . S
H8 C25 0.939 . S
H9 C27 0.941 . S
H10 C31 0.939 . S
O11 P0 1.490 . S
H12 C28 0.939 . S
H13 C30 0.940 . S
C14 P0 1.812 . S
C14 C15 1.389 . S
C14 C19 1.391 . S
C15 H1 0.941 . S
C15 C14 1.389 . S
C15 C16 1.397 . S
C16 H2 0.939 . S
C16 C15 1.397 . S
C16 C17 1.378 . S
C17 C16 1.378 . S
C17 C18 1.378 . S
C18 H3 0.940 . S
C18 C17 1.378 . S
C18 C19 1.396 . S
C19 H4 0.940 . S
C19 C14 1.391 . S
C19 C18 1.396 . S
C20 P0 1.803 . S
C20 C21 1.378 . S
C20 C25 1.400 . S
C21 H5 0.939 . S
C21 C20 1.378 . S
C21 C22 1.361 . S
C22 H6 0.942 . S
C22 C21 1.361 . S
C22 C23 1.369 . S
C23 C22 1.369 . S
C23 C24 1.404 . S
C24 H7 0.940 . S
C24 C23 1.404 . S
C24 C25 1.389 . S
C25 H8 0.939 . S
C25 C20 1.400 . S
C25 C24 1.389 . S
C26 P0 1.819 . S
C26 C27 1.391 . S
C26 C31 1.391 . S
C27 H9 0.941 . S
C27 C26 1.391 . S
C27 C28 1.396 . S
C28 H12 0.939 . S
C28 C27 1.396 . S
C28 C29 1.397 . S
C29 C28 1.397 . S
C29 C30 1.385 . S
C30 H13 0.940 . S
C30 C29 1.385 . S
C30 C31 1.388 . S
C31 H10 0.939 . S
C31 C26 1.391 . S
C31 C30 1.388 . S
P32 O43 1.490 . S
P32 C46 1.812 . S
P32 C52 1.803 . S
P32 C58 1.819 . S
H33 C47 0.941 . S
H34 C48 0.939 . S
H35 C50 0.940 . S
H36 C51 0.940 . S
H37 C53 0.939 . S
H38 C54 0.942 . S
H39 C56 0.940 . S
H40 C57 0.939 . S
H41 C59 0.941 . S
H42 C63 0.939 . S
O43 P32 1.490 . S
H44 C60 0.939 . S
H45 C62 0.940 . S
C46 P32 1.812 . S
C46 C47 1.389 . S
C46 C51 1.391 . S
C47 H33 0.941 . S
C47 C46 1.389 . S
C47 C48 1.397 . S
C48 H34 0.939 . S
C48 C47 1.397 . S
C48 C49 1.378 . S
C49 C48 1.378 . S
C49 C50 1.378 . S
C50 H35 0.940 . S
C50 C49 1.378 . S
C50 C51 1.396 . S
C51 H36 0.940 . S
C51 C46 1.391 . S
C51 C50 1.396 . S
C52 P32 1.803 . S
C52 C53 1.378 . S
C52 C57 1.400 . S
C53 H37 0.939 . S
C53 C52 1.378 . S
C53 C54 1.361 . S
C54 H38 0.942 . S
C54 C53 1.361 . S
C54 C55 1.369 . S
C55 C54 1.369 . S
C55 C56 1.404 . S
C56 H39 0.940 . S
C56 C55 1.404 . S
C56 C57 1.389 . S
C57 H40 0.939 . S
C57 C52 1.400 . S
C57 C56 1.389 . S
C58 P32 1.819 . S
C58 C59 1.391 . S
C58 C63 1.391 . S
C59 H41 0.941 . S
C59 C58 1.391 . S
C59 C60 1.396 . S
C60 H44 0.939 . S
C60 C59 1.396 . S
C60 C61 1.397 . S
C61 C60 1.397 . S
C61 C62 1.385 . S
C62 H45 0.940 . S
C62 C61 1.385 . S
C62 C63 1.388 . S
C63 H42 0.939 . S
C63 C58 1.391 . S
C63 C62 1.388 . S
P64 O75 1.490 . S
P64 C78 1.812 . S
P64 C84 1.803 . S
P64 C90 1.819 . S
H65 C79 0.941 . S
H66 C80 0.939 . S
H67 C82 0.940 . S
H68 C83 0.940 . S
H69 C85 0.939 . S
H70 C86 0.942 . S
H71 C88 0.940 . S
H72 C89 0.939 . S
H73 C91 0.941 . S
H74 C95 0.939 . S
O75 P64 1.490 . S
H76 C92 0.939 . S
H77 C94 0.940 . S
C78 P64 1.812 . S
C78 C79 1.389 . S
C78 C83 1.391 . S
C79 H65 0.941 . S
C79 C78 1.389 . S
C79 C80 1.397 . S
C80 H66 0.939 . S
C80 C79 1.397 . S
C80 C81 1.378 . S
C81 C80 1.378 . S
C81 C82 1.378 . S
C82 H67 0.940 . S
C82 C81 1.378 . S
C82 C83 1.396 . S
C83 H68 0.940 . S
C83 C78 1.391 . S
C83 C82 1.396 . S
C84 P64 1.803 . S
C84 C85 1.378 . S
C84 C89 1.400 . S
C85 H69 0.939 . S
C85 C84 1.378 . S
C85 C86 1.361 . S
C86 H70 0.942 . S
C86 C85 1.361 . S
C86 C87 1.369 . S
C87 C86 1.369 . S
C87 C88 1.404 . S
C88 H71 0.940 . S
C88 C87 1.404 . S
C88 C89 1.389 . S
C89 H72 0.939 . S
C89 C84 1.400 . S
C89 C88 1.389 . S
C90 P64 1.819 . S
C90 C91 1.391 . S
C90 C95 1.391 . S
C91 H73 0.941 . S
C91 C90 1.391 . S
C91 C92 1.396 . S
C92 H76 0.939 . S
C92 C91 1.396 . S
C92 C93 1.397 . S
C93 C92 1.397 . S
C93 C94 1.385 . S
C94 H77 0.940 . S
C94 C93 1.385 . S
C94 C95 1.388 . S
C95 H74 0.939 . S
C95 C90 1.391 . S
C95 C94 1.388 . S
P96 O107 1.490 . S
P96 C110 1.812 . S
P96 C116 1.803 . S
P96 C122 1.819 . S
H97 C111 0.941 . S
H98 C112 0.939 . S
H99 C114 0.940 . S
H100 C115 0.940 . S
H101 C117 0.939 . S
H102 C118 0.942 . S
H103 C120 0.940 . S
H104 C121 0.939 . S
H105 C123 0.941 . S
H106 C127 0.939 . S
O107 P96 1.490 . S
H108 C124 0.939 . S
H109 C126 0.940 . S
C110 P96 1.812 . S
C110 C111 1.389 . S
C110 C115 1.391 . S
C111 H97 0.941 . S
C111 C110 1.389 . S
C111 C112 1.397 . S
C112 H98 0.939 . S
C112 C111 1.397 . S
C112 C113 1.378 . S
C113 C112 1.378 . S
C113 C114 1.378 . S
C114 H99 0.940 . S
C114 C113 1.378 . S
C114 C115 1.396 . S
C115 H100 0.940 . S
C115 C110 1.391 . S
C115 C114 1.396 . S
C116 P96 1.803 . S
C116 C117 1.378 . S
C116 C121 1.400 . S
C117 H101 0.939 . S
C117 C116 1.378 . S
C117 C118 1.361 . S
C118 H102 0.942 . S
C118 C117 1.361 . S
C118 C119 1.369 . S
C119 C118 1.369 . S
C119 C120 1.404 . S
C120 H103 0.940 . S
C120 C119 1.404 . S
C120 C121 1.389 . S
C121 H104 0.939 . S
C121 C116 1.400 . S
C121 C120 1.389 . S
C122 P96 1.819 . S
C122 C123 1.391 . S
C122 C127 1.391 . S
C123 H105 0.941 . S
C123 C122 1.391 . S
C123 C124 1.396 . S
C124 H108 0.939 . S
C124 C123 1.396 . S
C124 C125 1.397 . S
C125 C124 1.397 . S
C125 C126 1.385 . S
C126 H109 0.940 . S
C126 C125 1.385 . S
C126 C127 1.388 . S
C127 H106 0.939 . S
C127 C122 1.391 . S
C127 C126 1.388 . S
P128 O139 1.490 . S
P128 C142 1.812 . S
P128 C148 1.803 . S
P128 C154 1.819 . S
H129 C143 0.941 . S
H130 C144 0.939 . S
H131 C146 0.940 . S
H132 C147 0.940 . S
H133 C149 0.939 . S
H134 C150 0.942 . S
H135 C152 0.940 . S
H136 C153 0.939 . S
H137 C155 0.941 . S
H138 C159 0.939 . S
O139 P128 1.490 . S
H140 C156 0.939 . S
H141 C158 0.940 . S
C142 P128 1.812 . S
C142 C143 1.389 . S
C142 C147 1.391 . S
C143 H129 0.941 . S
C143 C142 1.389 . S
C143 C144 1.397 . S
C144 H130 0.939 . S
C144 C143 1.397 . S
C144 C145 1.378 . S
C145 C144 1.378 . S
C145 C146 1.378 . S
C146 H131 0.940 . S
C146 C145 1.378 . S
C146 C147 1.396 . S
C147 H132 0.940 . S
C147 C142 1.391 . S
C147 C146 1.396 . S
C148 P128 1.803 . S
C148 C149 1.378 . S
C148 C153 1.400 . S
C149 H133 0.939 . S
C149 C148 1.378 . S
C149 C150 1.361 . S
C150 H134 0.942 . S
C150 C149 1.361 . S
C150 C151 1.369 . S
C151 C150 1.369 . S
C151 C152 1.404 . S
C152 H135 0.940 . S
C152 C151 1.404 . S
C152 C153 1.389 . S
C153 H136 0.939 . S
C153 C148 1.400 . S
C153 C152 1.389 . S
C154 P128 1.819 . S
C154 C155 1.391 . S
C154 C159 1.391 . S
C155 H137 0.941 . S
C155 C154 1.391 . S
C155 C156 1.396 . S
C156 H140 0.939 . S
C156 C155 1.396 . S
C156 C157 1.397 . S
C157 C156 1.397 . S
C157 C158 1.385 . S
C158 H141 0.940 . S
C158 C157 1.385 . S
C158 C159 1.388 . S
C159 H138 0.939 . S
C159 C154 1.391 . S
C159 C158 1.388 . S
P160 O171 1.490 . S
P160 C174 1.812 . S
P160 C180 1.803 . S
P160 C186 1.819 . S
H161 C175 0.941 . S
H162 C176 0.939 . S
H163 C178 0.940 . S
H164 C179 0.940 . S
H165 C181 0.939 . S
H166 C182 0.942 . S
H167 C184 0.940 . S
H168 C185 0.939 . S
H169 C187 0.941 . S
H170 C191 0.939 . S
O171 P160 1.490 . S
H172 C188 0.939 . S
H173 C190 0.940 . S
C174 P160 1.812 . S
C174 C175 1.389 . S
C174 C179 1.391 . S
C175 H161 0.941 . S
C175 C174 1.389 . S
C175 C176 1.397 . S
C176 H162 0.939 . S
C176 C175 1.397 . S
C176 C177 1.378 . S
C177 C176 1.378 . S
C177 C178 1.378 . S
C178 H163 0.940 . S
C178 C177 1.378 . S
C178 C179 1.396 . S
C179 H164 0.940 . S
C179 C174 1.391 . S
C179 C178 1.396 . S
C180 P160 1.803 . S
C180 C181 1.378 . S
C180 C185 1.400 . S
C181 H165 0.939 . S
C181 C180 1.378 . S
C181 C182 1.361 . S
C182 H166 0.942 . S
C182 C181 1.361 . S
C182 C183 1.369 . S
C183 C182 1.369 . S
C183 C184 1.404 . S
C184 H167 0.940 . S
C184 C183 1.404 . S
C184 C185 1.389 . S
C185 H168 0.939 . S
C185 C180 1.400 . S
C185 C184 1.389 . S
C186 P160 1.819 . S
C186 C187 1.391 . S
C186 C191 1.391 . S
C187 H169 0.941 . S
C187 C186 1.391 . S
C187 C188 1.396 . S
C188 H172 0.939 . S
C188 C187 1.396 . S
C188 C189 1.397 . S
C189 C188 1.397 . S
C189 C190 1.385 . S
C190 H173 0.940 . S
C190 C189 1.385 . S
C190 C191 1.388 . S
C191 H170 0.939 . S
C191 C186 1.391 . S
C191 C190 1.388 . S
P192 O203 1.490 . S
P192 C206 1.812 . S
P192 C212 1.803 . S
P192 C218 1.819 . S
H193 C207 0.941 . S
H194 C208 0.939 . S
H195 C210 0.940 . S
H196 C211 0.940 . S
H197 C213 0.939 . S
H198 C214 0.942 . S
H199 C216 0.940 . S
H200 C217 0.939 . S
H201 C219 0.941 . S
H202 C223 0.939 . S
O203 P192 1.490 . S
H204 C220 0.939 . S
H205 C222 0.940 . S
C206 P192 1.812 . S
C206 C207 1.389 . S
C206 C211 1.391 . S
C207 H193 0.941 . S
C207 C206 1.389 . S
C207 C208 1.397 . S
C208 H194 0.939 . S
C208 C207 1.397 . S
C208 C209 1.378 . S
C209 C208 1.378 . S
C209 C210 1.378 . S
C210 H195 0.940 . S
C210 C209 1.378 . S
C210 C211 1.396 . S
C211 H196 0.940 . S
C211 C206 1.391 . S
C211 C210 1.396 . S
C212 P192 1.803 . S
C212 C213 1.378 . S
C212 C217 1.400 . S
C213 H197 0.939 . S
C213 C212 1.378 . S
C213 C214 1.361 . S
C214 H198 0.942 . S
C214 C213 1.361 . S
C214 C215 1.369 . S
C215 C214 1.369 . S
C215 C216 1.404 . S
C216 H199 0.940 . S
C216 C215 1.404 . S
C216 C217 1.389 . S
C217 H200 0.939 . S
C217 C212 1.400 . S
C217 C216 1.389 . S
C218 P192 1.819 . S
C218 C219 1.391 . S
C218 C223 1.391 . S
C219 H201 0.941 . S
C219 C218 1.391 . S
C219 C220 1.396 . S
C220 H204 0.939 . S
C220 C219 1.396 . S
C220 C221 1.397 . S
C221 C220 1.397 . S
C221 C222 1.385 . S
C222 H205 0.940 . S
C222 C221 1.385 . S
C222 C223 1.388 . S
C223 H202 0.939 . S
C223 C218 1.391 . S
C223 C222 1.388 . S
P224 O235 1.490 . S
P224 C238 1.812 . S
P224 C244 1.803 . S
P224 C250 1.819 . S
H225 C239 0.941 . S
H226 C240 0.939 . S
H227 C242 0.940 . S
H228 C243 0.940 . S
H229 C245 0.939 . S
H230 C246 0.942 . S
H231 C248 0.940 . S
H232 C249 0.939 . S
H233 C251 0.941 . S
H234 C255 0.939 . S
O235 P224 1.490 . S
H236 C252 0.939 . S
H237 C254 0.940 . S
C238 P224 1.812 . S
C238 C239 1.389 . S
C238 C243 1.391 . S
C239 H225 0.941 . S
C239 C238 1.389 . S
C239 C240 1.397 . S
C240 H226 0.939 . S
C240 C239 1.397 . S
C240 C241 1.378 . S
C241 C240 1.378 . S
C241 C242 1.378 . S
C242 H227 0.940 . S
C242 C241 1.378 . S
C242 C243 1.396 . S
C243 H228 0.940 . S
C243 C238 1.391 . S
C243 C242 1.396 . S
C244 P224 1.803 . S
C244 C245 1.378 . S
C244 C249 1.400 . S
C245 H229 0.939 . S
C245 C244 1.378 . S
C245 C246 1.361 . S
C246 H230 0.942 . S
C246 C245 1.361 . S
C246 C247 1.369 . S
C247 C246 1.369 . S
C247 C248 1.404 . S
C248 H231 0.940 . S
C248 C247 1.404 . S
C248 C249 1.389 . S
C249 H232 0.939 . S
C249 C244 1.400 . S
C249 C248 1.389 . S
C250 P224 1.819 . S
C250 C251 1.391 . S
C250 C255 1.391 . S
C251 H233 0.941 . S
C251 C250 1.391 . S
C251 C252 1.396 . S
C252 H236 0.939 . S
C252 C251 1.396 . S
C252 C253 1.397 . S
C253 C252 1.397 . S
C253 C254 1.385 . S
C254 H237 0.940 . S
C254 C253 1.385 . S
C254 C255 1.388 . S
C255 H234 0.939 . S
C255 C250 1.391 . S
C255 C254 1.388 . S
Co256 O259 2.042 . S
Co256 O266 2.264 . S
Co256 O285 2.286 . S
Co256 O286 2.069 . S
Co256 O288 2.015 . S
Co257 O259 2.122 . S
Co257 O265 2.073 . S
Co257 O266 2.327 . S
Co257 O267 1.976 . S
Co258 O259 2.087 . S
Co258 O261 2.087 1_455 S
Co258 O268 2.111 . S
Co258 O269 2.143 1_455 S
Co258 O273 2.111 1_455 S
Co258 O287 2.143 . S
O259 Co256 2.042 . S
O259 Co257 2.122 . S
O259 Co258 2.087 . S
O259 H260 0.980 . S
H260 O259 0.980 . S
O261 Co258 2.087 1_655 S
O261 Co262 2.042 . S
O261 Co263 2.122 . S
O261 H264 0.980 . S
Co262 O261 2.042 . S
Co262 O270 2.286 . S
Co262 O271 2.069 . S
Co262 O272 2.015 . S
Co262 O275 2.264 . S
Co263 O261 2.122 . S
Co263 O274 1.976 . S
Co263 O275 2.327 . S
Co263 O276 2.073 . S
H264 O261 0.980 . S
O265 Co257 2.073 . S
O265 C280 1.245 . S
O266 Co256 2.264 . S
O266 Co257 2.327 . S
O266 C280 1.257 . S
O267 Co257 1.976 . S
O267 C279 1.251 . S
O268 Co258 2.111 . S
O268 C279 1.274 . S
O269 Co258 2.143 1_655 S
O269 C282 1.246 . S
O270 Co262 2.286 . S
O270 C281 1.259 . S
O271 Co262 2.069 . S
O271 C281 1.289 . S
O272 Co262 2.015 . S
O272 C282 1.257 . S
O273 Co258 2.111 1_655 S
O273 C283 1.274 . S
O274 Co263 1.976 . S
O274 C283 1.251 . S
O275 Co262 2.264 . S
O275 Co263 2.327 . S
O275 C284 1.257 . S
O276 Co263 2.073 . S
O276 C284 1.245 . S
C277 O285 1.259 . S
C277 O286 1.289 . S
C278 O287 1.246 . S
C278 O288 1.257 . S
C279 O267 1.251 . S
C279 O268 1.274 . S
C280 O265 1.245 . S
C280 O266 1.257 . S
C281 O270 1.259 . S
C281 O271 1.289 . S
C282 O269 1.246 . S
C282 O272 1.257 . S
C283 O273 1.274 . S
C283 O274 1.251 . S
C284 O275 1.257 . S
C284 O276 1.245 . S
O285 Co256 2.286 . S
O285 C277 1.259 . S
O286 Co256 2.069 . S
O286 C277 1.289 . S
O287 Co258 2.143 . S
O287 C278 1.246 . S
O288 Co256 2.015 . S
O288 C278 1.257 . S
Co289 O292 2.042 . S
Co289 O299 2.264 . S
Co289 O318 2.286 . S
Co289 O319 2.069 . S
Co289 O321 2.015 . S
Co290 O292 2.122 . S
Co290 O298 2.073 . S
Co290 O299 2.327 . S
Co290 O300 1.976 . S
Co291 O292 2.087 1_545 S
Co291 O294 2.087 . S
Co291 O301 2.111 1_545 S
Co291 O302 2.143 . S
Co291 O306 2.111 . S
Co291 O320 2.143 1_545 S
O292 Co289 2.042 . S
O292 Co290 2.122 . S
O292 Co291 2.087 1_565 S
O292 H293 0.980 . S
H293 O292 0.980 . S
O294 Co291 2.087 . S
O294 Co295 2.042 . S
O294 Co296 2.122 . S
O294 H297 0.980 . S
Co295 O294 2.042 . S
Co295 O303 2.286 . S
Co295 O304 2.069 . S
Co295 O305 2.015 . S
Co295 O308 2.264 . S
Co296 O294 2.122 . S
Co296 O307 1.976 . S
Co296 O308 2.327 . S
Co296 O309 2.073 . S
H297 O294 0.980 . S
O298 Co290 2.073 . S
O298 C313 1.245 . S
O299 Co289 2.264 . S
O299 Co290 2.327 . S
O299 C313 1.257 . S
O300 Co290 1.976 . S
O300 C312 1.251 . S
O301 Co291 2.111 1_565 S
O301 C312 1.274 . S
O302 Co291 2.143 . S
O302 C315 1.246 . S
O303 Co295 2.286 . S
O303 C314 1.259 . S
O304 Co295 2.069 . S
O304 C314 1.289 . S
O305 Co295 2.015 . S
O305 C315 1.257 . S
O306 Co291 2.111 . S
O306 C316 1.274 . S
O307 Co296 1.976 . S
O307 C316 1.251 . S
O308 Co295 2.264 . S
O308 Co296 2.327 . S
O308 C317 1.257 . S
O309 Co296 2.073 . S
O309 C317 1.245 . S
C310 O318 1.259 . S
C310 O319 1.289 . S
C311 O320 1.246 . S
C311 O321 1.257 . S
C312 O300 1.251 . S
C312 O301 1.274 . S
C313 O298 1.245 . S
C313 O299 1.257 . S
C314 O303 1.259 . S
C314 O304 1.289 . S
C315 O302 1.246 . S
C315 O305 1.257 . S
C316 O306 1.274 . S
C316 O307 1.251 . S
C317 O308 1.257 . S
C317 O309 1.245 . S
O318 Co289 2.286 . S
O318 C310 1.259 . S
O319 Co289 2.069 . S
O319 C310 1.289 . S
O320 Co291 2.143 1_565 S
O320 C311 1.246 . S
O321 Co289 2.015 . S
O321 C311 1.257 . S
Co322 O325 2.042 . S
Co322 O332 2.264 . S
Co322 O351 2.286 . S
Co322 O352 2.069 . S
Co322 O354 2.015 . S
Co323 O325 2.122 . S
Co323 O331 2.073 . S
Co323 O332 2.327 . S
Co323 O333 1.976 . S
Co324 O325 2.087 . S
Co324 O327 2.087 1_554 S
Co324 O334 2.111 . S
Co324 O335 2.143 1_554 S
Co324 O339 2.111 1_554 S
Co324 O353 2.143 . S
O325 Co322 2.042 . S
O325 Co323 2.122 . S
O325 Co324 2.087 . S
O325 H326 0.980 . S
H326 O325 0.980 . S
O327 Co324 2.087 1_556 S
O327 Co328 2.042 . S
O327 Co329 2.122 . S
O327 H330 0.980 . S
Co328 O327 2.042 . S
Co328 O336 2.286 . S
Co328 O337 2.069 . S
Co328 O338 2.015 . S
Co328 O341 2.264 . S
Co329 O327 2.122 . S
Co329 O340 1.976 . S
Co329 O341 2.327 . S
Co329 O342 2.073 . S
H330 O327 0.980 . S
O331 Co323 2.073 . S
O331 C346 1.245 . S
O332 Co322 2.264 . S
O332 Co323 2.327 . S
O332 C346 1.257 . S
O333 Co323 1.976 . S
O333 C345 1.251 . S
O334 Co324 2.111 . S
O334 C345 1.274 . S
O335 Co324 2.143 1_556 S
O335 C348 1.246 . S
O336 Co328 2.286 . S
O336 C347 1.259 . S
O337 Co328 2.069 . S
O337 C347 1.289 . S
O338 Co328 2.015 . S
O338 C348 1.257 . S
O339 Co324 2.111 1_556 S
O339 C349 1.274 . S
O340 Co329 1.976 . S
O340 C349 1.251 . S
O341 Co328 2.264 . S
O341 Co329 2.327 . S
O341 C350 1.257 . S
O342 Co329 2.073 . S
O342 C350 1.245 . S
C343 O351 1.259 . S
C343 O352 1.289 . S
C344 O353 1.246 . S
C344 O354 1.257 . S
C345 O333 1.251 . S
C345 O334 1.274 . S
C346 O331 1.245 . S
C346 O332 1.257 . S
C347 O336 1.259 . S
C347 O337 1.289 . S
C348 O335 1.246 . S
C348 O338 1.257 . S
C349 O339 1.274 . S
C349 O340 1.251 . S
C350 O341 1.257 . S
C350 O342 1.245 . S
O351 Co322 2.286 . S
O351 C343 1.259 . S
O352 Co322 2.069 . S
O352 C343 1.289 . S
O353 Co324 2.143 . S
O353 C344 1.246 . S
O354 Co322 2.015 . S
O354 C344 1.257 . S
H355 C363 0.929 . S
H356 C365 0.930 . S
H357 C367 0.930 . S
H358 C370 0.929 . S
H359 C373 0.930 . S
H360 C375 0.960 . S
H361 C375 0.960 . S
H362 C375 0.960 . S
C363 H355 0.929 . S
C363 C364 1.377 . S
C363 C365 1.384 . S
C364 C363 1.377 . S
C364 C370 1.390 . S
C365 H356 0.930 . S
C365 C363 1.384 . S
C365 C366 1.372 . S
C366 C365 1.372 . S
C366 C367 1.400 . S
C366 C371 1.490 . S
C367 H357 0.930 . S
C367 C366 1.400 . S
C367 C370 1.386 . S
H368 C384 0.930 . S
H369 C385 0.931 . S
C370 H358 0.929 . S
C370 C364 1.390 . S
C370 C367 1.386 . S
C371 C366 1.490 . S
C371 C373 1.395 . S
C371 C374 1.403 . S
H372 C378 0.930 . S
C373 H359 0.930 . S
C373 C371 1.395 . S
C373 C376 1.403 . S
C374 C371 1.403 . S
C374 C375 1.524 . S
C374 C378 1.400 . S
C375 H360 0.960 . S
C375 H361 0.960 . S
C375 H362 0.960 . S
C375 C374 1.524 . S
C376 C373 1.403 . S
C376 C377 1.392 . S
C376 C380 1.495 . S
C377 C376 1.392 . S
C377 C378 1.385 . S
C377 C379 1.478 . S
C378 H372 0.930 . S
C378 C374 1.400 . S
C378 C377 1.385 . S
C379 C377 1.478 . S
C379 C381 1.381 . S
C379 C385 1.383 . S
C380 C376 1.495 . S
C380 H386 0.959 . S
C380 H387 0.961 . S
C380 H388 0.960 . S
C381 C379 1.381 . S
C381 C382 1.394 . S
C381 H389 0.930 . S
C382 C381 1.394 . S
C382 C383 1.383 . S
C382 H390 0.929 . S
C383 C382 1.383 . S
C383 C384 1.377 . S
C384 H368 0.930 . S
C384 C383 1.377 . S
C384 C385 1.379 . S
C385 H369 0.931 . S
C385 C379 1.383 . S
C385 C384 1.379 . S
H386 C380 0.959 . S
H387 C380 0.961 . S
H388 C380 0.960 . S
H389 C381 0.930 . S
H390 C382 0.929 . S
H391 C399 0.929 . S
H392 C401 0.930 . S
H393 C403 0.930 . S
H394 C406 0.929 . S
H395 C409 0.930 . S
H396 C411 0.960 . S
H397 C411 0.960 . S
H398 C411 0.960 . S
C399 H391 0.929 . S
C399 C400 1.377 . S
C399 C401 1.384 . S
C400 C399 1.377 . S
C400 C406 1.390 . S
C401 H392 0.930 . S
C401 C399 1.384 . S
C401 C402 1.372 . S
C402 C401 1.372 . S
C402 C403 1.400 . S
C402 C407 1.490 . S
C403 H393 0.930 . S
C403 C402 1.400 . S
C403 C406 1.386 . S
H404 C420 0.930 . S
H405 C421 0.931 . S
C406 H394 0.929 . S
C406 C400 1.390 . S
C406 C403 1.386 . S
C407 C402 1.490 . S
C407 C409 1.395 . S
C407 C410 1.403 . S
H408 C414 0.930 . S
C409 H395 0.930 . S
C409 C407 1.395 . S
C409 C412 1.403 . S
C410 C407 1.403 . S
C410 C411 1.524 . S
C410 C414 1.400 . S
C411 H396 0.960 . S
C411 H397 0.960 . S
C411 H398 0.960 . S
C411 C410 1.524 . S
C412 C409 1.403 . S
C412 C413 1.392 . S
C412 C416 1.495 . S
C413 C412 1.392 . S
C413 C414 1.385 . S
C413 C415 1.478 . S
C414 H408 0.930 . S
C414 C410 1.400 . S
C414 C413 1.385 . S
C415 C413 1.478 . S
C415 C417 1.381 . S
C415 C421 1.383 . S
C416 C412 1.495 . S
C416 H422 0.959 . S
C416 H423 0.961 . S
C416 H424 0.960 . S
C417 C415 1.381 . S
C417 C418 1.394 . S
C417 H425 0.930 . S
C418 C417 1.394 . S
C418 C419 1.383 . S
C418 H426 0.929 . S
C419 C418 1.383 . S
C419 C420 1.377 . S
C420 H404 0.930 . S
C420 C419 1.377 . S
C420 C421 1.379 . S
C421 H405 0.931 . S
C421 C415 1.383 . S
C421 C420 1.379 . S
H422 C416 0.959 . S
H423 C416 0.961 . S
H424 C416 0.960 . S
H425 C417 0.930 . S
H426 C418 0.929 . S
H427 C435 0.929 . S
H428 C437 0.930 . S
H429 C439 0.930 . S
H430 C442 0.929 . S
H431 C445 0.930 . S
H432 C447 0.960 . S
H433 C447 0.960 . S
H434 C447 0.960 . S
C435 H427 0.929 . S
C435 C436 1.377 . S
C435 C437 1.384 . S
C436 C435 1.377 . S
C436 C442 1.390 . S
C437 H428 0.930 . S
C437 C435 1.384 . S
C437 C438 1.372 . S
C438 C437 1.372 . S
C438 C439 1.400 . S
C438 C443 1.490 . S
C439 H429 0.930 . S
C439 C438 1.400 . S
C439 C442 1.386 . S
H440 C456 0.930 . S
H441 C457 0.931 . S
C442 H430 0.929 . S
C442 C436 1.390 . S
C442 C439 1.386 . S
C443 C438 1.490 . S
C443 C445 1.395 . S
C443 C446 1.403 . S
H444 C450 0.930 . S
C445 H431 0.930 . S
C445 C443 1.395 . S
C445 C448 1.403 . S
C446 C443 1.403 . S
C446 C447 1.524 . S
C446 C450 1.400 . S
C447 H432 0.960 . S
C447 H433 0.960 . S
C447 H434 0.960 . S
C447 C446 1.524 . S
C448 C445 1.403 . S
C448 C449 1.392 . S
C448 C452 1.495 . S
C449 C448 1.392 . S
C449 C450 1.385 . S
C449 C451 1.478 . S
C450 H444 0.930 . S
C450 C446 1.400 . S
C450 C449 1.385 . S
C451 C449 1.478 . S
C451 C453 1.381 . S
C451 C457 1.383 . S
C452 C448 1.495 . S
C452 H458 0.959 . S
C452 H459 0.961 . S
C452 H460 0.960 . S
C453 C451 1.381 . S
C453 C454 1.394 . S
C453 H461 0.930 . S
C454 C453 1.394 . S
C454 C455 1.383 . S
C454 H462 0.929 . S
C455 C454 1.383 . S
C455 C456 1.377 . S
C456 H440 0.930 . S
C456 C455 1.377 . S
C456 C457 1.379 . S
C457 H441 0.931 . S
C457 C451 1.383 . S
C457 C456 1.379 . S
H458 C452 0.959 . S
H459 C452 0.961 . S
H460 C452 0.960 . S
H461 C453 0.930 . S
H462 C454 0.929 . S
H463 C471 0.929 . S
H464 C473 0.930 . S
H465 C475 0.930 . S
H466 C478 0.929 . S
H467 C481 0.930 . S
H468 C483 0.960 . S
H469 C483 0.960 . S
H470 C483 0.960 . S
C471 H463 0.929 . S
C471 C472 1.377 . S
C471 C473 1.384 . S
C472 C471 1.377 . S
C472 C478 1.390 . S
C473 H464 0.930 . S
C473 C471 1.384 . S
C473 C474 1.372 . S
C474 C473 1.372 . S
C474 C475 1.400 . S
C474 C479 1.490 . S
C475 H465 0.930 . S
C475 C474 1.400 . S
C475 C478 1.386 . S
H476 C492 0.930 . S
H477 C493 0.931 . S
C478 H466 0.929 . S
C478 C472 1.390 . S
C478 C475 1.386 . S
C479 C474 1.490 . S
C479 C481 1.395 . S
C479 C482 1.403 . S
H480 C486 0.930 . S
C481 H467 0.930 . S
C481 C479 1.395 . S
C481 C484 1.403 . S
C482 C479 1.403 . S
C482 C483 1.524 . S
C482 C486 1.400 . S
C483 H468 0.960 . S
C483 H469 0.960 . S
C483 H470 0.960 . S
C483 C482 1.524 . S
C484 C481 1.403 . S
C484 C485 1.392 . S
C484 C488 1.495 . S
C485 C484 1.392 . S
C485 C486 1.385 . S
C485 C487 1.478 . S
C486 H480 0.930 . S
C486 C482 1.400 . S
C486 C485 1.385 . S
C487 C485 1.478 . S
C487 C489 1.381 . S
C487 C493 1.383 . S
C488 C484 1.495 . S
C488 H494 0.959 . S
C488 H495 0.961 . S
C488 H496 0.960 . S
C489 C487 1.381 . S
C489 C490 1.394 . S
C489 H497 0.930 . S
C490 C489 1.394 . S
C490 C491 1.383 . S
C490 H498 0.929 . S
C491 C490 1.383 . S
C491 C492 1.377 . S
C492 H476 0.930 . S
C492 C491 1.377 . S
C492 C493 1.379 . S
C493 H477 0.931 . S
C493 C487 1.383 . S
C493 C492 1.379 . S
H494 C488 0.959 . S
H495 C488 0.961 . S
H496 C488 0.960 . S
H497 C489 0.930 . S
H498 C490 0.929 . S
H499 C507 0.929 . S
H500 C509 0.930 . S
H501 C511 0.930 . S
H502 C514 0.929 . S
H503 C517 0.930 . S
H504 C519 0.960 . S
H505 C519 0.960 . S
H506 C519 0.960 . S
C507 H499 0.929 . S
C507 C508 1.377 . S
C507 C509 1.384 . S
C508 C507 1.377 . S
C508 C514 1.390 . S
C509 H500 0.930 . S
C509 C507 1.384 . S
C509 C510 1.372 . S
C510 C509 1.372 . S
C510 C511 1.400 . S
C510 C515 1.490 . S
C511 H501 0.930 . S
C511 C510 1.400 . S
C511 C514 1.386 . S
H512 C528 0.930 . S
H513 C529 0.931 . S
C514 H502 0.929 . S
C514 C508 1.390 . S
C514 C511 1.386 . S
C515 C510 1.490 . S
C515 C517 1.395 . S
C515 C518 1.403 . S
H516 C522 0.930 . S
C517 H503 0.930 . S
C517 C515 1.395 . S
C517 C520 1.403 . S
C518 C515 1.403 . S
C518 C519 1.524 . S
C518 C522 1.400 . S
C519 H504 0.960 . S
C519 H505 0.960 . S
C519 H506 0.960 . S
C519 C518 1.524 . S
C520 C517 1.403 . S
C520 C521 1.392 . S
C520 C524 1.495 . S
C521 C520 1.392 . S
C521 C522 1.385 . S
C521 C523 1.478 . S
C522 H516 0.930 . S
C522 C518 1.400 . S
C522 C521 1.385 . S
C523 C521 1.478 . S
C523 C525 1.381 . S
C523 C529 1.383 . S
C524 C520 1.495 . S
C524 H530 0.959 . S
C524 H531 0.961 . S
C524 H532 0.960 . S
C525 C523 1.381 . S
C525 C526 1.394 . S
C525 H533 0.930 . S
C526 C525 1.394 . S
C526 C527 1.383 . S
C526 H534 0.929 . S
C527 C526 1.383 . S
C527 C528 1.377 . S
C528 H512 0.930 . S
C528 C527 1.377 . S
C528 C529 1.379 . S
C529 H513 0.931 . S
C529 C523 1.383 . S
C529 C528 1.379 . S
H530 C524 0.959 . S
H531 C524 0.961 . S
H532 C524 0.960 . S
H533 C525 0.930 . S
H534 C526 0.929 . S
H535 C543 0.929 . S
H536 C545 0.930 . S
H537 C547 0.930 . S
H538 C550 0.929 . S
H539 C553 0.930 . S
H540 C555 0.960 . S
H541 C555 0.960 . S
H542 C555 0.960 . S
C543 H535 0.929 . S
C543 C544 1.377 . S
C543 C545 1.384 . S
C544 C543 1.377 . S
C544 C550 1.390 . S
C545 H536 0.930 . S
C545 C543 1.384 . S
C545 C546 1.372 . S
C546 C545 1.372 . S
C546 C547 1.400 . S
C546 C551 1.490 . S
C547 H537 0.930 . S
C547 C546 1.400 . S
C547 C550 1.386 . S
H548 C564 0.930 . S
H549 C565 0.931 . S
C550 H538 0.929 . S
C550 C544 1.390 . S
C550 C547 1.386 . S
C551 C546 1.490 . S
C551 C553 1.395 . S
C551 C554 1.403 . S
H552 C558 0.930 . S
C553 H539 0.930 . S
C553 C551 1.395 . S
C553 C556 1.403 . S
C554 C551 1.403 . S
C554 C555 1.524 . S
C554 C558 1.400 . S
C555 H540 0.960 . S
C555 H541 0.960 . S
C555 H542 0.960 . S
C555 C554 1.524 . S
C556 C553 1.403 . S
C556 C557 1.392 . S
C556 C560 1.495 . S
C557 C556 1.392 . S
C557 C558 1.385 . S
C557 C559 1.478 . S
C558 H552 0.930 . S
C558 C554 1.400 . S
C558 C557 1.385 . S
C559 C557 1.478 . S
C559 C561 1.381 . S
C559 C565 1.383 . S
C560 C556 1.495 . S
C560 H566 0.959 . S
C560 H567 0.961 . S
C560 H568 0.960 . S
C561 C559 1.381 . S
C561 C562 1.394 . S
C561 H569 0.930 . S
C562 C561 1.394 . S
C562 C563 1.383 . S
C562 H570 0.929 . S
C563 C562 1.383 . S
C563 C564 1.377 . S
C564 H548 0.930 . S
C564 C563 1.377 . S
C564 C565 1.379 . S
C565 H549 0.931 . S
C565 C559 1.383 . S
C565 C564 1.379 . S
H566 C560 0.959 . S
H567 C560 0.961 . S
H568 C560 0.960 . S
H569 C561 0.930 . S
H570 C562 0.929 . S
H571 C579 0.929 . S
H572 C581 0.930 . S
H573 C583 0.930 . S
H574 C586 0.929 . S
H575 C589 0.930 . S
H576 C591 0.960 . S
H577 C591 0.960 . S
H578 C591 0.960 . S
C579 H571 0.929 . S
C579 C580 1.377 . S
C579 C581 1.384 . S
C580 C579 1.377 . S
C580 C586 1.390 . S
C581 H572 0.930 . S
C581 C579 1.384 . S
C581 C582 1.372 . S
C582 C581 1.372 . S
C582 C583 1.400 . S
C582 C587 1.490 . S
C583 H573 0.930 . S
C583 C582 1.400 . S
C583 C586 1.386 . S
H584 C600 0.930 . S
H585 C601 0.931 . S
C586 H574 0.929 . S
C586 C580 1.390 . S
C586 C583 1.386 . S
C587 C582 1.490 . S
C587 C589 1.395 . S
C587 C590 1.403 . S
H588 C594 0.930 . S
C589 H575 0.930 . S
C589 C587 1.395 . S
C589 C592 1.403 . S
C590 C587 1.403 . S
C590 C591 1.524 . S
C590 C594 1.400 . S
C591 H576 0.960 . S
C591 H577 0.960 . S
C591 H578 0.960 . S
C591 C590 1.524 . S
C592 C589 1.403 . S
C592 C593 1.392 . S
C592 C596 1.495 . S
C593 C592 1.392 . S
C593 C594 1.385 . S
C593 C595 1.478 . S
C594 H588 0.930 . S
C594 C590 1.400 . S
C594 C593 1.385 . S
C595 C593 1.478 . S
C595 C597 1.381 . S
C595 C601 1.383 . S
C596 C592 1.495 . S
C596 H602 0.959 . S
C596 H603 0.961 . S
C596 H604 0.960 . S
C597 C595 1.381 . S
C597 C598 1.394 . S
C597 H605 0.930 . S
C598 C597 1.394 . S
C598 C599 1.383 . S
C598 H606 0.929 . S
C599 C598 1.383 . S
C599 C600 1.377 . S
C600 H584 0.930 . S
C600 C599 1.377 . S
C600 C601 1.379 . S
C601 H585 0.931 . S
C601 C595 1.383 . S
C601 C600 1.379 . S
H602 C596 0.959 . S
H603 C596 0.961 . S
H604 C596 0.960 . S
H605 C597 0.930 . S
H606 C598 0.929 . S
H607 C615 0.929 . S
H608 C617 0.930 . S
H609 C619 0.930 . S
H610 C622 0.929 . S
H611 C625 0.930 . S
H612 C627 0.960 . S
H613 C627 0.960 . S
H614 C627 0.960 . S
C615 H607 0.929 . S
C615 C616 1.377 . S
C615 C617 1.384 . S
C616 C615 1.377 . S
C616 C622 1.390 . S
C617 H608 0.930 . S
C617 C615 1.384 . S
C617 C618 1.372 . S
C618 C617 1.372 . S
C618 C619 1.400 . S
C618 C623 1.490 . S
C619 H609 0.930 . S
C619 C618 1.400 . S
C619 C622 1.386 . S
H620 C636 0.930 . S
H621 C637 0.931 . S
C622 H610 0.929 . S
C622 C616 1.390 . S
C622 C619 1.386 . S
C623 C618 1.490 . S
C623 C625 1.395 . S
C623 C626 1.403 . S
H624 C630 0.930 . S
C625 H611 0.930 . S
C625 C623 1.395 . S
C625 C628 1.403 . S
C626 C623 1.403 . S
C626 C627 1.524 . S
C626 C630 1.400 . S
C627 H612 0.960 . S
C627 H613 0.960 . S
C627 H614 0.960 . S
C627 C626 1.524 . S
C628 C625 1.403 . S
C628 C629 1.392 . S
C628 C632 1.495 . S
C629 C628 1.392 . S
C629 C630 1.385 . S
C629 C631 1.478 . S
C630 H624 0.930 . S
C630 C626 1.400 . S
C630 C629 1.385 . S
C631 C629 1.478 . S
C631 C633 1.381 . S
C631 C637 1.383 . S
C632 C628 1.495 . S
C632 H638 0.959 . S
C632 H639 0.961 . S
C632 H640 0.960 . S
C633 C631 1.381 . S
C633 C634 1.394 . S
C633 H641 0.930 . S
C634 C633 1.394 . S
C634 C635 1.383 . S
C634 H642 0.929 . S
C635 C634 1.383 . S
C635 C636 1.377 . S
C636 H620 0.930 . S
C636 C635 1.377 . S
C636 C637 1.379 . S
C637 H621 0.931 . S
C637 C631 1.383 . S
C637 C636 1.379 . S
H638 C632 0.959 . S
H639 C632 0.961 . S
H640 C632 0.960 . S
H641 C633 0.930 . S
H642 C634 0.929 . S
H643 C651 0.929 . S
H644 C653 0.930 . S
H645 C655 0.930 . S
H646 C658 0.929 . S
H647 C661 0.930 . S
H648 C663 0.960 . S
H649 C663 0.960 . S
H650 C663 0.960 . S
C651 H643 0.929 . S
C651 C652 1.377 . S
C651 C653 1.384 . S
C652 C651 1.377 . S
C652 C658 1.390 . S
C653 H644 0.930 . S
C653 C651 1.384 . S
C653 C654 1.372 . S
C654 C653 1.372 . S
C654 C655 1.400 . S
C654 C659 1.490 . S
C655 H645 0.930 . S
C655 C654 1.400 . S
C655 C658 1.386 . S
H656 C672 0.930 . S
H657 C673 0.931 . S
C658 H646 0.929 . S
C658 C652 1.390 . S
C658 C655 1.386 . S
C659 C654 1.490 . S
C659 C661 1.395 . S
C659 C662 1.403 . S
H660 C666 0.930 . S
C661 H647 0.930 . S
C661 C659 1.395 . S
C661 C664 1.403 . S
C662 C659 1.403 . S
C662 C663 1.524 . S
C662 C666 1.400 . S
C663 H648 0.960 . S
C663 H649 0.960 . S
C663 H650 0.960 . S
C663 C662 1.524 . S
C664 C661 1.403 . S
C664 C665 1.392 . S
C664 C668 1.495 . S
C665 C664 1.392 . S
C665 C666 1.385 . S
C665 C667 1.478 . S
C666 H660 0.930 . S
C666 C662 1.400 . S
C666 C665 1.385 . S
C667 C665 1.478 . S
C667 C669 1.381 . S
C667 C673 1.383 . S
C668 C664 1.495 . S
C668 H674 0.959 . S
C668 H675 0.961 . S
C668 H676 0.960 . S
C669 C667 1.381 . S
C669 C670 1.394 . S
C669 H677 0.930 . S
C670 C669 1.394 . S
C670 C671 1.383 . S
C670 H678 0.929 . S
C671 C670 1.383 . S
C671 C672 1.377 . S
C672 H656 0.930 . S
C672 C671 1.377 . S
C672 C673 1.379 . S
C673 H657 0.931 . S
C673 C667 1.383 . S
C673 C672 1.379 . S
H674 C668 0.959 . S
H675 C668 0.961 . S
H676 C668 0.960 . S
H677 C669 0.930 . S
H678 C670 0.929 . S
H679 C687 0.929 . S
H680 C689 0.930 . S
H681 C691 0.930 . S
H682 C694 0.929 . S
H683 C697 0.930 . S
H684 C699 0.960 . S
H685 C699 0.960 . S
H686 C699 0.960 . S
C687 H679 0.929 . S
C687 C688 1.377 . S
C687 C689 1.384 . S
C688 C687 1.377 . S
C688 C694 1.390 . S
C689 H680 0.930 . S
C689 C687 1.384 . S
C689 C690 1.372 . S
C690 C689 1.372 . S
C690 C691 1.400 . S
C690 C695 1.490 . S
C691 H681 0.930 . S
C691 C690 1.400 . S
C691 C694 1.386 . S
H692 C708 0.930 . S
H693 C709 0.931 . S
C694 H682 0.929 . S
C694 C688 1.390 . S
C694 C691 1.386 . S
C695 C690 1.490 . S
C695 C697 1.395 . S
C695 C698 1.403 . S
H696 C702 0.930 . S
C697 H683 0.930 . S
C697 C695 1.395 . S
C697 C700 1.403 . S
C698 C695 1.403 . S
C698 C699 1.524 . S
C698 C702 1.400 . S
C699 H684 0.960 . S
C699 H685 0.960 . S
C699 H686 0.960 . S
C699 C698 1.524 . S
C700 C697 1.403 . S
C700 C701 1.392 . S
C700 C704 1.495 . S
C701 C700 1.392 . S
C701 C702 1.385 . S
C701 C703 1.478 . S
C702 H696 0.930 . S
C702 C698 1.400 . S
C702 C701 1.385 . S
C703 C701 1.478 . S
C703 C705 1.381 . S
C703 C709 1.383 . S
C704 C700 1.495 . S
C704 H710 0.959 . S
C704 H711 0.961 . S
C704 H712 0.960 . S
C705 C703 1.381 . S
C705 C706 1.394 . S
C705 H713 0.930 . S
C706 C705 1.394 . S
C706 C707 1.383 . S
C706 H714 0.929 . S
C707 C706 1.383 . S
C707 C708 1.377 . S
C708 H692 0.930 . S
C708 C707 1.377 . S
C708 C709 1.379 . S
C709 H693 0.931 . S
C709 C703 1.383 . S
C709 C708 1.379 . S
H710 C704 0.959 . S
H711 C704 0.961 . S
H712 C704 0.960 . S
H713 C705 0.930 . S
H714 C706 0.929 . S
H715 C723 0.929 . S
H716 C725 0.930 . S
H717 C727 0.930 . S
H718 C730 0.929 . S
H719 C733 0.930 . S
H720 C735 0.960 . S
H721 C735 0.960 . S
H722 C735 0.960 . S
C723 H715 0.929 . S
C723 C724 1.377 . S
C723 C725 1.384 . S
C724 C723 1.377 . S
C724 C730 1.390 . S
C725 H716 0.930 . S
C725 C723 1.384 . S
C725 C726 1.372 . S
C726 C725 1.372 . S
C726 C727 1.400 . S
C726 C731 1.490 . S
C727 H717 0.930 . S
C727 C726 1.400 . S
C727 C730 1.386 . S
H728 C744 0.930 . S
H729 C745 0.931 . S
C730 H718 0.929 . S
C730 C724 1.390 . S
C730 C727 1.386 . S
C731 C726 1.490 . S
C731 C733 1.395 . S
C731 C734 1.403 . S
H732 C738 0.930 . S
C733 H719 0.930 . S
C733 C731 1.395 . S
C733 C736 1.403 . S
C734 C731 1.403 . S
C734 C735 1.524 . S
C734 C738 1.400 . S
C735 H720 0.960 . S
C735 H721 0.960 . S
C735 H722 0.960 . S
C735 C734 1.524 . S
C736 C733 1.403 . S
C736 C737 1.392 . S
C736 C740 1.495 . S
C737 C736 1.392 . S
C737 C738 1.385 . S
C737 C739 1.478 . S
C738 H732 0.930 . S
C738 C734 1.400 . S
C738 C737 1.385 . S
C739 C737 1.478 . S
C739 C741 1.381 . S
C739 C745 1.383 . S
C740 C736 1.495 . S
C740 H746 0.959 . S
C740 H747 0.961 . S
C740 H748 0.960 . S
C741 C739 1.381 . S
C741 C742 1.394 . S
C741 H749 0.930 . S
C742 C741 1.394 . S
C742 C743 1.383 . S
C742 H750 0.929 . S
C743 C742 1.383 . S
C743 C744 1.377 . S
C744 H728 0.930 . S
C744 C743 1.377 . S
C744 C745 1.379 . S
C745 H729 0.931 . S
C745 C739 1.383 . S
C745 C744 1.379 . S
H746 C740 0.959 . S
H747 C740 0.961 . S
H748 C740 0.960 . S
H749 C741 0.930 . S
H750 C742 0.929 . S
H751 C759 0.929 . S
H752 C761 0.930 . S
H753 C763 0.930 . S
H754 C766 0.929 . S
H755 C769 0.930 . S
H756 C771 0.960 . S
H757 C771 0.960 . S
H758 C771 0.960 . S
C759 H751 0.929 . S
C759 C760 1.377 . S
C759 C761 1.384 . S
C760 C759 1.377 . S
C760 C766 1.390 . S
C761 H752 0.930 . S
C761 C759 1.384 . S
C761 C762 1.372 . S
C762 C761 1.372 . S
C762 C763 1.400 . S
C762 C767 1.490 . S
C763 H753 0.930 . S
C763 C762 1.400 . S
C763 C766 1.386 . S
H764 C780 0.930 . S
H765 C781 0.931 . S
C766 H754 0.929 . S
C766 C760 1.390 . S
C766 C763 1.386 . S
C767 C762 1.490 . S
C767 C769 1.395 . S
C767 C770 1.403 . S
H768 C774 0.930 . S
C769 H755 0.930 . S
C769 C767 1.395 . S
C769 C772 1.403 . S
C770 C767 1.403 . S
C770 C771 1.524 . S
C770 C774 1.400 . S
C771 H756 0.960 . S
C771 H757 0.960 . S
C771 H758 0.960 . S
C771 C770 1.524 . S
C772 C769 1.403 . S
C772 C773 1.392 . S
C772 C776 1.495 . S
C773 C772 1.392 . S
C773 C774 1.385 . S
C773 C775 1.478 . S
C774 H768 0.930 . S
C774 C770 1.400 . S
C774 C773 1.385 . S
C775 C773 1.478 . S
C775 C777 1.381 . S
C775 C781 1.383 . S
C776 C772 1.495 . S
C776 H782 0.959 . S
C776 H783 0.961 . S
C776 H784 0.960 . S
C777 C775 1.381 . S
C777 C778 1.394 . S
C777 H785 0.930 . S
C778 C777 1.394 . S
C778 C779 1.383 . S
C778 H786 0.929 . S
C779 C778 1.383 . S
C779 C780 1.377 . S
C780 H764 0.930 . S
C780 C779 1.377 . S
C780 C781 1.379 . S
C781 H765 0.931 . S
C781 C775 1.383 . S
C781 C780 1.379 . S
H782 C776 0.959 . S
H783 C776 0.961 . S
H784 C776 0.960 . S
H785 C777 0.930 . S
H786 C778 0.929 . S
H787 C795 0.929 . S
H788 C797 0.930 . S
H789 C799 0.930 . S
H790 C802 0.929 . S
H791 C805 0.930 . S
H792 C807 0.960 . S
H793 C807 0.960 . S
H794 C807 0.960 . S
C795 H787 0.929 . S
C795 C796 1.377 . S
C795 C797 1.384 . S
C796 C795 1.377 . S
C796 C802 1.390 . S
C797 H788 0.930 . S
C797 C795 1.384 . S
C797 C798 1.372 . S
C798 C797 1.372 . S
C798 C799 1.400 . S
C798 C803 1.490 . S
C799 H789 0.930 . S
C799 C798 1.400 . S
C799 C802 1.386 . S
H800 C816 0.930 . S
H801 C817 0.931 . S
C802 H790 0.929 . S
C802 C796 1.390 . S
C802 C799 1.386 . S
C803 C798 1.490 . S
C803 C805 1.395 . S
C803 C806 1.403 . S
H804 C810 0.930 . S
C805 H791 0.930 . S
C805 C803 1.395 . S
C805 C808 1.403 . S
C806 C803 1.403 . S
C806 C807 1.524 . S
C806 C810 1.400 . S
C807 H792 0.960 . S
C807 H793 0.960 . S
C807 H794 0.960 . S
C807 C806 1.524 . S
C808 C805 1.403 . S
C808 C809 1.392 . S
C808 C812 1.495 . S
C809 C808 1.392 . S
C809 C810 1.385 . S
C809 C811 1.478 . S
C810 H804 0.930 . S
C810 C806 1.400 . S
C810 C809 1.385 . S
C811 C809 1.478 . S
C811 C813 1.381 . S
C811 C817 1.383 . S
C812 C808 1.495 . S
C812 H818 0.959 . S
C812 H819 0.961 . S
C812 H820 0.960 . S
C813 C811 1.381 . S
C813 C814 1.394 . S
C813 H821 0.930 . S
C814 C813 1.394 . S
C814 C815 1.383 . S
C814 H822 0.929 . S
C815 C814 1.383 . S
C815 C816 1.377 . S
C816 H800 0.930 . S
C816 C815 1.377 . S
C816 C817 1.379 . S
C817 H801 0.931 . S
C817 C811 1.383 . S
C817 C816 1.379 . S
H818 C812 0.959 . S
H819 C812 0.961 . S
H820 C812 0.960 . S
H821 C813 0.930 . S
H822 C814 0.929 . S
H823 C831 0.929 . S
H824 C833 0.930 . S
H825 C835 0.930 . S
H826 C838 0.929 . S
H827 C841 0.930 . S
H828 C843 0.960 . S
H829 C843 0.960 . S
H830 C843 0.960 . S
C831 H823 0.929 . S
C831 C832 1.377 . S
C831 C833 1.384 . S
C832 C831 1.377 . S
C832 C838 1.390 . S
C833 H824 0.930 . S
C833 C831 1.384 . S
C833 C834 1.372 . S
C834 C833 1.372 . S
C834 C835 1.400 . S
C834 C839 1.490 . S
C835 H825 0.930 . S
C835 C834 1.400 . S
C835 C838 1.386 . S
H836 C852 0.930 . S
H837 C853 0.931 . S
C838 H826 0.929 . S
C838 C832 1.390 . S
C838 C835 1.386 . S
C839 C834 1.490 . S
C839 C841 1.395 . S
C839 C842 1.403 . S
H840 C846 0.930 . S
C841 H827 0.930 . S
C841 C839 1.395 . S
C841 C844 1.403 . S
C842 C839 1.403 . S
C842 C843 1.524 . S
C842 C846 1.400 . S
C843 H828 0.960 . S
C843 H829 0.960 . S
C843 H830 0.960 . S
C843 C842 1.524 . S
C844 C841 1.403 . S
C844 C845 1.392 . S
C844 C848 1.495 . S
C845 C844 1.392 . S
C845 C846 1.385 . S
C845 C847 1.478 . S
C846 H840 0.930 . S
C846 C842 1.400 . S
C846 C845 1.385 . S
C847 C845 1.478 . S
C847 C849 1.381 . S
C847 C853 1.383 . S
C848 C844 1.495 . S
C848 H854 0.959 . S
C848 H855 0.961 . S
C848 H856 0.960 . S
C849 C847 1.381 . S
C849 C850 1.394 . S
C849 H857 0.930 . S
C850 C849 1.394 . S
C850 C851 1.383 . S
C850 H858 0.929 . S
C851 C850 1.383 . S
C851 C852 1.377 . S
C852 H836 0.930 . S
C852 C851 1.377 . S
C852 C853 1.379 . S
C853 H837 0.931 . S
C853 C847 1.383 . S
C853 C852 1.379 . S
H854 C848 0.959 . S
H855 C848 0.961 . S
H856 C848 0.960 . S
H857 C849 0.930 . S
H858 C850 0.929 . S
H859 C867 0.929 . S
H860 C869 0.930 . S
H861 C871 0.930 . S
H862 C874 0.929 . S
H863 C877 0.930 . S
H864 C879 0.960 . S
H865 C879 0.960 . S
H866 C879 0.960 . S
C867 H859 0.929 . S
C867 C868 1.377 . S
C867 C869 1.384 . S
C868 C867 1.377 . S
C868 C874 1.390 . S
C869 H860 0.930 . S
C869 C867 1.384 . S
C869 C870 1.372 . S
C870 C869 1.372 . S
C870 C871 1.400 . S
C870 C875 1.490 . S
C871 H861 0.930 . S
C871 C870 1.400 . S
C871 C874 1.386 . S
H872 C888 0.930 . S
H873 C889 0.931 . S
C874 H862 0.929 . S
C874 C868 1.390 . S
C874 C871 1.386 . S
C875 C870 1.490 . S
C875 C877 1.395 . S
C875 C878 1.403 . S
H876 C882 0.930 . S
C877 H863 0.930 . S
C877 C875 1.395 . S
C877 C880 1.403 . S
C878 C875 1.403 . S
C878 C879 1.524 . S
C878 C882 1.400 . S
C879 H864 0.960 . S
C879 H865 0.960 . S
C879 H866 0.960 . S
C879 C878 1.524 . S
C880 C877 1.403 . S
C880 C881 1.392 . S
C880 C884 1.495 . S
C881 C880 1.392 . S
C881 C882 1.385 . S
C881 C883 1.478 . S
C882 H876 0.930 . S
C882 C878 1.400 . S
C882 C881 1.385 . S
C883 C881 1.478 . S
C883 C885 1.381 . S
C883 C889 1.383 . S
C884 C880 1.495 . S
C884 H890 0.959 . S
C884 H891 0.961 . S
C884 H892 0.960 . S
C885 C883 1.381 . S
C885 C886 1.394 . S
C885 H893 0.930 . S
C886 C885 1.394 . S
C886 C887 1.383 . S
C886 H894 0.929 . S
C887 C886 1.383 . S
C887 C888 1.377 . S
C888 H872 0.930 . S
C888 C887 1.377 . S
C888 C889 1.379 . S
C889 H873 0.931 . S
C889 C883 1.383 . S
C889 C888 1.379 . S
H890 C884 0.959 . S
H891 C884 0.961 . S
H892 C884 0.960 . S
H893 C885 0.930 . S
H894 C886 0.929 . S
H895 C903 0.929 . S
H896 C905 0.930 . S
H897 C907 0.930 . S
H898 C910 0.929 . S
H899 C913 0.930 . S
H900 C915 0.960 . S
H901 C915 0.960 . S
H902 C915 0.960 . S
C903 H895 0.929 . S
C903 C904 1.377 . S
C903 C905 1.384 . S
C904 C903 1.377 . S
C904 C910 1.390 . S
C905 H896 0.930 . S
C905 C903 1.384 . S
C905 C906 1.372 . S
C906 C905 1.372 . S
C906 C907 1.400 . S
C906 C911 1.490 . S
C907 H897 0.930 . S
C907 C906 1.400 . S
C907 C910 1.386 . S
H908 C924 0.930 . S
H909 C925 0.931 . S
C910 H898 0.929 . S
C910 C904 1.390 . S
C910 C907 1.386 . S
C911 C906 1.490 . S
C911 C913 1.395 . S
C911 C914 1.403 . S
H912 C918 0.930 . S
C913 H899 0.930 . S
C913 C911 1.395 . S
C913 C916 1.403 . S
C914 C911 1.403 . S
C914 C915 1.524 . S
C914 C918 1.400 . S
C915 H900 0.960 . S
C915 H901 0.960 . S
C915 H902 0.960 . S
C915 C914 1.524 . S
C916 C913 1.403 . S
C916 C917 1.392 . S
C916 C920 1.495 . S
C917 C916 1.392 . S
C917 C918 1.385 . S
C917 C919 1.478 . S
C918 H912 0.930 . S
C918 C914 1.400 . S
C918 C917 1.385 . S
C919 C917 1.478 . S
C919 C921 1.381 . S
C919 C925 1.383 . S
C920 C916 1.495 . S
C920 H926 0.959 . S
C920 H927 0.961 . S
C920 H928 0.960 . S
C921 C919 1.381 . S
C921 C922 1.394 . S
C921 H929 0.930 . S
C922 C921 1.394 . S
C922 C923 1.383 . S
C922 H930 0.929 . S
C923 C922 1.383 . S
C923 C924 1.377 . S
C924 H908 0.930 . S
C924 C923 1.377 . S
C924 C925 1.379 . S
C925 H909 0.931 . S
C925 C919 1.383 . S
C925 C924 1.379 . S
H926 C920 0.959 . S
H927 C920 0.961 . S
H928 C920 0.960 . S
H929 C921 0.930 . S
H930 C922 0.929 . S
H931 C939 0.929 . S
H932 C941 0.930 . S
H933 C943 0.930 . S
H934 C946 0.929 . S
H935 C949 0.930 . S
H936 C951 0.960 . S
H937 C951 0.960 . S
H938 C951 0.960 . S
C939 H931 0.929 . S
C939 C940 1.377 . S
C939 C941 1.384 . S
C940 C939 1.377 . S
C940 C946 1.390 . S
C941 H932 0.930 . S
C941 C939 1.384 . S
C941 C942 1.372 . S
C942 C941 1.372 . S
C942 C943 1.400 . S
C942 C947 1.490 . S
C943 H933 0.930 . S
C943 C942 1.400 . S
C943 C946 1.386 . S
H944 C960 0.930 . S
H945 C961 0.931 . S
C946 H934 0.929 . S
C946 C940 1.390 . S
C946 C943 1.386 . S
C947 C942 1.490 . S
C947 C949 1.395 . S
C947 C950 1.403 . S
H948 C954 0.930 . S
C949 H935 0.930 . S
C949 C947 1.395 . S
C949 C952 1.403 . S
C950 C947 1.403 . S
C950 C951 1.524 . S
C950 C954 1.400 . S
C951 H936 0.960 . S
C951 H937 0.960 . S
C951 H938 0.960 . S
C951 C950 1.524 . S
C952 C949 1.403 . S
C952 C953 1.392 . S
C952 C956 1.495 . S
C953 C952 1.392 . S
C953 C954 1.385 . S
C953 C955 1.478 . S
C954 H948 0.930 . S
C954 C950 1.400 . S
C954 C953 1.385 . S
C955 C953 1.478 . S
C955 C957 1.381 . S
C955 C961 1.383 . S
C956 C952 1.495 . S
C956 H962 0.959 . S
C956 H963 0.961 . S
C956 H964 0.960 . S
C957 C955 1.381 . S
C957 C958 1.394 . S
C957 H965 0.930 . S
C958 C957 1.394 . S
C958 C959 1.383 . S
C958 H966 0.929 . S
C959 C958 1.383 . S
C959 C960 1.377 . S
C960 H944 0.930 . S
C960 C959 1.377 . S
C960 C961 1.379 . S
C961 H945 0.931 . S
C961 C955 1.383 . S
C961 C960 1.379 . S
H962 C956 0.959 . S
H963 C956 0.961 . S
H964 C956 0.960 . S
H965 C957 0.930 . S
H966 C958 0.929 . S
H967 C975 0.929 . S
H968 C977 0.930 . S
H969 C979 0.930 . S
H970 C982 0.929 . S
H971 C985 0.930 . S
H972 C987 0.960 . S
H973 C987 0.960 . S
H974 C987 0.960 . S
C975 H967 0.929 . S
C975 C976 1.377 . S
C975 C977 1.384 . S
C976 C975 1.377 . S
C976 C982 1.390 . S
C977 H968 0.930 . S
C977 C975 1.384 . S
C977 C978 1.372 . S
C978 C977 1.372 . S
C978 C979 1.400 . S
C978 C983 1.490 . S
C979 H969 0.930 . S
C979 C978 1.400 . S
C979 C982 1.386 . S
H980 C996 0.930 . S
H981 C997 0.931 . S
C982 H970 0.929 . S
C982 C976 1.390 . S
C982 C979 1.386 . S
C983 C978 1.490 . S
C983 C985 1.395 . S
C983 C986 1.403 . S
H984 C990 0.930 . S
C985 H971 0.930 . S
C985 C983 1.395 . S
C985 C988 1.403 . S
C986 C983 1.403 . S
C986 C987 1.524 . S
C986 C990 1.400 . S
C987 H972 0.960 . S
C987 H973 0.960 . S
C987 H974 0.960 . S
C987 C986 1.524 . S
C988 C985 1.403 . S
C988 C989 1.392 . S
C988 C992 1.495 . S
C989 C988 1.392 . S
C989 C990 1.385 . S
C989 C991 1.478 . S
C990 H984 0.930 . S
C990 C986 1.400 . S
C990 C989 1.385 . S
C991 C989 1.478 . S
C991 C993 1.381 . S
C991 C997 1.383 . S
C992 C988 1.495 . S
C992 H998 0.959 . S
C992 H999 0.961 . S
C992 H1000 0.960 . S
C993 C991 1.381 . S
C993 C994 1.394 . S
C993 H1001 0.930 . S
C994 C993 1.394 . S
C994 C995 1.383 . S
C994 H1002 0.929 . S
C995 C994 1.383 . S
C995 C996 1.377 . S
C996 H980 0.930 . S
C996 C995 1.377 . S
C996 C997 1.379 . S
C997 H981 0.931 . S
C997 C991 1.383 . S
C997 C996 1.379 . S
H998 C992 0.959 . S
H999 C992 0.961 . S
H1000 C992 0.960 . S
H1001 C993 0.930 . S
H1002 C994 0.929 . S
H1003 C1011 0.929 . S
H1004 C1013 0.930 . S
H1005 C1015 0.930 . S
H1006 C1018 0.929 . S
H1007 C1021 0.930 . S
H1008 C1023 0.960 . S
H1009 C1023 0.960 . S
H1010 C1023 0.960 . S
C1011 H1003 0.929 . S
C1011 C1012 1.377 . S
C1011 C1013 1.384 . S
C1012 C1011 1.377 . S
C1012 C1018 1.390 . S
C1013 H1004 0.930 . S
C1013 C1011 1.384 . S
C1013 C1014 1.372 . S
C1014 C1013 1.372 . S
C1014 C1015 1.400 . S
C1014 C1019 1.490 . S
C1015 H1005 0.930 . S
C1015 C1014 1.400 . S
C1015 C1018 1.386 . S
H1016 C1032 0.930 . S
H1017 C1033 0.931 . S
C1018 H1006 0.929 . S
C1018 C1012 1.390 . S
C1018 C1015 1.386 . S
C1019 C1014 1.490 . S
C1019 C1021 1.395 . S
C1019 C1022 1.403 . S
H1020 C1026 0.930 . S
C1021 H1007 0.930 . S
C1021 C1019 1.395 . S
C1021 C1024 1.403 . S
C1022 C1019 1.403 . S
C1022 C1023 1.524 . S
C1022 C1026 1.400 . S
C1023 H1008 0.960 . S
C1023 H1009 0.960 . S
C1023 H1010 0.960 . S
C1023 C1022 1.524 . S
C1024 C1021 1.403 . S
C1024 C1025 1.392 . S
C1024 C1028 1.495 . S
C1025 C1024 1.392 . S
C1025 C1026 1.385 . S
C1025 C1027 1.478 . S
C1026 H1020 0.930 . S
C1026 C1022 1.400 . S
C1026 C1025 1.385 . S
C1027 C1025 1.478 . S
C1027 C1029 1.381 . S
C1027 C1033 1.383 . S
C1028 C1024 1.495 . S
C1028 H1034 0.959 . S
C1028 H1035 0.961 . S
C1028 H1036 0.960 . S
C1029 C1027 1.381 . S
C1029 C1030 1.394 . S
C1029 H1037 0.930 . S
C1030 C1029 1.394 . S
C1030 C1031 1.383 . S
C1030 H1038 0.929 . S
C1031 C1030 1.383 . S
C1031 C1032 1.377 . S
C1032 H1016 0.930 . S
C1032 C1031 1.377 . S
C1032 C1033 1.379 . S
C1033 H1017 0.931 . S
C1033 C1027 1.383 . S
C1033 C1032 1.379 . S
H1034 C1028 0.959 . S
H1035 C1028 0.961 . S
H1036 C1028 0.960 . S
H1037 C1029 0.930 . S
H1038 C1030 0.929 . S
H1039 C1047 0.929 . S
H1040 C1049 0.930 . S
H1041 C1051 0.930 . S
H1042 C1054 0.929 . S
H1043 C1057 0.930 . S
H1044 C1059 0.960 . S
H1045 C1059 0.960 . S
H1046 C1059 0.960 . S
C1047 H1039 0.929 . S
C1047 C1048 1.377 . S
C1047 C1049 1.384 . S
C1048 C1047 1.377 . S
C1048 C1054 1.390 . S
C1049 H1040 0.930 . S
C1049 C1047 1.384 . S
C1049 C1050 1.372 . S
C1050 C1049 1.372 . S
C1050 C1051 1.400 . S
C1050 C1055 1.490 . S
C1051 H1041 0.930 . S
C1051 C1050 1.400 . S
C1051 C1054 1.386 . S
H1052 C1068 0.930 . S
H1053 C1069 0.931 . S
C1054 H1042 0.929 . S
C1054 C1048 1.390 . S
C1054 C1051 1.386 . S
C1055 C1050 1.490 . S
C1055 C1057 1.395 . S
C1055 C1058 1.403 . S
H1056 C1062 0.930 . S
C1057 H1043 0.930 . S
C1057 C1055 1.395 . S
C1057 C1060 1.403 . S
C1058 C1055 1.403 . S
C1058 C1059 1.524 . S
C1058 C1062 1.400 . S
C1059 H1044 0.960 . S
C1059 H1045 0.960 . S
C1059 H1046 0.960 . S
C1059 C1058 1.524 . S
C1060 C1057 1.403 . S
C1060 C1061 1.392 . S
C1060 C1064 1.495 . S
C1061 C1060 1.392 . S
C1061 C1062 1.385 . S
C1061 C1063 1.478 . S
C1062 H1056 0.930 . S
C1062 C1058 1.400 . S
C1062 C1061 1.385 . S
C1063 C1061 1.478 . S
C1063 C1065 1.381 . S
C1063 C1069 1.383 . S
C1064 C1060 1.495 . S
C1064 H1070 0.959 . S
C1064 H1071 0.961 . S
C1064 H1072 0.960 . S
C1065 C1063 1.381 . S
C1065 C1066 1.394 . S
C1065 H1073 0.930 . S
C1066 C1065 1.394 . S
C1066 C1067 1.383 . S
C1066 H1074 0.929 . S
C1067 C1066 1.383 . S
C1067 C1068 1.377 . S
C1068 H1052 0.930 . S
C1068 C1067 1.377 . S
C1068 C1069 1.379 . S
C1069 H1053 0.931 . S
C1069 C1063 1.383 . S
C1069 C1068 1.379 . S
H1070 C1064 0.959 . S
H1071 C1064 0.961 . S
H1072 C1064 0.960 . S
H1073 C1065 0.930 . S
H1074 C1066 0.929 . S
H1075 C1083 0.929 . S
H1076 C1085 0.930 . S
H1077 C1087 0.930 . S
H1078 C1090 0.929 . S
H1079 C1093 0.930 . S
H1080 C1095 0.960 . S
H1081 C1095 0.960 . S
H1082 C1095 0.960 . S
C1083 H1075 0.929 . S
C1083 C1084 1.377 . S
C1083 C1085 1.384 . S
C1084 C1083 1.377 . S
C1084 C1090 1.390 . S
C1085 H1076 0.930 . S
C1085 C1083 1.384 . S
C1085 C1086 1.372 . S
C1086 C1085 1.372 . S
C1086 C1087 1.400 . S
C1086 C1091 1.490 . S
C1087 H1077 0.930 . S
C1087 C1086 1.400 . S
C1087 C1090 1.386 . S
H1088 C1104 0.930 . S
H1089 C1105 0.931 . S
C1090 H1078 0.929 . S
C1090 C1084 1.390 . S
C1090 C1087 1.386 . S
C1091 C1086 1.490 . S
C1091 C1093 1.395 . S
C1091 C1094 1.403 . S
H1092 C1098 0.930 . S
C1093 H1079 0.930 . S
C1093 C1091 1.395 . S
C1093 C1096 1.403 . S
C1094 C1091 1.403 . S
C1094 C1095 1.524 . S
C1094 C1098 1.400 . S
C1095 H1080 0.960 . S
C1095 H1081 0.960 . S
C1095 H1082 0.960 . S
C1095 C1094 1.524 . S
C1096 C1093 1.403 . S
C1096 C1097 1.392 . S
C1096 C1100 1.495 . S
C1097 C1096 1.392 . S
C1097 C1098 1.385 . S
C1097 C1099 1.478 . S
C1098 H1092 0.930 . S
C1098 C1094 1.400 . S
C1098 C1097 1.385 . S
C1099 C1097 1.478 . S
C1099 C1101 1.381 . S
C1099 C1105 1.383 . S
C1100 C1096 1.495 . S
C1100 H1106 0.959 . S
C1100 H1107 0.961 . S
C1100 H1108 0.960 . S
C1101 C1099 1.381 . S
C1101 C1102 1.394 . S
C1101 H1109 0.930 . S
C1102 C1101 1.394 . S
C1102 C1103 1.383 . S
C1102 H1110 0.929 . S
C1103 C1102 1.383 . S
C1103 C1104 1.377 . S
C1104 H1088 0.930 . S
C1104 C1103 1.377 . S
C1104 C1105 1.379 . S
C1105 H1089 0.931 . S
C1105 C1099 1.383 . S
C1105 C1104 1.379 . S
H1106 C1100 0.959 . S
H1107 C1100 0.961 . S
H1108 C1100 0.960 . S
H1109 C1101 0.930 . S
H1110 C1102 0.929 . S
H1111 C1119 0.929 . S
H1112 C1121 0.930 . S
H1113 C1123 0.930 . S
H1114 C1126 0.929 . S
H1115 C1129 0.930 . S
H1116 C1131 0.960 . S
H1117 C1131 0.960 . S
H1118 C1131 0.960 . S
C1119 H1111 0.929 . S
C1119 C1120 1.377 . S
C1119 C1121 1.384 . S
C1120 C1119 1.377 . S
C1120 C1126 1.390 . S
C1121 H1112 0.930 . S
C1121 C1119 1.384 . S
C1121 C1122 1.372 . S
C1122 C1121 1.372 . S
C1122 C1123 1.400 . S
C1122 C1127 1.490 . S
C1123 H1113 0.930 . S
C1123 C1122 1.400 . S
C1123 C1126 1.386 . S
H1124 C1140 0.930 . S
H1125 C1141 0.931 . S
C1126 H1114 0.929 . S
C1126 C1120 1.390 . S
C1126 C1123 1.386 . S
C1127 C1122 1.490 . S
C1127 C1129 1.395 . S
C1127 C1130 1.403 . S
H1128 C1134 0.930 . S
C1129 H1115 0.930 . S
C1129 C1127 1.395 . S
C1129 C1132 1.403 . S
C1130 C1127 1.403 . S
C1130 C1131 1.524 . S
C1130 C1134 1.400 . S
C1131 H1116 0.960 . S
C1131 H1117 0.960 . S
C1131 H1118 0.960 . S
C1131 C1130 1.524 . S
C1132 C1129 1.403 . S
C1132 C1133 1.392 . S
C1132 C1136 1.495 . S
C1133 C1132 1.392 . S
C1133 C1134 1.385 . S
C1133 C1135 1.478 . S
C1134 H1128 0.930 . S
C1134 C1130 1.400 . S
C1134 C1133 1.385 . S
C1135 C1133 1.478 . S
C1135 C1137 1.381 . S
C1135 C1141 1.383 . S
C1136 C1132 1.495 . S
C1136 H1142 0.959 . S
C1136 H1143 0.961 . S
C1136 H1144 0.960 . S
C1137 C1135 1.381 . S
C1137 C1138 1.394 . S
C1137 H1145 0.930 . S
C1138 C1137 1.394 . S
C1138 C1139 1.383 . S
C1138 H1146 0.929 . S
C1139 C1138 1.383 . S
C1139 C1140 1.377 . S
C1140 H1124 0.930 . S
C1140 C1139 1.377 . S
C1140 C1141 1.379 . S
C1141 H1125 0.931 . S
C1141 C1135 1.383 . S
C1141 C1140 1.379 . S
H1142 C1136 0.959 . S
H1143 C1136 0.961 . S
H1144 C1136 0.960 . S
H1145 C1137 0.930 . S
H1146 C1138 0.929 . S
H1147 C1155 0.929 . S
H1148 C1157 0.930 . S
H1149 C1159 0.930 . S
H1150 C1162 0.929 . S
H1151 C1165 0.930 . S
H1152 C1167 0.960 . S
H1153 C1167 0.960 . S
H1154 C1167 0.960 . S
C1155 H1147 0.929 . S
C1155 C1156 1.377 . S
C1155 C1157 1.384 . S
C1156 C1155 1.377 . S
C1156 C1162 1.390 . S
C1157 H1148 0.930 . S
C1157 C1155 1.384 . S
C1157 C1158 1.372 . S
C1158 C1157 1.372 . S
C1158 C1159 1.400 . S
C1158 C1163 1.490 . S
C1159 H1149 0.930 . S
C1159 C1158 1.400 . S
C1159 C1162 1.386 . S
H1160 C1176 0.930 . S
H1161 C1177 0.931 . S
C1162 H1150 0.929 . S
C1162 C1156 1.390 . S
C1162 C1159 1.386 . S
C1163 C1158 1.490 . S
C1163 C1165 1.395 . S
C1163 C1166 1.403 . S
H1164 C1170 0.930 . S
C1165 H1151 0.930 . S
C1165 C1163 1.395 . S
C1165 C1168 1.403 . S
C1166 C1163 1.403 . S
C1166 C1167 1.524 . S
C1166 C1170 1.400 . S
C1167 H1152 0.960 . S
C1167 H1153 0.960 . S
C1167 H1154 0.960 . S
C1167 C1166 1.524 . S
C1168 C1165 1.403 . S
C1168 C1169 1.392 . S
C1168 C1172 1.495 . S
C1169 C1168 1.392 . S
C1169 C1170 1.385 . S
C1169 C1171 1.478 . S
C1170 H1164 0.930 . S
C1170 C1166 1.400 . S
C1170 C1169 1.385 . S
C1171 C1169 1.478 . S
C1171 C1173 1.381 . S
C1171 C1177 1.383 . S
C1172 C1168 1.495 . S
C1172 H1178 0.959 . S
C1172 H1179 0.961 . S
C1172 H1180 0.960 . S
C1173 C1171 1.381 . S
C1173 C1174 1.394 . S
C1173 H1181 0.930 . S
C1174 C1173 1.394 . S
C1174 C1175 1.383 . S
C1174 H1182 0.929 . S
C1175 C1174 1.383 . S
C1175 C1176 1.377 . S
C1176 H1160 0.930 . S
C1176 C1175 1.377 . S
C1176 C1177 1.379 . S
C1177 H1161 0.931 . S
C1177 C1171 1.383 . S
C1177 C1176 1.379 . S
H1178 C1172 0.959 . S
H1179 C1172 0.961 . S
H1180 C1172 0.960 . S
H1181 C1173 0.930 . S
H1182 C1174 0.929 . S
H1183 C1191 0.929 . S
H1184 C1193 0.930 . S
H1185 C1195 0.930 . S
H1186 C1198 0.929 . S
H1187 C1201 0.930 . S
H1188 C1203 0.960 . S
H1189 C1203 0.960 . S
H1190 C1203 0.960 . S
C1191 H1183 0.929 . S
C1191 C1192 1.377 . S
C1191 C1193 1.384 . S
C1192 C1191 1.377 . S
C1192 C1198 1.390 . S
C1193 H1184 0.930 . S
C1193 C1191 1.384 . S
C1193 C1194 1.372 . S
C1194 C1193 1.372 . S
C1194 C1195 1.400 . S
C1194 C1199 1.490 . S
C1195 H1185 0.930 . S
C1195 C1194 1.400 . S
C1195 C1198 1.386 . S
H1196 C1212 0.930 . S
H1197 C1213 0.931 . S
C1198 H1186 0.929 . S
C1198 C1192 1.390 . S
C1198 C1195 1.386 . S
C1199 C1194 1.490 . S
C1199 C1201 1.395 . S
C1199 C1202 1.403 . S
H1200 C1206 0.930 . S
C1201 H1187 0.930 . S
C1201 C1199 1.395 . S
C1201 C1204 1.403 . S
C1202 C1199 1.403 . S
C1202 C1203 1.524 . S
C1202 C1206 1.400 . S
C1203 H1188 0.960 . S
C1203 H1189 0.960 . S
C1203 H1190 0.960 . S
C1203 C1202 1.524 . S
C1204 C1201 1.403 . S
C1204 C1205 1.392 . S
C1204 C1208 1.495 . S
C1205 C1204 1.392 . S
C1205 C1206 1.385 . S
C1205 C1207 1.478 . S
C1206 H1200 0.930 . S
C1206 C1202 1.400 . S
C1206 C1205 1.385 . S
C1207 C1205 1.478 . S
C1207 C1209 1.381 . S
C1207 C1213 1.383 . S
C1208 C1204 1.495 . S
C1208 H1214 0.959 . S
C1208 H1215 0.961 . S
C1208 H1216 0.960 . S
C1209 C1207 1.381 . S
C1209 C1210 1.394 . S
C1209 H1217 0.930 . S
C1210 C1209 1.394 . S
C1210 C1211 1.383 . S
C1210 H1218 0.929 . S
C1211 C1210 1.383 . S
C1211 C1212 1.377 . S
C1212 H1196 0.930 . S
C1212 C1211 1.377 . S
C1212 C1213 1.379 . S
C1213 H1197 0.931 . S
C1213 C1207 1.383 . S
C1213 C1212 1.379 . S
H1214 C1208 0.959 . S
H1215 C1208 0.961 . S
H1216 C1208 0.960 . S
H1217 C1209 0.930 . S
H1218 C1210 0.929 . S
C383 C280 1.007 . S
C364 C17 1.005 . S
C419 C316 1.612 . S
C400 C55 1.721 . S
C455 C281 1.318 . S
C436 C87 1.356 . S
C491 C311 1.451 . S
C472 C113 1.531 . S
C527 C278 1.384 . S
C508 C145 1.372 . S
C544 C183 1.566 . S
C563 C314 1.627 . S
C580 C215 1.105 . S
C599 C283 0.989 . S
C635 C313 1.377 . S
C616 C247 1.388 . S
C671 C317 1.292 . S
C652 C23 1.335 . S
C707 C282 1.430 . S
C688 C49 1.530 . S
C743 C310 1.714 . S
C724 C81 1.720 . S
C779 C279 1.108 . S
C760 C125 1.149 . S
C815 C312 1.553 . S
C796 C151 1.586 . S
C832 C189 1.337 . S
C851 C277 1.402 . S
C868 C209 1.589 . S
C887 C315 1.513 . S
C923 C284 1.003 . S
C904 C241 1.042 . S
C959 C346 1.731 . S
C940 C29 1.804 . S
C976 C157 1.924 . S
C995 C349 1.880 . S
C1031 C348 1.645 . S
C1012 C177 1.623 . S
C1048 C221 2.182 . S
C1067 C347 2.170 . S
C1103 C350 1.764 . S
C1084 C253 1.845 . S
C1120 C93 1.799 . S
C1139 C344 1.695 . S
C1175 C343 2.036 . S
C1156 C119 2.063 . S
C1192 C61 2.064 . S
C1211 C345 1.946 . S
