# Generated by pormake.
# Topology anh, (6,3)-cn, num edge types: 1
# Building blocks:
#     Node 0, Type 0, BuildingBlock: GEDQOX_clean_sbu_0, # of connection points: 6
#     Node 1, Type 0, BuildingBlock: GEDQOX_clean_sbu_0, # of connection points: 6
#     Node 2, Type 0, BuildingBlock: GEDQOX_clean_sbu_0, # of connection points: 6
#     Node 3, Type 1, BuildingBlock: KAKCAD_clean_linker_0, # of connection points: 3
#     Node 4, Type 1, BuildingBlock: KAKCAD_clean_linker_0, # of connection points: 3
#     Node 5, Type 1, BuildingBlock: KAKCAD_clean_linker_0, # of connection points: 3
#     Node 6, Type 1, BuildingBlock: KAKCAD_clean_linker_0, # of connection points: 3
#     Node 7, Type 1, BuildingBlock: KAKCAD_clean_linker_0, # of connection points: 3
#     Node 8, Type 1, BuildingBlock: KAKCAD_clean_linker_0, # of connection points: 3
#     Edge 9, Type (0, 1), BuildingBlock: CIFDUS_clean_linker_0, # of connection points: 2
#     Edge 10, Type (0, 1), BuildingBlock: CIFDUS_clean_linker_0, # of connection points: 2
#     Edge 11, Type (0, 1), BuildingBlock: CIFDUS_clean_linker_0, # of connection points: 2
#     Edge 12, Type (0, 1), BuildingBlock: CIFDUS_clean_linker_0, # of connection points: 2
#     Edge 13, Type (0, 1), BuildingBlock: CIFDUS_clean_linker_0, # of connection points: 2
#     Edge 14, Type (0, 1), BuildingBlock: CIFDUS_clean_linker_0, # of connection points: 2
#     Edge 15, Type (0, 1), BuildingBlock: CIFDUS_clean_linker_0, # of connection points: 2
#     Edge 16, Type (0, 1), BuildingBlock: CIFDUS_clean_linker_0, # of connection points: 2
#     Edge 17, Type (0, 1), BuildingBlock: CIFDUS_clean_linker_0, # of connection points: 2
#     Edge 18, Type (0, 1), BuildingBlock: CIFDUS_clean_linker_0, # of connection points: 2
#     Edge 19, Type (0, 1), BuildingBlock: CIFDUS_clean_linker_0, # of connection points: 2
#     Edge 20, Type (0, 1), BuildingBlock: CIFDUS_clean_linker_0, # of connection points: 2
#     Edge 21, Type (0, 1), BuildingBlock: CIFDUS_clean_linker_0, # of connection points: 2
#     Edge 22, Type (0, 1), BuildingBlock: CIFDUS_clean_linker_0, # of connection points: 2
#     Edge 23, Type (0, 1), BuildingBlock: CIFDUS_clean_linker_0, # of connection points: 2
#     Edge 24, Type (0, 1), BuildingBlock: CIFDUS_clean_linker_0, # of connection points: 2
#     Edge 25, Type (0, 1), BuildingBlock: CIFDUS_clean_linker_0, # of connection points: 2
#     Edge 26, Type (0, 1), BuildingBlock: CIFDUS_clean_linker_0, # of connection points: 2
# Relax obj value: 0.189
# Max RMSD: 0.216
# Mean RMSD: 0.160
data_MOF--net-anh--node1-GEDQOX_clean_sbu_0--node2-KAKCAD_clean_linker_0--edge1-CIFDUS_clean_linker_0
_symmetry_space_group_name_H-M    P1
_symmetry_Int_Tables_number       1
_symmetry_cell_setting            triclinic
loop_
_symmetry_equiv_pos_as_xyz
'x, y, z'
_cell_length_a     33.015176
_cell_length_b     32.147139
_cell_length_c     60.44899
_cell_angle_alpha  92.112636
_cell_angle_beta   91.390627
_cell_angle_gamma 104.78083
loop_
_atom_site_label
_atom_site_type_symbol
_atom_site_fract_x
_atom_site_fract_y
_atom_site_fract_z
_atom_type_partial_charge
Nd0 Nd 0.08683 0.55969 0.14418 0.0
Nd1 Nd 1.06366 0.46307 0.14394 0.0
C2 C 0.12143 0.64153 0.13674 0.0
C3 C 0.16272 0.67082 0.14232 0.0
C4 C 0.17351 0.71234 0.13423 0.0
C5 C 0.21247 0.74056 0.14008 0.0
C6 C 0.24114 0.72762 0.15416 0.0
C7 C 0.23035 0.68557 0.16186 0.0
C8 C 0.1915 0.65745 0.156 0.0
C9 C 1.07155 0.52807 0.18532 0.0
C10 C 0.16357 0.50698 0.145 0.0
C11 C 1.0304 0.38069 0.15073 0.0
C12 C 0.98951 0.35338 0.15676 0.0
C13 C 0.96345 0.36913 0.17108 0.0
C14 C 0.92508 0.34241 0.17695 0.0
C15 C 0.91189 0.2995 0.1685 0.0
C16 C 0.93785 0.28425 0.1538 0.0
C17 C 0.97629 0.31093 0.14805 0.0
C18 C 0.07757 0.4983 0.10323 0.0
C19 C 0.98717 0.51368 0.14292 0.0
O20 O 0.12119 0.60997 0.12242 0.0
O21 O 0.09781 0.62903 0.15353 0.0
O22 O 1.06084 0.56169 0.1786 0.0
O23 O 0.09196 0.51326 0.17091 0.0
O24 O 0.15281 0.54365 0.1421 0.0
O25 O 0.13452 0.47106 0.14809 0.0
O26 O 1.05122 0.40823 0.16606 0.0
O27 O 1.03204 0.39678 0.13113 0.0
O28 O 0.0913 0.46563 0.10893 0.0
O29 O 1.057 0.5098 0.11841 0.0
O30 O 0.99987 0.47997 0.14949 0.0
O31 O 1.01512 0.54832 0.13656 0.0
H32 H 0.15165 0.7231 0.12361 0.0
H33 H 0.21973 0.77283 0.13402 0.0
H34 H 0.25196 0.67437 0.17244 0.0
H35 H 0.18376 0.62537 0.16231 0.0
H36 H 0.97291 0.40195 0.1779 0.0
H37 H 0.90619 0.35516 0.18847 0.0
H38 H 0.92841 0.25172 0.14663 0.0
H39 H 0.99581 0.29834 0.13681 0.0
Nd40 Nd 0.52938 0.97268 0.52225 0.0
Nd41 Nd 0.62259 0.99535 0.51799 0.0
C42 C 0.44973 0.93905 0.53074 0.0
C43 C 0.41668 0.90016 0.52322 0.0
C44 C 0.41831 0.85874 0.52923 0.0
C45 C 0.38731 0.82238 0.52146 0.0
C46 C 0.35401 0.82654 0.50744 0.0
C47 C 0.35235 0.86808 0.50161 0.0
C48 C 0.38316 0.90439 0.5095 0.0
C49 C 0.55547 0.98541 0.47968 0.0
C50 C 0.57761 0.89391 0.5187 0.0
C51 C 0.70095 0.02668 0.50631 0.0
C52 C 0.73185 0.06746 0.50201 0.0
C53 C 0.72355 0.09617 0.48658 0.0
C54 C 0.75486 0.13272 0.48157 0.0
C55 C 0.79501 0.14127 0.49189 0.0
C56 C 0.80257 0.11319 0.50789 0.0
C57 C 0.77139 0.07666 0.51281 0.0
C58 C 0.59759 0.9807 0.56054 0.0
C59 C 0.57442 0.0729 0.52556 0.0
O60 O 0.4809 0.93356 0.54311 0.0
O61 O 0.4619 0.96813 0.51605 0.0
O62 O 0.5248 0.99886 0.48764 0.0
O63 O 0.57025 0.96482 0.49372 0.0
O64 O 0.5438 0.90639 0.52398 0.0
O65 O 0.61239 0.92198 0.51339 0.0
O66 O 0.66946 0.01277 0.49206 0.0
O67 O 0.69038 0.02012 0.52683 0.0
O68 O 0.6288 0.96869 0.55211 0.0
O69 O 0.58176 1.00161 0.54699 0.0
O70 O 0.60595 0.06153 0.51603 0.0
O71 O 0.54322 0.0435 0.5334 0.0
H72 H 0.44359 0.85427 0.53987 0.0
H73 H 0.38932 0.79103 0.52659 0.0
H74 H 0.32763 0.87261 0.4906 0.0
H75 H 0.38101 0.93588 0.50463 0.0
H76 H 0.69324 0.08994 0.47804 0.0
H77 H 0.74802 0.15344 0.46905 0.0
H78 H 0.83282 0.11918 0.51647 0.0
H79 H 0.77847 0.05507 0.52481 0.0
Nd80 Nd 0.53437 0.47274 0.82864 0.0
Nd81 Nd 0.62451 0.51036 0.84123 0.0
C82 C 0.45796 0.45708 0.81071 0.0
C83 C 0.42893 0.48474 0.81053 0.0
C84 C 0.3938 0.47588 0.79596 0.0
C85 C 0.36749 0.50389 0.79563 0.0
C86 C 0.37671 0.54133 0.80959 0.0
C87 C 0.41204 0.54991 0.82405 0.0
C88 C 0.43768 0.52175 0.82462 0.0
C89 C 0.55179 0.47907 0.87359 0.0
C90 C 0.57088 0.57918 0.83458 0.0
C91 C 0.70187 0.53795 0.85748 0.0
C92 C 0.73163 0.58063 0.85915 0.0
C93 C 0.77429 0.58403 0.85645 0.0
C94 C 0.80285 0.62441 0.85715 0.0
C95 C 0.78922 0.66214 0.86059 0.0
C96 C 0.74632 0.65868 0.8631 0.0
C97 C 0.71767 0.6182 0.86222 0.0
C98 C 0.60617 0.51 0.79692 0.0
C99 C 0.58789 0.40468 0.83518 0.0
O100 O 0.49177 0.47109 0.79953 0.0
O101 O 0.46601 0.44397 0.83016 0.0
O102 O 0.52575 0.44612 0.86369 0.0
O103 O 0.56643 0.50736 0.86003 0.0
O104 O 0.54185 0.5461 0.82574 0.0
O105 O 0.60502 0.57351 0.84437 0.0
O106 O 0.69289 0.52129 0.83736 0.0
O107 O 0.66899 0.53252 0.8698 0.0
O108 O 0.63106 0.54222 0.80791 0.0
O109 O 0.59234 0.47873 0.8091 0.0
O110 O 0.61551 0.43705 0.84569 0.0
O111 O 0.55552 0.41117 0.82396 0.0
H112 H 0.38677 0.44746 0.78491 0.0
H113 H 0.34019 0.49651 0.78447 0.0
H114 H 0.41932 0.57794 0.83537 0.0
H115 H 0.46433 0.52885 0.83619 0.0
H116 H 0.78552 0.55542 0.85385 0.0
H117 H 0.83583 0.62601 0.8556 0.0
H118 H 0.735 0.6872 0.86576 0.0
H119 H 0.68469 0.61628 0.86398 0.0
C120 C 0.59033 0.05242 0.33788 0.0
C121 C 0.58282 0.01484 0.34997 0.0
C122 C 0.593 0.05014 0.31483 0.0
C123 C 0.58784 0.01017 0.30339 0.0
C124 C 0.58132 0.97272 0.31554 0.0
C125 C 0.57898 0.97504 0.33858 0.0
C126 C 0.58744 1.00729 0.27881 0.0
C127 C 0.61762 0.03613 0.26705 0.0
C128 C 0.61694 0.03376 0.24374 0.0
C129 C 0.58511 1.00227 0.2322 0.0
C130 C 0.55473 0.97314 0.24379 0.0
C131 C 0.55628 0.97586 0.26704 0.0
C132 C 0.52062 0.94014 0.23193 0.0
C133 C 0.49619 0.9515 0.21496 0.0
C134 C 0.51039 0.8975 0.23869 0.0
C135 C 0.47546 0.86727 0.22937 0.0
C136 C 0.44962 0.87901 0.21318 0.0
C137 C 0.65039 0.06337 0.23166 0.0
C138 C 0.66449 0.1071 0.23849 0.0
C139 C 0.67003 0.04768 0.21399 0.0
C140 C 0.70394 0.07477 0.20392 0.0
C141 C 0.71886 0.11819 0.21121 0.0
C142 C 0.69827 0.1342 0.22837 0.0
C143 C 0.46093 0.92127 0.20572 0.0
H144 H 0.59375 0.08358 0.34623 0.0
H145 H 0.59784 0.07951 0.3059 0.0
H146 H 0.57764 0.94151 0.30719 0.0
H147 H 0.57284 0.94548 0.34741 0.0
H148 H 0.6424 0.05969 0.27611 0.0
H149 H 0.53227 0.95417 0.27602 0.0
H150 H 0.58404 1.0003 0.21425 0.0
H151 H 0.50323 0.98424 0.20954 0.0
H152 H 0.52909 0.88769 0.2515 0.0
H153 H 0.46834 0.83477 0.23512 0.0
H154 H 0.6497 0.12029 0.25189 0.0
H155 H 0.66012 0.01411 0.20843 0.0
H156 H 0.44159 0.93153 0.19341 0.0
H157 H 0.70914 0.16739 0.2345 0.0
H158 H 0.71883 0.06156 0.19057 0.0
C159 C 0.55817 0.50115 0.65425 0.0
C160 C 0.57926 0.47531 0.66575 0.0
C161 C 0.56097 0.50403 0.63128 0.0
C162 C 0.58545 0.4816 0.61932 0.0
C163 C 0.60646 0.45568 0.63095 0.0
C164 C 0.60314 0.45234 0.65385 0.0
C165 C 0.58919 0.48522 0.59487 0.0
C166 C 0.59078 0.5244 0.58491 0.0
C167 C 0.59415 0.52815 0.56183 0.0
C168 C 0.59718 0.4919 0.54863 0.0
C169 C 0.59577 0.45251 0.55848 0.0
C170 C 0.59142 0.44947 0.5814 0.0
C171 C 0.59823 0.41329 0.54552 0.0
C172 C 0.56127 0.38285 0.53837 0.0
C173 C 0.63649 0.40192 0.54463 0.0
C174 C 0.6376 0.36018 0.5376 0.0
C175 C 0.60033 0.32877 0.53155 0.0
C176 C 0.5942 0.57024 0.55208 0.0
C177 C 0.5663 0.59371 0.55971 0.0
C178 C 0.62349 0.58872 0.5364 0.0
C179 C 0.62578 0.63035 0.52921 0.0
C180 C 0.59857 0.65428 0.53738 0.0
C181 C 0.5685 0.63503 0.55252 0.0
C182 C 0.5623 0.34109 0.53137 0.0
H183 H 0.53932 0.51898 0.66304 0.0
H184 H 0.54367 0.52362 0.6229 0.0
H185 H 0.62626 0.43858 0.62245 0.0
H186 H 0.62025 0.43272 0.66236 0.0
H187 H 0.59029 0.55253 0.59522 0.0
H188 H 0.58932 0.41869 0.58867 0.0
H189 H 0.59989 0.49405 0.53086 0.0
H190 H 0.53131 0.39068 0.53934 0.0
H191 H 0.66525 0.42459 0.5506 0.0
H192 H 0.66737 0.35186 0.53818 0.0
H193 H 0.54302 0.58033 0.5716 0.0
H194 H 0.64555 0.57162 0.53026 0.0
H195 H 0.53307 0.31799 0.52654 0.0
H196 H 0.54732 0.65242 0.55945 0.0
H197 H 0.64906 0.64389 0.51736 0.0
C198 C 0.15906 0.67347 -0.00317 0.0
C199 C 0.11868 0.66218 0.00538 0.0
C200 C 0.16652 0.69654 0.97748 0.0
C201 C 0.13367 0.70854 0.96627 0.0
C202 C 0.09343 0.69738 0.97502 0.0
C203 C 0.08608 0.67464 0.99432 0.0
C204 C 0.13969 0.72899 0.94449 0.0
C205 C 0.16269 0.71376 0.92825 0.0
C206 C 0.16081 0.72572 0.90624 0.0
C207 C 0.13572 0.75308 0.90044 0.0
C208 C 0.11291 0.7693 0.91648 0.0
C209 C 0.11694 0.75869 0.93867 0.0
C210 C 0.0789 0.78929 0.90934 0.0
C211 C 0.08189 0.8129 0.88999 0.0
C212 C 1.04014 0.77817 0.91968 0.0
C213 C 1.00451 0.78575 0.90964 0.0
C214 C 1.00643 0.80412 0.88883 0.0
C215 C 0.18116 0.70545 0.88891 0.0
C216 C 0.22362 0.70605 0.89141 0.0
C217 C 0.15767 0.68345 0.87038 0.0
C218 C 0.17613 0.66133 0.8549 0.0
C219 C 0.21851 0.66149 0.85756 0.0
C220 C 0.24222 0.68451 0.87579 0.0
C221 C 1.04588 0.81993 0.87971 0.0
H222 H 0.18486 0.66456 0.00513 0.0
H223 H 0.19789 0.7047 0.97121 0.0
H224 H 1.06703 0.70478 0.96653 0.0
H225 H 1.05445 0.66571 0.00023 0.0
H226 H 0.17946 0.68995 0.93227 0.0
H227 H 0.1 0.77131 0.95129 0.0
H228 H 0.13224 0.75952 0.88313 0.0
H229 H 0.11147 0.82325 0.88191 0.0
H230 H 1.03595 0.75963 0.93441 0.0
H231 H 0.97474 0.77268 0.91714 0.0
H232 H 0.24226 0.72276 0.90559 0.0
H233 H 0.12469 0.68219 0.86826 0.0
H234 H 1.04846 0.83483 0.86385 0.0
H235 H 0.27482 0.68458 0.8784 0.0
H236 H 0.15724 0.64369 0.84102 0.0
C237 C 1.04748 0.45803 0.3225 0.0
C238 C 0.08533 0.46558 0.31129 0.0
C239 C 1.04745 0.45836 0.34561 0.0
C240 C 0.08526 0.46599 0.35815 0.0
C241 C 0.12306 0.47226 0.34693 0.0
C242 C 0.1231 0.47205 0.32377 0.0
C243 C 0.08519 0.46847 0.3828 0.0
C244 C 1.05382 0.4402 0.39418 0.0
C245 C 1.05247 0.44322 0.41738 0.0
C246 C 0.08359 0.47463 0.42935 0.0
C247 C 0.11538 0.50332 0.4183 0.0
C248 C 0.11572 0.49998 0.39502 0.0
C249 C 0.14772 0.53757 0.43084 0.0
C250 C 0.1369 0.5606 0.44903 0.0
C251 C 0.18953 0.54845 0.42422 0.0
C252 C 0.21951 0.58204 0.43516 0.0
C253 C 0.20861 0.60556 0.45314 0.0
C254 C 1.01827 0.41343 0.42889 0.0
C255 C 0.97669 0.40459 0.42053 0.0
C256 C 1.02695 0.39252 0.44777 0.0
C257 C 0.99494 0.36239 0.45762 0.0
C258 C 0.95351 0.35281 0.44891 0.0
C259 C 0.9447 0.37472 0.43044 0.0
C260 C 0.16697 0.59411 0.46006 0.0
H261 H 1.01778 0.45238 0.3134 0.0
H262 H 1.01777 0.45376 0.35365 0.0
H263 H 0.15271 0.47762 0.35606 0.0
H264 H 0.15284 0.4783 0.31569 0.0
H265 H 1.03063 0.41522 0.38495 0.0
H266 H 0.13904 0.52295 0.3863 0.0
H267 H 0.08285 0.47687 0.44726 0.0
H268 H 0.10495 0.55341 0.45448 0.0
H269 H 0.19916 0.53106 0.41048 0.0
H270 H 0.25108 0.59015 0.42917 0.0
H271 H 0.96891 0.42057 0.40616 0.0
H272 H 1.05869 0.39853 0.45454 0.0
H273 H 0.15753 0.61108 0.47402 0.0
H274 H 0.91323 0.36786 0.42321 0.0
H275 H 1.00266 0.34636 0.47198 0.0
C276 C 0.56233 0.95376 0.70236 0.0
C277 C 0.59663 0.98072 0.69235 0.0
C278 C 0.55907 0.95558 0.72539 0.0
C279 C 0.58957 0.98507 0.73866 0.0
C280 C 0.62336 0.01265 0.72857 0.0
C281 C 0.62708 0.01019 0.70563 0.0
C282 C 0.58658 0.98691 0.76304 0.0
C283 C 0.58337 0.94982 0.77502 0.0
C284 C 0.58215 0.95167 0.79821 0.0
C285 C 0.58292 0.99103 0.80952 0.0
C286 C 0.58641 0.02865 0.7976 0.0
C287 C 0.58843 0.02614 0.7744 0.0
C288 C 0.58772 0.07104 0.80872 0.0
C289 C 0.55547 0.07601 0.82248 0.0
C290 C 0.61855 0.10788 0.80327 0.0
C291 C 0.61593 0.14899 0.81034 0.0
C292 C 0.58218 0.15431 0.82289 0.0
C293 C 0.58335 0.91258 0.8101 0.0
C294 C 0.54627 0.88386 0.81641 0.0
C295 C 0.62126 0.90071 0.81203 0.0
C296 C 0.62207 0.86032 0.81959 0.0
C297 C 0.58485 0.83065 0.82525 0.0
C298 C 0.547 0.84326 0.82395 0.0
C299 C 0.55258 0.11728 0.82939 0.0
H300 H 0.53861 0.93067 0.6924 0.0
H301 H 0.53266 0.93415 0.73285 0.0
H302 H 0.64732 0.03551 0.7385 0.0
H303 H 0.65373 0.03135 0.69822 0.0
H304 H 0.58311 0.91962 0.76632 0.0
H305 H 0.59067 0.05476 0.76506 0.0
H306 H 0.58213 0.99263 0.82744 0.0
H307 H 0.53119 0.04819 0.82684 0.0
H308 H 0.64385 0.10495 0.79273 0.0
H309 H 0.6391 0.1767 0.80489 0.0
H310 H 0.51659 0.89218 0.8147 0.0
H311 H 0.6501 0.9221 0.80683 0.0
H312 H 0.52643 0.12028 0.83925 0.0
H313 H 0.51782 0.82145 0.82836 0.0
H314 H 0.65169 0.85166 0.82001 0.0
C315 C 0.57823 0.45523 0.01953 0.0
C316 C 0.56163 0.48197 0.00602 0.0
C317 C 0.58156 0.46261 0.04255 0.0
C318 C 0.56769 0.49642 0.05255 0.0
C319 C 0.55089 0.52301 0.03906 0.0
C320 C 0.54822 0.51609 0.01602 0.0
C321 C 0.57058 0.50385 0.07702 0.0
C322 C 0.60831 0.50636 0.08872 0.0
C323 C 0.61223 0.51401 0.11182 0.0
C324 C 0.57626 0.51891 0.12343 0.0
C325 C 0.53706 0.51481 0.11174 0.0
C326 C 0.53548 0.50805 0.08857 0.0
C327 C 0.4962 0.51579 0.1224 0.0
C328 C 0.46025 0.48162 0.11765 0.0
C329 C 0.49027 0.55311 0.13335 0.0
C330 C 0.44954 0.55672 0.13842 0.0
C331 C 0.41326 0.52311 0.13274 0.0
C332 C 0.65468 0.51589 0.12247 0.0
C333 C 0.67293 0.4811 0.11887 0.0
C334 C 0.68078 0.55464 0.13169 0.0
C335 C 0.72404 0.55894 0.13616 0.0
C336 C 0.74277 0.52463 0.13157 0.0
C337 C 0.71592 0.48527 0.12341 0.0
C338 C 0.41978 0.48511 0.12272 0.0
H339 H 0.58899 0.42884 0.01225 0.0
H340 H 0.59444 0.4415 0.05257 0.0
H341 H 0.54018 0.54944 0.04634 0.0
H342 H 0.53505 0.53701 0.00602 0.0
H343 H 0.63536 0.50318 0.07961 0.0
H344 H 0.50623 0.50538 0.07938 0.0
H345 H 0.57837 0.5243 0.14125 0.0
H346 H 0.46328 0.45255 0.10895 0.0
H347 H 0.51688 0.58041 0.13697 0.0
H348 H 0.44652 0.58638 0.14645 0.0
H349 H 0.65417 0.45098 0.11139 0.0
H350 H 0.6683 0.58242 0.13429 0.0
H351 H 0.39338 0.4585 0.11771 0.0
H352 H 0.72844 0.45804 0.11934 0.0
H353 H 0.74301 0.58969 0.14275 0.0
H354 H 0.23626 0.57225 0.13841 0.0
H355 H 0.19439 0.43655 0.15014 0.0
H356 H 0.26591 0.4299 0.14813 0.0
H357 H 0.34095 0.46129 0.14253 0.0
H358 H 0.38413 0.59649 0.13012 0.0
H359 H 0.3128 0.60429 0.13338 0.0
C360 C 0.2427 0.54121 0.1406 0.0
C361 C 0.209 0.50497 0.14439 0.0
C362 C 0.28475 0.5373 0.13941 0.0
C363 C 0.21884 0.46521 0.14718 0.0
C364 C 0.26013 0.46124 0.14602 0.0
C365 C 0.33507 0.49257 0.14036 0.0
C366 C 0.36897 0.52815 0.13601 0.0
C367 C 0.29342 0.4969 0.14201 0.0
C368 C 0.35965 0.56836 0.13378 0.0
C369 C 0.3184 0.57286 0.13546 0.0
H370 H 0.79105 0.22295 0.48264 0.0
H371 H 0.87686 0.14184 0.48593 0.0
H372 H 0.93357 0.20062 0.47427 0.0
H373 H 0.95839 0.27392 0.46149 0.0
H374 H 0.87284 0.35497 0.4572 0.0
H375 H 0.81642 0.2972 0.47049 0.0
C376 C 0.8221 0.21807 0.48071 0.0
C377 C 0.82955 0.17794 0.48527 0.0
C378 C 0.85466 0.25195 0.47368 0.0
C379 C 0.87022 0.17249 0.48293 0.0
C380 C 0.90271 0.20603 0.47609 0.0
C381 C 0.92757 0.2792 0.46378 0.0
C382 C 0.91989 0.31873 0.45835 0.0
C383 C 0.89525 0.24579 0.4713 0.0
C384 C 0.87951 0.32471 0.46104 0.0
C385 C 0.84726 0.29172 0.46871 0.0
H386 H 0.62248 0.65486 0.85143 0.0
H387 H 0.50704 0.60346 0.8133 0.0
H388 H 0.49987 0.67616 0.80821 0.0
H389 H 0.52844 0.75468 0.81263 0.0
H390 H 0.64339 0.80611 0.8511 0.0
H391 H 0.6487 0.73325 0.8578 0.0
C392 C 0.5956 0.65946 0.8421 0.0
C393 C 0.56549 0.6235 0.83269 0.0
C394 C 0.59169 0.70154 0.83913 0.0
C395 C 0.5308 0.63034 0.82074 0.0
C396 C 0.52668 0.67203 0.81776 0.0
C397 C 0.55427 0.75005 0.82283 0.0
C398 C 0.58561 0.7861 0.83119 0.0
C399 C 0.55717 0.70792 0.82665 0.0
C400 C 0.61914 0.77915 0.84412 0.0
C401 C 0.62215 0.73741 0.84805 0.0
H402 H 0.94452 0.57567 0.13236 0.0
H403 H 0.92331 0.44446 0.15225 0.0
H404 H 0.84805 0.43653 0.15104 0.0
H405 H 0.78687 0.46571 0.14408 0.0
H406 H 0.80677 0.59662 0.12406 0.0
H407 H 0.88248 0.60552 0.12599 0.0
C408 C 0.92352 0.54534 0.13647 0.0
C409 C 0.94052 0.51077 0.14235 0.0
C410 C 0.87932 0.54076 0.13585 0.0
C411 C 0.91204 0.47188 0.14765 0.0
C412 C 0.86855 0.46717 0.14696 0.0
C413 C 0.80753 0.49625 0.14001 0.0
C414 C 0.79005 0.53037 0.13393 0.0
C415 C 0.85163 0.50124 0.14101 0.0
C416 C 0.81837 0.56973 0.12914 0.0
C417 C 0.8621 0.57482 0.13006 0.0
H418 H 0.36461 0.74805 0.49379 0.0
H419 H 0.26963 0.81779 0.50135 0.0
H420 H 0.21666 0.75595 0.48541 0.0
H421 H 0.19744 0.68274 0.46845 0.0
H422 H 0.2916 0.61157 0.46271 0.0
H423 H 0.34453 0.67325 0.47892 0.0
C424 C 0.33224 0.7496 0.4923 0.0
C425 C 0.32138 0.78785 0.49868 0.0
C426 C 0.3017 0.71366 0.48334 0.0
C427 C 0.27923 0.78922 0.49622 0.0
C428 C 0.24877 0.75371 0.48723 0.0
C429 C 0.22937 0.68037 0.47105 0.0
C430 C 0.24038 0.64246 0.4642 0.0
C431 C 0.25968 0.71585 0.4806 0.0
C432 C 0.28221 0.64048 0.46742 0.0
C433 C 0.31254 0.6757 0.47682 0.0
H434 H 0.5286 0.32954 0.82653 0.0
H435 H 0.65931 0.37987 0.84544 0.0
H436 H 0.66884 0.30677 0.84444 0.0
H437 H 0.64056 0.22854 0.83651 0.0
H438 H 0.50945 0.17892 0.8182 0.0
H439 H 0.49949 0.25152 0.82102 0.0
C440 C 0.5592 0.32457 0.83048 0.0
C441 C 0.5933 0.36025 0.83581 0.0
C442 C 0.56435 0.28245 0.83008 0.0
C443 C 0.63254 0.35306 0.84123 0.0
C444 C 0.63803 0.31123 0.84062 0.0
C445 C 0.60978 0.23364 0.83326 0.0
C446 C 0.57583 0.1982 0.82712 0.0
C447 C 0.60425 0.27568 0.83482 0.0
C448 C 0.53604 0.20539 0.82321 0.0
C449 C 0.53037 0.24701 0.82463 0.0
H450 H 0.64257 0.85452 0.52001 0.0
H451 H 0.50751 0.82764 0.51902 0.0
H452 H 0.5022 0.75153 0.52318 0.0
H453 H 0.53529 0.6927 0.52895 0.0
H454 H 0.67015 0.71852 0.5316 0.0
H455 H 0.67596 0.79417 0.52444 0.0
C456 C 0.612 0.83193 0.52046 0.0
C457 C 0.57555 0.84712 0.51933 0.0
C458 C 0.60902 0.78775 0.52317 0.0
C459 C 0.53619 0.81721 0.52004 0.0
C460 C 0.53304 0.77348 0.52241 0.0
C461 C 0.56604 0.7148 0.52804 0.0
C462 C 0.60219 0.69967 0.53101 0.0
C463 C 0.56918 0.75846 0.52435 0.0
C464 C 0.64168 0.7289 0.52922 0.0
C465 C 0.64506 0.77238 0.52529 0.0
H466 H 0.85561 0.69386 0.83504 0.0
H467 H 0.79326 0.7246 0.89294 0.0
H468 H 0.85421 0.7835 0.90365 0.0
H469 H 0.93013 0.81325 0.9013 0.0
H470 H 0.99411 0.77606 0.84546 0.0
H471 H 0.92768 0.73475 0.82872 0.0
C472 C 0.85511 0.71416 0.84973 0.0
C473 C 0.82059 0.70425 0.86351 0.0
C474 C 0.89081 0.74688 0.85621 0.0
C475 C 0.81965 0.73138 0.88216 0.0
C476 C 0.85464 0.76489 0.88837 0.0
C477 C 0.9293 0.79718 0.88513 0.0
C478 C 0.96714 0.79657 0.87506 0.0
C479 C 0.89123 0.77112 0.87625 0.0
C480 C 0.9656 0.77686 0.85377 0.0
C481 C 0.92757 0.75251 0.8443 0.0
H482 H 0.27682 0.74039 0.19557 0.0
H483 H 0.29614 0.78375 0.12906 0.0
H484 H 0.3624 0.83431 0.14128 0.0
H485 H 0.41516 0.86577 0.17096 0.0
H486 H 0.39413 0.82263 0.23753 0.0
H487 H 0.32887 0.77173 0.22503 0.0
C488 C 0.29573 0.76056 0.18368 0.0
C489 C 0.28161 0.75815 0.16142 0.0
C490 C 0.33368 0.78945 0.19081 0.0
C491 C 0.30612 0.7852 0.14633 0.0
C492 C 0.3441 0.81397 0.15329 0.0
C493 C 0.39618 0.84543 0.18276 0.0
C494 C 0.40991 0.8479 0.20514 0.0
C495 C 0.35818 0.81643 0.17552 0.0
C496 C 0.38496 0.82092 0.22013 0.0
C497 C 0.34737 0.79196 0.21304 0.0
H498 H 0.62993 0.14384 0.50975 0.0
H499 H 0.51736 0.10615 0.54701 0.0
H500 H 0.51499 0.18093 0.55146 0.0
H501 H 0.54508 0.25729 0.54563 0.0
H502 H 0.65711 0.29647 0.50828 0.0
H503 H 0.65953 0.22123 0.5032 0.0
C504 C 0.60489 0.15198 0.51884 0.0
C505 C 0.57392 0.11908 0.52802 0.0
C506 C 0.60354 0.19548 0.52137 0.0
C507 C 0.54168 0.13048 0.53971 0.0
C508 C 0.54022 0.1734 0.54229 0.0
C509 C 0.56969 0.24945 0.53605 0.0
C510 C 0.60072 0.28272 0.52726 0.0
C511 C 0.57093 0.20616 0.53322 0.0
C512 C 0.63292 0.27171 0.51537 0.0
C513 C 0.63427 0.2286 0.51241 0.0
H514 H 0.29258 0.51894 0.81405 0.0
H515 H 0.39823 0.62863 0.80831 0.0
H516 H 0.35569 0.67709 0.81978 0.0
H517 H 0.29236 0.68681 0.83732 0.0
H518 H 0.18748 0.57708 0.84455 0.0
H519 H 0.2253 0.53011 0.82614 0.0
C520 C 0.30578 0.55353 0.81462 0.0
C521 C 0.34849 0.57029 0.81071 0.0
C522 C 0.28144 0.58108 0.82179 0.0
C523 C 0.36547 0.61512 0.81158 0.0
C524 C 0.34125 0.64277 0.8182 0.0
C525 C 0.27762 0.65272 0.83447 0.0
C526 C 0.23764 0.6352 0.84252 0.0
C527 C 0.29983 0.62592 0.82433 0.0
C528 C 0.21835 0.5912 0.83847 0.0
C529 C 0.24006 0.56431 0.8281 0.0
H530 H 0.89636 0.21448 0.17747 0.0
H531 H 0.83684 0.3193 0.17501 0.0
H532 H 0.77189 0.27251 0.18765 0.0
H533 H 0.73212 0.20192 0.19984 0.0
H534 H 0.79176 0.09719 0.20173 0.0
H535 H 0.856 0.14351 0.18817 0.0
C536 C 0.86905 0.22703 0.17935 0.0
C537 C 0.87172 0.27051 0.17534 0.0
C538 C 0.83164 0.19985 0.1864 0.0
C539 C 0.83604 0.28622 0.1783 0.0
C540 C 0.79874 0.25939 0.1854 0.0
C541 C 0.75922 0.18928 0.19732 0.0
C542 C 0.75706 0.14611 0.20181 0.0
C543 C 0.79626 0.21622 0.18965 0.0
C544 C 0.7923 0.13009 0.19815 0.0
C545 C 0.8292 0.15666 0.19055 0.0
H546 H 1.05371 0.56893 0.09227 0.0
H547 H 0.12786 0.48397 0.06983 0.0
H548 H 0.14855 0.52816 0.0377 0.0
H549 H 0.14477 0.59101 0.01597 0.0
H550 H 1.07222 0.67653 0.04 0.0
H551 H 1.05212 0.63227 0.07177 0.0
C552 C 0.07445 0.56003 0.08037 0.0
C553 C 0.08926 0.52331 0.08335 0.0
C554 C 0.08667 0.58586 0.06233 0.0
C555 C 0.11601 0.51211 0.0678 0.0
C556 C 0.12794 0.53745 0.04951 0.0
C557 C 0.12502 0.6002 0.02833 0.0
C558 C 0.10976 0.63686 0.02554 0.0
C559 C 0.11353 0.57451 0.04665 0.0
C560 C 0.08387 0.64815 0.04159 0.0
C561 C 1.0724 0.62291 0.05977 0.0
H562 H 0.52926 0.0322 0.44873 0.0
H563 H 0.60884 0.94641 0.45845 0.0
H564 H 0.62569 0.94911 0.41922 0.0
H565 H 0.61552 0.97379 0.38185 0.0
H566 H 0.53604 0.05987 0.37243 0.0
H567 H 0.52186 0.0596 0.41188 0.0
C568 C 0.55039 0.01422 0.44225 0.0
C569 C 0.56748 0.98882 0.45634 0.0
C570 C 0.55999 0.01604 0.41975 0.0
C571 C 0.59516 0.96603 0.44785 0.0
C572 C 0.60475 0.96753 0.42544 0.0
C573 C 0.59512 0.99248 0.38847 0.0
C574 C 0.57676 0.01671 0.37422 0.0
C575 C 0.58696 0.99205 0.41118 0.0
C576 C 0.55088 0.04129 0.38307 0.0
C577 C 0.54252 0.04092 0.4056 0.0
H578 H 0.57992 0.44043 0.76808 0.0
H579 H 0.61479 0.5793 0.77192 0.0
H580 H 0.60651 0.58086 0.73177 0.0
H581 H 0.5936 0.54295 0.69537 0.0
H582 H 0.56311 0.40426 0.69082 0.0
H583 H 0.5655 0.40225 0.73132 0.0
C584 C 0.58529 0.47095 0.76006 0.0
C585 C 0.59805 0.50972 0.77284 0.0
C586 C 0.58155 0.47158 0.73684 0.0
C587 C 0.60522 0.54909 0.76236 0.0
C588 C 0.60047 0.54999 0.73941 0.0
C589 C 0.58693 0.51231 0.70328 0.0
C590 C 0.57809 0.47384 0.69021 0.0
C591 C 0.58928 0.51149 0.72646 0.0
C592 C 0.57019 0.43431 0.70061 0.0
C593 C 0.5715 0.43316 0.72373 0.0
H594 H 0.64786 0.96513 0.59333 0.0
H595 H 0.52939 0.995 0.58117 0.0
H596 H 0.51737 0.99555 0.62106 0.0
H597 H 0.54193 0.98948 0.65958 0.0
H598 H 0.6628 0.96475 0.67126 0.0
H599 H 0.6727 0.96026 0.63136 0.0
C600 C 0.6193 0.97154 0.5994 0.0
C601 C 0.58945 0.97987 0.58442 0.0
C602 C 0.61321 0.97288 0.62226 0.0
C603 C 0.55278 0.98853 0.59248 0.0
C604 C 0.54594 0.98885 0.61524 0.0
C605 C 0.57024 0.98289 0.65327 0.0
C606 C 0.60161 0.97734 0.66817 0.0
C607 C 0.57609 0.98135 0.63031 0.0
C608 C 0.63841 0.96928 0.65998 0.0
C609 C 0.64402 0.96665 0.63723 0.0
H610 H 0.5282 0.42008 0.90504 0.0
H611 H 0.58986 0.55368 0.89658 0.0
H612 H 0.5982 0.56649 0.93672 0.0
H613 H 0.58696 0.54003 0.97437 0.0
H614 H 0.52791 0.40594 0.98298 0.0
H615 H 0.51976 0.39289 0.94277 0.0
C616 C 0.54349 0.45194 0.91203 0.0
C617 C 0.55807 0.48594 0.8979 0.0
C618 C 0.54865 0.45898 0.93517 0.0
C619 C 0.57824 0.52699 0.90712 0.0
C620 C 0.58299 0.53437 0.93008 0.0
C621 C 0.57223 0.50801 0.9674 0.0
C622 C 0.55784 0.47405 0.98159 0.0
C623 C 0.56809 0.50069 0.94428 0.0
C624 C 0.5394 0.43255 0.97237 0.0
C625 C 0.5346 0.42512 0.94939 0.0
H626 H 0.11262 0.47763 0.20792 0.0
H627 H 1.01943 0.54969 0.21456 0.0
H628 H 1.0141 0.53495 0.25373 0.0
H629 H 1.03892 0.50606 0.28656 0.0
H630 H 0.13269 0.43454 0.28108 0.0
H631 H 0.13524 0.44507 0.24116 0.0
C632 C 0.09091 0.48963 0.21796 0.0
C633 C 1.06666 0.51495 0.20844 0.0
C634 C 0.08844 0.4816 0.24072 0.0
C635 C 1.03868 0.53043 0.22157 0.0
C636 C 1.0356 0.52205 0.24399 0.0
C637 C 1.05938 0.49202 0.27662 0.0
C638 C 0.08548 0.46948 0.28683 0.0
C639 C 1.06077 0.4983 0.2538 0.0
C640 C 0.11252 0.45242 0.27369 0.0
C641 C 0.11387 0.45826 0.25084 0.0
loop_
_geom_bond_atom_site_label_1
_geom_bond_atom_site_label_2
_geom_bond_distance
_geom_bond_site_symmetry_2
_ccdc_geom_bond_type
Nd0 C2 2.836 . S
Nd0 O20 2.500 . S
Nd0 O21 2.492 . S
Nd0 O22 2.487 . S
Nd0 O23 2.682 . S
Nd0 O24 2.410 . S
Nd0 O29 2.414 . S
Nd0 O31 2.424 1_455 S
Nd1 C11 2.836 . S
Nd1 O23 2.414 1_655 S
Nd1 O25 2.424 1_655 S
Nd1 O26 2.500 . S
Nd1 O27 2.492 . S
Nd1 O28 2.488 1_655 S
Nd1 O29 2.682 1_655 S
Nd1 O30 2.410 . S
C2 Nd0 2.836 . S
C2 C3 1.498 . S
C2 O20 1.258 . S
C2 O21 1.239 . S
C3 C2 1.498 . S
C3 C4 1.366 . S
C3 C8 1.407 . S
C4 C3 1.366 . S
C4 C5 1.392 . S
C4 H32 0.930 . S
C5 C4 1.392 . S
C5 C6 1.398 . S
C5 H33 0.929 . S
C6 C5 1.398 . S
C6 C7 1.352 . S
C7 C6 1.352 . S
C7 C8 1.384 . S
C7 H34 0.930 . S
C8 C3 1.407 . S
C8 C7 1.384 . S
C8 H35 0.929 . S
C9 O22 1.241 . S
C9 O23 1.273 . S
C10 O24 1.251 . S
C10 O25 1.268 . S
C11 Nd1 2.836 . S
C11 C12 1.498 . S
C11 O26 1.258 . S
C11 O27 1.239 . S
C12 C11 1.498 . S
C12 C13 1.366 . S
C12 C17 1.407 . S
C13 C12 1.366 . S
C13 C14 1.392 . S
C13 H36 0.930 . S
C14 C13 1.392 . S
C14 C15 1.398 . S
C14 H37 0.929 . S
C15 C14 1.398 . S
C15 C16 1.352 . S
C16 C15 1.352 . S
C16 C17 1.384 . S
C16 H38 0.930 . S
C17 C12 1.407 . S
C17 C16 1.384 . S
C17 H39 0.929 . S
C18 O28 1.246 . S
C18 O29 1.273 . S
C19 O30 1.251 . S
C19 O31 1.268 . S
O20 Nd0 2.500 . S
O20 C2 1.258 . S
O21 Nd0 2.492 . S
O21 C2 1.239 . S
O22 Nd0 2.487 . S
O22 C9 1.241 . S
O23 Nd0 2.682 . S
O23 Nd1 2.414 1_455 S
O23 C9 1.273 . S
O24 Nd0 2.410 . S
O24 C10 1.251 . S
O25 Nd1 2.424 1_455 S
O25 C10 1.268 . S
O26 Nd1 2.500 . S
O26 C11 1.258 . S
O27 Nd1 2.492 . S
O27 C11 1.239 . S
O28 Nd1 2.488 1_455 S
O28 C18 1.246 . S
O29 Nd0 2.414 . S
O29 Nd1 2.682 1_455 S
O29 C18 1.273 . S
O30 Nd1 2.410 . S
O30 C19 1.251 . S
O31 Nd0 2.424 1_655 S
O31 C19 1.268 . S
H32 C4 0.930 . S
H33 C5 0.929 . S
H34 C7 0.930 . S
H35 C8 0.929 . S
H36 C13 0.930 . S
H37 C14 0.929 . S
H38 C16 0.930 . S
H39 C17 0.929 . S
Nd40 C42 2.823 1_545 S
Nd40 O60 2.487 1_545 S
Nd40 O61 2.481 1_545 S
Nd40 O62 2.487 1_545 S
Nd40 O63 2.683 . S
Nd40 O64 2.392 1_545 S
Nd40 O69 2.411 . S
Nd40 O71 2.443 . S
Nd41 C51 2.836 . S
Nd41 O63 2.414 . S
Nd41 O65 2.424 1_545 S
Nd41 O66 2.500 . S
Nd41 O67 2.492 . S
Nd41 O68 2.487 . S
Nd41 O69 2.682 . S
Nd41 O70 2.410 . S
C42 Nd40 2.823 1_565 S
C42 C43 1.498 . S
C42 O60 1.258 . S
C42 O61 1.239 . S
C43 C42 1.498 . S
C43 C44 1.366 . S
C43 C48 1.407 . S
C44 C43 1.366 . S
C44 C45 1.392 . S
C44 H72 0.930 . S
C45 C44 1.392 . S
C45 C46 1.398 . S
C45 H73 0.929 . S
C46 C45 1.398 . S
C46 C47 1.352 . S
C47 C46 1.352 . S
C47 C48 1.384 . S
C47 H74 0.930 . S
C48 C43 1.407 . S
C48 C47 1.384 . S
C48 H75 0.929 . S
C49 O62 1.240 1_545 S
C49 O63 1.273 . S
C50 O64 1.251 . S
C50 O65 1.268 . S
C51 Nd41 2.836 . S
C51 C52 1.498 . S
C51 O66 1.258 . S
C51 O67 1.239 . S
C52 C51 1.498 . S
C52 C53 1.366 . S
C52 C57 1.407 . S
C53 C52 1.366 . S
C53 C54 1.392 . S
C53 H76 0.930 . S
C54 C53 1.392 . S
C54 C55 1.398 . S
C54 H77 0.929 . S
C55 C54 1.398 . S
C55 C56 1.352 . S
C56 C55 1.352 . S
C56 C57 1.384 . S
C56 H78 0.930 . S
C57 C52 1.407 . S
C57 C56 1.384 . S
C57 H79 0.929 . S
C58 O68 1.241 . S
C58 O69 1.273 . S
C59 O70 1.251 . S
C59 O71 1.268 . S
O60 Nd40 2.487 1_565 S
O60 C42 1.258 . S
O61 Nd40 2.481 1_565 S
O61 C42 1.239 . S
O62 Nd40 2.487 1_565 S
O62 C49 1.240 1_565 S
O63 Nd40 2.683 . S
O63 Nd41 2.414 . S
O63 C49 1.273 . S
O64 Nd40 2.392 1_565 S
O64 C50 1.251 . S
O65 Nd41 2.424 1_565 S
O65 C50 1.268 . S
O66 Nd41 2.500 . S
O66 C51 1.258 . S
O67 Nd41 2.492 . S
O67 C51 1.239 . S
O68 Nd41 2.487 . S
O68 C58 1.241 . S
O69 Nd40 2.411 . S
O69 Nd41 2.682 . S
O69 C58 1.273 . S
O70 Nd41 2.410 . S
O70 C59 1.251 . S
O71 Nd40 2.443 . S
O71 C59 1.268 . S
H72 C44 0.930 . S
H73 C45 0.929 . S
H74 C47 0.930 . S
H75 C48 0.929 . S
H76 C53 0.930 . S
H77 C54 0.929 . S
H78 C56 0.930 . S
H79 C57 0.929 . S
Nd80 C82 2.836 . S
Nd80 O100 2.500 . S
Nd80 O101 2.492 . S
Nd80 O102 2.487 . S
Nd80 O103 2.682 . S
Nd80 O104 2.410 . S
Nd80 O109 2.414 . S
Nd80 O111 2.424 . S
Nd81 C91 2.836 . S
Nd81 O103 2.414 . S
Nd81 O105 2.424 . S
Nd81 O106 2.500 . S
Nd81 O107 2.492 . S
Nd81 O108 2.487 . S
Nd81 O109 2.682 . S
Nd81 O110 2.410 . S
C82 Nd80 2.836 . S
C82 C83 1.498 . S
C82 O100 1.258 . S
C82 O101 1.239 . S
C83 C82 1.498 . S
C83 C84 1.366 . S
C83 C88 1.407 . S
C84 C83 1.366 . S
C84 C85 1.392 . S
C84 H112 0.930 . S
C85 C84 1.392 . S
C85 C86 1.398 . S
C85 H113 0.929 . S
C86 C85 1.398 . S
C86 C87 1.352 . S
C87 C86 1.352 . S
C87 C88 1.384 . S
C87 H114 0.930 . S
C88 C83 1.407 . S
C88 C87 1.384 . S
C88 H115 0.929 . S
C89 O102 1.241 . S
C89 O103 1.273 . S
C90 O104 1.251 . S
C90 O105 1.268 . S
C91 Nd81 2.836 . S
C91 C92 1.498 . S
C91 O106 1.258 . S
C91 O107 1.239 . S
C92 C91 1.498 . S
C92 C93 1.366 . S
C92 C97 1.407 . S
C93 C92 1.366 . S
C93 C94 1.392 . S
C93 H116 0.930 . S
C94 C93 1.392 . S
C94 C95 1.398 . S
C94 H117 0.929 . S
C95 C94 1.398 . S
C95 C96 1.352 . S
C96 C95 1.352 . S
C96 C97 1.384 . S
C96 H118 0.930 . S
C97 C92 1.407 . S
C97 C96 1.384 . S
C97 H119 0.929 . S
C98 O108 1.241 . S
C98 O109 1.273 . S
C99 O110 1.251 . S
C99 O111 1.268 . S
O100 Nd80 2.500 . S
O100 C82 1.258 . S
O101 Nd80 2.492 . S
O101 C82 1.239 . S
O102 Nd80 2.487 . S
O102 C89 1.241 . S
O103 Nd80 2.682 . S
O103 Nd81 2.414 . S
O103 C89 1.273 . S
O104 Nd80 2.410 . S
O104 C90 1.251 . S
O105 Nd81 2.424 . S
O105 C90 1.268 . S
O106 Nd81 2.500 . S
O106 C91 1.258 . S
O107 Nd81 2.492 . S
O107 C91 1.239 . S
O108 Nd81 2.487 . S
O108 C98 1.241 . S
O109 Nd80 2.414 . S
O109 Nd81 2.682 . S
O109 C98 1.273 . S
O110 Nd81 2.410 . S
O110 C99 1.251 . S
O111 Nd80 2.424 . S
O111 C99 1.268 . S
H112 C84 0.930 . S
H113 C85 0.929 . S
H114 C87 0.930 . S
H115 C88 0.929 . S
H116 C93 0.930 . S
H117 C94 0.929 . S
H118 C96 0.930 . S
H119 C97 0.929 . S
C120 C121 1.386 . S
C120 C122 1.397 . S
C120 H144 0.931 . S
C121 C120 1.386 . S
C121 C125 1.397 1_545 S
C122 C120 1.397 . S
C122 C123 1.384 . S
C122 H145 0.930 . S
C123 C122 1.384 . S
C123 C124 1.377 1_545 S
C123 C126 1.481 . S
C124 C123 1.377 1_565 S
C124 C125 1.389 . S
C124 H146 0.929 . S
C125 C121 1.397 1_565 S
C125 C124 1.389 . S
C125 H147 0.931 . S
C126 C123 1.481 . S
C126 C127 1.387 . S
C126 C131 1.399 . S
C127 C126 1.387 . S
C127 C128 1.401 . S
C127 H148 0.930 . S
C128 C127 1.401 . S
C128 C129 1.376 . S
C128 C137 1.511 . S
C129 C128 1.376 . S
C129 C130 1.392 1_545 S
C129 H150 0.931 . S
C130 C129 1.392 1_565 S
C130 C131 1.361 1_565 S
C130 C132 1.500 . S
C131 C126 1.399 . S
C131 C130 1.361 1_545 S
C131 H149 0.923 1_545 S
C132 C130 1.500 . S
C132 C133 1.371 . S
C132 C134 1.365 . S
C133 C132 1.371 . S
C133 C143 1.386 . S
C133 H151 0.931 . S
C134 C132 1.365 . S
C134 C135 1.409 . S
C134 H152 0.929 . S
C135 C134 1.409 . S
C135 C136 1.380 . S
C135 H153 0.930 . S
C136 C135 1.380 . S
C136 C143 1.357 . S
C137 C128 1.511 . S
C137 C138 1.341 . S
C137 C139 1.371 . S
C138 C137 1.341 . S
C138 C142 1.394 . S
C138 H154 0.930 . S
C139 C137 1.371 . S
C139 C140 1.392 . S
C139 H155 0.931 . S
C140 C139 1.392 . S
C140 C141 1.331 . S
C140 H158 0.932 . S
C141 C140 1.331 . S
C141 C142 1.336 . S
C142 C138 1.394 . S
C142 C141 1.336 . S
C142 H157 0.929 . S
C143 C133 1.386 . S
C143 C136 1.357 . S
C143 H156 0.928 . S
H144 C120 0.931 . S
H145 C122 0.930 . S
H146 C124 0.929 . S
H147 C125 0.931 . S
H148 C127 0.930 . S
H149 C131 0.923 1_565 S
H150 C129 0.931 . S
H151 C133 0.931 . S
H152 C134 0.929 . S
H153 C135 0.930 . S
H154 C138 0.930 . S
H155 C139 0.931 . S
H156 C143 0.928 . S
H157 C142 0.929 . S
H158 C140 0.932 . S
C159 C160 1.386 . S
C159 C161 1.397 . S
C159 H183 0.931 . S
C160 C159 1.386 . S
C160 C164 1.397 . S
C161 C159 1.397 . S
C161 C162 1.384 . S
C161 H184 0.930 . S
C162 C161 1.384 . S
C162 C163 1.377 . S
C162 C165 1.481 . S
C163 C162 1.377 . S
C163 C164 1.389 . S
C163 H185 0.929 . S
C164 C160 1.397 . S
C164 C163 1.389 . S
C164 H186 0.931 . S
C165 C162 1.481 . S
C165 C166 1.387 . S
C165 C170 1.390 . S
C166 C165 1.387 . S
C166 C167 1.401 . S
C166 H187 0.930 . S
C167 C166 1.401 . S
C167 C168 1.376 . S
C167 C176 1.511 . S
C168 C167 1.376 . S
C168 C169 1.392 . S
C168 H189 0.931 . S
C169 C168 1.392 . S
C169 C170 1.361 . S
C169 C171 1.500 . S
C170 C165 1.390 . S
C170 C169 1.361 . S
C170 H188 0.931 . S
C171 C169 1.500 . S
C171 C172 1.371 . S
C171 C173 1.365 . S
C172 C171 1.371 . S
C172 C182 1.386 . S
C172 H190 0.931 . S
C173 C171 1.365 . S
C173 C174 1.409 . S
C173 H191 0.929 . S
C174 C173 1.409 . S
C174 C175 1.380 . S
C174 H192 0.930 . S
C175 C174 1.380 . S
C175 C182 1.357 . S
C176 C167 1.511 . S
C176 C177 1.341 . S
C176 C178 1.371 . S
C177 C176 1.341 . S
C177 C181 1.394 . S
C177 H193 0.930 . S
C178 C176 1.371 . S
C178 C179 1.392 . S
C178 H194 0.931 . S
C179 C178 1.392 . S
C179 C180 1.331 . S
C179 H197 0.932 . S
C180 C179 1.331 . S
C180 C181 1.336 . S
C181 C177 1.394 . S
C181 C180 1.336 . S
C181 H196 0.929 . S
C182 C172 1.386 . S
C182 C175 1.357 . S
C182 H195 0.928 . S
H183 C159 0.931 . S
H184 C161 0.930 . S
H185 C163 0.929 . S
H186 C164 0.931 . S
H187 C166 0.930 . S
H188 C170 0.931 . S
H189 C168 0.931 . S
H190 C172 0.931 . S
H191 C173 0.929 . S
H192 C174 0.930 . S
H193 C177 0.930 . S
H194 C178 0.931 . S
H195 C182 0.928 . S
H196 C181 0.929 . S
H197 C179 0.932 . S
C198 C199 1.386 1_556 S
C198 C200 1.397 . S
C198 H222 0.931 1_556 S
C199 C198 1.386 1_554 S
C199 C203 1.397 1_554 S
C200 C198 1.397 . S
C200 C201 1.384 . S
C200 H223 0.930 . S
C201 C200 1.384 . S
C201 C202 1.377 . S
C201 C204 1.481 . S
C202 C201 1.377 . S
C202 C203 1.389 . S
C202 H224 0.929 1_455 S
C203 C199 1.397 1_556 S
C203 C202 1.389 . S
C203 H225 0.931 1_455 S
C204 C201 1.481 . S
C204 C205 1.387 . S
C204 C209 1.390 . S
C205 C204 1.387 . S
C205 C206 1.401 . S
C205 H226 0.930 . S
C206 C205 1.401 . S
C206 C207 1.376 . S
C206 C215 1.511 . S
C207 C206 1.376 . S
C207 C208 1.392 . S
C207 H228 0.931 . S
C208 C207 1.392 . S
C208 C209 1.361 . S
C208 C210 1.500 1_455 S
C209 C204 1.390 . S
C209 C208 1.361 . S
C209 H227 0.931 1_455 S
C210 C208 1.500 1_655 S
C210 C211 1.371 . S
C210 C212 1.365 . S
C211 C210 1.371 . S
C211 C221 1.386 . S
C211 H229 0.931 . S
C212 C210 1.365 . S
C212 C213 1.409 . S
C212 H230 0.929 . S
C213 C212 1.409 . S
C213 C214 1.380 . S
C213 H231 0.930 . S
C214 C213 1.380 . S
C214 C221 1.357 . S
C215 C206 1.511 . S
C215 C216 1.341 . S
C215 C217 1.371 . S
C216 C215 1.341 . S
C216 C220 1.394 . S
C216 H232 0.930 . S
C217 C215 1.371 . S
C217 C218 1.392 . S
C217 H233 0.931 . S
C218 C217 1.392 . S
C218 C219 1.331 . S
C218 H236 0.932 . S
C219 C218 1.331 . S
C219 C220 1.336 . S
C220 C216 1.394 . S
C220 C219 1.336 . S
C220 H235 0.929 . S
C221 C211 1.386 . S
C221 C214 1.357 . S
C221 H234 0.928 . S
H222 C198 0.931 1_554 S
H223 C200 0.930 . S
H224 C202 0.929 1_655 S
H225 C203 0.931 1_655 S
H226 C205 0.930 . S
H227 C209 0.931 1_655 S
H228 C207 0.931 . S
H229 C211 0.931 . S
H230 C212 0.929 . S
H231 C213 0.930 . S
H232 C216 0.930 . S
H233 C217 0.931 . S
H234 C221 0.928 . S
H235 C220 0.929 . S
H236 C218 0.932 . S
C237 C238 1.386 1_655 S
C237 C239 1.397 . S
C237 H261 0.931 . S
C238 C237 1.386 1_455 S
C238 C242 1.397 . S
C239 C237 1.397 . S
C239 C240 1.405 . S
C239 H262 0.930 . S
C240 C239 1.405 . S
C240 C241 1.355 1_655 S
C240 C243 1.482 . S
C241 C240 1.355 1_455 S
C241 C242 1.389 . S
C241 H263 0.929 . S
C242 C238 1.397 . S
C242 C241 1.389 . S
C242 H264 0.931 . S
C243 C240 1.482 . S
C243 C244 1.387 . S
C243 C248 1.390 1_655 S
C244 C243 1.387 . S
C244 C245 1.401 . S
C244 H265 0.930 . S
C245 C244 1.401 . S
C245 C246 1.376 . S
C245 C254 1.511 . S
C246 C245 1.376 . S
C246 C247 1.392 1_655 S
C246 H267 0.931 . S
C247 C246 1.392 1_455 S
C247 C248 1.361 . S
C247 C249 1.500 . S
C248 C243 1.390 1_455 S
C248 C247 1.361 . S
C248 H266 0.931 . S
C249 C247 1.500 . S
C249 C250 1.371 . S
C249 C251 1.365 . S
C250 C249 1.371 . S
C250 C260 1.386 . S
C250 H268 0.931 . S
C251 C249 1.365 . S
C251 C252 1.409 . S
C251 H269 0.929 . S
C252 C251 1.409 . S
C252 C253 1.380 . S
C252 H270 0.930 . S
C253 C252 1.380 . S
C253 C260 1.357 . S
C254 C245 1.511 . S
C254 C255 1.341 . S
C254 C256 1.371 . S
C255 C254 1.341 . S
C255 C259 1.394 . S
C255 H271 0.930 . S
C256 C254 1.371 . S
C256 C257 1.392 . S
C256 H272 0.931 . S
C257 C256 1.392 . S
C257 C258 1.331 . S
C257 H275 0.932 . S
C258 C257 1.331 . S
C258 C259 1.336 . S
C259 C255 1.394 . S
C259 C258 1.336 . S
C259 H274 0.929 . S
C260 C250 1.386 . S
C260 C253 1.357 . S
C260 H273 0.928 . S
H261 C237 0.931 . S
H262 C239 0.930 . S
H263 C241 0.929 . S
H264 C242 0.931 . S
H265 C244 0.930 . S
H266 C248 0.931 . S
H267 C246 0.931 . S
H268 C250 0.931 . S
H269 C251 0.929 . S
H270 C252 0.930 . S
H271 C255 0.930 . S
H272 C256 0.931 . S
H273 C260 0.928 . S
H274 C259 0.929 . S
H275 C257 0.932 . S
C276 C277 1.386 1_565 S
C276 C278 1.397 . S
C276 H300 0.931 . S
C277 C276 1.386 1_545 S
C277 C281 1.397 . S
C278 C276 1.397 . S
C278 C279 1.384 1_565 S
C278 H301 0.930 . S
C279 C278 1.384 1_545 S
C279 C280 1.377 . S
C279 C282 1.481 . S
C280 C279 1.377 . S
C280 C281 1.389 . S
C280 H302 0.929 . S
C281 C277 1.397 . S
C281 C280 1.389 . S
C281 H303 0.931 . S
C282 C279 1.481 . S
C282 C283 1.387 1_545 S
C282 C287 1.390 . S
C283 C282 1.387 1_565 S
C283 C284 1.401 . S
C283 H304 0.930 . S
C284 C283 1.401 . S
C284 C285 1.376 1_565 S
C284 C293 1.511 . S
C285 C284 1.376 1_545 S
C285 C286 1.392 . S
C285 H306 0.931 . S
C286 C285 1.392 . S
C286 C287 1.361 . S
C286 C288 1.500 . S
C287 C282 1.390 . S
C287 C286 1.361 . S
C287 H305 0.931 . S
C288 C286 1.500 . S
C288 C289 1.371 . S
C288 C290 1.365 . S
C289 C288 1.371 . S
C289 C299 1.386 . S
C289 H307 0.931 . S
C290 C288 1.365 . S
C290 C291 1.409 . S
C290 H308 0.929 . S
C291 C290 1.409 . S
C291 C292 1.380 . S
C291 H309 0.930 . S
C292 C291 1.380 . S
C292 C299 1.357 . S
C293 C284 1.511 . S
C293 C294 1.341 . S
C293 C295 1.371 . S
C294 C293 1.341 . S
C294 C298 1.394 . S
C294 H310 0.930 . S
C295 C293 1.371 . S
C295 C296 1.392 . S
C295 H311 0.931 . S
C296 C295 1.392 . S
C296 C297 1.331 . S
C296 H314 0.932 . S
C297 C296 1.331 . S
C297 C298 1.336 . S
C298 C294 1.394 . S
C298 C297 1.336 . S
C298 H313 0.929 . S
C299 C289 1.386 . S
C299 C292 1.357 . S
C299 H312 0.928 . S
H300 C276 0.931 . S
H301 C278 0.930 . S
H302 C280 0.929 . S
H303 C281 0.931 . S
H304 C283 0.930 . S
H305 C287 0.931 . S
H306 C285 0.931 . S
H307 C289 0.931 . S
H308 C290 0.929 . S
H309 C291 0.930 . S
H310 C294 0.930 . S
H311 C295 0.931 . S
H312 C299 0.928 . S
H313 C298 0.929 . S
H314 C296 0.932 . S
C315 C316 1.386 . S
C315 C317 1.397 . S
C315 H339 0.931 . S
C316 C315 1.386 . S
C316 C320 1.397 . S
C317 C315 1.397 . S
C317 C318 1.384 . S
C317 H340 0.930 . S
C318 C317 1.384 . S
C318 C319 1.377 . S
C318 C321 1.481 . S
C319 C318 1.377 . S
C319 C320 1.389 . S
C319 H341 0.929 . S
C320 C316 1.397 . S
C320 C319 1.389 . S
C320 H342 0.931 . S
C321 C318 1.481 . S
C321 C322 1.387 . S
C321 C326 1.390 . S
C322 C321 1.387 . S
C322 C323 1.401 . S
C322 H343 0.930 . S
C323 C322 1.401 . S
C323 C324 1.376 . S
C323 C332 1.511 . S
C324 C323 1.376 . S
C324 C325 1.392 . S
C324 H345 0.931 . S
C325 C324 1.392 . S
C325 C326 1.361 . S
C325 C327 1.500 . S
C326 C321 1.390 . S
C326 C325 1.361 . S
C326 H344 0.931 . S
C327 C325 1.500 . S
C327 C328 1.371 . S
C327 C329 1.365 . S
C328 C327 1.371 . S
C328 C338 1.386 . S
C328 H346 0.931 . S
C329 C327 1.365 . S
C329 C330 1.409 . S
C329 H347 0.929 . S
C330 C329 1.409 . S
C330 C331 1.380 . S
C330 H348 0.930 . S
C331 C330 1.380 . S
C331 C338 1.357 . S
C332 C323 1.511 . S
C332 C333 1.341 . S
C332 C334 1.371 . S
C333 C332 1.341 . S
C333 C337 1.394 . S
C333 H349 0.930 . S
C334 C332 1.371 . S
C334 C335 1.392 . S
C334 H350 0.931 . S
C335 C334 1.392 . S
C335 C336 1.331 . S
C335 H353 0.932 . S
C336 C335 1.331 . S
C336 C337 1.336 . S
C337 C333 1.394 . S
C337 C336 1.336 . S
C337 H352 0.929 . S
C338 C328 1.386 . S
C338 C331 1.357 . S
C338 H351 0.928 . S
H339 C315 0.931 . S
H340 C317 0.930 . S
H341 C319 0.929 . S
H342 C320 0.931 . S
H343 C322 0.930 . S
H344 C326 0.931 . S
H345 C324 0.931 . S
H346 C328 0.931 . S
H347 C329 0.929 . S
H348 C330 0.930 . S
H349 C333 0.930 . S
H350 C334 0.931 . S
H351 C338 0.928 . S
H352 C337 0.929 . S
H353 C335 0.932 . S
H354 C360 0.930 . S
H355 C363 0.930 . S
H356 C364 0.930 . S
H357 C365 0.930 . S
H358 C368 0.930 . S
H359 C369 0.930 . S
C360 H354 0.930 . S
C360 C361 1.355 . S
C360 C362 1.415 . S
C361 C360 1.355 . S
C361 C363 1.419 . S
C362 C360 1.415 . S
C362 C367 1.425 . S
C362 C369 1.409 . S
C363 H355 0.930 . S
C363 C361 1.419 . S
C363 C364 1.362 . S
C364 H356 0.930 . S
C364 C363 1.362 . S
C364 C367 1.409 . S
C365 H357 0.930 . S
C365 C366 1.355 . S
C365 C367 1.415 . S
C366 C365 1.355 . S
C366 C368 1.419 . S
C367 C362 1.425 . S
C367 C364 1.409 . S
C367 C365 1.415 . S
C368 H358 0.930 . S
C368 C366 1.419 . S
C368 C369 1.362 . S
C369 H359 0.930 . S
C369 C362 1.409 . S
C369 C368 1.362 . S
H370 C376 0.930 . S
H371 C379 0.930 . S
H372 C380 0.930 . S
H373 C381 0.930 . S
H374 C384 0.930 . S
H375 C385 0.930 . S
C376 H370 0.930 . S
C376 C377 1.355 . S
C376 C378 1.415 . S
C377 C376 1.355 . S
C377 C379 1.419 . S
C378 C376 1.415 . S
C378 C383 1.425 . S
C378 C385 1.409 . S
C379 H371 0.930 . S
C379 C377 1.419 . S
C379 C380 1.362 . S
C380 H372 0.930 . S
C380 C379 1.362 . S
C380 C383 1.409 . S
C381 H373 0.930 . S
C381 C382 1.355 . S
C381 C383 1.415 . S
C382 C381 1.355 . S
C382 C384 1.419 . S
C383 C378 1.425 . S
C383 C380 1.409 . S
C383 C381 1.415 . S
C384 H374 0.930 . S
C384 C382 1.419 . S
C384 C385 1.362 . S
C385 H375 0.930 . S
C385 C378 1.409 . S
C385 C384 1.362 . S
H386 C392 0.930 . S
H387 C395 0.930 . S
H388 C396 0.930 . S
H389 C397 0.930 . S
H390 C400 0.930 . S
H391 C401 0.930 . S
C392 H386 0.930 . S
C392 C393 1.355 . S
C392 C394 1.415 . S
C393 C392 1.355 . S
C393 C395 1.419 . S
C394 C392 1.415 . S
C394 C399 1.425 . S
C394 C401 1.409 . S
C395 H387 0.930 . S
C395 C393 1.419 . S
C395 C396 1.362 . S
C396 H388 0.930 . S
C396 C395 1.362 . S
C396 C399 1.409 . S
C397 H389 0.930 . S
C397 C398 1.355 . S
C397 C399 1.415 . S
C398 C397 1.355 . S
C398 C400 1.419 . S
C399 C394 1.425 . S
C399 C396 1.409 . S
C399 C397 1.415 . S
C400 H390 0.930 . S
C400 C398 1.419 . S
C400 C401 1.362 . S
C401 H391 0.930 . S
C401 C394 1.409 . S
C401 C400 1.362 . S
H402 C408 0.930 . S
H403 C411 0.930 . S
H404 C412 0.930 . S
H405 C413 0.930 . S
H406 C416 0.930 . S
H407 C417 0.930 . S
C408 H402 0.930 . S
C408 C409 1.355 . S
C408 C410 1.415 . S
C409 C408 1.355 . S
C409 C411 1.419 . S
C410 C408 1.415 . S
C410 C415 1.425 . S
C410 C417 1.409 . S
C411 H403 0.930 . S
C411 C409 1.419 . S
C411 C412 1.362 . S
C412 H404 0.930 . S
C412 C411 1.362 . S
C412 C415 1.409 . S
C413 H405 0.930 . S
C413 C414 1.355 . S
C413 C415 1.415 . S
C414 C413 1.355 . S
C414 C416 1.419 . S
C415 C410 1.425 . S
C415 C412 1.409 . S
C415 C413 1.415 . S
C416 H406 0.930 . S
C416 C414 1.419 . S
C416 C417 1.362 . S
C417 H407 0.930 . S
C417 C410 1.409 . S
C417 C416 1.362 . S
H418 C424 0.930 . S
H419 C427 0.930 . S
H420 C428 0.930 . S
H421 C429 0.930 . S
H422 C432 0.930 . S
H423 C433 0.930 . S
C424 H418 0.930 . S
C424 C425 1.355 . S
C424 C426 1.415 . S
C425 C424 1.355 . S
C425 C427 1.419 . S
C426 C424 1.415 . S
C426 C431 1.425 . S
C426 C433 1.409 . S
C427 H419 0.930 . S
C427 C425 1.419 . S
C427 C428 1.362 . S
C428 H420 0.930 . S
C428 C427 1.362 . S
C428 C431 1.409 . S
C429 H421 0.930 . S
C429 C430 1.355 . S
C429 C431 1.415 . S
C430 C429 1.355 . S
C430 C432 1.419 . S
C431 C426 1.425 . S
C431 C428 1.409 . S
C431 C429 1.415 . S
C432 H422 0.930 . S
C432 C430 1.419 . S
C432 C433 1.362 . S
C433 H423 0.930 . S
C433 C426 1.409 . S
C433 C432 1.362 . S
H434 C440 0.930 . S
H435 C443 0.930 . S
H436 C444 0.930 . S
H437 C445 0.930 . S
H438 C448 0.930 . S
H439 C449 0.930 . S
C440 H434 0.930 . S
C440 C441 1.355 . S
C440 C442 1.415 . S
C441 C440 1.355 . S
C441 C443 1.419 . S
C442 C440 1.415 . S
C442 C447 1.425 . S
C442 C449 1.409 . S
C443 H435 0.930 . S
C443 C441 1.419 . S
C443 C444 1.362 . S
C444 H436 0.930 . S
C444 C443 1.362 . S
C444 C447 1.409 . S
C445 H437 0.930 . S
C445 C446 1.355 . S
C445 C447 1.415 . S
C446 C445 1.355 . S
C446 C448 1.419 . S
C447 C442 1.425 . S
C447 C444 1.409 . S
C447 C445 1.415 . S
C448 H438 0.930 . S
C448 C446 1.419 . S
C448 C449 1.362 . S
C449 H439 0.930 . S
C449 C442 1.409 . S
C449 C448 1.362 . S
H450 C456 0.930 . S
H451 C459 0.930 . S
H452 C460 0.930 . S
H453 C461 0.930 . S
H454 C464 0.930 . S
H455 C465 0.930 . S
C456 H450 0.930 . S
C456 C457 1.355 . S
C456 C458 1.415 . S
C457 C456 1.355 . S
C457 C459 1.419 . S
C458 C456 1.415 . S
C458 C463 1.425 . S
C458 C465 1.409 . S
C459 H451 0.930 . S
C459 C457 1.419 . S
C459 C460 1.362 . S
C460 H452 0.930 . S
C460 C459 1.362 . S
C460 C463 1.409 . S
C461 H453 0.930 . S
C461 C462 1.355 . S
C461 C463 1.415 . S
C462 C461 1.355 . S
C462 C464 1.419 . S
C463 C458 1.425 . S
C463 C460 1.409 . S
C463 C461 1.415 . S
C464 H454 0.930 . S
C464 C462 1.419 . S
C464 C465 1.362 . S
C465 H455 0.930 . S
C465 C458 1.409 . S
C465 C464 1.362 . S
H466 C472 0.930 . S
H467 C475 0.930 . S
H468 C476 0.930 . S
H469 C477 0.930 . S
H470 C480 0.930 . S
H471 C481 0.930 . S
C472 H466 0.930 . S
C472 C473 1.355 . S
C472 C474 1.415 . S
C473 C472 1.355 . S
C473 C475 1.419 . S
C474 C472 1.415 . S
C474 C479 1.425 . S
C474 C481 1.409 . S
C475 H467 0.930 . S
C475 C473 1.419 . S
C475 C476 1.362 . S
C476 H468 0.930 . S
C476 C475 1.362 . S
C476 C479 1.409 . S
C477 H469 0.930 . S
C477 C478 1.355 . S
C477 C479 1.415 . S
C478 C477 1.355 . S
C478 C480 1.419 . S
C479 C474 1.425 . S
C479 C476 1.409 . S
C479 C477 1.415 . S
C480 H470 0.930 . S
C480 C478 1.419 . S
C480 C481 1.362 . S
C481 H471 0.930 . S
C481 C474 1.409 . S
C481 C480 1.362 . S
H482 C488 0.930 . S
H483 C491 0.930 . S
H484 C492 0.930 . S
H485 C493 0.930 . S
H486 C496 0.930 . S
H487 C497 0.930 . S
C488 H482 0.930 . S
C488 C489 1.355 . S
C488 C490 1.415 . S
C489 C488 1.355 . S
C489 C491 1.419 . S
C490 C488 1.415 . S
C490 C495 1.425 . S
C490 C497 1.409 . S
C491 H483 0.930 . S
C491 C489 1.419 . S
C491 C492 1.362 . S
C492 H484 0.930 . S
C492 C491 1.362 . S
C492 C495 1.409 . S
C493 H485 0.930 . S
C493 C494 1.355 . S
C493 C495 1.415 . S
C494 C493 1.355 . S
C494 C496 1.419 . S
C495 C490 1.425 . S
C495 C492 1.409 . S
C495 C493 1.415 . S
C496 H486 0.930 . S
C496 C494 1.419 . S
C496 C497 1.362 . S
C497 H487 0.930 . S
C497 C490 1.409 . S
C497 C496 1.362 . S
H498 C504 0.930 . S
H499 C507 0.930 . S
H500 C508 0.930 . S
H501 C509 0.930 . S
H502 C512 0.930 . S
H503 C513 0.930 . S
C504 H498 0.930 . S
C504 C505 1.355 . S
C504 C506 1.415 . S
C505 C504 1.355 . S
C505 C507 1.419 . S
C506 C504 1.415 . S
C506 C511 1.425 . S
C506 C513 1.409 . S
C507 H499 0.930 . S
C507 C505 1.419 . S
C507 C508 1.362 . S
C508 H500 0.930 . S
C508 C507 1.362 . S
C508 C511 1.409 . S
C509 H501 0.930 . S
C509 C510 1.355 . S
C509 C511 1.415 . S
C510 C509 1.355 . S
C510 C512 1.419 . S
C511 C506 1.425 . S
C511 C508 1.409 . S
C511 C509 1.415 . S
C512 H502 0.930 . S
C512 C510 1.419 . S
C512 C513 1.362 . S
C513 H503 0.930 . S
C513 C506 1.409 . S
C513 C512 1.362 . S
H514 C520 0.930 . S
H515 C523 0.930 . S
H516 C524 0.930 . S
H517 C525 0.930 . S
H518 C528 0.930 . S
H519 C529 0.930 . S
C520 H514 0.930 . S
C520 C521 1.355 . S
C520 C522 1.415 . S
C521 C520 1.355 . S
C521 C523 1.419 . S
C522 C520 1.415 . S
C522 C527 1.425 . S
C522 C529 1.409 . S
C523 H515 0.930 . S
C523 C521 1.419 . S
C523 C524 1.362 . S
C524 H516 0.930 . S
C524 C523 1.362 . S
C524 C527 1.409 . S
C525 H517 0.930 . S
C525 C526 1.355 . S
C525 C527 1.415 . S
C526 C525 1.355 . S
C526 C528 1.419 . S
C527 C522 1.425 . S
C527 C524 1.409 . S
C527 C525 1.415 . S
C528 H518 0.930 . S
C528 C526 1.419 . S
C528 C529 1.362 . S
C529 H519 0.930 . S
C529 C522 1.409 . S
C529 C528 1.362 . S
H530 C536 0.930 . S
H531 C539 0.930 . S
H532 C540 0.930 . S
H533 C541 0.930 . S
H534 C544 0.930 . S
H535 C545 0.930 . S
C536 H530 0.930 . S
C536 C537 1.355 . S
C536 C538 1.415 . S
C537 C536 1.355 . S
C537 C539 1.419 . S
C538 C536 1.415 . S
C538 C543 1.425 . S
C538 C545 1.409 . S
C539 H531 0.930 . S
C539 C537 1.419 . S
C539 C540 1.362 . S
C540 H532 0.930 . S
C540 C539 1.362 . S
C540 C543 1.409 . S
C541 H533 0.930 . S
C541 C542 1.355 . S
C541 C543 1.415 . S
C542 C541 1.355 . S
C542 C544 1.419 . S
C543 C538 1.425 . S
C543 C540 1.409 . S
C543 C541 1.415 . S
C544 H534 0.930 . S
C544 C542 1.419 . S
C544 C545 1.362 . S
C545 H535 0.930 . S
C545 C538 1.409 . S
C545 C544 1.362 . S
H546 C552 0.930 1_655 S
H547 C555 0.930 . S
H548 C556 0.930 . S
H549 C557 0.930 . S
H550 C560 0.930 1_655 S
H551 C561 0.930 1_655 S
C552 H546 0.930 1_455 S
C552 C553 1.355 . S
C552 C554 1.415 . S
C553 C552 1.355 . S
C553 C555 1.419 . S
C554 C552 1.415 . S
C554 C559 1.425 . S
C554 C561 1.409 . S
C555 H547 0.930 . S
C555 C553 1.419 . S
C555 C556 1.362 . S
C556 H548 0.930 . S
C556 C555 1.362 . S
C556 C559 1.409 . S
C557 H549 0.930 . S
C557 C558 1.355 . S
C557 C559 1.415 . S
C558 C557 1.355 . S
C558 C560 1.419 . S
C559 C554 1.425 . S
C559 C556 1.409 . S
C559 C557 1.415 . S
C560 H550 0.930 1_455 S
C560 C558 1.419 . S
C560 C561 1.362 . S
C561 H551 0.930 1_455 S
C561 C554 1.409 . S
C561 C560 1.362 . S
H562 C568 0.930 . S
H563 C571 0.930 . S
H564 C572 0.930 . S
H565 C573 0.930 1_565 S
H566 C576 0.930 . S
H567 C577 0.930 . S
C568 H562 0.930 . S
C568 C569 1.355 . S
C568 C570 1.415 . S
C569 C568 1.355 . S
C569 C571 1.419 1_545 S
C570 C568 1.415 . S
C570 C575 1.425 . S
C570 C577 1.409 . S
C571 H563 0.930 . S
C571 C569 1.419 1_565 S
C571 C572 1.362 . S
C572 H564 0.930 . S
C572 C571 1.362 . S
C572 C575 1.409 1_565 S
C573 H565 0.930 1_545 S
C573 C574 1.355 . S
C573 C575 1.415 . S
C574 C573 1.355 . S
C574 C576 1.419 . S
C575 C570 1.425 . S
C575 C572 1.409 1_545 S
C575 C573 1.415 . S
C576 H566 0.930 . S
C576 C574 1.419 . S
C576 C577 1.362 . S
C577 H567 0.930 . S
C577 C570 1.409 . S
C577 C576 1.362 . S
H578 C584 0.930 . S
H579 C587 0.930 . S
H580 C588 0.930 . S
H581 C589 0.930 . S
H582 C592 0.930 . S
H583 C593 0.930 . S
C584 H578 0.930 . S
C584 C585 1.355 . S
C584 C586 1.415 . S
C585 C584 1.355 . S
C585 C587 1.419 . S
C586 C584 1.415 . S
C586 C591 1.425 . S
C586 C593 1.409 . S
C587 H579 0.930 . S
C587 C585 1.419 . S
C587 C588 1.362 . S
C588 H580 0.930 . S
C588 C587 1.362 . S
C588 C591 1.409 . S
C589 H581 0.930 . S
C589 C590 1.355 . S
C589 C591 1.415 . S
C590 C589 1.355 . S
C590 C592 1.419 . S
C591 C586 1.425 . S
C591 C588 1.409 . S
C591 C589 1.415 . S
C592 H582 0.930 . S
C592 C590 1.419 . S
C592 C593 1.362 . S
C593 H583 0.930 . S
C593 C586 1.409 . S
C593 C592 1.362 . S
H594 C600 0.930 . S
H595 C603 0.930 . S
H596 C604 0.930 . S
H597 C605 0.930 . S
H598 C608 0.930 . S
H599 C609 0.930 . S
C600 H594 0.930 . S
C600 C601 1.355 . S
C600 C602 1.415 . S
C601 C600 1.355 . S
C601 C603 1.419 1_545 S
C602 C600 1.415 . S
C602 C607 1.425 1_545 S
C602 C609 1.409 . S
C603 H595 0.930 . S
C603 C601 1.419 1_565 S
C603 C604 1.362 . S
C604 H596 0.930 . S
C604 C603 1.362 . S
C604 C607 1.409 . S
C605 H597 0.930 . S
C605 C606 1.355 1_565 S
C605 C607 1.415 . S
C606 C605 1.355 1_545 S
C606 C608 1.419 . S
C607 C602 1.425 1_565 S
C607 C604 1.409 . S
C607 C605 1.415 . S
C608 H598 0.930 . S
C608 C606 1.419 . S
C608 C609 1.362 . S
C609 H599 0.930 . S
C609 C602 1.409 . S
C609 C608 1.362 . S
H610 C616 0.930 . S
H611 C619 0.930 . S
H612 C620 0.930 . S
H613 C621 0.930 . S
H614 C624 0.930 . S
H615 C625 0.930 . S
C616 H610 0.930 . S
C616 C617 1.355 . S
C616 C618 1.415 . S
C617 C616 1.355 . S
C617 C619 1.419 . S
C618 C616 1.415 . S
C618 C623 1.425 . S
C618 C625 1.409 . S
C619 H611 0.930 . S
C619 C617 1.419 . S
C619 C620 1.362 . S
C620 H612 0.930 . S
C620 C619 1.362 . S
C620 C623 1.409 . S
C621 H613 0.930 . S
C621 C622 1.355 . S
C621 C623 1.415 . S
C622 C621 1.355 . S
C622 C624 1.419 . S
C623 C618 1.425 . S
C623 C620 1.409 . S
C623 C621 1.415 . S
C624 H614 0.930 . S
C624 C622 1.419 . S
C624 C625 1.362 . S
C625 H615 0.930 . S
C625 C618 1.409 . S
C625 C624 1.362 . S
H626 C632 0.930 . S
H627 C635 0.930 . S
H628 C636 0.930 . S
H629 C637 0.930 . S
H630 C640 0.930 . S
H631 C641 0.930 . S
C632 H626 0.930 . S
C632 C633 1.355 . S
C632 C634 1.415 . S
C633 C632 1.355 . S
C633 C635 1.419 1_455 S
C634 C632 1.415 . S
C634 C639 1.425 1_455 S
C634 C641 1.409 . S
C635 H627 0.930 . S
C635 C633 1.419 1_655 S
C635 C636 1.362 . S
C636 H628 0.930 . S
C636 C635 1.362 . S
C636 C639 1.409 . S
C637 H629 0.930 . S
C637 C638 1.355 1_655 S
C637 C639 1.415 . S
C638 C637 1.355 1_455 S
C638 C640 1.419 . S
C639 C634 1.425 1_655 S
C639 C636 1.409 . S
C639 C637 1.415 . S
C640 H630 0.930 . S
C640 C638 1.419 . S
C640 C641 1.362 . S
C641 H631 0.930 . S
C641 C634 1.409 . S
C641 C640 1.362 . S
C361 C10 3.151 . S
C366 C331 3.097 . S
C377 C55 1.226 . S
C382 C258 1.252 . S
C393 C90 1.973 . S
C398 C297 1.946 . S
C409 C19 3.043 . S
C414 C336 2.981 . S
C430 C253 1.341 . S
C425 C46 1.277 . S
C446 C292 2.060 . S
C441 C99 2.139 . S
C457 C50 1.966 . S
C462 C180 1.916 . S
C473 C95 0.655 . S
C478 C214 0.715 . S
C489 C6 1.359 . S
C494 C136 1.327 . S
C510 C175 2.040 . S
C505 C59 2.078 . S
C526 C219 0.431 . S
C521 C86 0.570 . S
C537 C15 1.311 . S
C542 C141 1.317 . S
C558 C199 1.120 . S
C553 C18 1.079 . S
C569 C49 1.451 . S
C574 C121 1.498 . S
C585 C98 1.299 . S
C590 C160 1.363 . S
C606 C277 1.369 . S
C601 C58 1.351 . S
C622 C316 1.779 1_556 S
C617 C89 1.713 . S
C633 C9 1.452 . S
C638 C238 1.503 . S
