# Generated by pormake.
# Topology zzz, (3,6)-cn, num edge types: 1
# Building blocks:
#     Node 0, Type 0, BuildingBlock: KAKCAD_clean_linker_0, # of connection points: 3
#     Node 1, Type 0, BuildingBlock: KAKCAD_clean_linker_0, # of connection points: 3
#     Node 2, Type 0, BuildingBlock: KAKCAD_clean_linker_0, # of connection points: 3
#     Node 3, Type 0, BuildingBlock: KAKCAD_clean_linker_0, # of connection points: 3
#     Node 4, Type 0, BuildingBlock: KAKCAD_clean_linker_0, # of connection points: 3
#     Node 5, Type 0, BuildingBlock: KAKCAD_clean_linker_0, # of connection points: 3
#     Node 6, Type 0, BuildingBlock: KAKCAD_clean_linker_0, # of connection points: 3
#     Node 7, Type 0, BuildingBlock: KAKCAD_clean_linker_0, # of connection points: 3
#     Node 8, Type 1, BuildingBlock: CUWYAW_clean_sbu_0, # of connection points: 6
#     Node 9, Type 1, BuildingBlock: CUWYAW_clean_sbu_0, # of connection points: 6
#     Node 10, Type 1, BuildingBlock: CUWYAW_clean_sbu_0, # of connection points: 6
#     Node 11, Type 1, BuildingBlock: CUWYAW_clean_sbu_0, # of connection points: 6
#     Edge 12, Type (0, 1), BuildingBlock: ZUJKAS_clean_linker_0, # of connection points: 2
#     Edge 13, Type (0, 1), BuildingBlock: ZUJKAS_clean_linker_0, # of connection points: 2
#     Edge 14, Type (0, 1), BuildingBlock: ZUJKAS_clean_linker_0, # of connection points: 2
#     Edge 15, Type (0, 1), BuildingBlock: ZUJKAS_clean_linker_0, # of connection points: 2
#     Edge 16, Type (0, 1), BuildingBlock: ZUJKAS_clean_linker_0, # of connection points: 2
#     Edge 17, Type (0, 1), BuildingBlock: ZUJKAS_clean_linker_0, # of connection points: 2
#     Edge 18, Type (0, 1), BuildingBlock: ZUJKAS_clean_linker_0, # of connection points: 2
#     Edge 19, Type (0, 1), BuildingBlock: ZUJKAS_clean_linker_0, # of connection points: 2
#     Edge 20, Type (0, 1), BuildingBlock: ZUJKAS_clean_linker_0, # of connection points: 2
#     Edge 21, Type (0, 1), BuildingBlock: ZUJKAS_clean_linker_0, # of connection points: 2
#     Edge 22, Type (0, 1), BuildingBlock: ZUJKAS_clean_linker_0, # of connection points: 2
#     Edge 23, Type (0, 1), BuildingBlock: ZUJKAS_clean_linker_0, # of connection points: 2
#     Edge 24, Type (0, 1), BuildingBlock: ZUJKAS_clean_linker_0, # of connection points: 2
#     Edge 25, Type (0, 1), BuildingBlock: ZUJKAS_clean_linker_0, # of connection points: 2
#     Edge 26, Type (0, 1), BuildingBlock: ZUJKAS_clean_linker_0, # of connection points: 2
#     Edge 27, Type (0, 1), BuildingBlock: ZUJKAS_clean_linker_0, # of connection points: 2
#     Edge 28, Type (0, 1), BuildingBlock: ZUJKAS_clean_linker_0, # of connection points: 2
#     Edge 29, Type (0, 1), BuildingBlock: ZUJKAS_clean_linker_0, # of connection points: 2
#     Edge 30, Type (0, 1), BuildingBlock: ZUJKAS_clean_linker_0, # of connection points: 2
#     Edge 31, Type (0, 1), BuildingBlock: ZUJKAS_clean_linker_0, # of connection points: 2
#     Edge 32, Type (0, 1), BuildingBlock: ZUJKAS_clean_linker_0, # of connection points: 2
#     Edge 33, Type (0, 1), BuildingBlock: ZUJKAS_clean_linker_0, # of connection points: 2
#     Edge 34, Type (0, 1), BuildingBlock: ZUJKAS_clean_linker_0, # of connection points: 2
#     Edge 35, Type (0, 1), BuildingBlock: ZUJKAS_clean_linker_0, # of connection points: 2
# Relax obj value: 0.390
# Max RMSD: 0.252
# Mean RMSD: 0.228
data_MOF--net-zzz--node1-CUWYAW_clean_sbu_0--node2-KAKCAD_clean_linker_0--edge1-ZUJKAS_clean_linker_0
_symmetry_space_group_name_H-M    P1
_symmetry_Int_Tables_number       1
_symmetry_cell_setting            triclinic
loop_
_symmetry_equiv_pos_as_xyz
'x, y, z'
_cell_length_a     74.031235
_cell_length_b     73.934744
_cell_length_c     23.788925
_cell_angle_alpha  89.90225
_cell_angle_beta   89.895959
_cell_angle_gamma 89.989996
loop_
_atom_site_label
_atom_site_type_symbol
_atom_site_fract_x
_atom_site_fract_y
_atom_site_fract_z
_atom_type_partial_charge
C0 C 0.76061 0.45788 0.04189 0.0
C1 C 0.77322 0.44535 0.06272 0.0
C2 C 0.75019 0.46824 0.07869 0.0
C3 C 0.75208 0.46622 0.13716 0.0
C4 C 0.76362 0.45266 0.15785 0.0
C5 C 0.77411 0.44234 0.12102 0.0
C6 C 0.74358 0.47948 0.17591 0.0
C7 C 0.72613 0.48603 0.16591 0.0
C8 C 0.71888 0.5002 0.19818 0.0
C9 C 0.72939 0.50793 0.24144 0.0
C10 C 0.74669 0.5009 0.25334 0.0
C11 C 0.75359 0.48679 0.22033 0.0
C12 C 0.7584 0.50807 0.29866 0.0
C13 C 0.76687 0.52495 0.29282 0.0
C14 C 0.76412 0.49637 0.34166 0.0
C15 C 0.77867 0.50098 0.37618 0.0
C16 C 0.78802 0.51735 0.36817 0.0
C17 C 0.70052 0.50682 0.18365 0.0
C18 C 0.69782 0.52463 0.16486 0.0
C19 C 0.68626 0.49438 0.17914 0.0
C20 C 0.67006 0.49924 0.15314 0.0
C21 C 0.6677 0.51669 0.13065 0.0
C22 C 0.68158 0.52951 0.13841 0.0
C23 C 0.78158 0.52954 0.32718 0.0
H24 H 0.75945 0.46032 0.99712 0.0
H25 H 0.74149 0.4786 0.06126 0.0
H26 H 0.76513 0.45055 0.20267 0.0
H27 H 0.78374 0.43286 0.1385 0.0
H28 H 0.71825 0.48035 0.13184 0.0
H29 H 0.76724 0.48205 0.22795 0.0
H30 H 0.72404 0.519 0.26621 0.0
H31 H 0.7629 0.53406 0.25935 0.0
H32 H 0.75799 0.48314 0.34634 0.0
H33 H 0.78331 0.49115 0.40674 0.0
H34 H 0.70866 0.53443 0.16737 0.0
H35 H 0.68803 0.48053 0.19308 0.0
H36 H 0.78833 0.54235 0.32027 0.0
H37 H 0.68014 0.54314 0.12227 0.0
H38 H 0.65983 0.48894 0.14759 0.0
C39 C 0.05907 0.7672 0.05197 0.0
C40 C 0.07353 0.77712 0.07469 0.0
C41 C 0.04767 0.75717 0.08689 0.0
C42 C 0.05042 0.75692 0.14526 0.0
C43 C 0.06564 0.76568 0.16755 0.0
C44 C 0.07714 0.77561 0.13255 0.0
C45 C 0.03634 0.74934 0.18286 0.0
C46 C 0.02815 0.73277 0.17073 0.0
C47 C 0.01339 0.72654 0.2024 0.0
C48 C 0.00658 0.73724 0.2468 0.0
C49 C 0.01511 0.75375 0.26038 0.0
C50 C 0.02995 0.75956 0.22825 0.0
C51 C 0.00872 0.76583 0.30617 0.0
C52 C 0.9918 0.77435 0.30288 0.0
C53 C 0.02102 0.7716 0.34735 0.0
C54 C 0.01696 0.78624 0.38231 0.0
C55 C 1.00052 0.79562 0.37675 0.0
C56 C 0.00559 0.70882 0.18672 0.0
C57 C 0.99043 0.70798 0.15146 0.0
C58 C 0.01584 0.6931 0.1955 0.0
C59 C 0.01174 0.67713 0.16681 0.0
C60 C 0.99738 0.67656 0.12815 0.0
C61 C 0.98631 0.69196 0.12255 0.0
C62 C 0.98776 0.78914 0.33771 0.0
H63 H 0.05571 0.76821 0.00779 0.0
H64 H 0.03597 0.75065 0.06858 0.0
H65 H 0.06823 0.76544 0.21235 0.0
H66 H 0.08836 0.78281 0.15122 0.0
H67 H 0.03313 0.72472 0.13589 0.0
H68 H 0.03602 0.7726 0.2371 0.0
H69 H 0.99504 0.73263 0.27096 0.0
H70 H 0.98218 0.77033 0.271 0.0
H71 H 0.03424 0.76539 0.35033 0.0
H72 H 0.02721 0.79087 0.41132 0.0
H73 H 0.98259 0.72005 0.14307 0.0
H74 H 0.02776 0.69352 0.22187 0.0
H75 H 0.97487 0.79589 0.33277 0.0
H76 H 0.97523 0.69206 0.09291 0.0
H77 H 0.02035 0.66545 0.17296 0.0
C78 C 0.74721 0.05565 0.05057 0.0
C79 C 0.73435 0.0687 0.06619 0.0
C80 C 0.75646 0.04575 0.09141 0.0
C81 C 0.75325 0.04883 0.1489 0.0
C82 C 0.74137 0.06279 0.16446 0.0
C83 C 0.73196 0.07255 0.12362 0.0
C84 C 0.76112 0.03657 0.19202 0.0
C85 C 0.77861 0.02967 0.18565 0.0
C86 C 0.78548 0.0166 0.22282 0.0
C87 C 0.77461 0.01043 0.26781 0.0
C88 C 0.75726 0.01792 0.27618 0.0
C89 C 0.75068 0.03078 0.23787 0.0
C90 C 0.74532 0.0127 0.32374 0.0
C91 C 0.7374 0.99546 0.32615 0.0
C92 C 0.73905 0.02618 0.36049 0.0
C93 C 0.72455 0.02285 0.39678 0.0
C94 C 0.71579 1.00596 0.39697 0.0
C95 C 0.80388 0.00952 0.21138 0.0
C96 C 0.80634 0.99167 0.19288 0.0
C97 C 0.81834 0.02174 0.20687 0.0
C98 C 0.83445 0.01667 0.18057 0.0
C99 C 0.83651 0.99923 0.15781 0.0
C100 C 0.82251 0.98657 0.16629 0.0
C101 C 0.72274 0.99213 0.36233 0.0
H102 H 0.74962 0.05255 0.00671 0.0
H103 H 0.76544 0.03505 0.07773 0.0
H104 H 0.73886 0.06578 0.20834 0.0
H105 H 0.72208 0.08241 0.13735 0.0
H106 H 0.78691 0.03424 0.15081 0.0
H107 H 0.73701 0.0358 0.24295 0.0
H108 H 0.77974 1.00029 0.2966 0.0
H109 H 0.74181 0.98493 0.29766 0.0
H110 H 0.74478 0.03966 0.35887 0.0
H111 H 0.71953 0.0339 0.4222 0.0
H112 H 0.79532 0.98206 0.19525 0.0
H113 H 0.81669 0.03564 0.22029 0.0
H114 H 0.71647 0.9789 0.36184 0.0
H115 H 0.82371 0.97294 0.15012 0.0
H116 H 0.84476 0.02688 0.17454 0.0
C117 C 0.50025 0.73967 0.3985 0.0
C118 C 0.51437 0.72725 0.4086 0.0
C119 C 0.50262 0.75425 0.3611 0.0
C120 C 0.51914 0.75667 0.33292 0.0
C121 C 0.53354 0.74498 0.34575 0.0
C122 C 0.53121 0.7305 0.38292 0.0
C123 C 0.52062 0.7688 0.28302 0.0
C124 C 0.51687 0.78758 0.28484 0.0
C125 C 0.51896 0.79819 0.23571 0.0
C126 C 0.52396 0.78985 0.18515 0.0
C127 C 0.52726 0.7713 0.18268 0.0
C128 C 0.52577 0.76092 0.2317 0.0
C129 C 0.53147 0.76259 0.12831 0.0
C130 C 0.52077 0.7662 0.08091 0.0
C131 C 0.54558 0.74999 0.12411 0.0
C132 C 0.54842 0.74056 0.0741 0.0
C133 C 0.53705 0.74338 0.02757 0.0
C134 C 0.51624 0.81805 0.23379 0.0
C135 C 0.49875 0.82525 0.23018 0.0
C136 C 0.53096 0.82903 0.21881 0.0
C137 C 0.52822 0.84622 0.19578 0.0
C138 C 0.51063 0.85295 0.18728 0.0
C139 C 0.49596 0.84258 0.20748 0.0
C140 C 0.52349 0.75665 0.03106 0.0
H141 H 0.48717 0.73782 0.41812 0.0
H142 H 0.49124 0.76294 0.35165 0.0
H143 H 0.54641 0.74646 0.32446 0.0
H144 H 0.54238 0.72125 0.38878 0.0
H145 H 0.51288 0.79389 0.32401 0.0
H146 H 0.52807 0.74645 0.22951 0.0
H147 H 0.52532 0.79794 0.14726 0.0
H148 H 0.50972 0.77578 0.0832 0.0
H149 H 0.55421 0.74721 0.15984 0.0
H150 H 0.55919 0.73066 0.07241 0.0
H151 H 0.48715 0.81694 0.24055 0.0
H152 H 0.54457 0.82364 0.22016 0.0
H153 H 0.51432 0.75898 0.99638 0.0
H154 H 0.48224 0.84741 0.20299 0.0
H155 H 0.53991 0.85352 0.18051 0.0
C156 C 0.2423 0.4586 0.30954 0.0
C157 C 0.22988 0.44436 0.30344 0.0
C158 C 0.25234 0.46467 0.26356 0.0
C159 C 0.25014 0.45668 0.2105 0.0
C160 C 0.23869 0.44164 0.20519 0.0
C161 C 0.22872 0.43548 0.25131 0.0
C162 C 0.25857 0.46504 0.16029 0.0
C163 C 0.27647 0.47094 0.16203 0.0
C164 C 0.28406 0.48058 0.11707 0.0
C165 C 0.27349 0.48436 0.06903 0.0
C166 C 0.25548 0.47794 0.06593 0.0
C167 C 0.24827 0.46843 0.11211 0.0
C168 C 0.24347 0.48127 0.01651 0.0
C169 C 0.24132 0.49864 0.99331 0.0
C170 C 0.23218 0.4673 0.99724 0.0
C171 C 0.21828 0.47078 0.9591 0.0
C172 C 0.2153 0.48834 0.93808 0.0
C173 C 0.30295 0.48673 0.12413 0.0
C174 C 0.30635 0.50409 0.14538 0.0
C175 C 0.31675 0.47371 0.12638 0.0
C176 C 0.3331 0.47749 0.15335 0.0
C177 C 0.33599 0.49437 0.17914 0.0
C178 C 0.32273 0.50789 0.17249 0.0
C179 C 0.2274 0.50213 0.95451 0.0
H180 H 0.24336 0.46594 0.34876 0.0
H181 H 0.26098 0.47637 0.26882 0.0
H182 H 0.23699 0.43504 0.16493 0.0
H183 H 0.21948 0.42428 0.24551 0.0
H184 H 0.28452 0.46829 0.19921 0.0
H185 H 0.23422 0.46428 0.11157 0.0
H186 H 0.27927 0.49192 0.03435 0.0
H187 H 0.24975 0.50971 0.00728 0.0
H188 H 0.23358 0.45371 0.01374 0.0
H189 H 0.2093 0.45976 0.94852 0.0
H190 H 0.29578 0.51422 0.14527 0.0
H191 H 0.31427 0.46008 0.11154 0.0
H192 H 0.22588 0.51576 0.93853 0.0
H193 H 0.32459 0.52114 0.19093 0.0
H194 H 0.34285 0.46666 0.15788 0.0
C195 C 0.03729 0.26873 0.31544 0.0
C196 C 0.04417 0.25111 0.32116 0.0
C197 C 0.03583 0.27674 0.26257 0.0
C198 C 0.04196 0.26773 0.21394 0.0
C199 C 0.05082 0.25104 0.22065 0.0
C200 C 0.05166 0.24272 0.27332 0.0
C201 C 0.03746 0.27487 0.15681 0.0
C202 C 0.03474 0.29342 0.14857 0.0
C203 C 0.02691 0.30009 0.0992 0.0
C204 C 0.02296 0.2881 0.05471 0.0
C205 C 0.02715 0.26952 0.06029 0.0
C206 C 0.03395 0.26308 0.11175 0.0
C207 C 0.0243 0.25612 0.01438 0.0
C208 C 0.00688 0.25169 0.99558 0.0
C209 C 0.03895 0.24556 0.99602 0.0
C210 C 0.03624 0.23051 0.9614 0.0
C211 C 0.01874 0.22544 0.94459 0.0
C212 C 0.02165 0.31942 0.09994 0.0
C213 C 1.00502 0.32407 0.12436 0.0
C214 C 0.03515 0.3327 0.09603 0.0
C215 C 0.03262 0.34979 0.12032 0.0
C216 C 0.01664 0.35388 0.15008 0.0
C217 C 1.00253 0.34107 0.14923 0.0
C218 C 1.00411 0.23645 0.96126 0.0
H219 H 0.032 0.27599 0.35133 0.0
H220 H 0.02882 0.28955 0.2601 0.0
H221 H 0.05638 0.24392 0.1849 0.0
H222 H 0.05711 0.22916 0.2753 0.0
H223 H 0.03794 0.30288 0.18184 0.0
H224 H 0.03572 0.24864 0.11697 0.0
H225 H 0.01691 0.29316 0.01636 0.0
H226 H 0.99532 0.25943 0.00978 0.0
H227 H 0.0525 0.24853 0.01047 0.0
H228 H 0.04782 0.22233 0.95016 0.0
H229 H 0.99459 0.31391 0.12946 0.0
H230 H 0.04825 0.32933 0.07858 0.0
H231 H 0.99047 0.23306 0.94874 0.0
H232 H 0.99007 0.34348 0.17189 0.0
H233 H 0.04365 0.3594 0.11865 0.0
C234 C 0.24749 0.99505 0.32318 0.0
C235 C 0.26571 0.99971 0.3312 0.0
C236 C 0.23893 0.99856 0.27204 0.0
C237 C 0.24817 0.00736 0.22798 0.0
C238 C 0.26618 0.01259 0.23673 0.0
C239 C 0.2749 0.00856 0.2871 0.0
C240 C 0.23915 0.01083 0.17298 0.0
C241 C 0.22056 0.01418 0.17067 0.0
C242 C 0.21163 0.01651 0.11929 0.0
C243 C 0.2217 0.01666 0.06879 0.0
C244 C 0.24056 0.01362 0.0705 0.0
C245 C 0.24897 0.01042 0.12243 0.0
C246 C 0.25221 0.01356 0.01957 0.0
C247 C 0.26097 0.9975 1.00358 0.0
C248 C 0.25794 0.02996 0.9956 0.0
C249 C 0.27283 0.0304 0.95893 0.0
C250 C 0.2823 0.01443 0.94535 0.0
C251 C 0.19164 0.01748 0.12177 0.0
C252 C 0.18222 1.00204 0.13972 0.0
C253 C 0.18285 0.03428 0.12345 0.0
C254 C 0.16544 0.03575 0.14665 0.0
C255 C 0.15662 0.0205 0.16977 0.0
C256 C 0.16501 1.0035 0.16358 0.0
C257 C 0.27574 0.9979 0.96664 0.0
H258 H 0.23977 0.98851 0.35609 0.0
H259 H 0.22514 0.99399 0.26697 0.0
H260 H 0.2737 0.01973 0.20456 0.0
H261 H 0.28904 0.01206 0.29049 0.0
H262 H 0.21274 0.01483 0.20918 0.0
H263 H 0.26331 0.00747 0.123 0.0
H264 H 0.21495 0.01861 0.02888 0.0
H265 H 0.25707 0.98474 0.02246 0.0
H266 H 0.25167 0.04256 0.00815 0.0
H267 H 0.27736 0.04334 0.94287 0.0
H268 H 0.18888 0.98898 0.14011 0.0
H269 H 0.18996 0.04644 0.11088 0.0
H270 H 0.28272 0.98536 0.95774 0.0
H271 H 0.15904 0.99139 0.18117 0.0
H272 H 0.15933 0.04903 0.14908 0.0
C273 C 0.48199 0.27892 0.93596 0.0
C274 C 0.4979 0.2892 0.92924 0.0
C275 C 0.48192 0.2632 0.96941 0.0
C276 C 0.49777 0.25736 0.99633 0.0
C277 C 0.51389 0.26685 0.98617 0.0
C278 C 0.51398 0.2825 0.95294 0.0
C279 C 0.49674 0.2451 0.04585 0.0
C280 C 0.49429 0.22613 0.04208 0.0
C281 C 0.49367 0.21561 0.09185 0.0
C282 C 0.49513 0.22411 0.14421 0.0
C283 C 0.4975 0.24277 0.14814 0.0
C284 C 0.49837 0.25314 0.09899 0.0
C285 C 0.49907 0.25146 0.20375 0.0
C286 C 0.48667 0.24742 0.2468 0.0
C287 C 0.51276 0.26414 0.21363 0.0
C288 C 0.51363 0.27318 0.26486 0.0
C289 C 0.50071 0.26985 0.30701 0.0
C290 C 0.49195 0.19565 0.09311 0.0
C291 C 0.47499 0.18803 0.10489 0.0
C292 C 0.5075 0.18526 0.10313 0.0
C293 C 0.50623 0.16827 0.12917 0.0
C294 C 0.48934 0.16135 0.14606 0.0
C295 C 0.47369 0.17103 0.13082 0.0
C296 C 0.48746 0.25658 0.29805 0.0
H297 H 0.46934 0.28367 0.9186 0.0
H298 H 0.46922 0.25642 0.97767 0.0
H299 H 0.52624 0.26282 0.00716 0.0
H300 H 0.52656 0.28982 0.94787 0.0
H301 H 0.49315 0.21969 1.00138 0.0
H302 H 0.50002 0.26769 0.10206 0.0
H303 H 0.49474 0.21602 0.18232 0.0
H304 H 0.47596 0.23769 0.24006 0.0
H305 H 0.5227 0.2672 0.1815 0.0
H306 H 0.52422 0.28309 0.27105 0.0
H307 H 0.46282 0.19593 0.09891 0.0
H308 H 0.52076 0.19105 0.09603 0.0
H309 H 0.47725 0.25385 0.32958 0.0
H310 H 0.46043 0.16599 0.14209 0.0
H311 H 0.5186 0.16135 0.14038 0.0
C312 C 0.97187 0.03318 0.54855 0.0
Eu313 Eu 0.98681 0.01493 0.62879 0.0
C314 C 0.97482 0.05218 0.53166 0.0
C315 C 0.96308 0.06576 0.5511 0.0
C316 C 0.96758 0.08398 0.54483 0.0
C317 C 0.98383 0.08896 0.51854 0.0
C318 C 0.99508 0.07542 0.49637 0.0
C319 C 0.99059 0.05723 0.50263 0.0
C320 C 0.97017 1.00119 0.72118 0.0
C321 C 1.0044 0.04447 0.71581 0.0
C322 C 0.02422 0.98692 0.81739 0.0
Eu323 Eu 0.01227 1.00177 0.72603 0.0
C324 C 0.03693 0.97209 0.82778 0.0
C325 C 0.04847 0.96609 0.7848 0.0
C326 C 0.05954 0.95104 0.79321 0.0
C327 C 0.05914 0.94163 0.84461 0.0
C328 C 0.04776 0.94794 0.88789 0.0
C329 C 0.03676 0.96306 0.87949 0.0
C330 C 0.03221 0.00822 0.6308 0.0
C331 C 0.99774 0.97313 0.63029 0.0
O332 O 0.98533 0.02196 0.54001 0.0
O333 O 0.96429 0.03094 0.59788 0.0
O334 O 0.9646 0.99863 0.67005 0.0
O335 O 0.9839 0.01132 0.72125 0.0
O336 O 0.99773 0.04126 0.66514 0.0
O337 O 0.00913 0.03118 0.75013 0.0
O338 O 0.00901 0.98213 0.79342 0.0
O339 O 0.0312 1.00169 0.79576 0.0
O340 O 0.0391 1.00246 0.67756 0.0
O341 O 0.01554 0.01007 0.63821 0.0
O342 O 1.00378 0.97565 0.68227 0.0
O343 O 0.99221 0.98669 0.59826 0.0
H344 H 0.95075 0.06228 0.57324 0.0
H345 H 0.95847 0.09415 0.56125 0.0
H346 H 0.00774 0.07883 0.47604 0.0
H347 H 0.9999 0.04715 0.48674 0.0
H348 H 0.04866 0.97284 0.74436 0.0
H349 H 0.06824 0.94665 0.75923 0.0
H350 H 0.04684 0.94083 0.92761 0.0
H351 H 0.02778 0.96742 0.91285 0.0
C352 C 0.48014 0.97512 0.56013 0.0
Eu353 Eu 0.49555 0.99545 0.6348 0.0
C354 C 0.46156 0.96817 0.55627 0.0
C355 C 0.45344 0.95896 0.60153 0.0
C356 C 0.43499 0.95502 0.60064 0.0
C357 C 0.42427 0.96042 0.55488 0.0
C358 C 0.43263 0.96914 0.50899 0.0
C359 C 0.45108 0.97283 0.50955 0.0
C360 C 0.50618 0.98285 0.73689 0.0
C361 C 0.46306 0.01266 0.71212 0.0
C362 C 0.51886 0.04526 0.78691 0.0
Eu363 Eu 0.50413 0.02418 0.71241 0.0
C364 C 0.53694 0.05329 0.7944 0.0
C365 C 0.53894 0.07217 0.79459 0.0
C366 C 0.55601 0.07999 0.80074 0.0
C367 C 0.57143 0.06907 0.8073 0.0
C368 C 0.56935 0.05014 0.80694 0.0
C369 C 0.55234 0.04234 0.80028 0.0
C370 C 0.49342 0.03655 0.61002 0.0
C371 C 0.53656 0.00646 0.63582 0.0
O372 O 0.48162 0.99267 0.55482 0.0
O373 O 0.49023 0.96866 0.6005 0.0
O374 O 0.51152 0.97622 0.68927 0.0
O375 O 0.4955 0.99593 0.72874 0.0
O376 O 0.46747 1.00395 0.66558 0.0
O377 O 0.47563 0.02034 0.7431 0.0
O378 O 0.51751 0.02772 0.79302 0.0
O379 O 0.50951 0.05129 0.74435 0.0
O380 O 0.48801 0.04323 0.65748 0.0
O381 O 0.50422 0.02361 0.61856 0.0
O382 O 0.53221 0.01501 0.68281 0.0
O383 O 0.52391 0.99929 0.60408 0.0
H384 H 0.46118 0.95534 0.63848 0.0
H385 H 0.42909 0.94807 0.63632 0.0
H386 H 0.42483 0.97391 0.47348 0.0
H387 H 0.45701 0.98012 0.47454 0.0
H388 H 0.52727 0.08088 0.78979 0.0
H389 H 0.55711 0.09459 0.80017 0.0
H390 H 0.58082 0.04127 0.81305 0.0
H391 H 0.55129 0.02773 0.80006 0.0
C392 C 0.52407 0.48469 0.53849 0.0
Eu393 Eu 0.51074 0.50326 0.62062 0.0
C394 C 0.52165 0.46514 0.52935 0.0
C395 C 0.53668 0.45359 0.53047 0.0
C396 C 0.53432 0.43488 0.53447 0.0
C397 C 0.51686 0.42743 0.53744 0.0
C398 C 0.50185 0.43895 0.53347 0.0
C399 C 0.5042 0.4576 0.5296 0.0
C400 C 0.52885 0.51601 0.71095 0.0
C401 C 0.4948 0.47261 0.70949 0.0
C402 C 0.4733 0.53334 0.79453 0.0
Eu403 Eu 0.48659 0.51433 0.71342 0.0
C404 C 0.47782 0.55243 0.8055 0.0
C405 C 0.46424 0.56568 0.80417 0.0
C406 C 0.46882 0.58402 0.80116 0.0
C407 C 0.48705 0.58934 0.79906 0.0
C408 C 0.50056 0.5761 0.80324 0.0
C409 C 0.49602 0.55787 0.80637 0.0
C410 C 0.46873 0.50237 0.62108 0.0
C411 C 0.50322 0.54498 0.62658 0.0
O412 O 0.50959 0.49472 0.53312 0.0
O413 O 0.53347 0.48887 0.58311 0.0
O414 O 0.53356 0.51917 0.65922 0.0
O415 O 0.51522 0.5057 0.71265 0.0
O416 O 0.50145 0.47636 0.65906 0.0
O417 O 0.48903 0.48559 0.74291 0.0
O418 O 0.48636 0.52165 0.80214 0.0
O419 O 0.46456 0.53056 0.74763 0.0
O420 O 0.46366 0.49886 0.67231 0.0
O421 O 0.48244 0.51248 0.62142 0.0
O422 O 0.49698 0.54111 0.67738 0.0
O423 O 0.50822 0.53205 0.59181 0.0
H424 H 0.55024 0.4591 0.53112 0.0
H425 H 0.54614 0.42631 0.53755 0.0
H426 H 0.48824 0.43358 0.53443 0.0
H427 H 0.49228 0.4661 0.52941 0.0
H428 H 0.45014 0.5618 0.80253 0.0
H429 H 0.45813 0.59398 0.79807 0.0
H430 H 0.51472 0.57982 0.803 0.0
H431 H 0.50687 0.54803 0.80662 0.0
C432 C 0.02549 0.53096 0.50206 0.0
Eu433 Eu 0.00969 0.52379 0.59621 0.0
C434 C 0.04305 0.52352 0.4833 0.0
C435 C 0.05889 0.53367 0.4916 0.0
C436 C 0.07573 0.52516 0.49225 0.0
C437 C 0.07697 0.50639 0.4846 0.0
C438 C 0.06138 0.49656 0.47082 0.0
C439 C 0.04459 0.50512 0.46937 0.0
C440 C 1.00129 0.546 0.6847 0.0
C441 C 0.03819 0.50911 0.68866 0.0
C442 C 0.98531 0.48525 0.79192 0.0
Eu443 Eu 0.99492 0.50073 0.69841 0.0
C444 C 0.97034 0.47355 0.80917 0.0
C445 C 0.95707 0.46846 0.77029 0.0
C446 C 0.94237 0.45798 0.7875 0.0
C447 C 0.94069 0.4525 0.84392 0.0
C448 C 0.9543 0.45729 0.88234 0.0
C449 C 0.96902 0.46774 0.86504 0.0
C450 C 0.9982 0.48326 0.59884 0.0
C451 C 0.96626 0.51824 0.61141 0.0
O452 O 0.01196 0.51949 0.50575 0.0
O453 O 0.02651 0.54164 0.54586 0.0
O454 O 0.00706 0.55185 0.63644 0.0
O455 O 0.99991 0.52911 0.68165 0.0
O456 O 0.0358 0.51505 0.63682 0.0
O457 O 0.02446 0.50459 0.72165 0.0
O458 O 0.98085 0.50188 0.77866 0.0
O459 O 0.99683 0.47808 0.75654 0.0
O460 O 0.98516 0.48042 0.63426 0.0
O461 O 0.00928 0.49458 0.61863 0.0
O462 O 0.9689 0.51217 0.66333 0.0
O463 O 0.97979 0.52188 0.57641 0.0
H464 H 0.05815 0.54792 0.50191 0.0
H465 H 0.08761 0.53305 0.50231 0.0
H466 H 0.06211 0.48214 0.46312 0.0
H467 H 0.03272 0.49704 0.46106 0.0
H468 H 0.95793 0.47289 0.72692 0.0
H469 H 0.93199 0.45473 0.75711 0.0
H470 H 0.95346 0.45312 0.92594 0.0
H471 H 0.97923 0.47151 0.89543 0.0
H472 H 0.12873 0.99601 0.18577 0.0
H473 H 0.10527 0.99683 0.2573 0.0
H474 H 0.12206 0.05047 0.3052 0.0
H475 H 0.14668 0.04909 0.23767 0.0
H476 H 0.11857 0.03239 0.39367 0.0
H477 H 0.05701 0.01821 0.27175 0.0
H478 H 0.07312 1.00049 0.26108 0.0
H479 H 0.07828 0.02319 0.23808 0.0
C480 C 0.12754 0.00803 0.21141 0.0
C481 C 0.13998 0.02238 0.20574 0.0
C482 C 0.11375 0.00862 0.25185 0.0
C483 C 0.11156 0.02382 0.28665 0.0
C484 C 0.12333 0.03855 0.27907 0.0
H485 H 0.0225 0.0275 0.5364 0.0
H486 H 0.04098 0.03291 0.45176 0.0
C487 C 0.13737 0.03782 0.23953 0.0
C488 C 0.09835 0.02363 0.33452 0.0
H489 H 0.05513 0.01216 0.37175 0.0
C490 C 0.10463 0.02822 0.3884 0.0
C491 C 0.07998 0.01852 0.32835 0.0
C492 C 0.07168 0.01504 0.27154 0.0
C493 C 0.09341 0.02723 0.43602 0.0
C494 C 0.07551 0.02067 0.43052 0.0
C495 C 0.06893 0.01682 0.37645 0.0
C496 C 0.0638 0.01708 0.48064 0.0
C497 C 0.10093 0.03341 0.49172 0.0
C498 C 0.07016 1.00603 0.52446 0.0
C499 C 0.05977 1.00322 0.57279 0.0
C500 C 0.04252 0.01095 0.57801 0.0
C501 C 0.03574 0.02139 0.53337 0.0
C502 C 0.04631 0.02448 0.4851 0.0
H503 H 0.11162 0.04379 0.48575 0.0
H504 H 0.09023 0.03917 0.51911 0.0
H505 H 0.10717 0.02173 0.51363 0.0
H506 H 0.08327 0.99961 0.52148 0.0
H507 H 0.06527 0.9949 0.60617 0.0
H508 H 0.50972 0.13 0.14608 0.0
H509 H 0.50965 0.10576 0.2166 0.0
H510 H 0.46701 0.13291 0.30672 0.0
H511 H 0.46701 0.15706 0.23702 0.0
H512 H 0.51697 0.10817 0.32828 0.0
H513 H 0.44752 0.08204 0.30246 0.0
H514 H 0.45799 0.09681 0.25145 0.0
H515 H 0.44783 0.106 0.31404 0.0
C516 C 0.5002 0.13073 0.18061 0.0
C517 C 0.48824 0.14548 0.18525 0.0
C518 C 0.50016 0.11682 0.2209 0.0
C519 C 0.48811 0.11727 0.26665 0.0
C520 C 0.47608 0.13189 0.27108 0.0
H521 H 0.47242 0.06595 0.58753 0.0
H522 H 0.47143 0.08395 0.5011 0.0
C523 C 0.47608 0.14574 0.2309 0.0
C524 C 0.48883 0.10319 0.31178 0.0
H525 H 0.46256 0.07405 0.38834 0.0
C526 C 0.50514 0.10051 0.34082 0.0
C527 C 0.47341 0.09314 0.32837 0.0
C528 C 0.45575 0.09449 0.29706 0.0
C529 C 0.50624 0.08872 0.38727 0.0
C530 C 0.49067 0.07912 0.4049 0.0
C531 C 0.47448 0.08144 0.37503 0.0
C532 C 0.49068 0.06739 0.456 0.0
C533 C 0.52388 0.08718 0.41857 0.0
C534 C 0.5015 0.05178 0.45914 0.0
C535 C 0.50204 0.0414 0.50859 0.0
C536 C 0.49177 0.04644 0.55586 0.0
C537 C 0.48055 0.06174 0.55196 0.0
C538 C 0.47996 0.07204 0.50253 0.0
H539 H 0.5335 0.09807 0.40668 0.0
H540 H 0.52158 0.08773 0.46468 0.0
H541 H 0.53027 0.07398 0.40868 0.0
H542 H 0.50966 0.04772 0.42349 0.0
H543 H 0.51077 0.02965 0.5102 0.0
H544 H 0.37111 0.48244 0.16719 0.0
H545 H 0.39542 0.48371 0.23687 0.0
H546 H 0.36056 0.51312 0.34965 0.0
H547 H 0.33621 0.5118 0.28076 0.0
H548 H 0.39537 0.52702 0.34637 0.0
H549 H 0.39646 0.45265 0.37956 0.0
H550 H 0.39976 0.45975 0.30803 0.0
H551 H 0.3785 0.46392 0.34215 0.0
C552 C 0.36861 0.48922 0.20676 0.0
C553 C 0.35161 0.49696 0.21819 0.0
C554 C 0.38253 0.48989 0.24666 0.0
C555 C 0.37973 0.49821 0.29901 0.0
C556 C 0.36305 0.50657 0.30966 0.0
H557 H 0.43574 0.48581 0.61622 0.0
H558 H 0.41504 0.48455 0.53597 0.0
C559 C 0.34915 0.50592 0.26988 0.0
C560 C 0.39395 0.49798 0.34334 0.0
H561 H 0.41827 0.46976 0.42867 0.0
C562 C 0.40045 0.5145 0.36417 0.0
C563 C 0.4004 0.48163 0.3672 0.0
C564 C 0.39334 0.46346 0.34858 0.0
C565 C 0.41317 0.51515 0.40802 0.0
C566 C 0.41982 0.4988 0.43128 0.0
C567 C 0.41331 0.48228 0.41052 0.0
C568 C 0.43295 0.49863 0.47875 0.0
C569 C 0.41896 0.53335 0.43019 0.0
C570 C 0.45013 0.5065 0.47299 0.0
C571 C 0.46197 0.50725 0.51883 0.0
C572 C 0.4569 0.50005 0.57132 0.0
C573 C 0.44 0.49154 0.57642 0.0
C574 C 0.42816 0.49081 0.53057 0.0
H575 H 0.40949 0.54427 0.41744 0.0
H576 H 0.41988 0.53317 0.47678 0.0
H577 H 0.43251 0.53672 0.41313 0.0
H578 H 0.45431 0.51227 0.43316 0.0
H579 H 0.47495 0.51379 0.51345 0.0
H580 H 0.98678 0.3749 0.17526 0.0
H581 H 0.98442 0.3988 0.246 0.0
H582 H 0.04133 0.39411 0.28026 0.0
H583 H 0.04378 0.36979 0.21156 0.0
H584 H 0.99587 0.39291 0.36571 0.0
H585 H 0.03118 0.45027 0.26117 0.0
H586 H 0.02104 0.43197 0.22201 0.0
H587 H 0.04195 0.42845 0.25836 0.0
C588 C 0.99885 0.37893 0.19758 0.0
C589 C 0.01548 0.37024 0.18726 0.0
C590 C 0.99747 0.39271 0.23784 0.0
C591 C 0.01272 0.39835 0.26814 0.0
C592 C 0.02943 0.3902 0.25677 0.0
H593 H 0.0299 0.47447 0.54536 0.0
H594 H 0.03369 0.45418 0.4643 0.0
C595 C 0.0308 0.37631 0.21699 0.0
C596 C 0.01091 0.41166 0.31476 0.0
H597 H 0.02252 0.45441 0.35602 0.0
C598 C 1.0016 0.4064 0.3635 0.0
C599 C 0.01867 0.42912 0.3122 0.0
C600 C 0.02871 0.43545 0.2606 0.0
C601 C 0.99996 0.41802 0.40998 0.0
C602 C 0.00731 0.43573 0.40707 0.0
C603 C 0.01678 0.44093 0.35833 0.0
C604 C 1.00509 0.44899 0.45396 0.0
C605 C 0.99082 0.41095 0.46236 0.0
C606 C 0.98778 0.45333 0.47423 0.0
C607 C 0.98565 0.46474 0.52064 0.0
C608 C 1.00074 0.47247 0.54703 0.0
C609 C 0.01803 0.4688 0.52548 0.0
C610 C 0.02019 0.45716 0.47929 0.0
H611 H 0.99129 0.39594 0.46439 0.0
H612 H 0.9972 0.41644 0.50093 0.0
H613 H 0.9764 0.41503 0.46198 0.0
H614 H 0.97587 0.44771 0.45455 0.0
H615 H 0.97215 0.46745 0.53613 0.0
H616 H 0.87205 0.00976 0.16942 0.0
H617 H 0.89624 0.00737 0.09945 0.0
H618 H 0.86095 0.97694 0.99113 0.0
H619 H 0.83653 0.97983 0.05959 0.0
H620 H 0.91379 0.9783 0.04447 0.0
H621 H 0.87494 0.02057 0.89429 0.0
H622 H 0.86872 0.01844 0.96735 0.0
H623 H 0.86305 1.00086 0.9183 0.0
C624 C 0.86943 1.00249 0.13081 0.0
C625 C 0.85219 0.99518 0.12008 0.0
C626 C 0.88333 1.00104 0.09097 0.0
C627 C 0.88031 0.99231 0.03949 0.0
C628 C 0.8635 0.98405 0.03008 0.0
H629 H 0.9386 0.98239 0.72494 0.0
H630 H 0.91799 0.97894 0.80468 0.0
C631 C 0.84959 0.98552 0.06976 0.0
C632 C 0.89431 0.9927 0.99441 0.0
H633 H 0.90192 0.00742 0.86019 0.0
C634 C 0.91123 0.98469 1.0042 0.0
C635 C 0.89103 1.00118 0.94199 0.0
C636 C 0.87353 0.01091 0.92984 0.0
C637 C 0.92477 0.98453 0.96243 0.0
C638 C 0.92137 0.99282 0.9098 0.0
C639 C 0.9045 1.00095 0.90034 0.0
C640 C 0.93497 0.9933 0.86355 0.0
C641 C 0.94242 0.97512 0.97449 0.0
C642 C 0.95155 1.00233 0.87011 0.0
C643 C 0.96342 1.00429 0.82443 0.0
C644 C 0.95883 0.99739 0.77127 0.0
C645 C 0.94251 0.98789 0.7653 0.0
C646 C 0.93069 0.98592 0.81087 0.0
H647 H 0.94124 0.96562 0.01054 0.0
H648 H 0.94722 0.96752 0.93712 0.0
H649 H 0.95279 0.98539 0.98517 0.0
H650 H 0.95504 0.00843 0.90999 0.0
H651 H 0.97588 0.01173 0.83024 0.0
H652 H 0.53175 0.88372 0.17926 0.0
H653 H 0.52976 0.90771 0.10915 0.0
H654 H 0.48059 0.88434 0.04508 0.0
H655 H 0.48318 0.85958 0.11212 0.0
H656 H 0.50205 0.89099 0.96223 0.0
H657 H 0.50072 0.95257 0.09335 0.0
H658 H 0.52012 0.93892 0.10853 0.0
H659 H 0.49782 0.93026 0.1228 0.0
C660 C 0.52045 0.88365 0.15047 0.0
C661 C 0.50771 0.86947 0.1516 0.0
C662 C 0.51917 0.89763 0.11077 0.0
C663 C 0.5049 0.89808 0.0719 0.0
C664 C 0.49173 0.88441 0.07456 0.0
H665 H 0.48503 0.98618 0.83127 0.0
H666 H 0.48455 0.96609 0.9136 0.0
C667 C 0.49313 0.87029 0.11368 0.0
C668 C 0.50455 0.91171 0.02533 0.0
H669 H 0.5078 0.95692 0.99562 0.0
C670 C 0.50314 0.90541 0.96979 0.0
C671 C 0.50575 0.93061 0.03469 0.0
C672 C 0.50599 0.9385 0.09311 0.0
C673 C 0.50324 0.91732 0.92366 0.0
C674 C 0.50546 0.93612 0.9328 0.0
C675 C 0.50642 0.94251 0.98835 0.0
C676 C 0.50668 0.94926 0.88515 0.0
C677 C 0.5006 0.90955 0.86558 0.0
C678 C 0.51968 0.94697 0.84259 0.0
C679 C 0.51982 0.95827 0.79532 0.0
C680 C 0.50722 0.97238 0.79004 0.0
C681 C 0.49489 0.97539 0.83411 0.0
C682 C 0.4946 0.9639 0.88117 0.0
H683 H 0.49351 0.89631 0.8672 0.0
H684 H 0.4927 0.91887 0.83845 0.0
H685 H 0.51398 0.90729 0.84576 0.0
H686 H 0.52953 0.93618 0.84537 0.0
H687 H 0.52961 0.95575 0.76236 0.0
H688 H 0.66677 0.53568 0.03165 0.0
H689 H 0.6415 0.53882 0.96644 0.0
H690 H 0.6073 0.50898 0.08041 0.0
H691 H 0.63236 0.50628 0.14677 0.0
H692 H 0.62457 0.51006 0.916 0.0
H693 H 0.57437 0.55063 0.03469 0.0
H694 H 0.59782 0.54925 0.05501 0.0
H695 H 0.58254 0.53114 0.07195 0.0
C696 C 0.65375 0.53025 0.04376 0.0
C697 C 0.65166 0.52073 0.09466 0.0
C698 C 0.63932 0.53193 0.00611 0.0
C699 C 0.62242 0.52427 0.01856 0.0
C700 C 0.62009 0.51529 0.07015 0.0
H701 H 0.5255 0.50372 0.81942 0.0
H702 H 0.54774 0.50651 0.8955 0.0
C703 C 0.63452 0.51359 0.10785 0.0
C704 C 0.60783 0.52424 0.97544 0.0
H705 H 0.56406 0.53673 0.95032 0.0
C706 C 0.61139 0.51603 0.92342 0.0
C707 C 0.59055 0.53185 0.98525 0.0
C708 C 0.58608 0.54136 0.03955 0.0
C709 C 0.59816 0.515 0.88129 0.0
C710 C 0.58092 0.52272 0.89083 0.0
C711 C 0.57728 0.53086 0.94296 0.0
C712 C 0.56665 0.52247 0.8468 0.0
C713 C 0.60265 0.50526 0.82731 0.0
C714 C 0.56958 0.53102 0.79483 0.0
C715 C 0.55697 0.52939 0.75142 0.0
C716 C 0.54108 0.51928 0.75915 0.0
C717 C 0.53768 0.5115 0.81212 0.0
C718 C 0.55036 0.5131 0.85561 0.0
H719 H 0.61447 0.49614 0.83232 0.0
H720 H 0.59098 0.49716 0.81244 0.0
H721 H 0.60602 0.51536 0.79435 0.0
H722 H 0.58185 0.53865 0.78743 0.0
H723 H 0.55988 0.53572 0.71131 0.0
H724 H 0.96599 0.65987 0.09328 0.0
H725 H 0.96298 0.63489 0.02606 0.0
H726 H 0.0209 0.63312 0.00719 0.0
H727 H 0.02398 0.65775 0.07424 0.0
H728 H 0.97197 0.63327 0.91813 0.0
H729 H 0.01064 0.58045 0.02929 0.0
H730 H 1.00356 0.60107 0.06336 0.0
H731 H 0.02388 0.60059 0.02153 0.0
C732 C 0.97808 0.65403 0.07517 0.0
C733 C 0.99524 0.66069 0.08987 0.0
C734 C 0.97635 0.63971 0.03682 0.0
C735 C 0.99173 0.63177 0.01234 0.0
C736 C 0.00883 0.6385 0.02679 0.0
H737 H 0.00558 0.58229 0.69138 0.0
H738 H 1.00108 0.60185 0.77259 0.0
C739 C 0.01058 0.65267 0.06524 0.0
C740 C 0.99004 0.61731 0.9689 0.0
H741 H 0.00735 0.5764 0.92901 0.0
C742 C 0.9795 0.62072 0.92099 0.0
C743 C 0.99951 0.60069 0.97276 0.0
C744 C 0.00986 0.59539 0.02484 0.0
C745 C 0.97898 0.60849 0.87576 0.0
C746 C 0.98968 0.5926 0.87766 0.0
C747 C 0.99939 0.58869 0.92689 0.0
C748 C 0.99184 0.58049 0.82795 0.0
C749 C 0.96699 0.61282 0.82631 0.0
C750 C 0.98874 0.56175 0.83207 0.0
C751 C 0.99156 0.55042 0.78552 0.0
C752 C 0.99759 0.55763 0.73412 0.0
C753 C 1.00073 0.57633 0.73022 0.0
C754 C 0.99802 0.58759 0.77661 0.0
H755 H 0.95533 0.62132 0.83922 0.0
H756 H 0.97486 0.62058 0.79467 0.0
H757 H 0.96178 0.60033 0.80616 0.0
H758 H 0.98416 0.55588 0.87134 0.0
H759 H 0.9892 0.53606 0.78989 0.0
H760 H 0.06452 0.22326 0.3662 0.0
H761 H 0.05322 0.19997 0.4297 0.0
H762 H 0.00587 0.2321 0.46335 0.0
H763 H 0.01594 0.25452 0.39615 0.0
H764 H 0.03909 0.19363 0.53658 0.0
H765 H 0.98582 0.19064 0.37149 0.0
H766 H 1.00554 0.20468 0.36427 0.0
H767 H 0.98722 0.21158 0.40921 0.0
C768 C 0.05174 0.2255 0.38724 0.0
C769 C 0.04082 0.24046 0.37349 0.0
C770 C 0.04545 0.21228 0.4244 0.0
C771 C 0.02838 0.21405 0.44942 0.0
C772 C 0.01885 0.23028 0.44306 0.0
H773 H 0.98129 0.11491 0.60035 0.0
H774 H 0.99076 0.14665 0.59391 0.0
C775 C 0.02483 0.24325 0.40472 0.0
C776 C 0.01924 0.19779 0.47181 0.0
H777 H 0.9859 0.16781 0.43868 0.0
C778 C 0.02727 0.18809 0.51597 0.0
C779 C 1.0039 0.19055 0.4442 0.0
C780 C 0.99516 0.19978 0.39441 0.0
C781 C 0.02084 0.17091 0.53156 0.0
C782 C 0.00595 0.16351 0.50249 0.0
C783 C 0.99731 0.17365 0.46073 0.0
C784 C 1.0006 0.1444 0.50852 0.0
C785 C 0.0306 0.16035 0.5765 0.0
C786 C 1.00273 0.13283 0.46232 0.0
C787 C 0.99713 0.1149 0.4655 0.0
C788 C 0.9893 0.10817 0.51506 0.0
C789 C 0.98714 0.11979 0.56143 0.0
C790 C 0.99273 0.13783 0.55813 0.0
H791 H 0.04318 0.16719 0.59039 0.0
H792 H 0.02162 0.15869 0.61354 0.0
H793 H 0.03408 0.14663 0.5609 0.0
H794 H 0.00868 0.13774 0.42353 0.0
H795 H 0.99877 0.10636 0.4289 0.0
H796 H 0.29399 0.01733 0.38221 0.0
H797 H 0.31411 1.00528 0.45286 0.0
H798 H 0.27848 0.95978 0.4779 0.0
H799 H 0.25958 0.97033 0.40116 0.0
H800 H 0.31544 0.99661 0.55521 0.0
H801 H 0.32105 0.93197 0.43594 0.0
H802 H 0.30821 0.95072 0.40937 0.0
H803 H 0.29931 0.93685 0.46534 0.0
C804 C 0.29052 1.00455 0.40166 0.0
C805 C 0.27554 0.99445 0.38348 0.0
C806 C 0.30191 0.99783 0.44326 0.0
C807 C 0.29827 0.98116 0.46934 0.0
C808 C 0.28209 0.9722 0.45657 0.0
H809 H 0.40109 0.96268 0.6456 0.0
H810 H 0.36812 0.96258 0.64378 0.0
C811 C 0.27105 0.97852 0.41314 0.0
C812 C 0.31254 0.97271 0.5046 0.0
H813 H 0.34253 0.93765 0.50376 0.0
C814 C 0.32129 0.98362 0.54446 0.0
C815 C 0.31994 0.95551 0.49155 0.0
C816 C 0.31176 0.94311 0.44806 0.0
C817 C 0.33843 0.9791 0.56529 0.0
C818 C 0.34648 0.96256 0.54851 0.0
C819 C 0.33647 0.95046 0.51554 0.0
C820 C 0.36622 0.95929 0.55352 0.0
C821 C 0.34834 0.99292 0.60024 0.0
C822 C 0.37616 0.95594 0.50425 0.0
C823 C 0.39492 0.95511 0.50552 0.0
C824 C 0.40431 0.95812 0.55585 0.0
C825 C 0.39435 0.96036 0.60593 0.0
C826 C 0.37544 0.96065 0.60486 0.0
H827 H 0.34124 1.00615 0.60142 0.0
H828 H 0.34949 0.98796 0.64412 0.0
H829 H 0.36215 0.99522 0.58342 0.0
H830 H 0.36945 0.95467 0.464 0.0
H831 H 0.40206 0.95271 0.46647 0.0
H832 H 0.50474 0.30618 0.31054 0.0
H833 H 0.50352 0.32586 0.39206 0.0
H834 H 0.49321 0.27998 0.49961 0.0
H835 H 0.49484 0.2598 0.41725 0.0
H836 H 0.471 0.32609 0.47589 0.0
H837 H 0.53915 0.31164 0.56306 0.0
H838 H 0.53555 0.30762 0.48916 0.0
H839 H 0.52403 0.29392 0.54014 0.0
C840 C 0.5025 0.30015 0.3515 0.0
C841 C 0.50013 0.28143 0.35762 0.0
C842 C 0.50162 0.31144 0.39794 0.0
C843 C 0.49827 0.3043 0.45152 0.0
C844 C 0.49581 0.28563 0.45836 0.0
H845 H 0.4926 0.41037 0.60642 0.0
H846 H 0.48699 0.37787 0.61447 0.0
C847 C 0.49669 0.27421 0.41145 0.0
C848 C 0.49755 0.31707 0.4988 0.0
H849 H 0.52794 0.34161 0.5738 0.0
C850 C 0.48307 0.32926 0.4997 0.0
C851 C 0.51328 0.32086 0.52991 0.0
C852 C 0.52893 0.30781 0.53107 0.0
C853 C 0.48503 0.34649 0.5233 0.0
C854 C 0.5018 0.35125 0.54772 0.0
C855 C 0.5152 0.33797 0.55441 0.0
C856 C 0.50721 0.37043 0.5529 0.0
C857 C 0.46999 0.36006 0.51536 0.0
C858 C 0.5211 0.37693 0.51798 0.0
C859 C 0.52463 0.3954 0.51434 0.0
C860 C 0.51419 0.40774 0.54511 0.0
C861 C 0.50077 0.40116 0.58183 0.0
C862 C 0.49751 0.38261 0.58643 0.0
H863 H 0.45857 0.35449 0.49064 0.0
H864 H 0.46469 0.36425 0.55698 0.0
H865 H 0.47512 0.3723 0.49343 0.0
H866 H 0.52868 0.36777 0.49138 0.0
H867 H 0.53495 0.40005 0.48541 0.0
H868 H 0.23474 0.44349 0.41831 0.0
H869 H 0.21092 0.44528 0.48987 0.0
H870 H 0.17059 0.44046 0.35996 0.0
H871 H 0.19397 0.43858 0.28938 0.0
H872 H 0.18914 0.47232 0.4959 0.0
H873 H 0.14568 0.41291 0.47935 0.0
H874 H 0.16843 0.41284 0.45165 0.0
H875 H 0.1497 0.42037 0.40889 0.0
C876 C 0.22077 0.44226 0.4054 0.0
C877 C 0.21626 0.44096 0.34808 0.0
C878 C 0.20719 0.4432 0.44634 0.0
C879 C 0.18892 0.44276 0.43058 0.0
C880 C 0.18452 0.4402 0.37375 0.0
H881 H 0.10973 0.51481 0.4398 0.0
H882 H 0.13798 0.49818 0.4505 0.0
C883 C 0.198 0.4392 0.33307 0.0
C884 C 0.17447 0.44851 0.4699 0.0
H885 H 0.12917 0.4427 0.4863 0.0
C886 C 0.17617 0.4655 0.49571 0.0
C887 C 0.15765 0.43947 0.47213 0.0
C888 C 0.1554 0.42028 0.45201 0.0
C889 C 0.16095 0.47475 0.51582 0.0
C890 C 0.14367 0.46703 0.50809 0.0
C891 C 0.14234 0.44898 0.49031 0.0
C892 C 0.12707 0.47822 0.50826 0.0
C893 C 0.16346 0.49314 0.542 0.0
C894 C 0.11139 0.47235 0.53603 0.0
C895 C 0.09511 0.48163 0.52872 0.0
C896 C 0.09429 0.49693 0.49365 0.0
C897 C 0.11007 0.50311 0.46726 0.0
C898 C 0.12625 0.49372 0.47401 0.0
H899 H 0.17608 0.49351 0.56717 0.0
H900 H 0.1648 0.50345 0.50829 0.0
H901 H 0.15192 0.49684 0.56956 0.0
H902 H 0.11166 0.46037 0.56232 0.0
H903 H 0.08313 0.47679 0.55021 0.0
H904 H 0.08302 0.81122 0.10626 0.0
H905 H 0.09117 0.83627 0.04514 0.0
H906 H 0.09231 0.80037 0.90256 0.0
H907 H 0.08431 0.77491 0.96395 0.0
H908 H 0.11826 0.84507 0.96098 0.0
H909 H 0.04902 0.8347 0.87413 0.0
H910 H 0.05645 0.82332 0.93705 0.0
H911 H 0.06477 0.81625 0.86965 0.0
C912 C 0.08569 0.8084 0.06238 0.0
C913 C 0.08274 0.79106 0.0399 0.0
C914 C 0.09031 0.82281 0.02738 0.0
C915 C 0.09202 0.8202 0.96929 0.0
C916 C 0.09078 0.80266 0.94727 0.0
H917 H 0.06436 0.91454 0.76781 0.0
H918 H 0.07773 0.88483 0.78424 0.0
C919 C 0.08615 0.78817 0.98235 0.0
C920 C 0.09213 0.83628 0.93227 0.0
H921 H 0.06315 0.86208 0.85514 0.0
C922 C 0.10642 0.84866 0.93659 0.0
C923 C 0.07669 0.84087 0.90031 0.0
C924 C 0.06078 0.8282 0.89496 0.0
C925 C 0.1052 0.86598 0.91253 0.0
C926 C 0.08911 0.87109 0.8847 0.0
C927 C 0.07546 0.85818 0.87664 0.0
C928 C 0.08486 0.89017 0.87081 0.0
C929 C 0.12092 0.87878 0.91871 0.0
C930 C 0.08479 0.90323 0.9136 0.0
C931 C 0.07734 0.92031 0.90417 0.0
C932 C 0.06953 0.92459 0.852 0.0
C933 C 0.07042 0.9118 0.80833 0.0
C934 C 0.07801 0.89475 0.81768 0.0
H935 H 0.13391 0.87126 0.91949 0.0
H936 H 0.12135 0.88884 0.88402 0.0
H937 H 0.11967 0.8861 0.95921 0.0
H938 H 0.08955 0.89991 0.95537 0.0
H939 H 0.07711 0.92993 0.93845 0.0
H940 H 0.72069 0.10334 0.06082 0.0
H941 H 0.69544 0.11374 1.00253 0.0
H942 H 0.69455 0.06229 0.9177 0.0
H943 H 0.71925 0.05161 0.97617 0.0
H944 H 0.68702 0.09543 0.84713 0.0
H945 H 0.64607 0.08819 0.04316 0.0
H946 H 0.66586 0.10231 0.04473 0.0
H947 H 0.66826 0.0783 0.03692 0.0
C948 C 0.71529 0.09434 0.02917 0.0
C949 C 0.72186 0.07654 0.02377 0.0
C950 C 0.70098 0.10036 0.99569 0.0
C951 C 0.69311 0.0887 0.95628 0.0
C952 C 0.70055 0.07151 0.94771 0.0
H953 H 0.60429 0.05727 0.76859 0.0
H954 H 0.63399 0.0673 0.79878 0.0
C955 C 0.71474 0.06545 0.98121 0.0
C956 C 0.67557 0.09299 0.93005 0.0
H957 H 0.63053 0.09115 0.95877 0.0
C958 C 0.67463 0.09493 0.87147 0.0
C959 C 0.65949 0.09242 0.96209 0.0
C960 C 0.6598 0.09012 0.02519 0.0
C961 C 0.6579 0.09546 0.84375 0.0
C962 C 0.64182 0.09342 0.87546 0.0
C963 C 0.64283 0.0927 0.93436 0.0
C964 C 0.62407 0.0896 0.84911 0.0
C965 C 0.65769 0.09778 0.78077 0.0
C966 C 0.60848 0.09869 0.86741 0.0
C967 C 0.59137 0.09254 0.85181 0.0
C968 C 0.58951 0.07721 0.8173 0.0
C969 C 0.60519 0.06887 0.79614 0.0
C970 C 0.62226 0.07486 0.81243 0.0
H971 H 0.66917 0.10635 0.76666 0.0
H972 H 0.65928 0.08436 0.76054 0.0
H973 H 0.64489 0.10399 0.76602 0.0
H974 H 0.60953 0.11001 0.89609 0.0
H975 H 0.57964 0.09922 0.86936 0.0
H976 H 0.54216 0.70701 0.02907 0.0
H977 H 0.53874 0.68597 0.95205 0.0
H978 H 0.52923 0.73026 0.83755 0.0
H979 H 0.53278 0.75172 0.91539 0.0
H980 H 0.50314 0.70574 0.83025 0.0
H981 H 0.56747 0.66926 0.81962 0.0
H982 H 0.56091 0.67034 0.89198 0.0
H983 H 0.56554 0.69098 0.85386 0.0
C984 C 0.54003 0.71242 0.98727 0.0
C985 C 0.53782 0.73108 0.97843 0.0
C986 C 0.53812 0.70032 0.94302 0.0
C987 C 0.5341 0.70654 0.8887 0.0
C988 C 0.53252 0.7252 0.87904 0.0
H989 H 0.51295 0.60343 0.72982 0.0
H990 H 0.52406 0.63455 0.72757 0.0
C991 C 0.53445 0.7374 0.92356 0.0
C992 C 0.52901 0.69317 0.84532 0.0
H993 H 0.53998 0.65022 0.80757 0.0
C994 C 0.51141 0.69382 0.82348 0.0
C995 C 0.53994 0.67791 0.83429 0.0
C996 C 0.55959 0.67723 0.85071 0.0
C997 C 0.50369 0.6786 0.7979 0.0
C998 C 0.51366 0.66229 0.79605 0.0
C999 C 0.53204 0.66251 0.81058 0.0
C1000 C 0.5048 0.64449 0.78867 0.0
C1001 C 0.48467 0.67991 0.77577 0.0
C1002 C 0.49015 0.63972 0.8234 0.0
C1003 C 0.48379 0.62196 0.8248 0.0
C1004 C 0.49218 0.60856 0.79227 0.0
C1005 C 0.50636 0.61347 0.75586 0.0
C1006 C 0.51262 0.63126 0.75415 0.0
H1007 H 0.48221 0.69348 0.75715 0.0
H1008 H 0.4819 0.66945 0.74345 0.0
H1009 H 0.47499 0.67819 0.81106 0.0
H1010 H 0.4843 0.64947 0.85204 0.0
H1011 H 0.473 0.61853 0.85373 0.0
H1012 H 0.79169 0.46262 0.97987 0.0
H1013 H 0.81813 0.45206 0.92969 0.0
H1014 H 0.81358 0.39999 0.01073 0.0
H1015 H 0.7869 0.41069 0.0622 0.0
H1016 H 0.8459 0.41281 0.0246 0.0
H1017 H 0.83073 0.42067 0.80042 0.0
H1018 H 0.82449 0.44125 0.83482 0.0
H1019 H 0.81308 0.42045 0.85298 0.0
C1020 C 0.79583 0.44869 0.98559 0.0
C1021 C 0.78713 0.43749 0.02498 0.0
C1022 C 0.81099 0.44261 0.95652 0.0
C1023 C 0.81771 0.42509 0.96547 0.0
C1024 C 0.80855 0.41351 1.00277 0.0
H1025 H 0.92251 0.42466 0.79271 0.0
H1026 H 0.8935 0.41143 0.8213 0.0
C1027 C 0.79337 0.41966 0.03229 0.0
C1028 C 0.83576 0.42031 0.9428 0.0
H1029 H 0.86224 0.42814 0.82798 0.0
C1030 C 0.84938 0.41558 0.98113 0.0
C1031 C 0.8404 0.42334 0.88583 0.0
C1032 C 0.82629 0.42649 0.84121 0.0
C1033 C 0.86764 0.41592 0.96544 0.0
C1034 C 0.87236 0.42165 0.91059 0.0
C1035 C 0.85868 0.42423 0.87057 0.0
C1036 C 0.89093 0.42767 0.8965 0.0
C1037 C 0.88169 0.41096 0.00864 0.0
C1038 C 0.89909 0.44118 0.92918 0.0
C1039 C 0.91556 0.4487 0.91307 0.0
C1040 C 0.92415 0.44307 0.86342 0.0
C1041 C 0.91615 0.42932 0.83107 0.0
C1042 C 0.89965 0.4217 0.84747 0.0
H1043 H 0.87655 0.40023 0.03724 0.0
H1044 H 0.89438 0.40616 0.98868 0.0
H1045 H 0.88476 0.42299 0.03479 0.0
H1046 H 0.89234 0.44652 0.96602 0.0
H1047 H 0.92115 0.45953 0.93822 0.0
H1048 H 0.03904 0.21143 0.85792 0.0
H1049 H 0.03602 0.1819 0.81262 0.0
H1050 H 0.98943 0.17028 0.91546 0.0
H1051 H 0.99229 0.19983 0.96062 0.0
H1052 H 0.03881 0.14908 0.85798 0.0
H1053 H 0.97087 0.15531 0.76363 0.0
H1054 H 0.983 0.17453 0.79106 0.0
H1055 H 0.97071 0.15978 0.83773 0.0
C1056 C 0.02804 0.20267 0.87066 0.0
C1057 C 0.01588 0.20813 0.91298 0.0
C1058 C 0.02632 0.18575 0.84457 0.0
C1059 C 0.01236 0.17381 0.85991 0.0
C1060 C 1.00005 0.17932 0.90162 0.0
H1061 H 0.01409 0.05678 0.82034 0.0
H1062 H 0.01622 0.08803 0.85272 0.0
C1063 C 1.00171 0.19629 0.92755 0.0
C1064 C 0.01139 0.15525 0.83478 0.0
H1065 H 0.98318 0.12544 0.76859 0.0
C1066 C 0.02666 0.14399 0.83814 0.0
C1067 C 0.99568 0.14856 0.8079 0.0
C1068 C 0.9792 0.16023 0.79927 0.0
C1069 C 0.02651 0.12621 0.81692 0.0
C1070 C 0.0105 0.11919 0.7927 0.0
C1071 C 0.99539 0.13062 0.78782 0.0
C1072 C 0.00912 0.10003 0.77268 0.0
C1073 C 0.04367 0.11523 0.81995 0.0
C1074 C 1.00389 0.09615 0.71719 0.0
C1075 C 1.00245 0.07818 0.6986 0.0
C1076 C 0.00619 0.06362 0.73512 0.0
C1077 C 0.0113 0.06757 0.79075 0.0
C1078 C 0.01263 0.08551 0.80934 0.0
H1079 H 0.05578 0.12406 0.82274 0.0
H1080 H 0.04333 0.10663 0.8582 0.0
H1081 H 0.04515 0.10632 0.7827 0.0
H1082 H 1.00103 0.10704 0.68804 0.0
H1083 H 0.99841 0.07575 0.65552 0.0
H1084 H 0.29475 0.99119 0.86334 0.0
H1085 H 0.32472 0.99077 0.81899 0.0
H1086 H 0.3396 0.0385 0.91162 0.0
H1087 H 0.30986 0.03893 0.95655 0.0
H1088 H 0.34419 0.01926 0.75449 0.0
H1089 H 0.37856 0.99958 0.95275 0.0
H1090 H 0.35454 0.9969 0.94257 0.0
H1091 H 0.36378 0.01881 0.95775 0.0
C1092 C 0.30437 1.00165 0.87415 0.0
C1093 C 0.29982 0.01507 0.91373 0.0
C1094 C 0.32148 1.00142 0.84856 0.0
C1095 C 0.33451 0.01447 0.86245 0.0
C1096 C 0.32985 0.02818 0.90062 0.0
H1097 H 0.44814 0.03319 0.79598 0.0
H1098 H 0.41683 0.03344 0.82872 0.0
C1099 C 0.31273 0.0285 0.92589 0.0
C1100 C 0.35315 0.01351 0.83859 0.0
H1101 H 0.3973 0.0072 0.87576 0.0
C1102 C 0.35581 0.01653 0.78085 0.0
C1103 C 0.36832 0.00994 0.87299 0.0
C1104 C 0.36625 1.00597 0.9349 0.0
C1105 C 0.37328 0.01666 0.75699 0.0
C1106 C 0.3885 0.01321 0.79154 0.0
C1107 C 0.38573 0.00991 0.84915 0.0
C1108 C 0.40746 0.01335 0.76945 0.0
C1109 C 0.37532 0.02121 0.69548 0.0
C1110 C 0.41283 1.00192 0.72525 0.0
C1111 C 0.43076 1.00191 0.70591 0.0
C1112 C 0.44385 0.0131 0.73103 0.0
C1113 C 0.43847 0.02441 0.77556 0.0
C1114 C 0.42052 0.02455 0.79441 0.0
H1115 H 0.36296 0.02768 0.67819 0.0
H1116 H 0.38696 0.03043 0.68857 0.0
H1117 H 0.37783 0.00862 0.67146 0.0
H1118 H 0.40324 0.99272 0.70628 0.0
H1119 H 0.43442 0.99286 0.67198 0.0
H1120 H 0.51476 0.32003 0.96493 0.0
H1121 H 0.51361 0.35028 0.92403 0.0
H1122 H 0.47912 0.33061 0.79171 0.0
H1123 H 0.48 0.3002 0.83317 0.0
H1124 H 0.52438 0.36349 0.826 0.0
H1125 H 0.45039 0.37351 0.84381 0.0
H1126 H 0.46186 0.35482 0.87699 0.0
H1127 H 0.45654 0.35402 0.80325 0.0
C1128 C 0.50703 0.32204 0.92682 0.0
C1129 C 0.49751 0.30756 0.90235 0.0
C1130 C 0.50631 0.33944 0.90355 0.0
C1131 C 0.49605 0.34295 0.85512 0.0
C1132 C 0.48676 0.32847 0.8299 0.0
H1133 H 0.51043 0.443 0.6598 0.0
H1134 H 0.51095 0.41181 0.69381 0.0
C1135 C 0.48735 0.31102 0.85351 0.0
C1136 C 0.4954 0.36172 0.83124 0.0
H1137 H 0.46677 0.3962 0.79509 0.0
C1138 C 0.51176 0.37062 0.81927 0.0
C1139 C 0.47898 0.37124 0.82302 0.0
C1140 C 0.46095 0.363 0.83792 0.0
C1141 C 0.51218 0.3886 0.79956 0.0
C1142 C 0.49575 0.39796 0.78998 0.0
C1143 C 0.47939 0.38908 0.80195 0.0
C1144 C 0.49524 0.41706 0.76872 0.0
C1145 C 0.53032 0.39752 0.79099 0.0
C1146 C 0.48595 0.43055 0.79878 0.0
C1147 C 0.48564 0.44851 0.77945 0.0
C1148 C 0.49443 0.45341 0.72913 0.0
C1149 C 0.50344 0.4398 0.69858 0.0
C1150 C 0.50385 0.4219 0.71821 0.0
H1151 H 0.54104 0.39077 0.81606 0.0
H1152 H 0.53419 0.39651 0.74602 0.0
H1153 H 0.52991 0.41203 0.80277 0.0
H1154 H 0.47914 0.42725 0.83781 0.0
H1155 H 0.47856 0.45857 0.80413 0.0
H1156 H 0.19452 0.51939 0.93484 0.0
H1157 H 0.16615 0.52431 0.88521 0.0
H1158 H 0.16948 0.47073 0.81483 0.0
H1159 H 0.19858 0.46623 0.86033 0.0
H1160 H 0.15553 0.49214 0.74016 0.0
H1161 H 0.11954 0.50483 0.9404 0.0
H1162 H 0.13715 0.52099 0.92813 0.0
H1163 H 0.14272 0.49748 0.93835 0.0
C1164 C 0.18953 0.50876 0.9078 0.0
C1165 C 0.19891 0.49224 0.90279 0.0
C1166 C 0.17302 0.51149 0.88013 0.0
C1167 C 0.1652 0.49765 0.84778 0.0
C1168 C 0.17497 0.48155 0.8402 0.0
H1169 H 0.04986 0.49024 0.7811 0.0
H1170 H 0.08075 0.48701 0.81567 0.0
C1171 C 0.19162 0.47892 0.86698 0.0
C1172 C 0.14667 0.49965 0.82321 0.0
H1173 H 0.10289 0.50977 0.85691 0.0
C1174 C 0.14402 0.49595 0.76578 0.0
C1175 C 0.13145 0.50425 0.85657 0.0
C1176 C 0.13279 0.50692 0.91934 0.0
C1177 C 0.12675 0.49681 0.74093 0.0
C1178 C 0.11168 0.50215 0.77392 0.0
C1179 C 0.11436 0.50581 0.83128 0.0
C1180 C 0.09292 0.50362 0.75072 0.0
C1181 C 0.12486 0.49134 0.68007 0.0
C1182 C 0.08923 0.51407 0.70264 0.0
C1183 C 0.07154 0.51567 0.68217 0.0
C1184 C 0.057 0.50724 0.71012 0.0
C1185 C 0.06067 0.49699 0.75862 0.0
C1186 C 0.07839 0.49513 0.77846 0.0
H1187 H 0.13598 0.4822 0.66675 0.0
H1188 H 0.1118 0.48441 0.6723 0.0
H1189 H 0.12551 0.50359 0.65312 0.0
H1190 H 0.09997 0.52126 0.68126 0.0
H1191 H 0.06924 0.52379 0.64491 0.0
H1192 H 0.9854 0.82715 0.33788 0.0
H1193 H 0.98371 0.8564 0.38554 0.0
H1194 H 0.00756 0.83284 0.53372 0.0
H1195 H 0.00924 0.8035 0.48646 0.0
H1196 H 0.96715 0.86792 0.48455 0.0
H1197 H 0.04165 0.87483 0.49981 0.0
H1198 H 0.031 0.85795 0.45633 0.0
H1199 H 0.03278 0.85455 0.53097 0.0
C1200 C 0.99 0.82807 0.38096 0.0
C1201 C 0.99758 0.81292 0.40809 0.0
C1202 C 0.98913 0.84487 0.40806 0.0
C1203 C 0.99587 0.84696 0.46283 0.0
C1204 C 1.00271 0.83171 0.49095 0.0
H1205 H 0.00913 0.94152 0.6801 0.0
H1206 H 0.00797 0.91086 0.6415 0.0
C1207 C 1.00361 0.81491 0.46386 0.0
C1208 C 0.99603 0.86516 0.48994 0.0
H1209 H 0.02414 0.89738 0.54449 0.0
C1210 C 0.97961 0.87436 0.4976 0.0
C1211 C 0.0123 0.87361 0.50705 0.0
C1212 C 0.03046 0.86483 0.49775 0.0
C1213 C 0.97899 0.89164 0.52234 0.0
C1214 C 0.99526 0.90015 0.53904 0.0
C1215 C 0.01166 0.89088 0.53184 0.0
C1216 C 0.99563 0.9188 0.56288 0.0
C1217 C 0.96086 0.90052 0.53122 0.0
C1218 C 0.9893 0.93357 0.53136 0.0
C1219 C 0.98994 0.95114 0.55327 0.0
C1220 C 0.99702 0.9544 0.60723 0.0
C1221 C 1.0035 0.93958 0.63856 0.0
C1222 C 1.00287 0.922 0.61651 0.0
H1223 H 0.94971 0.89046 0.5311 0.0
H1224 H 0.96048 0.90803 0.57159 0.0
H1225 H 0.95835 0.91027 0.49661 0.0
H1226 H 0.98403 0.93155 0.4894 0.0
H1227 H 0.98493 0.96216 0.52767 0.0
H1228 H 0.68491 0.98837 0.36414 0.0
H1229 H 0.65574 0.98736 0.41254 0.0
H1230 H 0.67826 0.01725 0.55111 0.0
H1231 H 0.70753 0.01826 0.50314 0.0
H1232 H 0.64481 0.97409 0.5175 0.0
H1233 H 0.63518 0.04851 0.50536 0.0
H1234 H 0.65241 0.03688 0.46569 0.0
H1235 H 0.65567 0.04144 0.53917 0.0
C1236 C 0.6838 0.99446 0.40537 0.0
C1237 C 0.69862 1.00351 0.42945 0.0
C1238 C 0.66704 0.99397 0.43287 0.0
C1239 C 0.66466 1.00257 0.48497 0.0
C1240 C 0.6796 0.01092 0.5103 0.0
H1241 H 0.56665 0.02098 0.6866 0.0
H1242 H 0.5981 0.01939 0.65418 0.0
C1243 C 0.69637 0.01144 0.48282 0.0
C1244 C 0.64645 1.0031 0.51197 0.0
H1245 H 0.61287 0.03189 0.55412 0.0
C1246 C 0.63784 0.98673 0.52557 0.0
C1247 C 0.63733 0.0196 0.52272 0.0
C1248 C 0.64551 0.03762 0.5071 0.0
C1249 C 0.62045 0.98641 0.54963 0.0
C1250 C 0.61121 1.00289 0.55943 0.0
C1251 C 0.61994 0.01926 0.54675 0.0
C1252 C 0.59219 1.00342 0.58031 0.0
C1253 C 0.61222 0.96838 0.56489 0.0
C1254 C 0.57832 0.99517 0.54937 0.0
C1255 C 0.56037 0.99606 0.56774 0.0
C1256 C 0.55578 1.00532 0.61741 0.0
C1257 C 0.56967 0.01366 0.64832 0.0
C1258 C 0.58767 0.01278 0.62979 0.0
H1259 H 0.62275 0.95784 0.5709 0.0
H1260 H 0.60403 0.96936 0.60392 0.0
H1261 H 0.60326 0.9639 0.53028 0.0
H1262 H 0.58134 0.98825 0.51039 0.0
H1263 H 0.55007 0.98956 0.54258 0.0
H1264 H 0.4841 0.70564 0.41133 0.0
H1265 H 0.48046 0.67617 0.45645 0.0
H1266 H 0.5346 0.67976 0.52199 0.0
H1267 H 0.53799 0.70965 0.4797 0.0
H1268 H 0.49788 0.64633 0.43423 0.0
H1269 H 0.50901 0.66155 0.65862 0.0
H1270 H 0.50575 0.67912 0.60696 0.0
H1271 H 0.52771 0.66909 0.61677 0.0
C1272 C 0.49506 0.70047 0.43675 0.0
C1273 C 0.51136 0.71018 0.44161 0.0
C1274 C 0.49302 0.68346 0.46215 0.0
C1275 C 0.50718 0.67566 0.49322 0.0
C1276 C 0.52329 0.68551 0.49935 0.0
H1277 H 0.52197 0.55941 0.53754 0.0
H1278 H 0.52275 0.59096 0.50653 0.0
C1279 C 0.52531 0.70258 0.47432 0.0
C1280 C 0.50562 0.65674 0.51521 0.0
H1281 H 0.51191 0.63033 0.63171 0.0
C1282 C 0.50079 0.6429 0.47763 0.0
C1283 C 0.50912 0.65213 0.57205 0.0
C1284 C 0.51299 0.6663 0.61601 0.0
C1285 C 0.49979 0.62469 0.49473 0.0
C1286 C 0.50435 0.61995 0.55071 0.0
C1287 C 0.50871 0.63383 0.58867 0.0
C1288 C 0.50447 0.60075 0.57086 0.0
C1289 C 0.49347 0.61081 0.45267 0.0
C1290 C 0.49465 0.5957 0.61904 0.0
C1291 C 0.49455 0.5777 0.63771 0.0
C1292 C 0.50416 0.56425 0.60837 0.0
C1293 C 0.51424 0.56936 0.56076 0.0
C1294 C 0.51457 0.58742 0.54266 0.0
H1295 H 0.48507 0.61709 0.41925 0.0
H1296 H 0.50539 0.60458 0.43203 0.0
H1297 H 0.48546 0.59996 0.47325 0.0
H1298 H 0.48682 0.60566 0.64189 0.0
H1299 H 0.48662 0.57429 0.67452 0.0
H1300 H 0.81954 0.53158 0.32639 0.0
H1301 H 0.84884 0.5337 0.37323 0.0
H1302 H 0.82529 0.51264 0.52569 0.0
H1303 H 0.7959 0.51048 0.47917 0.0
H1304 H 0.861 0.55158 0.46896 0.0
H1305 H 0.86637 0.47717 0.49606 0.0
H1306 H 0.84958 0.4875 0.4515 0.0
H1307 H 0.84643 0.48696 0.52645 0.0
C1308 C 0.82047 0.5277 0.3702 0.0
C1309 C 0.80531 0.52073 0.39882 0.0
C1310 C 0.8373 0.52882 0.39686 0.0
C1311 C 0.8394 0.52296 0.45265 0.0
C1312 C 0.82414 0.5168 0.48218 0.0
H1313 H 0.93462 0.50986 0.66626 0.0
H1314 H 0.90376 0.51213 0.63022 0.0
C1315 C 0.80731 0.51562 0.45553 0.0
C1316 C 0.85764 0.52285 0.47922 0.0
H1317 H 0.88945 0.49486 0.53681 0.0
C1318 C 0.86722 0.53918 0.48379 0.0
C1319 C 0.8658 0.50666 0.49858 0.0
C1320 C 0.85662 0.48854 0.49254 0.0
C1321 C 0.88461 0.53979 0.50761 0.0
C1322 C 0.89281 0.52359 0.52657 0.0
C1323 C 0.88316 0.50729 0.52248 0.0
C1324 C 0.91155 0.5231 0.54938 0.0
C1325 C 0.89395 0.55784 0.51301 0.0
C1326 C 0.92628 0.52842 0.51593 0.0
C1327 C 0.94397 0.52714 0.53638 0.0
C1328 C 0.94738 0.52042 0.59078 0.0
C1329 C 0.93257 0.51519 0.62432 0.0
C1330 C 0.91488 0.51644 0.60374 0.0
H1331 H 0.88416 0.56922 0.51158 0.0
H1332 H 0.9017 0.55866 0.55285 0.0
H1333 H 0.90354 0.55956 0.47751 0.0
H1334 H 0.92413 0.53322 0.47343 0.0
H1335 H 0.95498 0.5312 0.50912 0.0
loop_
_geom_bond_atom_site_label_1
_geom_bond_atom_site_label_2
_geom_bond_distance
_geom_bond_site_symmetry_2
_ccdc_geom_bond_type
C0 C1 1.386 . S
C0 C2 1.397 . S
C0 H24 0.931 . S
C1 C0 1.386 . S
C1 C5 1.397 . S
C2 C0 1.397 . S
C2 C3 1.384 . S
C2 H25 0.930 . S
C3 C2 1.384 . S
C3 C4 1.377 . S
C3 C6 1.481 . S
C4 C3 1.377 . S
C4 C5 1.389 . S
C4 H26 0.929 . S
C5 C1 1.397 . S
C5 C4 1.389 . S
C5 H27 0.931 . S
C6 C3 1.481 . S
C6 C7 1.387 . S
C6 C11 1.390 . S
C7 C6 1.387 . S
C7 C8 1.401 . S
C7 H28 0.930 . S
C8 C7 1.401 . S
C8 C9 1.376 . S
C8 C17 1.511 . S
C9 C8 1.376 . S
C9 C10 1.392 . S
C9 H30 0.931 . S
C10 C9 1.392 . S
C10 C11 1.361 . S
C10 C12 1.500 . S
C11 C6 1.390 . S
C11 C10 1.361 . S
C11 H29 0.931 . S
C12 C10 1.500 . S
C12 C13 1.371 . S
C12 C14 1.365 . S
C13 C12 1.371 . S
C13 C23 1.386 . S
C13 H31 0.931 . S
C14 C12 1.365 . S
C14 C15 1.409 . S
C14 H32 0.929 . S
C15 C14 1.409 . S
C15 C16 1.380 . S
C15 H33 0.930 . S
C16 C15 1.380 . S
C16 C23 1.357 . S
C17 C8 1.511 . S
C17 C18 1.341 . S
C17 C19 1.371 . S
C18 C17 1.341 . S
C18 C22 1.394 . S
C18 H34 0.930 . S
C19 C17 1.371 . S
C19 C20 1.392 . S
C19 H35 0.931 . S
C20 C19 1.392 . S
C20 C21 1.331 . S
C20 H38 0.932 . S
C21 C20 1.331 . S
C21 C22 1.336 . S
C22 C18 1.394 . S
C22 C21 1.336 . S
C22 H37 0.929 . S
C23 C13 1.386 . S
C23 C16 1.357 . S
C23 H36 0.928 . S
H24 C0 0.931 . S
H25 C2 0.930 . S
H26 C4 0.929 . S
H27 C5 0.931 . S
H28 C7 0.930 . S
H29 C11 0.931 . S
H30 C9 0.931 . S
H31 C13 0.931 . S
H32 C14 0.929 . S
H33 C15 0.930 . S
H34 C18 0.930 . S
H35 C19 0.931 . S
H36 C23 0.928 . S
H37 C22 0.929 . S
H38 C20 0.932 . S
C39 C40 1.394 . S
C39 C41 1.397 . S
C39 H63 0.931 . S
C40 C39 1.394 . S
C40 C44 1.389 1_655 S
C41 C39 1.397 . S
C41 C42 1.389 . S
C41 H64 0.930 . S
C42 C41 1.389 . S
C42 C43 1.373 1_655 S
C42 C45 1.480 . S
C43 C42 1.373 1_455 S
C43 C44 1.389 . S
C43 H65 0.929 . S
C44 C40 1.389 1_455 S
C44 C43 1.389 . S
C44 H66 0.931 . S
C45 C42 1.480 . S
C45 C46 1.388 . S
C45 C50 1.390 . S
C46 C45 1.388 . S
C46 C47 1.402 . S
C46 H67 0.930 . S
C47 C46 1.402 . S
C47 C48 1.376 . S
C47 C56 1.513 . S
C48 C47 1.376 . S
C48 C49 1.392 . S
C48 H69 0.934 . S
C49 C48 1.392 . S
C49 C50 1.361 . S
C49 C51 1.499 1_655 S
C50 C45 1.390 . S
C50 C49 1.361 . S
C50 H68 0.931 . S
C51 C49 1.499 1_455 S
C51 C52 1.364 1_455 S
C51 C53 1.373 . S
C52 C51 1.364 1_655 S
C52 C62 1.386 . S
C52 H70 0.931 . S
C53 C51 1.373 . S
C53 C54 1.409 . S
C53 H71 0.929 . S
C54 C53 1.409 . S
C54 C55 1.378 . S
C54 H72 0.930 . S
C55 C54 1.378 . S
C55 C62 1.360 1_455 S
C56 C47 1.513 . S
C56 C57 1.341 . S
C56 C58 1.371 1_655 S
C57 C56 1.341 . S
C57 C61 1.394 . S
C57 H73 0.930 . S
C58 C56 1.371 1_455 S
C58 C59 1.392 . S
C58 H74 0.931 . S
C59 C58 1.392 . S
C59 C60 1.322 1_455 S
C59 H77 0.932 . S
C60 C59 1.322 1_655 S
C60 C61 1.345 . S
C61 C57 1.394 . S
C61 C60 1.345 . S
C61 H76 0.929 . S
C62 C52 1.386 . S
C62 C55 1.360 1_655 S
C62 H75 0.928 . S
H63 C39 0.931 . S
H64 C41 0.930 . S
H65 C43 0.929 . S
H66 C44 0.931 . S
H67 C46 0.930 . S
H68 C50 0.931 . S
H69 C48 0.934 . S
H70 C52 0.931 . S
H71 C53 0.929 . S
H72 C54 0.930 . S
H73 C57 0.930 . S
H74 C58 0.931 . S
H75 C62 0.928 . S
H76 C61 0.929 . S
H77 C59 0.932 . S
C78 C79 1.394 . S
C78 C80 1.397 . S
C78 H102 0.931 . S
C79 C78 1.394 . S
C79 C83 1.389 1_565 S
C80 C78 1.397 . S
C80 C81 1.389 . S
C80 H103 0.930 . S
C81 C80 1.389 . S
C81 C82 1.373 1_565 S
C81 C84 1.480 . S
C82 C81 1.373 1_545 S
C82 C83 1.389 . S
C82 H104 0.929 . S
C83 C79 1.389 1_545 S
C83 C82 1.389 . S
C83 H105 0.931 . S
C84 C81 1.480 . S
C84 C85 1.388 . S
C84 C89 1.390 . S
C85 C84 1.388 . S
C85 C86 1.402 . S
C85 H106 0.930 . S
C86 C85 1.402 . S
C86 C87 1.376 . S
C86 C95 1.513 . S
C87 C86 1.376 . S
C87 C88 1.392 . S
C87 H108 0.934 . S
C88 C87 1.392 . S
C88 C89 1.361 . S
C88 C90 1.499 1_565 S
C89 C84 1.390 . S
C89 C88 1.361 . S
C89 H107 0.931 . S
C90 C88 1.499 1_545 S
C90 C91 1.364 1_545 S
C90 C92 1.373 . S
C91 C90 1.364 1_565 S
C91 C101 1.386 . S
C91 H109 0.931 . S
C92 C90 1.373 . S
C92 C93 1.409 . S
C92 H110 0.929 . S
C93 C92 1.409 . S
C93 C94 1.378 . S
C93 H111 0.930 . S
C94 C93 1.378 . S
C94 C101 1.360 1_545 S
C95 C86 1.513 . S
C95 C96 1.341 . S
C95 C97 1.371 1_565 S
C96 C95 1.341 . S
C96 C100 1.394 . S
C96 H112 0.930 . S
C97 C95 1.371 1_545 S
C97 C98 1.392 . S
C97 H113 0.931 . S
C98 C97 1.392 . S
C98 C99 1.322 1_545 S
C98 H116 0.932 . S
C99 C98 1.322 1_565 S
C99 C100 1.345 . S
C100 C96 1.394 . S
C100 C99 1.345 . S
C100 H115 0.929 . S
C101 C91 1.386 . S
C101 C94 1.360 1_565 S
C101 H114 0.928 . S
H102 C78 0.931 . S
H103 C80 0.930 . S
H104 C82 0.929 . S
H105 C83 0.931 . S
H106 C85 0.930 . S
H107 C89 0.931 . S
H108 C87 0.934 . S
H109 C91 0.931 . S
H110 C92 0.929 . S
H111 C93 0.930 . S
H112 C96 0.930 . S
H113 C97 0.931 . S
H114 C101 0.928 . S
H115 C100 0.929 . S
H116 C98 0.932 . S
C117 C118 1.386 . S
C117 C119 1.397 . S
C117 H141 0.931 . S
C118 C117 1.386 . S
C118 C122 1.397 . S
C119 C117 1.397 . S
C119 C120 1.384 . S
C119 H142 0.930 . S
C120 C119 1.384 . S
C120 C121 1.377 . S
C120 C123 1.481 . S
C121 C120 1.377 . S
C121 C122 1.389 . S
C121 H143 0.929 . S
C122 C118 1.397 . S
C122 C121 1.389 . S
C122 H144 0.931 . S
C123 C120 1.481 . S
C123 C124 1.387 . S
C123 C128 1.390 . S
C124 C123 1.387 . S
C124 C125 1.401 . S
C124 H145 0.930 . S
C125 C124 1.401 . S
C125 C126 1.376 . S
C125 C134 1.511 . S
C126 C125 1.376 . S
C126 C127 1.392 . S
C126 H147 0.931 . S
C127 C126 1.392 . S
C127 C128 1.361 . S
C127 C129 1.500 . S
C128 C123 1.390 . S
C128 C127 1.361 . S
C128 H146 0.931 . S
C129 C127 1.500 . S
C129 C130 1.371 . S
C129 C131 1.365 . S
C130 C129 1.371 . S
C130 C140 1.386 . S
C130 H148 0.931 . S
C131 C129 1.365 . S
C131 C132 1.409 . S
C131 H149 0.929 . S
C132 C131 1.409 . S
C132 C133 1.380 . S
C132 H150 0.930 . S
C133 C132 1.380 . S
C133 C140 1.357 . S
C134 C125 1.511 . S
C134 C135 1.341 . S
C134 C136 1.371 . S
C135 C134 1.341 . S
C135 C139 1.394 . S
C135 H151 0.930 . S
C136 C134 1.371 . S
C136 C137 1.392 . S
C136 H152 0.931 . S
C137 C136 1.392 . S
C137 C138 1.331 . S
C137 H155 0.932 . S
C138 C137 1.331 . S
C138 C139 1.336 . S
C139 C135 1.394 . S
C139 C138 1.336 . S
C139 H154 0.929 . S
C140 C130 1.386 . S
C140 C133 1.357 . S
C140 H153 0.928 . S
H141 C117 0.931 . S
H142 C119 0.930 . S
H143 C121 0.929 . S
H144 C122 0.931 . S
H145 C124 0.930 . S
H146 C128 0.931 . S
H147 C126 0.931 . S
H148 C130 0.931 . S
H149 C131 0.929 . S
H150 C132 0.930 . S
H151 C135 0.930 . S
H152 C136 0.931 . S
H153 C140 0.928 . S
H154 C139 0.929 . S
H155 C137 0.932 . S
C156 C157 1.386 . S
C156 C158 1.397 . S
C156 H180 0.931 . S
C157 C156 1.386 . S
C157 C161 1.397 . S
C158 C156 1.397 . S
C158 C159 1.384 . S
C158 H181 0.930 . S
C159 C158 1.384 . S
C159 C160 1.377 . S
C159 C162 1.481 . S
C160 C159 1.377 . S
C160 C161 1.389 . S
C160 H182 0.929 . S
C161 C157 1.397 . S
C161 C160 1.389 . S
C161 H183 0.931 . S
C162 C159 1.481 . S
C162 C163 1.387 . S
C162 C167 1.390 . S
C163 C162 1.387 . S
C163 C164 1.401 . S
C163 H184 0.930 . S
C164 C163 1.401 . S
C164 C165 1.376 . S
C164 C173 1.511 . S
C165 C164 1.376 . S
C165 C166 1.392 1_554 S
C165 H186 0.931 1_554 S
C166 C165 1.392 1_556 S
C166 C167 1.361 1_556 S
C166 C168 1.500 . S
C167 C162 1.390 . S
C167 C166 1.361 1_554 S
C167 H185 0.931 . S
C168 C166 1.500 . S
C168 C169 1.371 . S
C168 C170 1.365 . S
C169 C168 1.371 . S
C169 C179 1.386 . S
C169 H187 0.931 . S
C170 C168 1.365 . S
C170 C171 1.409 . S
C170 H188 0.929 . S
C171 C170 1.409 . S
C171 C172 1.380 . S
C171 H189 0.930 . S
C172 C171 1.380 . S
C172 C179 1.357 . S
C173 C164 1.511 . S
C173 C174 1.341 . S
C173 C175 1.371 . S
C174 C173 1.341 . S
C174 C178 1.394 . S
C174 H190 0.930 . S
C175 C173 1.371 . S
C175 C176 1.392 . S
C175 H191 0.931 . S
C176 C175 1.392 . S
C176 C177 1.331 . S
C176 H194 0.932 . S
C177 C176 1.331 . S
C177 C178 1.336 . S
C178 C174 1.394 . S
C178 C177 1.336 . S
C178 H193 0.929 . S
C179 C169 1.386 . S
C179 C172 1.357 . S
C179 H192 0.928 . S
H180 C156 0.931 . S
H181 C158 0.930 . S
H182 C160 0.929 . S
H183 C161 0.931 . S
H184 C163 0.930 . S
H185 C167 0.931 . S
H186 C165 0.931 1_556 S
H187 C169 0.931 . S
H188 C170 0.929 . S
H189 C171 0.930 . S
H190 C174 0.930 . S
H191 C175 0.931 . S
H192 C179 0.928 . S
H193 C178 0.929 . S
H194 C176 0.932 . S
C195 C196 1.386 . S
C195 C197 1.397 . S
C195 H219 0.931 . S
C196 C195 1.386 . S
C196 C200 1.398 1_655 S
C197 C195 1.397 . S
C197 C198 1.389 1_655 S
C197 H220 0.930 . S
C198 C197 1.389 1_455 S
C198 C199 1.373 . S
C198 C201 1.480 1_455 S
C199 C198 1.373 . S
C199 C200 1.389 . S
C199 H221 0.929 . S
C200 C196 1.398 1_455 S
C200 C199 1.389 . S
C200 H222 0.931 . S
C201 C198 1.480 1_655 S
C201 C202 1.386 . S
C201 C206 1.390 . S
C202 C201 1.386 . S
C202 C203 1.400 . S
C202 H223 0.935 . S
C203 C202 1.400 . S
C203 C204 1.376 . S
C203 C212 1.512 . S
C204 C203 1.376 . S
C204 C205 1.392 1_654 S
C204 H225 0.933 1_554 S
C205 C204 1.392 1_456 S
C205 C206 1.361 1_456 S
C205 C207 1.499 . S
C206 C201 1.390 . S
C206 C205 1.361 1_654 S
C206 H224 0.931 1_655 S
C207 C205 1.499 . S
C207 C208 1.357 1_455 S
C207 C209 1.380 . S
C208 C207 1.357 1_655 S
C208 C218 1.386 . S
C208 H226 0.931 . S
C209 C207 1.380 . S
C209 C210 1.409 . S
C209 H227 0.929 . S
C210 C209 1.409 . S
C210 C211 1.384 . S
C210 H228 0.930 . S
C211 C210 1.384 . S
C211 C218 1.353 1_455 S
C212 C203 1.512 . S
C212 C213 1.341 . S
C212 C214 1.371 1_655 S
C213 C212 1.341 . S
C213 C217 1.394 . S
C213 H229 0.930 . S
C214 C212 1.371 1_455 S
C214 C215 1.392 . S
C214 H230 0.931 . S
C215 C214 1.392 . S
C215 C216 1.326 1_455 S
C215 H233 0.932 . S
C216 C215 1.326 1_655 S
C216 C217 1.341 . S
C217 C213 1.394 . S
C217 C216 1.341 . S
C217 H232 0.929 . S
C218 C208 1.386 . S
C218 C211 1.353 1_655 S
C218 H231 0.928 . S
H219 C195 0.931 . S
H220 C197 0.930 . S
H221 C199 0.929 . S
H222 C200 0.931 . S
H223 C202 0.935 . S
H224 C206 0.931 1_455 S
H225 C204 0.933 1_556 S
H226 C208 0.931 . S
H227 C209 0.929 . S
H228 C210 0.930 . S
H229 C213 0.930 . S
H230 C214 0.931 . S
H231 C218 0.928 . S
H232 C217 0.929 . S
H233 C215 0.932 . S
C234 C235 1.386 . S
C234 C236 1.397 . S
C234 H258 0.931 . S
C235 C234 1.386 . S
C235 C239 1.398 1_565 S
C236 C234 1.397 . S
C236 C237 1.389 1_565 S
C236 H259 0.930 . S
C237 C236 1.389 1_545 S
C237 C238 1.373 . S
C237 C240 1.480 1_545 S
C238 C237 1.373 . S
C238 C239 1.389 . S
C238 H260 0.929 . S
C239 C235 1.398 1_545 S
C239 C238 1.389 . S
C239 H261 0.931 . S
C240 C237 1.480 1_565 S
C240 C241 1.386 . S
C240 C245 1.390 . S
C241 C240 1.386 . S
C241 C242 1.400 . S
C241 H262 0.935 . S
C242 C241 1.400 . S
C242 C243 1.376 . S
C242 C251 1.512 . S
C243 C242 1.376 . S
C243 C244 1.392 1_564 S
C243 H264 0.933 1_554 S
C244 C243 1.392 1_546 S
C244 C245 1.361 1_546 S
C244 C246 1.499 . S
C245 C240 1.390 . S
C245 C244 1.361 1_564 S
C245 H263 0.931 1_565 S
C246 C244 1.499 . S
C246 C247 1.357 1_545 S
C246 C248 1.380 . S
C247 C246 1.357 1_565 S
C247 C257 1.386 . S
C247 H265 0.931 . S
C248 C246 1.380 . S
C248 C249 1.409 . S
C248 H266 0.929 . S
C249 C248 1.409 . S
C249 C250 1.384 . S
C249 H267 0.930 . S
C250 C249 1.384 . S
C250 C257 1.353 1_545 S
C251 C242 1.512 . S
C251 C252 1.341 . S
C251 C253 1.371 1_565 S
C252 C251 1.341 . S
C252 C256 1.394 . S
C252 H268 0.930 . S
C253 C251 1.371 1_545 S
C253 C254 1.392 . S
C253 H269 0.931 . S
C254 C253 1.392 . S
C254 C255 1.326 1_545 S
C254 H272 0.932 . S
C255 C254 1.326 1_565 S
C255 C256 1.341 . S
C256 C252 1.394 . S
C256 C255 1.341 . S
C256 H271 0.929 . S
C257 C247 1.386 . S
C257 C250 1.353 1_565 S
C257 H270 0.928 . S
H258 C234 0.931 . S
H259 C236 0.930 . S
H260 C238 0.929 . S
H261 C239 0.931 . S
H262 C241 0.935 . S
H263 C245 0.931 1_545 S
H264 C243 0.933 1_556 S
H265 C247 0.931 . S
H266 C248 0.929 . S
H267 C249 0.930 . S
H268 C252 0.930 . S
H269 C253 0.931 . S
H270 C257 0.928 . S
H271 C256 0.929 . S
H272 C254 0.932 . S
C273 C274 1.386 . S
C273 C275 1.397 . S
C273 H297 0.931 . S
C274 C273 1.386 . S
C274 C278 1.397 . S
C275 C273 1.397 . S
C275 C276 1.384 . S
C275 H298 0.930 . S
C276 C275 1.384 . S
C276 C277 1.377 . S
C276 C279 1.481 . S
C277 C276 1.377 . S
C277 C278 1.389 . S
C277 H299 0.929 . S
C278 C274 1.397 . S
C278 C277 1.389 . S
C278 H300 0.931 . S
C279 C276 1.481 . S
C279 C280 1.387 1_556 S
C279 C284 1.390 1_556 S
C280 C279 1.387 1_554 S
C280 C281 1.401 . S
C280 H301 0.930 1_554 S
C281 C280 1.401 . S
C281 C282 1.376 . S
C281 C290 1.511 . S
C282 C281 1.376 . S
C282 C283 1.392 . S
C282 H303 0.931 . S
C283 C282 1.392 . S
C283 C284 1.361 . S
C283 C285 1.500 . S
C284 C279 1.390 1_554 S
C284 C283 1.361 . S
C284 H302 0.931 . S
C285 C283 1.500 . S
C285 C286 1.371 . S
C285 C287 1.365 . S
C286 C285 1.371 . S
C286 C296 1.386 . S
C286 H304 0.931 . S
C287 C285 1.365 . S
C287 C288 1.409 . S
C287 H305 0.929 . S
C288 C287 1.409 . S
C288 C289 1.380 . S
C288 H306 0.930 . S
C289 C288 1.380 . S
C289 C296 1.357 . S
C290 C281 1.511 . S
C290 C291 1.341 . S
C290 C292 1.371 . S
C291 C290 1.341 . S
C291 C295 1.394 . S
C291 H307 0.930 . S
C292 C290 1.371 . S
C292 C293 1.392 . S
C292 H308 0.931 . S
C293 C292 1.392 . S
C293 C294 1.331 . S
C293 H311 0.932 . S
C294 C293 1.331 . S
C294 C295 1.336 . S
C295 C291 1.394 . S
C295 C294 1.336 . S
C295 H310 0.929 . S
C296 C286 1.386 . S
C296 C289 1.357 . S
C296 H309 0.928 . S
H297 C273 0.931 . S
H298 C275 0.930 . S
H299 C277 0.929 . S
H300 C278 0.931 . S
H301 C280 0.930 1_556 S
H302 C284 0.931 . S
H303 C282 0.931 . S
H304 C286 0.931 . S
H305 C287 0.929 . S
H306 C288 0.930 . S
H307 C291 0.930 . S
H308 C292 0.931 . S
H309 C296 0.928 . S
H310 C295 0.929 . S
H311 C293 0.932 . S
C312 Eu313 2.835 . S
C312 C314 1.500 . S
C312 O332 1.257 . S
C312 O333 1.260 . S
Eu313 C312 2.835 . S
Eu313 O332 2.473 . S
Eu313 O333 2.480 . S
Eu313 O334 2.430 . S
Eu313 O335 2.670 1_545 S
Eu313 O336 2.394 . S
Eu313 O341 2.355 1_655 S
Eu313 O343 2.374 1_545 S
C314 C312 1.500 . S
C314 C315 1.377 . S
C314 C319 1.377 . S
C315 C314 1.377 . S
C315 C316 1.395 . S
C315 H344 0.931 . S
C316 C315 1.395 . S
C316 C317 1.383 . S
C316 H345 0.931 . S
C317 C316 1.383 . S
C317 C318 1.394 . S
C318 C317 1.394 . S
C318 C319 1.378 . S
C318 H346 0.931 1_655 S
C319 C314 1.377 . S
C319 C318 1.378 . S
C319 H347 0.931 1_655 S
C320 O334 1.281 . S
C320 O335 1.255 1_545 S
C321 O336 1.251 1_455 S
C321 O337 1.251 . S
C322 Eu323 2.835 . S
C322 C324 1.500 . S
C322 O338 1.257 . S
C322 O339 1.260 . S
Eu323 C322 2.835 . S
Eu323 O335 2.355 1_455 S
Eu323 O337 2.374 1_565 S
Eu323 O338 2.473 . S
Eu323 O339 2.480 . S
Eu323 O340 2.430 . S
Eu323 O341 2.670 1_565 S
Eu323 O342 2.394 . S
C324 C322 1.500 . S
C324 C325 1.377 . S
C324 C329 1.377 . S
C325 C324 1.377 . S
C325 C326 1.395 . S
C325 H348 0.931 . S
C326 C325 1.395 . S
C326 C327 1.383 . S
C326 H349 0.931 . S
C327 C326 1.383 . S
C327 C328 1.394 . S
C328 C327 1.394 . S
C328 C329 1.378 . S
C328 H350 0.931 1_455 S
C329 C324 1.377 . S
C329 C328 1.378 . S
C329 H351 0.931 1_455 S
C330 O340 1.274 . S
C330 O341 1.260 1_565 S
C331 O342 1.251 1_655 S
C331 O343 1.251 . S
O332 C312 1.257 . S
O332 Eu313 2.473 . S
O333 C312 1.260 . S
O333 Eu313 2.480 . S
O334 Eu313 2.430 . S
O334 C320 1.281 . S
O335 Eu313 2.670 1_565 S
O335 C320 1.255 1_565 S
O335 Eu323 2.355 1_655 S
O336 Eu313 2.394 . S
O336 C321 1.251 1_655 S
O337 C321 1.251 . S
O337 Eu323 2.374 1_545 S
O338 C322 1.257 . S
O338 Eu323 2.473 . S
O339 C322 1.260 . S
O339 Eu323 2.480 . S
O340 Eu323 2.430 . S
O340 C330 1.274 . S
O341 Eu313 2.355 1_455 S
O341 Eu323 2.670 1_545 S
O341 C330 1.260 1_545 S
O342 Eu323 2.394 . S
O342 C331 1.251 1_455 S
O343 Eu313 2.374 1_565 S
O343 C331 1.251 . S
H344 C315 0.931 . S
H345 C316 0.931 . S
H346 C318 0.931 1_455 S
H347 C319 0.931 1_455 S
H348 C325 0.931 . S
H349 C326 0.931 . S
H350 C328 0.931 1_655 S
H351 C329 0.931 1_655 S
C352 Eu353 2.835 . S
C352 C354 1.500 . S
C352 O372 1.257 . S
C352 O373 1.260 . S
Eu353 C352 2.835 . S
Eu353 O372 2.473 . S
Eu353 O373 2.480 . S
Eu353 O374 2.430 . S
Eu353 O375 2.670 . S
Eu353 O376 2.394 . S
Eu353 O381 2.355 1_565 S
Eu353 O383 2.374 . S
C354 C352 1.500 . S
C354 C355 1.377 . S
C354 C359 1.377 . S
C355 C354 1.377 . S
C355 C356 1.395 . S
C355 H384 0.931 . S
C356 C355 1.395 . S
C356 C357 1.383 . S
C356 H385 0.931 . S
C357 C356 1.383 . S
C357 C358 1.394 . S
C358 C357 1.394 . S
C358 C359 1.378 . S
C358 H386 0.931 1_565 S
C359 C354 1.377 . S
C359 C358 1.378 . S
C359 H387 0.931 1_565 S
C360 O374 1.259 . S
C360 O375 1.270 . S
C361 O376 1.251 1_545 S
C361 O377 1.251 . S
C362 Eu363 2.835 . S
C362 C364 1.500 . S
C362 O378 1.257 . S
C362 O379 1.260 . S
Eu363 C362 2.835 . S
Eu363 O375 2.355 1_545 S
Eu363 O377 2.374 . S
Eu363 O378 2.473 . S
Eu363 O379 2.480 . S
Eu363 O380 2.430 . S
Eu363 O381 2.670 . S
Eu363 O382 2.394 . S
C364 C362 1.500 . S
C364 C365 1.377 . S
C364 C369 1.377 . S
C365 C364 1.377 . S
C365 C366 1.395 . S
C365 H388 0.931 . S
C366 C365 1.395 . S
C366 C367 1.383 . S
C366 H389 0.931 . S
C367 C366 1.383 . S
C367 C368 1.394 . S
C368 C367 1.394 . S
C368 C369 1.378 . S
C368 H390 0.931 1_545 S
C369 C364 1.377 . S
C369 C368 1.378 . S
C369 H391 0.931 1_545 S
C370 O380 1.259 . S
C370 O381 1.270 . S
C371 O382 1.251 1_565 S
C371 O383 1.251 . S
O372 C352 1.257 . S
O372 Eu353 2.473 . S
O373 C352 1.260 . S
O373 Eu353 2.480 . S
O374 Eu353 2.430 . S
O374 C360 1.259 . S
O375 Eu353 2.670 . S
O375 C360 1.270 . S
O375 Eu363 2.355 1_565 S
O376 Eu353 2.394 . S
O376 C361 1.251 1_565 S
O377 C361 1.251 . S
O377 Eu363 2.374 . S
O378 C362 1.257 . S
O378 Eu363 2.473 . S
O379 C362 1.260 . S
O379 Eu363 2.480 . S
O380 Eu363 2.430 . S
O380 C370 1.259 . S
O381 Eu353 2.355 1_545 S
O381 Eu363 2.670 . S
O381 C370 1.270 . S
O382 Eu363 2.394 . S
O382 C371 1.251 1_545 S
O383 Eu353 2.374 . S
O383 C371 1.251 . S
H384 C355 0.931 . S
H385 C356 0.931 . S
H386 C358 0.931 1_545 S
H387 C359 0.931 1_545 S
H388 C365 0.931 . S
H389 C366 0.931 . S
H390 C368 0.931 1_565 S
H391 C369 0.931 1_565 S
C392 Eu393 2.835 . S
C392 C394 1.500 . S
C392 O412 1.257 . S
C392 O413 1.260 . S
Eu393 C392 2.835 . S
Eu393 O412 2.473 . S
Eu393 O413 2.480 . S
Eu393 O414 2.430 . S
Eu393 O415 2.670 . S
Eu393 O416 2.394 . S
Eu393 O421 2.355 . S
Eu393 O423 2.374 . S
C394 C392 1.500 . S
C394 C395 1.377 . S
C394 C399 1.377 . S
C395 C394 1.377 . S
C395 C396 1.395 . S
C395 H424 0.931 . S
C396 C395 1.395 . S
C396 C397 1.383 . S
C396 H425 0.931 . S
C397 C396 1.383 . S
C397 C398 1.394 . S
C398 C397 1.394 . S
C398 C399 1.378 . S
C398 H426 0.931 . S
C399 C394 1.377 . S
C399 C398 1.378 . S
C399 H427 0.931 . S
C400 O414 1.259 . S
C400 O415 1.270 . S
C401 O416 1.251 . S
C401 O417 1.251 . S
C402 Eu403 2.835 . S
C402 C404 1.500 . S
C402 O418 1.257 . S
C402 O419 1.260 . S
Eu403 C402 2.835 . S
Eu403 O415 2.355 . S
Eu403 O417 2.374 . S
Eu403 O418 2.473 . S
Eu403 O419 2.480 . S
Eu403 O420 2.430 . S
Eu403 O421 2.670 . S
Eu403 O422 2.394 . S
C404 C402 1.500 . S
C404 C405 1.377 . S
C404 C409 1.377 . S
C405 C404 1.377 . S
C405 C406 1.395 . S
C405 H428 0.931 . S
C406 C405 1.395 . S
C406 C407 1.383 . S
C406 H429 0.931 . S
C407 C406 1.383 . S
C407 C408 1.394 . S
C408 C407 1.394 . S
C408 C409 1.378 . S
C408 H430 0.931 . S
C409 C404 1.377 . S
C409 C408 1.378 . S
C409 H431 0.931 . S
C410 O420 1.259 . S
C410 O421 1.270 . S
C411 O422 1.251 . S
C411 O423 1.251 . S
O412 C392 1.257 . S
O412 Eu393 2.473 . S
O413 C392 1.260 . S
O413 Eu393 2.480 . S
O414 Eu393 2.430 . S
O414 C400 1.259 . S
O415 Eu393 2.670 . S
O415 C400 1.270 . S
O415 Eu403 2.355 . S
O416 Eu393 2.394 . S
O416 C401 1.251 . S
O417 C401 1.251 . S
O417 Eu403 2.374 . S
O418 C402 1.257 . S
O418 Eu403 2.473 . S
O419 C402 1.260 . S
O419 Eu403 2.480 . S
O420 Eu403 2.430 . S
O420 C410 1.259 . S
O421 Eu393 2.355 . S
O421 Eu403 2.670 . S
O421 C410 1.270 . S
O422 Eu403 2.394 . S
O422 C411 1.251 . S
O423 Eu393 2.374 . S
O423 C411 1.251 . S
H424 C395 0.931 . S
H425 C396 0.931 . S
H426 C398 0.931 . S
H427 C399 0.931 . S
H428 C405 0.931 . S
H429 C406 0.931 . S
H430 C408 0.931 . S
H431 C409 0.931 . S
C432 Eu433 2.835 . S
C432 C434 1.500 . S
C432 O452 1.257 . S
C432 O453 1.260 . S
Eu433 C432 2.835 . S
Eu433 O452 2.473 . S
Eu433 O453 2.480 . S
Eu433 O454 2.430 . S
Eu433 O455 2.670 1_455 S
Eu433 O456 2.394 . S
Eu433 O461 2.355 . S
Eu433 O463 2.374 1_455 S
C434 C432 1.500 . S
C434 C435 1.377 . S
C434 C439 1.377 . S
C435 C434 1.377 . S
C435 C436 1.395 . S
C435 H464 0.931 . S
C436 C435 1.395 . S
C436 C437 1.383 . S
C436 H465 0.931 . S
C437 C436 1.383 . S
C437 C438 1.394 . S
C438 C437 1.394 . S
C438 C439 1.378 . S
C438 H466 0.931 . S
C439 C434 1.377 . S
C439 C438 1.378 . S
C439 H467 0.931 . S
C440 O454 1.277 . S
C440 O455 1.257 1_455 S
C441 O456 1.251 . S
C441 O457 1.251 . S
C442 Eu443 2.835 . S
C442 C444 1.500 . S
C442 O458 1.257 . S
C442 O459 1.260 . S
Eu443 C442 2.835 . S
Eu443 O455 2.355 . S
Eu443 O457 2.374 1_655 S
Eu443 O458 2.473 . S
Eu443 O459 2.480 . S
Eu443 O460 2.430 . S
Eu443 O461 2.670 1_655 S
Eu443 O462 2.394 . S
C444 C442 1.500 . S
C444 C445 1.377 . S
C444 C449 1.377 . S
C445 C444 1.377 . S
C445 C446 1.395 . S
C445 H468 0.931 . S
C446 C445 1.395 . S
C446 C447 1.383 . S
C446 H469 0.931 . S
C447 C446 1.383 . S
C447 C448 1.394 . S
C448 C447 1.394 . S
C448 C449 1.378 . S
C448 H470 0.931 . S
C449 C444 1.377 . S
C449 C448 1.378 . S
C449 H471 0.931 . S
C450 O460 1.270 . S
C450 O461 1.262 1_655 S
C451 O462 1.251 . S
C451 O463 1.251 . S
O452 C432 1.257 . S
O452 Eu433 2.473 . S
O453 C432 1.260 . S
O453 Eu433 2.480 . S
O454 Eu433 2.430 . S
O454 C440 1.277 . S
O455 Eu433 2.670 1_655 S
O455 C440 1.257 1_655 S
O455 Eu443 2.355 . S
O456 Eu433 2.394 . S
O456 C441 1.251 . S
O457 C441 1.251 . S
O457 Eu443 2.374 1_455 S
O458 C442 1.257 . S
O458 Eu443 2.473 . S
O459 C442 1.260 . S
O459 Eu443 2.480 . S
O460 Eu443 2.430 . S
O460 C450 1.270 . S
O461 Eu433 2.355 . S
O461 Eu443 2.670 1_455 S
O461 C450 1.262 1_455 S
O462 Eu443 2.394 . S
O462 C451 1.251 . S
O463 Eu433 2.374 1_655 S
O463 C451 1.251 . S
H464 C435 0.931 . S
H465 C436 0.931 . S
H466 C438 0.931 . S
H467 C439 0.931 . S
H468 C445 0.931 . S
H469 C446 0.931 . S
H470 C448 0.931 . S
H471 C449 0.931 . S
H472 C480 0.929 . S
H473 C482 0.930 . S
H474 C484 0.930 . S
H475 C487 0.929 . S
H476 C490 0.930 . S
H477 C492 0.960 . S
H478 C492 0.960 . S
H479 C492 0.960 . S
C480 H472 0.929 . S
C480 C481 1.378 . S
C480 C482 1.384 . S
C481 C480 1.378 . S
C481 C487 1.389 1_565 S
C482 H473 0.930 . S
C482 C480 1.384 . S
C482 C483 1.385 . S
C483 C482 1.385 . S
C483 C484 1.387 1_565 S
C483 C488 1.490 . S
C484 H474 0.930 . S
C484 C483 1.387 1_545 S
C484 C487 1.386 . S
H485 C501 0.930 . S
H486 C502 0.931 . S
C487 H475 0.929 . S
C487 C481 1.389 1_545 S
C487 C484 1.386 . S
C488 C483 1.490 . S
C488 C490 1.394 1_565 S
C488 C491 1.403 . S
H489 C495 0.930 . S
C490 H476 0.930 . S
C490 C488 1.394 1_545 S
C490 C493 1.403 . S
C491 C488 1.403 . S
C491 C492 1.524 . S
C491 C495 1.400 . S
C492 H477 0.960 . S
C492 H478 0.960 . S
C492 H479 0.960 . S
C492 C491 1.524 . S
C493 C490 1.403 . S
C493 C494 1.392 . S
C493 C497 1.495 . S
C494 C493 1.392 . S
C494 C495 1.385 1_545 S
C494 C496 1.478 . S
C495 H489 0.930 . S
C495 C491 1.400 . S
C495 C494 1.385 1_565 S
C496 C494 1.478 . S
C496 C498 1.381 1_545 S
C496 C502 1.383 . S
C497 C493 1.495 . S
C497 H503 0.959 . S
C497 H504 0.961 . S
C497 H505 0.960 . S
C498 C496 1.381 1_565 S
C498 C499 1.394 . S
C498 H506 0.930 . S
C499 C498 1.394 . S
C499 C500 1.383 1_565 S
C499 H507 0.929 . S
C500 C499 1.383 1_545 S
C500 C501 1.377 . S
C501 H485 0.930 . S
C501 C500 1.377 . S
C501 C502 1.379 . S
C502 H486 0.931 . S
C502 C496 1.383 . S
C502 C501 1.379 . S
H503 C497 0.959 . S
H504 C497 0.961 . S
H505 C497 0.960 . S
H506 C498 0.930 . S
H507 C499 0.929 . S
H508 C516 0.929 . S
H509 C518 0.930 . S
H510 C520 0.930 . S
H511 C523 0.929 . S
H512 C526 0.930 . S
H513 C528 0.960 . S
H514 C528 0.960 . S
H515 C528 0.960 . S
C516 H508 0.929 . S
C516 C517 1.377 . S
C516 C518 1.384 . S
C517 C516 1.377 . S
C517 C523 1.390 . S
C518 H509 0.930 . S
C518 C516 1.384 . S
C518 C519 1.372 . S
C519 C518 1.372 . S
C519 C520 1.400 . S
C519 C524 1.490 . S
C520 H510 0.930 . S
C520 C519 1.400 . S
C520 C523 1.386 . S
H521 C537 0.930 . S
H522 C538 0.931 . S
C523 H511 0.929 . S
C523 C517 1.390 . S
C523 C520 1.386 . S
C524 C519 1.490 . S
C524 C526 1.395 . S
C524 C527 1.403 . S
H525 C531 0.930 . S
C526 H512 0.930 . S
C526 C524 1.395 . S
C526 C529 1.403 . S
C527 C524 1.403 . S
C527 C528 1.524 . S
C527 C531 1.400 . S
C528 H513 0.960 . S
C528 H514 0.960 . S
C528 H515 0.960 . S
C528 C527 1.524 . S
C529 C526 1.403 . S
C529 C530 1.392 . S
C529 C533 1.495 . S
C530 C529 1.392 . S
C530 C531 1.385 . S
C530 C532 1.478 . S
C531 H525 0.930 . S
C531 C527 1.400 . S
C531 C530 1.385 . S
C532 C530 1.478 . S
C532 C534 1.381 . S
C532 C538 1.383 . S
C533 C529 1.495 . S
C533 H539 0.959 . S
C533 H540 0.961 . S
C533 H541 0.960 . S
C534 C532 1.381 . S
C534 C535 1.394 . S
C534 H542 0.930 . S
C535 C534 1.394 . S
C535 C536 1.383 . S
C535 H543 0.929 . S
C536 C535 1.383 . S
C536 C537 1.377 . S
C537 H521 0.930 . S
C537 C536 1.377 . S
C537 C538 1.379 . S
C538 H522 0.931 . S
C538 C532 1.383 . S
C538 C537 1.379 . S
H539 C533 0.959 . S
H540 C533 0.961 . S
H541 C533 0.960 . S
H542 C534 0.930 . S
H543 C535 0.929 . S
H544 C552 0.929 . S
H545 C554 0.930 . S
H546 C556 0.930 . S
H547 C559 0.929 . S
H548 C562 0.930 . S
H549 C564 0.960 . S
H550 C564 0.960 . S
H551 C564 0.960 . S
C552 H544 0.929 . S
C552 C553 1.377 . S
C552 C554 1.384 . S
C553 C552 1.377 . S
C553 C559 1.390 . S
C554 H545 0.930 . S
C554 C552 1.384 . S
C554 C555 1.372 . S
C555 C554 1.372 . S
C555 C556 1.400 . S
C555 C560 1.490 . S
C556 H546 0.930 . S
C556 C555 1.400 . S
C556 C559 1.386 . S
H557 C573 0.930 . S
H558 C574 0.931 . S
C559 H547 0.929 . S
C559 C553 1.390 . S
C559 C556 1.386 . S
C560 C555 1.490 . S
C560 C562 1.395 . S
C560 C563 1.403 . S
H561 C567 0.930 . S
C562 H548 0.930 . S
C562 C560 1.395 . S
C562 C565 1.403 . S
C563 C560 1.403 . S
C563 C564 1.524 . S
C563 C567 1.400 . S
C564 H549 0.960 . S
C564 H550 0.960 . S
C564 H551 0.960 . S
C564 C563 1.524 . S
C565 C562 1.403 . S
C565 C566 1.392 . S
C565 C569 1.495 . S
C566 C565 1.392 . S
C566 C567 1.385 . S
C566 C568 1.478 . S
C567 H561 0.930 . S
C567 C563 1.400 . S
C567 C566 1.385 . S
C568 C566 1.478 . S
C568 C570 1.381 . S
C568 C574 1.383 . S
C569 C565 1.495 . S
C569 H575 0.959 . S
C569 H576 0.961 . S
C569 H577 0.960 . S
C570 C568 1.381 . S
C570 C571 1.394 . S
C570 H578 0.930 . S
C571 C570 1.394 . S
C571 C572 1.383 . S
C571 H579 0.929 . S
C572 C571 1.383 . S
C572 C573 1.377 . S
C573 H557 0.930 . S
C573 C572 1.377 . S
C573 C574 1.379 . S
C574 H558 0.931 . S
C574 C568 1.383 . S
C574 C573 1.379 . S
H575 C569 0.959 . S
H576 C569 0.961 . S
H577 C569 0.960 . S
H578 C570 0.930 . S
H579 C571 0.929 . S
H580 C588 0.929 . S
H581 C590 0.930 . S
H582 C592 0.930 . S
H583 C595 0.929 . S
H584 C598 0.930 . S
H585 C600 0.960 . S
H586 C600 0.999 . S
H587 C600 0.960 . S
C588 H580 0.929 . S
C588 C589 1.373 . S
C588 C590 1.384 . S
C589 C588 1.373 . S
C589 C595 1.394 1_655 S
C590 H581 0.930 . S
C590 C588 1.384 . S
C590 C591 1.409 . S
C591 C590 1.409 . S
C591 C592 1.363 1_655 S
C591 C596 1.490 . S
C592 H582 0.930 . S
C592 C591 1.363 1_455 S
C592 C595 1.386 . S
H593 C609 0.930 . S
H594 C610 0.931 . S
C595 H583 0.929 . S
C595 C589 1.394 1_455 S
C595 C592 1.386 . S
C596 C591 1.490 . S
C596 C598 1.413 . S
C596 C599 1.387 1_655 S
H597 C603 0.930 . S
C598 H584 0.930 . S
C598 C596 1.413 . S
C598 C601 1.403 . S
C599 C596 1.387 1_455 S
C599 C600 1.524 . S
C599 C603 1.400 . S
C600 H585 0.960 . S
C600 H586 0.999 . S
C600 H587 0.960 . S
C600 C599 1.524 . S
C601 C598 1.403 . S
C601 C602 1.392 . S
C601 C605 1.495 . S
C602 C601 1.392 . S
C602 C603 1.385 1_655 S
C602 C604 1.480 . S
C603 H597 0.930 . S
C603 C599 1.400 . S
C603 C602 1.385 1_455 S
C604 C602 1.480 . S
C604 C606 1.422 . S
C604 C610 1.341 1_655 S
C605 C601 1.495 . S
C605 H611 0.959 . S
C605 H612 0.961 . S
C605 H613 0.960 . S
C606 C604 1.422 . S
C606 C607 1.394 . S
C606 H614 0.930 . S
C607 C606 1.394 . S
C607 C608 1.363 1_655 S
C607 H615 0.929 . S
C608 C607 1.363 1_455 S
C608 C609 1.396 . S
C609 H593 0.930 . S
C609 C608 1.396 . S
C609 C610 1.379 . S
C610 H594 0.931 . S
C610 C604 1.341 1_455 S
C610 C609 1.379 . S
H611 C605 0.959 . S
H612 C605 0.961 . S
H613 C605 0.960 . S
H614 C606 0.930 . S
H615 C607 0.929 . S
H616 C624 0.929 . S
H617 C626 0.930 . S
H618 C628 0.930 . S
H619 C631 0.929 . S
H620 C634 0.930 . S
H621 C636 0.960 . S
H622 C636 0.960 1_554 S
H623 C636 0.960 . S
C624 H616 0.929 . S
C624 C625 1.383 . S
C624 C626 1.384 . S
C625 C624 1.383 . S
C625 C631 1.385 1_545 S
C626 H617 0.930 . S
C626 C624 1.384 . S
C626 C627 1.381 . S
C627 C626 1.381 . S
C627 C628 1.392 1_545 S
C627 C632 1.490 1_545 S
C628 H618 0.930 . S
C628 C627 1.392 1_565 S
C628 C631 1.386 . S
H629 C645 0.930 . S
H630 C646 0.931 . S
C631 H619 0.929 . S
C631 C625 1.385 1_565 S
C631 C628 1.386 . S
C632 C627 1.490 1_565 S
C632 C634 1.391 . S
C632 C635 1.406 1_564 S
H633 C639 0.930 . S
C634 H620 0.930 . S
C634 C632 1.391 . S
C634 C637 1.403 1_554 S
C635 C632 1.406 1_546 S
C635 C636 1.524 . S
C635 C639 1.400 . S
C636 H621 0.960 . S
C636 H622 0.960 1_556 S
C636 H623 0.960 . S
C636 C635 1.524 . S
C637 C634 1.403 1_556 S
C637 C638 1.392 . S
C637 C641 1.495 . S
C638 C637 1.392 . S
C638 C639 1.385 1_565 S
C638 C640 1.478 . S
C639 H633 0.930 . S
C639 C635 1.400 . S
C639 C638 1.385 1_545 S
C640 C638 1.478 . S
C640 C642 1.381 1_565 S
C640 C646 1.383 . S
C641 C637 1.495 . S
C641 H647 0.959 1_556 S
C641 H648 0.961 . S
C641 H649 0.960 . S
C642 C640 1.381 1_545 S
C642 C643 1.394 . S
C642 H650 0.930 . S
C643 C642 1.394 . S
C643 C644 1.383 1_545 S
C643 H651 0.929 . S
C644 C643 1.383 1_565 S
C644 C645 1.377 . S
C645 H629 0.930 . S
C645 C644 1.377 . S
C645 C646 1.379 . S
C646 H630 0.931 . S
C646 C640 1.383 . S
C646 C645 1.379 . S
H647 C641 0.959 1_554 S
H648 C641 0.961 . S
H649 C641 0.960 . S
H650 C642 0.930 . S
H651 C643 0.929 . S
H652 C660 0.929 . S
H653 C662 0.930 . S
H654 C664 0.930 . S
H655 C667 0.929 . S
H656 C670 0.930 . S
H657 C672 0.960 . S
H658 C672 0.960 . S
H659 C672 0.960 . S
C660 H652 0.929 . S
C660 C661 1.377 . S
C660 C662 1.384 . S
C661 C660 1.377 . S
C661 C667 1.390 . S
C662 H653 0.930 . S
C662 C660 1.384 . S
C662 C663 1.372 . S
C663 C662 1.372 . S
C663 C664 1.400 . S
C663 C668 1.490 . S
C664 H654 0.930 . S
C664 C663 1.400 . S
C664 C667 1.386 . S
H665 C681 0.930 . S
H666 C682 0.931 . S
C667 H655 0.929 . S
C667 C661 1.390 . S
C667 C664 1.386 . S
C668 C663 1.490 . S
C668 C670 1.395 1_554 S
C668 C671 1.403 . S
H669 C675 0.930 . S
C670 H656 0.930 . S
C670 C668 1.395 1_556 S
C670 C673 1.403 . S
C671 C668 1.403 . S
C671 C672 1.524 . S
C671 C675 1.400 1_554 S
C672 H657 0.960 . S
C672 H658 0.960 . S
C672 H659 0.960 . S
C672 C671 1.524 . S
C673 C670 1.403 . S
C673 C674 1.392 . S
C673 C677 1.495 . S
C674 C673 1.392 . S
C674 C675 1.385 . S
C674 C676 1.478 . S
C675 H669 0.930 . S
C675 C671 1.400 1_556 S
C675 C674 1.385 . S
C676 C674 1.478 . S
C676 C678 1.381 . S
C676 C682 1.383 . S
C677 C673 1.495 . S
C677 H683 0.959 . S
C677 H684 0.961 . S
C677 H685 0.960 . S
C678 C676 1.381 . S
C678 C679 1.394 . S
C678 H686 0.930 . S
C679 C678 1.394 . S
C679 C680 1.383 . S
C679 H687 0.929 . S
C680 C679 1.383 . S
C680 C681 1.377 . S
C681 H665 0.930 . S
C681 C680 1.377 . S
C681 C682 1.379 . S
C682 H666 0.931 . S
C682 C676 1.383 . S
C682 C681 1.379 . S
H683 C677 0.959 . S
H684 C677 0.961 . S
H685 C677 0.960 . S
H686 C678 0.930 . S
H687 C679 0.929 . S
H688 C696 0.929 . S
H689 C698 0.930 . S
H690 C700 0.930 . S
H691 C703 0.929 . S
H692 C706 0.930 . S
H693 C708 0.960 . S
H694 C708 0.960 . S
H695 C708 0.960 . S
C696 H688 0.929 . S
C696 C697 1.377 . S
C696 C698 1.384 . S
C697 C696 1.377 . S
C697 C703 1.390 . S
C698 H689 0.930 . S
C698 C696 1.384 . S
C698 C699 1.372 . S
C699 C698 1.372 . S
C699 C700 1.400 . S
C699 C704 1.490 . S
C700 H690 0.930 . S
C700 C699 1.400 . S
C700 C703 1.386 . S
H701 C717 0.930 . S
H702 C718 0.931 . S
C703 H691 0.929 . S
C703 C697 1.390 . S
C703 C700 1.386 . S
C704 C699 1.490 . S
C704 C706 1.395 1_554 S
C704 C707 1.403 . S
H705 C711 0.930 . S
C706 H692 0.930 . S
C706 C704 1.395 1_556 S
C706 C709 1.403 . S
C707 C704 1.403 . S
C707 C708 1.524 . S
C707 C711 1.400 1_554 S
C708 H693 0.960 . S
C708 H694 0.960 . S
C708 H695 0.960 . S
C708 C707 1.524 . S
C709 C706 1.403 . S
C709 C710 1.392 . S
C709 C713 1.495 . S
C710 C709 1.392 . S
C710 C711 1.385 . S
C710 C712 1.478 . S
C711 H705 0.930 . S
C711 C707 1.400 1_556 S
C711 C710 1.385 . S
C712 C710 1.478 . S
C712 C714 1.381 . S
C712 C718 1.383 . S
C713 C709 1.495 . S
C713 H719 0.959 . S
C713 H720 0.961 . S
C713 H721 0.960 . S
C714 C712 1.381 . S
C714 C715 1.394 . S
C714 H722 0.930 . S
C715 C714 1.394 . S
C715 C716 1.383 . S
C715 H723 0.929 . S
C716 C715 1.383 . S
C716 C717 1.377 . S
C717 H701 0.930 . S
C717 C716 1.377 . S
C717 C718 1.379 . S
C718 H702 0.931 . S
C718 C712 1.383 . S
C718 C717 1.379 . S
H719 C713 0.959 . S
H720 C713 0.961 . S
H721 C713 0.960 . S
H722 C714 0.930 . S
H723 C715 0.929 . S
H724 C732 0.929 . S
H725 C734 0.930 . S
H726 C736 0.930 . S
H727 C739 0.929 . S
H728 C742 0.930 1_554 S
H729 C744 0.960 . S
H730 C744 0.960 . S
H731 C744 0.960 . S
C732 H724 0.929 . S
C732 C733 1.380 . S
C732 C734 1.384 . S
C733 C732 1.380 . S
C733 C739 1.387 1_655 S
C734 H725 0.930 . S
C734 C732 1.384 . S
C734 C735 1.414 . S
C735 C734 1.414 . S
C735 C736 1.358 1_655 S
C735 C740 1.494 . S
C736 H726 0.930 . S
C736 C735 1.358 1_455 S
C736 C739 1.386 . S
H737 C753 0.930 . S
H738 C754 0.931 . S
C739 H727 0.929 . S
C739 C733 1.387 1_455 S
C739 C736 1.386 . S
C740 C735 1.494 . S
C740 C742 1.395 1_554 S
C740 C743 1.403 1_655 S
H741 C747 0.930 . S
C742 H728 0.930 1_556 S
C742 C740 1.395 1_556 S
C742 C745 1.403 . S
C743 C740 1.403 1_455 S
C743 C744 1.524 . S
C743 C747 1.400 1_554 S
C744 H729 0.960 . S
C744 H730 0.960 . S
C744 H731 0.960 . S
C744 C743 1.524 . S
C745 C742 1.403 . S
C745 C746 1.392 . S
C745 C749 1.495 . S
C746 C745 1.392 . S
C746 C747 1.385 1_655 S
C746 C748 1.478 . S
C747 H741 0.930 . S
C747 C743 1.400 1_556 S
C747 C746 1.385 1_455 S
C748 C746 1.478 . S
C748 C750 1.381 . S
C748 C754 1.383 1_655 S
C749 C745 1.495 . S
C749 H755 0.959 . S
C749 H756 0.961 . S
C749 H757 0.960 . S
C750 C748 1.381 . S
C750 C751 1.394 . S
C750 H758 0.930 . S
C751 C750 1.394 . S
C751 C752 1.383 . S
C751 H759 0.929 . S
C752 C751 1.383 . S
C752 C753 1.377 1_655 S
C753 H737 0.930 . S
C753 C752 1.377 1_455 S
C753 C754 1.379 . S
C754 H738 0.931 . S
C754 C748 1.383 1_455 S
C754 C753 1.379 . S
H755 C749 0.959 . S
H756 C749 0.961 . S
H757 C749 0.960 . S
H758 C750 0.930 . S
H759 C751 0.929 . S
H760 C768 0.929 . S
H761 C770 0.930 . S
H762 C772 0.930 . S
H763 C775 0.929 . S
H764 C778 0.930 . S
H765 C780 0.960 . S
H766 C780 0.960 . S
H767 C780 0.960 . S
C768 H760 0.929 . S
C768 C769 1.377 . S
C768 C770 1.384 . S
C769 C768 1.377 . S
C769 C775 1.390 1_455 S
C770 H761 0.930 . S
C770 C768 1.384 . S
C770 C771 1.372 1_455 S
C771 C770 1.372 1_655 S
C771 C772 1.400 . S
C771 C776 1.490 . S
C772 H762 0.930 . S
C772 C771 1.400 . S
C772 C775 1.386 . S
H773 C789 0.930 . S
H774 C790 0.931 . S
C775 H763 0.929 . S
C775 C769 1.390 1_655 S
C775 C772 1.386 . S
C776 C771 1.490 . S
C776 C778 1.395 1_655 S
C776 C779 1.403 . S
H777 C783 0.930 . S
C778 H764 0.930 . S
C778 C776 1.395 1_455 S
C778 C781 1.403 . S
C779 C776 1.403 . S
C779 C780 1.524 . S
C779 C783 1.400 . S
C780 H765 0.960 . S
C780 H766 0.960 . S
C780 H767 0.960 . S
C780 C779 1.524 . S
C781 C778 1.403 . S
C781 C782 1.392 1_455 S
C781 C785 1.495 . S
C782 C781 1.392 1_655 S
C782 C783 1.385 . S
C782 C784 1.478 . S
C783 H777 0.930 . S
C783 C779 1.400 . S
C783 C782 1.385 . S
C784 C782 1.478 . S
C784 C786 1.381 . S
C784 C790 1.383 . S
C785 C781 1.495 . S
C785 H791 0.959 . S
C785 H792 0.961 . S
C785 H793 0.960 . S
C786 C784 1.381 . S
C786 C787 1.394 . S
C786 H794 0.930 1_655 S
C787 C786 1.394 . S
C787 C788 1.383 . S
C787 H795 0.929 . S
C788 C787 1.383 . S
C788 C789 1.377 . S
C789 H773 0.930 . S
C789 C788 1.377 . S
C789 C790 1.379 . S
C790 H774 0.931 . S
C790 C784 1.383 . S
C790 C789 1.379 . S
H791 C785 0.959 . S
H792 C785 0.961 . S
H793 C785 0.960 . S
H794 C786 0.930 1_455 S
H795 C787 0.929 . S
H796 C804 0.929 . S
H797 C806 0.930 . S
H798 C808 0.930 . S
H799 C811 0.929 . S
H800 C814 0.930 . S
H801 C816 0.960 . S
H802 C816 0.960 . S
H803 C816 0.960 . S
C804 H796 0.929 . S
C804 C805 1.377 . S
C804 C806 1.384 . S
C805 C804 1.377 . S
C805 C811 1.390 1_545 S
C806 H797 0.930 . S
C806 C804 1.384 . S
C806 C807 1.372 1_545 S
C807 C806 1.372 1_565 S
C807 C808 1.400 . S
C807 C812 1.490 . S
C808 H798 0.930 . S
C808 C807 1.400 . S
C808 C811 1.386 . S
H809 C825 0.930 . S
H810 C826 0.931 . S
C811 H799 0.929 . S
C811 C805 1.390 1_565 S
C811 C808 1.386 . S
C812 C807 1.490 . S
C812 C814 1.395 1_565 S
C812 C815 1.403 . S
H813 C819 0.930 . S
C814 H800 0.930 . S
C814 C812 1.395 1_545 S
C814 C817 1.403 . S
C815 C812 1.403 . S
C815 C816 1.524 . S
C815 C819 1.400 . S
C816 H801 0.960 . S
C816 H802 0.960 . S
C816 H803 0.960 . S
C816 C815 1.524 . S
C817 C814 1.403 . S
C817 C818 1.392 1_545 S
C817 C821 1.495 . S
C818 C817 1.392 1_565 S
C818 C819 1.385 . S
C818 C820 1.478 . S
C819 H813 0.930 . S
C819 C815 1.400 . S
C819 C818 1.385 . S
C820 C818 1.478 . S
C820 C822 1.381 . S
C820 C826 1.383 . S
C821 C817 1.495 . S
C821 H827 0.959 . S
C821 H828 0.961 . S
C821 H829 0.960 . S
C822 C820 1.381 . S
C822 C823 1.394 . S
C822 H830 0.930 1_565 S
C823 C822 1.394 . S
C823 C824 1.383 . S
C823 H831 0.898 1_565 S
C824 C823 1.383 . S
C824 C825 1.377 . S
C825 H809 0.930 . S
C825 C824 1.377 . S
C825 C826 1.379 . S
C826 H810 0.931 . S
C826 C820 1.383 . S
C826 C825 1.379 . S
H827 C821 0.959 . S
H828 C821 0.961 . S
H829 C821 0.960 . S
H830 C822 0.930 1_545 S
H831 C823 0.898 1_545 S
H832 C840 0.929 . S
H833 C842 0.930 . S
H834 C844 0.930 . S
H835 C847 0.929 . S
H836 C850 0.930 . S
H837 C852 0.960 . S
H838 C852 0.960 . S
H839 C852 0.960 . S
C840 H832 0.929 . S
C840 C841 1.377 . S
C840 C842 1.384 . S
C841 C840 1.377 . S
C841 C847 1.390 . S
C842 H833 0.930 . S
C842 C840 1.384 . S
C842 C843 1.372 . S
C843 C842 1.372 . S
C843 C844 1.400 . S
C843 C848 1.490 . S
C844 H834 0.930 . S
C844 C843 1.400 . S
C844 C847 1.386 . S
H845 C861 0.930 . S
H846 C862 0.931 . S
C847 H835 0.929 . S
C847 C841 1.390 . S
C847 C844 1.386 . S
C848 C843 1.490 . S
C848 C850 1.395 . S
C848 C851 1.403 . S
H849 C855 0.930 . S
C850 H836 0.930 . S
C850 C848 1.395 . S
C850 C853 1.403 . S
C851 C848 1.403 . S
C851 C852 1.524 . S
C851 C855 1.400 . S
C852 H837 0.960 . S
C852 H838 0.960 . S
C852 H839 0.960 . S
C852 C851 1.524 . S
C853 C850 1.403 . S
C853 C854 1.392 . S
C853 C857 1.495 . S
C854 C853 1.392 . S
C854 C855 1.385 . S
C854 C856 1.478 . S
C855 H849 0.930 . S
C855 C851 1.400 . S
C855 C854 1.385 . S
C856 C854 1.478 . S
C856 C858 1.381 . S
C856 C862 1.383 . S
C857 C853 1.495 . S
C857 H863 0.959 . S
C857 H864 0.961 . S
C857 H865 0.960 . S
C858 C856 1.381 . S
C858 C859 1.394 . S
C858 H866 0.930 . S
C859 C858 1.394 . S
C859 C860 1.383 . S
C859 H867 0.929 . S
C860 C859 1.383 . S
C860 C861 1.377 . S
C861 H845 0.930 . S
C861 C860 1.377 . S
C861 C862 1.379 . S
C862 H846 0.931 . S
C862 C856 1.383 . S
C862 C861 1.379 . S
H863 C857 0.959 . S
H864 C857 0.961 . S
H865 C857 0.960 . S
H866 C858 0.930 . S
H867 C859 0.929 . S
H868 C876 0.929 . S
H869 C878 0.930 . S
H870 C880 0.930 . S
H871 C883 0.929 . S
H872 C886 0.930 . S
H873 C888 0.960 . S
H874 C888 0.960 . S
H875 C888 0.960 . S
C876 H868 0.929 . S
C876 C877 1.377 . S
C876 C878 1.384 . S
C877 C876 1.377 . S
C877 C883 1.390 . S
C878 H869 0.930 . S
C878 C876 1.384 . S
C878 C879 1.372 . S
C879 C878 1.372 . S
C879 C880 1.400 . S
C879 C884 1.490 . S
C880 H870 0.930 . S
C880 C879 1.400 . S
C880 C883 1.386 . S
H881 C897 0.930 . S
H882 C898 0.931 . S
C883 H871 0.929 . S
C883 C877 1.390 . S
C883 C880 1.386 . S
C884 C879 1.490 . S
C884 C886 1.395 . S
C884 C887 1.403 . S
H885 C891 0.930 . S
C886 H872 0.930 . S
C886 C884 1.395 . S
C886 C889 1.403 . S
C887 C884 1.403 . S
C887 C888 1.524 . S
C887 C891 1.400 . S
C888 H873 0.960 . S
C888 H874 0.960 . S
C888 H875 0.960 . S
C888 C887 1.524 . S
C889 C886 1.403 . S
C889 C890 1.392 . S
C889 C893 1.495 . S
C890 C889 1.392 . S
C890 C891 1.385 . S
C890 C892 1.478 . S
C891 H885 0.930 . S
C891 C887 1.400 . S
C891 C890 1.385 . S
C892 C890 1.478 . S
C892 C894 1.381 . S
C892 C898 1.383 . S
C893 C889 1.495 . S
C893 H899 0.959 . S
C893 H900 0.961 . S
C893 H901 0.960 . S
C894 C892 1.381 . S
C894 C895 1.394 . S
C894 H902 0.930 . S
C895 C894 1.394 . S
C895 C896 1.383 . S
C895 H903 0.929 . S
C896 C895 1.383 . S
C896 C897 1.377 . S
C897 H881 0.930 . S
C897 C896 1.377 . S
C897 C898 1.379 . S
C898 H882 0.931 . S
C898 C892 1.383 . S
C898 C897 1.379 . S
H899 C893 0.959 . S
H900 C893 0.961 . S
H901 C893 0.960 . S
H902 C894 0.930 . S
H903 C895 0.929 . S
H904 C912 0.929 . S
H905 C914 0.930 . S
H906 C916 0.930 1_556 S
H907 C919 0.929 . S
H908 C922 0.930 1_554 S
H909 C924 0.960 . S
H910 C924 0.960 . S
H911 C924 0.960 . S
C912 H904 0.929 . S
C912 C913 1.377 1_455 S
C912 C914 1.384 . S
C913 C912 1.377 1_655 S
C913 C919 1.390 . S
C914 H905 0.930 . S
C914 C912 1.384 . S
C914 C915 1.372 . S
C915 C914 1.372 . S
C915 C916 1.400 1_455 S
C915 C920 1.490 . S
C916 H906 0.930 1_554 S
C916 C915 1.400 1_655 S
C916 C919 1.386 . S
H917 C933 0.930 . S
H918 C934 0.931 . S
C919 H907 0.929 . S
C919 C913 1.390 . S
C919 C916 1.386 . S
C920 C915 1.490 . S
C920 C922 1.395 1_554 S
C920 C923 1.403 1_454 S
H921 C927 0.921 1_655 S
C922 H908 0.930 1_556 S
C922 C920 1.395 1_556 S
C922 C925 1.403 . S
C923 C920 1.403 1_656 S
C923 C924 1.524 1_556 S
C923 C927 1.396 1_655 S
C924 H909 0.960 . S
C924 H910 0.960 . S
C924 H911 0.960 . S
C924 C923 1.524 1_554 S
C925 C922 1.403 . S
C925 C926 1.392 . S
C925 C929 1.495 . S
C926 C925 1.392 . S
C926 C927 1.398 . S
C926 C928 1.478 . S
C927 H921 0.921 1_455 S
C927 C923 1.396 1_455 S
C927 C926 1.398 . S
C928 C926 1.478 . S
C928 C930 1.381 . S
C928 C934 1.383 . S
C929 C925 1.495 . S
C929 H935 0.959 . S
C929 H936 0.961 . S
C929 H937 0.960 . S
C930 C928 1.381 . S
C930 C931 1.394 . S
C930 H938 0.930 . S
C931 C930 1.394 . S
C931 C932 1.383 . S
C931 H939 0.929 . S
C932 C931 1.383 . S
C932 C933 1.377 . S
C933 H917 0.930 . S
C933 C932 1.377 . S
C933 C934 1.379 . S
C934 H918 0.931 . S
C934 C928 1.383 . S
C934 C933 1.379 . S
H935 C929 0.959 . S
H936 C929 0.961 . S
H937 C929 0.960 . S
H938 C930 0.930 . S
H939 C931 0.929 . S
H940 C948 0.929 . S
H941 C950 0.930 . S
H942 C952 0.930 . S
H943 C955 0.929 . S
H944 C958 0.930 . S
H945 C960 0.960 . S
H946 C960 0.980 . S
H947 C960 0.960 . S
C948 H940 0.929 . S
C948 C949 1.377 1_545 S
C948 C950 1.384 . S
C949 C948 1.377 1_565 S
C949 C955 1.390 . S
C950 H941 0.930 . S
C950 C948 1.384 . S
C950 C951 1.372 . S
C951 C950 1.372 . S
C951 C952 1.400 1_545 S
C951 C956 1.490 . S
C952 H942 0.930 . S
C952 C951 1.400 1_565 S
C952 C955 1.386 . S
H953 C969 0.930 1_565 S
H954 C970 0.931 1_565 S
C955 H943 0.929 . S
C955 C949 1.390 . S
C955 C952 1.386 . S
C956 C951 1.490 . S
C956 C958 1.395 1_554 S
C956 C959 1.403 . S
H957 C963 0.930 1_554 S
C958 H944 0.930 . S
C958 C956 1.395 1_556 S
C958 C961 1.403 . S
C959 C956 1.403 . S
C959 C960 1.524 1_545 S
C959 C963 1.400 1_554 S
C960 H945 0.960 . S
C960 H946 0.980 . S
C960 H947 0.960 . S
C960 C959 1.524 1_565 S
C961 C958 1.403 . S
C961 C962 1.392 . S
C961 C965 1.495 . S
C962 C961 1.392 . S
C962 C963 1.385 . S
C962 C964 1.478 . S
C963 H957 0.930 1_556 S
C963 C959 1.400 1_556 S
C963 C962 1.385 . S
C964 C962 1.478 . S
C964 C966 1.381 . S
C964 C970 1.383 . S
C965 C961 1.495 . S
C965 H971 0.959 . S
C965 H972 0.961 . S
C965 H973 0.960 . S
C966 C964 1.381 . S
C966 C967 1.394 . S
C966 H974 0.930 . S
C967 C966 1.394 . S
C967 C968 1.383 . S
C967 H975 0.929 . S
C968 C967 1.383 . S
C968 C969 1.377 . S
C969 H953 0.930 1_545 S
C969 C968 1.377 . S
C969 C970 1.379 . S
C970 H954 0.931 1_545 S
C970 C964 1.383 . S
C970 C969 1.379 . S
H971 C965 0.959 . S
H972 C965 0.961 . S
H973 C965 0.960 . S
H974 C966 0.930 . S
H975 C967 0.929 . S
H976 C984 0.929 . S
H977 C986 0.930 . S
H978 C988 0.930 1_556 S
H979 C991 0.929 . S
H980 C994 0.930 1_554 S
H981 C996 0.960 . S
H982 C996 0.960 . S
H983 C996 0.960 . S
C984 H976 0.929 . S
C984 C985 1.377 . S
C984 C986 1.384 . S
C985 C984 1.377 . S
C985 C991 1.390 . S
C986 H977 0.930 . S
C986 C984 1.384 . S
C986 C987 1.372 . S
C987 C986 1.372 . S
C987 C988 1.400 . S
C987 C992 1.490 . S
C988 H978 0.930 1_554 S
C988 C987 1.400 . S
C988 C991 1.386 . S
H989 C1005 0.930 . S
H990 C1006 0.931 . S
C991 H979 0.929 . S
C991 C985 1.390 . S
C991 C988 1.386 . S
C992 C987 1.490 . S
C992 C994 1.395 1_554 S
C992 C995 1.403 1_554 S
H993 C999 0.930 . S
C994 H980 0.930 1_556 S
C994 C992 1.395 1_556 S
C994 C997 1.403 . S
C995 C992 1.403 1_556 S
C995 C996 1.524 1_556 S
C995 C999 1.399 . S
C996 H981 0.960 . S
C996 H982 0.960 . S
C996 H983 0.960 . S
C996 C995 1.524 1_554 S
C997 C994 1.403 . S
C997 C998 1.392 . S
C997 C1001 1.495 . S
C998 C997 1.392 . S
C998 C999 1.385 . S
C998 C1000 1.478 . S
C999 H993 0.930 . S
C999 C995 1.399 . S
C999 C998 1.385 . S
C1000 C998 1.478 . S
C1000 C1002 1.381 . S
C1000 C1006 1.383 . S
C1001 C997 1.495 . S
C1001 H1007 0.959 . S
C1001 H1008 0.961 . S
C1001 H1009 0.960 . S
C1002 C1000 1.381 . S
C1002 C1003 1.394 . S
C1002 H1010 0.930 . S
C1003 C1002 1.394 . S
C1003 C1004 1.383 . S
C1003 H1011 0.929 . S
C1004 C1003 1.383 . S
C1004 C1005 1.377 . S
C1005 H989 0.930 . S
C1005 C1004 1.377 . S
C1005 C1006 1.379 . S
C1006 H990 0.931 . S
C1006 C1000 1.383 . S
C1006 C1005 1.379 . S
H1007 C1001 0.959 . S
H1008 C1001 0.961 . S
H1009 C1001 0.960 . S
H1010 C1002 0.930 . S
H1011 C1003 0.929 . S
H1012 C1020 0.929 . S
H1013 C1022 0.930 . S
H1014 C1024 0.930 . S
H1015 C1027 0.929 . S
H1016 C1030 0.930 . S
H1017 C1032 0.960 . S
H1018 C1032 0.960 . S
H1019 C1032 0.960 . S
C1020 H1012 0.929 . S
C1020 C1021 1.377 . S
C1020 C1022 1.384 . S
C1021 C1020 1.377 . S
C1021 C1027 1.390 . S
C1022 H1013 0.930 . S
C1022 C1020 1.384 . S
C1022 C1023 1.372 . S
C1023 C1022 1.372 . S
C1023 C1024 1.400 . S
C1023 C1028 1.490 . S
C1024 H1014 0.930 . S
C1024 C1023 1.400 . S
C1024 C1027 1.386 . S
H1025 C1041 0.930 . S
H1026 C1042 0.931 . S
C1027 H1015 0.929 . S
C1027 C1021 1.390 . S
C1027 C1024 1.386 . S
C1028 C1023 1.490 . S
C1028 C1030 1.395 . S
C1028 C1031 1.403 1_554 S
H1029 C1035 0.930 . S
C1030 H1016 0.930 . S
C1030 C1028 1.395 . S
C1030 C1033 1.403 1_554 S
C1031 C1028 1.403 1_556 S
C1031 C1032 1.524 . S
C1031 C1035 1.400 . S
C1032 H1017 0.960 . S
C1032 H1018 0.960 . S
C1032 H1019 0.960 . S
C1032 C1031 1.524 . S
C1033 C1030 1.403 1_556 S
C1033 C1034 1.392 . S
C1033 C1037 1.495 1_556 S
C1034 C1033 1.392 . S
C1034 C1035 1.385 . S
C1034 C1036 1.478 . S
C1035 H1029 0.930 . S
C1035 C1031 1.400 . S
C1035 C1034 1.385 . S
C1036 C1034 1.478 . S
C1036 C1038 1.381 . S
C1036 C1042 1.383 . S
C1037 C1033 1.495 1_554 S
C1037 H1043 0.959 . S
C1037 H1044 0.961 . S
C1037 H1045 0.960 1_554 S
C1038 C1036 1.381 . S
C1038 C1039 1.394 . S
C1038 H1046 0.930 . S
C1039 C1038 1.394 . S
C1039 C1040 1.383 . S
C1039 H1047 0.929 . S
C1040 C1039 1.383 . S
C1040 C1041 1.377 . S
C1041 H1025 0.930 . S
C1041 C1040 1.377 . S
C1041 C1042 1.379 . S
C1042 H1026 0.931 . S
C1042 C1036 1.383 . S
C1042 C1041 1.379 . S
H1043 C1037 0.959 . S
H1044 C1037 0.961 . S
H1045 C1037 0.960 1_556 S
H1046 C1038 0.930 . S
H1047 C1039 0.929 . S
H1048 C1056 0.929 . S
H1049 C1058 0.930 . S
H1050 C1060 0.930 . S
H1051 C1063 0.929 . S
H1052 C1066 0.930 . S
H1053 C1068 0.960 . S
H1054 C1068 0.960 . S
H1055 C1068 0.960 . S
C1056 H1048 0.929 . S
C1056 C1057 1.395 . S
C1056 C1058 1.384 . S
C1057 C1056 1.395 . S
C1057 C1063 1.377 1_455 S
C1058 H1049 0.930 . S
C1058 C1056 1.384 . S
C1058 C1059 1.372 . S
C1059 C1058 1.372 . S
C1059 C1060 1.400 1_455 S
C1059 C1064 1.490 . S
C1060 H1050 0.930 . S
C1060 C1059 1.400 1_655 S
C1060 C1063 1.386 . S
H1061 C1077 0.930 . S
H1062 C1078 0.931 . S
C1063 H1051 0.929 . S
C1063 C1057 1.377 1_655 S
C1063 C1060 1.386 . S
C1064 C1059 1.490 . S
C1064 C1066 1.395 . S
C1064 C1067 1.403 1_455 S
H1065 C1071 0.930 . S
C1066 H1052 0.930 . S
C1066 C1064 1.395 . S
C1066 C1069 1.403 . S
C1067 C1064 1.403 1_655 S
C1067 C1068 1.524 . S
C1067 C1071 1.400 . S
C1068 H1053 0.960 . S
C1068 H1054 0.960 . S
C1068 H1055 0.960 . S
C1068 C1067 1.524 . S
C1069 C1066 1.403 . S
C1069 C1070 1.392 . S
C1069 C1073 1.495 . S
C1070 C1069 1.392 . S
C1070 C1071 1.385 1_455 S
C1070 C1072 1.478 . S
C1071 H1065 0.930 . S
C1071 C1067 1.400 . S
C1071 C1070 1.385 1_655 S
C1072 C1070 1.478 . S
C1072 C1074 1.381 . S
C1072 C1078 1.383 . S
C1073 C1069 1.495 . S
C1073 H1079 0.959 . S
C1073 H1080 0.961 . S
C1073 H1081 0.960 . S
C1074 C1072 1.381 . S
C1074 C1075 1.394 . S
C1074 H1082 0.930 . S
C1075 C1074 1.394 . S
C1075 C1076 1.383 . S
C1075 H1083 0.929 . S
C1076 C1075 1.383 . S
C1076 C1077 1.377 . S
C1077 H1061 0.930 . S
C1077 C1076 1.377 . S
C1077 C1078 1.379 . S
C1078 H1062 0.931 . S
C1078 C1072 1.383 . S
C1078 C1077 1.379 . S
H1079 C1073 0.959 . S
H1080 C1073 0.961 . S
H1081 C1073 0.960 . S
H1082 C1074 0.930 . S
H1083 C1075 0.929 . S
H1084 C1092 0.929 . S
H1085 C1094 0.930 . S
H1086 C1096 0.930 . S
H1087 C1099 0.929 . S
H1088 C1102 0.930 . S
H1089 C1104 0.960 . S
H1090 C1104 0.960 . S
H1091 C1104 0.960 . S
C1092 H1084 0.929 . S
C1092 C1093 1.359 1_565 S
C1092 C1094 1.384 . S
C1093 C1092 1.359 1_545 S
C1093 C1099 1.412 . S
C1094 H1085 0.930 . S
C1094 C1092 1.384 . S
C1094 C1095 1.372 1_565 S
C1095 C1094 1.372 1_545 S
C1095 C1096 1.400 . S
C1095 C1100 1.490 . S
C1096 H1086 0.930 . S
C1096 C1095 1.400 . S
C1096 C1099 1.386 . S
H1097 C1113 0.930 . S
H1098 C1114 0.931 . S
C1099 H1087 0.929 . S
C1099 C1093 1.412 . S
C1099 C1096 1.386 . S
C1100 C1095 1.490 . S
C1100 C1102 1.395 . S
C1100 C1103 1.403 1_545 S
H1101 C1107 0.930 . S
C1102 H1088 0.930 . S
C1102 C1100 1.395 . S
C1102 C1105 1.403 . S
C1103 C1100 1.403 1_565 S
C1103 C1104 1.524 . S
C1103 C1107 1.400 . S
C1104 H1089 0.960 . S
C1104 H1090 0.960 . S
C1104 H1091 0.960 . S
C1104 C1103 1.524 . S
C1105 C1102 1.403 . S
C1105 C1106 1.392 . S
C1105 C1109 1.495 . S
C1106 C1105 1.392 . S
C1106 C1107 1.385 1_545 S
C1106 C1108 1.478 . S
C1107 H1101 0.930 . S
C1107 C1103 1.400 . S
C1107 C1106 1.385 1_565 S
C1108 C1106 1.478 . S
C1108 C1110 1.381 1_545 S
C1108 C1114 1.383 . S
C1109 C1105 1.495 . S
C1109 H1115 0.959 . S
C1109 H1116 0.961 . S
C1109 H1117 0.960 . S
C1110 C1108 1.381 1_565 S
C1110 C1111 1.394 . S
C1110 H1118 0.930 . S
C1111 C1110 1.394 . S
C1111 C1112 1.380 1_565 S
C1111 H1119 0.933 . S
C1112 C1111 1.380 1_545 S
C1112 C1113 1.377 . S
C1113 H1097 0.930 . S
C1113 C1112 1.377 . S
C1113 C1114 1.379 . S
C1114 H1098 0.931 . S
C1114 C1108 1.383 . S
C1114 C1113 1.379 . S
H1115 C1109 0.959 . S
H1116 C1109 0.961 . S
H1117 C1109 0.960 . S
H1118 C1110 0.930 . S
H1119 C1111 0.933 . S
H1120 C1128 0.929 . S
H1121 C1130 0.930 . S
H1122 C1132 0.930 . S
H1123 C1135 0.929 . S
H1124 C1138 0.930 . S
H1125 C1140 0.960 . S
H1126 C1140 0.960 . S
H1127 C1140 0.960 . S
C1128 H1120 0.929 . S
C1128 C1129 1.377 . S
C1128 C1130 1.384 . S
C1129 C1128 1.377 . S
C1129 C1135 1.390 . S
C1130 H1121 0.930 . S
C1130 C1128 1.384 . S
C1130 C1131 1.372 . S
C1131 C1130 1.372 . S
C1131 C1132 1.400 . S
C1131 C1136 1.490 . S
C1132 H1122 0.930 . S
C1132 C1131 1.400 . S
C1132 C1135 1.386 . S
H1133 C1149 0.930 . S
H1134 C1150 0.931 . S
C1135 H1123 0.929 . S
C1135 C1129 1.390 . S
C1135 C1132 1.386 . S
C1136 C1131 1.490 . S
C1136 C1138 1.395 . S
C1136 C1139 1.403 . S
H1137 C1143 0.930 . S
C1138 H1124 0.930 . S
C1138 C1136 1.395 . S
C1138 C1141 1.403 . S
C1139 C1136 1.403 . S
C1139 C1140 1.524 . S
C1139 C1143 1.400 . S
C1140 H1125 0.960 . S
C1140 H1126 0.960 . S
C1140 H1127 0.960 . S
C1140 C1139 1.524 . S
C1141 C1138 1.403 . S
C1141 C1142 1.392 . S
C1141 C1145 1.495 . S
C1142 C1141 1.392 . S
C1142 C1143 1.385 . S
C1142 C1144 1.478 . S
C1143 H1137 0.930 . S
C1143 C1139 1.400 . S
C1143 C1142 1.385 . S
C1144 C1142 1.478 . S
C1144 C1146 1.381 . S
C1144 C1150 1.383 . S
C1145 C1141 1.495 . S
C1145 H1151 0.959 . S
C1145 H1152 0.961 . S
C1145 H1153 0.960 . S
C1146 C1144 1.381 . S
C1146 C1147 1.394 . S
C1146 H1154 0.930 . S
C1147 C1146 1.394 . S
C1147 C1148 1.383 . S
C1147 H1155 0.929 . S
C1148 C1147 1.383 . S
C1148 C1149 1.377 . S
C1149 H1133 0.930 . S
C1149 C1148 1.377 . S
C1149 C1150 1.379 . S
C1150 H1134 0.931 . S
C1150 C1144 1.383 . S
C1150 C1149 1.379 . S
H1151 C1145 0.959 . S
H1152 C1145 0.961 . S
H1153 C1145 0.960 . S
H1154 C1146 0.930 . S
H1155 C1147 0.929 . S
H1156 C1164 0.929 . S
H1157 C1166 0.930 . S
H1158 C1168 0.930 . S
H1159 C1171 0.929 . S
H1160 C1174 0.930 . S
H1161 C1176 0.960 . S
H1162 C1176 0.960 . S
H1163 C1176 0.960 . S
C1164 H1156 0.929 . S
C1164 C1165 1.377 . S
C1164 C1166 1.384 . S
C1165 C1164 1.377 . S
C1165 C1171 1.390 . S
C1166 H1157 0.930 . S
C1166 C1164 1.384 . S
C1166 C1167 1.372 . S
C1167 C1166 1.372 . S
C1167 C1168 1.400 . S
C1167 C1172 1.490 . S
C1168 H1158 0.930 . S
C1168 C1167 1.400 . S
C1168 C1171 1.386 . S
H1169 C1185 0.930 . S
H1170 C1186 0.931 . S
C1171 H1159 0.929 . S
C1171 C1165 1.390 . S
C1171 C1168 1.386 . S
C1172 C1167 1.490 . S
C1172 C1174 1.395 . S
C1172 C1175 1.403 . S
H1173 C1179 0.930 . S
C1174 H1160 0.930 . S
C1174 C1172 1.395 . S
C1174 C1177 1.403 . S
C1175 C1172 1.403 . S
C1175 C1176 1.524 . S
C1175 C1179 1.400 . S
C1176 H1161 0.960 . S
C1176 H1162 0.960 . S
C1176 H1163 0.960 . S
C1176 C1175 1.524 . S
C1177 C1174 1.403 . S
C1177 C1178 1.392 . S
C1177 C1181 1.495 . S
C1178 C1177 1.392 . S
C1178 C1179 1.385 . S
C1178 C1180 1.478 . S
C1179 H1173 0.930 . S
C1179 C1175 1.400 . S
C1179 C1178 1.385 . S
C1180 C1178 1.478 . S
C1180 C1182 1.381 . S
C1180 C1186 1.383 . S
C1181 C1177 1.495 . S
C1181 H1187 0.959 . S
C1181 H1188 0.961 . S
C1181 H1189 0.960 . S
C1182 C1180 1.381 . S
C1182 C1183 1.394 . S
C1182 H1190 0.930 . S
C1183 C1182 1.394 . S
C1183 C1184 1.383 . S
C1183 H1191 0.929 . S
C1184 C1183 1.383 . S
C1184 C1185 1.377 . S
C1185 H1169 0.930 . S
C1185 C1184 1.377 . S
C1185 C1186 1.379 . S
C1186 H1170 0.931 . S
C1186 C1180 1.383 . S
C1186 C1185 1.379 . S
H1187 C1181 0.959 . S
H1188 C1181 0.961 . S
H1189 C1181 0.960 . S
H1190 C1182 0.930 . S
H1191 C1183 0.929 . S
H1192 C1200 0.929 . S
H1193 C1202 0.930 . S
H1194 C1204 0.931 . S
H1195 C1207 0.939 . S
H1196 C1210 0.930 . S
H1197 C1212 0.960 . S
H1198 C1212 0.960 . S
H1199 C1212 0.960 . S
C1200 H1192 0.929 . S
C1200 C1201 1.387 . S
C1200 C1202 1.384 . S
C1201 C1200 1.387 . S
C1201 C1207 1.383 1_655 S
C1202 H1193 0.930 . S
C1202 C1200 1.384 . S
C1202 C1203 1.372 . S
C1203 C1202 1.372 . S
C1203 C1204 1.398 1_655 S
C1203 C1208 1.490 . S
C1204 H1194 0.931 . S
C1204 C1203 1.398 1_455 S
C1204 C1207 1.385 . S
H1205 C1221 0.930 . S
H1206 C1222 0.931 . S
C1207 H1195 0.939 . S
C1207 C1201 1.383 1_455 S
C1207 C1204 1.385 . S
C1208 C1203 1.490 . S
C1208 C1210 1.395 . S
C1208 C1211 1.403 1_655 S
H1209 C1215 0.930 . S
C1210 H1196 0.930 . S
C1210 C1208 1.395 . S
C1210 C1213 1.403 . S
C1211 C1208 1.403 1_455 S
C1211 C1212 1.524 . S
C1211 C1215 1.400 . S
C1212 H1197 0.960 . S
C1212 H1198 0.960 . S
C1212 H1199 0.960 . S
C1212 C1211 1.524 . S
C1213 C1210 1.403 . S
C1213 C1214 1.392 . S
C1213 C1217 1.495 . S
C1214 C1213 1.392 . S
C1214 C1215 1.385 1_655 S
C1214 C1216 1.478 . S
C1215 H1209 0.930 . S
C1215 C1211 1.400 . S
C1215 C1214 1.385 1_455 S
C1216 C1214 1.478 . S
C1216 C1218 1.381 . S
C1216 C1222 1.383 . S
C1217 C1213 1.495 . S
C1217 H1223 0.959 . S
C1217 H1224 0.961 . S
C1217 H1225 0.960 . S
C1218 C1216 1.381 . S
C1218 C1219 1.394 . S
C1218 H1226 0.930 . S
C1219 C1218 1.394 . S
C1219 C1220 1.383 . S
C1219 H1227 0.929 . S
C1220 C1219 1.383 . S
C1220 C1221 1.377 . S
C1221 H1205 0.930 . S
C1221 C1220 1.377 . S
C1221 C1222 1.379 . S
C1222 H1206 0.931 . S
C1222 C1216 1.383 . S
C1222 C1221 1.379 . S
H1223 C1217 0.959 . S
H1224 C1217 0.961 . S
H1225 C1217 0.960 . S
H1226 C1218 0.930 . S
H1227 C1219 0.929 . S
H1228 C1236 0.929 . S
H1229 C1238 0.930 . S
H1230 C1240 0.930 . S
H1231 C1243 0.929 . S
H1232 C1246 0.930 . S
H1233 C1248 0.960 . S
H1234 C1248 0.960 . S
H1235 C1248 0.960 . S
C1236 H1228 0.929 . S
C1236 C1237 1.377 . S
C1236 C1238 1.384 . S
C1237 C1236 1.377 . S
C1237 C1243 1.390 1_565 S
C1238 H1229 0.930 . S
C1238 C1236 1.384 . S
C1238 C1239 1.372 . S
C1239 C1238 1.372 . S
C1239 C1240 1.400 1_565 S
C1239 C1244 1.490 . S
C1240 H1230 0.930 . S
C1240 C1239 1.400 1_545 S
C1240 C1243 1.386 . S
H1241 C1257 0.930 . S
H1242 C1258 0.931 . S
C1243 H1231 0.929 . S
C1243 C1237 1.390 1_545 S
C1243 C1240 1.386 . S
C1244 C1239 1.490 . S
C1244 C1246 1.395 . S
C1244 C1247 1.403 1_565 S
H1245 C1251 0.930 . S
C1246 H1232 0.930 . S
C1246 C1244 1.395 . S
C1246 C1249 1.403 . S
C1247 C1244 1.403 1_545 S
C1247 C1248 1.524 . S
C1247 C1251 1.400 . S
C1248 H1233 0.960 . S
C1248 H1234 0.960 . S
C1248 H1235 0.960 . S
C1248 C1247 1.524 . S
C1249 C1246 1.403 . S
C1249 C1250 1.392 . S
C1249 C1253 1.495 . S
C1250 C1249 1.392 . S
C1250 C1251 1.385 1_565 S
C1250 C1252 1.478 . S
C1251 H1245 0.930 . S
C1251 C1247 1.400 . S
C1251 C1250 1.385 1_545 S
C1252 C1250 1.478 . S
C1252 C1254 1.381 . S
C1252 C1258 1.383 1_565 S
C1253 C1249 1.495 . S
C1253 H1259 0.959 . S
C1253 H1260 0.961 . S
C1253 H1261 0.960 . S
C1254 C1252 1.381 . S
C1254 C1255 1.394 . S
C1254 H1262 0.930 . S
C1255 C1254 1.394 . S
C1255 C1256 1.383 . S
C1255 H1263 0.929 . S
C1256 C1255 1.383 . S
C1256 C1257 1.377 1_565 S
C1257 H1241 0.930 . S
C1257 C1256 1.377 1_545 S
C1257 C1258 1.379 . S
C1258 H1242 0.931 . S
C1258 C1252 1.383 1_545 S
C1258 C1257 1.379 . S
H1259 C1253 0.959 . S
H1260 C1253 0.961 . S
H1261 C1253 0.960 . S
H1262 C1254 0.930 . S
H1263 C1255 0.929 . S
H1264 C1272 0.929 . S
H1265 C1274 0.930 . S
H1266 C1276 0.930 . S
H1267 C1279 0.929 . S
H1268 C1282 0.930 . S
H1269 C1284 0.960 . S
H1270 C1284 0.960 . S
H1271 C1284 0.960 . S
C1272 H1264 0.929 . S
C1272 C1273 1.377 . S
C1272 C1274 1.384 . S
C1273 C1272 1.377 . S
C1273 C1279 1.390 . S
C1274 H1265 0.930 . S
C1274 C1272 1.384 . S
C1274 C1275 1.372 . S
C1275 C1274 1.372 . S
C1275 C1276 1.400 . S
C1275 C1280 1.490 . S
C1276 H1266 0.930 . S
C1276 C1275 1.400 . S
C1276 C1279 1.386 . S
H1277 C1293 0.930 . S
H1278 C1294 0.931 . S
C1279 H1267 0.929 . S
C1279 C1273 1.390 . S
C1279 C1276 1.386 . S
C1280 C1275 1.490 . S
C1280 C1282 1.395 . S
C1280 C1283 1.403 . S
H1281 C1287 0.930 . S
C1282 H1268 0.930 . S
C1282 C1280 1.395 . S
C1282 C1285 1.403 . S
C1283 C1280 1.403 . S
C1283 C1284 1.524 . S
C1283 C1287 1.400 . S
C1284 H1269 0.960 . S
C1284 H1270 0.960 . S
C1284 H1271 0.960 . S
C1284 C1283 1.524 . S
C1285 C1282 1.403 . S
C1285 C1286 1.392 . S
C1285 C1289 1.495 . S
C1286 C1285 1.392 . S
C1286 C1287 1.385 . S
C1286 C1288 1.478 . S
C1287 H1281 0.930 . S
C1287 C1283 1.400 . S
C1287 C1286 1.385 . S
C1288 C1286 1.478 . S
C1288 C1290 1.381 . S
C1288 C1294 1.383 . S
C1289 C1285 1.495 . S
C1289 H1295 0.959 . S
C1289 H1296 0.961 . S
C1289 H1297 0.960 . S
C1290 C1288 1.381 . S
C1290 C1291 1.394 . S
C1290 H1298 0.930 . S
C1291 C1290 1.394 . S
C1291 C1292 1.383 . S
C1291 H1299 0.929 . S
C1292 C1291 1.383 . S
C1292 C1293 1.377 . S
C1293 H1277 0.930 . S
C1293 C1292 1.377 . S
C1293 C1294 1.379 . S
C1294 H1278 0.931 . S
C1294 C1288 1.383 . S
C1294 C1293 1.379 . S
H1295 C1289 0.959 . S
H1296 C1289 0.961 . S
H1297 C1289 0.960 . S
H1298 C1290 0.930 . S
H1299 C1291 0.929 . S
H1300 C1308 0.929 . S
H1301 C1310 0.930 . S
H1302 C1312 0.930 . S
H1303 C1315 0.929 . S
H1304 C1318 0.930 . S
H1305 C1320 0.960 . S
H1306 C1320 0.960 . S
H1307 C1320 0.960 . S
C1308 H1300 0.929 . S
C1308 C1309 1.377 . S
C1308 C1310 1.384 . S
C1309 C1308 1.377 . S
C1309 C1315 1.390 . S
C1310 H1301 0.930 . S
C1310 C1308 1.384 . S
C1310 C1311 1.372 . S
C1311 C1310 1.372 . S
C1311 C1312 1.400 . S
C1311 C1316 1.490 . S
C1312 H1302 0.930 . S
C1312 C1311 1.400 . S
C1312 C1315 1.386 . S
H1313 C1329 0.930 . S
H1314 C1330 0.931 . S
C1315 H1303 0.929 . S
C1315 C1309 1.390 . S
C1315 C1312 1.386 . S
C1316 C1311 1.490 . S
C1316 C1318 1.395 . S
C1316 C1319 1.403 . S
H1317 C1323 0.930 . S
C1318 H1304 0.930 . S
C1318 C1316 1.395 . S
C1318 C1321 1.403 . S
C1319 C1316 1.403 . S
C1319 C1320 1.524 . S
C1319 C1323 1.400 . S
C1320 H1305 0.960 . S
C1320 H1306 0.960 . S
C1320 H1307 0.960 . S
C1320 C1319 1.524 . S
C1321 C1318 1.403 . S
C1321 C1322 1.392 . S
C1321 C1325 1.495 . S
C1322 C1321 1.392 . S
C1322 C1323 1.385 . S
C1322 C1324 1.478 . S
C1323 H1317 0.930 . S
C1323 C1319 1.400 . S
C1323 C1322 1.385 . S
C1324 C1322 1.478 . S
C1324 C1326 1.381 . S
C1324 C1330 1.383 . S
C1325 C1321 1.495 . S
C1325 H1331 0.959 . S
C1325 H1332 0.961 . S
C1325 H1333 0.960 . S
C1326 C1324 1.381 . S
C1326 C1327 1.394 . S
C1326 H1334 0.930 . S
C1327 C1326 1.394 . S
C1327 C1328 1.383 . S
C1327 H1335 0.929 . S
C1328 C1327 1.383 . S
C1328 C1329 1.377 . S
C1329 H1313 0.930 . S
C1329 C1328 1.377 . S
C1329 C1330 1.379 . S
C1330 H1314 0.931 . S
C1330 C1324 1.383 . S
C1330 C1329 1.379 . S
H1331 C1325 0.959 . S
H1332 C1325 0.961 . S
H1333 C1325 0.960 . S
H1334 C1326 0.930 . S
H1335 C1327 0.929 . S
C481 C255 1.965 . S
C500 C330 2.080 1_545 S
C536 C370 2.090 . S
C517 C294 1.953 . S
C572 C410 2.085 . S
C553 C177 1.973 . S
C608 C450 2.089 1_455 S
C589 C216 1.976 . S
C644 C320 2.088 1_565 S
C625 C99 1.973 1_545 S
C661 C138 1.955 . S
C680 C360 2.097 . S
C697 C21 1.965 . S
C716 C400 2.083 . S
C733 C60 1.978 . S
C752 C440 2.095 1_655 S
C788 C317 0.128 . S
C769 C196 0.219 1_455 S
C824 C357 0.148 . S
C805 C235 0.222 1_545 S
C860 C397 0.117 . S
C841 C289 0.213 . S
C877 C157 0.251 . S
C896 C437 0.297 . S
C913 C40 0.213 . S
C932 C327 0.302 . S
C968 C367 0.270 . S
C949 C79 0.200 . S
C1004 C407 0.310 . S
C985 C133 0.210 . S
C1021 C1 0.239 . S
C1040 C447 0.176 . S
C1057 C211 2.524 . S
C1076 C321 2.811 . S
C1093 C250 2.508 . S
C1112 C361 2.801 . S
C1148 C401 2.788 . S
C1129 C274 2.510 . S
C1184 C441 2.793 . S
C1165 C172 2.499 . S
C1201 C55 2.516 1_655 S
C1220 C331 2.827 . S
C1256 C371 2.801 . S
C1237 C94 2.502 1_565 S
C1292 C411 2.798 . S
C1273 C118 2.519 . S
C1309 C16 2.505 . S
C1328 C451 2.811 . S
