# Generated by pormake.
# Topology tsx, (6,3)-cn, num edge types: 1
# Building blocks:
#     Node 0, Type 0, BuildingBlock: FUNLAD_clean_sbu_0, # of connection points: 6
#     Node 1, Type 0, BuildingBlock: FUNLAD_clean_sbu_0, # of connection points: 6
#     Node 2, Type 1, BuildingBlock: QEWDON_clean_linker_0, # of connection points: 3
#     Node 3, Type 1, BuildingBlock: QEWDON_clean_linker_0, # of connection points: 3
#     Node 4, Type 1, BuildingBlock: QEWDON_clean_linker_0, # of connection points: 3
#     Node 5, Type 1, BuildingBlock: QEWDON_clean_linker_0, # of connection points: 3
#     Edge 6, Type (0, 1), BuildingBlock: AJUNOK_clean_linker_0, # of connection points: 2
#     Edge 7, Type (0, 1), BuildingBlock: AJUNOK_clean_linker_0, # of connection points: 2
#     Edge 8, Type (0, 1), BuildingBlock: AJUNOK_clean_linker_0, # of connection points: 2
#     Edge 9, Type (0, 1), BuildingBlock: AJUNOK_clean_linker_0, # of connection points: 2
#     Edge 10, Type (0, 1), BuildingBlock: AJUNOK_clean_linker_0, # of connection points: 2
#     Edge 11, Type (0, 1), BuildingBlock: AJUNOK_clean_linker_0, # of connection points: 2
#     Edge 12, Type (0, 1), BuildingBlock: AJUNOK_clean_linker_0, # of connection points: 2
#     Edge 13, Type (0, 1), BuildingBlock: AJUNOK_clean_linker_0, # of connection points: 2
#     Edge 14, Type (0, 1), BuildingBlock: AJUNOK_clean_linker_0, # of connection points: 2
#     Edge 15, Type (0, 1), BuildingBlock: AJUNOK_clean_linker_0, # of connection points: 2
#     Edge 16, Type (0, 1), BuildingBlock: AJUNOK_clean_linker_0, # of connection points: 2
#     Edge 17, Type (0, 1), BuildingBlock: AJUNOK_clean_linker_0, # of connection points: 2
# Relax obj value: 0.127
# Max RMSD: 0.180
# Mean RMSD: 0.156
data_MOF--net-tsx--node1-FUNLAD_clean_sbu_0--node2-QEWDON_clean_linker_0--edge1-AJUNOK_clean_linker_0
_symmetry_space_group_name_H-M    P1
_symmetry_Int_Tables_number       1
_symmetry_cell_setting            triclinic
loop_
_symmetry_equiv_pos_as_xyz
'x, y, z'
_cell_length_a     13.157662
_cell_length_b     17.085399
_cell_length_c     27.102964
_cell_angle_alpha  90.038097
_cell_angle_beta   107.85508
_cell_angle_gamma 90.074506
loop_
_atom_site_label
_atom_site_type_symbol
_atom_site_fract_x
_atom_site_fract_y
_atom_site_fract_z
_atom_type_partial_charge
C0 C 0.89495 0.8874 1.02742 0.0
N1 N 1.08656 0.97161 0.17828 0.0
C2 C 0.99749 0.9731 0.19386 0.0
C3 C 1.00631 0.97317 0.24668 0.0
C4 C 1.10774 0.97102 0.28391 0.0
C5 C 0.19807 0.96866 0.26664 0.0
C6 C 0.18567 0.96917 0.21356 0.0
Zn7 Zn 1.07314 0.98403 0.10086 0.0
C8 C 0.2267 0.87484 0.07152 0.0
N9 N 1.04973 0.01546 0.94043 0.0
C10 C 1.04018 0.09074 0.92286 0.0
C11 C 1.04929 0.9546 0.90797 0.0
C12 C 1.03966 0.96847 0.85585 0.0
C13 C 1.02904 0.04556 0.83679 0.0
C14 C 1.02893 0.10711 0.8709 0.0
Zn15 Zn 1.06363 -0.00424 1.01735 0.0
O16 O 0.93746 0.90171 0.07587 0.0
C17 C 0.93391 0.1159 0.05788 0.0
O18 O 0.93552 0.9178 0.99519 0.0
H19 H 1.05657 0.89527 0.92254 0.0
H20 H 0.9194 0.9761 0.1653 0.0
H21 H 1.04201 0.13857 0.94924 0.0
O22 O 0.96914 0.07492 0.09819 0.0
O23 O 0.95397 0.09495 1.01649 0.0
H24 H 0.25556 0.96885 0.20057 0.0
O25 O 0.18647 0.07144 1.03633 0.0
O26 O 0.20084 0.06964 0.11927 0.0
O27 O 0.18415 0.90194 1.02572 0.0
O28 O 0.18834 0.89508 0.10727 0.0
C29 C 0.23144 0.09474 0.08185 0.0
H30 H 0.93454 0.97628 0.25819 0.0
H31 H 0.27775 0.96609 0.29395 0.0
H32 H 1.03996 0.91941 0.83055 0.0
H33 H 1.02242 0.1673 0.85777 0.0
C34 C 0.61221 0.35195 0.55607 0.0
N35 N 0.77348 0.48814 0.69253 0.0
C36 C 0.68442 0.50527 0.70604 0.0
C37 C 0.69249 0.52826 0.75664 0.0
C38 C 0.79274 0.53072 0.7951 0.0
C39 C 0.88272 0.50907 0.78054 0.0
C40 C 0.8716 0.48985 0.72888 0.0
Zn41 Zn 0.76285 0.47288 0.61461 0.0
C42 C 0.94343 0.37429 0.60374 0.0
N43 N 0.75067 0.46653 0.45432 0.0
C44 C 0.64909 0.46331 0.4214 0.0
C45 C 0.83545 0.47408 0.43577 0.0
C46 C 0.81908 0.4803 0.38223 0.0
C47 C 0.71455 0.47959 0.34774 0.0
C48 C 0.62931 0.46939 0.368 0.0
Zn49 Zn 0.76595 0.47176 0.53238 0.0
O50 O 0.653 0.37307 0.60343 0.0
C51 C 0.59534 0.57161 0.55113 0.0
O52 O 0.65032 0.38004 0.52206 0.0
H53 H 0.91556 0.4772 0.46251 0.0
H54 H 0.60653 0.50328 0.67738 0.0
H55 H 0.58244 0.45773 0.43657 0.0
O56 O 0.6334 0.54177 0.59533 0.0
O57 O 0.63619 0.55486 0.51552 0.0
H58 H 0.94225 0.47742 0.71793 0.0
O59 O 0.87041 0.56621 0.53974 0.0
O60 O 0.85859 0.57993 0.61821 0.0
O61 O 0.90351 0.39091 0.55547 0.0
O62 O 0.89839 0.40012 0.63562 0.0
C63 C 0.8877 0.60682 0.58052 0.0
H64 H 0.62025 0.54467 0.76518 0.0
H65 H 0.96138 0.50623 0.80858 0.0
H66 H 0.88706 0.48723 0.36803 0.0
H67 H 0.54773 0.46599 0.34275 0.0
H68 H 0.21482 0.04087 0.53907 0.0
C69 C 0.2426 0.98305 0.54706 0.0
C70 C 0.21759 0.92977 0.5056 0.0
C71 C 0.31107 0.96421 0.59715 0.0
H72 H 0.24567 0.81467 0.48209 0.0
C73 C 0.26065 0.85551 0.51429 0.0
C74 C 0.33756 0.83744 0.5609 0.0
C75 C 0.36049 0.88987 0.60319 0.0
C76 C 0.33982 0.0266 0.6393 0.0
H77 H 0.41994 0.8739 0.63918 0.0
C78 C 0.26887 0.08886 0.63855 0.0
C79 C 0.29945 0.15714 0.6689 0.0
C80 C 0.44101 0.03014 0.67699 0.0
H81 H 0.49953 0.98463 0.67978 0.0
C82 C 0.47114 0.09596 0.70938 0.0
H83 H 0.18984 0.08443 0.61305 0.0
C84 C 0.40189 0.15988 0.70461 0.0
H85 H 0.42809 0.21105 0.72879 0.0
H86 H 0.55019 0.09851 0.73723 0.0
H87 H 1.01488 0.16283 0.58947 0.0
C88 C 0.99509 0.1022 0.58045 0.0
C89 C 0.97915 0.05201 0.61875 0.0
C90 C 0.99849 0.07158 0.53238 0.0
H91 H 0.94801 0.93585 0.63819 0.0
C92 C 0.95601 0.97382 0.60741 0.0
C93 C 0.94786 0.94195 0.55921 0.0
C94 C 0.97116 0.99071 0.52157 0.0
C95 C 1.04073 0.12115 0.49618 0.0
H96 H 0.97058 0.9656 0.48496 0.0
C97 C 0.1346 0.16866 0.51456 0.0
C98 C 0.18887 0.19873 0.48067 0.0
C99 C 0.99448 0.11457 0.4423 0.0
H100 H 0.92275 0.08012 0.42629 0.0
C101 C 1.04077 0.15156 0.40835 0.0
H102 H 0.1712 0.17662 0.55529 0.0
C103 C 0.1377 0.192 0.42718 0.0
H104 H 0.17456 0.2157 0.39975 0.0
H105 H 1.00371 0.14575 0.36693 0.0
H106 H 0.81237 0.66737 1.04056 0.0
C107 C 0.82662 0.60616 1.05047 0.0
C108 C 0.84161 0.55363 1.0132 0.0
C109 C 0.81959 0.57791 0.09857 0.0
H110 H 0.87074 0.4351 0.99633 0.0
C111 C 0.85756 0.47465 1.02519 0.0
C112 C 0.84631 0.44409 0.07074 0.0
C113 C 0.83154 0.49606 0.1085 0.0
C114 C 0.785 0.63105 0.135 0.0
H115 H 0.82366 0.47247 0.14404 0.0
C116 C 0.6976 0.68261 0.11613 0.0
C117 C 0.64741 0.72004 0.14891 0.0
C118 C 0.82988 0.62424 0.18892 0.0
H119 H 0.89695 0.5856 0.20524 0.0
C120 C 0.78718 0.66621 0.22234 0.0
H121 H 0.66066 0.68603 0.07559 0.0
C122 C 0.69606 0.71277 0.20268 0.0
H123 H 0.66123 0.74018 0.2297 0.0
H124 H 0.82221 0.65999 0.26386 0.0
H125 H 0.57723 0.5714 0.09526 0.0
C126 C 0.55366 0.51295 0.08496 0.0
C127 C 0.57937 0.45619 0.12417 0.0
C128 C 0.49084 0.49581 1.03371 0.0
H129 H 0.55697 0.33693 0.14238 0.0
C130 C 0.54215 0.3805 0.11182 0.0
C131 C 0.47129 0.36337 0.0631 0.0
C132 C 0.446 0.42032 1.02357 0.0
C133 C 0.4659 0.55974 0.99358 0.0
H134 H 0.38981 0.40646 0.98609 0.0
C135 C 0.546 0.61325 0.99152 0.0
C136 C 0.52252 0.68365 0.96313 0.0
C137 C 0.36164 0.57306 0.96092 0.0
H138 H 0.29737 0.53344 0.96095 0.0
C139 C 0.33864 0.63994 0.92933 0.0
H140 H 0.6264 0.60068 1.01384 0.0
C141 C 0.41776 0.69606 0.93147 0.0
H142 H 0.39695 0.74937 0.90906 0.0
H143 H 0.25822 0.64977 0.90434 0.0
C144 C 0.25771 0.2361 0.08377 0.0
C145 C 0.3026 0.1612 0.08654 0.0
C146 C 0.30909 0.30105 0.07098 0.0
C147 C 0.4069 0.29291 0.06073 0.0
H148 H 0.18023 0.24398 0.08937 0.0
H149 H 0.27394 0.35845 0.07076 0.0
S150 S 0.55693 0.10921 0.06291 0.0
N151 N 0.44794 0.08175 0.07647 0.0
N152 N 0.54832 0.20526 1.05555 0.0
C153 C 0.45305 0.21849 0.06383 0.0
C154 C 0.3998 0.15218 0.07594 0.0
C155 C 0.35453 0.76415 0.06835 0.0
C156 C 0.33462 0.83687 0.08774 0.0
C157 C 0.45496 0.72694 0.08821 0.0
C158 C 0.54096 0.76139 0.12739 0.0
H159 H 0.29147 0.73476 1.03878 0.0
H160 H 0.46438 0.6705 0.07265 0.0
S161 S 0.53136 0.95516 0.18779 0.0
N162 N 0.41007 0.94345 0.14703 0.0
N163 N 0.59831 0.8758 0.18206 0.0
C164 C 0.52197 0.83523 0.14581 0.0
C165 C 0.41952 0.87228 0.12645 0.0
C166 C 0.71835 0.83996 1.03362 0.0
C167 C 0.79511 0.8402 1.00727 0.0
C168 C 0.62285 0.79727 1.01449 0.0
C169 C 0.60541 0.74654 0.97183 0.0
H170 H 0.73122 0.8738 0.06885 0.0
H171 H 0.56519 0.80015 1.03523 0.0
S172 S 0.75541 0.7533 0.87684 0.0
N173 N 0.82738 0.80721 0.92576 0.0
N174 N 0.65389 0.71943 0.89433 0.0
C175 C 0.67431 0.75343 0.94165 0.0
C176 C 0.76842 0.80118 0.95886 0.0
C177 C 0.94995 0.23972 0.1086 0.0
C178 C 0.89471 0.19561 0.06427 0.0
C179 C 0.92694 0.31915 0.1136 0.0
C180 C 0.84634 0.357 0.07489 0.0
H181 H 1.01649 0.21404 0.13824 0.0
H182 H 0.97758 0.35232 0.14594 0.0
S183 S 0.66361 0.26388 0.95677 0.0
N184 N 0.74731 0.1932 0.98446 0.0
N185 N 0.69953 0.3411 0.99491 0.0
C186 C 0.78337 0.31129 1.03305 0.0
C187 C 0.80903 0.23114 1.02724 0.0
C188 C 0.98394 0.72023 0.55385 0.0
C189 C 0.9073 0.69214 0.57635 0.0
C190 C 0.9932 0.80107 0.54446 0.0
C191 C 0.92157 0.85609 0.55388 0.0
H192 H 1.03898 0.67972 0.54482 0.0
H193 H 1.05961 0.82084 0.53218 0.0
S194 S 0.70123 0.81167 0.60869 0.0
N195 N 0.75815 0.72612 0.60709 0.0
N196 N 0.76617 0.87465 0.58334 0.0
C197 C 0.83999 0.82718 0.57289 0.0
C198 C 0.83547 0.74649 0.5858 0.0
C199 C 1.05083 0.27313 0.6654 0.0
C200 C 1.04185 0.32592 0.62429 0.0
C201 C 0.14066 0.22409 0.68384 0.0
C202 C 0.22366 0.22493 0.66144 0.0
H203 H 0.98669 0.26808 0.68244 0.0
H204 H 0.1446 0.18438 0.71523 0.0
S205 S 0.26714 0.38534 0.57837 0.0
N206 N 0.14283 0.39802 0.57829 0.0
N207 N 0.31141 0.30592 0.61315 0.0
C208 C 0.22458 0.28732 0.62772 0.0
C209 C 0.13303 0.33717 0.60863 0.0
C210 C 0.42002 0.34617 0.50054 0.0
C211 C 0.50703 0.31014 0.53759 0.0
C212 C 0.31896 0.30951 0.48197 0.0
C213 C 0.29935 0.23533 0.50007 0.0
H214 H 0.42956 0.40417 0.4864 0.0
H215 H 0.25457 0.34085 0.45452 0.0
S216 S 0.51142 0.10619 0.58236 0.0
N217 N 0.57338 0.19014 0.58255 0.0
N218 N 0.38566 0.12058 0.54762 0.0
C219 C 0.38875 0.1964 0.53385 0.0
C220 C 0.49161 0.234 0.55278 0.0
C221 C 0.45784 0.63611 0.58185 0.0
C222 C 0.51725 0.63433 0.54638 0.0
C223 C 0.40277 0.70324 0.58826 0.0
C224 C 0.40559 0.77034 0.55936 0.0
H225 H 0.4566 0.58587 0.60604 0.0
H226 H 0.35722 0.70251 0.61547 0.0
S227 S 0.54639 0.79594 0.46082 0.0
N228 N 0.57288 0.70501 0.48125 0.0
N229 N 0.46928 0.83174 0.49328 0.0
C230 C 0.46193 0.76882 0.52274 0.0
C231 C 0.51723 0.70039 0.51594 0.0
C232 C 0.19881 0.01648 0.3751 0.0
C233 C 0.12063 0.96948 0.34054 0.0
C234 C 0.22251 0.00857 0.42902 0.0
C235 C 0.16885 0.95355 0.45058 0.0
H236 H 0.24461 0.05803 0.36036 0.0
H237 H 0.28798 0.04235 0.45391 0.0
S238 S 0.95543 0.81759 0.37731 0.0
N239 N 0.98729 0.86752 0.33203 0.0
N240 N 1.03211 0.85263 0.43308 0.0
C241 C 1.08738 0.90858 0.41646 0.0
C242 C 1.06297 0.91672 0.36159 0.0
C243 C 1.10086 0.03012 0.7623 0.0
C244 C 1.02224 0.06102 0.78193 0.0
C245 C 1.09101 0.03523 0.70956 0.0
C246 C 1.00249 0.07207 0.67419 0.0
H247 H 0.16867 -0.00086 0.78765 0.0
H248 H 0.15005 0.006 0.69569 0.0
S249 S 0.77534 0.16342 0.70601 0.0
N250 N 0.85435 0.13191 0.76239 0.0
N251 N 0.83512 0.14009 0.66256 0.0
C252 C 0.92505 0.1056 0.69349 0.0
C253 C 0.93541 0.10084 0.74757 0.0
C254 C 0.71915 0.52797 0.87054 0.0
C255 C 0.80136 0.55092 0.85026 0.0
C256 C 0.7277 0.53916 0.92277 0.0
C257 C 0.81953 0.57256 0.95768 0.0
H258 H 0.64965 0.49684 0.8468 0.0
H259 H 0.66558 0.51528 0.93697 0.0
S260 S 1.05041 0.65452 0.92471 0.0
N261 N 0.97197 0.61974 0.86912 0.0
N262 N 0.98983 0.63517 0.96839 0.0
C263 C 0.89999 0.59955 0.93814 0.0
C264 C 0.89077 0.58973 0.88436 0.0
C265 C 0.74493 0.43497 0.26529 0.0
C266 C 0.69314 0.48572 0.29064 0.0
C267 C 0.71241 0.42948 0.21102 0.0
C268 C 0.6287 0.47591 0.17992 0.0
H269 H 0.80635 0.39557 0.28756 0.0
H270 H 0.74953 0.38567 0.1933 0.0
S271 S 0.47265 0.62238 0.22728 0.0
N272 N 0.55899 0.58736 0.28051 0.0
N273 N 0.49737 0.57628 0.17864 0.0
C274 C 0.58024 0.52992 0.20473 0.0
C275 C 0.6127 0.53509 0.26001 0.0
loop_
_geom_bond_atom_site_label_1
_geom_bond_atom_site_label_2
_geom_bond_distance
_geom_bond_site_symmetry_2
_ccdc_geom_bond_type
C0 O16 1.244 1_556 S
C0 O18 1.262 . S
N1 C2 1.333 1_545 S
N1 C6 1.307 . S
N1 Zn7 2.020 . S
C2 N1 1.333 1_565 S
C2 C3 1.379 . S
C2 H20 0.952 1_455 S
C3 C2 1.379 . S
C3 C4 1.390 1_565 S
C3 H30 0.949 1_455 S
C4 C3 1.390 1_545 S
C4 C5 1.357 . S
C5 C4 1.357 . S
C5 C6 1.370 . S
C5 H31 0.950 . S
C6 N1 1.307 . S
C6 C5 1.370 . S
C6 H24 0.948 . S
Zn7 N1 2.020 . S
Zn7 O16 2.039 1_445 S
Zn7 O22 2.034 1_455 S
Zn7 O26 2.025 . S
Zn7 O28 2.024 1_545 S
C8 O27 1.246 1_554 S
C8 O28 1.249 . S
N9 C10 1.307 1_445 S
N9 C11 1.333 . S
N9 Zn15 2.020 . S
C10 N9 1.307 1_665 S
C10 C14 1.370 . S
C10 H21 0.948 . S
C11 N9 1.333 . S
C11 C12 1.379 . S
C11 H19 0.952 . S
C12 C11 1.379 . S
C12 C13 1.390 1_455 S
C12 H32 0.949 . S
C13 C12 1.390 1_655 S
C13 C14 1.357 1_545 S
C14 C10 1.370 . S
C14 C13 1.357 1_565 S
C14 H33 0.950 . S
Zn15 N9 2.020 . S
Zn15 O18 2.025 1_445 S
Zn15 O23 2.024 1_455 S
Zn15 O25 2.039 . S
Zn15 O27 2.034 1_545 S
O16 C0 1.244 1_554 S
O16 Zn7 2.039 1_665 S
C17 O22 1.246 1_556 S
C17 O23 1.249 . S
O18 C0 1.262 . S
O18 Zn15 2.025 1_665 S
H19 C11 0.952 . S
H20 C2 0.952 1_655 S
H21 C10 0.948 . S
O22 Zn7 2.034 1_655 S
O22 C17 1.246 1_554 S
O23 Zn15 2.024 1_655 S
O23 C17 1.249 . S
H24 C6 0.948 . S
O25 Zn15 2.039 . S
O25 C29 1.251 1_556 S
O26 Zn7 2.025 . S
O26 C29 1.254 . S
O27 C8 1.246 1_556 S
O27 Zn15 2.034 1_565 S
O28 Zn7 2.024 1_565 S
O28 C8 1.249 . S
C29 O25 1.251 1_554 S
C29 O26 1.254 . S
H30 C3 0.949 1_655 S
H31 C5 0.950 . S
H32 C12 0.949 . S
H33 C14 0.950 . S
C34 O50 1.251 . S
C34 O52 1.254 . S
N35 C36 1.333 . S
N35 C40 1.307 . S
N35 Zn41 2.020 . S
C36 N35 1.333 . S
C36 C37 1.379 . S
C36 H54 0.952 . S
C37 C36 1.379 . S
C37 C38 1.390 . S
C37 H64 0.949 . S
C38 C37 1.390 . S
C38 C39 1.357 . S
C39 C38 1.357 . S
C39 C40 1.370 . S
C39 H65 0.950 . S
C40 N35 1.307 . S
C40 C39 1.370 . S
C40 H58 0.948 . S
Zn41 N35 2.020 . S
Zn41 O50 2.039 . S
Zn41 O56 2.034 . S
Zn41 O60 2.025 . S
Zn41 O62 2.024 . S
C42 O61 1.246 . S
C42 O62 1.249 . S
N43 C44 1.307 . S
N43 C45 1.333 . S
N43 Zn49 2.020 . S
C44 N43 1.307 . S
C44 C48 1.370 . S
C44 H55 0.948 . S
C45 N43 1.333 . S
C45 C46 1.379 . S
C45 H53 0.952 . S
C46 C45 1.379 . S
C46 C47 1.390 . S
C46 H66 0.949 . S
C47 C46 1.390 . S
C47 C48 1.357 . S
C48 C44 1.370 . S
C48 C47 1.357 . S
C48 H67 0.950 . S
Zn49 N43 2.020 . S
Zn49 O52 2.025 . S
Zn49 O57 2.024 . S
Zn49 O59 2.039 . S
Zn49 O61 2.034 . S
O50 C34 1.251 . S
O50 Zn41 2.039 . S
C51 O56 1.246 . S
C51 O57 1.249 . S
O52 C34 1.254 . S
O52 Zn49 2.025 . S
H53 C45 0.952 . S
H54 C36 0.952 . S
H55 C44 0.948 . S
O56 Zn41 2.034 . S
O56 C51 1.246 . S
O57 Zn49 2.024 . S
O57 C51 1.249 . S
H58 C40 0.948 . S
O59 Zn49 2.039 . S
O59 C63 1.251 . S
O60 Zn41 2.025 . S
O60 C63 1.254 . S
O61 C42 1.246 . S
O61 Zn49 2.034 . S
O62 Zn41 2.024 . S
O62 C42 1.249 . S
C63 O59 1.251 . S
C63 O60 1.254 . S
H64 C37 0.949 . S
H65 C39 0.950 . S
H66 C46 0.949 . S
H67 C48 0.950 . S
H68 C69 0.949 . S
C69 H68 0.949 . S
C69 C70 1.395 1_545 S
C69 C71 1.391 . S
C70 C69 1.395 1_565 S
C70 C73 1.390 . S
C71 C69 1.391 . S
C71 C75 1.387 1_545 S
C71 C76 1.491 . S
H72 C73 0.950 . S
C73 C70 1.390 . S
C73 H72 0.950 . S
C73 C74 1.378 . S
C74 C73 1.378 . S
C74 C75 1.409 . S
C75 C71 1.387 1_565 S
C75 C74 1.409 . S
C75 H77 0.951 . S
C76 C71 1.491 . S
C76 C78 1.382 1_455 S
C76 C80 1.404 . S
H77 C75 0.951 . S
C78 C76 1.382 1_655 S
C78 C79 1.390 . S
C78 H83 0.949 . S
C79 C78 1.390 . S
C79 C84 1.399 1_655 S
C80 C76 1.404 . S
C80 H81 0.950 . S
C80 C82 1.375 . S
H81 C80 0.950 . S
C82 C80 1.375 . S
C82 C84 1.382 . S
C82 H86 0.950 . S
H83 C78 0.949 . S
C84 C79 1.399 1_455 S
C84 C82 1.382 . S
C84 H85 0.952 . S
H85 C84 0.952 . S
H86 C82 0.950 . S
H87 C88 0.944 1_455 S
C88 H87 0.944 1_655 S
C88 C89 1.400 1_545 S
C88 C90 1.391 . S
C89 C88 1.400 1_565 S
C89 C92 1.390 . S
C90 C88 1.391 . S
C90 C94 1.387 1_545 S
C90 C95 1.491 1_655 S
H91 C92 0.950 . S
C92 C89 1.390 . S
C92 H91 0.950 . S
C92 C93 1.378 . S
C93 C92 1.378 . S
C93 C94 1.409 . S
C94 C90 1.387 1_565 S
C94 C93 1.409 . S
C94 H96 0.951 . S
C95 C90 1.491 1_455 S
C95 C97 1.382 . S
C95 C99 1.404 1_455 S
H96 C94 0.951 . S
C97 C95 1.382 . S
C97 C98 1.390 . S
C97 H102 0.949 . S
C98 C97 1.390 . S
C98 C103 1.399 . S
C99 C95 1.404 1_655 S
C99 H100 0.950 . S
C99 C101 1.375 . S
H100 C99 0.950 . S
C101 C99 1.375 . S
C101 C103 1.382 1_655 S
C101 H105 0.950 . S
H102 C97 0.949 . S
C103 C98 1.399 . S
C103 C101 1.382 1_455 S
C103 H104 0.952 . S
H104 C103 0.952 . S
H105 C101 0.950 . S
H106 C107 0.949 . S
C107 H106 0.949 . S
C107 C108 1.395 . S
C107 C109 1.391 . S
C108 C107 1.395 . S
C108 C111 1.390 . S
C109 C107 1.391 . S
C109 C113 1.387 1_556 S
C109 C114 1.491 1_556 S
H110 C111 0.950 . S
C111 C108 1.390 . S
C111 H110 0.950 . S
C111 C112 1.378 . S
C112 C111 1.378 . S
C112 C113 1.409 1_556 S
C113 C109 1.387 1_554 S
C113 C112 1.409 1_554 S
C113 H115 0.951 . S
C114 C109 1.491 1_554 S
C114 C116 1.382 . S
C114 C118 1.404 . S
H115 C113 0.951 . S
C116 C114 1.382 . S
C116 C117 1.390 . S
C116 H121 0.949 1_554 S
C117 C116 1.390 . S
C117 C122 1.399 . S
C118 C114 1.404 . S
C118 H119 0.950 . S
C118 C120 1.375 . S
H119 C118 0.950 . S
C120 C118 1.375 . S
C120 C122 1.382 . S
C120 H124 0.950 . S
H121 C116 0.949 1_556 S
C122 C117 1.399 . S
C122 C120 1.382 . S
C122 H123 0.952 . S
H123 C122 0.952 . S
H124 C120 0.950 . S
H125 C126 0.949 . S
C126 H125 0.949 . S
C126 C127 1.395 . S
C126 C128 1.391 . S
C127 C126 1.395 . S
C127 C130 1.390 . S
C128 C126 1.391 . S
C128 C132 1.387 1_554 S
C128 C133 1.491 1_554 S
H129 C130 0.950 . S
C130 C127 1.390 . S
C130 H129 0.950 . S
C130 C131 1.378 . S
C131 C130 1.378 . S
C131 C132 1.409 1_554 S
C132 C128 1.387 1_556 S
C132 C131 1.409 1_556 S
C132 H134 0.951 . S
C133 C128 1.491 1_556 S
C133 C135 1.382 1_556 S
C133 C137 1.404 . S
H134 C132 0.951 . S
C135 C133 1.382 1_554 S
C135 C136 1.390 1_554 S
C135 H140 0.949 . S
C136 C135 1.390 1_556 S
C136 C141 1.399 . S
C137 C133 1.404 . S
C137 H138 0.950 . S
C137 C139 1.375 . S
H138 C137 0.950 . S
C139 C137 1.375 . S
C139 C141 1.382 . S
C139 H143 0.950 . S
H140 C135 0.949 . S
C141 C136 1.399 . S
C141 C139 1.382 . S
C141 H142 0.952 . S
H142 C141 0.952 . S
H143 C139 0.950 . S
C144 C145 1.369 1_556 S
C144 C146 1.419 . S
C144 H148 0.930 . S
C145 C144 1.369 1_554 S
C145 C154 1.429 . S
C146 C144 1.419 . S
C146 C147 1.363 1_556 S
C146 H149 0.929 . S
C147 C146 1.363 1_554 S
C147 C153 1.428 . S
H148 C144 0.930 . S
H149 C146 0.929 . S
S150 N151 1.613 . S
S150 N152 1.610 . S
N151 S150 1.613 . S
N151 C154 1.350 . S
N152 S150 1.610 . S
N152 C153 1.351 . S
C153 C147 1.428 . S
C153 N152 1.351 . S
C153 C154 1.434 . S
C154 C145 1.429 . S
C154 N151 1.350 . S
C154 C153 1.434 . S
C155 C156 1.369 1_556 S
C155 C157 1.419 . S
C155 H159 0.930 . S
C156 C155 1.369 1_554 S
C156 C165 1.429 . S
C157 C155 1.419 . S
C157 C158 1.363 1_556 S
C157 H160 0.929 . S
C158 C157 1.363 1_554 S
C158 C164 1.428 . S
H159 C155 0.930 . S
H160 C157 0.929 . S
S161 N162 1.613 . S
S161 N163 1.610 . S
N162 S161 1.613 . S
N162 C165 1.350 . S
N163 S161 1.610 . S
N163 C164 1.351 . S
C164 C158 1.428 . S
C164 N163 1.351 . S
C164 C165 1.434 . S
C165 C156 1.429 . S
C165 N162 1.350 . S
C165 C164 1.434 . S
C166 C167 1.369 1_554 S
C166 C168 1.419 . S
C166 H170 0.930 . S
C167 C166 1.369 1_556 S
C167 C176 1.429 . S
C168 C166 1.419 . S
C168 C169 1.363 1_554 S
C168 H171 0.929 . S
C169 C168 1.363 1_556 S
C169 C175 1.428 . S
H170 C166 0.930 . S
H171 C168 0.929 . S
S172 N173 1.613 . S
S172 N174 1.610 . S
N173 S172 1.613 . S
N173 C176 1.350 . S
N174 S172 1.610 . S
N174 C175 1.351 . S
C175 C169 1.428 . S
C175 N174 1.351 . S
C175 C176 1.434 . S
C176 C167 1.429 . S
C176 N173 1.350 . S
C176 C175 1.434 . S
C177 C178 1.369 1_554 S
C177 C179 1.419 . S
C177 H181 0.930 . S
C178 C177 1.369 1_556 S
C178 C187 1.429 . S
C179 C177 1.419 . S
C179 C180 1.363 1_554 S
C179 H182 0.929 . S
C180 C179 1.363 1_556 S
C180 C186 1.428 . S
H181 C177 0.930 . S
H182 C179 0.929 . S
S183 N184 1.613 . S
S183 N185 1.610 . S
N184 S183 1.613 . S
N184 C187 1.350 . S
N185 S183 1.610 . S
N185 C186 1.351 . S
C186 C180 1.428 . S
C186 N185 1.351 . S
C186 C187 1.434 . S
C187 C178 1.429 . S
C187 N184 1.350 . S
C187 C186 1.434 . S
C188 C189 1.369 . S
C188 C190 1.419 . S
C188 H192 0.930 . S
C189 C188 1.369 . S
C189 C198 1.429 . S
C190 C188 1.419 . S
C190 C191 1.363 . S
C190 H193 0.929 . S
C191 C190 1.363 . S
C191 C197 1.428 . S
H192 C188 0.930 . S
H193 C190 0.929 . S
S194 N195 1.613 . S
S194 N196 1.610 . S
N195 S194 1.613 . S
N195 C198 1.350 . S
N196 S194 1.610 . S
N196 C197 1.351 . S
C197 C191 1.428 . S
C197 N196 1.351 . S
C197 C198 1.434 . S
C198 C189 1.429 . S
C198 N195 1.350 . S
C198 C197 1.434 . S
C199 C200 1.369 . S
C199 C201 1.419 . S
C199 H203 0.930 . S
C200 C199 1.369 . S
C200 C209 1.429 . S
C201 C199 1.419 . S
C201 C202 1.363 . S
C201 H204 0.929 . S
C202 C201 1.363 . S
C202 C208 1.428 . S
H203 C199 0.930 . S
H204 C201 0.929 . S
S205 N206 1.613 . S
S205 N207 1.610 . S
N206 S205 1.613 . S
N206 C209 1.350 . S
N207 S205 1.610 . S
N207 C208 1.351 . S
C208 C202 1.428 . S
C208 N207 1.351 . S
C208 C209 1.434 . S
C209 C200 1.429 . S
C209 N206 1.350 . S
C209 C208 1.434 . S
C210 C211 1.369 . S
C210 C212 1.419 . S
C210 H214 0.930 . S
C211 C210 1.369 . S
C211 C220 1.429 . S
C212 C210 1.419 . S
C212 C213 1.363 . S
C212 H215 0.929 . S
C213 C212 1.363 . S
C213 C219 1.428 . S
H214 C210 0.930 . S
H215 C212 0.929 . S
S216 N217 1.613 . S
S216 N218 1.610 . S
N217 S216 1.613 . S
N217 C220 1.350 . S
N218 S216 1.610 . S
N218 C219 1.351 . S
C219 C213 1.428 . S
C219 N218 1.351 . S
C219 C220 1.434 . S
C220 C211 1.429 . S
C220 N217 1.350 . S
C220 C219 1.434 . S
C221 C222 1.369 . S
C221 C223 1.419 . S
C221 H225 0.930 . S
C222 C221 1.369 . S
C222 C231 1.429 . S
C223 C221 1.419 . S
C223 C224 1.363 . S
C223 H226 0.929 . S
C224 C223 1.363 . S
C224 C230 1.428 . S
H225 C221 0.930 . S
H226 C223 0.929 . S
S227 N228 1.613 . S
S227 N229 1.610 . S
N228 S227 1.613 . S
N228 C231 1.350 . S
N229 S227 1.610 . S
N229 C230 1.351 . S
C230 C224 1.428 . S
C230 N229 1.351 . S
C230 C231 1.434 . S
C231 C222 1.429 . S
C231 N228 1.350 . S
C231 C230 1.434 . S
C232 C233 1.369 . S
C232 C234 1.419 . S
C232 H236 0.930 . S
C233 C232 1.369 . S
C233 C242 1.429 1_545 S
C234 C232 1.419 . S
C234 C235 1.357 1_545 S
C234 H237 0.929 . S
C235 C234 1.357 1_565 S
C235 C241 1.434 . S
H236 C232 0.930 . S
H237 C234 0.929 . S
S238 N239 1.613 . S
S238 N240 1.610 . S
N239 S238 1.613 . S
N239 C242 1.350 1_655 S
N240 S238 1.610 . S
N240 C241 1.351 1_655 S
C241 C235 1.434 . S
C241 N240 1.351 1_455 S
C241 C242 1.434 . S
C242 C233 1.429 1_565 S
C242 N239 1.350 1_455 S
C242 C241 1.434 . S
C243 C244 1.369 1_455 S
C243 C245 1.419 . S
C243 H247 0.930 . S
C244 C243 1.369 1_655 S
C244 C253 1.429 1_545 S
C245 C243 1.419 . S
C245 C246 1.363 1_455 S
C245 H248 0.929 . S
C246 C245 1.363 1_655 S
C246 C252 1.428 1_545 S
H247 C243 0.930 . S
H248 C245 0.929 . S
S249 N250 1.613 . S
S249 N251 1.610 . S
N250 S249 1.613 . S
N250 C253 1.350 . S
N251 S249 1.610 . S
N251 C252 1.351 . S
C252 C246 1.428 1_565 S
C252 N251 1.351 . S
C252 C253 1.434 . S
C253 C244 1.429 1_565 S
C253 N250 1.350 . S
C253 C252 1.434 . S
C254 C255 1.369 . S
C254 C256 1.419 . S
C254 H258 0.930 . S
C255 C254 1.369 . S
C255 C264 1.429 . S
C256 C254 1.419 . S
C256 C257 1.363 . S
C256 H259 0.929 . S
C257 C256 1.363 . S
C257 C263 1.428 . S
H258 C254 0.930 . S
H259 C256 0.929 . S
S260 N261 1.613 . S
S260 N262 1.610 . S
N261 S260 1.613 . S
N261 C264 1.350 . S
N262 S260 1.610 . S
N262 C263 1.351 . S
C263 C257 1.428 . S
C263 N262 1.351 . S
C263 C264 1.434 . S
C264 C255 1.429 . S
C264 N261 1.350 . S
C264 C263 1.434 . S
C265 C266 1.369 . S
C265 C267 1.419 . S
C265 H269 0.930 . S
C266 C265 1.369 . S
C266 C275 1.429 . S
C267 C265 1.419 . S
C267 C268 1.363 . S
C267 H270 0.929 . S
C268 C267 1.363 . S
C268 C274 1.428 . S
H269 C265 0.930 . S
H270 C267 0.929 . S
S271 N272 1.613 . S
S271 N273 1.610 . S
N272 S271 1.613 . S
N272 C275 1.350 . S
N273 S271 1.610 . S
N273 C274 1.351 . S
C274 C268 1.428 . S
C274 N273 1.351 . S
C274 C275 1.434 . S
C275 C266 1.429 . S
C275 N272 1.350 . S
C275 C274 1.434 . S
C147 C131 1.533 . S
C145 C29 1.573 . S
C156 C8 1.477 . S
C158 C117 1.456 . S
C167 C0 1.483 . S
C169 C136 1.460 . S
C178 C17 1.575 . S
C180 C112 1.536 . S
C189 C63 1.571 . S
C191 C93 1.535 . S
C200 C42 1.479 . S
C202 C79 1.460 . S
C213 C98 1.464 . S
C211 C34 1.485 . S
C224 C74 1.535 . S
C222 C51 1.575 . S
C233 C4 1.559 . S
C235 C70 1.551 . S
C244 C13 1.546 . S
C246 C89 1.536 1_545 S
C257 C108 1.548 . S
C255 C38 1.560 . S
C266 C47 1.548 . S
C268 C127 1.539 . S
