# Generated by pormake.
# Topology ctn, (3,4)-cn, num edge types: 1
# Building blocks:
#     Node 0, Type 0, BuildingBlock: CUQRIR_clean_linker_1, # of connection points: 3
#     Node 1, Type 0, BuildingBlock: CUQRIR_clean_linker_1, # of connection points: 3
#     Node 2, Type 0, BuildingBlock: CUQRIR_clean_linker_1, # of connection points: 3
#     Node 3, Type 0, BuildingBlock: CUQRIR_clean_linker_1, # of connection points: 3
#     Node 4, Type 0, BuildingBlock: CUQRIR_clean_linker_1, # of connection points: 3
#     Node 5, Type 0, BuildingBlock: CUQRIR_clean_linker_1, # of connection points: 3
#     Node 6, Type 0, BuildingBlock: CUQRIR_clean_linker_1, # of connection points: 3
#     Node 7, Type 0, BuildingBlock: CUQRIR_clean_linker_1, # of connection points: 3
#     Node 8, Type 0, BuildingBlock: CUQRIR_clean_linker_1, # of connection points: 3
#     Node 9, Type 0, BuildingBlock: CUQRIR_clean_linker_1, # of connection points: 3
#     Node 10, Type 0, BuildingBlock: CUQRIR_clean_linker_1, # of connection points: 3
#     Node 11, Type 0, BuildingBlock: CUQRIR_clean_linker_1, # of connection points: 3
#     Node 12, Type 0, BuildingBlock: CUQRIR_clean_linker_1, # of connection points: 3
#     Node 13, Type 0, BuildingBlock: CUQRIR_clean_linker_1, # of connection points: 3
#     Node 14, Type 0, BuildingBlock: CUQRIR_clean_linker_1, # of connection points: 3
#     Node 15, Type 0, BuildingBlock: CUQRIR_clean_linker_1, # of connection points: 3
#     Node 16, Type 1, BuildingBlock: KUFVIS_clean_sbu_0, # of connection points: 4
#     Node 17, Type 1, BuildingBlock: KUFVIS_clean_sbu_0, # of connection points: 4
#     Node 18, Type 1, BuildingBlock: KUFVIS_clean_sbu_0, # of connection points: 4
#     Node 19, Type 1, BuildingBlock: KUFVIS_clean_sbu_0, # of connection points: 4
#     Node 20, Type 1, BuildingBlock: KUFVIS_clean_sbu_0, # of connection points: 4
#     Node 21, Type 1, BuildingBlock: KUFVIS_clean_sbu_0, # of connection points: 4
#     Node 22, Type 1, BuildingBlock: KUFVIS_clean_sbu_0, # of connection points: 4
#     Node 23, Type 1, BuildingBlock: KUFVIS_clean_sbu_0, # of connection points: 4
#     Node 24, Type 1, BuildingBlock: KUFVIS_clean_sbu_0, # of connection points: 4
#     Node 25, Type 1, BuildingBlock: KUFVIS_clean_sbu_0, # of connection points: 4
#     Node 26, Type 1, BuildingBlock: KUFVIS_clean_sbu_0, # of connection points: 4
#     Node 27, Type 1, BuildingBlock: KUFVIS_clean_sbu_0, # of connection points: 4
#     Edge 28, Type (0, 1), BuildingBlock: AJUNOK_clean_linker_0, # of connection points: 2
#     Edge 29, Type (0, 1), BuildingBlock: AJUNOK_clean_linker_0, # of connection points: 2
#     Edge 30, Type (0, 1), BuildingBlock: AJUNOK_clean_linker_0, # of connection points: 2
#     Edge 31, Type (0, 1), BuildingBlock: AJUNOK_clean_linker_0, # of connection points: 2
#     Edge 32, Type (0, 1), BuildingBlock: AJUNOK_clean_linker_0, # of connection points: 2
#     Edge 33, Type (0, 1), BuildingBlock: AJUNOK_clean_linker_0, # of connection points: 2
#     Edge 34, Type (0, 1), BuildingBlock: AJUNOK_clean_linker_0, # of connection points: 2
#     Edge 35, Type (0, 1), BuildingBlock: AJUNOK_clean_linker_0, # of connection points: 2
#     Edge 36, Type (0, 1), BuildingBlock: AJUNOK_clean_linker_0, # of connection points: 2
#     Edge 37, Type (0, 1), BuildingBlock: AJUNOK_clean_linker_0, # of connection points: 2
#     Edge 38, Type (0, 1), BuildingBlock: AJUNOK_clean_linker_0, # of connection points: 2
#     Edge 39, Type (0, 1), BuildingBlock: AJUNOK_clean_linker_0, # of connection points: 2
#     Edge 40, Type (0, 1), BuildingBlock: AJUNOK_clean_linker_0, # of connection points: 2
#     Edge 41, Type (0, 1), BuildingBlock: AJUNOK_clean_linker_0, # of connection points: 2
#     Edge 42, Type (0, 1), BuildingBlock: AJUNOK_clean_linker_0, # of connection points: 2
#     Edge 43, Type (0, 1), BuildingBlock: AJUNOK_clean_linker_0, # of connection points: 2
#     Edge 44, Type (0, 1), BuildingBlock: AJUNOK_clean_linker_0, # of connection points: 2
#     Edge 45, Type (0, 1), BuildingBlock: AJUNOK_clean_linker_0, # of connection points: 2
#     Edge 46, Type (0, 1), BuildingBlock: AJUNOK_clean_linker_0, # of connection points: 2
#     Edge 47, Type (0, 1), BuildingBlock: AJUNOK_clean_linker_0, # of connection points: 2
#     Edge 48, Type (0, 1), BuildingBlock: AJUNOK_clean_linker_0, # of connection points: 2
#     Edge 49, Type (0, 1), BuildingBlock: AJUNOK_clean_linker_0, # of connection points: 2
#     Edge 50, Type (0, 1), BuildingBlock: AJUNOK_clean_linker_0, # of connection points: 2
#     Edge 51, Type (0, 1), BuildingBlock: AJUNOK_clean_linker_0, # of connection points: 2
#     Edge 52, Type (0, 1), BuildingBlock: AJUNOK_clean_linker_0, # of connection points: 2
#     Edge 53, Type (0, 1), BuildingBlock: AJUNOK_clean_linker_0, # of connection points: 2
#     Edge 54, Type (0, 1), BuildingBlock: AJUNOK_clean_linker_0, # of connection points: 2
#     Edge 55, Type (0, 1), BuildingBlock: AJUNOK_clean_linker_0, # of connection points: 2
#     Edge 56, Type (0, 1), BuildingBlock: AJUNOK_clean_linker_0, # of connection points: 2
#     Edge 57, Type (0, 1), BuildingBlock: AJUNOK_clean_linker_0, # of connection points: 2
#     Edge 58, Type (0, 1), BuildingBlock: AJUNOK_clean_linker_0, # of connection points: 2
#     Edge 59, Type (0, 1), BuildingBlock: AJUNOK_clean_linker_0, # of connection points: 2
#     Edge 60, Type (0, 1), BuildingBlock: AJUNOK_clean_linker_0, # of connection points: 2
#     Edge 61, Type (0, 1), BuildingBlock: AJUNOK_clean_linker_0, # of connection points: 2
#     Edge 62, Type (0, 1), BuildingBlock: AJUNOK_clean_linker_0, # of connection points: 2
#     Edge 63, Type (0, 1), BuildingBlock: AJUNOK_clean_linker_0, # of connection points: 2
#     Edge 64, Type (0, 1), BuildingBlock: AJUNOK_clean_linker_0, # of connection points: 2
#     Edge 65, Type (0, 1), BuildingBlock: AJUNOK_clean_linker_0, # of connection points: 2
#     Edge 66, Type (0, 1), BuildingBlock: AJUNOK_clean_linker_0, # of connection points: 2
#     Edge 67, Type (0, 1), BuildingBlock: AJUNOK_clean_linker_0, # of connection points: 2
#     Edge 68, Type (0, 1), BuildingBlock: AJUNOK_clean_linker_0, # of connection points: 2
#     Edge 69, Type (0, 1), BuildingBlock: AJUNOK_clean_linker_0, # of connection points: 2
#     Edge 70, Type (0, 1), BuildingBlock: AJUNOK_clean_linker_0, # of connection points: 2
#     Edge 71, Type (0, 1), BuildingBlock: AJUNOK_clean_linker_0, # of connection points: 2
#     Edge 72, Type (0, 1), BuildingBlock: AJUNOK_clean_linker_0, # of connection points: 2
#     Edge 73, Type (0, 1), BuildingBlock: AJUNOK_clean_linker_0, # of connection points: 2
#     Edge 74, Type (0, 1), BuildingBlock: AJUNOK_clean_linker_0, # of connection points: 2
#     Edge 75, Type (0, 1), BuildingBlock: AJUNOK_clean_linker_0, # of connection points: 2
# Relax obj value: 0.097
# Max RMSD: 0.203
# Mean RMSD: 0.135
data_MOF--net-ctn--node1-KUFVIS_clean_sbu_0--node2-CUQRIR_clean_linker_1--edge1-AJUNOK_clean_linker_0
_symmetry_space_group_name_H-M    P1
_symmetry_Int_Tables_number       1
_symmetry_cell_setting            triclinic
loop_
_symmetry_equiv_pos_as_xyz
'x, y, z'
_cell_length_a     35.597393
_cell_length_b     32.576006
_cell_length_c     33.836884
_cell_angle_alpha  97.053563
_cell_angle_beta   89.494858
_cell_angle_gamma 94.136636
loop_
_atom_site_label
_atom_site_type_symbol
_atom_site_fract_x
_atom_site_fract_y
_atom_site_fract_z
_atom_type_partial_charge
C0 C 0.06778 0.03446 0.11556 0.0
N1 N 0.08297 0.05262 0.08445 0.0
N2 N 0.03531 0.05109 0.12776 0.0
C3 C 0.08297 0.9981 0.13213 0.0
C4 C 0.03092 0.07989 0.10291 0.0
N5 N 0.05957 0.08071 0.07627 0.0
C6 C 0.99894 0.10794 0.10496 0.0
H7 H 0.09896 0.97915 0.10924 0.0
H8 H 0.05977 0.9781 0.14346 0.0
H9 H 0.1021 1.00975 0.15737 0.0
H10 H 0.98409 0.10894 0.13397 0.0
H11 H 0.97864 0.09651 0.0807 0.0
H12 H 1.00952 0.13988 0.10039 0.0
C13 C 0.3347 0.73904 0.20419 0.0
N14 N 0.34186 0.7196 0.23639 0.0
N15 N 0.3545 0.77616 0.20596 0.0
C16 C 0.30735 0.72303 0.1712 0.0
C17 C 0.37418 0.77901 0.24028 0.0
N18 N 0.36651 0.74469 0.25912 0.0
C19 C 0.40245 0.8144 0.25379 0.0
H20 H 0.323 0.70673 0.14622 0.0
H21 H 0.29406 0.74892 0.15968 0.0
H22 H 0.28513 0.70103 0.18081 0.0
H23 H 0.41207 0.83105 0.22841 0.0
H24 H 0.4272 0.80309 0.26772 0.0
H25 H 0.38908 0.83668 0.27606 0.0
C26 C 0.99104 0.53121 0.11142 0.0
N27 N 1.018 0.50374 0.11163 0.0
N28 N 0.97 0.52368 0.07779 0.0
C29 C 0.98476 0.56503 0.1448 0.0
C30 C 0.98534 0.4907 0.05716 0.0
N31 N 1.01453 0.47851 0.07746 0.0
C32 C 0.97214 0.47028 1.01679 0.0
H33 H 0.99448 0.55651 0.17359 0.0
H34 H 0.95453 0.57124 0.14714 0.0
H35 H 1.00109 0.5939 0.13871 0.0
H36 H 0.95394 0.49008 1.00207 0.0
H37 H 0.95625 0.44031 1.02018 0.0
H38 H 0.99655 0.46351 0.99713 0.0
C39 C 0.66571 0.82803 0.22091 0.0
N40 N 0.7003 0.84153 0.20884 0.0
N41 N 0.65247 0.8551 0.25035 0.0
C42 C 0.64598 0.78656 0.20661 0.0
C43 C 0.68002 0.88605 0.25496 0.0
N44 N 0.70971 0.87757 0.23057 0.0
C45 C 0.67864 0.92335 0.28585 0.0
H46 H 0.65239 0.77703 0.17479 0.0
H47 H 0.61507 0.78762 0.21068 0.0
H48 H 0.6558 0.76298 0.2244 0.0
H49 H 0.68328 0.91422 0.31585 0.0
H50 H 0.65019 0.93525 0.28598 0.0
H51 H 0.70013 0.94831 0.28003 0.0
C52 C 0.03689 1.00621 0.53734 0.0
N53 N 0.07026 1.00434 0.55624 0.0
N54 N 0.04227 1.01664 0.50025 0.0
C55 C 0.9992 0.99099 0.55253 0.0
C56 C 0.08003 1.02131 0.49679 0.0
N57 N 0.09737 1.01543 0.53112 0.0
C58 C 0.09977 1.02583 0.45788 0.0
H59 H 0.99462 0.95713 0.54325 0.0
H60 H 0.97618 1.00656 0.53988 0.0
H61 H 0.99822 0.99664 0.58552 0.0
H62 H 0.08015 0.03274 0.43473 0.0
H63 H 0.11236 0.99634 0.44709 0.0
H64 H 0.12274 0.05062 0.46181 0.0
C65 C 0.17458 0.72118 0.87225 0.0
N66 N 0.20629 0.71546 0.89239 0.0
N67 N 0.17449 0.70016 0.83525 0.0
C68 C 0.1447 0.74987 0.88719 0.0
C69 C 0.20714 0.68141 0.83315 0.0
N70 N 0.22664 0.69089 0.86761 0.0
C71 C 0.21978 0.65334 0.79766 0.0
H72 H 0.12344 0.73266 0.90422 0.0
H73 H 0.12995 0.76108 0.86236 0.0
H74 H 0.15658 0.77711 0.90698 0.0
H75 H 0.24321 0.66971 0.78269 0.0
H76 H 0.19648 0.64425 0.77608 0.0
H77 H 0.2306 0.62509 0.80739 0.0
C78 C 0.97918 0.57033 0.46409 0.0
N79 N 1.00738 0.60087 0.46926 0.0
N80 N 0.94739 0.5828 0.48246 0.0
C81 C 0.98146 0.52932 0.43861 0.0
C82 C 0.9568 0.62219 0.49845 0.0
N83 N 0.99336 0.63341 0.49067 0.0
C84 C 0.93027 0.64951 0.5224 0.0
H85 H 0.99819 0.53304 0.4113 0.0
H86 H 0.95298 0.51519 0.4299 0.0
H87 H 0.99547 0.50783 0.45575 0.0
H88 H 0.94417 0.66531 0.54981 0.0
H89 H 0.90409 0.63217 0.53042 0.0
H90 H 0.92197 0.67355 0.50435 0.0
C91 C 0.82567 0.87004 0.89907 0.0
N92 N 0.8524 0.84296 0.88876 0.0
N93 N 0.82796 0.90148 0.87633 0.0
C94 C 0.79527 0.86407 0.92948 0.0
C95 C 0.85714 0.89272 0.85151 0.0
N96 N 0.87239 0.85738 0.85906 0.0
C97 C 0.86763 0.91586 0.81656 0.0
H98 H 0.77262 0.84178 0.91579 0.0
H99 H 0.78295 0.89381 0.94 0.0
H100 H 0.80663 0.85102 0.95531 0.0
H101 H 0.89075 0.93974 0.82564 0.0
H102 H 0.84351 0.93171 0.80658 0.0
H103 H 0.87757 0.8947 0.79102 0.0
C104 C 0.32922 0.3723 0.40047 0.0
N105 N 0.35408 0.3435 0.38854 0.0
N106 N 0.33007 0.40236 0.37624 0.0
C107 C 0.30123 0.36903 0.4338 0.0
C108 C 0.357 0.39153 0.34927 0.0
N109 N 0.37189 0.35597 0.35656 0.0
C110 C 0.36566 0.41291 0.31285 0.0
H111 H 0.27645 0.34832 0.42276 0.0
H112 H 0.29144 0.39992 0.44494 0.0
H113 H 0.31394 0.35554 0.45866 0.0
H114 H 0.34446 0.43503 0.30784 0.0
H115 H 0.36707 0.38965 0.28611 0.0
H116 H 0.39363 0.43028 0.31666 0.0
C117 C 0.49046 0.03117 0.61071 0.0
N118 N 0.51431 1.00038 0.61051 0.0
N119 N 0.46872 1.02574 0.57745 0.0
C120 C 0.48804 0.0661 0.64402 0.0
C121 C 0.48021 0.99044 0.55704 0.0
N122 N 0.50817 0.97517 0.5767 0.0
C123 C 0.46324 0.96991 0.51831 0.0
H124 H 0.48587 0.05367 0.67306 0.0
H125 H 0.46332 0.08426 0.64101 0.0
H126 H 0.51419 0.08688 0.64446 0.0
H127 H 0.4484 0.99205 0.50276 0.0
H128 H 0.4429 0.94403 0.5245 0.0
H129 H 0.4853 0.95675 0.49826 0.0
C130 C 0.16388 0.33251 0.71773 0.0
N131 N 0.19785 0.34719 0.70505 0.0
N132 N 0.15222 0.35695 0.75007 0.0
C133 C 0.1444 0.29143 0.70173 0.0
C134 C 0.18031 0.38716 0.75632 0.0
N135 N 0.20851 0.38106 0.7295 0.0
C136 C 0.18128 0.42081 0.7911 0.0
H137 H 0.14673 0.28628 0.66879 0.0
H138 H 0.11427 0.28976 0.7105 0.0
H139 H 0.15836 0.26634 0.71396 0.0
H140 H 0.19259 0.40893 0.81761 0.0
H141 H 0.15234 0.42996 0.79834 0.0
H142 H 0.1994 0.44834 0.78454 0.0
C143 C 0.83234 0.24593 0.71149 0.0
N144 N 0.83914 0.22527 0.74299 0.0
N145 N 0.85239 0.28293 0.71432 0.0
C146 C 0.80477 0.23124 0.67836 0.0
C147 C 0.87192 0.28451 0.74867 0.0
N148 N 0.86393 0.24951 0.7665 0.0
C149 C 0.90033 0.31934 0.76328 0.0
H150 H 0.81955 0.21284 0.65403 0.0
H151 H 0.79312 0.25766 0.66601 0.0
H152 H 0.78123 0.21143 0.68864 0.0
H153 H 0.88711 0.34082 0.78641 0.0
H154 H 0.90999 0.33708 0.73865 0.0
H155 H 0.92502 0.30723 0.7766 0.0
C156 C 0.56902 0.53444 0.61514 0.0
N157 N 0.58194 0.55111 0.5823 0.0
N158 N 0.53512 0.54817 0.62641 0.0
C159 C 0.58984 0.50491 0.63641 0.0
C160 C 0.52741 0.57324 0.59896 0.0
N161 N 0.55562 0.57496 0.57188 0.0
C162 C 0.49211 0.59599 0.5983 0.0
H163 H 0.6029 0.48192 0.61456 0.0
H164 H 0.57139 0.48831 0.65664 0.0
H165 H 0.61271 0.52267 0.65459 0.0
H166 H 0.49889 0.62925 0.60903 0.0
H167 H 0.46979 0.58342 0.61749 0.0
H168 H 0.48123 0.59397 0.56746 0.0
C169 C 0.53565 0.50468 0.03755 0.0
N170 N 0.56963 0.50358 0.05544 0.0
N171 N 0.53961 0.51704 1.00104 0.0
C172 C 0.49882 0.48747 0.05315 0.0
C173 C 0.57719 0.52346 0.99679 0.0
N174 N 0.59574 0.51654 0.0301 0.0
C175 C 0.59561 0.52956 0.95755 0.0
H176 H 0.49603 0.45338 0.04468 0.0
H177 H 0.47475 0.5011 0.04023 0.0
H178 H 0.4979 0.49381 0.0861 0.0
H179 H 0.57528 0.53794 0.93579 0.0
H180 H 0.60742 0.50018 0.94489 0.0
H181 H 0.61897 0.55386 0.96159 0.0
C182 C 0.67578 0.22424 0.37381 0.0
N183 N 0.70855 0.21864 0.39244 0.0
N184 N 0.67449 0.20383 0.33658 0.0
C185 C 0.64467 0.25012 0.39106 0.0
C186 C 0.70705 0.18518 0.3327 0.0
N187 N 0.7278 0.19382 0.36646 0.0
C188 C 0.71825 0.15791 0.29597 0.0
H189 H 0.62689 0.23179 0.41063 0.0
H190 H 0.62628 0.25882 0.36765 0.0
H191 H 0.65583 0.27884 0.40902 0.0
H192 H 0.73993 0.1753 0.27957 0.0
H193 H 0.69379 0.14833 0.27602 0.0
H194 H 0.73069 0.12988 0.30425 0.0
C195 C 0.48437 0.06328 0.96451 0.0
N196 N 0.51138 0.09514 0.96909 0.0
N197 N 0.45229 0.07425 0.98322 0.0
C198 C 0.48791 1.02287 0.93835 0.0
C199 C 0.46022 0.11408 0.99873 0.0
N200 N 0.4963 0.12691 0.9907 0.0
C201 C 0.43227 0.14082 1.02095 0.0
H202 H 0.4991 0.02877 0.9087 0.0
H203 H 0.46045 1.00451 0.93422 0.0
H204 H 0.50806 1.00439 0.95211 0.0
H205 H 0.40644 0.12271 0.02868 0.0
H206 H 0.42358 0.16364 1.00172 0.0
H207 H 0.44513 0.15809 0.04829 0.0
Mn208 Mn 0.27121 0.90968 0.04788 0.0
Mn209 Mn 0.25325 0.92808 0.95394 0.0
C210 C 0.23922 0.85867 1.00417 0.0
C211 C 0.30804 0.8827 0.09485 0.0
C212 C 0.21167 0.96772 0.02578 0.0
O213 O 0.31062 0.95628 0.03945 0.0
O214 O 0.29701 0.96473 0.97591 0.0
C215 C 0.32268 0.89941 0.91378 0.0
N216 N 0.28441 0.89757 0.91645 0.0
C217 C 0.27796 0.84976 0.85634 0.0
C218 C 0.31731 0.85108 0.85296 0.0
C219 C 0.33975 0.87587 0.8819 0.0
C220 C 0.26258 0.87352 0.88899 0.0
H221 H 0.34001 0.91868 0.93578 0.0
C222 C 0.31694 0.97315 1.00761 0.0
O223 O 0.28458 0.91076 0.10557 0.0
O224 O 0.31142 0.87213 0.05689 0.0
N225 N 0.21209 0.89414 0.92886 0.0
C226 C 0.17475 0.89415 0.93796 0.0
C227 C 0.14831 0.87206 0.9114 0.0
C228 C 0.16062 0.85 0.87596 0.0
C229 C 0.1993 0.84878 0.86824 0.0
C230 C 0.22424 0.8721 0.89536 0.0
H231 H 0.16519 0.91134 0.96498 0.0
O232 O 0.23417 0.86012 0.04234 0.0
O233 O 0.26076 0.88895 0.99269 0.0
O234 O 0.22874 0.95041 0.05172 0.0
O235 O 0.2187 0.96117 0.98867 0.0
C236 C 0.21403 0.82558 0.83457 0.0
C237 C 0.25336 0.82559 0.82884 0.0
H238 H 0.33059 0.83309 0.82835 0.0
H239 H 0.37014 0.87701 0.87952 0.0
H240 H 0.11853 0.87239 0.918 0.0
H241 H 0.14013 0.83351 0.85522 0.0
H242 H 0.19526 0.80749 0.81315 0.0
H243 H 0.26435 0.80703 0.80315 0.0
Mn244 Mn 0.1848 0.55141 0.30004 0.0
Mn245 Mn 0.15514 0.64346 0.28274 0.0
C246 C 0.22455 0.59744 0.26861 0.0
C247 C 0.21707 0.50847 0.33656 0.0
C248 C 0.12762 0.5616 0.23455 0.0
O249 O 0.1422 0.55975 0.34093 0.0
O250 O 0.1254 0.6217 0.32676 0.0
C251 C 0.17813 0.69308 0.35922 0.0
N252 N 0.17887 0.68744 0.31866 0.0
C253 C 0.21567 0.75213 0.31669 0.0
C254 C 0.21509 0.75874 0.35841 0.0
C255 C 0.19644 0.72896 0.37976 0.0
C256 C 0.19715 0.71565 0.29787 0.0
H257 H 0.16372 0.67037 0.37576 0.0
C258 C 0.12237 0.5912 0.34751 0.0
O259 O 0.19098 0.49371 0.31114 0.0
O260 O 0.22254 0.54856 0.3429 0.0
N261 N 0.18191 0.66883 0.24178 0.0
C262 C 0.18225 0.65635 0.20188 0.0
C263 C 0.19861 0.68316 0.17608 0.0
C264 C 0.21486 0.72229 0.19166 0.0
C265 C 0.21609 0.73352 0.23298 0.0
C266 C 0.19828 0.70605 0.25709 0.0
H267 H 0.16979 0.62637 0.18983 0.0
O268 O 0.22797 0.55777 0.26223 0.0
O269 O 0.1965 0.60872 0.29126 0.0
O270 O 0.14655 0.53875 0.25368 0.0
O271 O 0.12905 0.60102 0.24295 0.0
C272 C 0.23423 0.77087 0.25116 0.0
C273 C 0.23434 0.77998 0.29303 0.0
H274 H 0.22903 0.78645 0.37437 0.0
H275 H 0.19606 0.73375 0.41198 0.0
H276 H 0.19846 0.67384 0.14426 0.0
H277 H 0.22697 0.74312 0.17163 0.0
H278 H 0.2486 0.79254 0.23326 0.0
H279 H 0.24891 0.80845 0.30674 0.0
Mn280 Mn 0.79322 0.65766 0.04269 0.0
Mn281 Mn 0.71777 0.69091 0.9997 0.0
C282 C 0.73345 0.62242 0.0481 0.0
C283 C 0.8465 0.61936 0.04279 0.0
C284 C 0.75224 0.73325 0.07733 0.0
O285 O 0.81743 0.69629 1.00335 0.0
O286 O 0.76473 0.71045 0.97315 0.0
C287 C 0.72265 0.64173 0.92041 0.0
N288 N 0.70237 0.65441 0.95334 0.0
C289 C 0.64446 0.62542 0.92213 0.0
C290 C 0.66449 0.61317 0.8873 0.0
C291 C 0.70389 0.62058 0.88673 0.0
C292 C 0.66495 0.64471 0.95522 0.0
H293 H 0.75283 0.64783 0.91999 0.0
C294 C 0.80065 0.71275 0.97647 0.0
O295 O 0.84308 0.65281 0.06705 0.0
O296 O 0.81954 0.60862 1.01707 0.0
N297 N 0.66963 0.67519 1.02101 0.0
C298 C 0.6546 0.68871 0.05704 0.0
C299 C 0.61591 0.68073 0.06373 0.0
C300 C 0.59278 0.66058 0.03281 0.0
C301 C 0.60861 0.6484 0.99551 0.0
C302 C 0.64758 0.65563 0.99112 0.0
H303 H 0.67193 0.7057 0.08044 0.0
O304 O 0.76027 0.61918 0.07299 0.0
O305 O 0.74256 0.64543 1.02007 0.0
O306 O 0.77692 0.7074 0.07987 0.0
O307 O 0.72997 0.73118 0.04768 0.0
C308 C 0.58709 0.6309 0.96207 0.0
C309 C 0.60498 0.61969 0.92529 0.0
H310 H 0.64997 0.59772 0.86099 0.0
H311 H 0.71965 0.61068 0.86019 0.0
H312 H 0.60381 0.69093 0.0924 0.0
H313 H 0.56281 0.65535 0.0378 0.0
H314 H 0.5568 0.62576 0.96431 0.0
H315 H 0.5882 0.60573 0.89994 0.0
Mn316 Mn 0.87927 0.03135 0.31701 0.0
Mn317 Mn 0.90968 0.93468 0.2994 0.0
C318 C 0.84318 0.97856 0.27932 0.0
C319 C 0.84598 0.08425 0.35154 0.0
C320 C 0.93937 1.00523 0.25532 0.0
O321 O 0.91889 0.0321 0.36063 0.0
O322 O 0.93764 0.96749 0.3449 0.0
C323 C 0.8858 0.90185 0.37426 0.0
N324 N 0.8846 0.89913 0.33378 0.0
C325 C 0.84741 0.83403 0.32948 0.0
C326 C 0.84841 0.83607 0.37109 0.0
C327 C 0.86755 0.87023 0.39357 0.0
C328 C 0.8662 0.86642 0.31186 0.0
H329 H 0.90074 0.92783 0.3917 0.0
C330 C 0.93934 1.00272 0.36672 0.0
O331 O 0.87412 0.09193 0.32838 0.0
O332 O 0.83863 0.04565 0.35694 0.0
N333 N 0.88428 0.89955 0.25687 0.0
C334 C 0.88496 0.90287 0.21711 0.0
C335 C 0.86517 0.87242 0.19067 0.0
C336 C 0.84549 0.83851 0.20528 0.0
C337 C 0.84581 0.83537 0.24623 0.0
C338 C 0.86567 0.86688 0.27119 0.0
H339 H 0.90025 0.92868 0.20572 0.0
O340 O 0.8397 1.01714 0.27501 0.0
O341 O 0.86802 0.97171 0.30534 0.0
O342 O 0.9202 0.03266 0.27425 0.0
O343 O 0.93734 0.96743 0.26167 0.0
C344 C 0.82707 0.8023 0.26328 0.0
C345 C 0.82786 0.80157 0.30485 0.0
H346 H 0.83423 0.81182 0.38612 0.0
H347 H 0.86832 0.87212 0.42571 0.0
H348 H 0.86517 0.87505 0.15909 0.0
H349 H 0.83022 0.81508 0.18481 0.0
H350 H 0.81205 0.77723 0.24467 0.0
H351 H 0.81305 0.77609 0.31759 0.0
Mn352 Mn 0.2919 0.16096 0.54371 0.0
Mn353 Mn 0.21581 0.1898 0.49806 0.0
C354 C 0.23258 0.12481 0.54983 0.0
C355 C 0.34576 0.12368 0.5454 0.0
C356 C 0.24863 0.23652 0.57472 0.0
O357 O 0.31603 0.19764 0.50275 0.0
O358 O 0.26285 0.2107 0.47306 0.0
C359 C 0.22462 0.14047 0.41946 0.0
N360 N 0.20302 0.15198 0.45175 0.0
C361 C 0.14688 0.12034 0.41866 0.0
C362 C 0.16833 0.10879 0.38465 0.0
C363 C 0.2075 0.11822 0.38534 0.0
C364 C 0.16582 0.14068 0.45236 0.0
H365 H 0.25456 0.14863 0.4197 0.0
C366 C 0.29877 0.21351 0.47586 0.0
O367 O 0.34197 0.15777 0.56867 0.0
O368 O 0.31872 0.11151 0.52018 0.0
N369 N 0.16741 0.17262 0.51778 0.0
C370 C 0.15067 0.18673 0.5527 0.0
C371 C 0.1119 0.1776 0.55787 0.0
C372 C 0.09038 0.15583 0.52642 0.0
C373 C 0.1079 0.14327 0.49013 0.0
C374 C 0.14691 0.15156 0.48736 0.0
H375 H 0.16672 0.20511 0.57635 0.0
O376 O 0.25921 0.12363 0.5755 0.0
O377 O 0.24152 0.14644 0.52076 0.0
O378 O 0.27465 0.21241 0.57846 0.0
O379 O 0.22562 0.23107 0.54552 0.0
C380 C 0.08795 0.12452 0.45603 0.0
C381 C 0.10742 0.11323 0.42024 0.0
H382 H 0.15504 0.09261 0.35793 0.0
H383 H 0.22431 0.10917 0.35934 0.0
H384 H 0.09846 0.18824 0.58569 0.0
H385 H 0.06031 0.14979 0.53015 0.0
H386 H 0.05768 0.11851 0.45699 0.0
H387 H 0.09182 0.0984 0.39438 0.0
Mn388 Mn 0.37888 0.53224 0.81728 0.0
Mn389 Mn 0.40605 0.43434 0.79828 0.0
C390 C 0.34221 0.48156 0.77743 0.0
C391 C 0.34601 0.58483 0.8531 0.0
C392 C 0.43957 0.50518 0.75631 0.0
O393 O 0.41753 0.53048 0.86144 0.0
O394 O 0.43372 0.465 0.84504 0.0
C395 C 0.37652 0.40235 0.87161 0.0
N396 N 0.37826 0.3992 0.83113 0.0
C397 C 0.33802 0.33613 0.82467 0.0
C398 C 0.33615 0.33847 0.86629 0.0
C399 C 0.35539 0.37181 0.88985 0.0
C400 C 0.35979 0.3673 0.80817 0.0
H401 H 0.39109 0.428 0.88987 0.0
C402 C 0.43644 0.49982 0.86744 0.0
O403 O 0.37458 0.59309 0.83062 0.0
O404 O 0.33803 0.54594 0.85679 0.0
N405 N 0.38106 0.40084 0.75445 0.0
C406 C 0.38253 0.40546 0.71497 0.0
C407 C 0.36296 0.37596 0.68742 0.0
C408 C 0.34235 0.34186 0.70069 0.0
C409 C 0.34126 0.33775 0.74146 0.0
C410 C 0.36134 0.3681 0.76752 0.0
H411 H 0.39802 0.4318 0.70466 0.0
O412 O 0.33987 0.52059 0.7743 0.0
O413 O 0.36603 0.47316 0.80373 0.0
O414 O 0.42086 0.53303 0.77548 0.0
O415 O 0.43589 0.46713 0.76211 0.0
C416 C 0.32029 0.30528 0.75736 0.0
C417 C 0.31854 0.30456 0.79893 0.0
H418 H 0.31968 0.31512 0.88048 0.0
H419 H 0.35386 0.374 0.92199 0.0
H420 H 0.36364 0.37958 0.65605 0.0
H421 H 0.3271 0.31933 0.67937 0.0
H422 H 0.30504 0.28096 0.73793 0.0
H423 H 0.3017 0.27987 0.81082 0.0
Mn424 Mn 0.77315 0.41243 0.55037 0.0
Mn425 Mn 0.75605 0.42924 0.45565 0.0
C426 C 0.7437 0.36013 0.50605 0.0
C427 C 0.80897 0.38716 0.59959 0.0
C428 C 0.71028 0.46529 0.52516 0.0
O429 O 0.81159 0.46028 0.54288 0.0
O430 O 0.79473 0.47082 0.48093 0.0
C431 C 0.83054 0.41342 0.41946 0.0
N432 N 0.79255 0.4045 0.4203 0.0
C433 C 0.79434 0.36078 0.35767 0.0
C434 C 0.83344 0.36955 0.35615 0.0
C435 C 0.85164 0.39574 0.38735 0.0
C436 C 0.77485 0.37888 0.39072 0.0
H437 H 0.84464 0.43422 0.44287 0.0
C438 C 0.81502 0.47973 0.51229 0.0
O439 O 0.78455 0.41455 0.60878 0.0
O440 O 0.81393 0.37635 0.56186 0.0
N441 N 0.71995 0.39087 0.42686 0.0
C442 C 0.68194 0.38681 0.43206 0.0
C443 C 0.65946 0.3627 0.4028 0.0
C444 C 0.67629 0.34293 0.36859 0.0
C445 C 0.71551 0.34677 0.36433 0.0
C446 C 0.73642 0.37165 0.3942 0.0
H447 H 0.66885 0.40255 0.45794 0.0
O448 O 0.73735 0.36185 0.54403 0.0
O449 O 0.765 0.39073 0.49474 0.0
O450 O 0.72963 0.45194 0.55199 0.0
O451 O 0.71643 0.45648 0.48808 0.0
C452 C 0.73454 0.3279 0.33101 0.0
C453 C 0.77396 0.33474 0.32777 0.0
H454 H 0.84978 0.35618 0.33129 0.0
H455 H 0.88181 0.40264 0.38642 0.0
H456 H 0.62919 0.35961 0.40642 0.0
H457 H 0.65884 0.3247 0.34584 0.0
H458 H 0.7191 0.3085 0.30749 0.0
H459 H 0.78826 0.32014 0.30196 0.0
Mn460 Mn 0.68452 0.05015 0.79546 0.0
Mn461 Mn 0.64962 0.13822 0.77325 0.0
C462 C 0.72246 0.09779 0.76387 0.0
C463 C 0.71847 1.01045 0.83399 0.0
C464 C 0.62685 0.05316 0.72876 0.0
O465 O 0.64106 0.05767 0.83558 0.0
O466 O 0.62113 0.11717 0.81825 0.0
C467 C 0.66429 0.19635 0.84682 0.0
N468 N 0.66991 0.18596 0.80704 0.0
C469 C 0.70161 0.25282 0.80132 0.0
C470 C 0.69634 0.26409 0.84223 0.0
C471 C 0.67767 0.23568 0.86507 0.0
C472 C 0.68774 0.21315 0.78478 0.0
H473 H 0.64942 0.17499 0.86447 0.0
C474 C 0.61971 0.08802 0.8406 0.0
O475 O 0.69316 0.9937 0.80854 0.0
O476 O 0.72225 0.05071 0.83923 0.0
N477 N 0.67586 0.16213 0.7311 0.0
C478 C 0.67672 0.14744 0.69169 0.0
C479 C 0.69306 0.17266 0.66448 0.0
C480 C 0.70803 0.2129 0.67806 0.0
C481 C 0.70757 0.2271 0.7189 0.0
C482 C 0.69086 0.20053 0.74458 0.0
H483 H 0.66439 0.11704 0.68104 0.0
O484 O 0.728 0.05852 0.75825 0.0
O485 O 0.69302 0.10742 0.78503 0.0
O486 O 0.64733 0.03292 0.74886 0.0
O487 O 0.62577 0.09241 0.73543 0.0
C488 C 0.72247 0.26682 0.73501 0.0
C489 C 0.71959 0.27963 0.77621 0.0
H490 H 0.70652 0.29443 0.8564 0.0
H491 H 0.67342 0.24417 0.89664 0.0
H492 H 0.69359 0.16135 0.63306 0.0
H493 H 0.72013 0.23251 0.6569 0.0
H494 H 0.73591 0.28791 0.71592 0.0
H495 H 0.73085 0.31037 0.78821 0.0
Mn496 Mn 0.02346 0.26337 0.91954 0.0
Mn497 Mn 0.94956 0.25148 0.98012 0.0
C498 C 0.96614 0.23209 0.89315 0.0
C499 C 0.06012 0.29824 0.8751 0.0
C500 C 1.01714 0.19916 0.97887 0.0
O501 O 0.0368 0.30765 0.96692 0.0
O502 O 0.98558 0.29724 1.00491 0.0
C503 C 0.91621 0.33209 0.97866 0.0
N504 N 0.91289 0.28985 0.97236 0.0
C505 C 0.84711 0.28949 0.95646 0.0
C506 C 0.84981 0.33296 0.9628 0.0
C507 C 0.88458 0.35435 0.97374 0.0
C508 C 0.87971 0.26901 0.96128 0.0
H509 H 0.94273 0.34871 0.98753 0.0
C510 C 1.01708 0.31701 0.99814 0.0
O511 O 0.07381 0.27146 0.8953 0.0
O512 O 0.02532 0.30631 0.88203 0.0
N513 N 0.91232 0.20942 0.9591 0.0
C514 C 0.91494 0.16768 0.95205 0.0
C515 C 0.88288 0.14179 0.93979 0.0
C516 C 0.84834 0.15904 0.93543 0.0
C517 C 0.84637 0.20215 0.94284 0.0
C518 C 0.87941 0.22642 0.95429 0.0
H519 H 0.94121 0.15431 0.95603 0.0
O520 O 0.9981 0.22295 0.87677 0.0
O521 O 0.96914 0.25715 0.92631 0.0
O522 O 0.03509 0.2166 0.95217 0.0
O523 O 0.98479 0.20945 0.99132 0.0
C524 C 0.81286 0.22196 0.93971 0.0
C525 C 0.81329 0.26563 0.9459 0.0
H526 H 0.8254 0.35022 0.95937 0.0
H527 H 0.8869 0.3879 0.97873 0.0
H528 H 0.88475 0.10859 0.93424 0.0
H529 H 0.82355 0.13895 0.92635 0.0
H530 H 0.78656 0.20385 0.93266 0.0
H531 H 0.78743 0.2805 0.94266 0.0
Mn532 Mn 0.52243 0.76127 0.418 0.0
Mn533 Mn 0.44457 0.74502 0.4723 0.0
C534 C 0.46759 0.72947 0.38717 0.0
C535 C 0.56048 0.79897 0.37673 0.0
C536 C 0.5135 0.6951 0.47525 0.0
O537 O 0.53158 0.8041 0.46735 0.0
O538 O 0.47761 0.79173 0.50085 0.0
C539 C 0.40889 0.82404 0.46959 0.0
N540 N 0.40754 0.78194 0.46145 0.0
C541 C 0.34643 0.78009 0.43108 0.0
C542 C 0.34717 0.82339 0.43924 0.0
C543 C 0.37851 0.84543 0.45865 0.0
C544 C 0.37724 0.76036 0.44333 0.0
H545 H 0.43303 0.84126 0.48415 0.0
C546 C 0.50944 0.81229 0.49693 0.0
O547 O 0.57393 0.77212 0.39708 0.0
O548 O 0.52523 0.80576 0.38218 0.0
N549 N 0.4106 0.70194 0.44629 0.0
C550 C 0.41545 0.66069 0.43791 0.0
C551 C 0.38736 0.63447 0.41696 0.0
C552 C 0.3546 0.65093 0.40473 0.0
C553 C 0.35018 0.69348 0.41368 0.0
C554 C 0.37899 0.71804 0.435 0.0
H555 H 0.4407 0.64799 0.44683 0.0
O556 O 0.50049 0.72174 0.37239 0.0
O557 O 0.4683 0.75318 0.42107 0.0
O558 O 0.53271 0.71353 0.44999 0.0
O559 O 0.48029 0.70433 0.48583 0.0
C560 C 0.31874 0.71264 0.40144 0.0
C561 C 0.31684 0.75589 0.41022 0.0
H562 H 0.32403 0.84007 0.43036 0.0
H563 H 0.37937 0.87888 0.46491 0.0
H564 H 0.39109 0.60169 0.41 0.0
H565 H 0.33319 0.63069 0.38818 0.0
H566 H 0.29609 0.69448 0.38482 0.0
H567 H 0.29279 0.77034 0.40019 0.0
Mn568 Mn 0.03807 0.80391 0.67446 0.0
Mn569 Mn 0.98997 0.71265 0.68731 0.0
C570 C 0.03881 0.74708 0.62451 0.0
C571 C 0.04477 0.86958 0.65106 0.0
C572 C 0.06516 0.7407 0.72579 0.0
O573 O 1.00176 0.82085 0.72138 0.0
O574 O 0.97084 0.75846 0.72388 0.0
C575 C 0.91438 0.72903 0.66018 0.0
N576 N 0.9443 0.70506 0.65745 0.0
C577 C 0.90815 0.64858 0.61981 0.0
C578 C 0.87693 0.67267 0.62198 0.0
C579 C 0.88025 0.71333 0.64173 0.0
C580 C 0.94202 0.66679 0.63675 0.0
H581 H 0.9164 0.75952 0.67698 0.0
C582 C 0.97644 0.79703 0.73632 0.0
O583 O 0.06608 0.86037 0.67907 0.0
O584 O 1.01762 0.84223 0.63912 0.0
N585 N 1.00461 0.66418 0.65499 0.0
C586 C 0.03631 0.6437 0.6583 0.0
C587 C 0.03822 0.60337 0.63864 0.0
C588 C 1.00668 0.58347 0.61793 0.0
C589 C 0.97361 0.60422 0.61694 0.0
C590 C 0.97405 0.64521 0.63522 0.0
H591 H 0.06007 0.65807 0.67572 0.0
O592 O 0.06495 0.77708 0.62683 0.0
O593 O 1.01227 0.75118 0.65121 0.0
O594 O 0.07007 0.77504 0.71137 0.0
O595 O 0.03595 0.716 0.71929 0.0
C596 C 0.93962 0.58494 0.60066 0.0
C597 C 0.90685 0.60696 0.60225 0.0
H598 H 0.85023 0.66017 0.60884 0.0
H599 H 0.85623 0.73204 0.64374 0.0
H600 H 0.06357 0.58723 0.64041 0.0
H601 H 1.0078 0.55185 0.6039 0.0
H602 H 0.93818 0.55278 0.58795 0.0
H603 H 0.88086 0.59168 0.58963 0.0
Mn604 Mn 0.53802 0.30203 0.17226 0.0
Mn605 Mn 0.48988 0.21064 0.18435 0.0
C606 C 0.53987 0.24454 0.12274 0.0
C607 C 0.54576 0.36745 0.14824 0.0
C608 C 0.56391 0.23904 0.22502 0.0
O609 O 0.50033 0.31964 0.21788 0.0
O610 O 0.47135 0.25656 0.22088 0.0
C611 C 0.41586 0.22996 0.15514 0.0
N612 N 0.4444 0.20424 0.15429 0.0
C613 C 0.40637 0.14804 0.11879 0.0
C614 C 0.37619 0.17356 0.11985 0.0
C615 C 0.38123 0.21501 0.13737 0.0
C616 C 0.44079 0.16545 0.13493 0.0
H617 H 0.4194 0.26133 0.16989 0.0
C618 C 0.47552 0.29526 0.23287 0.0
O619 O 0.56611 0.3585 0.17714 0.0
O620 O 0.51896 0.33996 0.13556 0.0
N621 N 0.50348 0.16159 0.1522 0.0
C622 C 0.53468 0.14033 0.15552 0.0
C623 C 0.53531 0.09939 0.13693 0.0
C624 C 0.50295 0.07974 0.11752 0.0
C625 C 0.4704 0.10138 0.11662 0.0
C626 C 0.47217 0.14287 0.1336 0.0
H627 H 0.55893 0.15451 0.17227 0.0
O628 O 0.56613 0.27442 0.12561 0.0
O629 O 0.51278 0.24901 0.14866 0.0
O630 O 0.56853 0.27372 0.21108 0.0
O631 O 0.53578 0.21322 0.21646 0.0
C632 C 0.43563 0.08268 0.10172 0.0
C633 C 0.40359 0.10586 0.10298 0.0
H634 H 0.34911 0.1617 0.10725 0.0
H635 H 0.35817 0.23501 0.13815 0.0
H636 H 0.56026 0.08259 0.13869 0.0
H637 H 0.50306 0.04768 0.10445 0.0
H638 H 0.43298 0.05022 0.09016 0.0
H639 H 0.3771 0.0911 0.09119 0.0
C640 C 0.25213 0.77008 0.92221 0.0
C641 C 0.22041 0.74288 0.92657 0.0
C642 C 0.25879 0.80648 0.94865 0.0
C643 C 0.2327 0.8184 0.97864 0.0
H644 H 0.27053 0.76464 0.89677 0.0
H645 H 0.28416 0.82589 0.94492 0.0
S646 S 0.15085 0.75227 1.00863 0.0
N647 N 0.168 0.72499 0.969 0.0
N648 N 0.17819 0.7957 1.0162 0.0
C649 C 0.20324 0.78923 0.98595 0.0
C650 C 0.19771 0.75096 0.96044 0.0
C651 C 0.04329 0.6303 0.41592 0.0
C652 C 0.0406 0.6026 0.44457 0.0
C653 C 0.06989 0.62635 0.3851 0.0
C654 C 0.09502 0.59438 0.38147 0.0
H655 H 0.02325 0.65381 0.41616 0.0
H656 H 0.06992 0.64807 0.3633 0.0
S657 S 0.102 0.51693 0.45259 0.0
N658 N 0.06712 0.5447 0.47013 0.0
N659 N 0.11719 0.53672 0.41217 0.0
C660 C 0.09373 0.56769 0.41137 0.0
C661 C 0.06663 0.57202 0.44292 0.0
C662 C 0.86726 0.79742 0.93902 0.0
C663 C 0.85124 0.80222 0.90199 0.0
C664 C 0.85336 0.76578 0.96171 0.0
C665 C 0.82237 0.73819 0.94848 0.0
H666 H 0.88818 0.82074 0.95222 0.0
H667 H 0.86473 0.76536 0.99122 0.0
S668 S 0.77304 0.73532 0.85165 0.0
N669 N 0.80497 0.77466 0.85208 0.0
N670 N 0.77912 0.71555 0.89356 0.0
C671 C 0.8084 0.74075 0.90998 0.0
C672 C 0.82279 0.77251 0.88703 0.0
C673 C 1.01271 0.97812 0.44015 0.0
C674 C 1.01511 1.01329 0.46854 0.0
C675 C 0.98845 0.97541 0.4074 0.0
C676 C 0.96557 1.0079 0.40158 0.0
H677 H 0.03012 0.95276 0.44322 0.0
H678 H 0.98783 0.94741 0.38647 0.0
S679 S 0.9621 0.10683 0.46881 0.0
N680 N 0.9932 0.08106 0.48981 0.0
N681 N 0.94735 0.07664 0.42827 0.0
C682 C 0.96784 0.04336 0.43027 0.0
C683 C 0.99261 0.04585 0.46374 0.0
C684 C 0.23993 0.29345 0.67924 0.0
C685 C 0.21916 0.32706 0.67292 0.0
C686 C 0.25185 0.26584 0.64708 0.0
C687 C 0.24242 0.27035 0.60748 0.0
H688 H 0.24463 0.28701 0.70935 0.0
H689 H 0.26624 0.23924 0.65352 0.0
S690 S 0.1906 0.35566 0.57572 0.0
N691 N 0.19162 0.36506 0.6248 0.0
N692 N 0.21353 0.31351 0.56412 0.0
C693 C 0.22331 0.30532 0.60094 0.0
C694 C 0.21174 0.33353 0.6337 0.0
C695 C 0.49706 0.49716 0.66075 0.0
C696 C 0.51218 0.53794 0.65954 0.0
C697 C 0.47445 0.4867 0.69266 0.0
C698 C 0.46539 0.51693 0.72413 0.0
H699 H 0.50274 0.47328 0.63669 0.0
H700 H 0.46346 0.45479 0.69215 0.0
S701 S 0.49932 0.62829 0.73478 0.0
N702 N 0.51796 0.60844 0.69244 0.0
N703 N 0.47448 0.58954 0.75209 0.0
C704 C 0.48055 0.55799 0.72309 0.0
C705 C 0.50408 0.56833 0.69084 0.0
C706 C 0.82687 0.34776 0.69908 0.0
C707 C 0.84932 0.31443 0.68818 0.0
C708 C 0.81578 0.37285 0.67075 0.0
C709 C 0.8266 0.36536 0.6304 0.0
H710 H 0.81598 0.35277 0.72913 0.0
H711 H 0.79699 0.39688 0.68021 0.0
S712 S 0.88837 0.2836 0.58817 0.0
N713 N 0.88406 0.27679 0.6356 0.0
N714 N 0.86388 0.32361 0.58227 0.0
C715 C 0.85096 0.33344 0.61991 0.0
C716 C 0.86209 0.30804 0.64879 0.0
C717 C 0.5387 0.99821 0.67844 0.0
C718 C 0.54555 1.0012 0.63779 0.0
C719 C 0.56615 1.01263 0.70769 0.0
C720 C 0.60155 0.03036 0.6973 0.0
H721 H 0.51093 0.98749 0.68785 0.0
H722 H 0.55881 1.01216 0.73878 0.0
S723 S 0.63512 0.04013 0.59461 0.0
N724 N 0.59139 1.01972 0.58855 0.0
N725 N 0.64328 0.04559 0.64304 0.0
C726 C 0.6097 0.03044 0.65655 0.0
C727 C 0.5817 1.01596 0.6269 0.0
C728 C 0.8854 0.26862 0.83652 0.0
C729 C 0.88217 0.2394 0.80214 0.0
C730 C 0.91035 0.26436 0.86762 0.0
C731 C 0.93242 0.23 0.86644 0.0
H732 H 0.87022 0.29639 0.83823 0.0
H733 H 0.91447 0.28994 0.89109 0.0
S734 S 0.93041 0.14168 0.78575 0.0
N735 N 0.90062 0.17304 0.7705 0.0
N736 N 0.94619 0.16402 0.82954 0.0
C737 C 0.92697 0.19883 0.83376 0.0
C738 C 0.90202 0.20358 0.80169 0.0
C739 C 0.54298 0.92415 0.53389 0.0
C740 C 0.51985 0.93353 0.56721 0.0
C741 C 0.54225 0.88372 0.51335 0.0
C742 C 0.51798 0.85115 0.52513 0.0
H743 H 0.55889 0.94907 0.5214 0.0
H744 H 0.5584 0.87899 0.48609 0.0
S745 S 0.4568 0.85885 0.61494 0.0
N746 N 0.47602 0.90642 0.61414 0.0
N747 N 0.47453 0.83053 0.57634 0.0
C748 C 0.4977 0.85954 0.56093 0.0
C749 C 0.49874 0.90063 0.58178 0.0
C750 C 0.14418 0.32472 0.81149 0.0
C751 C 0.12832 0.34328 0.78096 0.0
C752 C 0.12193 0.31133 0.84231 0.0
C753 C 0.08294 0.31614 0.84377 0.0
H754 H 0.17409 0.32043 0.81125 0.0
H755 H 0.13545 0.29678 0.86498 0.0
S756 S 0.0283 0.36338 0.77024 0.0
N757 N 0.07207 0.36635 0.75353 0.0
N758 N 0.02953 0.34114 0.81152 0.0
C759 C 0.06683 0.33523 0.81341 0.0
C760 C 0.08971 0.34874 0.7819 0.0
C761 C 0.56692 0.64434 0.55097 0.0
C762 C 0.55681 0.60178 0.54084 0.0
C763 C 0.55444 0.6743 0.52832 0.0
C764 C 0.53115 0.66277 0.49482 0.0
H765 H 0.58187 0.65468 0.57854 0.0
H766 H 0.56123 0.70682 0.53844 0.0
S767 S 0.49946 0.55528 0.45376 0.0
N768 N 0.52422 0.54971 0.49361 0.0
N769 N 0.50134 0.60562 0.45063 0.0
C770 C 0.52297 0.62024 0.48285 0.0
C771 C 0.53576 0.58985 0.50588 0.0
C772 C 0.89223 0.80284 0.80748 0.0
C773 C 0.90156 0.83788 0.83487 0.0
C774 C 0.91665 0.79034 0.77608 0.0
C775 C 0.95144 0.81272 0.77003 0.0
H776 H 0.86495 0.78628 0.80884 0.0
H777 H 0.90746 0.76337 0.75558 0.0
S778 S 0.98979 0.90595 0.83512 0.0
N779 N 0.94862 0.8939 0.85526 0.0
N780 N 0.9944 0.87088 0.79605 0.0
C781 C 0.96153 0.84732 0.79793 0.0
C782 C 0.93675 0.85964 0.83032 0.0
C783 C 0.06667 0.97954 0.62303 0.0
C784 C 0.07363 0.9721 0.58175 0.0
C785 C 0.05861 0.94643 0.64601 0.0
C786 C 0.0556 0.90489 0.62809 0.0
H787 H 0.06558 1.01109 0.63714 0.0
H788 H 0.05286 0.95344 0.67751 0.0
S789 S 0.07233 0.86896 0.52155 0.0
N790 N 0.07879 0.91997 0.52477 0.0
N791 N 0.06205 0.85836 0.56707 0.0
C792 C 0.06355 0.8972 0.58722 0.0
C793 C 0.07301 0.93058 0.56433 0.0
C794 C 0.11043 0.69277 0.80817 0.0
C795 C 0.14879 0.7043 0.80379 0.0
C796 C 0.08367 0.70422 0.78234 0.0
C797 C 0.0944 0.72818 0.75163 0.0
H798 H 0.10108 0.67627 0.83279 0.0
H799 H 0.05424 0.69545 0.78736 0.0
S800 S 0.19216 0.76219 0.72543 0.0
N801 N 0.19681 0.73754 0.76477 0.0
N802 N 0.14647 0.75998 0.71637 0.0
C803 C 0.13295 0.73842 0.746 0.0
C804 C 0.1602 0.72608 0.77197 0.0
C805 C 0.04072 0.65559 0.54297 0.0
C806 C 1.01511 0.6661 0.51502 0.0
C807 C 0.05061 0.68313 0.57732 0.0
C808 C 0.03295 0.72039 0.58608 0.0
H809 H 0.05095 0.62485 0.53973 0.0
H810 H 0.07068 0.67431 0.59793 0.0
S811 S 0.97432 0.76764 0.51647 0.0
N812 N 0.98178 0.72147 0.49282 0.0
N813 N 0.99631 0.7708 0.55966 0.0
C814 C 1.01122 0.7333 0.55612 0.0
C815 C 1.00335 0.70664 0.52 0.0
C816 C 0.76678 0.91933 0.2127 0.0
C817 C 0.74768 0.89483 0.23892 0.0
C818 C 0.79914 0.94498 0.22521 0.0
C819 C 0.81307 0.94695 0.26433 0.0
H820 H 0.75539 0.92043 0.18332 0.0
H821 H 0.81252 0.96456 0.20471 0.0
S822 S 0.77122 0.89036 0.34452 0.0
N823 N 0.74576 0.87265 0.30476 0.0
N824 N 0.80321 0.92442 0.32965 0.0
C825 C 0.79426 0.92216 0.29044 0.0
C826 C 0.76264 0.89489 0.27722 0.0
C827 C 0.7933 0.18058 0.34932 0.0
C828 C 0.76159 0.17375 0.3733 0.0
C829 C 0.82218 0.15339 0.3457 0.0
C830 C 0.81985 0.11705 0.36456 0.0
H831 H 0.79452 0.20589 0.33126 0.0
H832 H 0.84502 0.15938 0.32536 0.0
S833 S 0.74345 0.08636 0.43273 0.0
N834 N 0.73061 0.13002 0.41844 0.0
N835 N 0.7842 0.07752 0.41066 0.0
C836 C 0.78921 0.11098 0.39039 0.0
C837 C 0.76022 0.13957 0.39487 0.0
C838 C 0.38387 0.05828 0.97526 0.0
C839 C 0.41874 0.04847 0.98916 0.0
C840 C 0.3507 0.03462 0.98271 0.0
C841 C 0.35132 1.00074 1.00478 0.0
H842 H 0.38243 0.0844 0.95853 0.0
H843 H 0.3244 0.04269 0.97088 0.0
S844 S 0.43619 0.96142 0.04573 0.0
N845 N 0.4525 1.00202 0.0243 0.0
N846 N 0.39008 0.95778 0.03912 0.0
C847 C 0.38615 0.99067 1.01876 0.0
C848 C 0.41993 1.01435 1.01052 0.0
C849 C 0.30606 0.47191 0.37821 0.0
C850 C 0.30012 0.42862 0.37087 0.0
C851 C 0.27802 0.49768 0.36936 0.0
C852 C 0.24325 0.48092 0.35249 0.0
H853 H 0.33291 0.48577 0.38981 0.0
H854 H 0.28435 0.53094 0.37413 0.0
S855 S 0.21396 0.36877 0.32959 0.0
N856 N 0.25713 0.36988 0.34731 0.0
N857 N 0.20421 0.41773 0.33096 0.0
C858 C 0.23671 0.43743 0.34649 0.0
C859 C 0.26523 0.41142 0.35554 0.0
C860 C 0.16525 0.03083 0.5166 0.0
C861 C 0.13424 0.03561 0.54264 0.0
C862 C 0.19626 0.06044 0.51857 0.0
C863 C 0.19909 0.09435 0.54864 0.0
H864 H 0.16431 1.00558 0.4926 0.0
H865 H 0.2182 0.05678 0.49629 0.0
S866 S 0.13177 0.11407 0.63181 0.0
N867 N 0.11154 0.07387 0.60326 0.0
N868 N 0.17249 0.12557 0.61047 0.0
C869 C 0.17114 0.09611 0.57833 0.0
C870 C 0.13826 0.06756 0.57474 0.0
C871 C 0.80933 0.15449 0.72351 0.0
C872 C 0.81638 0.18908 0.75264 0.0
C873 C 0.77877 0.12517 0.72698 0.0
C874 C 0.75484 0.12869 0.76029 0.0
H875 H 0.82601 0.1518 0.69653 0.0
H876 H 0.77325 0.10028 0.70298 0.0
S877 S 0.76915 0.20517 0.85038 0.0
N878 N 0.80088 0.22078 0.81867 0.0
N879 N 0.7467 0.16298 0.82742 0.0
C880 C 0.7647 0.15997 0.79176 0.0
C881 C 0.79479 0.19067 0.78752 0.0
C882 C 0.40203 0.03189 0.56002 0.0
C883 C 0.43875 0.05026 0.56713 0.0
C884 C 0.37235 0.05551 0.55107 0.0
C885 C 0.37819 0.09852 0.54991 0.0
H886 H 0.39615 0.99915 0.5621 0.0
H887 H 0.34436 0.0403 0.54661 0.0
S888 S 0.46961 0.16073 0.56302 0.0
N889 N 0.47986 0.11317 0.56886 0.0
N890 N 0.42378 0.15809 0.55461 0.0
C891 C 0.41488 0.11707 0.55625 0.0
C892 C 0.44523 0.09282 0.5642 0.0
C893 C 0.61407 0.51087 0.52738 0.0
C894 C 0.61615 0.54022 0.56152 0.0
C895 C 0.64505 0.48783 0.515 0.0
C896 C 0.67893 0.49239 0.53704 0.0
H897 H 0.58749 0.50354 0.51191 0.0
H898 H 0.64166 0.46468 0.48923 0.0
S899 S 0.70017 0.5695 0.62542 0.0
N900 N 0.65617 0.5763 0.61411 0.0
N901 N 0.71378 0.53208 0.59209 0.0
C902 C 0.68201 0.52349 0.56976 0.0
C903 C 0.65087 0.5477 0.58155 0.0
C904 C 0.6992 0.25578 0.4599 0.0
C905 C 0.72325 0.24522 0.42739 0.0
C906 C 0.70559 0.29323 0.48517 0.0
C907 C 0.73776 0.3198 0.48063 0.0
H908 H 0.67334 0.237 0.4634 0.0
H909 H 0.68469 0.30198 0.50749 0.0
S910 S 0.81992 0.29354 0.41695 0.0
N911 N 0.78628 0.25802 0.40116 0.0
N912 N 0.80104 0.32373 0.4534 0.0
C913 C 0.7657 0.30505 0.45416 0.0
C914 C 0.75803 0.26861 0.42659 0.0
C915 C 0.5696 0.06882 0.93802 0.0
C916 C 0.54283 0.09882 0.94221 0.0
C917 C 0.59432 0.06539 0.90524 0.0
C918 C 0.59324 0.09189 0.87534 0.0
H919 H 0.57024 0.04676 0.95942 0.0
H920 H 0.61401 0.04137 0.90311 0.0
S921 S 0.52893 0.17714 0.87421 0.0
N922 N 0.5174 0.15624 0.91503 0.0
N923 N 0.56355 0.15079 0.85386 0.0
C924 C 0.56737 0.12319 0.88036 0.0
C925 C 0.54242 0.12651 0.91372 0.0
C926 C 0.36863 0.2933 0.4347 0.0
C927 C 0.34982 0.30218 0.40053 0.0
C928 C 0.35404 0.26197 0.45745 0.0
C929 C 0.31974 0.23873 0.44713 0.0
H930 H 0.3928 0.31326 0.44592 0.0
H931 H 0.36806 0.25839 0.48497 0.0
S932 S 0.26099 0.24837 0.35876 0.0
N933 N 0.296 0.28409 0.35714 0.0
N934 N 0.26973 0.22457 0.3976 0.0
C935 C 0.30254 0.24526 0.41114 0.0
C936 C 0.31725 0.27702 0.38847 0.0
C937 C 0.49522 0.5466 0.95836 0.0
C938 C 0.51204 0.51213 0.96961 0.0
C939 C 0.47063 0.54247 0.92552 0.0
C940 C 0.46229 0.5037 0.90258 0.0
H941 H 0.50149 0.57689 0.97488 0.0
H942 H 0.45849 0.56998 0.91783 0.0
S943 S 0.49972 0.40393 0.9215 0.0
N944 N 0.519 0.43853 0.95655 0.0
N945 N 0.47313 0.42985 0.89505 0.0
C946 C 0.47904 0.46893 0.91427 0.0
C947 C 0.5038 0.47338 0.9477 0.0
C948 C 0.72298 0.83105 0.13985 0.0
C949 C 0.72267 0.81976 0.17861 0.0
C950 C 0.73434 0.80375 0.10716 0.0
C951 C 0.74626 0.76444 0.11232 0.0
H952 H 0.71175 0.8599 0.13454 0.0
H953 H 0.73235 0.81278 0.07753 0.0
S954 S 0.75076 0.72085 0.20835 0.0
N955 N 0.73572 0.76752 0.2206 0.0
N956 N 0.75773 0.71632 0.15974 0.0
C957 C 0.74795 0.75389 0.15139 0.0
C958 C 0.73602 0.78154 0.18441 0.0
C959 C 0.02473 0.04254 0.19857 0.0
C960 C 1.01089 0.03988 0.15946 0.0
C961 C 1.00137 0.03137 0.22977 0.0
C962 C 0.96353 1.01731 0.22265 0.0
H963 H 0.05375 0.05348 0.20494 0.0
H964 H 1.01291 0.03372 0.25955 0.0
S965 S 0.91417 1.00368 0.12555 0.0
N966 N 0.95752 1.02086 0.11521 0.0
N967 N 0.91326 1.00113 0.17402 0.0
C968 C 0.94941 1.01452 0.18378 0.0
C969 C 0.97321 1.0255 0.15207 0.0
C970 C 0.32854 0.84127 0.19247 0.0
C971 C 0.35005 0.80753 0.18008 0.0
C972 C 0.3169 0.86709 0.16515 0.0
C973 C 0.3263 0.85997 0.12439 0.0
H974 H 0.31891 0.84617 0.22302 0.0
H975 H 0.29886 0.8915 0.17576 0.0
S976 S 0.38561 0.77753 0.0784 0.0
N977 N 0.38267 0.76994 0.12573 0.0
N978 N 0.36143 0.81819 0.07416 0.0
C979 C 0.34978 0.82759 0.11234 0.0
C980 C 0.36144 0.80141 0.14022 0.0
C981 C 0.07372 0.54815 0.13615 0.0
C982 C 0.05091 0.51116 0.13716 0.0
C983 C 0.09876 0.56355 0.16722 0.0
C984 C 0.10312 0.54211 0.20042 0.0
H985 H 0.07017 0.5668 0.11225 0.0
H986 H 0.11402 0.59319 0.16555 0.0
S987 S 0.05139 0.44236 0.21646 0.0
N988 N 0.03477 0.4529 0.17365 0.0
N989 N 0.08344 0.48033 0.23116 0.0
C990 C 0.08205 0.5037 0.20069 0.0
C991 C 0.05565 0.48858 0.16933 0.0
C992 C 0.38895 0.76623 0.32813 0.0
C993 C 0.38473 0.73565 0.295 0.0
C994 C 0.41443 0.76293 0.35883 0.0
C995 C 0.43519 0.72777 0.35913 0.0
H996 H 0.37425 0.79426 0.32901 0.0
H997 H 0.41951 0.7894 0.38124 0.0
S998 S 0.43101 0.6365 0.28179 0.0
N999 N 0.40179 0.66783 0.26546 0.0
N1000 N 0.44754 0.66021 0.32477 0.0
C1001 C 0.42907 0.69551 0.32769 0.0
C1002 C 0.40399 0.6995 0.29559 0.0
C1003 C 1.00835 0.40418 0.0827 0.0
C1004 C 0.02873 0.43795 0.06855 0.0
C1005 C 1.0078 0.36408 0.06177 0.0
C1006 C 0.02755 0.35598 0.02557 0.0
H1007 H 0.98931 0.40974 0.10761 0.0
H1008 H 0.9892 0.34003 0.07245 0.0
S1009 S 0.09085 0.43298 0.9801 0.0
N1010 N 0.0734 0.45988 1.01976 0.0
N1011 N 0.07284 0.38481 0.98014 0.0
C1012 C 0.05158 0.3887 1.01375 0.0
C1013 C 0.0521 0.42953 0.03534 0.0
C1014 C 0.6445 0.82365 0.31224 0.0
C1015 C 0.62889 0.84333 0.2823 0.0
C1016 C 0.62235 0.81091 0.34345 0.0
C1017 C 0.58368 0.8174 0.34587 0.0
H1018 H 0.67406 0.81768 0.31106 0.0
H1019 H 0.6356 0.79514 0.3654 0.0
S1020 S 0.53 0.86897 0.27467 0.0
N1021 N 0.5734 0.86992 0.25687 0.0
N1022 N 0.53103 0.84594 0.31551 0.0
C1023 C 0.56795 0.83804 0.31634 0.0
C1024 C 0.59074 0.85096 0.28448 0.0
C1025 C 0.07421 0.14777 0.05121 0.0
C1026 C 0.06087 0.10578 0.04386 0.0
C1027 C 0.06166 0.17761 0.02842 0.0
C1028 C 0.03516 0.1665 0.9976 0.0
H1029 H 0.09166 0.15811 0.07708 0.0
H1030 H 0.07086 0.20994 0.03663 0.0
S1031 S 0.99489 0.06009 0.96368 0.0
N1032 N 0.02218 0.05441 1.0016 0.0
N1033 N 0.99924 0.10995 0.95832 0.0
C1034 C 0.02392 0.12425 0.98805 0.0
C1035 C 0.03675 0.09403 1.01117 0.0
C1036 C 0.43537 0.35733 0.32595 0.0
C1037 C 0.40011 0.3358 0.33138 0.0
C1038 C 0.45955 0.34497 0.29395 0.0
C1039 C 0.44955 0.31027 0.26605 0.0
H1040 H 0.44346 0.3852 0.34574 0.0
H1041 H 0.48612 0.36274 0.29105 0.0
S1042 S 0.35969 0.24392 0.26623 0.0
N1043 N 0.35632 0.27917 0.30518 0.0
N1044 N 0.40132 0.25446 0.24669 0.0
C1045 C 0.41459 0.28805 0.27185 0.0
C1046 C 0.39007 0.30107 0.30401 0.0
C1047 C 0.56717 0.47807 0.1218 0.0
C1048 C 0.57464 0.47136 0.08058 0.0
C1049 C 0.55926 0.4445 0.14425 0.0
C1050 C 0.55692 0.40315 0.12585 0.0
H1051 H 0.56526 0.5094 0.13621 0.0
H1052 H 0.55293 0.45102 0.17567 0.0
S1053 S 0.57556 0.36899 1.01933 0.0
N1054 N 0.58138 0.42009 0.02324 0.0
N1055 N 0.56482 0.35757 0.06449 0.0
C1056 C 0.56562 0.39616 0.08509 0.0
C1057 C 0.57499 0.43005 0.06277 0.0
C1058 C 0.65744 0.23404 0.27677 0.0
C1059 C 0.64785 0.20821 0.3061 0.0
C1060 C 0.63015 0.24397 0.25055 0.0
C1061 C 0.59251 0.22777 0.25254 0.0
H1062 H 0.686 0.2475 0.27496 0.0
H1063 H 0.63858 0.26449 0.22867 0.0
S1064 S 0.55416 0.15748 0.32407 0.0
N1065 N 0.59924 0.16607 0.33565 0.0
N1066 N 0.54761 0.18369 0.28619 0.0
C1067 C 0.58304 0.2008 0.28125 0.0
C1068 C 0.61083 0.19123 0.30808 0.0
C1069 C 0.54339 0.15173 0.04275 0.0
C1070 C 0.5171 0.16069 1.01472 0.0
C1071 C 0.55304 0.18027 0.07651 0.0
C1072 C 0.53467 0.21716 0.08456 0.0
H1073 H 0.55438 0.12137 0.04007 0.0
H1074 H 0.57334 0.17239 0.09743 0.0
S1075 S 0.47337 0.26043 1.01455 0.0
N1076 N 0.48171 0.21414 0.99179 0.0
N1077 N 0.49607 0.26539 0.05745 0.0
C1078 C 0.512 0.22847 0.05454 0.0
C1079 C 0.50418 0.20074 1.01906 0.0
C1080 C 0.26378 0.39679 0.77267 0.0
C1081 C 0.24648 0.39896 0.73588 0.0
C1082 C 0.29502 0.42334 0.78546 0.0
C1083 C 0.31204 0.4509 0.76078 0.0
H1084 H 0.25117 0.37654 0.793 0.0
H1085 H 0.305 0.42335 0.81559 0.0
S1086 S 0.27987 0.46558 0.6599 0.0
N1087 N 0.24916 0.42981 0.67423 0.0
N1088 N 0.31046 0.47738 0.69675 0.0
C1089 C 0.29645 0.45165 0.72283 0.0
C1090 C 0.26346 0.42567 0.71044 0.0
C1091 C 0.29394 0.68257 0.85594 0.0
C1092 C 0.26075 0.67266 0.87652 0.0
C1093 C 0.32322 0.65567 0.85185 0.0
C1094 C 0.31999 0.61736 0.8675 0.0
H1095 H 0.29582 0.7096 0.84012 0.0
H1096 H 0.3471 0.66349 0.83346 0.0
S1097 S 0.24043 0.58022 0.92864 0.0
N1098 N 0.22789 0.62488 0.91648 0.0
N1099 N 0.28248 0.57377 0.90875 0.0
C1100 C 0.28823 0.609 0.89116 0.0
C1101 C 0.25871 0.6368 0.89566 0.0
C1102 C 0.91596 0.52385 0.51161 0.0
C1103 C 0.91383 0.55769 0.48994 0.0
C1104 C 0.88334 0.50057 0.52158 0.0
C1105 C 0.84762 0.5098 0.50919 0.0
H1106 H 0.94311 0.51562 0.52108 0.0
H1107 H 0.88629 0.47407 0.53747 0.0
S1108 S 0.82752 0.59491 0.45074 0.0
N1109 N 0.87377 0.59921 0.45605 0.0
N1110 N 0.81223 0.55513 0.47391 0.0
C1111 C 0.84529 0.5436 0.48732 0.0
C1112 C 0.87846 0.5675 0.4777 0.0
C1113 C 0.76314 0.91444 0.85878 0.0
C1114 C 0.7995 0.92983 0.87137 0.0
C1115 C 0.73639 0.94112 0.84897 0.0
C1116 C 0.74494 0.98429 0.85148 0.0
H1117 H 0.75594 0.88132 0.85486 0.0
H1118 H 0.70922 0.92757 0.83796 0.0
S1119 S 0.83605 0.03985 0.88493 0.0
N1120 N 0.84245 0.99053 0.88758 0.0
N1121 N 0.79236 0.04112 0.86929 0.0
C1122 C 0.78085 1.00016 0.86573 0.0
C1123 C 0.80811 0.97281 0.8755 0.0
C1124 C 0.66322 0.53147 1.01332 0.0
C1125 C 0.63318 0.53575 0.04071 0.0
C1126 C 0.69477 0.5604 1.01531 0.0
C1127 C 0.69913 0.59306 0.04654 0.0
H1128 H 0.66114 0.50715 0.98846 0.0
H1129 H 0.71598 0.55712 0.9922 0.0
S1130 S 0.63465 0.61089 0.13257 0.0
N1131 N 0.61295 0.57217 0.10336 0.0
N1132 N 0.67487 0.62241 0.11027 0.0
C1133 C 0.67208 0.59424 0.07716 0.0
C1134 C 0.63867 0.56644 0.07372 0.0
C1135 C 0.29694 0.69008 0.28313 0.0
C1136 C 0.31891 0.68481 0.24845 0.0
C1137 C 0.26725 0.66095 0.28993 0.0
C1138 C 0.25717 0.62675 0.26139 0.0
H1139 H 0.3016 0.71783 0.30414 0.0
H1140 H 0.25164 0.66569 0.31748 0.0
S1141 S 0.31132 0.59454 0.17016 0.0
N1142 N 0.33362 0.63857 0.18947 0.0
N1143 N 0.27578 0.58576 0.20046 0.0
C1144 C 0.28107 0.6193 0.22843 0.0
C1145 C 0.31234 0.64794 0.2224 0.0
C1146 C 0.94435 0.58972 0.06606 0.0
C1147 C 0.9393 0.54655 0.06634 0.0
C1148 C 0.91441 0.61287 0.05712 0.0
C1149 C 0.87855 0.59357 0.04702 0.0
H1150 H 0.97157 0.60574 0.07334 0.0
H1151 H 0.91929 0.64623 0.05846 0.0
S1152 S 0.85044 0.48143 0.04421 0.0
N1153 N 0.89534 0.48561 0.05712 0.0
N1154 N 0.83965 0.52872 0.03801 0.0
C1155 C 0.87335 0.55029 0.04619 0.0
C1156 C 0.90357 0.52688 0.05642 0.0
C1157 C 0.11835 1.01961 0.02743 0.0
C1158 C 0.11821 0.04243 0.06541 0.0
C1159 C 0.14948 0.99723 1.01404 0.0
C1160 C 0.18112 0.99571 0.0387 0.0
H1161 H 0.09329 1.01675 1.00912 0.0
H1162 H 0.14772 0.9792 0.98498 0.0
S1163 S 0.19647 0.0555 0.13845 0.0
N1164 N 0.15423 0.06679 0.12521 0.0
N1165 N 0.21178 1.02342 0.10114 0.0
C1166 C 0.18217 1.02069 0.07566 0.0
C1167 C 0.15105 0.04442 0.08863 0.0
loop_
_geom_bond_atom_site_label_1
_geom_bond_atom_site_label_2
_geom_bond_distance
_geom_bond_site_symmetry_2
_ccdc_geom_bond_type
C0 N1 1.317 1_565 S
C0 N2 1.348 1_465 S
C0 C3 1.485 . S
N1 C0 1.317 1_545 S
N1 N5 1.370 . S
N2 C0 1.348 1_645 S
N2 C4 1.346 . S
C3 C0 1.485 . S
C3 H7 0.960 . S
C3 H8 0.961 . S
C3 H9 0.960 . S
C4 N2 1.346 . S
C4 N5 1.307 1_655 S
C4 C6 1.486 . S
N5 N1 1.370 . S
N5 C4 1.307 1_455 S
C6 C4 1.486 . S
C6 H10 0.960 . S
C6 H11 0.960 . S
C6 H12 0.959 . S
H7 C3 0.960 . S
H8 C3 0.961 . S
H9 C3 0.960 . S
H10 C6 0.960 . S
H11 C6 0.960 . S
H12 C6 0.959 . S
C13 N14 1.317 . S
C13 N15 1.348 . S
C13 C16 1.485 . S
N14 C13 1.317 . S
N14 N18 1.370 . S
N15 C13 1.348 . S
N15 C17 1.346 . S
C16 C13 1.485 . S
C16 H20 0.960 . S
C16 H21 0.961 . S
C16 H22 0.960 . S
C17 N15 1.346 . S
C17 N18 1.307 . S
C17 C19 1.486 . S
N18 N14 1.370 . S
N18 C17 1.307 . S
C19 C17 1.486 . S
C19 H23 0.960 . S
C19 H24 0.960 . S
C19 H25 0.959 . S
H20 C16 0.960 . S
H21 C16 0.961 . S
H22 C16 0.960 . S
H23 C19 0.960 . S
H24 C19 0.960 . S
H25 C19 0.959 . S
C26 N27 1.317 . S
C26 N28 1.348 . S
C26 C29 1.485 . S
N27 C26 1.317 . S
N27 N31 1.370 . S
N28 C26 1.348 . S
N28 C30 1.346 . S
C29 C26 1.485 . S
C29 H33 0.960 . S
C29 H34 0.961 . S
C29 H35 0.988 . S
C30 N28 1.346 . S
C30 N31 1.307 . S
C30 C32 1.462 1_554 S
N31 N27 1.370 . S
N31 C30 1.307 . S
C32 C30 1.462 1_556 S
C32 H36 0.986 . S
C32 H37 0.955 1_556 S
C32 H38 0.963 . S
H33 C29 0.960 . S
H34 C29 0.961 . S
H35 C29 0.988 . S
H36 C32 0.986 . S
H37 C32 0.955 1_554 S
H38 C32 0.963 . S
C39 N40 1.317 . S
C39 N41 1.348 . S
C39 C42 1.485 . S
N40 C39 1.317 . S
N40 N44 1.370 . S
N41 C39 1.348 . S
N41 C43 1.346 . S
C42 C39 1.485 . S
C42 H46 0.960 . S
C42 H47 0.961 . S
C42 H48 0.960 . S
C43 N41 1.346 . S
C43 N44 1.307 . S
C43 C45 1.486 . S
N44 N40 1.370 . S
N44 C43 1.307 . S
C45 C43 1.486 . S
C45 H49 0.960 . S
C45 H50 0.960 . S
C45 H51 0.959 . S
H46 C42 0.960 . S
H47 C42 0.961 . S
H48 C42 0.960 . S
H49 C45 0.960 . S
H50 C45 0.960 . S
H51 C45 0.959 . S
C52 N53 1.317 . S
C52 N54 1.348 . S
C52 C55 1.485 1_455 S
N53 C52 1.317 . S
N53 N57 1.370 1_565 S
N54 C52 1.348 . S
N54 C56 1.346 1_565 S
C55 C52 1.485 1_655 S
C55 H59 0.960 . S
C55 H60 0.961 . S
C55 H61 0.960 . S
C56 N54 1.346 1_545 S
C56 N57 1.307 . S
C56 C58 1.486 . S
N57 N53 1.370 1_545 S
N57 C56 1.307 . S
C58 C56 1.486 . S
C58 H62 0.960 . S
C58 H63 0.960 . S
C58 H64 0.959 . S
H59 C55 0.960 . S
H60 C55 0.961 . S
H61 C55 0.960 . S
H62 C58 0.960 . S
H63 C58 0.960 . S
H64 C58 0.959 . S
C65 N66 1.317 . S
C65 N67 1.348 . S
C65 C68 1.485 . S
N66 C65 1.317 . S
N66 N70 1.370 . S
N67 C65 1.348 . S
N67 C69 1.346 . S
C68 C65 1.485 . S
C68 H72 0.960 . S
C68 H73 0.961 . S
C68 H74 0.960 . S
C69 N67 1.346 . S
C69 N70 1.307 . S
C69 C71 1.486 . S
N70 N66 1.370 . S
N70 C69 1.307 . S
C71 C69 1.486 . S
C71 H75 0.960 . S
C71 H76 0.960 . S
C71 H77 0.959 . S
H72 C68 0.960 . S
H73 C68 0.961 . S
H74 C68 0.960 . S
H75 C71 0.960 . S
H76 C71 0.960 . S
H77 C71 0.959 . S
C78 N79 1.317 . S
C78 N80 1.348 . S
C78 C81 1.485 . S
N79 C78 1.317 . S
N79 N83 1.370 . S
N80 C78 1.348 . S
N80 C82 1.346 . S
C81 C78 1.485 . S
C81 H85 0.960 . S
C81 H86 0.961 . S
C81 H87 0.960 . S
C82 N80 1.346 . S
C82 N83 1.307 . S
C82 C84 1.486 . S
N83 N79 1.370 . S
N83 C82 1.307 . S
C84 C82 1.486 . S
C84 H88 0.960 . S
C84 H89 0.960 . S
C84 H90 0.959 . S
H85 C81 0.960 . S
H86 C81 0.961 . S
H87 C81 0.960 . S
H88 C84 0.960 . S
H89 C84 0.960 . S
H90 C84 0.959 . S
C91 N92 1.317 . S
C91 N93 1.348 . S
C91 C94 1.485 . S
N92 C91 1.317 . S
N92 N96 1.370 . S
N93 C91 1.348 . S
N93 C95 1.346 . S
C94 C91 1.485 . S
C94 H98 0.960 . S
C94 H99 0.961 . S
C94 H100 0.960 . S
C95 N93 1.346 . S
C95 N96 1.307 . S
C95 C97 1.486 . S
N96 N92 1.370 . S
N96 C95 1.307 . S
C97 C95 1.486 . S
C97 H101 0.960 . S
C97 H102 0.960 . S
C97 H103 0.959 . S
H98 C94 0.960 . S
H99 C94 0.961 . S
H100 C94 0.960 . S
H101 C97 0.960 . S
H102 C97 0.960 . S
H103 C97 0.959 . S
C104 N105 1.317 . S
C104 N106 1.348 . S
C104 C107 1.485 . S
N105 C104 1.317 . S
N105 N109 1.370 . S
N106 C104 1.348 . S
N106 C108 1.346 . S
C107 C104 1.485 . S
C107 H111 0.960 . S
C107 H112 0.961 . S
C107 H113 0.960 . S
C108 N106 1.346 . S
C108 N109 1.307 . S
C108 C110 1.486 . S
N109 N105 1.370 . S
N109 C108 1.307 . S
C110 C108 1.486 . S
C110 H114 0.960 . S
C110 H115 0.960 . S
C110 H116 0.959 . S
H111 C107 0.960 . S
H112 C107 0.961 . S
H113 C107 0.960 . S
H114 C110 0.960 . S
H115 C110 0.960 . S
H116 C110 0.959 . S
C117 N118 1.317 1_545 S
C117 N119 1.348 . S
C117 C120 1.485 . S
N118 C117 1.317 1_565 S
N118 N122 1.370 . S
N119 C117 1.348 . S
N119 C121 1.346 1_545 S
C120 C117 1.485 . S
C120 H124 0.960 . S
C120 H125 0.961 . S
C120 H126 0.960 . S
C121 N119 1.346 1_565 S
C121 N122 1.307 . S
C121 C123 1.486 . S
N122 N118 1.370 . S
N122 C121 1.307 . S
C123 C121 1.486 . S
C123 H127 0.960 . S
C123 H128 0.960 . S
C123 H129 0.959 . S
H124 C120 0.960 . S
H125 C120 0.961 . S
H126 C120 0.960 . S
H127 C123 0.960 . S
H128 C123 0.960 . S
H129 C123 0.959 . S
C130 N131 1.317 . S
C130 N132 1.348 . S
C130 C133 1.485 . S
N131 C130 1.317 . S
N131 N135 1.370 . S
N132 C130 1.348 . S
N132 C134 1.346 . S
C133 C130 1.485 . S
C133 H137 0.960 . S
C133 H138 0.961 . S
C133 H139 0.960 . S
C134 N132 1.346 . S
C134 N135 1.307 . S
C134 C136 1.486 . S
N135 N131 1.370 . S
N135 C134 1.307 . S
C136 C134 1.486 . S
C136 H140 0.960 . S
C136 H141 0.960 . S
C136 H142 0.959 . S
H137 C133 0.960 . S
H138 C133 0.961 . S
H139 C133 0.960 . S
H140 C136 0.960 . S
H141 C136 0.960 . S
H142 C136 0.959 . S
C143 N144 1.317 . S
C143 N145 1.348 . S
C143 C146 1.485 . S
N144 C143 1.317 . S
N144 N148 1.370 . S
N145 C143 1.348 . S
N145 C147 1.346 . S
C146 C143 1.485 . S
C146 H150 0.960 . S
C146 H151 0.961 . S
C146 H152 0.960 . S
C147 N145 1.346 . S
C147 N148 1.307 . S
C147 C149 1.486 . S
N148 N144 1.370 . S
N148 C147 1.307 . S
C149 C147 1.486 . S
C149 H153 0.960 . S
C149 H154 0.960 . S
C149 H155 0.959 . S
H150 C146 0.960 . S
H151 C146 0.961 . S
H152 C146 0.960 . S
H153 C149 0.960 . S
H154 C149 0.960 . S
H155 C149 0.959 . S
C156 N157 1.317 . S
C156 N158 1.348 . S
C156 C159 1.485 . S
N157 C156 1.317 . S
N157 N161 1.370 . S
N158 C156 1.348 . S
N158 C160 1.346 . S
C159 C156 1.485 . S
C159 H163 0.960 . S
C159 H164 0.961 . S
C159 H165 0.960 . S
C160 N158 1.346 . S
C160 N161 1.307 . S
C160 C162 1.486 . S
N161 N157 1.370 . S
N161 C160 1.307 . S
C162 C160 1.486 . S
C162 H166 0.960 . S
C162 H167 0.960 . S
C162 H168 0.959 . S
H163 C159 0.960 . S
H164 C159 0.961 . S
H165 C159 0.960 . S
H166 C162 0.960 . S
H167 C162 0.960 . S
H168 C162 0.959 . S
C169 N170 1.329 . S
C169 N171 1.348 . S
C169 C172 1.485 . S
N170 C169 1.329 . S
N170 N174 1.380 . S
N171 C169 1.348 . S
N171 C173 1.346 . S
C172 C169 1.485 . S
C172 H176 0.960 . S
C172 H177 0.961 . S
C172 H178 0.960 1_556 S
C173 N171 1.346 . S
C173 N174 1.307 . S
C173 C175 1.486 . S
N174 N170 1.380 . S
N174 C173 1.307 . S
C175 C173 1.486 . S
C175 H179 0.960 . S
C175 H180 0.960 . S
C175 H181 0.959 . S
H176 C172 0.960 . S
H177 C172 0.961 . S
H178 C172 0.960 1_554 S
H179 C175 0.960 . S
H180 C175 0.960 . S
H181 C175 0.959 . S
C182 N183 1.317 . S
C182 N184 1.348 . S
C182 C185 1.485 . S
N183 C182 1.317 . S
N183 N187 1.370 . S
N184 C182 1.348 . S
N184 C186 1.346 . S
C185 C182 1.485 . S
C185 H189 0.960 . S
C185 H190 0.961 . S
C185 H191 0.960 . S
C186 N184 1.346 . S
C186 N187 1.307 . S
C186 C188 1.486 . S
N187 N183 1.370 . S
N187 C186 1.307 . S
C188 C186 1.486 . S
C188 H192 0.960 . S
C188 H193 0.960 . S
C188 H194 0.959 . S
H189 C185 0.960 . S
H190 C185 0.961 . S
H191 C185 0.960 . S
H192 C188 0.960 . S
H193 C188 0.960 . S
H194 C188 0.959 . S
C195 N196 1.317 . S
C195 N197 1.348 . S
C195 C198 1.485 1_545 S
N196 C195 1.317 . S
N196 N200 1.353 1_556 S
N197 C195 1.348 . S
N197 C199 1.346 1_556 S
C198 C195 1.485 1_565 S
C198 H202 0.960 . S
C198 H203 0.961 . S
C198 H204 0.960 . S
C199 N197 1.346 1_554 S
C199 N200 1.316 . S
C199 C201 1.486 . S
N200 N196 1.353 1_554 S
N200 C199 1.316 . S
C201 C199 1.486 . S
C201 H205 0.960 . S
C201 H206 0.960 . S
C201 H207 0.959 . S
H202 C198 0.960 . S
H203 C198 0.961 . S
H204 C198 0.960 . S
H205 C201 0.960 . S
H206 C201 0.960 . S
H207 C201 0.959 . S
Mn208 O213 2.095 . S
Mn208 O223 2.162 . S
Mn208 O224 2.297 . S
Mn208 O232 2.385 . S
Mn208 O233 2.209 1_554 S
Mn208 O234 2.094 . S
Mn209 O214 2.121 . S
Mn209 N216 2.257 . S
Mn209 N225 2.282 . S
Mn209 O233 2.215 . S
Mn209 O235 2.117 . S
C210 O232 1.234 1_556 S
C210 O233 1.283 . S
C211 O223 1.281 . S
C211 O224 1.236 . S
C212 O234 1.240 . S
C212 O235 1.264 1_554 S
O213 Mn208 2.095 . S
O213 C222 1.250 . S
O214 Mn209 2.121 . S
O214 C222 1.258 1_556 S
C215 N216 1.326 . S
C215 C219 1.460 . S
C215 H221 0.929 . S
N216 Mn209 2.257 . S
N216 C215 1.326 . S
N216 C220 1.362 . S
C217 C218 1.258 . S
C217 C220 1.431 . S
C217 C237 1.449 . S
C218 C217 1.258 . S
C218 C219 1.477 . S
C218 H238 0.931 . S
C219 C215 1.460 . S
C219 C218 1.477 . S
C219 H239 0.930 . S
C220 N216 1.362 . S
C220 C217 1.431 . S
C220 C230 1.476 . S
H221 C215 0.929 . S
C222 O213 1.250 . S
C222 O214 1.258 1_554 S
O223 Mn208 2.162 . S
O223 C211 1.281 . S
O224 Mn208 2.297 . S
O224 C211 1.236 . S
N225 Mn209 2.282 . S
N225 C226 1.328 . S
N225 C230 1.318 . S
C226 N225 1.328 . S
C226 C227 1.457 . S
C226 H231 0.929 . S
C227 C226 1.457 . S
C227 C228 1.291 . S
C227 H240 0.931 . S
C228 C227 1.291 . S
C228 C229 1.373 . S
C228 H241 0.929 . S
C229 C228 1.373 . S
C229 C230 1.396 . S
C229 C236 1.403 . S
C230 C220 1.476 . S
C230 N225 1.318 . S
C230 C229 1.396 . S
H231 C226 0.929 . S
O232 Mn208 2.385 . S
O232 C210 1.234 1_554 S
O233 Mn208 2.209 1_556 S
O233 Mn209 2.215 . S
O233 C210 1.283 . S
O234 Mn208 2.094 . S
O234 C212 1.240 . S
O235 Mn209 2.117 . S
O235 C212 1.264 1_556 S
C236 C229 1.403 . S
C236 C237 1.399 . S
C236 H242 0.929 . S
C237 C217 1.449 . S
C237 C236 1.399 . S
C237 H243 0.930 . S
H238 C218 0.931 . S
H239 C219 0.930 . S
H240 C227 0.931 . S
H241 C228 0.929 . S
H242 C236 0.929 . S
H243 C237 0.930 . S
Mn244 O249 2.095 . S
Mn244 O259 2.162 . S
Mn244 O260 2.297 . S
Mn244 O268 2.385 . S
Mn244 O269 2.209 . S
Mn244 O270 2.094 . S
Mn245 O250 2.121 . S
Mn245 N252 2.257 . S
Mn245 N261 2.282 . S
Mn245 O269 2.215 . S
Mn245 O271 2.117 . S
C246 O268 1.234 . S
C246 O269 1.283 . S
C247 O259 1.281 . S
C247 O260 1.236 . S
C248 O270 1.240 . S
C248 O271 1.264 . S
O249 Mn244 2.095 . S
O249 C258 1.250 . S
O250 Mn245 2.121 . S
O250 C258 1.258 . S
C251 N252 1.326 . S
C251 C255 1.460 . S
C251 H257 0.929 . S
N252 Mn245 2.257 . S
N252 C251 1.326 . S
N252 C256 1.362 . S
C253 C254 1.258 . S
C253 C256 1.431 . S
C253 C273 1.449 . S
C254 C253 1.258 . S
C254 C255 1.477 . S
C254 H274 0.931 . S
C255 C251 1.460 . S
C255 C254 1.477 . S
C255 H275 0.930 . S
C256 N252 1.362 . S
C256 C253 1.431 . S
C256 C266 1.476 . S
H257 C251 0.929 . S
C258 O249 1.250 . S
C258 O250 1.258 . S
O259 Mn244 2.162 . S
O259 C247 1.281 . S
O260 Mn244 2.297 . S
O260 C247 1.236 . S
N261 Mn245 2.282 . S
N261 C262 1.328 . S
N261 C266 1.318 . S
C262 N261 1.328 . S
C262 C263 1.457 . S
C262 H267 0.929 . S
C263 C262 1.457 . S
C263 C264 1.291 . S
C263 H276 0.931 . S
C264 C263 1.291 . S
C264 C265 1.373 . S
C264 H277 0.929 . S
C265 C264 1.373 . S
C265 C266 1.396 . S
C265 C272 1.403 . S
C266 C256 1.476 . S
C266 N261 1.318 . S
C266 C265 1.396 . S
H267 C262 0.929 . S
O268 Mn244 2.385 . S
O268 C246 1.234 . S
O269 Mn244 2.209 . S
O269 Mn245 2.215 . S
O269 C246 1.283 . S
O270 Mn244 2.094 . S
O270 C248 1.240 . S
O271 Mn245 2.117 . S
O271 C248 1.264 . S
C272 C265 1.403 . S
C272 C273 1.399 . S
C272 H278 0.929 . S
C273 C253 1.449 . S
C273 C272 1.399 . S
C273 H279 0.930 . S
H274 C254 0.931 . S
H275 C255 0.930 . S
H276 C263 0.931 . S
H277 C264 0.929 . S
H278 C272 0.929 . S
H279 C273 0.930 . S
Mn280 O285 2.095 1_554 S
Mn280 O295 2.162 . S
Mn280 O296 2.297 1_554 S
Mn280 O304 2.385 . S
Mn280 O305 2.209 1_554 S
Mn280 O306 2.094 . S
Mn281 O286 2.121 . S
Mn281 N288 2.257 . S
Mn281 N297 2.282 1_556 S
Mn281 O305 2.215 . S
Mn281 O307 2.117 1_556 S
C282 O304 1.234 . S
C282 O305 1.283 1_554 S
C283 O295 1.281 . S
C283 O296 1.236 1_554 S
C284 O306 1.240 . S
C284 O307 1.264 . S
O285 Mn280 2.095 1_556 S
O285 C294 1.250 . S
O286 Mn281 2.121 . S
O286 C294 1.258 . S
C287 N288 1.326 . S
C287 C291 1.460 . S
C287 H293 0.929 . S
N288 Mn281 2.257 . S
N288 C287 1.326 . S
N288 C292 1.362 . S
C289 C290 1.258 . S
C289 C292 1.431 . S
C289 C309 1.449 . S
C290 C289 1.258 . S
C290 C291 1.477 . S
C290 H310 0.931 . S
C291 C287 1.460 . S
C291 C290 1.477 . S
C291 H311 0.930 . S
C292 N288 1.362 . S
C292 C289 1.431 . S
C292 C302 1.476 . S
H293 C287 0.929 . S
C294 O285 1.250 . S
C294 O286 1.258 . S
O295 Mn280 2.162 . S
O295 C283 1.281 . S
O296 Mn280 2.297 1_556 S
O296 C283 1.236 1_556 S
N297 Mn281 2.282 1_554 S
N297 C298 1.328 . S
N297 C302 1.318 1_554 S
C298 N297 1.328 . S
C298 C299 1.457 . S
C298 H303 0.929 . S
C299 C298 1.457 . S
C299 C300 1.291 . S
C299 H312 0.931 . S
C300 C299 1.291 . S
C300 C301 1.373 1_554 S
C300 H313 0.929 . S
C301 C300 1.373 1_556 S
C301 C302 1.396 . S
C301 C308 1.403 . S
C302 C292 1.476 . S
C302 N297 1.318 1_556 S
C302 C301 1.396 . S
H303 C298 0.929 . S
O304 Mn280 2.385 . S
O304 C282 1.234 . S
O305 Mn280 2.209 1_556 S
O305 Mn281 2.215 . S
O305 C282 1.283 1_556 S
O306 Mn280 2.094 . S
O306 C284 1.240 . S
O307 Mn281 2.117 1_554 S
O307 C284 1.264 . S
C308 C301 1.403 . S
C308 C309 1.399 . S
C308 H314 0.929 . S
C309 C289 1.449 . S
C309 C308 1.399 . S
C309 H315 0.930 . S
H310 C290 0.931 . S
H311 C291 0.930 . S
H312 C299 0.931 . S
H313 C300 0.929 . S
H314 C308 0.929 . S
H315 C309 0.930 . S
Mn316 O321 2.095 . S
Mn316 O331 2.162 . S
Mn316 O332 2.297 . S
Mn316 O340 2.385 1_545 S
Mn316 O341 2.209 1_545 S
Mn316 O342 2.094 . S
Mn317 O322 2.121 . S
Mn317 N324 2.257 . S
Mn317 N333 2.282 . S
Mn317 O341 2.215 . S
Mn317 O343 2.117 . S
C318 O340 1.234 . S
C318 O341 1.283 . S
C319 O331 1.281 . S
C319 O332 1.236 . S
C320 O342 1.240 . S
C320 O343 1.264 1_545 S
O321 Mn316 2.095 . S
O321 C330 1.250 . S
O322 Mn317 2.121 . S
O322 C330 1.258 1_565 S
C323 N324 1.326 . S
C323 C327 1.460 . S
C323 H329 0.929 . S
N324 Mn317 2.257 . S
N324 C323 1.326 . S
N324 C328 1.362 . S
C325 C326 1.258 . S
C325 C328 1.431 . S
C325 C345 1.449 . S
C326 C325 1.258 . S
C326 C327 1.477 . S
C326 H346 0.931 . S
C327 C323 1.460 . S
C327 C326 1.477 . S
C327 H347 0.930 . S
C328 N324 1.362 . S
C328 C325 1.431 . S
C328 C338 1.476 . S
H329 C323 0.929 . S
C330 O321 1.250 . S
C330 O322 1.258 1_545 S
O331 Mn316 2.162 . S
O331 C319 1.281 . S
O332 Mn316 2.297 . S
O332 C319 1.236 . S
N333 Mn317 2.282 . S
N333 C334 1.328 . S
N333 C338 1.318 . S
C334 N333 1.328 . S
C334 C335 1.457 . S
C334 H339 0.929 . S
C335 C334 1.457 . S
C335 C336 1.291 . S
C335 H348 0.931 . S
C336 C335 1.291 . S
C336 C337 1.373 . S
C336 H349 0.929 . S
C337 C336 1.373 . S
C337 C338 1.396 . S
C337 C344 1.403 . S
C338 C328 1.476 . S
C338 N333 1.318 . S
C338 C337 1.396 . S
H339 C334 0.929 . S
O340 Mn316 2.385 1_565 S
O340 C318 1.234 . S
O341 Mn316 2.209 1_565 S
O341 Mn317 2.215 . S
O341 C318 1.283 . S
O342 Mn316 2.094 . S
O342 C320 1.240 . S
O343 Mn317 2.117 . S
O343 C320 1.264 1_565 S
C344 C337 1.403 . S
C344 C345 1.399 . S
C344 H350 0.929 . S
C345 C325 1.449 . S
C345 C344 1.399 . S
C345 H351 0.930 . S
H346 C326 0.931 . S
H347 C327 0.930 . S
H348 C335 0.931 . S
H349 C336 0.929 . S
H350 C344 0.929 . S
H351 C345 0.930 . S
Mn352 O357 2.095 . S
Mn352 O367 2.162 . S
Mn352 O368 2.297 . S
Mn352 O376 2.385 . S
Mn352 O377 2.209 . S
Mn352 O378 2.094 . S
Mn353 O358 2.121 . S
Mn353 N360 2.257 . S
Mn353 N369 2.282 . S
Mn353 O377 2.215 . S
Mn353 O379 2.117 . S
C354 O376 1.234 . S
C354 O377 1.283 . S
C355 O367 1.281 . S
C355 O368 1.236 . S
C356 O378 1.240 . S
C356 O379 1.264 . S
O357 Mn352 2.095 . S
O357 C366 1.250 . S
O358 Mn353 2.121 . S
O358 C366 1.258 . S
C359 N360 1.326 . S
C359 C363 1.460 . S
C359 H365 0.929 . S
N360 Mn353 2.257 . S
N360 C359 1.326 . S
N360 C364 1.362 . S
C361 C362 1.258 . S
C361 C364 1.431 . S
C361 C381 1.449 . S
C362 C361 1.258 . S
C362 C363 1.477 . S
C362 H382 0.931 . S
C363 C359 1.460 . S
C363 C362 1.477 . S
C363 H383 0.930 . S
C364 N360 1.362 . S
C364 C361 1.431 . S
C364 C374 1.476 . S
H365 C359 0.929 . S
C366 O357 1.250 . S
C366 O358 1.258 . S
O367 Mn352 2.162 . S
O367 C355 1.281 . S
O368 Mn352 2.297 . S
O368 C355 1.236 . S
N369 Mn353 2.282 . S
N369 C370 1.328 . S
N369 C374 1.318 . S
C370 N369 1.328 . S
C370 C371 1.457 . S
C370 H375 0.929 . S
C371 C370 1.457 . S
C371 C372 1.291 . S
C371 H384 0.931 . S
C372 C371 1.291 . S
C372 C373 1.373 . S
C372 H385 0.929 . S
C373 C372 1.373 . S
C373 C374 1.396 . S
C373 C380 1.403 . S
C374 C364 1.476 . S
C374 N369 1.318 . S
C374 C373 1.396 . S
H375 C370 0.929 . S
O376 Mn352 2.385 . S
O376 C354 1.234 . S
O377 Mn352 2.209 . S
O377 Mn353 2.215 . S
O377 C354 1.283 . S
O378 Mn352 2.094 . S
O378 C356 1.240 . S
O379 Mn353 2.117 . S
O379 C356 1.264 . S
C380 C373 1.403 . S
C380 C381 1.399 . S
C380 H386 0.929 . S
C381 C361 1.449 . S
C381 C380 1.399 . S
C381 H387 0.930 . S
H382 C362 0.931 . S
H383 C363 0.930 . S
H384 C371 0.931 . S
H385 C372 0.929 . S
H386 C380 0.929 . S
H387 C381 0.930 . S
Mn388 O393 2.095 . S
Mn388 O403 2.162 . S
Mn388 O404 2.297 . S
Mn388 O412 2.385 . S
Mn388 O413 2.209 . S
Mn388 O414 2.094 . S
Mn389 O394 2.121 . S
Mn389 N396 2.257 . S
Mn389 N405 2.282 . S
Mn389 O413 2.215 . S
Mn389 O415 2.117 . S
C390 O412 1.234 . S
C390 O413 1.283 . S
C391 O403 1.281 . S
C391 O404 1.236 . S
C392 O414 1.240 . S
C392 O415 1.264 . S
O393 Mn388 2.095 . S
O393 C402 1.250 . S
O394 Mn389 2.121 . S
O394 C402 1.258 . S
C395 N396 1.326 . S
C395 C399 1.460 . S
C395 H401 0.929 . S
N396 Mn389 2.257 . S
N396 C395 1.326 . S
N396 C400 1.362 . S
C397 C398 1.258 . S
C397 C400 1.431 . S
C397 C417 1.449 . S
C398 C397 1.258 . S
C398 C399 1.477 . S
C398 H418 0.931 . S
C399 C395 1.460 . S
C399 C398 1.477 . S
C399 H419 0.930 . S
C400 N396 1.362 . S
C400 C397 1.431 . S
C400 C410 1.476 . S
H401 C395 0.929 . S
C402 O393 1.250 . S
C402 O394 1.258 . S
O403 Mn388 2.162 . S
O403 C391 1.281 . S
O404 Mn388 2.297 . S
O404 C391 1.236 . S
N405 Mn389 2.282 . S
N405 C406 1.328 . S
N405 C410 1.318 . S
C406 N405 1.328 . S
C406 C407 1.457 . S
C406 H411 0.929 . S
C407 C406 1.457 . S
C407 C408 1.291 . S
C407 H420 0.931 . S
C408 C407 1.291 . S
C408 C409 1.373 . S
C408 H421 0.929 . S
C409 C408 1.373 . S
C409 C410 1.396 . S
C409 C416 1.403 . S
C410 C400 1.476 . S
C410 N405 1.318 . S
C410 C409 1.396 . S
H411 C406 0.929 . S
O412 Mn388 2.385 . S
O412 C390 1.234 . S
O413 Mn388 2.209 . S
O413 Mn389 2.215 . S
O413 C390 1.283 . S
O414 Mn388 2.094 . S
O414 C392 1.240 . S
O415 Mn389 2.117 . S
O415 C392 1.264 . S
C416 C409 1.403 . S
C416 C417 1.399 . S
C416 H422 0.929 . S
C417 C397 1.449 . S
C417 C416 1.399 . S
C417 H423 0.930 . S
H418 C398 0.931 . S
H419 C399 0.930 . S
H420 C407 0.931 . S
H421 C408 0.929 . S
H422 C416 0.929 . S
H423 C417 0.930 . S
Mn424 O429 2.095 . S
Mn424 O439 2.162 . S
Mn424 O440 2.297 . S
Mn424 O448 2.385 . S
Mn424 O449 2.209 . S
Mn424 O450 2.094 . S
Mn425 O430 2.121 . S
Mn425 N432 2.257 . S
Mn425 N441 2.282 . S
Mn425 O449 2.215 . S
Mn425 O451 2.117 . S
C426 O448 1.234 . S
C426 O449 1.283 . S
C427 O439 1.281 . S
C427 O440 1.236 . S
C428 O450 1.240 . S
C428 O451 1.264 . S
O429 Mn424 2.095 . S
O429 C438 1.250 . S
O430 Mn425 2.121 . S
O430 C438 1.258 . S
C431 N432 1.326 . S
C431 C435 1.460 . S
C431 H437 0.929 . S
N432 Mn425 2.257 . S
N432 C431 1.326 . S
N432 C436 1.362 . S
C433 C434 1.258 . S
C433 C436 1.431 . S
C433 C453 1.449 . S
C434 C433 1.258 . S
C434 C435 1.477 . S
C434 H454 0.931 . S
C435 C431 1.460 . S
C435 C434 1.477 . S
C435 H455 0.930 . S
C436 N432 1.362 . S
C436 C433 1.431 . S
C436 C446 1.476 . S
H437 C431 0.929 . S
C438 O429 1.250 . S
C438 O430 1.258 . S
O439 Mn424 2.162 . S
O439 C427 1.281 . S
O440 Mn424 2.297 . S
O440 C427 1.236 . S
N441 Mn425 2.282 . S
N441 C442 1.328 . S
N441 C446 1.318 . S
C442 N441 1.328 . S
C442 C443 1.457 . S
C442 H447 0.929 . S
C443 C442 1.457 . S
C443 C444 1.291 . S
C443 H456 0.931 . S
C444 C443 1.291 . S
C444 C445 1.373 . S
C444 H457 0.929 . S
C445 C444 1.373 . S
C445 C446 1.396 . S
C445 C452 1.403 . S
C446 C436 1.476 . S
C446 N441 1.318 . S
C446 C445 1.396 . S
H447 C442 0.929 . S
O448 Mn424 2.385 . S
O448 C426 1.234 . S
O449 Mn424 2.209 . S
O449 Mn425 2.215 . S
O449 C426 1.283 . S
O450 Mn424 2.094 . S
O450 C428 1.240 . S
O451 Mn425 2.117 . S
O451 C428 1.264 . S
C452 C445 1.403 . S
C452 C453 1.399 . S
C452 H458 0.929 . S
C453 C433 1.449 . S
C453 C452 1.399 . S
C453 H459 0.930 . S
H454 C434 0.931 . S
H455 C435 0.930 . S
H456 C443 0.931 . S
H457 C444 0.929 . S
H458 C452 0.929 . S
H459 C453 0.930 . S
Mn460 O465 2.095 . S
Mn460 O475 2.162 1_545 S
Mn460 O476 2.299 . S
Mn460 O484 2.385 . S
Mn460 O485 2.209 . S
Mn460 O486 2.094 1_545 S
Mn461 O466 2.121 . S
Mn461 N468 2.257 . S
Mn461 N477 2.282 . S
Mn461 O485 2.215 . S
Mn461 O487 2.117 . S
C462 O484 1.234 . S
C462 O485 1.283 . S
C463 O475 1.281 . S
C463 O476 1.228 1_565 S
C464 O486 1.240 1_545 S
C464 O487 1.264 . S
O465 Mn460 2.095 . S
O465 C474 1.250 . S
O466 Mn461 2.121 . S
O466 C474 1.258 . S
C467 N468 1.326 . S
C467 C471 1.460 . S
C467 H473 0.929 . S
N468 Mn461 2.257 . S
N468 C467 1.326 . S
N468 C472 1.362 . S
C469 C470 1.258 . S
C469 C472 1.431 . S
C469 C489 1.449 . S
C470 C469 1.258 . S
C470 C471 1.477 . S
C470 H490 0.931 . S
C471 C467 1.460 . S
C471 C470 1.477 . S
C471 H491 0.930 . S
C472 N468 1.362 . S
C472 C469 1.431 . S
C472 C482 1.476 . S
H473 C467 0.929 . S
C474 O465 1.250 . S
C474 O466 1.258 . S
O475 Mn460 2.162 1_565 S
O475 C463 1.281 . S
O476 Mn460 2.299 . S
O476 C463 1.228 1_545 S
N477 Mn461 2.282 . S
N477 C478 1.328 . S
N477 C482 1.318 . S
C478 N477 1.328 . S
C478 C479 1.457 . S
C478 H483 0.929 . S
C479 C478 1.457 . S
C479 C480 1.291 . S
C479 H492 0.931 . S
C480 C479 1.291 . S
C480 C481 1.373 . S
C480 H493 0.929 . S
C481 C480 1.373 . S
C481 C482 1.396 . S
C481 C488 1.403 . S
C482 C472 1.476 . S
C482 N477 1.318 . S
C482 C481 1.396 . S
H483 C478 0.929 . S
O484 Mn460 2.385 . S
O484 C462 1.234 . S
O485 Mn460 2.209 . S
O485 Mn461 2.215 . S
O485 C462 1.283 . S
O486 Mn460 2.094 1_565 S
O486 C464 1.240 1_565 S
O487 Mn461 2.117 . S
O487 C464 1.264 . S
C488 C481 1.403 . S
C488 C489 1.399 . S
C488 H494 0.929 . S
C489 C469 1.449 . S
C489 C488 1.399 . S
C489 H495 0.930 . S
H490 C470 0.931 . S
H491 C471 0.930 . S
H492 C479 0.931 . S
H493 C480 0.929 . S
H494 C488 0.929 . S
H495 C489 0.930 . S
Mn496 O501 2.095 . S
Mn496 O511 2.162 . S
Mn496 O512 2.297 . S
Mn496 O520 2.385 1_455 S
Mn496 O521 2.209 1_455 S
Mn496 O522 2.094 . S
Mn497 O502 2.121 . S
Mn497 N504 2.257 . S
Mn497 N513 2.282 . S
Mn497 O521 2.215 . S
Mn497 O523 2.117 . S
C498 O520 1.234 . S
C498 O521 1.283 . S
C499 O511 1.281 . S
C499 O512 1.236 . S
C500 O522 1.239 1_655 S
C500 O523 1.265 . S
O501 Mn496 2.095 . S
O501 C510 1.250 1_455 S
O502 Mn497 2.121 . S
O502 C510 1.258 . S
C503 N504 1.326 . S
C503 C507 1.460 . S
C503 H509 0.929 . S
N504 Mn497 2.257 . S
N504 C503 1.326 . S
N504 C508 1.362 . S
C505 C506 1.258 . S
C505 C508 1.431 . S
C505 C525 1.449 . S
C506 C505 1.258 . S
C506 C507 1.477 . S
C506 H526 0.931 . S
C507 C503 1.460 . S
C507 C506 1.477 . S
C507 H527 0.930 . S
C508 N504 1.362 . S
C508 C505 1.431 . S
C508 C518 1.476 . S
H509 C503 0.929 . S
C510 O501 1.250 1_655 S
C510 O502 1.258 . S
O511 Mn496 2.162 . S
O511 C499 1.281 . S
O512 Mn496 2.297 . S
O512 C499 1.236 . S
N513 Mn497 2.282 . S
N513 C514 1.328 . S
N513 C518 1.318 . S
C514 N513 1.328 . S
C514 C515 1.457 . S
C514 H519 0.929 . S
C515 C514 1.457 . S
C515 C516 1.291 . S
C515 H528 0.931 . S
C516 C515 1.291 . S
C516 C517 1.373 . S
C516 H529 0.929 . S
C517 C516 1.373 . S
C517 C518 1.396 . S
C517 C524 1.403 . S
C518 C508 1.476 . S
C518 N513 1.318 . S
C518 C517 1.396 . S
H519 C514 0.929 . S
O520 Mn496 2.385 1_655 S
O520 C498 1.234 . S
O521 Mn496 2.209 1_655 S
O521 Mn497 2.215 . S
O521 C498 1.283 . S
O522 Mn496 2.094 . S
O522 C500 1.239 1_455 S
O523 Mn497 2.117 . S
O523 C500 1.265 . S
C524 C517 1.403 . S
C524 C525 1.399 . S
C524 H530 0.929 . S
C525 C505 1.449 . S
C525 C524 1.399 . S
C525 H531 0.930 . S
H526 C506 0.931 . S
H527 C507 0.930 . S
H528 C515 0.931 . S
H529 C516 0.929 . S
H530 C524 0.929 . S
H531 C525 0.930 . S
Mn532 O537 2.095 . S
Mn532 O547 2.162 . S
Mn532 O548 2.297 . S
Mn532 O556 2.385 . S
Mn532 O557 2.209 . S
Mn532 O558 2.094 . S
Mn533 O538 2.121 . S
Mn533 N540 2.257 . S
Mn533 N549 2.282 . S
Mn533 O557 2.215 . S
Mn533 O559 2.117 . S
C534 O556 1.234 . S
C534 O557 1.283 . S
C535 O547 1.281 . S
C535 O548 1.236 . S
C536 O558 1.240 . S
C536 O559 1.264 . S
O537 Mn532 2.095 . S
O537 C546 1.250 . S
O538 Mn533 2.121 . S
O538 C546 1.258 . S
C539 N540 1.326 . S
C539 C543 1.460 . S
C539 H545 0.929 . S
N540 Mn533 2.257 . S
N540 C539 1.326 . S
N540 C544 1.362 . S
C541 C542 1.258 . S
C541 C544 1.431 . S
C541 C561 1.449 . S
C542 C541 1.258 . S
C542 C543 1.477 . S
C542 H562 0.931 . S
C543 C539 1.460 . S
C543 C542 1.477 . S
C543 H563 0.930 . S
C544 N540 1.362 . S
C544 C541 1.431 . S
C544 C554 1.476 . S
H545 C539 0.929 . S
C546 O537 1.250 . S
C546 O538 1.258 . S
O547 Mn532 2.162 . S
O547 C535 1.281 . S
O548 Mn532 2.297 . S
O548 C535 1.236 . S
N549 Mn533 2.282 . S
N549 C550 1.328 . S
N549 C554 1.318 . S
C550 N549 1.328 . S
C550 C551 1.457 . S
C550 H555 0.929 . S
C551 C550 1.457 . S
C551 C552 1.291 . S
C551 H564 0.931 . S
C552 C551 1.291 . S
C552 C553 1.373 . S
C552 H565 0.929 . S
C553 C552 1.373 . S
C553 C554 1.396 . S
C553 C560 1.403 . S
C554 C544 1.476 . S
C554 N549 1.318 . S
C554 C553 1.396 . S
H555 C550 0.929 . S
O556 Mn532 2.385 . S
O556 C534 1.234 . S
O557 Mn532 2.209 . S
O557 Mn533 2.215 . S
O557 C534 1.283 . S
O558 Mn532 2.094 . S
O558 C536 1.240 . S
O559 Mn533 2.117 . S
O559 C536 1.264 . S
C560 C553 1.403 . S
C560 C561 1.399 . S
C560 H566 0.929 . S
C561 C541 1.449 . S
C561 C560 1.399 . S
C561 H567 0.930 . S
H562 C542 0.931 . S
H563 C543 0.930 . S
H564 C551 0.931 . S
H565 C552 0.929 . S
H566 C560 0.929 . S
H567 C561 0.930 . S
Mn568 O573 2.095 . S
Mn568 O583 2.162 . S
Mn568 O584 2.297 . S
Mn568 O592 2.385 . S
Mn568 O593 2.209 1_455 S
Mn568 O594 2.094 . S
Mn569 O574 2.121 . S
Mn569 N576 2.257 . S
Mn569 N585 2.282 1_655 S
Mn569 O593 2.215 . S
Mn569 O595 2.117 1_655 S
C570 O592 1.234 . S
C570 O593 1.283 1_455 S
C571 O583 1.281 . S
C571 O584 1.236 . S
C572 O594 1.240 . S
C572 O595 1.264 . S
O573 Mn568 2.095 . S
O573 C582 1.250 1_455 S
O574 Mn569 2.121 . S
O574 C582 1.258 . S
C575 N576 1.326 . S
C575 C579 1.460 . S
C575 H581 0.929 . S
N576 Mn569 2.257 . S
N576 C575 1.326 . S
N576 C580 1.362 . S
C577 C578 1.258 . S
C577 C580 1.431 . S
C577 C597 1.449 . S
C578 C577 1.258 . S
C578 C579 1.477 . S
C578 H598 0.931 . S
C579 C575 1.460 . S
C579 C578 1.477 . S
C579 H599 0.930 . S
C580 N576 1.362 . S
C580 C577 1.431 . S
C580 C590 1.476 . S
H581 C575 0.929 . S
C582 O573 1.250 1_655 S
C582 O574 1.258 . S
O583 Mn568 2.162 . S
O583 C571 1.281 . S
O584 Mn568 2.297 . S
O584 C571 1.236 . S
N585 Mn569 2.282 1_455 S
N585 C586 1.328 . S
N585 C590 1.318 1_455 S
C586 N585 1.328 . S
C586 C587 1.457 . S
C586 H591 0.929 . S
C587 C586 1.457 . S
C587 C588 1.291 . S
C587 H600 0.931 . S
C588 C587 1.291 . S
C588 C589 1.373 1_455 S
C588 H601 0.929 . S
C589 C588 1.373 1_655 S
C589 C590 1.396 . S
C589 C596 1.403 . S
C590 C580 1.476 . S
C590 N585 1.318 1_655 S
C590 C589 1.396 . S
H591 C586 0.929 . S
O592 Mn568 2.385 . S
O592 C570 1.234 . S
O593 Mn568 2.209 1_655 S
O593 Mn569 2.215 . S
O593 C570 1.283 1_655 S
O594 Mn568 2.094 . S
O594 C572 1.240 . S
O595 Mn569 2.117 1_455 S
O595 C572 1.264 . S
C596 C589 1.403 . S
C596 C597 1.399 . S
C596 H602 0.929 . S
C597 C577 1.449 . S
C597 C596 1.399 . S
C597 H603 0.930 . S
H598 C578 0.931 . S
H599 C579 0.930 . S
H600 C587 0.931 . S
H601 C588 0.929 . S
H602 C596 0.929 . S
H603 C597 0.930 . S
Mn604 O609 2.095 . S
Mn604 O619 2.162 . S
Mn604 O620 2.297 . S
Mn604 O628 2.385 . S
Mn604 O629 2.209 . S
Mn604 O630 2.094 . S
Mn605 O610 2.121 . S
Mn605 N612 2.257 . S
Mn605 N621 2.282 . S
Mn605 O629 2.215 . S
Mn605 O631 2.117 . S
C606 O628 1.234 . S
C606 O629 1.283 . S
C607 O619 1.281 . S
C607 O620 1.236 . S
C608 O630 1.240 . S
C608 O631 1.264 . S
O609 Mn604 2.095 . S
O609 C618 1.250 . S
O610 Mn605 2.121 . S
O610 C618 1.258 . S
C611 N612 1.326 . S
C611 C615 1.460 . S
C611 H617 0.929 . S
N612 Mn605 2.257 . S
N612 C611 1.326 . S
N612 C616 1.362 . S
C613 C614 1.258 . S
C613 C616 1.431 . S
C613 C633 1.449 . S
C614 C613 1.258 . S
C614 C615 1.477 . S
C614 H634 0.931 . S
C615 C611 1.460 . S
C615 C614 1.477 . S
C615 H635 0.930 . S
C616 N612 1.362 . S
C616 C613 1.431 . S
C616 C626 1.476 . S
H617 C611 0.929 . S
C618 O609 1.250 . S
C618 O610 1.258 . S
O619 Mn604 2.162 . S
O619 C607 1.281 . S
O620 Mn604 2.297 . S
O620 C607 1.236 . S
N621 Mn605 2.282 . S
N621 C622 1.328 . S
N621 C626 1.318 . S
C622 N621 1.328 . S
C622 C623 1.457 . S
C622 H627 0.929 . S
C623 C622 1.457 . S
C623 C624 1.291 . S
C623 H636 0.931 . S
C624 C623 1.291 . S
C624 C625 1.373 . S
C624 H637 0.929 . S
C625 C624 1.373 . S
C625 C626 1.396 . S
C625 C632 1.403 . S
C626 C616 1.476 . S
C626 N621 1.318 . S
C626 C625 1.396 . S
H627 C622 0.929 . S
O628 Mn604 2.385 . S
O628 C606 1.234 . S
O629 Mn604 2.209 . S
O629 Mn605 2.215 . S
O629 C606 1.283 . S
O630 Mn604 2.094 . S
O630 C608 1.240 . S
O631 Mn605 2.117 . S
O631 C608 1.264 . S
C632 C625 1.403 . S
C632 C633 1.399 . S
C632 H638 0.929 . S
C633 C613 1.449 . S
C633 C632 1.399 . S
C633 H639 0.930 . S
H634 C614 0.931 . S
H635 C615 0.930 . S
H636 C623 0.931 . S
H637 C624 0.929 . S
H638 C632 0.929 . S
H639 C633 0.930 . S
C640 C641 1.369 . S
C640 C642 1.419 . S
C640 H644 0.930 . S
C641 C640 1.369 . S
C641 C650 1.429 . S
C642 C640 1.419 . S
C642 C643 1.363 . S
C642 H645 0.929 . S
C643 C642 1.363 . S
C643 C649 1.428 . S
H644 C640 0.930 . S
H645 C642 0.929 . S
S646 N647 1.613 . S
S646 N648 1.610 . S
N647 S646 1.613 . S
N647 C650 1.350 . S
N648 S646 1.610 . S
N648 C649 1.351 . S
C649 C643 1.428 . S
C649 N648 1.351 . S
C649 C650 1.434 . S
C650 C641 1.429 . S
C650 N647 1.350 . S
C650 C649 1.434 . S
C651 C652 1.369 . S
C651 C653 1.419 . S
C651 H655 0.930 1_455 S
C652 C651 1.369 . S
C652 C661 1.429 . S
C653 C651 1.419 . S
C653 C654 1.363 . S
C653 H656 0.929 . S
C654 C653 1.363 . S
C654 C660 1.428 . S
H655 C651 0.930 1_655 S
H656 C653 0.929 . S
S657 N658 1.613 . S
S657 N659 1.610 . S
N658 S657 1.613 . S
N658 C661 1.350 . S
N659 S657 1.610 . S
N659 C660 1.351 . S
C660 C654 1.428 . S
C660 N659 1.351 . S
C660 C661 1.434 . S
C661 C652 1.429 . S
C661 N658 1.350 . S
C661 C660 1.434 . S
C662 C663 1.369 . S
C662 C664 1.419 . S
C662 H666 0.930 . S
C663 C662 1.369 . S
C663 C672 1.429 . S
C664 C662 1.419 . S
C664 C665 1.363 . S
C664 H667 0.929 . S
C665 C664 1.363 . S
C665 C671 1.428 . S
H666 C662 0.930 . S
H667 C664 0.929 . S
S668 N669 1.613 . S
S668 N670 1.610 . S
N669 S668 1.613 . S
N669 C672 1.350 . S
N670 S668 1.610 . S
N670 C671 1.351 . S
C671 C665 1.428 . S
C671 N670 1.351 . S
C671 C672 1.434 . S
C672 C663 1.429 . S
C672 N669 1.350 . S
C672 C671 1.434 . S
C673 C674 1.376 . S
C673 C675 1.419 . S
C673 H677 0.930 . S
C674 C673 1.376 . S
C674 C683 1.418 1_565 S
C675 C673 1.419 . S
C675 C676 1.363 1_565 S
C675 H678 0.929 . S
C676 C675 1.363 1_545 S
C676 C682 1.428 . S
H677 C673 0.930 . S
H678 C675 0.929 . S
S679 N680 1.613 1_655 S
S679 N681 1.610 . S
N680 S679 1.613 1_455 S
N680 C683 1.350 1_455 S
N681 S679 1.610 . S
N681 C682 1.351 . S
C682 C676 1.428 . S
C682 N681 1.351 . S
C682 C683 1.434 . S
C683 C674 1.418 1_545 S
C683 N680 1.350 1_655 S
C683 C682 1.434 . S
C684 C685 1.369 . S
C684 C686 1.419 . S
C684 H688 0.930 . S
C685 C684 1.369 . S
C685 C694 1.429 . S
C686 C684 1.419 . S
C686 C687 1.363 . S
C686 H689 0.929 . S
C687 C686 1.363 . S
C687 C693 1.428 . S
H688 C684 0.930 . S
H689 C686 0.929 . S
S690 N691 1.613 . S
S690 N692 1.610 . S
N691 S690 1.613 . S
N691 C694 1.350 . S
N692 S690 1.610 . S
N692 C693 1.351 . S
C693 C687 1.428 . S
C693 N692 1.351 . S
C693 C694 1.434 . S
C694 C685 1.429 . S
C694 N691 1.350 . S
C694 C693 1.434 . S
C695 C696 1.369 . S
C695 C697 1.419 . S
C695 H699 0.930 . S
C696 C695 1.369 . S
C696 C705 1.429 . S
C697 C695 1.419 . S
C697 C698 1.363 . S
C697 H700 0.929 . S
C698 C697 1.363 . S
C698 C704 1.428 . S
H699 C695 0.930 . S
H700 C697 0.929 . S
S701 N702 1.613 . S
S701 N703 1.610 . S
N702 S701 1.613 . S
N702 C705 1.350 . S
N703 S701 1.610 . S
N703 C704 1.351 . S
C704 C698 1.428 . S
C704 N703 1.351 . S
C704 C705 1.434 . S
C705 C696 1.429 . S
C705 N702 1.350 . S
C705 C704 1.434 . S
C706 C707 1.369 . S
C706 C708 1.419 . S
C706 H710 0.930 . S
C707 C706 1.369 . S
C707 C716 1.429 . S
C708 C706 1.419 . S
C708 C709 1.363 . S
C708 H711 0.929 . S
C709 C708 1.363 . S
C709 C715 1.428 . S
H710 C706 0.930 . S
H711 C708 0.929 . S
S712 N713 1.613 . S
S712 N714 1.610 . S
N713 S712 1.613 . S
N713 C716 1.350 . S
N714 S712 1.610 . S
N714 C715 1.351 . S
C715 C709 1.428 . S
C715 N714 1.351 . S
C715 C716 1.434 . S
C716 C707 1.429 . S
C716 N713 1.350 . S
C716 C715 1.434 . S
C717 C718 1.369 1_545 S
C717 C719 1.419 . S
C717 H721 0.930 . S
C718 C717 1.369 1_565 S
C718 C727 1.429 . S
C719 C717 1.419 . S
C719 C720 1.363 1_545 S
C719 H722 0.929 . S
C720 C719 1.363 1_565 S
C720 C726 1.428 . S
H721 C717 0.930 . S
H722 C719 0.929 . S
S723 N724 1.613 . S
S723 N725 1.610 . S
N724 S723 1.613 . S
N724 C727 1.350 . S
N725 S723 1.610 . S
N725 C726 1.351 . S
C726 C720 1.428 . S
C726 N725 1.351 . S
C726 C727 1.434 . S
C727 C718 1.429 . S
C727 N724 1.350 . S
C727 C726 1.434 . S
C728 C729 1.369 . S
C728 C730 1.419 . S
C728 H732 0.930 . S
C729 C728 1.369 . S
C729 C738 1.429 . S
C730 C728 1.419 . S
C730 C731 1.363 . S
C730 H733 0.929 . S
C731 C730 1.363 . S
C731 C737 1.428 . S
H732 C728 0.930 . S
H733 C730 0.929 . S
S734 N735 1.613 . S
S734 N736 1.610 . S
N735 S734 1.613 . S
N735 C738 1.350 . S
N736 S734 1.610 . S
N736 C737 1.351 . S
C737 C731 1.428 . S
C737 N736 1.351 . S
C737 C738 1.434 . S
C738 C729 1.429 . S
C738 N735 1.350 . S
C738 C737 1.434 . S
C739 C740 1.369 . S
C739 C741 1.419 . S
C739 H743 0.930 . S
C740 C739 1.369 . S
C740 C749 1.429 . S
C741 C739 1.419 . S
C741 C742 1.363 . S
C741 H744 0.929 . S
C742 C741 1.363 . S
C742 C748 1.428 . S
H743 C739 0.930 . S
H744 C741 0.929 . S
S745 N746 1.613 . S
S745 N747 1.610 . S
N746 S745 1.613 . S
N746 C749 1.350 . S
N747 S745 1.610 . S
N747 C748 1.351 . S
C748 C742 1.428 . S
C748 N747 1.351 . S
C748 C749 1.434 . S
C749 C740 1.429 . S
C749 N746 1.350 . S
C749 C748 1.434 . S
C750 C751 1.369 . S
C750 C752 1.419 . S
C750 H754 0.930 . S
C751 C750 1.369 . S
C751 C760 1.429 . S
C752 C750 1.419 . S
C752 C753 1.363 . S
C752 H755 0.929 . S
C753 C752 1.363 . S
C753 C759 1.428 . S
H754 C750 0.930 . S
H755 C752 0.929 . S
S756 N757 1.613 . S
S756 N758 1.610 . S
N757 S756 1.613 . S
N757 C760 1.350 . S
N758 S756 1.610 . S
N758 C759 1.351 . S
C759 C753 1.428 . S
C759 N758 1.351 . S
C759 C760 1.434 . S
C760 C751 1.429 . S
C760 N757 1.350 . S
C760 C759 1.434 . S
C761 C762 1.369 . S
C761 C763 1.419 . S
C761 H765 0.930 . S
C762 C761 1.369 . S
C762 C771 1.429 . S
C763 C761 1.419 . S
C763 C764 1.363 . S
C763 H766 0.929 . S
C764 C763 1.363 . S
C764 C770 1.428 . S
H765 C761 0.930 . S
H766 C763 0.929 . S
S767 N768 1.613 . S
S767 N769 1.610 . S
N768 S767 1.613 . S
N768 C771 1.350 . S
N769 S767 1.610 . S
N769 C770 1.351 . S
C770 C764 1.428 . S
C770 N769 1.351 . S
C770 C771 1.434 . S
C771 C762 1.429 . S
C771 N768 1.350 . S
C771 C770 1.434 . S
C772 C773 1.369 . S
C772 C774 1.419 . S
C772 H776 0.930 . S
C773 C772 1.369 . S
C773 C782 1.429 . S
C774 C772 1.419 . S
C774 C775 1.363 . S
C774 H777 0.929 . S
C775 C774 1.363 . S
C775 C781 1.428 . S
H776 C772 0.930 . S
H777 C774 0.929 . S
S778 N779 1.613 . S
S778 N780 1.610 . S
N779 S778 1.613 . S
N779 C782 1.350 . S
N780 S778 1.610 . S
N780 C781 1.351 . S
C781 C775 1.428 . S
C781 N780 1.351 . S
C781 C782 1.434 . S
C782 C773 1.429 . S
C782 N779 1.350 . S
C782 C781 1.434 . S
C783 C784 1.369 . S
C783 C785 1.419 . S
C783 H787 0.930 . S
C784 C783 1.369 . S
C784 C793 1.429 . S
C785 C783 1.419 . S
C785 C786 1.363 . S
C785 H788 0.929 . S
C786 C785 1.363 . S
C786 C792 1.428 . S
H787 C783 0.930 . S
H788 C785 0.929 . S
S789 N790 1.613 . S
S789 N791 1.610 . S
N790 S789 1.613 . S
N790 C793 1.350 . S
N791 S789 1.610 . S
N791 C792 1.351 . S
C792 C786 1.428 . S
C792 N791 1.351 . S
C792 C793 1.434 . S
C793 C784 1.429 . S
C793 N790 1.350 . S
C793 C792 1.434 . S
C794 C795 1.369 . S
C794 C796 1.419 . S
C794 H798 0.930 . S
C795 C794 1.369 . S
C795 C804 1.429 . S
C796 C794 1.419 . S
C796 C797 1.363 . S
C796 H799 0.929 . S
C797 C796 1.363 . S
C797 C803 1.428 . S
H798 C794 0.930 . S
H799 C796 0.929 . S
S800 N801 1.613 . S
S800 N802 1.610 . S
N801 S800 1.613 . S
N801 C804 1.350 . S
N802 S800 1.610 . S
N802 C803 1.351 . S
C803 C797 1.428 . S
C803 N802 1.351 . S
C803 C804 1.434 . S
C804 C795 1.429 . S
C804 N801 1.350 . S
C804 C803 1.434 . S
C805 C806 1.369 . S
C805 C807 1.419 . S
C805 H809 0.930 . S
C806 C805 1.369 . S
C806 C815 1.429 1_655 S
C807 C805 1.419 . S
C807 C808 1.363 1_655 S
C807 H810 0.929 . S
C808 C807 1.363 1_455 S
C808 C814 1.428 . S
H809 C805 0.930 . S
H810 C807 0.929 . S
S811 N812 1.613 . S
S811 N813 1.610 . S
N812 S811 1.613 . S
N812 C815 1.350 . S
N813 S811 1.610 . S
N813 C814 1.351 . S
C814 C808 1.428 . S
C814 N813 1.351 . S
C814 C815 1.434 . S
C815 C806 1.429 1_455 S
C815 N812 1.350 . S
C815 C814 1.434 . S
C816 C817 1.369 . S
C816 C818 1.419 . S
C816 H820 0.930 . S
C817 C816 1.369 . S
C817 C826 1.429 . S
C818 C816 1.419 . S
C818 C819 1.363 . S
C818 H821 0.929 . S
C819 C818 1.363 . S
C819 C825 1.428 . S
H820 C816 0.930 . S
H821 C818 0.929 . S
S822 N823 1.613 . S
S822 N824 1.610 . S
N823 S822 1.613 . S
N823 C826 1.350 . S
N824 S822 1.610 . S
N824 C825 1.351 . S
C825 C819 1.428 . S
C825 N824 1.351 . S
C825 C826 1.434 . S
C826 C817 1.429 . S
C826 N823 1.350 . S
C826 C825 1.434 . S
C827 C828 1.369 . S
C827 C829 1.419 . S
C827 H831 0.930 . S
C828 C827 1.369 . S
C828 C837 1.429 . S
C829 C827 1.419 . S
C829 C830 1.363 . S
C829 H832 0.929 . S
C830 C829 1.363 . S
C830 C836 1.428 . S
H831 C827 0.930 . S
H832 C829 0.929 . S
S833 N834 1.613 . S
S833 N835 1.610 . S
N834 S833 1.613 . S
N834 C837 1.350 . S
N835 S833 1.610 . S
N835 C836 1.351 . S
C836 C830 1.428 . S
C836 N835 1.351 . S
C836 C837 1.434 . S
C837 C828 1.429 . S
C837 N834 1.350 . S
C837 C836 1.434 . S
C838 C839 1.369 . S
C838 C840 1.419 . S
C838 H842 0.930 . S
C839 C838 1.369 . S
C839 C848 1.429 1_556 S
C840 C838 1.419 . S
C840 C841 1.363 1_556 S
C840 H843 0.929 . S
C841 C840 1.363 1_554 S
C841 C847 1.428 . S
H842 C838 0.930 . S
H843 C840 0.929 . S
S844 N845 1.617 . S
S844 N846 1.610 . S
N845 S844 1.617 . S
N845 C848 1.350 . S
N846 S844 1.610 . S
N846 C847 1.351 . S
C847 C841 1.428 . S
C847 N846 1.351 . S
C847 C848 1.434 . S
C848 C839 1.429 1_554 S
C848 N845 1.350 . S
C848 C847 1.434 . S
C849 C850 1.369 . S
C849 C851 1.419 . S
C849 H853 0.930 . S
C850 C849 1.369 . S
C850 C859 1.429 . S
C851 C849 1.419 . S
C851 C852 1.363 . S
C851 H854 0.929 . S
C852 C851 1.363 . S
C852 C858 1.428 . S
H853 C849 0.930 . S
H854 C851 0.929 . S
S855 N856 1.613 . S
S855 N857 1.610 . S
N856 S855 1.613 . S
N856 C859 1.350 . S
N857 S855 1.610 . S
N857 C858 1.351 . S
C858 C852 1.428 . S
C858 N857 1.351 . S
C858 C859 1.434 . S
C859 C850 1.429 . S
C859 N856 1.350 . S
C859 C858 1.434 . S
C860 C861 1.369 . S
C860 C862 1.419 . S
C860 H864 0.930 . S
C861 C860 1.369 . S
C861 C870 1.429 . S
C862 C860 1.419 . S
C862 C863 1.363 . S
C862 H865 0.929 . S
C863 C862 1.363 . S
C863 C869 1.428 . S
H864 C860 0.930 . S
H865 C862 0.929 . S
S866 N867 1.613 . S
S866 N868 1.610 . S
N867 S866 1.613 . S
N867 C870 1.350 . S
N868 S866 1.610 . S
N868 C869 1.351 . S
C869 C863 1.428 . S
C869 N868 1.351 . S
C869 C870 1.434 . S
C870 C861 1.429 . S
C870 N867 1.350 . S
C870 C869 1.434 . S
C871 C872 1.369 . S
C871 C873 1.419 . S
C871 H875 0.930 . S
C872 C871 1.369 . S
C872 C881 1.429 . S
C873 C871 1.419 . S
C873 C874 1.363 . S
C873 H876 0.929 . S
C874 C873 1.363 . S
C874 C880 1.428 . S
H875 C871 0.930 . S
H876 C873 0.929 . S
S877 N878 1.613 . S
S877 N879 1.610 . S
N878 S877 1.613 . S
N878 C881 1.350 . S
N879 S877 1.610 . S
N879 C880 1.351 . S
C880 C874 1.428 . S
C880 N879 1.351 . S
C880 C881 1.434 . S
C881 C872 1.429 . S
C881 N878 1.350 . S
C881 C880 1.434 . S
C882 C883 1.369 . S
C882 C884 1.419 . S
C882 H886 0.930 . S
C883 C882 1.369 . S
C883 C892 1.429 . S
C884 C882 1.419 . S
C884 C885 1.363 . S
C884 H887 0.929 . S
C885 C884 1.363 . S
C885 C891 1.428 . S
H886 C882 0.930 . S
H887 C884 0.929 . S
S888 N889 1.613 . S
S888 N890 1.610 . S
N889 S888 1.613 . S
N889 C892 1.350 . S
N890 S888 1.610 . S
N890 C891 1.351 . S
C891 C885 1.428 . S
C891 N890 1.351 . S
C891 C892 1.434 . S
C892 C883 1.429 . S
C892 N889 1.350 . S
C892 C891 1.434 . S
C893 C894 1.369 . S
C893 C895 1.419 . S
C893 H897 0.930 . S
C894 C893 1.369 . S
C894 C903 1.429 . S
C895 C893 1.419 . S
C895 C896 1.363 . S
C895 H898 0.929 . S
C896 C895 1.363 . S
C896 C902 1.428 . S
H897 C893 0.930 . S
H898 C895 0.929 . S
S899 N900 1.613 . S
S899 N901 1.610 . S
N900 S899 1.613 . S
N900 C903 1.350 . S
N901 S899 1.610 . S
N901 C902 1.351 . S
C902 C896 1.428 . S
C902 N901 1.351 . S
C902 C903 1.434 . S
C903 C894 1.429 . S
C903 N900 1.350 . S
C903 C902 1.434 . S
C904 C905 1.369 . S
C904 C906 1.419 . S
C904 H908 0.930 . S
C905 C904 1.369 . S
C905 C914 1.429 . S
C906 C904 1.419 . S
C906 C907 1.363 . S
C906 H909 0.929 . S
C907 C906 1.363 . S
C907 C913 1.428 . S
H908 C904 0.930 . S
H909 C906 0.929 . S
S910 N911 1.613 . S
S910 N912 1.610 . S
N911 S910 1.613 . S
N911 C914 1.350 . S
N912 S910 1.610 . S
N912 C913 1.351 . S
C913 C907 1.428 . S
C913 N912 1.351 . S
C913 C914 1.434 . S
C914 C905 1.429 . S
C914 N911 1.350 . S
C914 C913 1.434 . S
C915 C916 1.369 . S
C915 C917 1.419 . S
C915 H919 0.930 . S
C916 C915 1.369 . S
C916 C925 1.429 . S
C917 C915 1.419 . S
C917 C918 1.363 . S
C917 H920 0.929 . S
C918 C917 1.363 . S
C918 C924 1.428 . S
H919 C915 0.930 . S
H920 C917 0.929 . S
S921 N922 1.613 . S
S921 N923 1.610 . S
N922 S921 1.613 . S
N922 C925 1.350 . S
N923 S921 1.610 . S
N923 C924 1.351 . S
C924 C918 1.428 . S
C924 N923 1.351 . S
C924 C925 1.434 . S
C925 C916 1.429 . S
C925 N922 1.350 . S
C925 C924 1.434 . S
C926 C927 1.369 . S
C926 C928 1.419 . S
C926 H930 0.930 . S
C927 C926 1.369 . S
C927 C936 1.429 . S
C928 C926 1.419 . S
C928 C929 1.363 . S
C928 H931 0.929 . S
C929 C928 1.363 . S
C929 C935 1.428 . S
H930 C926 0.930 . S
H931 C928 0.929 . S
S932 N933 1.613 . S
S932 N934 1.610 . S
N933 S932 1.613 . S
N933 C936 1.350 . S
N934 S932 1.610 . S
N934 C935 1.351 . S
C935 C929 1.428 . S
C935 N934 1.351 . S
C935 C936 1.434 . S
C936 C927 1.429 . S
C936 N933 1.350 . S
C936 C935 1.434 . S
C937 C938 1.369 . S
C937 C939 1.419 . S
C937 H941 0.930 . S
C938 C937 1.369 . S
C938 C947 1.429 . S
C939 C937 1.419 . S
C939 C940 1.363 . S
C939 H942 0.929 . S
C940 C939 1.363 . S
C940 C946 1.428 . S
H941 C937 0.930 . S
H942 C939 0.929 . S
S943 N944 1.613 . S
S943 N945 1.610 . S
N944 S943 1.613 . S
N944 C947 1.350 . S
N945 S943 1.610 . S
N945 C946 1.351 . S
C946 C940 1.428 . S
C946 N945 1.351 . S
C946 C947 1.434 . S
C947 C938 1.429 . S
C947 N944 1.350 . S
C947 C946 1.434 . S
C948 C949 1.369 . S
C948 C950 1.419 . S
C948 H952 0.930 . S
C949 C948 1.369 . S
C949 C958 1.429 . S
C950 C948 1.419 . S
C950 C951 1.363 . S
C950 H953 0.929 . S
C951 C950 1.363 . S
C951 C957 1.428 . S
H952 C948 0.930 . S
H953 C950 0.929 . S
S954 N955 1.613 . S
S954 N956 1.610 . S
N955 S954 1.613 . S
N955 C958 1.350 . S
N956 S954 1.610 . S
N956 C957 1.351 . S
C957 C951 1.428 . S
C957 N956 1.351 . S
C957 C958 1.434 . S
C958 C949 1.429 . S
C958 N955 1.350 . S
C958 C957 1.434 . S
C959 C960 1.369 . S
C959 C961 1.419 . S
C959 H963 0.930 1_655 S
C960 C959 1.369 . S
C960 C969 1.429 . S
C961 C959 1.419 . S
C961 C962 1.363 . S
C961 H964 0.929 . S
C962 C961 1.363 . S
C962 C968 1.428 . S
H963 C959 0.930 1_455 S
H964 C961 0.929 . S
S965 N966 1.613 . S
S965 N967 1.610 . S
N966 S965 1.613 . S
N966 C969 1.350 1_565 S
N967 S965 1.610 . S
N967 C968 1.351 1_565 S
C968 C962 1.428 . S
C968 N967 1.351 1_545 S
C968 C969 1.434 . S
C969 C960 1.429 . S
C969 N966 1.350 1_545 S
C969 C968 1.434 . S
C970 C971 1.369 . S
C970 C972 1.419 . S
C970 H974 0.930 . S
C971 C970 1.369 . S
C971 C980 1.429 . S
C972 C970 1.419 . S
C972 C973 1.363 . S
C972 H975 0.929 . S
C973 C972 1.363 . S
C973 C979 1.428 . S
H974 C970 0.930 . S
H975 C972 0.929 . S
S976 N977 1.613 . S
S976 N978 1.610 . S
N977 S976 1.613 . S
N977 C980 1.350 . S
N978 S976 1.610 . S
N978 C979 1.351 . S
C979 C973 1.428 . S
C979 N978 1.351 . S
C979 C980 1.434 . S
C980 C971 1.429 . S
C980 N977 1.350 . S
C980 C979 1.434 . S
C981 C982 1.369 . S
C981 C983 1.419 . S
C981 H985 0.930 . S
C982 C981 1.369 . S
C982 C991 1.429 . S
C983 C981 1.419 . S
C983 C984 1.363 . S
C983 H986 0.929 . S
C984 C983 1.363 . S
C984 C990 1.428 . S
H985 C981 0.930 . S
H986 C983 0.929 . S
S987 N988 1.613 . S
S987 N989 1.610 1_655 S
N988 S987 1.613 . S
N988 C991 1.350 1_655 S
N989 S987 1.610 1_455 S
N989 C990 1.351 . S
C990 C984 1.428 . S
C990 N989 1.351 . S
C990 C991 1.434 . S
C991 C982 1.429 . S
C991 N988 1.350 1_455 S
C991 C990 1.434 . S
C992 C993 1.369 . S
C992 C994 1.419 . S
C992 H996 0.930 . S
C993 C992 1.369 . S
C993 C1002 1.429 . S
C994 C992 1.419 . S
C994 C995 1.363 . S
C994 H997 0.929 . S
C995 C994 1.363 . S
C995 C1001 1.428 . S
H996 C992 0.930 . S
H997 C994 0.929 . S
S998 N999 1.613 . S
S998 N1000 1.610 . S
N999 S998 1.613 . S
N999 C1002 1.350 . S
N1000 S998 1.610 . S
N1000 C1001 1.351 . S
C1001 C995 1.428 . S
C1001 N1000 1.351 . S
C1001 C1002 1.434 . S
C1002 C993 1.429 . S
C1002 N999 1.350 . S
C1002 C1001 1.434 . S
C1003 C1004 1.369 . S
C1003 C1005 1.419 . S
C1003 H1007 0.930 . S
C1004 C1003 1.369 . S
C1004 C1013 1.429 1_654 S
C1005 C1003 1.419 . S
C1005 C1006 1.363 1_554 S
C1005 H1008 0.929 . S
C1006 C1005 1.363 1_556 S
C1006 C1012 1.428 1_655 S
H1007 C1003 0.930 . S
H1008 C1005 0.929 . S
S1009 N1010 1.613 . S
S1009 N1011 1.610 . S
N1010 S1009 1.613 . S
N1010 C1013 1.350 . S
N1011 S1009 1.610 . S
N1011 C1012 1.351 . S
C1012 C1006 1.428 1_455 S
C1012 N1011 1.351 . S
C1012 C1013 1.434 . S
C1013 C1004 1.429 1_456 S
C1013 N1010 1.350 . S
C1013 C1012 1.434 . S
C1014 C1015 1.369 . S
C1014 C1016 1.419 . S
C1014 H1018 0.930 . S
C1015 C1014 1.369 . S
C1015 C1024 1.429 . S
C1016 C1014 1.419 . S
C1016 C1017 1.363 . S
C1016 H1019 0.929 . S
C1017 C1016 1.363 . S
C1017 C1023 1.428 . S
H1018 C1014 0.930 . S
H1019 C1016 0.929 . S
S1020 N1021 1.613 . S
S1020 N1022 1.610 . S
N1021 S1020 1.613 . S
N1021 C1024 1.350 . S
N1022 S1020 1.610 . S
N1022 C1023 1.351 . S
C1023 C1017 1.428 . S
C1023 N1022 1.351 . S
C1023 C1024 1.434 . S
C1024 C1015 1.429 . S
C1024 N1021 1.350 . S
C1024 C1023 1.434 . S
C1025 C1026 1.369 . S
C1025 C1027 1.419 1_554 S
C1025 H1029 0.930 . S
C1026 C1025 1.369 . S
C1026 C1035 1.438 1_455 S
C1027 C1025 1.419 1_556 S
C1027 C1028 1.363 . S
C1027 H1030 0.929 . S
C1028 C1027 1.363 . S
C1028 C1034 1.428 1_455 S
H1029 C1025 0.930 . S
H1030 C1027 0.929 . S
S1031 N1032 1.613 1_556 S
S1031 N1033 1.610 . S
N1032 S1031 1.613 1_554 S
N1032 C1035 1.354 . S
N1033 S1031 1.610 . S
N1033 C1034 1.351 . S
C1034 C1028 1.428 1_655 S
C1034 N1033 1.351 . S
C1034 C1035 1.419 1_556 S
C1035 C1026 1.438 1_655 S
C1035 N1032 1.354 . S
C1035 C1034 1.419 1_554 S
C1036 C1037 1.369 . S
C1036 C1038 1.419 . S
C1036 H1040 0.930 . S
C1037 C1036 1.369 . S
C1037 C1046 1.429 . S
C1038 C1036 1.419 . S
C1038 C1039 1.363 . S
C1038 H1041 0.929 . S
C1039 C1038 1.363 . S
C1039 C1045 1.428 . S
H1040 C1036 0.930 . S
H1041 C1038 0.929 . S
S1042 N1043 1.613 . S
S1042 N1044 1.610 . S
N1043 S1042 1.613 . S
N1043 C1046 1.350 . S
N1044 S1042 1.610 . S
N1044 C1045 1.351 . S
C1045 C1039 1.428 . S
C1045 N1044 1.351 . S
C1045 C1046 1.434 . S
C1046 C1037 1.429 . S
C1046 N1043 1.350 . S
C1046 C1045 1.434 . S
C1047 C1048 1.369 . S
C1047 C1049 1.419 . S
C1047 H1051 0.930 . S
C1048 C1047 1.369 . S
C1048 C1057 1.429 . S
C1049 C1047 1.419 . S
C1049 C1050 1.363 . S
C1049 H1052 0.929 . S
C1050 C1049 1.363 . S
C1050 C1056 1.428 . S
H1051 C1047 0.930 . S
H1052 C1049 0.929 . S
S1053 N1054 1.613 . S
S1053 N1055 1.610 1_556 S
N1054 S1053 1.613 . S
N1054 C1057 1.350 1_556 S
N1055 S1053 1.610 1_554 S
N1055 C1056 1.351 . S
C1056 C1050 1.428 . S
C1056 N1055 1.351 . S
C1056 C1057 1.434 . S
C1057 C1048 1.429 . S
C1057 N1054 1.350 1_554 S
C1057 C1056 1.434 . S
C1058 C1059 1.369 . S
C1058 C1060 1.419 . S
C1058 H1062 0.930 . S
C1059 C1058 1.369 . S
C1059 C1068 1.429 . S
C1060 C1058 1.419 . S
C1060 C1061 1.363 . S
C1060 H1063 0.929 . S
C1061 C1060 1.363 . S
C1061 C1067 1.428 . S
H1062 C1058 0.930 . S
H1063 C1060 0.929 . S
S1064 N1065 1.613 . S
S1064 N1066 1.610 . S
N1065 S1064 1.613 . S
N1065 C1068 1.350 . S
N1066 S1064 1.610 . S
N1066 C1067 1.351 . S
C1067 C1061 1.428 . S
C1067 N1066 1.351 . S
C1067 C1068 1.434 . S
C1068 C1059 1.429 . S
C1068 N1065 1.350 . S
C1068 C1067 1.434 . S
C1069 C1070 1.369 . S
C1069 C1071 1.419 . S
C1069 H1073 0.930 . S
C1070 C1069 1.369 . S
C1070 C1079 1.429 . S
C1071 C1069 1.419 . S
C1071 C1072 1.363 . S
C1071 H1074 0.929 . S
C1072 C1071 1.363 . S
C1072 C1078 1.428 . S
H1073 C1069 0.930 . S
H1074 C1071 0.929 . S
S1075 N1076 1.613 . S
S1075 N1077 1.610 . S
N1076 S1075 1.613 . S
N1076 C1079 1.350 . S
N1077 S1075 1.610 . S
N1077 C1078 1.351 . S
C1078 C1072 1.428 . S
C1078 N1077 1.351 . S
C1078 C1079 1.434 . S
C1079 C1070 1.429 . S
C1079 N1076 1.350 . S
C1079 C1078 1.434 . S
C1080 C1081 1.369 . S
C1080 C1082 1.419 . S
C1080 H1084 0.930 . S
C1081 C1080 1.369 . S
C1081 C1090 1.429 . S
C1082 C1080 1.419 . S
C1082 C1083 1.363 . S
C1082 H1085 0.929 . S
C1083 C1082 1.363 . S
C1083 C1089 1.428 . S
H1084 C1080 0.930 . S
H1085 C1082 0.929 . S
S1086 N1087 1.613 . S
S1086 N1088 1.610 . S
N1087 S1086 1.613 . S
N1087 C1090 1.350 . S
N1088 S1086 1.610 . S
N1088 C1089 1.351 . S
C1089 C1083 1.428 . S
C1089 N1088 1.351 . S
C1089 C1090 1.434 . S
C1090 C1081 1.429 . S
C1090 N1087 1.350 . S
C1090 C1089 1.434 . S
C1091 C1092 1.369 . S
C1091 C1093 1.419 . S
C1091 H1095 0.930 . S
C1092 C1091 1.369 . S
C1092 C1101 1.429 . S
C1093 C1091 1.419 . S
C1093 C1094 1.363 . S
C1093 H1096 0.929 . S
C1094 C1093 1.363 . S
C1094 C1100 1.428 . S
H1095 C1091 0.930 . S
H1096 C1093 0.929 . S
S1097 N1098 1.613 . S
S1097 N1099 1.610 . S
N1098 S1097 1.613 . S
N1098 C1101 1.350 . S
N1099 S1097 1.610 . S
N1099 C1100 1.351 . S
C1100 C1094 1.428 . S
C1100 N1099 1.351 . S
C1100 C1101 1.434 . S
C1101 C1092 1.429 . S
C1101 N1098 1.350 . S
C1101 C1100 1.434 . S
C1102 C1103 1.369 . S
C1102 C1104 1.419 . S
C1102 H1106 0.930 . S
C1103 C1102 1.369 . S
C1103 C1112 1.429 . S
C1104 C1102 1.419 . S
C1104 C1105 1.363 . S
C1104 H1107 0.929 . S
C1105 C1104 1.363 . S
C1105 C1111 1.428 . S
H1106 C1102 0.930 . S
H1107 C1104 0.929 . S
S1108 N1109 1.613 . S
S1108 N1110 1.610 . S
N1109 S1108 1.613 . S
N1109 C1112 1.350 . S
N1110 S1108 1.610 . S
N1110 C1111 1.351 . S
C1111 C1105 1.428 . S
C1111 N1110 1.351 . S
C1111 C1112 1.434 . S
C1112 C1103 1.429 . S
C1112 N1109 1.350 . S
C1112 C1111 1.434 . S
C1113 C1114 1.369 . S
C1113 C1115 1.419 . S
C1113 H1117 0.930 . S
C1114 C1113 1.369 . S
C1114 C1123 1.429 . S
C1115 C1113 1.419 . S
C1115 C1116 1.363 . S
C1115 H1118 0.929 . S
C1116 C1115 1.363 . S
C1116 C1122 1.428 . S
H1117 C1113 0.930 . S
H1118 C1115 0.929 . S
S1119 N1120 1.613 . S
S1119 N1121 1.610 . S
N1120 S1119 1.613 . S
N1120 C1123 1.350 . S
N1121 S1119 1.610 . S
N1121 C1122 1.351 . S
C1122 C1116 1.428 . S
C1122 N1121 1.351 . S
C1122 C1123 1.434 . S
C1123 C1114 1.429 . S
C1123 N1120 1.350 . S
C1123 C1122 1.434 . S
C1124 C1125 1.369 . S
C1124 C1126 1.419 . S
C1124 H1128 0.930 . S
C1125 C1124 1.369 . S
C1125 C1134 1.429 1_556 S
C1126 C1124 1.419 . S
C1126 C1127 1.363 . S
C1126 H1129 0.929 . S
C1127 C1126 1.363 . S
C1127 C1133 1.428 1_556 S
H1128 C1124 0.930 . S
H1129 C1126 0.929 . S
S1130 N1131 1.613 . S
S1130 N1132 1.610 . S
N1131 S1130 1.613 . S
N1131 C1134 1.350 . S
N1132 S1130 1.610 . S
N1132 C1133 1.351 . S
C1133 C1127 1.428 1_554 S
C1133 N1132 1.351 . S
C1133 C1134 1.434 . S
C1134 C1125 1.429 1_554 S
C1134 N1131 1.350 . S
C1134 C1133 1.434 . S
C1135 C1136 1.369 . S
C1135 C1137 1.419 . S
C1135 H1139 0.930 . S
C1136 C1135 1.369 . S
C1136 C1145 1.429 . S
C1137 C1135 1.419 . S
C1137 C1138 1.363 . S
C1137 H1140 0.929 . S
C1138 C1137 1.363 . S
C1138 C1144 1.428 . S
H1139 C1135 0.930 . S
H1140 C1137 0.929 . S
S1141 N1142 1.613 . S
S1141 N1143 1.610 . S
N1142 S1141 1.613 . S
N1142 C1145 1.350 . S
N1143 S1141 1.610 . S
N1143 C1144 1.351 . S
C1144 C1138 1.428 . S
C1144 N1143 1.351 . S
C1144 C1145 1.434 . S
C1145 C1136 1.429 . S
C1145 N1142 1.350 . S
C1145 C1144 1.434 . S
C1146 C1147 1.369 . S
C1146 C1148 1.419 . S
C1146 H1150 0.930 . S
C1147 C1146 1.369 . S
C1147 C1156 1.429 . S
C1148 C1146 1.419 . S
C1148 C1149 1.363 . S
C1148 H1151 0.929 1_554 S
C1149 C1148 1.363 . S
C1149 C1155 1.428 . S
H1150 C1146 0.930 . S
H1151 C1148 0.929 1_556 S
S1152 N1153 1.613 . S
S1152 N1154 1.610 . S
N1153 S1152 1.613 . S
N1153 C1156 1.350 . S
N1154 S1152 1.610 . S
N1154 C1155 1.351 . S
C1155 C1149 1.428 . S
C1155 N1154 1.351 . S
C1155 C1156 1.434 . S
C1156 C1147 1.429 . S
C1156 N1153 1.350 . S
C1156 C1155 1.434 . S
C1157 C1158 1.369 . S
C1157 C1159 1.419 . S
C1157 H1161 0.930 . S
C1158 C1157 1.369 . S
C1158 C1167 1.429 1_565 S
C1159 C1157 1.419 . S
C1159 C1160 1.363 . S
C1159 H1162 0.929 . S
C1160 C1159 1.363 . S
C1160 C1166 1.428 . S
H1161 C1157 0.930 . S
H1162 C1159 0.929 . S
S1163 N1164 1.613 . S
S1163 N1165 1.610 . S
N1164 S1163 1.613 . S
N1164 C1167 1.350 . S
N1165 S1163 1.610 . S
N1165 C1166 1.351 1_545 S
C1166 C1160 1.428 . S
C1166 N1165 1.351 1_565 S
C1166 C1167 1.434 1_565 S
C1167 C1158 1.429 1_545 S
C1167 N1164 1.350 . S
C1167 C1166 1.434 1_545 S
C643 C210 1.269 . S
C641 N66 1.225 . S
C654 C258 1.567 . S
C652 N79 1.611 1_455 S
C663 N92 1.696 . S
C665 C294 1.632 . S
C676 C330 1.397 . S
C674 N54 1.483 1_655 S
C687 C356 1.432 . S
C685 N131 1.411 . S
C698 C392 1.340 . S
C696 N158 1.334 . S
C707 N145 1.538 . S
C709 C427 1.545 . S
C720 C464 1.730 1_565 S
C718 N118 1.701 . S
C729 N148 1.793 . S
C731 C498 1.790 . S
C742 C546 1.625 . S
C740 N122 1.655 . S
C751 N132 1.270 . S
C753 C499 1.280 . S
C764 C536 1.563 . S
C762 N161 1.509 . S
C773 N96 1.755 . S
C775 C582 1.703 . S
C784 N53 1.673 . S
C786 C571 1.703 . S
C795 N67 1.236 . S
C797 C572 1.241 . S
C806 N83 1.511 . S
C808 C570 1.528 . S
C817 N44 1.353 . S
C819 C318 1.369 . S
C828 N187 1.479 . S
C830 C319 1.486 . S
C841 C222 1.338 . S
C839 N197 1.377 1_565 S
C852 C247 1.374 . S
C850 N106 1.371 . S
C861 N57 1.810 . S
C863 C354 1.807 . S
C874 C462 1.437 . S
C872 N144 1.410 . S
C885 C355 1.462 . S
C883 N119 1.480 . S
C896 C428 1.775 . S
C894 N157 1.745 . S
C907 C426 1.271 . S
C905 N183 1.229 . S
C916 N196 1.609 . S
C918 C474 1.564 . S
C927 N105 1.696 . S
C929 C366 1.632 . S
C940 C402 1.389 . S
C938 N171 1.481 . S
C949 N40 1.410 . S
C951 C284 1.434 . S
C962 C320 1.338 . S
C960 N2 1.337 . S
C973 C211 1.545 . S
C971 N15 1.537 . S
C984 C248 1.729 . S
C982 N27 1.694 1_455 S
C993 N18 1.793 . S
C995 C534 1.790 . S
C1004 N31 1.654 . S
C1006 C510 1.628 . S
C1015 N41 1.269 . S
C1017 C535 1.281 . S
C1026 N5 1.506 . S
C1028 C500 1.563 1_455 S
C1039 C618 1.699 . S
C1037 N109 1.757 . S
C1050 C607 1.703 . S
C1048 N170 1.656 1_554 S
C1061 C608 1.233 . S
C1059 N184 1.245 . S
C1070 N200 1.517 . S
C1072 C606 1.529 . S
C1081 N135 1.359 . S
C1083 C390 1.367 . S
C1094 C391 1.486 . S
C1092 N70 1.480 . S
C1105 C438 1.333 . S
C1103 N80 1.376 . S
C1116 C463 1.375 . S
C1114 N93 1.373 . S
C1125 N174 1.810 . S
C1127 C282 1.807 1_556 S
C1138 C246 1.432 . S
C1136 N14 1.414 . S
C1147 N28 1.481 . S
C1149 C283 1.462 . S
C1160 C212 1.774 . S
C1158 N1 1.748 1_565 S
