# Generated by pormake.
# Topology nom, (4,4)-cn, num edge types: 1
# Building blocks:
#     Node 0, Type 0, BuildingBlock: MUDLON_clean_linker_0, # of connection points: 4
#     Node 1, Type 0, BuildingBlock: MUDLON_clean_linker_0, # of connection points: 4
#     Node 2, Type 0, BuildingBlock: MUDLON_clean_linker_0, # of connection points: 4
#     Node 3, Type 0, BuildingBlock: MUDLON_clean_linker_0, # of connection points: 4
#     Node 4, Type 0, BuildingBlock: MUDLON_clean_linker_0, # of connection points: 4
#     Node 5, Type 0, BuildingBlock: MUDLON_clean_linker_0, # of connection points: 4
#     Node 6, Type 1, BuildingBlock: UXUYUI_clean_sbu_0, # of connection points: 4
#     Node 7, Type 1, BuildingBlock: UXUYUI_clean_sbu_0, # of connection points: 4
#     Node 8, Type 1, BuildingBlock: UXUYUI_clean_sbu_0, # of connection points: 4
#     Node 9, Type 1, BuildingBlock: UXUYUI_clean_sbu_0, # of connection points: 4
#     Node 10, Type 1, BuildingBlock: UXUYUI_clean_sbu_0, # of connection points: 4
#     Node 11, Type 1, BuildingBlock: UXUYUI_clean_sbu_0, # of connection points: 4
#     Edge 12, Type (0, 1), BuildingBlock: AJUNOK_clean_linker_0, # of connection points: 2
#     Edge 13, Type (0, 1), BuildingBlock: AJUNOK_clean_linker_0, # of connection points: 2
#     Edge 14, Type (0, 1), BuildingBlock: AJUNOK_clean_linker_0, # of connection points: 2
#     Edge 15, Type (0, 1), BuildingBlock: AJUNOK_clean_linker_0, # of connection points: 2
#     Edge 16, Type (0, 1), BuildingBlock: AJUNOK_clean_linker_0, # of connection points: 2
#     Edge 17, Type (0, 1), BuildingBlock: AJUNOK_clean_linker_0, # of connection points: 2
#     Edge 18, Type (0, 1), BuildingBlock: AJUNOK_clean_linker_0, # of connection points: 2
#     Edge 19, Type (0, 1), BuildingBlock: AJUNOK_clean_linker_0, # of connection points: 2
#     Edge 20, Type (0, 1), BuildingBlock: AJUNOK_clean_linker_0, # of connection points: 2
#     Edge 21, Type (0, 1), BuildingBlock: AJUNOK_clean_linker_0, # of connection points: 2
#     Edge 22, Type (0, 1), BuildingBlock: AJUNOK_clean_linker_0, # of connection points: 2
#     Edge 23, Type (0, 1), BuildingBlock: AJUNOK_clean_linker_0, # of connection points: 2
#     Edge 24, Type (0, 1), BuildingBlock: AJUNOK_clean_linker_0, # of connection points: 2
#     Edge 25, Type (0, 1), BuildingBlock: AJUNOK_clean_linker_0, # of connection points: 2
#     Edge 26, Type (0, 1), BuildingBlock: AJUNOK_clean_linker_0, # of connection points: 2
#     Edge 27, Type (0, 1), BuildingBlock: AJUNOK_clean_linker_0, # of connection points: 2
#     Edge 28, Type (0, 1), BuildingBlock: AJUNOK_clean_linker_0, # of connection points: 2
#     Edge 29, Type (0, 1), BuildingBlock: AJUNOK_clean_linker_0, # of connection points: 2
#     Edge 30, Type (0, 1), BuildingBlock: AJUNOK_clean_linker_0, # of connection points: 2
#     Edge 31, Type (0, 1), BuildingBlock: AJUNOK_clean_linker_0, # of connection points: 2
#     Edge 32, Type (0, 1), BuildingBlock: AJUNOK_clean_linker_0, # of connection points: 2
#     Edge 33, Type (0, 1), BuildingBlock: AJUNOK_clean_linker_0, # of connection points: 2
#     Edge 34, Type (0, 1), BuildingBlock: AJUNOK_clean_linker_0, # of connection points: 2
#     Edge 35, Type (0, 1), BuildingBlock: AJUNOK_clean_linker_0, # of connection points: 2
# Relax obj value: 0.039
# Max RMSD: 0.151
# Mean RMSD: 0.119
data_MOF--net-nom--node1-UXUYUI_clean_sbu_0--node2-MUDLON_clean_linker_0--edge1-AJUNOK_clean_linker_0
_symmetry_space_group_name_H-M    P1
_symmetry_Int_Tables_number       1
_symmetry_cell_setting            triclinic
loop_
_symmetry_equiv_pos_as_xyz
'x, y, z'
_cell_length_a     58.930056
_cell_length_b     59.528401
_cell_length_c     59.4462
_cell_angle_alpha  90.341499
_cell_angle_beta   89.823383
_cell_angle_gamma 120.35912
loop_
_atom_site_label
_atom_site_type_symbol
_atom_site_fract_x
_atom_site_fract_y
_atom_site_fract_z
_atom_type_partial_charge
H0 H 0.15048 0.54938 0.32359 0.0
N1 N 0.11082 0.55216 0.34163 0.0
H2 H 0.18839 0.58382 0.30327 0.0
H3 H 0.11578 0.59804 0.32686 0.0
H4 H 0.15349 0.63229 0.30633 0.0
H5 H 0.11776 0.59268 0.36834 0.0
H6 H 0.13711 0.60273 0.406 0.0
H7 H 0.12042 0.52168 0.36739 0.0
H8 H 0.13941 0.53136 0.40533 0.0
H9 H 0.08254 0.50576 0.32283 0.0
H10 H 0.07738 0.57121 0.34741 0.0
H11 H 0.03597 0.48315 0.31306 0.0
H12 H 0.03104 0.54946 0.33661 0.0
H13 H 0.88776 0.40774 0.28288 0.0
H14 H 0.86767 0.40178 0.24572 0.0
H15 H 0.90931 0.48521 0.23676 0.0
H16 H 0.92846 0.49096 0.27439 0.0
H17 H 0.90295 0.48823 0.30907 0.0
H18 H 0.86533 0.48279 0.3312 0.0
H19 H 0.85437 0.41046 0.35745 0.0
H20 H 0.89141 0.4156 0.33461 0.0
H21 H 0.95864 0.45564 0.28022 0.0
H22 H 0.00542 0.48224 0.28767 0.0
H23 H 0.98884 0.51461 0.34643 0.0
N24 N 0.91855 0.45224 0.30434 0.0
H25 H 0.94228 0.48924 0.33831 0.0
C26 C 0.13024 0.57098 0.3266 0.0
C27 C 0.15072 0.56718 0.31938 0.0
C28 C 0.17228 0.58677 0.30788 0.0
C29 C 0.17357 0.61045 0.30326 0.0
C30 C 0.15264 0.61399 0.30959 0.0
C31 C 0.1311 0.59441 0.32128 0.0
C32 C 0.1176 0.55632 0.36512 0.0
C33 C 0.12175 0.57885 0.3765 0.0
C34 C 0.13277 0.58455 0.39808 0.0
C35 C 0.13971 0.56778 0.40862 0.0
C36 C 0.13434 0.54467 0.39758 0.0
C37 C 0.12336 0.53902 0.37604 0.0
C38 C 0.08349 0.54016 0.3356 0.0
C39 C 0.07135 0.51537 0.32579 0.0
C40 C 0.04474 0.50261 0.32004 0.0
C41 C 0.02962 0.51453 0.32376 0.0
C42 C 0.04192 0.53955 0.33362 0.0
C43 C 0.06858 0.55219 0.33961 0.0
C44 C 0.90954 0.44967 0.28138 0.0
C45 C 0.89269 0.42468 0.27277 0.0
C46 C 0.88132 0.42135 0.25154 0.0
C47 C 0.88663 0.44303 0.2384 0.0
C48 C 0.90432 0.46813 0.2467 0.0
C49 C 0.91549 0.47145 0.26809 0.0
C50 C 0.8997 0.45205 0.32002 0.0
C51 C 0.89259 0.47135 0.31974 0.0
C52 C 0.87119 0.46827 0.33247 0.0
C53 C 0.85659 0.44591 0.34567 0.0
C54 C 0.86485 0.42756 0.34699 0.0
C55 C 0.88612 0.43057 0.33418 0.0
C56 C 0.94637 0.47052 0.30816 0.0
C57 C 0.96499 0.46897 0.29438 0.0
C58 C 0.99187 0.48397 0.2989 0.0
C59 C 1.00107 0.50051 0.31781 0.0
C60 C 0.98261 0.50244 0.33151 0.0
C61 C 0.95565 0.48766 0.32681 0.0
H62 H 0.48671 0.88299 0.48734 0.0
N63 N 0.48695 0.92511 0.47298 0.0
H64 H 0.45253 0.84708 0.50912 0.0
H65 H 0.4446 0.9245 0.49304 0.0
H66 H 0.41094 0.88927 0.5159 0.0
H67 H 0.44145 0.91071 0.44991 0.0
H68 H 0.43048 0.89116 0.41235 0.0
H69 H 0.51955 0.92239 0.44356 0.0
H70 H 0.50911 0.90386 0.40547 0.0
H71 H 0.5293 0.95334 0.49792 0.0
H72 H 0.46939 0.95806 0.46051 0.0
H73 H 0.55062 0.99979 0.5067 0.0
H74 H 0.49106 0.0048 0.46845 0.0
H75 H 0.62667 0.14638 0.52247 0.0
H76 H 0.63724 0.16687 0.55984 0.0
H77 H 0.55446 0.12814 0.57575 0.0
H78 H 0.54407 0.1077 0.53846 0.0
H79 H 0.54104 0.12979 0.50427 0.0
H80 H 0.5418 0.16484 0.48238 0.0
H81 H 0.61372 0.17913 0.45027 0.0
H82 H 0.6124 0.1436 0.47183 0.0
H83 H 0.59943 0.08686 0.49523 0.0
H84 H 0.57592 0.04007 0.4877 0.0
H85 H 0.50192 0.03755 0.49728 0.0
N86 N 0.57939 0.11676 0.50467 0.0
H87 H 0.52573 0.08457 0.50402 0.0
C88 C 0.46833 0.9064 0.48862 0.0
C89 C 0.47038 0.88459 0.49381 0.0
C90 C 0.45084 0.86414 0.50629 0.0
C91 C 0.42879 0.86512 0.51403 0.0
C92 C 0.42732 0.88759 0.50972 0.0
C93 C 0.44677 0.90795 0.49691 0.0
C94 C 0.4813 0.91767 0.44964 0.0
C95 C 0.45642 0.90955 0.44025 0.0
C96 C 0.45019 0.89842 0.41874 0.0
C97 C 0.46873 0.89539 0.40616 0.0
C98 C 0.49414 0.90518 0.41502 0.0
C99 C 0.50026 0.91606 0.43661 0.0
C100 C 0.49803 0.95231 0.47841 0.0
C101 C 0.52082 0.96449 0.49158 0.0
C102 C 0.53305 0.99108 0.49641 0.0
C103 C 0.5228 0.00621 0.48802 0.0
C104 C 0.49944 0.99378 0.47529 0.0
C105 C 0.48711 0.96705 0.47057 0.0
C106 C 0.5847 0.12542 0.52772 0.0
C107 C 0.61088 0.14192 0.53423 0.0
C108 C 0.61685 0.15368 0.55546 0.0
C109 C 0.59667 0.149 0.57067 0.0
C110 C 0.57041 0.13176 0.56446 0.0
C111 C 0.56445 0.12011 0.54311 0.0
C112 C 0.57663 0.13397 0.48949 0.0
C113 C 0.55648 0.13987 0.49201 0.0
C114 C 0.55706 0.16007 0.47962 0.0
C115 C 0.57774 0.17468 0.46451 0.0
C116 C 0.5972 0.16791 0.46136 0.0
C117 C 0.59656 0.1477 0.4737 0.0
C118 C 0.56446 0.08918 0.50029 0.0
C119 C 0.57813 0.07615 0.49567 0.0
C120 C 0.56462 0.04937 0.49154 0.0
C121 C 0.53696 0.03489 0.49209 0.0
C122 C 0.52319 0.04808 0.49656 0.0
C123 C 0.53681 0.075 0.5006 0.0
H124 H 0.4889 0.63039 0.66701 0.0
N125 N 0.487 0.58652 0.67832 0.0
H126 H 0.45592 0.63522 0.64589 0.0
H127 H 0.44474 0.54746 0.65545 0.0
H128 H 0.41215 0.55238 0.63388 0.0
H129 H 0.44062 0.55353 0.69938 0.0
H130 H 0.42783 0.55933 0.73726 0.0
H131 H 0.51798 0.62005 0.70955 0.0
H132 H 0.50534 0.62589 0.74756 0.0
H133 H 0.5334 0.60308 0.65933 0.0
H134 H 0.46521 0.53379 0.68369 0.0
H135 H 0.55432 0.57784 0.64981 0.0
H136 H 0.48541 0.50799 0.67338 0.0
H137 H 0.62625 0.50177 0.62397 0.0
H138 H 0.63361 0.48849 0.58689 0.0
H139 H 0.55022 0.45031 0.57338 0.0
H140 H 0.54297 0.46274 0.61089 0.0
H141 H 0.54002 0.43849 0.64549 0.0
H142 H 0.54026 0.40325 0.66651 0.0
H143 H 0.61574 0.45853 0.69487 0.0
H144 H 0.61542 0.49356 0.67371 0.0
H145 H 0.57869 0.52547 0.61802 0.0
H146 H 0.5535 0.54684 0.62475 0.0
H147 H 0.51992 0.50045 0.68437 0.0
N148 N 0.58053 0.48897 0.64316 0.0
H149 H 0.54401 0.47816 0.67715 0.0
C150 C 0.46954 0.58872 0.66269 0.0
C151 C 0.4725 0.61336 0.6594 0.0
C152 C 0.45367 0.61607 0.64748 0.0
C153 C 0.43166 0.59416 0.6383 0.0
C154 C 0.42915 0.56955 0.64066 0.0
C155 C 0.44783 0.56677 0.65294 0.0
C156 C 0.48032 0.58649 0.70166 0.0
C157 C 0.45505 0.56899 0.70995 0.0
C158 C 0.44772 0.57239 0.73153 0.0
C159 C 0.4656 0.59306 0.74528 0.0
C160 C 0.49128 0.60961 0.73742 0.0
C161 C 0.49852 0.60634 0.71577 0.0
C162 C 0.49781 0.57041 0.67207 0.0
C163 C 0.52282 0.5823 0.6623 0.0
C164 C 0.53463 0.56773 0.65673 0.0
C165 C 0.52152 0.54073 0.66064 0.0
C166 C 0.49622 0.52875 0.67031 0.0
C167 C 0.48451 0.54345 0.67606 0.0
C168 C 0.58419 0.48331 0.62019 0.0
C169 C 0.60964 0.49074 0.61288 0.0
C170 C 0.61378 0.48317 0.59171 0.0
C171 C 0.59246 0.46802 0.57731 0.0
C172 C 0.56698 0.46138 0.5843 0.0
C173 C 0.56282 0.46871 0.60564 0.0
C174 C 0.57783 0.46867 0.65805 0.0
C175 C 0.55639 0.44305 0.65651 0.0
C176 C 0.55655 0.42297 0.6685 0.0
C177 C 0.57797 0.42819 0.68238 0.0
C178 C 0.59876 0.45399 0.68463 0.0
C179 C 0.59866 0.474 0.67255 0.0
C180 C 0.56291 0.49924 0.64639 0.0
C181 C 0.56532 0.51919 0.6322 0.0
C182 C 0.55114 0.5318 0.63629 0.0
C183 C 0.53465 0.52549 0.65517 0.0
C184 C 0.53201 0.50551 0.6694 0.0
C185 C 0.546 0.49265 0.66518 0.0
H186 H 0.15747 0.62985 0.81878 0.0
N187 N 0.1139 0.58713 0.80613 0.0
H188 H 0.19453 0.63273 0.83996 0.0
H189 H 0.11481 0.54648 0.82691 0.0
H190 H 0.15164 0.54943 0.84864 0.0
H191 H 0.12929 0.55691 0.78348 0.0
H192 H 0.14809 0.56489 0.74581 0.0
H193 H 0.11413 0.6201 0.77599 0.0
H194 H 0.13147 0.62725 0.73752 0.0
H195 H 0.08636 0.60103 0.83194 0.0
H196 H 0.08015 0.5362 0.79416 0.0
H197 H 0.03972 0.57552 0.84152 0.0
H198 H 0.03312 0.5107 0.80291 0.0
H199 H 0.89659 0.5093 0.85928 0.0
H200 H 0.87626 0.50033 0.89667 0.0
H201 H 0.90456 0.44733 0.90938 0.0
H202 H 0.92555 0.45715 0.87236 0.0
H203 H 0.90412 0.43518 0.83818 0.0
H204 H 0.86677 0.4027 0.81626 0.0
H205 H 0.86055 0.46413 0.78382 0.0
H206 H 0.89722 0.49643 0.8067 0.0
H207 H 0.95183 0.537 0.83038 0.0
H208 H 0.99896 0.56023 0.82254 0.0
H209 H 1.00029 0.48896 0.83219 0.0
N210 N 0.92118 0.48721 0.84004 0.0
H211 H 0.95273 0.46575 0.83929 0.0
C212 C 0.13333 0.5881 0.82143 0.0
C213 C 0.15587 0.61228 0.82563 0.0
C214 C 0.17697 0.61389 0.8376 0.0
C215 C 0.17574 0.5913 0.84588 0.0
C216 C 0.15282 0.56709 0.84253 0.0
C217 C 0.13179 0.56544 0.8302 0.0
C218 C 0.12056 0.58817 0.78263 0.0
C219 C 0.12934 0.57206 0.77347 0.0
C220 C 0.13987 0.57649 0.75176 0.0
C221 C 0.14122 0.59667 0.73853 0.0
C222 C 0.13098 0.61173 0.74732 0.0
C223 C 0.12086 0.60755 0.76918 0.0
C224 C 0.08663 0.57073 0.81215 0.0
C225 C 0.07483 0.58125 0.82571 0.0
C226 C 0.04813 0.56667 0.831 0.0
C227 C 0.03248 0.54114 0.82269 0.0
C228 C 0.04456 0.53024 0.80966 0.0
C229 C 0.07143 0.54487 0.80448 0.0
C230 C 0.91254 0.48396 0.86307 0.0
C231 C 0.89887 0.49622 0.87039 0.0
C232 C 0.88715 0.49094 0.89164 0.0
C233 C 0.88883 0.47315 0.906 0.0
C234 C 0.90331 0.46148 0.89891 0.0
C235 C 0.91517 0.46693 0.87765 0.0
C236 C 0.9032 0.46823 0.8242 0.0
C237 C 0.89508 0.44169 0.82605 0.0
C238 C 0.87382 0.42312 0.81332 0.0
C239 C 0.86064 0.43083 0.7983 0.0
C240 C 0.87013 0.45756 0.7954 0.0
C241 C 0.89114 0.47604 0.8083 0.0
C242 C 0.94891 0.49984 0.83554 0.0
C243 C 0.96236 0.52647 0.83079 0.0
C244 C 0.98933 0.5397 0.82649 0.0
C245 C 0.00358 0.52657 0.82698 0.0
C246 C 0.98994 0.49966 0.83156 0.0
C247 C 0.96279 0.48639 0.8358 0.0
H248 H 0.5452 0.15505 0.98975 0.0
N249 N 0.54631 0.11539 0.97062 0.0
H250 H 0.58042 0.1912 0.01084 0.0
H251 H 0.59189 0.11822 0.98475 0.0
H252 H 0.62712 0.15407 0.0064 0.0
H253 H 0.58684 0.12185 0.94359 0.0
H254 H 0.5958 0.13898 0.90543 0.0
H255 H 0.51644 0.12684 0.94545 0.0
H256 H 0.5261 0.14559 0.90768 0.0
H257 H 0.5045 0.08905 0.99652 0.0
H258 H 0.56154 0.08042 0.95775 0.0
H259 H 0.48184 0.04277 0.0057 0.0
H260 H 0.53836 0.03398 0.96577 0.0
H261 H 0.40203 0.89117 0.02151 0.0
H262 H 0.39376 0.87205 0.05916 0.0
H263 H 0.47622 0.92047 0.07505 0.0
H264 H 0.48446 0.93873 0.03727 0.0
H265 H 0.48264 0.90629 0.00695 0.0
H266 H 0.48067 0.87011 0.98584 0.0
H267 H 0.4191 0.86675 0.94411 0.0
H268 H 0.42025 0.90215 0.96627 0.0
H269 H 0.42968 0.95577 0.99601 0.0
H270 H 0.45448 0.00238 0.9883 0.0
H271 H 0.52708 1.00119 0.99325 0.0
N272 N 0.44814 0.92415 0.00321 0.0
H273 H 0.50183 0.95423 0.99986 0.0
C274 C 0.56591 0.13406 0.98571 0.0
C275 C 0.56287 0.15456 0.99368 0.0
C276 C 0.58299 0.17513 0.00573 0.0
C277 C 0.60669 0.17565 0.01005 0.0
C278 C 0.6093 0.15447 0.00292 0.0
C279 C 0.58911 0.13386 0.99074 0.0
C280 C 0.55058 0.12254 0.94722 0.0
C281 C 0.57295 0.12604 0.93562 0.0
C282 C 0.57824 0.1362 0.91386 0.0
C283 C 0.56158 0.14352 0.90339 0.0
C284 C 0.53896 0.13952 0.91492 0.0
C285 C 0.53348 0.12897 0.93655 0.0
C286 C 0.53442 0.08821 0.97622 0.0
C287 C 0.51204 0.07709 0.98991 0.0
C288 C 0.49901 0.05058 0.99495 0.0
C289 C 0.50796 0.0344 0.98618 0.0
C290 C 0.53092 0.04576 0.97293 0.0
C291 C 0.54413 0.07243 0.96811 0.0
C292 C 0.44374 0.91636 0.0265 0.0
C293 C 0.41821 0.8979 0.03327 0.0
C294 C 0.41354 0.88705 0.05475 0.0
C295 C 0.43441 0.89448 0.06993 0.0
C296 C 0.45984 0.91393 0.06353 0.0
C297 C 0.46452 0.92463 0.04196 0.0
C298 C 0.45127 0.90669 0.98833 0.0
C299 C 0.46905 0.89812 0.99303 0.0
C300 C 0.46806 0.87751 0.98075 0.0
C301 C 0.44969 0.86547 0.96325 0.0
C302 C 0.43326 0.87538 0.95764 0.0
C303 C 0.43401 0.89571 0.97013 0.0
C304 C 0.46382 0.9516 0.99863 0.0
C305 C 0.45095 0.96564 0.99536 0.0
C306 C 0.46523 0.99234 0.99117 0.0
C307 C 0.4929 0.00577 0.99039 0.0
C308 C 0.50583 0.99154 0.99353 0.0
C309 C 0.49142 0.96468 0.9975 0.0
H310 H 0.53038 0.4136 0.15103 0.0
N311 N 0.54389 0.45468 0.17727 0.0
H312 H 0.55962 0.40536 0.12727 0.0
H313 H 0.59504 0.49018 0.16669 0.0
H314 H 0.62406 0.4822 0.14277 0.0
H315 H 0.58177 0.49288 0.20354 0.0
H316 H 0.5957 0.48681 0.24088 0.0
H317 H 0.52027 0.41236 0.20257 0.0
H318 H 0.53352 0.40636 0.24016 0.0
H319 H 0.49298 0.43745 0.18093 0.0
H320 H 0.56659 0.50573 0.16407 0.0
H321 H 0.46993 0.46111 0.1741 0.0
H322 H 0.54366 0.52916 0.15562 0.0
H323 H 0.40082 0.53649 0.12661 0.0
H324 H 0.39402 0.54824 0.08884 0.0
H325 H 0.47686 0.5817 0.07487 0.0
H326 H 0.48357 0.57038 0.1129 0.0
H327 H 0.48414 0.60036 0.14315 0.0
H328 H 0.48299 0.63635 0.16207 0.0
H329 H 0.41464 0.58144 0.19961 0.0
H330 H 0.41564 0.5453 0.18035 0.0
H331 H 0.43088 0.49917 0.13919 0.0
H332 H 0.45545 0.477 0.14569 0.0
H333 H 0.5213 0.54916 0.17003 0.0
N334 N 0.44622 0.54881 0.14593 0.0
H335 H 0.49722 0.57144 0.162 0.0
C336 C 0.56034 0.45249 0.16047 0.0
C337 C 0.55065 0.42887 0.14882 0.0
C338 C 0.56734 0.42417 0.1354 0.0
C339 C 0.59405 0.44315 0.13333 0.0
C340 C 0.60348 0.46737 0.14398 0.0
C341 C 0.58683 0.47195 0.15762 0.0
C342 C 0.55023 0.45288 0.20026 0.0
C343 C 0.57113 0.47401 0.21147 0.0
C344 C 0.579 0.47055 0.23275 0.0
C345 C 0.56574 0.44607 0.2432 0.0
C346 C 0.54397 0.42541 0.23244 0.0
C347 C 0.53642 0.42878 0.21107 0.0
C348 C 0.53135 0.46955 0.17267 0.0
C349 C 0.50409 0.45749 0.17543 0.0
C350 C 0.49095 0.47106 0.17129 0.0
C351 C 0.50477 0.49706 0.1639 0.0
C352 C 0.53229 0.50927 0.16142 0.0
C353 C 0.54549 0.49574 0.16599 0.0
C354 C 0.44258 0.55256 0.12256 0.0
C355 C 0.41738 0.54596 0.11523 0.0
C356 C 0.41356 0.55266 0.09369 0.0
C357 C 0.43497 0.56621 0.07904 0.0
C358 C 0.46009 0.57174 0.08599 0.0
C359 C 0.46391 0.56507 0.10761 0.0
C360 C 0.44975 0.57003 0.16024 0.0
C361 C 0.46925 0.59596 0.15579 0.0
C362 C 0.46856 0.61653 0.16656 0.0
C363 C 0.44853 0.61157 0.18204 0.0
C364 C 0.4303 0.58572 0.18775 0.0
C365 C 0.43087 0.56512 0.17683 0.0
C366 C 0.46184 0.53683 0.15031 0.0
C367 C 0.45066 0.51018 0.14586 0.0
C368 C 0.46473 0.4975 0.14981 0.0
C369 C 0.49035 0.5111 0.15877 0.0
C370 C 0.50175 0.538 0.16296 0.0
C371 C 0.48778 0.55081 0.15857 0.0
Li372 Li 0.63847 0.40204 0.42913 0.0
Li373 Li 0.6317 0.36167 0.41051 0.0
Li374 Li 0.67242 0.40375 0.4048 0.0
Li375 Li 0.63242 0.39716 0.38744 0.0
C376 C 0.67035 0.38614 0.45271 0.0
N377 N 0.69426 0.39077 0.49373 0.0
C378 C 0.66034 0.36494 0.46733 0.0
C379 C 0.69271 0.40956 0.45878 0.0
C380 C 0.67264 0.36771 0.48805 0.0
C381 C 0.70447 0.41155 0.47963 0.0
C382 C 0.58306 0.35924 0.40241 0.0
C383 C 0.5566 0.32704 0.37449 0.0
N384 N 0.5348 0.32643 0.38288 0.0
C385 C 0.56042 0.35835 0.41072 0.0
C386 C 0.58119 0.34351 0.38412 0.0
C387 C 0.53619 0.3416 0.40063 0.0
C388 C 0.62936 0.43697 0.45487 0.0
N389 N 0.63031 0.41463 0.45565 0.0
C390 C 0.61765 0.40873 0.49436 0.0
C391 C 0.62443 0.40041 0.4748 0.0
C392 C 0.61623 0.43159 0.49407 0.0
C393 C 0.62238 0.44589 0.47401 0.0
H394 H 0.63372 0.44769 0.4393 0.0
H395 H 0.62477 0.38244 0.47486 0.0
C396 C 0.63294 0.31502 0.41148 0.0
N397 N 0.61753 0.32545 0.4159 0.0
C398 C 0.62449 0.28924 0.4172 0.0
C399 C 0.58453 0.28544 0.43217 0.0
C400 C 0.59372 0.31129 0.42609 0.0
C401 C 0.60005 0.27416 0.42781 0.0
H402 H 0.65224 0.32703 0.40429 0.0
H403 H 0.58219 0.32025 0.43011 0.0
C404 C 0.67638 0.45333 0.40473 0.0
N405 N 0.71363 0.50571 0.40383 0.0
C406 C 0.681 0.46748 0.38488 0.0
C407 C 0.69036 0.46589 0.4242 0.0
C408 C 0.70001 0.49393 0.38474 0.0
C409 C 0.70921 0.49236 0.42338 0.0
C410 C 0.66823 0.38205 0.36482 0.0
C411 C 0.67798 0.40482 0.35218 0.0
C412 C 0.67788 0.36521 0.36097 0.0
C413 C 0.69729 0.41041 0.33594 0.0
C414 C 0.69723 0.37151 0.34461 0.0
N415 N 0.70647 0.3938 0.33255 0.0
C416 C 0.71801 0.40086 0.40615 0.0
C417 C 0.72506 0.43957 0.38871 0.0
C418 C 0.74302 0.4061 0.39976 0.0
N419 N 0.70931 0.41723 0.40016 0.0
C420 C 0.75028 0.44561 0.38204 0.0
C421 C 0.75917 0.42833 0.38698 0.0
H422 H 0.70494 0.383 0.4149 0.0
H423 H 0.71762 0.45194 0.38349 0.0
C424 C 0.61059 0.42319 0.36445 0.0
N425 N 0.61771 0.40483 0.36229 0.0
C426 C 0.60152 0.43055 0.34577 0.0
C427 C 0.60703 0.39971 0.32317 0.0
C428 C 0.61561 0.3927 0.34231 0.0
C429 C 0.60021 0.41908 0.32477 0.0
H430 H 0.61246 0.43246 0.38059 0.0
H431 H 0.62111 0.37794 0.34114 0.0
O432 O 0.65854 0.38368 0.43237 0.0
O433 O 0.60693 0.3757 0.41201 0.0
O434 O 0.65772 0.42748 0.40517 0.0
O435 O 0.65001 0.37679 0.38137 0.0
H436 H 0.64314 0.3466 0.46276 0.0
H437 H 0.70105 0.42594 0.44744 0.0
H438 H 0.66502 0.35153 0.4996 0.0
H439 H 0.72177 0.42958 0.48458 0.0
H440 H 0.55486 0.31475 0.36034 0.0
H441 H 0.56159 0.37048 0.42483 0.0
H442 H 0.59851 0.34397 0.37743 0.0
H443 H 0.51849 0.34069 0.4069 0.0
H444 H 0.6137 0.39742 0.50957 0.0
H445 H 0.62144 0.46356 0.47305 0.0
H446 H 0.63741 0.28154 0.4142 0.0
H447 H 0.5657 0.27452 0.44055 0.0
H448 H 0.67013 0.4581 0.36971 0.0
H449 H 0.68655 0.45537 0.43983 0.0
H450 H 0.70393 0.5051 0.36947 0.0
H451 H 0.72025 0.50232 0.43832 0.0
H452 H 0.67109 0.41831 0.35517 0.0
H453 H 0.67064 0.34752 0.37055 0.0
H454 H 0.70512 0.42806 0.32617 0.0
H455 H 0.70495 0.3587 0.34153 0.0
H456 H 0.74931 0.39242 0.40406 0.0
H457 H 0.7621 0.46282 0.37201 0.0
H458 H 0.59633 0.44552 0.34755 0.0
H459 H 0.60588 0.39025 0.30725 0.0
Li460 Li 0.25892 0.64609 0.59383 0.0
Li461 Li 0.29255 0.63815 0.5783 0.0
Li462 Li 0.29183 0.67917 0.56989 0.0
Li463 Li 0.25938 0.63793 0.55231 0.0
C464 C 0.29882 0.67186 0.62157 0.0
N465 N 0.29978 0.68105 0.66729 0.0
C466 C 0.30598 0.65857 0.63664 0.0
C467 C 0.29252 0.69009 0.62976 0.0
C468 C 0.30627 0.66343 0.65969 0.0
C469 C 0.293 0.69438 0.65292 0.0
C470 C 0.24589 0.58825 0.576 0.0
C471 C 0.23716 0.55103 0.55317 0.0
N472 N 0.22937 0.53585 0.57184 0.0
C473 C 0.23731 0.57212 0.59488 0.0
C474 C 0.2454 0.57748 0.55491 0.0
C475 C 0.22924 0.54576 0.59247 0.0
C476 C 0.22008 0.64814 0.62148 0.0
N477 N 0.23675 0.63869 0.61952 0.0
C478 C 0.22135 0.61586 0.65427 0.0
C479 C 0.23785 0.62308 0.63555 0.0
C480 C 0.20384 0.62514 0.65665 0.0
C481 C 0.2035 0.64176 0.64019 0.0
H482 H 0.2195 0.66043 0.60846 0.0
H483 H 0.2516 0.61623 0.63377 0.0
C484 C 0.3393 0.63559 0.5756 0.0
N485 N 0.31509 0.62468 0.5853 0.0
C486 C 0.35728 0.62818 0.58231 0.0
C487 C 0.32531 0.59877 0.60915 0.0
C488 C 0.30778 0.6064 0.60165 0.0
C489 C 0.35045 0.60988 0.59955 0.0
H490 H 0.34501 0.65071 0.56319 0.0
H491 H 0.28887 0.59874 0.6097 0.0
C492 C 0.2509 0.68454 0.5612 0.0
N493 N 0.24819 0.72717 0.54671 0.0
C494 C 0.24606 0.68681 0.53855 0.0
C495 C 0.25399 0.7038 0.57651 0.0
C496 C 0.24484 0.70854 0.53155 0.0
C497 C 0.25267 0.72525 0.56885 0.0
C498 C 0.30806 0.6506 0.53042 0.0
C499 C 0.32132 0.66921 0.51372 0.0
C500 C 0.3054 0.62599 0.52824 0.0
C501 C 0.33101 0.66264 0.49486 0.0
C502 C 0.31539 0.62016 0.50916 0.0
N503 N 0.32784 0.63843 0.49298 0.0
C504 C 0.32916 0.73292 0.57922 0.0
C505 C 0.31341 0.72265 0.54179 0.0
C506 C 0.34614 0.75893 0.57335 0.0
N507 N 0.31337 0.7154 0.56342 0.0
C508 C 0.33021 0.74829 0.53514 0.0
C509 C 0.34698 0.76687 0.55098 0.0
H510 H 0.32905 0.72662 0.59625 0.0
H511 H 0.30082 0.70828 0.52952 0.0
C512 C 0.21189 0.60511 0.5296 0.0
N513 N 0.2377 0.62304 0.52633 0.0
C514 C 0.19477 0.59475 0.51127 0.0
C515 C 0.23113 0.62146 0.48657 0.0
C516 C 0.2475 0.63134 0.50535 0.0
C517 C 0.20435 0.6031 0.48943 0.0
H518 H 0.20458 0.59902 0.54651 0.0
H519 H 0.26783 0.64615 0.50316 0.0
O520 O 0.29789 0.66697 0.59896 0.0
O521 O 0.25357 0.61411 0.57806 0.0
O522 O 0.25269 0.66366 0.56829 0.0
O523 O 0.29845 0.65677 0.54902 0.0
H524 H 0.31116 0.64459 0.63064 0.0
H525 H 0.28716 0.7007 0.61836 0.0
H526 H 0.31162 0.65316 0.67153 0.0
H527 H 0.28798 0.70831 0.65948 0.0
H528 H 0.23686 0.54255 0.53695 0.0
H529 H 0.23697 0.5798 0.61128 0.0
H530 H 0.25111 0.58926 0.53995 0.0
H531 H 0.2228 0.53317 0.607 0.0
H532 H 0.22239 0.60333 0.66687 0.0
H533 H 0.19024 0.6493 0.6416 0.0
H534 H 0.37673 0.63756 0.5749 0.0
H535 H 0.31955 0.58485 0.62271 0.0
H536 H 0.24353 0.67212 0.52645 0.0
H537 H 0.25747 0.70228 0.59411 0.0
H538 H 0.2413 0.71062 0.51405 0.0
H539 H 0.2552 0.74037 0.58051 0.0
H540 H 0.32408 0.68853 0.51521 0.0
H541 H 0.29626 0.61171 0.54134 0.0
H542 H 0.34112 0.67681 0.48176 0.0
H543 H 0.31341 0.60116 0.50731 0.0
H544 H 0.3588 0.77259 0.58607 0.0
H545 H 0.33074 0.75321 0.51757 0.0
H546 H 0.17431 0.58036 0.51414 0.0
H547 H 0.23919 0.62857 0.47 0.0
Li548 Li 0.66998 0.29265 0.74495 0.0
Li549 Li 0.62954 0.25861 0.7583 0.0
Li550 Li 0.63914 0.26041 0.71869 0.0
Li551 Li 0.62775 0.29233 0.73618 0.0
C552 C 0.68166 0.25726 0.74753 0.0
N553 N 0.7311 0.26432 0.75526 0.0
C554 C 0.69185 0.26172 0.76937 0.0
C555 C 0.69663 0.25632 0.72964 0.0
C556 C 0.71689 0.26528 0.77292 0.0
C557 C 0.72156 0.25993 0.7339 0.0
C558 C 0.63536 0.29534 0.78673 0.0
C559 C 0.60462 0.29887 0.81128 0.0
N560 N 0.61499 0.293 0.82916 0.0
C561 C 0.64579 0.28946 0.80539 0.0
C562 C 0.61464 0.30014 0.78969 0.0
C563 C 0.63518 0.28831 0.82668 0.0
C564 C 0.71088 0.32789 0.77286 0.0
N565 N 0.7062 0.31666 0.75214 0.0
C566 C 0.7522 0.34075 0.74346 0.0
C567 C 0.72622 0.32274 0.73743 0.0
C568 C 0.75749 0.35262 0.7648 0.0
C569 C 0.73642 0.34588 0.77958 0.0
H570 H 0.69474 0.32308 0.78416 0.0
H571 H 0.72206 0.31377 0.72097 0.0
C572 C 0.62358 0.21971 0.78847 0.0
N573 N 0.61289 0.23446 0.78268 0.0
C574 C 0.6142 0.20336 0.8071 0.0
C575 C 0.58172 0.21622 0.81274 0.0
C576 C 0.59198 0.23263 0.79414 0.0
C577 C 0.59322 0.20172 0.81959 0.0
H578 H 0.63969 0.2209 0.77883 0.0
H579 H 0.58368 0.24441 0.78924 0.0
C580 C 0.66358 0.3042 0.69366 0.0
N581 N 0.67413 0.31307 0.64822 0.0
C582 C 0.65141 0.31482 0.68093 0.0
C583 C 0.68124 0.29825 0.68331 0.0
C584 C 0.65699 0.31914 0.65798 0.0
C585 C 0.68626 0.3028 0.66031 0.0
C586 C 0.58285 0.23251 0.73777 0.0
C587 C 0.58078 0.20815 0.73563 0.0
C588 C 0.56149 0.23427 0.74581 0.0
C589 C 0.55734 0.18588 0.74179 0.0
C590 C 0.53838 0.21153 0.75177 0.0
N591 N 0.53681 0.18801 0.74967 0.0
C592 C 0.63793 0.22011 0.69165 0.0
C593 C 0.62139 0.24463 0.67421 0.0
C594 C 0.63224 0.20447 0.67246 0.0
N595 N 0.63279 0.23997 0.69204 0.0
C596 C 0.61564 0.22967 0.65463 0.0
C597 C 0.62101 0.20926 0.65364 0.0
H598 H 0.6461 0.21618 0.70634 0.0
H599 H 0.61653 0.25984 0.67527 0.0
C600 C 0.62869 0.33961 0.73581 0.0
N601 N 0.61347 0.31402 0.73033 0.0
C602 C 0.62078 0.35732 0.73005 0.0
C603 C 0.58143 0.32193 0.71342 0.0
C604 C 0.59016 0.30488 0.71945 0.0
C605 C 0.59692 0.34859 0.71859 0.0
H606 H 0.64738 0.34634 0.74409 0.0
H607 H 0.57871 0.2845 0.71491 0.0
O608 O 0.65742 0.25436 0.74367 0.0
O609 O 0.64536 0.29643 0.76568 0.0
O610 O 0.6581 0.29954 0.7161 0.0
O611 O 0.60579 0.25455 0.73226 0.0
H612 H 0.68072 0.26282 0.78339 0.0
H613 H 0.68927 0.25318 0.7126 0.0
H614 H 0.72506 0.26893 0.78971 0.0
H615 H 0.73339 0.25937 0.72019 0.0
H616 H 0.58853 0.30245 0.81379 0.0
H617 H 0.66163 0.28542 0.80343 0.0
H618 H 0.60621 0.30459 0.77549 0.0
H619 H 0.64293 0.28359 0.84123 0.0
H620 H 0.76784 0.34576 0.73141 0.0
H621 H 0.73965 0.35453 0.7962 0.0
H622 H 0.62338 0.19225 0.81183 0.0
H623 H 0.5656 0.21554 0.82212 0.0
H624 H 0.63772 0.31959 0.68865 0.0
H625 H 0.6906 0.28976 0.69283 0.0
H626 H 0.64765 0.32728 0.64791 0.0
H627 H 0.69972 0.29809 0.65205 0.0
H628 H 0.59721 0.20652 0.72953 0.0
H629 H 0.56288 0.25302 0.74773 0.0
H630 H 0.55549 0.1669 0.74035 0.0
H631 H 0.52173 0.21258 0.75815 0.0
H632 H 0.63672 0.18892 0.67228 0.0
H633 H 0.60666 0.23372 0.64054 0.0
H634 H 0.6337 0.37778 0.73379 0.0
H635 H 0.56298 0.31445 0.70449 0.0
Li636 Li 0.3925 0.63654 0.93293 0.0
Li637 Li 0.40152 0.67748 0.91486 0.0
Li638 Li 0.35863 0.63532 0.9073 0.0
Li639 Li 0.40006 0.64288 0.89162 0.0
C640 C 0.36251 0.65627 0.95635 0.0
N641 N 0.34213 0.65904 0.99756 0.0
C642 C 0.37659 0.67797 0.97032 0.0
C643 C 0.33782 0.6362 0.96321 0.0
C644 C 0.36604 0.67894 0.99113 0.0
C645 C 0.32792 0.6379 0.98414 0.0
C646 C 0.44964 0.68172 0.92132 0.0
C647 C 0.48907 0.72134 0.91085 0.0
N648 N 0.49978 0.72182 0.93121 0.0
C649 C 0.4611 0.68251 0.94209 0.0
C650 C 0.46379 0.70119 0.90551 0.0
C651 C 0.48645 0.70297 0.94678 0.0
C652 C 0.40154 0.60103 0.95736 0.0
N653 N 0.39954 0.62275 0.95927 0.0
C654 C 0.41027 0.62646 0.99836 0.0
C655 C 0.40385 0.63554 0.97923 0.0
C656 C 0.41269 0.60422 0.99688 0.0
C657 C 0.40796 0.59126 0.97611 0.0
H658 H 0.39845 0.59147 0.9412 0.0
H659 H 0.40293 0.65313 0.98023 0.0
C660 C 0.40457 0.72556 0.9079 0.0
N661 N 0.41563 0.71403 0.91972 0.0
C662 C 0.4117 0.75138 0.91235 0.0
C663 C 0.442 0.75329 0.94062 0.0
C664 C 0.4341 0.72736 0.93579 0.0
C665 C 0.43047 0.76547 0.92903 0.0
H666 H 0.38957 0.7144 0.89551 0.0
H667 H 0.4419 0.7176 0.94561 0.0
C668 C 0.35336 0.58675 0.91347 0.0
N669 N 0.31365 0.53729 0.92478 0.0
C670 C 0.34479 0.56631 0.89795 0.0
C671 C 0.34188 0.58193 0.9348 0.0
C672 C 0.32464 0.54148 0.90396 0.0
C673 C 0.32182 0.55684 0.9402 0.0
C674 C 0.38711 0.66888 0.86376 0.0
C675 C 0.36947 0.65189 0.84765 0.0
C676 C 0.40985 0.69144 0.85687 0.0
C677 C 0.37515 0.65752 0.82484 0.0
C678 C 0.41482 0.69641 0.83391 0.0
N679 N 0.39754 0.67946 0.8185 0.0
C680 C 0.30907 0.63217 0.91014 0.0
C681 C 0.31113 0.60256 0.88453 0.0
C682 C 0.28347 0.62435 0.90322 0.0
N683 N 0.32234 0.62132 0.90066 0.0
C684 C 0.28575 0.59448 0.87686 0.0
C685 C 0.27177 0.60565 0.88608 0.0
H686 H 0.31873 0.64763 0.92241 0.0
H687 H 0.32235 0.59472 0.87688 0.0
C688 C 0.43996 0.64732 0.86101 0.0
N689 N 0.41383 0.63452 0.86586 0.0
C690 C 0.44914 0.64052 0.84192 0.0
C691 C 0.40443 0.60732 0.83341 0.0
C692 C 0.39612 0.61488 0.85252 0.0
C693 C 0.43128 0.62014 0.82791 0.0
H694 H 0.45367 0.66283 0.87188 0.0
H695 H 0.37544 0.60523 0.85666 0.0
O696 O 0.37246 0.65518 0.93577 0.0
O697 O 0.42478 0.66189 0.9165 0.0
O698 O 0.37288 0.61128 0.90775 0.0
O699 O 0.38221 0.66339 0.88616 0.0
H700 H 0.39561 0.69376 0.96529 0.0
H701 H 0.32622 0.61958 0.95243 0.0
H702 H 0.37685 0.69553 0.00217 0.0
H703 H 0.30888 0.62246 0.98965 0.0
H704 H 0.50017 0.73662 0.89882 0.0
H705 H 0.45058 0.66751 0.95445 0.0
H706 H 0.45529 0.70086 0.88936 0.0
H707 H 0.49552 0.70387 0.96281 0.0
H708 H 0.41332 0.63677 0.01415 0.0
H709 H 0.4097 0.57408 0.9743 0.0
H710 H 0.40224 0.76009 0.90319 0.0
H711 H 0.45604 0.76331 0.95401 0.0
H712 H 0.35353 0.56955 0.88141 0.0
H713 H 0.34856 0.59733 0.94715 0.0
H714 H 0.31776 0.52552 0.89207 0.0
H715 H 0.31278 0.55289 0.95667 0.0
H716 H 0.35174 0.63438 0.85269 0.0
H717 H 0.42349 0.70501 0.86911 0.0
H718 H 0.36178 0.64442 0.81219 0.0
H719 H 0.43242 0.71375 0.82833 0.0
H720 H 0.27345 0.63378 0.91035 0.0
H721 H 0.27739 0.5802 0.86343 0.0
H722 H 0.46994 0.65135 0.83802 0.0
H723 H 0.38998 0.5915 0.8231 0.0
Li724 Li 0.73557 0.40114 0.07463 0.0
Li725 Li 0.76996 0.39618 0.09261 0.0
Li726 Li 0.7719 0.40391 0.05131 0.0
Li727 Li 0.73989 0.36259 0.0673 0.0
C728 C 0.78119 0.44777 0.09116 0.0
N729 N 0.79636 0.48841 0.12132 0.0
C730 C 0.76621 0.4445 0.11042 0.0
C731 C 0.8039 0.47173 0.08722 0.0
C732 C 0.77419 0.46525 0.12548 0.0
C733 C 0.81124 0.49204 0.10267 0.0
C734 C 0.72456 0.36564 0.11738 0.0
C735 C 0.72619 0.34206 0.14961 0.0
N736 N 0.71177 0.35 0.16157 0.0
C737 C 0.70972 0.37355 0.13 0.0
C738 C 0.73283 0.34974 0.12725 0.0
C739 C 0.70346 0.36544 0.1523 0.0
C740 C 0.68475 0.39124 0.08027 0.0
N741 N 0.70987 0.41137 0.07857 0.0
C742 C 0.69621 0.44185 0.08803 0.0
C743 C 0.71575 0.43646 0.0813 0.0
C744 C 0.67041 0.42124 0.09157 0.0
C745 C 0.66459 0.39576 0.0866 0.0
H746 H 0.68061 0.37153 0.07763 0.0
H747 H 0.73574 0.45223 0.07918 0.0
C748 C 0.816 0.40807 0.11682 0.0
N749 N 0.7915 0.40474 0.11913 0.0
C750 C 0.83302 0.41554 0.13529 0.0
C751 C 0.79925 0.4158 0.1582 0.0
C752 C 0.78302 0.40855 0.13933 0.0
C753 C 0.82476 0.41975 0.15629 0.0
H754 H 0.82242 0.4052 0.10054 0.0
H755 H 0.76373 0.40621 0.14092 0.0
C756 C 0.72698 0.39556 0.0288 0.0
N757 N 0.71368 0.41921 0.99568 0.0
C758 C 0.70785 0.38046 0.01284 0.0
C759 C 0.73933 0.4227 0.02795 0.0
C760 C 0.7014 0.39278 0.99621 0.0
C761 C 0.73233 0.43428 0.01107 0.0
C762 C 0.78123 0.35796 0.06455 0.0
C763 C 0.78102 0.34918 0.04265 0.0
C764 C 0.78318 0.34435 0.0828 0.0
C765 C 0.78228 0.32657 0.03939 0.0
C766 C 0.78443 0.32184 0.07884 0.0
N767 N 0.78392 0.31347 0.0574 0.0
C768 C 0.81776 0.44104 0.02763 0.0
C769 C 0.78539 0.40618 0.00575 0.0
C770 C 0.83415 0.45117 0.00883 0.0
N771 N 0.79391 0.41896 0.02573 0.0
C772 C 0.80112 0.41557 0.98658 0.0
C773 C 0.82594 0.43825 0.98799 0.0
H774 H 0.82415 0.45063 0.04378 0.0
H775 H 0.76648 0.38846 0.00478 0.0
C776 C 0.709 0.30723 0.07549 0.0
N777 N 0.71991 0.32638 0.05981 0.0
C778 C 0.69284 0.28127 0.06884 0.0
C779 C 0.69978 0.29526 0.0301 0.0
C780 C 0.71578 0.32086 0.03748 0.0
C781 C 0.68793 0.27506 0.04587 0.0
H782 H 0.71228 0.31205 0.09314 0.0
H783 H 0.72452 0.33649 0.02538 0.0
O784 O 0.77388 0.4276 0.07631 0.0
O785 O 0.731 0.37357 0.09556 0.0
O786 O 0.73348 0.38367 0.04512 0.0
O787 O 0.77924 0.37961 0.0681 0.0
H788 H 0.74853 0.42614 0.11367 0.0
H789 H 0.81572 0.47464 0.07238 0.0
H790 H 0.76275 0.46295 0.14045 0.0
H791 H 0.82876 0.5107 0.09982 0.0
H792 H 0.73258 0.32985 0.15747 0.0
H793 H 0.70324 0.38597 0.12274 0.0
H794 H 0.74454 0.34367 0.11785 0.0
H795 H 0.69206 0.37147 0.16226 0.0
H796 H 0.7015 0.46181 0.09142 0.0
H797 H 0.64479 0.37938 0.08829 0.0
H798 H 0.85254 0.41836 0.13311 0.0
H799 H 0.79179 0.41815 0.17418 0.0
H800 H 0.69808 0.35942 0.01329 0.0
H801 H 0.75419 0.43476 0.04012 0.0
H802 H 0.68664 0.38133 0.98373 0.0
H803 H 0.74174 0.45526 0.0102 0.0
H804 H 0.77954 0.35951 0.02835 0.0
H805 H 0.78373 0.35109 0.09983 0.0
H806 H 0.78188 0.31941 0.02255 0.0
H807 H 0.78582 0.31104 0.09281 0.0
H808 H 0.85295 0.46896 0.01056 0.0
H809 H 0.79413 0.40493 0.97088 0.0
H810 H 0.68396 0.26627 0.08152 0.0
H811 H 0.69597 0.29147 0.01226 0.0
Li812 Li 0.3996 0.78381 0.25806 0.0
Li813 Li 0.35771 0.75004 0.24317 0.0
Li814 Li 0.40031 0.75083 0.23389 0.0
Li815 Li 0.39058 0.783 0.21708 0.0
C816 C 0.38742 0.74462 0.28542 0.0
N817 N 0.39894 0.74442 0.3304 0.0
C818 C 0.37054 0.74467 0.30195 0.0
C819 C 0.40993 0.74404 0.29174 0.0
C820 C 0.37677 0.74469 0.32461 0.0
C821 C 0.41548 0.74405 0.31458 0.0
C822 C 0.35224 0.79346 0.2379 0.0
C823 C 0.31997 0.79158 0.21188 0.0
N824 N 0.31235 0.80325 0.22749 0.0
C825 C 0.34422 0.80562 0.25362 0.0
C826 C 0.34011 0.78652 0.21683 0.0
C827 C 0.32397 0.81032 0.24806 0.0
C828 C 0.44069 0.81778 0.28845 0.0
N829 N 0.4145 0.80565 0.28392 0.0
C830 C 0.40692 0.8237 0.3172 0.0
C831 C 0.39765 0.80839 0.29778 0.0
C832 C 0.43378 0.8361 0.32247 0.0
C833 C 0.4508 0.83312 0.3078 0.0
H834 H 0.45376 0.81558 0.27711 0.0
H835 H 0.37689 0.79829 0.29391 0.0
C836 C 0.30872 0.7031 0.24146 0.0
N837 N 0.32169 0.72747 0.25049 0.0
C838 C 0.28333 0.6851 0.24869 0.0
C839 C 0.28512 0.71762 0.27434 0.0
C840 C 0.31035 0.73508 0.26645 0.0
C841 C 0.27154 0.69215 0.2657 0.0
H842 H 0.31847 0.69733 0.22924 0.0
H843 H 0.32131 0.75436 0.27372 0.0
C844 C 0.44854 0.79598 0.22751 0.0
N845 N 0.4994 0.80848 0.21738 0.0
C846 C 0.46037 0.80894 0.20752 0.0
C847 C 0.46265 0.78951 0.24239 0.0
C848 C 0.48609 0.81507 0.2027 0.0
C849 C 0.48832 0.79596 0.23695 0.0
C850 C 0.35972 0.73292 0.19378 0.0
C851 C 0.37332 0.72529 0.17924 0.0
C852 C 0.33462 0.72786 0.18783 0.0
C853 C 0.36188 0.71332 0.15877 0.0
C854 C 0.32383 0.71582 0.16723 0.0
N855 N 0.33758 0.70889 0.15323 0.0
C856 C 0.40311 0.70515 0.23767 0.0
C857 C 0.43317 0.7353 0.21134 0.0
C858 C 0.41023 0.68684 0.2315 0.0
N859 N 0.41435 0.7287 0.22737 0.0
C860 C 0.44117 0.71778 0.20492 0.0
C861 C 0.42909 0.69287 0.21454 0.0
H862 H 0.3879 0.70024 0.25012 0.0
H863 H 0.44128 0.75374 0.20283 0.0
C864 C 0.39833 0.8271 0.19209 0.0
N865 N 0.397 0.80363 0.19072 0.0
C866 C 0.4047 0.84292 0.17308 0.0
C867 C 0.40819 0.81015 0.1517 0.0
C868 C 0.40186 0.79505 0.17107 0.0
C869 C 0.41006 0.8346 0.15263 0.0
H870 H 0.39487 0.8337 0.20803 0.0
H871 H 0.40153 0.77679 0.17053 0.0
O872 O 0.38202 0.74529 0.26317 0.0
O873 O 0.37182 0.78841 0.24319 0.0
O874 O 0.42327 0.78961 0.23236 0.0
O875 O 0.37055 0.74437 0.21404 0.0
H876 H 0.353 0.74505 0.29734 0.0
H877 H 0.42295 0.74354 0.27916 0.0
H878 H 0.36401 0.74498 0.33759 0.0
H879 H 0.43291 0.74375 0.31972 0.0
H880 H 0.31044 0.78629 0.19562 0.0
H881 H 0.35345 0.81131 0.26997 0.0
H882 H 0.34635 0.77757 0.20434 0.0
H883 H 0.31751 0.81961 0.26011 0.0
H884 H 0.39319 0.8254 0.32821 0.0
H885 H 0.47169 0.84266 0.31121 0.0
H886 H 0.27352 0.66551 0.24184 0.0
H887 H 0.27657 0.72371 0.28748 0.0
H888 H 0.44985 0.81427 0.19587 0.0
H889 H 0.45379 0.7794 0.25786 0.0
H890 H 0.49546 0.82505 0.18728 0.0
H891 H 0.4994 0.79095 0.24827 0.0
H892 H 0.39265 0.72884 0.18355 0.0
H893 H 0.32338 0.73287 0.19907 0.0
H894 H 0.37232 0.70753 0.1473 0.0
H895 H 0.30446 0.71188 0.16241 0.0
H896 H 0.40033 0.66781 0.23927 0.0
H897 H 0.45618 0.72347 0.19212 0.0
H898 H 0.40602 0.8617 0.17447 0.0
H899 H 0.41172 0.8028 0.13617 0.0
C900 C 0.20009 0.63819 0.27095 0.0
C901 C 0.19799 0.63223 0.29396 0.0
C902 C 0.22391 0.65787 0.26186 0.0
C903 C 0.24613 0.67236 0.2756 0.0
H904 H 0.1834 0.62726 0.25991 0.0
H905 H 0.225 0.66174 0.24399 0.0
S906 S 0.25041 0.66378 0.33689 0.0
N907 N 0.2198 0.64195 0.33022 0.0
N908 N 0.26445 0.67908 0.31329 0.0
C909 C 0.24403 0.66667 0.29869 0.0
C910 C 0.21996 0.64653 0.30783 0.0
C911 C 0.5786 0.21706 0.46735 0.0
C912 C 0.58065 0.19859 0.45395 0.0
C913 C 0.58407 0.24108 0.45854 0.0
C914 C 0.59188 0.2476 0.436 0.0
H915 H 0.57373 0.21339 0.48504 0.0
H916 H 0.58315 0.25505 0.46971 0.0
S917 S 0.59708 0.20488 0.39317 0.0
N918 N 0.58872 0.18754 0.41648 0.0
N919 N 0.59919 0.23282 0.39997 0.0
C920 C 0.59299 0.22893 0.42218 0.0
C921 C 0.58733 0.20442 0.43114 0.0
C922 C 0.39698 0.60621 0.64118 0.0
C923 C 0.4104 0.59694 0.62801 0.0
C924 C 0.37714 0.60967 0.63191 0.0
C925 C 0.37035 0.6044 0.60905 0.0
H926 H 0.40189 0.61083 0.6588 0.0
H927 H 0.36744 0.6171 0.64258 0.0
S928 S 0.39945 0.57949 0.56752 0.0
N929 N 0.41529 0.58206 0.59117 0.0
N930 N 0.3783 0.58915 0.57353 0.0
C931 C 0.38355 0.59503 0.59571 0.0
C932 C 0.40347 0.59108 0.60527 0.0
C933 C 0.81354 0.41498 0.7893 0.0
C934 C 0.83526 0.41125 0.78785 0.0
C935 C 0.78874 0.39617 0.78135 0.0
C936 C 0.78454 0.37279 0.77161 0.0
H937 H 0.81549 0.43229 0.79726 0.0
H938 H 0.77261 0.39988 0.78308 0.0
S939 S 0.83502 0.35386 0.76287 0.0
N940 N 0.85119 0.38283 0.77499 0.0
N941 N 0.80429 0.34712 0.76043 0.0
C942 C 0.80615 0.36898 0.76953 0.0
C943 C 0.83153 0.38823 0.77764 0.0
C944 C 0.41986 0.81973 0.95001 0.0
C945 C 0.44561 0.84099 0.95257 0.0
C946 C 0.4152 0.79569 0.94174 0.0
C947 C 0.4361 0.79182 0.93585 0.0
H948 H 0.4031 0.82137 0.95514 0.0
H949 H 0.39508 0.77972 0.94067 0.0
S950 S 0.50703 0.84162 0.93719 0.0
N951 N 0.49222 0.85703 0.94681 0.0
N952 N 0.48339 0.81154 0.93171 0.0
C953 C 0.4619 0.81299 0.93772 0.0
C954 C 0.46667 0.83761 0.94597 0.0
C955 C 0.62864 0.45211 0.1043 0.0
C956 C 0.61258 0.43678 0.12207 0.0
C957 C 0.64703 0.44677 0.09423 0.0
C958 C 0.65014 0.42608 0.10175 0.0
H959 H 0.62693 0.46828 0.09815 0.0
H960 H 0.65888 0.45892 0.08047 0.0
S961 S 0.61451 0.38197 0.14938 0.0
N962 N 0.60183 0.40107 0.14757 0.0
N963 N 0.63673 0.39141 0.12919 0.0
C964 C 0.63442 0.41093 0.1198 0.0
C965 C 0.61557 0.41621 0.12983 0.0
C966 C 0.41282 0.82846 0.54163 0.0
C967 C 0.40701 0.84201 0.52545 0.0
C968 C 0.39311 0.80478 0.55053 0.0
C969 C 0.36674 0.79369 0.54367 0.0
H970 H 0.43292 0.83587 0.54704 0.0
H971 H 0.39883 0.79457 0.56215 0.0
S972 S 0.34061 0.82246 0.50338 0.0
N973 N 0.37262 0.84312 0.50378 0.0
N974 N 0.33547 0.79925 0.52129 0.0
C975 C 0.36041 0.8077 0.52843 0.0
C976 C 0.38053 0.83171 0.51918 0.0
C977 C 0.57689 0.38573 0.67934 0.0
C978 C 0.57993 0.40661 0.69278 0.0
C979 C 0.58155 0.36658 0.68804 0.0
C980 C 0.58936 0.36754 0.71055 0.0
H981 H 0.57191 0.38475 0.66169 0.0
H982 H 0.58002 0.3515 0.67679 0.0
S983 S 0.59668 0.41629 0.75348 0.0
N984 N 0.58894 0.42587 0.73018 0.0
N985 N 0.59744 0.38974 0.74665 0.0
C986 C 0.59128 0.38766 0.72444 0.0
C987 C 0.58663 0.40721 0.71554 0.0
C988 C 0.22219 0.60163 0.84351 0.0
C989 C 0.19928 0.59308 0.85641 0.0
C990 C 0.2453 0.60482 0.85316 0.0
C991 C 0.2464 0.6 0.87614 0.0
H992 H 0.22227 0.60606 0.82584 0.0
H993 H 0.26265 0.61182 0.8427 0.0
S994 S 0.19155 0.57677 0.91701 0.0
N995 N 0.17875 0.57917 0.89308 0.0
N996 N 0.22249 0.58574 0.91144 0.0
C997 C 0.22354 0.5912 0.88918 0.0
C998 C 0.19986 0.58753 0.87924 0.0
C999 C 0.62421 0.21048 0.03976 0.0
C1000 C 0.62886 0.1991 0.02079 0.0
C1001 C 0.64383 0.23447 0.04841 0.0
C1002 C 0.66885 0.24809 0.03836 0.0
H1003 H 0.605 0.20109 0.04763 0.0
H1004 H 0.63897 0.24293 0.06246 0.0
S1005 S 0.69183 0.22583 0.98952 0.0
N1006 N 0.66086 0.20274 0.99292 0.0
N1007 N 0.6979 0.24749 0.00955 0.0
C1008 C 0.67417 0.23637 0.02006 0.0
C1009 C 0.65418 0.21195 0.01122 0.0
C1010 C 0.44366 0.6373 0.21338 0.0
C1011 C 0.44486 0.63308 0.19023 0.0
C1012 C 0.43895 0.65692 0.22117 0.0
C1013 C 0.43501 0.67279 0.20605 0.0
H1014 H 0.4464 0.62538 0.22552 0.0
H1015 H 0.43839 0.65968 0.23914 0.0
S1016 S 0.43366 0.66756 0.14372 0.0
N1017 N 0.44042 0.64527 0.1523 0.0
N1018 N 0.43091 0.68158 0.16679 0.0
C1019 C 0.43577 0.66838 0.18283 0.0
C1020 C 0.44083 0.64865 0.17497 0.0
C1021 C 0.83112 0.4605 0.36967 0.0
C1022 C 0.83185 0.44093 0.35681 0.0
C1023 C 0.80764 0.45627 0.37964 0.0
C1024 C 0.7841 0.4323 0.37715 0.0
H1025 H 0.84885 0.47919 0.37208 0.0
H1026 H 0.80789 0.47182 0.3894 0.0
S1027 S 0.77489 0.37571 0.34337 0.0
N1028 N 0.80651 0.39733 0.34094 0.0
N1029 N 0.7626 0.38938 0.3598 0.0
C1030 C 0.78451 0.41272 0.36414 0.0
C1031 C 0.80831 0.41703 0.35395 0.0
C1032 C 0.17838 0.57493 0.43145 0.0
C1033 C 0.15484 0.5755 0.43 0.0
C1034 C 0.19405 0.58359 0.45081 0.0
C1035 C 0.18669 0.59295 0.46958 0.0
H1036 H 0.1851 0.56833 0.41726 0.0
H1037 H 0.21215 0.58305 0.45107 0.0
S1038 S 0.12659 0.59789 0.47461 0.0
N1039 N 0.12459 0.58561 0.44921 0.0
N1040 N 0.15419 0.60212 0.48561 0.0
C1041 C 0.16299 0.59324 0.46853 0.0
C1042 C 0.14708 0.58454 0.44873 0.0
C1043 C 0.61867 0.19097 0.59209 0.0
C1044 C 0.60302 0.16365 0.59223 0.0
C1045 C 0.6244 0.20551 0.61203 0.0
C1046 C 0.61499 0.19325 0.6329 0.0
H1047 H 0.62618 0.20124 0.57636 0.0
H1048 H 0.63639 0.22652 0.61112 0.0
S1049 S 0.57349 0.1222 0.64245 0.0
N1050 N 0.57842 0.12486 0.61499 0.0
N1051 N 0.58925 0.15222 0.65255 0.0
C1052 C 0.59954 0.16593 0.63333 0.0
C1053 C 0.59348 0.15113 0.61297 0.0
C1054 C 0.43454 0.60171 0.76713 0.0
C1055 C 0.45679 0.59882 0.76684 0.0
C1056 C 0.42648 0.60856 0.78693 0.0
C1057 C 0.44028 0.61265 0.80726 0.0
H1058 H 0.4236 0.59924 0.7518 0.0
H1059 H 0.40956 0.61111 0.78619 0.0
S1060 S 0.49862 0.60537 0.81573 0.0
N1061 N 0.49182 0.59936 0.78867 0.0
N1062 N 0.47643 0.61176 0.82608 0.0
C1063 C 0.46229 0.60931 0.80727 0.0
C1064 C 0.47059 0.6025 0.78703 0.0
C1065 C 0.84718 0.45863 0.92755 0.0
C1066 C 0.87378 0.46539 0.92747 0.0
C1067 C 0.83204 0.45018 0.94721 0.0
C1068 C 0.84288 0.44825 0.96765 0.0
H1069 H 0.83778 0.45936 0.91216 0.0
H1070 H 0.81162 0.4451 0.94639 0.0
S1071 S 0.91173 0.46407 0.97662 0.0
N1072 N 0.91054 0.4702 0.94972 0.0
N1073 N 0.88191 0.45381 0.98664 0.0
C1074 C 0.86954 0.45521 0.96791 0.0
C1075 C 0.88498 0.46381 0.94783 0.0
C1076 C 0.40837 0.87662 0.10547 0.0
C1077 C 0.4297 0.88081 0.09179 0.0
C1078 C 0.40252 0.86222 0.12541 0.0
C1079 C 0.41765 0.85128 0.13231 0.0
H1080 H 0.39596 0.88436 0.10061 0.0
H1081 H 0.38561 0.85905 0.13518 0.0
S1082 S 0.47613 0.85728 0.10297 0.0
N1083 N 0.46621 0.8731 0.08679 0.0
N1084 N 0.45563 0.84669 0.1245 0.0
C1085 C 0.43939 0.85584 0.11908 0.0
C1086 C 0.44533 0.87046 0.0988 0.0
C1087 C 0.55886 0.43145 0.28334 0.0
C1088 C 0.57553 0.44134 0.26452 0.0
C1089 C 0.56722 0.42496 0.30309 0.0
C1090 C 0.59228 0.42761 0.30442 0.0
H1091 H 0.53917 0.42852 0.28269 0.0
H1092 H 0.55377 0.41715 0.31718 0.0
S1093 S 0.64333 0.45283 0.25993 0.0
N1094 N 0.61832 0.45387 0.2486 0.0
N1095 N 0.63385 0.44128 0.28558 0.0
C1096 C 0.60918 0.43772 0.28583 0.0
C1097 C 0.60086 0.44471 0.26591 0.0
C1098 C 0.44667 0.88589 0.36837 0.0
C1099 C 0.46108 0.88089 0.38442 0.0
C1100 C 0.43812 0.8715 0.34828 0.0
C1101 C 0.4438 0.8517 0.34343 0.0
H1102 H 0.44194 0.90102 0.37138 0.0
H1103 H 0.42702 0.87593 0.33642 0.0
S1104 S 0.47924 0.82966 0.38035 0.0
N1105 N 0.47945 0.85373 0.39446 0.0
N1106 N 0.46376 0.82711 0.35653 0.0
C1107 C 0.45816 0.84648 0.35925 0.0
C1108 C 0.46671 0.86097 0.37977 0.0
C1109 C 0.61792 0.47568 0.54145 0.0
C1110 C 0.597 0.45858 0.55544 0.0
C1111 C 0.62367 0.46691 0.52146 0.0
C1112 C 0.60877 0.44068 0.51468 0.0
H1113 H 0.6301 0.496 0.54606 0.0
H1114 H 0.64032 0.48069 0.51152 0.0
S1115 S 0.55126 0.38819 0.54481 0.0
N1116 N 0.56114 0.41418 0.56093 0.0
N1117 N 0.57132 0.39796 0.52298 0.0
C1118 C 0.58739 0.42351 0.52823 0.0
C1119 C 0.58163 0.4324 0.54864 0.0
C1120 C 0.17329 0.62974 0.71142 0.0
C1121 C 0.15527 0.60347 0.71652 0.0
C1122 C 0.18838 0.63668 0.69167 0.0
C1123 C 0.18625 0.6176 0.67644 0.0
H1124 H 0.1764 0.64507 0.7231 0.0
H1125 H 0.20243 0.65704 0.68865 0.0
S1126 S 0.14032 0.5465 0.68042 0.0
N1127 N 0.13464 0.55855 0.70344 0.0
N1128 N 0.16375 0.57166 0.66675 0.0
C1129 C 0.1679 0.5914 0.6809 0.0
C1130 C 0.15225 0.58432 0.70084 0.0
C1131 C 0.59522 0.17727 0.87779 0.0
C1132 C 0.56906 0.15727 0.88139 0.0
C1133 C 0.60282 0.1913 0.85767 0.0
C1134 C 0.58454 0.18612 0.84044 0.0
H1135 H 0.6099 0.18251 0.89081 0.0
H1136 H 0.6231 0.20669 0.85573 0.0
S1137 S 0.51417 0.13483 0.84053 0.0
N1138 N 0.52519 0.13209 0.86528 0.0
N1139 N 0.5395 0.15913 0.82767 0.0
C1140 C 0.55842 0.16613 0.8436 0.0
C1141 C 0.55068 0.15156 0.86402 0.0
C1142 C 0.41021 0.55902 0.04294 0.0
C1143 C 0.43107 0.57579 0.0572 0.0
C1144 C 0.40482 0.56819 0.02315 0.0
C1145 C 0.41994 0.59454 0.01701 0.0
H1146 H 0.39776 0.53869 0.04727 0.0
H1147 H 0.38823 0.55472 0.01293 0.0
S1148 S 0.47736 0.64623 0.04804 0.0
N1149 N 0.46723 0.61991 0.06352 0.0
N1150 N 0.45745 0.63699 0.02612 0.0
C1151 C 0.44125 0.61136 0.0308 0.0
C1152 C 0.44676 0.60203 0.05091 0.0
C1153 C 0.87045 0.41985 0.20137 0.0
C1154 C 0.87276 0.43914 0.21657 0.0
C1155 C 0.85557 0.41424 0.1816 0.0
C1156 C 0.84232 0.42763 0.17628 0.0
H1157 H 0.87994 0.40872 0.20494 0.0
H1158 H 0.85376 0.39873 0.17075 0.0
S1159 S 0.84322 0.48094 0.2097 0.0
N1160 N 0.86104 0.47214 0.22456 0.0
N1161 N 0.83388 0.46222 0.18705 0.0
C1162 C 0.84519 0.44758 0.19092 0.0
C1163 C 0.86024 0.45322 0.2111 0.0
loop_
_geom_bond_atom_site_label_1
_geom_bond_atom_site_label_2
_geom_bond_distance
_geom_bond_site_symmetry_2
_ccdc_geom_bond_type
H0 C27 0.929 . S
N1 C26 1.433 . S
N1 C32 1.435 . S
N1 C38 1.423 . S
H2 C28 0.930 . S
H3 C31 0.931 . S
H4 C30 0.929 . S
H5 C33 0.930 . S
H6 C34 0.932 . S
H7 C37 0.929 . S
H8 C36 0.931 . S
H9 C39 0.929 . S
H10 C43 0.932 . S
H11 C40 0.931 . S
H12 C42 0.929 . S
H13 C45 0.929 . S
H14 C46 0.930 . S
H15 C48 0.929 . S
H16 C49 0.931 . S
H17 C51 0.930 . S
H18 C52 0.932 . S
H19 C54 0.931 . S
H20 C55 0.929 . S
H21 C57 0.929 . S
H22 C58 0.943 . S
H23 C60 0.929 . S
N24 C44 1.433 . S
N24 C50 1.435 . S
N24 C56 1.423 . S
H25 C61 0.932 . S
C26 N1 1.433 . S
C26 C27 1.363 . S
C26 C31 1.370 . S
C27 H0 0.929 . S
C27 C26 1.363 . S
C27 C28 1.385 . S
C28 H2 0.930 . S
C28 C27 1.385 . S
C28 C29 1.357 . S
C29 C28 1.357 . S
C29 C30 1.406 . S
C30 H4 0.929 . S
C30 C29 1.406 . S
C30 C31 1.391 . S
C31 H3 0.931 . S
C31 C26 1.370 . S
C31 C30 1.391 . S
C32 N1 1.435 . S
C32 C33 1.358 . S
C32 C37 1.371 . S
C33 H5 0.930 . S
C33 C32 1.358 . S
C33 C34 1.405 . S
C34 H6 0.932 . S
C34 C33 1.405 . S
C34 C35 1.383 . S
C35 C34 1.383 . S
C35 C36 1.393 . S
C36 H8 0.931 . S
C36 C35 1.393 . S
C36 C37 1.382 . S
C37 H7 0.929 . S
C37 C32 1.371 . S
C37 C36 1.382 . S
C38 N1 1.423 . S
C38 C39 1.362 . S
C38 C43 1.388 . S
C39 H9 0.929 . S
C39 C38 1.362 . S
C39 C40 1.376 . S
C40 H11 0.931 . S
C40 C39 1.376 . S
C40 C41 1.396 . S
C41 C40 1.396 . S
C41 C42 1.348 . S
C41 C59 1.472 1_455 S
C42 H12 0.929 . S
C42 C41 1.348 . S
C42 C43 1.443 . S
C43 H10 0.932 . S
C43 C38 1.388 . S
C43 C42 1.443 . S
C44 N24 1.433 . S
C44 C45 1.363 . S
C44 C49 1.370 . S
C45 H13 0.929 . S
C45 C44 1.363 . S
C45 C46 1.385 . S
C46 H14 0.930 . S
C46 C45 1.385 . S
C46 C47 1.357 . S
C47 C46 1.357 . S
C47 C48 1.406 . S
C48 H15 0.929 . S
C48 C47 1.406 . S
C48 C49 1.391 . S
C49 H16 0.931 . S
C49 C44 1.370 . S
C49 C48 1.391 . S
C50 N24 1.435 . S
C50 C51 1.358 . S
C50 C55 1.371 . S
C51 H17 0.930 . S
C51 C50 1.358 . S
C51 C52 1.405 . S
C52 H18 0.932 . S
C52 C51 1.405 . S
C52 C53 1.383 . S
C53 C52 1.383 . S
C53 C54 1.393 . S
C54 H19 0.931 . S
C54 C53 1.393 . S
C54 C55 1.382 . S
C55 H20 0.929 . S
C55 C50 1.371 . S
C55 C54 1.382 . S
C56 N24 1.423 . S
C56 C57 1.362 . S
C56 C61 1.388 . S
C57 H21 0.929 . S
C57 C56 1.362 . S
C57 C58 1.376 . S
C58 H22 0.943 . S
C58 C57 1.376 . S
C58 C59 1.396 . S
C59 C41 1.472 1_655 S
C59 C58 1.396 . S
C59 C60 1.348 . S
C60 H23 0.929 . S
C60 C59 1.348 . S
C60 C61 1.443 . S
C61 H25 0.932 . S
C61 C56 1.388 . S
C61 C60 1.443 . S
H62 C89 0.929 . S
N63 C88 1.433 . S
N63 C94 1.435 . S
N63 C100 1.423 . S
H64 C90 0.930 . S
H65 C93 0.931 . S
H66 C92 0.929 . S
H67 C95 0.930 . S
H68 C96 0.932 . S
H69 C99 0.929 . S
H70 C98 0.931 . S
H71 C101 0.929 . S
H72 C105 0.932 . S
H73 C102 0.931 . S
H74 C104 0.971 . S
H75 C107 0.929 . S
H76 C108 0.930 . S
H77 C110 0.929 . S
H78 C111 0.931 . S
H79 C113 0.930 . S
H80 C114 0.932 . S
H81 C116 0.931 . S
H82 C117 0.929 . S
H83 C119 0.929 . S
H84 C120 0.931 . S
H85 C122 0.929 . S
N86 C106 1.433 . S
N86 C112 1.435 . S
N86 C118 1.423 . S
H87 C123 0.932 . S
C88 N63 1.433 . S
C88 C89 1.363 . S
C88 C93 1.370 . S
C89 H62 0.929 . S
C89 C88 1.363 . S
C89 C90 1.385 . S
C90 H64 0.930 . S
C90 C89 1.385 . S
C90 C91 1.357 . S
C91 C90 1.357 . S
C91 C92 1.406 . S
C92 H66 0.929 . S
C92 C91 1.406 . S
C92 C93 1.391 . S
C93 H65 0.931 . S
C93 C88 1.370 . S
C93 C92 1.391 . S
C94 N63 1.435 . S
C94 C95 1.358 . S
C94 C99 1.371 . S
C95 H67 0.930 . S
C95 C94 1.358 . S
C95 C96 1.405 . S
C96 H68 0.932 . S
C96 C95 1.405 . S
C96 C97 1.383 . S
C97 C96 1.383 . S
C97 C98 1.393 . S
C98 H70 0.931 . S
C98 C97 1.393 . S
C98 C99 1.382 . S
C99 H69 0.929 . S
C99 C94 1.371 . S
C99 C98 1.382 . S
C100 N63 1.423 . S
C100 C101 1.362 . S
C100 C105 1.388 . S
C101 H71 0.929 . S
C101 C100 1.362 . S
C101 C102 1.376 . S
C102 H73 0.931 . S
C102 C101 1.376 . S
C102 C103 1.396 1_565 S
C103 C102 1.396 1_545 S
C103 C104 1.348 . S
C103 C121 1.472 . S
C104 H74 0.971 . S
C104 C103 1.348 . S
C104 C105 1.404 1_545 S
C105 H72 0.932 . S
C105 C100 1.388 . S
C105 C104 1.404 1_565 S
C106 N86 1.433 . S
C106 C107 1.363 . S
C106 C111 1.370 . S
C107 H75 0.929 . S
C107 C106 1.363 . S
C107 C108 1.385 . S
C108 H76 0.930 . S
C108 C107 1.385 . S
C108 C109 1.357 . S
C109 C108 1.357 . S
C109 C110 1.406 . S
C110 H77 0.929 . S
C110 C109 1.406 . S
C110 C111 1.391 . S
C111 H78 0.931 . S
C111 C106 1.370 . S
C111 C110 1.391 . S
C112 N86 1.435 . S
C112 C113 1.358 . S
C112 C117 1.371 . S
C113 H79 0.930 . S
C113 C112 1.358 . S
C113 C114 1.405 . S
C114 H80 0.932 . S
C114 C113 1.405 . S
C114 C115 1.383 . S
C115 C114 1.383 . S
C115 C116 1.393 . S
C116 H81 0.931 . S
C116 C115 1.393 . S
C116 C117 1.382 . S
C117 H82 0.929 . S
C117 C112 1.371 . S
C117 C116 1.382 . S
C118 N86 1.423 . S
C118 C119 1.362 . S
C118 C123 1.388 . S
C119 H83 0.929 . S
C119 C118 1.362 . S
C119 C120 1.376 . S
C120 H84 0.931 . S
C120 C119 1.376 . S
C120 C121 1.396 . S
C121 C103 1.472 . S
C121 C120 1.396 . S
C121 C122 1.348 . S
C122 H85 0.929 . S
C122 C121 1.348 . S
C122 C123 1.443 . S
C123 H87 0.932 . S
C123 C118 1.388 . S
C123 C122 1.443 . S
H124 C151 0.929 . S
N125 C150 1.433 . S
N125 C156 1.435 . S
N125 C162 1.423 . S
H126 C152 0.930 . S
H127 C155 0.931 . S
H128 C154 0.929 . S
H129 C157 0.930 . S
H130 C158 0.932 . S
H131 C161 0.929 . S
H132 C160 0.931 . S
H133 C163 0.929 . S
H134 C167 0.932 . S
H135 C164 0.931 . S
H136 C166 0.929 . S
H137 C169 0.929 . S
H138 C170 0.930 . S
H139 C172 0.929 . S
H140 C173 0.931 . S
H141 C175 0.930 . S
H142 C176 0.932 . S
H143 C178 0.931 . S
H144 C179 0.929 . S
H145 C181 0.929 . S
H146 C182 0.931 . S
H147 C184 0.929 . S
N148 C168 1.433 . S
N148 C174 1.435 . S
N148 C180 1.423 . S
H149 C185 0.932 . S
C150 N125 1.433 . S
C150 C151 1.363 . S
C150 C155 1.370 . S
C151 H124 0.929 . S
C151 C150 1.363 . S
C151 C152 1.385 . S
C152 H126 0.930 . S
C152 C151 1.385 . S
C152 C153 1.357 . S
C153 C152 1.357 . S
C153 C154 1.406 . S
C154 H128 0.929 . S
C154 C153 1.406 . S
C154 C155 1.391 . S
C155 H127 0.931 . S
C155 C150 1.370 . S
C155 C154 1.391 . S
C156 N125 1.435 . S
C156 C157 1.358 . S
C156 C161 1.371 . S
C157 H129 0.930 . S
C157 C156 1.358 . S
C157 C158 1.405 . S
C158 H130 0.932 . S
C158 C157 1.405 . S
C158 C159 1.383 . S
C159 C158 1.383 . S
C159 C160 1.393 . S
C160 H132 0.931 . S
C160 C159 1.393 . S
C160 C161 1.382 . S
C161 H131 0.929 . S
C161 C156 1.371 . S
C161 C160 1.382 . S
C162 N125 1.423 . S
C162 C163 1.362 . S
C162 C167 1.388 . S
C163 H133 0.929 . S
C163 C162 1.362 . S
C163 C164 1.376 . S
C164 H135 0.931 . S
C164 C163 1.376 . S
C164 C165 1.396 . S
C165 C164 1.396 . S
C165 C166 1.348 . S
C165 C183 1.472 . S
C166 H136 0.929 . S
C166 C165 1.348 . S
C166 C167 1.443 . S
C167 H134 0.932 . S
C167 C162 1.388 . S
C167 C166 1.443 . S
C168 N148 1.433 . S
C168 C169 1.363 . S
C168 C173 1.370 . S
C169 H137 0.929 . S
C169 C168 1.363 . S
C169 C170 1.385 . S
C170 H138 0.930 . S
C170 C169 1.385 . S
C170 C171 1.357 . S
C171 C170 1.357 . S
C171 C172 1.406 . S
C172 H139 0.929 . S
C172 C171 1.406 . S
C172 C173 1.391 . S
C173 H140 0.931 . S
C173 C168 1.370 . S
C173 C172 1.391 . S
C174 N148 1.435 . S
C174 C175 1.358 . S
C174 C179 1.371 . S
C175 H141 0.930 . S
C175 C174 1.358 . S
C175 C176 1.405 . S
C176 H142 0.932 . S
C176 C175 1.405 . S
C176 C177 1.383 . S
C177 C176 1.383 . S
C177 C178 1.393 . S
C178 H143 0.931 . S
C178 C177 1.393 . S
C178 C179 1.382 . S
C179 H144 0.929 . S
C179 C174 1.371 . S
C179 C178 1.382 . S
C180 N148 1.423 . S
C180 C181 1.362 . S
C180 C185 1.388 . S
C181 H145 0.929 . S
C181 C180 1.362 . S
C181 C182 1.376 . S
C182 H146 0.931 . S
C182 C181 1.376 . S
C182 C183 1.396 . S
C183 C165 1.472 . S
C183 C182 1.396 . S
C183 C184 1.348 . S
C184 H147 0.929 . S
C184 C183 1.348 . S
C184 C185 1.443 . S
C185 H149 0.932 . S
C185 C180 1.388 . S
C185 C184 1.443 . S
H186 C213 0.929 . S
N187 C212 1.433 . S
N187 C218 1.435 . S
N187 C224 1.423 . S
H188 C214 0.930 . S
H189 C217 0.931 . S
H190 C216 0.929 . S
H191 C219 0.930 . S
H192 C220 0.932 . S
H193 C223 0.929 . S
H194 C222 0.931 . S
H195 C225 0.929 . S
H196 C229 0.932 . S
H197 C226 0.931 . S
H198 C228 0.929 . S
H199 C231 0.929 . S
H200 C232 0.930 . S
H201 C234 0.929 . S
H202 C235 0.931 . S
H203 C237 0.930 . S
H204 C238 0.932 . S
H205 C240 0.931 . S
H206 C241 0.929 . S
H207 C243 0.929 . S
H208 C244 0.934 . S
H209 C246 0.929 . S
N210 C230 1.433 . S
N210 C236 1.435 . S
N210 C242 1.423 . S
H211 C247 0.932 . S
C212 N187 1.433 . S
C212 C213 1.363 . S
C212 C217 1.370 . S
C213 H186 0.929 . S
C213 C212 1.363 . S
C213 C214 1.385 . S
C214 H188 0.930 . S
C214 C213 1.385 . S
C214 C215 1.357 . S
C215 C214 1.357 . S
C215 C216 1.406 . S
C216 H190 0.929 . S
C216 C215 1.406 . S
C216 C217 1.391 . S
C217 H189 0.931 . S
C217 C212 1.370 . S
C217 C216 1.391 . S
C218 N187 1.435 . S
C218 C219 1.358 . S
C218 C223 1.371 . S
C219 H191 0.930 . S
C219 C218 1.358 . S
C219 C220 1.405 . S
C220 H192 0.932 . S
C220 C219 1.405 . S
C220 C221 1.383 . S
C221 C220 1.383 . S
C221 C222 1.393 . S
C222 H194 0.931 . S
C222 C221 1.393 . S
C222 C223 1.382 . S
C223 H193 0.929 . S
C223 C218 1.371 . S
C223 C222 1.382 . S
C224 N187 1.423 . S
C224 C225 1.362 . S
C224 C229 1.388 . S
C225 H195 0.929 . S
C225 C224 1.362 . S
C225 C226 1.376 . S
C226 H197 0.931 . S
C226 C225 1.376 . S
C226 C227 1.396 . S
C227 C226 1.396 . S
C227 C228 1.348 . S
C227 C245 1.472 1_455 S
C228 H198 0.929 . S
C228 C227 1.348 . S
C228 C229 1.443 . S
C229 H196 0.932 . S
C229 C224 1.388 . S
C229 C228 1.443 . S
C230 N210 1.433 . S
C230 C231 1.363 . S
C230 C235 1.370 . S
C231 H199 0.929 . S
C231 C230 1.363 . S
C231 C232 1.385 . S
C232 H200 0.930 . S
C232 C231 1.385 . S
C232 C233 1.357 . S
C233 C232 1.357 . S
C233 C234 1.406 . S
C234 H201 0.929 . S
C234 C233 1.406 . S
C234 C235 1.391 . S
C235 H202 0.931 . S
C235 C230 1.370 . S
C235 C234 1.391 . S
C236 N210 1.435 . S
C236 C237 1.358 . S
C236 C241 1.371 . S
C237 H203 0.930 . S
C237 C236 1.358 . S
C237 C238 1.405 . S
C238 H204 0.932 . S
C238 C237 1.405 . S
C238 C239 1.383 . S
C239 C238 1.383 . S
C239 C240 1.393 . S
C240 H205 0.931 . S
C240 C239 1.393 . S
C240 C241 1.382 . S
C241 H206 0.929 . S
C241 C236 1.371 . S
C241 C240 1.382 . S
C242 N210 1.423 . S
C242 C243 1.362 . S
C242 C247 1.388 . S
C243 H207 0.929 . S
C243 C242 1.362 . S
C243 C244 1.376 . S
C244 H208 0.934 . S
C244 C243 1.376 . S
C244 C245 1.396 . S
C245 C227 1.472 1_655 S
C245 C244 1.396 . S
C245 C246 1.348 . S
C246 H209 0.929 . S
C246 C245 1.348 . S
C246 C247 1.443 . S
C247 H211 0.932 . S
C247 C242 1.388 . S
C247 C246 1.443 . S
H248 C275 0.929 . S
N249 C274 1.433 . S
N249 C280 1.435 . S
N249 C286 1.423 . S
H250 C276 0.933 . S
H251 C279 0.931 . S
H252 C278 0.929 . S
H253 C281 0.930 . S
H254 C282 0.932 . S
H255 C285 0.929 . S
H256 C284 0.931 . S
H257 C287 0.929 . S
H258 C291 0.932 . S
H259 C288 0.958 . S
H260 C290 0.929 . S
H261 C293 0.929 . S
H262 C294 0.930 . S
H263 C296 0.929 . S
H264 C297 0.931 . S
H265 C299 0.930 . S
H266 C300 0.932 . S
H267 C302 0.931 . S
H268 C303 0.929 . S
H269 C305 0.929 . S
H270 C306 0.931 1_545 S
H271 C308 0.929 . S
N272 C292 1.433 . S
N272 C298 1.435 1_554 S
N272 C304 1.423 . S
H273 C309 0.932 . S
C274 N249 1.433 . S
C274 C275 1.363 . S
C274 C279 1.409 . S
C275 H248 0.929 . S
C275 C274 1.363 . S
C275 C276 1.425 . S
C276 H250 0.933 . S
C276 C275 1.425 . S
C276 C277 1.316 1_556 S
C277 C276 1.316 1_554 S
C277 C278 1.406 . S
C278 H252 0.929 . S
C278 C277 1.406 . S
C278 C279 1.354 1_554 S
C279 H251 0.931 . S
C279 C274 1.409 . S
C279 C278 1.354 1_556 S
C280 N249 1.435 . S
C280 C281 1.358 . S
C280 C285 1.371 . S
C281 H253 0.930 . S
C281 C280 1.358 . S
C281 C282 1.405 . S
C282 H254 0.932 . S
C282 C281 1.405 . S
C282 C283 1.383 . S
C283 C282 1.383 . S
C283 C284 1.393 . S
C284 H256 0.931 . S
C284 C283 1.393 . S
C284 C285 1.382 . S
C285 H255 0.929 . S
C285 C280 1.371 . S
C285 C284 1.382 . S
C286 N249 1.423 . S
C286 C287 1.362 . S
C286 C291 1.388 . S
C287 H257 0.929 . S
C287 C286 1.362 . S
C287 C288 1.376 . S
C288 H259 0.958 . S
C288 C287 1.376 . S
C288 C289 1.396 . S
C289 C288 1.396 . S
C289 C290 1.348 . S
C289 C307 1.461 1_545 S
C290 H260 0.929 . S
C290 C289 1.348 . S
C290 C291 1.443 . S
C291 H258 0.932 . S
C291 C286 1.388 . S
C291 C290 1.443 . S
C292 N272 1.433 . S
C292 C293 1.363 . S
C292 C297 1.370 . S
C293 H261 0.929 . S
C293 C292 1.363 . S
C293 C294 1.385 . S
C294 H262 0.930 . S
C294 C293 1.385 . S
C294 C295 1.357 . S
C295 C294 1.357 . S
C295 C296 1.406 . S
C296 H263 0.929 . S
C296 C295 1.406 . S
C296 C297 1.391 . S
C297 H264 0.931 . S
C297 C292 1.370 . S
C297 C296 1.391 . S
C298 N272 1.435 1_556 S
C298 C299 1.358 1_556 S
C298 C303 1.371 . S
C299 H265 0.930 . S
C299 C298 1.358 1_554 S
C299 C300 1.405 1_554 S
C300 H266 0.932 . S
C300 C299 1.405 1_556 S
C300 C301 1.383 . S
C301 C300 1.383 . S
C301 C302 1.393 . S
C302 H267 0.931 . S
C302 C301 1.393 . S
C302 C303 1.382 . S
C303 H268 0.929 . S
C303 C298 1.371 . S
C303 C302 1.382 . S
C304 N272 1.423 . S
C304 C305 1.362 . S
C304 C309 1.388 1_554 S
C305 H269 0.929 . S
C305 C304 1.362 . S
C305 C306 1.376 . S
C306 H270 0.931 1_565 S
C306 C305 1.376 . S
C306 C307 1.396 1_554 S
C307 C289 1.461 1_565 S
C307 C306 1.396 1_556 S
C307 C308 1.360 . S
C308 H271 0.929 . S
C308 C307 1.360 . S
C308 C309 1.443 . S
C309 H273 0.932 . S
C309 C304 1.388 1_556 S
C309 C308 1.443 . S
H310 C337 0.929 . S
N311 C336 1.433 . S
N311 C342 1.435 . S
N311 C348 1.423 . S
H312 C338 0.930 . S
H313 C341 0.931 . S
H314 C340 0.929 . S
H315 C343 0.930 . S
H316 C344 0.932 . S
H317 C347 0.929 . S
H318 C346 0.931 . S
H319 C349 0.929 . S
H320 C353 0.932 . S
H321 C350 0.931 . S
H322 C352 0.929 . S
H323 C355 0.929 . S
H324 C356 0.930 . S
H325 C358 0.929 . S
H326 C359 0.931 . S
H327 C361 0.930 . S
H328 C362 0.932 . S
H329 C364 0.931 . S
H330 C365 0.929 . S
H331 C367 0.929 . S
H332 C368 0.931 . S
H333 C370 0.929 . S
N334 C354 1.433 . S
N334 C360 1.435 . S
N334 C366 1.423 . S
H335 C371 0.932 . S
C336 N311 1.433 . S
C336 C337 1.363 . S
C336 C341 1.370 . S
C337 H310 0.929 . S
C337 C336 1.363 . S
C337 C338 1.385 . S
C338 H312 0.930 . S
C338 C337 1.385 . S
C338 C339 1.357 . S
C339 C338 1.357 . S
C339 C340 1.406 . S
C340 H314 0.929 . S
C340 C339 1.406 . S
C340 C341 1.391 . S
C341 H313 0.931 . S
C341 C336 1.370 . S
C341 C340 1.391 . S
C342 N311 1.435 . S
C342 C343 1.358 . S
C342 C347 1.371 . S
C343 H315 0.930 . S
C343 C342 1.358 . S
C343 C344 1.405 . S
C344 H316 0.932 . S
C344 C343 1.405 . S
C344 C345 1.383 . S
C345 C344 1.383 . S
C345 C346 1.393 . S
C346 H318 0.931 . S
C346 C345 1.393 . S
C346 C347 1.382 . S
C347 H317 0.929 . S
C347 C342 1.371 . S
C347 C346 1.382 . S
C348 N311 1.423 . S
C348 C349 1.362 . S
C348 C353 1.388 . S
C349 H319 0.929 . S
C349 C348 1.362 . S
C349 C350 1.376 . S
C350 H321 0.931 . S
C350 C349 1.376 . S
C350 C351 1.396 . S
C351 C350 1.396 . S
C351 C352 1.348 . S
C351 C369 1.472 . S
C352 H322 0.929 . S
C352 C351 1.348 . S
C352 C353 1.443 . S
C353 H320 0.932 . S
C353 C348 1.388 . S
C353 C352 1.443 . S
C354 N334 1.433 . S
C354 C355 1.363 . S
C354 C359 1.370 . S
C355 H323 0.929 . S
C355 C354 1.363 . S
C355 C356 1.385 . S
C356 H324 0.930 . S
C356 C355 1.385 . S
C356 C357 1.357 . S
C357 C356 1.357 . S
C357 C358 1.406 . S
C358 H325 0.929 . S
C358 C357 1.406 . S
C358 C359 1.391 . S
C359 H326 0.931 . S
C359 C354 1.370 . S
C359 C358 1.391 . S
C360 N334 1.435 . S
C360 C361 1.358 . S
C360 C365 1.371 . S
C361 H327 0.930 . S
C361 C360 1.358 . S
C361 C362 1.405 . S
C362 H328 0.932 . S
C362 C361 1.405 . S
C362 C363 1.383 . S
C363 C362 1.383 . S
C363 C364 1.393 . S
C364 H329 0.931 . S
C364 C363 1.393 . S
C364 C365 1.382 . S
C365 H330 0.929 . S
C365 C360 1.371 . S
C365 C364 1.382 . S
C366 N334 1.423 . S
C366 C367 1.362 . S
C366 C371 1.388 . S
C367 H331 0.929 . S
C367 C366 1.362 . S
C367 C368 1.376 . S
C368 H332 0.931 . S
C368 C367 1.376 . S
C368 C369 1.396 . S
C369 C351 1.472 . S
C369 C368 1.396 . S
C369 C370 1.348 . S
C370 H333 0.929 . S
C370 C369 1.348 . S
C370 C371 1.443 . S
C371 H335 0.932 . S
C371 C366 1.388 . S
C371 C370 1.443 . S
Li372 N389 1.990 . S
Li372 O432 1.956 . S
Li372 O433 1.970 . S
Li372 O434 1.961 . S
Li373 N397 1.990 . S
Li373 O432 1.970 . S
Li373 O433 1.956 . S
Li373 O435 1.961 . S
Li374 N419 1.990 . S
Li374 O432 1.961 . S
Li374 O434 1.956 . S
Li374 O435 1.970 . S
Li375 N425 1.990 . S
Li375 O433 1.961 . S
Li375 O434 1.970 . S
Li375 O435 1.956 . S
C376 C378 1.348 . S
C376 C379 1.356 . S
C376 O432 1.325 . S
N377 C380 1.314 . S
N377 C381 1.279 . S
C378 C376 1.348 . S
C378 C380 1.353 . S
C378 H436 0.929 . S
C379 C376 1.356 . S
C379 C381 1.358 . S
C379 H437 0.930 . S
C380 N377 1.314 . S
C380 C378 1.353 . S
C380 H438 0.930 . S
C381 N377 1.279 . S
C381 C379 1.358 . S
C381 H439 0.930 . S
C382 C385 1.348 . S
C382 C386 1.356 . S
C382 O433 1.325 . S
C383 N384 1.279 . S
C383 C386 1.358 . S
C383 H440 0.930 . S
N384 C383 1.279 . S
N384 C387 1.314 . S
C385 C382 1.348 . S
C385 C387 1.353 . S
C385 H441 0.929 . S
C386 C382 1.356 . S
C386 C383 1.358 . S
C386 H442 0.930 . S
C387 N384 1.314 . S
C387 C385 1.353 . S
C387 H443 0.930 . S
C388 N389 1.314 . S
C388 C393 1.353 . S
C388 H394 0.930 . S
N389 Li372 1.990 . S
N389 C388 1.314 . S
N389 C391 1.279 . S
C390 C391 1.358 . S
C390 C392 1.356 . S
C390 H444 0.930 . S
C391 N389 1.279 . S
C391 C390 1.358 . S
C391 H395 0.930 . S
C392 C390 1.356 . S
C392 C393 1.348 . S
C393 C388 1.353 . S
C393 C392 1.348 . S
C393 H445 0.929 . S
H394 C388 0.930 . S
H395 C391 0.930 . S
C396 N397 1.314 . S
C396 C398 1.353 . S
C396 H402 0.930 . S
N397 Li373 1.990 . S
N397 C396 1.314 . S
N397 C400 1.279 . S
C398 C396 1.353 . S
C398 C401 1.348 . S
C398 H446 0.929 . S
C399 C400 1.358 . S
C399 C401 1.356 . S
C399 H447 0.930 . S
C400 N397 1.279 . S
C400 C399 1.358 . S
C400 H403 0.930 . S
C401 C398 1.348 . S
C401 C399 1.356 . S
H402 C396 0.930 . S
H403 C400 0.930 . S
C404 C406 1.348 . S
C404 C407 1.356 . S
C404 O434 1.325 . S
N405 C408 1.314 . S
N405 C409 1.279 . S
C406 C404 1.348 . S
C406 C408 1.353 . S
C406 H448 0.929 . S
C407 C404 1.356 . S
C407 C409 1.358 . S
C407 H449 0.930 . S
C408 N405 1.314 . S
C408 C406 1.353 . S
C408 H450 0.930 . S
C409 N405 1.279 . S
C409 C407 1.358 . S
C409 H451 0.930 . S
C410 C411 1.348 . S
C410 C412 1.356 . S
C410 O435 1.325 . S
C411 C410 1.348 . S
C411 C413 1.353 . S
C411 H452 0.929 . S
C412 C410 1.356 . S
C412 C414 1.358 . S
C412 H453 0.930 . S
C413 C411 1.353 . S
C413 N415 1.314 . S
C413 H454 0.930 . S
C414 C412 1.358 . S
C414 N415 1.279 . S
C414 H455 0.930 . S
N415 C413 1.314 . S
N415 C414 1.279 . S
C416 C418 1.353 . S
C416 N419 1.314 . S
C416 H422 0.930 . S
C417 N419 1.279 . S
C417 C420 1.358 . S
C417 H423 0.930 . S
C418 C416 1.353 . S
C418 C421 1.348 . S
C418 H456 0.929 . S
N419 Li374 1.990 . S
N419 C416 1.314 . S
N419 C417 1.279 . S
C420 C417 1.358 . S
C420 C421 1.356 . S
C420 H457 0.930 . S
C421 C418 1.348 . S
C421 C420 1.356 . S
H422 C416 0.930 . S
H423 C417 0.930 . S
C424 N425 1.314 . S
C424 C426 1.353 . S
C424 H430 0.930 . S
N425 Li375 1.990 . S
N425 C424 1.314 . S
N425 C428 1.279 . S
C426 C424 1.353 . S
C426 C429 1.348 . S
C426 H458 0.929 . S
C427 C428 1.358 . S
C427 C429 1.356 . S
C427 H459 0.930 . S
C428 N425 1.279 . S
C428 C427 1.358 . S
C428 H431 0.930 . S
C429 C426 1.348 . S
C429 C427 1.356 . S
H430 C424 0.930 . S
H431 C428 0.930 . S
O432 Li372 1.956 . S
O432 Li373 1.970 . S
O432 Li374 1.961 . S
O432 C376 1.325 . S
O433 Li372 1.970 . S
O433 Li373 1.956 . S
O433 Li375 1.961 . S
O433 C382 1.325 . S
O434 Li372 1.961 . S
O434 Li374 1.956 . S
O434 Li375 1.970 . S
O434 C404 1.325 . S
O435 Li373 1.961 . S
O435 Li374 1.970 . S
O435 Li375 1.956 . S
O435 C410 1.325 . S
H436 C378 0.929 . S
H437 C379 0.930 . S
H438 C380 0.930 . S
H439 C381 0.930 . S
H440 C383 0.930 . S
H441 C385 0.929 . S
H442 C386 0.930 . S
H443 C387 0.930 . S
H444 C390 0.930 . S
H445 C393 0.929 . S
H446 C398 0.929 . S
H447 C399 0.930 . S
H448 C406 0.929 . S
H449 C407 0.930 . S
H450 C408 0.930 . S
H451 C409 0.930 . S
H452 C411 0.929 . S
H453 C412 0.930 . S
H454 C413 0.930 . S
H455 C414 0.930 . S
H456 C418 0.929 . S
H457 C420 0.930 . S
H458 C426 0.929 . S
H459 C427 0.930 . S
Li460 N477 1.990 . S
Li460 O520 1.956 . S
Li460 O521 1.970 . S
Li460 O522 1.961 . S
Li461 N485 1.990 . S
Li461 O520 1.970 . S
Li461 O521 1.956 . S
Li461 O523 1.961 . S
Li462 N507 1.990 . S
Li462 O520 1.961 . S
Li462 O522 1.956 . S
Li462 O523 1.970 . S
Li463 N513 1.990 . S
Li463 O521 1.961 . S
Li463 O522 1.970 . S
Li463 O523 1.956 . S
C464 C466 1.348 . S
C464 C467 1.356 . S
C464 O520 1.325 . S
N465 C468 1.314 . S
N465 C469 1.279 . S
C466 C464 1.348 . S
C466 C468 1.353 . S
C466 H524 0.929 . S
C467 C464 1.356 . S
C467 C469 1.358 . S
C467 H525 0.930 . S
C468 N465 1.314 . S
C468 C466 1.353 . S
C468 H526 0.930 . S
C469 N465 1.279 . S
C469 C467 1.358 . S
C469 H527 0.930 . S
C470 C473 1.348 . S
C470 C474 1.356 . S
C470 O521 1.325 . S
C471 N472 1.279 . S
C471 C474 1.358 . S
C471 H528 0.930 . S
N472 C471 1.279 . S
N472 C475 1.314 . S
C473 C470 1.348 . S
C473 C475 1.353 . S
C473 H529 0.929 . S
C474 C470 1.356 . S
C474 C471 1.358 . S
C474 H530 0.930 . S
C475 N472 1.314 . S
C475 C473 1.353 . S
C475 H531 0.930 . S
C476 N477 1.314 . S
C476 C481 1.353 . S
C476 H482 0.930 . S
N477 Li460 1.990 . S
N477 C476 1.314 . S
N477 C479 1.279 . S
C478 C479 1.358 . S
C478 C480 1.356 . S
C478 H532 0.930 . S
C479 N477 1.279 . S
C479 C478 1.358 . S
C479 H483 0.930 . S
C480 C478 1.356 . S
C480 C481 1.348 . S
C481 C476 1.353 . S
C481 C480 1.348 . S
C481 H533 0.929 . S
H482 C476 0.930 . S
H483 C479 0.930 . S
C484 N485 1.314 . S
C484 C486 1.353 . S
C484 H490 0.930 . S
N485 Li461 1.990 . S
N485 C484 1.314 . S
N485 C488 1.279 . S
C486 C484 1.353 . S
C486 C489 1.348 . S
C486 H534 0.929 . S
C487 C488 1.358 . S
C487 C489 1.356 . S
C487 H535 0.930 . S
C488 N485 1.279 . S
C488 C487 1.358 . S
C488 H491 0.930 . S
C489 C486 1.348 . S
C489 C487 1.356 . S
H490 C484 0.930 . S
H491 C488 0.930 . S
C492 C494 1.348 . S
C492 C495 1.356 . S
C492 O522 1.325 . S
N493 C496 1.314 . S
N493 C497 1.279 . S
C494 C492 1.348 . S
C494 C496 1.353 . S
C494 H536 0.929 . S
C495 C492 1.356 . S
C495 C497 1.358 . S
C495 H537 0.930 . S
C496 N493 1.314 . S
C496 C494 1.353 . S
C496 H538 0.930 . S
C497 N493 1.279 . S
C497 C495 1.358 . S
C497 H539 0.930 . S
C498 C499 1.348 . S
C498 C500 1.356 . S
C498 O523 1.325 . S
C499 C498 1.348 . S
C499 C501 1.353 . S
C499 H540 0.929 . S
C500 C498 1.356 . S
C500 C502 1.358 . S
C500 H541 0.930 . S
C501 C499 1.353 . S
C501 N503 1.314 . S
C501 H542 0.930 . S
C502 C500 1.358 . S
C502 N503 1.279 . S
C502 H543 0.930 . S
N503 C501 1.314 . S
N503 C502 1.279 . S
C504 C506 1.353 . S
C504 N507 1.314 . S
C504 H510 0.930 . S
C505 N507 1.279 . S
C505 C508 1.358 . S
C505 H511 0.930 . S
C506 C504 1.353 . S
C506 C509 1.348 . S
C506 H544 0.929 . S
N507 Li462 1.990 . S
N507 C504 1.314 . S
N507 C505 1.279 . S
C508 C505 1.358 . S
C508 C509 1.356 . S
C508 H545 0.930 . S
C509 C506 1.348 . S
C509 C508 1.356 . S
H510 C504 0.930 . S
H511 C505 0.930 . S
C512 N513 1.314 . S
C512 C514 1.353 . S
C512 H518 0.930 . S
N513 Li463 1.990 . S
N513 C512 1.314 . S
N513 C516 1.279 . S
C514 C512 1.353 . S
C514 C517 1.348 . S
C514 H546 0.929 . S
C515 C516 1.358 . S
C515 C517 1.356 . S
C515 H547 0.930 . S
C516 N513 1.279 . S
C516 C515 1.358 . S
C516 H519 0.930 . S
C517 C514 1.348 . S
C517 C515 1.356 . S
H518 C512 0.930 . S
H519 C516 0.930 . S
O520 Li460 1.956 . S
O520 Li461 1.970 . S
O520 Li462 1.961 . S
O520 C464 1.325 . S
O521 Li460 1.970 . S
O521 Li461 1.956 . S
O521 Li463 1.961 . S
O521 C470 1.325 . S
O522 Li460 1.961 . S
O522 Li462 1.956 . S
O522 Li463 1.970 . S
O522 C492 1.325 . S
O523 Li461 1.961 . S
O523 Li462 1.970 . S
O523 Li463 1.956 . S
O523 C498 1.325 . S
H524 C466 0.929 . S
H525 C467 0.930 . S
H526 C468 0.930 . S
H527 C469 0.930 . S
H528 C471 0.930 . S
H529 C473 0.929 . S
H530 C474 0.930 . S
H531 C475 0.930 . S
H532 C478 0.930 . S
H533 C481 0.929 . S
H534 C486 0.929 . S
H535 C487 0.930 . S
H536 C494 0.929 . S
H537 C495 0.930 . S
H538 C496 0.930 . S
H539 C497 0.930 . S
H540 C499 0.929 . S
H541 C500 0.930 . S
H542 C501 0.930 . S
H543 C502 0.930 . S
H544 C506 0.929 . S
H545 C508 0.930 . S
H546 C514 0.929 . S
H547 C515 0.930 . S
Li548 N565 1.990 . S
Li548 O608 1.956 . S
Li548 O609 1.970 . S
Li548 O610 1.961 . S
Li549 N573 1.990 . S
Li549 O608 1.970 . S
Li549 O609 1.956 . S
Li549 O611 1.961 . S
Li550 N595 1.990 . S
Li550 O608 1.961 . S
Li550 O610 1.956 . S
Li550 O611 1.970 . S
Li551 N601 1.990 . S
Li551 O609 1.961 . S
Li551 O610 1.970 . S
Li551 O611 1.956 . S
C552 C554 1.348 . S
C552 C555 1.356 . S
C552 O608 1.325 . S
N553 C556 1.314 . S
N553 C557 1.279 . S
C554 C552 1.348 . S
C554 C556 1.353 . S
C554 H612 0.929 . S
C555 C552 1.356 . S
C555 C557 1.358 . S
C555 H613 0.930 . S
C556 N553 1.314 . S
C556 C554 1.353 . S
C556 H614 0.930 . S
C557 N553 1.279 . S
C557 C555 1.358 . S
C557 H615 0.930 . S
C558 C561 1.348 . S
C558 C562 1.356 . S
C558 O609 1.325 . S
C559 N560 1.279 . S
C559 C562 1.358 . S
C559 H616 0.930 . S
N560 C559 1.279 . S
N560 C563 1.314 . S
C561 C558 1.348 . S
C561 C563 1.353 . S
C561 H617 0.929 . S
C562 C558 1.356 . S
C562 C559 1.358 . S
C562 H618 0.930 . S
C563 N560 1.314 . S
C563 C561 1.353 . S
C563 H619 0.930 . S
C564 N565 1.314 . S
C564 C569 1.353 . S
C564 H570 0.930 . S
N565 Li548 1.990 . S
N565 C564 1.314 . S
N565 C567 1.279 . S
C566 C567 1.358 . S
C566 C568 1.356 . S
C566 H620 0.930 . S
C567 N565 1.279 . S
C567 C566 1.358 . S
C567 H571 0.930 . S
C568 C566 1.356 . S
C568 C569 1.348 . S
C569 C564 1.353 . S
C569 C568 1.348 . S
C569 H621 0.929 . S
H570 C564 0.930 . S
H571 C567 0.930 . S
C572 N573 1.314 . S
C572 C574 1.353 . S
C572 H578 0.930 . S
N573 Li549 1.990 . S
N573 C572 1.314 . S
N573 C576 1.279 . S
C574 C572 1.353 . S
C574 C577 1.348 . S
C574 H622 0.929 . S
C575 C576 1.358 . S
C575 C577 1.356 . S
C575 H623 0.930 . S
C576 N573 1.279 . S
C576 C575 1.358 . S
C576 H579 0.930 . S
C577 C574 1.348 . S
C577 C575 1.356 . S
H578 C572 0.930 . S
H579 C576 0.930 . S
C580 C582 1.348 . S
C580 C583 1.356 . S
C580 O610 1.325 . S
N581 C584 1.314 . S
N581 C585 1.279 . S
C582 C580 1.348 . S
C582 C584 1.353 . S
C582 H624 0.929 . S
C583 C580 1.356 . S
C583 C585 1.358 . S
C583 H625 0.930 . S
C584 N581 1.314 . S
C584 C582 1.353 . S
C584 H626 0.930 . S
C585 N581 1.279 . S
C585 C583 1.358 . S
C585 H627 0.930 . S
C586 C587 1.348 . S
C586 C588 1.356 . S
C586 O611 1.325 . S
C587 C586 1.348 . S
C587 C589 1.353 . S
C587 H628 0.929 . S
C588 C586 1.356 . S
C588 C590 1.358 . S
C588 H629 0.930 . S
C589 C587 1.353 . S
C589 N591 1.314 . S
C589 H630 0.930 . S
C590 C588 1.358 . S
C590 N591 1.279 . S
C590 H631 0.930 . S
N591 C589 1.314 . S
N591 C590 1.279 . S
C592 C594 1.353 . S
C592 N595 1.314 . S
C592 H598 0.930 . S
C593 N595 1.279 . S
C593 C596 1.358 . S
C593 H599 0.930 . S
C594 C592 1.353 . S
C594 C597 1.348 . S
C594 H632 0.929 . S
N595 Li550 1.990 . S
N595 C592 1.314 . S
N595 C593 1.279 . S
C596 C593 1.358 . S
C596 C597 1.356 . S
C596 H633 0.930 . S
C597 C594 1.348 . S
C597 C596 1.356 . S
H598 C592 0.930 . S
H599 C593 0.930 . S
C600 N601 1.314 . S
C600 C602 1.353 . S
C600 H606 0.930 . S
N601 Li551 1.990 . S
N601 C600 1.314 . S
N601 C604 1.279 . S
C602 C600 1.353 . S
C602 C605 1.348 . S
C602 H634 0.929 . S
C603 C604 1.358 . S
C603 C605 1.356 . S
C603 H635 0.930 . S
C604 N601 1.279 . S
C604 C603 1.358 . S
C604 H607 0.930 . S
C605 C602 1.348 . S
C605 C603 1.356 . S
H606 C600 0.930 . S
H607 C604 0.930 . S
O608 Li548 1.956 . S
O608 Li549 1.970 . S
O608 Li550 1.961 . S
O608 C552 1.325 . S
O609 Li548 1.970 . S
O609 Li549 1.956 . S
O609 Li551 1.961 . S
O609 C558 1.325 . S
O610 Li548 1.961 . S
O610 Li550 1.956 . S
O610 Li551 1.970 . S
O610 C580 1.325 . S
O611 Li549 1.961 . S
O611 Li550 1.970 . S
O611 Li551 1.956 . S
O611 C586 1.325 . S
H612 C554 0.929 . S
H613 C555 0.930 . S
H614 C556 0.930 . S
H615 C557 0.930 . S
H616 C559 0.930 . S
H617 C561 0.929 . S
H618 C562 0.930 . S
H619 C563 0.930 . S
H620 C566 0.930 . S
H621 C569 0.929 . S
H622 C574 0.929 . S
H623 C575 0.930 . S
H624 C582 0.929 . S
H625 C583 0.930 . S
H626 C584 0.930 . S
H627 C585 0.930 . S
H628 C587 0.929 . S
H629 C588 0.930 . S
H630 C589 0.930 . S
H631 C590 0.930 . S
H632 C594 0.929 . S
H633 C596 0.930 . S
H634 C602 0.929 . S
H635 C603 0.930 . S
Li636 N653 1.990 . S
Li636 O696 1.956 . S
Li636 O697 1.970 . S
Li636 O698 1.961 . S
Li637 N661 1.990 . S
Li637 O696 1.970 . S
Li637 O697 1.956 . S
Li637 O699 1.961 . S
Li638 N683 1.990 . S
Li638 O696 1.961 . S
Li638 O698 1.956 . S
Li638 O699 1.970 . S
Li639 N689 1.990 . S
Li639 O697 1.961 . S
Li639 O698 1.970 . S
Li639 O699 1.956 . S
C640 C642 1.348 . S
C640 C643 1.356 . S
C640 O696 1.325 . S
N641 C644 1.314 . S
N641 C645 1.279 . S
C642 C640 1.348 . S
C642 C644 1.353 . S
C642 H700 0.929 . S
C643 C640 1.356 . S
C643 C645 1.358 . S
C643 H701 0.930 . S
C644 N641 1.314 . S
C644 C642 1.353 . S
C644 H702 0.930 . S
C645 N641 1.279 . S
C645 C643 1.358 . S
C645 H703 0.930 . S
C646 C649 1.348 . S
C646 C650 1.356 . S
C646 O697 1.325 . S
C647 N648 1.279 . S
C647 C650 1.358 . S
C647 H704 0.930 . S
N648 C647 1.279 . S
N648 C651 1.314 . S
C649 C646 1.348 . S
C649 C651 1.353 . S
C649 H705 0.929 . S
C650 C646 1.356 . S
C650 C647 1.358 . S
C650 H706 0.930 . S
C651 N648 1.314 . S
C651 C649 1.353 . S
C651 H707 0.930 . S
C652 N653 1.314 . S
C652 C657 1.353 . S
C652 H658 0.930 . S
N653 Li636 1.990 . S
N653 C652 1.314 . S
N653 C655 1.279 . S
C654 C655 1.358 1_554 S
C654 C656 1.361 . S
C654 H708 0.930 . S
C655 N653 1.279 . S
C655 C654 1.358 1_556 S
C655 H659 0.930 . S
C656 C654 1.361 . S
C656 C657 1.301 1_554 S
C657 C652 1.353 . S
C657 C656 1.301 1_556 S
C657 H709 0.929 . S
H658 C652 0.930 . S
H659 C655 0.930 . S
C660 N661 1.314 . S
C660 C662 1.353 . S
C660 H666 0.930 . S
N661 Li637 1.990 . S
N661 C660 1.314 . S
N661 C664 1.279 . S
C662 C660 1.353 . S
C662 C665 1.348 . S
C662 H710 0.929 . S
C663 C664 1.358 . S
C663 C665 1.356 . S
C663 H711 0.930 . S
C664 N661 1.279 . S
C664 C663 1.358 . S
C664 H667 0.930 . S
C665 C662 1.348 . S
C665 C663 1.356 . S
H666 C660 0.930 . S
H667 C664 0.930 . S
C668 C670 1.348 . S
C668 C671 1.356 . S
C668 O698 1.325 . S
N669 C672 1.314 . S
N669 C673 1.279 . S
C670 C668 1.348 . S
C670 C672 1.353 . S
C670 H712 0.929 . S
C671 C668 1.356 . S
C671 C673 1.358 . S
C671 H713 0.930 . S
C672 N669 1.314 . S
C672 C670 1.353 . S
C672 H714 0.930 . S
C673 N669 1.279 . S
C673 C671 1.358 . S
C673 H715 0.930 . S
C674 C675 1.348 . S
C674 C676 1.356 . S
C674 O699 1.325 . S
C675 C674 1.348 . S
C675 C677 1.353 . S
C675 H716 0.929 . S
C676 C674 1.356 . S
C676 C678 1.358 . S
C676 H717 0.930 . S
C677 C675 1.353 . S
C677 N679 1.314 . S
C677 H718 0.930 . S
C678 C676 1.358 . S
C678 N679 1.279 . S
C678 H719 0.930 . S
N679 C677 1.314 . S
N679 C678 1.279 . S
C680 C682 1.353 . S
C680 N683 1.314 . S
C680 H686 0.930 . S
C681 N683 1.279 . S
C681 C684 1.358 . S
C681 H687 0.930 . S
C682 C680 1.353 . S
C682 C685 1.348 . S
C682 H720 0.929 . S
N683 Li638 1.990 . S
N683 C680 1.314 . S
N683 C681 1.279 . S
C684 C681 1.358 . S
C684 C685 1.356 . S
C684 H721 0.930 . S
C685 C682 1.348 . S
C685 C684 1.356 . S
H686 C680 0.930 . S
H687 C681 0.930 . S
C688 N689 1.314 . S
C688 C690 1.353 . S
C688 H694 0.930 . S
N689 Li639 1.990 . S
N689 C688 1.314 . S
N689 C692 1.279 . S
C690 C688 1.353 . S
C690 C693 1.348 . S
C690 H722 0.929 . S
C691 C692 1.358 . S
C691 C693 1.356 . S
C691 H723 0.930 . S
C692 N689 1.279 . S
C692 C691 1.358 . S
C692 H695 0.930 . S
C693 C690 1.348 . S
C693 C691 1.356 . S
H694 C688 0.930 . S
H695 C692 0.930 . S
O696 Li636 1.956 . S
O696 Li637 1.970 . S
O696 Li638 1.961 . S
O696 C640 1.325 . S
O697 Li636 1.970 . S
O697 Li637 1.956 . S
O697 Li639 1.961 . S
O697 C646 1.325 . S
O698 Li636 1.961 . S
O698 Li638 1.956 . S
O698 Li639 1.970 . S
O698 C668 1.325 . S
O699 Li637 1.961 . S
O699 Li638 1.970 . S
O699 Li639 1.956 . S
O699 C674 1.325 . S
H700 C642 0.929 . S
H701 C643 0.930 . S
H702 C644 0.930 . S
H703 C645 0.930 . S
H704 C647 0.930 . S
H705 C649 0.929 . S
H706 C650 0.930 . S
H707 C651 0.930 . S
H708 C654 0.930 . S
H709 C657 0.929 . S
H710 C662 0.929 . S
H711 C663 0.930 . S
H712 C670 0.929 . S
H713 C671 0.930 . S
H714 C672 0.930 . S
H715 C673 0.930 . S
H716 C675 0.929 . S
H717 C676 0.930 . S
H718 C677 0.930 . S
H719 C678 0.930 . S
H720 C682 0.929 . S
H721 C684 0.930 . S
H722 C690 0.929 . S
H723 C691 0.930 . S
Li724 N741 1.990 . S
Li724 O784 1.956 . S
Li724 O785 1.970 . S
Li724 O786 1.961 . S
Li725 N749 1.990 . S
Li725 O784 1.970 . S
Li725 O785 1.956 . S
Li725 O787 1.961 . S
Li726 N771 1.990 . S
Li726 O784 1.961 . S
Li726 O786 1.956 . S
Li726 O787 1.970 . S
Li727 N777 1.990 . S
Li727 O785 1.961 . S
Li727 O786 1.970 . S
Li727 O787 1.956 . S
C728 C730 1.348 . S
C728 C731 1.356 . S
C728 O784 1.325 . S
N729 C732 1.314 . S
N729 C733 1.279 . S
C730 C728 1.348 . S
C730 C732 1.353 . S
C730 H788 0.929 . S
C731 C728 1.356 . S
C731 C733 1.358 . S
C731 H789 0.930 . S
C732 N729 1.314 . S
C732 C730 1.353 . S
C732 H790 0.930 . S
C733 N729 1.279 . S
C733 C731 1.358 . S
C733 H791 0.930 . S
C734 C737 1.348 . S
C734 C738 1.356 . S
C734 O785 1.325 . S
C735 N736 1.279 . S
C735 C738 1.358 . S
C735 H792 0.930 . S
N736 C735 1.279 . S
N736 C739 1.314 . S
C737 C734 1.348 . S
C737 C739 1.353 . S
C737 H793 0.929 . S
C738 C734 1.356 . S
C738 C735 1.358 . S
C738 H794 0.930 . S
C739 N736 1.314 . S
C739 C737 1.353 . S
C739 H795 0.930 . S
C740 N741 1.314 . S
C740 C745 1.353 . S
C740 H746 0.930 . S
N741 Li724 1.990 . S
N741 C740 1.314 . S
N741 C743 1.279 . S
C742 C743 1.358 . S
C742 C744 1.356 . S
C742 H796 0.930 . S
C743 N741 1.279 . S
C743 C742 1.358 . S
C743 H747 0.930 . S
C744 C742 1.356 . S
C744 C745 1.348 . S
C745 C740 1.353 . S
C745 C744 1.348 . S
C745 H797 0.929 . S
H746 C740 0.930 . S
H747 C743 0.930 . S
C748 N749 1.314 . S
C748 C750 1.353 . S
C748 H754 0.930 . S
N749 Li725 1.990 . S
N749 C748 1.314 . S
N749 C752 1.279 . S
C750 C748 1.353 . S
C750 C753 1.348 . S
C750 H798 0.929 . S
C751 C752 1.358 . S
C751 C753 1.356 . S
C751 H799 0.930 . S
C752 N749 1.279 . S
C752 C751 1.358 . S
C752 H755 0.930 . S
C753 C750 1.348 . S
C753 C751 1.356 . S
H754 C748 0.930 . S
H755 C752 0.930 . S
C756 C758 1.348 . S
C756 C759 1.356 . S
C756 O786 1.325 . S
N757 C760 1.314 1_556 S
N757 C761 1.279 1_556 S
C758 C756 1.348 . S
C758 C760 1.353 . S
C758 H800 0.929 . S
C759 C756 1.356 . S
C759 C761 1.358 . S
C759 H801 0.930 . S
C760 N757 1.314 1_554 S
C760 C758 1.353 . S
C760 H802 0.930 1_554 S
C761 N757 1.279 1_554 S
C761 C759 1.358 . S
C761 H803 0.930 1_554 S
C762 C763 1.348 . S
C762 C764 1.356 . S
C762 O787 1.325 . S
C763 C762 1.348 . S
C763 C765 1.353 . S
C763 H804 0.929 . S
C764 C762 1.356 . S
C764 C766 1.358 . S
C764 H805 0.930 . S
C765 C763 1.353 . S
C765 N767 1.314 . S
C765 H806 0.930 . S
C766 C764 1.358 . S
C766 N767 1.279 . S
C766 H807 0.930 . S
N767 C765 1.314 . S
N767 C766 1.279 . S
C768 C770 1.353 . S
C768 N771 1.314 . S
C768 H774 0.930 . S
C769 N771 1.279 . S
C769 C772 1.358 1_554 S
C769 H775 0.931 1_554 S
C770 C768 1.353 . S
C770 C773 1.348 1_554 S
C770 H808 0.929 . S
N771 Li726 1.990 . S
N771 C768 1.314 . S
N771 C769 1.279 . S
C772 C769 1.358 1_556 S
C772 C773 1.356 . S
C772 H809 0.930 . S
C773 C770 1.348 1_556 S
C773 C772 1.356 . S
H774 C768 0.930 . S
H775 C769 0.931 1_556 S
C776 N777 1.314 . S
C776 C778 1.353 . S
C776 H782 0.930 . S
N777 Li727 1.990 . S
N777 C776 1.314 . S
N777 C780 1.279 . S
C778 C776 1.353 . S
C778 C781 1.348 . S
C778 H810 0.929 . S
C779 C780 1.358 . S
C779 C781 1.356 . S
C779 H811 0.930 . S
C780 N777 1.279 . S
C780 C779 1.358 . S
C780 H783 0.930 . S
C781 C778 1.348 . S
C781 C779 1.356 . S
H782 C776 0.930 . S
H783 C780 0.930 . S
O784 Li724 1.956 . S
O784 Li725 1.970 . S
O784 Li726 1.961 . S
O784 C728 1.325 . S
O785 Li724 1.970 . S
O785 Li725 1.956 . S
O785 Li727 1.961 . S
O785 C734 1.325 . S
O786 Li724 1.961 . S
O786 Li726 1.956 . S
O786 Li727 1.970 . S
O786 C756 1.325 . S
O787 Li725 1.961 . S
O787 Li726 1.970 . S
O787 Li727 1.956 . S
O787 C762 1.325 . S
H788 C730 0.929 . S
H789 C731 0.930 . S
H790 C732 0.930 . S
H791 C733 0.930 . S
H792 C735 0.930 . S
H793 C737 0.929 . S
H794 C738 0.930 . S
H795 C739 0.930 . S
H796 C742 0.930 . S
H797 C745 0.929 . S
H798 C750 0.929 . S
H799 C751 0.930 . S
H800 C758 0.929 . S
H801 C759 0.930 . S
H802 C760 0.930 1_556 S
H803 C761 0.930 1_556 S
H804 C763 0.929 . S
H805 C764 0.930 . S
H806 C765 0.930 . S
H807 C766 0.930 . S
H808 C770 0.929 . S
H809 C772 0.930 . S
H810 C778 0.929 . S
H811 C779 0.930 . S
Li812 N829 1.990 . S
Li812 O872 1.956 . S
Li812 O873 1.970 . S
Li812 O874 1.961 . S
Li813 N837 1.990 . S
Li813 O872 1.970 . S
Li813 O873 1.956 . S
Li813 O875 1.961 . S
Li814 N859 1.990 . S
Li814 O872 1.961 . S
Li814 O874 1.956 . S
Li814 O875 1.970 . S
Li815 N865 1.990 . S
Li815 O873 1.961 . S
Li815 O874 1.970 . S
Li815 O875 1.956 . S
C816 C818 1.348 . S
C816 C819 1.356 . S
C816 O872 1.325 . S
N817 C820 1.314 . S
N817 C821 1.279 . S
C818 C816 1.348 . S
C818 C820 1.353 . S
C818 H876 0.929 . S
C819 C816 1.356 . S
C819 C821 1.358 . S
C819 H877 0.930 . S
C820 N817 1.314 . S
C820 C818 1.353 . S
C820 H878 0.930 . S
C821 N817 1.279 . S
C821 C819 1.358 . S
C821 H879 0.930 . S
C822 C825 1.348 . S
C822 C826 1.356 . S
C822 O873 1.325 . S
C823 N824 1.279 . S
C823 C826 1.358 . S
C823 H880 0.930 . S
N824 C823 1.279 . S
N824 C827 1.314 . S
C825 C822 1.348 . S
C825 C827 1.353 . S
C825 H881 0.929 . S
C826 C822 1.356 . S
C826 C823 1.358 . S
C826 H882 0.930 . S
C827 N824 1.314 . S
C827 C825 1.353 . S
C827 H883 0.930 . S
C828 N829 1.314 . S
C828 C833 1.353 . S
C828 H834 0.930 . S
N829 Li812 1.990 . S
N829 C828 1.314 . S
N829 C831 1.279 . S
C830 C831 1.358 . S
C830 C832 1.356 . S
C830 H884 0.930 . S
C831 N829 1.279 . S
C831 C830 1.358 . S
C831 H835 0.930 . S
C832 C830 1.356 . S
C832 C833 1.348 . S
C833 C828 1.353 . S
C833 C832 1.348 . S
C833 H885 0.929 . S
H834 C828 0.930 . S
H835 C831 0.930 . S
C836 N837 1.314 . S
C836 C838 1.353 . S
C836 H842 0.930 . S
N837 Li813 1.990 . S
N837 C836 1.314 . S
N837 C840 1.279 . S
C838 C836 1.353 . S
C838 C841 1.348 . S
C838 H886 0.929 . S
C839 C840 1.358 . S
C839 C841 1.356 . S
C839 H887 0.930 . S
C840 N837 1.279 . S
C840 C839 1.358 . S
C840 H843 0.930 . S
C841 C838 1.348 . S
C841 C839 1.356 . S
H842 C836 0.930 . S
H843 C840 0.930 . S
C844 C846 1.348 . S
C844 C847 1.356 . S
C844 O874 1.325 . S
N845 C848 1.314 . S
N845 C849 1.279 . S
C846 C844 1.348 . S
C846 C848 1.353 . S
C846 H888 0.929 . S
C847 C844 1.356 . S
C847 C849 1.358 . S
C847 H889 0.930 . S
C848 N845 1.314 . S
C848 C846 1.353 . S
C848 H890 0.930 . S
C849 N845 1.279 . S
C849 C847 1.358 . S
C849 H891 0.930 . S
C850 C851 1.348 . S
C850 C852 1.356 . S
C850 O875 1.325 . S
C851 C850 1.348 . S
C851 C853 1.353 . S
C851 H892 0.929 . S
C852 C850 1.356 . S
C852 C854 1.358 . S
C852 H893 0.930 . S
C853 C851 1.353 . S
C853 N855 1.314 . S
C853 H894 0.930 . S
C854 C852 1.358 . S
C854 N855 1.279 . S
C854 H895 0.930 . S
N855 C853 1.314 . S
N855 C854 1.279 . S
C856 C858 1.353 . S
C856 N859 1.314 . S
C856 H862 0.930 . S
C857 N859 1.279 . S
C857 C860 1.358 . S
C857 H863 0.930 . S
C858 C856 1.353 . S
C858 C861 1.348 . S
C858 H896 0.929 . S
N859 Li814 1.990 . S
N859 C856 1.314 . S
N859 C857 1.279 . S
C860 C857 1.358 . S
C860 C861 1.356 . S
C860 H897 0.930 . S
C861 C858 1.348 . S
C861 C860 1.356 . S
H862 C856 0.930 . S
H863 C857 0.930 . S
C864 N865 1.314 . S
C864 C866 1.353 . S
C864 H870 0.930 . S
N865 Li815 1.990 . S
N865 C864 1.314 . S
N865 C868 1.279 . S
C866 C864 1.353 . S
C866 C869 1.348 . S
C866 H898 0.929 . S
C867 C868 1.358 . S
C867 C869 1.356 . S
C867 H899 0.930 . S
C868 N865 1.279 . S
C868 C867 1.358 . S
C868 H871 0.930 . S
C869 C866 1.348 . S
C869 C867 1.356 . S
H870 C864 0.930 . S
H871 C868 0.930 . S
O872 Li812 1.956 . S
O872 Li813 1.970 . S
O872 Li814 1.961 . S
O872 C816 1.325 . S
O873 Li812 1.970 . S
O873 Li813 1.956 . S
O873 Li815 1.961 . S
O873 C822 1.325 . S
O874 Li812 1.961 . S
O874 Li814 1.956 . S
O874 Li815 1.970 . S
O874 C844 1.325 . S
O875 Li813 1.961 . S
O875 Li814 1.970 . S
O875 Li815 1.956 . S
O875 C850 1.325 . S
H876 C818 0.929 . S
H877 C819 0.930 . S
H878 C820 0.930 . S
H879 C821 0.930 . S
H880 C823 0.930 . S
H881 C825 0.929 . S
H882 C826 0.930 . S
H883 C827 0.930 . S
H884 C830 0.930 . S
H885 C833 0.929 . S
H886 C838 0.929 . S
H887 C839 0.930 . S
H888 C846 0.929 . S
H889 C847 0.930 . S
H890 C848 0.930 . S
H891 C849 0.930 . S
H892 C851 0.929 . S
H893 C852 0.930 . S
H894 C853 0.930 . S
H895 C854 0.930 . S
H896 C858 0.929 . S
H897 C860 0.930 . S
H898 C866 0.929 . S
H899 C867 0.930 . S
C900 C901 1.369 . S
C900 C902 1.419 . S
C900 H904 0.930 . S
C901 C900 1.369 . S
C901 C910 1.429 . S
C902 C900 1.419 . S
C902 C903 1.363 . S
C902 H905 0.929 . S
C903 C902 1.363 . S
C903 C909 1.428 . S
H904 C900 0.930 . S
H905 C902 0.929 . S
S906 N907 1.613 . S
S906 N908 1.610 . S
N907 S906 1.613 . S
N907 C910 1.350 . S
N908 S906 1.610 . S
N908 C909 1.351 . S
C909 C903 1.428 . S
C909 N908 1.351 . S
C909 C910 1.434 . S
C910 C901 1.429 . S
C910 N907 1.350 . S
C910 C909 1.434 . S
C911 C912 1.369 . S
C911 C913 1.419 . S
C911 H915 0.930 . S
C912 C911 1.369 . S
C912 C921 1.429 . S
C913 C911 1.419 . S
C913 C914 1.363 . S
C913 H916 0.929 . S
C914 C913 1.363 . S
C914 C920 1.428 . S
H915 C911 0.930 . S
H916 C913 0.929 . S
S917 N918 1.613 . S
S917 N919 1.610 . S
N918 S917 1.613 . S
N918 C921 1.350 . S
N919 S917 1.610 . S
N919 C920 1.351 . S
C920 C914 1.428 . S
C920 N919 1.351 . S
C920 C921 1.434 . S
C921 C912 1.429 . S
C921 N918 1.350 . S
C921 C920 1.434 . S
C922 C923 1.369 . S
C922 C924 1.419 . S
C922 H926 0.930 . S
C923 C922 1.369 . S
C923 C932 1.429 . S
C924 C922 1.419 . S
C924 C925 1.363 . S
C924 H927 0.929 . S
C925 C924 1.363 . S
C925 C931 1.428 . S
H926 C922 0.930 . S
H927 C924 0.929 . S
S928 N929 1.613 . S
S928 N930 1.610 . S
N929 S928 1.613 . S
N929 C932 1.350 . S
N930 S928 1.610 . S
N930 C931 1.351 . S
C931 C925 1.428 . S
C931 N930 1.351 . S
C931 C932 1.434 . S
C932 C923 1.429 . S
C932 N929 1.350 . S
C932 C931 1.434 . S
C933 C934 1.369 . S
C933 C935 1.419 . S
C933 H937 0.930 . S
C934 C933 1.369 . S
C934 C943 1.429 . S
C935 C933 1.419 . S
C935 C936 1.363 . S
C935 H938 0.929 . S
C936 C935 1.363 . S
C936 C942 1.428 . S
H937 C933 0.930 . S
H938 C935 0.929 . S
S939 N940 1.613 . S
S939 N941 1.610 . S
N940 S939 1.613 . S
N940 C943 1.350 . S
N941 S939 1.610 . S
N941 C942 1.351 . S
C942 C936 1.428 . S
C942 N941 1.351 . S
C942 C943 1.434 . S
C943 C934 1.429 . S
C943 N940 1.350 . S
C943 C942 1.434 . S
C944 C945 1.369 . S
C944 C946 1.419 . S
C944 H948 0.930 . S
C945 C944 1.369 . S
C945 C954 1.429 . S
C946 C944 1.419 . S
C946 C947 1.363 . S
C946 H949 0.929 . S
C947 C946 1.363 . S
C947 C953 1.428 . S
H948 C944 0.930 . S
H949 C946 0.929 . S
S950 N951 1.613 . S
S950 N952 1.610 . S
N951 S950 1.613 . S
N951 C954 1.350 . S
N952 S950 1.610 . S
N952 C953 1.351 . S
C953 C947 1.428 . S
C953 N952 1.351 . S
C953 C954 1.434 . S
C954 C945 1.429 . S
C954 N951 1.350 . S
C954 C953 1.434 . S
C955 C956 1.369 . S
C955 C957 1.419 . S
C955 H959 0.930 . S
C956 C955 1.369 . S
C956 C965 1.429 . S
C957 C955 1.419 . S
C957 C958 1.363 . S
C957 H960 0.929 . S
C958 C957 1.363 . S
C958 C964 1.428 . S
H959 C955 0.930 . S
H960 C957 0.929 . S
S961 N962 1.613 . S
S961 N963 1.610 . S
N962 S961 1.613 . S
N962 C965 1.350 . S
N963 S961 1.610 . S
N963 C964 1.351 . S
C964 C958 1.428 . S
C964 N963 1.351 . S
C964 C965 1.434 . S
C965 C956 1.429 . S
C965 N962 1.350 . S
C965 C964 1.434 . S
C966 C967 1.369 . S
C966 C968 1.419 . S
C966 H970 0.930 . S
C967 C966 1.369 . S
C967 C976 1.429 . S
C968 C966 1.419 . S
C968 C969 1.363 . S
C968 H971 0.929 . S
C969 C968 1.363 . S
C969 C975 1.428 . S
H970 C966 0.930 . S
H971 C968 0.929 . S
S972 N973 1.613 . S
S972 N974 1.610 . S
N973 S972 1.613 . S
N973 C976 1.350 . S
N974 S972 1.610 . S
N974 C975 1.351 . S
C975 C969 1.428 . S
C975 N974 1.351 . S
C975 C976 1.434 . S
C976 C967 1.429 . S
C976 N973 1.350 . S
C976 C975 1.434 . S
C977 C978 1.369 . S
C977 C979 1.419 . S
C977 H981 0.930 . S
C978 C977 1.369 . S
C978 C987 1.429 . S
C979 C977 1.419 . S
C979 C980 1.363 . S
C979 H982 0.929 . S
C980 C979 1.363 . S
C980 C986 1.428 . S
H981 C977 0.930 . S
H982 C979 0.929 . S
S983 N984 1.613 . S
S983 N985 1.610 . S
N984 S983 1.613 . S
N984 C987 1.350 . S
N985 S983 1.610 . S
N985 C986 1.351 . S
C986 C980 1.428 . S
C986 N985 1.351 . S
C986 C987 1.434 . S
C987 C978 1.429 . S
C987 N984 1.350 . S
C987 C986 1.434 . S
C988 C989 1.369 . S
C988 C990 1.419 . S
C988 H992 0.930 . S
C989 C988 1.369 . S
C989 C998 1.429 . S
C990 C988 1.419 . S
C990 C991 1.363 . S
C990 H993 0.929 . S
C991 C990 1.363 . S
C991 C997 1.428 . S
H992 C988 0.930 . S
H993 C990 0.929 . S
S994 N995 1.613 . S
S994 N996 1.610 . S
N995 S994 1.613 . S
N995 C998 1.350 . S
N996 S994 1.610 . S
N996 C997 1.351 . S
C997 C991 1.428 . S
C997 N996 1.351 . S
C997 C998 1.434 . S
C998 C989 1.429 . S
C998 N995 1.350 . S
C998 C997 1.434 . S
C999 C1000 1.369 . S
C999 C1001 1.419 . S
C999 H1003 0.930 . S
C1000 C999 1.369 . S
C1000 C1009 1.429 . S
C1001 C999 1.419 . S
C1001 C1002 1.363 . S
C1001 H1004 0.929 . S
C1002 C1001 1.363 . S
C1002 C1008 1.428 . S
H1003 C999 0.930 . S
H1004 C1001 0.929 . S
S1005 N1006 1.613 . S
S1005 N1007 1.610 . S
N1006 S1005 1.613 . S
N1006 C1009 1.350 . S
N1007 S1005 1.610 . S
N1007 C1008 1.351 . S
C1008 C1002 1.428 . S
C1008 N1007 1.351 . S
C1008 C1009 1.434 . S
C1009 C1000 1.429 . S
C1009 N1006 1.350 . S
C1009 C1008 1.434 . S
C1010 C1011 1.369 . S
C1010 C1012 1.419 . S
C1010 H1014 0.930 . S
C1011 C1010 1.369 . S
C1011 C1020 1.429 . S
C1012 C1010 1.419 . S
C1012 C1013 1.363 . S
C1012 H1015 0.929 . S
C1013 C1012 1.363 . S
C1013 C1019 1.428 . S
H1014 C1010 0.930 . S
H1015 C1012 0.929 . S
S1016 N1017 1.613 . S
S1016 N1018 1.610 . S
N1017 S1016 1.613 . S
N1017 C1020 1.350 . S
N1018 S1016 1.610 . S
N1018 C1019 1.351 . S
C1019 C1013 1.428 . S
C1019 N1018 1.351 . S
C1019 C1020 1.434 . S
C1020 C1011 1.429 . S
C1020 N1017 1.350 . S
C1020 C1019 1.434 . S
C1021 C1022 1.369 . S
C1021 C1023 1.419 . S
C1021 H1025 0.930 . S
C1022 C1021 1.369 . S
C1022 C1031 1.429 . S
C1023 C1021 1.419 . S
C1023 C1024 1.363 . S
C1023 H1026 0.929 . S
C1024 C1023 1.363 . S
C1024 C1030 1.428 . S
H1025 C1021 0.930 . S
H1026 C1023 0.929 . S
S1027 N1028 1.613 . S
S1027 N1029 1.610 . S
N1028 S1027 1.613 . S
N1028 C1031 1.350 . S
N1029 S1027 1.610 . S
N1029 C1030 1.351 . S
C1030 C1024 1.428 . S
C1030 N1029 1.351 . S
C1030 C1031 1.434 . S
C1031 C1022 1.429 . S
C1031 N1028 1.350 . S
C1031 C1030 1.434 . S
C1032 C1033 1.369 . S
C1032 C1034 1.419 . S
C1032 H1036 0.930 . S
C1033 C1032 1.369 . S
C1033 C1042 1.429 . S
C1034 C1032 1.419 . S
C1034 C1035 1.363 . S
C1034 H1037 0.929 . S
C1035 C1034 1.363 . S
C1035 C1041 1.428 . S
H1036 C1032 0.930 . S
H1037 C1034 0.929 . S
S1038 N1039 1.613 . S
S1038 N1040 1.610 . S
N1039 S1038 1.613 . S
N1039 C1042 1.350 . S
N1040 S1038 1.610 . S
N1040 C1041 1.351 . S
C1041 C1035 1.428 . S
C1041 N1040 1.351 . S
C1041 C1042 1.434 . S
C1042 C1033 1.429 . S
C1042 N1039 1.350 . S
C1042 C1041 1.434 . S
C1043 C1044 1.369 . S
C1043 C1045 1.419 . S
C1043 H1047 0.930 . S
C1044 C1043 1.369 . S
C1044 C1053 1.429 . S
C1045 C1043 1.419 . S
C1045 C1046 1.363 . S
C1045 H1048 0.929 . S
C1046 C1045 1.363 . S
C1046 C1052 1.428 . S
H1047 C1043 0.930 . S
H1048 C1045 0.929 . S
S1049 N1050 1.613 . S
S1049 N1051 1.610 . S
N1050 S1049 1.613 . S
N1050 C1053 1.350 . S
N1051 S1049 1.610 . S
N1051 C1052 1.351 . S
C1052 C1046 1.428 . S
C1052 N1051 1.351 . S
C1052 C1053 1.434 . S
C1053 C1044 1.429 . S
C1053 N1050 1.350 . S
C1053 C1052 1.434 . S
C1054 C1055 1.369 . S
C1054 C1056 1.419 . S
C1054 H1058 0.930 . S
C1055 C1054 1.369 . S
C1055 C1064 1.429 . S
C1056 C1054 1.419 . S
C1056 C1057 1.363 . S
C1056 H1059 0.929 . S
C1057 C1056 1.363 . S
C1057 C1063 1.428 . S
H1058 C1054 0.930 . S
H1059 C1056 0.929 . S
S1060 N1061 1.613 . S
S1060 N1062 1.610 . S
N1061 S1060 1.613 . S
N1061 C1064 1.350 . S
N1062 S1060 1.610 . S
N1062 C1063 1.351 . S
C1063 C1057 1.428 . S
C1063 N1062 1.351 . S
C1063 C1064 1.434 . S
C1064 C1055 1.429 . S
C1064 N1061 1.350 . S
C1064 C1063 1.434 . S
C1065 C1066 1.369 . S
C1065 C1067 1.419 . S
C1065 H1069 0.930 . S
C1066 C1065 1.369 . S
C1066 C1075 1.429 . S
C1067 C1065 1.419 . S
C1067 C1068 1.363 . S
C1067 H1070 0.929 . S
C1068 C1067 1.363 . S
C1068 C1074 1.428 . S
H1069 C1065 0.930 . S
H1070 C1067 0.929 . S
S1071 N1072 1.613 . S
S1071 N1073 1.610 . S
N1072 S1071 1.613 . S
N1072 C1075 1.350 . S
N1073 S1071 1.610 . S
N1073 C1074 1.351 . S
C1074 C1068 1.428 . S
C1074 N1073 1.351 . S
C1074 C1075 1.434 . S
C1075 C1066 1.429 . S
C1075 N1072 1.350 . S
C1075 C1074 1.434 . S
C1076 C1077 1.369 . S
C1076 C1078 1.419 . S
C1076 H1080 0.930 . S
C1077 C1076 1.369 . S
C1077 C1086 1.429 . S
C1078 C1076 1.419 . S
C1078 C1079 1.363 . S
C1078 H1081 0.929 . S
C1079 C1078 1.363 . S
C1079 C1085 1.428 . S
H1080 C1076 0.930 . S
H1081 C1078 0.929 . S
S1082 N1083 1.613 . S
S1082 N1084 1.610 . S
N1083 S1082 1.613 . S
N1083 C1086 1.350 . S
N1084 S1082 1.610 . S
N1084 C1085 1.351 . S
C1085 C1079 1.428 . S
C1085 N1084 1.351 . S
C1085 C1086 1.434 . S
C1086 C1077 1.429 . S
C1086 N1083 1.350 . S
C1086 C1085 1.434 . S
C1087 C1088 1.369 . S
C1087 C1089 1.419 . S
C1087 H1091 0.930 . S
C1088 C1087 1.369 . S
C1088 C1097 1.429 . S
C1089 C1087 1.419 . S
C1089 C1090 1.363 . S
C1089 H1092 0.929 . S
C1090 C1089 1.363 . S
C1090 C1096 1.428 . S
H1091 C1087 0.930 . S
H1092 C1089 0.929 . S
S1093 N1094 1.613 . S
S1093 N1095 1.610 . S
N1094 S1093 1.613 . S
N1094 C1097 1.350 . S
N1095 S1093 1.610 . S
N1095 C1096 1.351 . S
C1096 C1090 1.428 . S
C1096 N1095 1.351 . S
C1096 C1097 1.434 . S
C1097 C1088 1.429 . S
C1097 N1094 1.350 . S
C1097 C1096 1.434 . S
C1098 C1099 1.369 . S
C1098 C1100 1.419 . S
C1098 H1102 0.930 . S
C1099 C1098 1.369 . S
C1099 C1108 1.429 . S
C1100 C1098 1.419 . S
C1100 C1101 1.363 . S
C1100 H1103 0.929 . S
C1101 C1100 1.363 . S
C1101 C1107 1.428 . S
H1102 C1098 0.930 . S
H1103 C1100 0.929 . S
S1104 N1105 1.613 . S
S1104 N1106 1.610 . S
N1105 S1104 1.613 . S
N1105 C1108 1.350 . S
N1106 S1104 1.610 . S
N1106 C1107 1.351 . S
C1107 C1101 1.428 . S
C1107 N1106 1.351 . S
C1107 C1108 1.434 . S
C1108 C1099 1.429 . S
C1108 N1105 1.350 . S
C1108 C1107 1.434 . S
C1109 C1110 1.369 . S
C1109 C1111 1.419 . S
C1109 H1113 0.930 . S
C1110 C1109 1.369 . S
C1110 C1119 1.429 . S
C1111 C1109 1.419 . S
C1111 C1112 1.363 . S
C1111 H1114 0.929 . S
C1112 C1111 1.363 . S
C1112 C1118 1.428 . S
H1113 C1109 0.930 . S
H1114 C1111 0.929 . S
S1115 N1116 1.613 . S
S1115 N1117 1.610 . S
N1116 S1115 1.613 . S
N1116 C1119 1.350 . S
N1117 S1115 1.610 . S
N1117 C1118 1.351 . S
C1118 C1112 1.428 . S
C1118 N1117 1.351 . S
C1118 C1119 1.434 . S
C1119 C1110 1.429 . S
C1119 N1116 1.350 . S
C1119 C1118 1.434 . S
C1120 C1121 1.369 . S
C1120 C1122 1.419 . S
C1120 H1124 0.930 . S
C1121 C1120 1.369 . S
C1121 C1130 1.429 . S
C1122 C1120 1.419 . S
C1122 C1123 1.363 . S
C1122 H1125 0.929 . S
C1123 C1122 1.363 . S
C1123 C1129 1.428 . S
H1124 C1120 0.930 . S
H1125 C1122 0.929 . S
S1126 N1127 1.613 . S
S1126 N1128 1.610 . S
N1127 S1126 1.613 . S
N1127 C1130 1.350 . S
N1128 S1126 1.610 . S
N1128 C1129 1.351 . S
C1129 C1123 1.428 . S
C1129 N1128 1.351 . S
C1129 C1130 1.434 . S
C1130 C1121 1.429 . S
C1130 N1127 1.350 . S
C1130 C1129 1.434 . S
C1131 C1132 1.369 . S
C1131 C1133 1.419 . S
C1131 H1135 0.930 . S
C1132 C1131 1.369 . S
C1132 C1141 1.429 . S
C1133 C1131 1.419 . S
C1133 C1134 1.363 . S
C1133 H1136 0.929 . S
C1134 C1133 1.363 . S
C1134 C1140 1.428 . S
H1135 C1131 0.930 . S
H1136 C1133 0.929 . S
S1137 N1138 1.613 . S
S1137 N1139 1.610 . S
N1138 S1137 1.613 . S
N1138 C1141 1.350 . S
N1139 S1137 1.610 . S
N1139 C1140 1.351 . S
C1140 C1134 1.428 . S
C1140 N1139 1.351 . S
C1140 C1141 1.434 . S
C1141 C1132 1.429 . S
C1141 N1138 1.350 . S
C1141 C1140 1.434 . S
C1142 C1143 1.369 . S
C1142 C1144 1.419 . S
C1142 H1146 0.930 . S
C1143 C1142 1.369 . S
C1143 C1152 1.429 . S
C1144 C1142 1.419 . S
C1144 C1145 1.363 . S
C1144 H1147 0.929 . S
C1145 C1144 1.363 . S
C1145 C1151 1.428 . S
H1146 C1142 0.930 . S
H1147 C1144 0.929 . S
S1148 N1149 1.613 . S
S1148 N1150 1.610 . S
N1149 S1148 1.613 . S
N1149 C1152 1.350 . S
N1150 S1148 1.610 . S
N1150 C1151 1.351 . S
C1151 C1145 1.428 . S
C1151 N1150 1.351 . S
C1151 C1152 1.434 . S
C1152 C1143 1.429 . S
C1152 N1149 1.350 . S
C1152 C1151 1.434 . S
C1153 C1154 1.369 . S
C1153 C1155 1.419 . S
C1153 H1157 0.930 . S
C1154 C1153 1.369 . S
C1154 C1163 1.429 . S
C1155 C1153 1.419 . S
C1155 C1156 1.363 . S
C1155 H1158 0.929 . S
C1156 C1155 1.363 . S
C1156 C1162 1.428 . S
H1157 C1153 0.930 . S
H1158 C1155 0.929 . S
S1159 N1160 1.613 . S
S1159 N1161 1.610 . S
N1160 S1159 1.613 . S
N1160 C1163 1.350 . S
N1161 S1159 1.610 . S
N1161 C1162 1.351 . S
C1162 C1156 1.428 . S
C1162 N1161 1.351 . S
C1162 C1163 1.434 . S
C1163 C1154 1.429 . S
C1163 N1160 1.350 . S
C1163 C1162 1.434 . S
C903 C841 1.818 . S
C901 C29 1.795 . S
C912 C115 1.769 . S
C914 C401 1.747 . S
C923 C153 1.730 . S
C925 C489 1.766 . S
C934 C239 1.796 . S
C936 C568 1.773 . S
C947 C665 1.759 . S
C945 C301 1.752 . S
C956 C339 1.982 . S
C958 C744 2.040 . S
C967 C91 1.727 . S
C969 C509 1.768 . S
C978 C177 1.768 . S
C980 C605 1.747 . S
C989 C215 1.803 . S
C991 C685 1.821 . S
C1002 C781 2.043 . S
C1000 C277 1.985 . S
C1013 C861 1.756 . S
C1011 C363 1.751 . S
C1024 C421 1.767 . S
C1022 C53 1.799 . S
C1033 C35 1.547 . S
C1035 C517 1.576 . S
C1044 C109 1.392 . S
C1046 C597 1.536 . S
C1057 C693 1.443 . S
C1055 C159 1.424 . S
C1066 C233 1.603 . S
C1068 C773 1.756 . S
C1079 C869 1.616 . S
C1077 C295 1.420 . S
C1090 C429 1.380 . S
C1088 C345 1.359 . S
C1101 C832 1.444 . S
C1099 C97 1.423 . S
C1110 C171 1.388 . S
C1112 C392 1.536 . S
C1123 C480 1.576 . S
C1121 C221 1.542 . S
C1132 C283 1.365 . S
C1134 C577 1.381 . S
C1143 C357 1.424 . S
C1145 C656 1.646 . S
C1154 C47 1.595 . S
C1156 C753 1.758 . S
