# Generated by pormake.
# Topology dag, (6,3)-cn, num edge types: 1
# Building blocks:
#     Node 0, Type 0, BuildingBlock: OJICUG_clean_sbu_0, # of connection points: 6
#     Node 1, Type 0, BuildingBlock: OJICUG_clean_sbu_0, # of connection points: 6
#     Node 2, Type 0, BuildingBlock: OJICUG_clean_sbu_0, # of connection points: 6
#     Node 3, Type 0, BuildingBlock: OJICUG_clean_sbu_0, # of connection points: 6
#     Node 4, Type 1, BuildingBlock: QEWDON_clean_linker_0, # of connection points: 3
#     Node 5, Type 1, BuildingBlock: QEWDON_clean_linker_0, # of connection points: 3
#     Node 6, Type 1, BuildingBlock: QEWDON_clean_linker_0, # of connection points: 3
#     Node 7, Type 1, BuildingBlock: QEWDON_clean_linker_0, # of connection points: 3
#     Node 8, Type 1, BuildingBlock: QEWDON_clean_linker_0, # of connection points: 3
#     Node 9, Type 1, BuildingBlock: QEWDON_clean_linker_0, # of connection points: 3
#     Node 10, Type 1, BuildingBlock: QEWDON_clean_linker_0, # of connection points: 3
#     Node 11, Type 1, BuildingBlock: QEWDON_clean_linker_0, # of connection points: 3
#     Edge 12, Type (0, 1), BuildingBlock: XIVTED_clean_linker_0, # of connection points: 2
#     Edge 13, Type (0, 1), BuildingBlock: XIVTED_clean_linker_0, # of connection points: 2
#     Edge 14, Type (0, 1), BuildingBlock: XIVTED_clean_linker_0, # of connection points: 2
#     Edge 15, Type (0, 1), BuildingBlock: XIVTED_clean_linker_0, # of connection points: 2
#     Edge 16, Type (0, 1), BuildingBlock: XIVTED_clean_linker_0, # of connection points: 2
#     Edge 17, Type (0, 1), BuildingBlock: XIVTED_clean_linker_0, # of connection points: 2
#     Edge 18, Type (0, 1), BuildingBlock: XIVTED_clean_linker_0, # of connection points: 2
#     Edge 19, Type (0, 1), BuildingBlock: XIVTED_clean_linker_0, # of connection points: 2
#     Edge 20, Type (0, 1), BuildingBlock: XIVTED_clean_linker_0, # of connection points: 2
#     Edge 21, Type (0, 1), BuildingBlock: XIVTED_clean_linker_0, # of connection points: 2
#     Edge 22, Type (0, 1), BuildingBlock: XIVTED_clean_linker_0, # of connection points: 2
#     Edge 23, Type (0, 1), BuildingBlock: XIVTED_clean_linker_0, # of connection points: 2
#     Edge 24, Type (0, 1), BuildingBlock: XIVTED_clean_linker_0, # of connection points: 2
#     Edge 25, Type (0, 1), BuildingBlock: XIVTED_clean_linker_0, # of connection points: 2
#     Edge 26, Type (0, 1), BuildingBlock: XIVTED_clean_linker_0, # of connection points: 2
#     Edge 27, Type (0, 1), BuildingBlock: XIVTED_clean_linker_0, # of connection points: 2
#     Edge 28, Type (0, 1), BuildingBlock: XIVTED_clean_linker_0, # of connection points: 2
#     Edge 29, Type (0, 1), BuildingBlock: XIVTED_clean_linker_0, # of connection points: 2
#     Edge 30, Type (0, 1), BuildingBlock: XIVTED_clean_linker_0, # of connection points: 2
#     Edge 31, Type (0, 1), BuildingBlock: XIVTED_clean_linker_0, # of connection points: 2
#     Edge 32, Type (0, 1), BuildingBlock: XIVTED_clean_linker_0, # of connection points: 2
#     Edge 33, Type (0, 1), BuildingBlock: XIVTED_clean_linker_0, # of connection points: 2
#     Edge 34, Type (0, 1), BuildingBlock: XIVTED_clean_linker_0, # of connection points: 2
#     Edge 35, Type (0, 1), BuildingBlock: XIVTED_clean_linker_0, # of connection points: 2
# Relax obj value: 0.045
# Max RMSD: 0.070
# Mean RMSD: 0.065
data_MOF--net-dag--node1-OJICUG_clean_sbu_0--node2-QEWDON_clean_linker_0--edge1-XIVTED_clean_linker_0
_symmetry_space_group_name_H-M    P1
_symmetry_Int_Tables_number       1
_symmetry_cell_setting            triclinic
loop_
_symmetry_equiv_pos_as_xyz
'x, y, z'
_cell_length_a     39.910154
_cell_length_b     39.974629
_cell_length_c     41.980502
_cell_angle_alpha  90.16872
_cell_angle_beta   89.921021
_cell_angle_gamma 90.020564
loop_
_atom_site_label
_atom_site_type_symbol
_atom_site_fract_x
_atom_site_fract_y
_atom_site_fract_z
_atom_type_partial_charge
Sc0 Sc 0.13483 0.88971 5e-05 0.0
Sc1 Sc 0.15184 0.80401 0.00448 0.0
Sc2 Sc 0.21862 0.86294 0.00764 0.0
O3 O 0.16853 0.85219 0.0039 0.0
C4 C 0.19485 0.91574 0.95594 0.0
C5 C 0.10688 0.83593 0.95005 0.0
C6 C 0.22004 0.79732 0.96435 0.0
C7 C 0.09387 0.83984 0.04435 0.0
C8 C 0.18563 0.91944 0.05145 0.0
C9 C 0.20709 0.80532 0.05925 0.0
O10 O 0.16451 0.91488 0.96499 0.0
O11 O 0.12093 0.81058 0.96261 0.0
O12 O 0.23266 0.82492 0.97352 0.0
O13 O 0.10081 0.86899 0.03447 0.0
O14 O 0.21077 0.90234 0.04238 0.0
O15 O 0.1802 0.79422 0.04688 0.0
O16 O 0.15686 0.91721 0.03875 0.0
O17 O 0.10958 0.81401 0.03501 0.0
O18 O 0.22452 0.82873 0.0471 0.0
O19 O 0.1095 0.86544 0.96117 0.0
O20 O 0.21797 0.89872 0.96897 0.0
O21 O 0.1918 0.78678 0.97412 0.0
Sc22 Sc 0.69374 0.64181 0.49103 0.0
Sc23 Sc 0.63306 0.70712 0.49204 0.0
Sc24 Sc 0.60846 0.62311 0.50063 0.0
O25 O 0.64516 0.65743 0.49468 0.0
C26 C 0.65534 0.5864 0.44999 0.0
C27 C 0.68901 0.69914 0.43801 0.0
C28 C 0.57314 0.67429 0.45299 0.0
C29 C 0.70088 0.70852 0.53274 0.0
C30 C 0.66635 0.59263 0.54447 0.0
C31 C 0.5852 0.68149 0.54776 0.0
O32 O 0.68202 0.60167 0.458 0.0
O33 O 0.66392 0.71403 0.4503 0.0
O34 O 0.5767 0.64571 0.4656 0.0
O35 O 0.71108 0.67987 0.52367 0.0
O36 O 0.63597 0.59591 0.53604 0.0
O37 O 0.60024 0.70507 0.53326 0.0
O38 O 0.69035 0.60779 0.53077 0.0
O39 O 0.67361 0.72145 0.5231 0.0
O40 O 0.58626 0.65112 0.53884 0.0
O41 O 0.70246 0.67344 0.45042 0.0
O42 O 0.62709 0.59194 0.4629 0.0
O43 O 0.59116 0.69932 0.46034 0.0
Sc44 Sc 0.8454 0.1822 0.99476 0.0
Sc45 Sc 0.77834 0.12426 0.98472 0.0
Sc46 Sc 0.86137 0.09604 0.99242 0.0
O47 O 0.82828 0.13423 0.99069 0.0
C48 C 0.90261 0.14883 0.95164 0.0
C49 C 0.79158 0.18592 0.93813 0.0
C50 C 0.81104 0.06864 0.93979 0.0
C51 C 0.77629 0.18635 0.03313 0.0
C52 C 0.89041 0.14525 0.04604 0.0
C53 C 0.80045 0.0692 0.03493 0.0
O54 O 0.88757 0.17416 0.96321 0.0
O55 O 0.77506 0.16014 0.94656 0.0
O56 O 0.83961 0.07022 0.95278 0.0
O57 O 0.80578 0.19647 0.02697 0.0
O58 O 0.88732 0.11716 0.03218 0.0
O59 O 0.77772 0.08713 0.02229 0.0
O60 O 0.87638 0.17178 0.036 0.0
O61 O 0.76318 0.16114 0.01948 0.0
O62 O 0.83094 0.06974 0.0262 0.0
O63 O 0.81677 0.19697 0.95355 0.0
O64 O 0.89513 0.11899 0.95915 0.0
O65 O 0.7861 0.08589 0.94892 0.0
Sc66 Sc 0.38818 0.36233 0.49684 0.0
Sc67 Sc 0.30237 0.34752 0.5069 0.0
Sc68 Sc 0.35993 0.27946 0.5066 0.0
O69 O 0.35011 0.32966 0.50332 0.0
C70 C 0.40976 0.30218 0.45118 0.0
C71 C 0.33161 0.39373 0.45208 0.0
C72 C 0.29224 0.28058 0.46588 0.0
C73 C 0.34298 0.40233 0.54649 0.0
C74 C 0.42063 0.31064 0.54584 0.0
C75 C 0.30433 0.29114 0.56069 0.0
O76 O 0.40952 0.33276 0.45937 0.0
O77 O 0.30706 0.3798 0.46608 0.0
O78 O 0.31944 0.26669 0.47453 0.0
O79 O 0.371 0.39512 0.53392 0.0
O80 O 0.40159 0.28617 0.53899 0.0
O81 O 0.29284 0.31774 0.54831 0.0
O82 O 0.41856 0.33898 0.53243 0.0
O83 O 0.31571 0.38814 0.53864 0.0
O84 O 0.32797 0.2742 0.54813 0.0
O85 O 0.36184 0.38978 0.46075 0.0
O86 O 0.39374 0.27945 0.46597 0.0
O87 O 0.28314 0.30924 0.47586 0.0
H88 H 0.15513 0.09325 0.24874 0.0
C89 C 0.1356 0.1034 0.23367 0.0
C90 C 0.13505 0.09542 0.20106 0.0
C91 C 0.10963 0.12258 0.24719 0.0
H92 H 0.1072 0.09953 0.1573 0.0
C93 C 0.10862 0.10705 0.18212 0.0
C94 C 0.08221 0.12545 0.19547 0.0
C95 C 0.08315 0.13376 0.22786 0.0
C96 C 0.10773 0.12757 0.28203 0.0
H97 H 0.0623 0.14718 0.23845 0.0
C98 C 0.13353 0.14398 0.29867 0.0
C99 C 0.13026 0.15038 0.33153 0.0
C100 C 0.07923 0.11656 0.29865 0.0
H101 H 0.0592 0.10363 0.2863 0.0
C102 C 0.07635 0.12204 0.33134 0.0
H103 H 0.15531 0.15299 0.28584 0.0
C104 C 0.10156 0.13901 0.3477 0.0
H105 H 0.09863 0.14329 0.37304 0.0
H106 H 0.05435 0.11339 0.34399 0.0
H107 H 0.41615 0.66227 0.74608 0.0
C108 C 0.40297 0.64394 0.73171 0.0
C109 C 0.40793 0.643 0.69854 0.0
C110 C 0.38271 0.61986 0.74656 0.0
H111 H 0.39632 0.61661 0.65499 0.0
C112 C 0.3914 0.61847 0.68035 0.0
C113 C 0.37174 0.59387 0.69509 0.0
C114 C 0.36744 0.59477 0.72822 0.0
C115 C 0.38021 0.61848 0.78156 0.0
H116 H 0.35289 0.5754 0.73986 0.0
C117 C 0.36226 0.64293 0.79856 0.0
C118 C 0.3576 0.6397 0.83166 0.0
C119 C 0.39439 0.59136 0.79786 0.0
H120 H 0.40825 0.57228 0.78504 0.0
C121 C 0.39065 0.5886 0.83077 0.0
H122 H 0.3507 0.66349 0.78587 0.0
C123 C 0.37219 0.61245 0.8476 0.0
H124 H 0.36923 0.60959 0.8731 0.0
H125 H 0.4017 0.56766 0.84323 0.0
H126 H 0.86593 0.7813 0.16384 0.0
C127 C 0.85392 0.80548 0.16142 0.0
C128 C 0.87288 0.83353 0.15248 0.0
C129 C 0.81945 0.8085 0.16753 0.0
H130 H 0.87076 0.88604 0.14119 0.0
C131 C 0.85674 0.86456 0.14959 0.0
C132 C 0.82222 0.86784 0.15521 0.0
C133 C 0.80361 0.83968 0.16436 0.0
C134 C 0.79995 0.77871 0.17656 0.0
H135 H 0.77687 0.84187 0.16844 0.0
C136 C 0.78605 0.77622 0.20718 0.0
C137 C 0.76924 0.74691 0.21659 0.0
C138 C 0.79648 0.75207 0.15501 0.0
H139 H 0.8072 0.75361 0.13134 0.0
C140 C 0.77908 0.72329 0.1639 0.0
H141 H 0.78962 0.79653 0.22401 0.0
C142 C 0.76561 0.7206 0.1945 0.0
H143 H 0.75238 0.69793 0.20089 0.0
H144 H 0.77628 0.70287 0.14712 0.0
H145 H 0.72378 0.36622 0.66514 0.0
C146 C 0.69847 0.35662 0.66305 0.0
C147 C 0.67209 0.37836 0.65555 0.0
C148 C 0.69224 0.32252 0.66836 0.0
H149 H 0.61935 0.38181 0.64552 0.0
C150 C 0.63952 0.36543 0.65291 0.0
C151 C 0.63298 0.33127 0.65759 0.0
C152 C 0.65952 0.30986 0.66559 0.0
C153 C 0.72021 0.30025 0.6767 0.0
H154 H 0.65488 0.28342 0.66924 0.0
C155 C 0.72276 0.28735 0.70765 0.0
C156 C 0.75097 0.26857 0.71662 0.0
C157 C 0.74553 0.2936 0.65438 0.0
H158 H 0.74395 0.30356 0.63045 0.0
C159 C 0.77313 0.27416 0.66288 0.0
H160 H 0.70356 0.29329 0.72507 0.0
C161 C 0.77601 0.26187 0.69387 0.0
H162 H 0.79784 0.24719 0.70008 0.0
H163 H 0.79256 0.26899 0.64555 0.0
H164 H 0.64583 0.40752 0.26042 0.0
C165 C 0.63176 0.38859 0.27317 0.0
C166 C 0.62785 0.39115 0.30631 0.0
C167 C 0.61677 0.36222 0.25628 0.0
H168 H 0.60392 0.37028 0.34771 0.0
C169 C 0.60859 0.36715 0.32242 0.0
C170 C 0.59225 0.34142 0.30561 0.0
C171 C 0.59707 0.3387 0.27253 0.0
C172 C 0.61837 0.3616 0.2212 0.0
H173 H 0.58413 0.31935 0.25921 0.0
C174 C 0.63569 0.33608 0.20504 0.0
C175 C 0.63653 0.3355 0.17151 0.0
C176 C 0.60199 0.3866 0.20376 0.0
H177 H 0.58854 0.40644 0.2159 0.0
C178 C 0.60246 0.3859 0.17054 0.0
H179 H 0.64846 0.31681 0.2185 0.0
C180 C 0.61952 0.36048 0.15445 0.0
H181 H 0.61999 0.36072 0.12865 0.0
H182 H 0.58965 0.40518 0.15722 0.0
H183 H 0.22083 0.14646 0.82978 0.0
C184 C 0.19429 0.14968 0.83443 0.0
C185 C 0.17457 0.12204 0.84289 0.0
C186 C 0.17987 0.18165 0.83262 0.0
H187 H 0.12539 0.10553 0.85689 0.0
C188 C 0.1403 0.12666 0.8491 0.0
C189 C 0.12556 0.15849 0.84749 0.0
C190 C 0.14566 0.186 0.83938 0.0
C191 C 0.20057 0.21082 0.82421 0.0
H192 H 0.13472 0.21078 0.83799 0.0
C193 C 0.2136 0.21404 0.79329 0.0
C194 C 0.23116 0.24309 0.78448 0.0
C195 C 0.20592 0.23632 0.84665 0.0
H196 H 0.19592 0.23419 0.87056 0.0
C197 C 0.22421 0.26474 0.83831 0.0
H198 H 0.20865 0.19467 0.77578 0.0
C199 C 0.23661 0.26826 0.80739 0.0
H200 H 0.25033 0.29075 0.80131 0.0
H201 H 0.2284 0.2843 0.85574 0.0
H202 H 0.34191 0.70105 0.32489 0.0
C203 C 0.33721 0.67458 0.32824 0.0
C204 C 0.36373 0.65306 0.33612 0.0
C205 C 0.30445 0.66198 0.3254 0.0
H206 H 0.37729 0.60256 0.34826 0.0
C207 C 0.35715 0.61891 0.34074 0.0
C208 C 0.3246 0.60602 0.33803 0.0
C209 C 0.29831 0.62779 0.33041 0.0
C210 C 0.27621 0.68424 0.31739 0.0
H211 H 0.27304 0.61811 0.32812 0.0
C212 C 0.27646 0.70251 0.28887 0.0
C213 C 0.24783 0.72039 0.27907 0.0
C214 C 0.24782 0.68518 0.33709 0.0
H215 H 0.24721 0.67126 0.35919 0.0
C216 C 0.21982 0.70372 0.3282 0.0
H217 H 0.29863 0.70179 0.27398 0.0
C218 C 0.21956 0.72083 0.29929 0.0
H219 H 0.19673 0.7335 0.29249 0.0
H220 H 0.19788 0.70411 0.34338 0.0
H221 H 0.93818 0.83455 0.75167 0.0
C222 C 0.91883 0.84843 0.76416 0.0
C223 C 0.92086 0.85267 0.79728 0.0
C224 C 0.89219 0.86247 0.747 0.0
H225 H 0.89878 0.87628 0.8384 0.0
C226 C 0.89617 0.87143 0.81309 0.0
C227 C 0.87016 0.88683 0.79603 0.0
C228 C 0.86794 0.88167 0.76298 0.0
C229 C 0.8913 0.85953 0.712 0.0
H230 H 0.84822 0.89376 0.7495 0.0
C231 C 0.86501 0.84247 0.69679 0.0
C232 C 0.86403 0.84026 0.66336 0.0
C233 C 0.91672 0.87426 0.69367 0.0
H234 H 0.93717 0.8875 0.70505 0.0
C235 C 0.91561 0.87248 0.66048 0.0
H236 H 0.84543 0.83093 0.71094 0.0
C237 C 0.88938 0.85569 0.64535 0.0
H238 H 0.88922 0.85419 0.61957 0.0
H239 H 0.93518 0.88405 0.64645 0.0
H240 H 0.22907 0.972 0.058 0.0
H241 H 0.14371 0.03147 0.22098 0.0
H242 H 0.14968 0.91914 0.10601 0.0
H243 H 0.17548 0.10092 0.14865 0.0
H244 H 0.16619 0.98534 0.1888 0.0
H245 H 0.22806 0.01464 0.10065 0.0
C246 C 0.21205 0.96904 0.07792 0.0
C247 C 0.18923 0.9424 0.07863 0.0
C248 C 0.16914 0.0108 0.18048 0.0
C249 C 0.18843 0.99012 0.12725 0.0
C250 C 0.15667 0.0371 0.19894 0.0
C251 C 0.15769 0.0699 0.18729 0.0
C252 C 0.18295 0.0175 0.15039 0.0
C253 C 0.17421 0.07587 0.15831 0.0
C254 C 0.21144 0.99327 0.10207 0.0
C255 C 0.16745 0.93958 0.10466 0.0
N256 N 0.18587 0.04982 0.14059 0.0
N257 N 0.16753 0.9632 0.12794 0.0
H258 H 0.53353 0.72607 0.55179 0.0
H259 H 0.47261 0.65013 0.71795 0.0
H260 H 0.58802 0.65265 0.60593 0.0
H261 H 0.40441 0.68006 0.64372 0.0
H262 H 0.51945 0.67087 0.68591 0.0
H263 H 0.49087 0.7281 0.59426 0.0
C264 C 0.53702 0.71128 0.57311 0.0
C265 C 0.56408 0.6891 0.57556 0.0
C266 C 0.49414 0.67368 0.67704 0.0
C267 C 0.51597 0.69137 0.6238 0.0
C268 C 0.46738 0.66212 0.69538 0.0
C269 C 0.43465 0.66314 0.68328 0.0
C270 C 0.48806 0.68656 0.64653 0.0
C271 C 0.42936 0.67854 0.6537 0.0
C272 C 0.51267 0.71227 0.59713 0.0
C273 C 0.56737 0.66999 0.60328 0.0
N274 N 0.45587 0.68932 0.6361 0.0
N275 N 0.54349 0.67143 0.62629 0.0
H276 H 0.83216 0.06404 0.09135 0.0
H277 H 0.76835 0.87995 0.11666 0.0
H278 H 0.7506 0.02202 0.03728 0.0
H279 H 0.84017 0.92944 0.1772 0.0
H280 H 0.75245 0.93437 0.09452 0.0
H281 H 0.82675 0.01889 0.12985 0.0
C282 C 0.8126 0.04552 0.08804 0.0
C283 C 0.79197 0.0464 0.06112 0.0
C284 C 0.77106 0.93344 0.11324 0.0
C285 C 0.78627 0.99391 0.10444 0.0
C286 C 0.77997 0.90241 0.12601 0.0
C287 C 0.80599 0.9003 0.14834 0.0
C288 C 0.7885 0.96232 0.12284 0.0
C289 C 0.82038 0.93004 0.15958 0.0
C290 C 0.8095 0.0197 0.10998 0.0
C291 C 0.76695 0.02204 0.05783 0.0
N292 N 0.81187 0.95973 0.14632 0.0
N293 N 0.76527 0.99623 0.0789 0.0
H294 H 0.43764 0.35552 0.59129 0.0
H295 H 0.61454 0.27687 0.62164 0.0
H296 H 0.4628 0.25739 0.55577 0.0
H297 H 0.57357 0.35704 0.67855 0.0
H298 H 0.55818 0.26487 0.60138 0.0
H299 H 0.48565 0.35326 0.62696 0.0
C300 C 0.45317 0.33328 0.59136 0.0
C301 C 0.44658 0.30674 0.57044 0.0
C302 C 0.56142 0.28457 0.61887 0.0
C303 C 0.50207 0.30415 0.61076 0.0
C304 C 0.59355 0.29131 0.63056 0.0
C305 C 0.59876 0.31841 0.65132 0.0
C306 C 0.53457 0.3053 0.62785 0.0
C307 C 0.57073 0.3364 0.662 0.0
C308 C 0.48052 0.3319 0.61181 0.0
C309 C 0.4672 0.27836 0.5716 0.0
N310 N 0.53998 0.32993 0.64973 0.0
N311 N 0.49455 0.27806 0.59099 0.0
H312 H 0.61028 0.57644 0.40265 0.0
H313 H 0.66526 0.39409 0.36096 0.0
H314 H 0.70287 0.53785 0.4405 0.0
H315 H 0.61603 0.45633 0.29161 0.0
H316 H 0.67755 0.44426 0.39295 0.0
H317 H 0.60927 0.5306 0.3639 0.0
C318 C 0.63055 0.5584 0.40256 0.0
C319 C 0.65669 0.56078 0.42471 0.0
C320 C 0.66461 0.44691 0.37044 0.0
C321 C 0.65531 0.50802 0.38103 0.0
C322 C 0.65754 0.41839 0.3523 0.0
C323 C 0.63969 0.42121 0.32366 0.0
C324 C 0.65288 0.47819 0.36022 0.0
C325 C 0.63008 0.45317 0.31344 0.0
C326 C 0.63004 0.53239 0.38041 0.0
C327 C 0.6824 0.53687 0.42363 0.0
N328 N 0.63629 0.48037 0.33198 0.0
N329 N 0.68078 0.51102 0.40247 0.0
H330 H 0.92927 0.10437 0.90912 0.0
H331 H 0.0966 0.20808 0.88378 0.0
H332 H 0.94175 0.20493 0.94495 0.0
H333 H 0.07272 0.11821 0.83127 0.0
H334 H 0.03897 0.20974 0.90372 0.0
H335 H 0.98055 0.11072 0.87813 0.0
C336 C 0.94267 0.12792 0.91026 0.0
C337 C 0.93139 0.15403 0.92994 0.0
C338 C 0.04624 0.18992 0.8875 0.0
C339 C 0.99046 0.16138 0.89468 0.0
C340 C 0.07911 0.18905 0.87597 0.0
C341 C 0.08967 0.16267 0.85619 0.0
C342 C 0.02388 0.16411 0.87937 0.0
C343 C 0.06592 0.13856 0.84708 0.0
C344 C 0.97194 0.13158 0.89246 0.0
C345 C 0.94959 0.18411 0.93017 0.0
N346 N 0.03432 0.13963 0.85904 0.0
N347 N 0.97852 0.1868 0.91318 0.0
H348 H 0.37382 0.41319 0.40443 0.0
H349 H 0.27319 0.57939 0.3733 0.0
H350 H 0.27444 0.43008 0.44177 0.0
H351 H 0.36177 0.55139 0.32051 0.0
H352 H 0.26908 0.5222 0.39332 0.0
H353 H 0.36639 0.46041 0.36853 0.0
C354 C 0.35022 0.42658 0.40473 0.0
C355 C 0.32492 0.41806 0.42646 0.0
C356 C 0.28908 0.5284 0.37691 0.0
C357 C 0.3164 0.47254 0.38576 0.0
C358 C 0.29135 0.56104 0.36534 0.0
C359 C 0.31825 0.57034 0.34568 0.0
C360 C 0.31406 0.50504 0.36899 0.0
C361 C 0.34113 0.54552 0.3363 0.0
C362 C 0.34594 0.45352 0.38417 0.0
C363 C 0.29468 0.43595 0.42553 0.0
N364 N 0.33883 0.51418 0.34844 0.0
N365 N 0.29149 0.46281 0.40596 0.0
H366 H 0.10174 0.87615 0.89829 0.0
H367 H 0.92281 0.81555 0.8519 0.0
H368 H 0.06135 0.78597 0.93936 0.0
H369 H 0.98642 0.86509 0.78365 0.0
H370 H 0.97214 0.80459 0.88519 0.0
H371 H 0.05919 0.87338 0.85646 0.0
C372 C 0.08417 0.85547 0.89814 0.0
C373 C 0.0849 0.83127 0.92222 0.0
C374 C 0.97535 0.81725 0.86262 0.0
C375 C 0.03576 0.82841 0.87506 0.0
C376 C 0.94728 0.82358 0.84374 0.0
C377 C 0.95068 0.84124 0.8151 0.0
C378 C 0.00679 0.8295 0.85313 0.0
C379 C 0.98284 0.85121 0.8055 0.0
C380 C 0.05999 0.85385 0.87427 0.0
C381 C 0.06164 0.80498 0.92105 0.0
N382 N 0.0096 0.84575 0.82477 0.0
N383 N 0.03748 0.8046 0.89819 0.0
H384 H 0.83542 0.07467 0.87991 0.0
H385 H 0.83629 0.88091 0.85261 0.0
H386 H 0.7802 0.00805 0.94098 0.0
H387 H 0.85703 0.95062 0.7769 0.0
H388 H 0.81157 0.92654 0.88385 0.0
H389 H 0.83976 0.03005 0.83999 0.0
C390 C 0.82343 0.05081 0.88441 0.0
C391 C 0.80719 0.04486 0.9134 0.0
C392 C 0.82083 0.93171 0.86011 0.0
C393 C 0.81304 0.99344 0.86867 0.0
C394 C 0.83496 0.9057 0.84233 0.0
C395 C 0.84889 0.91208 0.81225 0.0
C396 C 0.82132 0.96443 0.84798 0.0
C397 C 0.84647 0.9446 0.79995 0.0
C398 C 0.82595 0.02534 0.86175 0.0
C399 C 0.79259 0.01349 0.91862 0.0
N400 N 0.83358 0.9697 0.81811 0.0
N401 N 0.79637 0.98866 0.89666 0.0
H402 H 0.4044 0.32357 0.39035 0.0
H403 H 0.59633 0.30875 0.36291 0.0
H404 H 0.46571 0.26329 0.45197 0.0
H405 H 0.52809 0.3302 0.28609 0.0
H406 H 0.54927 0.28722 0.39434 0.0
H407 H 0.44839 0.32158 0.34977 0.0
C408 C 0.4268 0.309 0.39481 0.0
C409 C 0.43152 0.29333 0.42423 0.0
C410 C 0.54473 0.29584 0.3703 0.0
C411 C 0.48252 0.29213 0.37871 0.0
C412 C 0.57155 0.30818 0.35242 0.0
C413 C 0.56604 0.32149 0.32198 0.0
C414 C 0.51209 0.29755 0.3579 0.0
C415 C 0.53348 0.32009 0.30942 0.0
C416 C 0.45196 0.30795 0.37176 0.0
C417 C 0.46114 0.27531 0.42931 0.0
N418 N 0.50764 0.30903 0.32768 0.0
N419 N 0.48594 0.27582 0.40702 0.0
H420 H 0.16053 0.92365 0.90104 0.0
H421 H 0.22975 0.10626 0.87852 0.0
H422 H 0.24639 0.96091 0.9522 0.0
H423 H 0.15259 0.06189 0.82036 0.0
H424 H 0.24469 0.05047 0.89798 0.0
H425 H 0.16547 0.96997 0.86377 0.0
C426 C 0.18091 0.94134 0.90394 0.0
C427 C 0.20288 0.93882 0.9298 0.0
C428 C 0.22504 0.05283 0.88036 0.0
C429 C 0.20811 0.99263 0.8879 0.0
C430 C 0.21666 0.08464 0.86912 0.0
C431 C 0.1895 0.08862 0.84829 0.0
C432 C 0.20595 0.02501 0.87077 0.0
C433 C 0.17326 0.05989 0.83692 0.0
C434 C 0.18373 0.96784 0.8827 0.0
C435 C 0.22896 0.96215 0.9325 0.0
N436 N 0.18135 0.02939 0.84872 0.0
N437 N 0.2304 0.98864 0.91221 0.0
H438 H 0.53322 0.72889 0.4414 0.0
H439 H 0.42305 0.62752 0.31487 0.0
H440 H 0.55296 0.62805 0.4097 0.0
H441 H 0.38217 0.70672 0.37305 0.0
H442 H 0.47852 0.63905 0.33686 0.0
H443 H 0.48501 0.73118 0.40487 0.0
C444 C 0.52773 0.70751 0.42637 0.0
C445 C 0.54667 0.67806 0.4288 0.0
C446 C 0.45753 0.65434 0.34437 0.0
C447 C 0.4924 0.68072 0.38694 0.0
C448 C 0.42593 0.64785 0.33178 0.0
C449 C 0.39794 0.66576 0.34267 0.0
C450 C 0.46119 0.67891 0.36805 0.0
C451 C 0.40311 0.69222 0.36417 0.0
C452 C 0.50029 0.70881 0.40566 0.0
C453 C 0.53862 0.65103 0.40889 0.0
N454 N 0.43411 0.69766 0.37665 0.0
N455 N 0.51206 0.65298 0.38889 0.0
H456 H 0.38919 0.41192 0.59289 0.0
H457 H 0.33527 0.5934 0.63975 0.0
H458 H 0.29638 0.45166 0.55657 0.0
H459 H 0.38319 0.52818 0.70744 0.0
H460 H 0.32321 0.54454 0.60583 0.0
H461 H 0.39092 0.45715 0.63224 0.0
C462 C 0.3691 0.43015 0.59336 0.0
C463 C 0.34264 0.42822 0.57153 0.0
C464 C 0.33583 0.54097 0.62839 0.0
C465 C 0.34477 0.4802 0.61597 0.0
C466 C 0.34276 0.56873 0.64762 0.0
C467 C 0.36013 0.56467 0.67638 0.0
C468 C 0.34724 0.50926 0.63767 0.0
C469 C 0.36948 0.53228 0.68556 0.0
C470 C 0.37001 0.45578 0.61587 0.0
C471 C 0.31712 0.45231 0.57316 0.0
N472 N 0.36342 0.50587 0.66601 0.0
N473 N 0.31908 0.47776 0.59472 0.0
H474 H 0.05879 0.78254 0.05775 0.0
H475 H 0.92389 0.87711 0.16644 0.0
H476 H 0.0633 0.88777 0.0809 0.0
H477 H 0.90407 0.78331 0.11882 0.0
H478 H 0.98088 0.87619 0.14521 0.0
H479 H 0.00785 0.77771 0.08997 0.0
C480 C 0.04934 0.80454 0.06991 0.0
C481 C 0.06512 0.83571 0.0663 0.0
C482 C 0.96414 0.85565 0.13968 0.0
C483 C 0.00701 0.83025 0.10325 0.0
C484 C 0.93158 0.85618 0.15171 0.0
C485 C 0.90892 0.83054 0.14394 0.0
C486 C 0.97429 0.8292 0.11988 0.0
C487 C 0.92062 0.8036 0.12547 0.0
C488 C 0.02021 0.80175 0.08819 0.0
C489 C 0.05173 0.86334 0.08265 0.0
N490 N 0.95242 0.80379 0.11379 0.0
N491 N 0.02339 0.85998 0.10029 0.0
H492 H 0.72443 0.55711 0.55326 0.0
H493 H 0.63558 0.4324 0.67538 0.0
H494 H 0.62502 0.57065 0.59177 0.0
H495 H 0.72225 0.40585 0.61921 0.0
H496 H 0.63976 0.48968 0.65573 0.0
H497 H 0.73188 0.50849 0.58804 0.0
C498 C 0.70448 0.55033 0.56953 0.0
C499 C 0.67385 0.5676 0.56929 0.0
C500 C 0.65815 0.47145 0.64803 0.0
C501 C 0.68219 0.51217 0.60894 0.0
C502 C 0.65574 0.43875 0.65918 0.0
C503 C 0.6782 0.41419 0.6484 0.0
C504 C 0.68315 0.47971 0.62584 0.0
C505 C 0.70433 0.42397 0.62802 0.0
C506 C 0.70869 0.5225 0.58921 0.0
C507 C 0.64883 0.55771 0.59081 0.0
N508 N 0.7058 0.45591 0.617 0.0
N509 N 0.65344 0.53049 0.60953 0.0
H510 H 0.92532 0.19911 0.07087 0.0
H511 H 0.04549 0.07772 0.16646 0.0
H512 H 0.9071 0.09368 0.08466 0.0
H513 H 0.04859 0.18421 0.18266 0.0
H514 H 0.99509 0.08472 0.13473 0.0
H515 H 0.96986 0.19647 0.11137 0.0
C516 C 0.93022 0.17564 0.0828 0.0
C517 C 0.91293 0.14643 0.07397 0.0
C518 C 0.00653 0.10667 0.14528 0.0
C519 C 0.9637 0.14322 0.1197 0.0
C520 C 0.03546 0.10267 0.16317 0.0
C521 C 0.05128 0.13048 0.17678 0.0
C522 C 0.99334 0.13884 0.14051 0.0
C523 C 0.03703 0.16222 0.17232 0.0
C524 C 0.95566 0.17413 0.10578 0.0
C525 C 0.92025 0.11668 0.09017 0.0
N526 N 0.00894 0.16566 0.15416 0.0
N527 N 0.94526 0.11579 0.11189 0.0
H528 H 0.26968 0.79034 0.0823 0.0
H529 H 0.2133 0.77714 0.26136 0.0
H530 H 0.16517 0.79331 0.10852 0.0
H531 H 0.27896 0.70077 0.22316 0.0
H532 H 0.20537 0.79852 0.20749 0.0
H533 H 0.28327 0.77142 0.13675 0.0
C534 C 0.24972 0.78699 0.09951 0.0
C535 C 0.21627 0.79293 0.09103 0.0
C536 C 0.22178 0.7773 0.21121 0.0
C537 C 0.23164 0.77288 0.15281 0.0
C538 C 0.22617 0.76483 0.24188 0.0
C539 C 0.24637 0.73655 0.24708 0.0
C540 C 0.23843 0.76212 0.18563 0.0
C541 C 0.26338 0.72273 0.22069 0.0
C542 C 0.25745 0.77628 0.13033 0.0
C543 C 0.19121 0.78849 0.11408 0.0
N544 N 0.259 0.73564 0.19106 0.0
N545 N 0.19944 0.77908 0.14408 0.0
H546 H 0.70035 0.77622 0.54255 0.0
H547 H 0.84346 0.77629 0.67517 0.0
H548 H 0.75024 0.68589 0.57268 0.0
H549 H 0.82404 0.86093 0.61451 0.0
H550 H 0.80148 0.74393 0.64543 0.0
H551 H 0.73791 0.80877 0.57664 0.0
C552 C 0.719 0.76318 0.55652 0.0
C553 C 0.72227 0.72826 0.55461 0.0
C554 C 0.80634 0.76964 0.63878 0.0
C555 C 0.7651 0.7654 0.5938 0.0
C556 C 0.83005 0.78812 0.65581 0.0
C557 C 0.83719 0.82122 0.64712 0.0
C558 C 0.7893 0.78461 0.6133 0.0
C559 C 0.81938 0.83537 0.62173 0.0
C560 C 0.7405 0.78181 0.57584 0.0
C561 C 0.74701 0.71277 0.57321 0.0
N562 N 0.79617 0.81701 0.60574 0.0
N563 N 0.76745 0.73145 0.59211 0.0
H564 H 0.79801 0.23134 0.07807 0.0
H565 H 0.61568 0.29663 0.12173 0.0
H566 H 0.70816 0.18508 0.04136 0.0
H567 H 0.70141 0.31616 0.18136 0.0
H568 H 0.64948 0.25751 0.09022 0.0
H569 H 0.76356 0.26472 0.11444 0.0
C570 C 0.77106 0.22811 0.07771 0.0
C571 C 0.75596 0.20545 0.05649 0.0
C572 C 0.66082 0.2701 0.11038 0.0
C573 C 0.71643 0.24378 0.09791 0.0
C574 C 0.6416 0.29248 0.12826 0.0
C575 C 0.65586 0.30964 0.15408 0.0
C576 C 0.69472 0.2653 0.11804 0.0
C577 C 0.68947 0.30324 0.16172 0.0
C578 C 0.75144 0.24707 0.09858 0.0
C579 C 0.72092 0.20219 0.05729 0.0
N580 N 0.7079 0.28186 0.14354 0.0
N581 N 0.70233 0.22138 0.07741 0.0
H582 H 0.25641 0.32304 0.59601 0.0
H583 H 0.26312 0.19871 0.74455 0.0
H584 H 0.32152 0.23671 0.59762 0.0
H585 H 0.22296 0.29884 0.74819 0.0
H586 H 0.27943 0.20806 0.68879 0.0
H587 H 0.23786 0.30977 0.64959 0.0
C588 C 0.2667 0.3011 0.60748 0.0
C589 C 0.29083 0.28111 0.59219 0.0
C590 C 0.26711 0.22794 0.70189 0.0
C591 C 0.26958 0.26586 0.65404 0.0
C592 C 0.25773 0.22261 0.73359 0.0
C593 C 0.24189 0.24814 0.75102 0.0
C594 C 0.2601 0.25882 0.6875 0.0
C595 C 0.23556 0.27866 0.73578 0.0
C596 C 0.25614 0.29364 0.63824 0.0
C597 C 0.30301 0.25293 0.60847 0.0
N598 N 0.24458 0.28308 0.70492 0.0
N599 N 0.29231 0.24618 0.63859 0.0
H600 H 0.6669 0.75198 0.40182 0.0
H601 H 0.73688 0.79336 0.25399 0.0
H602 H 0.7402 0.67248 0.40258 0.0
H603 H 0.77423 0.69207 0.25501 0.0
H604 H 0.71817 0.78663 0.30901 0.0
H605 H 0.68534 0.76722 0.34845 0.0
C606 C 0.68724 0.73805 0.39101 0.0
C607 C 0.70196 0.71086 0.40685 0.0
C608 C 0.72989 0.76565 0.29711 0.0
C609 C 0.72365 0.72853 0.34567 0.0
C610 C 0.74096 0.76964 0.26576 0.0
C611 C 0.75685 0.74313 0.24975 0.0
C612 C 0.73477 0.73487 0.31256 0.0
C613 C 0.76149 0.71296 0.26616 0.0
C614 C 0.69795 0.74695 0.36048 0.0
C615 C 0.72804 0.69362 0.39143 0.0
N616 N 0.7506 0.70972 0.29663 0.0
N617 N 0.73781 0.70258 0.36167 0.0
H618 H 0.82708 0.23384 0.90598 0.0
H619 H 0.70451 0.23866 0.75545 0.0
H620 H 0.73665 0.1747 0.90008 0.0
H621 H 0.80671 0.27383 0.75385 0.0
H622 H 0.71218 0.22129 0.81098 0.0
H623 H 0.81575 0.25571 0.85295 0.0
C624 C 0.80462 0.2257 0.89374 0.0
C625 C 0.7829 0.20216 0.90754 0.0
C626 C 0.73289 0.2328 0.79843 0.0
C627 C 0.76995 0.22708 0.84657 0.0
C628 C 0.72851 0.24278 0.76684 0.0
C629 C 0.7551 0.25747 0.75003 0.0
C630 C 0.76394 0.23798 0.81337 0.0
C631 C 0.78572 0.26214 0.76581 0.0
C632 C 0.7983 0.23808 0.86334 0.0
C633 C 0.75422 0.19261 0.89036 0.0
N634 N 0.78927 0.2525 0.7966 0.0
N635 N 0.74863 0.20502 0.86072 0.0
H636 H 0.22836 0.29764 0.44906 0.0
H637 H 0.19875 0.14295 0.33113 0.0
H638 H 0.30399 0.22228 0.43236 0.0
H639 H 0.1195 0.20312 0.37133 0.0
H640 H 0.23974 0.17548 0.36213 0.0
H641 H 0.19028 0.26703 0.41447 0.0
C642 C 0.23709 0.2747 0.43804 0.0
C643 C 0.26948 0.26247 0.44386 0.0
C644 C 0.21336 0.1815 0.36408 0.0
C645 C 0.22569 0.22718 0.404 0.0
C646 C 0.19006 0.16311 0.34633 0.0
C647 C 0.15573 0.17024 0.34893 0.0
C648 C 0.20218 0.20743 0.38412 0.0
C649 C 0.14569 0.19651 0.36899 0.0
C650 C 0.21521 0.25716 0.41832 0.0
C651 C 0.27921 0.23256 0.42876 0.0
N652 N 0.16878 0.21414 0.38575 0.0
N653 N 0.25738 0.2159 0.4095 0.0
H654 H 0.27679 0.81301 0.93005 0.0
H655 H 0.30747 0.62507 0.87335 0.0
H656 H 0.20767 0.73211 0.94838 0.0
H657 H 0.35897 0.7084 0.83035 0.0
H658 H 0.2731 0.6642 0.90388 0.0
H659 H 0.30954 0.77545 0.89581 0.0
C660 C 0.26842 0.78745 0.92683 0.0
C661 C 0.23945 0.77572 0.94227 0.0
C662 C 0.29181 0.67401 0.8877 0.0
C663 C 0.27693 0.73267 0.90336 0.0
C664 C 0.31157 0.65168 0.87044 0.0
C665 C 0.3362 0.66356 0.84949 0.0
C666 C 0.29692 0.70857 0.88433 0.0
C667 C 0.34015 0.69828 0.84623 0.0
C668 C 0.28707 0.76608 0.90722 0.0
C669 C 0.22977 0.74236 0.93704 0.0
N670 N 0.32087 0.71964 0.8637 0.0
N671 N 0.24858 0.72201 0.91827 0.0
loop_
_geom_bond_atom_site_label_1
_geom_bond_atom_site_label_2
_geom_bond_distance
_geom_bond_site_symmetry_2
_ccdc_geom_bond_type
Sc0 O3 2.025 . S
Sc0 O10 2.105 1_554 S
Sc0 O13 2.105 . S
Sc0 O16 2.105 . S
Sc0 O19 2.105 1_554 S
Sc1 O3 2.025 . S
Sc1 O11 2.105 1_554 S
Sc1 O15 2.105 . S
Sc1 O17 2.105 . S
Sc1 O21 2.105 1_554 S
Sc2 O3 2.025 . S
Sc2 O12 2.105 1_554 S
Sc2 O14 2.105 . S
Sc2 O18 2.105 . S
Sc2 O20 2.105 1_554 S
O3 Sc0 2.025 . S
O3 Sc1 2.025 . S
O3 Sc2 2.025 . S
C4 O10 1.268 . S
C4 O20 1.268 . S
C5 O11 1.268 . S
C5 O19 1.268 . S
C6 O12 1.268 . S
C6 O21 1.268 . S
C7 O13 1.268 . S
C7 O17 1.268 . S
C8 O14 1.268 . S
C8 O16 1.268 . S
C9 O15 1.268 . S
C9 O18 1.268 . S
O10 Sc0 2.105 1_556 S
O10 C4 1.268 . S
O11 Sc1 2.105 1_556 S
O11 C5 1.268 . S
O12 Sc2 2.105 1_556 S
O12 C6 1.268 . S
O13 Sc0 2.105 . S
O13 C7 1.268 . S
O14 Sc2 2.105 . S
O14 C8 1.268 . S
O15 Sc1 2.105 . S
O15 C9 1.268 . S
O16 Sc0 2.105 . S
O16 C8 1.268 . S
O17 Sc1 2.105 . S
O17 C7 1.268 . S
O18 Sc2 2.105 . S
O18 C9 1.268 . S
O19 Sc0 2.105 1_556 S
O19 C5 1.268 . S
O20 Sc2 2.105 1_556 S
O20 C4 1.268 . S
O21 Sc1 2.105 1_556 S
O21 C6 1.268 . S
Sc22 O25 2.025 . S
Sc22 O32 2.105 . S
Sc22 O35 2.105 . S
Sc22 O38 2.105 . S
Sc22 O41 2.105 . S
Sc23 O25 2.025 . S
Sc23 O33 2.105 . S
Sc23 O37 2.105 . S
Sc23 O39 2.105 . S
Sc23 O43 2.105 . S
Sc24 O25 2.025 . S
Sc24 O34 2.105 . S
Sc24 O36 2.105 . S
Sc24 O40 2.105 . S
Sc24 O42 2.105 . S
O25 Sc22 2.025 . S
O25 Sc23 2.025 . S
O25 Sc24 2.025 . S
C26 O32 1.268 . S
C26 O42 1.268 . S
C27 O33 1.268 . S
C27 O41 1.268 . S
C28 O34 1.268 . S
C28 O43 1.268 . S
C29 O35 1.268 . S
C29 O39 1.268 . S
C30 O36 1.268 . S
C30 O38 1.268 . S
C31 O37 1.268 . S
C31 O40 1.268 . S
O32 Sc22 2.105 . S
O32 C26 1.268 . S
O33 Sc23 2.105 . S
O33 C27 1.268 . S
O34 Sc24 2.105 . S
O34 C28 1.268 . S
O35 Sc22 2.105 . S
O35 C29 1.268 . S
O36 Sc24 2.105 . S
O36 C30 1.268 . S
O37 Sc23 2.105 . S
O37 C31 1.268 . S
O38 Sc22 2.105 . S
O38 C30 1.268 . S
O39 Sc23 2.105 . S
O39 C29 1.268 . S
O40 Sc24 2.105 . S
O40 C31 1.268 . S
O41 Sc22 2.105 . S
O41 C27 1.268 . S
O42 Sc24 2.105 . S
O42 C26 1.268 . S
O43 Sc23 2.105 . S
O43 C28 1.268 . S
Sc44 O47 2.025 . S
Sc44 O54 2.105 1_554 S
Sc44 O57 2.105 . S
Sc44 O60 2.105 . S
Sc44 O63 2.105 1_554 S
Sc45 O47 2.025 . S
Sc45 O55 2.105 1_554 S
Sc45 O59 2.105 . S
Sc45 O61 2.105 . S
Sc45 O65 2.105 1_554 S
Sc46 O47 2.025 . S
Sc46 O56 2.105 1_554 S
Sc46 O58 2.105 . S
Sc46 O62 2.105 . S
Sc46 O64 2.105 1_554 S
O47 Sc44 2.025 . S
O47 Sc45 2.025 . S
O47 Sc46 2.025 . S
C48 O54 1.268 . S
C48 O64 1.268 . S
C49 O55 1.268 . S
C49 O63 1.268 . S
C50 O56 1.268 . S
C50 O65 1.268 . S
C51 O57 1.268 . S
C51 O61 1.268 . S
C52 O58 1.268 . S
C52 O60 1.268 . S
C53 O59 1.268 . S
C53 O62 1.268 . S
O54 Sc44 2.105 1_556 S
O54 C48 1.268 . S
O55 Sc45 2.105 1_556 S
O55 C49 1.268 . S
O56 Sc46 2.105 1_556 S
O56 C50 1.268 . S
O57 Sc44 2.105 . S
O57 C51 1.268 . S
O58 Sc46 2.105 . S
O58 C52 1.268 . S
O59 Sc45 2.105 . S
O59 C53 1.268 . S
O60 Sc44 2.105 . S
O60 C52 1.268 . S
O61 Sc45 2.105 . S
O61 C51 1.268 . S
O62 Sc46 2.105 . S
O62 C53 1.268 . S
O63 Sc44 2.105 1_556 S
O63 C49 1.268 . S
O64 Sc46 2.105 1_556 S
O64 C48 1.268 . S
O65 Sc45 2.105 1_556 S
O65 C50 1.268 . S
Sc66 O69 2.025 . S
Sc66 O76 2.105 . S
Sc66 O79 2.105 . S
Sc66 O82 2.105 . S
Sc66 O85 2.105 . S
Sc67 O69 2.025 . S
Sc67 O77 2.105 . S
Sc67 O81 2.105 . S
Sc67 O83 2.105 . S
Sc67 O87 2.105 . S
Sc68 O69 2.025 . S
Sc68 O78 2.105 . S
Sc68 O80 2.105 . S
Sc68 O84 2.105 . S
Sc68 O86 2.105 . S
O69 Sc66 2.025 . S
O69 Sc67 2.025 . S
O69 Sc68 2.025 . S
C70 O76 1.268 . S
C70 O86 1.268 . S
C71 O77 1.268 . S
C71 O85 1.268 . S
C72 O78 1.268 . S
C72 O87 1.268 . S
C73 O79 1.268 . S
C73 O83 1.268 . S
C74 O80 1.268 . S
C74 O82 1.268 . S
C75 O81 1.268 . S
C75 O84 1.268 . S
O76 Sc66 2.105 . S
O76 C70 1.268 . S
O77 Sc67 2.105 . S
O77 C71 1.268 . S
O78 Sc68 2.105 . S
O78 C72 1.268 . S
O79 Sc66 2.105 . S
O79 C73 1.268 . S
O80 Sc68 2.105 . S
O80 C74 1.268 . S
O81 Sc67 2.105 . S
O81 C75 1.268 . S
O82 Sc66 2.105 . S
O82 C74 1.268 . S
O83 Sc67 2.105 . S
O83 C73 1.268 . S
O84 Sc68 2.105 . S
O84 C75 1.268 . S
O85 Sc66 2.105 . S
O85 C71 1.268 . S
O86 Sc68 2.105 . S
O86 C70 1.268 . S
O87 Sc67 2.105 . S
O87 C72 1.268 . S
H88 C89 0.949 . S
C89 H88 0.949 . S
C89 C90 1.395 . S
C89 C91 1.391 . S
C90 C89 1.395 . S
C90 C93 1.390 . S
C91 C89 1.391 . S
C91 C95 1.387 . S
C91 C96 1.491 . S
H92 C93 0.950 . S
C93 C90 1.390 . S
C93 H92 0.950 . S
C93 C94 1.378 . S
C94 C93 1.378 . S
C94 C95 1.409 . S
C95 C91 1.387 . S
C95 C94 1.409 . S
C95 H97 0.951 . S
C96 C91 1.491 . S
C96 C98 1.382 . S
C96 C100 1.404 . S
H97 C95 0.951 . S
C98 C96 1.382 . S
C98 C99 1.390 . S
C98 H103 0.949 . S
C99 C98 1.390 . S
C99 C104 1.399 . S
C100 C96 1.404 . S
C100 H101 0.950 . S
C100 C102 1.375 . S
H101 C100 0.950 . S
C102 C100 1.375 . S
C102 C104 1.382 . S
C102 H106 0.950 . S
H103 C98 0.949 . S
C104 C99 1.399 . S
C104 C102 1.382 . S
C104 H105 0.952 . S
H105 C104 0.952 . S
H106 C102 0.950 . S
H107 C108 0.949 . S
C108 H107 0.949 . S
C108 C109 1.395 . S
C108 C110 1.391 . S
C109 C108 1.395 . S
C109 C112 1.390 . S
C110 C108 1.391 . S
C110 C114 1.387 . S
C110 C115 1.491 . S
H111 C112 0.950 . S
C112 C109 1.390 . S
C112 H111 0.950 . S
C112 C113 1.378 . S
C113 C112 1.378 . S
C113 C114 1.409 . S
C114 C110 1.387 . S
C114 C113 1.409 . S
C114 H116 0.951 . S
C115 C110 1.491 . S
C115 C117 1.382 . S
C115 C119 1.404 . S
H116 C114 0.951 . S
C117 C115 1.382 . S
C117 C118 1.390 . S
C117 H122 0.949 . S
C118 C117 1.390 . S
C118 C123 1.399 . S
C119 C115 1.404 . S
C119 H120 0.950 . S
C119 C121 1.375 . S
H120 C119 0.950 . S
C121 C119 1.375 . S
C121 C123 1.382 . S
C121 H125 0.950 . S
H122 C117 0.949 . S
C123 C118 1.399 . S
C123 C121 1.382 . S
C123 H124 0.952 . S
H124 C123 0.952 . S
H125 C121 0.950 . S
H126 C127 0.949 . S
C127 H126 0.949 . S
C127 C128 1.395 . S
C127 C129 1.391 . S
C128 C127 1.395 . S
C128 C131 1.390 . S
C129 C127 1.391 . S
C129 C133 1.387 . S
C129 C134 1.491 . S
H130 C131 0.950 . S
C131 C128 1.390 . S
C131 H130 0.950 . S
C131 C132 1.378 . S
C132 C131 1.378 . S
C132 C133 1.409 . S
C133 C129 1.387 . S
C133 C132 1.409 . S
C133 H135 0.951 . S
C134 C129 1.491 . S
C134 C136 1.382 . S
C134 C138 1.404 . S
H135 C133 0.951 . S
C136 C134 1.382 . S
C136 C137 1.390 . S
C136 H141 0.949 . S
C137 C136 1.390 . S
C137 C142 1.399 . S
C138 C134 1.404 . S
C138 H139 0.950 . S
C138 C140 1.375 . S
H139 C138 0.950 . S
C140 C138 1.375 . S
C140 C142 1.382 . S
C140 H144 0.950 . S
H141 C136 0.949 . S
C142 C137 1.399 . S
C142 C140 1.382 . S
C142 H143 0.952 . S
H143 C142 0.952 . S
H144 C140 0.950 . S
H145 C146 0.949 . S
C146 H145 0.949 . S
C146 C147 1.395 . S
C146 C148 1.391 . S
C147 C146 1.395 . S
C147 C150 1.390 . S
C148 C146 1.391 . S
C148 C152 1.387 . S
C148 C153 1.491 . S
H149 C150 0.950 . S
C150 C147 1.390 . S
C150 H149 0.950 . S
C150 C151 1.378 . S
C151 C150 1.378 . S
C151 C152 1.409 . S
C152 C148 1.387 . S
C152 C151 1.409 . S
C152 H154 0.951 . S
C153 C148 1.491 . S
C153 C155 1.382 . S
C153 C157 1.404 . S
H154 C152 0.951 . S
C155 C153 1.382 . S
C155 C156 1.390 . S
C155 H160 0.949 . S
C156 C155 1.390 . S
C156 C161 1.399 . S
C157 C153 1.404 . S
C157 H158 0.950 . S
C157 C159 1.375 . S
H158 C157 0.950 . S
C159 C157 1.375 . S
C159 C161 1.382 . S
C159 H163 0.950 . S
H160 C155 0.949 . S
C161 C156 1.399 . S
C161 C159 1.382 . S
C161 H162 0.952 . S
H162 C161 0.952 . S
H163 C159 0.950 . S
H164 C165 0.949 . S
C165 H164 0.949 . S
C165 C166 1.395 . S
C165 C167 1.391 . S
C166 C165 1.395 . S
C166 C169 1.390 . S
C167 C165 1.391 . S
C167 C171 1.387 . S
C167 C172 1.491 . S
H168 C169 0.950 . S
C169 C166 1.390 . S
C169 H168 0.950 . S
C169 C170 1.378 . S
C170 C169 1.378 . S
C170 C171 1.409 . S
C171 C167 1.387 . S
C171 C170 1.409 . S
C171 H173 0.951 . S
C172 C167 1.491 . S
C172 C174 1.382 . S
C172 C176 1.404 . S
H173 C171 0.951 . S
C174 C172 1.382 . S
C174 C175 1.390 . S
C174 H179 0.949 . S
C175 C174 1.390 . S
C175 C180 1.399 . S
C176 C172 1.404 . S
C176 H177 0.950 . S
C176 C178 1.375 . S
H177 C176 0.950 . S
C178 C176 1.375 . S
C178 C180 1.382 . S
C178 H182 0.950 . S
H179 C174 0.949 . S
C180 C175 1.399 . S
C180 C178 1.382 . S
C180 H181 0.952 . S
H181 C180 0.952 . S
H182 C178 0.950 . S
H183 C184 0.949 . S
C184 H183 0.949 . S
C184 C185 1.395 . S
C184 C186 1.391 . S
C185 C184 1.395 . S
C185 C188 1.390 . S
C186 C184 1.391 . S
C186 C190 1.387 . S
C186 C191 1.491 . S
H187 C188 0.950 . S
C188 C185 1.390 . S
C188 H187 0.950 . S
C188 C189 1.378 . S
C189 C188 1.378 . S
C189 C190 1.409 . S
C190 C186 1.387 . S
C190 C189 1.409 . S
C190 H192 0.951 . S
C191 C186 1.491 . S
C191 C193 1.382 . S
C191 C195 1.404 . S
H192 C190 0.951 . S
C193 C191 1.382 . S
C193 C194 1.390 . S
C193 H198 0.949 . S
C194 C193 1.390 . S
C194 C199 1.399 . S
C195 C191 1.404 . S
C195 H196 0.950 . S
C195 C197 1.375 . S
H196 C195 0.950 . S
C197 C195 1.375 . S
C197 C199 1.382 . S
C197 H201 0.950 . S
H198 C193 0.949 . S
C199 C194 1.399 . S
C199 C197 1.382 . S
C199 H200 0.952 . S
H200 C199 0.952 . S
H201 C197 0.950 . S
H202 C203 0.949 . S
C203 H202 0.949 . S
C203 C204 1.395 . S
C203 C205 1.391 . S
C204 C203 1.395 . S
C204 C207 1.390 . S
C205 C203 1.391 . S
C205 C209 1.387 . S
C205 C210 1.491 . S
H206 C207 0.950 . S
C207 C204 1.390 . S
C207 H206 0.950 . S
C207 C208 1.378 . S
C208 C207 1.378 . S
C208 C209 1.409 . S
C209 C205 1.387 . S
C209 C208 1.409 . S
C209 H211 0.951 . S
C210 C205 1.491 . S
C210 C212 1.382 . S
C210 C214 1.404 . S
H211 C209 0.951 . S
C212 C210 1.382 . S
C212 C213 1.390 . S
C212 H217 0.949 . S
C213 C212 1.390 . S
C213 C218 1.399 . S
C214 C210 1.404 . S
C214 H215 0.950 . S
C214 C216 1.375 . S
H215 C214 0.950 . S
C216 C214 1.375 . S
C216 C218 1.382 . S
C216 H220 0.950 . S
H217 C212 0.949 . S
C218 C213 1.399 . S
C218 C216 1.382 . S
C218 H219 0.952 . S
H219 C218 0.952 . S
H220 C216 0.950 . S
H221 C222 0.949 . S
C222 H221 0.949 . S
C222 C223 1.395 . S
C222 C224 1.391 . S
C223 C222 1.395 . S
C223 C226 1.390 . S
C224 C222 1.391 . S
C224 C228 1.387 . S
C224 C229 1.491 . S
H225 C226 0.950 . S
C226 C223 1.390 . S
C226 H225 0.950 . S
C226 C227 1.378 . S
C227 C226 1.378 . S
C227 C228 1.409 . S
C228 C224 1.387 . S
C228 C227 1.409 . S
C228 H230 0.951 . S
C229 C224 1.491 . S
C229 C231 1.382 . S
C229 C233 1.404 . S
H230 C228 0.951 . S
C231 C229 1.382 . S
C231 C232 1.390 . S
C231 H236 0.949 . S
C232 C231 1.390 . S
C232 C237 1.399 . S
C233 C229 1.404 . S
C233 H234 0.950 . S
C233 C235 1.375 . S
H234 C233 0.950 . S
C235 C233 1.375 . S
C235 C237 1.382 . S
C235 H239 0.950 . S
H236 C231 0.949 . S
C237 C232 1.399 . S
C237 C235 1.382 . S
C237 H238 0.952 . S
H238 C237 0.952 . S
H239 C235 0.950 . S
H240 C246 0.930 . S
H241 C250 0.930 . S
H242 C255 0.929 . S
H243 C253 0.929 . S
H244 C248 0.929 . S
H245 C254 0.929 . S
C246 H240 0.930 . S
C246 C247 1.367 . S
C246 C254 1.378 . S
C247 C246 1.367 . S
C247 C255 1.433 . S
C248 H244 0.929 . S
C248 C250 1.378 . S
C248 C252 1.350 . S
C249 C252 1.463 . S
C249 C254 1.350 1_545 S
C249 N257 1.427 . S
C250 H241 0.930 . S
C250 C248 1.378 . S
C250 C251 1.367 . S
C251 C250 1.367 . S
C251 C253 1.433 . S
C252 C248 1.350 . S
C252 C249 1.463 . S
C252 N256 1.427 . S
C253 H243 0.929 . S
C253 C251 1.433 . S
C253 N256 1.384 . S
C254 H245 0.929 . S
C254 C246 1.378 . S
C254 C249 1.350 1_565 S
C255 H242 0.929 . S
C255 C247 1.433 . S
C255 N257 1.384 1_565 S
N256 C252 1.427 . S
N256 C253 1.384 . S
N257 C249 1.427 . S
N257 C255 1.384 1_545 S
H258 C264 0.930 . S
H259 C268 0.930 . S
H260 C273 0.929 . S
H261 C271 0.929 . S
H262 C266 0.929 . S
H263 C272 0.929 . S
C264 H258 0.930 . S
C264 C265 1.367 . S
C264 C272 1.378 . S
C265 C264 1.367 . S
C265 C273 1.433 . S
C266 H262 0.929 . S
C266 C268 1.378 . S
C266 C270 1.350 . S
C267 C270 1.463 . S
C267 C272 1.350 . S
C267 N275 1.427 . S
C268 H259 0.930 . S
C268 C266 1.378 . S
C268 C269 1.367 . S
C269 C268 1.367 . S
C269 C271 1.433 . S
C270 C266 1.350 . S
C270 C267 1.463 . S
C270 N274 1.427 . S
C271 H261 0.929 . S
C271 C269 1.433 . S
C271 N274 1.384 . S
C272 H263 0.929 . S
C272 C264 1.378 . S
C272 C267 1.350 . S
C273 H260 0.929 . S
C273 C265 1.433 . S
C273 N275 1.384 . S
N274 C270 1.427 . S
N274 C271 1.384 . S
N275 C267 1.427 . S
N275 C273 1.384 . S
H276 C282 0.930 . S
H277 C286 0.930 . S
H278 C291 0.929 . S
H279 C289 0.929 . S
H280 C284 0.929 . S
H281 C290 0.929 . S
C282 H276 0.930 . S
C282 C283 1.367 . S
C282 C290 1.378 . S
C283 C282 1.367 . S
C283 C291 1.433 . S
C284 H280 0.929 . S
C284 C286 1.378 . S
C284 C288 1.350 . S
C285 C288 1.463 . S
C285 C290 1.350 1_565 S
C285 N293 1.427 . S
C286 H277 0.930 . S
C286 C284 1.378 . S
C286 C287 1.367 . S
C287 C286 1.367 . S
C287 C289 1.433 . S
C288 C284 1.350 . S
C288 C285 1.463 . S
C288 N292 1.427 . S
C289 H279 0.929 . S
C289 C287 1.433 . S
C289 N292 1.384 . S
C290 H281 0.929 . S
C290 C282 1.378 . S
C290 C285 1.350 1_545 S
C291 H278 0.929 . S
C291 C283 1.433 . S
C291 N293 1.384 1_545 S
N292 C288 1.427 . S
N292 C289 1.384 . S
N293 C285 1.427 . S
N293 C291 1.384 1_565 S
H294 C300 0.930 . S
H295 C304 0.930 . S
H296 C309 0.929 . S
H297 C307 0.929 . S
H298 C302 0.929 . S
H299 C308 0.929 . S
C300 H294 0.930 . S
C300 C301 1.367 . S
C300 C308 1.378 . S
C301 C300 1.367 . S
C301 C309 1.433 . S
C302 H298 0.929 . S
C302 C304 1.378 . S
C302 C306 1.350 . S
C303 C306 1.463 . S
C303 C308 1.350 . S
C303 N311 1.427 . S
C304 H295 0.930 . S
C304 C302 1.378 . S
C304 C305 1.367 . S
C305 C304 1.367 . S
C305 C307 1.433 . S
C306 C302 1.350 . S
C306 C303 1.463 . S
C306 N310 1.427 . S
C307 H297 0.929 . S
C307 C305 1.433 . S
C307 N310 1.384 . S
C308 H299 0.929 . S
C308 C300 1.378 . S
C308 C303 1.350 . S
C309 H296 0.929 . S
C309 C301 1.433 . S
C309 N311 1.384 . S
N310 C306 1.427 . S
N310 C307 1.384 . S
N311 C303 1.427 . S
N311 C309 1.384 . S
H312 C318 0.930 . S
H313 C322 0.930 . S
H314 C327 0.929 . S
H315 C325 0.929 . S
H316 C320 0.929 . S
H317 C326 0.929 . S
C318 H312 0.930 . S
C318 C319 1.367 . S
C318 C326 1.378 . S
C319 C318 1.367 . S
C319 C327 1.433 . S
C320 H316 0.929 . S
C320 C322 1.378 . S
C320 C324 1.350 . S
C321 C324 1.463 . S
C321 C326 1.350 . S
C321 N329 1.427 . S
C322 H313 0.930 . S
C322 C320 1.378 . S
C322 C323 1.367 . S
C323 C322 1.367 . S
C323 C325 1.433 . S
C324 C320 1.350 . S
C324 C321 1.463 . S
C324 N328 1.427 . S
C325 H315 0.929 . S
C325 C323 1.433 . S
C325 N328 1.384 . S
C326 H317 0.929 . S
C326 C318 1.378 . S
C326 C321 1.350 . S
C327 H314 0.929 . S
C327 C319 1.433 . S
C327 N329 1.384 . S
N328 C324 1.427 . S
N328 C325 1.384 . S
N329 C321 1.427 . S
N329 C327 1.384 . S
H330 C336 0.930 . S
H331 C340 0.930 . S
H332 C345 0.929 . S
H333 C343 0.929 . S
H334 C338 0.929 . S
H335 C344 0.929 . S
C336 H330 0.930 . S
C336 C337 1.367 . S
C336 C344 1.378 . S
C337 C336 1.367 . S
C337 C345 1.433 . S
C338 H334 0.929 . S
C338 C340 1.378 . S
C338 C342 1.350 . S
C339 C342 1.463 . S
C339 C344 1.350 1_455 S
C339 N347 1.427 . S
C340 H331 0.930 . S
C340 C338 1.378 . S
C340 C341 1.367 . S
C341 C340 1.367 . S
C341 C343 1.433 . S
C342 C338 1.350 . S
C342 C339 1.463 . S
C342 N346 1.427 . S
C343 H333 0.929 . S
C343 C341 1.433 . S
C343 N346 1.384 . S
C344 H335 0.929 . S
C344 C336 1.378 . S
C344 C339 1.350 1_655 S
C345 H332 0.929 . S
C345 C337 1.433 . S
C345 N347 1.384 1_655 S
N346 C342 1.427 . S
N346 C343 1.384 . S
N347 C339 1.427 . S
N347 C345 1.384 1_455 S
H348 C354 0.930 . S
H349 C358 0.930 . S
H350 C363 0.929 . S
H351 C361 0.929 . S
H352 C356 0.929 . S
H353 C362 0.929 . S
C354 H348 0.930 . S
C354 C355 1.367 . S
C354 C362 1.378 . S
C355 C354 1.367 . S
C355 C363 1.433 . S
C356 H352 0.929 . S
C356 C358 1.378 . S
C356 C360 1.350 . S
C357 C360 1.463 . S
C357 C362 1.350 . S
C357 N365 1.427 . S
C358 H349 0.930 . S
C358 C356 1.378 . S
C358 C359 1.367 . S
C359 C358 1.367 . S
C359 C361 1.433 . S
C360 C356 1.350 . S
C360 C357 1.463 . S
C360 N364 1.427 . S
C361 H351 0.929 . S
C361 C359 1.433 . S
C361 N364 1.384 . S
C362 H353 0.929 . S
C362 C354 1.378 . S
C362 C357 1.350 . S
C363 H350 0.929 . S
C363 C355 1.433 . S
C363 N365 1.384 . S
N364 C360 1.427 . S
N364 C361 1.384 . S
N365 C357 1.427 . S
N365 C363 1.384 . S
H366 C372 0.930 . S
H367 C376 0.930 . S
H368 C381 0.929 . S
H369 C379 0.929 . S
H370 C374 0.929 . S
H371 C380 0.929 . S
C372 H366 0.930 . S
C372 C373 1.367 . S
C372 C380 1.378 . S
C373 C372 1.367 . S
C373 C381 1.433 . S
C374 H370 0.929 . S
C374 C376 1.378 . S
C374 C378 1.350 . S
C375 C378 1.463 . S
C375 C380 1.350 1_655 S
C375 N383 1.427 . S
C376 H367 0.930 . S
C376 C374 1.378 . S
C376 C377 1.367 . S
C377 C376 1.367 . S
C377 C379 1.433 . S
C378 C374 1.350 . S
C378 C375 1.463 . S
C378 N382 1.427 . S
C379 H369 0.929 . S
C379 C377 1.433 . S
C379 N382 1.384 . S
C380 H371 0.929 . S
C380 C372 1.378 . S
C380 C375 1.350 1_455 S
C381 H368 0.929 . S
C381 C373 1.433 . S
C381 N383 1.384 1_455 S
N382 C378 1.427 . S
N382 C379 1.384 . S
N383 C375 1.427 . S
N383 C381 1.384 1_655 S
H384 C390 0.930 . S
H385 C394 0.930 . S
H386 C399 0.929 . S
H387 C397 0.929 . S
H388 C392 0.929 . S
H389 C398 0.929 . S
C390 H384 0.930 . S
C390 C391 1.367 . S
C390 C398 1.378 . S
C391 C390 1.367 . S
C391 C399 1.433 . S
C392 H388 0.929 . S
C392 C394 1.378 . S
C392 C396 1.350 . S
C393 C396 1.463 . S
C393 C398 1.350 1_565 S
C393 N401 1.427 . S
C394 H385 0.930 . S
C394 C392 1.378 . S
C394 C395 1.367 . S
C395 C394 1.367 . S
C395 C397 1.433 . S
C396 C392 1.350 . S
C396 C393 1.463 . S
C396 N400 1.427 . S
C397 H387 0.929 . S
C397 C395 1.433 . S
C397 N400 1.384 . S
C398 H389 0.929 . S
C398 C390 1.378 . S
C398 C393 1.350 1_545 S
C399 H386 0.929 . S
C399 C391 1.433 . S
C399 N401 1.384 1_545 S
N400 C396 1.427 . S
N400 C397 1.384 . S
N401 C393 1.427 . S
N401 C399 1.384 1_565 S
H402 C408 0.930 . S
H403 C412 0.930 . S
H404 C417 0.929 . S
H405 C415 0.929 . S
H406 C410 0.929 . S
H407 C416 0.929 . S
C408 H402 0.930 . S
C408 C409 1.367 . S
C408 C416 1.378 . S
C409 C408 1.367 . S
C409 C417 1.433 . S
C410 H406 0.929 . S
C410 C412 1.378 . S
C410 C414 1.350 . S
C411 C414 1.463 . S
C411 C416 1.350 . S
C411 N419 1.427 . S
C412 H403 0.930 . S
C412 C410 1.378 . S
C412 C413 1.367 . S
C413 C412 1.367 . S
C413 C415 1.433 . S
C414 C410 1.350 . S
C414 C411 1.463 . S
C414 N418 1.427 . S
C415 H405 0.929 . S
C415 C413 1.433 . S
C415 N418 1.384 . S
C416 H407 0.929 . S
C416 C408 1.378 . S
C416 C411 1.350 . S
C417 H404 0.929 . S
C417 C409 1.433 . S
C417 N419 1.384 . S
N418 C414 1.427 . S
N418 C415 1.384 . S
N419 C411 1.427 . S
N419 C417 1.384 . S
H420 C426 0.930 . S
H421 C430 0.930 . S
H422 C435 0.929 . S
H423 C433 0.929 . S
H424 C428 0.929 . S
H425 C434 0.929 . S
C426 H420 0.930 . S
C426 C427 1.367 . S
C426 C434 1.378 . S
C427 C426 1.367 . S
C427 C435 1.433 . S
C428 H424 0.929 . S
C428 C430 1.378 . S
C428 C432 1.350 . S
C429 C432 1.463 . S
C429 C434 1.350 1_545 S
C429 N437 1.427 . S
C430 H421 0.930 . S
C430 C428 1.378 . S
C430 C431 1.367 . S
C431 C430 1.367 . S
C431 C433 1.433 . S
C432 C428 1.350 . S
C432 C429 1.463 . S
C432 N436 1.427 . S
C433 H423 0.929 . S
C433 C431 1.433 . S
C433 N436 1.384 . S
C434 H425 0.929 . S
C434 C426 1.378 . S
C434 C429 1.350 1_565 S
C435 H422 0.929 . S
C435 C427 1.433 . S
C435 N437 1.384 1_565 S
N436 C432 1.427 . S
N436 C433 1.384 . S
N437 C429 1.427 . S
N437 C435 1.384 1_545 S
H438 C444 0.930 . S
H439 C448 0.930 . S
H440 C453 0.929 . S
H441 C451 0.929 . S
H442 C446 0.929 . S
H443 C452 0.929 . S
C444 H438 0.930 . S
C444 C445 1.367 . S
C444 C452 1.378 . S
C445 C444 1.367 . S
C445 C453 1.433 . S
C446 H442 0.929 . S
C446 C448 1.378 . S
C446 C450 1.350 . S
C447 C450 1.463 . S
C447 C452 1.350 . S
C447 N455 1.427 . S
C448 H439 0.930 . S
C448 C446 1.378 . S
C448 C449 1.367 . S
C449 C448 1.367 . S
C449 C451 1.433 . S
C450 C446 1.350 . S
C450 C447 1.463 . S
C450 N454 1.427 . S
C451 H441 0.929 . S
C451 C449 1.433 . S
C451 N454 1.384 . S
C452 H443 0.929 . S
C452 C444 1.378 . S
C452 C447 1.350 . S
C453 H440 0.929 . S
C453 C445 1.433 . S
C453 N455 1.384 . S
N454 C450 1.427 . S
N454 C451 1.384 . S
N455 C447 1.427 . S
N455 C453 1.384 . S
H456 C462 0.930 . S
H457 C466 0.930 . S
H458 C471 0.929 . S
H459 C469 0.929 . S
H460 C464 0.929 . S
H461 C470 0.929 . S
C462 H456 0.930 . S
C462 C463 1.367 . S
C462 C470 1.378 . S
C463 C462 1.367 . S
C463 C471 1.433 . S
C464 H460 0.929 . S
C464 C466 1.378 . S
C464 C468 1.350 . S
C465 C468 1.463 . S
C465 C470 1.350 . S
C465 N473 1.427 . S
C466 H457 0.930 . S
C466 C464 1.378 . S
C466 C467 1.367 . S
C467 C466 1.367 . S
C467 C469 1.433 . S
C468 C464 1.350 . S
C468 C465 1.463 . S
C468 N472 1.427 . S
C469 H459 0.929 . S
C469 C467 1.433 . S
C469 N472 1.384 . S
C470 H461 0.929 . S
C470 C462 1.378 . S
C470 C465 1.350 . S
C471 H458 0.929 . S
C471 C463 1.433 . S
C471 N473 1.384 . S
N472 C468 1.427 . S
N472 C469 1.384 . S
N473 C465 1.427 . S
N473 C471 1.384 . S
H474 C480 0.930 . S
H475 C484 0.930 . S
H476 C489 0.929 . S
H477 C487 0.929 . S
H478 C482 0.929 . S
H479 C488 0.929 . S
C480 H474 0.930 . S
C480 C481 1.367 . S
C480 C488 1.378 1_455 S
C481 C480 1.367 . S
C481 C489 1.433 . S
C482 H478 0.929 . S
C482 C484 1.378 . S
C482 C486 1.350 . S
C483 C486 1.463 . S
C483 C488 1.350 . S
C483 N491 1.427 1_655 S
C484 H475 0.930 . S
C484 C482 1.378 . S
C484 C485 1.367 . S
C485 C484 1.367 . S
C485 C487 1.433 . S
C486 C482 1.350 . S
C486 C483 1.463 . S
C486 N490 1.427 . S
C487 H477 0.929 . S
C487 C485 1.433 . S
C487 N490 1.384 . S
C488 H479 0.929 . S
C488 C480 1.378 1_655 S
C488 C483 1.350 . S
C489 H476 0.929 . S
C489 C481 1.433 . S
C489 N491 1.384 . S
N490 C486 1.427 . S
N490 C487 1.384 . S
N491 C483 1.427 1_455 S
N491 C489 1.384 . S
H492 C498 0.930 . S
H493 C502 0.930 . S
H494 C507 0.929 . S
H495 C505 0.929 . S
H496 C500 0.929 . S
H497 C506 0.929 . S
C498 H492 0.930 . S
C498 C499 1.367 . S
C498 C506 1.378 . S
C499 C498 1.367 . S
C499 C507 1.433 . S
C500 H496 0.929 . S
C500 C502 1.378 . S
C500 C504 1.350 . S
C501 C504 1.463 . S
C501 C506 1.350 . S
C501 N509 1.427 . S
C502 H493 0.930 . S
C502 C500 1.378 . S
C502 C503 1.367 . S
C503 C502 1.367 . S
C503 C505 1.433 . S
C504 C500 1.350 . S
C504 C501 1.463 . S
C504 N508 1.427 . S
C505 H495 0.929 . S
C505 C503 1.433 . S
C505 N508 1.384 . S
C506 H497 0.929 . S
C506 C498 1.378 . S
C506 C501 1.350 . S
C507 H494 0.929 . S
C507 C499 1.433 . S
C507 N509 1.384 . S
N508 C504 1.427 . S
N508 C505 1.384 . S
N509 C501 1.427 . S
N509 C507 1.384 . S
H510 C516 0.930 . S
H511 C520 0.930 . S
H512 C525 0.929 . S
H513 C523 0.929 . S
H514 C518 0.929 . S
H515 C524 0.929 . S
C516 H510 0.930 . S
C516 C517 1.367 . S
C516 C524 1.378 . S
C517 C516 1.367 . S
C517 C525 1.433 . S
C518 H514 0.929 . S
C518 C520 1.378 . S
C518 C522 1.350 . S
C519 C522 1.463 . S
C519 C524 1.350 1_455 S
C519 N527 1.427 . S
C520 H511 0.930 . S
C520 C518 1.378 . S
C520 C521 1.367 . S
C521 C520 1.367 . S
C521 C523 1.433 . S
C522 C518 1.350 . S
C522 C519 1.463 . S
C522 N526 1.427 . S
C523 H513 0.929 . S
C523 C521 1.433 . S
C523 N526 1.384 . S
C524 H515 0.929 . S
C524 C516 1.378 . S
C524 C519 1.350 1_655 S
C525 H512 0.929 . S
C525 C517 1.433 . S
C525 N527 1.384 1_655 S
N526 C522 1.427 . S
N526 C523 1.384 . S
N527 C519 1.427 . S
N527 C525 1.384 1_455 S
H528 C534 0.930 . S
H529 C538 0.930 . S
H530 C543 0.929 . S
H531 C541 0.929 . S
H532 C536 0.929 . S
H533 C542 0.929 . S
C534 H528 0.930 . S
C534 C535 1.367 . S
C534 C542 1.378 . S
C535 C534 1.367 . S
C535 C543 1.433 . S
C536 H532 0.929 . S
C536 C538 1.378 . S
C536 C540 1.350 . S
C537 C540 1.463 . S
C537 C542 1.350 . S
C537 N545 1.427 . S
C538 H529 0.930 . S
C538 C536 1.378 . S
C538 C539 1.367 . S
C539 C538 1.367 . S
C539 C541 1.433 . S
C540 C536 1.350 . S
C540 C537 1.463 . S
C540 N544 1.427 . S
C541 H531 0.929 . S
C541 C539 1.433 . S
C541 N544 1.384 . S
C542 H533 0.929 . S
C542 C534 1.378 . S
C542 C537 1.350 . S
C543 H530 0.929 . S
C543 C535 1.433 . S
C543 N545 1.384 . S
N544 C540 1.427 . S
N544 C541 1.384 . S
N545 C537 1.427 . S
N545 C543 1.384 . S
H546 C552 0.930 . S
H547 C556 0.930 . S
H548 C561 0.929 . S
H549 C559 0.929 . S
H550 C554 0.929 . S
H551 C560 0.929 . S
C552 H546 0.930 . S
C552 C553 1.367 . S
C552 C560 1.378 . S
C553 C552 1.367 . S
C553 C561 1.433 . S
C554 H550 0.929 . S
C554 C556 1.378 . S
C554 C558 1.350 . S
C555 C558 1.463 . S
C555 C560 1.350 . S
C555 N563 1.427 . S
C556 H547 0.930 . S
C556 C554 1.378 . S
C556 C557 1.367 . S
C557 C556 1.367 . S
C557 C559 1.433 . S
C558 C554 1.350 . S
C558 C555 1.463 . S
C558 N562 1.427 . S
C559 H549 0.929 . S
C559 C557 1.433 . S
C559 N562 1.384 . S
C560 H551 0.929 . S
C560 C552 1.378 . S
C560 C555 1.350 . S
C561 H548 0.929 . S
C561 C553 1.433 . S
C561 N563 1.384 . S
N562 C558 1.427 . S
N562 C559 1.384 . S
N563 C555 1.427 . S
N563 C561 1.384 . S
H564 C570 0.930 . S
H565 C574 0.930 . S
H566 C579 0.929 . S
H567 C577 0.929 . S
H568 C572 0.929 . S
H569 C578 0.929 . S
C570 H564 0.930 . S
C570 C571 1.367 . S
C570 C578 1.378 . S
C571 C570 1.367 . S
C571 C579 1.433 . S
C572 H568 0.929 . S
C572 C574 1.378 . S
C572 C576 1.350 . S
C573 C576 1.463 . S
C573 C578 1.350 . S
C573 N581 1.427 . S
C574 H565 0.930 . S
C574 C572 1.378 . S
C574 C575 1.367 . S
C575 C574 1.367 . S
C575 C577 1.433 . S
C576 C572 1.350 . S
C576 C573 1.463 . S
C576 N580 1.427 . S
C577 H567 0.929 . S
C577 C575 1.433 . S
C577 N580 1.384 . S
C578 H569 0.929 . S
C578 C570 1.378 . S
C578 C573 1.350 . S
C579 H566 0.929 . S
C579 C571 1.433 . S
C579 N581 1.384 . S
N580 C576 1.427 . S
N580 C577 1.384 . S
N581 C573 1.427 . S
N581 C579 1.384 . S
H582 C588 0.930 . S
H583 C592 0.930 . S
H584 C597 0.929 . S
H585 C595 0.929 . S
H586 C590 0.929 . S
H587 C596 0.929 . S
C588 H582 0.930 . S
C588 C589 1.367 . S
C588 C596 1.378 . S
C589 C588 1.367 . S
C589 C597 1.433 . S
C590 H586 0.929 . S
C590 C592 1.378 . S
C590 C594 1.350 . S
C591 C594 1.463 . S
C591 C596 1.350 . S
C591 N599 1.427 . S
C592 H583 0.930 . S
C592 C590 1.378 . S
C592 C593 1.367 . S
C593 C592 1.367 . S
C593 C595 1.433 . S
C594 C590 1.350 . S
C594 C591 1.463 . S
C594 N598 1.427 . S
C595 H585 0.929 . S
C595 C593 1.433 . S
C595 N598 1.384 . S
C596 H587 0.929 . S
C596 C588 1.378 . S
C596 C591 1.350 . S
C597 H584 0.929 . S
C597 C589 1.433 . S
C597 N599 1.384 . S
N598 C594 1.427 . S
N598 C595 1.384 . S
N599 C591 1.427 . S
N599 C597 1.384 . S
H600 C606 0.930 . S
H601 C610 0.930 . S
H602 C615 0.929 . S
H603 C613 0.929 . S
H604 C608 0.929 . S
H605 C614 0.929 . S
C606 H600 0.930 . S
C606 C607 1.367 . S
C606 C614 1.378 . S
C607 C606 1.367 . S
C607 C615 1.433 . S
C608 H604 0.929 . S
C608 C610 1.378 . S
C608 C612 1.350 . S
C609 C612 1.463 . S
C609 C614 1.350 . S
C609 N617 1.427 . S
C610 H601 0.930 . S
C610 C608 1.378 . S
C610 C611 1.367 . S
C611 C610 1.367 . S
C611 C613 1.433 . S
C612 C608 1.350 . S
C612 C609 1.463 . S
C612 N616 1.427 . S
C613 H603 0.929 . S
C613 C611 1.433 . S
C613 N616 1.384 . S
C614 H605 0.929 . S
C614 C606 1.378 . S
C614 C609 1.350 . S
C615 H602 0.929 . S
C615 C607 1.433 . S
C615 N617 1.384 . S
N616 C612 1.427 . S
N616 C613 1.384 . S
N617 C609 1.427 . S
N617 C615 1.384 . S
H618 C624 0.930 . S
H619 C628 0.930 . S
H620 C633 0.929 . S
H621 C631 0.929 . S
H622 C626 0.929 . S
H623 C632 0.929 . S
C624 H618 0.930 . S
C624 C625 1.367 . S
C624 C632 1.378 . S
C625 C624 1.367 . S
C625 C633 1.433 . S
C626 H622 0.929 . S
C626 C628 1.378 . S
C626 C630 1.350 . S
C627 C630 1.463 . S
C627 C632 1.350 . S
C627 N635 1.427 . S
C628 H619 0.930 . S
C628 C626 1.378 . S
C628 C629 1.367 . S
C629 C628 1.367 . S
C629 C631 1.433 . S
C630 C626 1.350 . S
C630 C627 1.463 . S
C630 N634 1.427 . S
C631 H621 0.929 . S
C631 C629 1.433 . S
C631 N634 1.384 . S
C632 H623 0.929 . S
C632 C624 1.378 . S
C632 C627 1.350 . S
C633 H620 0.929 . S
C633 C625 1.433 . S
C633 N635 1.384 . S
N634 C630 1.427 . S
N634 C631 1.384 . S
N635 C627 1.427 . S
N635 C633 1.384 . S
H636 C642 0.930 . S
H637 C646 0.930 . S
H638 C651 0.929 . S
H639 C649 0.929 . S
H640 C644 0.929 . S
H641 C650 0.929 . S
C642 H636 0.930 . S
C642 C643 1.367 . S
C642 C650 1.378 . S
C643 C642 1.367 . S
C643 C651 1.433 . S
C644 H640 0.929 . S
C644 C646 1.378 . S
C644 C648 1.350 . S
C645 C648 1.463 . S
C645 C650 1.350 . S
C645 N653 1.427 . S
C646 H637 0.930 . S
C646 C644 1.378 . S
C646 C647 1.367 . S
C647 C646 1.367 . S
C647 C649 1.433 . S
C648 C644 1.350 . S
C648 C645 1.463 . S
C648 N652 1.427 . S
C649 H639 0.929 . S
C649 C647 1.433 . S
C649 N652 1.384 . S
C650 H641 0.929 . S
C650 C642 1.378 . S
C650 C645 1.350 . S
C651 H638 0.929 . S
C651 C643 1.433 . S
C651 N653 1.384 . S
N652 C648 1.427 . S
N652 C649 1.384 . S
N653 C645 1.427 . S
N653 C651 1.384 . S
H654 C660 0.930 . S
H655 C664 0.930 . S
H656 C669 0.929 . S
H657 C667 0.929 . S
H658 C662 0.929 . S
H659 C668 0.929 . S
C660 H654 0.930 . S
C660 C661 1.367 . S
C660 C668 1.378 . S
C661 C660 1.367 . S
C661 C669 1.433 . S
C662 H658 0.929 . S
C662 C664 1.378 . S
C662 C666 1.350 . S
C663 C666 1.463 . S
C663 C668 1.350 . S
C663 N671 1.427 . S
C664 H655 0.930 . S
C664 C662 1.378 . S
C664 C665 1.367 . S
C665 C664 1.367 . S
C665 C667 1.433 . S
C666 C662 1.350 . S
C666 C663 1.463 . S
C666 N670 1.427 . S
C667 H657 0.929 . S
C667 C665 1.433 . S
C667 N670 1.384 . S
C668 H659 0.929 . S
C668 C660 1.378 . S
C668 C663 1.350 . S
C669 H656 0.929 . S
C669 C661 1.433 . S
C669 N671 1.384 . S
N670 C666 1.427 . S
N670 C667 1.384 . S
N671 C663 1.427 . S
N671 C669 1.384 . S
C247 C8 1.420 . S
C251 C90 1.333 . S
C265 C31 1.475 . S
C269 C109 1.391 . S
C283 C53 1.237 . S
C287 C132 1.218 . S
C305 C151 1.172 . S
C301 C74 1.175 . S
C323 C166 1.355 . S
C319 C26 1.416 . S
C337 C48 1.178 . S
C341 C189 1.169 . S
C355 C71 1.236 . S
C359 C208 1.220 . S
C373 C5 1.478 . S
C377 C223 1.405 . S
C391 C50 1.237 . S
C395 C227 1.226 . S
C413 C170 1.176 . S
C409 C70 1.169 . S
C431 C185 1.346 . S
C427 C4 1.424 . S
C445 C28 1.474 . S
C449 C204 1.392 . S
C467 C113 1.232 . S
C463 C73 1.231 . S
C481 C7 1.474 . S
C485 C128 1.391 . S
C503 C147 1.343 . S
C499 C30 1.414 . S
C521 C94 1.163 . S
C517 C52 1.174 . S
C539 C213 1.282 . S
C535 C9 1.397 . S
C557 C232 1.308 . S
C553 C29 1.406 . S
C571 C51 1.314 . S
C575 C175 1.202 . S
C593 C194 1.224 . S
C589 C75 1.315 . S
C611 C137 1.306 . S
C607 C27 1.408 . S
C625 C49 1.317 . S
C629 C156 1.218 . S
C647 C99 1.215 . S
C643 C72 1.317 . S
C665 C118 1.290 . S
C661 C6 1.409 . S
