# Generated by pormake.
# Topology zzz, (3,6)-cn, num edge types: 1
# Building blocks:
#     Node 0, Type 0, BuildingBlock: MIDCAF_clean_linker_0, # of connection points: 3
#     Node 1, Type 0, BuildingBlock: MIDCAF_clean_linker_0, # of connection points: 3
#     Node 2, Type 0, BuildingBlock: MIDCAF_clean_linker_0, # of connection points: 3
#     Node 3, Type 0, BuildingBlock: MIDCAF_clean_linker_0, # of connection points: 3
#     Node 4, Type 0, BuildingBlock: MIDCAF_clean_linker_0, # of connection points: 3
#     Node 5, Type 0, BuildingBlock: MIDCAF_clean_linker_0, # of connection points: 3
#     Node 6, Type 0, BuildingBlock: MIDCAF_clean_linker_0, # of connection points: 3
#     Node 7, Type 0, BuildingBlock: MIDCAF_clean_linker_0, # of connection points: 3
#     Node 8, Type 1, BuildingBlock: FUNLAD_clean_sbu_0, # of connection points: 6
#     Node 9, Type 1, BuildingBlock: FUNLAD_clean_sbu_0, # of connection points: 6
#     Node 10, Type 1, BuildingBlock: FUNLAD_clean_sbu_0, # of connection points: 6
#     Node 11, Type 1, BuildingBlock: FUNLAD_clean_sbu_0, # of connection points: 6
#     Edge 12, Type (0, 1), BuildingBlock: CIFDUS_clean_linker_0, # of connection points: 2
#     Edge 13, Type (0, 1), BuildingBlock: CIFDUS_clean_linker_0, # of connection points: 2
#     Edge 14, Type (0, 1), BuildingBlock: CIFDUS_clean_linker_0, # of connection points: 2
#     Edge 15, Type (0, 1), BuildingBlock: CIFDUS_clean_linker_0, # of connection points: 2
#     Edge 16, Type (0, 1), BuildingBlock: CIFDUS_clean_linker_0, # of connection points: 2
#     Edge 17, Type (0, 1), BuildingBlock: CIFDUS_clean_linker_0, # of connection points: 2
#     Edge 18, Type (0, 1), BuildingBlock: CIFDUS_clean_linker_0, # of connection points: 2
#     Edge 19, Type (0, 1), BuildingBlock: CIFDUS_clean_linker_0, # of connection points: 2
#     Edge 20, Type (0, 1), BuildingBlock: CIFDUS_clean_linker_0, # of connection points: 2
#     Edge 21, Type (0, 1), BuildingBlock: CIFDUS_clean_linker_0, # of connection points: 2
#     Edge 22, Type (0, 1), BuildingBlock: CIFDUS_clean_linker_0, # of connection points: 2
#     Edge 23, Type (0, 1), BuildingBlock: CIFDUS_clean_linker_0, # of connection points: 2
#     Edge 24, Type (0, 1), BuildingBlock: CIFDUS_clean_linker_0, # of connection points: 2
#     Edge 25, Type (0, 1), BuildingBlock: CIFDUS_clean_linker_0, # of connection points: 2
#     Edge 26, Type (0, 1), BuildingBlock: CIFDUS_clean_linker_0, # of connection points: 2
#     Edge 27, Type (0, 1), BuildingBlock: CIFDUS_clean_linker_0, # of connection points: 2
#     Edge 28, Type (0, 1), BuildingBlock: CIFDUS_clean_linker_0, # of connection points: 2
#     Edge 29, Type (0, 1), BuildingBlock: CIFDUS_clean_linker_0, # of connection points: 2
#     Edge 30, Type (0, 1), BuildingBlock: CIFDUS_clean_linker_0, # of connection points: 2
#     Edge 31, Type (0, 1), BuildingBlock: CIFDUS_clean_linker_0, # of connection points: 2
#     Edge 32, Type (0, 1), BuildingBlock: CIFDUS_clean_linker_0, # of connection points: 2
#     Edge 33, Type (0, 1), BuildingBlock: CIFDUS_clean_linker_0, # of connection points: 2
#     Edge 34, Type (0, 1), BuildingBlock: CIFDUS_clean_linker_0, # of connection points: 2
#     Edge 35, Type (0, 1), BuildingBlock: CIFDUS_clean_linker_0, # of connection points: 2
# Relax obj value: 0.276
# Max RMSD: 0.231
# Mean RMSD: 0.193
data_MOF--net-zzz--node1-FUNLAD_clean_sbu_0--node2-MIDCAF_clean_linker_0--edge1-CIFDUS_clean_linker_0
_symmetry_space_group_name_H-M    P1
_symmetry_Int_Tables_number       1
_symmetry_cell_setting            triclinic
loop_
_symmetry_equiv_pos_as_xyz
'x, y, z'
_cell_length_a     51.913184
_cell_length_b     56.821314
_cell_length_c     20.350532
_cell_angle_alpha  86.416868
_cell_angle_beta   86.545559
_cell_angle_gamma 92.365538
loop_
_atom_site_label
_atom_site_type_symbol
_atom_site_fract_x
_atom_site_fract_y
_atom_site_fract_z
_atom_type_partial_charge
C0 C 0.86148 0.43579 0.42805 0.0
C1 C 0.86044 0.45975 0.44075 0.0
C2 C 0.8423 0.47357 0.40946 0.0
C3 C 0.82714 0.46403 0.36183 0.0
H4 H 0.76159 0.47011 0.22622 0.0
H5 H 0.72449 0.48356 0.16691 0.0
H6 H 0.72511 0.42041 0.05927 0.0
H7 H 0.76148 0.40699 0.11838 0.0
H8 H 0.82026 0.39273 0.06998 0.0
H9 H 0.85239 0.39033 0.97871 0.0
H10 H 0.91272 0.40916 0.1056 0.0
H11 H 0.88092 0.41077 0.19701 0.0
H12 H 0.84901 0.40819 0.3692 0.0
H13 H 0.87484 0.42458 0.45255 0.0
H14 H 0.84108 0.49209 0.41852 0.0
H15 H 0.81465 0.47541 0.33484 0.0
N16 N 0.79679 0.43823 0.26246 0.0
N17 N 0.80516 0.4177 0.16719 0.0
N18 N 0.83581 0.41916 0.24608 0.0
C19 C 0.78906 0.43057 0.20421 0.0
C20 C 0.82862 0.41203 0.1874 0.0
C21 C 0.82005 0.43197 0.28418 0.0
C22 C 0.76451 0.43754 0.17681 0.0
C23 C 0.75339 0.45894 0.19086 0.0
C24 C 0.73236 0.46674 0.15646 0.0
C25 C 0.72193 0.45309 0.10822 0.0
C26 C 0.73246 0.43126 0.09651 0.0
C27 C 0.75345 0.42362 0.13023 0.0
C28 C 0.84792 0.40282 0.14013 0.0
C29 C 0.84047 0.39554 0.07903 0.0
C30 C 0.85889 0.3942 0.02663 0.0
C31 C 0.885 0.40037 0.03426 0.0
C32 C 0.89278 0.40441 0.09773 0.0
C33 C 0.87441 0.4055 0.15031 0.0
C34 C 0.83009 0.44062 0.34505 0.0
C35 C 0.84658 0.42638 0.3806 0.0
C36 C 0.90713 0.80832 0.37089 0.0
C37 C 0.9277 0.80573 0.41206 0.0
C38 C 0.9448 0.78755 0.40188 0.0
C39 C 0.94374 0.7747 0.34564 0.0
H40 H 0.94234 0.71154 0.18549 0.0
H41 H 0.9472 0.67626 0.12365 0.0
H42 H 0.93946 0.71819 0.94179 0.0
H43 H 0.93575 0.75333 0.00317 0.0
H44 H 0.96484 0.80797 0.00087 0.0
H45 H 0.98733 0.84336 0.94824 0.0
H46 H 0.99954 0.86907 0.14001 0.0
H47 H 0.97618 0.8343 0.19225 0.0
H48 H 0.89242 0.80029 0.27843 0.0
H49 H 0.89378 0.82227 0.37747 0.0
H50 H 0.96077 0.78517 0.43321 0.0
H51 H 0.95918 0.76306 0.33425 0.0
N52 N 0.93163 0.75765 0.19868 0.0
N53 N 0.95166 0.77706 0.10192 0.0
N54 N 0.94516 0.79767 0.19666 0.0
C55 C 0.94032 0.7572 0.13411 0.0
C56 C 0.95438 0.79729 0.13326 0.0
C57 C 0.93361 0.7782 0.22932 0.0
C58 C 0.93906 0.73521 0.09903 0.0
C59 C 0.9413 0.71307 0.1324 0.0
C60 C 0.94402 0.69285 0.0969 0.0
C61 C 0.94422 0.69442 0.02751 0.0
C62 C 0.9402 0.7164 0.99493 0.0
C63 C 0.9379 0.73655 0.03016 0.0
C64 C 0.96848 0.81841 0.10063 0.0
C65 C 0.97236 0.82118 0.03168 0.0
C66 C 0.98548 0.8414 0.0016 0.0
C67 C 0.99532 0.85912 0.03988 0.0
C68 C 0.99186 0.85603 0.10891 0.0
C69 C 0.97847 0.83602 0.13888 0.0
C70 C 0.92569 0.78004 0.29903 0.0
C71 C 0.90625 0.79562 0.31436 0.0
C72 C 0.70725 0.99158 0.35331 0.0
C73 C 0.70446 0.00992 0.39627 0.0
C74 C 0.72239 0.02936 0.38812 0.0
C75 C 0.74073 0.03158 0.3344 0.0
H76 H 0.82672 0.00981 0.1852 0.0
H77 H 0.86883 0.00379 0.12861 0.0
H78 H 0.83623 0.01759 0.94053 0.0
H79 H 0.79465 0.02312 0.99601 0.0
H80 H 0.74218 0.04427 0.98175 0.0
H81 H 0.70584 0.05249 0.91447 0.0
H82 H 0.65805 0.06323 0.09007 0.0
H83 H 0.69411 0.055 0.15754 0.0
H84 H 0.72553 0.98058 0.26357 0.0
H85 H 0.69375 0.97644 0.35756 0.0
H86 H 0.72117 0.04363 0.42087 0.0
H87 H 0.75244 0.04783 0.32572 0.0
N88 N 0.7751 0.01623 0.19323 0.0
N89 N 0.76424 0.03333 0.09062 0.0
N90 N 0.73453 0.03244 0.1814 0.0
C91 C 0.78167 0.02238 0.12795 0.0
C92 C 0.74074 0.03854 0.117 0.0
C93 C 0.75133 0.02141 0.21976 0.0
C94 C 0.80718 0.0171 0.09551 0.0
C95 C 0.82852 0.01129 0.1318 0.0
C96 C 0.8527 0.00799 0.09931 0.0
C97 C 0.856 0.01016 0.02981 0.0
C98 C 0.83447 0.01541 0.99389 0.0
C99 C 0.81053 0.01882 0.02609 0.0
C100 C 0.72089 0.04836 0.07518 0.0
C101 C 0.72414 0.04898 0.00597 0.0
C102 C 0.70338 0.05383 0.96733 0.0
C103 C 0.67909 0.05815 0.99731 0.0
C104 C 0.67651 0.05963 0.06591 0.0
C105 C 0.69719 0.05483 0.10447 0.0
C106 C 0.74183 0.01429 0.28815 0.0
C107 C 0.72568 0.99381 0.29968 0.0
C108 C 0.49549 0.62064 0.12142 0.0
C109 C 0.49234 0.62514 0.05369 0.0
C110 C 0.50007 0.64756 0.024 0.0
C111 C 0.51206 0.66452 0.06023 0.0
H112 H 0.58949 0.74715 0.18738 0.0
H113 H 0.59393 0.7875 0.13579 0.0
H114 H 0.51917 0.77803 0.05641 0.0
H115 H 0.51467 0.73832 0.10763 0.0
H116 H 0.56247 0.69857 0.36981 0.0
H117 H 0.57295 0.67513 0.46938 0.0
H118 H 0.59894 0.61984 0.3485 0.0
H119 H 0.58834 0.64306 0.25015 0.0
H120 H 0.51087 0.63305 0.20876 0.0
H121 H 0.48921 0.6038 0.14631 0.0
H122 H 0.49824 0.65162 0.97184 0.0
H123 H 0.51876 0.68124 0.03523 0.0
N124 N 0.53476 0.69911 0.14335 0.0
N125 N 0.56297 0.70595 0.22718 0.0
N126 N 0.54599 0.66766 0.21366 0.0
C127 C 0.54976 0.71431 0.17526 0.0
C128 C 0.56114 0.68247 0.24611 0.0
C129 C 0.53265 0.67583 0.16252 0.0
C130 C 0.5518 0.73951 0.15132 0.0
C131 C 0.57388 0.75391 0.1598 0.0
C132 C 0.5765 0.7769 0.12992 0.0
C133 C 0.55688 0.78594 0.09211 0.0
C134 C 0.53449 0.77175 0.08586 0.0
C135 C 0.53201 0.74886 0.11489 0.0
C136 C 0.57442 0.67246 0.30268 0.0
C137 C 0.57142 0.68184 0.36469 0.0
C138 C 0.57728 0.66837 0.42154 0.0
C139 C 0.58654 0.64553 0.41683 0.0
C140 C 0.59206 0.63739 0.35397 0.0
C141 C 0.58585 0.65064 0.29757 0.0
C142 C 0.51691 0.65927 0.12658 0.0
C143 C 0.50788 0.63742 0.15728 0.0
C144 C 0.17473 0.58406 0.01219 0.0
C145 C 0.17768 0.56167 0.98771 0.0
C146 C 0.19712 0.54753 0.01214 0.0
C147 C 0.21216 0.55512 0.06255 0.0
H148 H 0.29474 0.56811 0.1673 0.0
H149 H 0.33382 0.5538 0.21683 0.0
H150 H 0.29392 0.55113 0.40977 0.0
H151 H 0.25553 0.56509 0.36127 0.0
H152 H 0.22082 0.61461 0.37667 0.0
H153 H 0.18971 0.61353 0.47138 0.0
H154 H 0.1279 0.59923 0.34451 0.0
H155 H 0.1587 0.6011 0.24993 0.0
H156 H 0.1859 0.60847 0.08182 0.0
H157 H 0.15984 0.59538 0.99549 0.0
H158 H 0.20015 0.53032 0.99375 0.0
H159 H 0.22599 0.54337 0.08292 0.0
N160 N 0.24131 0.5743 0.17238 0.0
N161 N 0.23364 0.59052 0.27481 0.0
N162 N 0.20369 0.59491 0.19477 0.0
C163 C 0.24895 0.57838 0.23382 0.0
C164 C 0.21104 0.59888 0.25588 0.0
C165 C 0.21865 0.58291 0.15246 0.0
C166 C 0.27216 0.56793 0.26036 0.0
C167 C 0.29436 0.56414 0.2201 0.0
C168 C 0.31669 0.55609 0.24845 0.0
C169 C 0.31688 0.55126 0.31719 0.0
C170 C 0.29434 0.55435 0.35667 0.0
C171 C 0.27237 0.56262 0.32875 0.0
C172 C 0.19232 0.60701 0.30628 0.0
C173 C 0.20047 0.61217 0.36862 0.0
C174 C 0.18266 0.6115 0.42294 0.0
C175 C 0.1565 0.60538 0.41583 0.0
C176 C 0.14793 0.60381 0.35195 0.0
C177 C 0.1657 0.60475 0.29749 0.0
C178 C 0.20786 0.57688 0.08963 0.0
C179 C 0.18963 0.59155 0.06223 0.0
C180 C 0.08692 0.21302 0.00704 0.0
C181 C 0.10846 0.19935 0.99455 0.0
C182 C 0.12952 0.20139 0.03453 0.0
C183 C 0.12756 0.21417 0.09103 0.0
H184 H 0.10772 0.29241 0.22553 0.0
H185 H 0.11141 0.3279 0.28704 0.0
H186 H 0.10216 0.285 0.47034 0.0
H187 H 0.09852 0.24962 0.40938 0.0
H188 H 0.07212 0.19671 0.4085 0.0
H189 H 0.05265 0.16031 0.46294 0.0
H190 H 0.03119 0.13716 0.27459 0.0
H191 H 0.05136 0.17312 0.22003 0.0
H192 H 0.06689 0.23365 0.07648 0.0
H193 H 0.07029 0.21177 0.97757 0.0
H194 H 0.14652 0.19133 0.02558 0.0
H195 H 0.14273 0.21316 0.12528 0.0
N196 N 0.10379 0.24653 0.21042 0.0
N197 N 0.08405 0.22787 0.30845 0.0
N198 N 0.0842 0.20854 0.21053 0.0
C199 C 0.09705 0.24693 0.27622 0.0
C200 C 0.07746 0.20866 0.27567 0.0
C201 C 0.09736 0.22718 0.17784 0.0
C202 C 0.10255 0.2682 0.31252 0.0
C203 C 0.10691 0.29051 0.27892 0.0
C204 C 0.1089 0.31084 0.31408 0.0
C205 C 0.10693 0.30921 0.38346 0.0
C206 C 0.10393 0.28681 0.41693 0.0
C207 C 0.10164 0.26655 0.3819 0.0
C208 C 0.06355 0.18772 0.30993 0.0
C209 C 0.06301 0.18397 0.37883 0.0
C210 C 0.05168 0.16313 0.41004 0.0
C211 C 0.04041 0.14574 0.37306 0.0
C212 C 0.04009 0.14997 0.30441 0.0
C213 C 0.05161 0.17066 0.2732 0.0
C214 C 0.1046 0.22514 0.1079 0.0
C215 C 0.08498 0.22571 0.06357 0.0
C216 C 0.35015 0.97262 0.05271 0.0
C217 C 0.35399 0.996 0.02548 0.0
C218 C 0.33775 0.0132 0.05032 0.0
C219 C 0.31974 0.00747 0.10414 0.0
H220 H 0.22897 0.98845 0.22751 0.0
H221 H 0.1861 0.99411 0.28095 0.0
H222 H 0.21966 0.99399 0.47018 0.0
H223 H 0.26176 0.98928 0.41751 0.0
H224 H 0.30698 0.95776 0.44441 0.0
H225 H 0.34035 0.95317 0.52271 0.0
H226 H 0.39771 0.94897 0.36163 0.0
H227 H 0.36446 0.95305 0.28327 0.0
H228 H 0.33119 0.9491 0.12802 0.0
H229 H 0.36229 0.95879 0.03664 0.0
H230 H 0.33969 0.03131 0.03014 0.0
H231 H 0.30905 0.02138 0.12555 0.0
N232 N 0.28257 0.98613 0.22437 0.0
N233 N 0.29081 0.97134 0.33148 0.0
N234 N 0.32203 0.96899 0.24554 0.0
C235 C 0.27459 0.98175 0.28967 0.0
C236 C 0.31447 0.96488 0.30999 0.0
C237 C 0.30649 0.97948 0.20238 0.0
C238 C 0.24886 0.98821 0.31803 0.0
C239 C 0.22715 0.99014 0.28027 0.0
C240 C 0.20255 0.99314 0.31111 0.0
C241 C 0.19924 0.99447 0.3802 0.0
C242 C 0.22124 0.99345 0.41701 0.0
C243 C 0.24555 0.99045 0.38653 0.0
C244 C 0.33315 0.9565 0.35741 0.0
C245 C 0.32657 0.95524 0.4256 0.0
C246 C 0.34568 0.95262 0.47055 0.0
C247 C 0.37168 0.95123 0.44816 0.0
C248 C 0.37784 0.94999 0.3804 0.0
C249 C 0.35874 0.95256 0.33541 0.0
C250 C 0.31758 0.98443 0.13387 0.0
C251 C 0.33219 0.96696 0.10565 0.0
C252 C 0.51593 0.37847 0.28615 0.0
C253 C 0.52062 0.37679 0.3534 0.0
C254 C 0.51997 0.35437 0.38709 0.0
C255 C 0.51371 0.3341 0.35459 0.0
H256 H 0.49953 0.26198 0.37825 0.0
H257 H 0.50388 0.22311 0.43173 0.0
H258 H 0.49672 0.19173 0.2455 0.0
H259 H 0.49245 0.23096 0.19111 0.0
H260 H 0.50159 0.28298 0.04336 0.0
H261 H 0.50028 0.30474 0.93598 0.0
H262 H 0.44519 0.351 0.02156 0.0
H263 H 0.44598 0.3288 0.12663 0.0
H264 H 0.50577 0.36046 0.20217 0.0
H265 H 0.51669 0.39548 0.25868 0.0
H266 H 0.52328 0.35257 0.43916 0.0
H267 H 0.51268 0.31712 0.38222 0.0
N268 N 0.5012 0.29278 0.28109 0.0
N269 N 0.48513 0.277 0.1864 0.0
N270 N 0.49022 0.31798 0.19334 0.0
C271 C 0.49396 0.27368 0.24807 0.0
C272 C 0.48289 0.29932 0.15958 0.0
C273 C 0.4996 0.31499 0.25359 0.0
C274 C 0.49574 0.24967 0.28013 0.0
C275 C 0.49883 0.24687 0.34836 0.0
C276 C 0.50112 0.22453 0.37932 0.0
C277 C 0.50056 0.20436 0.34292 0.0
C278 C 0.49735 0.20701 0.27474 0.0
C279 C 0.49478 0.22945 0.24367 0.0
C280 C 0.47412 0.30446 0.09306 0.0
C281 C 0.48814 0.29694 0.03781 0.0
C282 C 0.48765 0.30968 0.97666 0.0
C283 C 0.4733 0.33019 0.97041 0.0
C284 C 0.45653 0.33544 0.02385 0.0
C285 C 0.45697 0.32269 0.0845 0.0
C286 C 0.50795 0.33594 0.28792 0.0
C287 C 0.50965 0.35833 0.25383 0.0
C288 C 0.04285 0.96453 0.7904 0.0
N289 N 0.0051 0.96145 0.61694 0.0
C290 C 0.02165 0.94403 0.60516 0.0
C291 C 0.01358 0.92407 0.57452 0.0
C292 C 0.98816 0.9218 0.55524 0.0
C293 C 0.97136 0.94005 0.56757 0.0
C294 C 0.9803 0.95989 0.59868 0.0
Zn295 Zn 0.01915 0.98784 0.67095 0.0
C296 C 0.98062 0.99932 0.78107 0.0
N297 N 0.05086 0.03803 0.79439 0.0
C298 C 0.07548 0.03687 0.81351 0.0
C299 C 0.03685 0.05735 0.80436 0.0
C300 C 0.04782 0.07683 0.83255 0.0
C301 C 0.07342 0.07641 0.85105 0.0
C302 C 0.08716 0.05593 0.84238 0.0
Zn303 Zn 0.03569 0.01224 0.74062 0.0
O304 O 0.03197 0.9614 0.73728 0.0
C305 C 0.07421 0.00116 0.63016 0.0
O306 O 0.04767 0.98537 0.80692 0.0
H307 H 0.01733 0.05795 0.78873 0.0
H308 H 0.04111 0.94526 0.62115 0.0
H309 H 0.08633 0.02143 0.80458 0.0
O310 O 0.05504 0.98879 0.61345 0.0
O311 O 0.07167 0.01246 0.68209 0.0
H312 H 0.96736 0.9738 0.60919 0.0
O313 O 0.02282 0.03863 0.67466 0.0
O314 O 0.00672 0.01473 0.60506 0.0
O315 O 0.99986 0.01172 0.79756 0.0
O316 O 0.98311 0.98764 0.72971 0.0
C317 C 0.01147 0.03554 0.62213 0.0
H318 H 0.02707 0.91028 0.56736 0.0
H319 H 0.95162 0.93904 0.55316 0.0
H320 H 0.0364 0.09211 0.83955 0.0
H321 H 0.10696 0.05494 0.85589 0.0
C322 C 0.50076 0.97437 0.62831 0.0
N323 N 0.52162 0.04529 0.6484 0.0
C324 C 0.52216 0.0463 0.58135 0.0
C325 C 0.51726 0.06726 0.54573 0.0
C326 C 0.51207 0.08762 0.57916 0.0
C327 C 0.51204 0.08613 0.64849 0.0
C328 C 0.51673 0.06468 0.68225 0.0
Zn329 Zn 0.52746 0.01349 0.69716 0.0
C330 C 0.48467 0.99791 0.79441 0.0
N331 N 0.53823 0.94503 0.78677 0.0
C332 C 0.51755 0.92942 0.79564 0.0
C333 C 0.56062 0.94076 0.8161 0.0
C334 C 0.56237 0.92064 0.85863 0.0
C335 C 0.54088 0.90477 0.87097 0.0
C336 C 0.51851 0.90909 0.83733 0.0
Zn337 Zn 0.53345 0.97695 0.73731 0.0
O338 O 0.50383 0.99651 0.63238 0.0
C339 C 0.5758 0.99181 0.63833 0.0
O340 O 0.51297 0.96039 0.66482 0.0
H341 H 0.57682 0.95343 0.80861 0.0
H342 H 0.52613 0.03071 0.55528 0.0
H343 H 0.49989 0.93313 0.77219 0.0
O344 O 0.56173 0.00965 0.63384 0.0
O345 O 0.56877 0.9747 0.67978 0.0
H346 H 0.51639 0.0635 0.73555 0.0
O347 O 0.55348 0.99412 0.81012 0.0
O348 O 0.55073 0.02981 0.76358 0.0
O349 O 0.49778 0.97953 0.79269 0.0
O350 O 0.49318 0.01668 0.76136 0.0
C351 C 0.55884 0.01619 0.80888 0.0
H352 H 0.5171 0.06731 0.49255 0.0
H353 H 0.50858 0.10138 0.67653 0.0
H354 H 0.57997 0.9181 0.88366 0.0
H355 H 0.50166 0.8971 0.84414 0.0
C356 C 0.53576 0.47298 0.61335 0.0
N357 N 0.46573 0.50619 0.64247 0.0
C358 C 0.47044 0.51197 0.5768 0.0
C359 C 0.4501 0.51531 0.53592 0.0
C360 C 0.42448 0.51306 0.56271 0.0
C361 C 0.42018 0.50751 0.63106 0.0
C362 C 0.44116 0.504 0.6701 0.0
Zn363 Zn 0.49701 0.49987 0.69696 0.0
C364 C 0.49409 0.45378 0.76872 0.0
N365 N 0.56621 0.48657 0.79352 0.0
C366 C 0.5913 0.49112 0.77118 0.0
C367 C 0.56009 0.47702 0.85583 0.0
C368 C 0.57936 0.47102 0.8976 0.0
C369 C 0.60534 0.47515 0.87581 0.0
C370 C 0.61134 0.48565 0.81206 0.0
Zn371 Zn 0.53526 0.49339 0.73796 0.0
O372 O 0.51345 0.48139 0.61858 0.0
C373 C 0.53784 0.53935 0.66467 0.0
O374 O 0.55128 0.47586 0.65841 0.0
H375 H 0.54011 0.47388 0.87341 0.0
H376 H 0.49008 0.51373 0.55564 0.0
H377 H 0.59576 0.49882 0.72163 0.0
O378 O 0.51482 0.532 0.65716 0.0
O379 O 0.55264 0.5264 0.69737 0.0
H380 H 0.43783 0.49941 0.7224 0.0
O381 O 0.51858 0.51073 0.81788 0.0
O382 O 0.48144 0.51815 0.77645 0.0
O383 O 0.51737 0.4606 0.77514 0.0
O384 O 0.47933 0.46745 0.73849 0.0
C385 C 0.49656 0.51962 0.82301 0.0
H386 H 0.45451 0.51916 0.4836 0.0
H387 H 0.40083 0.50599 0.65437 0.0
H388 H 0.57398 0.46323 0.94673 0.0
H389 H 0.63124 0.48904 0.79361 0.0
C390 C 0.0482 0.53319 0.64119 0.0
N391 N 0.05315 0.45952 0.6471 0.0
C392 C 0.05607 0.46423 0.58062 0.0
C393 C 0.06509 0.44722 0.53962 0.0
C394 C 0.07073 0.42483 0.56681 0.0
C395 C 0.06864 0.42076 0.6359 0.0
C396 C 0.05982 0.43848 0.67534 0.0
Zn397 Zn 0.03444 0.48385 0.70067 0.0
C398 C 0.0627 0.50238 0.80446 0.0
N399 N 0.99243 0.53683 0.79392 0.0
C400 C 0.98215 0.55532 0.76055 0.0
C401 C 0.99178 0.53518 0.86102 0.0
C402 C 0.98113 0.55291 0.89717 0.0
C403 C 0.97128 0.57263 0.86389 0.0
C404 C 0.9715 0.57353 0.79471 0.0
Zn405 Zn 0.01127 0.5121 0.7428 0.0
O406 O 0.0545 0.5118 0.64223 0.0
C407 C 0.98374 0.4938 0.63643 0.0
O408 O 0.02904 0.53892 0.67735 0.0
H409 H 1.0002 0.52039 0.88656 0.0
H410 H 0.05039 0.4809 0.55879 0.0
H411 H 0.98279 0.55625 0.70723 0.0
O412 O 0.00446 0.48261 0.6341 0.0
O413 O 0.98021 0.50841 0.68055 0.0
H414 H 0.05727 0.43503 0.72825 0.0
O415 O 0.99323 0.48485 0.80698 0.0
O416 O 0.01442 0.45667 0.76146 0.0
O417 O 0.04347 0.51561 0.80364 0.0
O418 O 0.06388 0.48537 0.76694 0.0
C419 C 0.99749 0.46309 0.80343 0.0
H420 H 0.06688 0.45139 0.48685 0.0
H421 H 0.07255 0.40373 0.65915 0.0
H422 H 0.98157 0.55165 0.95041 0.0
H423 H 0.96385 0.58833 0.76726 0.0
H424 H 0.1857 0.01913 0.48755 0.0
H425 H 0.1537 0.97178 0.35268 0.0
H426 H 0.11226 0.97007 0.41682 0.0
H427 H 0.08566 0.98025 0.51487 0.0
H428 H 0.11855 0.02638 0.65164 0.0
H429 H 0.15914 0.02975 0.58404 0.0
C430 C 0.16975 0.00831 0.47213 0.0
C431 C 0.17309 0.99549 0.41523 0.0
C432 C 0.14611 0.00691 0.51023 0.0
C433 C 0.15181 0.98208 0.39557 0.0
C434 C 0.12811 0.98088 0.43275 0.0
C435 C 0.1017 0.99104 0.52999 0.0
C436 C 0.09897 0.00293 0.58873 0.0
C437 C 0.12514 0.99293 0.49075 0.0
C438 C 0.12001 0.01692 0.60706 0.0
C439 C 0.14327 0.01892 0.56826 0.0
H440 H 0.47741 0.18601 0.4593 0.0
H441 H 0.53187 0.17001 0.30161 0.0
H442 H 0.5402 0.13251 0.36052 0.0
H443 H 0.53354 0.10528 0.45908 0.0
H444 H 0.47777 0.1207 0.615 0.0
H445 H 0.46909 0.15777 0.55537 0.0
C446 C 0.4911 0.1743 0.43787 0.0
C447 C 0.50409 0.18082 0.37632 0.0
C448 C 0.49585 0.15284 0.47209 0.0
C449 C 0.52147 0.16531 0.34865 0.0
C450 C 0.52638 0.14395 0.38255 0.0
C451 C 0.51919 0.11652 0.47978 0.0
C452 C 0.5065 0.11012 0.54195 0.0
C453 C 0.51385 0.13765 0.44458 0.0
C454 C 0.4883 0.12527 0.56809 0.0
C455 C 0.48311 0.14643 0.5337 0.0
H456 H 0.32108 0.51658 0.41348 0.0
H457 H 0.36579 0.57092 0.29428 0.0
H458 H 0.40326 0.56359 0.35887 0.0
H459 H 0.42198 0.54406 0.4548 0.0
H460 H 0.37732 0.48907 0.57248 0.0
H461 H 0.34087 0.495 0.50423 0.0
C462 C 0.33911 0.52671 0.40138 0.0
C463 C 0.34062 0.54437 0.34943 0.0
C464 C 0.36038 0.52266 0.43931 0.0
C465 C 0.36419 0.5571 0.33364 0.0
C466 C 0.38552 0.55308 0.37102 0.0
C467 C 0.40448 0.53305 0.46506 0.0
C468 C 0.40248 0.51628 0.5195 0.0
C469 C 0.38366 0.53623 0.4248 0.0
C470 C 0.37934 0.50251 0.53216 0.0
C471 C 0.35852 0.5057 0.49267 0.0
H472 H 0.07818 0.34699 0.35899 0.0
H473 H 0.13224 0.31927 0.49334 0.0
H474 H 0.12672 0.35313 0.56088 0.0
H475 H 0.10509 0.38986 0.58382 0.0
H476 H 0.04925 0.41589 0.45125 0.0
H477 H 0.05739 0.3838 0.3804 0.0
C478 C 0.08911 0.34858 0.4024 0.0
C479 C 0.10567 0.33074 0.42101 0.0
C480 C 0.08551 0.36782 0.44142 0.0
C481 C 0.1193 0.33278 0.47817 0.0
C482 C 0.11615 0.35211 0.51676 0.0
C483 C 0.09465 0.38849 0.53955 0.0
C484 C 0.07671 0.40548 0.52294 0.0
C485 C 0.09899 0.36958 0.49937 0.0
C486 C 0.06358 0.40346 0.46485 0.0
C487 C 0.06804 0.38495 0.42439 0.0
H488 H 0.86707 0.98853 0.9156 0.0
H489 H 0.90321 0.02746 0.06332 0.0
H490 H 0.94481 0.02718 1.00044 0.0
H491 H 0.97065 0.01751 0.90084 0.0
H492 H 0.9343 0.97883 0.75282 0.0
H493 H 0.89312 0.97775 0.81793 0.0
C494 C 0.88402 0.99701 0.93409 0.0
C495 C 0.88183 0.00811 0.99421 0.0
C496 C 0.90788 0.99704 0.89722 0.0
C497 C 0.90423 0.01857 0.01775 0.0
C498 C 0.92804 0.01861 0.98144 0.0
C499 C 0.95374 0.00883 0.88273 0.0
C500 C 0.95565 0.99841 0.82156 0.0
C501 C 0.93004 0.00816 0.92069 0.0
C502 C 0.93349 0.98707 0.79944 0.0
C503 C 0.90988 0.98643 0.83674 0.0
H504 H 0.52122 0.81936 0.08401 0.0
H505 H 0.59918 0.80519 0.01783 0.0
H506 H 0.60175 0.84143 0.94556 0.0
H507 H 0.58029 0.87527 0.89405 0.0
H508 H 0.5021 0.88881 0.96101 0.0
H509 H 0.50099 0.8544 0.03878 0.0
C510 C 0.53883 0.82427 0.05399 0.0
C511 C 0.55988 0.80951 0.05585 0.0
C512 C 0.53996 0.8448 0.01176 0.0
C513 C 0.58275 0.81633 0.01764 0.0
C514 C 0.58413 0.83693 0.97582 0.0
C515 C 0.56313 0.87086 0.92621 0.0
C516 C 0.54115 0.88442 0.92065 0.0
C517 C 0.56264 0.85103 0.9714 0.0
C518 C 0.51906 0.87837 0.96277 0.0
C519 C 0.51846 0.85879 0.00777 0.0
H520 H 0.67958 0.42813 0.07448 0.0
H521 H 0.71749 0.49737 0.04971 0.0
H522 H 0.6852 0.51034 0.97406 0.0
H523 H 0.64665 0.50149 0.91214 0.0
H524 H 0.60922 0.43208 0.93826 0.0
H525 H 0.64114 0.41952 0.01495 0.0
C526 C 0.6808 0.44606 0.05246 0.0
C527 C 0.70097 0.46172 0.06754 0.0
C528 C 0.66241 0.45327 0.00856 0.0
C529 C 0.70201 0.48502 0.0395 0.0
C530 C 0.6837 0.49238 0.99571 0.0
C531 C 0.64571 0.48359 0.93435 0.0
C532 C 0.62573 0.46768 0.91952 0.0
C533 C 0.66396 0.47657 0.97928 0.0
C534 C 0.62441 0.44462 0.94919 0.0
C535 C 0.64261 0.43745 0.99304 0.0
H536 H 0.92885 0.64784 0.05502 0.0
H537 H 0.97414 0.69453 0.91262 0.0
H538 H 0.98506 0.66132 0.8483 0.0
H539 H 0.98329 0.61896 0.83391 0.0
H540 H 0.93995 0.57153 0.97752 0.0
H541 H 0.92719 0.60499 0.04049 0.0
C542 C 0.94121 0.65074 0.01012 0.0
C543 C 0.95037 0.67379 0.98857 0.0
C544 C 0.94791 0.63141 0.97366 0.0
C545 C 0.96623 0.67715 0.92984 0.0
C546 C 0.97272 0.65811 0.89314 0.0
C547 C 0.97075 0.61597 0.87851 0.0
C548 C 0.96245 0.59284 0.90079 0.0
C549 C 0.96375 0.63519 0.91463 0.0
C550 C 0.94668 0.58919 0.95949 0.0
C551 C 0.93934 0.60831 0.99541 0.0
H552 H 0.01347 0.13771 0.49193 0.0
H553 H 0.04558 0.10178 0.32726 0.0
H554 H 0.03427 0.06372 0.38594 0.0
H555 H 0.02117 0.04086 0.4901 0.0
H556 H 0.9938 0.07717 0.65857 0.0
H557 H 0.99709 0.11473 0.59257 0.0
C558 C 0.01792 0.12156 0.46877 0.0
C559 C 0.03061 0.12268 0.40559 0.0
C560 C 0.01221 0.09973 0.50367 0.0
C561 C 0.03566 0.10153 0.37568 0.0
C562 C 0.02937 0.0797 0.4094 0.0
C563 C 0.01515 0.05693 0.51149 0.0
C564 C 0.00713 0.0564 0.57865 0.0
C565 C 0.01836 0.0786 0.47416 0.0
C566 C 0.99991 0.07729 0.60667 0.0
C567 C 1.00199 0.09875 0.56916 0.0
H568 H 0.41693 0.92831 0.45763 0.0
H569 H 0.37351 0.98429 0.53787 0.0
H570 H 0.40976 0.99597 0.60041 0.0
H571 H 0.45443 0.99229 0.62651 0.0
H572 H 0.4986 0.93603 0.55219 0.0
H573 H 0.4615 0.92252 0.49213 0.0
C574 C 0.41541 0.94288 0.48941 0.0
C575 C 0.39253 0.95537 0.49318 0.0
C576 C 0.43653 0.9497 0.52512 0.0
C577 C 0.39069 0.97412 0.53488 0.0
C578 C 0.41152 0.98102 0.57008 0.0
C579 C 0.45599 0.97715 0.59672 0.0
C580 C 0.47923 0.9655 0.5919 0.0
C581 C 0.43463 0.96929 0.56439 0.0
C582 C 0.48087 0.94542 0.55542 0.0
C583 C 0.45971 0.93772 0.52143 0.0
H584 H 0.55565 0.38626 0.44428 0.0
H585 H 0.49259 0.41599 0.34314 0.0
H586 H 0.49472 0.45044 0.40817 0.0
H587 H 0.51101 0.46992 0.50139 0.0
H588 H 0.57279 0.44004 0.60707 0.0
H589 H 0.57504 0.40813 0.53176 0.0
C590 C 0.54252 0.40037 0.43636 0.0
C591 C 0.52391 0.39851 0.38925 0.0
C592 C 0.54363 0.4201 0.4746 0.0
C593 C 0.50724 0.41707 0.37868 0.0
C594 C 0.50834 0.43674 0.41608 0.0
C595 C 0.5253 0.45666 0.50731 0.0
C596 C 0.54147 0.45714 0.56014 0.0
C597 C 0.52601 0.43815 0.46514 0.0
C598 C 0.5601 0.44004 0.56671 0.0
C599 C 0.56122 0.42166 0.52408 0.0
H600 H 0.10478 0.61088 0.44371 0.0
H601 H 0.17087 0.57592 0.51582 0.0
H602 H 0.14297 0.55153 0.59474 0.0
H603 H 0.09971 0.53639 0.6333 0.0
H604 H 0.03302 0.57072 0.56458 0.0
H605 H 0.06115 0.59886 0.49349 0.0
C606 C 0.11306 0.59821 0.47752 0.0
C607 C 0.13989 0.59521 0.47338 0.0
C608 C 0.09678 0.58372 0.5222 0.0
C609 C 0.15038 0.57892 0.51821 0.0
C610 C 0.13439 0.56464 0.56288 0.0
C611 C 0.09141 0.55013 0.60285 0.0
C612 C 0.06454 0.5513 0.60241 0.0
C613 C 0.10759 0.56629 0.56349 0.0
C614 C 0.05379 0.56947 0.56465 0.0
C615 C 0.06983 0.58549 0.52423 0.0
H616 H 0.0279 0.86395 0.92904 0.0
H617 H 0.99119 0.90418 0.07863 0.0
H618 H 0.00833 0.94077 0.02064 0.0
H619 H 0.02805 0.96148 0.9195 0.0
H620 H 0.05956 0.92141 0.76324 0.0
H621 H 0.05052 0.88471 0.83172 0.0
C622 C 0.02365 0.8807 0.94904 0.0
C623 C 0.00803 0.88121 0.00784 0.0
C624 C 0.03275 0.90178 0.91414 0.0
C625 C 1.00331 0.90313 0.03381 0.0
C626 C 0.01297 0.92414 1.00042 0.0
C627 C 0.03378 0.94476 0.9016 0.0
C628 C 0.04469 0.94401 0.83705 0.0
C629 C 0.02707 0.92371 0.93964 0.0
C630 C 0.05139 0.92228 0.81326 0.0
C631 C 0.04595 0.90133 0.85207 0.0
H632 H 0.6356 0.03166 0.02897 0.0
H633 H 0.67109 0.08149 0.87859 0.0
H634 H 0.63457 0.07512 0.80961 0.0
H635 H 0.59484 0.0522 0.78819 0.0
H636 H 0.56221 -0.00024 0.93565 0.0
H637 H 0.59506 0.01065 0.01062 0.0
C638 C 0.63502 0.04158 0.9818 0.0
C639 C 0.65581 0.05714 0.95892 0.0
C640 C 0.61454 0.03723 0.94195 0.0
C641 C 0.65521 0.06942 0.89702 0.0
C642 C 0.6344 0.06576 0.8577 0.0
C643 C 0.59467 0.04357 0.8373 0.0
C644 C 0.57621 0.02528 0.85673 0.0
C645 C 0.61427 0.04926 0.87904 0.0
C646 C 0.57633 0.01387 0.91987 0.0
C647 C 0.59511 0.02004 0.96257 0.0
H648 H 0.50533 0.57948 0.0661 0.0
H649 H 0.46178 0.62719 0.94746 0.0
H650 H 0.45567 0.59685 0.86896 0.0
H651 H 0.46794 0.55866 0.82702 0.0
H652 H 0.51274 0.51221 0.9459 0.0
H653 H 0.51219 0.53986 0.03273 0.0
C654 C 0.49374 0.58312 0.02437 0.0
C655 C 0.48427 0.60572 0.01252 0.0
C656 C 0.49056 0.56576 0.9793 0.0
C657 C 0.46973 0.61009 0.95721 0.0
C658 C 0.46615 0.59272 0.91239 0.0
C659 C 0.47687 0.55435 0.87282 0.0
C660 C 0.49052 0.53359 0.88004 0.0
C661 C 0.47724 0.57075 0.9218 0.0
C662 C 0.50228 0.52822 0.9392 0.0
C663 C 0.50208 0.54406 0.9887 0.0
H664 H 0.93682 0.39306 0.01453 0.0
H665 H 0.87285 0.42544 0.92335 0.0
H666 H 0.90233 0.44598 0.84004 0.0
H667 H 0.94633 0.45942 0.80272 0.0
H668 H 0.011 0.42793 0.89103 0.0
H669 H 0.98133 0.40258 0.96645 0.0
C670 C 0.92935 0.40428 0.97571 0.0
C671 C 0.90263 0.40777 0.97574 0.0
C672 C 0.94656 0.41661 0.92836 0.0
C673 C 0.89322 0.42212 0.92443 0.0
C674 C 0.91011 0.4342 0.87708 0.0
C675 C 0.95382 0.44674 0.83803 0.0
C676 C 0.98053 0.44562 0.84271 0.0
C677 C 0.93678 0.43229 0.8802 0.0
C678 C 0.99035 0.42901 0.88737 0.0
C679 C 0.97342 0.41463 0.93034 0.0
H680 H 0.12126 0.15417 0.02009 0.0
H681 H 0.08945 0.19994 0.87139 0.0
H682 H 0.07717 0.16565 0.81125 0.0
H683 H 0.07162 0.12251 0.80739 0.0
H684 H 0.10255 0.07704 0.95821 0.0
H685 H 0.11952 0.11148 0.01048 0.0
C686 C 0.1124 0.15678 0.97342 0.0
C687 C 0.10628 0.17963 0.95028 0.0
C688 C 0.10492 0.137 0.94003 0.0
C689 C 0.09425 0.18254 0.89042 0.0
C690 C 0.08713 0.16294 0.85621 0.0
C691 C 0.08214 0.12017 0.85163 0.0
C692 C 0.08554 0.09727 0.87941 0.0
C693 C 0.09163 0.14006 0.88174 0.0
C694 C 0.0997 0.09447 0.93585 0.0
C695 C 0.10932 0.11415 0.96589 0.0
H696 H 0.37469 0.96909 0.92998 0.0
H697 H 0.38466 0.0372 0.01035 0.0
H698 H 0.42467 0.04497 0.94169 0.0
H699 H 0.45947 0.03074 0.86604 0.0
H700 H 0.451 0.96054 0.79854 0.0
H701 H 0.40847 0.9551 0.85612 0.0
C702 C 0.38559 0.98561 0.93331 0.0
C703 C 0.37646 0.00232 0.97651 0.0
C704 C 0.40933 0.98949 0.89637 0.0
C705 C 0.39074 0.02395 0.97746 0.0
C706 C 0.41394 0.02834 0.93865 0.0
C707 C 0.44818 0.01436 0.86382 0.0
C708 C 0.45849 0.996 0.82849 0.0
C709 C 0.42381 0.011 0.89906 0.0
C710 C 0.44368 0.97482 0.82612 0.0
C711 C 0.41927 0.97172 0.85882 0.0
H712 H 0.44087 0.3606 0.90936 0.0
H713 H 0.52085 0.34228 0.91042 0.0
H714 H 0.53375 0.37801 0.8432 0.0
H715 H 0.52344 0.41695 0.79767 0.0
H716 H 0.44417 0.43694 0.7992 0.0
H717 H 0.43001 0.39835 0.853 0.0
C718 C 0.4611 0.36427 0.89426 0.0
C719 C 0.47979 0.34868 0.9159 0.0
C720 C 0.46864 0.38548 0.85743 0.0
C721 C 0.50586 0.35358 0.8943 0.0
C722 C 0.51339 0.37431 0.85655 0.0
C723 C 0.50302 0.41285 0.80945 0.0
C724 C 0.48491 0.42993 0.79575 0.0
C725 C 0.4951 0.39077 0.84016 0.0
C726 C 0.4585 0.42415 0.80988 0.0
C727 C 0.45042 0.4021 0.8406 0.0
H728 H 0.15565 0.51706 0.9858 0.0
H729 H 0.15732 0.58633 0.88481 0.0
H730 H 0.12134 0.57413 0.82144 0.0
H731 H 0.08776 0.54462 0.79885 0.0
H732 H 0.08803 0.47432 0.89096 0.0
H733 H 0.12503 0.48599 0.95356 0.0
C734 C 0.14858 0.52935 0.9489 0.0
C735 C 0.15896 0.55277 0.94122 0.0
C736 C 0.12799 0.52213 0.91176 0.0
C737 C 0.14934 0.5684 0.89317 0.0
C738 C 0.12877 0.56145 0.85671 0.0
C739 C 0.09594 0.53193 0.8329 0.0
C740 C 0.08501 0.50887 0.84185 0.0
C741 C 0.11756 0.53856 0.86673 0.0
C742 C 0.09607 0.49227 0.88427 0.0
C743 C 0.1172 0.49894 0.91977 0.0
H744 H 0.97298 0.83015 0.40061 0.0
H745 H 0.89871 0.82671 0.50809 0.0
H746 H 0.91065 0.86281 0.56201 0.0
H747 H 0.94233 0.89579 0.57609 0.0
H748 H 0.01518 0.89959 0.46073 0.0
H749 H 1.00366 0.86285 0.41233 0.0
C750 C 0.95961 0.837 0.437 0.0
C751 C 0.93529 0.82554 0.45179 0.0
C752 C 0.96626 0.85797 0.46567 0.0
C753 C 0.91773 0.83508 0.49698 0.0
C754 C 0.9245 0.85576 0.52729 0.0
C755 C 0.95553 0.88868 0.53986 0.0
C756 C 0.97972 0.90034 0.52266 0.0
C757 C 0.94866 0.86752 0.51142 0.0
C758 C 0.99666 0.8908 0.47587 0.0
C759 C 0.99009 0.8698 0.44797 0.0
H760 H 0.68044 0.9733 0.47532 0.0
H761 H 0.67511 0.04751 0.42093 0.0
H762 H 0.63533 0.04846 0.49017 0.0
H763 H 0.6011 0.02821 0.56388 0.0
H764 H 0.60609 0.95411 0.61976 0.0
H765 H 0.6465 0.95313 0.55191 0.0
C766 C 0.67061 0.98968 0.47871 0.0
C767 C 0.68109 0.01033 0.44307 0.0
C768 C 0.64742 0.99012 0.51857 0.0
C769 C 0.668 0.03142 0.44862 0.0
C770 C 0.645 0.03196 0.48781 0.0
C771 C 0.61097 0.01181 0.56118 0.0
C772 C 0.60037 0.99124 0.5967 0.0
C773 C 0.6344 0.01141 0.52263 0.0
C774 C 0.61368 0.97023 0.59295 0.0
C775 C 0.63685 0.96964 0.55411 0.0
H776 H 0.54762 0.63812 0.51048 0.0
H777 H 0.62257 0.61367 0.45205 0.0
H778 H 0.61559 0.57953 0.53183 0.0
H779 H 0.58527 0.55375 0.60639 0.0
H780 H 0.50921 0.57769 0.6562 0.0
H781 H 0.51965 0.615 0.59281 0.0
C782 C 0.56283 0.62579 0.51673 0.0
C783 C 0.58556 0.62843 0.47537 0.0
C784 C 0.55827 0.60584 0.56067 0.0
C785 C 0.60483 0.61196 0.4832 0.0
C786 C 0.60079 0.59238 0.52856 0.0
C787 C 0.57129 0.56741 0.60439 0.0
C788 C 0.54645 0.56297 0.63529 0.0
C789 C 0.57714 0.58865 0.56576 0.0
C790 C 0.52836 0.58066 0.6321 0.0
C791 C 0.5343 0.602 0.59588 0.0
H792 H 0.91164 0.45452 0.42749 0.0
H793 H 0.85387 0.48922 0.5424 0.0
H794 H 0.88733 0.50444 0.61123 0.0
H795 H 0.93292 0.50561 0.64238 0.0
H796 H 0.98964 0.46986 0.52587 0.0
H797 H 0.95664 0.45731 0.45416 0.0
C798 C 0.90633 0.46534 0.46783 0.0
C799 C 0.88031 0.47039 0.48074 0.0
C800 C 0.92549 0.47381 0.50692 0.0
C801 C 0.87379 0.485 0.53184 0.0
C802 C 0.89289 0.49362 0.57121 0.0
C803 C 0.93806 0.49531 0.60083 0.0
C804 C 0.96372 0.48856 0.5899 0.0
C805 C 0.91881 0.48785 0.55975 0.0
C806 C 0.97005 0.47517 0.53588 0.0
C807 C 0.95119 0.46795 0.49473 0.0
loop_
_geom_bond_atom_site_label_1
_geom_bond_atom_site_label_2
_geom_bond_distance
_geom_bond_site_symmetry_2
_ccdc_geom_bond_type
C0 C1 1.384 . S
C0 H13 0.947 . S
C0 C35 1.382 . S
C1 C0 1.384 . S
C1 C2 1.378 . S
C2 C1 1.378 . S
C2 C3 1.378 . S
C2 H14 0.952 . S
C3 C2 1.378 . S
C3 H15 0.950 . S
C3 C34 1.383 . S
H4 C23 0.947 . S
H5 C24 0.946 . S
H6 C26 0.953 1_556 S
H7 C27 0.945 . S
H8 C29 0.952 . S
H9 C30 0.949 . S
H10 C32 0.950 . S
H11 C33 0.948 . S
H12 C35 0.951 . S
H13 C0 0.947 . S
H14 C2 0.952 . S
H15 C3 0.950 . S
N16 C19 1.382 . S
N16 C21 1.363 . S
N17 C19 1.371 . S
N17 C20 1.372 . S
N18 C20 1.361 . S
N18 C21 1.377 . S
C19 N16 1.382 . S
C19 N17 1.371 . S
C19 C22 1.480 . S
C20 N17 1.372 . S
C20 N18 1.361 . S
C20 C28 1.457 . S
C21 N16 1.363 . S
C21 N18 1.377 . S
C21 C34 1.479 . S
C22 C19 1.480 . S
C22 C23 1.383 . S
C22 C27 1.385 . S
C23 H4 0.947 . S
C23 C22 1.383 . S
C23 C24 1.388 . S
C24 H5 0.946 . S
C24 C23 1.388 . S
C24 C25 1.384 . S
C25 C24 1.384 . S
C25 C26 1.377 . S
C26 H6 0.953 1_554 S
C26 C25 1.377 . S
C26 C27 1.369 . S
C27 H7 0.945 . S
C27 C22 1.385 . S
C27 C26 1.369 . S
C28 C20 1.457 . S
C28 C29 1.372 1_554 S
C28 C33 1.364 . S
C29 H8 0.952 . S
C29 C28 1.372 1_556 S
C29 C30 1.389 . S
C30 H9 0.949 . S
C30 C29 1.389 . S
C30 C31 1.387 . S
C31 C30 1.387 . S
C31 C32 1.372 1_556 S
C32 H10 0.950 . S
C32 C31 1.372 1_554 S
C32 C33 1.379 . S
C33 H11 0.948 . S
C33 C28 1.364 . S
C33 C32 1.379 . S
C34 C3 1.383 . S
C34 C21 1.479 . S
C34 C35 1.398 . S
C35 C0 1.382 . S
C35 H12 0.951 . S
C35 C34 1.398 . S
C36 C37 1.384 . S
C36 H49 0.947 . S
C36 C71 1.382 . S
C37 C36 1.384 . S
C37 C38 1.378 . S
C38 C37 1.378 . S
C38 C39 1.378 . S
C38 H50 0.952 . S
C39 C38 1.378 . S
C39 H51 0.950 . S
C39 C70 1.383 . S
H40 C59 0.947 . S
H41 C60 0.946 . S
H42 C62 0.953 . S
H43 C63 0.945 . S
H44 C65 0.952 . S
H45 C66 0.949 . S
H46 C68 0.950 . S
H47 C69 0.948 . S
H48 C71 0.951 . S
H49 C36 0.947 . S
H50 C38 0.952 . S
H51 C39 0.950 . S
N52 C55 1.382 1_554 S
N52 C57 1.363 . S
N53 C55 1.371 . S
N53 C56 1.372 . S
N54 C56 1.361 1_554 S
N54 C57 1.377 . S
C55 N52 1.382 1_556 S
C55 N53 1.371 . S
C55 C58 1.480 . S
C56 N53 1.372 . S
C56 N54 1.361 1_556 S
C56 C64 1.457 . S
C57 N52 1.363 . S
C57 N54 1.377 . S
C57 C70 1.479 . S
C58 C55 1.480 . S
C58 C59 1.383 1_556 S
C58 C63 1.385 . S
C59 H40 0.947 . S
C59 C58 1.383 1_554 S
C59 C60 1.388 . S
C60 H41 0.946 . S
C60 C59 1.388 . S
C60 C61 1.384 1_554 S
C61 C60 1.384 1_556 S
C61 C62 1.377 . S
C62 H42 0.953 . S
C62 C61 1.377 . S
C62 C63 1.369 . S
C63 H43 0.945 . S
C63 C58 1.385 . S
C63 C62 1.369 . S
C64 C56 1.457 . S
C64 C65 1.372 . S
C64 C69 1.364 . S
C65 H44 0.952 . S
C65 C64 1.372 . S
C65 C66 1.389 . S
C66 H45 0.949 . S
C66 C65 1.389 . S
C66 C67 1.387 . S
C67 C66 1.387 . S
C67 C68 1.372 . S
C68 H46 0.950 . S
C68 C67 1.372 . S
C68 C69 1.379 . S
C69 H47 0.948 . S
C69 C64 1.364 . S
C69 C68 1.379 . S
C70 C39 1.383 . S
C70 C57 1.479 . S
C70 C71 1.398 . S
C71 C36 1.382 . S
C71 H48 0.951 . S
C71 C70 1.398 . S
C72 C73 1.383 1_565 S
C72 H85 0.947 . S
C72 C107 1.382 1_565 S
C73 C72 1.383 1_545 S
C73 C74 1.378 . S
C74 C73 1.378 . S
C74 C75 1.378 . S
C74 H86 0.952 . S
C75 C74 1.378 . S
C75 H87 0.950 . S
C75 C106 1.383 . S
H76 C95 0.947 . S
H77 C96 0.951 . S
H78 C98 0.953 . S
H79 C99 0.945 . S
H80 C101 0.948 1_565 S
H81 C102 0.959 . S
H82 C104 0.950 . S
H83 C105 0.948 . S
H84 C107 0.951 1_565 S
H85 C72 0.947 . S
H86 C74 0.952 . S
H87 C75 0.950 . S
N88 C91 1.382 . S
N88 C93 1.363 . S
N89 C91 1.371 . S
N89 C92 1.372 . S
N90 C92 1.361 . S
N90 C93 1.377 . S
C91 N88 1.382 . S
C91 N89 1.371 . S
C91 C94 1.480 . S
C92 N89 1.372 . S
C92 N90 1.361 . S
C92 C100 1.457 1_554 S
C93 N88 1.363 . S
C93 N90 1.377 . S
C93 C106 1.479 . S
C94 C91 1.480 . S
C94 C95 1.383 . S
C94 C99 1.385 1_554 S
C95 H76 0.947 . S
C95 C94 1.383 . S
C95 C96 1.384 1_545 S
C96 H77 0.951 . S
C96 C95 1.384 1_565 S
C96 C97 1.383 1_565 S
C97 C96 1.383 1_545 S
C97 C98 1.377 1_554 S
C98 H78 0.953 . S
C98 C97 1.377 1_556 S
C98 C99 1.369 . S
C99 H79 0.945 . S
C99 C94 1.385 1_556 S
C99 C98 1.369 . S
C100 C92 1.457 1_556 S
C100 C101 1.378 . S
C100 C105 1.364 1_556 S
C101 H80 0.948 1_545 S
C101 C100 1.378 . S
C101 C102 1.386 1_545 S
C102 H81 0.959 . S
C102 C101 1.386 1_565 S
C102 C103 1.380 1_565 S
C103 C102 1.380 1_545 S
C103 C104 1.372 . S
C104 H82 0.950 . S
C104 C103 1.372 . S
C104 C105 1.379 1_556 S
C105 H83 0.948 . S
C105 C100 1.364 1_554 S
C105 C104 1.379 1_554 S
C106 C75 1.383 . S
C106 C93 1.479 . S
C106 C107 1.398 . S
C107 C72 1.382 1_545 S
C107 H84 0.951 1_545 S
C107 C106 1.398 . S
C108 C109 1.384 . S
C108 H121 0.947 . S
C108 C143 1.382 1_556 S
C109 C108 1.384 . S
C109 C110 1.378 . S
C110 C109 1.378 . S
C110 C111 1.378 . S
C110 H122 0.952 . S
C111 C110 1.378 . S
C111 H123 0.950 . S
C111 C142 1.383 1_556 S
H112 C131 0.947 1_556 S
H113 C132 0.946 . S
H114 C134 0.953 . S
H115 C135 0.945 . S
H116 C137 0.952 . S
H117 C138 0.949 . S
H118 C140 0.950 . S
H119 C141 0.948 . S
H120 C143 0.951 . S
H121 C108 0.947 . S
H122 C110 0.952 . S
H123 C111 0.950 . S
N124 C127 1.382 . S
N124 C129 1.363 . S
N125 C127 1.371 . S
N125 C128 1.372 . S
N126 C128 1.361 . S
N126 C129 1.377 . S
C127 N124 1.382 . S
C127 N125 1.371 . S
C127 C130 1.480 . S
C128 N125 1.372 . S
C128 N126 1.361 . S
C128 C136 1.457 . S
C129 N124 1.363 . S
C129 N126 1.377 . S
C129 C142 1.479 . S
C130 C127 1.480 . S
C130 C131 1.383 . S
C130 C135 1.385 . S
C131 H112 0.947 1_554 S
C131 C130 1.383 . S
C131 C132 1.388 1_554 S
C132 H113 0.946 . S
C132 C131 1.388 1_556 S
C132 C133 1.384 1_556 S
C133 C132 1.384 1_554 S
C133 C134 1.377 . S
C134 H114 0.953 . S
C134 C133 1.377 . S
C134 C135 1.369 . S
C135 H115 0.945 . S
C135 C130 1.385 . S
C135 C134 1.369 . S
C136 C128 1.457 . S
C136 C137 1.372 . S
C136 C141 1.364 . S
C137 H116 0.952 . S
C137 C136 1.372 . S
C137 C138 1.389 . S
C138 H117 0.949 . S
C138 C137 1.389 . S
C138 C139 1.387 . S
C139 C138 1.387 . S
C139 C140 1.372 . S
C140 H118 0.950 . S
C140 C139 1.372 . S
C140 C141 1.379 . S
C141 H119 0.948 . S
C141 C136 1.364 . S
C141 C140 1.379 . S
C142 C111 1.383 1_554 S
C142 C129 1.479 . S
C142 C143 1.398 . S
C143 C108 1.382 1_554 S
C143 H120 0.951 . S
C143 C142 1.398 . S
C144 C145 1.384 . S
C144 H157 0.947 . S
C144 C179 1.382 . S
C145 C144 1.384 . S
C145 C146 1.378 . S
C146 C145 1.378 . S
C146 C147 1.378 . S
C146 H158 0.952 1_554 S
C147 C146 1.378 . S
C147 H159 0.950 . S
C147 C178 1.383 . S
H148 C167 0.947 . S
H149 C168 0.946 . S
H150 C170 0.953 . S
H151 C171 0.945 . S
H152 C173 0.952 . S
H153 C174 0.949 . S
H154 C176 0.950 . S
H155 C177 0.948 . S
H156 C179 0.951 . S
H157 C144 0.947 . S
H158 C146 0.952 1_556 S
H159 C147 0.950 . S
N160 C163 1.382 . S
N160 C165 1.363 . S
N161 C163 1.371 . S
N161 C164 1.372 . S
N162 C164 1.361 . S
N162 C165 1.377 . S
C163 N160 1.382 . S
C163 N161 1.371 . S
C163 C166 1.480 . S
C164 N161 1.372 . S
C164 N162 1.361 . S
C164 C172 1.457 . S
C165 N160 1.363 . S
C165 N162 1.377 . S
C165 C178 1.479 . S
C166 C163 1.480 . S
C166 C167 1.383 . S
C166 C171 1.385 . S
C167 H148 0.947 . S
C167 C166 1.383 . S
C167 C168 1.388 . S
C168 H149 0.946 . S
C168 C167 1.388 . S
C168 C169 1.384 . S
C169 C168 1.384 . S
C169 C170 1.377 . S
C170 H150 0.953 . S
C170 C169 1.377 . S
C170 C171 1.369 . S
C171 H151 0.945 . S
C171 C166 1.385 . S
C171 C170 1.369 . S
C172 C164 1.457 . S
C172 C173 1.372 . S
C172 C177 1.364 . S
C173 H152 0.952 . S
C173 C172 1.372 . S
C173 C174 1.389 . S
C174 H153 0.949 . S
C174 C173 1.389 . S
C174 C175 1.387 . S
C175 C174 1.387 . S
C175 C176 1.372 . S
C176 H154 0.950 . S
C176 C175 1.372 . S
C176 C177 1.379 . S
C177 H155 0.948 . S
C177 C172 1.364 . S
C177 C176 1.379 . S
C178 C147 1.383 . S
C178 C165 1.479 . S
C178 C179 1.398 . S
C179 C144 1.382 . S
C179 H156 0.951 . S
C179 C178 1.398 . S
C180 C181 1.384 . S
C180 H193 0.947 . S
C180 C215 1.382 . S
C181 C180 1.384 . S
C181 C182 1.378 . S
C182 C181 1.378 . S
C182 C183 1.378 . S
C182 H194 0.952 . S
C183 C182 1.378 . S
C183 H195 0.950 . S
C183 C214 1.383 . S
H184 C203 0.947 . S
H185 C204 0.946 . S
H186 C206 0.953 . S
H187 C207 0.945 . S
H188 C209 0.952 . S
H189 C210 0.949 . S
H190 C212 0.950 . S
H191 C213 0.948 . S
H192 C215 0.951 . S
H193 C180 0.947 . S
H194 C182 0.952 . S
H195 C183 0.950 . S
N196 C199 1.382 . S
N196 C201 1.363 . S
N197 C199 1.371 . S
N197 C200 1.372 . S
N198 C200 1.361 . S
N198 C201 1.377 . S
C199 N196 1.382 . S
C199 N197 1.371 . S
C199 C202 1.480 . S
C200 N197 1.372 . S
C200 N198 1.361 . S
C200 C208 1.457 . S
C201 N196 1.363 . S
C201 N198 1.377 . S
C201 C214 1.479 . S
C202 C199 1.480 . S
C202 C203 1.383 . S
C202 C207 1.385 . S
C203 H184 0.947 . S
C203 C202 1.383 . S
C203 C204 1.388 . S
C204 H185 0.946 . S
C204 C203 1.388 . S
C204 C205 1.384 . S
C205 C204 1.384 . S
C205 C206 1.377 . S
C206 H186 0.953 . S
C206 C205 1.377 . S
C206 C207 1.369 . S
C207 H187 0.945 . S
C207 C202 1.385 . S
C207 C206 1.369 . S
C208 C200 1.457 . S
C208 C209 1.372 . S
C208 C213 1.364 . S
C209 H188 0.952 . S
C209 C208 1.372 . S
C209 C210 1.389 . S
C210 H189 0.949 . S
C210 C209 1.389 . S
C210 C211 1.387 . S
C211 C210 1.387 . S
C211 C212 1.372 . S
C212 H190 0.950 . S
C212 C211 1.372 . S
C212 C213 1.379 . S
C213 H191 0.948 . S
C213 C208 1.364 . S
C213 C212 1.379 . S
C214 C183 1.383 . S
C214 C201 1.479 . S
C214 C215 1.398 . S
C215 C180 1.382 . S
C215 H192 0.951 . S
C215 C214 1.398 . S
C216 C217 1.384 . S
C216 H229 0.948 1_545 S
C216 C251 1.381 . S
C217 C216 1.384 . S
C217 C218 1.378 . S
C218 C217 1.378 . S
C218 C219 1.378 . S
C218 H230 0.952 . S
C219 C218 1.378 . S
C219 H231 0.950 . S
C219 C250 1.383 . S
H220 C239 0.947 . S
H221 C240 0.949 . S
H222 C242 0.953 . S
H223 C243 0.945 . S
H224 C245 0.949 1_565 S
H225 C246 0.952 . S
H226 C248 0.950 . S
H227 C249 0.948 . S
H228 C251 0.950 1_565 S
H229 C216 0.948 1_565 S
H230 C218 0.952 . S
H231 C219 0.950 . S
N232 C235 1.382 . S
N232 C237 1.363 . S
N233 C235 1.371 . S
N233 C236 1.372 . S
N234 C236 1.361 . S
N234 C237 1.377 . S
C235 N232 1.382 . S
C235 N233 1.371 . S
C235 C238 1.480 . S
C236 N233 1.372 . S
C236 N234 1.361 . S
C236 C244 1.457 . S
C237 N232 1.363 . S
C237 N234 1.377 . S
C237 C250 1.479 . S
C238 C235 1.480 . S
C238 C239 1.383 . S
C238 C243 1.385 . S
C239 H220 0.947 . S
C239 C238 1.383 . S
C239 C240 1.388 1_545 S
C240 H221 0.949 . S
C240 C239 1.388 1_565 S
C240 C241 1.381 1_565 S
C241 C240 1.381 1_545 S
C241 C242 1.377 . S
C242 H222 0.953 . S
C242 C241 1.377 . S
C242 C243 1.369 . S
C243 H223 0.945 . S
C243 C238 1.385 . S
C243 C242 1.369 . S
C244 C236 1.457 . S
C244 C245 1.377 . S
C244 C249 1.364 . S
C245 H224 0.949 1_545 S
C245 C244 1.377 . S
C245 C246 1.388 1_545 S
C246 H225 0.952 . S
C246 C245 1.388 1_565 S
C246 C247 1.385 1_565 S
C247 C246 1.385 1_545 S
C247 C248 1.372 . S
C248 H226 0.950 . S
C248 C247 1.372 . S
C248 C249 1.379 . S
C249 H227 0.948 . S
C249 C244 1.364 . S
C249 C248 1.379 . S
C250 C219 1.383 . S
C250 C237 1.479 . S
C250 C251 1.400 . S
C251 C216 1.381 . S
C251 H228 0.950 1_545 S
C251 C250 1.400 . S
C252 C253 1.384 . S
C252 H265 0.947 . S
C252 C287 1.382 . S
C253 C252 1.384 . S
C253 C254 1.378 . S
C254 C253 1.378 . S
C254 C255 1.378 . S
C254 H266 0.952 . S
C255 C254 1.378 . S
C255 H267 0.950 . S
C255 C286 1.383 . S
H256 C275 0.947 . S
H257 C276 0.946 . S
H258 C278 0.953 . S
H259 C279 0.945 . S
H260 C281 0.952 . S
H261 C282 0.949 . S
H262 C284 0.950 . S
H263 C285 0.948 . S
H264 C287 0.951 . S
H265 C252 0.947 . S
H266 C254 0.952 . S
H267 C255 0.950 . S
N268 C271 1.382 . S
N268 C273 1.363 . S
N269 C271 1.371 . S
N269 C272 1.372 . S
N270 C272 1.361 . S
N270 C273 1.377 . S
C271 N268 1.382 . S
C271 N269 1.371 . S
C271 C274 1.480 . S
C272 N269 1.372 . S
C272 N270 1.361 . S
C272 C280 1.457 . S
C273 N268 1.363 . S
C273 N270 1.377 . S
C273 C286 1.479 . S
C274 C271 1.480 . S
C274 C275 1.383 . S
C274 C279 1.385 . S
C275 H256 0.947 . S
C275 C274 1.383 . S
C275 C276 1.388 . S
C276 H257 0.946 . S
C276 C275 1.388 . S
C276 C277 1.384 . S
C277 C276 1.384 . S
C277 C278 1.377 . S
C278 H258 0.953 . S
C278 C277 1.377 . S
C278 C279 1.369 . S
C279 H259 0.945 . S
C279 C274 1.385 . S
C279 C278 1.369 . S
C280 C272 1.457 . S
C280 C281 1.372 . S
C280 C285 1.364 . S
C281 H260 0.952 . S
C281 C280 1.372 . S
C281 C282 1.389 . S
C282 H261 0.949 . S
C282 C281 1.389 . S
C282 C283 1.387 . S
C283 C282 1.387 . S
C283 C284 1.372 . S
C284 H262 0.950 . S
C284 C283 1.372 . S
C284 C285 1.379 . S
C285 H263 0.948 . S
C285 C280 1.364 . S
C285 C284 1.379 . S
C286 C255 1.383 . S
C286 C273 1.479 . S
C286 C287 1.398 . S
C287 C252 1.382 . S
C287 H264 0.951 . S
C287 C286 1.398 . S
C288 O304 1.251 . S
C288 O306 1.254 . S
N289 C290 1.339 . S
N289 C294 1.307 . S
N289 Zn295 2.020 1_655 S
C290 N289 1.339 . S
C290 C291 1.393 . S
C290 H308 0.933 1_655 S
C291 C290 1.393 . S
C291 C292 1.390 . S
C291 H318 0.949 . S
C292 C291 1.390 . S
C292 C293 1.357 . S
C293 C292 1.357 . S
C293 C294 1.370 . S
C293 H319 0.950 . S
C294 N289 1.307 . S
C294 C293 1.370 . S
C294 H312 0.948 1_565 S
Zn295 N289 2.020 1_455 S
Zn295 O304 2.039 . S
Zn295 O310 2.034 . S
Zn295 O314 2.025 1_565 S
Zn295 O316 2.029 1_455 S
C296 O315 1.246 . S
C296 O316 1.243 1_545 S
N297 C298 1.307 . S
N297 C299 1.333 . S
N297 Zn303 2.020 . S
C298 N297 1.307 . S
C298 C302 1.370 . S
C298 H309 0.902 1_545 S
C299 N297 1.333 . S
C299 C300 1.379 . S
C299 H307 0.952 . S
C300 C299 1.379 . S
C300 C301 1.390 . S
C300 H320 0.949 . S
C301 C300 1.390 . S
C301 C302 1.357 . S
C302 C298 1.370 . S
C302 C301 1.357 . S
C302 H321 0.950 . S
Zn303 N297 2.020 . S
Zn303 O306 2.025 1_545 S
Zn303 O311 2.032 . S
Zn303 O313 2.039 . S
Zn303 O315 2.034 1_455 S
O304 C288 1.251 . S
O304 Zn295 2.039 . S
C305 O310 1.246 . S
C305 O311 1.238 1_565 S
O306 C288 1.254 . S
O306 Zn303 2.025 1_565 S
H307 C299 0.952 . S
H308 C290 0.933 1_455 S
H309 C298 0.902 1_565 S
O310 Zn295 2.034 . S
O310 C305 1.246 . S
O311 Zn303 2.032 . S
O311 C305 1.238 1_545 S
H312 C294 0.948 1_545 S
O313 Zn303 2.039 . S
O313 C317 1.251 . S
O314 Zn295 2.025 1_545 S
O314 C317 1.254 . S
O315 C296 1.246 . S
O315 Zn303 2.034 1_655 S
O316 Zn295 2.029 1_655 S
O316 C296 1.243 1_565 S
C317 O313 1.251 . S
C317 O314 1.254 . S
H318 C291 0.949 . S
H319 C293 0.950 . S
H320 C300 0.949 . S
H321 C302 0.950 . S
C322 O338 1.251 1_565 S
C322 O340 1.254 . S
N323 C324 1.333 . S
N323 C328 1.307 . S
N323 Zn329 2.020 . S
C324 N323 1.333 . S
C324 C325 1.379 . S
C324 H342 0.952 . S
C325 C324 1.379 . S
C325 C326 1.390 . S
C325 H352 0.949 . S
C326 C325 1.390 . S
C326 C327 1.357 . S
C327 C326 1.357 . S
C327 C328 1.370 . S
C327 H353 0.950 . S
C328 N323 1.307 . S
C328 C327 1.370 . S
C328 H346 0.948 . S
Zn329 N323 2.020 . S
Zn329 O338 2.039 . S
Zn329 O344 2.034 . S
Zn329 O348 2.025 . S
Zn329 O350 2.024 . S
C330 O349 1.246 1_545 S
C330 O350 1.249 . S
N331 C332 1.307 . S
N331 C333 1.333 . S
N331 Zn337 2.020 . S
C332 N331 1.307 . S
C332 C336 1.370 . S
C332 H343 0.948 . S
C333 N331 1.333 . S
C333 C334 1.379 . S
C333 H341 0.952 . S
C334 C333 1.379 . S
C334 C335 1.390 . S
C334 H354 0.949 . S
C335 C334 1.390 . S
C335 C336 1.357 . S
C336 C332 1.370 . S
C336 C335 1.357 . S
C336 H355 0.950 . S
Zn337 N331 2.020 . S
Zn337 O340 2.025 . S
Zn337 O345 2.024 . S
Zn337 O347 2.039 . S
Zn337 O349 2.034 . S
O338 C322 1.251 1_545 S
O338 Zn329 2.039 . S
C339 O344 1.246 1_565 S
C339 O345 1.249 . S
O340 C322 1.254 . S
O340 Zn337 2.025 . S
H341 C333 0.952 . S
H342 C324 0.952 . S
H343 C332 0.948 . S
O344 Zn329 2.034 . S
O344 C339 1.246 1_545 S
O345 Zn337 2.024 . S
O345 C339 1.249 . S
H346 C328 0.948 . S
O347 Zn337 2.039 . S
O347 C351 1.251 1_565 S
O348 Zn329 2.025 . S
O348 C351 1.254 . S
O349 C330 1.246 1_565 S
O349 Zn337 2.034 . S
O350 Zn329 2.024 . S
O350 C330 1.249 . S
C351 O347 1.251 1_545 S
C351 O348 1.254 . S
H352 C325 0.949 . S
H353 C327 0.950 . S
H354 C334 0.949 . S
H355 C336 0.950 . S
C356 O372 1.251 . S
C356 O374 1.254 . S
N357 C358 1.333 . S
N357 C362 1.307 . S
N357 Zn363 2.020 . S
C358 N357 1.333 . S
C358 C359 1.379 . S
C358 H376 0.952 . S
C359 C358 1.379 . S
C359 C360 1.390 . S
C359 H386 0.949 . S
C360 C359 1.390 . S
C360 C361 1.357 . S
C361 C360 1.357 . S
C361 C362 1.370 . S
C361 H387 0.950 . S
C362 N357 1.307 . S
C362 C361 1.370 . S
C362 H380 0.948 . S
Zn363 N357 2.020 . S
Zn363 O372 2.039 . S
Zn363 O378 2.034 . S
Zn363 O382 2.025 . S
Zn363 O384 2.024 . S
C364 O383 1.246 . S
C364 O384 1.249 . S
N365 C366 1.307 . S
N365 C367 1.333 . S
N365 Zn371 2.020 . S
C366 N365 1.307 . S
C366 C370 1.370 . S
C366 H377 0.948 . S
C367 N365 1.333 . S
C367 C368 1.379 . S
C367 H375 0.952 . S
C368 C367 1.379 . S
C368 C369 1.390 . S
C368 H388 0.949 . S
C369 C368 1.390 . S
C369 C370 1.357 . S
C370 C366 1.370 . S
C370 C369 1.357 . S
C370 H389 0.950 . S
Zn371 N365 2.020 . S
Zn371 O374 2.025 . S
Zn371 O379 2.024 . S
Zn371 O381 2.039 . S
Zn371 O383 2.034 . S
O372 C356 1.251 . S
O372 Zn363 2.039 . S
C373 O378 1.246 . S
C373 O379 1.249 . S
O374 C356 1.254 . S
O374 Zn371 2.025 . S
H375 C367 0.952 . S
H376 C358 0.952 . S
H377 C366 0.948 . S
O378 Zn363 2.034 . S
O378 C373 1.246 . S
O379 Zn371 2.024 . S
O379 C373 1.249 . S
H380 C362 0.948 . S
O381 Zn371 2.039 . S
O381 C385 1.251 . S
O382 Zn363 2.025 . S
O382 C385 1.254 . S
O383 C364 1.246 . S
O383 Zn371 2.034 . S
O384 Zn363 2.024 . S
O384 C364 1.249 . S
C385 O381 1.251 . S
C385 O382 1.254 . S
H386 C359 0.949 . S
H387 C361 0.950 . S
H388 C368 0.949 . S
H389 C370 0.950 . S
C390 O406 1.251 . S
C390 O408 1.254 . S
N391 C392 1.333 . S
N391 C396 1.307 . S
N391 Zn397 2.020 . S
C392 N391 1.333 . S
C392 C393 1.379 . S
C392 H410 0.952 . S
C393 C392 1.379 . S
C393 C394 1.390 . S
C393 H420 0.949 . S
C394 C393 1.390 . S
C394 C395 1.357 . S
C395 C394 1.357 . S
C395 C396 1.370 . S
C395 H421 0.950 . S
C396 N391 1.307 . S
C396 C395 1.370 . S
C396 H414 0.948 . S
Zn397 N391 2.020 . S
Zn397 O406 2.039 . S
Zn397 O412 2.024 1_455 S
Zn397 O416 2.025 1_455 S
Zn397 O418 2.024 . S
C398 O417 1.246 . S
C398 O418 1.249 . S
N399 C400 1.307 . S
N399 C401 1.333 1_455 S
N399 Zn405 2.020 . S
C400 N399 1.307 . S
C400 C404 1.370 1_455 S
C400 H411 0.948 . S
C401 N399 1.333 1_655 S
C401 C402 1.379 . S
C401 H409 0.952 . S
C402 C401 1.379 . S
C402 C403 1.390 . S
C402 H422 0.949 . S
C403 C402 1.390 . S
C403 C404 1.357 . S
C404 C400 1.370 1_655 S
C404 C403 1.357 . S
C404 H423 0.951 . S
Zn405 N399 2.020 . S
Zn405 O408 2.025 . S
Zn405 O413 2.024 1_455 S
Zn405 O415 2.039 1_455 S
Zn405 O417 2.034 . S
O406 C390 1.251 . S
O406 Zn397 2.039 . S
C407 O412 1.255 . S
C407 O413 1.249 . S
O408 C390 1.254 . S
O408 Zn405 2.025 . S
H409 C401 0.952 . S
H410 C392 0.952 . S
H411 C400 0.948 . S
O412 Zn397 2.024 1_655 S
O412 C407 1.255 . S
O413 Zn405 2.024 1_655 S
O413 C407 1.249 . S
H414 C396 0.948 . S
O415 Zn405 2.039 1_655 S
O415 C419 1.251 . S
O416 Zn397 2.025 1_655 S
O416 C419 1.254 . S
O417 C398 1.246 . S
O417 Zn405 2.034 . S
O418 Zn397 2.024 . S
O418 C398 1.249 . S
C419 O415 1.251 . S
C419 O416 1.254 . S
H420 C393 0.949 . S
H421 C395 0.950 . S
H422 C402 0.949 . S
H423 C404 0.951 . S
H424 C430 0.930 . S
H425 C433 0.930 . S
H426 C434 0.930 . S
H427 C435 0.930 . S
H428 C438 0.930 . S
H429 C439 0.930 . S
C430 H424 0.930 . S
C430 C431 1.355 1_545 S
C430 C432 1.415 . S
C431 C430 1.355 1_565 S
C431 C433 1.419 . S
C432 C430 1.415 . S
C432 C437 1.425 1_545 S
C432 C439 1.409 . S
C433 H425 0.930 . S
C433 C431 1.419 . S
C433 C434 1.362 . S
C434 H426 0.930 . S
C434 C433 1.362 . S
C434 C437 1.409 . S
C435 H427 0.930 . S
C435 C436 1.355 . S
C435 C437 1.415 . S
C436 C435 1.355 . S
C436 C438 1.419 1_565 S
C437 C432 1.425 1_565 S
C437 C434 1.409 . S
C437 C435 1.415 . S
C438 H428 0.930 . S
C438 C436 1.419 1_545 S
C438 C439 1.362 . S
C439 H429 0.930 . S
C439 C432 1.409 . S
C439 C438 1.362 . S
H440 C446 0.930 . S
H441 C449 0.930 . S
H442 C450 0.930 . S
H443 C451 0.930 . S
H444 C454 0.930 . S
H445 C455 0.930 . S
C446 H440 0.930 . S
C446 C447 1.355 . S
C446 C448 1.415 . S
C447 C446 1.355 . S
C447 C449 1.419 . S
C448 C446 1.415 . S
C448 C453 1.425 . S
C448 C455 1.409 . S
C449 H441 0.930 . S
C449 C447 1.419 . S
C449 C450 1.362 . S
C450 H442 0.930 . S
C450 C449 1.362 . S
C450 C453 1.409 . S
C451 H443 0.930 . S
C451 C452 1.355 . S
C451 C453 1.415 . S
C452 C451 1.355 . S
C452 C454 1.419 . S
C453 C448 1.425 . S
C453 C450 1.409 . S
C453 C451 1.415 . S
C454 H444 0.930 . S
C454 C452 1.419 . S
C454 C455 1.362 . S
C455 H445 0.930 . S
C455 C448 1.409 . S
C455 C454 1.362 . S
H456 C462 0.930 . S
H457 C465 0.930 . S
H458 C466 0.930 . S
H459 C467 0.930 . S
H460 C470 0.930 . S
H461 C471 0.930 . S
C462 H456 0.930 . S
C462 C463 1.355 . S
C462 C464 1.415 . S
C463 C462 1.355 . S
C463 C465 1.419 . S
C464 C462 1.415 . S
C464 C469 1.425 . S
C464 C471 1.409 . S
C465 H457 0.930 . S
C465 C463 1.419 . S
C465 C466 1.362 . S
C466 H458 0.930 . S
C466 C465 1.362 . S
C466 C469 1.409 . S
C467 H459 0.930 . S
C467 C468 1.355 . S
C467 C469 1.415 . S
C468 C467 1.355 . S
C468 C470 1.419 . S
C469 C464 1.425 . S
C469 C466 1.409 . S
C469 C467 1.415 . S
C470 H460 0.930 . S
C470 C468 1.419 . S
C470 C471 1.362 . S
C471 H461 0.930 . S
C471 C464 1.409 . S
C471 C470 1.362 . S
H472 C478 0.930 . S
H473 C481 0.930 . S
H474 C482 0.930 . S
H475 C483 0.930 . S
H476 C486 0.930 . S
H477 C487 0.930 . S
C478 H472 0.930 . S
C478 C479 1.355 . S
C478 C480 1.415 . S
C479 C478 1.355 . S
C479 C481 1.419 . S
C480 C478 1.415 . S
C480 C485 1.425 . S
C480 C487 1.409 . S
C481 H473 0.930 . S
C481 C479 1.419 . S
C481 C482 1.362 . S
C482 H474 0.930 . S
C482 C481 1.362 . S
C482 C485 1.409 . S
C483 H475 0.930 . S
C483 C484 1.355 . S
C483 C485 1.415 . S
C484 C483 1.355 . S
C484 C486 1.419 . S
C485 C480 1.425 . S
C485 C482 1.409 . S
C485 C483 1.415 . S
C486 H476 0.930 . S
C486 C484 1.419 . S
C486 C487 1.362 . S
C487 H477 0.930 . S
C487 C480 1.409 . S
C487 C486 1.362 . S
H488 C494 0.930 . S
H489 C497 0.930 . S
H490 C498 0.930 . S
H491 C499 0.930 . S
H492 C502 0.933 . S
H493 C503 0.934 . S
C494 H488 0.930 . S
C494 C495 1.355 1_565 S
C494 C496 1.415 1_565 S
C495 C494 1.355 1_545 S
C495 C497 1.419 1_556 S
C496 C494 1.415 1_545 S
C496 C501 1.425 . S
C496 C503 1.407 1_545 S
C497 H489 0.930 . S
C497 C495 1.419 1_554 S
C497 C498 1.362 1_554 S
C498 H490 0.930 . S
C498 C497 1.362 1_556 S
C498 C501 1.409 . S
C499 H491 0.930 . S
C499 C500 1.355 . S
C499 C501 1.415 . S
C500 C499 1.355 . S
C500 C502 1.419 . S
C501 C496 1.425 . S
C501 C498 1.409 . S
C501 C499 1.415 . S
C502 H492 0.933 . S
C502 C500 1.419 . S
C502 C503 1.362 1_545 S
C503 H493 0.934 . S
C503 C496 1.407 1_565 S
C503 C502 1.362 1_565 S
H504 C510 0.930 1_554 S
H505 C513 0.930 . S
H506 C514 0.930 . S
H507 C515 0.930 . S
H508 C518 0.930 . S
H509 C519 0.930 . S
C510 H504 0.930 1_556 S
C510 C511 1.355 . S
C510 C512 1.415 . S
C511 C510 1.355 . S
C511 C513 1.419 . S
C512 C510 1.415 . S
C512 C517 1.425 . S
C512 C519 1.409 . S
C513 H505 0.930 . S
C513 C511 1.419 . S
C513 C514 1.362 . S
C514 H506 0.930 . S
C514 C513 1.362 . S
C514 C517 1.409 . S
C515 H507 0.930 . S
C515 C516 1.355 . S
C515 C517 1.415 . S
C516 C515 1.355 . S
C516 C518 1.419 . S
C517 C512 1.425 . S
C517 C514 1.409 . S
C517 C515 1.415 . S
C518 H508 0.930 . S
C518 C516 1.419 . S
C518 C519 1.362 . S
C519 H509 0.930 . S
C519 C512 1.409 . S
C519 C518 1.362 . S
H520 C526 0.930 . S
H521 C529 0.930 . S
H522 C530 0.930 . S
H523 C531 0.930 . S
H524 C534 0.930 . S
H525 C535 0.930 . S
C526 H520 0.930 . S
C526 C527 1.355 . S
C526 C528 1.415 1_554 S
C527 C526 1.355 . S
C527 C529 1.419 1_554 S
C528 C526 1.415 1_556 S
C528 C533 1.425 . S
C528 C535 1.409 . S
C529 H521 0.930 . S
C529 C527 1.419 1_556 S
C529 C530 1.362 . S
C530 H522 0.930 . S
C530 C529 1.362 . S
C530 C533 1.409 . S
C531 H523 0.930 . S
C531 C532 1.355 . S
C531 C533 1.415 . S
C532 C531 1.355 . S
C532 C534 1.419 . S
C533 C528 1.425 . S
C533 C530 1.409 . S
C533 C531 1.415 . S
C534 H524 0.930 . S
C534 C532 1.419 . S
C534 C535 1.362 . S
C535 H525 0.930 . S
C535 C528 1.409 . S
C535 C534 1.362 . S
H536 C542 0.930 . S
H537 C545 0.930 . S
H538 C546 0.930 . S
H539 C547 0.930 . S
H540 C550 0.930 . S
H541 C551 0.930 . S
C542 H536 0.930 . S
C542 C543 1.355 . S
C542 C544 1.415 . S
C543 C542 1.355 . S
C543 C545 1.419 . S
C544 C542 1.415 . S
C544 C549 1.425 . S
C544 C551 1.409 . S
C545 H537 0.930 . S
C545 C543 1.419 . S
C545 C546 1.362 . S
C546 H538 0.930 . S
C546 C545 1.362 . S
C546 C549 1.409 . S
C547 H539 0.930 . S
C547 C548 1.355 . S
C547 C549 1.415 . S
C548 C547 1.355 . S
C548 C550 1.419 . S
C549 C544 1.425 . S
C549 C546 1.409 . S
C549 C547 1.415 . S
C550 H540 0.930 . S
C550 C548 1.419 . S
C550 C551 1.362 . S
C551 H541 0.930 . S
C551 C544 1.409 . S
C551 C550 1.362 . S
H552 C558 0.930 . S
H553 C561 0.930 . S
H554 C562 0.930 . S
H555 C563 0.930 . S
H556 C566 0.930 . S
H557 C567 0.930 . S
C558 H552 0.930 . S
C558 C559 1.355 . S
C558 C560 1.415 . S
C559 C558 1.355 . S
C559 C561 1.419 . S
C560 C558 1.415 . S
C560 C565 1.425 . S
C560 C567 1.409 . S
C561 H553 0.930 . S
C561 C559 1.419 . S
C561 C562 1.362 . S
C562 H554 0.930 . S
C562 C561 1.362 . S
C562 C565 1.409 . S
C563 H555 0.930 . S
C563 C564 1.355 . S
C563 C565 1.415 . S
C564 C563 1.355 . S
C564 C566 1.419 . S
C565 C560 1.425 . S
C565 C562 1.409 . S
C565 C563 1.415 . S
C566 H556 0.930 . S
C566 C564 1.419 . S
C566 C567 1.362 . S
C567 H557 0.930 . S
C567 C560 1.409 . S
C567 C566 1.362 . S
H568 C574 0.930 . S
H569 C577 0.930 . S
H570 C578 0.930 . S
H571 C579 0.930 . S
H572 C582 0.930 . S
H573 C583 0.930 . S
C574 H568 0.930 . S
C574 C575 1.355 1_565 S
C574 C576 1.415 . S
C575 C574 1.355 1_545 S
C575 C577 1.419 . S
C576 C574 1.415 . S
C576 C581 1.425 1_565 S
C576 C583 1.409 . S
C577 H569 0.930 . S
C577 C575 1.419 . S
C577 C578 1.362 . S
C578 H570 0.930 . S
C578 C577 1.362 . S
C578 C581 1.409 . S
C579 H571 0.930 . S
C579 C580 1.355 1_545 S
C579 C581 1.415 . S
C580 C579 1.355 1_565 S
C580 C582 1.419 . S
C581 C576 1.425 1_545 S
C581 C578 1.409 . S
C581 C579 1.415 . S
C582 H572 0.930 . S
C582 C580 1.419 . S
C582 C583 1.362 . S
C583 H573 0.930 . S
C583 C576 1.409 . S
C583 C582 1.362 . S
H584 C590 0.930 . S
H585 C593 0.930 . S
H586 C594 0.930 . S
H587 C595 0.930 . S
H588 C598 0.930 . S
H589 C599 0.930 . S
C590 H584 0.930 . S
C590 C591 1.355 . S
C590 C592 1.415 . S
C591 C590 1.355 . S
C591 C593 1.419 . S
C592 C590 1.415 . S
C592 C597 1.425 . S
C592 C599 1.409 . S
C593 H585 0.930 . S
C593 C591 1.419 . S
C593 C594 1.362 . S
C594 H586 0.930 . S
C594 C593 1.362 . S
C594 C597 1.409 . S
C595 H587 0.930 . S
C595 C596 1.355 . S
C595 C597 1.415 . S
C596 C595 1.355 . S
C596 C598 1.419 . S
C597 C592 1.425 . S
C597 C594 1.409 . S
C597 C595 1.415 . S
C598 H588 0.930 . S
C598 C596 1.419 . S
C598 C599 1.362 . S
C599 H589 0.930 . S
C599 C592 1.409 . S
C599 C598 1.362 . S
H600 C606 0.930 . S
H601 C609 0.930 . S
H602 C610 0.930 . S
H603 C611 0.930 . S
H604 C614 0.930 . S
H605 C615 0.930 . S
C606 H600 0.930 . S
C606 C607 1.355 . S
C606 C608 1.415 . S
C607 C606 1.355 . S
C607 C609 1.419 . S
C608 C606 1.415 . S
C608 C613 1.425 . S
C608 C615 1.409 . S
C609 H601 0.930 . S
C609 C607 1.419 . S
C609 C610 1.362 . S
C610 H602 0.930 . S
C610 C609 1.362 . S
C610 C613 1.409 . S
C611 H603 0.930 . S
C611 C612 1.355 . S
C611 C613 1.415 . S
C612 C611 1.355 . S
C612 C614 1.419 . S
C613 C608 1.425 . S
C613 C610 1.409 . S
C613 C611 1.415 . S
C614 H604 0.930 . S
C614 C612 1.419 . S
C614 C615 1.362 . S
C615 H605 0.930 . S
C615 C608 1.409 . S
C615 C614 1.362 . S
H616 C622 0.930 . S
H617 C625 0.930 . S
H618 C626 0.930 . S
H619 C627 0.930 . S
H620 C630 0.930 . S
H621 C631 0.930 1_455 S
C622 H616 0.930 . S
C622 C623 1.355 . S
C622 C624 1.415 . S
C623 C622 1.355 . S
C623 C625 1.419 . S
C624 C622 1.415 . S
C624 C629 1.425 . S
C624 C631 1.409 . S
C625 H617 0.930 . S
C625 C623 1.419 . S
C625 C626 1.362 . S
C626 H618 0.930 . S
C626 C625 1.362 . S
C626 C629 1.409 . S
C627 H619 0.930 . S
C627 C628 1.355 1_655 S
C627 C629 1.415 . S
C628 C627 1.355 1_455 S
C628 C630 1.419 . S
C629 C624 1.425 . S
C629 C626 1.409 . S
C629 C627 1.415 . S
C630 H620 0.930 . S
C630 C628 1.419 . S
C630 C631 1.362 1_455 S
C631 H621 0.930 1_655 S
C631 C624 1.409 . S
C631 C630 1.362 1_655 S
H632 C638 0.930 . S
H633 C641 0.930 . S
H634 C642 0.930 . S
H635 C643 0.930 . S
H636 C646 0.930 . S
H637 C647 0.930 1_565 S
C638 H632 0.930 . S
C638 C639 1.355 . S
C638 C640 1.415 1_565 S
C639 C638 1.355 . S
C639 C641 1.415 1_565 S
C640 C638 1.415 1_545 S
C640 C645 1.425 . S
C640 C647 1.409 . S
C641 H633 0.930 . S
C641 C639 1.415 1_545 S
C641 C642 1.362 . S
C642 H634 0.930 . S
C642 C641 1.362 . S
C642 C645 1.409 . S
C643 H635 0.930 . S
C643 C644 1.355 . S
C643 C645 1.415 . S
C644 C643 1.355 . S
C644 C646 1.419 . S
C645 C640 1.425 . S
C645 C642 1.409 . S
C645 C643 1.415 . S
C646 H636 0.930 . S
C646 C644 1.419 . S
C646 C647 1.362 . S
C647 H637 0.930 1_545 S
C647 C640 1.409 . S
C647 C646 1.362 . S
H648 C654 0.930 . S
H649 C657 0.930 . S
H650 C658 0.930 . S
H651 C659 0.930 . S
H652 C662 0.930 . S
H653 C663 0.930 . S
C654 H648 0.930 . S
C654 C655 1.355 . S
C654 C656 1.415 . S
C655 C654 1.355 . S
C655 C657 1.419 . S
C656 C654 1.415 . S
C656 C661 1.425 . S
C656 C663 1.409 . S
C657 H649 0.930 . S
C657 C655 1.419 . S
C657 C658 1.362 . S
C658 H650 0.930 . S
C658 C657 1.362 . S
C658 C661 1.409 . S
C659 H651 0.930 . S
C659 C660 1.355 . S
C659 C661 1.415 . S
C660 C659 1.355 . S
C660 C662 1.419 . S
C661 C656 1.425 . S
C661 C658 1.409 . S
C661 C659 1.415 . S
C662 H652 0.930 . S
C662 C660 1.419 . S
C662 C663 1.362 . S
C663 H653 0.930 . S
C663 C656 1.409 . S
C663 C662 1.362 . S
H664 C670 0.930 . S
H665 C673 0.930 . S
H666 C674 0.930 . S
H667 C675 0.930 . S
H668 C678 0.930 1_455 S
H669 C679 0.930 . S
C670 H664 0.930 . S
C670 C671 1.355 . S
C670 C672 1.415 . S
C671 C670 1.355 . S
C671 C673 1.419 . S
C672 C670 1.415 . S
C672 C677 1.425 . S
C672 C679 1.409 . S
C673 H665 0.930 . S
C673 C671 1.419 . S
C673 C674 1.362 . S
C674 H666 0.930 . S
C674 C673 1.362 . S
C674 C677 1.409 . S
C675 H667 0.930 . S
C675 C676 1.355 . S
C675 C677 1.415 . S
C676 C675 1.355 . S
C676 C678 1.419 . S
C677 C672 1.425 . S
C677 C674 1.409 . S
C677 C675 1.415 . S
C678 H668 0.930 1_655 S
C678 C676 1.419 . S
C678 C679 1.362 . S
C679 H669 0.930 . S
C679 C672 1.409 . S
C679 C678 1.362 . S
H680 C686 0.930 . S
H681 C689 0.930 . S
H682 C690 0.930 1_556 S
H683 C691 0.930 . S
H684 C694 0.930 . S
H685 C695 0.930 . S
C686 H680 0.930 . S
C686 C687 1.355 . S
C686 C688 1.415 . S
C687 C686 1.355 . S
C687 C689 1.419 . S
C688 C686 1.415 . S
C688 C693 1.425 . S
C688 C695 1.409 . S
C689 H681 0.930 . S
C689 C687 1.419 . S
C689 C690 1.362 . S
C690 H682 0.930 1_554 S
C690 C689 1.362 . S
C690 C693 1.409 . S
C691 H683 0.930 . S
C691 C692 1.355 1_556 S
C691 C693 1.415 1_556 S
C692 C691 1.355 1_554 S
C692 C694 1.419 . S
C693 C688 1.425 . S
C693 C690 1.409 . S
C693 C691 1.415 1_554 S
C694 H684 0.930 . S
C694 C692 1.419 . S
C694 C695 1.362 . S
C695 H685 0.930 . S
C695 C688 1.409 . S
C695 C694 1.362 . S
H696 C702 0.930 1_554 S
H697 C705 0.930 . S
H698 C706 0.930 . S
H699 C707 0.930 . S
H700 C710 0.930 . S
H701 C711 0.930 . S
C702 H696 0.930 1_556 S
C702 C703 1.355 1_565 S
C702 C704 1.415 . S
C703 C702 1.355 1_545 S
C703 C705 1.419 . S
C704 C702 1.415 . S
C704 C709 1.425 1_565 S
C704 C711 1.409 . S
C705 H697 0.930 . S
C705 C703 1.419 . S
C705 C706 1.362 . S
C706 H698 0.930 . S
C706 C705 1.362 . S
C706 C709 1.409 . S
C707 H699 0.930 . S
C707 C708 1.376 . S
C707 C709 1.415 . S
C708 C707 1.376 . S
C708 C710 1.395 1_545 S
C709 C704 1.425 1_545 S
C709 C706 1.409 . S
C709 C707 1.415 . S
C710 H700 0.930 . S
C710 C708 1.395 1_565 S
C710 C711 1.362 . S
C711 H701 0.930 . S
C711 C704 1.409 . S
C711 C710 1.362 . S
H712 C718 0.930 . S
H713 C721 0.930 . S
H714 C722 0.930 1_554 S
H715 C723 0.930 . S
H716 C726 0.930 . S
H717 C727 0.930 . S
C718 H712 0.930 . S
C718 C719 1.355 . S
C718 C720 1.415 . S
C719 C718 1.355 . S
C719 C721 1.419 1_556 S
C720 C718 1.415 . S
C720 C725 1.425 . S
C720 C727 1.409 . S
C721 H713 0.930 . S
C721 C719 1.419 1_554 S
C721 C722 1.362 1_554 S
C722 H714 0.930 1_556 S
C722 C721 1.362 1_556 S
C722 C725 1.409 . S
C723 H715 0.930 . S
C723 C724 1.355 . S
C723 C725 1.415 . S
C724 C723 1.355 . S
C724 C726 1.419 . S
C725 C720 1.425 . S
C725 C722 1.409 . S
C725 C723 1.415 . S
C726 H716 0.930 . S
C726 C724 1.419 . S
C726 C727 1.362 . S
C727 H717 0.930 . S
C727 C720 1.409 . S
C727 C726 1.362 . S
H728 C734 0.930 . S
H729 C737 0.930 . S
H730 C738 0.930 . S
H731 C739 0.930 . S
H732 C742 0.930 . S
H733 C743 0.930 . S
C734 H728 0.930 . S
C734 C735 1.355 . S
C734 C736 1.415 . S
C735 C734 1.355 . S
C735 C737 1.419 . S
C736 C734 1.415 . S
C736 C741 1.425 . S
C736 C743 1.409 . S
C737 H729 0.930 . S
C737 C735 1.419 . S
C737 C738 1.362 . S
C738 H730 0.930 . S
C738 C737 1.362 . S
C738 C741 1.409 . S
C739 H731 0.930 . S
C739 C740 1.355 . S
C739 C741 1.415 . S
C740 C739 1.355 . S
C740 C742 1.419 . S
C741 C736 1.425 . S
C741 C738 1.409 . S
C741 C739 1.415 . S
C742 H732 0.930 . S
C742 C740 1.419 . S
C742 C743 1.362 . S
C743 H733 0.930 . S
C743 C736 1.409 . S
C743 C742 1.362 . S
H744 C750 0.930 . S
H745 C753 0.930 . S
H746 C754 0.930 . S
H747 C755 0.930 . S
H748 C758 0.930 . S
H749 C759 0.930 . S
C750 H744 0.930 . S
C750 C751 1.355 . S
C750 C752 1.415 . S
C751 C750 1.355 . S
C751 C753 1.419 . S
C752 C750 1.415 . S
C752 C757 1.425 . S
C752 C759 1.409 . S
C753 H745 0.930 . S
C753 C751 1.419 . S
C753 C754 1.362 . S
C754 H746 0.930 . S
C754 C753 1.362 . S
C754 C757 1.409 . S
C755 H747 0.930 . S
C755 C756 1.355 . S
C755 C757 1.415 . S
C756 C755 1.355 . S
C756 C758 1.419 . S
C757 C752 1.425 . S
C757 C754 1.409 . S
C757 C755 1.415 . S
C758 H748 0.930 . S
C758 C756 1.419 . S
C758 C759 1.362 . S
C759 H749 0.930 . S
C759 C752 1.409 . S
C759 C758 1.362 . S
H760 C766 0.930 . S
H761 C769 0.930 . S
H762 C770 0.930 . S
H763 C771 0.930 . S
H764 C774 0.930 . S
H765 C775 0.930 . S
C766 H760 0.930 . S
C766 C767 1.355 1_565 S
C766 C768 1.415 . S
C767 C766 1.355 1_545 S
C767 C769 1.419 . S
C768 C766 1.415 . S
C768 C773 1.425 1_565 S
C768 C775 1.409 . S
C769 H761 0.930 . S
C769 C767 1.419 . S
C769 C770 1.362 . S
C770 H762 0.930 . S
C770 C769 1.362 . S
C770 C773 1.409 . S
C771 H763 0.930 . S
C771 C772 1.355 1_545 S
C771 C773 1.415 . S
C772 C771 1.355 1_565 S
C772 C774 1.419 . S
C773 C768 1.425 1_545 S
C773 C770 1.409 . S
C773 C771 1.415 . S
C774 H764 0.930 . S
C774 C772 1.419 . S
C774 C775 1.362 . S
C775 H765 0.930 . S
C775 C768 1.409 . S
C775 C774 1.362 . S
H776 C782 0.930 . S
H777 C785 0.930 . S
H778 C786 0.930 . S
H779 C787 0.930 . S
H780 C790 0.930 . S
H781 C791 0.930 . S
C782 H776 0.930 . S
C782 C783 1.355 . S
C782 C784 1.415 . S
C783 C782 1.355 . S
C783 C785 1.419 . S
C784 C782 1.415 . S
C784 C789 1.425 . S
C784 C791 1.409 . S
C785 H777 0.930 . S
C785 C783 1.419 . S
C785 C786 1.362 . S
C786 H778 0.930 . S
C786 C785 1.362 . S
C786 C789 1.409 . S
C787 H779 0.930 . S
C787 C788 1.355 . S
C787 C789 1.415 . S
C788 C787 1.355 . S
C788 C790 1.419 . S
C789 C784 1.425 . S
C789 C786 1.409 . S
C789 C787 1.415 . S
C790 H780 0.930 . S
C790 C788 1.419 . S
C790 C791 1.362 . S
C791 H781 0.930 . S
C791 C784 1.409 . S
C791 C790 1.362 . S
H792 C798 0.930 . S
H793 C801 0.930 . S
H794 C802 0.930 . S
H795 C803 0.930 . S
H796 C806 0.930 . S
H797 C807 0.930 . S
C798 H792 0.930 . S
C798 C799 1.355 . S
C798 C800 1.415 . S
C799 C798 1.355 . S
C799 C801 1.419 . S
C800 C798 1.415 . S
C800 C805 1.425 . S
C800 C807 1.409 . S
C801 H793 0.930 . S
C801 C799 1.419 . S
C801 C802 1.362 . S
C802 H794 0.930 . S
C802 C801 1.362 . S
C802 C805 1.409 . S
C803 H795 0.930 . S
C803 C804 1.355 . S
C803 C805 1.415 . S
C804 C803 1.355 . S
C804 C806 1.419 . S
C805 C800 1.425 . S
C805 C802 1.409 . S
C805 C803 1.415 . S
C806 H796 0.930 . S
C806 C804 1.419 . S
C806 C807 1.362 . S
C807 H797 0.930 . S
C807 C800 1.409 . S
C807 C806 1.362 . S
C431 C241 1.890 1_565 S
C436 C305 1.916 . S
C452 C326 1.757 . S
C447 C277 1.679 . S
C468 C360 1.606 . S
C463 C169 1.531 . S
C484 C394 1.722 . S
C479 C205 1.696 . S
C500 C296 1.934 . S
C495 C97 1.893 1_556 S
C511 C133 1.732 1_556 S
C516 C335 1.744 . S
C527 C25 1.542 . S
C532 C369 1.598 . S
C543 C61 1.605 . S
C548 C403 1.719 . S
C564 C317 0.980 . S
C559 C211 0.946 . S
C580 C322 0.675 . S
C575 C247 0.691 . S
C596 C356 0.844 . S
C591 C253 0.855 . S
C607 C175 0.588 . S
C612 C390 0.382 . S
C623 C67 0.811 . S
C628 C288 0.906 . S
C644 C351 0.664 . S
C639 C103 0.707 1_565 S
C660 C385 0.732 . S
C655 C109 0.745 . S
C671 C31 0.368 . S
C676 C419 0.305 . S
C687 C181 1.760 . S
C692 C301 1.822 1_554 S
C703 C217 2.055 1_556 S
C708 C330 2.166 . S
C724 C364 1.917 . S
C719 C283 1.723 1_556 S
C740 C398 1.990 . S
C735 C145 1.856 1_556 S
C751 C37 1.687 . S
C756 C292 1.795 . S
C772 C339 2.170 . S
C767 C73 2.069 . S
C788 C373 1.914 . S
C783 C139 1.788 . S
C799 C1 1.909 . S
C804 C407 1.992 . S
