# Generated by pormake.
# Topology pyr, (3,6)-cn, num edge types: 1
# Building blocks:
#     Node 0, Type 0, BuildingBlock: BELTOD_clean_linker_0, # of connection points: 3
#     Node 1, Type 0, BuildingBlock: BELTOD_clean_linker_0, # of connection points: 3
#     Node 2, Type 0, BuildingBlock: BELTOD_clean_linker_0, # of connection points: 3
#     Node 3, Type 0, BuildingBlock: BELTOD_clean_linker_0, # of connection points: 3
#     Node 4, Type 0, BuildingBlock: BELTOD_clean_linker_0, # of connection points: 3
#     Node 5, Type 0, BuildingBlock: BELTOD_clean_linker_0, # of connection points: 3
#     Node 6, Type 0, BuildingBlock: BELTOD_clean_linker_0, # of connection points: 3
#     Node 7, Type 0, BuildingBlock: BELTOD_clean_linker_0, # of connection points: 3
#     Node 8, Type 1, BuildingBlock: PAMTUU_clean_sbu_0, # of connection points: 6
#     Node 9, Type 1, BuildingBlock: PAMTUU_clean_sbu_0, # of connection points: 6
#     Node 10, Type 1, BuildingBlock: PAMTUU_clean_sbu_0, # of connection points: 6
#     Node 11, Type 1, BuildingBlock: PAMTUU_clean_sbu_0, # of connection points: 6
#     Edge 12, Type (0, 1), BuildingBlock: UVAHIK_clean_linker_0, # of connection points: 2
#     Edge 13, Type (0, 1), BuildingBlock: UVAHIK_clean_linker_0, # of connection points: 2
#     Edge 14, Type (0, 1), BuildingBlock: UVAHIK_clean_linker_0, # of connection points: 2
#     Edge 15, Type (0, 1), BuildingBlock: UVAHIK_clean_linker_0, # of connection points: 2
#     Edge 16, Type (0, 1), BuildingBlock: UVAHIK_clean_linker_0, # of connection points: 2
#     Edge 17, Type (0, 1), BuildingBlock: UVAHIK_clean_linker_0, # of connection points: 2
#     Edge 18, Type (0, 1), BuildingBlock: UVAHIK_clean_linker_0, # of connection points: 2
#     Edge 19, Type (0, 1), BuildingBlock: UVAHIK_clean_linker_0, # of connection points: 2
#     Edge 20, Type (0, 1), BuildingBlock: UVAHIK_clean_linker_0, # of connection points: 2
#     Edge 21, Type (0, 1), BuildingBlock: UVAHIK_clean_linker_0, # of connection points: 2
#     Edge 22, Type (0, 1), BuildingBlock: UVAHIK_clean_linker_0, # of connection points: 2
#     Edge 23, Type (0, 1), BuildingBlock: UVAHIK_clean_linker_0, # of connection points: 2
#     Edge 24, Type (0, 1), BuildingBlock: UVAHIK_clean_linker_0, # of connection points: 2
#     Edge 25, Type (0, 1), BuildingBlock: UVAHIK_clean_linker_0, # of connection points: 2
#     Edge 26, Type (0, 1), BuildingBlock: UVAHIK_clean_linker_0, # of connection points: 2
#     Edge 27, Type (0, 1), BuildingBlock: UVAHIK_clean_linker_0, # of connection points: 2
#     Edge 28, Type (0, 1), BuildingBlock: UVAHIK_clean_linker_0, # of connection points: 2
#     Edge 29, Type (0, 1), BuildingBlock: UVAHIK_clean_linker_0, # of connection points: 2
#     Edge 30, Type (0, 1), BuildingBlock: UVAHIK_clean_linker_0, # of connection points: 2
#     Edge 31, Type (0, 1), BuildingBlock: UVAHIK_clean_linker_0, # of connection points: 2
#     Edge 32, Type (0, 1), BuildingBlock: UVAHIK_clean_linker_0, # of connection points: 2
#     Edge 33, Type (0, 1), BuildingBlock: UVAHIK_clean_linker_0, # of connection points: 2
#     Edge 34, Type (0, 1), BuildingBlock: UVAHIK_clean_linker_0, # of connection points: 2
#     Edge 35, Type (0, 1), BuildingBlock: UVAHIK_clean_linker_0, # of connection points: 2
# Relax obj value: 0.070
# Max RMSD: 0.116
# Mean RMSD: 0.049
data_MOF--net-pyr--node1-PAMTUU_clean_sbu_0--node2-BELTOD_clean_linker_0--edge1-UVAHIK_clean_linker_0
_symmetry_space_group_name_H-M    P1
_symmetry_Int_Tables_number       1
_symmetry_cell_setting            triclinic
loop_
_symmetry_equiv_pos_as_xyz
'x, y, z'
_cell_length_a     54.405092
_cell_length_b     56.140774
_cell_length_c     53.874121
_cell_angle_alpha  90.140321
_cell_angle_beta   89.150856
_cell_angle_gamma 98.780285
loop_
_atom_site_label
_atom_site_type_symbol
_atom_site_fract_x
_atom_site_fract_y
_atom_site_fract_z
_atom_type_partial_charge
P0 P 0.34467 0.28794 0.22335 0.0
H1 H 0.3609 0.28744 0.1708 0.0
H2 H 0.38287 0.25961 0.14724 0.0
H3 H 0.39279 0.22112 0.21478 0.0
H4 H 0.37045 0.24868 0.23816 0.0
H5 H 0.33002 0.33591 0.22418 0.0
H6 H 0.2988 0.3536 0.20136 0.0
H7 H 0.28293 0.28845 0.15776 0.0
H8 H 0.31356 0.27068 0.18121 0.0
H9 H 0.33199 0.29195 0.2763 0.0
H10 H 0.31269 0.24215 0.21613 0.0
O11 O 0.36355 0.30864 0.23913 0.0
H12 H 0.30404 0.26574 0.30424 0.0
H13 H 0.28418 0.21639 0.24349 0.0
C14 C 0.36327 0.26956 0.20609 0.0
C15 C 0.36766 0.27295 0.18053 0.0
C16 C 0.38027 0.2571 0.16709 0.0
C17 C 0.38926 0.23807 0.17917 0.0
C18 C 0.38609 0.23564 0.20501 0.0
C19 C 0.37322 0.25129 0.21834 0.0
C20 C 0.3245 0.3022 0.20403 0.0
C21 C 0.32013 0.32562 0.20941 0.0
C22 C 0.30229 0.33573 0.19629 0.0
C23 C 0.28836 0.32246 0.17768 0.0
C24 C 0.29311 0.29908 0.17214 0.0
C25 C 0.31083 0.28898 0.18537 0.0
C26 C 0.32463 0.26878 0.24428 0.0
C27 C 0.32175 0.27538 0.26912 0.0
C28 C 0.30561 0.26048 0.285 0.0
C29 C 0.29197 0.23887 0.27615 0.0
C30 C 0.29475 0.23261 0.25108 0.0
C31 C 0.31093 0.24743 0.23534 0.0
P32 P 0.23622 0.809 0.69098 0.0
H33 H 0.28166 0.81575 0.71926 0.0
H34 H 0.28978 0.81783 0.76356 0.0
H35 H 0.21099 0.79933 0.77919 0.0
H36 H 0.20302 0.79757 0.73449 0.0
H37 H 0.25176 0.79825 0.64096 0.0
H38 H 0.26521 0.76259 0.62266 0.0
H39 H 0.24286 0.72258 0.68984 0.0
H40 H 0.22988 0.75866 0.70822 0.0
H41 H 0.21206 0.84643 0.71319 0.0
H42 H 0.19653 0.7936 0.65501 0.0
O43 O 0.25784 0.83053 0.67935 0.0
H44 H 0.17597 0.86458 0.70144 0.0
H45 H 0.16055 0.81206 0.64277 0.0
C46 C 0.24173 0.8073 0.7237 0.0
C47 C 0.26615 0.81195 0.73221 0.0
C48 C 0.27077 0.81284 0.7576 0.0
C49 C 0.251 0.80889 0.77497 0.0
C50 C 0.22657 0.8028 0.76629 0.0
C51 C 0.22199 0.80184 0.74078 0.0
C52 C 0.24042 0.78121 0.6761 0.0
C53 C 0.24936 0.78168 0.65158 0.0
C54 C 0.25687 0.76118 0.64107 0.0
C55 C 0.25542 0.73977 0.65491 0.0
C56 C 0.24466 0.73891 0.67888 0.0
C57 C 0.23715 0.7595 0.68938 0.0
C58 C 0.20676 0.81849 0.68521 0.0
C59 C 0.20051 0.83837 0.69825 0.0
C60 C 0.18001 0.84887 0.69138 0.0
C61 C 0.16556 0.83986 0.67106 0.0
C62 C 0.17121 0.81924 0.65866 0.0
C63 C 0.19181 0.80871 0.6656 0.0
P64 P 0.67852 0.33605 0.82241 0.0
H65 H 0.71299 0.32062 0.85757 0.0
H66 H 0.74687 0.34156 0.88197 0.0
H67 H 0.73117 0.40978 0.85423 0.0
H68 H 0.69613 0.38853 0.83106 0.0
H69 H 0.64357 0.29426 0.80624 0.0
H70 H 0.6205 0.25963 0.82807 0.0
H71 H 0.64537 0.29166 0.89814 0.0
H72 H 0.66715 0.32674 0.87614 0.0
H73 H 0.69841 0.3713 0.78474 0.0
H74 H 0.62568 0.34053 0.81193 0.0
O75 O 0.6949 0.32033 0.80384 0.0
H76 H 0.67963 0.39212 0.75199 0.0
H77 H 0.60656 0.36155 0.77922 0.0
C78 C 0.70171 0.35286 0.84253 0.0
C79 C 0.7165 0.34013 0.85707 0.0
C80 C 0.73628 0.35224 0.8708 0.0
C81 C 0.74237 0.37756 0.86999 0.0
C82 C 0.72716 0.39035 0.85567 0.0
C83 C 0.70706 0.37815 0.84217 0.0
C84 C 0.65735 0.31318 0.83938 0.0
C85 C 0.64361 0.29407 0.82634 0.0
C86 C 0.63068 0.27399 0.83895 0.0
C87 C 0.6313 0.27227 0.86506 0.0
C88 C 0.64418 0.29208 0.87811 0.0
C89 C 0.6569 0.31228 0.86545 0.0
C90 C 0.66358 0.35454 0.80118 0.0
C91 C 0.67832 0.36945 0.78403 0.0
C92 C 0.66747 0.3814 0.76518 0.0
C93 C 0.64143 0.37866 0.76269 0.0
C94 C 0.62665 0.36397 0.78022 0.0
C95 C 0.63759 0.35207 0.7992 0.0
P96 P 0.83805 0.6875 0.3188 0.0
H97 H 0.82674 0.73625 0.32576 0.0
H98 H 0.84708 0.77163 0.34752 0.0
H99 H 0.9057 0.73236 0.36923 0.0
H100 H 0.88523 0.69679 0.34662 0.0
H101 H 0.85994 0.69964 0.27015 0.0
H102 H 0.88179 0.67799 0.23988 0.0
H103 H 0.88268 0.62036 0.29274 0.0
H104 H 0.86029 0.64224 0.32298 0.0
H105 H 0.81869 0.69564 0.36886 0.0
H106 H 0.81222 0.63763 0.31569 0.0
O107 O 0.81792 0.6974 0.29973 0.0
H108 H 0.78581 0.67311 0.39417 0.0
H109 H 0.78019 0.61426 0.34162 0.0
C110 C 0.85463 0.71389 0.33415 0.0
C111 C 0.84412 0.7352 0.33492 0.0
C112 C 0.85569 0.75547 0.3477 0.0
C113 C 0.87805 0.75499 0.36037 0.0
C114 C 0.88866 0.73356 0.35951 0.0
C115 C 0.87696 0.71315 0.34663 0.0
C116 C 0.85802 0.67244 0.29873 0.0
C117 C 0.86505 0.68245 0.27538 0.0
C118 C 0.87772 0.67001 0.25804 0.0
C119 C 0.88395 0.64719 0.2636 0.0
C120 C 0.87781 0.63764 0.28752 0.0
C121 C 0.86512 0.65021 0.30495 0.0
C122 C 0.81863 0.66815 0.34059 0.0
C123 C 0.8109 0.67765 0.36302 0.0
C124 C 0.79192 0.66462 0.3776 0.0
C125 C 0.78004 0.64171 0.3701 0.0
C126 C 0.78847 0.63194 0.34797 0.0
C127 C 0.80725 0.64513 0.33326 0.0
P128 P 0.73367 0.80505 0.86516 0.0
H129 H 0.70863 0.80714 0.91272 0.0
H130 H 0.66671 0.81373 0.92406 0.0
H131 H 0.6454 0.80603 0.84713 0.0
H132 H 0.68762 0.79931 0.83594 0.0
H133 H 0.78003 0.79372 0.88422 0.0
H134 H 0.79713 0.75632 0.88771 0.0
H135 H 0.72903 0.71674 0.85911 0.0
H136 H 0.71175 0.75465 0.85592 0.0
H137 H 0.71887 0.84475 0.83741 0.0
H138 H 0.76337 0.78849 0.82418 0.0
O139 O 0.74965 0.82575 0.88342 0.0
H140 H 0.72988 0.86108 0.7961 0.0
H141 H 0.77535 0.80528 0.78342 0.0
C142 C 0.70137 0.80356 0.87346 0.0
C143 C 0.69479 0.80632 0.89837 0.0
C144 C 0.67072 0.80992 0.90483 0.0
C145 C 0.6528 0.81075 0.88641 0.0
C146 C 0.65893 0.80589 0.86165 0.0
C147 C 0.68305 0.80209 0.85524 0.0
C148 C 0.7445 0.77685 0.87024 0.0
C149 C 0.76857 0.777 0.87906 0.0
C150 C 0.77844 0.75562 0.88076 0.0
C151 C 0.7645 0.73364 0.87344 0.0
C152 C 0.74012 0.73342 0.865 0.0
C153 C 0.73025 0.75499 0.86321 0.0
C154 C 0.7399 0.81517 0.83373 0.0
C155 C 0.73077 0.83574 0.82549 0.0
C156 C 0.73731 0.8452 0.80196 0.0
C157 C 0.75358 0.83454 0.78642 0.0
C158 C 0.76244 0.8137 0.79467 0.0
C159 C 0.75568 0.80413 0.81814 0.0
P160 P 0.84366 0.27998 0.29564 0.0
H161 H 0.83935 0.33015 0.30838 0.0
H162 H 0.80683 0.34828 0.32976 0.0
H163 H 0.76648 0.27717 0.34479 0.0
H164 H 0.79846 0.25936 0.32261 0.0
H165 H 0.88787 0.25878 0.28385 0.0
H166 H 0.90937 0.22996 0.30576 0.0
H167 H 0.85952 0.23198 0.36858 0.0
H168 H 0.83845 0.26092 0.34693 0.0
H169 H 0.82749 0.28844 0.24524 0.0
H170 H 0.8205 0.22952 0.29739 0.0
O171 O 0.8631 0.30139 0.28089 0.0
H172 H 0.79978 0.26337 0.21671 0.0
H173 H 0.79279 0.20461 0.26918 0.0
C174 C 0.8213 0.2934 0.31382 0.0
C175 C 0.82357 0.31848 0.31641 0.0
C176 C 0.805 0.32883 0.32878 0.0
C177 C 0.78389 0.31421 0.33886 0.0
C178 C 0.78217 0.28903 0.33682 0.0
C179 C 0.80058 0.27877 0.32428 0.0
C180 C 0.8616 0.26209 0.31372 0.0
C181 C 0.88192 0.25339 0.30255 0.0
C182 C 0.89416 0.23692 0.31504 0.0
C183 C 0.88596 0.22862 0.33877 0.0
C184 C 0.86601 0.23786 0.35017 0.0
C185 C 0.85399 0.25451 0.33778 0.0
C186 C 0.82634 0.26071 0.27323 0.0
C187 C 0.82039 0.27 0.25034 0.0
C188 C 0.80457 0.25571 0.23409 0.0
C189 C 0.79412 0.23212 0.24082 0.0
C190 C 0.80045 0.2228 0.26363 0.0
C191 C 0.81645 0.23697 0.27967 0.0
P192 P 0.36356 0.66111 0.1855 0.0
H193 H 0.34747 0.62447 0.14764 0.0
H194 H 0.30725 0.60798 0.13054 0.0
H195 H 0.27128 0.65325 0.17959 0.0
H196 H 0.31192 0.66933 0.19746 0.0
H197 H 0.41131 0.69317 0.18532 0.0
H198 H 0.42479 0.73436 0.171 0.0
H199 H 0.3487 0.74112 0.15471 0.0
H200 H 0.33538 0.69991 0.16887 0.0
H201 H 0.34342 0.6179 0.21403 0.0
H202 H 0.39489 0.68285 0.22694 0.0
O203 O 0.38421 0.64806 0.16924 0.0
H204 H 0.35515 0.6013 0.25317 0.0
H205 H 0.40754 0.66606 0.26555 0.0
C206 C 0.33299 0.64853 0.17369 0.0
C207 C 0.33106 0.63091 0.15495 0.0
C208 C 0.30792 0.62135 0.14515 0.0
C209 C 0.286 0.62935 0.15355 0.0
C210 C 0.28784 0.64687 0.17251 0.0
C211 C 0.31105 0.65607 0.18275 0.0
C212 C 0.37218 0.69323 0.17879 0.0
C213 C 0.39736 0.70366 0.1793 0.0
C214 C 0.40511 0.72734 0.17097 0.0
C215 C 0.38792 0.74129 0.16156 0.0
C216 C 0.3626 0.73096 0.16153 0.0
C217 C 0.35486 0.70728 0.16999 0.0
C218 C 0.3678 0.65193 0.21746 0.0
C219 C 0.35688 0.62889 0.2255 0.0
C220 C 0.36401 0.61918 0.24785 0.0
C221 C 0.38264 0.63207 0.26274 0.0
C222 C 0.39297 0.65552 0.25497 0.0
C223 C 0.38571 0.66524 0.23266 0.0
P224 P 0.17932 0.33262 0.71106 0.0
H225 H 0.19356 0.30726 0.66729 0.0
H226 H 0.17172 0.2751 0.64186 0.0
H227 H 0.10342 0.28055 0.68194 0.0
H228 H 0.12563 0.31262 0.70763 0.0
H229 H 0.23261 0.34472 0.72039 0.0
H230 H 0.26718 0.36722 0.69694 0.0
H231 H 0.21588 0.38649 0.64282 0.0
H232 H 0.18105 0.36355 0.66649 0.0
H233 H 0.1456 0.31631 0.7521 0.0
H234 H 0.17438 0.38431 0.71778 0.0
O235 O 0.19285 0.31424 0.72887 0.0
H236 H 0.12582 0.33725 0.78476 0.0
H237 H 0.15496 0.40555 0.75077 0.0
C238 C 0.16125 0.31279 0.68916 0.0
C239 C 0.17373 0.30201 0.67023 0.0
C240 C 0.16115 0.28349 0.65565 0.0
C241 C 0.1357 0.27503 0.65975 0.0
C242 C 0.12306 0.28631 0.67838 0.0
C243 C 0.13572 0.30491 0.69298 0.0
C244 C 0.2042 0.35212 0.69504 0.0
C245 C 0.22865 0.35383 0.70356 0.0
C246 C 0.24849 0.36665 0.69005 0.0
C247 C 0.24437 0.37839 0.6678 0.0
C248 C 0.2197 0.37765 0.65988 0.0
C249 C 0.19978 0.36454 0.67336 0.0
C250 C 0.16146 0.34865 0.73237 0.0
C251 C 0.1474 0.33578 0.75139 0.0
C252 C 0.1363 0.34784 0.77028 0.0
C253 C 0.13901 0.37319 0.77073 0.0
C254 C 0.15233 0.38604 0.75104 0.0
C255 C 0.1635 0.37389 0.7321 0.0
Tb256 Tb 0.03134 0.01855 0.48886 0.0
Tb257 Tb 0.9814 0.01642 0.52398 0.0
C258 C 0.9863 0.97663 0.48339 0.0
C259 C 0.0862 0.03831 0.44741 0.0
C260 C 0.11804 0.07296 0.41965 0.0
C261 C 0.12558 0.05094 0.42617 0.0
C262 C 0.10976 0.03378 0.43989 0.0
C263 C 0.07851 0.06023 0.44113 0.0
C264 C 0.09431 0.07743 0.4273 0.0
C265 C 0.07022 0.02019 0.4623 0.0
O266 O 1.00504 0.03562 0.46757 0.0
O267 O 0.98228 0.0475 0.50015 0.0
O268 O 0.01046 0.04245 0.54092 0.0
O269 O 0.03488 0.0538 0.50664 0.0
O270 O 0.94283 0.01663 0.52666 0.0
O271 O 0.96525 0.01649 0.55947 0.0
O272 O 0.9991 0.98649 0.53609 0.0
O273 O 0.0387 1.00282 0.52437 0.0
O274 O 0.01062 0.9825 0.4838 0.0
O275 O 0.97161 0.99031 0.49413 0.0
C276 C 0.98952 0.04918 0.47684 0.0
O277 O 0.07031 0.02399 0.48615 0.0
O278 O 0.0478 0.01336 0.45418 0.0
C279 C 0.02762 0.0578 0.52946 0.0
C280 C 0.92362 0.99757 0.56242 0.0
C281 C 0.88769 0.96577 0.58895 0.0
C282 C 0.88292 0.98876 0.58209 0.0
C283 C 0.90077 1.00453 0.56898 0.0
C284 C 0.92814 0.97429 0.56821 0.0
C285 C 0.91028 0.95848 0.58142 0.0
C286 C 0.94284 0.01537 0.55081 0.0
C287 C 0.02324 0.98752 0.53768 0.0
H288 H 0.14388 0.04709 0.42102 0.0
H289 H 0.11603 0.01701 0.44481 0.0
H290 H 0.06034 0.06402 0.44694 0.0
H291 H 0.08785 0.09409 0.4224 0.0
H292 H 0.86553 0.99474 0.58722 0.0
H293 H 0.89695 0.0224 0.56449 0.0
H294 H 0.94571 0.9686 0.56317 0.0
H295 H 0.91458 0.94096 0.58657 0.0
Tb296 Tb 0.526 0.01519 0.03878 0.0
Tb297 Tb 0.4764 0.01112 1.00382 0.0
C298 C 0.5178 0.97898 0.99425 0.0
C299 C 0.58204 0.03928 0.07515 0.0
C300 C 0.61643 0.07595 0.09648 0.0
C301 C 0.62448 0.05543 0.08607 0.0
C302 C 0.60738 0.03721 0.07559 0.0
C303 C 0.57407 0.06016 0.08474 0.0
C304 C 0.59111 0.07827 0.09546 0.0
C305 C 0.5642 0.01926 0.06531 0.0
O306 O 0.53641 0.03986 1.00749 0.0
O307 O 0.49788 0.04599 0.99416 0.0
O308 O 0.46889 0.03077 0.03724 0.0
O309 O 0.50849 0.04592 0.04893 0.0
O310 O 0.45934 0.00995 0.96893 0.0
O311 O 0.43767 1.00898 1.00285 0.0
O312 O 0.47214 0.97721 0.02421 0.0
O313 O 0.49728 0.98916 0.05725 0.0
O314 O 0.52549 0.98272 0.01705 0.0
O315 O 0.5027 0.99206 0.98392 0.0
C316 C 0.52218 0.05228 0.99471 0.0
O317 O 0.54152 0.01715 0.07418 0.0
O318 O 0.5647 0.01605 0.04133 0.0
C319 C 0.48453 0.04644 0.04951 0.0
C320 C 0.41904 0.98613 0.9695 0.0
C321 C 0.3837 0.94785 0.95205 0.0
C322 C 0.37834 0.96135 0.97289 0.0
C323 C 0.39575 0.98034 0.98142 0.0
C324 C 0.42453 0.97257 0.94875 0.0
C325 C 0.40703 0.95364 0.94011 0.0
C326 C 0.43704 1.00646 0.97884 0.0
C327 C 0.47984 0.97363 0.04673 0.0
H328 H 0.64386 0.05311 0.08679 0.0
H329 H 0.61389 0.02127 0.06822 0.0
H330 H 0.55462 0.06232 0.08434 0.0
H331 H 0.58447 0.09402 0.10311 0.0
H332 H 0.36068 0.95724 0.98268 0.0
H333 H 0.39095 0.99056 0.9974 0.0
H334 H 0.44223 0.97667 0.93902 0.0
H335 H 0.4116 0.9439 0.92373 0.0
Tb336 Tb 0.5117 0.48329 0.49906 0.0
Tb337 Tb 0.50921 0.53212 0.53128 0.0
C338 C 0.48579 0.52513 0.47769 0.0
C339 C 0.53684 0.4346 0.46524 0.0
C340 C 0.57794 0.41441 0.44695 0.0
C341 C 0.55556 0.41184 0.43373 0.0
C342 C 0.5352 0.42181 0.44284 0.0
C343 C 0.55908 0.43726 0.47855 0.0
C344 C 0.5794 0.42715 0.46955 0.0
C345 C 0.51567 0.44601 0.47386 0.0
O346 O 0.54183 0.5102 0.48517 0.0
O347 O 0.54799 0.53527 0.51889 0.0
O348 O 0.52108 0.50603 0.55685 0.0
O349 O 0.53818 0.48209 0.52912 0.0
O350 O 0.51347 0.56992 0.53378 0.0
O351 O 0.50163 0.54759 0.56547 0.0
O352 O 0.47138 0.51246 0.53167 0.0
O353 O 0.48069 0.47453 0.52521 0.0
O354 O 0.48452 0.50163 0.48007 0.0
O355 O 0.49814 0.53998 0.49368 0.0
C356 C 0.55551 0.52752 0.49743 0.0
O357 O 0.51141 0.44586 0.49772 0.0
O358 O 0.51427 0.46696 0.46416 0.0
C359 C 0.53514 0.48945 0.55203 0.0
C360 C 0.48317 0.58212 0.56044 0.0
C361 C 0.44144 0.60475 0.57094 0.0
C362 C 0.4647 0.61358 0.58122 0.0
C363 C 0.4854 0.60228 0.57605 0.0
C364 C 0.46015 0.57354 0.54973 0.0
C365 C 0.43944 0.58472 0.55498 0.0
C366 C 0.50441 0.56928 0.55632 0.0
C367 C 0.46544 0.48895 0.5333 0.0
H368 H 0.55388 0.40255 0.41606 0.0
H369 H 0.51827 0.41983 0.43219 0.0
H370 H 0.56079 0.44727 0.49582 0.0
H371 H 0.59621 0.42924 0.48037 0.0
H372 H 0.46675 0.62883 0.59377 0.0
H373 H 0.50302 0.60902 0.58456 0.0
H374 H 0.45814 0.55799 0.53756 0.0
H375 H 0.42187 0.5777 0.54654 0.0
Tb376 Tb 0.00824 0.53267 1.00113 0.0
Tb377 Tb 0.01018 0.48389 0.03316 0.0
C378 C 0.03428 0.48994 0.98024 0.0
C379 C 0.9797 0.57671 0.9661 0.0
C380 C 0.93543 0.58899 0.94695 0.0
C381 C 0.95765 0.59301 0.93287 0.0
C382 C 0.97964 0.58697 0.94242 0.0
C383 C 0.95747 0.57247 0.98011 0.0
C384 C 0.93557 0.57873 0.97068 0.0
C385 C 1.00243 0.56877 0.97526 0.0
O386 O 0.97037 0.51286 1.00099 0.0
O387 O 0.97972 0.47498 1.00709 0.0
O388 O 0.98362 0.50322 0.05265 0.0
O389 O 1.00009 0.541 0.03961 0.0
O390 O 0.00917 0.44637 0.03443 0.0
O391 O 0.01215 0.46757 0.06796 0.0
O392 O 0.04224 0.50936 0.04519 0.0
O393 O 0.04668 0.53763 0.0138 0.0
O394 O 0.01984 0.50608 0.97564 0.0
O395 O 0.03719 0.48278 1.00304 0.0
C396 C 0.96453 0.48933 0.99917 0.0
O397 O 1.00548 0.56954 0.99917 0.0
O398 O 0.00723 0.54858 0.96594 0.0
C399 C 0.98668 0.52674 0.0556 0.0
C400 C 0.03555 0.43602 0.06529 0.0
C401 C 0.07804 0.41716 0.08035 0.0
C402 C 0.05437 0.4079 0.09016 0.0
C403 C 0.03328 0.41729 0.08267 0.0
C404 C 0.05904 0.44522 0.05534 0.0
C405 C 0.08009 0.43583 0.06274 0.0
C406 C 0.01369 0.44662 0.05812 0.0
C407 C 0.05506 0.52804 0.0337 0.0
H408 H 0.95806 0.60109 0.9146 0.0
H409 H 0.99654 0.59008 0.93124 0.0
H410 H 0.95697 0.56408 0.99824 0.0
H411 H 0.91865 0.57523 0.9818 0.0
H412 H 0.0522 0.39375 0.10399 0.0
H413 H 0.01527 0.41013 0.09064 0.0
H414 H 0.06111 0.45978 0.04194 0.0
H415 H 0.09794 0.44315 0.05456 0.0
C416 C 0.27323 0.19765 0.29087 0.0
C417 C 0.27486 0.22281 0.29282 0.0
C418 C 0.25655 0.18242 0.30579 0.0
C419 C 0.19899 0.18086 0.34342 0.0
H420 H 0.21759 0.12139 0.36815 0.0
C421 C 0.13716 0.11585 0.41079 0.0
C422 C 0.13509 0.09116 0.40512 0.0
C423 C 0.15405 0.13276 0.39775 0.0
C424 C 0.21208 0.13786 0.36123 0.0
H425 H 0.26029 0.25168 0.31222 0.0
H426 H 0.23162 0.22504 0.33882 0.0
H427 H 0.24798 0.14954 0.34507 0.0
H428 H 0.14846 0.06503 0.38062 0.0
H429 H 0.17807 0.09447 0.35817 0.0
H430 H 0.16306 0.16907 0.35982 0.0
C431 C 0.24301 0.21711 0.32542 0.0
C432 C 0.22947 0.15398 0.34796 0.0
C433 C 0.25967 0.23238 0.31038 0.0
C434 C 0.14995 0.08383 0.38584 0.0
C435 C 0.1669 0.10069 0.37294 0.0
C436 C 0.18162 0.16476 0.35687 0.0
C437 C 0.24117 0.19194 0.3232 0.0
C438 C 0.22305 0.17553 0.33861 0.0
C439 C 0.16929 0.12529 0.3789 0.0
C440 C 0.18791 0.14296 0.36561 0.0
H441 H 0.2849 0.18965 0.27779 0.0
H442 H 0.25542 0.16313 0.30333 0.0
H443 H 0.19332 0.19715 0.33623 0.0
H444 H 0.12621 0.12208 0.42572 0.0
H445 H 0.15563 0.15161 0.40284 0.0
C446 C 0.24105 0.82749 0.81549 0.0
C447 C 0.25595 0.81375 0.80168 0.0
C448 C 0.24874 0.83677 0.83867 0.0
C449 C 0.29735 0.83726 0.88708 0.0
H450 H 0.29538 0.906 0.88676 0.0
C451 C 0.37156 0.90714 0.93248 0.0
C452 C 0.36467 0.92849 0.94214 0.0
C453 C 0.35399 0.88992 0.92118 0.0
C454 C 0.29568 0.88677 0.8876 0.0
H455 H 0.28909 0.79669 0.80256 0.0
H456 H 0.30288 0.81343 0.84257 0.0
H457 H 0.27098 0.8803 0.85715 0.0
H458 H 0.33359 0.94797 0.94837 0.0
H459 H 0.30289 0.9177 0.92922 0.0
H460 H 0.32308 0.84414 0.91694 0.0
C461 C 0.28522 0.81701 0.83565 0.0
C462 C 0.28159 0.87196 0.87058 0.0
C463 C 0.27748 0.80764 0.81254 0.0
C464 C 0.33955 0.93169 0.94126 0.0
C465 C 0.32197 0.91443 0.93006 0.0
C466 C 0.3115 0.85214 0.90416 0.0
C467 C 0.27152 0.8326 0.84844 0.0
C468 C 0.2828 0.84714 0.86961 0.0
C469 C 0.32909 0.89363 0.91934 0.0
C470 C 0.31135 0.87717 0.90411 0.0
H471 H 0.22436 0.83255 0.80768 0.0
H472 H 0.23752 0.84833 0.8483 0.0
H473 H 0.29842 0.81816 0.88702 0.0
H474 H 0.39066 0.90392 0.93324 0.0
H475 H 0.36017 0.87422 0.91292 0.0
C476 C 0.60893 0.37861 0.72916 0.0
C477 C 0.63001 0.39049 0.74149 0.0
C478 C 0.59896 0.38926 0.70872 0.0
C479 C 0.5987 0.44864 0.67698 0.0
H480 H 0.57242 0.40884 0.62171 0.0
C481 C 0.54423 0.48652 0.59773 0.0
C482 C 0.54716 0.47847 0.57322 0.0
C483 C 0.55466 0.47592 0.61784 0.0
C484 C 0.57985 0.42034 0.63684 0.0
H485 H 0.65659 0.42348 0.74184 0.0
H486 H 0.63959 0.44174 0.70627 0.0
H487 H 0.58974 0.39041 0.6571 0.0
H488 H 0.56374 0.45271 0.55098 0.0
H489 H 0.5821 0.43438 0.58596 0.0
H490 H 0.58922 0.47862 0.65659 0.0
C491 C 0.63056 0.42419 0.71245 0.0
C492 C 0.58954 0.40966 0.65741 0.0
C493 C 0.64056 0.41352 0.73282 0.0
C494 C 0.56102 0.45948 0.5695 0.0
C495 C 0.57144 0.4488 0.58968 0.0
C496 C 0.58895 0.4593 0.65646 0.0
C497 C 0.60965 0.41222 0.69993 0.0
C498 C 0.59914 0.42361 0.67788 0.0
C499 C 0.56841 0.45682 0.61424 0.0
C500 C 0.57929 0.44536 0.63602 0.0
H501 H 0.60033 0.36079 0.73496 0.0
H502 H 0.5827 0.37948 0.69992 0.0
H503 H 0.60561 0.46009 0.69233 0.0
H504 H 0.53363 0.50099 0.60152 0.0
H505 H 0.55148 0.48248 0.63635 0.0
C506 C 0.88931 0.60818 0.24166 0.0
C507 C 0.896 0.63332 0.24417 0.0
C508 C 0.89942 0.59555 0.22243 0.0
C509 C 0.9516 0.60118 0.17547 0.0
H510 H 0.90939 0.54935 0.14209 0.0
C511 C 0.98053 0.56279 0.08155 0.0
C512 C 0.97557 0.53771 0.07762 0.0
C513 C 0.97092 0.57335 0.10243 0.0
C514 C 0.92155 0.56359 0.15136 0.0
H515 H 0.91947 0.66455 0.22851 0.0
H516 H 0.93648 0.64283 0.19492 0.0
H517 H 0.89294 0.56961 0.17741 0.0
H518 H 0.95618 0.50418 0.09279 0.0
H519 H 0.93931 0.52266 0.12925 0.0
H520 H 0.98007 0.59541 0.14922 0.0
C521 C 0.92357 0.6327 0.20792 0.0
C522 C 0.91211 0.57524 0.17173 0.0
C523 C 0.91351 0.6453 0.22712 0.0
C524 C 0.96041 0.52353 0.09513 0.0
C525 C 0.95064 0.53417 0.11602 0.0
C526 C 0.96097 0.58963 0.15508 0.0
C527 C 0.91659 0.60763 0.20511 0.0
C528 C 0.92692 0.59439 0.184 0.0
C529 C 0.95593 0.55924 0.12008 0.0
C530 C 0.94605 0.5708 0.14254 0.0
H531 H 0.87574 0.59827 0.25419 0.0
H532 H 0.89376 0.57625 0.2212 0.0
H533 H 0.96385 0.61541 0.18463 0.0
H534 H 0.99203 0.5744 0.06854 0.0
H535 H 0.9751 0.59272 0.10461 0.0
C536 C 0.38909 0.20934 0.14362 0.0
C537 C 0.40079 0.22005 0.1648 0.0
C538 C 0.3989 0.19109 0.13101 0.0
C539 C 0.44156 0.14618 0.13973 0.0
H540 H 0.4362 0.13993 0.06824 0.0
C541 C 0.48991 0.07952 0.08115 0.0
C542 C 0.47493 0.06572 0.06369 0.0
C543 C 0.48115 0.09836 0.09383 0.0
C544 C 0.43767 0.1414 0.08823 0.0
H545 H 0.43233 0.22068 0.18898 0.0
H546 H 0.44999 0.18932 0.16654 0.0
H547 H 0.42134 0.17368 0.08915 0.0
H548 H 0.43899 0.06082 0.04587 0.0
H549 H 0.42386 0.09393 0.06782 0.0
H550 H 0.4584 0.11407 0.13856 0.0
C551 C 0.43283 0.19449 0.16003 0.0
C552 C 0.42909 0.16068 0.10026 0.0
C553 C 0.42283 0.21255 0.17281 0.0
C554 C 0.45096 0.07105 0.05927 0.0
C555 C 0.44235 0.0901 0.07169 0.0
C556 C 0.45042 0.12707 0.12765 0.0
C557 C 0.42082 0.1833 0.13913 0.0
C558 C 0.43076 0.16324 0.1262 0.0
C559 C 0.45739 0.10397 0.08902 0.0
C560 C 0.44839 0.12442 0.10181 0.0
H561 H 0.37187 0.21455 0.13726 0.0
H562 H 0.38887 0.18264 0.11529 0.0
H563 H 0.44274 0.14726 0.15976 0.0
H564 H 0.50846 0.07583 0.08499 0.0
H565 H 0.49315 0.10887 0.10702 0.0
C566 C 0.15183 0.87856 0.65895 0.0
C567 C 0.14636 0.85341 0.66144 0.0
C568 C 0.13457 0.89159 0.64885 0.0
C569 C 0.07998 0.88494 0.60828 0.0
H570 H 0.07787 0.95044 0.63035 0.0
C571 C 0.01927 0.94955 0.56284 0.0
C572 C 0.0335 0.97131 0.55493 0.0
C573 C 0.02959 0.9339 0.57842 0.0
C574 C 0.07818 0.93213 0.6241 0.0
H575 H 0.11834 0.82218 0.65559 0.0
H576 H 0.08778 0.84508 0.63819 0.0
H577 H 0.10159 0.92484 0.65373 0.0
H578 H 0.06936 0.99406 0.55762 0.0
H579 H 0.0871 0.96703 0.5852 0.0
H580 H 0.05653 0.89252 0.57854 0.0
C581 C 0.10564 0.85467 0.64379 0.0
C582 C 0.09186 0.91749 0.63737 0.0
C583 C 0.12308 0.84155 0.65378 0.0
C584 C 0.05798 0.97738 0.56331 0.0
C585 C 0.06808 0.962 0.57922 0.0
C586 C 0.06598 0.89954 0.59519 0.0
C587 C 0.11126 0.87986 0.64109 0.0
C588 C 0.09364 0.89399 0.62916 0.0
C589 C 0.05408 0.94006 0.58676 0.0
C590 C 0.06561 0.92347 0.60258 0.0
H591 H 0.16982 0.88817 0.66415 0.0
H592 H 0.13988 0.91084 0.64646 0.0
H593 H 0.08106 0.86703 0.6013 0.0
H594 H 1.00037 0.9444 0.55659 0.0
H595 H 0.01846 0.91705 0.58403 0.0
C596 C 0.78603 0.37902 0.8866 0.0
C597 C 0.76476 0.39025 0.88354 0.0
C598 C 0.80672 0.39037 0.89963 0.0
C599 C 0.83934 0.44972 0.9201 0.0
H600 H 0.8701 0.41189 0.96731 0.0
C601 C 0.92248 0.49287 0.98105 0.0
C602 C 0.94071 0.47863 0.98716 0.0
C603 C 0.90045 0.48272 0.96918 0.0
C604 C 0.86213 0.42276 0.95394 0.0
H605 H 0.74934 0.42286 0.892 0.0
H606 H 0.78575 0.44285 0.91406 0.0
H607 H 0.83357 0.39342 0.94492 0.0
H608 H 0.94992 0.44244 0.98504 0.0
H609 H 0.91232 0.42504 0.9639 0.0
H610 H 0.86825 0.4789 0.92853 0.0
C611 C 0.7862 0.42508 0.90636 0.0
C612 C 0.84098 0.4121 0.94113 0.0
C613 C 0.76528 0.41357 0.89357 0.0
C614 C 0.93628 0.454 0.98095 0.0
C615 C 0.91445 0.44392 0.96887 0.0
C616 C 0.86075 0.46034 0.93269 0.0
C617 C 0.80713 0.41353 0.90978 0.0
C618 C 0.82932 0.42535 0.92392 0.0
C619 C 0.89605 0.45804 0.96279 0.0
C620 C 0.87265 0.44701 0.94976 0.0
H621 H 0.78695 0.36145 0.87866 0.0
H622 H 0.82264 0.38108 0.90144 0.0
H623 H 0.83102 0.46044 0.90684 0.0
H624 H 0.92516 0.51191 0.9855 0.0
H625 H 0.88678 0.49427 0.96526 0.0
C626 C 0.7381 0.61505 0.37203 0.0
C627 C 0.75803 0.62886 0.38442 0.0
C628 C 0.71696 0.60402 0.3851 0.0
C629 C 0.69256 0.58649 0.44907 0.0
H630 H 0.62887 0.58222 0.41671 0.0
C631 C 0.59672 0.55541 0.49918 0.0
C632 C 0.57954 0.53901 0.48596 0.0
C633 C 0.61898 0.56645 0.48777 0.0
C634 C 0.64653 0.58311 0.42598 0.0
H635 H 0.77113 0.64115 0.42081 0.0
H636 H 0.73398 0.62281 0.44338 0.0
H637 H 0.66638 0.60121 0.39522 0.0
H638 H 0.57262 0.52136 0.45028 0.0
H639 H 0.61099 0.54068 0.43055 0.0
H640 H 0.67228 0.56875 0.48009 0.0
C641 C 0.73486 0.62014 0.42351 0.0
C642 C 0.66816 0.59393 0.41357 0.0
C643 C 0.75615 0.631 0.41043 0.0
C644 C 0.58529 0.53387 0.46113 0.0
C645 C 0.60729 0.54509 0.4497 0.0
C646 C 0.67081 0.57589 0.4616 0.0
C647 C 0.71481 0.60662 0.41103 0.0
C648 C 0.69161 0.59557 0.42476 0.0
C649 C 0.62439 0.56161 0.46279 0.0
C650 C 0.64754 0.57383 0.4501 0.0
H651 H 0.73845 0.61315 0.35203 0.0
H652 H 0.70227 0.59341 0.37474 0.0
H653 H 0.71018 0.58707 0.4583 0.0
H654 H 0.59297 0.55979 0.51832 0.0
H655 H 0.6317 0.57917 0.49835 0.0
C656 C 0.24545 0.3177 0.16006 0.0
C657 C 0.26813 0.33249 0.16498 0.0
C658 C 0.22599 0.32721 0.14908 0.0
C659 C 0.20152 0.38397 0.14123 0.0
H660 H 0.16116 0.34868 0.0905 0.0
C661 C 0.12284 0.42341 0.09287 0.0
C662 C 0.10059 0.40767 0.08871 0.0
C663 C 0.14402 0.41457 0.10086 0.0
C664 C 0.1721 0.35864 0.10483 0.0
H665 H 0.2883 0.3688 0.16161 0.0
H666 H 0.25415 0.38547 0.14264 0.0
H667 H 0.19707 0.33269 0.10648 0.0
H668 H 0.08329 0.37021 0.0894 0.0
H669 H 0.12005 0.35485 0.10399 0.0
H670 H 0.17637 0.40971 0.13996 0.0
C671 C 0.25143 0.36654 0.14752 0.0
C672 C 0.19269 0.34951 0.11393 0.0
C673 C 0.27096 0.35699 0.1584 0.0
C674 C 0.10004 0.38285 0.09268 0.0
C675 C 0.12122 0.37402 0.10073 0.0
C676 C 0.18088 0.39307 0.13221 0.0
C677 C 0.22869 0.35176 0.14288 0.0
C678 C 0.20753 0.362 0.13234 0.0
C679 C 0.14345 0.38978 0.10497 0.0
C680 C 0.16583 0.38044 0.11401 0.0
H681 H 0.24243 0.29885 0.1653 0.0
H682 H 0.20857 0.31545 0.14609 0.0
H683 H 0.21239 0.39384 0.15568 0.0
H684 H 0.12383 0.44266 0.09027 0.0
H685 H 0.1609 0.42719 0.10369 0.0
C686 C 0.61877 0.22677 0.86726 0.0
C687 C 0.61947 0.24964 0.8784 0.0
C688 C 0.6082 0.20562 0.87971 0.0
C689 C 0.59152 0.18046 0.9426 0.0
H690 H 0.55046 0.12968 0.90663 0.0
C691 C 0.55859 0.08501 0.98506 0.0
C692 C 0.53377 0.07448 0.98096 0.0
C693 C 0.56908 0.10629 0.9727 0.0
C694 C 0.5618 0.14368 0.91703 0.0
H695 H 0.60895 0.26757 0.9118 0.0
H696 H 0.59108 0.23076 0.93355 0.0
H697 H 0.56808 0.16681 0.88517 0.0
H698 H 0.50074 0.07834 0.96022 0.0
H699 H 0.51905 0.11509 0.93859 0.0
H700 H 0.58519 0.15731 0.97448 0.0
C701 C 0.59889 0.22926 0.91511 0.0
C702 C 0.57212 0.16496 0.90463 0.0
C703 C 0.60925 0.25048 0.90256 0.0
C704 C 0.51989 0.08579 0.96392 0.0
C705 C 0.53046 0.10688 0.95136 0.0
C706 C 0.58143 0.15905 0.95494 0.0
C707 C 0.59817 0.20648 0.90387 0.0
C708 C 0.5871 0.18374 0.91722 0.0
C709 C 0.55519 0.11756 0.95563 0.0
C710 C 0.56632 0.14034 0.94238 0.0
H711 H 0.62687 0.22503 0.84901 0.0
H712 H 0.60838 0.18846 0.87053 0.0
H713 H 0.60311 0.19436 0.95292 0.0
H714 H 0.5699 0.07695 0.99806 0.0
H715 H 0.58823 0.11378 0.97634 0.0
C716 C 0.91581 0.78391 0.37434 0.0
C717 C 0.88984 0.77679 0.37445 0.0
C718 C 0.92651 0.80506 0.38654 0.0
C719 C 0.9108 0.86329 0.41071 0.0
H720 H 0.97271 0.86645 0.44608 0.0
C721 C 0.9494 0.94605 0.47119 0.0
C722 C 0.97528 0.95367 0.47105 0.0
C723 C 0.93917 0.92439 0.45969 0.0
C724 C 0.95555 0.86603 0.43605 0.0
H725 H 0.85499 0.78604 0.3887 0.0
H726 H 0.87353 0.82263 0.40977 0.0
H727 H 0.95492 0.829 0.42576 0.0
H728 H 0.01061 0.94419 0.45848 0.0
H729 H 0.99283 0.90678 0.43828 0.0
H730 H 0.91143 0.90029 0.42086 0.0
C731 C 0.88566 0.81223 0.39977 0.0
C732 C 0.94532 0.84447 0.42436 0.0
C733 C 0.87499 0.79115 0.38763 0.0
C734 C 0.9906 0.93897 0.45908 0.0
C735 C 0.98038 0.91733 0.44759 0.0
C736 C 0.92104 0.88484 0.42236 0.0
C737 C 0.91156 0.81969 0.39922 0.0
C738 C 0.92274 0.84274 0.41156 0.0
C739 C 0.95449 0.90968 0.44769 0.0
C740 C 0.94356 0.88657 0.43526 0.0
H741 H 0.92787 0.7735 0.36424 0.0
H742 H 0.9465 0.81025 0.38548 0.0
H743 H 0.89364 0.86289 0.40068 0.0
H744 H 0.93696 0.95677 0.4803 0.0
H745 H 0.91919 0.91903 0.46053 0.0
C746 C 0.28248 0.70802 0.66116 0.0
C747 C 0.2677 0.71961 0.64536 0.0
C748 C 0.29735 0.69188 0.65161 0.0
C749 C 0.32155 0.65199 0.62765 0.0
H750 H 0.36052 0.67621 0.56967 0.0
C751 C 0.39637 0.60168 0.58308 0.0
C752 C 0.41922 0.61605 0.57729 0.0
C753 C 0.3756 0.61229 0.58973 0.0
C754 C 0.34978 0.66921 0.58586 0.0
H755 H 0.25557 0.72193 0.60739 0.0
H756 H 0.28169 0.6938 0.59068 0.0
H757 H 0.32711 0.69711 0.58471 0.0
H758 H 0.43809 0.65278 0.57345 0.0
H759 H 0.40189 0.67133 0.58527 0.0
H760 H 0.34486 0.62456 0.62928 0.0
C761 C 0.28202 0.69753 0.61042 0.0
C762 C 0.33043 0.681 0.5943 0.0
C763 C 0.26707 0.71363 0.61999 0.0
C764 C 0.42079 0.64125 0.57801 0.0
C765 C 0.39999 0.65185 0.58452 0.0
C766 C 0.34084 0.64012 0.61913 0.0
C767 C 0.29783 0.68701 0.62603 0.0
C768 C 0.31638 0.67277 0.61554 0.0
C769 C 0.37721 0.6375 0.59058 0.0
C770 C 0.35545 0.64888 0.59841 0.0
H771 H 0.28373 0.71245 0.68073 0.0
H772 H 0.30952 0.68429 0.66409 0.0
H773 H 0.31093 0.64513 0.64397 0.0
H774 H 0.39465 0.5822 0.58291 0.0
H775 H 0.35825 0.60077 0.59416 0.0
C776 C 0.76814 0.8712 0.76059 0.0
C777 C 0.76253 0.84597 0.76243 0.0
C778 C 0.7779 0.88206 0.7386 0.0
C779 C 0.81491 0.87105 0.68412 0.0
H780 H 0.79428 0.92994 0.66025 0.0
C781 C 0.86455 0.92518 0.60149 0.0
C782 C 0.86985 0.9502 0.60532 0.0
C783 C 0.84848 0.91064 0.61772 0.0
C784 C 0.8003 0.91354 0.66672 0.0
H785 H 0.76219 0.81242 0.74223 0.0
H786 H 0.77978 0.83152 0.70385 0.0
H787 H 0.77117 0.90766 0.69416 0.0
H788 H 0.86273 0.97952 0.62937 0.0
H789 H 0.83491 0.95432 0.65756 0.0
H790 H 0.84462 0.87739 0.65732 0.0
C791 C 0.77661 0.84278 0.71957 0.0
C792 C 0.78704 0.90078 0.68609 0.0
C793 C 0.76662 0.83188 0.74156 0.0
C794 C 0.85862 0.96038 0.62557 0.0
C795 C 0.84263 0.94591 0.64174 0.0
C796 C 0.82827 0.88388 0.66478 0.0
C797 C 0.78249 0.86798 0.71796 0.0
C798 C 0.79456 0.87973 0.69538 0.0
C799 C 0.83743 0.92087 0.6381 0.0
C800 C 0.82147 0.9056 0.65631 0.0
H801 H 0.76576 0.88261 0.7764 0.0
H802 H 0.78268 0.90151 0.73806 0.0
H803 H 0.82125 0.85497 0.69104 0.0
H804 H 0.87277 0.91685 0.58592 0.0
H805 H 0.84468 0.89142 0.61432 0.0
C806 C 0.78049 0.21507 0.19926 0.0
C807 C 0.77576 0.21752 0.22475 0.0
C808 C 0.76329 0.2006 0.18444 0.0
C809 C 0.70962 0.15117 0.18948 0.0
H810 H 0.69782 0.16858 0.12154 0.0
C811 C 0.62816 0.10218 0.1333 0.0
C812 C 0.63419 0.09419 0.10957 0.0
C813 C 0.64542 0.11811 0.14649 0.0
C814 C 0.70108 0.16348 0.14045 0.0
H815 H 0.749 0.20774 0.25457 0.0
H816 H 0.71875 0.18313 0.22876 0.0
H817 H 0.72796 0.19494 0.14635 0.0
H818 H 0.66264 0.09716 0.08068 0.0
H819 H 0.69285 0.12534 0.10377 0.0
H820 H 0.68236 0.11999 0.1837 0.0
C821 C 0.73603 0.19159 0.22024 0.0
C822 C 0.71839 0.17849 0.15465 0.0
C823 C 0.75331 0.20578 0.23504 0.0
C824 C 0.6576 0.10295 0.09901 0.0
C825 C 0.67478 0.11915 0.11212 0.0
C826 C 0.69215 0.13637 0.17541 0.0
C827 C 0.74091 0.18855 0.1948 0.0
C828 C 0.7228 0.17256 0.17939 0.0
C829 C 0.66896 0.12658 0.13613 0.0
C830 C 0.68765 0.1424 0.1508 0.0
H831 H 0.79773 0.22388 0.19092 0.0
H832 H 0.76781 0.19847 0.165 0.0
H833 H 0.71293 0.14568 0.20824 0.0
H834 H 0.61033 0.09557 0.14196 0.0
H835 H 0.6404 0.12372 0.1649 0.0
C836 C 0.40007 0.63463 0.30652 0.0
C837 C 0.39197 0.62074 0.28551 0.0
C838 C 0.40941 0.62409 0.32738 0.0
C839 C 0.43517 0.56878 0.34752 0.0
H840 H 0.4236 0.59252 0.4136 0.0
C841 C 0.46318 0.52076 0.43661 0.0
C842 C 0.47353 0.53543 0.45625 0.0
C843 C 0.45268 0.53077 0.41609 0.0
C844 C 0.42726 0.58575 0.39529 0.0
H845 H 0.38787 0.58446 0.27047 0.0
H846 H 0.40321 0.56614 0.30679 0.0
H847 H 0.40658 0.6105 0.37782 0.0
H848 H 0.48044 0.57235 0.46946 0.0
H849 H 0.46224 0.58963 0.43397 0.0
H850 H 0.45573 0.54392 0.36508 0.0
C851 C 0.40273 0.58535 0.30711 0.0
C852 C 0.41748 0.59616 0.37462 0.0
C853 C 0.39346 0.59588 0.28625 0.0
C854 C 0.4727 0.56036 0.45482 0.0
C855 C 0.46207 0.57033 0.43442 0.0
C856 C 0.44485 0.55829 0.3682 0.0
C857 C 0.41099 0.59925 0.32805 0.0
C858 C 0.4213 0.58793 0.35031 0.0
C859 C 0.45199 0.55575 0.4146 0.0
C860 C 0.44114 0.56664 0.39246 0.0
H861 H 0.39908 0.65374 0.30701 0.0
H862 H 0.41578 0.63563 0.34285 0.0
H863 H 0.43904 0.56208 0.32924 0.0
H864 H 0.46343 0.50151 0.43693 0.0
H865 H 0.44489 0.51883 0.40144 0.0
C866 C 0.13024 0.37754 0.81658 0.0
C867 C 0.12877 0.38599 0.79212 0.0
C868 C 0.12073 0.38931 0.83672 0.0
C869 C 0.07626 0.43125 0.8529 0.0
H870 H 0.11194 0.43811 0.91491 0.0
C871 C 0.04452 0.48736 0.93462 0.0
C872 C 0.04655 0.47896 0.959 0.0
C873 C 0.05511 0.47657 0.91443 0.0
C874 C 0.10151 0.43612 0.89787 0.0
H875 H 0.11594 0.41369 0.76995 0.0
H876 H 0.09951 0.43434 0.80508 0.0
H877 H 0.12911 0.41857 0.8796 0.0
H878 H 0.06165 0.45251 0.98105 0.0
H879 H 0.07979 0.43348 0.94588 0.0
H880 H 0.04854 0.44856 0.87117 0.0
C881 C 0.1079 0.41842 0.80865 0.0
C882 C 0.11142 0.4249 0.87752 0.0
C883 C 0.11756 0.40669 0.78847 0.0
C884 C 0.05975 0.45957 0.9626 0.0
C885 C 0.07029 0.4487 0.94236 0.0
C886 C 0.0663 0.44239 0.87327 0.0
C887 C 0.10935 0.40991 0.8331 0.0
C888 C 0.09894 0.42226 0.85472 0.0
C889 C 0.06801 0.45693 0.9179 0.0
C890 C 0.07875 0.44502 0.89611 0.0
H891 H 0.13903 0.36188 0.82027 0.0
H892 H 0.12201 0.38202 0.85517 0.0
H893 H 0.06587 0.42925 0.83584 0.0
H894 H 0.03464 0.50232 0.93103 0.0
H895 H 0.05328 0.4838 0.89605 0.0
C896 C 0.61679 0.81345 0.91536 0.0
C897 C 0.62934 0.81996 0.89283 0.0
C898 C 0.59853 0.82638 0.92427 0.0
C899 C 0.55962 0.87325 0.90983 0.0
H900 H 0.57768 0.89531 0.97627 0.0
C901 C 0.52825 0.95815 0.95501 0.0
C902 C 0.52499 0.95809 0.9809 0.0
C903 C 0.53692 0.93873 0.94311 0.0
C904 C 0.57189 0.88903 0.95794 0.0
H905 H 0.63102 0.84376 0.86097 0.0
H906 H 0.59905 0.8662 0.8765 0.0
H907 H 0.59803 0.86432 0.95726 0.0
H908 H 0.52619 0.93707 0.01444 0.0
H909 H 0.5402 0.90303 0.99379 0.0
H910 H 0.53354 0.8983 0.91056 0.0
C911 C 0.60328 0.85109 0.88723 0.0
C912 C 0.58362 0.8712 0.94702 0.0
C913 C 0.62159 0.83817 0.87832 0.0
C914 C 0.52916 0.93785 0.9945 0.0
C915 C 0.53728 0.91835 0.98264 0.0
C916 C 0.54759 0.89102 0.92091 0.0
C917 C 0.59243 0.84604 0.91082 0.0
C918 C 0.57779 0.86321 0.92281 0.0
C919 C 0.54202 0.9188 0.95691 0.0
C920 C 0.55373 0.89923 0.94508 0.0
H921 H 0.62204 0.79921 0.92673 0.0
H922 H 0.5901 0.82181 0.94232 0.0
H923 H 0.5548 0.86742 0.89111 0.0
H924 H 0.52503 0.97355 0.94412 0.0
H925 H 0.54048 0.93977 0.92328 0.0
C926 C 0.88213 0.18955 0.36165 0.0
C927 C 0.89735 0.20956 0.3512 0.0
C928 C 0.8926 0.17155 0.37356 0.0
C929 C 0.95187 0.14713 0.3816 0.0
H930 H 0.91801 0.1196 0.44106 0.0
C931 C 0.98277 0.0671 0.43518 0.0
C932 C 0.98052 0.06758 0.46119 0.0
C933 C 0.97326 0.0842 0.42071 0.0
C934 C 0.92788 0.12723 0.42463 0.0
H935 H 0.93543 0.22639 0.34474 0.0
H936 H 0.95385 0.19526 0.36624 0.0
H937 H 0.90067 0.15003 0.41816 0.0
H938 H 0.96754 0.087 0.49244 0.0
H939 H 0.9517 0.11694 0.46746 0.0
H940 H 0.97966 0.12488 0.38881 0.0
C941 C 0.93381 0.19318 0.36478 0.0
C942 C 0.9177 0.14446 0.41123 0.0
C943 C 0.9233 0.21108 0.35259 0.0
C944 C 0.96923 0.08584 0.47243 0.0
C945 C 0.96 0.10299 0.45806 0.0
C946 C 0.96221 0.12996 0.39517 0.0
C947 C 0.91857 0.17326 0.37558 0.0
C948 C 0.92953 0.15467 0.38955 0.0
C949 C 0.96151 0.1022 0.43202 0.0
C950 C 0.9504 0.11992 0.41695 0.0
H951 H 0.86207 0.18769 0.3604 0.0
H952 H 0.88028 0.15623 0.38109 0.0
H953 H 0.96134 0.15438 0.36482 0.0
H954 H 0.9914 0.05325 0.42599 0.0
H955 H 0.9746 0.08296 0.40069 0.0
C956 C 0.24538 0.63478 0.1336 0.0
C957 C 0.26153 0.61944 0.14226 0.0
C958 C 0.22327 0.62542 0.12144 0.0
C959 C 0.19138 0.56842 0.09091 0.0
H960 H 0.134 0.6017 0.09351 0.0
C961 C 0.09273 0.52486 0.05942 0.0
C962 C 0.07953 0.53878 0.04426 0.0
C963 C 0.11516 0.53501 0.07038 0.0
C964 C 0.14993 0.59228 0.09244 0.0
H965 H 0.26652 0.58209 0.14574 0.0
H966 H 0.22773 0.56568 0.12585 0.0
H967 H 0.17169 0.61839 0.11538 0.0
H968 H 0.07979 0.57445 0.02891 0.0
H969 H 0.11871 0.59233 0.04858 0.0
H970 H 0.16905 0.54185 0.06871 0.0
C971 C 0.23238 0.58506 0.12734 0.0
C972 C 0.17173 0.60191 0.10494 0.0
C973 C 0.25466 0.59446 0.13904 0.0
C974 C 0.08948 0.56316 0.04034 0.0
C975 C 0.11171 0.57345 0.05176 0.0
C976 C 0.16944 0.5586 0.07883 0.0
C977 C 0.21638 0.60035 0.11795 0.0
C978 C 0.19291 0.59016 0.10446 0.0
C979 C 0.12485 0.5595 0.06695 0.0
C980 C 0.14841 0.57037 0.07941 0.0
H981 H 0.25023 0.65413 0.13553 0.0
H982 H 0.21194 0.63801 0.11428 0.0
H983 H 0.20722 0.55896 0.08931 0.0
H984 H 0.0857 0.50603 0.06285 0.0
H985 H 0.12467 0.52376 0.08205 0.0
C986 C 0.26623 0.41357 0.64257 0.0
C987 C 0.26596 0.39045 0.65267 0.0
C988 C 0.28713 0.42502 0.62923 0.0
C989 C 0.35482 0.42163 0.61862 0.0
H990 H 0.34836 0.46373 0.56294 0.0
C991 C 0.43697 0.4537 0.55165 0.0
C992 C 0.44145 0.47833 0.54543 0.0
C993 C 0.41514 0.44378 0.5643 0.0
C994 C 0.35047 0.45217 0.57858 0.0
H995 H 0.28702 0.36083 0.65563 0.0
H996 H 0.32289 0.38025 0.63198 0.0
H997 H 0.31113 0.44482 0.58547 0.0
H998 H 0.42597 0.5117 0.54728 0.0
H999 H 0.38762 0.49422 0.56907 0.0
H1000 H 0.39408 0.42856 0.61135 0.0
C1001 C 0.30749 0.3901 0.63503 0.0
C1002 C 0.3291 0.44134 0.5916 0.0
C1003 C 0.2868 0.37884 0.64855 0.0
C1004 C 0.42318 0.49267 0.55175 0.0
C1005 C 0.40114 0.48264 0.56417 0.0
C1006 C 0.37607 0.4322 0.60545 0.0
C1007 C 0.3082 0.41352 0.62541 0.0
C1008 C 0.33093 0.42574 0.61175 0.0
C1009 C 0.397 0.45812 0.57088 0.0
C1010 C 0.3742 0.44748 0.58517 0.0
H1011 H 0.25054 0.42307 0.64551 0.0
H1012 H 0.28694 0.44311 0.62241 0.0
H1013 H 0.35725 0.41034 0.63438 0.0
H1014 H 0.45054 0.44206 0.54715 0.0
H1015 H 0.41243 0.42478 0.56891 0.0
C1016 C 0.80058 0.71181 0.86616 0.0
C1017 C 0.77591 0.71133 0.87437 0.0
C1018 C 0.81275 0.69203 0.8698 0.0
C1019 C 0.81171 0.64143 0.91261 0.0
H1020 H 0.86696 0.62952 0.87053 0.0
C1021 C 0.89801 0.60948 0.95196 0.0
C1022 C 0.91231 0.59605 0.93716 0.0
C1023 C 0.87709 0.61756 0.94234 0.0
C1024 C 0.85133 0.6321 0.88237 0.0
H1025 H 0.74403 0.68919 0.89139 0.0
H1026 H 0.76525 0.65421 0.89747 0.0
H1027 H 0.83701 0.65346 0.85488 0.0
H1028 H 0.91531 0.5794 0.90115 0.0
H1029 H 0.87836 0.59304 0.8844 0.0
H1030 H 0.826 0.62002 0.9401 0.0
C1031 C 0.77531 0.67014 0.88859 0.0
C1032 C 0.8343 0.64614 0.87347 0.0
C1033 C 0.76309 0.69005 0.88494 0.0
C1034 C 0.90478 0.59006 0.91282 0.0
C1035 C 0.88364 0.5979 0.90325 0.0
C1036 C 0.82858 0.62713 0.92141 0.0
C1037 C 0.8005 0.67115 0.88163 0.0
C1038 C 0.81496 0.6519 0.88887 0.0
C1039 C 0.8698 0.61215 0.91774 0.0
C1040 C 0.84923 0.62319 0.90681 0.0
H1041 H 0.81079 0.72783 0.85756 0.0
H1042 H 0.8322 0.69368 0.86446 0.0
H1043 H 0.79706 0.64546 0.92503 0.0
H1044 H 0.90355 0.61453 0.97072 0.0
H1045 H 0.86728 0.6289 0.95392 0.0
C1046 C 0.38578 0.77384 0.12942 0.0
C1047 C 0.39651 0.76603 0.151 0.0
C1048 C 0.39436 0.79658 0.11901 0.0
C1049 C 0.44883 0.84638 0.11886 0.0
H1050 H 0.40263 0.88249 0.08729 0.0
C1051 C 0.47911 0.94456 0.08278 0.0
C1052 C 0.46945 0.95076 0.05998 0.0
C1053 C 0.47001 0.92253 0.0945 0.0
C1054 C 0.4159 0.8726 0.0958 0.0
H1055 H 0.42453 0.77673 0.17873 0.0
H1056 H 0.43927 0.81627 0.16083 0.0
H1057 H 0.38728 0.84368 0.10641 0.0
H1058 H 0.4423 0.93834 0.03186 0.0
H1059 H 0.42658 0.90022 0.05216 0.0
H1060 H 0.47743 0.8754 0.10827 0.0
C1061 C 0.42451 0.80462 0.15157 0.0
C1062 C 0.40705 0.8502 0.1068 0.0
C1063 C 0.41598 0.78184 0.16193 0.0
C1064 C 0.45022 0.93437 0.04942 0.0
C1065 C 0.44106 0.91244 0.06118 0.0
C1066 C 0.45766 0.86884 0.10792 0.0
C1067 C 0.41394 0.81237 0.12985 0.0
C1068 C 0.42337 0.83662 0.11844 0.0
C1069 C 0.45088 0.90607 0.08386 0.0
C1070 C 0.44136 0.88229 0.0961 0.0
H1071 H 0.37108 0.76213 0.12013 0.0
H1072 H 0.38593 0.80152 0.10208 0.0
H1073 H 0.46215 0.83646 0.1272 0.0
H1074 H 0.49393 0.95661 0.09152 0.0
H1075 H 0.4779 0.91851 0.11206 0.0
C1076 C 0.12878 0.25047 0.62027 0.0
C1077 C 0.1229 0.25381 0.64548 0.0
C1078 C 0.11801 0.22986 0.60737 0.0
C1079 C 0.06504 0.17917 0.60936 0.0
H1080 H 0.10678 0.14832 0.56445 0.0
C1081 C 0.03173 0.08472 0.5672 0.0
C1082 C 0.03862 0.08034 0.54252 0.0
C1083 C 0.04179 0.10601 0.57942 0.0
C1084 C 0.09471 0.15682 0.57665 0.0
H1085 H 0.10076 0.23769 0.67666 0.0
H1086 H 0.0819 0.20197 0.65417 0.0
H1087 H 0.12418 0.18514 0.58599 0.0
H1088 H 0.06162 0.09525 0.51138 0.0
H1089 H 0.07888 0.1324 0.53251 0.0
H1090 H 0.03556 0.15089 0.60001 0.0
C1091 C 0.09468 0.21547 0.64427 0.0
C1092 C 0.10473 0.17802 0.58905 0.0
C1093 C 0.10551 0.23607 0.65721 0.0
C1094 C 0.05592 0.09788 0.53041 0.0
C1095 C 0.06595 0.1192 0.54262 0.0
C1096 C 0.055 0.158 0.59691 0.0
C1097 C 0.10095 0.21193 0.61922 0.0
C1098 C 0.09008 0.1895 0.60565 0.0
C1099 C 0.05902 0.12363 0.56732 0.0
C1100 C 0.06969 0.14644 0.58041 0.0
H1101 H 0.14174 0.26386 0.61042 0.0
H1102 H 0.12297 0.22805 0.58799 0.0
H1103 H 0.05304 0.18763 0.62167 0.0
H1104 H 0.01855 0.07166 0.57722 0.0
H1105 H 0.03624 0.10848 0.59852 0.0
C1106 C 0.76818 0.34584 0.36551 0.0
C1107 C 0.76329 0.32506 0.35066 0.0
C1108 C 0.74865 0.35604 0.37626 0.0
C1109 C 0.68085 0.35685 0.37035 0.0
H1110 H 0.68615 0.38272 0.4372 0.0
C1111 C 0.59643 0.3818 0.42463 0.0
C1112 C 0.59975 0.40416 0.43696 0.0
C1113 C 0.61677 0.37254 0.41449 0.0
C1114 C 0.68451 0.37574 0.41844 0.0
H1115 H 0.73387 0.29897 0.33525 0.0
H1116 H 0.70006 0.31612 0.35466 0.0
H1117 H 0.72099 0.36589 0.41871 0.0
H1118 H 0.62726 0.43424 0.44827 0.0
H1119 H 0.66281 0.41777 0.43095 0.0
H1120 H 0.64422 0.36633 0.37028 0.0
C1121 C 0.71894 0.32483 0.35772 0.0
C1122 C 0.70448 0.36616 0.4078 0.0
C1123 C 0.73841 0.31474 0.34688 0.0
C1124 C 0.62402 0.41681 0.43925 0.0
C1125 C 0.6444 0.40743 0.42927 0.0
C1126 C 0.66085 0.36623 0.38106 0.0
C1127 C 0.72377 0.34567 0.37245 0.0
C1128 C 0.70285 0.35648 0.38366 0.0
C1129 C 0.64095 0.38531 0.4166 0.0
C1130 C 0.66242 0.37568 0.40524 0.0
H1131 H 0.78711 0.35414 0.36901 0.0
H1132 H 0.75306 0.37223 0.3873 0.0
H1133 H 0.67911 0.35005 0.35153 0.0
H1134 H 0.57809 0.37133 0.42294 0.0
H1135 H 0.6136 0.35526 0.40516 0.0
loop_
_geom_bond_atom_site_label_1
_geom_bond_atom_site_label_2
_geom_bond_distance
_geom_bond_site_symmetry_2
_ccdc_geom_bond_type
P0 O11 1.490 . S
P0 C14 1.812 . S
P0 C20 1.803 . S
P0 C26 1.819 . S
H1 C15 0.941 . S
H2 C16 0.939 . S
H3 C18 0.940 . S
H4 C19 0.940 . S
H5 C21 0.939 . S
H6 C22 0.942 . S
H7 C24 0.940 . S
H8 C25 0.939 . S
H9 C27 0.941 . S
H10 C31 0.939 . S
O11 P0 1.490 . S
H12 C28 0.939 . S
H13 C30 0.940 . S
C14 P0 1.812 . S
C14 C15 1.389 . S
C14 C19 1.391 . S
C15 H1 0.941 . S
C15 C14 1.389 . S
C15 C16 1.397 . S
C16 H2 0.939 . S
C16 C15 1.397 . S
C16 C17 1.378 . S
C17 C16 1.378 . S
C17 C18 1.378 . S
C18 H3 0.940 . S
C18 C17 1.378 . S
C18 C19 1.396 . S
C19 H4 0.940 . S
C19 C14 1.391 . S
C19 C18 1.396 . S
C20 P0 1.803 . S
C20 C21 1.378 . S
C20 C25 1.400 . S
C21 H5 0.939 . S
C21 C20 1.378 . S
C21 C22 1.361 . S
C22 H6 0.942 . S
C22 C21 1.361 . S
C22 C23 1.369 . S
C23 C22 1.369 . S
C23 C24 1.404 . S
C24 H7 0.940 . S
C24 C23 1.404 . S
C24 C25 1.389 . S
C25 H8 0.939 . S
C25 C20 1.400 . S
C25 C24 1.389 . S
C26 P0 1.819 . S
C26 C27 1.391 . S
C26 C31 1.391 . S
C27 H9 0.941 . S
C27 C26 1.391 . S
C27 C28 1.396 . S
C28 H12 0.939 . S
C28 C27 1.396 . S
C28 C29 1.397 . S
C29 C28 1.397 . S
C29 C30 1.385 . S
C30 H13 0.940 . S
C30 C29 1.385 . S
C30 C31 1.388 . S
C31 H10 0.939 . S
C31 C26 1.391 . S
C31 C30 1.388 . S
P32 O43 1.490 . S
P32 C46 1.812 . S
P32 C52 1.803 . S
P32 C58 1.819 . S
H33 C47 0.941 . S
H34 C48 0.939 . S
H35 C50 0.940 . S
H36 C51 0.940 . S
H37 C53 0.939 . S
H38 C54 0.942 . S
H39 C56 0.940 . S
H40 C57 0.939 . S
H41 C59 0.941 . S
H42 C63 0.939 . S
O43 P32 1.490 . S
H44 C60 0.939 . S
H45 C62 0.940 . S
C46 P32 1.812 . S
C46 C47 1.389 . S
C46 C51 1.391 . S
C47 H33 0.941 . S
C47 C46 1.389 . S
C47 C48 1.397 . S
C48 H34 0.939 . S
C48 C47 1.397 . S
C48 C49 1.378 . S
C49 C48 1.378 . S
C49 C50 1.378 . S
C50 H35 0.940 . S
C50 C49 1.378 . S
C50 C51 1.396 . S
C51 H36 0.940 . S
C51 C46 1.391 . S
C51 C50 1.396 . S
C52 P32 1.803 . S
C52 C53 1.378 . S
C52 C57 1.400 . S
C53 H37 0.939 . S
C53 C52 1.378 . S
C53 C54 1.361 . S
C54 H38 0.942 . S
C54 C53 1.361 . S
C54 C55 1.369 . S
C55 C54 1.369 . S
C55 C56 1.404 . S
C56 H39 0.940 . S
C56 C55 1.404 . S
C56 C57 1.389 . S
C57 H40 0.939 . S
C57 C52 1.400 . S
C57 C56 1.389 . S
C58 P32 1.819 . S
C58 C59 1.391 . S
C58 C63 1.391 . S
C59 H41 0.941 . S
C59 C58 1.391 . S
C59 C60 1.396 . S
C60 H44 0.939 . S
C60 C59 1.396 . S
C60 C61 1.397 . S
C61 C60 1.397 . S
C61 C62 1.385 . S
C62 H45 0.940 . S
C62 C61 1.385 . S
C62 C63 1.388 . S
C63 H42 0.939 . S
C63 C58 1.391 . S
C63 C62 1.388 . S
P64 O75 1.490 . S
P64 C78 1.812 . S
P64 C84 1.803 . S
P64 C90 1.819 . S
H65 C79 0.941 . S
H66 C80 0.939 . S
H67 C82 0.940 . S
H68 C83 0.940 . S
H69 C85 0.939 . S
H70 C86 0.942 . S
H71 C88 0.940 . S
H72 C89 0.939 . S
H73 C91 0.941 . S
H74 C95 0.939 . S
O75 P64 1.490 . S
H76 C92 0.939 . S
H77 C94 0.940 . S
C78 P64 1.812 . S
C78 C79 1.389 . S
C78 C83 1.391 . S
C79 H65 0.941 . S
C79 C78 1.389 . S
C79 C80 1.397 . S
C80 H66 0.939 . S
C80 C79 1.397 . S
C80 C81 1.378 . S
C81 C80 1.378 . S
C81 C82 1.378 . S
C82 H67 0.940 . S
C82 C81 1.378 . S
C82 C83 1.396 . S
C83 H68 0.940 . S
C83 C78 1.391 . S
C83 C82 1.396 . S
C84 P64 1.803 . S
C84 C85 1.378 . S
C84 C89 1.400 . S
C85 H69 0.939 . S
C85 C84 1.378 . S
C85 C86 1.361 . S
C86 H70 0.942 . S
C86 C85 1.361 . S
C86 C87 1.369 . S
C87 C86 1.369 . S
C87 C88 1.404 . S
C88 H71 0.940 . S
C88 C87 1.404 . S
C88 C89 1.389 . S
C89 H72 0.939 . S
C89 C84 1.400 . S
C89 C88 1.389 . S
C90 P64 1.819 . S
C90 C91 1.391 . S
C90 C95 1.391 . S
C91 H73 0.941 . S
C91 C90 1.391 . S
C91 C92 1.396 . S
C92 H76 0.939 . S
C92 C91 1.396 . S
C92 C93 1.397 . S
C93 C92 1.397 . S
C93 C94 1.385 . S
C94 H77 0.940 . S
C94 C93 1.385 . S
C94 C95 1.388 . S
C95 H74 0.939 . S
C95 C90 1.391 . S
C95 C94 1.388 . S
P96 O107 1.490 . S
P96 C110 1.812 . S
P96 C116 1.803 . S
P96 C122 1.819 . S
H97 C111 0.941 . S
H98 C112 0.939 . S
H99 C114 0.940 . S
H100 C115 0.940 . S
H101 C117 0.939 . S
H102 C118 0.942 . S
H103 C120 0.940 . S
H104 C121 0.939 . S
H105 C123 0.941 . S
H106 C127 0.939 . S
O107 P96 1.490 . S
H108 C124 0.939 . S
H109 C126 0.940 . S
C110 P96 1.812 . S
C110 C111 1.389 . S
C110 C115 1.391 . S
C111 H97 0.941 . S
C111 C110 1.389 . S
C111 C112 1.397 . S
C112 H98 0.939 . S
C112 C111 1.397 . S
C112 C113 1.378 . S
C113 C112 1.378 . S
C113 C114 1.378 . S
C114 H99 0.940 . S
C114 C113 1.378 . S
C114 C115 1.396 . S
C115 H100 0.940 . S
C115 C110 1.391 . S
C115 C114 1.396 . S
C116 P96 1.803 . S
C116 C117 1.378 . S
C116 C121 1.400 . S
C117 H101 0.939 . S
C117 C116 1.378 . S
C117 C118 1.361 . S
C118 H102 0.942 . S
C118 C117 1.361 . S
C118 C119 1.369 . S
C119 C118 1.369 . S
C119 C120 1.404 . S
C120 H103 0.940 . S
C120 C119 1.404 . S
C120 C121 1.389 . S
C121 H104 0.939 . S
C121 C116 1.400 . S
C121 C120 1.389 . S
C122 P96 1.819 . S
C122 C123 1.391 . S
C122 C127 1.391 . S
C123 H105 0.941 . S
C123 C122 1.391 . S
C123 C124 1.396 . S
C124 H108 0.939 . S
C124 C123 1.396 . S
C124 C125 1.397 . S
C125 C124 1.397 . S
C125 C126 1.385 . S
C126 H109 0.940 . S
C126 C125 1.385 . S
C126 C127 1.388 . S
C127 H106 0.939 . S
C127 C122 1.391 . S
C127 C126 1.388 . S
P128 O139 1.490 . S
P128 C142 1.812 . S
P128 C148 1.803 . S
P128 C154 1.819 . S
H129 C143 0.941 . S
H130 C144 0.939 . S
H131 C146 0.940 . S
H132 C147 0.940 . S
H133 C149 0.939 . S
H134 C150 0.942 . S
H135 C152 0.940 . S
H136 C153 0.939 . S
H137 C155 0.941 . S
H138 C159 0.939 . S
O139 P128 1.490 . S
H140 C156 0.939 . S
H141 C158 0.940 . S
C142 P128 1.812 . S
C142 C143 1.389 . S
C142 C147 1.391 . S
C143 H129 0.941 . S
C143 C142 1.389 . S
C143 C144 1.397 . S
C144 H130 0.939 . S
C144 C143 1.397 . S
C144 C145 1.378 . S
C145 C144 1.378 . S
C145 C146 1.378 . S
C146 H131 0.940 . S
C146 C145 1.378 . S
C146 C147 1.396 . S
C147 H132 0.940 . S
C147 C142 1.391 . S
C147 C146 1.396 . S
C148 P128 1.803 . S
C148 C149 1.378 . S
C148 C153 1.400 . S
C149 H133 0.939 . S
C149 C148 1.378 . S
C149 C150 1.361 . S
C150 H134 0.942 . S
C150 C149 1.361 . S
C150 C151 1.369 . S
C151 C150 1.369 . S
C151 C152 1.404 . S
C152 H135 0.940 . S
C152 C151 1.404 . S
C152 C153 1.389 . S
C153 H136 0.939 . S
C153 C148 1.400 . S
C153 C152 1.389 . S
C154 P128 1.819 . S
C154 C155 1.391 . S
C154 C159 1.391 . S
C155 H137 0.941 . S
C155 C154 1.391 . S
C155 C156 1.396 . S
C156 H140 0.939 . S
C156 C155 1.396 . S
C156 C157 1.397 . S
C157 C156 1.397 . S
C157 C158 1.385 . S
C158 H141 0.940 . S
C158 C157 1.385 . S
C158 C159 1.388 . S
C159 H138 0.939 . S
C159 C154 1.391 . S
C159 C158 1.388 . S
P160 O171 1.490 . S
P160 C174 1.812 . S
P160 C180 1.803 . S
P160 C186 1.819 . S
H161 C175 0.941 . S
H162 C176 0.939 . S
H163 C178 0.940 . S
H164 C179 0.940 . S
H165 C181 0.939 . S
H166 C182 0.942 . S
H167 C184 0.940 . S
H168 C185 0.939 . S
H169 C187 0.941 . S
H170 C191 0.939 . S
O171 P160 1.490 . S
H172 C188 0.939 . S
H173 C190 0.940 . S
C174 P160 1.812 . S
C174 C175 1.389 . S
C174 C179 1.391 . S
C175 H161 0.941 . S
C175 C174 1.389 . S
C175 C176 1.397 . S
C176 H162 0.939 . S
C176 C175 1.397 . S
C176 C177 1.378 . S
C177 C176 1.378 . S
C177 C178 1.378 . S
C178 H163 0.940 . S
C178 C177 1.378 . S
C178 C179 1.396 . S
C179 H164 0.940 . S
C179 C174 1.391 . S
C179 C178 1.396 . S
C180 P160 1.803 . S
C180 C181 1.378 . S
C180 C185 1.400 . S
C181 H165 0.939 . S
C181 C180 1.378 . S
C181 C182 1.361 . S
C182 H166 0.942 . S
C182 C181 1.361 . S
C182 C183 1.369 . S
C183 C182 1.369 . S
C183 C184 1.404 . S
C184 H167 0.940 . S
C184 C183 1.404 . S
C184 C185 1.389 . S
C185 H168 0.939 . S
C185 C180 1.400 . S
C185 C184 1.389 . S
C186 P160 1.819 . S
C186 C187 1.391 . S
C186 C191 1.391 . S
C187 H169 0.941 . S
C187 C186 1.391 . S
C187 C188 1.396 . S
C188 H172 0.939 . S
C188 C187 1.396 . S
C188 C189 1.397 . S
C189 C188 1.397 . S
C189 C190 1.385 . S
C190 H173 0.940 . S
C190 C189 1.385 . S
C190 C191 1.388 . S
C191 H170 0.939 . S
C191 C186 1.391 . S
C191 C190 1.388 . S
P192 O203 1.490 . S
P192 C206 1.812 . S
P192 C212 1.803 . S
P192 C218 1.819 . S
H193 C207 0.941 . S
H194 C208 0.939 . S
H195 C210 0.940 . S
H196 C211 0.940 . S
H197 C213 0.939 . S
H198 C214 0.942 . S
H199 C216 0.940 . S
H200 C217 0.939 . S
H201 C219 0.941 . S
H202 C223 0.939 . S
O203 P192 1.490 . S
H204 C220 0.939 . S
H205 C222 0.940 . S
C206 P192 1.812 . S
C206 C207 1.389 . S
C206 C211 1.391 . S
C207 H193 0.941 . S
C207 C206 1.389 . S
C207 C208 1.397 . S
C208 H194 0.939 . S
C208 C207 1.397 . S
C208 C209 1.378 . S
C209 C208 1.378 . S
C209 C210 1.378 . S
C210 H195 0.940 . S
C210 C209 1.378 . S
C210 C211 1.396 . S
C211 H196 0.940 . S
C211 C206 1.391 . S
C211 C210 1.396 . S
C212 P192 1.803 . S
C212 C213 1.378 . S
C212 C217 1.400 . S
C213 H197 0.939 . S
C213 C212 1.378 . S
C213 C214 1.361 . S
C214 H198 0.942 . S
C214 C213 1.361 . S
C214 C215 1.369 . S
C215 C214 1.369 . S
C215 C216 1.404 . S
C216 H199 0.940 . S
C216 C215 1.404 . S
C216 C217 1.389 . S
C217 H200 0.939 . S
C217 C212 1.400 . S
C217 C216 1.389 . S
C218 P192 1.819 . S
C218 C219 1.391 . S
C218 C223 1.391 . S
C219 H201 0.941 . S
C219 C218 1.391 . S
C219 C220 1.396 . S
C220 H204 0.939 . S
C220 C219 1.396 . S
C220 C221 1.397 . S
C221 C220 1.397 . S
C221 C222 1.385 . S
C222 H205 0.940 . S
C222 C221 1.385 . S
C222 C223 1.388 . S
C223 H202 0.939 . S
C223 C218 1.391 . S
C223 C222 1.388 . S
P224 O235 1.490 . S
P224 C238 1.812 . S
P224 C244 1.803 . S
P224 C250 1.819 . S
H225 C239 0.941 . S
H226 C240 0.939 . S
H227 C242 0.940 . S
H228 C243 0.940 . S
H229 C245 0.939 . S
H230 C246 0.942 . S
H231 C248 0.940 . S
H232 C249 0.939 . S
H233 C251 0.941 . S
H234 C255 0.939 . S
O235 P224 1.490 . S
H236 C252 0.939 . S
H237 C254 0.940 . S
C238 P224 1.812 . S
C238 C239 1.389 . S
C238 C243 1.391 . S
C239 H225 0.941 . S
C239 C238 1.389 . S
C239 C240 1.397 . S
C240 H226 0.939 . S
C240 C239 1.397 . S
C240 C241 1.378 . S
C241 C240 1.378 . S
C241 C242 1.378 . S
C242 H227 0.940 . S
C242 C241 1.378 . S
C242 C243 1.396 . S
C243 H228 0.940 . S
C243 C238 1.391 . S
C243 C242 1.396 . S
C244 P224 1.803 . S
C244 C245 1.378 . S
C244 C249 1.400 . S
C245 H229 0.939 . S
C245 C244 1.378 . S
C245 C246 1.361 . S
C246 H230 0.942 . S
C246 C245 1.361 . S
C246 C247 1.369 . S
C247 C246 1.369 . S
C247 C248 1.404 . S
C248 H231 0.940 . S
C248 C247 1.404 . S
C248 C249 1.389 . S
C249 H232 0.939 . S
C249 C244 1.400 . S
C249 C248 1.389 . S
C250 P224 1.819 . S
C250 C251 1.391 . S
C250 C255 1.391 . S
C251 H233 0.941 . S
C251 C250 1.391 . S
C251 C252 1.396 . S
C252 H236 0.939 . S
C252 C251 1.396 . S
C252 C253 1.397 . S
C253 C252 1.397 . S
C253 C254 1.385 . S
C254 H237 0.940 . S
C254 C253 1.385 . S
C254 C255 1.388 . S
C255 H234 0.939 . S
C255 C250 1.391 . S
C255 C254 1.388 . S
Tb256 C265 2.764 . S
Tb256 O266 2.325 1_455 S
Tb256 O269 2.303 . S
Tb256 O273 2.322 1_545 S
Tb256 O274 2.349 1_545 S
Tb256 O277 2.415 . S
Tb256 O278 2.399 . S
Tb257 O267 2.322 . S
Tb257 O268 2.349 . S
Tb257 O270 2.415 1_545 S
Tb257 O271 2.399 1_545 S
Tb257 O272 2.325 1_645 S
Tb257 O275 2.303 1_545 S
Tb257 C286 2.764 1_545 S
C258 O274 1.261 1_655 S
C258 O275 1.257 . S
C259 C262 1.358 . S
C259 C263 1.332 . S
C259 C265 1.504 . S
C260 C261 1.373 . S
C260 C264 1.308 . S
C261 C260 1.373 . S
C261 C262 1.429 . S
C261 H288 0.932 . S
C262 C259 1.358 . S
C262 C261 1.429 . S
C262 H289 0.930 . S
C263 C259 1.332 . S
C263 C264 1.394 . S
C263 H290 0.932 . S
C264 C260 1.308 . S
C264 C263 1.394 . S
C264 H291 0.929 . S
C265 Tb256 2.764 . S
C265 C259 1.504 . S
C265 O277 1.239 . S
C265 O278 1.263 . S
O266 Tb256 2.325 1_655 S
O266 C276 1.236 . S
O267 Tb257 2.322 . S
O267 C276 1.257 . S
O268 Tb257 2.349 . S
O268 C279 1.261 1_655 S
O269 Tb256 2.303 . S
O269 C279 1.257 . S
O270 Tb257 2.415 1_565 S
O270 C286 1.239 . S
O271 Tb257 2.399 1_565 S
O271 C286 1.263 . S
O272 Tb257 2.325 1_465 S
O272 C287 1.236 . S
O273 Tb256 2.322 1_565 S
O273 C287 1.257 . S
O274 Tb256 2.349 1_565 S
O274 C258 1.261 1_455 S
O275 Tb257 2.303 1_565 S
O275 C258 1.257 . S
C276 O266 1.236 . S
C276 O267 1.257 . S
O277 Tb256 2.415 . S
O277 C265 1.239 . S
O278 Tb256 2.399 . S
O278 C265 1.263 . S
C279 O268 1.261 1_455 S
C279 O269 1.257 . S
C280 C283 1.358 . S
C280 C284 1.332 . S
C280 C286 1.504 . S
C281 C282 1.373 . S
C281 C285 1.308 . S
C282 C281 1.373 . S
C282 C283 1.429 . S
C282 H292 0.932 . S
C283 C280 1.358 . S
C283 C282 1.429 . S
C283 H293 0.930 . S
C284 C280 1.332 . S
C284 C285 1.394 . S
C284 H294 0.932 . S
C285 C281 1.308 . S
C285 C284 1.394 . S
C285 H295 0.929 . S
C286 Tb257 2.764 1_565 S
C286 O270 1.239 . S
C286 O271 1.263 . S
C286 C280 1.504 . S
C287 O272 1.236 . S
C287 O273 1.257 . S
H288 C261 0.932 . S
H289 C262 0.930 . S
H290 C263 0.932 . S
H291 C264 0.929 . S
H292 C282 0.932 . S
H293 C283 0.930 . S
H294 C284 0.932 . S
H295 C285 0.929 . S
Tb296 C305 2.764 . S
Tb296 O306 2.325 . S
Tb296 O309 2.303 . S
Tb296 O313 2.322 1_545 S
Tb296 O314 2.349 1_545 S
Tb296 O317 2.415 . S
Tb296 O318 2.399 . S
Tb297 O307 2.322 . S
Tb297 O308 2.349 1_556 S
Tb297 O310 2.415 1_545 S
Tb297 O311 2.399 1_545 S
Tb297 O312 2.325 1_546 S
Tb297 O315 2.303 1_545 S
Tb297 C326 2.764 1_545 S
C298 O314 1.261 1_556 S
C298 O315 1.257 . S
C299 C302 1.358 . S
C299 C303 1.332 . S
C299 C305 1.504 . S
C300 C301 1.373 . S
C300 C304 1.308 . S
C301 C300 1.373 . S
C301 C302 1.429 . S
C301 H328 0.932 . S
C302 C299 1.358 . S
C302 C301 1.429 . S
C302 H329 0.930 . S
C303 C299 1.332 . S
C303 C304 1.394 . S
C303 H330 0.932 . S
C304 C300 1.308 . S
C304 C303 1.394 . S
C304 H331 0.929 . S
C305 Tb296 2.764 . S
C305 C299 1.504 . S
C305 O317 1.239 . S
C305 O318 1.263 . S
O306 Tb296 2.325 . S
O306 C316 1.236 1_554 S
O307 Tb297 2.322 . S
O307 C316 1.257 . S
O308 Tb297 2.349 1_554 S
O308 C319 1.261 . S
O309 Tb296 2.303 . S
O309 C319 1.257 . S
O310 Tb297 2.415 1_565 S
O310 C326 1.239 . S
O311 Tb297 2.399 1_565 S
O311 C326 1.263 . S
O312 Tb297 2.325 1_564 S
O312 C327 1.236 . S
O313 Tb296 2.322 1_565 S
O313 C327 1.257 . S
O314 Tb296 2.349 1_565 S
O314 C298 1.261 1_554 S
O315 Tb297 2.303 1_565 S
O315 C298 1.257 . S
C316 O306 1.236 1_556 S
C316 O307 1.257 . S
O317 Tb296 2.415 . S
O317 C305 1.239 . S
O318 Tb296 2.399 . S
O318 C305 1.263 . S
C319 O308 1.261 . S
C319 O309 1.257 . S
C320 C323 1.358 . S
C320 C324 1.332 . S
C320 C326 1.504 . S
C321 C322 1.373 . S
C321 C325 1.308 . S
C322 C321 1.373 . S
C322 C323 1.429 . S
C322 H332 0.932 . S
C323 C320 1.358 . S
C323 C322 1.429 . S
C323 H333 0.930 . S
C324 C320 1.332 . S
C324 C325 1.394 . S
C324 H334 0.932 . S
C325 C321 1.308 . S
C325 C324 1.394 . S
C325 H335 0.929 . S
C326 Tb297 2.764 1_565 S
C326 O310 1.239 . S
C326 O311 1.263 . S
C326 C320 1.504 . S
C327 O312 1.236 . S
C327 O313 1.257 . S
H328 C301 0.932 . S
H329 C302 0.930 . S
H330 C303 0.932 . S
H331 C304 0.929 . S
H332 C322 0.932 . S
H333 C323 0.930 . S
H334 C324 0.932 . S
H335 C325 0.929 . S
Tb336 C345 2.764 . S
Tb336 O346 2.325 . S
Tb336 O349 2.303 . S
Tb336 O353 2.322 . S
Tb336 O354 2.349 . S
Tb336 O357 2.415 . S
Tb336 O358 2.399 . S
Tb337 O347 2.322 . S
Tb337 O348 2.349 . S
Tb337 O350 2.415 . S
Tb337 O351 2.399 . S
Tb337 O352 2.325 . S
Tb337 O355 2.303 . S
Tb337 C366 2.764 . S
C338 O354 1.261 . S
C338 O355 1.257 . S
C339 C342 1.358 . S
C339 C343 1.332 . S
C339 C345 1.504 . S
C340 C341 1.373 . S
C340 C344 1.308 . S
C341 C340 1.373 . S
C341 C342 1.429 . S
C341 H368 0.932 . S
C342 C339 1.358 . S
C342 C341 1.429 . S
C342 H369 0.930 . S
C343 C339 1.332 . S
C343 C344 1.394 . S
C343 H370 0.932 . S
C344 C340 1.308 . S
C344 C343 1.394 . S
C344 H371 0.929 . S
C345 Tb336 2.764 . S
C345 C339 1.504 . S
C345 O357 1.239 . S
C345 O358 1.263 . S
O346 Tb336 2.325 . S
O346 C356 1.236 . S
O347 Tb337 2.322 . S
O347 C356 1.257 . S
O348 Tb337 2.349 . S
O348 C359 1.261 . S
O349 Tb336 2.303 . S
O349 C359 1.257 . S
O350 Tb337 2.415 . S
O350 C366 1.239 . S
O351 Tb337 2.399 . S
O351 C366 1.263 . S
O352 Tb337 2.325 . S
O352 C367 1.236 . S
O353 Tb336 2.322 . S
O353 C367 1.257 . S
O354 Tb336 2.349 . S
O354 C338 1.261 . S
O355 Tb337 2.303 . S
O355 C338 1.257 . S
C356 O346 1.236 . S
C356 O347 1.257 . S
O357 Tb336 2.415 . S
O357 C345 1.239 . S
O358 Tb336 2.399 . S
O358 C345 1.263 . S
C359 O348 1.261 . S
C359 O349 1.257 . S
C360 C363 1.358 . S
C360 C364 1.332 . S
C360 C366 1.504 . S
C361 C362 1.373 . S
C361 C365 1.308 . S
C362 C361 1.373 . S
C362 C363 1.429 . S
C362 H372 0.932 . S
C363 C360 1.358 . S
C363 C362 1.429 . S
C363 H373 0.930 . S
C364 C360 1.332 . S
C364 C365 1.394 . S
C364 H374 0.932 . S
C365 C361 1.308 . S
C365 C364 1.394 . S
C365 H375 0.929 . S
C366 Tb337 2.764 . S
C366 O350 1.239 . S
C366 O351 1.263 . S
C366 C360 1.504 . S
C367 O352 1.236 . S
C367 O353 1.257 . S
H368 C341 0.932 . S
H369 C342 0.930 . S
H370 C343 0.932 . S
H371 C344 0.929 . S
H372 C362 0.932 . S
H373 C363 0.930 . S
H374 C364 0.932 . S
H375 C365 0.929 . S
Tb376 C385 2.747 1_455 S
Tb376 O386 2.310 1_455 S
Tb376 O389 2.299 1_456 S
Tb376 O393 2.336 1_556 S
Tb376 O394 2.360 . S
Tb376 O397 2.396 1_455 S
Tb376 O398 2.388 1_455 S
Tb377 O387 2.322 1_455 S
Tb377 O388 2.349 1_455 S
Tb377 O390 2.415 . S
Tb377 O391 2.399 . S
Tb377 O392 2.325 . S
Tb377 O395 2.303 1_554 S
Tb377 C406 2.764 . S
C378 O394 1.261 . S
C378 O395 1.257 . S
C379 C382 1.358 . S
C379 C383 1.332 . S
C379 C385 1.504 . S
C380 C381 1.373 . S
C380 C384 1.308 . S
C381 C380 1.373 . S
C381 C382 1.429 . S
C381 H408 0.932 . S
C382 C379 1.358 . S
C382 C381 1.429 . S
C382 H409 0.930 . S
C383 C379 1.332 . S
C383 C384 1.394 . S
C383 H410 0.932 . S
C384 C380 1.308 . S
C384 C383 1.394 . S
C384 H411 0.929 . S
C385 Tb376 2.747 1_655 S
C385 C379 1.504 . S
C385 O397 1.239 . S
C385 O398 1.263 . S
O386 Tb376 2.310 1_655 S
O386 C396 1.236 . S
O387 Tb377 2.322 1_655 S
O387 C396 1.257 1_554 S
O388 Tb377 2.349 1_655 S
O388 C399 1.261 . S
O389 Tb376 2.299 1_654 S
O389 C399 1.257 . S
O390 Tb377 2.415 . S
O390 C406 1.239 . S
O391 Tb377 2.399 . S
O391 C406 1.263 . S
O392 Tb377 2.325 . S
O392 C407 1.236 . S
O393 Tb376 2.336 1_554 S
O393 C407 1.268 . S
O394 Tb376 2.360 . S
O394 C378 1.261 . S
O395 Tb377 2.303 1_556 S
O395 C378 1.257 . S
C396 O386 1.236 . S
C396 O387 1.257 1_556 S
O397 Tb376 2.396 1_655 S
O397 C385 1.239 . S
O398 Tb376 2.388 1_655 S
O398 C385 1.263 . S
C399 O388 1.261 . S
C399 O389 1.257 . S
C400 C403 1.358 . S
C400 C404 1.332 . S
C400 C406 1.504 . S
C401 C402 1.373 . S
C401 C405 1.308 . S
C402 C401 1.373 . S
C402 C403 1.429 . S
C402 H412 0.932 . S
C403 C400 1.358 . S
C403 C402 1.429 . S
C403 H413 0.930 . S
C404 C400 1.332 . S
C404 C405 1.394 . S
C404 H414 0.932 . S
C405 C401 1.308 . S
C405 C404 1.394 . S
C405 H415 0.929 . S
C406 Tb377 2.764 . S
C406 O390 1.239 . S
C406 O391 1.263 . S
C406 C400 1.504 . S
C407 O392 1.236 . S
C407 O393 1.268 . S
H408 C381 0.932 . S
H409 C382 0.930 . S
H410 C383 0.932 . S
H411 C384 0.929 . S
H412 C402 0.932 . S
H413 C403 0.930 . S
H414 C404 0.932 . S
H415 C405 0.929 . S
C416 C417 1.349 . S
C416 C418 1.327 . S
C416 H441 0.950 . S
C417 C416 1.349 . S
C417 C433 1.349 . S
C418 C416 1.327 . S
C418 C437 1.429 . S
C418 H442 0.950 . S
C419 C436 1.574 . S
C419 C438 1.368 . S
C419 H443 0.949 . S
H420 C424 0.949 . S
C421 C422 1.349 . S
C421 C423 1.327 . S
C421 H444 0.950 . S
C422 C421 1.349 . S
C422 C434 1.349 . S
C423 C421 1.327 . S
C423 C439 1.429 . S
C423 H445 0.950 . S
C424 H420 0.949 . S
C424 C432 1.574 . S
C424 C440 1.368 . S
H425 C433 0.950 . S
H426 C431 0.950 . S
H427 C432 0.949 . S
H428 C434 0.950 . S
H429 C435 0.950 . S
H430 C436 0.949 . S
C431 H426 0.950 . S
C431 C433 1.327 . S
C431 C437 1.429 . S
C432 C424 1.574 . S
C432 H427 0.949 . S
C432 C438 1.368 . S
C433 C417 1.349 . S
C433 H425 0.950 . S
C433 C431 1.327 . S
C434 C422 1.349 . S
C434 H428 0.950 . S
C434 C435 1.327 . S
C435 H429 0.950 . S
C435 C434 1.327 . S
C435 C439 1.429 . S
C436 C419 1.574 . S
C436 H430 0.949 . S
C436 C440 1.368 . S
C437 C418 1.429 . S
C437 C431 1.429 . S
C437 C438 1.523 . S
C438 C419 1.368 . S
C438 C432 1.368 . S
C438 C437 1.523 . S
C439 C423 1.429 . S
C439 C435 1.429 . S
C439 C440 1.523 . S
C440 C424 1.368 . S
C440 C436 1.368 . S
C440 C439 1.523 . S
H441 C416 0.950 . S
H442 C418 0.950 . S
H443 C419 0.949 . S
H444 C421 0.950 . S
H445 C423 0.950 . S
C446 C447 1.349 . S
C446 C448 1.327 . S
C446 H471 0.950 . S
C447 C446 1.349 . S
C447 C463 1.349 . S
C448 C446 1.327 . S
C448 C467 1.429 . S
C448 H472 0.950 . S
C449 C466 1.574 . S
C449 C468 1.368 . S
C449 H473 0.949 . S
H450 C454 0.949 . S
C451 C452 1.349 . S
C451 C453 1.327 . S
C451 H474 0.950 . S
C452 C451 1.349 . S
C452 C464 1.349 . S
C453 C451 1.327 . S
C453 C469 1.429 . S
C453 H475 0.950 . S
C454 H450 0.949 . S
C454 C462 1.574 . S
C454 C470 1.368 . S
H455 C463 0.950 . S
H456 C461 0.950 . S
H457 C462 0.949 . S
H458 C464 0.950 . S
H459 C465 0.950 . S
H460 C466 0.949 . S
C461 H456 0.950 . S
C461 C463 1.327 . S
C461 C467 1.429 . S
C462 C454 1.574 . S
C462 H457 0.949 . S
C462 C468 1.368 . S
C463 C447 1.349 . S
C463 H455 0.950 . S
C463 C461 1.327 . S
C464 C452 1.349 . S
C464 H458 0.950 . S
C464 C465 1.327 . S
C465 H459 0.950 . S
C465 C464 1.327 . S
C465 C469 1.429 . S
C466 C449 1.574 . S
C466 H460 0.949 . S
C466 C470 1.368 . S
C467 C448 1.429 . S
C467 C461 1.429 . S
C467 C468 1.523 . S
C468 C449 1.368 . S
C468 C462 1.368 . S
C468 C467 1.523 . S
C469 C453 1.429 . S
C469 C465 1.429 . S
C469 C470 1.523 . S
C470 C454 1.368 . S
C470 C466 1.368 . S
C470 C469 1.523 . S
H471 C446 0.950 . S
H472 C448 0.950 . S
H473 C449 0.949 . S
H474 C451 0.950 . S
H475 C453 0.950 . S
C476 C477 1.349 . S
C476 C478 1.327 . S
C476 H501 0.950 . S
C477 C476 1.349 . S
C477 C493 1.349 . S
C478 C476 1.327 . S
C478 C497 1.429 . S
C478 H502 0.950 . S
C479 C496 1.574 . S
C479 C498 1.368 . S
C479 H503 0.949 . S
H480 C484 0.949 . S
C481 C482 1.349 . S
C481 C483 1.327 . S
C481 H504 0.950 . S
C482 C481 1.349 . S
C482 C494 1.349 . S
C483 C481 1.327 . S
C483 C499 1.429 . S
C483 H505 0.950 . S
C484 H480 0.949 . S
C484 C492 1.574 . S
C484 C500 1.368 . S
H485 C493 0.950 . S
H486 C491 0.950 . S
H487 C492 0.949 . S
H488 C494 0.950 . S
H489 C495 0.950 . S
H490 C496 0.949 . S
C491 H486 0.950 . S
C491 C493 1.327 . S
C491 C497 1.429 . S
C492 C484 1.574 . S
C492 H487 0.949 . S
C492 C498 1.368 . S
C493 C477 1.349 . S
C493 H485 0.950 . S
C493 C491 1.327 . S
C494 C482 1.349 . S
C494 H488 0.950 . S
C494 C495 1.327 . S
C495 H489 0.950 . S
C495 C494 1.327 . S
C495 C499 1.429 . S
C496 C479 1.574 . S
C496 H490 0.949 . S
C496 C500 1.368 . S
C497 C478 1.429 . S
C497 C491 1.429 . S
C497 C498 1.523 . S
C498 C479 1.368 . S
C498 C492 1.368 . S
C498 C497 1.523 . S
C499 C483 1.429 . S
C499 C495 1.429 . S
C499 C500 1.523 . S
C500 C484 1.368 . S
C500 C496 1.368 . S
C500 C499 1.523 . S
H501 C476 0.950 . S
H502 C478 0.950 . S
H503 C479 0.949 . S
H504 C481 0.950 . S
H505 C483 0.950 . S
C506 C507 1.349 . S
C506 C508 1.327 . S
C506 H531 0.950 . S
C507 C506 1.349 . S
C507 C523 1.349 . S
C508 C506 1.327 . S
C508 C527 1.429 . S
C508 H532 0.950 . S
C509 C526 1.574 . S
C509 C528 1.368 . S
C509 H533 0.949 . S
H510 C514 0.949 . S
C511 C512 1.349 . S
C511 C513 1.327 . S
C511 H534 0.950 . S
C512 C511 1.349 . S
C512 C524 1.349 . S
C513 C511 1.327 . S
C513 C529 1.429 . S
C513 H535 0.950 . S
C514 H510 0.949 . S
C514 C522 1.574 . S
C514 C530 1.368 . S
H515 C523 0.950 . S
H516 C521 0.950 . S
H517 C522 0.949 . S
H518 C524 0.950 . S
H519 C525 0.950 . S
H520 C526 0.949 . S
C521 H516 0.950 . S
C521 C523 1.327 . S
C521 C527 1.429 . S
C522 C514 1.574 . S
C522 H517 0.949 . S
C522 C528 1.368 . S
C523 C507 1.349 . S
C523 H515 0.950 . S
C523 C521 1.327 . S
C524 C512 1.349 . S
C524 H518 0.950 . S
C524 C525 1.327 . S
C525 H519 0.950 . S
C525 C524 1.327 . S
C525 C529 1.429 . S
C526 C509 1.574 . S
C526 H520 0.949 . S
C526 C530 1.368 . S
C527 C508 1.429 . S
C527 C521 1.429 . S
C527 C528 1.523 . S
C528 C509 1.368 . S
C528 C522 1.368 . S
C528 C527 1.523 . S
C529 C513 1.429 . S
C529 C525 1.429 . S
C529 C530 1.523 . S
C530 C514 1.368 . S
C530 C526 1.368 . S
C530 C529 1.523 . S
H531 C506 0.950 . S
H532 C508 0.950 . S
H533 C509 0.949 . S
H534 C511 0.950 . S
H535 C513 0.950 . S
C536 C537 1.349 . S
C536 C538 1.327 . S
C536 H561 0.950 . S
C537 C536 1.349 . S
C537 C553 1.349 . S
C538 C536 1.327 . S
C538 C557 1.429 . S
C538 H562 0.950 . S
C539 C556 1.574 . S
C539 C558 1.368 . S
C539 H563 0.949 . S
H540 C544 0.949 . S
C541 C542 1.349 . S
C541 C543 1.327 . S
C541 H564 0.950 . S
C542 C541 1.349 . S
C542 C554 1.349 . S
C543 C541 1.327 . S
C543 C559 1.429 . S
C543 H565 0.950 . S
C544 H540 0.949 . S
C544 C552 1.574 . S
C544 C560 1.368 . S
H545 C553 0.950 . S
H546 C551 0.950 . S
H547 C552 0.949 . S
H548 C554 0.950 . S
H549 C555 0.950 . S
H550 C556 0.949 . S
C551 H546 0.950 . S
C551 C553 1.327 . S
C551 C557 1.429 . S
C552 C544 1.574 . S
C552 H547 0.949 . S
C552 C558 1.368 . S
C553 C537 1.349 . S
C553 H545 0.950 . S
C553 C551 1.327 . S
C554 C542 1.349 . S
C554 H548 0.950 . S
C554 C555 1.327 . S
C555 H549 0.950 . S
C555 C554 1.327 . S
C555 C559 1.429 . S
C556 C539 1.574 . S
C556 H550 0.949 . S
C556 C560 1.368 . S
C557 C538 1.429 . S
C557 C551 1.429 . S
C557 C558 1.523 . S
C558 C539 1.368 . S
C558 C552 1.368 . S
C558 C557 1.523 . S
C559 C543 1.429 . S
C559 C555 1.429 . S
C559 C560 1.523 . S
C560 C544 1.368 . S
C560 C556 1.368 . S
C560 C559 1.523 . S
H561 C536 0.950 . S
H562 C538 0.950 . S
H563 C539 0.949 . S
H564 C541 0.950 . S
H565 C543 0.950 . S
C566 C567 1.349 . S
C566 C568 1.327 . S
C566 H591 0.950 . S
C567 C566 1.349 . S
C567 C583 1.349 . S
C568 C566 1.327 . S
C568 C587 1.429 . S
C568 H592 0.950 . S
C569 C586 1.574 . S
C569 C588 1.368 . S
C569 H593 0.949 . S
H570 C574 0.949 . S
C571 C572 1.349 . S
C571 C573 1.327 . S
C571 H594 0.950 . S
C572 C571 1.349 . S
C572 C584 1.349 . S
C573 C571 1.327 . S
C573 C589 1.429 . S
C573 H595 0.950 . S
C574 H570 0.949 . S
C574 C582 1.574 . S
C574 C590 1.368 . S
H575 C583 0.950 . S
H576 C581 0.950 . S
H577 C582 0.949 . S
H578 C584 0.950 . S
H579 C585 0.950 . S
H580 C586 0.949 . S
C581 H576 0.950 . S
C581 C583 1.327 . S
C581 C587 1.429 . S
C582 C574 1.574 . S
C582 H577 0.949 . S
C582 C588 1.368 . S
C583 C567 1.349 . S
C583 H575 0.950 . S
C583 C581 1.327 . S
C584 C572 1.349 . S
C584 H578 0.950 . S
C584 C585 1.327 . S
C585 H579 0.950 . S
C585 C584 1.327 . S
C585 C589 1.429 . S
C586 C569 1.574 . S
C586 H580 0.949 . S
C586 C590 1.368 . S
C587 C568 1.429 . S
C587 C581 1.429 . S
C587 C588 1.523 . S
C588 C569 1.368 . S
C588 C582 1.368 . S
C588 C587 1.523 . S
C589 C573 1.429 . S
C589 C585 1.429 . S
C589 C590 1.523 . S
C590 C574 1.368 . S
C590 C586 1.368 . S
C590 C589 1.523 . S
H591 C566 0.950 . S
H592 C568 0.950 . S
H593 C569 0.949 . S
H594 C571 0.950 . S
H595 C573 0.950 . S
C596 C597 1.349 . S
C596 C598 1.327 . S
C596 H621 0.950 . S
C597 C596 1.349 . S
C597 C613 1.349 . S
C598 C596 1.327 . S
C598 C617 1.429 . S
C598 H622 0.950 . S
C599 C616 1.574 . S
C599 C618 1.368 . S
C599 H623 0.949 . S
H600 C604 0.949 . S
C601 C602 1.349 . S
C601 C603 1.327 . S
C601 H624 0.950 . S
C602 C601 1.349 . S
C602 C614 1.349 . S
C603 C601 1.327 . S
C603 C619 1.429 . S
C603 H625 0.950 . S
C604 H600 0.949 . S
C604 C612 1.574 . S
C604 C620 1.368 . S
H605 C613 0.950 . S
H606 C611 0.950 . S
H607 C612 0.949 . S
H608 C614 0.950 . S
H609 C615 0.950 . S
H610 C616 0.949 . S
C611 H606 0.950 . S
C611 C613 1.327 . S
C611 C617 1.429 . S
C612 C604 1.574 . S
C612 H607 0.949 . S
C612 C618 1.368 . S
C613 C597 1.349 . S
C613 H605 0.950 . S
C613 C611 1.327 . S
C614 C602 1.349 . S
C614 H608 0.950 . S
C614 C615 1.327 . S
C615 H609 0.950 . S
C615 C614 1.327 . S
C615 C619 1.429 . S
C616 C599 1.574 . S
C616 H610 0.949 . S
C616 C620 1.368 . S
C617 C598 1.429 . S
C617 C611 1.429 . S
C617 C618 1.523 . S
C618 C599 1.368 . S
C618 C612 1.368 . S
C618 C617 1.523 . S
C619 C603 1.429 . S
C619 C615 1.429 . S
C619 C620 1.523 . S
C620 C604 1.368 . S
C620 C616 1.368 . S
C620 C619 1.523 . S
H621 C596 0.950 . S
H622 C598 0.950 . S
H623 C599 0.949 . S
H624 C601 0.950 . S
H625 C603 0.950 . S
C626 C627 1.349 . S
C626 C628 1.327 . S
C626 H651 0.950 . S
C627 C626 1.349 . S
C627 C643 1.349 . S
C628 C626 1.327 . S
C628 C647 1.429 . S
C628 H652 0.950 . S
C629 C646 1.574 . S
C629 C648 1.368 . S
C629 H653 0.949 . S
H630 C634 0.949 . S
C631 C632 1.349 . S
C631 C633 1.327 . S
C631 H654 0.950 . S
C632 C631 1.349 . S
C632 C644 1.349 . S
C633 C631 1.327 . S
C633 C649 1.429 . S
C633 H655 0.950 . S
C634 H630 0.949 . S
C634 C642 1.574 . S
C634 C650 1.368 . S
H635 C643 0.950 . S
H636 C641 0.950 . S
H637 C642 0.949 . S
H638 C644 0.950 . S
H639 C645 0.950 . S
H640 C646 0.949 . S
C641 H636 0.950 . S
C641 C643 1.327 . S
C641 C647 1.429 . S
C642 C634 1.574 . S
C642 H637 0.949 . S
C642 C648 1.368 . S
C643 C627 1.349 . S
C643 H635 0.950 . S
C643 C641 1.327 . S
C644 C632 1.349 . S
C644 H638 0.950 . S
C644 C645 1.327 . S
C645 H639 0.950 . S
C645 C644 1.327 . S
C645 C649 1.429 . S
C646 C629 1.574 . S
C646 H640 0.949 . S
C646 C650 1.368 . S
C647 C628 1.429 . S
C647 C641 1.429 . S
C647 C648 1.523 . S
C648 C629 1.368 . S
C648 C642 1.368 . S
C648 C647 1.523 . S
C649 C633 1.429 . S
C649 C645 1.429 . S
C649 C650 1.523 . S
C650 C634 1.368 . S
C650 C646 1.368 . S
C650 C649 1.523 . S
H651 C626 0.950 . S
H652 C628 0.950 . S
H653 C629 0.949 . S
H654 C631 0.950 . S
H655 C633 0.950 . S
C656 C657 1.349 . S
C656 C658 1.327 . S
C656 H681 0.950 . S
C657 C656 1.349 . S
C657 C673 1.349 . S
C658 C656 1.327 . S
C658 C677 1.429 . S
C658 H682 0.950 . S
C659 C676 1.574 . S
C659 C678 1.368 . S
C659 H683 0.949 . S
H660 C664 0.949 . S
C661 C662 1.349 . S
C661 C663 1.327 . S
C661 H684 0.950 . S
C662 C661 1.349 . S
C662 C674 1.349 . S
C663 C661 1.327 . S
C663 C679 1.429 . S
C663 H685 0.950 . S
C664 H660 0.949 . S
C664 C672 1.574 . S
C664 C680 1.368 . S
H665 C673 0.950 . S
H666 C671 0.950 . S
H667 C672 0.949 . S
H668 C674 0.950 . S
H669 C675 0.950 . S
H670 C676 0.949 . S
C671 H666 0.950 . S
C671 C673 1.327 . S
C671 C677 1.429 . S
C672 C664 1.574 . S
C672 H667 0.949 . S
C672 C678 1.368 . S
C673 C657 1.349 . S
C673 H665 0.950 . S
C673 C671 1.327 . S
C674 C662 1.349 . S
C674 H668 0.950 . S
C674 C675 1.327 . S
C675 H669 0.950 . S
C675 C674 1.327 . S
C675 C679 1.429 . S
C676 C659 1.574 . S
C676 H670 0.949 . S
C676 C680 1.368 . S
C677 C658 1.429 . S
C677 C671 1.429 . S
C677 C678 1.523 . S
C678 C659 1.368 . S
C678 C672 1.368 . S
C678 C677 1.523 . S
C679 C663 1.429 . S
C679 C675 1.429 . S
C679 C680 1.523 . S
C680 C664 1.368 . S
C680 C676 1.368 . S
C680 C679 1.523 . S
H681 C656 0.950 . S
H682 C658 0.950 . S
H683 C659 0.949 . S
H684 C661 0.950 . S
H685 C663 0.950 . S
C686 C687 1.349 . S
C686 C688 1.327 . S
C686 H711 0.950 . S
C687 C686 1.349 . S
C687 C703 1.349 . S
C688 C686 1.327 . S
C688 C707 1.429 . S
C688 H712 0.950 . S
C689 C706 1.574 . S
C689 C708 1.368 . S
C689 H713 0.949 . S
H690 C694 0.949 . S
C691 C692 1.349 . S
C691 C693 1.327 . S
C691 H714 0.950 1_556 S
C692 C691 1.349 . S
C692 C704 1.349 . S
C693 C691 1.327 . S
C693 C709 1.429 . S
C693 H715 0.950 . S
C694 H690 0.949 . S
C694 C702 1.574 . S
C694 C710 1.368 . S
H695 C703 0.950 . S
H696 C701 0.950 . S
H697 C702 0.949 . S
H698 C704 0.950 . S
H699 C705 0.950 . S
H700 C706 0.949 . S
C701 H696 0.950 . S
C701 C703 1.327 . S
C701 C707 1.429 . S
C702 C694 1.574 . S
C702 H697 0.949 . S
C702 C708 1.368 . S
C703 C687 1.349 . S
C703 H695 0.950 . S
C703 C701 1.327 . S
C704 C692 1.349 . S
C704 H698 0.950 . S
C704 C705 1.327 . S
C705 H699 0.950 . S
C705 C704 1.327 . S
C705 C709 1.429 . S
C706 C689 1.574 . S
C706 H700 0.949 . S
C706 C710 1.368 . S
C707 C688 1.429 . S
C707 C701 1.429 . S
C707 C708 1.523 . S
C708 C689 1.368 . S
C708 C702 1.368 . S
C708 C707 1.523 . S
C709 C693 1.429 . S
C709 C705 1.429 . S
C709 C710 1.523 . S
C710 C694 1.368 . S
C710 C706 1.368 . S
C710 C709 1.523 . S
H711 C686 0.950 . S
H712 C688 0.950 . S
H713 C689 0.949 . S
H714 C691 0.950 1_554 S
H715 C693 0.950 . S
C716 C717 1.349 . S
C716 C718 1.327 . S
C716 H741 0.950 . S
C717 C716 1.349 . S
C717 C733 1.349 . S
C718 C716 1.327 . S
C718 C737 1.429 . S
C718 H742 0.950 . S
C719 C736 1.574 . S
C719 C738 1.368 . S
C719 H743 0.949 . S
H720 C724 0.949 . S
C721 C722 1.349 . S
C721 C723 1.327 . S
C721 H744 0.950 . S
C722 C721 1.349 . S
C722 C734 1.349 . S
C723 C721 1.327 . S
C723 C739 1.429 . S
C723 H745 0.950 . S
C724 H720 0.949 . S
C724 C732 1.574 . S
C724 C740 1.368 . S
H725 C733 0.950 . S
H726 C731 0.950 . S
H727 C732 0.949 . S
H728 C734 0.950 . S
H729 C735 0.950 . S
H730 C736 0.949 . S
C731 H726 0.950 . S
C731 C733 1.327 . S
C731 C737 1.429 . S
C732 C724 1.574 . S
C732 H727 0.949 . S
C732 C738 1.368 . S
C733 C717 1.349 . S
C733 H725 0.950 . S
C733 C731 1.327 . S
C734 C722 1.349 . S
C734 H728 0.950 . S
C734 C735 1.327 . S
C735 H729 0.950 . S
C735 C734 1.327 . S
C735 C739 1.429 . S
C736 C719 1.574 . S
C736 H730 0.949 . S
C736 C740 1.368 . S
C737 C718 1.429 . S
C737 C731 1.429 . S
C737 C738 1.523 . S
C738 C719 1.368 . S
C738 C732 1.368 . S
C738 C737 1.523 . S
C739 C723 1.429 . S
C739 C735 1.429 . S
C739 C740 1.523 . S
C740 C724 1.368 . S
C740 C736 1.368 . S
C740 C739 1.523 . S
H741 C716 0.950 . S
H742 C718 0.950 . S
H743 C719 0.949 . S
H744 C721 0.950 . S
H745 C723 0.950 . S
C746 C747 1.349 . S
C746 C748 1.327 . S
C746 H771 0.950 . S
C747 C746 1.349 . S
C747 C763 1.349 . S
C748 C746 1.327 . S
C748 C767 1.429 . S
C748 H772 0.950 . S
C749 C766 1.574 . S
C749 C768 1.368 . S
C749 H773 0.949 . S
H750 C754 0.949 . S
C751 C752 1.349 . S
C751 C753 1.327 . S
C751 H774 0.950 . S
C752 C751 1.349 . S
C752 C764 1.349 . S
C753 C751 1.327 . S
C753 C769 1.429 . S
C753 H775 0.950 . S
C754 H750 0.949 . S
C754 C762 1.574 . S
C754 C770 1.368 . S
H755 C763 0.950 . S
H756 C761 0.950 . S
H757 C762 0.949 . S
H758 C764 0.950 . S
H759 C765 0.950 . S
H760 C766 0.949 . S
C761 H756 0.950 . S
C761 C763 1.327 . S
C761 C767 1.429 . S
C762 C754 1.574 . S
C762 H757 0.949 . S
C762 C768 1.368 . S
C763 C747 1.349 . S
C763 H755 0.950 . S
C763 C761 1.327 . S
C764 C752 1.349 . S
C764 H758 0.950 . S
C764 C765 1.327 . S
C765 H759 0.950 . S
C765 C764 1.327 . S
C765 C769 1.429 . S
C766 C749 1.574 . S
C766 H760 0.949 . S
C766 C770 1.368 . S
C767 C748 1.429 . S
C767 C761 1.429 . S
C767 C768 1.523 . S
C768 C749 1.368 . S
C768 C762 1.368 . S
C768 C767 1.523 . S
C769 C753 1.429 . S
C769 C765 1.429 . S
C769 C770 1.523 . S
C770 C754 1.368 . S
C770 C766 1.368 . S
C770 C769 1.523 . S
H771 C746 0.950 . S
H772 C748 0.950 . S
H773 C749 0.949 . S
H774 C751 0.950 . S
H775 C753 0.950 . S
C776 C777 1.349 . S
C776 C778 1.327 . S
C776 H801 0.950 . S
C777 C776 1.349 . S
C777 C793 1.349 . S
C778 C776 1.327 . S
C778 C797 1.429 . S
C778 H802 0.950 . S
C779 C796 1.574 . S
C779 C798 1.368 . S
C779 H803 0.949 . S
H780 C784 0.949 . S
C781 C782 1.349 . S
C781 C783 1.327 . S
C781 H804 0.950 . S
C782 C781 1.349 . S
C782 C794 1.349 . S
C783 C781 1.327 . S
C783 C799 1.429 . S
C783 H805 0.950 . S
C784 H780 0.949 . S
C784 C792 1.574 . S
C784 C800 1.368 . S
H785 C793 0.950 . S
H786 C791 0.950 . S
H787 C792 0.949 . S
H788 C794 0.950 . S
H789 C795 0.950 . S
H790 C796 0.949 . S
C791 H786 0.950 . S
C791 C793 1.327 . S
C791 C797 1.429 . S
C792 C784 1.574 . S
C792 H787 0.949 . S
C792 C798 1.368 . S
C793 C777 1.349 . S
C793 H785 0.950 . S
C793 C791 1.327 . S
C794 C782 1.349 . S
C794 H788 0.950 . S
C794 C795 1.327 . S
C795 H789 0.950 . S
C795 C794 1.327 . S
C795 C799 1.429 . S
C796 C779 1.574 . S
C796 H790 0.949 . S
C796 C800 1.368 . S
C797 C778 1.429 . S
C797 C791 1.429 . S
C797 C798 1.523 . S
C798 C779 1.368 . S
C798 C792 1.368 . S
C798 C797 1.523 . S
C799 C783 1.429 . S
C799 C795 1.429 . S
C799 C800 1.523 . S
C800 C784 1.368 . S
C800 C796 1.368 . S
C800 C799 1.523 . S
H801 C776 0.950 . S
H802 C778 0.950 . S
H803 C779 0.949 . S
H804 C781 0.950 . S
H805 C783 0.950 . S
C806 C807 1.349 . S
C806 C808 1.327 . S
C806 H831 0.950 . S
C807 C806 1.349 . S
C807 C823 1.349 . S
C808 C806 1.327 . S
C808 C827 1.429 . S
C808 H832 0.950 . S
C809 C826 1.574 . S
C809 C828 1.368 . S
C809 H833 0.949 . S
H810 C814 0.949 . S
C811 C812 1.349 . S
C811 C813 1.327 . S
C811 H834 0.950 . S
C812 C811 1.349 . S
C812 C824 1.349 . S
C813 C811 1.327 . S
C813 C829 1.429 . S
C813 H835 0.950 . S
C814 H810 0.949 . S
C814 C822 1.574 . S
C814 C830 1.368 . S
H815 C823 0.950 . S
H816 C821 0.950 . S
H817 C822 0.949 . S
H818 C824 0.950 . S
H819 C825 0.950 . S
H820 C826 0.949 . S
C821 H816 0.950 . S
C821 C823 1.327 . S
C821 C827 1.429 . S
C822 C814 1.574 . S
C822 H817 0.949 . S
C822 C828 1.368 . S
C823 C807 1.349 . S
C823 H815 0.950 . S
C823 C821 1.327 . S
C824 C812 1.349 . S
C824 H818 0.950 . S
C824 C825 1.327 . S
C825 H819 0.950 . S
C825 C824 1.327 . S
C825 C829 1.429 . S
C826 C809 1.574 . S
C826 H820 0.949 . S
C826 C830 1.368 . S
C827 C808 1.429 . S
C827 C821 1.429 . S
C827 C828 1.523 . S
C828 C809 1.368 . S
C828 C822 1.368 . S
C828 C827 1.523 . S
C829 C813 1.429 . S
C829 C825 1.429 . S
C829 C830 1.523 . S
C830 C814 1.368 . S
C830 C826 1.368 . S
C830 C829 1.523 . S
H831 C806 0.950 . S
H832 C808 0.950 . S
H833 C809 0.949 . S
H834 C811 0.950 . S
H835 C813 0.950 . S
C836 C837 1.349 . S
C836 C838 1.327 . S
C836 H861 0.950 . S
C837 C836 1.349 . S
C837 C853 1.349 . S
C838 C836 1.327 . S
C838 C857 1.429 . S
C838 H862 0.950 . S
C839 C856 1.574 . S
C839 C858 1.368 . S
C839 H863 0.949 . S
H840 C844 0.949 . S
C841 C842 1.349 . S
C841 C843 1.327 . S
C841 H864 0.950 . S
C842 C841 1.349 . S
C842 C854 1.349 . S
C843 C841 1.327 . S
C843 C859 1.429 . S
C843 H865 0.950 . S
C844 H840 0.949 . S
C844 C852 1.574 . S
C844 C860 1.368 . S
H845 C853 0.950 . S
H846 C851 0.950 . S
H847 C852 0.949 . S
H848 C854 0.950 . S
H849 C855 0.950 . S
H850 C856 0.949 . S
C851 H846 0.950 . S
C851 C853 1.327 . S
C851 C857 1.429 . S
C852 C844 1.574 . S
C852 H847 0.949 . S
C852 C858 1.368 . S
C853 C837 1.349 . S
C853 H845 0.950 . S
C853 C851 1.327 . S
C854 C842 1.349 . S
C854 H848 0.950 . S
C854 C855 1.327 . S
C855 H849 0.950 . S
C855 C854 1.327 . S
C855 C859 1.429 . S
C856 C839 1.574 . S
C856 H850 0.949 . S
C856 C860 1.368 . S
C857 C838 1.429 . S
C857 C851 1.429 . S
C857 C858 1.523 . S
C858 C839 1.368 . S
C858 C852 1.368 . S
C858 C857 1.523 . S
C859 C843 1.429 . S
C859 C855 1.429 . S
C859 C860 1.523 . S
C860 C844 1.368 . S
C860 C856 1.368 . S
C860 C859 1.523 . S
H861 C836 0.950 . S
H862 C838 0.950 . S
H863 C839 0.949 . S
H864 C841 0.950 . S
H865 C843 0.950 . S
C866 C867 1.349 . S
C866 C868 1.327 . S
C866 H891 0.950 . S
C867 C866 1.349 . S
C867 C883 1.349 . S
C868 C866 1.327 . S
C868 C887 1.429 . S
C868 H892 0.950 . S
C869 C886 1.574 . S
C869 C888 1.368 . S
C869 H893 0.949 . S
H870 C874 0.949 . S
C871 C872 1.349 . S
C871 C873 1.327 . S
C871 H894 0.950 . S
C872 C871 1.349 . S
C872 C884 1.349 . S
C873 C871 1.327 . S
C873 C889 1.429 . S
C873 H895 0.950 . S
C874 H870 0.949 . S
C874 C882 1.574 . S
C874 C890 1.368 . S
H875 C883 0.950 . S
H876 C881 0.950 . S
H877 C882 0.949 . S
H878 C884 0.950 . S
H879 C885 0.950 . S
H880 C886 0.949 . S
C881 H876 0.950 . S
C881 C883 1.327 . S
C881 C887 1.429 . S
C882 C874 1.574 . S
C882 H877 0.949 . S
C882 C888 1.368 . S
C883 C867 1.349 . S
C883 H875 0.950 . S
C883 C881 1.327 . S
C884 C872 1.349 . S
C884 H878 0.950 . S
C884 C885 1.327 . S
C885 H879 0.950 . S
C885 C884 1.327 . S
C885 C889 1.429 . S
C886 C869 1.574 . S
C886 H880 0.949 . S
C886 C890 1.368 . S
C887 C868 1.429 . S
C887 C881 1.429 . S
C887 C888 1.523 . S
C888 C869 1.368 . S
C888 C882 1.368 . S
C888 C887 1.523 . S
C889 C873 1.429 . S
C889 C885 1.429 . S
C889 C890 1.523 . S
C890 C874 1.368 . S
C890 C886 1.368 . S
C890 C889 1.523 . S
H891 C866 0.950 . S
H892 C868 0.950 . S
H893 C869 0.949 . S
H894 C871 0.950 . S
H895 C873 0.950 . S
C896 C897 1.349 . S
C896 C898 1.327 . S
C896 H921 0.950 . S
C897 C896 1.349 . S
C897 C913 1.349 . S
C898 C896 1.327 . S
C898 C917 1.429 . S
C898 H922 0.950 . S
C899 C916 1.574 . S
C899 C918 1.368 . S
C899 H923 0.949 . S
H900 C904 0.949 . S
C901 C902 1.349 . S
C901 C903 1.327 . S
C901 H924 0.950 . S
C902 C901 1.349 . S
C902 C914 1.349 . S
C903 C901 1.327 . S
C903 C919 1.429 . S
C903 H925 0.950 . S
C904 H900 0.949 . S
C904 C912 1.574 . S
C904 C920 1.368 . S
H905 C913 0.950 . S
H906 C911 0.950 . S
H907 C912 0.949 . S
H908 C914 0.950 1_554 S
H909 C915 0.950 . S
H910 C916 0.949 . S
C911 H906 0.950 . S
C911 C913 1.327 . S
C911 C917 1.429 . S
C912 C904 1.574 . S
C912 H907 0.949 . S
C912 C918 1.368 . S
C913 C897 1.349 . S
C913 H905 0.950 . S
C913 C911 1.327 . S
C914 C902 1.349 . S
C914 H908 0.950 1_556 S
C914 C915 1.327 . S
C915 H909 0.950 . S
C915 C914 1.327 . S
C915 C919 1.429 . S
C916 C899 1.574 . S
C916 H910 0.949 . S
C916 C920 1.368 . S
C917 C898 1.429 . S
C917 C911 1.429 . S
C917 C918 1.523 . S
C918 C899 1.368 . S
C918 C912 1.368 . S
C918 C917 1.523 . S
C919 C903 1.429 . S
C919 C915 1.429 . S
C919 C920 1.523 . S
C920 C904 1.368 . S
C920 C916 1.368 . S
C920 C919 1.523 . S
H921 C896 0.950 . S
H922 C898 0.950 . S
H923 C899 0.949 . S
H924 C901 0.950 . S
H925 C903 0.950 . S
C926 C927 1.349 . S
C926 C928 1.327 . S
C926 H951 0.950 . S
C927 C926 1.349 . S
C927 C943 1.349 . S
C928 C926 1.327 . S
C928 C947 1.429 . S
C928 H952 0.950 . S
C929 C946 1.574 . S
C929 C948 1.368 . S
C929 H953 0.949 . S
H930 C934 0.949 . S
C931 C932 1.349 . S
C931 C933 1.327 . S
C931 H954 0.950 . S
C932 C931 1.349 . S
C932 C944 1.349 . S
C933 C931 1.327 . S
C933 C949 1.429 . S
C933 H955 0.950 . S
C934 H930 0.949 . S
C934 C942 1.574 . S
C934 C950 1.368 . S
H935 C943 0.950 . S
H936 C941 0.950 . S
H937 C942 0.949 . S
H938 C944 0.950 . S
H939 C945 0.950 . S
H940 C946 0.949 . S
C941 H936 0.950 . S
C941 C943 1.327 . S
C941 C947 1.429 . S
C942 C934 1.574 . S
C942 H937 0.949 . S
C942 C948 1.368 . S
C943 C927 1.349 . S
C943 H935 0.950 . S
C943 C941 1.327 . S
C944 C932 1.349 . S
C944 H938 0.950 . S
C944 C945 1.327 . S
C945 H939 0.950 . S
C945 C944 1.327 . S
C945 C949 1.429 . S
C946 C929 1.574 . S
C946 H940 0.949 . S
C946 C950 1.368 . S
C947 C928 1.429 . S
C947 C941 1.429 . S
C947 C948 1.523 . S
C948 C929 1.368 . S
C948 C942 1.368 . S
C948 C947 1.523 . S
C949 C933 1.429 . S
C949 C945 1.429 . S
C949 C950 1.523 . S
C950 C934 1.368 . S
C950 C946 1.368 . S
C950 C949 1.523 . S
H951 C926 0.950 . S
H952 C928 0.950 . S
H953 C929 0.949 . S
H954 C931 0.950 . S
H955 C933 0.950 . S
C956 C957 1.349 . S
C956 C958 1.327 . S
C956 H981 0.950 . S
C957 C956 1.349 . S
C957 C973 1.349 . S
C958 C956 1.327 . S
C958 C977 1.429 . S
C958 H982 0.950 . S
C959 C976 1.574 . S
C959 C978 1.368 . S
C959 H983 0.949 . S
H960 C964 0.949 . S
C961 C962 1.349 . S
C961 C963 1.327 . S
C961 H984 0.950 . S
C962 C961 1.349 . S
C962 C974 1.349 . S
C963 C961 1.327 . S
C963 C979 1.429 . S
C963 H985 0.950 . S
C964 H960 0.949 . S
C964 C972 1.574 . S
C964 C980 1.368 . S
H965 C973 0.950 . S
H966 C971 0.950 . S
H967 C972 0.949 . S
H968 C974 0.950 . S
H969 C975 0.950 . S
H970 C976 0.949 . S
C971 H966 0.950 . S
C971 C973 1.327 . S
C971 C977 1.429 . S
C972 C964 1.574 . S
C972 H967 0.949 . S
C972 C978 1.368 . S
C973 C957 1.349 . S
C973 H965 0.950 . S
C973 C971 1.327 . S
C974 C962 1.349 . S
C974 H968 0.950 . S
C974 C975 1.327 . S
C975 H969 0.950 . S
C975 C974 1.327 . S
C975 C979 1.429 . S
C976 C959 1.574 . S
C976 H970 0.949 . S
C976 C980 1.368 . S
C977 C958 1.429 . S
C977 C971 1.429 . S
C977 C978 1.523 . S
C978 C959 1.368 . S
C978 C972 1.368 . S
C978 C977 1.523 . S
C979 C963 1.429 . S
C979 C975 1.429 . S
C979 C980 1.523 . S
C980 C964 1.368 . S
C980 C976 1.368 . S
C980 C979 1.523 . S
H981 C956 0.950 . S
H982 C958 0.950 . S
H983 C959 0.949 . S
H984 C961 0.950 . S
H985 C963 0.950 . S
C986 C987 1.349 . S
C986 C988 1.327 . S
C986 H1011 0.950 . S
C987 C986 1.349 . S
C987 C1003 1.349 . S
C988 C986 1.327 . S
C988 C1007 1.429 . S
C988 H1012 0.950 . S
C989 C1006 1.574 . S
C989 C1008 1.368 . S
C989 H1013 0.949 . S
H990 C994 0.949 . S
C991 C992 1.349 . S
C991 C993 1.327 . S
C991 H1014 0.950 . S
C992 C991 1.349 . S
C992 C1004 1.349 . S
C993 C991 1.327 . S
C993 C1009 1.429 . S
C993 H1015 0.950 . S
C994 H990 0.949 . S
C994 C1002 1.574 . S
C994 C1010 1.368 . S
H995 C1003 0.950 . S
H996 C1001 0.950 . S
H997 C1002 0.949 . S
H998 C1004 0.950 . S
H999 C1005 0.950 . S
H1000 C1006 0.949 . S
C1001 H996 0.950 . S
C1001 C1003 1.327 . S
C1001 C1007 1.429 . S
C1002 C994 1.574 . S
C1002 H997 0.949 . S
C1002 C1008 1.368 . S
C1003 C987 1.349 . S
C1003 H995 0.950 . S
C1003 C1001 1.327 . S
C1004 C992 1.349 . S
C1004 H998 0.950 . S
C1004 C1005 1.327 . S
C1005 H999 0.950 . S
C1005 C1004 1.327 . S
C1005 C1009 1.429 . S
C1006 C989 1.574 . S
C1006 H1000 0.949 . S
C1006 C1010 1.368 . S
C1007 C988 1.429 . S
C1007 C1001 1.429 . S
C1007 C1008 1.523 . S
C1008 C989 1.368 . S
C1008 C1002 1.368 . S
C1008 C1007 1.523 . S
C1009 C993 1.429 . S
C1009 C1005 1.429 . S
C1009 C1010 1.523 . S
C1010 C994 1.368 . S
C1010 C1006 1.368 . S
C1010 C1009 1.523 . S
H1011 C986 0.950 . S
H1012 C988 0.950 . S
H1013 C989 0.949 . S
H1014 C991 0.950 . S
H1015 C993 0.950 . S
C1016 C1017 1.349 . S
C1016 C1018 1.327 . S
C1016 H1041 0.950 . S
C1017 C1016 1.349 . S
C1017 C1033 1.349 . S
C1018 C1016 1.327 . S
C1018 C1037 1.429 . S
C1018 H1042 0.950 . S
C1019 C1036 1.574 . S
C1019 C1038 1.368 . S
C1019 H1043 0.949 . S
H1020 C1024 0.949 . S
C1021 C1022 1.349 . S
C1021 C1023 1.327 . S
C1021 H1044 0.950 . S
C1022 C1021 1.349 . S
C1022 C1034 1.349 . S
C1023 C1021 1.327 . S
C1023 C1039 1.429 . S
C1023 H1045 0.950 . S
C1024 H1020 0.949 . S
C1024 C1032 1.574 . S
C1024 C1040 1.368 . S
H1025 C1033 0.950 . S
H1026 C1031 0.950 . S
H1027 C1032 0.949 . S
H1028 C1034 0.950 . S
H1029 C1035 0.950 . S
H1030 C1036 0.949 . S
C1031 H1026 0.950 . S
C1031 C1033 1.327 . S
C1031 C1037 1.429 . S
C1032 C1024 1.574 . S
C1032 H1027 0.949 . S
C1032 C1038 1.368 . S
C1033 C1017 1.349 . S
C1033 H1025 0.950 . S
C1033 C1031 1.327 . S
C1034 C1022 1.349 . S
C1034 H1028 0.950 . S
C1034 C1035 1.327 . S
C1035 H1029 0.950 . S
C1035 C1034 1.327 . S
C1035 C1039 1.429 . S
C1036 C1019 1.574 . S
C1036 H1030 0.949 . S
C1036 C1040 1.368 . S
C1037 C1018 1.429 . S
C1037 C1031 1.429 . S
C1037 C1038 1.523 . S
C1038 C1019 1.368 . S
C1038 C1032 1.368 . S
C1038 C1037 1.523 . S
C1039 C1023 1.429 . S
C1039 C1035 1.429 . S
C1039 C1040 1.523 . S
C1040 C1024 1.368 . S
C1040 C1036 1.368 . S
C1040 C1039 1.523 . S
H1041 C1016 0.950 . S
H1042 C1018 0.950 . S
H1043 C1019 0.949 . S
H1044 C1021 0.950 . S
H1045 C1023 0.950 . S
C1046 C1047 1.349 . S
C1046 C1048 1.327 . S
C1046 H1071 0.950 . S
C1047 C1046 1.349 . S
C1047 C1063 1.349 . S
C1048 C1046 1.327 . S
C1048 C1067 1.429 . S
C1048 H1072 0.950 . S
C1049 C1066 1.574 . S
C1049 C1068 1.368 . S
C1049 H1073 0.949 . S
H1050 C1054 0.949 . S
C1051 C1052 1.349 . S
C1051 C1053 1.327 . S
C1051 H1074 0.950 . S
C1052 C1051 1.349 . S
C1052 C1064 1.349 . S
C1053 C1051 1.327 . S
C1053 C1069 1.429 . S
C1053 H1075 0.950 . S
C1054 H1050 0.949 . S
C1054 C1062 1.574 . S
C1054 C1070 1.368 . S
H1055 C1063 0.950 . S
H1056 C1061 0.950 . S
H1057 C1062 0.949 . S
H1058 C1064 0.950 . S
H1059 C1065 0.950 . S
H1060 C1066 0.949 . S
C1061 H1056 0.950 . S
C1061 C1063 1.327 . S
C1061 C1067 1.429 . S
C1062 C1054 1.574 . S
C1062 H1057 0.949 . S
C1062 C1068 1.368 . S
C1063 C1047 1.349 . S
C1063 H1055 0.950 . S
C1063 C1061 1.327 . S
C1064 C1052 1.349 . S
C1064 H1058 0.950 . S
C1064 C1065 1.327 . S
C1065 H1059 0.950 . S
C1065 C1064 1.327 . S
C1065 C1069 1.429 . S
C1066 C1049 1.574 . S
C1066 H1060 0.949 . S
C1066 C1070 1.368 . S
C1067 C1048 1.429 . S
C1067 C1061 1.429 . S
C1067 C1068 1.523 . S
C1068 C1049 1.368 . S
C1068 C1062 1.368 . S
C1068 C1067 1.523 . S
C1069 C1053 1.429 . S
C1069 C1065 1.429 . S
C1069 C1070 1.523 . S
C1070 C1054 1.368 . S
C1070 C1066 1.368 . S
C1070 C1069 1.523 . S
H1071 C1046 0.950 . S
H1072 C1048 0.950 . S
H1073 C1049 0.949 . S
H1074 C1051 0.950 . S
H1075 C1053 0.950 . S
C1076 C1077 1.349 . S
C1076 C1078 1.327 . S
C1076 H1101 0.950 . S
C1077 C1076 1.349 . S
C1077 C1093 1.349 . S
C1078 C1076 1.327 . S
C1078 C1097 1.429 . S
C1078 H1102 0.950 . S
C1079 C1096 1.574 . S
C1079 C1098 1.368 . S
C1079 H1103 0.949 . S
H1080 C1084 0.949 . S
C1081 C1082 1.349 . S
C1081 C1083 1.327 . S
C1081 H1104 0.950 . S
C1082 C1081 1.349 . S
C1082 C1094 1.349 . S
C1083 C1081 1.327 . S
C1083 C1099 1.429 . S
C1083 H1105 0.950 . S
C1084 H1080 0.949 . S
C1084 C1092 1.574 . S
C1084 C1100 1.368 . S
H1085 C1093 0.950 . S
H1086 C1091 0.950 . S
H1087 C1092 0.949 . S
H1088 C1094 0.950 . S
H1089 C1095 0.950 . S
H1090 C1096 0.949 . S
C1091 H1086 0.950 . S
C1091 C1093 1.327 . S
C1091 C1097 1.429 . S
C1092 C1084 1.574 . S
C1092 H1087 0.949 . S
C1092 C1098 1.368 . S
C1093 C1077 1.349 . S
C1093 H1085 0.950 . S
C1093 C1091 1.327 . S
C1094 C1082 1.349 . S
C1094 H1088 0.950 . S
C1094 C1095 1.327 . S
C1095 H1089 0.950 . S
C1095 C1094 1.327 . S
C1095 C1099 1.429 . S
C1096 C1079 1.574 . S
C1096 H1090 0.949 . S
C1096 C1100 1.368 . S
C1097 C1078 1.429 . S
C1097 C1091 1.429 . S
C1097 C1098 1.523 . S
C1098 C1079 1.368 . S
C1098 C1092 1.368 . S
C1098 C1097 1.523 . S
C1099 C1083 1.429 . S
C1099 C1095 1.429 . S
C1099 C1100 1.523 . S
C1100 C1084 1.368 . S
C1100 C1096 1.368 . S
C1100 C1099 1.523 . S
H1101 C1076 0.950 . S
H1102 C1078 0.950 . S
H1103 C1079 0.949 . S
H1104 C1081 0.950 . S
H1105 C1083 0.950 . S
C1106 C1107 1.349 . S
C1106 C1108 1.327 . S
C1106 H1131 0.950 . S
C1107 C1106 1.349 . S
C1107 C1123 1.349 . S
C1108 C1106 1.327 . S
C1108 C1127 1.429 . S
C1108 H1132 0.950 . S
C1109 C1126 1.574 . S
C1109 C1128 1.368 . S
C1109 H1133 0.949 . S
H1110 C1114 0.949 . S
C1111 C1112 1.349 . S
C1111 C1113 1.327 . S
C1111 H1134 0.950 . S
C1112 C1111 1.349 . S
C1112 C1124 1.349 . S
C1113 C1111 1.327 . S
C1113 C1129 1.429 . S
C1113 H1135 0.950 . S
C1114 H1110 0.949 . S
C1114 C1122 1.574 . S
C1114 C1130 1.368 . S
H1115 C1123 0.950 . S
H1116 C1121 0.950 . S
H1117 C1122 0.949 . S
H1118 C1124 0.950 . S
H1119 C1125 0.950 . S
H1120 C1126 0.949 . S
C1121 H1116 0.950 . S
C1121 C1123 1.327 . S
C1121 C1127 1.429 . S
C1122 C1114 1.574 . S
C1122 H1117 0.949 . S
C1122 C1128 1.368 . S
C1123 C1107 1.349 . S
C1123 H1115 0.950 . S
C1123 C1121 1.327 . S
C1124 C1112 1.349 . S
C1124 H1118 0.950 . S
C1124 C1125 1.327 . S
C1125 H1119 0.950 . S
C1125 C1124 1.327 . S
C1125 C1129 1.429 . S
C1126 C1109 1.574 . S
C1126 H1120 0.949 . S
C1126 C1130 1.368 . S
C1127 C1108 1.429 . S
C1127 C1121 1.429 . S
C1127 C1128 1.523 . S
C1128 C1109 1.368 . S
C1128 C1122 1.368 . S
C1128 C1127 1.523 . S
C1129 C1113 1.429 . S
C1129 C1125 1.429 . S
C1129 C1130 1.523 . S
C1130 C1114 1.368 . S
C1130 C1126 1.368 . S
C1130 C1129 1.523 . S
H1131 C1106 0.950 . S
H1132 C1108 0.950 . S
H1133 C1109 0.949 . S
H1134 C1111 0.950 . S
H1135 C1113 0.950 . S
C417 C29 0.858 . S
C422 C260 0.859 . S
C447 C49 1.052 . S
C452 C321 1.132 . S
C482 C359 2.533 . S
C477 C93 2.522 . S
C507 C119 2.189 . S
C512 C399 2.191 . S
C542 C319 1.146 . S
C537 C17 1.162 . S
C572 C287 2.071 . S
C567 C61 1.881 . S
C602 C396 1.674 . S
C597 C81 1.637 . S
C632 C356 1.856 . S
C627 C125 1.824 . S
C657 C23 0.929 . S
C662 C401 0.930 . S
C692 C316 2.356 . S
C687 C87 2.294 . S
C717 C113 2.141 . S
C722 C258 2.151 . S
C747 C55 1.319 . S
C752 C361 1.447 . S
C782 C281 0.833 . S
C777 C157 0.813 . S
C807 C189 1.183 . S
C812 C300 1.183 . S
C837 C221 2.538 . S
C842 C338 2.498 . S
C867 C253 2.252 . S
C872 C378 2.268 . S
C897 C145 1.199 . S
C902 C298 1.249 . S
C932 C276 2.018 . S
C927 C183 2.014 . S
C962 C407 1.721 . S
C957 C209 1.710 . S
C992 C367 1.799 . S
C987 C247 1.770 . S
C1017 C151 0.926 . S
C1022 C380 0.955 . S
C1052 C327 2.351 . S
C1047 C215 2.332 . S
C1082 C279 2.107 . S
C1077 C241 2.089 . S
C1107 C177 1.455 . S
C1112 C340 1.449 . S
