# Generated by pormake.
# Topology ptr, (4,4)-cn, num edge types: 1
# Building blocks:
#     Node 0, Type 0, BuildingBlock: TATPOV_clean_sbu_0, # of connection points: 4
#     Node 1, Type 0, BuildingBlock: TATPOV_clean_sbu_0, # of connection points: 4
#     Node 2, Type 0, BuildingBlock: TATPOV_clean_sbu_0, # of connection points: 4
#     Node 3, Type 0, BuildingBlock: TATPOV_clean_sbu_0, # of connection points: 4
#     Node 4, Type 0, BuildingBlock: TATPOV_clean_sbu_0, # of connection points: 4
#     Node 5, Type 0, BuildingBlock: TATPOV_clean_sbu_0, # of connection points: 4
#     Node 6, Type 0, BuildingBlock: TATPOV_clean_sbu_0, # of connection points: 4
#     Node 7, Type 0, BuildingBlock: TATPOV_clean_sbu_0, # of connection points: 4
#     Node 8, Type 0, BuildingBlock: TATPOV_clean_sbu_0, # of connection points: 4
#     Node 9, Type 0, BuildingBlock: TATPOV_clean_sbu_0, # of connection points: 4
#     Node 10, Type 0, BuildingBlock: TATPOV_clean_sbu_0, # of connection points: 4
#     Node 11, Type 0, BuildingBlock: TATPOV_clean_sbu_0, # of connection points: 4
#     Node 12, Type 0, BuildingBlock: TATPOV_clean_sbu_0, # of connection points: 4
#     Node 13, Type 0, BuildingBlock: TATPOV_clean_sbu_0, # of connection points: 4
#     Node 14, Type 0, BuildingBlock: TATPOV_clean_sbu_0, # of connection points: 4
#     Node 15, Type 0, BuildingBlock: TATPOV_clean_sbu_0, # of connection points: 4
#     Node 16, Type 0, BuildingBlock: TATPOV_clean_sbu_0, # of connection points: 4
#     Node 17, Type 0, BuildingBlock: TATPOV_clean_sbu_0, # of connection points: 4
#     Node 18, Type 1, BuildingBlock: NAWXER_clean_linker_0, # of connection points: 4
#     Node 19, Type 1, BuildingBlock: NAWXER_clean_linker_0, # of connection points: 4
#     Node 20, Type 1, BuildingBlock: NAWXER_clean_linker_0, # of connection points: 4
#     Node 21, Type 1, BuildingBlock: NAWXER_clean_linker_0, # of connection points: 4
#     Node 22, Type 1, BuildingBlock: NAWXER_clean_linker_0, # of connection points: 4
#     Node 23, Type 1, BuildingBlock: NAWXER_clean_linker_0, # of connection points: 4
#     Node 24, Type 1, BuildingBlock: NAWXER_clean_linker_0, # of connection points: 4
#     Node 25, Type 1, BuildingBlock: NAWXER_clean_linker_0, # of connection points: 4
#     Node 26, Type 1, BuildingBlock: NAWXER_clean_linker_0, # of connection points: 4
#     Node 27, Type 1, BuildingBlock: NAWXER_clean_linker_0, # of connection points: 4
#     Node 28, Type 1, BuildingBlock: NAWXER_clean_linker_0, # of connection points: 4
#     Node 29, Type 1, BuildingBlock: NAWXER_clean_linker_0, # of connection points: 4
#     Node 30, Type 1, BuildingBlock: NAWXER_clean_linker_0, # of connection points: 4
#     Node 31, Type 1, BuildingBlock: NAWXER_clean_linker_0, # of connection points: 4
#     Node 32, Type 1, BuildingBlock: NAWXER_clean_linker_0, # of connection points: 4
#     Node 33, Type 1, BuildingBlock: NAWXER_clean_linker_0, # of connection points: 4
#     Node 34, Type 1, BuildingBlock: NAWXER_clean_linker_0, # of connection points: 4
#     Node 35, Type 1, BuildingBlock: NAWXER_clean_linker_0, # of connection points: 4
#     Edge 36, Type (0, 1), BuildingBlock: XIVTED_clean_linker_0, # of connection points: 2
#     Edge 37, Type (0, 1), BuildingBlock: XIVTED_clean_linker_0, # of connection points: 2
#     Edge 38, Type (0, 1), BuildingBlock: XIVTED_clean_linker_0, # of connection points: 2
#     Edge 39, Type (0, 1), BuildingBlock: XIVTED_clean_linker_0, # of connection points: 2
#     Edge 40, Type (0, 1), BuildingBlock: XIVTED_clean_linker_0, # of connection points: 2
#     Edge 41, Type (0, 1), BuildingBlock: XIVTED_clean_linker_0, # of connection points: 2
#     Edge 42, Type (0, 1), BuildingBlock: XIVTED_clean_linker_0, # of connection points: 2
#     Edge 43, Type (0, 1), BuildingBlock: XIVTED_clean_linker_0, # of connection points: 2
#     Edge 44, Type (0, 1), BuildingBlock: XIVTED_clean_linker_0, # of connection points: 2
#     Edge 45, Type (0, 1), BuildingBlock: XIVTED_clean_linker_0, # of connection points: 2
#     Edge 46, Type (0, 1), BuildingBlock: XIVTED_clean_linker_0, # of connection points: 2
#     Edge 47, Type (0, 1), BuildingBlock: XIVTED_clean_linker_0, # of connection points: 2
#     Edge 48, Type (0, 1), BuildingBlock: XIVTED_clean_linker_0, # of connection points: 2
#     Edge 49, Type (0, 1), BuildingBlock: XIVTED_clean_linker_0, # of connection points: 2
#     Edge 50, Type (0, 1), BuildingBlock: XIVTED_clean_linker_0, # of connection points: 2
#     Edge 51, Type (0, 1), BuildingBlock: XIVTED_clean_linker_0, # of connection points: 2
#     Edge 52, Type (0, 1), BuildingBlock: XIVTED_clean_linker_0, # of connection points: 2
#     Edge 53, Type (0, 1), BuildingBlock: XIVTED_clean_linker_0, # of connection points: 2
#     Edge 54, Type (0, 1), BuildingBlock: XIVTED_clean_linker_0, # of connection points: 2
#     Edge 55, Type (0, 1), BuildingBlock: XIVTED_clean_linker_0, # of connection points: 2
#     Edge 56, Type (0, 1), BuildingBlock: XIVTED_clean_linker_0, # of connection points: 2
#     Edge 57, Type (0, 1), BuildingBlock: XIVTED_clean_linker_0, # of connection points: 2
#     Edge 58, Type (0, 1), BuildingBlock: XIVTED_clean_linker_0, # of connection points: 2
#     Edge 59, Type (0, 1), BuildingBlock: XIVTED_clean_linker_0, # of connection points: 2
#     Edge 60, Type (0, 1), BuildingBlock: XIVTED_clean_linker_0, # of connection points: 2
#     Edge 61, Type (0, 1), BuildingBlock: XIVTED_clean_linker_0, # of connection points: 2
#     Edge 62, Type (0, 1), BuildingBlock: XIVTED_clean_linker_0, # of connection points: 2
#     Edge 63, Type (0, 1), BuildingBlock: XIVTED_clean_linker_0, # of connection points: 2
#     Edge 64, Type (0, 1), BuildingBlock: XIVTED_clean_linker_0, # of connection points: 2
#     Edge 65, Type (0, 1), BuildingBlock: XIVTED_clean_linker_0, # of connection points: 2
#     Edge 66, Type (0, 1), BuildingBlock: XIVTED_clean_linker_0, # of connection points: 2
#     Edge 67, Type (0, 1), BuildingBlock: XIVTED_clean_linker_0, # of connection points: 2
#     Edge 68, Type (0, 1), BuildingBlock: XIVTED_clean_linker_0, # of connection points: 2
#     Edge 69, Type (0, 1), BuildingBlock: XIVTED_clean_linker_0, # of connection points: 2
#     Edge 70, Type (0, 1), BuildingBlock: XIVTED_clean_linker_0, # of connection points: 2
#     Edge 71, Type (0, 1), BuildingBlock: XIVTED_clean_linker_0, # of connection points: 2
#     Edge 72, Type (0, 1), BuildingBlock: XIVTED_clean_linker_0, # of connection points: 2
#     Edge 73, Type (0, 1), BuildingBlock: XIVTED_clean_linker_0, # of connection points: 2
#     Edge 74, Type (0, 1), BuildingBlock: XIVTED_clean_linker_0, # of connection points: 2
#     Edge 75, Type (0, 1), BuildingBlock: XIVTED_clean_linker_0, # of connection points: 2
#     Edge 76, Type (0, 1), BuildingBlock: XIVTED_clean_linker_0, # of connection points: 2
#     Edge 77, Type (0, 1), BuildingBlock: XIVTED_clean_linker_0, # of connection points: 2
#     Edge 78, Type (0, 1), BuildingBlock: XIVTED_clean_linker_0, # of connection points: 2
#     Edge 79, Type (0, 1), BuildingBlock: XIVTED_clean_linker_0, # of connection points: 2
#     Edge 80, Type (0, 1), BuildingBlock: XIVTED_clean_linker_0, # of connection points: 2
#     Edge 81, Type (0, 1), BuildingBlock: XIVTED_clean_linker_0, # of connection points: 2
#     Edge 82, Type (0, 1), BuildingBlock: XIVTED_clean_linker_0, # of connection points: 2
#     Edge 83, Type (0, 1), BuildingBlock: XIVTED_clean_linker_0, # of connection points: 2
#     Edge 84, Type (0, 1), BuildingBlock: XIVTED_clean_linker_0, # of connection points: 2
#     Edge 85, Type (0, 1), BuildingBlock: XIVTED_clean_linker_0, # of connection points: 2
#     Edge 86, Type (0, 1), BuildingBlock: XIVTED_clean_linker_0, # of connection points: 2
#     Edge 87, Type (0, 1), BuildingBlock: XIVTED_clean_linker_0, # of connection points: 2
#     Edge 88, Type (0, 1), BuildingBlock: XIVTED_clean_linker_0, # of connection points: 2
#     Edge 89, Type (0, 1), BuildingBlock: XIVTED_clean_linker_0, # of connection points: 2
#     Edge 90, Type (0, 1), BuildingBlock: XIVTED_clean_linker_0, # of connection points: 2
#     Edge 91, Type (0, 1), BuildingBlock: XIVTED_clean_linker_0, # of connection points: 2
#     Edge 92, Type (0, 1), BuildingBlock: XIVTED_clean_linker_0, # of connection points: 2
#     Edge 93, Type (0, 1), BuildingBlock: XIVTED_clean_linker_0, # of connection points: 2
#     Edge 94, Type (0, 1), BuildingBlock: XIVTED_clean_linker_0, # of connection points: 2
#     Edge 95, Type (0, 1), BuildingBlock: XIVTED_clean_linker_0, # of connection points: 2
#     Edge 96, Type (0, 1), BuildingBlock: XIVTED_clean_linker_0, # of connection points: 2
#     Edge 97, Type (0, 1), BuildingBlock: XIVTED_clean_linker_0, # of connection points: 2
#     Edge 98, Type (0, 1), BuildingBlock: XIVTED_clean_linker_0, # of connection points: 2
#     Edge 99, Type (0, 1), BuildingBlock: XIVTED_clean_linker_0, # of connection points: 2
#     Edge 100, Type (0, 1), BuildingBlock: XIVTED_clean_linker_0, # of connection points: 2
#     Edge 101, Type (0, 1), BuildingBlock: XIVTED_clean_linker_0, # of connection points: 2
#     Edge 102, Type (0, 1), BuildingBlock: XIVTED_clean_linker_0, # of connection points: 2
#     Edge 103, Type (0, 1), BuildingBlock: XIVTED_clean_linker_0, # of connection points: 2
#     Edge 104, Type (0, 1), BuildingBlock: XIVTED_clean_linker_0, # of connection points: 2
#     Edge 105, Type (0, 1), BuildingBlock: XIVTED_clean_linker_0, # of connection points: 2
#     Edge 106, Type (0, 1), BuildingBlock: XIVTED_clean_linker_0, # of connection points: 2
#     Edge 107, Type (0, 1), BuildingBlock: XIVTED_clean_linker_0, # of connection points: 2
# Relax obj value: 0.067
# Max RMSD: 0.243
# Mean RMSD: 0.106
data_MOF--net-ptr--node1-TATPOV_clean_sbu_0--node2-NAWXER_clean_linker_0--edge1-XIVTED_clean_linker_0
_symmetry_space_group_name_H-M    P1
_symmetry_Int_Tables_number       1
_symmetry_cell_setting            triclinic
loop_
_symmetry_equiv_pos_as_xyz
'x, y, z'
_cell_length_a     87.062044
_cell_length_b     88.262623
_cell_length_c     63.146042
_cell_angle_alpha  89.754812
_cell_angle_beta   90.650082
_cell_angle_gamma 121.45911
loop_
_atom_site_label
_atom_site_type_symbol
_atom_site_fract_x
_atom_site_fract_y
_atom_site_fract_z
_atom_type_partial_charge
Zn0 Zn 0.95481 0.3382 0.00819 0.0
Zn1 Zn 0.9897 0.348 0.01106 0.0
O2 O 0.97562 0.32129 0.00425 0.0
O3 O 0.94686 0.31233 0.00517 0.0
O4 O 0.01422 0.35221 0.01833 0.0
O5 O 0.95557 0.34861 0.03689 0.0
O6 O 0.98407 0.35662 0.0385 0.0
C7 C 0.95916 0.30891 0.00284 0.0
C8 C 0.97908 0.36346 0.97555 0.0
O9 O 0.99181 0.36311 0.98528 0.0
O10 O 0.96301 0.35413 0.98208 0.0
C11 C 0.02065 0.3437 0.00978 0.0
O12 O 0.0123 0.33352 0.99331 0.0
C13 C 0.97053 0.35616 0.04669 0.0
Zn14 Zn 0.64812 0.61784 0.9883 0.0
Zn15 Zn 0.65049 0.6464 0.00621 0.0
O16 O 0.67629 0.65587 0.99516 0.0
O17 O 0.67438 0.6319 0.98195 0.0
O18 O 0.65296 0.66746 0.02165 0.0
O19 O 0.6399 0.60422 0.01565 0.0
O20 O 0.64207 0.62789 0.03017 0.0
C21 C 0.68361 0.64832 0.98615 0.0
C22 C 0.62547 0.62886 0.96821 0.0
O23 O 0.63143 0.64056 0.98282 0.0
O24 O 0.63069 0.61792 0.96706 0.0
C25 C 0.65933 0.68268 0.01326 0.0
O26 O 0.66416 0.68492 0.99331 0.0
C27 C 0.63853 0.61198 0.03168 0.0
Zn28 Zn 0.34266 0.95789 0.0249 0.0
Zn29 Zn 0.34876 0.99089 0.02084 0.0
O30 O 0.32307 0.97599 0.03295 0.0
O31 O 0.31796 0.94893 0.03626 0.0
O32 O 0.35138 0.01462 0.01424 0.0
O33 O 0.34639 0.95624 0.99386 0.0
O34 O 0.35315 0.98391 0.99136 0.0
C35 C 0.31279 0.95983 0.03839 0.0
C36 C 0.37268 0.98486 0.05059 0.0
O37 O 0.36854 0.99563 0.04276 0.0
O38 O 0.36391 0.96863 0.04517 0.0
C39 C 0.34181 0.01993 0.02269 0.0
O40 O 0.3307 0.01049 0.03789 0.0
C41 C 0.35151 0.97006 0.98287 0.0
Zn42 Zn 0.05176 0.6612 0.01961 0.0
Zn43 Zn 0.01999 0.65886 0.01182 0.0
O44 O 0.03789 0.68479 0.02028 0.0
O45 O 0.06443 0.68773 0.02425 0.0
O46 O 0.99871 0.66039 0.00236 0.0
O47 O 0.0507 0.65066 0.9906 0.0
O48 O 0.02487 0.64899 0.98517 0.0
C49 C 0.05465 0.69445 0.02448 0.0
C50 C 0.02209 0.63819 0.04857 0.0
O51 O 0.01225 0.64162 0.03687 0.0
O52 O 0.0387 0.64504 0.04468 0.0
C53 C 0.99334 0.66912 0.01256 0.0
O54 O 0.00051 0.67575 0.03121 0.0
C55 C 0.03713 0.64637 0.97884 0.0
Zn56 Zn 0.35938 0.39032 0.03829 0.0
Zn57 Zn 0.35368 0.36205 0.01696 0.0
O58 O 0.32836 0.35472 0.02802 0.0
O59 O 0.33294 0.37944 0.04242 0.0
O60 O 0.34885 0.34016 0.00103 0.0
O61 O 0.37093 0.40563 0.01272 0.0
O62 O 0.3639 0.38178 0.99413 0.0
C63 C 0.32233 0.36341 0.03714 0.0
C64 C 0.37826 0.37493 0.05646 0.0
O65 O 0.37225 0.36516 0.03998 0.0
O66 O 0.37401 0.38636 0.06006 0.0
C67 C 0.34606 0.32651 0.01123 0.0
O68 O 0.34646 0.32698 0.03203 0.0
C69 C 0.37055 0.39851 0.9952 0.0
Zn70 Zn 0.64642 0.02869 0.99993 0.0
Zn71 Zn 0.64543 0.99858 0.00959 0.0
O72 O 0.67051 0.015 0.99684 0.0
O73 O 0.67026 0.03843 0.98526 0.0
O74 O 0.64647 0.97724 0.0193 0.0
O75 O 0.64502 0.03354 0.03087 0.0
O76 O 0.64001 0.00686 0.03753 0.0
C77 C 0.67812 0.02981 0.98714 0.0
C78 C 0.61698 0.99691 0.97993 0.0
O79 O 0.62456 0.98909 0.98783 0.0
O80 O 0.6232 0.01321 0.98366 0.0
C81 C 0.65751 0.97335 0.01183 0.0
O82 O 0.66792 0.98271 0.99609 0.0
C83 C 0.64095 0.02103 0.0438 0.0
Zn84 Zn 0.61826 0.67954 0.33577 0.0
Zn85 Zn 0.64772 0.68022 0.35016 0.0
O86 O 0.6304 0.6545 0.34019 0.0
O87 O 0.60512 0.653 0.33146 0.0
O88 O 0.66792 0.67841 0.36303 0.0
O89 O 0.61664 0.69035 0.36332 0.0
O90 O 0.64011 0.68963 0.37514 0.0
C91 C 0.61413 0.64555 0.33361 0.0
C92 C 0.65087 0.70185 0.31133 0.0
O93 O 0.65872 0.69797 0.32561 0.0
O94 O 0.63401 0.69535 0.31191 0.0
C95 C 0.67669 0.67321 0.35252 0.0
O96 O 0.67326 0.66989 0.33219 0.0
C97 C 0.62791 0.69326 0.37799 0.0
Zn98 Zn 0.30623 0.94802 0.32731 0.0
Zn99 Zn 0.31281 0.97826 0.34499 0.0
O100 O 0.33675 0.98578 0.33028 0.0
O101 O 0.32998 0.96179 0.31208 0.0
O102 O 0.31761 0.00041 0.36 0.0
O103 O 0.30484 0.93731 0.3561 0.0
O104 O 0.30639 0.96092 0.36991 0.0
C105 C 0.34108 0.97782 0.31704 0.0
C106 C 0.28088 0.95807 0.31463 0.0
O107 O 0.29154 0.97226 0.3248 0.0
O108 O 0.2836 0.94531 0.31429 0.0
C109 C 0.31996 0.0141 0.35031 0.0
O110 O 0.31944 0.01406 0.32951 0.0
C111 C 0.3043 0.94559 0.37211 0.0
Zn112 Zn 0.01485 0.29895 0.37103 0.0
Zn113 Zn 0.01626 0.32863 0.3575 0.0
O114 O 0.99043 0.3132 0.3689 0.0
O115 O 0.98867 0.28819 0.37774 0.0
O116 O 0.0164 0.34953 0.34447 0.0
O117 O 0.02223 0.29503 0.34225 0.0
O118 O 0.02271 0.31904 0.3317 0.0
C119 C 0.98142 0.29739 0.37606 0.0
C120 C 0.04064 0.33118 0.39389 0.0
O121 O 0.03591 0.339 0.38069 0.0
O122 O 0.03347 0.31447 0.39324 0.0
C123 C 0.01054 0.35849 0.35312 0.0
O124 O 0.00439 0.35465 0.37253 0.0
C125 C 0.0247 0.30603 0.32778 0.0
Zn126 Zn 0.7199 0.99337 0.36174 0.0
Zn127 Zn 0.68814 0.98969 0.35057 0.0
O128 O 0.70445 0.01603 0.35895 0.0
O129 O 0.73105 0.01974 0.36566 0.0
O130 O 0.6662 0.98912 0.33905 0.0
O131 O 0.72137 0.98343 0.33347 0.0
O132 O 0.69554 0.98082 0.32491 0.0
C133 C 0.72097 0.02608 0.36416 0.0
C134 C 0.68937 0.96947 0.38873 0.0
O135 O 0.67992 0.97251 0.37582 0.0
O136 O 0.70624 0.97692 0.38629 0.0
C137 C 0.65779 0.99506 0.34892 0.0
O138 O 0.66261 0.00081 0.36845 0.0
C139 C 0.70866 0.97897 0.32024 0.0
Zn140 Zn 0.01079 0.71615 0.36179 0.0
Zn141 Zn 0.01562 0.69164 0.34468 0.0
O142 O 0.98866 0.67793 0.3526 0.0
O143 O 0.9841 0.69914 0.36258 0.0
O144 O 0.01808 0.67279 0.33015 0.0
O145 O 0.02143 0.732 0.33658 0.0
O146 O 0.02342 0.71077 0.32126 0.0
C147 C 0.9781 0.68295 0.35866 0.0
C148 C 0.03495 0.70932 0.38603 0.0
O149 O 0.03283 0.69921 0.37049 0.0
O150 O 0.02655 0.71749 0.38632 0.0
C151 C 0.01392 0.65836 0.33943 0.0
O152 O 0.00858 0.65605 0.35919 0.0
C153 C 0.02533 0.72611 0.32061 0.0
Zn154 Zn 0.33035 0.37991 0.33605 0.0
Zn155 Zn 0.32241 0.34629 0.34353 0.0
O156 O 0.34882 0.36027 0.33404 0.0
O157 O 0.35627 0.38807 0.33006 0.0
O158 O 0.31893 0.32263 0.35206 0.0
O159 O 0.32296 0.38169 0.36569 0.0
O160 O 0.31615 0.35422 0.37105 0.0
C161 C 0.36046 0.37634 0.32961 0.0
C162 C 0.30225 0.35218 0.30839 0.0
O163 O 0.30462 0.34134 0.31924 0.0
O164 O 0.31147 0.36869 0.31244 0.0
C165 C 0.32762 0.3164 0.34342 0.0
O166 O 0.338 0.32479 0.32724 0.0
C167 C 0.31703 0.36828 0.37766 0.0
Zn168 Zn 0.28869 0.01748 0.67203 0.0
Zn169 Zn 0.31997 0.0194 0.68164 0.0
O170 O 0.30199 0.99314 0.67357 0.0
O171 O 0.27603 0.99109 0.66754 0.0
O172 O 0.34224 0.01908 0.6902 0.0
O173 O 0.28891 0.02727 0.70106 0.0
O174 O 0.31442 0.02875 0.70856 0.0
C175 C 0.28532 0.98386 0.66865 0.0
C176 C 0.31855 0.04055 0.6443 0.0
O177 O 0.32774 0.03672 0.65659 0.0
O178 O 0.30185 0.03386 0.64728 0.0
C179 C 0.34613 0.00856 0.68148 0.0
O180 O 0.33606 0.99843 0.66574 0.0
C181 C 0.30173 0.03109 0.7139 0.0
Zn182 Zn 0.9716 0.27936 0.65446 0.0
Zn183 Zn 0.97717 0.30766 0.67621 0.0
O184 O 0.00207 0.31629 0.66268 0.0
O185 O 0.99715 0.2927 0.64489 0.0
O186 O 0.98123 0.32905 0.69259 0.0
O187 O 0.96433 0.26489 0.68133 0.0
O188 O 0.96931 0.28837 0.69931 0.0
C189 C 0.00761 0.30869 0.65046 0.0
C190 C 0.94955 0.29239 0.63947 0.0
O191 O 0.95708 0.30339 0.6547 0.0
O192 O 0.95351 0.28073 0.63594 0.0
C193 C 0.98571 0.34345 0.68299 0.0
O194 O 0.98785 0.34422 0.66237 0.0
C195 C 0.96458 0.27205 0.69878 0.0
Zn196 Zn 0.69142 0.63699 0.70219 0.0
Zn197 Zn 0.69423 0.66681 0.69052 0.0
O198 O 0.66847 0.6517 0.70313 0.0
O199 O 0.6668 0.62712 0.71359 0.0
O200 O 0.69468 0.68853 0.67888 0.0
O201 O 0.6949 0.63097 0.67301 0.0
O202 O 0.69929 0.65688 0.66332 0.0
C203 C 0.65975 0.63647 0.71187 0.0
C204 C 0.7205 0.6675 0.72352 0.0
O205 O 0.71488 0.67614 0.7131 0.0
O206 O 0.71281 0.65085 0.72119 0.0
C207 C 0.68446 0.69371 0.68565 0.0
O208 O 0.67404 0.68559 0.7019 0.0
C209 C 0.69878 0.64253 0.65882 0.0
Zn210 Zn 0.3716 0.31346 0.69503 0.0
Zn211 Zn 0.34132 0.31355 0.68712 0.0
O212 O 0.35905 0.33832 0.69913 0.0
O213 O 0.38358 0.33821 0.7074 0.0
O214 O 0.32045 0.31631 0.67935 0.0
O215 O 0.37406 0.30974 0.66408 0.0
O216 O 0.34753 0.30661 0.65865 0.0
C217 C 0.37493 0.34612 0.70689 0.0
C218 C 0.34006 0.28669 0.71808 0.0
O219 O 0.33217 0.29405 0.70977 0.0
O220 O 0.35627 0.29201 0.71362 0.0
C221 C 0.30722 0.30556 0.66771 0.0
O222 O 0.30616 0.29095 0.66106 0.0
C223 C 0.36101 0.30618 0.65177 0.0
Zn224 Zn 0.67524 0.0537 0.68786 0.0
Zn225 Zn 0.67926 0.02663 0.67634 0.0
O226 O 0.65329 0.01449 0.68787 0.0
O227 O 0.64961 0.03668 0.69582 0.0
O228 O 0.68123 0.00597 0.66632 0.0
O229 O 0.68029 0.06326 0.65833 0.0
O230 O 0.68444 0.04163 0.64906 0.0
C231 C 0.64347 0.02019 0.6946 0.0
C232 C 0.70362 0.05232 0.71088 0.0
O233 O 0.69888 0.03871 0.69936 0.0
O234 O 0.69562 0.06083 0.70896 0.0
C235 C 0.67317 0.99103 0.67567 0.0
O236 O 0.6638 0.98911 0.69271 0.0
C237 C 0.68407 0.05552 0.64437 0.0
Zn238 Zn 0.98745 0.70951 0.66503 0.0
Zn239 Zn 0.97971 0.67683 0.67606 0.0
O240 O 0.00614 0.68977 0.66628 0.0
O241 O 0.01326 0.71719 0.65959 0.0
O242 O 0.97615 0.6538 0.68734 0.0
O243 O 0.98069 0.7137 0.69378 0.0
O244 O 0.9741 0.68681 0.70252 0.0
C245 C 0.01765 0.70562 0.66075 0.0
C246 C 0.95904 0.68047 0.63941 0.0
O247 O 0.96154 0.67033 0.65152 0.0
O248 O 0.96837 0.69718 0.64198 0.0
C249 C 0.98211 0.64514 0.67814 0.0
O250 O 0.98979 0.65053 0.65959 0.0
C251 C 0.97515 0.70135 0.70729 0.0
C252 C 0.20418 0.32637 0.12001 0.0
C253 C 0.2028 0.31487 0.10377 0.0
C254 C 0.18937 0.32214 0.13246 0.0
C255 C 0.1729 0.30623 0.12911 0.0
C256 C 0.18638 0.2988 0.10058 0.0
C257 C 0.17146 0.2946 0.11304 0.0
C258 C 0.15692 0.30269 0.14113 0.0
C259 C 0.19569 0.30059 0.18747 0.0
C260 C 0.20244 0.31444 0.20242 0.0
C261 C 0.18073 0.29667 0.17477 0.0
C262 C 0.17229 0.30648 0.177 0.0
C263 C 0.19366 0.32388 0.2049 0.0
C264 C 0.17872 0.31988 0.19242 0.0
C265 C 0.15685 0.30326 0.16349 0.0
C266 C 0.08337 0.28944 0.18441 0.0
C267 C 0.08857 0.30204 0.20074 0.0
C268 C 0.09634 0.28967 0.17126 0.0
C269 C 0.11468 0.30234 0.1745 0.0
C270 C 0.10689 0.31496 0.20351 0.0
C271 C 0.11981 0.31501 0.19064 0.0
C272 C 0.12879 0.30193 0.16221 0.0
C273 C 0.10594 0.32454 0.11719 0.0
C274 C 0.09661 0.31378 0.0996 0.0
C275 C 0.11597 0.32028 0.13059 0.0
C276 C 0.11693 0.30515 0.12678 0.0
C277 C 0.09758 0.29858 0.09582 0.0
C278 C 0.10781 0.29441 0.10919 0.0
C279 C 0.12906 0.30184 0.13988 0.0
H280 H 0.21671 0.33877 0.12296 0.0
H281 H 0.19068 0.33155 0.14439 0.0
H282 H 0.18494 0.28978 0.08806 0.0
H283 H 0.15876 0.28239 0.11002 0.0
H284 H 0.2022 0.29309 0.1853 0.0
H285 H 0.17582 0.28606 0.16321 0.0
H286 H 0.19837 0.3344 0.21654 0.0
H287 H 0.17239 0.32757 0.19453 0.0
H288 H 0.06932 0.27933 0.18198 0.0
H289 H 0.09211 0.27965 0.15904 0.0
H290 H 0.11131 0.32467 0.21614 0.0
H291 H 0.13389 0.32487 0.19344 0.0
H292 H 0.10597 0.33661 0.12033 0.0
H293 H 0.12346 0.32917 0.14358 0.0
H294 H 0.09045 0.28989 0.08256 0.0
H295 H 0.10863 0.28283 0.10578 0.0
N296 N 0.14302 0.30201 0.13017 0.0
N297 N 0.14274 0.30277 0.1731 0.0
C298 C 0.67342 0.88665 0.1183 0.0
C299 C 0.68181 0.89251 0.09853 0.0
C300 C 0.67707 0.87605 0.13131 0.0
C301 C 0.68958 0.87145 0.12517 0.0
C302 C 0.69418 0.88772 0.0923 0.0
C303 C 0.69799 0.87727 0.10547 0.0
C304 C 0.69267 0.85925 0.1382 0.0
C305 C 0.71039 0.90669 0.18151 0.0
C306 C 0.69898 0.90259 0.19896 0.0
C307 C 0.70885 0.89312 0.16853 0.0
C308 C 0.69602 0.87529 0.17299 0.0
C309 C 0.68602 0.88474 0.20316 0.0
C310 C 0.68468 0.87123 0.19042 0.0
C311 C 0.69483 0.86062 0.16043 0.0
C312 C 0.70361 0.79839 0.18333 0.0
C313 C 0.69477 0.79459 0.20283 0.0
C314 C 0.70392 0.81119 0.16983 0.0
C315 C 0.69471 0.81981 0.17527 0.0
C316 C 0.68621 0.80367 0.20861 0.0
C317 C 0.68609 0.81605 0.19496 0.0
C318 C 0.69441 0.83334 0.16144 0.0
C319 C 0.67203 0.7848 0.11944 0.0
C320 C 0.68271 0.78724 0.10168 0.0
C321 C 0.67529 0.79929 0.13183 0.0
C322 C 0.68941 0.81649 0.12684 0.0
C323 C 0.69678 0.80452 0.09669 0.0
C324 C 0.69999 0.819 0.10906 0.0
C325 C 0.69242 0.83203 0.13913 0.0
H326 H 0.66395 0.89018 0.12376 0.0
H327 H 0.66976 0.87115 0.14597 0.0
H328 H 0.70065 0.89168 0.07704 0.0
H329 H 0.7074 0.8736 0.10016 0.0
H330 H 0.7205 0.92035 0.17797 0.0
H331 H 0.71791 0.89652 0.15532 0.0
H332 H 0.67725 0.88118 0.21668 0.0
H333 H 0.67478 0.85755 0.19421 0.0
H334 H 0.71042 0.79159 0.17866 0.0
H335 H 0.71141 0.81434 0.15527 0.0
H336 H 0.67917 0.80084 0.22352 0.0
H337 H 0.67902 0.82255 0.19974 0.0
H338 H 0.66087 0.77174 0.1235 0.0
H339 H 0.66662 0.79711 0.14513 0.0
H340 H 0.7054 0.80687 0.0833 0.0
H341 H 0.71083 0.83219 0.10482 0.0
N342 N 0.69174 0.84509 0.12843 0.0
N343 N 0.69552 0.84761 0.17108 0.0
C344 C 0.11924 0.82341 0.09899 0.0
C345 C 0.10067 0.81088 0.09797 0.0
C346 C 0.12605 0.83803 0.11246 0.0
C347 C 0.11451 0.84066 0.12519 0.0
C348 C 0.08897 0.81392 0.10992 0.0
C349 C 0.09582 0.82877 0.12326 0.0
C350 C 0.12258 0.85572 0.14045 0.0
C351 C 0.07626 0.82339 0.1938 0.0
C352 C 0.07907 0.80926 0.19747 0.0
C353 C 0.08792 0.83763 0.18093 0.0
C354 C 0.1023 0.83779 0.17099 0.0
C355 C 0.09294 0.80904 0.1865 0.0
C356 C 0.10445 0.82319 0.17338 0.0
C357 C 0.11673 0.85437 0.16151 0.0
C358 C 0.17556 0.92503 0.1999 0.0
C359 C 0.17748 0.91766 0.21883 0.0
C360 C 0.1636 0.91404 0.18394 0.0
C361 C 0.15363 0.89548 0.18655 0.0
C362 C 0.16684 0.89917 0.22165 0.0
C363 C 0.15505 0.88828 0.20579 0.0
C364 C 0.14232 0.88308 0.16937 0.0
C365 C 0.19847 0.90968 0.14172 0.0
C366 C 0.20026 0.91748 0.12172 0.0
C367 C 0.18163 0.89993 0.15118 0.0
C368 C 0.16631 0.89805 0.141 0.0
C369 C 0.1851 0.91643 0.11211 0.0
C370 C 0.16823 0.90667 0.12161 0.0
C371 C 0.14817 0.88446 0.14829 0.0
H372 H 0.12863 0.82182 0.08956 0.0
H373 H 0.14051 0.84705 0.11331 0.0
H374 H 0.07457 0.80459 0.10946 0.0
H375 H 0.08649 0.83078 0.1322 0.0
H376 H 0.06547 0.82383 0.20158 0.0
H377 H 0.08615 0.84886 0.17939 0.0
H378 H 0.09567 0.79853 0.18909 0.0
H379 H 0.11572 0.82325 0.16617 0.0
H380 H 0.18341 0.93924 0.19733 0.0
H381 H 0.16245 0.92 0.16947 0.0
H382 H 0.16816 0.89293 0.23577 0.0
H383 H 0.14759 0.87404 0.20828 0.0
H384 H 0.20995 0.91039 0.14957 0.0
H385 H 0.18046 0.89296 0.1658 0.0
H386 H 0.18603 0.92212 0.0966 0.0
H387 H 0.15652 0.9051 0.11332 0.0
N388 N 0.138 0.87082 0.13473 0.0
N389 N 0.12675 0.8681 0.17499 0.0
C390 C 0.32073 0.1076 0.85729 0.0
C391 C 0.30633 0.09881 0.84273 0.0
C392 C 0.32171 0.12047 0.87107 0.0
C393 C 0.30813 0.12458 0.87086 0.0
C394 C 0.29261 0.10275 0.84291 0.0
C395 C 0.29353 0.11547 0.85678 0.0
C396 C 0.31002 0.1398 0.88307 0.0
C397 C 0.30844 0.10208 0.93227 0.0
C398 C 0.32472 0.10876 0.9436 0.0
C399 C 0.30547 0.11328 0.91946 0.0
C400 C 0.31872 0.13138 0.91779 0.0
C401 C 0.33789 0.12691 0.94204 0.0
C402 C 0.33483 0.13815 0.92941 0.0
C403 C 0.31569 0.14343 0.90447 0.0
C404 C 0.30735 0.20597 0.92382 0.0
C405 C 0.32271 0.21593 0.93669 0.0
C406 C 0.30462 0.19094 0.91303 0.0
C407 C 0.31742 0.18582 0.91449 0.0
C408 C 0.33521 0.21047 0.93865 0.0
C409 C 0.33257 0.19555 0.92769 0.0
C410 C 0.315 0.17016 0.90282 0.0
C411 C 0.31972 0.20802 0.85101 0.0
C412 C 0.30587 0.20084 0.83569 0.0
C413 C 0.32067 0.19709 0.86641 0.0
C414 C 0.30745 0.17889 0.86716 0.0
C415 C 0.29249 0.18275 0.83666 0.0
C416 C 0.29325 0.17191 0.85228 0.0
C417 C 0.30948 0.16658 0.88133 0.0
H418 H 0.33147 0.10484 0.85774 0.0
H419 H 0.33344 0.12766 0.88125 0.0
H420 H 0.28149 0.09657 0.8317 0.0
H421 H 0.28301 0.11856 0.85606 0.0
H422 H 0.29808 0.08813 0.93309 0.0
H423 H 0.29279 0.10783 0.91095 0.0
H424 H 0.35047 0.13247 0.95078 0.0
H425 H 0.34516 0.15211 0.92849 0.0
H426 H 0.29732 0.20967 0.92233 0.0
H427 H 0.29249 0.18332 0.90357 0.0
H428 H 0.34722 0.21792 0.94836 0.0
H429 H 0.34255 0.19179 0.92925 0.0
H430 H 0.3304 0.22186 0.85033 0.0
H431 H 0.33218 0.20276 0.87707 0.0
H432 H 0.2817 0.17692 0.82499 0.0
H433 H 0.283 0.15789 0.85234 0.0
N434 N 0.30712 0.15151 0.87248 0.0
N435 N 0.31802 0.15848 0.91346 0.0
C436 C 0.91715 0.18822 0.91482 0.0
C437 C 0.90941 0.19422 0.9295 0.0
C438 C 0.90619 0.17394 0.90124 0.0
C439 C 0.88735 0.16558 0.90207 0.0
C440 C 0.89056 0.1857 0.93022 0.0
C441 C 0.87971 0.17154 0.91679 0.0
C442 C 0.87505 0.15043 0.88826 0.0
C443 C 0.90404 0.19486 0.83915 0.0
C444 C 0.91396 0.19134 0.82462 0.0
C445 C 0.89279 0.18195 0.85378 0.0
C446 C 0.89125 0.16531 0.85414 0.0
C447 C 0.91318 0.17502 0.82603 0.0
C448 C 0.90175 0.16206 0.84044 0.0
C449 C 0.87667 0.15045 0.86607 0.0
C450 C 0.80147 0.10531 0.83842 0.0
C451 C 0.8031 0.09769 0.81973 0.0
C452 C 0.81568 0.11339 0.85297 0.0
C453 C 0.83172 0.11366 0.84947 0.0
C454 C 0.81907 0.09772 0.81635 0.0
C455 C 0.8333 0.10576 0.83104 0.0
C456 C 0.84748 0.12414 0.86363 0.0
C457 C 0.80358 0.08036 0.90119 0.0
C458 C 0.79813 0.08596 0.91881 0.0
C459 C 0.81974 0.09214 0.89105 0.0
C460 C 0.83026 0.10993 0.89781 0.0
C461 C 0.80926 0.10328 0.92652 0.0
C462 C 0.82511 0.11517 0.91607 0.0
C463 C 0.84637 0.1234 0.88599 0.0
H464 H 0.93163 0.19445 0.91396 0.0
H465 H 0.91241 0.16936 0.89031 0.0
H466 H 0.8841 0.19021 0.94087 0.0
H467 H 0.86523 0.16542 0.91767 0.0
H468 H 0.9041 0.20714 0.83843 0.0
H469 H 0.8845 0.18457 0.86395 0.0
H470 H 0.92093 0.17198 0.81547 0.0
H471 H 0.90064 0.14925 0.84041 0.0
H472 H 0.78931 0.10537 0.84163 0.0
H473 H 0.81429 0.11991 0.86667 0.0
H474 H 0.82083 0.09216 0.80199 0.0
H475 H 0.84569 0.10614 0.82781 0.0
H476 H 0.79523 0.06695 0.89515 0.0
H477 H 0.82373 0.08742 0.87764 0.0
H478 H 0.80525 0.10789 0.94005 0.0
H479 H 0.83298 0.12871 0.92187 0.0
N480 N 0.86013 0.13674 0.89728 0.0
N481 N 0.86277 0.13737 0.85464 0.0
C482 C 0.81765 0.72374 0.92045 0.0
C483 C 0.81094 0.70968 0.93506 0.0
C484 C 0.83398 0.72946 0.91019 0.0
C485 C 0.84362 0.72095 0.91412 0.0
C486 C 0.82147 0.70239 0.94032 0.0
C487 C 0.83756 0.70791 0.92995 0.0
C488 C 0.85946 0.72458 0.90147 0.0
C489 C 0.81433 0.70357 0.8531 0.0
C490 C 0.81715 0.71486 0.83588 0.0
C491 C 0.82811 0.70774 0.86772 0.0
C492 C 0.84492 0.72352 0.86577 0.0
C493 C 0.83376 0.73094 0.83429 0.0
C494 C 0.84759 0.73516 0.84903 0.0
C495 C 0.8603 0.72646 0.87918 0.0
C496 C 0.9138 0.70852 0.85281 0.0
C497 C 0.92255 0.72094 0.83649 0.0
C498 C 0.903 0.71067 0.86723 0.0
C499 C 0.90105 0.72547 0.86592 0.0
C500 C 0.92067 0.73583 0.83538 0.0
C501 C 0.90998 0.73802 0.84989 0.0
C502 C 0.88795 0.72678 0.87929 0.0
C503 C 0.92899 0.72627 0.92284 0.0
C504 C 0.92147 0.71289 0.93832 0.0
C505 C 0.91805 0.73066 0.91119 0.0
C506 C 0.89934 0.72131 0.91439 0.0
C507 C 0.90293 0.70415 0.94214 0.0
C508 C 0.892 0.70827 0.93028 0.0
C509 C 0.88699 0.72463 0.90154 0.0
H510 H 0.8099 0.72973 0.9162 0.0
H511 H 0.83868 0.74003 0.89864 0.0
H512 H 0.81692 0.69188 0.95196 0.0
H513 H 0.84482 0.70131 0.93365 0.0
H514 H 0.80164 0.69114 0.85486 0.0
H515 H 0.82584 0.69823 0.88003 0.0
H516 H 0.83639 0.7398 0.82106 0.0
H517 H 0.86056 0.74723 0.84699 0.0
H518 H 0.91503 0.69697 0.85424 0.0
H519 H 0.89577 0.70047 0.87901 0.0
H520 H 0.92686 0.74547 0.82279 0.0
H521 H 0.90835 0.74933 0.84829 0.0
H522 H 0.94331 0.73337 0.91981 0.0
H523 H 0.92421 0.74121 0.89961 0.0
H524 H 0.89676 0.69369 0.95386 0.0
H525 H 0.87765 0.70089 0.93321 0.0
N526 N 0.87284 0.72375 0.91161 0.0
N527 N 0.87464 0.72775 0.8691 0.0
C528 C 0.74994 0.627 0.44487 0.0
C529 C 0.75694 0.64102 0.43019 0.0
C530 C 0.76137 0.62289 0.45579 0.0
C531 C 0.78006 0.63299 0.45259 0.0
C532 C 0.77556 0.65077 0.42659 0.0
C533 C 0.78698 0.64679 0.43766 0.0
C534 C 0.79265 0.62926 0.46416 0.0
C535 C 0.76817 0.64363 0.51878 0.0
C536 C 0.75577 0.62827 0.52998 0.0
C537 C 0.77954 0.64295 0.50385 0.0
C538 C 0.77883 0.62696 0.50003 0.0
C539 C 0.75463 0.61211 0.52525 0.0
C540 C 0.76626 0.61155 0.51069 0.0
C541 C 0.79211 0.62656 0.48623 0.0
C542 C 0.86672 0.64592 0.50619 0.0
C543 C 0.86375 0.63641 0.52517 0.0
C544 C 0.85243 0.64202 0.49248 0.0
C545 C 0.83484 0.62817 0.49705 0.0
C546 C 0.84627 0.62214 0.5294 0.0
C547 C 0.83197 0.61811 0.51552 0.0
C548 C 0.81924 0.62607 0.48465 0.0
C549 C 0.85178 0.61669 0.43758 0.0
C550 C 0.85951 0.62973 0.42168 0.0
C551 C 0.83858 0.61585 0.45084 0.0
C552 C 0.83296 0.62808 0.4485 0.0
C553 C 0.85358 0.64172 0.41924 0.0
C554 C 0.84037 0.64081 0.43237 0.0
C555 C 0.81915 0.62765 0.46235 0.0
H556 H 0.73559 0.61904 0.44766 0.0
H557 H 0.75553 0.6117 0.46653 0.0
H558 H 0.78136 0.66173 0.41549 0.0
H559 H 0.80133 0.65472 0.43478 0.0
H560 H 0.76966 0.65635 0.52212 0.0
H561 H 0.78934 0.65502 0.49586 0.0
H562 H 0.74497 0.5999 0.53306 0.0
H563 H 0.76553 0.59909 0.50784 0.0
H564 H 0.88003 0.65686 0.50228 0.0
H565 H 0.85509 0.65052 0.47889 0.0
H566 H 0.84344 0.61466 0.54396 0.0
H567 H 0.81851 0.60756 0.51962 0.0
H568 H 0.85587 0.60712 0.43973 0.0
H569 H 0.83274 0.60563 0.46287 0.0
H570 H 0.85947 0.6522 0.40753 0.0
H571 H 0.83626 0.65038 0.43024 0.0
N572 N 0.80606 0.62951 0.45309 0.0
N573 N 0.80547 0.62522 0.49563 0.0
C574 C 0.33053 0.21019 0.42667 0.0
C575 C 0.34372 0.22836 0.42564 0.0
C576 C 0.33313 0.19884 0.43962 0.0
C577 C 0.3488 0.20549 0.45206 0.0
C578 C 0.35963 0.23494 0.43773 0.0
C579 C 0.36213 0.2236 0.45088 0.0
C580 C 0.35109 0.19329 0.46598 0.0
C581 C 0.37133 0.23414 0.52681 0.0
C582 C 0.35785 0.23837 0.52529 0.0
C583 C 0.37061 0.22089 0.51407 0.0
C584 C 0.35649 0.21161 0.49944 0.0
C585 C 0.34385 0.22926 0.51034 0.0
C586 C 0.3431 0.21592 0.49767 0.0
C587 C 0.35502 0.19635 0.48783 0.0
C588 C 0.36463 0.13498 0.51344 0.0
C589 C 0.35677 0.13213 0.53348 0.0
C590 C 0.3646 0.1474 0.49957 0.0
C591 C 0.35596 0.15654 0.50519 0.0
C592 C 0.34905 0.14195 0.53953 0.0
C593 C 0.34857 0.15394 0.52551 0.0
C594 C 0.35468 0.16913 0.49061 0.0
C595 C 0.33093 0.1178 0.45317 0.0
C596 C 0.34056 0.11961 0.43462 0.0
C597 C 0.33411 0.13281 0.46442 0.0
C598 C 0.34717 0.14988 0.45749 0.0
C599 C 0.35347 0.13675 0.42764 0.0
C600 C 0.35665 0.15172 0.4389 0.0
C601 C 0.35046 0.16597 0.46874 0.0
H602 H 0.31825 0.20474 0.41733 0.0
H603 H 0.32275 0.18488 0.44019 0.0
H604 H 0.36999 0.2489 0.43728 0.0
H605 H 0.37446 0.22895 0.46011 0.0
H606 H 0.38211 0.24057 0.53841 0.0
H607 H 0.38096 0.21764 0.51596 0.0
H608 H 0.33328 0.23221 0.50868 0.0
H609 H 0.33173 0.20861 0.48699 0.0
H610 H 0.37081 0.12764 0.50857 0.0
H611 H 0.37122 0.14972 0.48447 0.0
H612 H 0.34282 0.13989 0.55488 0.0
H613 H 0.34201 0.16091 0.53044 0.0
H614 H 0.32069 0.10479 0.45877 0.0
H615 H 0.32629 0.1311 0.47842 0.0
H616 H 0.36126 0.13862 0.41357 0.0
H617 H 0.36668 0.16478 0.43319 0.0
N618 N 0.34895 0.17823 0.45732 0.0
N619 N 0.35673 0.1842 0.49919 0.0
C620 C 0.77441 0.14333 0.45387 0.0
C621 C 0.76556 0.14256 0.43479 0.0
C622 C 0.78103 0.15804 0.46716 0.0
C623 C 0.77884 0.17224 0.46176 0.0
C624 C 0.76317 0.15669 0.42947 0.0
C625 C 0.76997 0.17155 0.44278 0.0
C626 C 0.78728 0.18831 0.47518 0.0
C627 C 0.7404 0.14477 0.51088 0.0
C628 C 0.74627 0.13902 0.52828 0.0
C629 C 0.75238 0.16069 0.50059 0.0
C630 C 0.77029 0.17115 0.50776 0.0
C631 C 0.76417 0.14958 0.5354 0.0
C632 C 0.776 0.16553 0.52535 0.0
C633 C 0.78355 0.1877 0.49693 0.0
C634 C 0.84367 0.26173 0.5259 0.0
C635 C 0.84649 0.25622 0.54572 0.0
C636 C 0.83071 0.24935 0.51175 0.0
C637 C 0.82086 0.23116 0.51689 0.0
C638 C 0.83563 0.23831 0.55147 0.0
C639 C 0.82302 0.22594 0.53723 0.0
C640 C 0.80885 0.2172 0.50135 0.0
C641 C 0.86273 0.24238 0.46933 0.0
C642 C 0.86362 0.24961 0.4492 0.0
C643 C 0.84636 0.23283 0.47979 0.0
C644 C 0.83056 0.23057 0.47051 0.0
C645 C 0.84797 0.24801 0.44027 0.0
C646 C 0.83152 0.23839 0.45078 0.0
C647 C 0.81289 0.21758 0.4796 0.0
H648 H 0.7763 0.13257 0.45847 0.0
H649 H 0.78822 0.15849 0.48149 0.0
H650 H 0.7565 0.15646 0.41478 0.0
H651 H 0.76842 0.18253 0.43822 0.0
H652 H 0.72663 0.13689 0.50518 0.0
H653 H 0.74767 0.16486 0.48713 0.0
H654 H 0.76897 0.14565 0.54901 0.0
H655 H 0.78977 0.17335 0.53112 0.0
H656 H 0.85177 0.27552 0.52118 0.0
H657 H 0.82883 0.25395 0.49658 0.0
H658 H 0.83761 0.23363 0.56655 0.0
H659 H 0.81557 0.21209 0.54184 0.0
H660 H 0.8746 0.24351 0.47664 0.0
H661 H 0.84592 0.22646 0.49466 0.0
H662 H 0.84825 0.2533 0.42468 0.0
H663 H 0.81942 0.23649 0.44316 0.0
N664 N 0.80177 0.20322 0.46736 0.0
N665 N 0.79435 0.20218 0.50905 0.0
C666 C 0.98117 0.54243 0.17722 0.0
C667 C 0.99007 0.54634 0.15776 0.0
C668 C 0.98135 0.53001 0.19093 0.0
C669 C 0.99111 0.52189 0.18577 0.0
C670 C 0.99922 0.53779 0.15224 0.0
C671 C -0.00018 0.52577 0.16613 0.0
C672 C 0.99167 0.50862 0.19983 0.0
C673 C 0.01297 0.55755 0.24053 0.0
C674 C 0.00212 0.55525 0.25806 0.0
C675 C 0.01012 0.5429 0.22876 0.0
C676 C 0.99624 0.5257 0.23414 0.0
C677 C 0.9884 0.53795 0.26355 0.0
C678 C 0.98558 0.52332 0.25178 0.0
C679 C 0.99335 0.51004 0.22217 0.0
C680 C 0.00981 0.45416 0.24563 0.0
C681 C 0.99865 0.44617 0.26324 0.0
C682 C 0.00778 0.46592 0.23277 0.0
C683 C 0.99449 0.46989 0.23717 0.0
C684 C 0.98555 0.45044 0.2678 0.0
C685 C 0.98359 0.46229 0.25496 0.0
C686 C 0.99248 0.48256 0.22379 0.0
C687 C 0.97491 0.43452 0.18219 0.0
C688 C 0.98572 0.43803 0.16427 0.0
C689 C 0.97678 0.44847 0.19465 0.0
C690 C 0.98951 0.46617 0.18943 0.0
C691 C 0.99855 0.45576 0.15924 0.0
C692 C 0.00033 0.46967 0.17161 0.0
C693 C 0.99094 0.48119 0.20151 0.0
H694 H 0.97388 0.5488 0.18165 0.0
H695 H 0.97375 0.52671 0.20543 0.0
H696 H 0.00624 0.54069 0.13732 0.0
H697 H 0.00726 0.5196 0.16155 0.0
H698 H 0.02387 0.57064 0.23611 0.0
H699 H 0.01887 0.54501 0.21556 0.0
H700 H 0.97966 0.5357 0.27679 0.0
H701 H 0.97491 0.51014 0.25632 0.0
H702 H 0.02032 0.45154 0.24191 0.0
H703 H 0.01673 0.47207 0.21951 0.0
H704 H 0.97663 0.44443 0.28111 0.0
H705 H 0.97337 0.46532 0.25875 0.0
H706 H 0.96493 0.421 0.18649 0.0
H707 H 0.968 0.44544 0.20807 0.0
H708 H 0.00686 0.45894 0.14534 0.0
H709 H 0.01012 0.48322 0.16716 0.0
N710 N 0.99064 0.49426 0.19048 0.0
N711 N 0.99352 0.49687 0.23326 0.0
C712 C 0.48559 0.40969 0.16952 0.0
C713 C 0.48062 0.41404 0.15025 0.0
C714 C 0.49917 0.42306 0.18226 0.0
C715 C 0.50731 0.44103 0.17638 0.0
C716 C 0.48969 0.43181 0.14368 0.0
C717 C 0.50279 0.44513 0.15662 0.0
C718 C 0.52025 0.45593 0.19034 0.0
C719 C 0.47085 0.42613 0.23129 0.0
C720 C 0.47383 0.42151 0.25156 0.0
C721 C 0.48535 0.43693 0.21819 0.0
C722 C 0.50306 0.44275 0.2248 0.0
C723 C 0.49147 0.42718 0.25815 0.0
C724 C 0.50596 0.43765 0.24484 0.0
C725 C 0.51862 0.45638 0.21262 0.0
C726 C 0.55904 0.53225 0.23386 0.0
C727 C 0.56725 0.53253 0.25326 0.0
C728 C 0.55207 0.51751 0.22052 0.0
C729 C 0.55335 0.5028 0.22615 0.0
C730 C 0.56891 0.51798 0.2587 0.0
C731 C 0.56184 0.50315 0.24533 0.0
C732 C 0.54368 0.48628 0.21351 0.0
C733 C 0.58771 0.52605 0.17038 0.0
C734 C 0.58067 0.53117 0.15357 0.0
C735 C 0.57623 0.51147 0.18306 0.0
C736 C 0.55763 0.50169 0.17879 0.0
C737 C 0.56204 0.52147 0.14959 0.0
C738 C 0.55067 0.50677 0.16195 0.0
C739 C 0.54518 0.48592 0.19136 0.0
H740 H 0.47882 0.39602 0.17481 0.0
H741 H 0.5029 0.41935 0.19692 0.0
H742 H 0.48599 0.43554 0.12899 0.0
H743 H 0.50888 0.45879 0.15143 0.0
H744 H 0.45738 0.42226 0.22607 0.0
H745 H 0.48273 0.44135 0.2033 0.0
H746 H 0.49407 0.42387 0.27379 0.0
H747 H 0.51952 0.4423 0.25048 0.0
H748 H 0.55768 0.54332 0.22916 0.0
H749 H 0.54504 0.51736 0.20619 0.0
H750 H 0.57504 0.51777 0.27364 0.0
H751 H 0.56265 0.49179 0.25017 0.0
H752 H 0.60205 0.53331 0.17368 0.0
H753 H 0.58187 0.50766 0.1959 0.0
H754 H 0.55631 0.52498 0.13654 0.0
H755 H 0.53635 0.49939 0.1584 0.0
N756 N 0.53349 0.4708 0.18074 0.0
N757 N 0.53056 0.47147 0.22325 0.0
C758 C 0.47211 0.03586 0.24326 0.0
C759 C 0.46373 0.02343 0.25958 0.0
C760 C 0.48751 0.03804 0.23365 0.0
C761 C 0.49441 0.02735 0.23965 0.0
C762 C 0.47134 0.01363 0.26659 0.0
C763 C 0.48653 0.01554 0.25667 0.0
C764 C 0.50959 0.02812 0.22814 0.0
C765 C 0.46531 0.00924 0.17925 0.0
C766 C 0.46917 0.02054 0.16175 0.0
C767 C 0.47878 0.0123 0.19385 0.0
C768 C 0.49637 0.0269 0.19149 0.0
C769 C 0.48672 0.03531 0.15956 0.0
C770 C 0.50023 0.03837 0.17423 0.0
C771 C 0.51102 0.0292 0.20583 0.0
C772 C 0.56981 0.01594 0.18571 0.0
C773 C 0.5789 0.02899 0.1701 0.0
C774 C 0.55702 0.01633 0.19855 0.0
C775 C 0.5533 0.02995 0.19625 0.0
C776 C 0.57516 0.04263 0.16798 0.0
C777 C 0.56247 0.04305 0.18085 0.0
C778 C 0.53873 0.02982 0.20825 0.0
C779 C 0.58007 0.03437 0.2549 0.0
C780 C 0.57319 0.02069 0.27002 0.0
C781 C 0.56844 0.03723 0.24245 0.0
C782 C 0.54969 0.02614 0.24448 0.0
C783 C 0.55448 0.0102 0.27278 0.0
C784 C 0.54285 0.0129 0.26013 0.0
C785 C 0.53697 0.02801 0.23051 0.0
H786 H 0.46662 0.04376 0.23782 0.0
H787 H 0.49376 0.04783 0.22121 0.0
H788 H 0.46509 0.00393 0.27913 0.0
H789 H 0.49171 0.00731 0.26182 0.0
H790 H 0.45189 0.99782 0.18148 0.0
H791 H 0.47554 0.00296 0.20669 0.0
H792 H 0.49018 0.04412 0.14611 0.0
H793 H 0.51377 0.04957 0.17193 0.0
H794 H 0.5724 0.00528 0.18784 0.0
H795 H 0.54976 0.00578 0.20993 0.0
H796 H 0.58156 0.05268 0.15584 0.0
H797 H 0.55959 0.05351 0.17855 0.0
H798 H 0.59447 0.04286 0.25274 0.0
H799 H 0.57411 0.04799 0.2311 0.0
H800 H 0.54879 0.99953 0.28426 0.0
H801 H 0.52845 0.00428 0.26217 0.0
N802 N 0.52249 0.0273 0.23955 0.0
N803 N 0.52567 0.03032 0.19685 0.0
C804 C 0.53334 0.97732 0.7892 0.0
C805 C 0.52927 0.96712 0.77066 0.0
C806 C 0.51962 0.97685 0.80096 0.0
C807 C 0.50151 0.96574 0.79477 0.0
C808 C 0.51118 0.95592 0.76454 0.0
C809 C 0.49743 0.95521 0.77652 0.0
C810 C 0.48692 0.96647 0.80563 0.0
C811 C 0.51357 0.95161 0.85759 0.0
C812 C 0.52001 0.9636 0.87471 0.0
C813 C 0.50238 0.95246 0.84205 0.0
C814 C 0.49779 0.96553 0.84326 0.0
C815 C 0.51544 0.97667 0.87569 0.0
C816 C 0.50443 0.97757 0.86022 0.0
C817 C 0.48536 0.96653 0.8279 0.0
C818 C 0.41462 0.9616 0.84034 0.0
C819 C 0.41935 0.973 0.8579 0.0
C820 C 0.4279 0.96096 0.82882 0.0
C821 C 0.44613 0.97174 0.83466 0.0
C822 C 0.43764 0.98398 0.86343 0.0
C823 C 0.45087 0.98326 0.85201 0.0
C824 C 0.46029 0.97035 0.82379 0.0
C825 C 0.43937 0.9938 0.77777 0.0
C826 C 0.43173 0.984 0.75904 0.0
C827 C 0.44945 0.98973 0.79138 0.0
C828 C 0.45169 0.97542 0.78698 0.0
C829 C 0.43461 0.97011 0.75424 0.0
C830 C 0.44451 0.96589 0.76806 0.0
C831 C 0.46219 0.97092 0.80158 0.0
H832 H 0.54721 0.98639 0.79396 0.0
H833 H 0.52327 0.98574 0.81436 0.0
H834 H 0.50772 0.94801 0.75024 0.0
H835 H 0.4836 0.94673 0.77125 0.0
H836 H 0.51683 0.94136 0.85649 0.0
H837 H 0.49712 0.94278 0.82934 0.0
H838 H 0.52048 0.98634 0.8884 0.0
H839 H 0.50113 0.98778 0.86152 0.0
H840 H 0.40064 0.953 0.83571 0.0
H841 H 0.4239 0.95174 0.8157 0.0
H842 H 0.44172 0.99265 0.87711 0.0
H843 H 0.46483 0.9916 0.85689 0.0
H844 H 0.43738 0.00448 0.78219 0.0
H845 H 0.45548 0.99783 0.80539 0.0
H846 H 0.42929 0.96251 0.73976 0.0
H847 H 0.4464 0.95504 0.76407 0.0
N848 N 0.47525 0.96868 0.79338 0.0
N849 N 0.47205 0.96839 0.83599 0.0
C850 C 0.98614 0.54715 0.77748 0.0
C851 C 0.99697 0.55554 0.75974 0.0
C852 C 0.98869 0.53547 0.7898 0.0
C853 C 0.00215 0.53189 0.78475 0.0
C854 C 0.01026 0.55168 0.7545 0.0
C855 C 0.01272 0.53986 0.7668 0.0
C856 C 0.0045 0.51919 0.79767 0.0
C857 C 0.02499 0.56706 0.84043 0.0
C858 C 0.01457 0.56407 0.85858 0.0
C859 C 0.0217 0.55288 0.82738 0.0
C860 C 0.00799 0.53546 0.83231 0.0
C861 C 0.0006 0.54668 0.86318 0.0
C862 C 0.99746 0.5325 0.85028 0.0
C863 C 0.0056 0.52011 0.82 0.0
C864 C 0.0127 0.45818 0.84596 0.0
C865 C -0.00049 0.45101 0.86178 0.0
C866 C 0.01416 0.47154 0.83253 0.0
C867 C 0.00248 0.47794 0.8348 0.0
C868 C 0.98806 0.45765 0.86412 0.0
C869 C 0.98961 0.47104 0.85087 0.0
C870 C 0.00377 0.49222 0.82117 0.0
C871 C 0.9859 0.44453 0.77997 0.0
C872 C 0.99819 0.44729 0.76394 0.0
C873 C 0.98742 0.45888 0.79115 0.0
C874 C 0.00141 0.47629 0.78675 0.0
C875 C 0.0119 0.46479 0.7592 0.0
C876 C 0.01343 0.47915 0.77044 0.0
C877 C 0.00336 0.49157 0.79879 0.0
H878 H 0.97545 0.54938 0.7817 0.0
H879 H 0.97994 0.52902 0.80316 0.0
H880 H 0.01895 0.55799 0.74106 0.0
H881 H 0.02306 0.53713 0.76249 0.0
H882 H 0.03582 0.58033 0.83648 0.0
H883 H 0.03025 0.55545 0.81383 0.0
H884 H 0.99251 0.54392 0.87721 0.0
H885 H 0.98692 0.51916 0.85449 0.0
H886 H 0.02171 0.45331 0.84382 0.0
H887 H 0.02445 0.47694 0.8205 0.0
H888 H 0.97799 0.45264 0.87641 0.0
H889 H 0.9806 0.47591 0.85305 0.0
H890 H 0.97493 0.43127 0.7837 0.0
H891 H 0.97761 0.45637 0.80321 0.0
H892 H 0.02166 0.46739 0.74705 0.0
H893 H 0.02423 0.49249 0.76666 0.0
N894 N 0.0037 0.50508 0.78787 0.0
N895 N 0.00494 0.50649 0.83085 0.0
C896 C 0.52757 0.58769 0.78159 0.0
C897 C 0.53525 0.5796 0.77034 0.0
C898 C 0.51069 0.57723 0.79108 0.0
C899 C 0.50144 0.55858 0.78954 0.0
C900 C 0.52527 0.56113 0.76738 0.0
C901 C 0.50858 0.55076 0.77684 0.0
C902 C 0.48514 0.54673 0.80209 0.0
C903 C 0.52959 0.57622 0.84959 0.0
C904 C 0.52725 0.58727 0.86346 0.0
C905 C 0.51552 0.56414 0.83655 0.0
C906 C 0.49884 0.56301 0.83669 0.0
C907 C 0.51045 0.58599 0.86383 0.0
C908 C 0.49632 0.57389 0.85059 0.0
C909 C 0.48368 0.54913 0.82395 0.0
C910 C 0.43474 0.47794 0.85708 0.0
C911 C 0.4236 0.4805 0.87067 0.0
C912 C 0.44501 0.49062 0.84178 0.0
C913 C 0.44418 0.50602 0.83957 0.0
C914 C 0.42251 0.49577 0.86806 0.0
C915 C 0.43283 0.50847 0.85277 0.0
C916 C 0.45677 0.52047 0.8254 0.0
C917 C 0.41972 0.47274 0.78529 0.0
C918 C 0.42913 0.46661 0.77369 0.0
C919 C 0.42896 0.48962 0.79473 0.0
C920 C 0.44775 0.50052 0.79278 0.0
C921 C 0.44776 0.4779 0.77103 0.0
C922 C 0.45693 0.49461 0.78044 0.0
C923 C 0.45844 0.51789 0.80369 0.0
H924 H 0.53497 0.60194 0.78395 0.0
H925 H 0.50525 0.58364 0.80029 0.0
H926 H 0.53072 0.55459 0.7584 0.0
H927 H 0.50173 0.53646 0.77513 0.0
H928 H 0.54213 0.57641 0.84936 0.0
H929 H 0.51757 0.55535 0.82668 0.0
H930 H 0.50821 0.59425 0.87442 0.0
H931 H 0.48341 0.57292 0.85128 0.0
H932 H 0.4362 0.46654 0.8589 0.0
H933 H 0.45412 0.48871 0.83223 0.0
H934 H 0.41392 0.49807 0.87809 0.0
H935 H 0.43219 0.52038 0.85149 0.0
H936 H 0.40533 0.46434 0.78752 0.0
H937 H 0.42149 0.49402 0.80374 0.0
H938 H 0.45535 0.47376 0.76177 0.0
H939 H 0.47139 0.50275 0.77851 0.0
N940 N 0.47244 0.53121 0.79296 0.0
N941 N 0.4694 0.53604 0.83463 0.0
C942 C 0.65403 0.77837 0.51198 0.0
C943 C 0.63716 0.76858 0.50168 0.0
C944 C 0.65751 0.79185 0.52636 0.0
C945 C 0.64421 0.79582 0.53067 0.0
C946 C 0.62367 0.77217 0.5068 0.0
C947 C 0.62724 0.78578 0.52093 0.0
C948 C 0.64842 0.81157 0.54336 0.0
C949 C 0.64788 0.77226 0.5898 0.0
C950 C 0.66461 0.77829 0.59983 0.0
C951 C 0.64489 0.78394 0.57794 0.0
C952 C 0.65859 0.80185 0.57591 0.0
C953 C 0.67829 0.79622 0.59771 0.0
C954 C 0.67524 0.80791 0.58602 0.0
C955 C 0.65546 0.8146 0.56423 0.0
C956 C 0.64864 0.87609 0.59054 0.0
C957 C 0.66484 0.88675 0.60176 0.0
C958 C 0.6461 0.8617 0.57852 0.0
C959 C 0.65966 0.85763 0.57755 0.0
C960 C 0.67839 0.88262 0.60087 0.0
C961 C 0.67572 0.86803 0.58906 0.0
C962 C 0.65684 0.84232 0.56483 0.0
C963 C 0.66725 0.88391 0.5168 0.0
C964 C 0.65264 0.8802 0.50342 0.0
C965 C 0.66637 0.87092 0.53027 0.0
C966 C 0.65086 0.85387 0.53076 0.0
C967 C 0.63701 0.86313 0.5041 0.0
C968 C 0.6362 0.85005 0.51753 0.0
C969 C 0.65074 0.83971 0.54359 0.0
H970 H 0.66485 0.7762 0.50826 0.0
H971 H 0.67083 0.79967 0.53339 0.0
H972 H 0.61041 0.76468 0.49959 0.0
H973 H 0.61681 0.78867 0.52403 0.0
H974 H 0.6371 0.75851 0.59109 0.0
H975 H 0.6318 0.77902 0.57067 0.0
H976 H 0.69124 0.80131 0.60547 0.0
H977 H 0.68594 0.82171 0.58483 0.0
H978 H 0.63802 0.87902 0.59085 0.0
H979 H 0.63347 0.85368 0.57006 0.0
H980 H 0.69094 0.89055 0.60952 0.0
H981 H 0.6863 0.86503 0.58864 0.0
H982 H 0.67971 0.89667 0.51634 0.0
H983 H 0.67812 0.87405 0.53975 0.0
H984 H 0.62545 0.85981 0.49417 0.0
H985 H 0.62417 0.83692 0.51749 0.0
N986 N 0.64649 0.82431 0.53379 0.0
N987 N 0.65926 0.82982 0.57426 0.0
C988 C 0.143 0.75095 0.50411 0.0
C989 C 0.13531 0.75746 0.48984 0.0
C990 C 0.15783 0.76279 0.51675 0.0
C991 C 0.1651 0.78121 0.51504 0.0
C992 C 0.14307 0.77585 0.48765 0.0
C993 C 0.15789 0.78759 0.49998 0.0
C994 C 0.17968 0.79423 0.52917 0.0
C995 C 0.13093 0.76289 0.57009 0.0
C996 C 0.13374 0.75615 0.58892 0.0
C997 C 0.14549 0.77475 0.55771 0.0
C998 C 0.16312 0.77953 0.56341 0.0
C999 C 0.15133 0.76104 0.59486 0.0
C1000 C 0.1659 0.77257 0.58213 0.0
C1001 C 0.17881 0.79347 0.55156 0.0
C1002 C 0.22355 0.86818 0.57604 0.0
C1003 C 0.23255 0.86782 0.59445 0.0
C1004 C 0.21533 0.85362 0.56243 0.0
C1005 C 0.21605 0.83839 0.56679 0.0
C1006 C 0.23362 0.85273 0.59866 0.0
C1007 C 0.22521 0.83801 0.58503 0.0
C1008 C 0.20543 0.82236 0.55353 0.0
C1009 C 0.25083 0.86112 0.51115 0.0
C1010 C 0.24482 0.86804 0.4952 0.0
C1011 C 0.2384 0.84664 0.52332 0.0
C1012 C 0.21985 0.83872 0.5194 0.0
C1013 C 0.22625 0.86026 0.49163 0.0
C1014 C 0.21391 0.84564 0.50346 0.0
C1015 C 0.20641 0.82292 0.53125 0.0
H1016 H 0.13719 0.73678 0.50596 0.0
H1017 H 0.16335 0.75761 0.52811 0.0
H1018 H 0.13741 0.78113 0.47662 0.0
H1019 H 0.16329 0.80171 0.49832 0.0
H1020 H 0.11752 0.7597 0.56553 0.0
H1021 H 0.14292 0.78069 0.54417 0.0
H1022 H 0.1538 0.75617 0.60949 0.0
H1023 H 0.17939 0.77639 0.58716 0.0
H1024 H 0.22263 0.87968 0.57232 0.0
H1025 H 0.20786 0.85406 0.54885 0.0
H1026 H 0.24038 0.85209 0.61283 0.0
H1027 H 0.22564 0.82626 0.58886 0.0
H1028 H 0.2651 0.86688 0.51412 0.0
H1029 H 0.24326 0.84139 0.53545 0.0
H1030 H 0.22128 0.86518 0.47924 0.0
H1031 H 0.19965 0.83972 0.50019 0.0
N1032 N 0.19346 0.80892 0.51999 0.0
N1033 N 0.1918 0.80757 0.56283 0.0
C1034 C 0.25082 0.377 0.51834 0.0
C1035 C 0.24575 0.36646 0.49994 0.0
C1036 C 0.23777 0.37737 0.53071 0.0
C1037 C 0.21952 0.36737 0.52467 0.0
C1038 C 0.22746 0.35637 0.49414 0.0
C1039 C 0.21452 0.35695 0.50627 0.0
C1040 C 0.20545 0.36796 0.53684 0.0
C1041 C 0.22355 0.33764 0.57596 0.0
C1042 C 0.2308 0.34503 0.59596 0.0
C1043 C 0.21447 0.34386 0.56386 0.0
C1044 C 0.21275 0.35789 0.57123 0.0
C1045 C 0.22873 0.35884 0.60352 0.0
C1046 C 0.21971 0.36514 0.5913 0.0
C1047 C 0.20263 0.36412 0.55868 0.0
C1048 C 0.12804 0.34724 0.57019 0.0
C1049 C 0.12888 0.35756 0.58761 0.0
C1050 C 0.14372 0.35038 0.56045 0.0
C1051 C 0.1606 0.36394 0.56783 0.0
C1052 C 0.14589 0.37082 0.59538 0.0
C1053 C 0.16164 0.37391 0.58562 0.0
C1054 C 0.17707 0.36735 0.55708 0.0
C1055 C 0.1463 0.38329 0.5145 0.0
C1056 C 0.14206 0.37511 0.4945 0.0
C1057 C 0.15918 0.38282 0.52752 0.0
C1058 C 0.16742 0.37348 0.52111 0.0
C1059 C 0.15113 0.36681 0.48755 0.0
C1060 C 0.1636 0.36594 0.50074 0.0
C1061 C 0.17989 0.37118 0.53517 0.0
H1062 H 0.26485 0.38494 0.5231 0.0
H1063 H 0.24192 0.38566 0.54474 0.0
H1064 H 0.22321 0.34836 0.47986 0.0
H1065 H 0.20052 0.34919 0.5013 0.0
H1066 H 0.22499 0.3271 0.56952 0.0
H1067 H 0.20861 0.33752 0.54881 0.0
H1068 H 0.23385 0.36464 0.619 0.0
H1069 H 0.21821 0.37572 0.5975 0.0
H1070 H 0.11524 0.33655 0.56417 0.0
H1071 H 0.14266 0.34223 0.54706 0.0
H1072 H 0.14702 0.379 0.60875 0.0
H1073 H 0.1746 0.3843 0.59167 0.0
H1074 H 0.13958 0.38991 0.52008 0.0
H1075 H 0.16245 0.38953 0.54268 0.0
H1076 H 0.14799 0.3603 0.47225 0.0
H1077 H 0.16982 0.35881 0.4952 0.0
N1078 N 0.19398 0.37128 0.52601 0.0
N1079 N 0.18861 0.3641 0.56801 0.0
H1080 H 0.00139 0.37681 0.06997 0.0
H1081 H 0.9539 0.40923 0.1505 0.0
H1082 H 0.94438 0.35713 0.06936 0.0
H1083 H 0.01148 0.43371 0.14559 0.0
H1084 H 0.94983 0.38697 0.12446 0.0
H1085 H 0.00492 0.39468 0.10118 0.0
C1086 C 0.98957 0.37609 0.07651 0.0
C1087 C 0.97258 0.36557 0.06687 0.0
C1088 C 0.96336 0.39713 0.1292 0.0
C1089 C 0.97656 0.38606 0.10259 0.0
C1090 C 0.96569 0.40977 0.14418 0.0
C1091 C 0.98307 0.42344 0.15011 0.0
C1092 C 0.97851 0.39813 0.12009 0.0
C1093 C 0.99785 0.42358 0.14121 0.0
C1094 C 0.99162 0.38634 0.09431 0.0
C1095 C 0.95776 0.36515 0.07613 0.0
N1096 N 0.99524 0.41119 0.12657 0.0
N1097 N 0.96012 0.37533 0.09337 0.0
H1098 H 0.62423 0.61936 0.06575 0.0
H1099 H 0.61049 0.53629 0.13321 0.0
H1100 H 0.63947 0.58279 0.04388 0.0
H1101 H 0.57758 0.55914 0.14108 0.0
H1102 H 0.6273 0.55819 0.10551 0.0
H1103 H 0.61278 0.60189 0.09835 0.0
C1104 C 0.62532 0.60777 0.06789 0.0
C1105 C 0.63262 0.60238 0.05201 0.0
C1106 C 0.61654 0.55853 0.11351 0.0
C1107 C 0.61981 0.58258 0.08922 0.0
C1108 C 0.60707 0.54616 0.12938 0.0
C1109 C 0.59259 0.54588 0.13926 0.0
C1110 C 0.6116 0.57081 0.10769 0.0
C1111 C 0.58856 0.55884 0.13363 0.0
C1112 C 0.61877 0.59782 0.08644 0.0
C1113 C 0.63373 0.58728 0.05561 0.0
N1114 N 0.59797 0.57076 0.11813 0.0
N1115 N 0.62738 0.5779 0.07382 0.0
H1116 H 0.3842 0.9648 0.06975 0.0
H1117 H 0.46128 0.04314 0.14068 0.0
H1118 H 0.39485 0.01838 0.06763 0.0
H1119 H 0.4454 0.98802 0.14486 0.0
H1120 H 0.43819 0.0352 0.11305 0.0
H1121 H 0.40773 0.97396 0.09629 0.0
C1122 C 0.39151 0.97855 0.07483 0.0
C1123 C 0.38745 0.99082 0.06641 0.0
C1124 C 0.43977 0.02488 0.12009 0.0
C1125 C 0.41465 0.00146 0.09713 0.0
C1126 C 0.45297 0.0294 0.13578 0.0
C1127 C 0.45519 0.0162 0.14521 0.0
C1128 C 0.42884 0.00707 0.11371 0.0
C1129 C 0.44398 0.9986 0.13834 0.0
C1130 C 0.40499 0.98378 0.09009 0.0
C1131 C 0.3975 0.00846 0.07369 0.0
N1132 N 0.43136 0.99458 0.12305 0.0
N1133 N 0.41065 0.01327 0.08868 0.0
H1134 H 0.37001 0.99901 0.95693 0.0
H1135 H 0.38819 0.9438 0.87157 0.0
H1136 H 0.34606 0.94212 0.95848 0.0
H1137 H 0.41883 0.00101 0.87577 0.0
H1138 H 0.36782 0.94293 0.89846 0.0
H1139 H 0.38314 -0.00022 0.92259 0.0
C1140 C 0.36726 0.98665 0.94991 0.0
C1141 C 0.35717 0.9705 0.96077 0.0
C1142 C 0.37886 0.95569 0.8933 0.0
C1143 C 0.37219 0.97132 0.92156 0.0
C1144 C 0.39042 0.95621 0.87782 0.0
C1145 C 0.40537 0.9725 0.87162 0.0
C1146 C 0.38228 0.97158 0.90268 0.0
C1147 C 0.40767 0.98815 0.88043 0.0
C1148 C 0.37482 0.98711 0.93034 0.0
C1149 C 0.35399 0.9549 0.95085 0.0
N1150 N 0.39637 0.9873 0.89568 0.0
N1151 N 0.36162 0.95572 0.93192 0.0
H1152 H 0.95452 0.3632 0.94823 0.0
H1153 H 0.02603 0.44853 0.88268 0.0
H1154 H 0.01181 0.38978 0.95992 0.0
H1155 H 0.96845 0.42093 0.87333 0.0
H1156 H 0.02181 0.42594 0.90871 0.0
H1157 H 0.96005 0.38302 0.91868 0.0
C1158 C 0.96832 0.3732 0.94456 0.0
C1159 C 0.98272 0.37491 0.95675 0.0
C1160 C 0.01013 0.42479 0.90084 0.0
C1161 C 0.98918 0.39787 0.92272 0.0
C1162 C 0.01254 0.43761 0.88591 0.0
C1163 C 0.99755 0.4367 0.87603 0.0
C1164 C 0.99263 0.41097 0.90578 0.0
C1165 C 0.98036 0.42233 0.88087 0.0
C1166 C 0.97148 0.38454 0.9276 0.0
C1167 C 0.0003 0.38803 0.95101 0.0
N1168 N 0.97839 0.41012 0.89545 0.0
N1169 N 0.00305 0.39912 0.93448 0.0
H1170 H 0.62546 0.62255 0.92642 0.0
H1171 H 0.52515 0.59352 0.90569 0.0
H1172 H 0.5963 0.63261 0.97341 0.0
H1173 H 0.56325 0.60775 0.85512 0.0
H1174 H 0.55034 0.60846 0.93094 0.0
H1175 H 0.60247 0.6173 0.90013 0.0
C1176 C 0.61424 0.62382 0.93111 0.0
C1177 C 0.61265 0.6279 0.95206 0.0
C1178 C 0.55315 0.60859 0.91426 0.0
C1179 C 0.58608 0.62159 0.92218 0.0
C1180 C 0.53879 0.60013 0.89981 0.0
C1181 C 0.54209 0.59906 0.8783 0.0
C1182 C 0.57084 0.61581 0.90712 0.0
C1183 C 0.56005 0.6078 0.87163 0.0
C1184 C 0.60117 0.62092 0.91609 0.0
C1185 C 0.59795 0.62951 0.95735 0.0
N1186 N 0.57372 0.61551 0.88602 0.0
N1187 N 0.58497 0.62598 0.94255 0.0
H1188 H 0.00767 0.63128 0.9524 0.0
H1189 H 0.04766 0.58982 0.87366 0.0
H1190 H 0.06113 0.64001 0.95894 0.0
H1191 H 0.99116 0.57161 0.87753 0.0
H1192 H 0.05412 0.61223 0.90074 0.0
H1193 H 0.00283 0.61337 0.92085 0.0
C1194 C 0.01848 0.6296 0.9471 0.0
C1195 C 0.03479 0.63706 0.95849 0.0
C1196 C 0.04033 0.60341 0.89554 0.0
C1197 C 0.02929 0.61649 0.92233 0.0
C1198 C 0.03665 0.59072 0.87999 0.0
C1199 C 0.01883 0.57878 0.87343 0.0
C1200 C 0.02611 0.60427 0.9045 0.0
C1201 C 0.00506 0.58041 0.88234 0.0
C1202 C 0.01567 0.61931 0.92911 0.0
C1203 C 0.0483 0.63442 0.95078 0.0
N1204 N 0.00898 0.59287 0.89745 0.0
N1205 N 0.04521 0.62429 0.93324 0.0
H1206 H 0.37217 0.3887 0.95423 0.0
H1207 H 0.41963 0.4886 0.91123 0.0
H1208 H 0.38511 0.43432 0.99265 0.0
H1209 H 0.40665 0.44397 0.87092 0.0
H1210 H 0.40592 0.46836 0.94085 0.0
H1211 H 0.38404 0.40822 0.92324 0.0
C1212 C 0.3775 0.40278 0.95617 0.0
C1213 C 0.37767 0.40986 0.97612 0.0
C1214 C 0.40597 0.46293 0.92553 0.0
C1215 C 0.39119 0.43221 0.94078 0.0
C1216 C 0.41368 0.4745 0.90851 0.0
C1217 C 0.41427 0.46801 0.88847 0.0
C1218 C 0.39881 0.44466 0.92264 0.0
C1219 C 0.40668 0.4496 0.88613 0.0
C1220 C 0.38424 0.4139 0.93848 0.0
C1221 C 0.38471 0.42821 0.97766 0.0
N1222 N 0.3993 0.43857 0.90302 0.0
N1223 N 0.39117 0.4387 0.96028 0.0
H1224 H 0.60913 0.97181 0.94914 0.0
H1225 H 0.51718 0.96627 0.91728 0.0
H1226 H 0.58803 0.00047 0.98018 0.0
H1227 H 0.54899 0.95921 0.87094 0.0
H1228 H 0.53896 0.97023 0.94465 0.0
H1229 H 0.58323 0.95918 0.92428 0.0
C1230 C 0.59888 0.97515 0.95094 0.0
C1231 C 0.60069 0.98726 0.96654 0.0
C1232 C 0.54108 0.96762 0.92853 0.0
C1233 C 0.57123 0.97282 0.93868 0.0
C1234 C 0.5287 0.96541 0.91289 0.0
C1235 C 0.53152 0.96285 0.89171 0.0
C1236 C 0.55643 0.96722 0.92305 0.0
C1237 C 0.54639 0.96129 0.88706 0.0
C1238 C 0.58423 0.96805 0.93675 0.0
C1239 C 0.58718 0.9913 0.96821 0.0
N1240 N 0.55848 0.96375 0.9026 0.0
N1241 N 0.57305 0.98411 0.95447 0.0
H1242 H 0.62283 0.99421 0.0726 0.0
H1243 H 0.61062 0.05628 0.15405 0.0
H1244 H 0.64661 0.05071 0.06452 0.0
H1245 H 0.57561 0.99923 0.15174 0.0
H1246 H 0.62865 0.05451 0.12592 0.0
H1247 H 0.61039 0.99609 0.1064 0.0
C1248 C 0.62569 0.00706 0.07808 0.0
C1249 C 0.6356 0.0223 0.06559 0.0
C1250 C 0.61712 0.04237 0.13173 0.0
C1251 C 0.6214 0.02451 0.10419 0.0
C1252 C 0.60676 0.04337 0.14774 0.0
C1253 C 0.59137 0.02791 0.1551 0.0
C1254 C 0.61215 0.0258 0.12304 0.0
C1255 C 0.58736 0.0115 0.14667 0.0
C1256 C 0.61851 0.00809 0.09732 0.0
C1257 C 0.63887 0.03858 0.0735 0.0
N1258 N 0.59759 0.0109 0.13096 0.0
N1259 N 0.6317 0.03923 0.09222 0.0
H1260 H 0.03787 0.64109 0.08682 0.0
H1261 H 0.97738 0.54151 0.11716 0.0
H1262 H 0.98914 0.60737 0.05117 0.0
H1263 H 0.00423 0.58153 0.16549 0.0
H1264 H 0.98206 0.56474 0.09185 0.0
H1265 H 0.02677 0.61912 0.11532 0.0
C1266 C 0.02473 0.62911 0.08514 0.0
C1267 C 0.0144 0.62595 0.06666 0.0
C1268 C 0.98661 0.56838 0.10809 0.0
C1269 C 0.00183 0.60065 0.0989 0.0
C1270 C 0.984 0.55519 0.12246 0.0
C1271 C 0.99046 0.55973 0.14332 0.0
C1272 C 0.99621 0.58623 0.11456 0.0
C1273 C 0.99901 0.57757 0.14952 0.0
C1274 C 0.01838 0.61664 0.10141 0.0
C1275 C 0.99745 0.61028 0.06523 0.0
N1276 N 0.00196 0.59026 0.13507 0.0
N1277 N 0.99181 0.59798 0.081 0.0
H1278 H 0.40463 0.36796 0.04698 0.0
H1279 H 0.44638 0.39254 0.16414 0.0
H1280 H 0.38087 0.3797 0.09908 0.0
H1281 H 0.47881 0.40617 0.10812 0.0
H1282 H 0.41918 0.37678 0.14189 0.0
H1283 H 0.42874 0.37144 0.07102 0.0
C1284 C 0.40426 0.37083 0.06356 0.0
C1285 C 0.39095 0.3738 0.07107 0.0
C1286 C 0.43228 0.38283 0.13456 0.0
C1287 C 0.41811 0.3775 0.09848 0.0
C1288 C 0.44776 0.39167 0.14723 0.0
C1289 C 0.46477 0.40074 0.13786 0.0
C1290 C 0.4339 0.38297 0.11244 0.0
C1291 C 0.46587 0.39942 0.11586 0.0
C1292 C 0.418 0.37287 0.0772 0.0
C1293 C 0.39107 0.37755 0.09265 0.0
N1294 N 0.45061 0.39088 0.10382 0.0
N1295 N 0.40449 0.37939 0.10558 0.0
H1296 H 0.64861 0.69992 0.41392 0.0
H1297 H 0.61765 0.76202 0.46482 0.0
H1298 H 0.60669 0.70672 0.38729 0.0
H1299 H 0.64975 0.74566 0.49925 0.0
H1300 H 0.61371 0.74184 0.43632 0.0
H1301 H 0.64954 0.71663 0.44526 0.0
C1302 C 0.63951 0.7048 0.41471 0.0
C1303 C 0.62762 0.70198 0.39786 0.0
C1304 C 0.6215 0.74254 0.45017 0.0
C1305 C 0.62875 0.72124 0.4336 0.0
C1306 C 0.62367 0.75401 0.46661 0.0
C1307 C 0.63402 0.75558 0.48465 0.0
C1308 C 0.6299 0.73265 0.45152 0.0
C1309 C 0.64187 0.74512 0.48558 0.0
C1310 C 0.64004 0.71432 0.43262 0.0
C1311 C 0.61611 0.70858 0.39983 0.0
N1312 N 0.63974 0.73419 0.4692 0.0
N1313 N 0.61708 0.71802 0.41726 0.0
H1314 H 0.30566 0.91656 0.38441 0.0
H1315 H 0.24556 0.8985 0.48504 0.0
H1316 H 0.29269 0.95451 0.40742 0.0
H1317 H 0.27282 0.87032 0.47331 0.0
H1318 H 0.2637 0.91997 0.45764 0.0
H1319 H 0.29481 0.90012 0.41755 0.0
C1320 C 0.3007 0.92154 0.39653 0.0
C1321 C 0.2999 0.93683 0.39305 0.0
C1322 C 0.26595 0.90928 0.46129 0.0
C1323 C 0.28729 0.91796 0.43093 0.0
C1324 C 0.25558 0.89702 0.47686 0.0
C1325 C 0.25765 0.8826 0.48127 0.0
C1326 C 0.27823 0.90688 0.44976 0.0
C1327 C 0.27087 0.8813 0.47038 0.0
C1328 C 0.29457 0.91218 0.41548 0.0
C1329 C 0.29349 0.94275 0.40939 0.0
N1330 N 0.28046 0.89312 0.45486 0.0
N1331 N 0.28717 0.93315 0.4275 0.0
H1332 H 0.07112 0.36418 0.39013 0.0
H1333 H 0.1074 0.36205 0.50631 0.0
H1334 H 0.04208 0.32115 0.43417 0.0
H1335 H 0.14284 0.38441 0.45296 0.0
H1336 H 0.08171 0.35457 0.48287 0.0
H1337 H 0.09597 0.37889 0.41616 0.0
C1338 C 0.06986 0.35803 0.4054 0.0
C1339 C 0.05469 0.34138 0.41001 0.0
C1340 C 0.09517 0.36143 0.47642 0.0
C1341 C 0.08265 0.35815 0.43972 0.0
C1342 C 0.10979 0.3658 0.48977 0.0
C1343 C 0.12717 0.37373 0.48145 0.0
C1344 C 0.09802 0.36528 0.45472 0.0
C1345 C 0.12958 0.37816 0.45987 0.0
C1346 C 0.084 0.36636 0.42015 0.0
C1347 C 0.05367 0.33389 0.42996 0.0
N1348 N 0.11512 0.37379 0.44717 0.0
N1349 N 0.06747 0.34232 0.44409 0.0
H1350 H 0.03665 0.32995 0.29515 0.0
H1351 H 0.06249 0.27295 0.22183 0.0
H1352 H 0.02663 0.27813 0.31217 0.0
H1353 H 0.08481 0.32924 0.2145 0.0
H1354 H 0.0438 0.27268 0.25073 0.0
H1355 H 0.04905 0.32787 0.26151 0.0
C1356 C 0.03689 0.31806 0.29175 0.0
C1357 C 0.03077 0.30427 0.30662 0.0
C1358 C 0.05263 0.28504 0.24262 0.0
C1359 C 0.0449 0.30181 0.26811 0.0
C1360 C 0.06318 0.28517 0.22604 0.0
C1361 C 0.07529 0.30117 0.21592 0.0
C1362 C 0.05414 0.301 0.24898 0.0
C1363 C 0.07579 0.31668 0.22211 0.0
C1364 C 0.044 0.3169 0.27255 0.0
C1365 C 0.03136 0.28916 0.30128 0.0
N1366 N 0.06545 0.31623 0.23832 0.0
N1367 N 0.03839 0.28837 0.2825 0.0
H1368 H 0.6849 0.73139 0.31303 0.0
H1369 H 0.68046 0.75961 0.19358 0.0
H1370 H 0.64007 0.7004 0.27053 0.0
H1371 H 0.70553 0.79779 0.24415 0.0
H1372 H 0.67308 0.73565 0.21902 0.0
H1373 H 0.69973 0.75377 0.28495 0.0
C1374 C 0.67838 0.72915 0.29768 0.0
C1375 C 0.66119 0.7142 0.29408 0.0
C1376 C 0.68053 0.74932 0.22441 0.0
C1377 C 0.67807 0.73935 0.26208 0.0
C1378 C 0.68482 0.76293 0.20994 0.0
C1379 C 0.69348 0.78058 0.21692 0.0
C1380 C 0.68518 0.75347 0.24588 0.0
C1381 C 0.69872 0.78428 0.23828 0.0
C1382 C 0.68679 0.74189 0.28176 0.0
C1383 C 0.65324 0.71189 0.27398 0.0
N1384 N 0.6944 0.7708 0.25209 0.0
N1385 N 0.66173 0.72434 0.25873 0.0
H1386 H 0.27911 0.9814 0.28735 0.0
H1387 H 0.17474 0.9147 0.26206 0.0
H1388 H 0.24682 0.92989 0.31613 0.0
H1389 H 0.21214 0.9456 0.21271 0.0
H1390 H 0.19952 0.92795 0.28778 0.0
H1391 H 0.25285 0.97538 0.26535 0.0
C1392 C 0.2664 0.96902 0.28932 0.0
C1393 C 0.26502 0.95603 0.30337 0.0
C1394 C 0.20219 0.93204 0.27137 0.0
C1395 C 0.23521 0.94933 0.27891 0.0
C1396 C 0.1881 0.92446 0.25665 0.0
C1397 C 0.19143 0.92866 0.23505 0.0
C1398 C 0.21972 0.94412 0.26455 0.0
C1399 C 0.20895 0.94187 0.22914 0.0
C1400 C 0.25154 0.9656 0.27678 0.0
C1401 C 0.24839 0.94015 0.30532 0.0
N1402 N 0.22254 0.94898 0.24379 0.0
N1403 N 0.23411 0.93725 0.29325 0.0
H1404 H 0.73579 0.97605 0.30304 0.0
H1405 H 0.67253 0.90723 0.21442 0.0
H1406 H 0.68119 0.96274 0.2911 0.0
H1407 H 0.72995 0.92962 0.21692 0.0
H1408 H 0.67563 0.92819 0.24179 0.0
H1409 H 0.73428 0.9599 0.27097 0.0
C1410 C 0.72353 0.96985 0.2936 0.0
C1411 C 0.70854 0.97063 0.29989 0.0
C1412 C 0.6876 0.92869 0.2362 0.0
C1413 C 0.70669 0.95201 0.26322 0.0
C1414 C 0.68581 0.9167 0.22063 0.0
C1415 C 0.70099 0.91664 0.21353 0.0
C1416 C 0.70466 0.94056 0.24497 0.0
C1417 C 0.71792 0.92928 0.22192 0.0
C1418 C 0.7227 0.96067 0.27525 0.0
C1419 C 0.69305 0.96243 0.28694 0.0
N1420 N 0.71928 0.94059 0.23741 0.0
N1421 N 0.69246 0.95331 0.26936 0.0
H1422 H 0.0349 0.71843 0.28242 0.0
H1423 H 0.0685 0.815 0.23569 0.0
H1424 H 0.03114 0.75932 0.31489 0.0
H1425 H 0.06715 0.77342 0.19833 0.0
H1426 H 0.05417 0.79413 0.26443 0.0
H1427 H 0.0465 0.7378 0.25125 0.0
C1428 C 0.03648 0.73143 0.283 0.0
C1429 C 0.03211 0.73727 0.30136 0.0
C1430 C 0.05685 0.78946 0.24991 0.0
C1431 C 0.04531 0.75942 0.26585 0.0
C1432 C 0.06491 0.80139 0.23331 0.0
C1433 C 0.06899 0.79601 0.21438 0.0
C1434 C 0.05293 0.77196 0.24782 0.0
C1435 C 0.06444 0.77824 0.21268 0.0
C1436 C 0.04305 0.74245 0.2652 0.0
C1437 C 0.03436 0.75422 0.30118 0.0
N1438 N 0.05673 0.76687 0.22924 0.0
N1439 N 0.04084 0.76466 0.28378 0.0
H1440 H 0.27742 0.31762 0.29683 0.0
H1441 H 0.23127 0.34764 0.20943 0.0
H1442 H 0.29595 0.37204 0.28047 0.0
H1443 H 0.21058 0.29269 0.22491 0.0
H1444 H 0.25657 0.35634 0.23353 0.0
H1445 H 0.25423 0.30774 0.26899 0.0
C1446 C 0.27669 0.32749 0.28735 0.0
C1447 C 0.28859 0.3457 0.29113 0.0
C1448 C 0.24659 0.34235 0.23165 0.0
C1449 C 0.26216 0.3345 0.25929 0.0
C1450 C 0.23212 0.33739 0.2179 0.0
C1451 C 0.21872 0.31944 0.21539 0.0
C1452 C 0.2477 0.3293 0.24316 0.0
C1453 C 0.22065 0.30668 0.22643 0.0
C1454 C 0.26345 0.32183 0.27147 0.0
C1455 C 0.28703 0.35787 0.2783 0.0
N1456 N 0.2348 0.31187 0.24004 0.0
N1457 N 0.27405 0.35205 0.26307 0.0
H1458 H 0.32077 0.39701 0.39893 0.0
H1459 H 0.24542 0.33798 0.48262 0.0
H1460 H 0.29714 0.34033 0.40446 0.0
H1461 H 0.27678 0.39521 0.48522 0.0
H1462 H 0.26558 0.33859 0.45554 0.0
H1463 H 0.30627 0.39681 0.43186 0.0
C1464 C 0.31266 0.38453 0.40717 0.0
C1465 C 0.31 0.36862 0.39877 0.0
C1466 C 0.26823 0.35102 0.46222 0.0
C1467 C 0.29324 0.3683 0.43646 0.0
C1468 C 0.2567 0.35067 0.47763 0.0
C1469 C 0.25937 0.36658 0.48599 0.0
C1470 C 0.28239 0.36741 0.45489 0.0
C1471 C 0.27428 0.38265 0.47919 0.0
C1472 C 0.30442 0.38445 0.42602 0.0
C1473 C 0.29949 0.3529 0.41026 0.0
N1474 N 0.28509 0.38267 0.4638 0.0
N1475 N 0.2913 0.3531 0.42837 0.0
H1476 H 0.65571 0.93929 0.39061 0.0
H1477 H 0.66997 0.91636 0.509 0.0
H1478 H 0.70407 0.97166 0.42754 0.0
H1479 H 0.63922 0.87534 0.46257 0.0
H1480 H 0.67653 0.93875 0.48198 0.0
H1481 H 0.64372 0.91763 0.41983 0.0
C1482 C 0.66365 0.94195 0.40498 0.0
C1483 C 0.68095 0.95716 0.40667 0.0
C1484 C 0.66819 0.92482 0.47783 0.0
C1485 C 0.66729 0.9328 0.43998 0.0
C1486 C 0.66451 0.91201 0.49319 0.0
C1487 C 0.65435 0.89385 0.48802 0.0
C1488 C 0.66146 0.91953 0.45717 0.0
C1489 C 0.64711 0.88912 0.46738 0.0
C1490 C 0.65686 0.9296 0.42153 0.0
C1491 C 0.69075 0.95999 0.42554 0.0
N1492 N 0.65092 0.90189 0.45265 0.0
N1493 N 0.68378 0.94794 0.44146 0.0
H1494 H 0.03618 0.7229 0.42499 0.0
H1495 H 0.12958 0.73274 0.45956 0.0
H1496 H 0.06232 0.70227 0.38733 0.0
H1497 H 0.10349 0.75563 0.4927 0.0
H1498 H 0.10308 0.71713 0.43589 0.0
H1499 H 0.05856 0.73053 0.45279 0.0
C1500 C 0.04662 0.71989 0.4226 0.0
C1501 C 0.04754 0.71219 0.40365 0.0
C1502 C 0.10306 0.72534 0.44857 0.0
C1503 C 0.07346 0.72108 0.43553 0.0
C1504 C 0.11809 0.73413 0.46209 0.0
C1505 C 0.11862 0.7455 0.4779 0.0
C1506 C 0.08858 0.72799 0.45107 0.0
C1507 C 0.10356 0.74705 0.48056 0.0
C1508 C 0.05941 0.72424 0.43854 0.0
C1509 C 0.0612 0.70833 0.40164 0.0
N1510 N 0.08924 0.73851 0.46719 0.0
N1511 N 0.07381 0.71304 0.4173 0.0
H1512 H 0.2738 0.03026 0.73427 0.0
H1513 H 0.335 0.10149 0.82127 0.0
H1514 H 0.3305 0.04961 0.74108 0.0
H1515 H 0.2772 0.06824 0.82651 0.0
H1516 H 0.33395 0.08307 0.79189 0.0
H1517 H 0.27494 0.04473 0.76761 0.0
C1518 C 0.28648 0.03749 0.74284 0.0
C1519 C 0.3021 0.03881 0.73481 0.0
C1520 C 0.32153 0.07971 0.79964 0.0
C1521 C 0.30353 0.05555 0.77296 0.0
C1522 C 0.32211 0.09016 0.81654 0.0
C1523 C 0.30613 0.08657 0.82638 0.0
C1524 C 0.30486 0.06568 0.79229 0.0
C1525 C 0.28983 0.07183 0.81917 0.0
C1526 C 0.28711 0.04569 0.76193 0.0
C1527 C 0.31814 0.04825 0.74668 0.0
N1528 N 0.2896 0.06208 0.80245 0.0
N1529 N 0.31849 0.05645 0.76505 0.0
H1530 H 0.96303 0.28217 0.7396 0.0
H1531 H 0.91656 0.18298 0.78364 0.0
H1532 H 0.95321 0.23691 0.70248 0.0
H1533 H 0.93289 0.22811 0.82457 0.0
H1534 H 0.93048 0.20301 0.75403 0.0
H1535 H 0.95237 0.26311 0.77107 0.0
C1536 C 0.95872 0.26828 0.73806 0.0
C1537 C 0.95894 0.26113 0.7183 0.0
C1538 C 0.93117 0.2086 0.7695 0.0
C1539 C 0.94672 0.2393 0.75419 0.0
C1540 C 0.92333 0.19713 0.78656 0.0
C1541 C 0.92359 0.20379 0.80681 0.0
C1542 C 0.93923 0.22698 0.77248 0.0
C1543 C 0.93216 0.22231 0.80925 0.0
C1544 C 0.95266 0.25742 0.75604 0.0
C1545 C 0.95323 0.24304 0.7173 0.0
N1546 N 0.93956 0.23326 0.79227 0.0
N1547 N 0.9473 0.23279 0.73491 0.0
H1548 H 0.73822 0.70201 0.73921 0.0
H1549 H 0.79854 0.68215 0.8178 0.0
H1550 H 0.73789 0.65294 0.74241 0.0
H1551 H 0.80483 0.73393 0.81437 0.0
H1552 H 0.77598 0.67183 0.78988 0.0
H1553 H 0.76259 0.71476 0.76608 0.0
C1554 C 0.7433 0.69397 0.74542 0.0
C1555 C 0.73586 0.67632 0.73865 0.0
C1556 C 0.7822 0.68547 0.79515 0.0
C1557 C 0.76353 0.69072 0.76922 0.0
C1558 C 0.79503 0.69134 0.81128 0.0
C1559 C 0.80341 0.70886 0.81867 0.0
C1560 C 0.77755 0.69715 0.78616 0.0
C1561 C 0.79865 0.72029 0.80913 0.0
C1562 C 0.75716 0.70123 0.76075 0.0
C1563 C 0.74298 0.66653 0.74722 0.0
N1564 N 0.78592 0.71421 0.7934 0.0
N1565 N 0.75628 0.67382 0.76201 0.0
H1566 H 0.71088 0.66514 0.62441 0.0
H1567 H 0.74616 0.60957 0.56718 0.0
H1568 H 0.69882 0.61336 0.64507 0.0
H1569 H 0.74119 0.64954 0.5334 0.0
H1570 H 0.72977 0.61196 0.59641 0.0
H1571 H 0.72278 0.66089 0.5913 0.0
C1572 C 0.71053 0.65283 0.62191 0.0
C1573 C 0.70403 0.63968 0.63767 0.0
C1574 C 0.7321 0.62011 0.58253 0.0
C1575 C 0.71774 0.63487 0.60011 0.0
C1576 C 0.74138 0.61866 0.56566 0.0
C1577 C 0.74502 0.62926 0.54754 0.0
C1578 C 0.7266 0.63247 0.58164 0.0
C1579 C 0.73894 0.64124 0.54708 0.0
C1580 C 0.71731 0.65042 0.60304 0.0
C1581 C 0.70386 0.62397 0.63354 0.0
N1582 N 0.73014 0.64263 0.56396 0.0
N1583 N 0.71079 0.62211 0.61532 0.0
H1584 H 0.35273 0.0698 0.64258 0.0
H1585 H 0.34042 0.09675 0.52545 0.0
H1586 H 0.30385 0.03959 0.60577 0.0
H1587 H 0.36945 0.13596 0.57407 0.0
H1588 H 0.33359 0.07322 0.55134 0.0
H1589 H 0.36534 0.09189 0.61389 0.0
C1590 C 0.3448 0.06769 0.62833 0.0
C1591 C 0.32719 0.053 0.62654 0.0
C1592 C 0.34174 0.087 0.55619 0.0
C1593 C 0.34157 0.07781 0.59379 0.0
C1594 C 0.34572 0.10036 0.54145 0.0
C1595 C 0.35542 0.11821 0.54777 0.0
C1596 C 0.34778 0.09159 0.57722 0.0
C1597 C 0.36185 0.12229 0.56871 0.0
C1598 C 0.35196 0.08028 0.61208 0.0
C1599 C 0.31742 0.05086 0.60783 0.0
N1600 N 0.35788 0.10905 0.58277 0.0
N1601 N 0.32474 0.06313 0.59215 0.0
H1602 H 0.94749 0.28901 0.59691 0.0
H1603 H 0.84706 0.26141 0.58862 0.0
H1604 H 0.92172 0.29706 0.64988 0.0
H1605 H 0.88141 0.27786 0.53402 0.0
H1606 H 0.87389 0.27575 0.61159 0.0
H1607 H 0.92355 0.28605 0.57357 0.0
C1608 C 0.93684 0.29038 0.60354 0.0
C1609 C 0.93643 0.29314 0.6253 0.0
C1610 C 0.87554 0.27662 0.59457 0.0
C1611 C 0.90878 0.28941 0.5988 0.0
C1612 C 0.86026 0.26842 0.58148 0.0
C1613 C 0.86206 0.26832 0.55942 0.0
C1614 C 0.89267 0.28439 0.58551 0.0
C1615 C 0.87943 0.27765 0.55094 0.0
C1616 C 0.92324 0.28878 0.59022 0.0
C1617 C 0.92245 0.29492 0.63314 0.0
N1618 N 0.89407 0.28497 0.56402 0.0
N1619 N 0.90889 0.29263 0.61994 0.0
H1620 H 0.38969 0.31071 0.62925 0.0
H1621 H 0.32891 0.23662 0.54487 0.0
H1622 H 0.33214 0.28736 0.62486 0.0
H1623 H 0.38676 0.26961 0.54028 0.0
H1624 H 0.32961 0.25611 0.57265 0.0
H1625 H 0.38889 0.29696 0.59551 0.0
C1626 C 0.3769 0.30284 0.62105 0.0
C1627 C 0.36093 0.30003 0.62999 0.0
C1628 C 0.34213 0.25922 0.56537 0.0
C1629 C 0.35988 0.28402 0.59142 0.0
C1630 C 0.34175 0.24813 0.54939 0.0
C1631 C 0.35784 0.25132 0.54033 0.0
C1632 C 0.35873 0.27351 0.57253 0.0
C1633 C 0.37406 0.26635 0.54713 0.0
C1634 C 0.37645 0.29501 0.60175 0.0
C1635 C 0.34476 0.28984 0.61857 0.0
N1636 N 0.3741 0.27674 0.56297 0.0
N1637 N 0.34461 0.28196 0.60002 0.0
H1638 H 0.67443 0.07711 0.62543 0.0
H1639 H 0.75177 0.11258 0.54108 0.0
H1640 H 0.70518 0.05223 0.61499 0.0
H1641 H 0.71251 0.12834 0.54229 0.0
H1642 H 0.73325 0.08837 0.56554 0.0
H1643 H 0.68625 0.09384 0.59275 0.0
C1644 C 0.68353 0.07502 0.61609 0.0
C1645 C 0.68905 0.06346 0.62306 0.0
C1646 C 0.72851 0.09691 0.56018 0.0
C1647 C 0.70284 0.08277 0.58571 0.0
C1648 C 0.7391 0.11076 0.54629 0.0
C1649 C 0.73375 0.12259 0.53993 0.0
C1650 C 0.71259 0.09508 0.568 0.0
C1651 C 0.71713 0.11952 0.54685 0.0
C1652 C 0.69023 0.08454 0.59737 0.0
C1653 C 0.70067 0.06108 0.61022 0.0
N1654 N 0.70727 0.10624 0.56082 0.0
N1655 N 0.70746 0.07092 0.59232 0.0
H1656 H 0.93518 0.64531 0.62897 0.0
H1657 H 0.88908 0.67055 0.53604 0.0
H1658 H 0.9514 0.69879 0.61062 0.0
H1659 H 0.87176 0.61625 0.55147 0.0
H1660 H 0.9125 0.68068 0.56298 0.0
H1661 H 0.91225 0.63396 0.60062 0.0
C1662 C 0.93396 0.65465 0.619 0.0
C1663 C 0.94523 0.67304 0.62226 0.0
C1664 C 0.90367 0.66653 0.56048 0.0
C1665 C 0.9191 0.66016 0.58987 0.0
C1666 C 0.89033 0.66071 0.54489 0.0
C1667 C 0.87847 0.64248 0.54125 0.0
C1668 C 0.90524 0.6541 0.57277 0.0
C1669 C 0.88053 0.63042 0.55378 0.0
C1670 C 0.92088 0.64817 0.60283 0.0
C1671 C 0.94304 0.68452 0.60883 0.0
N1672 N 0.89365 0.63644 0.569 0.0
N1673 N 0.93027 0.67789 0.59332 0.0
H1674 H 0.95479 0.67593 0.73687 0.0
H1675 H 0.95383 0.74558 0.81684 0.0
H1676 H 0.98243 0.73241 0.7256 0.0
H1677 H 0.91429 0.68936 0.81802 0.0
H1678 H 0.96834 0.74066 0.78703 0.0
H1679 H 0.94373 0.68041 0.7704 0.0
C1680 C 0.95867 0.68927 0.74152 0.0
C1681 C 0.96942 0.7038 0.72832 0.0
C1682 C 0.95655 0.72939 0.79393 0.0
C1683 C 0.95692 0.70901 0.76661 0.0
C1684 C 0.94821 0.73219 0.8109 0.0
C1685 C 0.93266 0.71791 0.81987 0.0
C1686 C 0.9494 0.71216 0.78587 0.0
C1687 C 0.9263 0.70078 0.81178 0.0
C1688 C 0.95231 0.69181 0.76061 0.0
C1689 C 0.97403 0.7208 0.73516 0.0
N1690 N 0.93463 0.6984 0.79517 0.0
N1691 N 0.96774 0.72293 0.75379 0.0
H1692 H 0.31729 0.28359 0.74968 0.0
H1693 H 0.30405 0.1928 0.79389 0.0
H1694 H 0.3422 0.25724 0.72181 0.0
H1695 H 0.30967 0.23374 0.83608 0.0
H1696 H 0.30882 0.21226 0.76372 0.0
H1697 H 0.30546 0.26116 0.77809 0.0
C1698 C 0.31993 0.27289 0.74933 0.0
C1699 C 0.33077 0.27222 0.73354 0.0
C1700 C 0.30874 0.21685 0.77957 0.0
C1701 C 0.31719 0.24666 0.76547 0.0
C1702 C 0.30593 0.20576 0.79675 0.0
C1703 C 0.30655 0.21175 0.81745 0.0
C1704 C 0.3119 0.23393 0.78312 0.0
C1705 C 0.30924 0.22874 0.82033 0.0
C1706 C 0.31331 0.26023 0.76554 0.0
C1707 C 0.33399 0.25824 0.73382 0.0
N1708 N 0.31185 0.2393 0.8033 0.0
N1709 N 0.3272 0.24597 0.74952 0.0
H1710 H 0.72371 0.0373 0.72091 0.0
H1711 H 0.78382 0.11246 0.80667 0.0
H1712 H 0.7175 0.08137 0.73664 0.0
H1713 H 0.78958 0.06751 0.79514 0.0
H1714 H 0.75983 0.10118 0.78025 0.0
H1715 H 0.74823 0.04808 0.74715 0.0
C1716 C 0.72748 0.04922 0.72984 0.0
C1717 C 0.71849 0.05843 0.72655 0.0
C1718 C 0.76627 0.09371 0.78347 0.0
C1719 C 0.7465 0.0708 0.7565 0.0
C1720 C 0.77993 0.1001 0.7987 0.0
C1721 C 0.78861 0.09082 0.80334 0.0
C1722 C 0.76118 0.07789 0.77262 0.0
C1723 C 0.78329 0.07512 0.79202 0.0
C1724 C 0.74147 0.05535 0.74481 0.0
C1725 C 0.72397 0.07379 0.73859 0.0
N1726 N 0.76987 0.06911 0.7772 0.0
N1727 N 0.73757 0.07946 0.75297 0.0
H1728 H 0.0369 0.35871 0.0477 0.0
H1729 H 0.09271 0.3102 0.05615 0.0
H1730 H 0.03662 0.32527 0.99779 0.0
H1731 H 0.07686 0.32875 0.11002 0.0
H1732 H 0.07614 0.31919 0.03293 0.0
H1733 H 0.05657 0.3524 0.06872 0.0
C1734 C 0.04117 0.35024 0.041 0.0
C1735 C 0.03492 0.34236 0.021 0.0
C1736 C 0.07636 0.3213 0.04985 0.0
C1737 C 0.05737 0.33497 0.04515 0.0
C1738 C 0.08569 0.31604 0.06316 0.0
C1739 C 0.08626 0.31872 0.08516 0.0
C1740 C 0.06769 0.32945 0.05855 0.0
C1741 C 0.07714 0.32669 0.09318 0.0
C1742 C 0.05231 0.34654 0.0531 0.0
C1743 C 0.041 0.33154 0.01318 0.0
N1744 N 0.06831 0.3318 0.0799 0.0
N1745 N 0.05182 0.32806 0.02533 0.0
H1746 H 0.65316 0.68303 0.05562 0.0
H1747 H 0.68415 0.7858 0.05833 0.0
H1748 H 0.67167 0.71689 0.00053 0.0
H1749 H 0.67284 0.75355 0.11433 0.0
H1750 H 0.67821 0.76043 0.03663 0.0
H1751 H 0.65854 0.70833 0.07701 0.0
C1752 C 0.65831 0.69577 0.04798 0.0
C1753 C 0.662 0.69783 0.02622 0.0
C1754 C 0.67704 0.75891 0.05367 0.0
C1755 C 0.66821 0.72692 0.0507 0.0
C1756 C 0.68053 0.77343 0.0661 0.0
C1757 C 0.67905 0.77187 0.08824 0.0
C1758 C 0.67195 0.74263 0.06339 0.0
C1759 C 0.67394 0.75535 0.09733 0.0
C1760 C 0.66141 0.71024 0.06024 0.0
C1761 C 0.66865 0.71469 0.01724 0.0
N1762 N 0.67058 0.7414 0.08488 0.0
N1763 N 0.67155 0.72858 0.02952 0.0
H1764 H 0.29655 0.979 0.04584 0.0
H1765 H 0.22081 0.90274 0.1181 0.0
H1766 H 0.28944 0.92718 0.05487 0.0
H1767 H 0.21802 0.948 0.09776 0.0
H1768 H 0.24771 0.91323 0.09705 0.0
H1769 H 0.26899 0.96924 0.06602 0.0
C1770 C 0.28916 0.96556 0.05191 0.0
C1771 C 0.2954 0.95393 0.04875 0.0
C1772 C 0.24128 0.92093 0.09717 0.0
C1773 C 0.26409 0.94281 0.07195 0.0
C1774 C 0.22602 0.91505 0.10941 0.0
C1775 C 0.21726 0.9246 0.10985 0.0
C1776 C 0.24797 0.93655 0.08525 0.0
C1777 C 0.22438 0.94023 0.09781 0.0
C1778 C 0.27346 0.96002 0.06342 0.0
C1779 C 0.28524 0.93666 0.05693 0.0
N1780 N 0.2394 0.94578 0.08602 0.0
N1781 N 0.2702 0.9317 0.06825 0.0
H1782 H 0.36445 0.04395 0.99323 0.0
H1783 H 0.30176 0.08357 0.97169 0.0
H1784 H 0.31777 0.03027 0.03067 0.0
H1785 H 0.35505 0.10675 0.94585 0.0
H1786 H 0.30705 0.06336 0.99277 0.0
H1787 H 0.36122 0.0668 0.97535 0.0
C1788 C 0.35363 0.04586 0.99784 0.0
C1789 C 0.34131 0.03511 0.01342 0.0
C1790 C 0.31764 0.07293 0.98259 0.0
C1791 C 0.33741 0.06108 0.99281 0.0
C1792 C 0.31457 0.08438 0.97045 0.0
C1793 C 0.32797 0.0968 0.95695 0.0
C1794 C 0.33414 0.07375 0.98104 0.0
C1795 C 0.34441 0.09744 0.95617 0.0
C1796 C 0.35179 0.05891 0.98762 0.0
C1797 C 0.32757 0.03822 0.01876 0.0
N1798 N 0.34698 0.08598 0.96791 0.0
N1799 N 0.32588 0.05079 0.00833 0.0
H1800 H 0.92793 0.27764 0.01068 0.0
H1801 H 0.94078 0.22544 0.92003 0.0
H1802 H 0.97932 0.29927 0.98019 0.0
H1803 H 0.9035 0.19852 0.97096 0.0
H1804 H 0.95569 0.25257 0.94148 0.0
H1805 H 0.91864 0.24846 0.99602 0.0
C1806 C 0.93733 0.27618 0.00111 0.0
C1807 C 0.95436 0.29087 0.99653 0.0
C1808 C 0.94442 0.24062 0.94805 0.0
C1809 C 0.94373 0.25766 0.97939 0.0
C1810 C 0.93595 0.2251 0.93586 0.0
C1811 C 0.9206 0.20976 0.94351 0.0
C1812 C 0.93733 0.24081 0.96785 0.0
C1813 C 0.91492 0.21018 0.96413 0.0
C1814 C 0.93207 0.25953 0.99281 0.0
C1815 C 0.96607 0.28825 0.98411 0.0
N1816 N 0.92306 0.22553 0.97541 0.0
N1817 N 0.96041 0.27201 0.97561 0.0
H1818 H 0.70756 0.68466 0.98683 0.0
H1819 H 0.78638 0.67445 0.93866 0.0
H1820 H 0.70339 0.63499 0.97152 0.0
H1821 H 0.79306 0.72578 0.94985 0.0
H1822 H 0.75609 0.6603 0.95224 0.0
H1823 H 0.73903 0.70052 0.97497 0.0
C1824 C 0.71325 0.6771 0.98109 0.0
C1825 C 0.70279 0.65847 0.98009 0.0
C1826 C 0.7641 0.67466 0.95185 0.0
C1827 C 0.73856 0.67643 0.96656 0.0
C1828 C 0.78152 0.68278 0.94422 0.0
C1829 C 0.79239 0.70135 0.94339 0.0
C1830 C 0.75727 0.6851 0.9587 0.0
C1831 C 0.78511 0.71141 0.95022 0.0
C1832 C 0.73116 0.68615 0.97429 0.0
C1833 C 0.71083 0.64934 0.9725 0.0
N1834 N 0.76796 0.70315 0.95767 0.0
N1835 N 0.72814 0.6584 0.96605 0.0
H1836 H 0.98281 0.66467 0.97094 0.0
H1837 H 0.92262 0.70805 0.981 0.0
H1838 H 0.97676 0.68525 0.03012 0.0
H1839 H 0.9453 0.70484 0.92205 0.0
H1840 H 0.93942 0.69668 0.99961 0.0
H1841 H 0.96552 0.67567 0.95309 0.0
C1842 C 0.97768 0.67133 0.98025 0.0
C1843 C 0.98129 0.67408 0.00208 0.0
C1844 C 0.94079 0.69856 0.98263 0.0
C1845 C 0.96153 0.68677 0.98166 0.0
C1846 C 0.93121 0.70502 0.97202 0.0
C1847 C 0.93264 0.70741 0.94999 0.0
C1848 C 0.95162 0.69419 0.97106 0.0
C1849 C 0.94398 0.70335 0.93908 0.0
C1850 C 0.96793 0.67773 0.96999 0.0
C1851 C 0.97434 0.68288 0.01327 0.0
N1852 N 0.95293 0.6968 0.9497 0.0
N1853 N 0.96478 0.68891 0.00293 0.0
H1854 H 0.33999 0.31922 0.96869 0.0
H1855 H 0.33382 0.22574 0.97776 0.0
H1856 H 0.34383 0.29679 0.02796 0.0
H1857 H 0.31861 0.24273 0.92135 0.0
H1858 H 0.33943 0.25263 0.99588 0.0
H1859 H 0.33396 0.29218 0.9505 0.0
C1860 C 0.33958 0.30863 0.97788 0.0
C1861 C 0.34242 0.31028 0.9999 0.0
C1862 C 0.33482 0.25046 0.97955 0.0
C1863 C 0.33558 0.27934 0.97916 0.0
C1864 C 0.33171 0.23517 0.96918 0.0
C1865 C 0.32576 0.23201 0.94801 0.0
C1866 C 0.33213 0.26281 0.96865 0.0
C1867 C 0.32303 0.24457 0.93773 0.0
C1868 C 0.33609 0.29318 0.96749 0.0
C1869 C 0.34169 0.2961 0.01099 0.0
N1870 N 0.32632 0.25946 0.94811 0.0
N1871 N 0.33841 0.28127 0.00049 0.0
H1872 H 0.70491 0.0239 0.99916 0.0
H1873 H 0.76572 0.07128 0.89875 0.0
H1874 H 0.69133 0.0509 0.95234 0.0
H1875 H 0.78994 0.07525 0.96 0.0
H1876 H 0.73592 0.05592 0.91521 0.0
H1877 H 0.73425 0.03557 0.98204 0.0
C1878 C 0.70809 0.03222 0.98526 0.0
C1879 C 0.6958 0.0366 0.97722 0.0
C1880 C 0.74777 0.05996 0.92496 0.0
C1881 C 0.72885 0.04944 0.95742 0.0
C1882 C 0.76468 0.06855 0.91559 0.0
C1883 C 0.78018 0.07446 0.92811 0.0
C1884 C 0.74638 0.057 0.94689 0.0
C1885 C 0.77823 0.07087 0.9499 0.0
C1886 C 0.72476 0.03885 0.97557 0.0
C1887 C 0.70052 0.04738 0.95916 0.0
N1888 N 0.76158 0.06231 0.95866 0.0
N1889 N 0.71662 0.05333 0.94976 0.0
H1890 H 0.68485 0.9671 0.00624 0.0
H1891 H 0.64906 0.88965 0.09232 0.0
H1892 H 0.63611 0.94887 0.04162 0.0
H1893 H 0.70446 0.92004 0.07226 0.0
H1894 H 0.6424 0.90818 0.06997 0.0
H1895 H 0.69028 0.94646 0.02608 0.0
C1896 C 0.67518 0.95863 0.01802 0.0
C1897 C 0.66004 0.95978 0.02235 0.0
C1898 C 0.656 0.91075 0.07046 0.0
C1899 C 0.66621 0.93616 0.04511 0.0
C1900 C 0.65988 0.90026 0.08334 0.0
C1901 C 0.67743 0.90334 0.0844 0.0
C1902 C 0.6697 0.92434 0.05833 0.0
C1903 C 0.6907 0.917 0.07185 0.0
C1904 C 0.67835 0.94693 0.02941 0.0
C1905 C 0.64801 0.9485 0.03784 0.0
N1906 N 0.68657 0.92699 0.05936 0.0
N1907 N 0.65136 0.93717 0.04868 0.0
H1908 H 0.0893 0.71815 0.03712 0.0
H1909 H 0.06943 0.79295 0.07396 0.0
H1910 H 0.03747 0.71298 0.02861 0.0
H1911 H 0.1162 0.79104 0.09295 0.0
H1912 H 0.0586 0.76555 0.0536 0.0
H1913 H 0.1008 0.74728 0.05306 0.0
C1914 C 0.08037 0.7232 0.03839 0.0
C1915 C 0.06233 0.713 0.03167 0.0
C1916 C 0.07128 0.77123 0.06216 0.0
C1917 C 0.07542 0.74637 0.05014 0.0
C1918 C 0.07742 0.78681 0.07389 0.0
C1919 C 0.09381 0.79442 0.08515 0.0
C1920 C 0.08164 0.76325 0.06164 0.0
C1921 C 0.10368 0.78594 0.08422 0.0
C1922 C 0.08693 0.73983 0.0476 0.0
C1923 C 0.05144 0.72033 0.03368 0.0
N1924 N 0.09745 0.77086 0.0727 0.0
N1925 N 0.05812 0.73653 0.04287 0.0
H1926 H 0.30385 0.37994 0.04334 0.0
H1927 H 0.21692 0.29492 0.09072 0.0
H1928 H 0.29706 0.32789 0.04283 0.0
H1929 H 0.22409 0.34695 0.0851 0.0
H1930 H 0.24465 0.30545 0.07047 0.0
H1931 H 0.27322 0.36695 0.05574 0.0
C1932 C 0.29583 0.3657 0.04573 0.0
C1933 C 0.30307 0.355 0.04229 0.0
C1934 C 0.24003 0.31448 0.07352 0.0
C1935 C 0.26786 0.33995 0.05682 0.0
C1936 C 0.22421 0.30847 0.085 0.0
C1937 C 0.21841 0.32019 0.08988 0.0
C1938 C 0.24999 0.33228 0.06688 0.0
C1939 C 0.22831 0.3376 0.08211 0.0
C1940 C 0.27828 0.35826 0.0528 0.0
C1941 C 0.29197 0.33661 0.04537 0.0
N1942 N 0.24364 0.34312 0.07117 0.0
N1943 N 0.27494 0.32965 0.05277 0.0
H1944 H 0.69984 0.6646 0.33497 0.0
H1945 H 0.72973 0.64417 0.44643 0.0
H1946 H 0.68243 0.67303 0.39519 0.0
H1947 H 0.75693 0.64842 0.38802 0.0
H1948 H 0.71056 0.65249 0.42746 0.0
H1949 H 0.71954 0.65682 0.35373 0.0
C1950 C 0.70021 0.6649 0.35212 0.0
C1951 C 0.68946 0.66947 0.36351 0.0
C1952 C 0.72073 0.65162 0.41879 0.0
C1953 C 0.71181 0.6604 0.38506 0.0
C1954 C 0.73158 0.64675 0.42958 0.0
C1955 C 0.74493 0.64561 0.41878 0.0
C1956 C 0.72314 0.65523 0.39699 0.0
C1957 C 0.7469 0.6493 0.39698 0.0
C1958 C 0.71146 0.66046 0.36281 0.0
C1959 C 0.6905 0.66962 0.38573 0.0
N1960 N 0.73608 0.65389 0.38679 0.0
N1961 N 0.70138 0.66505 0.39577 0.0
H1962 H 0.32535 0.0456 0.33493 0.0
H1963 H 0.33487 0.08794 0.44995 0.0
H1964 H 0.32149 0.01832 0.39338 0.0
H1965 H 0.33843 0.1151 0.39151 0.0
H1966 H 0.32964 0.06218 0.42951 0.0
H1967 H 0.33013 0.07119 0.35538 0.0
C1968 C 0.32551 0.04498 0.35206 0.0
C1969 C 0.32301 0.02978 0.36244 0.0
C1970 C 0.33156 0.07377 0.42116 0.0
C1971 C 0.32846 0.05904 0.38598 0.0
C1972 C 0.33444 0.08845 0.43283 0.0
C1973 C 0.33713 0.10373 0.42245 0.0
C1974 C 0.33133 0.07433 0.39892 0.0
C1975 C 0.33669 0.10371 0.4002 0.0
C1976 C 0.32824 0.05961 0.36374 0.0
C1977 C 0.32336 0.02975 0.38469 0.0
N1978 N 0.33385 0.08926 0.3892 0.0
N1979 N 0.32603 0.04414 0.39569 0.0
H1980 H 0.95816 0.26355 0.3892 0.0
H1981 H 0.88061 0.28048 0.42579 0.0
H1982 H 0.96232 0.31414 0.38061 0.0
H1983 H 0.88447 0.23541 0.44401 0.0
H1984 H 0.90853 0.29207 0.40549 0.0
H1985 H 0.92885 0.2519 0.40512 0.0
C1986 C 0.95287 0.27222 0.39054 0.0
C1987 C 0.96283 0.28993 0.38374 0.0
C1988 C 0.90322 0.27966 0.41397 0.0
C1989 C 0.92913 0.27661 0.4022 0.0
C1990 C 0.88732 0.27305 0.42548 0.0
C1991 C 0.88038 0.2571 0.4368 0.0
C1992 C 0.912 0.27008 0.4136 0.0
C1993 C 0.88953 0.24793 0.43588 0.0
C1994 C 0.9361 0.26554 0.39971 0.0
C1995 C 0.95513 0.30043 0.38573 0.0
N1996 N 0.90482 0.25455 0.4245 0.0
N1997 N 0.93874 0.29363 0.39494 0.0
H1998 H -0.00021 0.38114 0.36637 0.0
H1999 H 0.00581 0.42082 0.25054 0.0
H2000 H 0.01907 0.3672 0.31153 0.0
H2001 H 0.99602 0.44227 0.30659 0.0
H2002 H 0.0095 0.40026 0.27271 0.0
H2003 H 0.99716 0.40286 0.34484 0.0
C2004 C 0.00354 0.38268 0.34985 0.0
C2005 C 0.00963 0.37229 0.34075 0.0
C2006 C 0.00658 0.40949 0.28019 0.0
C2007 C 0.00653 0.39701 0.31603 0.0
C2008 C 0.00456 0.42132 0.26753 0.0
C2009 C 0.00067 0.4334 0.27667 0.0
C2010 C 0.00461 0.40958 0.30222 0.0
C2011 C 0.9988 0.43308 0.29879 0.0
C2012 C 0.00203 0.39508 0.33758 0.0
C2013 C 0.0143 0.37488 0.31926 0.0
N2014 N 0.00077 0.42136 0.3108 0.0
N2015 N 0.01258 0.3869 0.30764 0.0
H2016 H 0.63077 0.6264 0.33056 0.0
H2017 H 0.54905 0.54872 0.26423 0.0
H2018 H 0.57976 0.62249 0.31962 0.0
H2019 H 0.59889 0.55056 0.27617 0.0
H2020 H 0.55946 0.57455 0.28702 0.0
H2021 H 0.61864 0.59735 0.31372 0.0
C2022 C 0.61695 0.61934 0.32491 0.0
C2023 C 0.60633 0.627 0.32632 0.0
C2024 C 0.56814 0.56931 0.28478 0.0
C2025 C 0.59245 0.59385 0.30688 0.0
C2026 C 0.56224 0.55461 0.27164 0.0
C2027 C 0.57324 0.54765 0.26806 0.0
C2028 C 0.58525 0.57724 0.29438 0.0
C2029 C 0.59001 0.55555 0.27849 0.0
C2030 C 0.61006 0.60278 0.31523 0.0
C2031 C 0.58852 0.61721 0.31872 0.0
N2032 N 0.59559 0.57005 0.29104 0.0
N2033 N 0.58221 0.60125 0.30918 0.0
H2034 H 0.35051 0.97186 0.27845 0.0
H2035 H 0.45468 0.02261 0.30117 0.0
H2036 H 0.37281 0.00429 0.33449 0.0
H2037 H 0.43336 0.01542 0.23758 0.0
H2038 H 0.42483 0.0138 0.31495 0.0
H2039 H 0.38085 0.9854 0.26405 0.0
C2040 C 0.36181 0.98191 0.28767 0.0
C2041 C 0.3592 0.98696 0.30769 0.0
C2042 C 0.4268 0.01439 0.29799 0.0
C2043 C 0.3939 0.00224 0.29149 0.0
C2044 C 0.44373 0.01932 0.29016 0.0
C2045 C 0.4464 0.01973 0.26825 0.0
C2046 C 0.41241 0.00941 0.28379 0.0
C2047 C 0.43185 0.01538 0.25459 0.0
C2048 C 0.37908 0.98967 0.27941 0.0
C2049 C 0.37428 9e-05 0.31895 0.0
N2050 N 0.41539 0.01015 0.26258 0.0
N2051 N 0.39108 0.00712 0.31082 0.0
H2052 H 0.64959 0.99077 0.30661 0.0
H2053 H 0.57302 0.01469 0.3127 0.0
H2054 H 0.63495 0.00464 0.36533 0.0
H2055 H 0.60092 0.01781 0.25529 0.0
H2056 H 0.59285 0.00747 0.3324 0.0
H2057 H 0.62869 0.9967 0.28769 0.0
C2058 C 0.64187 0.99492 0.31558 0.0
C2059 C 0.64409 0.99727 0.33762 0.0
C2060 C 0.59464 0.00979 0.31551 0.0
C2061 C 0.62013 0.00412 0.31596 0.0
C2062 C 0.58332 0.01385 0.30427 0.0
C2063 C 0.58541 0.01691 0.28236 0.0
C2064 C 0.60793 0.00853 0.30469 0.0
C2065 C 0.599 0.01575 0.27221 0.0
C2066 C 0.63002 0.9984 0.30472 0.0
C2067 C 0.63373 0.00272 0.34834 0.0
N2068 N 0.60968 0.01156 0.28343 0.0
N2069 N 0.62217 0.00595 0.3374 0.0
H2070 H 0.02184 0.65786 0.29766 0.0
H2071 H 0.00054 0.55799 0.30119 0.0
H2072 H 0.0059 0.62582 0.35429 0.0
H2073 H 0.01044 0.58802 0.2435 0.0
H2074 H 0.00451 0.58338 0.3213 0.0
H2075 H 0.02009 0.63322 0.27806 0.0
C2076 C 0.01806 0.64568 0.30602 0.0
C2077 C 0.01393 0.64389 0.32766 0.0
C2078 C 0.00585 0.58443 0.30424 0.0
C2079 C 0.01187 0.61557 0.30525 0.0
C2080 C 0.00348 0.56989 0.29272 0.0
C2081 C 0.00506 0.5708 0.27057 0.0
C2082 C 0.00986 0.60006 0.29359 0.0
C2083 C 0.00927 0.58674 0.26055 0.0
C2084 C 0.01703 0.63159 0.29479 0.0
C2085 C 0.00914 0.62778 0.33762 0.0
N2086 N 0.01148 0.60071 0.27212 0.0
N2087 N 0.0082 0.61423 0.32633 0.0
H2088 H 0.37001 0.3549 0.31014 0.0
H2089 H 0.47177 0.43241 0.29108 0.0
H2090 H 0.39168 0.40869 0.33184 0.0
H2091 H 0.44148 0.39059 0.24556 0.0
H2092 H 0.44509 0.41976 0.31361 0.0
H2093 H 0.39902 0.36411 0.29378 0.0
C2094 C 0.38097 0.36856 0.31181 0.0
C2095 C 0.37844 0.38111 0.32219 0.0
C2096 C 0.44442 0.41323 0.29884 0.0
C2097 C 0.41152 0.39159 0.30379 0.0
C2098 C 0.4596 0.42034 0.28608 0.0
C2099 C 0.45871 0.41251 0.26647 0.0
C2100 C 0.42837 0.39807 0.29204 0.0
C2101 C 0.4426 0.39703 0.26055 0.0
C2102 C 0.39743 0.37379 0.30239 0.0
C2103 C 0.39304 0.39865 0.32379 0.0
N2104 N 0.428 0.39029 0.27329 0.0
N2105 N 0.40898 0.40339 0.31465 0.0
H2106 H 0.30541 0.29366 0.37406 0.0
H2107 H 0.36726 0.25362 0.39801 0.0
H2108 H 0.35107 0.30528 0.33578 0.0
H2109 H 0.31356 0.2305 0.42257 0.0
H2110 H 0.36227 0.27374 0.37628 0.0
H2111 H 0.30853 0.27112 0.39293 0.0
C2112 C 0.31598 0.29136 0.36949 0.0
C2113 C 0.32804 0.30142 0.35337 0.0
C2114 C 0.35154 0.26419 0.38633 0.0
C2115 C 0.33183 0.27585 0.37509 0.0
C2116 C 0.35443 0.25281 0.39883 0.0
C2117 C 0.34081 0.24042 0.41211 0.0
C2118 C 0.33499 0.26334 0.38735 0.0
C2119 C 0.32436 0.23979 0.41242 0.0
C2120 C 0.31775 0.27849 0.38026 0.0
C2121 C 0.34146 0.29784 0.34809 0.0
N2122 N 0.32196 0.25118 0.40034 0.0
N2123 N 0.34312 0.28548 0.35908 0.0
H2124 H 0.75597 0.05166 0.37255 0.0
H2125 H 0.73278 0.12281 0.41457 0.0
H2126 H 0.7025 0.04329 0.36935 0.0
H2127 H 0.78429 0.1273 0.42241 0.0
H2128 H 0.72223 0.09571 0.39353 0.0
H2129 H 0.76733 0.08146 0.38617 0.0
C2130 C 0.74662 0.05614 0.37454 0.0
C2131 C 0.7282 0.04485 0.37003 0.0
C2132 C 0.73588 0.10273 0.39973 0.0
C2133 C 0.74115 0.07905 0.38585 0.0
C2134 C 0.74191 0.1182 0.41164 0.0
C2135 C 0.75934 0.12714 0.42045 0.0
C2136 C 0.74742 0.09628 0.39654 0.0
C2137 C 0.77063 0.12061 0.41624 0.0
C2138 C 0.75312 0.07318 0.38236 0.0
C2139 C 0.71678 0.0515 0.37274 0.0
N2140 N 0.76445 0.10556 0.40471 0.0
N2141 N 0.72341 0.06811 0.38069 0.0
H2142 H 0.9632 0.65094 0.37887 0.0
H2143 H 0.86554 0.63849 0.37956 0.0
H2144 H 0.94978 0.68612 0.3476 0.0
H2145 H 0.88754 0.62535 0.43329 0.0
H2146 H 0.89293 0.64711 0.35996 0.0
H2147 H 0.93185 0.63284 0.39104 0.0
C2148 C 0.95351 0.65452 0.37408 0.0
C2149 C 0.95895 0.67003 0.3624 0.0
C2150 C 0.89157 0.64204 0.37592 0.0
C2151 C 0.92344 0.64951 0.3759 0.0
C2152 C 0.87602 0.63723 0.3872 0.0
C2153 C 0.87441 0.63165 0.40836 0.0
C2154 C 0.90554 0.64104 0.38574 0.0
C2155 C 0.88819 0.62966 0.41708 0.0
C2156 C 0.93575 0.6443 0.3811 0.0
C2157 C 0.94606 0.6743 0.35674 0.0
N2158 N 0.90331 0.63458 0.40581 0.0
N2159 N 0.92889 0.66412 0.36361 0.0
H2160 H 0.3733 0.03067 0.70885 0.0
H2161 H 0.40146 0.96068 0.73598 0.0
H2162 H 0.35178 0.98127 0.6747 0.0
H2163 H 0.43614 0.0166 0.74991 0.0
H2164 H 0.38222 0.96747 0.71475 0.0
H2165 H 0.39555 0.02537 0.72569 0.0
C2166 C 0.37334 0.01878 0.70478 0.0
C2167 C 0.36063 0.00637 0.69041 0.0
C2168 C 0.39413 0.97825 0.72235 0.0
C2169 C 0.38586 0.00013 0.70979 0.0
C2170 C 0.40521 0.97441 0.73441 0.0
C2171 C 0.42047 0.98805 0.74496 0.0
C2172 C 0.39814 0.99583 0.72103 0.0
C2173 C 0.42433 0.00556 0.74254 0.0
C2174 C 0.38606 0.01579 0.71435 0.0
C2175 C 0.36133 0.99121 0.68567 0.0
N2176 N 0.41315 0.00891 0.73103 0.0
N2177 N 0.3736 0.98841 0.69553 0.0
H2178 H 0.99496 0.3761 0.66729 0.0
H2179 H 0.99026 0.41503 0.77983 0.0
H2180 H 0.9819 0.34635 0.7256 0.0
H2181 H 0.00272 0.44457 0.72142 0.0
H2182 H 0.98745 0.38986 0.7603 0.0
H2183 H 0.99836 0.40148 0.68693 0.0
C2184 C 0.99283 0.3749 0.68423 0.0
C2185 C 0.98811 0.35904 0.69479 0.0
C2186 C 0.99081 0.40185 0.75174 0.0
C2187 C 0.99197 0.38809 0.71741 0.0
C2188 C 0.99232 0.4162 0.76287 0.0
C2189 C 0.99668 0.43196 0.75226 0.0
C2190 C 0.99367 0.40319 0.72979 0.0
C2191 C -0.00048 0.43279 0.73032 0.0
C2192 C 0.99477 0.38941 0.69544 0.0
C2193 C 0.98554 0.35829 0.71678 0.0
N2194 N 0.99793 0.41861 0.71983 0.0
N2195 N 0.98748 0.3726 0.72733 0.0
H2196 H 0.63824 0.65101 0.70963 0.0
H2197 H 0.56077 0.57148 0.77754 0.0
H2198 H 0.63986 0.60617 0.73443 0.0
H2199 H 0.55284 0.61092 0.74757 0.0
H2200 H 0.59123 0.58642 0.76414 0.0
H2201 H 0.60815 0.63863 0.72506 0.0
C2202 C 0.63232 0.63862 0.71828 0.0
C2203 C 0.64159 0.62959 0.72067 0.0
C2204 C 0.58293 0.59191 0.76039 0.0
C2205 C 0.60744 0.61554 0.73838 0.0
C2206 C 0.56549 0.58332 0.76803 0.0
C2207 C 0.55419 0.5898 0.76331 0.0
C2208 C 0.58927 0.60715 0.74781 0.0
C2209 C 0.56116 0.60548 0.75142 0.0
C2210 C 0.61518 0.63159 0.72707 0.0
C2211 C 0.63329 0.61361 0.73205 0.0
N2212 N 0.57828 0.61359 0.74387 0.0
N2213 N 0.61678 0.60717 0.74043 0.0
H2214 H 0.70535 0.71501 0.65312 0.0
H2215 H 0.64212 0.75394 0.62899 0.0
H2216 H 0.65974 0.70356 0.69139 0.0
H2217 H 0.69414 0.77482 0.60042 0.0
H2218 H 0.64754 0.73408 0.65056 0.0
H2219 H 0.70095 0.73605 0.63253 0.0
C2220 C 0.69449 0.71699 0.65729 0.0
C2221 C 0.68288 0.70747 0.67401 0.0
C2222 C 0.6578 0.74303 0.63961 0.0
C2223 C 0.67766 0.73138 0.65035 0.0
C2224 C 0.65465 0.75427 0.62718 0.0
C2225 C 0.66769 0.76603 0.61286 0.0
C2226 C 0.67405 0.7434 0.6376 0.0
C2227 C 0.68379 0.76606 0.61138 0.0
C2228 C 0.69198 0.72901 0.64552 0.0
C2229 C 0.66904 0.7106 0.67868 0.0
N2230 N 0.68648 0.75486 0.62352 0.0
N2231 N 0.66674 0.72218 0.66683 0.0
H2232 H 0.24967 0.95963 0.66179 0.0
H2233 H 0.2661 0.88566 0.61335 0.0
H2234 H 0.30189 0.96502 0.66141 0.0
H2235 H 0.21592 0.88434 0.60963 0.0
H2236 H 0.27873 0.91251 0.63545 0.0
H2237 H 0.23638 0.92978 0.64746 0.0
C2238 C 0.25835 0.95448 0.65886 0.0
C2239 C 0.27698 0.96497 0.66256 0.0
C2240 C 0.26492 0.90624 0.62993 0.0
C2241 C 0.2618 0.9307 0.64587 0.0
C2242 C 0.2577 0.89091 0.61741 0.0
C2243 C 0.24005 0.88297 0.60943 0.0
C2244 C 0.2543 0.91351 0.63456 0.0
C2245 C 0.22971 0.89026 0.61511 0.0
C2246 C 0.25074 0.9374 0.65064 0.0
C2247 C 0.28748 0.95746 0.65867 0.0
N2248 N 0.23702 0.90514 0.6272 0.0
N2249 N 0.27978 0.94083 0.6503 0.0
H2250 H 0.01716 0.30409 0.61163 0.0
H2251 H 0.12174 0.358 0.63004 0.0
H2252 H 0.03927 0.3355 0.66842 0.0
H2253 H 0.09737 0.34945 0.56786 0.0
H2254 H 0.09251 0.34898 0.64575 0.0
H2255 H 0.04713 0.31894 0.5965 0.0
C2256 C 0.02838 0.31416 0.62092 0.0
C2257 C 0.02579 0.31852 0.64134 0.0
C2258 C 0.09371 0.34932 0.62868 0.0
C2259 C 0.06024 0.3355 0.62414 0.0
C2260 C 0.11037 0.35449 0.61967 0.0
C2261 C 0.11196 0.35414 0.59757 0.0
C2262 C 0.07859 0.34358 0.61546 0.0
C2263 C 0.0967 0.34939 0.58497 0.0
C2264 C 0.04547 0.32272 0.61221 0.0
C2265 C 0.04077 0.33181 0.6526 0.0
N2266 N 0.08064 0.34406 0.59409 0.0
N2267 N 0.05751 0.33969 0.64395 0.0
H2268 H 0.30805 0.33656 0.67471 0.0
H2269 H 0.22278 0.31064 0.60032 0.0
H2270 H 0.2771 0.286 0.64278 0.0
H2271 H 0.26113 0.36422 0.62076 0.0
H2272 H 0.2401 0.30032 0.61956 0.0
H2273 H 0.2883 0.34563 0.65918 0.0
C2274 C 0.29701 0.32728 0.66458 0.0
C2275 C 0.29432 0.31051 0.65992 0.0
C2276 C 0.24468 0.31432 0.61989 0.0
C2277 C 0.27165 0.32089 0.64204 0.0
C2278 C 0.23486 0.32027 0.6088 0.0
C2279 C 0.24057 0.33839 0.6087 0.0
C2280 C 0.2603 0.32655 0.63111 0.0
C2281 C 0.25609 0.35012 0.62048 0.0
C2282 C 0.28577 0.33252 0.65566 0.0
C2283 C 0.27974 0.29908 0.64672 0.0
N2284 N 0.26543 0.34401 0.63113 0.0
N2285 N 0.269 0.3045 0.63817 0.0
H2286 H 0.65201 0.95604 0.68663 0.0
H2287 H 0.69396 0.9208 0.60197 0.0
H2288 H 0.69445 0.99087 0.64402 0.0
H2289 H 0.64168 0.88767 0.62982 0.0
H2290 H 0.69723 0.94637 0.6214 0.0
H2291 H 0.651 0.93057 0.67005 0.0
C2292 C 0.66122 0.95836 0.67389 0.0
C2293 C 0.67326 0.97562 0.66662 0.0
C2294 C 0.68508 0.93348 0.62329 0.0
C2295 C 0.67219 0.94649 0.64762 0.0
C2296 C 0.68326 0.9189 0.61233 0.0
C2297 C 0.66749 0.90214 0.61424 0.0
C2298 C 0.67114 0.93122 0.63645 0.0
C2299 C 0.65397 0.90041 0.62773 0.0
C2300 C 0.66058 0.94379 0.66439 0.0
C2301 C 0.68486 0.97779 0.65005 0.0
N2302 N 0.65611 0.91476 0.63834 0.0
N2303 N 0.68404 0.96339 0.64109 0.0
H2304 H 0.02797 0.68485 0.64098 0.0
H2305 H 0.13058 0.76333 0.62992 0.0
H2306 H 0.04872 0.73754 0.66598 0.0
H2307 H 0.10203 0.72541 0.5799 0.0
H2308 H 0.10312 0.74869 0.65124 0.0
H2309 H 0.05784 0.69478 0.62631 0.0
C2310 C 0.0389 0.69838 0.64375 0.0
C2311 C 0.03592 0.71048 0.65449 0.0
C2312 C 0.10302 0.7434 0.63576 0.0
C2313 C 0.06988 0.7217 0.63819 0.0
C2314 C 0.11864 0.75164 0.62369 0.0
C2315 C 0.11843 0.74555 0.60317 0.0
C2316 C 0.08724 0.72884 0.62733 0.0
C2317 C 0.10262 0.7305 0.59565 0.0
C2318 C 0.05584 0.70402 0.63532 0.0
C2319 C 0.05046 0.72788 0.65758 0.0
N2320 N 0.08757 0.72266 0.60772 0.0
N2321 N 0.06684 0.73299 0.64944 0.0
H2322 H 0.97129 0.6335 0.7186 0.0
H2323 H 0.99918 0.56028 0.71645 0.0
H2324 H 0.9936 0.62347 0.66348 0.0
H2325 H 0.9887 0.57983 0.7737 0.0
H2326 H 0.99452 0.58116 0.69593 0.0
H2327 H 0.9742 0.61114 0.73797 0.0
C2328 C 0.97667 0.6265 0.71049 0.0
C2329 C 0.9823 0.63046 0.68938 0.0
C2330 C 0.99322 0.58083 0.71299 0.0
C2331 C 0.98574 0.60483 0.71159 0.0
C2332 C 0.99601 0.569 0.72475 0.0
C2333 C 0.99432 0.56822 0.7469 0.0
C2334 C 0.98862 0.59192 0.7234 0.0
C2335 C 0.98985 0.57967 0.75667 0.0
C2336 C 0.9784 0.61377 0.72161 0.0
C2337 C 0.98915 0.62091 0.67974 0.0
N2338 N 0.98714 0.59099 0.74487 0.0
N2339 N 0.99073 0.60857 0.69093 0.0
H2340 H 0.40775 0.3659 0.72647 0.0
H2341 H 0.39646 0.44828 0.75272 0.0
H2342 H 0.36037 0.3672 0.70887 0.0
H2343 H 0.44089 0.44341 0.77439 0.0
H2344 H 0.3828 0.41878 0.73632 0.0
H2345 H 0.42028 0.39484 0.74323 0.0
C2346 C 0.39999 0.3723 0.72604 0.0
C2347 C 0.38297 0.36407 0.71624 0.0
C2348 C 0.39553 0.4242 0.74471 0.0
C2349 C 0.39724 0.3973 0.73557 0.0
C2350 C 0.40326 0.44096 0.75416 0.0
C2351 C 0.41993 0.44839 0.76473 0.0
C2352 C 0.40455 0.41484 0.7459 0.0
C2353 C 0.42822 0.43838 0.76602 0.0
C2354 C 0.40714 0.38883 0.7357 0.0
C2355 C 0.37355 0.37304 0.71624 0.0
N2356 N 0.42048 0.4222 0.75666 0.0
N2357 N 0.38081 0.38918 0.72578 0.0
H2358 H 0.63123 0.99016 0.7185 0.0
H2359 H 0.53251 0.97427 0.72846 0.0
H2360 H 0.61409 0.02257 0.68744 0.0
H2361 H 0.55953 0.9664 0.78118 0.0
H2362 H 0.55895 0.98317 0.70658 0.0
H2363 H 0.60137 0.97284 0.735 0.0
C2364 C 0.62103 0.99332 0.71478 0.0
C2365 C 0.62503 0.00782 0.70179 0.0
C2366 C 0.55892 0.97917 0.72283 0.0
C2367 C 0.59116 0.98811 0.72014 0.0
C2368 C 0.54385 0.97401 0.73526 0.0
C2369 C 0.54396 0.96973 0.75665 0.0
C2370 C 0.57407 0.97983 0.73179 0.0
C2371 C 0.55906 0.96979 0.76478 0.0
C2372 C 0.60413 0.98354 0.72425 0.0
C2373 C 0.6115 0.01154 0.69754 0.0
N2374 N 0.57361 0.97488 0.75234 0.0
N2375 N 0.59515 0.00176 0.70671 0.0
loop_
_geom_bond_atom_site_label_1
_geom_bond_atom_site_label_2
_geom_bond_distance
_geom_bond_site_symmetry_2
_ccdc_geom_bond_type
Zn0 O3 2.031 1_554 S
Zn0 O5 2.049 . S
Zn0 O10 2.067 1_554 S
Zn1 O2 1.962 1_455 S
Zn1 O4 1.986 . S
Zn1 O6 1.996 1_455 S
Zn1 O9 1.943 1_554 S
O2 Zn1 1.962 1_655 S
O2 C7 1.254 1_554 S
O3 Zn0 2.031 1_556 S
O3 C7 1.269 . S
O4 Zn1 1.986 . S
O4 C11 1.262 . S
O5 Zn0 2.049 . S
O5 C13 1.260 . S
O6 Zn1 1.996 1_655 S
O6 C13 1.257 . S
C7 O2 1.254 1_556 S
C7 O3 1.269 . S
C8 O9 1.249 . S
C8 O10 1.270 1_455 S
O9 Zn1 1.943 1_556 S
O9 C8 1.249 . S
O10 Zn0 2.067 1_556 S
O10 C8 1.270 1_655 S
C11 O4 1.262 . S
C11 O12 1.232 . S
O12 C11 1.232 . S
C13 O5 1.260 . S
C13 O6 1.257 . S
Zn14 O17 2.031 1_554 S
Zn14 O19 2.049 . S
Zn14 O24 2.067 1_554 S
Zn15 O16 1.962 . S
Zn15 O18 1.986 . S
Zn15 O20 1.996 . S
Zn15 O23 1.943 1_554 S
O16 Zn15 1.962 . S
O16 C21 1.254 1_554 S
O17 Zn14 2.031 1_556 S
O17 C21 1.269 . S
O18 Zn15 1.986 . S
O18 C25 1.262 . S
O19 Zn14 2.049 . S
O19 C27 1.260 . S
O20 Zn15 1.996 . S
O20 C27 1.257 . S
C21 O16 1.254 1_556 S
C21 O17 1.269 . S
C22 O23 1.249 . S
C22 O24 1.270 . S
O23 Zn15 1.943 1_556 S
O23 C22 1.249 . S
O24 Zn14 2.067 1_556 S
O24 C22 1.270 . S
C25 O18 1.262 . S
C25 O26 1.232 . S
O26 C25 1.232 . S
C27 O19 1.260 . S
C27 O20 1.257 . S
Zn28 O31 2.031 . S
Zn28 O33 2.049 1_554 S
Zn28 O38 2.067 . S
Zn29 O30 1.962 1_545 S
Zn29 O32 1.986 1_554 S
Zn29 O34 1.996 1_544 S
Zn29 O37 1.943 . S
O30 Zn29 1.962 1_565 S
O30 C35 1.254 . S
O31 Zn28 2.031 . S
O31 C35 1.269 . S
O32 Zn29 1.986 1_556 S
O32 C39 1.262 . S
O33 Zn28 2.049 1_556 S
O33 C41 1.260 . S
O34 Zn29 1.996 1_566 S
O34 C41 1.257 . S
C35 O30 1.254 . S
C35 O31 1.269 . S
C36 O37 1.249 . S
C36 O38 1.270 1_545 S
O37 Zn29 1.943 . S
O37 C36 1.249 . S
O38 Zn28 2.067 . S
O38 C36 1.270 1_565 S
C39 O32 1.262 . S
C39 O40 1.232 1_556 S
O40 C39 1.232 1_554 S
C41 O33 1.260 . S
C41 O34 1.257 . S
Zn42 O45 2.031 . S
Zn42 O47 2.049 1_554 S
Zn42 O52 2.067 . S
Zn43 O44 1.962 1_655 S
Zn43 O46 1.986 1_554 S
Zn43 O48 1.996 1_654 S
Zn43 O51 1.943 . S
O44 Zn43 1.962 1_455 S
O44 C49 1.254 . S
O45 Zn42 2.031 . S
O45 C49 1.269 . S
O46 Zn43 1.986 1_556 S
O46 C53 1.262 . S
O47 Zn42 2.049 1_556 S
O47 C55 1.260 . S
O48 Zn43 1.996 1_456 S
O48 C55 1.257 . S
C49 O44 1.254 . S
C49 O45 1.269 . S
C50 O51 1.249 . S
C50 O52 1.270 1_655 S
O51 Zn43 1.943 . S
O51 C50 1.249 . S
O52 Zn42 2.067 . S
O52 C50 1.270 1_455 S
C53 O46 1.262 . S
C53 O54 1.232 1_556 S
O54 C53 1.232 1_554 S
C55 O47 1.260 . S
C55 O48 1.257 . S
Zn56 O59 2.031 . S
Zn56 O61 2.049 1_554 S
Zn56 O66 2.067 . S
Zn57 O58 1.962 . S
Zn57 O60 1.986 1_554 S
Zn57 O62 1.996 1_554 S
Zn57 O65 1.943 . S
O58 Zn57 1.962 . S
O58 C63 1.254 . S
O59 Zn56 2.031 . S
O59 C63 1.269 . S
O60 Zn57 1.986 1_556 S
O60 C67 1.262 . S
O61 Zn56 2.049 1_556 S
O61 C69 1.260 . S
O62 Zn57 1.996 1_556 S
O62 C69 1.257 . S
C63 O58 1.254 . S
C63 O59 1.269 . S
C64 O65 1.249 . S
C64 O66 1.270 . S
O65 Zn57 1.943 . S
O65 C64 1.249 . S
O66 Zn56 2.067 . S
O66 C64 1.270 . S
C67 O60 1.262 . S
C67 O68 1.232 1_556 S
O68 C67 1.232 1_554 S
C69 O61 1.260 . S
C69 O62 1.257 . S
Zn70 O73 2.031 1_554 S
Zn70 O75 2.049 . S
Zn70 O80 2.067 1_554 S
Zn71 O72 1.962 1_565 S
Zn71 O74 1.986 . S
Zn71 O76 1.996 1_565 S
Zn71 O79 1.941 . S
O72 Zn71 1.962 1_545 S
O72 C77 1.254 . S
O73 Zn70 2.031 1_556 S
O73 C77 1.269 1_556 S
O74 Zn71 1.986 . S
O74 C81 1.262 . S
O75 Zn70 2.049 . S
O75 C83 1.260 . S
O76 Zn71 1.996 1_545 S
O76 C83 1.257 . S
C77 O72 1.254 . S
C77 O73 1.269 1_554 S
C78 O79 1.250 1_556 S
C78 O80 1.270 1_565 S
O79 Zn71 1.941 . S
O79 C78 1.250 1_554 S
O80 Zn70 2.067 1_556 S
O80 C78 1.270 1_545 S
C81 O74 1.262 . S
C81 O82 1.232 . S
O82 C81 1.232 . S
C83 O75 1.260 . S
C83 O76 1.257 . S
Zn84 O87 2.031 . S
Zn84 O89 2.049 . S
Zn84 O94 2.067 . S
Zn85 O86 1.962 . S
Zn85 O88 1.986 . S
Zn85 O90 1.996 . S
Zn85 O93 1.943 . S
O86 Zn85 1.962 . S
O86 C91 1.254 . S
O87 Zn84 2.031 . S
O87 C91 1.269 . S
O88 Zn85 1.986 . S
O88 C95 1.262 . S
O89 Zn84 2.049 . S
O89 C97 1.260 . S
O90 Zn85 1.996 . S
O90 C97 1.257 . S
C91 O86 1.254 . S
C91 O87 1.269 . S
C92 O93 1.249 . S
C92 O94 1.270 . S
O93 Zn85 1.943 . S
O93 C92 1.249 . S
O94 Zn84 2.067 . S
O94 C92 1.270 . S
C95 O88 1.262 . S
C95 O96 1.232 . S
O96 C95 1.232 . S
C97 O89 1.260 . S
C97 O90 1.257 . S
Zn98 O101 2.031 . S
Zn98 O103 2.049 . S
Zn98 O108 2.067 . S
Zn99 O100 1.962 . S
Zn99 O102 1.986 1_565 S
Zn99 O104 1.996 . S
Zn99 O107 1.943 . S
O100 Zn99 1.962 . S
O100 C105 1.254 . S
O101 Zn98 2.031 . S
O101 C105 1.269 . S
O102 Zn99 1.986 1_545 S
O102 C109 1.262 . S
O103 Zn98 2.049 . S
O103 C111 1.260 . S
O104 Zn99 1.996 . S
O104 C111 1.257 . S
C105 O100 1.254 . S
C105 O101 1.269 . S
C106 O107 1.249 . S
C106 O108 1.270 . S
O107 Zn99 1.943 . S
O107 C106 1.249 . S
O108 Zn98 2.067 . S
O108 C106 1.270 . S
C109 O102 1.262 . S
C109 O110 1.232 . S
O110 C109 1.232 . S
C111 O103 1.260 . S
C111 O104 1.257 . S
Zn112 O115 2.031 . S
Zn112 O117 2.049 . S
Zn112 O122 2.067 . S
Zn113 O114 1.962 1_455 S
Zn113 O116 1.986 . S
Zn113 O118 1.996 . S
Zn113 O121 1.943 . S
O114 Zn113 1.962 1_655 S
O114 C119 1.254 . S
O115 Zn112 2.031 . S
O115 C119 1.269 1_455 S
O116 Zn113 1.986 . S
O116 C123 1.262 . S
O117 Zn112 2.049 . S
O117 C125 1.260 . S
O118 Zn113 1.996 . S
O118 C125 1.257 . S
C119 O114 1.254 . S
C119 O115 1.269 1_655 S
C120 O121 1.249 . S
C120 O122 1.270 . S
O121 Zn113 1.943 . S
O121 C120 1.249 . S
O122 Zn112 2.067 . S
O122 C120 1.270 . S
C123 O116 1.262 . S
C123 O124 1.232 . S
O124 C123 1.232 . S
C125 O117 1.260 . S
C125 O118 1.257 . S
Zn126 O129 2.031 . S
Zn126 O131 2.049 . S
Zn126 O136 2.067 . S
Zn127 O128 1.962 1_565 S
Zn127 O130 1.986 . S
Zn127 O132 1.996 . S
Zn127 O135 1.943 . S
O128 Zn127 1.962 1_545 S
O128 C133 1.254 . S
O129 Zn126 2.031 . S
O129 C133 1.269 1_565 S
O130 Zn127 1.986 . S
O130 C137 1.262 . S
O131 Zn126 2.049 . S
O131 C139 1.260 . S
O132 Zn127 1.996 . S
O132 C139 1.257 . S
C133 O128 1.254 . S
C133 O129 1.269 1_545 S
C134 O135 1.249 . S
C134 O136 1.270 . S
O135 Zn127 1.943 . S
O135 C134 1.249 . S
O136 Zn126 2.067 . S
O136 C134 1.270 . S
C137 O130 1.262 . S
C137 O138 1.232 . S
O138 C137 1.232 . S
C139 O131 1.260 . S
C139 O132 1.257 . S
Zn140 O143 2.031 . S
Zn140 O145 2.049 . S
Zn140 O150 2.067 . S
Zn141 O142 1.962 1_455 S
Zn141 O144 1.986 . S
Zn141 O146 1.996 . S
Zn141 O149 1.943 . S
O142 Zn141 1.962 1_655 S
O142 C147 1.254 . S
O143 Zn140 2.031 . S
O143 C147 1.269 1_455 S
O144 Zn141 1.986 . S
O144 C151 1.262 . S
O145 Zn140 2.049 . S
O145 C153 1.260 . S
O146 Zn141 1.996 . S
O146 C153 1.257 . S
C147 O142 1.254 . S
C147 O143 1.269 1_655 S
C148 O149 1.249 . S
C148 O150 1.270 . S
O149 Zn141 1.943 . S
O149 C148 1.249 . S
O150 Zn140 2.067 . S
O150 C148 1.270 . S
C151 O144 1.262 . S
C151 O152 1.232 . S
O152 C151 1.232 . S
C153 O145 1.260 . S
C153 O146 1.257 . S
Zn154 O157 2.031 . S
Zn154 O159 2.049 . S
Zn154 O164 2.067 . S
Zn155 O156 1.962 . S
Zn155 O158 1.986 . S
Zn155 O160 1.996 . S
Zn155 O163 1.943 . S
O156 Zn155 1.962 . S
O156 C161 1.254 . S
O157 Zn154 2.031 . S
O157 C161 1.269 . S
O158 Zn155 1.986 . S
O158 C165 1.262 . S
O159 Zn154 2.049 . S
O159 C167 1.260 . S
O160 Zn155 1.996 . S
O160 C167 1.257 . S
C161 O156 1.254 . S
C161 O157 1.269 . S
C162 O163 1.249 . S
C162 O164 1.270 . S
O163 Zn155 1.943 . S
O163 C162 1.249 . S
O164 Zn154 2.067 . S
O164 C162 1.270 . S
C165 O158 1.262 . S
C165 O166 1.232 . S
O166 C165 1.232 . S
C167 O159 1.260 . S
C167 O160 1.257 . S
Zn168 O171 2.031 . S
Zn168 O173 2.049 . S
Zn168 O178 2.067 . S
Zn169 O170 1.962 1_545 S
Zn169 O172 1.986 . S
Zn169 O174 1.996 . S
Zn169 O177 1.943 . S
O170 Zn169 1.962 1_565 S
O170 C175 1.254 . S
O171 Zn168 2.031 . S
O171 C175 1.269 1_545 S
O172 Zn169 1.986 . S
O172 C179 1.262 . S
O173 Zn168 2.049 . S
O173 C181 1.260 . S
O174 Zn169 1.996 . S
O174 C181 1.257 . S
C175 O170 1.254 . S
C175 O171 1.269 1_565 S
C176 O177 1.249 . S
C176 O178 1.270 . S
O177 Zn169 1.943 . S
O177 C176 1.249 . S
O178 Zn168 2.067 . S
O178 C176 1.270 . S
C179 O172 1.262 . S
C179 O180 1.232 . S
O180 C179 1.232 . S
C181 O173 1.260 . S
C181 O174 1.257 . S
Zn182 O185 2.027 1_655 S
Zn182 O187 2.049 . S
Zn182 O192 2.067 . S
Zn183 O184 1.962 1_655 S
Zn183 O186 1.986 . S
Zn183 O188 1.996 . S
Zn183 O191 1.943 . S
O184 Zn183 1.962 1_455 S
O184 C189 1.254 . S
O185 Zn182 2.027 1_455 S
O185 C189 1.276 . S
O186 Zn183 1.986 . S
O186 C193 1.262 . S
O187 Zn182 2.049 . S
O187 C195 1.260 . S
O188 Zn183 1.996 . S
O188 C195 1.257 . S
C189 O184 1.254 . S
C189 O185 1.276 . S
C190 O191 1.249 . S
C190 O192 1.270 . S
O191 Zn183 1.943 . S
O191 C190 1.249 . S
O192 Zn182 2.067 . S
O192 C190 1.270 . S
C193 O186 1.262 . S
C193 O194 1.232 . S
O194 C193 1.232 . S
C195 O187 1.260 . S
C195 O188 1.257 . S
Zn196 O199 2.031 . S
Zn196 O201 2.049 . S
Zn196 O206 2.067 . S
Zn197 O198 1.962 . S
Zn197 O200 1.986 . S
Zn197 O202 1.996 . S
Zn197 O205 1.943 . S
O198 Zn197 1.962 . S
O198 C203 1.254 . S
O199 Zn196 2.031 . S
O199 C203 1.269 . S
O200 Zn197 1.986 . S
O200 C207 1.262 . S
O201 Zn196 2.049 . S
O201 C209 1.260 . S
O202 Zn197 1.996 . S
O202 C209 1.257 . S
C203 O198 1.254 . S
C203 O199 1.269 . S
C204 O205 1.249 . S
C204 O206 1.270 . S
O205 Zn197 1.943 . S
O205 C204 1.249 . S
O206 Zn196 2.067 . S
O206 C204 1.270 . S
C207 O200 1.262 . S
C207 O208 1.232 . S
O208 C207 1.232 . S
C209 O201 1.260 . S
C209 O202 1.257 . S
Zn210 O213 2.031 . S
Zn210 O215 2.049 . S
Zn210 O220 2.067 . S
Zn211 O212 1.962 . S
Zn211 O214 1.986 . S
Zn211 O216 1.996 . S
Zn211 O219 1.943 . S
O212 Zn211 1.962 . S
O212 C217 1.254 . S
O213 Zn210 2.031 . S
O213 C217 1.269 . S
O214 Zn211 1.986 . S
O214 C221 1.262 . S
O215 Zn210 2.049 . S
O215 C223 1.260 . S
O216 Zn211 1.996 . S
O216 C223 1.257 . S
C217 O212 1.254 . S
C217 O213 1.269 . S
C218 O219 1.249 . S
C218 O220 1.270 . S
O219 Zn211 1.943 . S
O219 C218 1.249 . S
O220 Zn210 2.067 . S
O220 C218 1.270 . S
C221 O214 1.262 . S
C221 O222 1.232 . S
O222 C221 1.232 . S
C223 O215 1.260 . S
C223 O216 1.257 . S
Zn224 O227 2.031 . S
Zn224 O229 2.049 . S
Zn224 O234 2.067 . S
Zn225 O226 1.962 . S
Zn225 O228 1.986 1_545 S
Zn225 O230 1.996 . S
Zn225 O233 1.943 . S
O226 Zn225 1.962 . S
O226 C231 1.254 . S
O227 Zn224 2.031 . S
O227 C231 1.269 . S
O228 Zn225 1.986 1_565 S
O228 C235 1.262 . S
O229 Zn224 2.049 . S
O229 C237 1.260 . S
O230 Zn225 1.996 . S
O230 C237 1.257 . S
C231 O226 1.254 . S
C231 O227 1.269 . S
C232 O233 1.249 . S
C232 O234 1.270 . S
O233 Zn225 1.943 . S
O233 C232 1.249 . S
O234 Zn224 2.067 . S
O234 C232 1.270 . S
C235 O228 1.262 . S
C235 O236 1.232 . S
O236 C235 1.232 . S
C237 O229 1.260 . S
C237 O230 1.257 . S
Zn238 O241 2.031 . S
Zn238 O243 2.049 . S
Zn238 O248 2.067 . S
Zn239 O240 1.962 1_655 S
Zn239 O242 1.986 . S
Zn239 O244 1.996 . S
Zn239 O247 1.943 . S
O240 Zn239 1.962 1_455 S
O240 C245 1.254 . S
O241 Zn238 2.031 . S
O241 C245 1.269 1_655 S
O242 Zn239 1.986 . S
O242 C249 1.262 . S
O243 Zn238 2.049 . S
O243 C251 1.260 . S
O244 Zn239 1.996 . S
O244 C251 1.257 . S
C245 O240 1.254 . S
C245 O241 1.269 1_455 S
C246 O247 1.249 . S
C246 O248 1.270 . S
O247 Zn239 1.943 . S
O247 C246 1.249 . S
O248 Zn238 2.067 . S
O248 C246 1.270 . S
C249 O242 1.262 . S
C249 O250 1.232 . S
O250 C249 1.232 . S
C251 O243 1.260 . S
C251 O244 1.257 . S
C252 C253 1.384 . S
C252 C254 1.384 . S
C252 H280 0.931 . S
C253 C252 1.384 . S
C253 C256 1.382 . S
C254 C252 1.384 . S
C254 C255 1.381 . S
C254 H281 0.930 . S
C255 C254 1.381 . S
C255 C257 1.381 . S
C255 C258 1.487 . S
C256 C253 1.382 . S
C256 C257 1.387 . S
C256 H282 0.930 . S
C257 C255 1.381 . S
C257 C256 1.387 . S
C257 H283 0.931 . S
C258 C255 1.487 . S
C258 C265 1.399 . S
C258 N296 1.343 . S
C259 C260 1.384 . S
C259 C261 1.384 . S
C259 H284 0.931 . S
C260 C259 1.384 . S
C260 C263 1.382 . S
C261 C259 1.384 . S
C261 C262 1.381 . S
C261 H285 0.930 . S
C262 C261 1.381 . S
C262 C264 1.381 . S
C262 C265 1.487 . S
C263 C260 1.382 . S
C263 C264 1.387 . S
C263 H286 0.930 . S
C264 C262 1.381 . S
C264 C263 1.387 . S
C264 H287 0.931 . S
C265 C258 1.399 . S
C265 C262 1.487 . S
C265 N297 1.343 . S
C266 C267 1.384 . S
C266 C268 1.384 . S
C266 H288 0.931 . S
C267 C266 1.384 . S
C267 C270 1.382 . S
C268 C266 1.384 . S
C268 C269 1.381 . S
C268 H289 0.930 . S
C269 C268 1.381 . S
C269 C271 1.381 . S
C269 C272 1.487 . S
C270 C267 1.382 . S
C270 C271 1.387 . S
C270 H290 0.930 . S
C271 C269 1.381 . S
C271 C270 1.387 . S
C271 H291 0.931 . S
C272 C269 1.487 . S
C272 C279 1.399 . S
C272 N297 1.343 . S
C273 C274 1.384 . S
C273 C275 1.384 . S
C273 H292 0.931 . S
C274 C273 1.384 . S
C274 C277 1.382 . S
C275 C273 1.384 . S
C275 C276 1.381 . S
C275 H293 0.930 . S
C276 C275 1.381 . S
C276 C278 1.381 . S
C276 C279 1.487 . S
C277 C274 1.382 . S
C277 C278 1.387 . S
C277 H294 0.930 . S
C278 C276 1.381 . S
C278 C277 1.387 . S
C278 H295 0.931 . S
C279 C272 1.399 . S
C279 C276 1.487 . S
C279 N296 1.343 . S
H280 C252 0.931 . S
H281 C254 0.930 . S
H282 C256 0.930 . S
H283 C257 0.931 . S
H284 C259 0.931 . S
H285 C261 0.930 . S
H286 C263 0.930 . S
H287 C264 0.931 . S
H288 C266 0.931 . S
H289 C268 0.930 . S
H290 C270 0.930 . S
H291 C271 0.931 . S
H292 C273 0.931 . S
H293 C275 0.930 . S
H294 C277 0.930 . S
H295 C278 0.931 . S
N296 C258 1.343 . S
N296 C279 1.343 . S
N297 C265 1.343 . S
N297 C272 1.343 . S
C298 C299 1.384 . S
C298 C300 1.384 . S
C298 H326 0.931 . S
C299 C298 1.384 . S
C299 C302 1.382 . S
C300 C298 1.384 . S
C300 C301 1.381 . S
C300 H327 0.930 . S
C301 C300 1.381 . S
C301 C303 1.381 . S
C301 C304 1.487 . S
C302 C299 1.382 . S
C302 C303 1.387 . S
C302 H328 0.930 . S
C303 C301 1.381 . S
C303 C302 1.387 . S
C303 H329 0.931 . S
C304 C301 1.487 . S
C304 C311 1.399 . S
C304 N342 1.343 . S
C305 C306 1.384 . S
C305 C307 1.384 . S
C305 H330 0.931 . S
C306 C305 1.384 . S
C306 C309 1.382 . S
C307 C305 1.384 . S
C307 C308 1.381 . S
C307 H331 0.930 . S
C308 C307 1.381 . S
C308 C310 1.381 . S
C308 C311 1.487 . S
C309 C306 1.382 . S
C309 C310 1.387 . S
C309 H332 0.930 . S
C310 C308 1.381 . S
C310 C309 1.387 . S
C310 H333 0.931 . S
C311 C304 1.399 . S
C311 C308 1.487 . S
C311 N343 1.343 . S
C312 C313 1.384 . S
C312 C314 1.384 . S
C312 H334 0.931 . S
C313 C312 1.384 . S
C313 C316 1.382 . S
C314 C312 1.384 . S
C314 C315 1.381 . S
C314 H335 0.930 . S
C315 C314 1.381 . S
C315 C317 1.381 . S
C315 C318 1.487 . S
C316 C313 1.382 . S
C316 C317 1.387 . S
C316 H336 0.930 . S
C317 C315 1.381 . S
C317 C316 1.387 . S
C317 H337 0.931 . S
C318 C315 1.487 . S
C318 C325 1.399 . S
C318 N343 1.343 . S
C319 C320 1.384 . S
C319 C321 1.384 . S
C319 H338 0.931 . S
C320 C319 1.384 . S
C320 C323 1.382 . S
C321 C319 1.384 . S
C321 C322 1.381 . S
C321 H339 0.930 . S
C322 C321 1.381 . S
C322 C324 1.381 . S
C322 C325 1.487 . S
C323 C320 1.382 . S
C323 C324 1.387 . S
C323 H340 0.930 . S
C324 C322 1.381 . S
C324 C323 1.387 . S
C324 H341 0.931 . S
C325 C318 1.399 . S
C325 C322 1.487 . S
C325 N342 1.343 . S
H326 C298 0.931 . S
H327 C300 0.930 . S
H328 C302 0.930 . S
H329 C303 0.931 . S
H330 C305 0.931 . S
H331 C307 0.930 . S
H332 C309 0.930 . S
H333 C310 0.931 . S
H334 C312 0.931 . S
H335 C314 0.930 . S
H336 C316 0.930 . S
H337 C317 0.931 . S
H338 C319 0.931 . S
H339 C321 0.930 . S
H340 C323 0.930 . S
H341 C324 0.931 . S
N342 C304 1.343 . S
N342 C325 1.343 . S
N343 C311 1.343 . S
N343 C318 1.343 . S
C344 C345 1.384 . S
C344 C346 1.384 . S
C344 H372 0.931 . S
C345 C344 1.384 . S
C345 C348 1.382 . S
C346 C344 1.384 . S
C346 C347 1.381 . S
C346 H373 0.930 . S
C347 C346 1.381 . S
C347 C349 1.381 . S
C347 C350 1.487 . S
C348 C345 1.382 . S
C348 C349 1.387 . S
C348 H374 0.930 . S
C349 C347 1.381 . S
C349 C348 1.387 . S
C349 H375 0.931 . S
C350 C347 1.487 . S
C350 C357 1.399 . S
C350 N388 1.343 . S
C351 C352 1.384 . S
C351 C353 1.384 . S
C351 H376 0.931 . S
C352 C351 1.384 . S
C352 C355 1.382 . S
C353 C351 1.384 . S
C353 C354 1.381 . S
C353 H377 0.930 . S
C354 C353 1.381 . S
C354 C356 1.381 . S
C354 C357 1.487 . S
C355 C352 1.382 . S
C355 C356 1.387 . S
C355 H378 0.930 . S
C356 C354 1.381 . S
C356 C355 1.387 . S
C356 H379 0.931 . S
C357 C350 1.399 . S
C357 C354 1.487 . S
C357 N389 1.343 . S
C358 C359 1.384 . S
C358 C360 1.384 . S
C358 H380 0.931 . S
C359 C358 1.384 . S
C359 C362 1.382 . S
C360 C358 1.384 . S
C360 C361 1.381 . S
C360 H381 0.930 . S
C361 C360 1.381 . S
C361 C363 1.381 . S
C361 C364 1.487 . S
C362 C359 1.382 . S
C362 C363 1.387 . S
C362 H382 0.930 . S
C363 C361 1.381 . S
C363 C362 1.387 . S
C363 H383 0.931 . S
C364 C361 1.487 . S
C364 C371 1.399 . S
C364 N389 1.343 . S
C365 C366 1.384 . S
C365 C367 1.384 . S
C365 H384 0.931 . S
C366 C365 1.384 . S
C366 C369 1.382 . S
C367 C365 1.384 . S
C367 C368 1.381 . S
C367 H385 0.930 . S
C368 C367 1.381 . S
C368 C370 1.381 . S
C368 C371 1.487 . S
C369 C366 1.382 . S
C369 C370 1.387 . S
C369 H386 0.930 . S
C370 C368 1.381 . S
C370 C369 1.387 . S
C370 H387 0.931 . S
C371 C364 1.399 . S
C371 C368 1.487 . S
C371 N388 1.343 . S
H372 C344 0.931 . S
H373 C346 0.930 . S
H374 C348 0.930 . S
H375 C349 0.931 . S
H376 C351 0.931 . S
H377 C353 0.930 . S
H378 C355 0.930 . S
H379 C356 0.931 . S
H380 C358 0.931 . S
H381 C360 0.930 . S
H382 C362 0.930 . S
H383 C363 0.931 . S
H384 C365 0.931 . S
H385 C367 0.930 . S
H386 C369 0.930 . S
H387 C370 0.931 . S
N388 C350 1.343 . S
N388 C371 1.343 . S
N389 C357 1.343 . S
N389 C364 1.343 . S
C390 C391 1.384 . S
C390 C392 1.384 . S
C390 H418 0.931 . S
C391 C390 1.384 . S
C391 C394 1.382 . S
C392 C390 1.384 . S
C392 C393 1.381 . S
C392 H419 0.930 . S
C393 C392 1.381 . S
C393 C395 1.381 . S
C393 C396 1.487 . S
C394 C391 1.382 . S
C394 C395 1.387 . S
C394 H420 0.930 . S
C395 C393 1.381 . S
C395 C394 1.387 . S
C395 H421 0.931 . S
C396 C393 1.487 . S
C396 C403 1.399 . S
C396 N434 1.343 . S
C397 C398 1.384 . S
C397 C399 1.384 . S
C397 H422 0.931 . S
C398 C397 1.384 . S
C398 C401 1.382 . S
C399 C397 1.384 . S
C399 C400 1.381 . S
C399 H423 0.930 . S
C400 C399 1.381 . S
C400 C402 1.381 . S
C400 C403 1.487 . S
C401 C398 1.382 . S
C401 C402 1.387 . S
C401 H424 0.930 . S
C402 C400 1.381 . S
C402 C401 1.387 . S
C402 H425 0.931 . S
C403 C396 1.399 . S
C403 C400 1.487 . S
C403 N435 1.343 . S
C404 C405 1.384 . S
C404 C406 1.384 . S
C404 H426 0.931 . S
C405 C404 1.384 . S
C405 C408 1.382 . S
C406 C404 1.384 . S
C406 C407 1.381 . S
C406 H427 0.930 . S
C407 C406 1.381 . S
C407 C409 1.381 . S
C407 C410 1.487 . S
C408 C405 1.382 . S
C408 C409 1.387 . S
C408 H428 0.930 . S
C409 C407 1.381 . S
C409 C408 1.387 . S
C409 H429 0.931 . S
C410 C407 1.487 . S
C410 C417 1.399 . S
C410 N435 1.343 . S
C411 C412 1.384 . S
C411 C413 1.384 . S
C411 H430 0.931 . S
C412 C411 1.384 . S
C412 C415 1.382 . S
C413 C411 1.384 . S
C413 C414 1.381 . S
C413 H431 0.930 . S
C414 C413 1.381 . S
C414 C416 1.381 . S
C414 C417 1.487 . S
C415 C412 1.382 . S
C415 C416 1.387 . S
C415 H432 0.930 . S
C416 C414 1.381 . S
C416 C415 1.387 . S
C416 H433 0.931 . S
C417 C410 1.399 . S
C417 C414 1.487 . S
C417 N434 1.343 . S
H418 C390 0.931 . S
H419 C392 0.930 . S
H420 C394 0.930 . S
H421 C395 0.931 . S
H422 C397 0.931 . S
H423 C399 0.930 . S
H424 C401 0.930 . S
H425 C402 0.931 . S
H426 C404 0.931 . S
H427 C406 0.930 . S
H428 C408 0.930 . S
H429 C409 0.931 . S
H430 C411 0.931 . S
H431 C413 0.930 . S
H432 C415 0.930 . S
H433 C416 0.931 . S
N434 C396 1.343 . S
N434 C417 1.343 . S
N435 C403 1.343 . S
N435 C410 1.343 . S
C436 C437 1.384 . S
C436 C438 1.384 . S
C436 H464 0.931 . S
C437 C436 1.384 . S
C437 C440 1.382 . S
C438 C436 1.384 . S
C438 C439 1.381 . S
C438 H465 0.930 . S
C439 C438 1.381 . S
C439 C441 1.381 . S
C439 C442 1.487 . S
C440 C437 1.382 . S
C440 C441 1.387 . S
C440 H466 0.930 . S
C441 C439 1.381 . S
C441 C440 1.387 . S
C441 H467 0.931 . S
C442 C439 1.487 . S
C442 C449 1.399 . S
C442 N480 1.343 . S
C443 C444 1.384 . S
C443 C445 1.384 . S
C443 H468 0.931 . S
C444 C443 1.384 . S
C444 C447 1.382 . S
C445 C443 1.384 . S
C445 C446 1.381 . S
C445 H469 0.930 . S
C446 C445 1.381 . S
C446 C448 1.381 . S
C446 C449 1.487 . S
C447 C444 1.382 . S
C447 C448 1.387 . S
C447 H470 0.930 . S
C448 C446 1.381 . S
C448 C447 1.387 . S
C448 H471 0.931 . S
C449 C442 1.399 . S
C449 C446 1.487 . S
C449 N481 1.343 . S
C450 C451 1.384 . S
C450 C452 1.384 . S
C450 H472 0.931 . S
C451 C450 1.384 . S
C451 C454 1.382 . S
C452 C450 1.384 . S
C452 C453 1.381 . S
C452 H473 0.930 . S
C453 C452 1.381 . S
C453 C455 1.381 . S
C453 C456 1.487 . S
C454 C451 1.382 . S
C454 C455 1.387 . S
C454 H474 0.930 . S
C455 C453 1.381 . S
C455 C454 1.387 . S
C455 H475 0.931 . S
C456 C453 1.487 . S
C456 C463 1.399 . S
C456 N481 1.343 . S
C457 C458 1.384 . S
C457 C459 1.384 . S
C457 H476 0.931 . S
C458 C457 1.384 . S
C458 C461 1.382 . S
C459 C457 1.384 . S
C459 C460 1.381 . S
C459 H477 0.930 . S
C460 C459 1.381 . S
C460 C462 1.381 . S
C460 C463 1.487 . S
C461 C458 1.382 . S
C461 C462 1.387 . S
C461 H478 0.930 . S
C462 C460 1.381 . S
C462 C461 1.387 . S
C462 H479 0.931 . S
C463 C456 1.399 . S
C463 C460 1.487 . S
C463 N480 1.343 . S
H464 C436 0.931 . S
H465 C438 0.930 . S
H466 C440 0.930 . S
H467 C441 0.931 . S
H468 C443 0.931 . S
H469 C445 0.930 . S
H470 C447 0.930 . S
H471 C448 0.931 . S
H472 C450 0.931 . S
H473 C452 0.930 . S
H474 C454 0.930 . S
H475 C455 0.931 . S
H476 C457 0.931 . S
H477 C459 0.930 . S
H478 C461 0.930 . S
H479 C462 0.931 . S
N480 C442 1.343 . S
N480 C463 1.343 . S
N481 C449 1.343 . S
N481 C456 1.343 . S
C482 C483 1.384 . S
C482 C484 1.384 . S
C482 H510 0.931 . S
C483 C482 1.384 . S
C483 C486 1.382 . S
C484 C482 1.384 . S
C484 C485 1.381 . S
C484 H511 0.930 . S
C485 C484 1.381 . S
C485 C487 1.381 . S
C485 C488 1.487 . S
C486 C483 1.382 . S
C486 C487 1.387 . S
C486 H512 0.930 . S
C487 C485 1.381 . S
C487 C486 1.387 . S
C487 H513 0.931 . S
C488 C485 1.487 . S
C488 C495 1.399 . S
C488 N526 1.343 . S
C489 C490 1.384 . S
C489 C491 1.384 . S
C489 H514 0.931 . S
C490 C489 1.384 . S
C490 C493 1.382 . S
C491 C489 1.384 . S
C491 C492 1.381 . S
C491 H515 0.930 . S
C492 C491 1.381 . S
C492 C494 1.381 . S
C492 C495 1.487 . S
C493 C490 1.382 . S
C493 C494 1.387 . S
C493 H516 0.930 . S
C494 C492 1.381 . S
C494 C493 1.387 . S
C494 H517 0.931 . S
C495 C488 1.399 . S
C495 C492 1.487 . S
C495 N527 1.343 . S
C496 C497 1.384 . S
C496 C498 1.384 . S
C496 H518 0.931 . S
C497 C496 1.384 . S
C497 C500 1.382 . S
C498 C496 1.384 . S
C498 C499 1.381 . S
C498 H519 0.930 . S
C499 C498 1.381 . S
C499 C501 1.381 . S
C499 C502 1.487 . S
C500 C497 1.382 . S
C500 C501 1.387 . S
C500 H520 0.930 . S
C501 C499 1.381 . S
C501 C500 1.387 . S
C501 H521 0.931 . S
C502 C499 1.487 . S
C502 C509 1.399 . S
C502 N527 1.343 . S
C503 C504 1.384 . S
C503 C505 1.384 . S
C503 H522 0.931 . S
C504 C503 1.384 . S
C504 C507 1.382 . S
C505 C503 1.384 . S
C505 C506 1.381 . S
C505 H523 0.930 . S
C506 C505 1.381 . S
C506 C508 1.381 . S
C506 C509 1.487 . S
C507 C504 1.382 . S
C507 C508 1.387 . S
C507 H524 0.930 . S
C508 C506 1.381 . S
C508 C507 1.387 . S
C508 H525 0.931 . S
C509 C502 1.399 . S
C509 C506 1.487 . S
C509 N526 1.343 . S
H510 C482 0.931 . S
H511 C484 0.930 . S
H512 C486 0.930 . S
H513 C487 0.931 . S
H514 C489 0.931 . S
H515 C491 0.930 . S
H516 C493 0.930 . S
H517 C494 0.931 . S
H518 C496 0.931 . S
H519 C498 0.930 . S
H520 C500 0.930 . S
H521 C501 0.931 . S
H522 C503 0.931 . S
H523 C505 0.930 . S
H524 C507 0.930 . S
H525 C508 0.931 . S
N526 C488 1.343 . S
N526 C509 1.343 . S
N527 C495 1.343 . S
N527 C502 1.343 . S
C528 C529 1.384 . S
C528 C530 1.384 . S
C528 H556 0.931 . S
C529 C528 1.384 . S
C529 C532 1.382 . S
C530 C528 1.384 . S
C530 C531 1.381 . S
C530 H557 0.930 . S
C531 C530 1.381 . S
C531 C533 1.381 . S
C531 C534 1.487 . S
C532 C529 1.382 . S
C532 C533 1.387 . S
C532 H558 0.930 . S
C533 C531 1.381 . S
C533 C532 1.387 . S
C533 H559 0.931 . S
C534 C531 1.487 . S
C534 C541 1.399 . S
C534 N572 1.343 . S
C535 C536 1.384 . S
C535 C537 1.384 . S
C535 H560 0.931 . S
C536 C535 1.384 . S
C536 C539 1.382 . S
C537 C535 1.384 . S
C537 C538 1.381 . S
C537 H561 0.930 . S
C538 C537 1.381 . S
C538 C540 1.381 . S
C538 C541 1.487 . S
C539 C536 1.382 . S
C539 C540 1.387 . S
C539 H562 0.930 . S
C540 C538 1.381 . S
C540 C539 1.387 . S
C540 H563 0.931 . S
C541 C534 1.399 . S
C541 C538 1.487 . S
C541 N573 1.343 . S
C542 C543 1.384 . S
C542 C544 1.384 . S
C542 H564 0.931 . S
C543 C542 1.384 . S
C543 C546 1.382 . S
C544 C542 1.384 . S
C544 C545 1.381 . S
C544 H565 0.930 . S
C545 C544 1.381 . S
C545 C547 1.381 . S
C545 C548 1.487 . S
C546 C543 1.382 . S
C546 C547 1.387 . S
C546 H566 0.930 . S
C547 C545 1.381 . S
C547 C546 1.387 . S
C547 H567 0.931 . S
C548 C545 1.487 . S
C548 C555 1.399 . S
C548 N573 1.343 . S
C549 C550 1.384 . S
C549 C551 1.384 . S
C549 H568 0.931 . S
C550 C549 1.384 . S
C550 C553 1.382 . S
C551 C549 1.384 . S
C551 C552 1.381 . S
C551 H569 0.930 . S
C552 C551 1.381 . S
C552 C554 1.381 . S
C552 C555 1.487 . S
C553 C550 1.382 . S
C553 C554 1.387 . S
C553 H570 0.930 . S
C554 C552 1.381 . S
C554 C553 1.387 . S
C554 H571 0.931 . S
C555 C548 1.399 . S
C555 C552 1.487 . S
C555 N572 1.343 . S
H556 C528 0.931 . S
H557 C530 0.930 . S
H558 C532 0.930 . S
H559 C533 0.931 . S
H560 C535 0.931 . S
H561 C537 0.930 . S
H562 C539 0.930 . S
H563 C540 0.931 . S
H564 C542 0.931 . S
H565 C544 0.930 . S
H566 C546 0.930 . S
H567 C547 0.931 . S
H568 C549 0.931 . S
H569 C551 0.930 . S
H570 C553 0.930 . S
H571 C554 0.931 . S
N572 C534 1.343 . S
N572 C555 1.343 . S
N573 C541 1.343 . S
N573 C548 1.343 . S
C574 C575 1.384 . S
C574 C576 1.384 . S
C574 H602 0.931 . S
C575 C574 1.384 . S
C575 C578 1.382 . S
C576 C574 1.384 . S
C576 C577 1.381 . S
C576 H603 0.930 . S
C577 C576 1.381 . S
C577 C579 1.381 . S
C577 C580 1.487 . S
C578 C575 1.382 . S
C578 C579 1.387 . S
C578 H604 0.930 . S
C579 C577 1.381 . S
C579 C578 1.387 . S
C579 H605 0.931 . S
C580 C577 1.487 . S
C580 C587 1.399 . S
C580 N618 1.343 . S
C581 C582 1.384 . S
C581 C583 1.384 . S
C581 H606 0.931 . S
C582 C581 1.384 . S
C582 C585 1.382 . S
C583 C581 1.384 . S
C583 C584 1.381 . S
C583 H607 0.930 . S
C584 C583 1.381 . S
C584 C586 1.381 . S
C584 C587 1.487 . S
C585 C582 1.382 . S
C585 C586 1.387 . S
C585 H608 0.930 . S
C586 C584 1.381 . S
C586 C585 1.387 . S
C586 H609 0.931 . S
C587 C580 1.399 . S
C587 C584 1.487 . S
C587 N619 1.343 . S
C588 C589 1.384 . S
C588 C590 1.384 . S
C588 H610 0.931 . S
C589 C588 1.384 . S
C589 C592 1.382 . S
C590 C588 1.384 . S
C590 C591 1.381 . S
C590 H611 0.930 . S
C591 C590 1.381 . S
C591 C593 1.381 . S
C591 C594 1.487 . S
C592 C589 1.382 . S
C592 C593 1.387 . S
C592 H612 0.930 . S
C593 C591 1.381 . S
C593 C592 1.387 . S
C593 H613 0.931 . S
C594 C591 1.487 . S
C594 C601 1.399 . S
C594 N619 1.343 . S
C595 C596 1.384 . S
C595 C597 1.384 . S
C595 H614 0.931 . S
C596 C595 1.384 . S
C596 C599 1.382 . S
C597 C595 1.384 . S
C597 C598 1.381 . S
C597 H615 0.930 . S
C598 C597 1.381 . S
C598 C600 1.381 . S
C598 C601 1.487 . S
C599 C596 1.382 . S
C599 C600 1.387 . S
C599 H616 0.930 . S
C600 C598 1.381 . S
C600 C599 1.387 . S
C600 H617 0.931 . S
C601 C594 1.399 . S
C601 C598 1.487 . S
C601 N618 1.343 . S
H602 C574 0.931 . S
H603 C576 0.930 . S
H604 C578 0.930 . S
H605 C579 0.931 . S
H606 C581 0.931 . S
H607 C583 0.930 . S
H608 C585 0.930 . S
H609 C586 0.931 . S
H610 C588 0.931 . S
H611 C590 0.930 . S
H612 C592 0.930 . S
H613 C593 0.931 . S
H614 C595 0.931 . S
H615 C597 0.930 . S
H616 C599 0.930 . S
H617 C600 0.931 . S
N618 C580 1.343 . S
N618 C601 1.343 . S
N619 C587 1.343 . S
N619 C594 1.343 . S
C620 C621 1.384 . S
C620 C622 1.384 . S
C620 H648 0.931 . S
C621 C620 1.384 . S
C621 C624 1.382 . S
C622 C620 1.384 . S
C622 C623 1.381 . S
C622 H649 0.930 . S
C623 C622 1.381 . S
C623 C625 1.381 . S
C623 C626 1.487 . S
C624 C621 1.382 . S
C624 C625 1.387 . S
C624 H650 0.930 . S
C625 C623 1.381 . S
C625 C624 1.387 . S
C625 H651 0.931 . S
C626 C623 1.487 . S
C626 C633 1.399 . S
C626 N664 1.343 . S
C627 C628 1.384 . S
C627 C629 1.384 . S
C627 H652 0.931 . S
C628 C627 1.384 . S
C628 C631 1.382 . S
C629 C627 1.384 . S
C629 C630 1.381 . S
C629 H653 0.930 . S
C630 C629 1.381 . S
C630 C632 1.381 . S
C630 C633 1.487 . S
C631 C628 1.382 . S
C631 C632 1.387 . S
C631 H654 0.930 . S
C632 C630 1.381 . S
C632 C631 1.387 . S
C632 H655 0.931 . S
C633 C626 1.399 . S
C633 C630 1.487 . S
C633 N665 1.343 . S
C634 C635 1.384 . S
C634 C636 1.384 . S
C634 H656 0.931 . S
C635 C634 1.384 . S
C635 C638 1.382 . S
C636 C634 1.384 . S
C636 C637 1.381 . S
C636 H657 0.930 . S
C637 C636 1.381 . S
C637 C639 1.381 . S
C637 C640 1.487 . S
C638 C635 1.382 . S
C638 C639 1.387 . S
C638 H658 0.930 . S
C639 C637 1.381 . S
C639 C638 1.387 . S
C639 H659 0.931 . S
C640 C637 1.487 . S
C640 C647 1.399 . S
C640 N665 1.343 . S
C641 C642 1.384 . S
C641 C643 1.384 . S
C641 H660 0.931 . S
C642 C641 1.384 . S
C642 C645 1.382 . S
C643 C641 1.384 . S
C643 C644 1.381 . S
C643 H661 0.930 . S
C644 C643 1.381 . S
C644 C646 1.381 . S
C644 C647 1.487 . S
C645 C642 1.382 . S
C645 C646 1.387 . S
C645 H662 0.930 . S
C646 C644 1.381 . S
C646 C645 1.387 . S
C646 H663 0.931 . S
C647 C640 1.399 . S
C647 C644 1.487 . S
C647 N664 1.343 . S
H648 C620 0.931 . S
H649 C622 0.930 . S
H650 C624 0.930 . S
H651 C625 0.931 . S
H652 C627 0.931 . S
H653 C629 0.930 . S
H654 C631 0.930 . S
H655 C632 0.931 . S
H656 C634 0.931 . S
H657 C636 0.930 . S
H658 C638 0.930 . S
H659 C639 0.931 . S
H660 C641 0.931 . S
H661 C643 0.930 . S
H662 C645 0.930 . S
H663 C646 0.931 . S
N664 C626 1.343 . S
N664 C647 1.343 . S
N665 C633 1.343 . S
N665 C640 1.343 . S
C666 C667 1.384 . S
C666 C668 1.384 . S
C666 H694 0.931 . S
C667 C666 1.384 . S
C667 C670 1.382 1_655 S
C668 C666 1.384 . S
C668 C669 1.408 . S
C668 H695 0.930 . S
C669 C668 1.408 . S
C669 C671 1.368 1_655 S
C669 C672 1.472 1_655 S
C670 C667 1.382 1_455 S
C670 C671 1.387 . S
C670 H696 0.930 . S
C671 C669 1.368 1_455 S
C671 C670 1.387 . S
C671 H697 0.931 . S
C672 C669 1.472 1_455 S
C672 C679 1.399 1_455 S
C672 N710 1.312 . S
C673 C674 1.384 . S
C673 C675 1.384 . S
C673 H698 0.931 . S
C674 C673 1.384 . S
C674 C677 1.382 1_455 S
C675 C673 1.384 . S
C675 C676 1.381 . S
C675 H699 0.930 . S
C676 C675 1.381 . S
C676 C678 1.383 1_455 S
C676 C679 1.491 1_455 S
C677 C674 1.382 1_655 S
C677 C678 1.387 . S
C677 H700 0.930 . S
C678 C676 1.383 1_655 S
C678 C677 1.387 . S
C678 H701 0.931 . S
C679 C672 1.399 1_655 S
C679 C676 1.491 1_655 S
C679 N711 1.361 . S
C680 C681 1.384 . S
C680 C682 1.384 . S
C680 H702 0.931 . S
C681 C680 1.384 . S
C681 C684 1.382 1_455 S
C682 C680 1.384 . S
C682 C683 1.425 . S
C682 H703 0.930 . S
C683 C682 1.425 . S
C683 C685 1.360 1_455 S
C683 C686 1.464 . S
C684 C681 1.382 1_655 S
C684 C685 1.387 . S
C684 H704 0.930 . S
C685 C683 1.360 1_655 S
C685 C684 1.387 . S
C685 H705 0.931 . S
C686 C683 1.464 . S
C686 C693 1.398 . S
C686 N711 1.320 1_455 S
C687 C688 1.384 . S
C687 C689 1.384 . S
C687 H706 0.931 . S
C688 C687 1.384 . S
C688 C691 1.382 1_655 S
C689 C687 1.384 . S
C689 C690 1.381 1_655 S
C689 H707 0.930 . S
C690 C689 1.381 1_455 S
C690 C692 1.383 . S
C690 C693 1.498 . S
C691 C688 1.382 1_455 S
C691 C692 1.387 . S
C691 H708 0.930 . S
C692 C690 1.383 . S
C692 C691 1.387 . S
C692 H709 0.931 . S
C693 C686 1.398 . S
C693 C690 1.498 . S
C693 N710 1.361 . S
H694 C666 0.931 . S
H695 C668 0.930 . S
H696 C670 0.930 . S
H697 C671 0.931 . S
H698 C673 0.931 . S
H699 C675 0.930 . S
H700 C677 0.930 . S
H701 C678 0.931 . S
H702 C680 0.931 . S
H703 C682 0.930 . S
H704 C684 0.930 . S
H705 C685 0.931 . S
H706 C687 0.931 . S
H707 C689 0.930 . S
H708 C691 0.930 . S
H709 C692 0.931 . S
N710 C672 1.312 . S
N710 C693 1.361 . S
N711 C679 1.361 . S
N711 C686 1.320 1_655 S
C712 C713 1.384 . S
C712 C714 1.384 . S
C712 H740 0.931 . S
C713 C712 1.384 . S
C713 C716 1.382 . S
C714 C712 1.384 . S
C714 C715 1.381 . S
C714 H741 0.930 . S
C715 C714 1.381 . S
C715 C717 1.381 . S
C715 C718 1.487 . S
C716 C713 1.382 . S
C716 C717 1.387 . S
C716 H742 0.930 . S
C717 C715 1.381 . S
C717 C716 1.387 . S
C717 H743 0.931 . S
C718 C715 1.487 . S
C718 C725 1.399 . S
C718 N756 1.343 . S
C719 C720 1.384 . S
C719 C721 1.384 . S
C719 H744 0.931 . S
C720 C719 1.384 . S
C720 C723 1.382 . S
C721 C719 1.384 . S
C721 C722 1.381 . S
C721 H745 0.930 . S
C722 C721 1.381 . S
C722 C724 1.381 . S
C722 C725 1.487 . S
C723 C720 1.382 . S
C723 C724 1.387 . S
C723 H746 0.930 . S
C724 C722 1.381 . S
C724 C723 1.387 . S
C724 H747 0.931 . S
C725 C718 1.399 . S
C725 C722 1.487 . S
C725 N757 1.343 . S
C726 C727 1.384 . S
C726 C728 1.384 . S
C726 H748 0.931 . S
C727 C726 1.384 . S
C727 C730 1.382 . S
C728 C726 1.384 . S
C728 C729 1.381 . S
C728 H749 0.930 . S
C729 C728 1.381 . S
C729 C731 1.381 . S
C729 C732 1.487 . S
C730 C727 1.382 . S
C730 C731 1.387 . S
C730 H750 0.930 . S
C731 C729 1.381 . S
C731 C730 1.387 . S
C731 H751 0.931 . S
C732 C729 1.487 . S
C732 C739 1.399 . S
C732 N757 1.343 . S
C733 C734 1.384 . S
C733 C735 1.384 . S
C733 H752 0.931 . S
C734 C733 1.384 . S
C734 C737 1.382 . S
C735 C733 1.384 . S
C735 C736 1.381 . S
C735 H753 0.930 . S
C736 C735 1.381 . S
C736 C738 1.381 . S
C736 C739 1.487 . S
C737 C734 1.382 . S
C737 C738 1.387 . S
C737 H754 0.930 . S
C738 C736 1.381 . S
C738 C737 1.387 . S
C738 H755 0.931 . S
C739 C732 1.399 . S
C739 C736 1.487 . S
C739 N756 1.343 . S
H740 C712 0.931 . S
H741 C714 0.930 . S
H742 C716 0.930 . S
H743 C717 0.931 . S
H744 C719 0.931 . S
H745 C721 0.930 . S
H746 C723 0.930 . S
H747 C724 0.931 . S
H748 C726 0.931 . S
H749 C728 0.930 . S
H750 C730 0.930 . S
H751 C731 0.931 . S
H752 C733 0.931 . S
H753 C735 0.930 . S
H754 C737 0.930 . S
H755 C738 0.931 . S
N756 C718 1.343 . S
N756 C739 1.343 . S
N757 C725 1.343 . S
N757 C732 1.343 . S
C758 C759 1.384 1_545 S
C758 C760 1.384 . S
C758 H786 0.931 . S
C759 C758 1.384 1_565 S
C759 C762 1.382 . S
C760 C758 1.384 . S
C760 C761 1.381 1_545 S
C760 H787 0.930 . S
C761 C760 1.381 1_565 S
C761 C763 1.381 . S
C761 C764 1.487 . S
C762 C759 1.382 . S
C762 C763 1.387 . S
C762 H788 0.930 . S
C763 C761 1.381 . S
C763 C762 1.387 . S
C763 H789 0.931 . S
C764 C761 1.487 . S
C764 C771 1.399 1_565 S
C764 N802 1.343 . S
C765 C766 1.384 1_565 S
C765 C767 1.384 . S
C765 H790 0.931 . S
C766 C765 1.384 1_545 S
C766 C769 1.382 . S
C767 C765 1.384 . S
C767 C768 1.381 1_565 S
C767 H791 0.930 . S
C768 C767 1.381 1_545 S
C768 C770 1.381 . S
C768 C771 1.487 . S
C769 C766 1.382 . S
C769 C770 1.387 . S
C769 H792 0.930 . S
C770 C768 1.381 . S
C770 C769 1.387 . S
C770 H793 0.931 . S
C771 C764 1.399 1_545 S
C771 C768 1.487 . S
C771 N803 1.343 . S
C772 C773 1.384 1_565 S
C772 C774 1.384 . S
C772 H794 0.931 . S
C773 C772 1.384 1_545 S
C773 C776 1.382 . S
C774 C772 1.384 . S
C774 C775 1.381 1_565 S
C774 H795 0.930 . S
C775 C774 1.381 1_545 S
C775 C777 1.381 . S
C775 C778 1.487 . S
C776 C773 1.382 . S
C776 C777 1.387 . S
C776 H796 0.930 . S
C777 C775 1.381 . S
C777 C776 1.387 . S
C777 H797 0.931 . S
C778 C775 1.487 . S
C778 C785 1.399 1_545 S
C778 N803 1.343 . S
C779 C780 1.384 1_545 S
C779 C781 1.384 . S
C779 H798 0.931 . S
C780 C779 1.384 1_565 S
C780 C783 1.382 . S
C781 C779 1.384 . S
C781 C782 1.381 1_545 S
C781 H799 0.930 . S
C782 C781 1.381 1_565 S
C782 C784 1.381 . S
C782 C785 1.487 . S
C783 C780 1.382 . S
C783 C784 1.387 . S
C783 H800 0.930 . S
C784 C782 1.381 . S
C784 C783 1.387 . S
C784 H801 0.931 . S
C785 C778 1.399 1_565 S
C785 C782 1.487 . S
C785 N802 1.343 . S
H786 C758 0.931 . S
H787 C760 0.930 . S
H788 C762 0.930 . S
H789 C763 0.931 . S
H790 C765 0.931 . S
H791 C767 0.930 . S
H792 C769 0.930 . S
H793 C770 0.931 . S
H794 C772 0.931 . S
H795 C774 0.930 . S
H796 C776 0.930 . S
H797 C777 0.931 . S
H798 C779 0.931 . S
H799 C781 0.930 . S
H800 C783 0.930 . S
H801 C784 0.931 . S
N802 C764 1.343 . S
N802 C785 1.343 . S
N803 C771 1.343 . S
N803 C778 1.343 . S
C804 C805 1.384 . S
C804 C806 1.384 . S
C804 H832 0.931 . S
C805 C804 1.384 . S
C805 C808 1.382 1_545 S
C806 C804 1.384 . S
C806 C807 1.379 1_545 S
C806 H833 0.930 . S
C807 C806 1.379 1_565 S
C807 C809 1.388 . S
C807 C810 1.492 . S
C808 C805 1.382 1_565 S
C808 C809 1.387 . S
C808 H834 0.930 . S
C809 C807 1.388 . S
C809 C808 1.387 . S
C809 H835 0.931 . S
C810 C807 1.492 . S
C810 C817 1.399 1_565 S
C810 N848 1.359 . S
C811 C812 1.384 . S
C811 C813 1.384 . S
C811 H836 0.931 . S
C812 C811 1.384 . S
C812 C815 1.382 1_565 S
C813 C811 1.384 . S
C813 C814 1.419 . S
C813 H837 0.930 . S
C814 C813 1.419 . S
C814 C816 1.363 1_565 S
C814 C817 1.469 1_565 S
C815 C812 1.382 1_545 S
C815 C816 1.387 . S
C815 H838 0.930 . S
C816 C814 1.363 1_545 S
C816 C815 1.387 . S
C816 H839 0.931 . S
C817 C810 1.399 1_545 S
C817 C814 1.469 1_545 S
C817 N849 1.306 . S
C818 C819 1.428 . S
C818 C820 1.384 . S
C818 H840 0.931 . S
C819 C818 1.428 . S
C819 C822 1.370 1_565 S
C820 C818 1.384 . S
C820 C821 1.377 1_565 S
C820 H841 0.930 . S
C821 C820 1.377 1_545 S
C821 C823 1.398 . S
C821 C824 1.492 . S
C822 C819 1.370 1_545 S
C822 C823 1.387 . S
C822 H842 0.930 . S
C823 C821 1.398 . S
C823 C822 1.387 . S
C823 H843 0.931 . S
C824 C821 1.492 . S
C824 C831 1.399 . S
C824 N849 1.359 . S
C825 C826 1.384 . S
C825 C827 1.384 . S
C825 H844 0.931 . S
C826 C825 1.384 . S
C826 C829 1.382 1_545 S
C827 C825 1.384 . S
C827 C828 1.436 . S
C827 H845 0.930 . S
C828 C827 1.436 . S
C828 C830 1.355 1_545 S
C828 C831 1.462 . S
C829 C826 1.382 1_565 S
C829 C830 1.387 . S
C829 H846 0.930 . S
C830 C828 1.355 1_565 S
C830 C829 1.387 . S
C830 H847 0.931 . S
C831 C824 1.399 . S
C831 C828 1.462 . S
C831 N848 1.314 1_545 S
H832 C804 0.931 . S
H833 C806 0.930 . S
H834 C808 0.930 . S
H835 C809 0.931 . S
H836 C811 0.931 . S
H837 C813 0.930 . S
H838 C815 0.930 . S
H839 C816 0.931 . S
H840 C818 0.931 . S
H841 C820 0.930 . S
H842 C822 0.930 . S
H843 C823 0.931 . S
H844 C825 0.931 . S
H845 C827 0.930 . S
H846 C829 0.930 . S
H847 C830 0.931 . S
N848 C810 1.359 . S
N848 C831 1.314 1_565 S
N849 C817 1.306 . S
N849 C824 1.359 . S
C850 C851 1.384 . S
C850 C852 1.384 . S
C850 H878 0.931 . S
C851 C850 1.384 . S
C851 C854 1.382 1_655 S
C852 C850 1.384 . S
C852 C853 1.438 . S
C852 H879 0.930 . S
C853 C852 1.438 . S
C853 C855 1.354 1_655 S
C853 C856 1.461 . S
C854 C851 1.382 1_455 S
C854 C855 1.387 . S
C854 H880 0.930 . S
C855 C853 1.354 1_455 S
C855 C854 1.387 . S
C855 H881 0.931 . S
C856 C853 1.461 . S
C856 C863 1.399 . S
C856 N894 1.323 1_655 S
C857 C858 1.384 . S
C857 C859 1.384 . S
C857 H882 0.931 . S
C858 C857 1.384 . S
C858 C861 1.382 1_455 S
C859 C857 1.384 . S
C859 C860 1.380 . S
C859 H883 0.930 . S
C860 C859 1.380 . S
C860 C862 1.385 1_455 S
C860 C863 1.494 1_455 S
C861 C858 1.382 1_655 S
C861 C862 1.387 . S
C861 H884 0.930 . S
C862 C860 1.385 1_655 S
C862 C861 1.387 . S
C862 H885 0.931 . S
C863 C856 1.399 . S
C863 C860 1.494 1_655 S
C863 N895 1.358 . S
C864 C865 1.384 . S
C864 C866 1.384 . S
C864 H886 0.931 . S
C865 C864 1.384 . S
C865 C868 1.382 1_455 S
C866 C864 1.384 . S
C866 C867 1.422 . S
C866 H887 0.930 . S
C867 C866 1.422 . S
C867 C869 1.361 1_455 S
C867 C870 1.468 1_455 S
C868 C865 1.382 1_655 S
C868 C869 1.387 . S
C868 H888 0.930 . S
C869 C867 1.361 1_655 S
C869 C868 1.387 . S
C869 H889 0.931 . S
C870 C867 1.468 1_655 S
C870 C877 1.399 1_655 S
C870 N895 1.315 . S
C871 C872 1.384 . S
C871 C873 1.384 . S
C871 H890 0.931 . S
C872 C871 1.384 . S
C872 C875 1.382 1_655 S
C873 C871 1.384 . S
C873 C874 1.383 . S
C873 H891 0.930 . S
C874 C873 1.383 . S
C874 C876 1.376 1_655 S
C874 C877 1.494 1_655 S
C875 C872 1.382 1_455 S
C875 C876 1.387 . S
C875 H892 0.930 . S
C876 C874 1.376 1_455 S
C876 C875 1.387 . S
C876 H893 0.931 . S
C877 C870 1.399 1_455 S
C877 C874 1.494 1_455 S
C877 N894 1.358 . S
H878 C850 0.931 . S
H879 C852 0.930 . S
H880 C854 0.930 . S
H881 C855 0.931 . S
H882 C857 0.931 . S
H883 C859 0.930 . S
H884 C861 0.930 . S
H885 C862 0.931 . S
H886 C864 0.931 . S
H887 C866 0.930 . S
H888 C868 0.930 . S
H889 C869 0.931 . S
H890 C871 0.931 . S
H891 C873 0.930 . S
H892 C875 0.930 . S
H893 C876 0.931 . S
N894 C856 1.323 1_455 S
N894 C877 1.358 . S
N895 C863 1.358 . S
N895 C870 1.315 . S
C896 C897 1.384 . S
C896 C898 1.384 . S
C896 H924 0.931 . S
C897 C896 1.384 . S
C897 C900 1.382 . S
C898 C896 1.384 . S
C898 C899 1.381 . S
C898 H925 0.930 . S
C899 C898 1.381 . S
C899 C901 1.381 . S
C899 C902 1.487 . S
C900 C897 1.382 . S
C900 C901 1.387 . S
C900 H926 0.930 . S
C901 C899 1.381 . S
C901 C900 1.387 . S
C901 H927 0.931 . S
C902 C899 1.487 . S
C902 C909 1.399 . S
C902 N940 1.343 . S
C903 C904 1.384 . S
C903 C905 1.384 . S
C903 H928 0.931 . S
C904 C903 1.384 . S
C904 C907 1.382 . S
C905 C903 1.384 . S
C905 C906 1.381 . S
C905 H929 0.930 . S
C906 C905 1.381 . S
C906 C908 1.381 . S
C906 C909 1.487 . S
C907 C904 1.382 . S
C907 C908 1.387 . S
C907 H930 0.930 . S
C908 C906 1.381 . S
C908 C907 1.387 . S
C908 H931 0.931 . S
C909 C902 1.399 . S
C909 C906 1.487 . S
C909 N941 1.343 . S
C910 C911 1.384 . S
C910 C912 1.384 . S
C910 H932 0.931 . S
C911 C910 1.384 . S
C911 C914 1.382 . S
C912 C910 1.384 . S
C912 C913 1.381 . S
C912 H933 0.930 . S
C913 C912 1.381 . S
C913 C915 1.381 . S
C913 C916 1.487 . S
C914 C911 1.382 . S
C914 C915 1.387 . S
C914 H934 0.930 . S
C915 C913 1.381 . S
C915 C914 1.387 . S
C915 H935 0.931 . S
C916 C913 1.487 . S
C916 C923 1.399 . S
C916 N941 1.343 . S
C917 C918 1.384 . S
C917 C919 1.384 . S
C917 H936 0.931 . S
C918 C917 1.384 . S
C918 C921 1.382 . S
C919 C917 1.384 . S
C919 C920 1.381 . S
C919 H937 0.930 . S
C920 C919 1.381 . S
C920 C922 1.381 . S
C920 C923 1.487 . S
C921 C918 1.382 . S
C921 C922 1.387 . S
C921 H938 0.930 . S
C922 C920 1.381 . S
C922 C921 1.387 . S
C922 H939 0.931 . S
C923 C916 1.399 . S
C923 C920 1.487 . S
C923 N940 1.343 . S
H924 C896 0.931 . S
H925 C898 0.930 . S
H926 C900 0.930 . S
H927 C901 0.931 . S
H928 C903 0.931 . S
H929 C905 0.930 . S
H930 C907 0.930 . S
H931 C908 0.931 . S
H932 C910 0.931 . S
H933 C912 0.930 . S
H934 C914 0.930 . S
H935 C915 0.931 . S
H936 C917 0.931 . S
H937 C919 0.930 . S
H938 C921 0.930 . S
H939 C922 0.931 . S
N940 C902 1.343 . S
N940 C923 1.343 . S
N941 C909 1.343 . S
N941 C916 1.343 . S
C942 C943 1.384 . S
C942 C944 1.384 . S
C942 H970 0.931 . S
C943 C942 1.384 . S
C943 C946 1.382 . S
C944 C942 1.384 . S
C944 C945 1.381 . S
C944 H971 0.930 . S
C945 C944 1.381 . S
C945 C947 1.381 . S
C945 C948 1.487 . S
C946 C943 1.382 . S
C946 C947 1.387 . S
C946 H972 0.930 . S
C947 C945 1.381 . S
C947 C946 1.387 . S
C947 H973 0.931 . S
C948 C945 1.487 . S
C948 C955 1.399 . S
C948 N986 1.343 . S
C949 C950 1.384 . S
C949 C951 1.384 . S
C949 H974 0.931 . S
C950 C949 1.384 . S
C950 C953 1.382 . S
C951 C949 1.384 . S
C951 C952 1.381 . S
C951 H975 0.930 . S
C952 C951 1.381 . S
C952 C954 1.381 . S
C952 C955 1.487 . S
C953 C950 1.382 . S
C953 C954 1.387 . S
C953 H976 0.930 . S
C954 C952 1.381 . S
C954 C953 1.387 . S
C954 H977 0.931 . S
C955 C948 1.399 . S
C955 C952 1.487 . S
C955 N987 1.343 . S
C956 C957 1.384 . S
C956 C958 1.384 . S
C956 H978 0.931 . S
C957 C956 1.384 . S
C957 C960 1.382 . S
C958 C956 1.384 . S
C958 C959 1.381 . S
C958 H979 0.930 . S
C959 C958 1.381 . S
C959 C961 1.381 . S
C959 C962 1.487 . S
C960 C957 1.382 . S
C960 C961 1.387 . S
C960 H980 0.930 . S
C961 C959 1.381 . S
C961 C960 1.387 . S
C961 H981 0.931 . S
C962 C959 1.487 . S
C962 C969 1.399 . S
C962 N987 1.343 . S
C963 C964 1.384 . S
C963 C965 1.384 . S
C963 H982 0.931 . S
C964 C963 1.384 . S
C964 C967 1.382 . S
C965 C963 1.384 . S
C965 C966 1.381 . S
C965 H983 0.930 . S
C966 C965 1.381 . S
C966 C968 1.381 . S
C966 C969 1.487 . S
C967 C964 1.382 . S
C967 C968 1.387 . S
C967 H984 0.930 . S
C968 C966 1.381 . S
C968 C967 1.387 . S
C968 H985 0.931 . S
C969 C962 1.399 . S
C969 C966 1.487 . S
C969 N986 1.343 . S
H970 C942 0.931 . S
H971 C944 0.930 . S
H972 C946 0.930 . S
H973 C947 0.931 . S
H974 C949 0.931 . S
H975 C951 0.930 . S
H976 C953 0.930 . S
H977 C954 0.931 . S
H978 C956 0.931 . S
H979 C958 0.930 . S
H980 C960 0.930 . S
H981 C961 0.931 . S
H982 C963 0.931 . S
H983 C965 0.930 . S
H984 C967 0.930 . S
H985 C968 0.931 . S
N986 C948 1.343 . S
N986 C969 1.343 . S
N987 C955 1.343 . S
N987 C962 1.343 . S
C988 C989 1.384 . S
C988 C990 1.384 . S
C988 H1016 0.931 . S
C989 C988 1.384 . S
C989 C992 1.382 . S
C990 C988 1.384 . S
C990 C991 1.381 . S
C990 H1017 0.930 . S
C991 C990 1.381 . S
C991 C993 1.381 . S
C991 C994 1.487 . S
C992 C989 1.382 . S
C992 C993 1.387 . S
C992 H1018 0.930 . S
C993 C991 1.381 . S
C993 C992 1.387 . S
C993 H1019 0.931 . S
C994 C991 1.487 . S
C994 C1001 1.399 . S
C994 N1032 1.343 . S
C995 C996 1.384 . S
C995 C997 1.384 . S
C995 H1020 0.931 . S
C996 C995 1.384 . S
C996 C999 1.382 . S
C997 C995 1.384 . S
C997 C998 1.381 . S
C997 H1021 0.930 . S
C998 C997 1.381 . S
C998 C1000 1.381 . S
C998 C1001 1.487 . S
C999 C996 1.382 . S
C999 C1000 1.387 . S
C999 H1022 0.930 . S
C1000 C998 1.381 . S
C1000 C999 1.387 . S
C1000 H1023 0.931 . S
C1001 C994 1.399 . S
C1001 C998 1.487 . S
C1001 N1033 1.343 . S
C1002 C1003 1.384 . S
C1002 C1004 1.384 . S
C1002 H1024 0.931 . S
C1003 C1002 1.384 . S
C1003 C1006 1.382 . S
C1004 C1002 1.384 . S
C1004 C1005 1.381 . S
C1004 H1025 0.930 . S
C1005 C1004 1.381 . S
C1005 C1007 1.381 . S
C1005 C1008 1.487 . S
C1006 C1003 1.382 . S
C1006 C1007 1.387 . S
C1006 H1026 0.930 . S
C1007 C1005 1.381 . S
C1007 C1006 1.387 . S
C1007 H1027 0.931 . S
C1008 C1005 1.487 . S
C1008 C1015 1.399 . S
C1008 N1033 1.343 . S
C1009 C1010 1.384 . S
C1009 C1011 1.384 . S
C1009 H1028 0.931 . S
C1010 C1009 1.384 . S
C1010 C1013 1.382 . S
C1011 C1009 1.384 . S
C1011 C1012 1.381 . S
C1011 H1029 0.930 . S
C1012 C1011 1.381 . S
C1012 C1014 1.381 . S
C1012 C1015 1.487 . S
C1013 C1010 1.382 . S
C1013 C1014 1.387 . S
C1013 H1030 0.930 . S
C1014 C1012 1.381 . S
C1014 C1013 1.387 . S
C1014 H1031 0.931 . S
C1015 C1008 1.399 . S
C1015 C1012 1.487 . S
C1015 N1032 1.343 . S
H1016 C988 0.931 . S
H1017 C990 0.930 . S
H1018 C992 0.930 . S
H1019 C993 0.931 . S
H1020 C995 0.931 . S
H1021 C997 0.930 . S
H1022 C999 0.930 . S
H1023 C1000 0.931 . S
H1024 C1002 0.931 . S
H1025 C1004 0.930 . S
H1026 C1006 0.930 . S
H1027 C1007 0.931 . S
H1028 C1009 0.931 . S
H1029 C1011 0.930 . S
H1030 C1013 0.930 . S
H1031 C1014 0.931 . S
N1032 C994 1.343 . S
N1032 C1015 1.343 . S
N1033 C1001 1.343 . S
N1033 C1008 1.343 . S
C1034 C1035 1.384 . S
C1034 C1036 1.384 . S
C1034 H1062 0.931 . S
C1035 C1034 1.384 . S
C1035 C1038 1.382 . S
C1036 C1034 1.384 . S
C1036 C1037 1.381 . S
C1036 H1063 0.930 . S
C1037 C1036 1.381 . S
C1037 C1039 1.381 . S
C1037 C1040 1.487 . S
C1038 C1035 1.382 . S
C1038 C1039 1.387 . S
C1038 H1064 0.930 . S
C1039 C1037 1.381 . S
C1039 C1038 1.387 . S
C1039 H1065 0.931 . S
C1040 C1037 1.487 . S
C1040 C1047 1.399 . S
C1040 N1078 1.343 . S
C1041 C1042 1.384 . S
C1041 C1043 1.384 . S
C1041 H1066 0.931 . S
C1042 C1041 1.384 . S
C1042 C1045 1.382 . S
C1043 C1041 1.384 . S
C1043 C1044 1.381 . S
C1043 H1067 0.930 . S
C1044 C1043 1.381 . S
C1044 C1046 1.381 . S
C1044 C1047 1.487 . S
C1045 C1042 1.382 . S
C1045 C1046 1.387 . S
C1045 H1068 0.930 . S
C1046 C1044 1.381 . S
C1046 C1045 1.387 . S
C1046 H1069 0.931 . S
C1047 C1040 1.399 . S
C1047 C1044 1.487 . S
C1047 N1079 1.343 . S
C1048 C1049 1.384 . S
C1048 C1050 1.384 . S
C1048 H1070 0.931 . S
C1049 C1048 1.384 . S
C1049 C1052 1.382 . S
C1050 C1048 1.384 . S
C1050 C1051 1.381 . S
C1050 H1071 0.930 . S
C1051 C1050 1.381 . S
C1051 C1053 1.381 . S
C1051 C1054 1.487 . S
C1052 C1049 1.382 . S
C1052 C1053 1.387 . S
C1052 H1072 0.930 . S
C1053 C1051 1.381 . S
C1053 C1052 1.387 . S
C1053 H1073 0.931 . S
C1054 C1051 1.487 . S
C1054 C1061 1.399 . S
C1054 N1079 1.343 . S
C1055 C1056 1.384 . S
C1055 C1057 1.384 . S
C1055 H1074 0.931 . S
C1056 C1055 1.384 . S
C1056 C1059 1.382 . S
C1057 C1055 1.384 . S
C1057 C1058 1.381 . S
C1057 H1075 0.930 . S
C1058 C1057 1.381 . S
C1058 C1060 1.381 . S
C1058 C1061 1.487 . S
C1059 C1056 1.382 . S
C1059 C1060 1.387 . S
C1059 H1076 0.930 . S
C1060 C1058 1.381 . S
C1060 C1059 1.387 . S
C1060 H1077 0.931 . S
C1061 C1054 1.399 . S
C1061 C1058 1.487 . S
C1061 N1078 1.343 . S
H1062 C1034 0.931 . S
H1063 C1036 0.930 . S
H1064 C1038 0.930 . S
H1065 C1039 0.931 . S
H1066 C1041 0.931 . S
H1067 C1043 0.930 . S
H1068 C1045 0.930 . S
H1069 C1046 0.931 . S
H1070 C1048 0.931 . S
H1071 C1050 0.930 . S
H1072 C1052 0.930 . S
H1073 C1053 0.931 . S
H1074 C1055 0.931 . S
H1075 C1057 0.930 . S
H1076 C1059 0.930 . S
H1077 C1060 0.931 . S
N1078 C1040 1.343 . S
N1078 C1061 1.343 . S
N1079 C1047 1.343 . S
N1079 C1054 1.343 . S
H1080 C1086 0.930 . S
H1081 C1090 0.930 . S
H1082 C1095 0.929 . S
H1083 C1093 0.929 . S
H1084 C1088 0.929 . S
H1085 C1094 0.929 . S
C1086 H1080 0.930 . S
C1086 C1087 1.367 1_455 S
C1086 C1094 1.378 . S
C1087 C1086 1.367 1_655 S
C1087 C1095 1.433 . S
C1088 H1084 0.929 . S
C1088 C1090 1.378 . S
C1088 C1092 1.350 . S
C1089 C1092 1.463 . S
C1089 C1094 1.350 1_655 S
C1089 N1097 1.427 . S
C1090 H1081 0.930 . S
C1090 C1088 1.378 . S
C1090 C1091 1.367 . S
C1091 C1090 1.367 . S
C1091 C1093 1.433 1_655 S
C1092 C1088 1.350 . S
C1092 C1089 1.463 . S
C1092 N1096 1.427 1_655 S
C1093 H1083 0.929 . S
C1093 C1091 1.433 1_455 S
C1093 N1096 1.384 . S
C1094 H1085 0.929 . S
C1094 C1086 1.378 . S
C1094 C1089 1.350 1_455 S
C1095 H1082 0.929 . S
C1095 C1087 1.433 . S
C1095 N1097 1.384 . S
N1096 C1092 1.427 1_455 S
N1096 C1093 1.384 . S
N1097 C1089 1.427 . S
N1097 C1095 1.384 . S
H1098 C1104 0.930 . S
H1099 C1108 0.930 . S
H1100 C1113 0.929 . S
H1101 C1111 0.929 . S
H1102 C1106 0.929 . S
H1103 C1112 0.929 . S
C1104 H1098 0.930 . S
C1104 C1105 1.367 . S
C1104 C1112 1.378 . S
C1105 C1104 1.367 . S
C1105 C1113 1.433 . S
C1106 H1102 0.929 . S
C1106 C1108 1.378 . S
C1106 C1110 1.350 . S
C1107 C1110 1.463 . S
C1107 C1112 1.350 . S
C1107 N1115 1.427 . S
C1108 H1099 0.930 . S
C1108 C1106 1.378 . S
C1108 C1109 1.367 . S
C1109 C1108 1.367 . S
C1109 C1111 1.433 . S
C1110 C1106 1.350 . S
C1110 C1107 1.463 . S
C1110 N1114 1.427 . S
C1111 H1101 0.929 . S
C1111 C1109 1.433 . S
C1111 N1114 1.384 . S
C1112 H1103 0.929 . S
C1112 C1104 1.378 . S
C1112 C1107 1.350 . S
C1113 H1100 0.929 . S
C1113 C1105 1.433 . S
C1113 N1115 1.384 . S
N1114 C1110 1.427 . S
N1114 C1111 1.384 . S
N1115 C1107 1.427 . S
N1115 C1113 1.384 . S
H1116 C1122 0.930 1_565 S
H1117 C1126 0.930 . S
H1118 C1131 0.929 . S
H1119 C1129 0.929 . S
H1120 C1124 0.929 . S
H1121 C1130 0.915 1_565 S
C1122 H1116 0.930 1_545 S
C1122 C1123 1.367 . S
C1122 C1130 1.385 . S
C1123 C1122 1.367 . S
C1123 C1131 1.433 . S
C1124 H1120 0.929 . S
C1124 C1126 1.378 . S
C1124 C1128 1.350 . S
C1125 C1128 1.463 . S
C1125 C1130 1.357 . S
C1125 N1133 1.427 . S
C1126 H1117 0.930 . S
C1126 C1124 1.378 . S
C1126 C1127 1.367 . S
C1127 C1126 1.367 . S
C1127 C1129 1.433 1_545 S
C1128 C1124 1.350 . S
C1128 C1125 1.463 . S
C1128 N1132 1.427 1_545 S
C1129 H1119 0.929 . S
C1129 C1127 1.433 1_565 S
C1129 N1132 1.384 . S
C1130 H1121 0.915 1_545 S
C1130 C1122 1.385 . S
C1130 C1125 1.357 . S
C1131 H1118 0.929 . S
C1131 C1123 1.433 . S
C1131 N1133 1.384 . S
N1132 C1128 1.427 1_565 S
N1132 C1129 1.384 . S
N1133 C1125 1.427 . S
N1133 C1131 1.384 . S
H1134 C1140 0.930 . S
H1135 C1144 0.930 . S
H1136 C1149 0.929 . S
H1137 C1147 0.929 . S
H1138 C1142 0.929 . S
H1139 C1148 0.929 . S
C1140 H1134 0.930 . S
C1140 C1141 1.367 1_545 S
C1140 C1148 1.378 . S
C1141 C1140 1.367 1_565 S
C1141 C1149 1.433 . S
C1142 H1138 0.929 . S
C1142 C1144 1.378 . S
C1142 C1146 1.350 . S
C1143 C1146 1.463 . S
C1143 C1148 1.350 1_565 S
C1143 N1151 1.427 . S
C1144 H1135 0.930 . S
C1144 C1142 1.378 . S
C1144 C1145 1.367 . S
C1145 C1144 1.367 . S
C1145 C1147 1.433 1_565 S
C1146 C1142 1.350 . S
C1146 C1143 1.463 . S
C1146 N1150 1.427 1_565 S
C1147 H1137 0.929 . S
C1147 C1145 1.433 1_545 S
C1147 N1150 1.384 . S
C1148 H1139 0.929 . S
C1148 C1140 1.378 . S
C1148 C1143 1.350 1_545 S
C1149 H1136 0.929 . S
C1149 C1141 1.433 . S
C1149 N1151 1.384 . S
N1150 C1146 1.427 1_545 S
N1150 C1147 1.384 . S
N1151 C1143 1.427 . S
N1151 C1149 1.384 . S
H1152 C1158 0.930 . S
H1153 C1162 0.930 . S
H1154 C1167 0.929 . S
H1155 C1165 0.929 . S
H1156 C1160 0.929 . S
H1157 C1166 0.929 . S
C1158 H1152 0.930 . S
C1158 C1159 1.367 1_655 S
C1158 C1166 1.378 . S
C1159 C1158 1.367 1_455 S
C1159 C1167 1.433 . S
C1160 H1156 0.929 . S
C1160 C1162 1.378 . S
C1160 C1164 1.350 . S
C1161 C1164 1.463 . S
C1161 C1166 1.350 1_455 S
C1161 N1169 1.427 . S
C1162 H1153 0.930 . S
C1162 C1160 1.378 . S
C1162 C1163 1.367 . S
C1163 C1162 1.367 . S
C1163 C1165 1.433 1_455 S
C1164 C1160 1.350 . S
C1164 C1161 1.463 . S
C1164 N1168 1.427 1_455 S
C1165 H1155 0.929 . S
C1165 C1163 1.433 1_655 S
C1165 N1168 1.384 . S
C1166 H1157 0.929 . S
C1166 C1158 1.378 . S
C1166 C1161 1.350 1_655 S
C1167 H1154 0.929 . S
C1167 C1159 1.433 . S
C1167 N1169 1.384 . S
N1168 C1164 1.427 1_655 S
N1168 C1165 1.384 . S
N1169 C1161 1.427 . S
N1169 C1167 1.384 . S
H1170 C1176 0.930 . S
H1171 C1180 0.930 . S
H1172 C1185 0.929 . S
H1173 C1183 0.929 . S
H1174 C1178 0.929 . S
H1175 C1184 0.929 . S
C1176 H1170 0.930 . S
C1176 C1177 1.367 . S
C1176 C1184 1.378 . S
C1177 C1176 1.367 . S
C1177 C1185 1.433 . S
C1178 H1174 0.929 . S
C1178 C1180 1.378 . S
C1178 C1182 1.350 . S
C1179 C1182 1.463 . S
C1179 C1184 1.350 . S
C1179 N1187 1.427 . S
C1180 H1171 0.930 . S
C1180 C1178 1.378 . S
C1180 C1181 1.367 . S
C1181 C1180 1.367 . S
C1181 C1183 1.433 . S
C1182 C1178 1.350 . S
C1182 C1179 1.463 . S
C1182 N1186 1.427 . S
C1183 H1173 0.929 . S
C1183 C1181 1.433 . S
C1183 N1186 1.384 . S
C1184 H1175 0.929 . S
C1184 C1176 1.378 . S
C1184 C1179 1.350 . S
C1185 H1172 0.929 . S
C1185 C1177 1.433 . S
C1185 N1187 1.384 . S
N1186 C1182 1.427 . S
N1186 C1183 1.384 . S
N1187 C1179 1.427 . S
N1187 C1185 1.384 . S
H1188 C1194 0.930 . S
H1189 C1198 0.930 . S
H1190 C1203 0.929 . S
H1191 C1201 0.929 . S
H1192 C1196 0.929 . S
H1193 C1202 0.929 . S
C1194 H1188 0.930 . S
C1194 C1195 1.367 1_655 S
C1194 C1202 1.378 . S
C1195 C1194 1.367 1_455 S
C1195 C1203 1.433 . S
C1196 H1192 0.929 . S
C1196 C1198 1.378 . S
C1196 C1200 1.350 . S
C1197 C1200 1.463 . S
C1197 C1202 1.350 1_455 S
C1197 N1205 1.427 . S
C1198 H1189 0.930 . S
C1198 C1196 1.378 . S
C1198 C1199 1.367 . S
C1199 C1198 1.367 . S
C1199 C1201 1.433 1_455 S
C1200 C1196 1.350 . S
C1200 C1197 1.463 . S
C1200 N1204 1.427 1_455 S
C1201 H1191 0.929 . S
C1201 C1199 1.433 1_655 S
C1201 N1204 1.384 . S
C1202 H1193 0.929 . S
C1202 C1194 1.378 . S
C1202 C1197 1.350 1_655 S
C1203 H1190 0.929 . S
C1203 C1195 1.433 . S
C1203 N1205 1.384 . S
N1204 C1200 1.427 1_655 S
N1204 C1201 1.384 . S
N1205 C1197 1.427 . S
N1205 C1203 1.384 . S
H1206 C1212 0.930 . S
H1207 C1216 0.930 . S
H1208 C1221 0.929 . S
H1209 C1219 0.929 . S
H1210 C1214 0.929 . S
H1211 C1220 0.929 . S
C1212 H1206 0.930 . S
C1212 C1213 1.367 . S
C1212 C1220 1.378 . S
C1213 C1212 1.367 . S
C1213 C1221 1.433 . S
C1214 H1210 0.929 . S
C1214 C1216 1.378 . S
C1214 C1218 1.350 . S
C1215 C1218 1.463 . S
C1215 C1220 1.350 . S
C1215 N1223 1.427 . S
C1216 H1207 0.930 . S
C1216 C1214 1.378 . S
C1216 C1217 1.367 . S
C1217 C1216 1.367 . S
C1217 C1219 1.433 . S
C1218 C1214 1.350 . S
C1218 C1215 1.463 . S
C1218 N1222 1.427 . S
C1219 H1209 0.929 . S
C1219 C1217 1.433 . S
C1219 N1222 1.384 . S
C1220 H1211 0.929 . S
C1220 C1212 1.378 . S
C1220 C1215 1.350 . S
C1221 H1208 0.929 . S
C1221 C1213 1.433 . S
C1221 N1223 1.384 . S
N1222 C1218 1.427 . S
N1222 C1219 1.384 . S
N1223 C1215 1.427 . S
N1223 C1221 1.384 . S
H1224 C1230 0.930 . S
H1225 C1234 0.930 . S
H1226 C1239 0.929 . S
H1227 C1237 0.929 . S
H1228 C1232 0.929 . S
H1229 C1238 0.929 . S
C1230 H1224 0.930 . S
C1230 C1231 1.367 1_545 S
C1230 C1238 1.378 . S
C1231 C1230 1.367 1_565 S
C1231 C1239 1.433 . S
C1232 H1228 0.929 . S
C1232 C1234 1.378 . S
C1232 C1236 1.350 . S
C1233 C1236 1.463 . S
C1233 C1238 1.350 1_565 S
C1233 N1241 1.427 . S
C1234 H1225 0.930 . S
C1234 C1232 1.378 . S
C1234 C1235 1.367 . S
C1235 C1234 1.367 . S
C1235 C1237 1.433 1_565 S
C1236 C1232 1.350 . S
C1236 C1233 1.463 . S
C1236 N1240 1.427 1_565 S
C1237 H1227 0.929 . S
C1237 C1235 1.433 1_545 S
C1237 N1240 1.384 . S
C1238 H1229 0.929 . S
C1238 C1230 1.378 . S
C1238 C1233 1.350 1_545 S
C1239 H1226 0.929 . S
C1239 C1231 1.433 . S
C1239 N1241 1.384 . S
N1240 C1236 1.427 1_545 S
N1240 C1237 1.384 . S
N1241 C1233 1.427 . S
N1241 C1239 1.384 . S
H1242 C1248 0.930 . S
H1243 C1252 0.930 . S
H1244 C1257 0.929 . S
H1245 C1255 0.929 . S
H1246 C1250 0.929 . S
H1247 C1256 0.929 . S
C1248 H1242 0.930 . S
C1248 C1249 1.367 1_565 S
C1248 C1256 1.378 . S
C1249 C1248 1.367 1_545 S
C1249 C1257 1.433 . S
C1250 H1246 0.929 . S
C1250 C1252 1.378 . S
C1250 C1254 1.350 . S
C1251 C1254 1.463 . S
C1251 C1256 1.350 1_545 S
C1251 N1259 1.427 . S
C1252 H1243 0.930 . S
C1252 C1250 1.378 . S
C1252 C1253 1.367 . S
C1253 C1252 1.367 . S
C1253 C1255 1.433 1_545 S
C1254 C1250 1.350 . S
C1254 C1251 1.463 . S
C1254 N1258 1.427 1_545 S
C1255 H1245 0.929 . S
C1255 C1253 1.433 1_565 S
C1255 N1258 1.384 . S
C1256 H1247 0.929 . S
C1256 C1248 1.378 . S
C1256 C1251 1.350 1_565 S
C1257 H1244 0.929 . S
C1257 C1249 1.433 . S
C1257 N1259 1.384 . S
N1258 C1254 1.427 1_565 S
N1258 C1255 1.384 . S
N1259 C1251 1.427 . S
N1259 C1257 1.384 . S
H1260 C1266 0.932 1_455 S
H1261 C1270 0.930 . S
H1262 C1275 0.929 . S
H1263 C1273 0.929 . S
H1264 C1268 0.929 . S
H1265 C1274 0.939 . S
C1266 H1260 0.932 1_655 S
C1266 C1267 1.369 . S
C1266 C1274 1.359 1_655 S
C1267 C1266 1.369 . S
C1267 C1275 1.433 . S
C1268 H1264 0.929 . S
C1268 C1270 1.378 . S
C1268 C1272 1.350 . S
C1269 C1272 1.463 . S
C1269 C1274 1.357 1_655 S
C1269 N1277 1.427 . S
C1270 H1261 0.930 . S
C1270 C1268 1.378 . S
C1270 C1271 1.367 . S
C1271 C1270 1.367 . S
C1271 C1273 1.433 1_655 S
C1272 C1268 1.350 . S
C1272 C1269 1.463 . S
C1272 N1276 1.427 1_655 S
C1273 H1263 0.929 . S
C1273 C1271 1.433 1_455 S
C1273 N1276 1.384 . S
C1274 H1265 0.939 . S
C1274 C1266 1.359 1_455 S
C1274 C1269 1.357 1_455 S
C1275 H1262 0.929 . S
C1275 C1267 1.433 . S
C1275 N1277 1.384 . S
N1276 C1272 1.427 1_455 S
N1276 C1273 1.384 . S
N1277 C1269 1.427 . S
N1277 C1275 1.384 . S
H1278 C1284 0.930 . S
H1279 C1288 0.930 . S
H1280 C1293 0.929 . S
H1281 C1291 0.929 . S
H1282 C1286 0.929 . S
H1283 C1292 0.929 . S
C1284 H1278 0.930 . S
C1284 C1285 1.367 . S
C1284 C1292 1.378 . S
C1285 C1284 1.367 . S
C1285 C1293 1.433 . S
C1286 H1282 0.929 . S
C1286 C1288 1.378 . S
C1286 C1290 1.350 . S
C1287 C1290 1.463 . S
C1287 C1292 1.350 . S
C1287 N1295 1.427 . S
C1288 H1279 0.930 . S
C1288 C1286 1.378 . S
C1288 C1289 1.367 . S
C1289 C1288 1.367 . S
C1289 C1291 1.433 . S
C1290 C1286 1.350 . S
C1290 C1287 1.463 . S
C1290 N1294 1.427 . S
C1291 H1281 0.929 . S
C1291 C1289 1.433 . S
C1291 N1294 1.384 . S
C1292 H1283 0.929 . S
C1292 C1284 1.378 . S
C1292 C1287 1.350 . S
C1293 H1280 0.929 . S
C1293 C1285 1.433 . S
C1293 N1295 1.384 . S
N1294 C1290 1.427 . S
N1294 C1291 1.384 . S
N1295 C1287 1.427 . S
N1295 C1293 1.384 . S
H1296 C1302 0.930 . S
H1297 C1306 0.930 . S
H1298 C1311 0.929 . S
H1299 C1309 0.929 . S
H1300 C1304 0.929 . S
H1301 C1310 0.929 . S
C1302 H1296 0.930 . S
C1302 C1303 1.367 . S
C1302 C1310 1.378 . S
C1303 C1302 1.367 . S
C1303 C1311 1.433 . S
C1304 H1300 0.929 . S
C1304 C1306 1.378 . S
C1304 C1308 1.350 . S
C1305 C1308 1.463 . S
C1305 C1310 1.350 . S
C1305 N1313 1.427 . S
C1306 H1297 0.930 . S
C1306 C1304 1.378 . S
C1306 C1307 1.367 . S
C1307 C1306 1.367 . S
C1307 C1309 1.433 . S
C1308 C1304 1.350 . S
C1308 C1305 1.463 . S
C1308 N1312 1.427 . S
C1309 H1299 0.929 . S
C1309 C1307 1.433 . S
C1309 N1312 1.384 . S
C1310 H1301 0.929 . S
C1310 C1302 1.378 . S
C1310 C1305 1.350 . S
C1311 H1298 0.929 . S
C1311 C1303 1.433 . S
C1311 N1313 1.384 . S
N1312 C1308 1.427 . S
N1312 C1309 1.384 . S
N1313 C1305 1.427 . S
N1313 C1311 1.384 . S
H1314 C1320 0.930 . S
H1315 C1324 0.930 . S
H1316 C1329 0.929 . S
H1317 C1327 0.929 . S
H1318 C1322 0.929 . S
H1319 C1328 0.929 . S
C1320 H1314 0.930 . S
C1320 C1321 1.367 . S
C1320 C1328 1.378 . S
C1321 C1320 1.367 . S
C1321 C1329 1.433 . S
C1322 H1318 0.929 . S
C1322 C1324 1.378 . S
C1322 C1326 1.350 . S
C1323 C1326 1.463 . S
C1323 C1328 1.350 . S
C1323 N1331 1.427 . S
C1324 H1315 0.930 . S
C1324 C1322 1.378 . S
C1324 C1325 1.367 . S
C1325 C1324 1.367 . S
C1325 C1327 1.433 . S
C1326 C1322 1.350 . S
C1326 C1323 1.463 . S
C1326 N1330 1.427 . S
C1327 H1317 0.929 . S
C1327 C1325 1.433 . S
C1327 N1330 1.384 . S
C1328 H1319 0.929 . S
C1328 C1320 1.378 . S
C1328 C1323 1.350 . S
C1329 H1316 0.929 . S
C1329 C1321 1.433 . S
C1329 N1331 1.384 . S
N1330 C1326 1.427 . S
N1330 C1327 1.384 . S
N1331 C1323 1.427 . S
N1331 C1329 1.384 . S
H1332 C1338 0.930 . S
H1333 C1342 0.930 . S
H1334 C1347 0.929 . S
H1335 C1345 0.929 . S
H1336 C1340 0.929 . S
H1337 C1346 0.929 . S
C1338 H1332 0.930 . S
C1338 C1339 1.367 . S
C1338 C1346 1.378 . S
C1339 C1338 1.367 . S
C1339 C1347 1.433 . S
C1340 H1336 0.929 . S
C1340 C1342 1.378 . S
C1340 C1344 1.350 . S
C1341 C1344 1.463 . S
C1341 C1346 1.350 . S
C1341 N1349 1.427 . S
C1342 H1333 0.930 . S
C1342 C1340 1.378 . S
C1342 C1343 1.367 . S
C1343 C1342 1.367 . S
C1343 C1345 1.433 . S
C1344 C1340 1.350 . S
C1344 C1341 1.463 . S
C1344 N1348 1.427 . S
C1345 H1335 0.929 . S
C1345 C1343 1.433 . S
C1345 N1348 1.384 . S
C1346 H1337 0.929 . S
C1346 C1338 1.378 . S
C1346 C1341 1.350 . S
C1347 H1334 0.929 . S
C1347 C1339 1.433 . S
C1347 N1349 1.384 . S
N1348 C1344 1.427 . S
N1348 C1345 1.384 . S
N1349 C1341 1.427 . S
N1349 C1347 1.384 . S
H1350 C1356 0.930 . S
H1351 C1360 0.930 . S
H1352 C1365 0.929 . S
H1353 C1363 0.929 . S
H1354 C1358 0.929 . S
H1355 C1364 0.929 . S
C1356 H1350 0.930 . S
C1356 C1357 1.367 . S
C1356 C1364 1.378 . S
C1357 C1356 1.367 . S
C1357 C1365 1.433 . S
C1358 H1354 0.929 . S
C1358 C1360 1.378 . S
C1358 C1362 1.350 . S
C1359 C1362 1.463 . S
C1359 C1364 1.350 . S
C1359 N1367 1.427 . S
C1360 H1351 0.930 . S
C1360 C1358 1.378 . S
C1360 C1361 1.367 . S
C1361 C1360 1.367 . S
C1361 C1363 1.433 . S
C1362 C1358 1.350 . S
C1362 C1359 1.463 . S
C1362 N1366 1.427 . S
C1363 H1353 0.929 . S
C1363 C1361 1.433 . S
C1363 N1366 1.384 . S
C1364 H1355 0.929 . S
C1364 C1356 1.378 . S
C1364 C1359 1.350 . S
C1365 H1352 0.929 . S
C1365 C1357 1.433 . S
C1365 N1367 1.384 . S
N1366 C1362 1.427 . S
N1366 C1363 1.384 . S
N1367 C1359 1.427 . S
N1367 C1365 1.384 . S
H1368 C1374 0.930 . S
H1369 C1378 0.930 . S
H1370 C1383 0.929 . S
H1371 C1381 0.929 . S
H1372 C1376 0.929 . S
H1373 C1382 0.929 . S
C1374 H1368 0.930 . S
C1374 C1375 1.367 . S
C1374 C1382 1.378 . S
C1375 C1374 1.367 . S
C1375 C1383 1.433 . S
C1376 H1372 0.929 . S
C1376 C1378 1.378 . S
C1376 C1380 1.350 . S
C1377 C1380 1.463 . S
C1377 C1382 1.350 . S
C1377 N1385 1.427 . S
C1378 H1369 0.930 . S
C1378 C1376 1.378 . S
C1378 C1379 1.367 . S
C1379 C1378 1.367 . S
C1379 C1381 1.433 . S
C1380 C1376 1.350 . S
C1380 C1377 1.463 . S
C1380 N1384 1.427 . S
C1381 H1371 0.929 . S
C1381 C1379 1.433 . S
C1381 N1384 1.384 . S
C1382 H1373 0.929 . S
C1382 C1374 1.378 . S
C1382 C1377 1.350 . S
C1383 H1370 0.929 . S
C1383 C1375 1.433 . S
C1383 N1385 1.384 . S
N1384 C1380 1.427 . S
N1384 C1381 1.384 . S
N1385 C1377 1.427 . S
N1385 C1383 1.384 . S
H1386 C1392 0.930 . S
H1387 C1396 0.930 . S
H1388 C1401 0.929 . S
H1389 C1399 0.929 . S
H1390 C1394 0.929 . S
H1391 C1400 0.929 . S
C1392 H1386 0.930 . S
C1392 C1393 1.367 . S
C1392 C1400 1.378 . S
C1393 C1392 1.367 . S
C1393 C1401 1.433 . S
C1394 H1390 0.929 . S
C1394 C1396 1.378 . S
C1394 C1398 1.350 . S
C1395 C1398 1.463 . S
C1395 C1400 1.350 . S
C1395 N1403 1.427 . S
C1396 H1387 0.930 . S
C1396 C1394 1.378 . S
C1396 C1397 1.367 . S
C1397 C1396 1.367 . S
C1397 C1399 1.433 . S
C1398 C1394 1.350 . S
C1398 C1395 1.463 . S
C1398 N1402 1.427 . S
C1399 H1389 0.929 . S
C1399 C1397 1.433 . S
C1399 N1402 1.384 . S
C1400 H1391 0.929 . S
C1400 C1392 1.378 . S
C1400 C1395 1.350 . S
C1401 H1388 0.929 . S
C1401 C1393 1.433 . S
C1401 N1403 1.384 . S
N1402 C1398 1.427 . S
N1402 C1399 1.384 . S
N1403 C1395 1.427 . S
N1403 C1401 1.384 . S
H1404 C1410 0.930 . S
H1405 C1414 0.930 . S
H1406 C1419 0.929 . S
H1407 C1417 0.929 . S
H1408 C1412 0.929 . S
H1409 C1418 0.929 . S
C1410 H1404 0.930 . S
C1410 C1411 1.367 . S
C1410 C1418 1.378 . S
C1411 C1410 1.367 . S
C1411 C1419 1.433 . S
C1412 H1408 0.929 . S
C1412 C1414 1.378 . S
C1412 C1416 1.350 . S
C1413 C1416 1.463 . S
C1413 C1418 1.350 . S
C1413 N1421 1.427 . S
C1414 H1405 0.930 . S
C1414 C1412 1.378 . S
C1414 C1415 1.367 . S
C1415 C1414 1.367 . S
C1415 C1417 1.433 . S
C1416 C1412 1.350 . S
C1416 C1413 1.463 . S
C1416 N1420 1.427 . S
C1417 H1407 0.929 . S
C1417 C1415 1.433 . S
C1417 N1420 1.384 . S
C1418 H1409 0.929 . S
C1418 C1410 1.378 . S
C1418 C1413 1.350 . S
C1419 H1406 0.929 . S
C1419 C1411 1.433 . S
C1419 N1421 1.384 . S
N1420 C1416 1.427 . S
N1420 C1417 1.384 . S
N1421 C1413 1.427 . S
N1421 C1419 1.384 . S
H1422 C1428 0.930 . S
H1423 C1432 0.930 . S
H1424 C1437 0.929 . S
H1425 C1435 0.929 . S
H1426 C1430 0.929 . S
H1427 C1436 0.929 . S
C1428 H1422 0.930 . S
C1428 C1429 1.367 . S
C1428 C1436 1.378 . S
C1429 C1428 1.367 . S
C1429 C1437 1.433 . S
C1430 H1426 0.929 . S
C1430 C1432 1.378 . S
C1430 C1434 1.350 . S
C1431 C1434 1.463 . S
C1431 C1436 1.350 . S
C1431 N1439 1.427 . S
C1432 H1423 0.930 . S
C1432 C1430 1.378 . S
C1432 C1433 1.367 . S
C1433 C1432 1.367 . S
C1433 C1435 1.433 . S
C1434 C1430 1.350 . S
C1434 C1431 1.463 . S
C1434 N1438 1.427 . S
C1435 H1425 0.929 . S
C1435 C1433 1.433 . S
C1435 N1438 1.384 . S
C1436 H1427 0.929 . S
C1436 C1428 1.378 . S
C1436 C1431 1.350 . S
C1437 H1424 0.929 . S
C1437 C1429 1.433 . S
C1437 N1439 1.384 . S
N1438 C1434 1.427 . S
N1438 C1435 1.384 . S
N1439 C1431 1.427 . S
N1439 C1437 1.384 . S
H1440 C1446 0.930 . S
H1441 C1450 0.930 . S
H1442 C1455 0.929 . S
H1443 C1453 0.929 . S
H1444 C1448 0.929 . S
H1445 C1454 0.929 . S
C1446 H1440 0.930 . S
C1446 C1447 1.367 . S
C1446 C1454 1.378 . S
C1447 C1446 1.367 . S
C1447 C1455 1.433 . S
C1448 H1444 0.929 . S
C1448 C1450 1.378 . S
C1448 C1452 1.350 . S
C1449 C1452 1.463 . S
C1449 C1454 1.350 . S
C1449 N1457 1.427 . S
C1450 H1441 0.930 . S
C1450 C1448 1.378 . S
C1450 C1451 1.367 . S
C1451 C1450 1.367 . S
C1451 C1453 1.433 . S
C1452 C1448 1.350 . S
C1452 C1449 1.463 . S
C1452 N1456 1.427 . S
C1453 H1443 0.929 . S
C1453 C1451 1.433 . S
C1453 N1456 1.384 . S
C1454 H1445 0.929 . S
C1454 C1446 1.378 . S
C1454 C1449 1.350 . S
C1455 H1442 0.929 . S
C1455 C1447 1.433 . S
C1455 N1457 1.384 . S
N1456 C1452 1.427 . S
N1456 C1453 1.384 . S
N1457 C1449 1.427 . S
N1457 C1455 1.384 . S
H1458 C1464 0.930 . S
H1459 C1468 0.930 . S
H1460 C1473 0.929 . S
H1461 C1471 0.929 . S
H1462 C1466 0.929 . S
H1463 C1472 0.929 . S
C1464 H1458 0.930 . S
C1464 C1465 1.367 . S
C1464 C1472 1.378 . S
C1465 C1464 1.367 . S
C1465 C1473 1.433 . S
C1466 H1462 0.929 . S
C1466 C1468 1.378 . S
C1466 C1470 1.350 . S
C1467 C1470 1.463 . S
C1467 C1472 1.350 . S
C1467 N1475 1.427 . S
C1468 H1459 0.930 . S
C1468 C1466 1.378 . S
C1468 C1469 1.367 . S
C1469 C1468 1.367 . S
C1469 C1471 1.433 . S
C1470 C1466 1.350 . S
C1470 C1467 1.463 . S
C1470 N1474 1.427 . S
C1471 H1461 0.929 . S
C1471 C1469 1.433 . S
C1471 N1474 1.384 . S
C1472 H1463 0.929 . S
C1472 C1464 1.378 . S
C1472 C1467 1.350 . S
C1473 H1460 0.929 . S
C1473 C1465 1.433 . S
C1473 N1475 1.384 . S
N1474 C1470 1.427 . S
N1474 C1471 1.384 . S
N1475 C1467 1.427 . S
N1475 C1473 1.384 . S
H1476 C1482 0.930 . S
H1477 C1486 0.930 . S
H1478 C1491 0.929 . S
H1479 C1489 0.929 . S
H1480 C1484 0.929 . S
H1481 C1490 0.929 . S
C1482 H1476 0.930 . S
C1482 C1483 1.367 . S
C1482 C1490 1.378 . S
C1483 C1482 1.367 . S
C1483 C1491 1.433 . S
C1484 H1480 0.929 . S
C1484 C1486 1.378 . S
C1484 C1488 1.350 . S
C1485 C1488 1.463 . S
C1485 C1490 1.350 . S
C1485 N1493 1.427 . S
C1486 H1477 0.930 . S
C1486 C1484 1.378 . S
C1486 C1487 1.367 . S
C1487 C1486 1.367 . S
C1487 C1489 1.433 . S
C1488 C1484 1.350 . S
C1488 C1485 1.463 . S
C1488 N1492 1.427 . S
C1489 H1479 0.929 . S
C1489 C1487 1.433 . S
C1489 N1492 1.384 . S
C1490 H1481 0.929 . S
C1490 C1482 1.378 . S
C1490 C1485 1.350 . S
C1491 H1478 0.929 . S
C1491 C1483 1.433 . S
C1491 N1493 1.384 . S
N1492 C1488 1.427 . S
N1492 C1489 1.384 . S
N1493 C1485 1.427 . S
N1493 C1491 1.384 . S
H1494 C1500 0.930 . S
H1495 C1504 0.930 . S
H1496 C1509 0.929 . S
H1497 C1507 0.929 . S
H1498 C1502 0.929 . S
H1499 C1508 0.929 . S
C1500 H1494 0.930 . S
C1500 C1501 1.367 . S
C1500 C1508 1.378 . S
C1501 C1500 1.367 . S
C1501 C1509 1.433 . S
C1502 H1498 0.929 . S
C1502 C1504 1.378 . S
C1502 C1506 1.350 . S
C1503 C1506 1.463 . S
C1503 C1508 1.350 . S
C1503 N1511 1.427 . S
C1504 H1495 0.930 . S
C1504 C1502 1.378 . S
C1504 C1505 1.367 . S
C1505 C1504 1.367 . S
C1505 C1507 1.433 . S
C1506 C1502 1.350 . S
C1506 C1503 1.463 . S
C1506 N1510 1.427 . S
C1507 H1497 0.929 . S
C1507 C1505 1.433 . S
C1507 N1510 1.384 . S
C1508 H1499 0.929 . S
C1508 C1500 1.378 . S
C1508 C1503 1.350 . S
C1509 H1496 0.929 . S
C1509 C1501 1.433 . S
C1509 N1511 1.384 . S
N1510 C1506 1.427 . S
N1510 C1507 1.384 . S
N1511 C1503 1.427 . S
N1511 C1509 1.384 . S
H1512 C1518 0.930 . S
H1513 C1522 0.930 . S
H1514 C1527 0.929 . S
H1515 C1525 0.929 . S
H1516 C1520 0.929 . S
H1517 C1526 0.929 . S
C1518 H1512 0.930 . S
C1518 C1519 1.367 . S
C1518 C1526 1.378 . S
C1519 C1518 1.367 . S
C1519 C1527 1.433 . S
C1520 H1516 0.929 . S
C1520 C1522 1.378 . S
C1520 C1524 1.350 . S
C1521 C1524 1.463 . S
C1521 C1526 1.350 . S
C1521 N1529 1.427 . S
C1522 H1513 0.930 . S
C1522 C1520 1.378 . S
C1522 C1523 1.367 . S
C1523 C1522 1.367 . S
C1523 C1525 1.433 . S
C1524 C1520 1.350 . S
C1524 C1521 1.463 . S
C1524 N1528 1.427 . S
C1525 H1515 0.929 . S
C1525 C1523 1.433 . S
C1525 N1528 1.384 . S
C1526 H1517 0.929 . S
C1526 C1518 1.378 . S
C1526 C1521 1.350 . S
C1527 H1514 0.929 . S
C1527 C1519 1.433 . S
C1527 N1529 1.384 . S
N1528 C1524 1.427 . S
N1528 C1525 1.384 . S
N1529 C1521 1.427 . S
N1529 C1527 1.384 . S
H1530 C1536 0.930 . S
H1531 C1540 0.930 . S
H1532 C1545 0.929 . S
H1533 C1543 0.929 . S
H1534 C1538 0.929 . S
H1535 C1544 0.929 . S
C1536 H1530 0.930 . S
C1536 C1537 1.367 . S
C1536 C1544 1.378 . S
C1537 C1536 1.367 . S
C1537 C1545 1.433 . S
C1538 H1534 0.929 . S
C1538 C1540 1.378 . S
C1538 C1542 1.350 . S
C1539 C1542 1.463 . S
C1539 C1544 1.350 . S
C1539 N1547 1.427 . S
C1540 H1531 0.930 . S
C1540 C1538 1.378 . S
C1540 C1541 1.367 . S
C1541 C1540 1.367 . S
C1541 C1543 1.433 . S
C1542 C1538 1.350 . S
C1542 C1539 1.463 . S
C1542 N1546 1.427 . S
C1543 H1533 0.929 . S
C1543 C1541 1.433 . S
C1543 N1546 1.384 . S
C1544 H1535 0.929 . S
C1544 C1536 1.378 . S
C1544 C1539 1.350 . S
C1545 H1532 0.929 . S
C1545 C1537 1.433 . S
C1545 N1547 1.384 . S
N1546 C1542 1.427 . S
N1546 C1543 1.384 . S
N1547 C1539 1.427 . S
N1547 C1545 1.384 . S
H1548 C1554 0.930 . S
H1549 C1558 0.930 . S
H1550 C1563 0.929 . S
H1551 C1561 0.929 . S
H1552 C1556 0.929 . S
H1553 C1562 0.929 . S
C1554 H1548 0.930 . S
C1554 C1555 1.367 . S
C1554 C1562 1.378 . S
C1555 C1554 1.367 . S
C1555 C1563 1.433 . S
C1556 H1552 0.929 . S
C1556 C1558 1.378 . S
C1556 C1560 1.350 . S
C1557 C1560 1.463 . S
C1557 C1562 1.350 . S
C1557 N1565 1.427 . S
C1558 H1549 0.930 . S
C1558 C1556 1.378 . S
C1558 C1559 1.367 . S
C1559 C1558 1.367 . S
C1559 C1561 1.433 . S
C1560 C1556 1.350 . S
C1560 C1557 1.463 . S
C1560 N1564 1.427 . S
C1561 H1551 0.929 . S
C1561 C1559 1.433 . S
C1561 N1564 1.384 . S
C1562 H1553 0.929 . S
C1562 C1554 1.378 . S
C1562 C1557 1.350 . S
C1563 H1550 0.929 . S
C1563 C1555 1.433 . S
C1563 N1565 1.384 . S
N1564 C1560 1.427 . S
N1564 C1561 1.384 . S
N1565 C1557 1.427 . S
N1565 C1563 1.384 . S
H1566 C1572 0.930 . S
H1567 C1576 0.930 . S
H1568 C1581 0.929 . S
H1569 C1579 0.929 . S
H1570 C1574 0.929 . S
H1571 C1580 0.929 . S
C1572 H1566 0.930 . S
C1572 C1573 1.367 . S
C1572 C1580 1.378 . S
C1573 C1572 1.367 . S
C1573 C1581 1.433 . S
C1574 H1570 0.929 . S
C1574 C1576 1.378 . S
C1574 C1578 1.350 . S
C1575 C1578 1.463 . S
C1575 C1580 1.350 . S
C1575 N1583 1.427 . S
C1576 H1567 0.930 . S
C1576 C1574 1.378 . S
C1576 C1577 1.367 . S
C1577 C1576 1.367 . S
C1577 C1579 1.433 . S
C1578 C1574 1.350 . S
C1578 C1575 1.463 . S
C1578 N1582 1.427 . S
C1579 H1569 0.929 . S
C1579 C1577 1.433 . S
C1579 N1582 1.384 . S
C1580 H1571 0.929 . S
C1580 C1572 1.378 . S
C1580 C1575 1.350 . S
C1581 H1568 0.929 . S
C1581 C1573 1.433 . S
C1581 N1583 1.384 . S
N1582 C1578 1.427 . S
N1582 C1579 1.384 . S
N1583 C1575 1.427 . S
N1583 C1581 1.384 . S
H1584 C1590 0.930 . S
H1585 C1594 0.930 . S
H1586 C1599 0.929 . S
H1587 C1597 0.929 . S
H1588 C1592 0.929 . S
H1589 C1598 0.929 . S
C1590 H1584 0.930 . S
C1590 C1591 1.367 . S
C1590 C1598 1.378 . S
C1591 C1590 1.367 . S
C1591 C1599 1.433 . S
C1592 H1588 0.929 . S
C1592 C1594 1.378 . S
C1592 C1596 1.350 . S
C1593 C1596 1.463 . S
C1593 C1598 1.350 . S
C1593 N1601 1.427 . S
C1594 H1585 0.930 . S
C1594 C1592 1.378 . S
C1594 C1595 1.367 . S
C1595 C1594 1.367 . S
C1595 C1597 1.433 . S
C1596 C1592 1.350 . S
C1596 C1593 1.463 . S
C1596 N1600 1.427 . S
C1597 H1587 0.929 . S
C1597 C1595 1.433 . S
C1597 N1600 1.384 . S
C1598 H1589 0.929 . S
C1598 C1590 1.378 . S
C1598 C1593 1.350 . S
C1599 H1586 0.929 . S
C1599 C1591 1.433 . S
C1599 N1601 1.384 . S
N1600 C1596 1.427 . S
N1600 C1597 1.384 . S
N1601 C1593 1.427 . S
N1601 C1599 1.384 . S
H1602 C1608 0.930 . S
H1603 C1612 0.930 . S
H1604 C1617 0.929 . S
H1605 C1615 0.929 . S
H1606 C1610 0.929 . S
H1607 C1616 0.929 . S
C1608 H1602 0.930 . S
C1608 C1609 1.367 . S
C1608 C1616 1.378 . S
C1609 C1608 1.367 . S
C1609 C1617 1.433 . S
C1610 H1606 0.929 . S
C1610 C1612 1.378 . S
C1610 C1614 1.350 . S
C1611 C1614 1.463 . S
C1611 C1616 1.350 . S
C1611 N1619 1.427 . S
C1612 H1603 0.930 . S
C1612 C1610 1.378 . S
C1612 C1613 1.367 . S
C1613 C1612 1.367 . S
C1613 C1615 1.433 . S
C1614 C1610 1.350 . S
C1614 C1611 1.463 . S
C1614 N1618 1.427 . S
C1615 H1605 0.929 . S
C1615 C1613 1.433 . S
C1615 N1618 1.384 . S
C1616 H1607 0.929 . S
C1616 C1608 1.378 . S
C1616 C1611 1.350 . S
C1617 H1604 0.929 . S
C1617 C1609 1.433 . S
C1617 N1619 1.384 . S
N1618 C1614 1.427 . S
N1618 C1615 1.384 . S
N1619 C1611 1.427 . S
N1619 C1617 1.384 . S
H1620 C1626 0.930 . S
H1621 C1630 0.930 . S
H1622 C1635 0.929 . S
H1623 C1633 0.929 . S
H1624 C1628 0.929 . S
H1625 C1634 0.929 . S
C1626 H1620 0.930 . S
C1626 C1627 1.367 . S
C1626 C1634 1.378 . S
C1627 C1626 1.367 . S
C1627 C1635 1.433 . S
C1628 H1624 0.929 . S
C1628 C1630 1.378 . S
C1628 C1632 1.350 . S
C1629 C1632 1.463 . S
C1629 C1634 1.350 . S
C1629 N1637 1.427 . S
C1630 H1621 0.930 . S
C1630 C1628 1.378 . S
C1630 C1631 1.367 . S
C1631 C1630 1.367 . S
C1631 C1633 1.433 . S
C1632 C1628 1.350 . S
C1632 C1629 1.463 . S
C1632 N1636 1.427 . S
C1633 H1623 0.929 . S
C1633 C1631 1.433 . S
C1633 N1636 1.384 . S
C1634 H1625 0.929 . S
C1634 C1626 1.378 . S
C1634 C1629 1.350 . S
C1635 H1622 0.929 . S
C1635 C1627 1.433 . S
C1635 N1637 1.384 . S
N1636 C1632 1.427 . S
N1636 C1633 1.384 . S
N1637 C1629 1.427 . S
N1637 C1635 1.384 . S
H1638 C1644 0.930 . S
H1639 C1648 0.930 . S
H1640 C1653 0.929 . S
H1641 C1651 0.929 . S
H1642 C1646 0.929 . S
H1643 C1652 0.929 . S
C1644 H1638 0.930 . S
C1644 C1645 1.367 . S
C1644 C1652 1.378 . S
C1645 C1644 1.367 . S
C1645 C1653 1.433 . S
C1646 H1642 0.929 . S
C1646 C1648 1.378 . S
C1646 C1650 1.350 . S
C1647 C1650 1.463 . S
C1647 C1652 1.350 . S
C1647 N1655 1.427 . S
C1648 H1639 0.930 . S
C1648 C1646 1.378 . S
C1648 C1649 1.367 . S
C1649 C1648 1.367 . S
C1649 C1651 1.433 . S
C1650 C1646 1.350 . S
C1650 C1647 1.463 . S
C1650 N1654 1.427 . S
C1651 H1641 0.929 . S
C1651 C1649 1.433 . S
C1651 N1654 1.384 . S
C1652 H1643 0.929 . S
C1652 C1644 1.378 . S
C1652 C1647 1.350 . S
C1653 H1640 0.929 . S
C1653 C1645 1.433 . S
C1653 N1655 1.384 . S
N1654 C1650 1.427 . S
N1654 C1651 1.384 . S
N1655 C1647 1.427 . S
N1655 C1653 1.384 . S
H1656 C1662 0.930 . S
H1657 C1666 0.930 . S
H1658 C1671 0.929 . S
H1659 C1669 0.929 . S
H1660 C1664 0.929 . S
H1661 C1670 0.929 . S
C1662 H1656 0.930 . S
C1662 C1663 1.367 . S
C1662 C1670 1.378 . S
C1663 C1662 1.367 . S
C1663 C1671 1.433 . S
C1664 H1660 0.929 . S
C1664 C1666 1.378 . S
C1664 C1668 1.350 . S
C1665 C1668 1.463 . S
C1665 C1670 1.350 . S
C1665 N1673 1.427 . S
C1666 H1657 0.930 . S
C1666 C1664 1.378 . S
C1666 C1667 1.367 . S
C1667 C1666 1.367 . S
C1667 C1669 1.433 . S
C1668 C1664 1.350 . S
C1668 C1665 1.463 . S
C1668 N1672 1.427 . S
C1669 H1659 0.929 . S
C1669 C1667 1.433 . S
C1669 N1672 1.384 . S
C1670 H1661 0.929 . S
C1670 C1662 1.378 . S
C1670 C1665 1.350 . S
C1671 H1658 0.929 . S
C1671 C1663 1.433 . S
C1671 N1673 1.384 . S
N1672 C1668 1.427 . S
N1672 C1669 1.384 . S
N1673 C1665 1.427 . S
N1673 C1671 1.384 . S
H1674 C1680 0.930 . S
H1675 C1684 0.930 . S
H1676 C1689 0.929 . S
H1677 C1687 0.929 . S
H1678 C1682 0.929 . S
H1679 C1688 0.929 . S
C1680 H1674 0.930 . S
C1680 C1681 1.367 . S
C1680 C1688 1.378 . S
C1681 C1680 1.367 . S
C1681 C1689 1.433 . S
C1682 H1678 0.929 . S
C1682 C1684 1.378 . S
C1682 C1686 1.350 . S
C1683 C1686 1.463 . S
C1683 C1688 1.350 . S
C1683 N1691 1.427 . S
C1684 H1675 0.930 . S
C1684 C1682 1.378 . S
C1684 C1685 1.367 . S
C1685 C1684 1.367 . S
C1685 C1687 1.433 . S
C1686 C1682 1.350 . S
C1686 C1683 1.463 . S
C1686 N1690 1.427 . S
C1687 H1677 0.929 . S
C1687 C1685 1.433 . S
C1687 N1690 1.384 . S
C1688 H1679 0.929 . S
C1688 C1680 1.378 . S
C1688 C1683 1.350 . S
C1689 H1676 0.929 . S
C1689 C1681 1.433 . S
C1689 N1691 1.384 . S
N1690 C1686 1.427 . S
N1690 C1687 1.384 . S
N1691 C1683 1.427 . S
N1691 C1689 1.384 . S
H1692 C1698 0.930 . S
H1693 C1702 0.930 . S
H1694 C1707 0.929 . S
H1695 C1705 0.929 . S
H1696 C1700 0.929 . S
H1697 C1706 0.929 . S
C1698 H1692 0.930 . S
C1698 C1699 1.367 . S
C1698 C1706 1.378 . S
C1699 C1698 1.367 . S
C1699 C1707 1.433 . S
C1700 H1696 0.929 . S
C1700 C1702 1.378 . S
C1700 C1704 1.350 . S
C1701 C1704 1.463 . S
C1701 C1706 1.350 . S
C1701 N1709 1.427 . S
C1702 H1693 0.930 . S
C1702 C1700 1.378 . S
C1702 C1703 1.367 . S
C1703 C1702 1.367 . S
C1703 C1705 1.433 . S
C1704 C1700 1.350 . S
C1704 C1701 1.463 . S
C1704 N1708 1.427 . S
C1705 H1695 0.929 . S
C1705 C1703 1.433 . S
C1705 N1708 1.384 . S
C1706 H1697 0.929 . S
C1706 C1698 1.378 . S
C1706 C1701 1.350 . S
C1707 H1694 0.929 . S
C1707 C1699 1.433 . S
C1707 N1709 1.384 . S
N1708 C1704 1.427 . S
N1708 C1705 1.384 . S
N1709 C1701 1.427 . S
N1709 C1707 1.384 . S
H1710 C1716 0.930 . S
H1711 C1720 0.930 . S
H1712 C1725 0.929 . S
H1713 C1723 0.929 . S
H1714 C1718 0.929 . S
H1715 C1724 0.929 . S
C1716 H1710 0.930 . S
C1716 C1717 1.367 . S
C1716 C1724 1.378 . S
C1717 C1716 1.367 . S
C1717 C1725 1.433 . S
C1718 H1714 0.929 . S
C1718 C1720 1.378 . S
C1718 C1722 1.350 . S
C1719 C1722 1.463 . S
C1719 C1724 1.350 . S
C1719 N1727 1.427 . S
C1720 H1711 0.930 . S
C1720 C1718 1.378 . S
C1720 C1721 1.367 . S
C1721 C1720 1.367 . S
C1721 C1723 1.433 . S
C1722 C1718 1.350 . S
C1722 C1719 1.463 . S
C1722 N1726 1.427 . S
C1723 H1713 0.929 . S
C1723 C1721 1.433 . S
C1723 N1726 1.384 . S
C1724 H1715 0.929 . S
C1724 C1716 1.378 . S
C1724 C1719 1.350 . S
C1725 H1712 0.929 . S
C1725 C1717 1.433 . S
C1725 N1727 1.384 . S
N1726 C1722 1.427 . S
N1726 C1723 1.384 . S
N1727 C1719 1.427 . S
N1727 C1725 1.384 . S
H1728 C1734 0.930 . S
H1729 C1738 0.930 . S
H1730 C1743 0.929 . S
H1731 C1741 0.929 . S
H1732 C1736 0.929 . S
H1733 C1742 0.929 . S
C1734 H1728 0.930 . S
C1734 C1735 1.367 . S
C1734 C1742 1.378 . S
C1735 C1734 1.367 . S
C1735 C1743 1.433 . S
C1736 H1732 0.929 . S
C1736 C1738 1.378 . S
C1736 C1740 1.350 . S
C1737 C1740 1.463 . S
C1737 C1742 1.350 . S
C1737 N1745 1.427 . S
C1738 H1729 0.930 . S
C1738 C1736 1.378 . S
C1738 C1739 1.367 . S
C1739 C1738 1.367 . S
C1739 C1741 1.433 . S
C1740 C1736 1.350 . S
C1740 C1737 1.463 . S
C1740 N1744 1.427 . S
C1741 H1731 0.929 . S
C1741 C1739 1.433 . S
C1741 N1744 1.384 . S
C1742 H1733 0.929 . S
C1742 C1734 1.378 . S
C1742 C1737 1.350 . S
C1743 H1730 0.929 . S
C1743 C1735 1.433 . S
C1743 N1745 1.384 . S
N1744 C1740 1.427 . S
N1744 C1741 1.384 . S
N1745 C1737 1.427 . S
N1745 C1743 1.384 . S
H1746 C1752 0.930 . S
H1747 C1756 0.930 . S
H1748 C1761 0.929 . S
H1749 C1759 0.929 . S
H1750 C1754 0.929 . S
H1751 C1760 0.929 . S
C1752 H1746 0.930 . S
C1752 C1753 1.367 . S
C1752 C1760 1.378 . S
C1753 C1752 1.367 . S
C1753 C1761 1.433 . S
C1754 H1750 0.929 . S
C1754 C1756 1.378 . S
C1754 C1758 1.350 . S
C1755 C1758 1.463 . S
C1755 C1760 1.350 . S
C1755 N1763 1.427 . S
C1756 H1747 0.930 . S
C1756 C1754 1.378 . S
C1756 C1757 1.367 . S
C1757 C1756 1.367 . S
C1757 C1759 1.433 . S
C1758 C1754 1.350 . S
C1758 C1755 1.463 . S
C1758 N1762 1.427 . S
C1759 H1749 0.929 . S
C1759 C1757 1.433 . S
C1759 N1762 1.384 . S
C1760 H1751 0.929 . S
C1760 C1752 1.378 . S
C1760 C1755 1.350 . S
C1761 H1748 0.929 . S
C1761 C1753 1.433 . S
C1761 N1763 1.384 . S
N1762 C1758 1.427 . S
N1762 C1759 1.384 . S
N1763 C1755 1.427 . S
N1763 C1761 1.384 . S
H1764 C1770 0.930 . S
H1765 C1774 0.930 . S
H1766 C1779 0.929 . S
H1767 C1777 0.929 . S
H1768 C1772 0.929 . S
H1769 C1778 0.929 . S
C1770 H1764 0.930 . S
C1770 C1771 1.367 . S
C1770 C1778 1.378 . S
C1771 C1770 1.367 . S
C1771 C1779 1.433 . S
C1772 H1768 0.929 . S
C1772 C1774 1.378 . S
C1772 C1776 1.350 . S
C1773 C1776 1.463 . S
C1773 C1778 1.350 . S
C1773 N1781 1.427 . S
C1774 H1765 0.930 . S
C1774 C1772 1.378 . S
C1774 C1775 1.367 . S
C1775 C1774 1.367 . S
C1775 C1777 1.433 . S
C1776 C1772 1.350 . S
C1776 C1773 1.463 . S
C1776 N1780 1.427 . S
C1777 H1767 0.929 . S
C1777 C1775 1.433 . S
C1777 N1780 1.384 . S
C1778 H1769 0.929 . S
C1778 C1770 1.378 . S
C1778 C1773 1.350 . S
C1779 H1766 0.929 . S
C1779 C1771 1.433 . S
C1779 N1781 1.384 . S
N1780 C1776 1.427 . S
N1780 C1777 1.384 . S
N1781 C1773 1.427 . S
N1781 C1779 1.384 . S
H1782 C1788 0.930 . S
H1783 C1792 0.930 . S
H1784 C1797 0.929 1_554 S
H1785 C1795 0.929 . S
H1786 C1790 0.929 . S
H1787 C1796 0.929 . S
C1788 H1782 0.930 . S
C1788 C1789 1.367 . S
C1788 C1796 1.378 . S
C1789 C1788 1.367 . S
C1789 C1797 1.433 . S
C1790 H1786 0.929 . S
C1790 C1792 1.378 . S
C1790 C1794 1.350 . S
C1791 C1794 1.463 . S
C1791 C1796 1.350 . S
C1791 N1799 1.427 . S
C1792 H1783 0.930 . S
C1792 C1790 1.378 . S
C1792 C1793 1.367 . S
C1793 C1792 1.367 . S
C1793 C1795 1.433 . S
C1794 C1790 1.350 . S
C1794 C1791 1.463 . S
C1794 N1798 1.427 . S
C1795 H1785 0.929 . S
C1795 C1793 1.433 . S
C1795 N1798 1.384 . S
C1796 H1787 0.929 . S
C1796 C1788 1.378 . S
C1796 C1791 1.350 . S
C1797 H1784 0.929 1_556 S
C1797 C1789 1.433 . S
C1797 N1799 1.384 . S
N1798 C1794 1.427 . S
N1798 C1795 1.384 . S
N1799 C1791 1.427 . S
N1799 C1797 1.384 . S
H1800 C1806 0.930 1_554 S
H1801 C1810 0.930 . S
H1802 C1815 0.929 . S
H1803 C1813 0.929 . S
H1804 C1808 0.929 . S
H1805 C1814 0.929 . S
C1806 H1800 0.930 1_556 S
C1806 C1807 1.367 . S
C1806 C1814 1.378 . S
C1807 C1806 1.367 . S
C1807 C1815 1.433 . S
C1808 H1804 0.929 . S
C1808 C1810 1.378 . S
C1808 C1812 1.350 . S
C1809 C1812 1.463 . S
C1809 C1814 1.350 . S
C1809 N1817 1.427 . S
C1810 H1801 0.930 . S
C1810 C1808 1.378 . S
C1810 C1811 1.367 . S
C1811 C1810 1.367 . S
C1811 C1813 1.433 . S
C1812 C1808 1.350 . S
C1812 C1809 1.463 . S
C1812 N1816 1.427 . S
C1813 H1803 0.929 . S
C1813 C1811 1.433 . S
C1813 N1816 1.384 . S
C1814 H1805 0.929 . S
C1814 C1806 1.378 . S
C1814 C1809 1.350 . S
C1815 H1802 0.929 . S
C1815 C1807 1.433 . S
C1815 N1817 1.384 . S
N1816 C1812 1.427 . S
N1816 C1813 1.384 . S
N1817 C1809 1.427 . S
N1817 C1815 1.384 . S
H1818 C1824 0.930 . S
H1819 C1828 0.930 . S
H1820 C1833 0.929 . S
H1821 C1831 0.929 . S
H1822 C1826 0.929 . S
H1823 C1832 0.929 . S
C1824 H1818 0.930 . S
C1824 C1825 1.367 . S
C1824 C1832 1.378 . S
C1825 C1824 1.367 . S
C1825 C1833 1.433 . S
C1826 H1822 0.929 . S
C1826 C1828 1.378 . S
C1826 C1830 1.350 . S
C1827 C1830 1.463 . S
C1827 C1832 1.350 . S
C1827 N1835 1.427 . S
C1828 H1819 0.930 . S
C1828 C1826 1.378 . S
C1828 C1829 1.367 . S
C1829 C1828 1.367 . S
C1829 C1831 1.433 . S
C1830 C1826 1.350 . S
C1830 C1827 1.463 . S
C1830 N1834 1.427 . S
C1831 H1821 0.929 . S
C1831 C1829 1.433 . S
C1831 N1834 1.384 . S
C1832 H1823 0.929 . S
C1832 C1824 1.378 . S
C1832 C1827 1.350 . S
C1833 H1820 0.929 . S
C1833 C1825 1.433 . S
C1833 N1835 1.384 . S
N1834 C1830 1.427 . S
N1834 C1831 1.384 . S
N1835 C1827 1.427 . S
N1835 C1833 1.384 . S
H1836 C1842 0.930 . S
H1837 C1846 0.930 . S
H1838 C1851 0.929 1_554 S
H1839 C1849 0.929 . S
H1840 C1844 0.929 . S
H1841 C1850 0.929 . S
C1842 H1836 0.930 . S
C1842 C1843 1.367 . S
C1842 C1850 1.378 . S
C1843 C1842 1.367 . S
C1843 C1851 1.433 . S
C1844 H1840 0.929 . S
C1844 C1846 1.378 . S
C1844 C1848 1.350 . S
C1845 C1848 1.463 . S
C1845 C1850 1.350 . S
C1845 N1853 1.427 . S
C1846 H1837 0.930 . S
C1846 C1844 1.378 . S
C1846 C1847 1.367 . S
C1847 C1846 1.367 . S
C1847 C1849 1.433 . S
C1848 C1844 1.350 . S
C1848 C1845 1.463 . S
C1848 N1852 1.427 . S
C1849 H1839 0.929 . S
C1849 C1847 1.433 . S
C1849 N1852 1.384 . S
C1850 H1841 0.929 . S
C1850 C1842 1.378 . S
C1850 C1845 1.350 . S
C1851 H1838 0.929 1_556 S
C1851 C1843 1.433 . S
C1851 N1853 1.384 . S
N1852 C1848 1.427 . S
N1852 C1849 1.384 . S
N1853 C1845 1.427 . S
N1853 C1851 1.384 . S
H1854 C1860 0.930 . S
H1855 C1864 0.930 . S
H1856 C1869 0.929 1_554 S
H1857 C1867 0.929 . S
H1858 C1862 0.929 . S
H1859 C1868 0.929 . S
C1860 H1854 0.930 . S
C1860 C1861 1.367 . S
C1860 C1868 1.378 . S
C1861 C1860 1.367 . S
C1861 C1869 1.433 . S
C1862 H1858 0.929 . S
C1862 C1864 1.378 . S
C1862 C1866 1.350 . S
C1863 C1866 1.463 . S
C1863 C1868 1.350 . S
C1863 N1871 1.427 . S
C1864 H1855 0.930 . S
C1864 C1862 1.378 . S
C1864 C1865 1.367 . S
C1865 C1864 1.367 . S
C1865 C1867 1.433 . S
C1866 C1862 1.350 . S
C1866 C1863 1.463 . S
C1866 N1870 1.427 . S
C1867 H1857 0.929 . S
C1867 C1865 1.433 . S
C1867 N1870 1.384 . S
C1868 H1859 0.929 . S
C1868 C1860 1.378 . S
C1868 C1863 1.350 . S
C1869 H1856 0.929 1_556 S
C1869 C1861 1.433 . S
C1869 N1871 1.384 . S
N1870 C1866 1.427 . S
N1870 C1867 1.384 . S
N1871 C1863 1.427 . S
N1871 C1869 1.384 . S
H1872 C1878 0.930 . S
H1873 C1882 0.930 . S
H1874 C1887 0.929 . S
H1875 C1885 0.929 . S
H1876 C1880 0.929 . S
H1877 C1886 0.929 . S
C1878 H1872 0.930 . S
C1878 C1879 1.367 1_554 S
C1878 C1886 1.378 1_554 S
C1879 C1878 1.367 1_556 S
C1879 C1887 1.433 . S
C1880 H1876 0.929 . S
C1880 C1882 1.378 . S
C1880 C1884 1.350 . S
C1881 C1884 1.463 . S
C1881 C1886 1.350 . S
C1881 N1889 1.427 . S
C1882 H1873 0.930 . S
C1882 C1880 1.378 . S
C1882 C1883 1.367 . S
C1883 C1882 1.367 . S
C1883 C1885 1.433 . S
C1884 C1880 1.350 . S
C1884 C1881 1.463 . S
C1884 N1888 1.427 . S
C1885 H1875 0.929 . S
C1885 C1883 1.433 . S
C1885 N1888 1.384 . S
C1886 H1877 0.929 . S
C1886 C1878 1.378 1_556 S
C1886 C1881 1.350 . S
C1887 H1874 0.929 . S
C1887 C1879 1.433 . S
C1887 N1889 1.384 . S
N1888 C1884 1.427 . S
N1888 C1885 1.384 . S
N1889 C1881 1.427 . S
N1889 C1887 1.384 . S
H1890 C1896 0.930 . S
H1891 C1900 0.930 . S
H1892 C1905 0.929 . S
H1893 C1903 0.929 . S
H1894 C1898 0.929 . S
H1895 C1904 0.929 . S
C1896 H1890 0.930 . S
C1896 C1897 1.367 . S
C1896 C1904 1.378 . S
C1897 C1896 1.367 . S
C1897 C1905 1.433 . S
C1898 H1894 0.929 . S
C1898 C1900 1.378 . S
C1898 C1902 1.350 . S
C1899 C1902 1.463 . S
C1899 C1904 1.350 . S
C1899 N1907 1.427 . S
C1900 H1891 0.930 . S
C1900 C1898 1.378 . S
C1900 C1901 1.367 . S
C1901 C1900 1.367 . S
C1901 C1903 1.433 . S
C1902 C1898 1.350 . S
C1902 C1899 1.463 . S
C1902 N1906 1.427 . S
C1903 H1893 0.929 . S
C1903 C1901 1.433 . S
C1903 N1906 1.384 . S
C1904 H1895 0.929 . S
C1904 C1896 1.378 . S
C1904 C1899 1.350 . S
C1905 H1892 0.929 . S
C1905 C1897 1.433 . S
C1905 N1907 1.384 . S
N1906 C1902 1.427 . S
N1906 C1903 1.384 . S
N1907 C1899 1.427 . S
N1907 C1905 1.384 . S
H1908 C1914 0.930 . S
H1909 C1918 0.930 . S
H1910 C1923 0.929 . S
H1911 C1921 0.929 . S
H1912 C1916 0.929 . S
H1913 C1922 0.929 . S
C1914 H1908 0.930 . S
C1914 C1915 1.367 . S
C1914 C1922 1.378 . S
C1915 C1914 1.367 . S
C1915 C1923 1.433 . S
C1916 H1912 0.929 . S
C1916 C1918 1.378 . S
C1916 C1920 1.350 . S
C1917 C1920 1.463 . S
C1917 C1922 1.350 . S
C1917 N1925 1.427 . S
C1918 H1909 0.930 . S
C1918 C1916 1.378 . S
C1918 C1919 1.367 . S
C1919 C1918 1.367 . S
C1919 C1921 1.433 . S
C1920 C1916 1.350 . S
C1920 C1917 1.463 . S
C1920 N1924 1.427 . S
C1921 H1911 0.929 . S
C1921 C1919 1.433 . S
C1921 N1924 1.384 . S
C1922 H1913 0.929 . S
C1922 C1914 1.378 . S
C1922 C1917 1.350 . S
C1923 H1910 0.929 . S
C1923 C1915 1.433 . S
C1923 N1925 1.384 . S
N1924 C1920 1.427 . S
N1924 C1921 1.384 . S
N1925 C1917 1.427 . S
N1925 C1923 1.384 . S
H1926 C1932 0.930 . S
H1927 C1936 0.930 . S
H1928 C1941 0.929 . S
H1929 C1939 0.929 . S
H1930 C1934 0.929 . S
H1931 C1940 0.929 . S
C1932 H1926 0.930 . S
C1932 C1933 1.367 . S
C1932 C1940 1.378 . S
C1933 C1932 1.367 . S
C1933 C1941 1.433 . S
C1934 H1930 0.929 . S
C1934 C1936 1.378 . S
C1934 C1938 1.350 . S
C1935 C1938 1.463 . S
C1935 C1940 1.350 . S
C1935 N1943 1.427 . S
C1936 H1927 0.930 . S
C1936 C1934 1.378 . S
C1936 C1937 1.367 . S
C1937 C1936 1.367 . S
C1937 C1939 1.433 . S
C1938 C1934 1.350 . S
C1938 C1935 1.463 . S
C1938 N1942 1.427 . S
C1939 H1929 0.929 . S
C1939 C1937 1.433 . S
C1939 N1942 1.384 . S
C1940 H1931 0.929 . S
C1940 C1932 1.378 . S
C1940 C1935 1.350 . S
C1941 H1928 0.929 . S
C1941 C1933 1.433 . S
C1941 N1943 1.384 . S
N1942 C1938 1.427 . S
N1942 C1939 1.384 . S
N1943 C1935 1.427 . S
N1943 C1941 1.384 . S
H1944 C1950 0.930 . S
H1945 C1954 0.930 . S
H1946 C1959 0.929 . S
H1947 C1957 0.929 . S
H1948 C1952 0.929 . S
H1949 C1958 0.929 . S
C1950 H1944 0.930 . S
C1950 C1951 1.367 . S
C1950 C1958 1.378 . S
C1951 C1950 1.367 . S
C1951 C1959 1.433 . S
C1952 H1948 0.929 . S
C1952 C1954 1.378 . S
C1952 C1956 1.350 . S
C1953 C1956 1.463 . S
C1953 C1958 1.350 . S
C1953 N1961 1.427 . S
C1954 H1945 0.930 . S
C1954 C1952 1.378 . S
C1954 C1955 1.367 . S
C1955 C1954 1.367 . S
C1955 C1957 1.433 . S
C1956 C1952 1.350 . S
C1956 C1953 1.463 . S
C1956 N1960 1.427 . S
C1957 H1947 0.929 . S
C1957 C1955 1.433 . S
C1957 N1960 1.384 . S
C1958 H1949 0.929 . S
C1958 C1950 1.378 . S
C1958 C1953 1.350 . S
C1959 H1946 0.929 . S
C1959 C1951 1.433 . S
C1959 N1961 1.384 . S
N1960 C1956 1.427 . S
N1960 C1957 1.384 . S
N1961 C1953 1.427 . S
N1961 C1959 1.384 . S
H1962 C1968 0.930 . S
H1963 C1972 0.930 . S
H1964 C1977 0.929 . S
H1965 C1975 0.929 . S
H1966 C1970 0.929 . S
H1967 C1976 0.929 . S
C1968 H1962 0.930 . S
C1968 C1969 1.367 . S
C1968 C1976 1.378 . S
C1969 C1968 1.367 . S
C1969 C1977 1.433 . S
C1970 H1966 0.929 . S
C1970 C1972 1.378 . S
C1970 C1974 1.350 . S
C1971 C1974 1.463 . S
C1971 C1976 1.350 . S
C1971 N1979 1.427 . S
C1972 H1963 0.930 . S
C1972 C1970 1.378 . S
C1972 C1973 1.367 . S
C1973 C1972 1.367 . S
C1973 C1975 1.433 . S
C1974 C1970 1.350 . S
C1974 C1971 1.463 . S
C1974 N1978 1.427 . S
C1975 H1965 0.929 . S
C1975 C1973 1.433 . S
C1975 N1978 1.384 . S
C1976 H1967 0.929 . S
C1976 C1968 1.378 . S
C1976 C1971 1.350 . S
C1977 H1964 0.929 . S
C1977 C1969 1.433 . S
C1977 N1979 1.384 . S
N1978 C1974 1.427 . S
N1978 C1975 1.384 . S
N1979 C1971 1.427 . S
N1979 C1977 1.384 . S
H1980 C1986 0.930 . S
H1981 C1990 0.930 . S
H1982 C1995 0.929 . S
H1983 C1993 0.929 . S
H1984 C1988 0.929 . S
H1985 C1994 0.929 . S
C1986 H1980 0.930 . S
C1986 C1987 1.367 . S
C1986 C1994 1.378 . S
C1987 C1986 1.367 . S
C1987 C1995 1.433 . S
C1988 H1984 0.929 . S
C1988 C1990 1.378 . S
C1988 C1992 1.350 . S
C1989 C1992 1.463 . S
C1989 C1994 1.350 . S
C1989 N1997 1.427 . S
C1990 H1981 0.930 . S
C1990 C1988 1.378 . S
C1990 C1991 1.367 . S
C1991 C1990 1.367 . S
C1991 C1993 1.433 . S
C1992 C1988 1.350 . S
C1992 C1989 1.463 . S
C1992 N1996 1.427 . S
C1993 H1983 0.929 . S
C1993 C1991 1.433 . S
C1993 N1996 1.384 . S
C1994 H1985 0.929 . S
C1994 C1986 1.378 . S
C1994 C1989 1.350 . S
C1995 H1982 0.929 . S
C1995 C1987 1.433 . S
C1995 N1997 1.384 . S
N1996 C1992 1.427 . S
N1996 C1993 1.384 . S
N1997 C1989 1.427 . S
N1997 C1995 1.384 . S
H1998 C2004 0.930 . S
H1999 C2008 0.915 1_655 S
H2000 C2013 0.929 . S
H2001 C2011 0.929 . S
H2002 C2006 0.917 . S
H2003 C2012 0.929 . S
C2004 H1998 0.930 . S
C2004 C2005 1.367 . S
C2004 C2012 1.378 . S
C2005 C2004 1.367 . S
C2005 C2013 1.433 . S
C2006 H2002 0.917 . S
C2006 C2008 1.415 . S
C2006 C2010 1.350 . S
C2007 C2010 1.463 . S
C2007 C2012 1.350 . S
C2007 N2015 1.427 . S
C2008 H1999 0.915 1_455 S
C2008 C2006 1.415 . S
C2008 C2009 1.349 . S
C2009 C2008 1.349 . S
C2009 C2011 1.433 . S
C2010 C2006 1.350 . S
C2010 C2007 1.463 . S
C2010 N2014 1.427 . S
C2011 H2001 0.929 . S
C2011 C2009 1.433 . S
C2011 N2014 1.384 . S
C2012 H2003 0.929 . S
C2012 C2004 1.378 . S
C2012 C2007 1.350 . S
C2013 H2000 0.929 . S
C2013 C2005 1.433 . S
C2013 N2015 1.384 . S
N2014 C2010 1.427 . S
N2014 C2011 1.384 . S
N2015 C2007 1.427 . S
N2015 C2013 1.384 . S
H2016 C2022 0.930 . S
H2017 C2026 0.930 . S
H2018 C2031 0.929 . S
H2019 C2029 0.929 . S
H2020 C2024 0.929 . S
H2021 C2030 0.929 . S
C2022 H2016 0.930 . S
C2022 C2023 1.367 . S
C2022 C2030 1.378 . S
C2023 C2022 1.367 . S
C2023 C2031 1.433 . S
C2024 H2020 0.929 . S
C2024 C2026 1.378 . S
C2024 C2028 1.350 . S
C2025 C2028 1.463 . S
C2025 C2030 1.350 . S
C2025 N2033 1.427 . S
C2026 H2017 0.930 . S
C2026 C2024 1.378 . S
C2026 C2027 1.367 . S
C2027 C2026 1.367 . S
C2027 C2029 1.433 . S
C2028 C2024 1.350 . S
C2028 C2025 1.463 . S
C2028 N2032 1.427 . S
C2029 H2019 0.929 . S
C2029 C2027 1.433 . S
C2029 N2032 1.384 . S
C2030 H2021 0.929 . S
C2030 C2022 1.378 . S
C2030 C2025 1.350 . S
C2031 H2018 0.929 . S
C2031 C2023 1.433 . S
C2031 N2033 1.384 . S
N2032 C2028 1.427 . S
N2032 C2029 1.384 . S
N2033 C2025 1.427 . S
N2033 C2031 1.384 . S
H2034 C2040 0.930 . S
H2035 C2044 0.930 . S
H2036 C2049 0.921 1_545 S
H2037 C2047 0.929 . S
H2038 C2042 0.929 . S
H2039 C2048 0.929 . S
C2040 H2034 0.930 . S
C2040 C2041 1.367 . S
C2040 C2048 1.378 . S
C2041 C2040 1.367 . S
C2041 C2049 1.433 . S
C2042 H2038 0.929 . S
C2042 C2044 1.378 . S
C2042 C2046 1.350 1_545 S
C2043 C2046 1.463 . S
C2043 C2048 1.350 . S
C2043 N2051 1.427 . S
C2044 H2035 0.930 . S
C2044 C2042 1.378 . S
C2044 C2045 1.367 1_545 S
C2045 C2044 1.367 1_565 S
C2045 C2047 1.433 . S
C2046 C2042 1.350 1_565 S
C2046 C2043 1.463 . S
C2046 N2050 1.427 . S
C2047 H2037 0.929 . S
C2047 C2045 1.433 . S
C2047 N2050 1.384 . S
C2048 H2039 0.929 . S
C2048 C2040 1.378 . S
C2048 C2043 1.350 . S
C2049 H2036 0.921 1_565 S
C2049 C2041 1.433 . S
C2049 N2051 1.384 . S
N2050 C2046 1.427 . S
N2050 C2047 1.384 . S
N2051 C2043 1.427 . S
N2051 C2049 1.384 . S
H2052 C2058 0.930 . S
H2053 C2062 0.930 . S
H2054 C2067 0.929 1_545 S
H2055 C2065 0.929 . S
H2056 C2060 0.929 . S
H2057 C2066 0.929 . S
C2058 H2052 0.930 . S
C2058 C2059 1.367 . S
C2058 C2066 1.378 . S
C2059 C2058 1.367 . S
C2059 C2067 1.433 . S
C2060 H2056 0.929 . S
C2060 C2062 1.378 . S
C2060 C2064 1.350 1_545 S
C2061 C2064 1.463 . S
C2061 C2066 1.350 . S
C2061 N2069 1.427 . S
C2062 H2053 0.930 . S
C2062 C2060 1.378 . S
C2062 C2063 1.367 1_545 S
C2063 C2062 1.367 1_565 S
C2063 C2065 1.433 . S
C2064 C2060 1.350 1_565 S
C2064 C2061 1.463 . S
C2064 N2068 1.427 . S
C2065 H2055 0.929 . S
C2065 C2063 1.433 . S
C2065 N2068 1.384 . S
C2066 H2057 0.929 . S
C2066 C2058 1.378 . S
C2066 C2061 1.350 . S
C2067 H2054 0.929 1_565 S
C2067 C2059 1.433 . S
C2067 N2069 1.384 . S
N2068 C2064 1.427 . S
N2068 C2065 1.384 . S
N2069 C2061 1.427 . S
N2069 C2067 1.384 . S
H2070 C2076 0.930 . S
H2071 C2080 0.930 . S
H2072 C2085 0.905 1_655 S
H2073 C2083 0.929 . S
H2074 C2078 0.929 . S
H2075 C2084 0.929 . S
C2076 H2070 0.930 . S
C2076 C2077 1.367 . S
C2076 C2084 1.378 . S
C2077 C2076 1.367 . S
C2077 C2085 1.442 . S
C2078 H2074 0.929 . S
C2078 C2080 1.378 . S
C2078 C2082 1.350 1_655 S
C2079 C2082 1.463 . S
C2079 C2084 1.350 . S
C2079 N2087 1.391 1_455 S
C2080 H2071 0.930 . S
C2080 C2078 1.378 . S
C2080 C2081 1.367 1_655 S
C2081 C2080 1.367 1_455 S
C2081 C2083 1.433 . S
C2082 C2078 1.350 1_455 S
C2082 C2079 1.463 . S
C2082 N2086 1.427 . S
C2083 H2073 0.929 . S
C2083 C2081 1.433 . S
C2083 N2086 1.384 . S
C2084 H2075 0.929 . S
C2084 C2076 1.378 . S
C2084 C2079 1.350 . S
C2085 H2072 0.905 1_455 S
C2085 C2077 1.442 . S
C2085 N2087 1.436 1_455 S
N2086 C2082 1.427 . S
N2086 C2083 1.384 . S
N2087 C2079 1.391 1_655 S
N2087 C2085 1.436 1_655 S
H2088 C2094 0.930 . S
H2089 C2098 0.930 . S
H2090 C2103 0.929 . S
H2091 C2101 0.929 . S
H2092 C2096 0.929 . S
H2093 C2102 0.929 . S
C2094 H2088 0.930 . S
C2094 C2095 1.367 . S
C2094 C2102 1.378 . S
C2095 C2094 1.367 . S
C2095 C2103 1.433 . S
C2096 H2092 0.929 . S
C2096 C2098 1.378 . S
C2096 C2100 1.350 . S
C2097 C2100 1.463 . S
C2097 C2102 1.350 . S
C2097 N2105 1.427 . S
C2098 H2089 0.930 . S
C2098 C2096 1.378 . S
C2098 C2099 1.367 . S
C2099 C2098 1.367 . S
C2099 C2101 1.433 . S
C2100 C2096 1.350 . S
C2100 C2097 1.463 . S
C2100 N2104 1.427 . S
C2101 H2091 0.929 . S
C2101 C2099 1.433 . S
C2101 N2104 1.384 . S
C2102 H2093 0.929 . S
C2102 C2094 1.378 . S
C2102 C2097 1.350 . S
C2103 H2090 0.929 . S
C2103 C2095 1.433 . S
C2103 N2105 1.384 . S
N2104 C2100 1.427 . S
N2104 C2101 1.384 . S
N2105 C2097 1.427 . S
N2105 C2103 1.384 . S
H2106 C2112 0.930 . S
H2107 C2116 0.930 . S
H2108 C2121 0.929 . S
H2109 C2119 0.929 . S
H2110 C2114 0.929 . S
H2111 C2120 0.929 . S
C2112 H2106 0.930 . S
C2112 C2113 1.367 . S
C2112 C2120 1.378 . S
C2113 C2112 1.367 . S
C2113 C2121 1.433 . S
C2114 H2110 0.929 . S
C2114 C2116 1.378 . S
C2114 C2118 1.350 . S
C2115 C2118 1.463 . S
C2115 C2120 1.350 . S
C2115 N2123 1.427 . S
C2116 H2107 0.930 . S
C2116 C2114 1.378 . S
C2116 C2117 1.367 . S
C2117 C2116 1.367 . S
C2117 C2119 1.433 . S
C2118 C2114 1.350 . S
C2118 C2115 1.463 . S
C2118 N2122 1.427 . S
C2119 H2109 0.929 . S
C2119 C2117 1.433 . S
C2119 N2122 1.384 . S
C2120 H2111 0.929 . S
C2120 C2112 1.378 . S
C2120 C2115 1.350 . S
C2121 H2108 0.929 . S
C2121 C2113 1.433 . S
C2121 N2123 1.384 . S
N2122 C2118 1.427 . S
N2122 C2119 1.384 . S
N2123 C2115 1.427 . S
N2123 C2121 1.384 . S
H2124 C2130 0.930 . S
H2125 C2134 0.930 . S
H2126 C2139 0.929 . S
H2127 C2137 0.929 . S
H2128 C2132 0.929 . S
H2129 C2138 0.929 . S
C2130 H2124 0.930 . S
C2130 C2131 1.367 . S
C2130 C2138 1.378 . S
C2131 C2130 1.367 . S
C2131 C2139 1.433 . S
C2132 H2128 0.929 . S
C2132 C2134 1.378 . S
C2132 C2136 1.350 . S
C2133 C2136 1.463 . S
C2133 C2138 1.350 . S
C2133 N2141 1.427 . S
C2134 H2125 0.930 . S
C2134 C2132 1.378 . S
C2134 C2135 1.367 . S
C2135 C2134 1.367 . S
C2135 C2137 1.433 . S
C2136 C2132 1.350 . S
C2136 C2133 1.463 . S
C2136 N2140 1.427 . S
C2137 H2127 0.929 . S
C2137 C2135 1.433 . S
C2137 N2140 1.384 . S
C2138 H2129 0.929 . S
C2138 C2130 1.378 . S
C2138 C2133 1.350 . S
C2139 H2126 0.929 . S
C2139 C2131 1.433 . S
C2139 N2141 1.384 . S
N2140 C2136 1.427 . S
N2140 C2137 1.384 . S
N2141 C2133 1.427 . S
N2141 C2139 1.384 . S
H2142 C2148 0.930 . S
H2143 C2152 0.930 . S
H2144 C2157 0.929 . S
H2145 C2155 0.929 . S
H2146 C2150 0.929 . S
H2147 C2156 0.929 . S
C2148 H2142 0.930 . S
C2148 C2149 1.367 . S
C2148 C2156 1.378 . S
C2149 C2148 1.367 . S
C2149 C2157 1.433 . S
C2150 H2146 0.929 . S
C2150 C2152 1.378 . S
C2150 C2154 1.350 . S
C2151 C2154 1.463 . S
C2151 C2156 1.350 . S
C2151 N2159 1.427 . S
C2152 H2143 0.930 . S
C2152 C2150 1.378 . S
C2152 C2153 1.367 . S
C2153 C2152 1.367 . S
C2153 C2155 1.433 . S
C2154 C2150 1.350 . S
C2154 C2151 1.463 . S
C2154 N2158 1.427 . S
C2155 H2145 0.929 . S
C2155 C2153 1.433 . S
C2155 N2158 1.384 . S
C2156 H2147 0.929 . S
C2156 C2148 1.378 . S
C2156 C2151 1.350 . S
C2157 H2144 0.929 . S
C2157 C2149 1.433 . S
C2157 N2159 1.384 . S
N2158 C2154 1.427 . S
N2158 C2155 1.384 . S
N2159 C2151 1.427 . S
N2159 C2157 1.384 . S
H2160 C2166 0.930 . S
H2161 C2170 0.930 . S
H2162 C2175 0.947 . S
H2163 C2173 0.929 . S
H2164 C2168 0.929 . S
H2165 C2174 0.929 . S
C2166 H2160 0.930 . S
C2166 C2167 1.367 . S
C2166 C2174 1.378 . S
C2167 C2166 1.367 . S
C2167 C2175 1.393 1_545 S
C2168 H2164 0.929 . S
C2168 C2170 1.378 . S
C2168 C2172 1.350 1_565 S
C2169 C2172 1.463 . S
C2169 C2174 1.350 . S
C2169 N2177 1.427 1_545 S
C2170 H2161 0.930 . S
C2170 C2168 1.378 . S
C2170 C2171 1.367 1_565 S
C2171 C2170 1.367 1_545 S
C2171 C2173 1.433 . S
C2172 C2168 1.350 1_545 S
C2172 C2169 1.463 . S
C2172 N2176 1.427 . S
C2173 H2163 0.929 . S
C2173 C2171 1.433 . S
C2173 N2176 1.384 . S
C2174 H2165 0.929 . S
C2174 C2166 1.378 . S
C2174 C2169 1.350 . S
C2175 H2162 0.947 . S
C2175 C2167 1.393 1_565 S
C2175 N2177 1.407 . S
N2176 C2172 1.427 . S
N2176 C2173 1.384 . S
N2177 C2169 1.427 1_565 S
N2177 C2175 1.407 . S
H2178 C2184 0.917 1_455 S
H2179 C2188 0.930 . S
H2180 C2193 0.929 . S
H2181 C2191 0.929 . S
H2182 C2186 0.929 . S
H2183 C2192 0.929 1_455 S
C2184 H2178 0.917 1_655 S
C2184 C2185 1.367 . S
C2184 C2192 1.378 . S
C2185 C2184 1.367 . S
C2185 C2193 1.433 . S
C2186 H2182 0.929 . S
C2186 C2188 1.378 . S
C2186 C2190 1.350 . S
C2187 C2190 1.463 . S
C2187 C2192 1.350 . S
C2187 N2195 1.427 . S
C2188 H2179 0.930 . S
C2188 C2186 1.378 . S
C2188 C2189 1.367 . S
C2189 C2188 1.367 . S
C2189 C2191 1.433 1_655 S
C2190 C2186 1.350 . S
C2190 C2187 1.463 . S
C2190 N2194 1.427 1_655 S
C2191 H2181 0.929 . S
C2191 C2189 1.433 1_455 S
C2191 N2194 1.384 . S
C2192 H2183 0.929 1_655 S
C2192 C2184 1.378 . S
C2192 C2187 1.350 . S
C2193 H2180 0.929 . S
C2193 C2185 1.433 . S
C2193 N2195 1.384 . S
N2194 C2190 1.427 1_455 S
N2194 C2191 1.384 . S
N2195 C2187 1.427 . S
N2195 C2193 1.384 . S
H2196 C2202 0.930 . S
H2197 C2206 0.930 . S
H2198 C2211 0.929 . S
H2199 C2209 0.929 . S
H2200 C2204 0.929 . S
H2201 C2210 0.929 . S
C2202 H2196 0.930 . S
C2202 C2203 1.367 . S
C2202 C2210 1.378 . S
C2203 C2202 1.367 . S
C2203 C2211 1.433 . S
C2204 H2200 0.929 . S
C2204 C2206 1.378 . S
C2204 C2208 1.350 . S
C2205 C2208 1.463 . S
C2205 C2210 1.350 . S
C2205 N2213 1.427 . S
C2206 H2197 0.930 . S
C2206 C2204 1.378 . S
C2206 C2207 1.367 . S
C2207 C2206 1.367 . S
C2207 C2209 1.433 . S
C2208 C2204 1.350 . S
C2208 C2205 1.463 . S
C2208 N2212 1.427 . S
C2209 H2199 0.929 . S
C2209 C2207 1.433 . S
C2209 N2212 1.384 . S
C2210 H2201 0.929 . S
C2210 C2202 1.378 . S
C2210 C2205 1.350 . S
C2211 H2198 0.929 . S
C2211 C2203 1.433 . S
C2211 N2213 1.384 . S
N2212 C2208 1.427 . S
N2212 C2209 1.384 . S
N2213 C2205 1.427 . S
N2213 C2211 1.384 . S
H2214 C2220 0.930 . S
H2215 C2224 0.930 . S
H2216 C2229 0.929 . S
H2217 C2227 0.929 . S
H2218 C2222 0.929 . S
H2219 C2228 0.929 . S
C2220 H2214 0.930 . S
C2220 C2221 1.367 . S
C2220 C2228 1.378 . S
C2221 C2220 1.367 . S
C2221 C2229 1.433 . S
C2222 H2218 0.929 . S
C2222 C2224 1.378 . S
C2222 C2226 1.350 . S
C2223 C2226 1.463 . S
C2223 C2228 1.350 . S
C2223 N2231 1.427 . S
C2224 H2215 0.930 . S
C2224 C2222 1.378 . S
C2224 C2225 1.367 . S
C2225 C2224 1.367 . S
C2225 C2227 1.433 . S
C2226 C2222 1.350 . S
C2226 C2223 1.463 . S
C2226 N2230 1.427 . S
C2227 H2217 0.929 . S
C2227 C2225 1.433 . S
C2227 N2230 1.384 . S
C2228 H2219 0.929 . S
C2228 C2220 1.378 . S
C2228 C2223 1.350 . S
C2229 H2216 0.929 . S
C2229 C2221 1.433 . S
C2229 N2231 1.384 . S
N2230 C2226 1.427 . S
N2230 C2227 1.384 . S
N2231 C2223 1.427 . S
N2231 C2229 1.384 . S
H2232 C2238 0.930 . S
H2233 C2242 0.930 . S
H2234 C2247 0.929 . S
H2235 C2245 0.929 . S
H2236 C2240 0.929 . S
H2237 C2246 0.929 . S
C2238 H2232 0.930 . S
C2238 C2239 1.367 . S
C2238 C2246 1.378 . S
C2239 C2238 1.367 . S
C2239 C2247 1.433 . S
C2240 H2236 0.929 . S
C2240 C2242 1.378 . S
C2240 C2244 1.350 . S
C2241 C2244 1.463 . S
C2241 C2246 1.350 . S
C2241 N2249 1.427 . S
C2242 H2233 0.930 . S
C2242 C2240 1.378 . S
C2242 C2243 1.367 . S
C2243 C2242 1.367 . S
C2243 C2245 1.433 . S
C2244 C2240 1.350 . S
C2244 C2241 1.463 . S
C2244 N2248 1.427 . S
C2245 H2235 0.929 . S
C2245 C2243 1.433 . S
C2245 N2248 1.384 . S
C2246 H2237 0.929 . S
C2246 C2238 1.378 . S
C2246 C2241 1.350 . S
C2247 H2234 0.929 . S
C2247 C2239 1.433 . S
C2247 N2249 1.384 . S
N2248 C2244 1.427 . S
N2248 C2245 1.384 . S
N2249 C2241 1.427 . S
N2249 C2247 1.384 . S
H2250 C2256 0.930 . S
H2251 C2260 0.930 . S
H2252 C2265 0.929 . S
H2253 C2263 0.929 . S
H2254 C2258 0.929 . S
H2255 C2264 0.929 . S
C2256 H2250 0.930 . S
C2256 C2257 1.367 . S
C2256 C2264 1.378 . S
C2257 C2256 1.367 . S
C2257 C2265 1.433 . S
C2258 H2254 0.929 . S
C2258 C2260 1.378 . S
C2258 C2262 1.350 . S
C2259 C2262 1.463 . S
C2259 C2264 1.350 . S
C2259 N2267 1.427 . S
C2260 H2251 0.930 . S
C2260 C2258 1.378 . S
C2260 C2261 1.367 . S
C2261 C2260 1.367 . S
C2261 C2263 1.433 . S
C2262 C2258 1.350 . S
C2262 C2259 1.463 . S
C2262 N2266 1.427 . S
C2263 H2253 0.929 . S
C2263 C2261 1.433 . S
C2263 N2266 1.384 . S
C2264 H2255 0.929 . S
C2264 C2256 1.378 . S
C2264 C2259 1.350 . S
C2265 H2252 0.929 . S
C2265 C2257 1.433 . S
C2265 N2267 1.384 . S
N2266 C2262 1.427 . S
N2266 C2263 1.384 . S
N2267 C2259 1.427 . S
N2267 C2265 1.384 . S
H2268 C2274 0.930 . S
H2269 C2278 0.930 . S
H2270 C2283 0.929 . S
H2271 C2281 0.929 . S
H2272 C2276 0.929 . S
H2273 C2282 0.929 . S
C2274 H2268 0.930 . S
C2274 C2275 1.367 . S
C2274 C2282 1.378 . S
C2275 C2274 1.367 . S
C2275 C2283 1.433 . S
C2276 H2272 0.929 . S
C2276 C2278 1.378 . S
C2276 C2280 1.350 . S
C2277 C2280 1.463 . S
C2277 C2282 1.350 . S
C2277 N2285 1.427 . S
C2278 H2269 0.930 . S
C2278 C2276 1.378 . S
C2278 C2279 1.367 . S
C2279 C2278 1.367 . S
C2279 C2281 1.433 . S
C2280 C2276 1.350 . S
C2280 C2277 1.463 . S
C2280 N2284 1.427 . S
C2281 H2271 0.929 . S
C2281 C2279 1.433 . S
C2281 N2284 1.384 . S
C2282 H2273 0.929 . S
C2282 C2274 1.378 . S
C2282 C2277 1.350 . S
C2283 H2270 0.929 . S
C2283 C2275 1.433 . S
C2283 N2285 1.384 . S
N2284 C2280 1.427 . S
N2284 C2281 1.384 . S
N2285 C2277 1.427 . S
N2285 C2283 1.384 . S
H2286 C2292 0.930 . S
H2287 C2296 0.930 . S
H2288 C2301 0.929 . S
H2289 C2299 0.929 . S
H2290 C2294 0.929 . S
H2291 C2300 0.929 . S
C2292 H2286 0.930 . S
C2292 C2293 1.367 . S
C2292 C2300 1.378 . S
C2293 C2292 1.367 . S
C2293 C2301 1.433 . S
C2294 H2290 0.929 . S
C2294 C2296 1.378 . S
C2294 C2298 1.350 . S
C2295 C2298 1.463 . S
C2295 C2300 1.350 . S
C2295 N2303 1.427 . S
C2296 H2287 0.930 . S
C2296 C2294 1.378 . S
C2296 C2297 1.367 . S
C2297 C2296 1.367 . S
C2297 C2299 1.433 . S
C2298 C2294 1.350 . S
C2298 C2295 1.463 . S
C2298 N2302 1.427 . S
C2299 H2289 0.929 . S
C2299 C2297 1.433 . S
C2299 N2302 1.384 . S
C2300 H2291 0.929 . S
C2300 C2292 1.378 . S
C2300 C2295 1.350 . S
C2301 H2288 0.929 . S
C2301 C2293 1.433 . S
C2301 N2303 1.384 . S
N2302 C2298 1.427 . S
N2302 C2299 1.384 . S
N2303 C2295 1.427 . S
N2303 C2301 1.384 . S
H2304 C2310 0.930 . S
H2305 C2314 0.930 . S
H2306 C2319 0.929 . S
H2307 C2317 0.929 . S
H2308 C2312 0.929 . S
H2309 C2318 0.929 . S
C2310 H2304 0.930 . S
C2310 C2311 1.367 . S
C2310 C2318 1.378 . S
C2311 C2310 1.367 . S
C2311 C2319 1.433 . S
C2312 H2308 0.929 . S
C2312 C2314 1.378 . S
C2312 C2316 1.350 . S
C2313 C2316 1.463 . S
C2313 C2318 1.350 . S
C2313 N2321 1.427 . S
C2314 H2305 0.930 . S
C2314 C2312 1.378 . S
C2314 C2315 1.367 . S
C2315 C2314 1.367 . S
C2315 C2317 1.433 . S
C2316 C2312 1.350 . S
C2316 C2313 1.463 . S
C2316 N2320 1.427 . S
C2317 H2307 0.929 . S
C2317 C2315 1.433 . S
C2317 N2320 1.384 . S
C2318 H2309 0.929 . S
C2318 C2310 1.378 . S
C2318 C2313 1.350 . S
C2319 H2306 0.929 . S
C2319 C2311 1.433 . S
C2319 N2321 1.384 . S
N2320 C2316 1.427 . S
N2320 C2317 1.384 . S
N2321 C2313 1.427 . S
N2321 C2319 1.384 . S
H2322 C2328 0.930 . S
H2323 C2332 0.930 . S
H2324 C2337 0.922 1_455 S
H2325 C2335 0.929 . S
H2326 C2330 0.929 . S
H2327 C2336 0.929 . S
C2328 H2322 0.930 . S
C2328 C2329 1.367 . S
C2328 C2336 1.378 . S
C2329 C2328 1.367 . S
C2329 C2337 1.433 . S
C2330 H2326 0.929 . S
C2330 C2332 1.378 . S
C2330 C2334 1.350 1_455 S
C2331 C2334 1.463 . S
C2331 C2336 1.350 . S
C2331 N2339 1.427 . S
C2332 H2323 0.930 . S
C2332 C2330 1.378 . S
C2332 C2333 1.367 1_455 S
C2333 C2332 1.367 1_655 S
C2333 C2335 1.433 . S
C2334 C2330 1.350 1_655 S
C2334 C2331 1.463 . S
C2334 N2338 1.427 . S
C2335 H2325 0.929 . S
C2335 C2333 1.433 . S
C2335 N2338 1.384 . S
C2336 H2327 0.929 . S
C2336 C2328 1.378 . S
C2336 C2331 1.350 . S
C2337 H2324 0.922 1_655 S
C2337 C2329 1.433 . S
C2337 N2339 1.384 . S
N2338 C2334 1.427 . S
N2338 C2335 1.384 . S
N2339 C2331 1.427 . S
N2339 C2337 1.384 . S
H2340 C2346 0.930 . S
H2341 C2350 0.930 . S
H2342 C2355 0.929 . S
H2343 C2353 0.929 . S
H2344 C2348 0.929 . S
H2345 C2354 0.929 . S
C2346 H2340 0.930 . S
C2346 C2347 1.367 . S
C2346 C2354 1.378 . S
C2347 C2346 1.367 . S
C2347 C2355 1.433 . S
C2348 H2344 0.929 . S
C2348 C2350 1.378 . S
C2348 C2352 1.350 . S
C2349 C2352 1.463 . S
C2349 C2354 1.350 . S
C2349 N2357 1.427 . S
C2350 H2341 0.930 . S
C2350 C2348 1.378 . S
C2350 C2351 1.367 . S
C2351 C2350 1.367 . S
C2351 C2353 1.433 . S
C2352 C2348 1.350 . S
C2352 C2349 1.463 . S
C2352 N2356 1.427 . S
C2353 H2343 0.929 . S
C2353 C2351 1.433 . S
C2353 N2356 1.384 . S
C2354 H2345 0.929 . S
C2354 C2346 1.378 . S
C2354 C2349 1.350 . S
C2355 H2342 0.929 . S
C2355 C2347 1.433 . S
C2355 N2357 1.384 . S
N2356 C2352 1.427 . S
N2356 C2353 1.384 . S
N2357 C2349 1.427 . S
N2357 C2355 1.384 . S
H2358 C2364 0.930 . S
H2359 C2368 0.930 . S
H2360 C2373 0.929 . S
H2361 C2371 0.929 . S
H2362 C2366 0.929 . S
H2363 C2372 0.929 . S
C2364 H2358 0.930 . S
C2364 C2365 1.367 1_565 S
C2364 C2372 1.378 . S
C2365 C2364 1.367 1_545 S
C2365 C2373 1.433 . S
C2366 H2362 0.929 . S
C2366 C2368 1.378 . S
C2366 C2370 1.350 . S
C2367 C2370 1.463 . S
C2367 C2372 1.350 1_545 S
C2367 N2375 1.427 . S
C2368 H2359 0.930 . S
C2368 C2366 1.378 . S
C2368 C2369 1.367 . S
C2369 C2368 1.367 . S
C2369 C2371 1.433 1_545 S
C2370 C2366 1.350 . S
C2370 C2367 1.463 . S
C2370 N2374 1.427 1_545 S
C2371 H2361 0.929 . S
C2371 C2369 1.433 1_565 S
C2371 N2374 1.384 . S
C2372 H2363 0.929 . S
C2372 C2364 1.378 . S
C2372 C2367 1.350 1_565 S
C2373 H2360 0.929 . S
C2373 C2365 1.433 . S
C2373 N2375 1.384 . S
N2374 C2370 1.427 1_565 S
N2374 C2371 1.384 . S
N2375 C2367 1.427 . S
N2375 C2373 1.384 . S
C1087 C13 1.417 . S
C1091 C688 1.479 . S
C1105 C27 1.351 . S
C1109 C734 1.422 . S
C1127 C766 1.451 . S
C1123 C36 1.332 . S
C1141 C41 1.402 . S
C1145 C819 1.447 . S
C1159 C8 1.434 . S
C1163 C865 1.557 . S
C1177 C22 1.441 . S
C1181 C904 1.507 . S
C1195 C55 1.408 . S
C1199 C858 1.473 . S
C1217 C911 1.421 . S
C1213 C69 1.350 . S
C1235 C812 1.468 . S
C1231 C78 1.370 . S
C1249 C83 1.397 . S
C1253 C773 1.455 . S
C1271 C667 1.564 . S
C1267 C50 1.458 . S
C1285 C64 1.429 . S
C1289 C713 1.495 . S
C1303 C97 1.558 . S
C1307 C943 1.648 . S
C1321 C111 1.391 . S
C1325 C1010 1.480 . S
C1343 C1056 1.563 . S
C1339 C120 1.529 . S
C1357 C125 1.465 . S
C1361 C267 1.539 . S
C1375 C92 1.665 . S
C1379 C313 1.707 . S
C1393 C106 1.506 . S
C1397 C359 1.544 . S
C1411 C139 1.474 . S
C1415 C306 1.559 . S
C1429 C153 1.402 . S
C1433 C352 1.458 . S
C1451 C260 1.579 . S
C1447 C162 1.537 . S
C1469 C1035 1.611 . S
C1465 C167 1.513 . S
C1487 C964 1.706 . S
C1483 C134 1.650 . S
C1505 C989 1.571 . S
C1501 C148 1.518 . S
C1519 C181 1.479 . S
C1523 C391 1.575 . S
C1537 C195 1.391 . S
C1541 C444 1.456 . S
C1555 C204 1.535 . S
C1559 C490 1.586 . S
C1573 C209 1.527 . S
C1577 C536 1.621 . S
C1595 C589 1.706 . S
C1591 C176 1.668 . S
C1613 C635 1.569 . S
C1609 C190 1.531 . S
C1631 C582 1.643 . S
C1627 C223 1.559 . S
C1649 C628 1.490 . S
C1645 C237 1.402 . S
C1663 C246 1.516 . S
C1667 C543 1.566 . S
C1685 C497 1.541 . S
C1681 C251 1.455 . S
C1699 C218 1.666 . S
C1703 C412 1.720 . S
C1721 C451 1.560 . S
C1717 C232 1.511 . S
C1739 C274 1.521 . S
C1735 C11 1.496 . S
C1753 C25 1.376 . S
C1757 C320 1.388 . S
C1775 C366 1.493 . S
C1771 C35 1.513 . S
C1793 C398 1.518 . S
C1789 C39 1.511 . S
C1811 C437 1.577 . S
C1807 C7 1.610 . S
C1829 C483 1.421 . S
C1825 C21 1.461 . S
C1843 C53 1.505 . S
C1847 C504 1.521 . S
C1861 C67 1.371 . S
C1865 C405 1.370 . S
C1879 C77 1.493 1_556 S
C1883 C458 1.458 . S
C1897 C81 1.523 . S
C1901 C299 1.545 . S
C1919 C345 1.590 . S
C1915 C49 1.605 . S
C1933 C63 1.461 . S
C1937 C253 1.444 . S
C1955 C529 1.453 . S
C1951 C95 1.461 . S
C1969 C109 1.469 . S
C1973 C596 1.466 . S
C1987 C119 1.555 . S
C1991 C642 1.538 . S
C2009 C681 1.266 . S
C2005 C123 1.266 . S
C2023 C91 1.538 . S
C2027 C727 1.522 . S
C2041 C105 1.250 . S
C2045 C759 1.260 . S
C2059 C137 1.301 . S
C2063 C780 1.297 . S
C2077 C151 1.169 . S
C2081 C674 1.176 . S
C2099 C720 1.437 . S
C2095 C161 1.448 . S
C2113 C165 1.487 . S
C2117 C575 1.497 . S
C2131 C133 1.627 . S
C2135 C621 1.609 . S
C2153 C550 1.522 . S
C2149 C147 1.556 . S
C2171 C826 1.318 . S
C2167 C179 1.315 . S
C2185 C193 1.164 . S
C2189 C872 1.166 . S
C2203 C203 1.442 . S
C2207 C897 1.415 . S
C2225 C950 1.467 . S
C2221 C207 1.476 . S
C2243 C1003 1.609 . S
C2239 C175 1.630 . S
C2257 C189 1.558 . S
C2261 C1049 1.541 . S
C2275 C221 1.462 . S
C2279 C1042 1.470 . S
C2293 C235 1.458 . S
C2297 C957 1.444 . S
C2315 C996 1.521 . S
C2311 C245 1.538 . S
C2333 C851 1.256 . S
C2329 C249 1.250 . S
C2351 C918 1.523 . S
C2347 C217 1.545 . S
C2365 C231 1.272 . S
C2369 C805 1.274 . S
