# Generated by pormake.
# Topology eea, (3,6)-cn, num edge types: 1
# Building blocks:
#     Node 0, Type 0, BuildingBlock: BETDIP_clean_linker_0, # of connection points: 3
#     Node 1, Type 0, BuildingBlock: BETDIP_clean_linker_0, # of connection points: 3
#     Node 2, Type 0, BuildingBlock: BETDIP_clean_linker_0, # of connection points: 3
#     Node 3, Type 0, BuildingBlock: BETDIP_clean_linker_0, # of connection points: 3
#     Node 4, Type 0, BuildingBlock: BETDIP_clean_linker_0, # of connection points: 3
#     Node 5, Type 0, BuildingBlock: BETDIP_clean_linker_0, # of connection points: 3
#     Node 6, Type 0, BuildingBlock: BETDIP_clean_linker_0, # of connection points: 3
#     Node 7, Type 0, BuildingBlock: BETDIP_clean_linker_0, # of connection points: 3
#     Node 8, Type 0, BuildingBlock: BETDIP_clean_linker_0, # of connection points: 3
#     Node 9, Type 0, BuildingBlock: BETDIP_clean_linker_0, # of connection points: 3
#     Node 10, Type 0, BuildingBlock: BETDIP_clean_linker_0, # of connection points: 3
#     Node 11, Type 0, BuildingBlock: BETDIP_clean_linker_0, # of connection points: 3
#     Node 12, Type 0, BuildingBlock: BETDIP_clean_linker_0, # of connection points: 3
#     Node 13, Type 0, BuildingBlock: BETDIP_clean_linker_0, # of connection points: 3
#     Node 14, Type 0, BuildingBlock: BETDIP_clean_linker_0, # of connection points: 3
#     Node 15, Type 0, BuildingBlock: BETDIP_clean_linker_0, # of connection points: 3
#     Node 16, Type 0, BuildingBlock: BETDIP_clean_linker_0, # of connection points: 3
#     Node 17, Type 0, BuildingBlock: BETDIP_clean_linker_0, # of connection points: 3
#     Node 18, Type 1, BuildingBlock: NUHQIS_clean_sbu_0, # of connection points: 6
#     Node 19, Type 1, BuildingBlock: NUHQIS_clean_sbu_0, # of connection points: 6
#     Node 20, Type 1, BuildingBlock: NUHQIS_clean_sbu_0, # of connection points: 6
#     Node 21, Type 1, BuildingBlock: NUHQIS_clean_sbu_0, # of connection points: 6
#     Node 22, Type 1, BuildingBlock: NUHQIS_clean_sbu_0, # of connection points: 6
#     Node 23, Type 1, BuildingBlock: NUHQIS_clean_sbu_0, # of connection points: 6
#     Node 24, Type 1, BuildingBlock: NUHQIS_clean_sbu_0, # of connection points: 6
#     Node 25, Type 1, BuildingBlock: NUHQIS_clean_sbu_0, # of connection points: 6
#     Node 26, Type 1, BuildingBlock: NUHQIS_clean_sbu_0, # of connection points: 6
#     Edge 27, Type (0, 1), BuildingBlock: TEMPAE_clean_linker_10, # of connection points: 2
#     Edge 28, Type (0, 1), BuildingBlock: TEMPAE_clean_linker_10, # of connection points: 2
#     Edge 29, Type (0, 1), BuildingBlock: TEMPAE_clean_linker_10, # of connection points: 2
#     Edge 30, Type (0, 1), BuildingBlock: TEMPAE_clean_linker_10, # of connection points: 2
#     Edge 31, Type (0, 1), BuildingBlock: TEMPAE_clean_linker_10, # of connection points: 2
#     Edge 32, Type (0, 1), BuildingBlock: TEMPAE_clean_linker_10, # of connection points: 2
#     Edge 33, Type (0, 1), BuildingBlock: TEMPAE_clean_linker_10, # of connection points: 2
#     Edge 34, Type (0, 1), BuildingBlock: TEMPAE_clean_linker_10, # of connection points: 2
#     Edge 35, Type (0, 1), BuildingBlock: TEMPAE_clean_linker_10, # of connection points: 2
#     Edge 36, Type (0, 1), BuildingBlock: TEMPAE_clean_linker_10, # of connection points: 2
#     Edge 37, Type (0, 1), BuildingBlock: TEMPAE_clean_linker_10, # of connection points: 2
#     Edge 38, Type (0, 1), BuildingBlock: TEMPAE_clean_linker_10, # of connection points: 2
#     Edge 39, Type (0, 1), BuildingBlock: TEMPAE_clean_linker_10, # of connection points: 2
#     Edge 40, Type (0, 1), BuildingBlock: TEMPAE_clean_linker_10, # of connection points: 2
#     Edge 41, Type (0, 1), BuildingBlock: TEMPAE_clean_linker_10, # of connection points: 2
#     Edge 42, Type (0, 1), BuildingBlock: TEMPAE_clean_linker_10, # of connection points: 2
#     Edge 43, Type (0, 1), BuildingBlock: TEMPAE_clean_linker_10, # of connection points: 2
#     Edge 44, Type (0, 1), BuildingBlock: TEMPAE_clean_linker_10, # of connection points: 2
#     Edge 45, Type (0, 1), BuildingBlock: TEMPAE_clean_linker_10, # of connection points: 2
#     Edge 46, Type (0, 1), BuildingBlock: TEMPAE_clean_linker_10, # of connection points: 2
#     Edge 47, Type (0, 1), BuildingBlock: TEMPAE_clean_linker_10, # of connection points: 2
#     Edge 48, Type (0, 1), BuildingBlock: TEMPAE_clean_linker_10, # of connection points: 2
#     Edge 49, Type (0, 1), BuildingBlock: TEMPAE_clean_linker_10, # of connection points: 2
#     Edge 50, Type (0, 1), BuildingBlock: TEMPAE_clean_linker_10, # of connection points: 2
#     Edge 51, Type (0, 1), BuildingBlock: TEMPAE_clean_linker_10, # of connection points: 2
#     Edge 52, Type (0, 1), BuildingBlock: TEMPAE_clean_linker_10, # of connection points: 2
#     Edge 53, Type (0, 1), BuildingBlock: TEMPAE_clean_linker_10, # of connection points: 2
#     Edge 54, Type (0, 1), BuildingBlock: TEMPAE_clean_linker_10, # of connection points: 2
#     Edge 55, Type (0, 1), BuildingBlock: TEMPAE_clean_linker_10, # of connection points: 2
#     Edge 56, Type (0, 1), BuildingBlock: TEMPAE_clean_linker_10, # of connection points: 2
#     Edge 57, Type (0, 1), BuildingBlock: TEMPAE_clean_linker_10, # of connection points: 2
#     Edge 58, Type (0, 1), BuildingBlock: TEMPAE_clean_linker_10, # of connection points: 2
#     Edge 59, Type (0, 1), BuildingBlock: TEMPAE_clean_linker_10, # of connection points: 2
#     Edge 60, Type (0, 1), BuildingBlock: TEMPAE_clean_linker_10, # of connection points: 2
#     Edge 61, Type (0, 1), BuildingBlock: TEMPAE_clean_linker_10, # of connection points: 2
#     Edge 62, Type (0, 1), BuildingBlock: TEMPAE_clean_linker_10, # of connection points: 2
#     Edge 63, Type (0, 1), BuildingBlock: TEMPAE_clean_linker_10, # of connection points: 2
#     Edge 64, Type (0, 1), BuildingBlock: TEMPAE_clean_linker_10, # of connection points: 2
#     Edge 65, Type (0, 1), BuildingBlock: TEMPAE_clean_linker_10, # of connection points: 2
#     Edge 66, Type (0, 1), BuildingBlock: TEMPAE_clean_linker_10, # of connection points: 2
#     Edge 67, Type (0, 1), BuildingBlock: TEMPAE_clean_linker_10, # of connection points: 2
#     Edge 68, Type (0, 1), BuildingBlock: TEMPAE_clean_linker_10, # of connection points: 2
#     Edge 69, Type (0, 1), BuildingBlock: TEMPAE_clean_linker_10, # of connection points: 2
#     Edge 70, Type (0, 1), BuildingBlock: TEMPAE_clean_linker_10, # of connection points: 2
#     Edge 71, Type (0, 1), BuildingBlock: TEMPAE_clean_linker_10, # of connection points: 2
#     Edge 72, Type (0, 1), BuildingBlock: TEMPAE_clean_linker_10, # of connection points: 2
#     Edge 73, Type (0, 1), BuildingBlock: TEMPAE_clean_linker_10, # of connection points: 2
#     Edge 74, Type (0, 1), BuildingBlock: TEMPAE_clean_linker_10, # of connection points: 2
#     Edge 75, Type (0, 1), BuildingBlock: TEMPAE_clean_linker_10, # of connection points: 2
#     Edge 76, Type (0, 1), BuildingBlock: TEMPAE_clean_linker_10, # of connection points: 2
#     Edge 77, Type (0, 1), BuildingBlock: TEMPAE_clean_linker_10, # of connection points: 2
#     Edge 78, Type (0, 1), BuildingBlock: TEMPAE_clean_linker_10, # of connection points: 2
#     Edge 79, Type (0, 1), BuildingBlock: TEMPAE_clean_linker_10, # of connection points: 2
#     Edge 80, Type (0, 1), BuildingBlock: TEMPAE_clean_linker_10, # of connection points: 2
# Relax obj value: 0.060
# Max RMSD: 0.209
# Mean RMSD: 0.147
data_MOF--net-eea--node1-NUHQIS_clean_sbu_0--node2-BETDIP_clean_linker_0--edge1-TEMPAE_clean_linker_10
_symmetry_space_group_name_H-M    P1
_symmetry_Int_Tables_number       1
_symmetry_cell_setting            triclinic
loop_
_symmetry_equiv_pos_as_xyz
'x, y, z'
_cell_length_a     55.502768
_cell_length_b     55.869962
_cell_length_c     69.36458
_cell_angle_alpha  93.222237
_cell_angle_beta   93.678613
_cell_angle_gamma 119.70758
loop_
_atom_site_label
_atom_site_type_symbol
_atom_site_fract_x
_atom_site_fract_y
_atom_site_fract_z
_atom_type_partial_charge
H0 H 0.2505 0.11863 0.38027 0.0
H1 H 0.28648 0.18445 0.42678 0.0
H2 H 0.28183 0.10666 0.43498 0.0
H3 H 0.29409 0.21091 0.40092 0.0
C4 C 0.27368 0.19862 0.39272 0.0
C5 C 0.2606 0.1265 0.39494 0.0
C6 C 0.26606 0.1097 0.40665 0.0
C7 C 0.26831 0.15358 0.40194 0.0
C8 C 0.28111 0.1638 0.42106 0.0
C9 C 0.28628 0.14708 0.43309 0.0
C10 C 0.27883 0.12011 0.42567 0.0
N11 N 0.26117 0.16935 0.38991 0.0
H12 H 0.91675 0.1199 0.39284 0.0
H13 H 0.86515 0.10356 0.43949 0.0
H14 H 0.93209 0.18627 0.43555 0.0
H15 H 0.86761 0.06207 0.43525 0.0
C16 C 0.86084 0.05833 0.41978 0.0
C17 C 0.91149 0.12727 0.40581 0.0
C18 C 0.92715 0.15536 0.41308 0.0
C19 C 0.88933 0.1085 0.41538 0.0
C20 C 0.88238 0.11802 0.43211 0.0
C21 C 0.89761 0.14605 0.43948 0.0
C22 C 0.92 0.16464 0.42986 0.0
N23 N 0.87392 0.08019 0.40781 0.0
H24 H 0.89783 0.7989 0.40462 0.0
H25 H 0.92861 0.77082 0.45157 0.0
H26 H 0.84752 0.76299 0.45106 0.0
H27 H 0.94749 0.76003 0.42401 0.0
C28 C 0.95652 0.78039 0.41876 0.0
C29 C 0.89492 0.78972 0.41825 0.0
C30 C 0.86989 0.78114 0.42667 0.0
C31 C 0.91585 0.78543 0.42686 0.0
C32 C 0.91214 0.77335 0.4445 0.0
C33 C 0.88767 0.76559 0.45347 0.0
C34 C 0.86661 0.76932 0.44434 0.0
N35 N 0.94067 0.79401 0.41773 0.0
H36 H 0.08496 0.20392 0.63662 0.0
H37 H 0.13507 0.23088 0.58899 0.0
H38 H 0.05871 0.23309 0.5879 0.0
H39 H 0.16972 0.24248 0.61366 0.0
C40 C 0.16042 0.22357 0.62083 0.0
C41 C 0.08843 0.21212 0.62263 0.0
C42 C 0.06896 0.21791 0.61324 0.0
C43 C 0.11247 0.21695 0.61408 0.0
C44 C 0.11677 0.22736 0.59585 0.0
C45 C 0.09761 0.23344 0.58635 0.0
C46 C 0.07366 0.22851 0.59512 0.0
N47 N 0.13169 0.21063 0.62383 0.0
H48 H 0.77076 0.87324 0.6639 0.0
H49 H 0.75006 0.90524 0.61467 0.0
H50 H 0.73887 0.82313 0.60891 0.0
H51 H 0.80704 0.94017 0.63656 0.0
C52 C 0.79308 0.94179 0.64619 0.0
C53 C 0.76239 0.87015 0.64884 0.0
C54 C 0.75524 0.84563 0.63731 0.0
C55 C 0.76078 0.89164 0.64058 0.0
C56 C 0.75092 0.88831 0.62095 0.0
C57 C 0.74274 0.86355 0.60941 0.0
C58 C 0.74506 0.84233 0.6177 0.0
N59 N 0.77056 0.91728 0.65174 0.0
H60 H 0.11389 0.89417 0.64416 0.0
H61 H 0.09063 0.83667 0.5931 0.0
H62 H 0.17058 0.91145 0.60082 0.0
H63 H 0.06126 0.80623 0.61198 0.0
C64 C 0.05489 0.81789 0.6213 0.0
C65 C 0.11884 0.8881 0.63052 0.0
C66 C 0.14458 0.90525 0.6238 0.0
C67 C 0.09943 0.86302 0.61979 0.0
C68 C 0.10571 0.85556 0.60183 0.0
C69 C 0.13148 0.87283 0.5949 0.0
C70 C 0.15086 0.89758 0.60611 0.0
N71 N 0.07354 0.84643 0.62723 0.0
H72 H 0.91852 0.45389 0.70986 0.0
H73 H 0.94655 0.51253 0.76068 0.0
H74 H 0.93934 0.43282 0.76464 0.0
H75 H 0.95882 0.54376 0.73755 0.0
C76 C 0.94024 0.53252 0.72726 0.0
C77 C 0.92621 0.45954 0.72513 0.0
C78 C 0.92806 0.44026 0.7363 0.0
C79 C 0.9333 0.48581 0.73368 0.0
C80 C 0.94225 0.4928 0.7537 0.0
C81 C 0.94421 0.47364 0.76504 0.0
C82 C 0.93738 0.44758 0.75612 0.0
N83 N 0.92883 0.50372 0.72212 0.0
H84 H 0.57476 0.45946 0.71571 0.0
H85 H 0.51899 0.4394 0.76007 0.0
H86 H 0.59706 0.51607 0.76712 0.0
H87 H 0.48672 0.41925 0.73186 0.0
C88 C 0.49612 0.40788 0.72577 0.0
C89 C 0.5699 0.46484 0.72961 0.0
C90 C 0.58881 0.49003 0.74055 0.0
C91 C 0.54426 0.44696 0.73623 0.0
C92 C 0.53812 0.45379 0.75438 0.0
C93 C 0.55718 0.47853 0.76571 0.0
C94 C 0.58235 0.49675 0.75857 0.0
N95 N 0.52541 0.4217 0.72483 0.0
H96 H 0.55709 0.12914 0.73707 0.0
H97 H 0.5845 0.09921 0.78476 0.0
H98 H 0.50167 0.0873 0.77976 0.0
H99 H 0.6107 0.09491 0.76249 0.0
C100 C 0.6175 0.11325 0.75481 0.0
C101 C 0.55297 0.11866 0.75017 0.0
C102 C 0.52679 0.10847 0.75721 0.0
C103 C 0.57362 0.1146 0.75958 0.0
C104 C 0.56844 0.10152 0.77685 0.0
C105 C 0.54244 0.09147 0.78412 0.0
C106 C 0.52164 0.09466 0.77405 0.0
N107 N 0.59937 0.12411 0.75144 0.0
H108 H 0.75819 0.53364 0.97127 0.0
H109 H 0.80955 0.56231 0.92451 0.0
H110 H 0.73997 0.57578 0.92754 0.0
H111 H 0.81118 0.52139 0.92988 0.0
C112 C 0.81677 0.52631 0.94548 0.0
C113 C 0.76289 0.54387 0.95806 0.0
C114 C 0.74644 0.55456 0.95057 0.0
C115 C 0.78533 0.54615 0.94856 0.0
C116 C 0.79162 0.55962 0.93153 0.0
C117 C 0.77548 0.57055 0.92388 0.0
C118 C 0.75297 0.56801 0.93356 0.0
N119 N 0.80191 0.53563 0.95671 0.0
H120 H 0.42576 0.20538 1.00252 0.0
H121 H 0.39415 0.22877 0.95321 0.0
H122 H 0.40073 0.15538 0.9476 0.0
H123 H 0.38112 0.24885 0.97833 0.0
C124 C 0.40135 0.25886 0.98691 0.0
C125 C 0.41715 0.20122 0.98744 0.0
C126 C 0.41369 0.17791 0.97609 0.0
C127 C 0.40941 0.2192 0.97948 0.0
C128 C 0.39881 0.21421 0.9598 0.0
C129 C 0.39585 0.19133 0.94819 0.0
C130 C 0.40296 0.17308 0.95651 0.0
N131 N 0.41459 0.24331 0.99112 0.0
H132 H 0.7861 0.2359 0.97458 0.0
H133 H 0.75161 0.17186 0.92678 0.0
H134 H 0.83046 0.24553 0.92428 0.0
H135 H 0.73639 0.14557 0.95474 0.0
C136 C 0.72748 0.15741 0.96087 0.0
C137 C 0.78763 0.22814 0.9603 0.0
C138 C 0.81118 0.24375 0.95057 0.0
C139 C 0.76643 0.20196 0.95205 0.0
C140 C 0.76832 0.19166 0.93355 0.0
C141 C 0.79121 0.20756 0.92336 0.0
C142 C 0.81261 0.23338 0.93205 0.0
N143 N 0.74297 0.1868 0.96233 0.0
H144 H 0.56618 0.77485 0.04894 0.0
H145 H 0.59528 0.82964 0.10176 0.0
H146 H 0.60896 0.76025 0.09657 0.0
H147 H 0.55287 0.82831 0.09244 0.0
C148 C 0.55607 0.83222 0.07737 0.0
C149 C 0.57716 0.78105 0.06344 0.0
C150 C 0.58807 0.76552 0.07139 0.0
C151 C 0.57923 0.80385 0.07443 0.0
C152 C 0.593 0.81156 0.09338 0.0
C153 C 0.60402 0.79608 0.10152 0.0
C154 C 0.60159 0.77311 0.09031 0.0
N155 N 0.56705 0.81853 0.0662 0.0
H156 H 0.24787 0.79577 0.05603 0.0
H157 H 0.19202 0.77571 0.10015 0.0
H158 H 0.26633 0.85568 0.10483 0.0
H159 H 0.1606 0.75498 0.06861 0.0
C160 C 0.17068 0.74285 0.06586 0.0
C161 C 0.24263 0.80173 0.06958 0.0
C162 C 0.26016 0.82824 0.07946 0.0
C163 C 0.21769 0.78313 0.07671 0.0
C164 C 0.21068 0.79063 0.09422 0.0
C165 C 0.22819 0.81669 0.10456 0.0
C166 C 0.25278 0.83545 0.09698 0.0
N167 N 0.20021 0.75655 0.0665 0.0
H168 H 0.23198 0.46185 0.06935 0.0
H169 H 0.25785 0.43173 0.11765 0.0
H170 H 0.17552 0.42081 0.11174 0.0
H171 H 0.28657 0.42975 0.0971 0.0
C172 C 0.29278 0.44752 0.08888 0.0
C173 C 0.22743 0.4515 0.0825 0.0
C174 C 0.20109 0.44163 0.08923 0.0
C175 C 0.24782 0.44745 0.09231 0.0
C176 C 0.2421 0.43424 0.10951 0.0
C177 C 0.21589 0.42426 0.1164 0.0
C178 C 0.19551 0.4279 0.10614 0.0
N179 N 0.27389 0.45723 0.0846 0.0
H180 H 0.42744 0.8727 0.30674 0.0
H181 H 0.47785 0.89892 0.25939 0.0
H182 H 0.40784 0.91179 0.2613 0.0
H183 H 0.47808 0.85734 0.26511 0.0
C184 C 0.48423 0.86265 0.28065 0.0
C185 C 0.43168 0.88207 0.2932 0.0
C186 C 0.41489 0.8922 0.28528 0.0
C187 C 0.45389 0.88373 0.28365 0.0
C188 C 0.45994 0.89646 0.26633 0.0
C189 C 0.44365 0.90696 0.25826 0.0
C190 C 0.42107 0.90458 0.26779 0.0
N191 N 0.47041 0.8732 0.29196 0.0
H192 H 0.10825 0.5445 0.32763 0.0
H193 H 0.06953 0.56412 0.28032 0.0
H194 H 0.0626 0.48375 0.27887 0.0
H195 H 0.06156 0.58648 0.31013 0.0
C196 C 0.08399 0.59792 0.31413 0.0
C197 C 0.09557 0.53832 0.31376 0.0
C198 C 0.08574 0.51184 0.30429 0.0
C199 C 0.08865 0.5567 0.30555 0.0
C200 C 0.07317 0.54911 0.28721 0.0
C201 C 0.06412 0.52301 0.27721 0.0
C202 C 0.06978 0.50415 0.28621 0.0
N203 N 0.09892 0.58342 0.31532 0.0
H204 H 0.45037 0.56255 0.30887 0.0
H205 H 0.41341 0.50646 0.25679 0.0
H206 H 0.49597 0.57693 0.25882 0.0
H207 H 0.37477 0.51485 0.27024 0.0
C208 C 0.37751 0.50681 0.28362 0.0
C209 C 0.45178 0.55658 0.29403 0.0
C210 C 0.47595 0.57275 0.28504 0.0
C211 C 0.42908 0.53298 0.28381 0.0
C212 C 0.43081 0.52493 0.26462 0.0
C213 C 0.455 0.54066 0.25557 0.0
C214 C 0.47738 0.56457 0.26585 0.0
N215 N 0.40475 0.51738 0.29313 0.0
Tb216 Tb 0.48042 0.99394 1.00053 0.0
Eu217 Eu 0.50277 0.02213 0.04599 0.0
C218 C 0.50661 0.97005 0.02922 0.0
C219 C 0.44208 0.96987 0.0341 0.0
C220 C 0.47486 0.98692 0.94675 0.0
C221 C 0.51137 0.01034 0.92564 0.0
C222 C 0.50302 -0.00084 0.94317 0.0
C223 C 0.45533 0.98628 0.93253 0.0
C224 C 0.46374 0.99772 0.91509 0.0
C225 C 0.49183 0.0098 0.91145 0.0
C226 C 0.4656 0.97522 0.96525 0.0
O227 O 0.48454 0.03473 1.00153 0.0
O228 O 0.47664 0.03879 0.03312 0.0
O229 O 0.53489 0.05196 0.02819 0.0
O230 O 0.52532 0.02104 1.00142 0.0
C231 C 0.47679 0.04559 0.01535 0.0
O232 O 0.49628 0.04 0.07252 0.0
O233 O 0.53258 0.03525 0.07191 0.0
O234 O 0.52021 0.99433 0.03938 0.0
O235 O 0.48576 0.96387 0.01608 0.0
O236 O 0.44347 0.97688 0.01623 0.0
O237 O 0.46426 0.98089 0.04682 0.0
C238 C 0.54163 0.04491 1.01186 0.0
O239 O 0.48317 0.97156 0.97632 0.0
O240 O 0.45332 0.98571 0.97526 0.0
C241 C 0.51067 0.02725 0.10068 0.0
C242 C 0.49602 0.00123 0.1351 0.0
C243 C 0.51427 0.03001 0.13588 0.0
C244 C 0.52147 0.04291 0.11878 0.0
C245 C 0.49274 -0.00147 0.09981 0.0
C246 C 0.48543 0.98563 0.11687 0.0
C247 C 0.5173 0.04088 0.08272 0.0
H248 H 0.5332 0.01979 0.9233 0.0
H249 H 0.51865 0.00023 0.95392 0.0
H250 H 0.43354 0.97699 0.93497 0.0
H251 H 0.44822 0.99686 0.90433 0.0
H252 H 0.52254 0.04261 0.1497 0.0
H253 H 0.53524 0.06513 0.11968 0.0
H254 H 0.48426 0.98611 0.08593 0.0
H255 H 0.47164 0.9634 0.11578 0.0
Tb256 Tb 0.02108 0.48972 0.99838 0.0
Eu257 Eu 0.99451 0.47804 0.04029 0.0
C258 C 0.04472 0.5373 0.03244 0.0
C259 C 0.04878 0.47464 0.03327 0.0
C260 C 0.02986 0.49788 0.94564 0.0
C261 C 0.01791 0.51958 0.92013 0.0
C262 C 0.02696 0.51997 0.93947 0.0
C263 C 0.0236 0.47547 0.93205 0.0
C264 C 0.01447 0.47504 0.91274 0.0
C265 C 0.01167 0.49716 0.90653 0.0
C266 C 0.04037 0.4985 0.96591 0.0
O267 O 0.98097 0.45168 0.99259 0.0
O268 O 0.97899 0.43705 0.02283 0.0
O269 O 0.96246 0.47817 0.01891 0.0
O270 O 0.99224 0.50564 0.99792 0.0
C271 C 0.97078 0.43193 1.00417 0.0
O272 O 0.98209 0.45275 0.06452 0.0
O273 O 0.97355 0.48657 0.06296 0.0
O274 O 0.02187 0.52431 0.04106 0.0
O275 O 0.05067 0.52472 0.01858 0.0
O276 O 0.04062 0.47022 0.01453 0.0
O277 O 0.03723 0.48332 0.0457 0.0
C278 C 0.96796 0.49445 1.00495 0.0
O279 O 0.04221 0.5178 0.9784 0.0
O280 O 0.03063 0.4748 0.9732 0.0
C281 C 0.98127 0.47481 0.0944 0.0
C282 C 0.99499 0.48687 0.13499 0.0
C283 C 0.98576 0.46011 0.12607 0.0
C284 C 0.97884 0.45414 0.10603 0.0
C285 C 0.9906 0.50164 0.10321 0.0
C286 C 0.99737 0.5076 0.12333 0.0
C287 C 0.97303 0.46754 0.07332 0.0
H288 H 0.01631 0.53709 0.91576 0.0
H289 H 0.03191 0.53773 0.94952 0.0
H290 H 0.02585 0.45827 0.93633 0.0
H291 H 0.00947 0.45728 0.90268 0.0
H292 H 0.98415 0.44379 0.13456 0.0
H293 H 0.97155 0.43326 0.09959 0.0
H294 H 0.99253 0.518 0.09464 0.0
H295 H 0.00415 0.52835 0.12976 0.0
Tb296 Tb 0.53421 0.52173 0.03828 0.0
Eu297 Eu 0.50931 0.52013 0.99336 0.0
C298 C 0.50101 0.46666 1.01126 0.0
C299 C 0.57066 0.52804 1.00355 0.0
C300 C 0.53545 0.5169 0.09103 0.0
C301 C 0.5309 0.50281 0.12369 0.0
C302 C 0.54361 0.50647 0.10647 0.0
C303 C 0.51385 0.52283 0.09278 0.0
C304 C 0.50126 0.51936 0.10996 0.0
C305 C 0.5099 0.50968 0.12576 0.0
C306 C 0.54987 0.52221 0.07335 0.0
O307 O 0.55556 0.56364 0.03003 0.0
O308 O 0.51996 0.5605 1.00967 0.0
O309 O 0.47282 0.50479 1.01109 0.0
O310 O 0.49702 0.52496 0.04108 0.0
C311 C 0.54274 0.57523 0.02155 0.0
O312 O 0.50894 0.54192 0.96844 0.0
O313 O 0.48067 0.49762 0.96725 0.0
O314 O 0.5099 0.48066 0.99625 0.0
O315 O 0.50245 0.47933 0.02816 0.0
O316 O 0.56432 0.51937 0.02077 0.0
O317 O 0.55453 0.53343 0.99208 0.0
C318 C 0.47359 0.51253 0.02947 0.0
O319 O 0.54138 0.50101 0.06047 0.0
O320 O 0.55339 0.54411 0.06535 0.0
C321 C 0.49869 0.51548 0.93797 0.0
C322 C 0.51185 0.50809 0.90032 0.0
C323 C 0.53166 0.52992 0.91371 0.0
C324 C 0.52521 0.53353 0.93239 0.0
C325 C 0.4789 0.49366 0.92459 0.0
C326 C 0.48546 0.48989 0.90596 0.0
C327 C 0.49123 0.51929 0.95751 0.0
H328 H 0.53775 0.4949 0.13545 0.0
H329 H 0.56008 0.50155 0.10532 0.0
H330 H 0.50719 0.53086 0.08101 0.0
H331 H 0.48547 0.52523 0.11108 0.0
H332 H 0.55226 0.54405 0.90978 0.0
H333 H 0.54101 0.55047 0.94241 0.0
H334 H 0.45831 0.47955 0.92854 0.0
H335 H 0.46975 0.47301 0.89585 0.0
Tb336 Tb 0.14256 0.32056 0.32898 0.0
Eu337 Eu 0.16427 0.34885 0.37468 0.0
C338 C 0.17242 0.3003 0.35785 0.0
C339 C 0.10339 0.2962 0.36195 0.0
C340 C 0.1386 0.3124 0.27535 0.0
C341 C 0.17663 0.3355 0.25533 0.0
C342 C 0.16693 0.32375 0.27247 0.0
C343 C 0.1202 0.31291 0.26075 0.0
C344 C 0.12995 0.32489 0.2437 0.0
C345 C 0.15827 0.33639 0.24085 0.0
C346 C 0.12809 0.30113 0.29372 0.0
O347 O 0.12587 0.3481 0.33425 0.0
O348 O 0.15732 0.3791 0.35901 0.0
O349 O 0.20191 0.36965 0.35809 0.0
O350 O 0.18034 0.35932 0.3267 0.0
C351 C 0.13795 0.37234 0.3446 0.0
O352 O 0.15958 0.36879 0.40096 0.0
O353 O 0.19267 0.3588 0.40092 0.0
O354 O 0.16271 0.30797 0.37216 0.0
O355 O 0.17228 0.30905 0.34072 0.0
O356 O 0.11189 0.29063 0.34593 0.0
O357 O 0.11807 0.31982 0.37288 0.0
C358 C 0.20245 0.37301 0.33946 0.0
O359 O 0.14432 0.29645 0.30534 0.0
O360 O 0.11665 0.31296 0.30318 0.0
C361 C 0.16995 0.35301 0.42917 0.0
C362 C 0.15215 0.32654 0.4631 0.0
C363 C 0.17045 0.35535 0.46422 0.0
C364 C 0.17926 0.36847 0.44738 0.0
C365 C 0.15166 0.32432 0.42792 0.0
C366 C 0.14285 0.31118 0.44473 0.0
C367 C 0.17876 0.36678 0.41145 0.0
H368 H 0.1986 0.34444 0.25357 0.0
H369 H 0.18168 0.32387 0.28354 0.0
H370 H 0.09831 0.30433 0.26266 0.0
H371 H 0.11531 0.32508 0.23269 0.0
H372 H 0.17769 0.36783 0.47811 0.0
H373 H 0.19323 0.39067 0.44855 0.0
H374 H 0.14422 0.31209 0.41392 0.0
H375 H 0.12904 0.28895 0.44334 0.0
Tb376 Tb 0.6843 0.81798 0.33402 0.0
Eu377 Eu 0.65667 0.80849 0.37533 0.0
C378 C 0.70901 0.8659 0.36764 0.0
C379 C 0.71042 0.8032 0.36999 0.0
C380 C 0.69464 0.82326 0.28167 0.0
C381 C 0.70415 0.83444 0.24874 0.0
C382 C 0.71366 0.83618 0.26818 0.0
C383 C 0.66593 0.80863 0.27561 0.0
C384 C 0.6564 0.80676 0.25614 0.0
C385 C 0.67543 0.81967 0.24252 0.0
C386 C 0.70501 0.82567 0.30204 0.0
O387 O 0.64435 0.7798 0.32829 0.0
O388 O 0.64063 0.76657 0.35907 0.0
O389 O 0.62515 0.80778 0.35308 0.0
O390 O 0.65602 0.83469 0.33248 0.0
C391 C 0.63355 0.76064 0.34027 0.0
O392 O 0.64255 0.78468 0.40011 0.0
O393 O 0.63723 0.82031 0.39748 0.0
O394 O 0.68487 0.85448 0.3748 0.0
O395 O 0.71467 0.85212 0.35451 0.0
O396 O 0.70274 0.79834 0.35118 0.0
O397 O 0.69865 0.81235 0.38189 0.0
C398 C 0.63136 0.82384 0.33897 0.0
O399 O 0.705 0.84509 0.31334 0.0
O400 O 0.69556 0.80255 0.31008 0.0
C401 C 0.64629 0.81091 0.42888 0.0
C402 C 0.66686 0.82678 0.46835 0.0
C403 C 0.63796 0.81266 0.46265 0.0
C404 C 0.62778 0.80477 0.44305 0.0
C405 C 0.67513 0.82548 0.43439 0.0
C406 C 0.68535 0.83334 0.45399 0.0
C407 C 0.63538 0.80139 0.40846 0.0
H408 H 0.71928 0.84435 0.23852 0.0
H409 H 0.73589 0.8476 0.27268 0.0
H410 H 0.65096 0.79875 0.28593 0.0
H411 H 0.63414 0.7955 0.25178 0.0
H412 H 0.62323 0.80765 0.47336 0.0
H413 H 0.60545 0.79361 0.43896 0.0
H414 H 0.68969 0.83034 0.42355 0.0
H415 H 0.70769 0.8439 0.45793 0.0
Tb416 Tb 0.20259 0.8557 0.37377 0.0
Eu417 Eu 0.17968 0.86176 0.33007 0.0
C418 C 0.17301 0.80441 0.3422 0.0
C419 C 0.23919 0.86674 0.33872 0.0
C420 C 0.20989 0.85394 0.42674 0.0
C421 C 0.20717 0.84347 0.46026 0.0
C422 C 0.21707 0.84298 0.4423 0.0
C423 C 0.19273 0.86547 0.42928 0.0
C424 C 0.18294 0.8661 0.44725 0.0
C425 C 0.18996 0.85498 0.4629 0.0
C426 C 0.21883 0.85166 0.40762 0.0
O427 O 0.19963 0.89306 0.37639 0.0
O428 O 0.20816 0.90412 0.34552 0.0
O429 O 0.1481 0.86003 0.34959 0.0
O430 O 0.15818 0.83998 0.37473 0.0
C431 C 0.20787 0.91136 0.36373 0.0
O432 O 0.18634 0.8876 0.30637 0.0
O433 O 0.14944 0.84704 0.30426 0.0
O434 O 0.16178 0.81625 0.33212 0.0
O435 O 0.19336 0.81819 0.35619 0.0
O436 O 0.23872 0.87315 0.3572 0.0
O437 O 0.21677 0.85662 0.32628 0.0
C438 C 0.14175 0.84722 0.36542 0.0
O439 O 0.20036 0.83065 0.39578 0.0
O440 O 0.23062 0.87434 0.39904 0.0
C441 C 0.1698 0.86314 0.27502 0.0
C442 C 0.18025 0.85348 0.23684 0.0
C443 C 0.19634 0.87971 0.24735 0.0
C444 C 0.19108 0.88451 0.26617 0.0
C445 C 0.15342 0.837 0.26444 0.0
C446 C 0.15862 0.83222 0.24556 0.0
C447 C 0.16485 0.86843 0.29512 0.0
H448 H 0.21312 0.835 0.47212 0.0
H449 H 0.2301 0.8338 0.44051 0.0
H450 H 0.18666 0.87367 0.41729 0.0
H451 H 0.16946 0.87481 0.44881 0.0
H452 H 0.21335 0.89646 0.24116 0.0
H453 H 0.2039 0.90497 0.27385 0.0
H454 H 0.13661 0.82018 0.27073 0.0
H455 H 0.14556 0.8119 0.23774 0.0
Tb456 Tb 0.81115 0.65809 0.66508 0.0
Eu457 Eu 0.8333 0.68368 0.71093 0.0
C458 C 0.84027 0.63528 0.69263 0.0
C459 C 0.77232 0.63021 0.69771 0.0
C460 C 0.81013 0.65333 0.61161 0.0
C461 C 0.81465 0.64693 0.57739 0.0
C462 C 0.80319 0.63595 0.59437 0.0
C463 C 0.82915 0.68175 0.61181 0.0
C464 C 0.84061 0.69276 0.59488 0.0
C465 C 0.83327 0.67553 0.57739 0.0
C466 C 0.79724 0.64183 0.62924 0.0
O467 O 0.79064 0.68092 0.67399 0.0
O468 O 0.82589 0.71391 0.69543 0.0
O469 O 0.871 0.70186 0.69427 0.0
O470 O 0.84848 0.69799 0.66436 0.0
C471 C 0.80379 0.70596 0.68314 0.0
O472 O 0.82944 0.70389 0.7374 0.0
O473 O 0.86228 0.69359 0.73682 0.0
O474 O 0.83109 0.64262 0.70744 0.0
O475 O 0.84019 0.64497 0.67581 0.0
O476 O 0.78 0.62652 0.68075 0.0
O477 O 0.78756 0.65253 0.70991 0.0
C478 C 0.87142 0.70833 0.67632 0.0
O479 O 0.81062 0.6336 0.64064 0.0
O480 O 0.78855 0.6561 0.63902 0.0
C481 C 0.84113 0.68912 0.76569 0.0
C482 C 0.8258 0.6643 0.80047 0.0
C483 C 0.84555 0.69267 0.80089 0.0
C484 C 0.85312 0.70497 0.78362 0.0
C485 C 0.82141 0.66086 0.76514 0.0
C486 C 0.8138 0.64855 0.78238 0.0
C487 C 0.84898 0.70207 0.74758 0.0
H488 H 0.80887 0.63303 0.56425 0.0
H489 H 0.78868 0.61394 0.59399 0.0
H490 H 0.83473 0.69552 0.62498 0.0
H491 H 0.85457 0.71489 0.59537 0.0
H492 H 0.85491 0.70543 0.81458 0.0
H493 H 0.86829 0.72685 0.78425 0.0
H494 H 0.81199 0.64833 0.75136 0.0
H495 H 0.79881 0.6266 0.78154 0.0
Tb496 Tb 0.34097 0.14873 0.66596 0.0
Eu497 Eu 0.32095 0.1485 0.70973 0.0
C498 C 0.36831 0.2023 0.69475 0.0
C499 C 0.37188 0.13799 0.70179 0.0
C500 C 0.35012 0.15814 0.6136 0.0
C501 C 0.36473 0.17265 0.58204 0.0
C502 C 0.37046 0.16694 0.60058 0.0
C503 C 0.3244 0.15633 0.60823 0.0
C504 C 0.31855 0.16176 0.58963 0.0
C505 C 0.33845 0.16938 0.57623 0.0
C506 C 0.35538 0.1492 0.63214 0.0
O507 O 0.31825 0.10607 0.67274 0.0
O508 O 0.28813 0.11022 0.69153 0.0
O509 O 0.3007 0.16703 0.69154 0.0
O510 O 0.30235 0.14987 0.66105 0.0
C511 C 0.29405 0.0952 0.67974 0.0
O512 O 0.30184 0.12633 0.73432 0.0
O513 O 0.31424 0.16982 0.73433 0.0
O514 O 0.36235 0.18703 0.70931 0.0
O515 O 0.35577 0.19141 0.67721 0.0
O516 O 0.37316 0.14734 0.68467 0.0
O517 O 0.35171 0.13344 0.71263 0.0
C518 C 0.29259 0.16152 0.67283 0.0
O519 O 0.37029 0.16864 0.64615 0.0
O520 O 0.33394 0.12832 0.6382 0.0
C521 C 0.31628 0.15362 0.76486 0.0
C522 C 0.3353 0.16289 0.80468 0.0
C523 C 0.3353 0.14165 0.79283 0.0
C524 C 0.32597 0.1371 0.77307 0.0
C525 C 0.31649 0.17496 0.77668 0.0
C526 C 0.32604 0.17966 0.79639 0.0
C527 C 0.30493 0.14839 0.74429 0.0
H528 H 0.38033 0.17826 0.57192 0.0
H529 H 0.39043 0.1685 0.60452 0.0
H530 H 0.3085 0.14983 0.61816 0.0
H531 H 0.29823 0.15933 0.58553 0.0
H532 H 0.3426 0.12862 0.79885 0.0
H533 H 0.32613 0.12052 0.76432 0.0
H534 H 0.30894 0.18783 0.7707 0.0
H535 H 0.32558 0.19599 0.80525 0.0
Tb536 Tb 0.86101 0.18932 0.7044 0.0
Eu537 Eu 0.83599 0.19013 0.66024 0.0
C538 C 0.83017 0.13568 0.67578 0.0
C539 C 0.89724 0.19766 0.66955 0.0
C540 C 0.86471 0.18284 0.75708 0.0
C541 C 0.86372 0.16967 0.78989 0.0
C542 C 0.87546 0.1742 0.77226 0.0
C543 C 0.8415 0.18601 0.75946 0.0
C544 C 0.82986 0.18167 0.77707 0.0
C545 C 0.8411 0.17387 0.79263 0.0
C546 C 0.87817 0.18924 0.73902 0.0
O547 O 0.88149 0.23174 0.69674 0.0
O548 O 0.84421 0.22821 0.67851 0.0
O549 O 0.79904 0.17248 0.67759 0.0
O550 O 0.82249 0.18964 0.70817 0.0
C551 C 0.86764 0.24323 0.68965 0.0
O552 O 0.83749 0.21394 0.63609 0.0
O553 O 0.8072 0.17008 0.63394 0.0
O554 O 0.83698 0.15061 0.66104 0.0
O555 O 0.83132 0.14669 0.69328 0.0
O556 O 0.8902 0.18683 0.68604 0.0
O557 O 0.88185 0.2052 0.65925 0.0
C558 C 0.79931 0.17812 0.69629 0.0
O559 O 0.86976 0.16852 0.72575 0.0
O560 O 0.88039 0.21108 0.73164 0.0
C561 C 0.82734 0.18868 0.60571 0.0
C562 C 0.84447 0.18307 0.56922 0.0
C563 C 0.82372 0.19036 0.57084 0.0
C564 C 0.81522 0.19313 0.58897 0.0
C565 C 0.8481 0.18151 0.60422 0.0
C566 C 0.85658 0.1787 0.58612 0.0
C567 C 0.81891 0.19223 0.62476 0.0
H568 H 0.87261 0.16326 0.80146 0.0
H569 H 0.89321 0.1714 0.7706 0.0
H570 H 0.83284 0.19259 0.74788 0.0
H571 H 0.81273 0.18548 0.77869 0.0
H572 H 0.81381 0.19357 0.55806 0.0
H573 H 0.79922 0.19876 0.58993 0.0
H574 H 0.85782 0.17823 0.61707 0.0
H575 H 0.87285 0.17341 0.58537 0.0
C576 C 0.30399 0.8401 0.06407 0.0
C577 C 0.28617 0.84848 0.07159 0.0
C578 C 0.32908 0.85929 0.05726 0.0
C579 C 0.33652 0.88754 0.058 0.0
C580 C 0.3184 0.89604 0.06528 0.0
C581 C 0.29345 0.87642 0.07195 0.0
C582 C 0.34787 0.84945 0.0496 0.0
C583 C 0.32555 0.92595 0.06626 0.0
C584 C 0.41305 0.94201 0.05934 0.0
C585 C 0.415 0.94873 0.04008 0.0
C586 C 0.38769 0.92206 0.06532 0.0
C587 C 0.36363 0.90838 0.05171 0.0
C588 C 0.36542 0.91495 0.03224 0.0
C589 C 0.39108 0.93508 0.02666 0.0
C590 C 0.38663 0.91573 0.08624 0.0
C591 C 0.34021 0.90076 0.01732 0.0
H592 H 0.29863 0.8186 0.06392 0.0
H593 H 0.27955 0.88297 0.07743 0.0
H594 H 0.35232 0.85538 0.03469 0.0
H595 H 0.36814 0.85961 0.05883 0.0
H596 H 0.33857 0.82664 0.0493 0.0
H597 H 0.30892 0.92907 0.0719 0.0
H598 H 0.34526 0.93908 0.07582 0.0
H599 H 0.329 0.93333 0.05163 0.0
H600 H 0.43136 0.95241 0.06986 0.0
H601 H 0.39236 0.94005 1.01175 0.0
H602 H 0.37935 0.89341 0.08697 0.0
H603 H 0.37144 0.9201 0.09298 0.0
H604 H 0.40726 0.92807 0.09497 0.0
H605 H 0.33161 0.87802 0.01619 0.0
H606 H 0.34515 0.90796 1.00272 0.0
H607 H 0.32361 0.9047 0.02192 0.0
C608 C 0.1863 0.4718 0.07266 0.0
C609 C 0.1794 0.44594 0.07896 0.0
C610 C 0.16561 0.47665 0.06425 0.0
C611 C 0.13737 0.45513 0.06206 0.0
C612 C 0.1304 0.42876 0.06786 0.0
C613 C 0.15149 0.42449 0.07622 0.0
C614 C 0.17386 0.50505 0.05824 0.0
C615 C 0.10057 0.40523 0.06567 0.0
C616 C 0.08055 0.47433 0.06047 0.0
C617 C 0.07153 0.46972 0.04054 0.0
C618 C 0.10207 0.46984 0.06761 0.0
C619 C 0.11493 0.46049 0.05454 0.0
C620 C 0.10604 0.45587 0.03441 0.0
C621 C 0.08445 0.46054 0.02765 0.0
C622 C 0.11095 0.47499 0.08918 0.0
C623 C 0.11925 0.44589 0.02004 0.0
H624 H 0.20779 0.48852 0.07489 0.0
H625 H 0.14609 0.40434 0.08078 0.0
H626 H 0.16578 0.50341 0.04289 0.0
H627 H 0.16441 0.51461 0.06722 0.0
H628 H 0.19684 0.51905 0.05988 0.0
H629 H 0.0988 0.38566 0.07008 0.0
H630 H 0.08792 0.41077 0.0747 0.0
H631 H 0.09138 0.40155 0.05037 0.0
H632 H 0.07078 0.48146 0.07057 0.0
H633 H 0.0777 0.45694 0.01223 0.0
H634 H 0.1335 0.49049 0.09206 0.0
H635 H 0.10786 0.45558 0.09485 0.0
H636 H 0.09908 0.48257 0.09738 0.0
H637 H 0.14202 0.46061 0.02107 0.0
H638 H 0.11019 0.44361 1.00484 0.0
H639 H 0.11644 0.42558 0.02352 0.0
C640 C 0.55605 0.71602 0.06051 0.0
C641 C 0.5825 0.7394 0.06096 0.0
C642 C 0.55085 0.6901 0.05257 0.0
C643 C 0.57257 0.6878 0.04462 0.0
C644 C 0.59907 0.71171 0.04434 0.0
C645 C 0.60386 0.7373 0.05281 0.0
C646 C 0.52248 0.66502 0.05348 0.0
C647 C 0.6225 0.7101 0.03559 0.0
C648 C 0.56647 0.61733 0.04516 0.0
C649 C 0.55294 0.60486 0.02661 0.0
C650 C 0.57368 0.64467 0.05103 0.0
C651 C 0.56788 0.66003 0.03783 0.0
C652 C 0.55556 0.64798 0.01873 0.0
C653 C 0.5478 0.6203 0.01343 0.0
C654 C 0.58619 0.65658 0.07168 0.0
C655 C 0.54982 0.66404 1.00411 0.0
H656 H 0.53974 0.7179 0.06703 0.0
H657 H 0.62431 0.7556 0.05331 0.0
H658 H 0.51337 0.65411 0.03875 0.0
H659 H 0.52458 0.65025 0.06253 0.0
H660 H 0.5077 0.67052 0.05971 0.0
H661 H 0.6408 0.73094 0.03473 0.0
H662 H 0.62931 0.69822 0.0445 0.0
H663 H 0.6152 0.69894 0.02078 0.0
H664 H 0.57026 0.60531 0.05541 0.0
H665 H 0.53756 0.61068 0.99902 0.0
H666 H 0.5717 0.66102 0.07938 0.0
H667 H 0.606 0.67646 0.07183 0.0
H668 H 0.59039 0.64228 0.07987 0.0
H669 H 0.5331 0.66789 1.00857 0.0
H670 H 0.54316 0.6528 0.9893 0.0
H671 H 0.56871 0.68452 1.00355 0.0
C672 C 0.82938 0.29076 0.96842 0.0
C673 C 0.83454 0.2708 0.95957 0.0
C674 C 0.8515 0.31694 0.976 0.0
C675 C 0.87936 0.32317 0.97478 0.0
C676 C 0.88467 0.30289 0.96621 0.0
C677 C 0.8622 0.27697 0.95871 0.0
C678 C 0.84506 0.33809 0.98503 0.0
C679 C 0.91408 0.30865 0.96477 0.0
C680 C 0.9364 0.39856 0.97705 0.0
C681 C 0.9481 0.40385 0.99642 0.0
C682 C 0.91397 0.37241 0.96983 0.0
C683 C 0.90304 0.35101 0.98226 0.0
C684 C 0.91492 0.3561 1.00176 0.0
C685 C 0.93728 0.38245 1.00861 0.0
C686 C 0.90184 0.36772 0.94893 0.0
C687 C 0.90392 0.33375 0.01541 0.0
H688 H 0.80804 0.28615 0.96896 0.0
H689 H 0.86627 0.26143 0.95215 0.0
H690 H 0.85525 0.34511 1.00014 0.0
H691 H 0.85363 0.35657 0.97681 0.0
H692 H 0.8223 0.32979 0.98523 0.0
H693 H 0.91462 0.29045 0.95799 0.0
H694 H 0.92514 0.32629 0.95603 0.0
H695 H 0.9258 0.31468 0.97943 0.0
H696 H 0.94453 0.41496 0.96753 0.0
H697 H 0.94616 0.3863 0.0236 0.0
H698 H 0.87941 0.36137 0.94827 0.0
H699 H 0.90324 0.35064 0.94113 0.0
H700 H 0.9127 0.38653 0.94117 0.0
H701 H 0.88158 0.32645 0.01675 0.0
H702 H 0.91557 0.34103 0.03013 0.0
H703 H 0.90531 0.31566 1.00949 0.0
C704 C 0.70149 0.52456 0.96412 0.0
C705 C 0.72185 0.55094 0.96008 0.0
C706 C 0.67713 0.52048 0.97187 0.0
C707 C 0.67332 0.54344 0.976 0.0
C708 C 0.69426 0.57027 0.9725 0.0
C709 C 0.71816 0.57365 0.96439 0.0
C710 C 0.65508 0.49151 0.97508 0.0
C711 C 0.69122 0.59533 0.97704 0.0
C712 C 0.59975 0.53134 0.97668 0.0
C713 C 0.59685 0.53167 0.99662 0.0
C714 C 0.62439 0.5348 0.9698 0.0
C715 C 0.64692 0.53924 0.98319 0.0
C716 C 0.6442 0.53977 1.00335 0.0
C717 C 0.61907 0.53569 1.00982 0.0
C718 C 0.62627 0.53361 0.94817 0.0
C719 C 0.66794 0.54496 0.01807 0.0
H720 H 0.70423 0.50696 0.96061 0.0
H721 H 0.73403 0.59408 0.96139 0.0
H722 H 0.65029 0.4907 0.99039 0.0
H723 H 0.6355 0.48552 0.96583 0.0
H724 H 0.66158 0.47601 0.97164 0.0
H725 H 0.71016 0.61493 0.97463 0.0
H726 H 0.67319 0.59341 0.96776 0.0
H727 H 0.68698 0.59661 0.99237 0.0
H728 H 0.58258 0.52802 0.96639 0.0
H729 H 0.61703 0.53616 0.02525 0.0
H730 H 0.63112 0.51725 0.94359 0.0
H731 H 0.64348 0.55356 0.94446 0.0
H732 H 0.60662 0.52927 0.93968 0.0
H733 H 0.67379 0.52881 0.01548 0.0
H734 H 0.66259 0.54502 0.03323 0.0
H735 H 0.68658 0.56521 0.01646 0.0
C736 C 0.4045 0.13034 0.98101 0.0
C737 C 0.42228 0.15907 0.98426 0.0
C738 C 0.41319 0.11211 0.98719 0.0
C739 C 0.4404 0.12296 0.99669 0.0
C740 C 0.45819 0.15198 1.00049 0.0
C741 C 0.44884 0.16973 0.99428 0.0
C742 C 0.39352 0.08128 0.9831 0.0
C743 C 0.4874 0.16425 1.01048 0.0
C744 C 0.45592 0.07477 0.02451 0.0
C745 C 0.46823 0.06601 1.01083 0.0
C746 C 0.44698 0.09353 0.02019 0.0
C747 C 0.45063 0.10389 1.00182 0.0
C748 C 0.46342 0.09548 0.98806 0.0
C749 C 0.47197 0.07654 0.9927 0.0
C750 C 0.43322 0.10191 0.03515 0.0
C751 C 0.46783 0.10627 0.96834 0.0
H752 H 0.38384 0.12212 0.97343 0.0
H753 H 0.46269 0.19197 0.99663 0.0
H754 H 0.40224 0.07223 0.97296 0.0
H755 H 0.39121 0.07114 0.9967 0.0
H756 H 0.37252 0.07625 0.97659 0.0
H757 H 0.49803 0.18717 0.01327 0.0
H758 H 0.48693 0.15549 0.02451 0.0
H759 H 0.49998 0.15876 1.00134 0.0
H760 H 0.45289 0.06667 0.03854 0.0
H761 H 0.48158 0.06999 0.98208 0.0
H762 H 0.41157 0.09555 0.02932 0.0
H763 H 0.44458 0.12477 0.0384 0.0
H764 H 0.43251 0.09245 0.04892 0.0
H765 H 0.4474 0.10008 0.96021 0.0
H766 H 0.47893 0.09836 0.95955 0.0
H767 H 0.48007 0.12924 0.97003 0.0
C768 C 0.68491 0.15547 0.97278 0.0
C769 C 0.70071 0.14269 0.96934 0.0
C770 C 0.65891 0.14098 0.98006 0.0
C771 C 0.64886 0.11333 0.98436 0.0
C772 C 0.6651 0.1006 0.98128 0.0
C773 C 0.69067 0.11534 0.97355 0.0
C774 C 0.64189 0.15501 0.9827 0.0
C775 C 0.65537 0.07134 0.98602 0.0
C776 C 0.59195 0.08159 0.01813 0.0
C777 C 0.56867 0.0639 1.00495 0.0
C778 C 0.6182 0.09807 1.01163 0.0
C779 C 0.62098 0.09729 0.99147 0.0
C780 C 0.59725 0.08022 0.97809 0.0
C781 C 0.57146 0.06349 0.98501 0.0
C782 C 0.64313 0.11557 0.02636 0.0
C783 C 0.59915 0.07928 0.95646 0.0
H784 H 0.69253 0.17656 0.96935 0.0
H785 H 0.70296 0.10552 0.97091 0.0
H786 H 0.62171 0.1433 0.97341 0.0
H787 H 0.63704 0.15507 0.99796 0.0
H788 H 0.65283 0.17672 0.97892 0.0
H789 H 0.67119 0.06505 0.98384 0.0
H790 H 0.65057 0.06931 1.00133 0.0
H791 H 0.63588 0.05671 0.97671 0.0
H792 H 0.58985 0.0818 0.03356 0.0
H793 H 0.5534 0.05004 0.97477 0.0
H794 H 0.65362 0.13751 0.02318 0.0
H795 H 0.65853 0.10847 0.02543 0.0
H796 H 0.63732 0.11452 0.04145 0.0
H797 H 0.6089 0.10053 0.95188 0.0
H798 H 0.57839 0.06643 0.94798 0.0
H799 H 0.61262 0.0706 0.95275 0.0
C800 C 0.85042 0.53245 0.97383 0.0
C801 C 0.83861 0.52158 0.95469 0.0
C802 C 0.87182 0.52865 0.98227 0.0
C803 C 0.88124 0.51324 0.97139 0.0
C804 C 0.86915 0.50201 0.95211 0.0
C805 C 0.84815 0.50657 0.94394 0.0
C806 C 0.88452 0.5413 1.00275 0.0
C807 C 0.8783 0.4851 0.94016 0.0
C808 C 0.95272 0.52223 0.98586 0.0
C809 C 0.94592 0.49955 0.99655 0.0
C810 C 0.93191 0.52717 0.9778 0.0
C811 C 0.90361 0.50868 0.9802 0.0
C812 C 0.89663 0.48563 0.99085 0.0
C813 C 0.91789 0.48148 0.99904 0.0
C814 C 0.9402 0.55219 0.96677 0.0
C815 C 0.86666 0.46516 0.99342 0.0
H816 H 0.84329 0.54432 0.98213 0.0
H817 H 0.83901 0.4982 0.92912 0.0
H818 H 0.88155 0.52483 0.01215 0.0
H819 H 0.90732 0.55541 1.00294 0.0
H820 H 0.87521 0.55314 1.00911 0.0
H821 H 0.8664 0.47737 0.92553 0.0
H822 H 0.90081 0.49776 0.93838 0.0
H823 H 0.87551 0.46709 0.94777 0.0
H824 H 0.97436 0.53633 0.98395 0.0
H825 H 0.91246 0.46375 1.00713 0.0
H826 H 0.93244 0.56532 0.97334 0.0
H827 H 0.93047 0.54554 0.95154 0.0
H828 H 0.96317 0.56496 0.96668 0.0
H829 H 0.85707 0.4759 1.0009 0.0
H830 H 0.86472 0.44815 1.00194 0.0
H831 H 0.85448 0.45596 0.97901 0.0
C832 C 0.44315 0.30323 1.00159 0.0
C833 C 0.41569 0.289 0.99258 0.0
C834 C 0.45748 0.33215 1.00555 0.0
C835 C 0.44392 0.34705 1.00047 0.0
C836 C 0.41594 0.33267 0.99186 0.0
C837 C 0.40219 0.30377 0.98796 0.0
C838 C 0.48733 0.34682 0.0147 0.0
C839 C 0.40076 0.34787 0.98638 0.0
C840 C 0.47311 0.42052 0.02366 0.0
C841 C 0.4873 0.43611 1.00878 0.0
C842 C 0.45901 0.39148 0.02121 0.0
C843 C 0.4593 0.37777 1.00353 0.0
C844 C 0.47396 0.39338 0.98858 0.0
C845 C 0.48771 0.42238 0.99137 0.0
C846 C 0.44346 0.37549 0.03742 0.0
C847 C 0.4749 0.37944 0.96957 0.0
H848 H 0.45373 0.2919 1.00517 0.0
H849 H 0.38095 0.29272 0.98099 0.0
H850 H 0.50123 0.36073 1.00456 0.0
H851 H 0.48968 0.35995 0.02809 0.0
H852 H 0.49449 0.33212 0.01846 0.0
H853 H 0.37864 0.33351 0.98064 0.0
H854 H 0.40133 0.36105 0.99918 0.0
H855 H 0.41133 0.36179 0.97514 0.0
H856 H 0.47263 0.43097 0.03715 0.0
H857 H 0.49873 0.43429 0.97984 0.0
H858 H 0.45122 0.3615 0.04179 0.0
H859 H 0.42096 0.36228 0.03229 0.0
H860 H 0.44569 0.3893 0.0504 0.0
H861 H 0.4835 0.36561 0.97229 0.0
H862 H 0.48782 0.39459 0.95962 0.0
H863 H 0.45347 0.36633 0.96217 0.0
C864 C 0.16429 0.6951 0.06316 0.0
C865 C 0.15321 0.71262 0.06093 0.0
C866 C 0.14721 0.66623 0.05936 0.0
C867 C 0.11862 0.65482 0.05273 0.0
C868 C 0.10748 0.67255 0.05025 0.0
C869 C 0.12487 0.70124 0.05465 0.0
C870 C 0.15968 0.64794 0.06259 0.0
C871 C 0.07728 0.66125 0.04275 0.0
C872 C 0.08079 0.58367 0.02442 0.0
C873 C 0.06423 0.56708 0.03807 0.0
C874 C 0.09861 0.61223 0.02902 0.0
C875 C 0.10043 0.6244 0.04791 0.0
C876 C 0.08426 0.60763 0.06192 0.0
C877 C 0.06602 0.57918 0.05674 0.0
C878 C 0.11495 0.62948 0.01353 0.0
C879 C 0.08616 0.61977 0.08234 0.0
H880 H 0.18616 0.70387 0.06829 0.0
H881 H 0.11635 0.71487 0.05298 0.0
H882 H 0.14796 0.63272 0.07284 0.0
H883 H 0.15788 0.63601 0.04871 0.0
H884 H 0.18201 0.66 0.06848 0.0
H885 H 0.07204 0.67789 0.04129 0.0
H886 H 0.07258 0.64926 0.02836 0.0
H887 H 0.0635 0.64684 0.05271 0.0
H888 H 0.07925 0.57443 1.00989 0.0
H889 H 0.05336 0.56636 0.06735 0.0
H890 H 0.13761 0.64046 0.01842 0.0
H891 H 0.10917 0.6455 1.01094 0.0
H892 H 0.11117 0.6168 0.99956 0.0
H893 H 0.10819 0.63102 0.08889 0.0
H894 H 0.07344 0.60368 0.0918 0.0
H895 H 0.07889 0.63502 0.08206 0.0
C896 C 0.33573 0.44617 0.08262 0.0
C897 C 0.3197 0.45905 0.08042 0.0
C898 C 0.36101 0.45603 0.0744 0.0
C899 C 0.3706 0.4795 0.06384 0.0
C900 C 0.35471 0.4929 0.06185 0.0
C901 C 0.32936 0.48244 0.07011 0.0
C902 C 0.37728 0.4411 0.07681 0.0
C903 C 0.36442 0.51815 0.05088 0.0
C904 C 0.44764 0.51681 0.0565 0.0
C905 C 0.44718 0.50584 0.03769 0.0
C906 C 0.42285 0.50892 0.06506 0.0
C907 C 0.39695 0.48956 0.05455 0.0
C908 C 0.39628 0.47894 0.03537 0.0
C909 C 0.42138 0.48726 0.02716 0.0
C910 C 0.42447 0.5208 0.08552 0.0
C911 C 0.36909 0.45812 0.02374 0.0
H912 H 0.32829 0.42812 0.09063 0.0
H913 H 0.31715 0.49261 0.06846 0.0
H914 H 0.37957 0.43335 0.06235 0.0
H915 H 0.39858 0.45561 0.08395 0.0
H916 H 0.36706 0.4233 0.08557 0.0
H917 H 0.35008 0.52665 0.05113 0.0
H918 H 0.38554 0.53456 0.05722 0.0
H919 H 0.36602 0.51284 0.03554 0.0
H920 H 0.46741 0.53142 0.06468 0.0
H921 H 0.42078 0.47858 0.01264 0.0
H922 H 0.41699 0.50405 0.09529 0.0
H923 H 0.4107 0.52991 0.08606 0.0
H924 H 0.44605 0.537 0.09122 0.0
H925 H 0.35889 0.43892 0.03113 0.0
H926 H 0.37205 0.45265 1.00877 0.0
H927 H 0.35461 0.46642 0.02282 0.0
C928 C 0.53311 0.86057 0.07923 0.0
C929 C 0.54733 0.8505 0.06856 0.0
C930 C 0.52538 0.87878 0.0716 0.0
C931 C 0.53239 0.88729 0.05293 0.0
C932 C 0.54639 0.87683 0.04195 0.0
C933 C 0.55364 0.85842 0.04989 0.0
C934 C 0.51027 0.88937 0.08368 0.0
C935 C 0.55441 0.88568 0.02208 0.0
C936 C 0.49491 0.92063 0.02854 0.0
C937 C 0.51391 0.94881 0.03382 0.0
C938 C 0.50083 0.90026 0.03434 0.0
C939 C 0.52646 0.9084 0.04546 0.0
C940 C 0.54611 0.93685 0.05022 0.0
C941 C 0.53952 0.9567 0.04443 0.0
C942 C 0.47933 0.87008 0.02914 0.0
C943 C 0.57381 0.94632 0.06186 0.0
H944 H 0.5282 0.85434 0.09366 0.0
H945 H 0.56473 0.85072 0.0416 0.0
H946 H 0.52351 0.91209 0.08735 0.0
H947 H 0.49078 0.88555 0.07528 0.0
H948 H 0.50491 0.87944 0.0974 0.0
H949 H 0.56399 0.87457 0.01503 0.0
H950 H 0.5358 0.88191 0.01252 0.0
H951 H 0.5695 0.90826 0.02329 0.0
H952 H 0.47503 0.91442 0.0204 0.0
H953 H 0.55439 0.97848 0.0484 0.0
H954 H 0.47185 0.86009 0.04258 0.0
H955 H 0.48876 0.85913 0.02173 0.0
H956 H 0.46108 0.86723 0.01957 0.0
H957 H 0.57032 0.9393 0.0766 0.0
H958 H 0.5874 0.96921 0.06337 0.0
H959 H 0.58502 0.93692 0.05488 0.0
C960 C 0.9727 0.16861 0.40029 0.0
C961 C 0.95172 0.17487 0.4037 0.0
C962 C 0.99709 0.18771 0.39272 0.0
C963 C 1.00029 0.21345 0.38815 0.0
C964 C 0.97874 0.21949 0.39101 0.0
C965 C 0.95481 0.20021 0.39894 0.0
C966 C 0.01981 0.18072 0.39022 0.0
C967 C 0.98118 0.2465 0.38599 0.0
C968 C 0.07332 0.27477 0.38827 0.0
C969 C 0.07698 0.27494 0.36846 0.0
C970 C 0.04861 0.25465 0.39488 0.0
C971 C 0.02674 0.2346 0.38128 0.0
C972 C 0.03021 0.2348 0.36122 0.0
C973 C 0.05547 0.2548 0.35506 0.0
C974 C 0.046 0.25477 0.41643 0.0
C975 C 0.00715 0.21407 0.34628 0.0
H976 H 0.97041 0.1491 0.40417 0.0
H977 H 0.93846 0.20493 0.40147 0.0
H978 H 0.02514 0.18249 0.37504 0.0
H979 H 0.03898 0.19573 0.39971 0.0
H980 H 0.01369 0.15948 0.39389 0.0
H981 H 0.96178 0.24719 0.38782 0.0
H982 H 0.99865 0.26398 0.39542 0.0
H983 H 0.98597 0.24976 0.37075 0.0
H984 H 0.09002 0.29013 0.39871 0.0
H985 H 0.0582 0.25499 0.33972 0.0
H986 H 0.04114 0.23438 0.42123 0.0
H987 H 0.02852 0.25813 0.41963 0.0
H988 H 0.06536 0.27114 0.42512 0.0
H989 H 0.00178 0.19272 0.34909 0.0
H990 H 0.01299 0.21731 0.33123 0.0
H991 H 0.98808 0.21557 0.34738 0.0
C992 C 0.81923 0.76218 0.41598 0.0
C993 C 0.84687 0.78406 0.41708 0.0
C994 C 0.797 0.76488 0.40783 0.0
C995 C 0.80251 0.79008 0.40058 0.0
C996 C 0.8304 0.8121 0.40131 0.0
C997 C 0.85227 0.80881 0.40952 0.0
C998 C 0.76759 0.74084 0.40721 0.0
C999 C 0.83708 0.83931 0.39376 0.0
C1000 C 0.74651 0.78935 0.36552 0.0
C1001 C 0.73364 0.79933 0.37784 0.0
C1002 C 0.76902 0.78635 0.37269 0.0
C1003 C 0.77896 0.79355 0.39266 0.0
C1004 C 0.76607 0.80361 0.40518 0.0
C1005 C 0.74356 0.80634 0.39763 0.0
C1006 C 0.78215 0.77546 0.35891 0.0
C1007 C 0.77606 0.8115 0.42657 0.0
H1008 H 0.81496 0.74285 0.42152 0.0
H1009 H 0.87356 0.82585 0.41047 0.0
H1010 H 0.75507 0.74705 0.41584 0.0
H1011 H 0.75747 0.7349 0.39206 0.0
H1012 H 0.76692 0.72241 0.41301 0.0
H1013 H 0.85988 0.85407 0.39484 0.0
H1014 H 0.82834 0.83577 0.37836 0.0
H1015 H 0.82719 0.84903 0.40211 0.0
H1016 H 0.73906 0.78392 0.3502 0.0
H1017 H 0.73387 0.81416 0.40729 0.0
H1018 H 0.78064 0.7562 0.36373 0.0
H1019 H 0.80465 0.79078 0.35902 0.0
H1020 H 0.77208 0.77095 0.34377 0.0
H1021 H 0.77428 0.79332 0.43344 0.0
H1022 H 0.76399 0.81928 0.43431 0.0
H1023 H 0.79841 0.82779 0.42857 0.0
C1024 C 0.23094 0.06297 0.3901 0.0
C1025 C 0.25777 0.08092 0.3994 0.0
C1026 C 0.22243 0.03526 0.38411 0.0
C1027 C 0.24131 0.02544 0.38739 0.0
C1028 C 0.26858 0.04362 0.3965 0.0
C1029 C 0.27645 0.07113 0.40245 0.0
C1030 C 0.19313 0.01641 0.37454 0.0
C1031 C 0.28939 0.03396 0.40004 0.0
C1032 C 0.21283 0.94822 0.38859 0.0
C1033 C 0.21651 0.94053 0.36989 0.0
C1034 C 0.22063 0.97578 0.39444 0.0
C1035 C 0.23257 0.99611 0.38132 0.0
C1036 C 0.23643 0.98851 0.36247 0.0
C1037 C 0.22827 0.96079 0.35696 0.0
C1038 C 0.21607 0.98314 0.41464 0.0
C1039 C 0.2493 0.00967 0.34814 0.0
H1040 H 0.21637 0.07042 0.38793 0.0
H1041 H 0.29731 0.08509 0.40947 0.0
H1042 H 0.19373 0.00758 0.35997 0.0
H1043 H 0.18186 -0.00121 0.38326 0.0
H1044 H 0.18109 0.02734 0.3729 0.0
H1045 H 0.3099 0.05084 0.40704 0.0
H1046 H 0.28118 0.01682 0.40949 0.0
H1047 H 0.29261 0.02575 0.3861 0.0
H1048 H 0.20367 0.93267 0.39864 0.0
H1049 H 0.23127 0.95506 0.34249 0.0
H1050 H 0.20258 0.99257 0.41381 0.0
H1051 H 0.23629 -0.00125 0.42276 0.0
H1052 H 0.20621 0.96482 0.42299 0.0
H1053 H 0.23666 0.01975 0.34542 0.0
H1054 H 0.25089 0.00036 0.33404 0.0
H1055 H 0.27049 0.02616 0.35427 0.0
C1056 C 0.49426 0.61843 0.30466 0.0
C1057 C 0.49939 0.59881 0.29522 0.0
C1058 C 0.51636 0.64432 0.31269 0.0
C1059 C 0.54421 0.65061 0.31135 0.0
C1060 C 0.5495 0.63051 0.30241 0.0
C1061 C 0.52701 0.60487 0.2944 0.0
C1062 C 0.5099 0.66528 0.32204 0.0
C1063 C 0.5789 0.63632 0.3009 0.0
C1064 C 0.59993 0.72641 0.31324 0.0
C1065 C 0.61157 0.73219 0.33265 0.0
C1066 C 0.57809 0.6999 0.30611 0.0
C1067 C 0.56779 0.67859 0.31864 0.0
C1068 C 0.57978 0.68413 0.33814 0.0
C1069 C 0.60147 0.71089 0.34494 0.0
C1070 C 0.56575 0.6948 0.28523 0.0
C1071 C 0.56952 0.66187 0.35188 0.0
H1072 H 0.47293 0.61392 0.30514 0.0
H1073 H 0.53102 0.5896 0.28729 0.0
H1074 H 0.52056 0.67249 0.33702 0.0
H1075 H 0.51791 0.68368 0.31375 0.0
H1076 H 0.48716 0.65675 0.32264 0.0
H1077 H 0.57944 0.61796 0.29445 0.0
H1078 H 0.58966 0.65356 0.29178 0.0
H1079 H 0.59092 0.64297 0.31548 0.0
H1080 H 0.60753 0.74274 0.30366 0.0
H1081 H 0.6104 0.71511 0.35994 0.0
H1082 H 0.54327 0.68823 0.28465 0.0
H1083 H 0.5673 0.67775 0.27752 0.0
H1084 H 0.57634 0.71349 0.27732 0.0
H1085 H 0.54724 0.65439 0.35361 0.0
H1086 H 0.58161 0.66933 0.36645 0.0
H1087 H 0.57092 0.64385 0.34581 0.0
C1088 C 0.37216 0.86436 0.30213 0.0
C1089 C 0.39045 0.88931 0.29487 0.0
C1090 C 0.34809 0.8608 0.31011 0.0
C1091 C 0.34214 0.88271 0.31087 0.0
C1092 C 0.36085 0.90816 0.30399 0.0
C1093 C 0.38476 0.91115 0.29609 0.0
C1094 C 0.32864 0.83332 0.31727 0.0
C1095 C 0.35534 0.93207 0.30462 0.0
C1096 C 0.26662 0.86472 0.31196 0.0
C1097 C 0.26564 0.87102 0.33168 0.0
C1098 C 0.29134 0.86841 0.30504 0.0
C1099 C 0.31578 0.87865 0.31812 0.0
C1100 C 0.315 0.88508 0.33803 0.0
C1101 C 0.28996 0.8812 0.34457 0.0
C1102 C 0.2913 0.86133 0.28369 0.0
C1103 C 0.34062 0.89606 0.35242 0.0
H1104 H 0.37624 0.84728 0.30106 0.0
H1105 H 0.399 0.93063 0.29077 0.0
H1106 H 0.32498 0.8365 0.3325 0.0
H1107 H 0.30811 0.82345 0.30838 0.0
H1108 H 0.33693 0.81886 0.31655 0.0
H1109 H 0.37249 0.95084 0.29939 0.0
H1110 H 0.33567 0.92603 0.29546 0.0
H1111 H 0.35263 0.9374 0.31966 0.0
H1112 H 0.24802 0.85685 0.30184 0.0
H1113 H 0.28947 0.88612 0.35983 0.0
H1114 H 0.29743 0.8453 0.28177 0.0
H1115 H 0.30688 0.87991 0.27732 0.0
H1116 H 0.27056 0.85355 0.27543 0.0
H1117 H 0.34816 0.88101 0.35251 0.0
H1118 H 0.33658 0.90007 0.36741 0.0
H1119 H 0.35766 0.91562 0.34804 0.0
C1120 C 0.07265 0.46709 0.3177 0.0
C1121 C 0.09337 0.49254 0.31261 0.0
C1122 C 0.07943 0.44765 0.32425 0.0
C1123 C 0.10746 0.45363 0.32514 0.0
C1124 C 0.1285 0.47953 0.32021 0.0
C1125 C 0.1212 0.49886 0.3142 0.0
C1126 C 0.05656 0.42053 0.32983 0.0
C1127 C 0.1585 0.4864 0.32057 0.0
C1128 C 0.13143 0.4123 0.35425 0.0
C1129 C 0.12943 0.39262 0.33981 0.0
C1130 C 0.12374 0.43194 0.34977 0.0
C1131 C 0.1146 0.43231 0.33032 0.0
C1132 C 0.11269 0.41254 0.31569 0.0
C1133 C 0.11978 0.39268 0.32067 0.0
C1134 C 0.12536 0.45225 0.36583 0.0
C1135 C 0.10365 0.41269 0.2947 0.0
H1136 H 0.05113 0.46239 0.31643 0.0
H1137 H 0.13707 0.51852 0.31003 0.0
H1138 H 0.05372 0.40322 0.31949 0.0
H1139 H 0.0624 0.41677 0.34448 0.0
H1140 H 0.03632 0.42006 0.32984 0.0
H1141 H 0.1724 0.50771 0.31675 0.0
H1142 H 0.16626 0.48439 0.33518 0.0
H1143 H 0.15997 0.4715 0.31013 0.0
H1144 H 0.1387 0.41212 0.3691 0.0
H1145 H 0.11847 0.37761 0.30947 0.0
H1146 H 0.10478 0.45095 0.36617 0.0
H1147 H 0.14056 0.4737 0.36304 0.0
H1148 H 0.13173 0.44842 0.38031 0.0
H1149 H 0.08234 0.40984 0.29328 0.0
H1150 H 0.10369 0.39615 0.28506 0.0
H1151 H 0.11779 0.43303 0.28957 0.0
C1152 C 0.32779 0.48828 0.28905 0.0
C1153 C 0.3527 0.48802 0.29297 0.0
C1154 C 0.30378 0.47043 0.29756 0.0
C1155 C 0.30452 0.45118 0.30969 0.0
C1156 C 0.32966 0.45072 0.31356 0.0
C1157 C 0.35363 0.46951 0.30538 0.0
C1158 C 0.27762 0.47209 0.29352 0.0
C1159 C 0.33102 0.4299 0.32587 0.0
C1160 C 0.24818 0.41735 0.34363 0.0
C1161 C 0.22892 0.3928 0.33228 0.0
C1162 C 0.27285 0.43671 0.33642 0.0
C1163 C 0.27869 0.43085 0.3177 0.0
C1164 C 0.25957 0.40571 0.30642 0.0
C1165 C 0.23472 0.38719 0.31374 0.0
C1166 C 0.29232 0.46368 0.34861 0.0
C1167 C 0.26533 0.3983 0.28663 0.0
H1168 H 0.32721 0.50272 0.27948 0.0
H1169 H 0.37287 0.46913 0.30823 0.0
H1170 H 0.261 0.45254 0.28535 0.0
H1171 H 0.26981 0.47466 0.30738 0.0
H1172 H 0.28111 0.48956 0.28496 0.0
H1173 H 0.35218 0.43231 0.32751 0.0
H1174 H 0.32496 0.43205 0.34051 0.0
H1175 H 0.31595 0.40859 0.31921 0.0
H1176 H 0.24357 0.42177 0.35791 0.0
H1177 H 0.21993 0.36806 0.30502 0.0
H1178 H 0.29485 0.48131 0.34062 0.0
H1179 H 0.31327 0.46593 0.35142 0.0
H1180 H 0.2846 0.46517 0.36276 0.0
H1181 H 0.26647 0.41351 0.27659 0.0
H1182 H 0.24899 0.37727 0.28019 0.0
H1183 H 0.28581 0.39922 0.28767 0.0
C1184 C 0.51803 0.86777 0.30866 0.0
C1185 C 0.50562 0.85704 0.28961 0.0
C1186 C 0.53895 0.86302 0.3168 0.0
C1187 C 0.54729 0.84681 0.30571 0.0
C1188 C 0.53462 0.83576 0.28652 0.0
C1189 C 0.51412 0.84124 0.27866 0.0
C1190 C 0.55226 0.87546 0.33721 0.0
C1191 C 0.54258 0.81801 0.27434 0.0
C1192 C 0.61759 0.85253 0.31957 0.0
C1193 C 0.60999 0.82974 0.33028 0.0
C1194 C 0.59745 0.85854 0.31167 0.0
C1195 C 0.569 0.84104 0.31425 0.0
C1196 C 0.56119 0.8178 0.32484 0.0
C1197 C 0.58179 0.81257 0.33285 0.0
C1198 C 0.60663 0.88371 0.30068 0.0
C1199 C 0.53103 0.79833 0.3276 0.0
H1200 H 0.5117 0.88022 0.31712 0.0
H1201 H 0.50453 0.83297 0.26391 0.0
H1202 H 0.54867 0.85879 0.34658 0.0
H1203 H 0.57516 0.88875 0.3372 0.0
H1204 H 0.54391 0.88811 0.34373 0.0
H1205 H 0.53048 0.81072 0.25976 0.0
H1206 H 0.56511 0.82986 0.27243 0.0
H1207 H 0.53902 0.79968 0.28184 0.0
H1208 H 0.63935 0.86595 0.3176 0.0
H1209 H 0.57571 0.79476 0.34097 0.0
H1210 H 0.59997 0.89764 0.30748 0.0
H1211 H 0.59649 0.87736 0.28553 0.0
H1212 H 0.6296 0.89555 0.30031 0.0
H1213 H 0.52237 0.8098 0.33534 0.0
H1214 H 0.52839 0.78096 0.33598 0.0
H1215 H 0.51851 0.78958 0.31326 0.0
C1216 C 0.08272 0.64071 0.32373 0.0
C1217 C 0.09828 0.62818 0.31894 0.0
C1218 C 0.09562 0.66952 0.32788 0.0
C1219 C 0.12461 0.68613 0.32663 0.0
C1220 C 0.14039 0.67354 0.32164 0.0
C1221 C 0.12706 0.6446 0.31807 0.0
C1222 C 0.07823 0.68217 0.33359 0.0
C1223 C 0.17121 0.69065 0.31971 0.0
C1224 C 0.15008 0.76138 0.31921 0.0
C1225 C 0.16206 0.77447 0.33792 0.0
C1226 C 0.13855 0.73269 0.31519 0.0
C1227 C 0.13833 0.71672 0.33039 0.0
C1228 C 0.1505 0.72988 0.3493 0.0
C1229 C 0.16258 0.7587 0.35278 0.0
C1230 C 0.12639 0.71945 0.29473 0.0
C1231 C 0.15006 0.71345 0.36597 0.0
H1232 H 0.06044 0.6279 0.32437 0.0
H1233 H 0.13905 0.63492 0.31411 0.0
H1234 H 0.08722 0.69494 0.34777 0.0
H1235 H 0.07849 0.6961 0.32273 0.0
H1236 H 0.05621 0.66624 0.33472 0.0
H1237 H 0.1804 0.67765 0.31553 0.0
H1238 H 0.17473 0.70526 0.30859 0.0
H1239 H 0.1825 0.70326 0.33363 0.0
H1240 H 0.14986 0.77362 0.30768 0.0
H1241 H 0.1716 0.76878 0.36731 0.0
H1242 H 0.10363 0.70506 0.29438 0.0
H1243 H 0.13584 0.70706 0.28972 0.0
H1244 H 0.12981 0.73501 0.28435 0.0
H1245 H 0.12816 0.69846 0.36818 0.0
H1246 H 0.16067 0.72688 0.37976 0.0
H1247 H 0.16038 0.70129 0.36257 0.0
C1248 C 0.82566 0.02554 0.39272 0.0
C1249 C 0.83871 0.03034 0.41163 0.0
C1250 C 0.80397 -0.00096 0.38535 0.0
C1251 C 0.79551 0.97687 0.3971 0.0
C1252 C 0.8088 0.98164 0.41616 0.0
C1253 C 0.83011 0.00841 0.42325 0.0
C1254 C 0.79003 0.99479 0.36504 0.0
C1255 C 0.80064 0.95844 0.42903 0.0
C1256 C 0.72421 0.91228 0.38531 0.0
C1257 C 0.73092 0.89436 0.37511 0.0
C1258 C 0.74499 0.93937 0.39234 0.0
C1259 C 0.77313 0.94852 0.38935 0.0
C1260 C 0.78002 0.93044 0.37918 0.0
C1261 C 0.75881 0.90366 0.37206 0.0
C1262 C 0.73683 0.95821 0.40292 0.0
C1263 C 0.80984 0.93928 0.37598 0.0
H1264 H 0.83208 0.04254 0.38376 0.0
H1265 H 0.8402 0.01219 0.43789 0.0
H1266 H 0.79276 0.9795 0.35595 0.0
H1267 H 0.76727 0.98621 0.36542 0.0
H1268 H 0.79858 0.01433 0.35797 0.0
H1269 H 0.81318 0.96559 0.44344 0.0
H1270 H 0.77827 0.94913 0.43126 0.0
H1271 H 0.80342 0.94182 0.42189 0.0
H1272 H 0.70268 0.90525 0.38763 0.0
H1273 H 0.7642 0.88986 0.36432 0.0
H1274 H 0.7438 0.97739 0.39559 0.0
H1275 H 0.74739 0.96451 0.41795 0.0
H1276 H 0.71395 0.94818 0.40359 0.0
H1277 H 0.81863 0.95776 0.36777 0.0
H1278 H 0.8117 0.92265 0.36786 0.0
H1279 H 0.8228 0.94524 0.39016 0.0
C1280 C 0.99949 0.81987 0.40802 0.0
C1281 C 0.98354 0.79164 0.41047 0.0
C1282 C 0.02555 0.83055 0.4007 0.0
C1283 C 0.0355 0.81243 0.3953 0.0
C1284 C 0.01916 0.78382 0.39747 0.0
C1285 C 0.99357 0.77387 0.40528 0.0
C1286 C 0.04266 0.86126 0.39909 0.0
C1287 C 0.02872 0.76371 0.39152 0.0
C1288 C 0.09144 0.83404 0.3605 0.0
C1289 C 0.11499 0.84016 0.37308 0.0
C1290 C 0.06545 0.82526 0.36755 0.0
C1291 C 0.06319 0.82331 0.38771 0.0
C1292 C 0.08721 0.83054 0.40054 0.0
C1293 C 0.11272 0.8385 0.39303 0.0
C1294 C 0.04023 0.81715 0.35335 0.0
C1295 C 0.08591 0.82946 0.42218 0.0
H1296 H 0.9919 0.83372 0.41221 0.0
H1297 H 0.98119 0.75203 0.40715 0.0
H1298 H 0.06307 0.87002 0.408 0.0
H1299 H 0.04703 0.86504 0.38384 0.0
H1300 H 0.03201 0.87257 0.40397 0.0
H1301 H 0.01296 0.74194 0.39328 0.0
H1302 H 0.03313 0.76514 0.37612 0.0
H1303 H 0.0484 0.76909 0.40041 0.0
H1304 H 0.09311 0.83514 0.34505 0.0
H1305 H 0.13098 0.84351 0.40283 0.0
H1306 H 0.03003 0.82917 0.35748 0.0
H1307 H 0.02473 0.79492 0.3538 0.0
H1308 H 0.04561 0.82057 0.33822 0.0
H1309 H 0.07626 0.84141 0.42768 0.0
H1310 H 0.10687 0.83787 0.43029 0.0
H1311 H 0.07262 0.80772 0.42535 0.0
C1312 C 0.27164 0.24146 0.3886 0.0
C1313 C 0.25876 0.21259 0.38544 0.0
C1314 C 0.2574 0.25527 0.38304 0.0
C1315 C 0.22957 0.23972 0.37419 0.0
C1316 C 0.21666 0.21057 0.37057 0.0
C1317 C 0.23145 0.19732 0.37623 0.0
C1318 C 0.27189 0.2864 0.38704 0.0
C1319 C 0.187 0.19334 0.36121 0.0
C1320 C 0.18477 0.27292 0.37955 0.0
C1321 C 0.18562 0.28337 0.36153 0.0
C1322 C 0.19855 0.2582 0.3837 0.0
C1323 C 0.21363 0.25393 0.36952 0.0
C1324 C 0.21413 0.26392 0.35116 0.0
C1325 C 0.20004 0.27847 0.34737 0.0
C1326 C 0.19739 0.24769 0.40341 0.0
C1327 C 0.23005 0.25978 0.33571 0.0
H1328 H 0.29276 0.25324 0.39572 0.0
H1329 H 0.22136 0.17496 0.37376 0.0
H1330 H 0.27129 0.2958 0.37348 0.0
H1331 H 0.26082 0.29216 0.39747 0.0
H1332 H 0.29399 0.29552 0.39317 0.0
H1333 H 0.18046 0.17105 0.35856 0.0
H1334 H 0.17263 0.19539 0.37068 0.0
H1335 H 0.18463 0.20093 0.34717 0.0
H1336 H 0.17357 0.27648 0.39056 0.0
H1337 H 0.20082 0.28649 0.3334 0.0
H1338 H 0.2187 0.25772 0.41118 0.0
H1339 H 0.18938 0.22505 0.40174 0.0
H1340 H 0.18389 0.25185 0.41255 0.0
H1341 H 0.25259 0.27044 0.34096 0.0
H1342 H 0.22747 0.26789 0.32193 0.0
H1343 H 0.22295 0.23743 0.33265 0.0
C1344 C 0.62188 0.5369 0.7314 0.0
C1345 C 0.61531 0.50955 0.73321 0.0
C1346 C 0.64721 0.55596 0.72491 0.0
C1347 C 0.66666 0.54755 0.72055 0.0
C1348 C 0.66006 0.51987 0.72233 0.0
C1349 C 0.63426 0.50107 0.72844 0.0
C1350 C 0.65323 0.58512 0.72281 0.0
C1351 C 0.68051 0.51031 0.7182 0.0
C1352 C 0.72351 0.59109 0.68931 0.0
C1353 C 0.7456 0.60844 0.70343 0.0
C1354 C 0.69766 0.57108 0.69466 0.0
C1355 C 0.69414 0.56797 0.71458 0.0
C1356 C 0.71665 0.58496 0.72887 0.0
C1357 C 0.74201 0.60524 0.72312 0.0
C1358 C 0.67395 0.55374 0.67904 0.0
C1359 C 0.71391 0.58187 0.75024 0.0
H1360 H 0.60704 0.54331 0.73498 0.0
H1361 H 0.62915 0.47991 0.73 0.0
H1362 H 0.67164 0.60002 0.73294 0.0
H1363 H 0.65836 0.59045 0.70787 0.0
H1364 H 0.63532 0.58792 0.72584 0.0
H1365 H 0.67209 0.48806 0.72016 0.0
H1366 H 0.68602 0.51366 0.70312 0.0
H1367 H 0.70008 0.52274 0.72804 0.0
H1368 H 0.7262 0.59365 0.67407 0.0
H1369 H 0.75917 0.61845 0.73407 0.0
H1370 H 0.6563 0.55737 0.68108 0.0
H1371 H 0.66618 0.53142 0.68014 0.0
H1372 H 0.68019 0.55854 0.66421 0.0
H1373 H 0.69797 0.58684 0.75481 0.0
H1374 H 0.73389 0.59562 0.75941 0.0
H1375 H 0.70675 0.5601 0.75303 0.0
C1376 C 0.47774 0.0899 0.74258 0.0
C1377 C 0.50476 0.11249 0.74732 0.0
C1378 C 0.45613 0.09355 0.73439 0.0
C1379 C 0.46157 0.12052 0.73122 0.0
C1380 C 0.48895 0.14338 0.73576 0.0
C1381 C 0.5103 0.13904 0.7436 0.0
C1382 C 0.42739 0.06858 0.72938 0.0
C1383 C 0.49551 0.1725 0.73287 0.0
C1384 C 0.41112 0.12915 0.69652 0.0
C1385 C 0.39452 0.1331 0.70931 0.0
C1386 C 0.43284 0.12478 0.70342 0.0
C1387 C 0.43846 0.12489 0.72363 0.0
C1388 C 0.42187 0.12902 0.73663 0.0
C1389 C 0.39993 0.1328 0.7293 0.0
C1390 C 0.44968 0.11989 0.68907 0.0
C1391 C 0.42745 0.12969 0.7583 0.0
H1392 H 0.47351 0.06933 0.74534 0.0
H1393 H 0.53115 0.15654 0.74744 0.0
H1394 H 0.41245 0.07037 0.7384 0.0
H1395 H 0.41993 0.06759 0.71397 0.0
H1396 H 0.42698 0.04888 0.73175 0.0
H1397 H 0.51794 0.18794 0.7368 0.0
H1398 H 0.48973 0.17376 0.7175 0.0
H1399 H 0.48295 0.17818 0.74189 0.0
H1400 H 0.40695 0.12916 0.68103 0.0
H1401 H 0.38733 0.13605 0.73928 0.0
H1402 H 0.44845 0.09968 0.69074 0.0
H1403 H 0.47197 0.13614 0.69202 0.0
H1404 H 0.44234 0.11993 0.6738 0.0
H1405 H 0.42528 0.10967 0.76192 0.0
H1406 H 0.41301 0.13369 0.76647 0.0
H1407 H 0.44919 0.14607 0.76334 0.0
C1408 C 0.90063 0.38913 0.73682 0.0
C1409 C 0.91918 0.41196 0.72768 0.0
C1410 C 0.89276 0.36212 0.7295 0.0
C1411 C 0.90392 0.35789 0.71271 0.0
C1412 C 0.92242 0.38085 0.70325 0.0
C1413 C 0.92972 0.40771 0.71081 0.0
C1414 C 0.87268 0.33813 0.73984 0.0
C1415 C 0.93485 0.37707 0.68541 0.0
C1416 C 0.90246 0.28929 0.70721 0.0
C1417 C 0.87821 0.27312 0.69442 0.0
C1418 C 0.91169 0.31728 0.71273 0.0
C1419 C 0.89626 0.32931 0.70529 0.0
C1420 C 0.8723 0.31336 0.6919 0.0
C1421 C 0.86355 0.28545 0.68662 0.0
C1422 C 0.93741 0.33371 0.72703 0.0
C1423 C 0.85531 0.3255 0.68368 0.0
H1424 H 0.89224 0.39246 0.74975 0.0
H1425 H 0.94419 0.42544 0.70383 0.0
H1426 H 0.8542 0.32353 0.72964 0.0
H1427 H 0.88283 0.32653 0.74506 0.0
H1428 H 0.86544 0.34499 0.75246 0.0
H1429 H 0.94841 0.39702 0.67953 0.0
H1430 H 0.9474 0.36713 0.68895 0.0
H1431 H 0.91802 0.36308 0.6739 0.0
H1432 H 0.91397 0.27996 0.71324 0.0
H1433 H 0.84487 0.27316 0.67664 0.0
H1434 H 0.93151 0.33939 0.74081 0.0
H1435 H 0.95225 0.35327 0.72129 0.0
H1436 H 0.94823 0.32195 0.73029 0.0
H1437 H 0.84574 0.33085 0.69551 0.0
H1438 H 0.83844 0.31094 0.67236 0.0
H1439 H 0.86893 0.34492 0.67728 0.0
C1440 C 0.16283 0.95545 0.63197 0.0
C1441 C 0.16481 0.93188 0.63475 0.0
C1442 C 0.18363 0.9816 0.64057 0.0
C1443 C 0.20674 0.98401 0.65229 0.0
C1444 C 0.20825 0.95998 0.65564 0.0
C1445 C 0.18729 0.93412 0.64665 0.0
C1446 C 0.18142 0.00675 0.63651 0.0
C1447 C 0.23239 0.9617 0.66822 0.0
C1448 C 0.2739 0.05316 0.65595 0.0
C1449 C 0.27273 0.0661 0.67348 0.0
C1450 C 0.25268 0.02629 0.64901 0.0
C1451 C 0.23006 0.01185 0.66007 0.0
C1452 C 0.22926 0.02446 0.67811 0.0
C1453 C 0.25048 0.05159 0.68451 0.0
C1454 C 0.25404 0.0137 0.62954 0.0
C1455 C 0.20577 0.00945 0.69048 0.0
H1456 H 0.14542 0.95346 0.62256 0.0
H1457 H 0.18868 0.9157 0.6486 0.0
H1458 H 0.1829 0.01863 0.65033 0.0
H1459 H 0.19904 0.02067 0.62853 0.0
H1460 H 0.16155 0.00118 0.62775 0.0
H1461 H 0.22926 0.9409 0.67065 0.0
H1462 H 0.25189 0.97317 0.66124 0.0
H1463 H 0.2354 0.97333 0.6825 0.0
H1464 H 0.29095 0.06438 0.6473 0.0
H1465 H 0.24962 0.06148 0.69815 0.0
H1466 H 0.23572 0.00937 0.61941 0.0
H1467 H 0.25319 0.99366 0.63111 0.0
H1468 H 0.27331 0.02748 0.62292 0.0
H1469 H 0.18582 0.00545 0.68272 0.0
H1470 H 0.20918 0.02145 0.7047 0.0
H1471 H 0.20346 0.98905 0.69312 0.0
C1472 C 0.04666 0.22709 0.64073 0.0
C1473 C 0.04389 0.21354 0.62242 0.0
C1474 C 0.02318 0.22473 0.64896 0.0
C1475 C 0.99628 0.2079 0.6388 0.0
C1476 C 0.99338 0.19356 0.62052 0.0
C1477 C 0.01727 0.19685 0.61244 0.0
C1478 C 0.02722 0.24082 0.66828 0.0
C1479 C 0.96506 0.17491 0.60943 0.0
C1480 C 0.93325 0.1834 0.66736 0.0
C1481 C 0.92293 0.20076 0.66206 0.0
C1482 C 0.95702 0.18539 0.65983 0.0
C1483 C 0.9712 0.20569 0.64708 0.0
C1484 C 0.96116 0.22362 0.64198 0.0
C1485 C 0.93693 0.22069 0.64933 0.0
C1486 C 0.96664 0.16543 0.66524 0.0
C1487 C 0.97602 0.24592 0.62876 0.0
H1488 H 0.06732 0.24022 0.64833 0.0
H1489 H 0.01519 0.1863 0.59829 0.0
H1490 H 0.0192 0.25534 0.66659 0.0
H1491 H 0.01511 0.22652 0.6789 0.0
H1492 H 0.04948 0.25288 0.67435 0.0
H1493 H 0.96628 0.16409 0.59591 0.0
H1494 H 0.95124 0.15916 0.61867 0.0
H1495 H 0.95513 0.18724 0.6055 0.0
H1496 H 0.92234 0.16776 0.67704 0.0
H1497 H 0.92912 0.23426 0.64528 0.0
H1498 H 0.98836 0.177 0.67234 0.0
H1499 H 0.96662 0.15341 0.65194 0.0
H1500 H 0.95317 0.1507 0.67521 0.0
H1501 H 0.99817 0.25946 0.63468 0.0
H1502 H 0.96626 0.25897 0.62691 0.0
H1503 H 0.97584 0.23638 0.61425 0.0
C1504 C 0.77464 0.81396 0.63478 0.0
C1505 C 0.76037 0.8243 0.6452 0.0
C1506 C 0.78047 0.79431 0.64206 0.0
C1507 C 0.77162 0.7846 0.66015 0.0
C1508 C 0.75698 0.79477 0.6707 0.0
C1509 C 0.75168 0.81471 0.66314 0.0
C1510 C 0.79644 0.78422 0.63048 0.0
C1511 C 0.74697 0.7846 0.68993 0.0
C1512 C 0.76853 0.7166 0.66796 0.0
C1513 C 0.79423 0.72572 0.6789 0.0
C1514 C 0.76024 0.73547 0.66255 0.0
C1515 C 0.77824 0.76412 0.66802 0.0
C1516 C 0.80376 0.77336 0.67962 0.0
C1517 C 0.81139 0.75402 0.68501 0.0
C1518 C 0.7327 0.72484 0.65037 0.0
C1519 C 0.82363 0.80379 0.68557 0.0
H1520 H 0.78175 0.8217 0.62104 0.0
H1521 H 0.74053 0.82263 0.67115 0.0
H1522 H 0.81604 0.78896 0.6392 0.0
H1523 H 0.78395 0.76141 0.62706 0.0
H1524 H 0.80179 0.79387 0.61666 0.0
H1525 H 0.7353 0.79411 0.69609 0.0
H1526 H 0.73324 0.76176 0.68816 0.0
H1527 H 0.76501 0.78943 0.70052 0.0
H1528 H 0.75504 0.69473 0.66334 0.0
H1529 H 0.83128 0.76123 0.69346 0.0
H1530 H 0.73651 0.73165 0.6356 0.0
H1531 H 0.72055 0.73358 0.65677 0.0
H1532 H 0.71991 0.70187 0.64901 0.0
H1533 H 0.83169 0.81456 0.6725 0.0
H1534 H 0.84164 0.80741 0.69577 0.0
H1535 H 0.81262 0.81339 0.69256 0.0
C1536 C 0.01163 0.77414 0.6256 0.0
C1537 C 0.02778 0.80298 0.62935 0.0
C1538 C 0.98607 0.75933 0.63334 0.0
C1539 C 0.97641 0.77381 0.64497 0.0
C1540 C 0.99249 0.80301 0.64859 0.0
C1541 C 0.01806 0.81728 0.64077 0.0
C1542 C 0.96954 0.72817 0.62922 0.0
C1543 C 0.9827 0.81917 0.66075 0.0
C1544 C 0.89901 0.73669 0.65077 0.0
C1545 C 0.89842 0.72674 0.66897 0.0
C1546 C 0.92428 0.75243 0.64291 0.0
C1547 C 0.94958 0.75832 0.6535 0.0
C1548 C 0.9492 0.74883 0.67204 0.0
C1549 C 0.92362 0.73322 0.67959 0.0
C1550 C 0.92382 0.7623 0.62313 0.0
C1551 C 0.97577 0.75457 0.6837 0.0
H1552 H 0.01914 0.76311 0.61674 0.0
H1553 H 0.03038 0.83962 0.64362 0.0
H1554 H 0.96652 0.71848 0.64305 0.0
H1555 H 0.94853 0.72162 0.62192 0.0
H1556 H 0.97996 0.72006 0.61988 0.0
H1557 H 0.99742 0.84185 0.66191 0.0
H1558 H 0.96195 0.81495 0.65437 0.0
H1559 H 0.98025 0.81242 0.67559 0.0
H1560 H 0.87967 0.73199 0.64252 0.0
H1561 H 0.92336 0.72552 0.69361 0.0
H1562 H 0.93178 0.75269 0.61279 0.0
H1563 H 0.93776 0.78507 0.62391 0.0
H1564 H 0.90251 0.7571 0.61721 0.0
H1565 H 0.98598 0.74501 0.67556 0.0
H1566 H 0.97198 0.74636 0.69809 0.0
H1567 H 0.99062 0.7772 0.68598 0.0
C1568 C 0.20739 0.22861 0.62692 0.0
C1569 C 0.17865 0.21301 0.62822 0.0
C1570 C 0.22547 0.21944 0.63373 0.0
C1571 C 0.21448 0.19386 0.64188 0.0
C1572 C 0.18537 0.1778 0.64299 0.0
C1573 C 0.16777 0.18762 0.63621 0.0
C1574 C 0.25639 0.23731 0.63243 0.0
C1575 C 0.17286 0.15033 0.65145 0.0
C1576 C 0.26048 0.16117 0.64541 0.0
C1577 C 0.27202 0.16905 0.66488 0.0
C1578 C 0.24132 0.16865 0.63779 0.0
C1579 C 0.23367 0.18454 0.64988 0.0
C1580 C 0.24511 0.19239 0.66955 0.0
C1581 C 0.26403 0.18449 0.67681 0.0
C1582 C 0.22945 0.15975 0.61677 0.0
C1583 C 0.23771 0.20956 0.68288 0.0
H1584 H 0.2158 0.24821 0.62069 0.0
H1585 H 0.14552 0.17537 0.63711 0.0
H1586 H 0.26783 0.24335 0.6472 0.0
H1587 H 0.26413 0.22547 0.62405 0.0
H1588 H 0.26152 0.25643 0.6254 0.0
H1589 H 0.14975 0.13987 0.65062 0.0
H1590 H 0.17872 0.1364 0.64363 0.0
H1591 H 0.18132 0.15345 0.66688 0.0
H1592 H 0.26641 0.14916 0.63609 0.0
H1593 H 0.27283 0.19077 0.69186 0.0
H1594 H 0.23544 0.17825 0.60881 0.0
H1595 H 0.20633 0.14787 0.61568 0.0
H1596 H 0.23686 0.14676 0.60946 0.0
H1597 H 0.24404 0.22978 0.67717 0.0
H1598 H 0.248 0.21349 0.69791 0.0
H1599 H 0.21481 0.19893 0.68342 0.0
C1600 C 0.77627 0.97269 0.65976 0.0
C1601 C 0.79774 0.96941 0.65286 0.0
C1602 C 0.78013 -0.00079 0.66448 0.0
C1603 C 0.80624 0.02281 0.66258 0.0
C1604 C 0.82824 0.01949 0.65625 0.0
C1605 C 0.82358 0.99277 0.65122 0.0
C1606 C 0.75605 0.00201 0.67082 0.0
C1607 C 0.85654 0.04415 0.65442 0.0
C1608 C 0.81209 0.09183 0.65417 0.0
C1609 C 0.82205 0.1062 0.67275 0.0
C1610 C 0.80586 0.06429 0.65083 0.0
C1611 C 0.8103 0.05106 0.66637 0.0
C1612 C 0.81994 0.06532 0.68522 0.0
C1613 C 0.82544 0.09269 0.68823 0.0
C1614 C 0.79508 0.04954 0.63059 0.0
C1615 C 0.82543 0.05205 0.70205 0.0
H1616 H 0.75615 0.9546 0.66084 0.0
H1617 H 0.84015 0.99013 0.64589 0.0
H1618 H 0.76227 0.01489 0.68496 0.0
H1619 H 0.75014 0.01271 0.66009 0.0
H1620 H 0.73744 0.98162 0.67225 0.0
H1621 H 0.87195 0.03793 0.65061 0.0
H1622 H 0.8547 0.05647 0.64302 0.0
H1623 H 0.8647 0.05787 0.66825 0.0
H1624 H 0.80925 0.10217 0.6422 0.0
H1625 H 0.83333 0.10382 0.7026 0.0
H1626 H 0.77562 0.02947 0.63095 0.0
H1627 H 0.81063 0.04493 0.62472 0.0
H1628 H 0.7908 0.06204 0.62048 0.0
H1629 H 0.80653 0.03205 0.70371 0.0
H1630 H 0.83176 0.06552 0.71597 0.0
H1631 H 0.84225 0.04749 0.69915 0.0
C1632 C 0.48945 0.36189 0.71278 0.0
C1633 C 0.47817 0.37803 0.7194 0.0
C1634 C 0.47236 0.33322 0.70788 0.0
C1635 C 0.4434 0.32055 0.70964 0.0
C1636 C 0.43189 0.33691 0.71594 0.0
C1637 C 0.44946 0.36547 0.72077 0.0
C1638 C 0.48534 0.31641 0.70122 0.0
C1639 C 0.40111 0.32416 0.71794 0.0
C1640 C 0.39326 0.24953 0.68329 0.0
C1641 C 0.38834 0.2324 0.69834 0.0
C1642 C 0.4115 0.27823 0.68667 0.0
C1643 C 0.42519 0.29005 0.70553 0.0
C1644 C 0.42072 0.27283 0.72069 0.0
C1645 C 0.40233 0.24423 0.71692 0.0
C1646 C 0.41574 0.29596 0.67015 0.0
C1647 C 0.43502 0.28469 0.74099 0.0
H1648 H 0.51167 0.37152 0.71172 0.0
H1649 H 0.44077 0.37798 0.7259 0.0
H1650 H 0.48255 0.30113 0.71168 0.0
H1651 H 0.47473 0.30455 0.68695 0.0
H1652 H 0.50798 0.32954 0.69991 0.0
H1653 H 0.39533 0.33992 0.72234 0.0
H1654 H 0.38874 0.31261 0.70398 0.0
H1655 H 0.39512 0.30907 0.72894 0.0
H1656 H 0.38259 0.24058 0.66887 0.0
H1657 H 0.39877 0.23116 0.72862 0.0
H1658 H 0.43826 0.30834 0.66832 0.0
H1659 H 0.4084 0.31077 0.67353 0.0
H1660 H 0.40437 0.28344 0.65618 0.0
H1661 H 0.45797 0.2967 0.74066 0.0
H1662 H 0.43009 0.26837 0.75098 0.0
H1663 H 0.42852 0.2992 0.74698 0.0
C1664 C 0.65918 0.11018 0.74736 0.0
C1665 C 0.64428 0.12433 0.74616 0.0
C1666 C 0.68444 0.11972 0.73914 0.0
C1667 C 0.69522 0.14421 0.72962 0.0
C1668 C 0.68041 0.15879 0.72855 0.0
C1669 C 0.65502 0.14861 0.73677 0.0
C1670 C 0.69949 0.10348 0.74052 0.0
C1671 C 0.69138 0.18512 0.71871 0.0
C1672 C 0.77273 0.18015 0.72366 0.0
C1673 C 0.77265 0.17081 0.70442 0.0
C1674 C 0.7477 0.17215 0.73192 0.0
C1675 C 0.7219 0.15432 0.7207 0.0
C1676 C 0.72164 0.14525 0.70116 0.0
C1677 C 0.747 0.15366 0.69324 0.0
C1678 C 0.74892 0.1824 0.75277 0.0
C1679 C 0.69458 0.12606 0.68876 0.0
H1680 H 0.65091 0.09142 0.75463 0.0
H1681 H 0.64367 0.15974 0.73589 0.0
H1682 H 0.70196 0.09686 0.72575 0.0
H1683 H 0.72072 0.11675 0.74819 0.0
H1684 H 0.68825 0.0848 0.74834 0.0
H1685 H 0.67761 0.19424 0.71937 0.0
H1686 H 0.7125 0.20065 0.72567 0.0
H1687 H 0.69342 0.18093 0.70326 0.0
H1688 H 0.79239 0.19363 0.73237 0.0
H1689 H 0.74667 0.14627 0.67839 0.0
H1690 H 0.73979 0.16461 0.76162 0.0
H1691 H 0.73632 0.19276 0.75373 0.0
H1692 H 0.77059 0.19716 0.75924 0.0
H1693 H 0.68338 0.10615 0.69523 0.0
H1694 H 0.6979 0.12167 0.67364 0.0
H1695 H 0.68083 0.13521 0.68832 0.0
C1696 C 0.93798 0.57559 0.72482 0.0
C1697 C 0.92625 0.54717 0.71956 0.0
C1698 C 0.92416 0.58969 0.71897 0.0
C1699 C 0.8979 0.57488 0.70771 0.0
C1700 C 0.88631 0.5463 0.70189 0.0
C1701 C 0.90067 0.53277 0.70786 0.0
C1702 C 0.93726 0.62024 0.72535 0.0
C1703 C 0.8583 0.52982 0.68995 0.0
C1704 C 0.85001 0.60459 0.7125 0.0
C1705 C 0.85341 0.61816 0.69563 0.0
C1706 C 0.8639 0.58992 0.71636 0.0
C1707 C 0.88181 0.58896 0.70309 0.0
C1708 C 0.88489 0.60209 0.68581 0.0
C1709 C 0.87052 0.61644 0.68223 0.0
C1710 C 0.85983 0.57591 0.73485 0.0
C1711 C 0.90393 0.6016 0.67139 0.0
H1712 H 0.95777 0.58671 0.73385 0.0
H1713 H 0.89147 0.51076 0.70373 0.0
H1714 H 0.93839 0.63179 0.71262 0.0
H1715 H 0.92412 0.62362 0.7353 0.0
H1716 H 0.95859 0.62907 0.73294 0.0
H1717 H 0.85303 0.50819 0.68559 0.0
H1718 H 0.84179 0.52925 0.69845 0.0
H1719 H 0.85802 0.53989 0.67667 0.0
H1720 H 0.83666 0.60566 0.72286 0.0
H1721 H 0.87333 0.62697 0.6692 0.0
H1722 H 0.87995 0.58536 0.7442 0.0
H1723 H 0.85287 0.55365 0.73144 0.0
H1724 H 0.84425 0.57763 0.74322 0.0
H1725 H 0.92575 0.61234 0.67833 0.0
H1726 H 0.9031 0.61181 0.65827 0.0
H1727 H 0.89821 0.57993 0.66681 0.0
C1728 C 0.44948 0.94491 0.23793 0.0
C1729 C 0.45035 0.92049 0.23994 0.0
C1730 C 0.45639 0.95822 0.22089 0.0
C1731 C 0.46447 0.9469 0.20551 0.0
C1732 C 0.46519 0.92216 0.20739 0.0
C1733 C 0.45806 0.90923 0.22455 0.0
C1734 C 0.45534 0.98456 0.21942 0.0
C1735 C 0.47364 0.90942 0.1913 0.0
C1736 C 0.46006 0.96749 0.15468 0.0
C1737 C 0.48791 0.98752 0.15323 0.0
C1738 C 0.4521 0.95422 0.17164 0.0
C1739 C 0.47248 0.9611 0.18754 0.0
C1740 C 0.50061 0.98135 0.18619 0.0
C1741 C 0.50797 0.99435 0.16906 0.0
C1742 C 0.42188 0.93285 0.17257 0.0
C1743 C 0.52297 0.98912 0.20279 0.0
H1744 H 0.44387 0.95393 0.24984 0.0
H1745 H 0.45837 0.89014 0.22587 0.0
H1746 H 0.47639 0.00188 0.21755 0.0
H1747 H 0.44126 0.98219 0.20645 0.0
H1748 H 0.44796 0.99028 0.23247 0.0
H1749 H 0.47304 0.89006 0.19501 0.0
H1750 H 0.45956 0.90467 0.17779 0.0
H1751 H 0.49508 0.92436 0.18813 0.0
H1752 H 0.4444 0.96239 0.14258 0.0
H1753 H 0.52956 0.00957 0.16794 0.0
H1754 H 0.41369 0.93911 0.18487 0.0
H1755 H 0.42001 0.91263 0.17524 0.0
H1756 H 0.40859 0.92998 0.15899 0.0
H1757 H 0.51752 0.9966 0.21605 0.0
H1758 H 0.5438 0.00549 0.19951 0.0
H1759 H 0.52433 0.97061 0.20612 0.0
C1760 C 0.03184 0.52475 0.25091 0.0
C1761 C 0.05097 0.5164 0.25684 0.0
C1762 C 0.02097 0.52032 0.23137 0.0
C1763 C 0.02926 0.50703 0.21751 0.0
C1764 C 0.04804 0.498 0.22346 0.0
C1765 C 0.05879 0.50295 0.24301 0.0
C1766 C 0.00106 0.53032 0.2255 0.0
C1767 C 0.05725 0.48359 0.20911 0.0
C1768 C 0.98649 0.47373 0.16889 0.0
C1769 C 0.00251 0.49308 0.15633 0.0
C1770 C 0.99449 0.47836 0.18894 0.0
C1771 C 0.01895 0.50306 0.19664 0.0
C1772 C 0.03463 0.52317 0.18418 0.0
C1773 C 0.02629 0.51788 0.16415 0.0
C1774 C 0.97729 0.4564 0.20178 0.0
C1775 C 0.06076 0.54985 0.19191 0.0
H1776 H 0.02548 0.53489 0.26154 0.0
H1777 H 0.07399 0.49693 0.24734 0.0
H1778 H 0.01024 0.54601 0.21503 0.0
H1779 H 0.98131 0.51288 0.21805 0.0
H1780 H 0.99616 0.53968 0.23812 0.0
H1781 H 0.07103 0.47679 0.21625 0.0
H1782 H 0.03881 0.46519 0.20114 0.0
H1783 H 0.06868 0.49775 0.19822 0.0
H1784 H 0.96777 0.45476 0.16299 0.0
H1785 H 0.03894 0.53282 0.15456 0.0
H1786 H 0.97147 0.46557 0.21396 0.0
H1787 H 0.98983 0.4478 0.20824 0.0
H1788 H 0.95795 0.43911 0.19369 0.0
H1789 H 0.05645 0.56045 0.20408 0.0
H1790 H 0.0693 0.56427 0.18056 0.0
H1791 H 0.07698 0.54526 0.1977 0.0
C1792 C 0.46701 0.55186 0.22197 0.0
C1793 C 0.45745 0.53228 0.23549 0.0
C1794 C 0.47256 0.54533 0.20359 0.0
C1795 C 0.46866 0.51861 0.19868 0.0
C1796 C 0.45786 0.49835 0.21197 0.0
C1797 C 0.45225 0.50541 0.23024 0.0
C1798 C 0.48371 0.56742 0.18974 0.0
C1799 C 0.45356 0.4697 0.20729 0.0
C1800 C 0.47011 0.50062 0.14531 0.0
C1801 C 0.49834 0.50867 0.14467 0.0
C1802 C 0.45979 0.50271 0.16291 0.0
C1803 C 0.47809 0.51285 0.18029 0.0
C1804 C 0.50626 0.51972 0.17988 0.0
C1805 C 0.51606 0.51768 0.16209 0.0
C1806 C 0.42963 0.49518 0.16278 0.0
C1807 C 0.52641 0.53048 0.19814 0.0
H1808 H 0.47069 0.57254 0.22595 0.0
H1809 H 0.445 0.49031 0.24075 0.0
H1810 H 0.5055 0.57323 0.18756 0.0
H1811 H 0.47122 0.55941 0.17534 0.0
H1812 H 0.48344 0.58637 0.19516 0.0
H1813 H 0.44236 0.45555 0.21828 0.0
H1814 H 0.44159 0.46056 0.19281 0.0
H1815 H 0.47411 0.47101 0.20669 0.0
H1816 H 0.45614 0.49317 0.13197 0.0
H1817 H 0.53797 0.52431 0.16176 0.0
H1818 H 0.42847 0.51412 0.16658 0.0
H1819 H 0.41956 0.48079 0.17387 0.0
H1820 H 0.41757 0.48538 0.14838 0.0
H1821 H 0.52989 0.55108 0.2037 0.0
H1822 H 0.54691 0.53258 0.19562 0.0
H1823 H 0.51759 0.51643 0.20963 0.0
C1824 C 0.9388 0.46011 0.7989 0.0
C1825 C 0.95276 0.48024 0.78626 0.0
C1826 C 0.94812 0.46476 0.81872 0.0
C1827 C 0.97178 0.49031 0.82615 0.0
C1828 C 0.98518 0.51126 0.81367 0.0
C1829 C 0.97554 0.50594 0.79382 0.0
C1830 C 0.93324 0.44188 0.83155 0.0
C1831 C 0.01029 0.53887 0.82116 0.0
C1832 C 0.98326 0.50555 0.88103 0.0
C1833 C 0.00246 0.49685 0.88589 0.0
C1834 C 0.97373 0.50442 0.86158 0.0
C1835 C 0.98349 0.49417 0.84668 0.0
C1836 C 0.0033 0.48593 0.85147 0.0
C1837 C 0.01262 0.48747 0.871 0.0
C1838 C 0.95269 0.5135 0.857 0.0
C1839 C 0.01416 0.47481 0.83598 0.0
H1840 H 0.92077 0.44044 0.79321 0.0
H1841 H 0.98644 0.52154 0.78411 0.0
H1842 H 0.94755 0.43477 0.83718 0.0
H1843 H 0.92705 0.44968 0.84427 0.0
H1844 H 0.91431 0.4238 0.8237 0.0
H1845 H 0.01663 0.55384 0.81004 0.0
H1846 H 0.00589 0.54797 0.83416 0.0
H1847 H 0.02812 0.53592 0.82566 0.0
H1848 H 0.97514 0.51261 0.89247 0.0
H1849 H 0.02787 0.48125 0.87463 0.0
H1850 H 0.93259 0.4954 0.85062 0.0
H1851 H 0.95993 0.52868 0.84606 0.0
H1852 H 0.94888 0.52299 0.87011 0.0
H1853 H 0.99669 0.45549 0.82812 0.0
H1854 H 0.03029 0.47026 0.84208 0.0
H1855 H 0.02326 0.48995 0.82516 0.0
C1856 C 0.52486 0.48135 0.78808 0.0
C1857 C 0.55111 0.48473 0.78527 0.0
C1858 C 0.51843 0.4859 0.80668 0.0
C1859 C 0.53867 0.49374 0.82283 0.0
C1860 C 0.56531 0.49747 0.82004 0.0
C1861 C 0.57126 0.49304 0.80126 0.0
C1862 C 0.48991 0.48205 0.80906 0.0
C1863 C 0.58733 0.50556 0.83694 0.0
C1864 C 0.53098 0.52705 0.8695 0.0
C1865 C 0.51868 0.50441 0.88047 0.0
C1866 C 0.53744 0.52386 0.85065 0.0
C1867 C 0.53175 0.49745 0.84271 0.0
C1868 C 0.51946 0.47454 0.85378 0.0
C1869 C 0.51291 0.47827 0.87251 0.0
C1870 C 0.55021 0.54868 0.83918 0.0
C1871 C 0.5134 0.44614 0.84589 0.0
H1872 H 0.50935 0.47517 0.7757 0.0
H1873 H 0.59146 0.49535 0.79913 0.0
H1874 H 0.47882 0.46519 0.8184 0.0
H1875 H 0.49195 0.50122 0.81642 0.0
H1876 H 0.47691 0.47687 0.79494 0.0
H1877 H 0.60717 0.50813 0.83226 0.0
H1878 H 0.59168 0.52527 0.84496 0.0
H1879 H 0.57962 0.4895 0.84725 0.0
H1880 H 0.53518 0.54722 0.87558 0.0
H1881 H 0.50365 0.46081 0.88106 0.0
H1882 H 0.53675 0.54453 0.82545 0.0
H1883 H 0.5708 0.55258 0.83519 0.0
H1884 H 0.55307 0.56772 0.84739 0.0
H1885 H 0.49887 0.439 0.83238 0.0
H1886 H 0.50404 0.43056 0.85644 0.0
H1887 H 0.53293 0.44705 0.8421 0.0
C1888 C 0.55555 0.09171 0.81937 0.0
C1889 C 0.53702 0.07832 0.80255 0.0
C1890 C 0.54945 0.0806 0.83727 0.0
C1891 C 0.52443 0.05532 0.83826 0.0
C1892 C 0.50614 0.04127 0.82116 0.0
C1893 C 0.51256 0.05305 0.80353 0.0
C1894 C 0.56932 0.09636 0.85522 0.0
C1895 C 0.47949 0.01406 0.82155 0.0
C1896 C 0.51748 0.01523 0.8821 0.0
C1897 C 0.5007 0.02186 0.8929 0.0
C1898 C 0.52545 0.02601 0.86429 0.0
C1899 C 0.51674 0.04414 0.8573 0.0
C1900 C 0.50017 0.05124 0.86833 0.0
C1901 C 0.49218 0.03985 0.88593 0.0
C1902 C 0.54279 0.01766 0.85282 0.0
C1903 C 0.49079 0.07081 0.86151 0.0
H1904 H 0.57435 0.11138 0.81865 0.0
H1905 H 0.49834 0.04257 0.79048 0.0
H1906 H 0.55873 0.1028 0.86564 0.0
H1907 H 0.57559 0.08287 0.86258 0.0
H1908 H 0.58841 0.11512 0.85186 0.0
H1909 H 0.46841 0.00496 0.8068 0.0
H1910 H 0.48405 -0.00103 0.82824 0.0
H1911 H 0.46531 0.01717 0.83061 0.0
H1912 H 0.52388 0.00113 0.88739 0.0
H1913 H 0.47948 0.04525 0.89438 0.0
H1914 H 0.56243 0.03631 0.85014 0.0
H1915 H 0.53127 0.00704 0.83844 0.0
H1916 H 0.54811 0.00361 0.86039 0.0
H1917 H 0.50917 0.09081 0.85906 0.0
H1918 H 0.47876 0.07493 0.87209 0.0
H1919 H 0.47755 0.062 0.84744 0.0
C1920 C 0.11254 0.23509 0.55287 0.0
C1921 C 0.10315 0.2457 0.56755 0.0
C1922 C 0.11941 0.24749 0.53549 0.0
C1923 C 0.11691 0.27112 0.53276 0.0
C1924 C 0.10691 0.28159 0.54736 0.0
C1925 C 0.1001 0.26873 0.56458 0.0
C1926 C 0.1298 0.23559 0.52019 0.0
C1927 C 0.10408 0.30683 0.54502 0.0
C1928 C 0.16202 0.31993 0.49759 0.0
C1929 C 0.14297 0.31251 0.48101 0.0
C1930 C 0.15376 0.30673 0.51454 0.0
C1931 C 0.12577 0.28549 0.51493 0.0
C1932 C 0.10639 0.2779 0.49828 0.0
C1933 C 0.11521 0.29153 0.48154 0.0
C1934 C 0.17505 0.3154 0.532 0.0
C1935 C 0.07636 0.25536 0.49815 0.0
H1936 H 0.11459 0.21708 0.55501 0.0
H1937 H 0.09314 0.27719 0.57597 0.0
H1938 H 0.11677 0.23065 0.50614 0.0
H1939 H 0.15147 0.25113 0.51789 0.0
H1940 H 0.12953 0.2165 0.52424 0.0
H1941 H 0.09485 0.31164 0.55736 0.0
H1942 H 0.12489 0.32505 0.54392 0.0
H1943 H 0.09082 0.30367 0.53138 0.0
H1944 H 0.18359 0.33582 0.49722 0.0
H1945 H 0.10026 0.28593 0.46888 0.0
H1946 H 0.17729 0.29753 0.53581 0.0
H1947 H 0.16792 0.3221 0.54473 0.0
H1948 H 0.19586 0.3326 0.52945 0.0
H1949 H 0.07537 0.23566 0.5013 0.0
H1950 H 0.06394 0.25184 0.484 0.0
H1951 H 0.06654 0.26084 0.50973 0.0
C1952 C 0.74161 0.8483 0.57459 0.0
C1953 C 0.73232 0.85999 0.58863 0.0
C1954 C 0.73134 0.84402 0.55497 0.0
C1955 C 0.71131 0.85162 0.54926 0.0
C1956 C 0.70219 0.86386 0.5633 0.0
C1957 C 0.71284 0.86791 0.58284 0.0
C1958 C 0.74166 0.83104 0.54038 0.0
C1959 C 0.68081 0.87215 0.55772 0.0
C1960 C 0.70112 0.85946 0.49583 0.0
C1961 C 0.67764 0.83374 0.48923 0.0
C1962 C 0.71211 0.86577 0.51542 0.0
C1963 C 0.69926 0.84587 0.52867 0.0
C1964 C 0.67531 0.82004 0.52215 0.0
C1965 C 0.66481 0.81427 0.5025 0.0
C1966 C 0.73764 0.89357 0.52189 0.0
C1967 C 0.66108 0.79827 0.53586 0.0
H1968 H 0.75702 0.84258 0.57897 0.0
H1969 H 0.70544 0.87674 0.59368 0.0
H1970 H 0.72397 0.81114 0.53339 0.0
H1971 H 0.75054 0.84478 0.52874 0.0
H1972 H 0.75783 0.827 0.54713 0.0
H1973 H 0.67678 0.88246 0.57026 0.0
H1974 H 0.68791 0.88643 0.5462 0.0
H1975 H 0.66087 0.85356 0.5517 0.0
H1976 H 0.7109 0.87471 0.48567 0.0
H1977 H 0.64691 0.7942 0.49744 0.0
H1978 H 0.75498 0.8906 0.52769 0.0
H1979 H 0.73323 0.90446 0.53381 0.0
H1980 H 0.74469 0.90702 0.50986 0.0
H1981 H 0.6757 0.79177 0.54192 0.0
H1982 H 0.64206 0.77964 0.52862 0.0
H1983 H 0.65516 0.80695 0.54826 0.0
C1984 C 0.16477 0.87038 0.57327 0.0
C1985 C 0.13798 0.86593 0.57563 0.0
C1986 C 0.17224 0.8668 0.55486 0.0
C1987 C 0.15238 0.85835 0.53841 0.0
C1988 C 0.12495 0.85269 0.54076 0.0
C1989 C 0.11809 0.85662 0.55936 0.0
C1990 C 0.20169 0.87299 0.55294 0.0
C1991 C 0.10316 0.84346 0.52356 0.0
C1992 C 0.18088 0.87972 0.49014 0.0
C1993 C 0.17948 0.85549 0.48196 0.0
C1994 C 0.17179 0.88079 0.50841 0.0
C1995 C 0.16086 0.85698 0.51866 0.0
C1996 C 0.15892 0.8323 0.51033 0.0
C1997 C 0.16838 0.83189 0.49209 0.0
C1998 C 0.17441 0.90757 0.51689 0.0
C1999 C 0.1471 0.80644 0.52075 0.0
H2000 H 0.18008 0.87714 0.58584 0.0
H2001 H 0.09744 0.8534 0.56105 0.0
H2002 H 0.20144 0.85496 0.54516 0.0
H2003 H 0.21224 0.89075 0.54421 0.0
H2004 H 0.21421 0.87809 0.56726 0.0
H2005 H 0.08224 0.8377 0.52802 0.0
H2006 H 0.10932 0.8604 0.51401 0.0
H2007 H 0.10165 0.82543 0.51482 0.0
H2008 H 0.18969 0.89807 0.48242 0.0
H2009 H 0.16693 0.81301 0.48568 0.0
H2010 H 0.18847 0.91515 0.53066 0.0
H2011 H 0.15376 0.90407 0.52041 0.0
H2012 H 0.18277 0.92401 0.50685 0.0
H2013 H 0.16014 0.81041 0.53466 0.0
H2014 H 0.1461 0.78865 0.51197 0.0
H2015 H 0.1258 0.80059 0.52434 0.0
C2016 C 0.60355 0.80944 0.1365 0.0
C2017 C 0.61638 0.80266 0.12208 0.0
C2018 C 0.61374 0.81371 0.15615 0.0
C2019 C 0.6372 0.81094 0.16151 0.0
C2020 C 0.65066 0.80475 0.147 0.0
C2021 C 0.64013 0.80076 0.12745 0.0
C2022 C 0.59892 0.8204 0.17123 0.0
C2023 C 0.67577 0.80166 0.15218 0.0
C2024 C 0.67657 0.84106 0.2116 0.0
C2025 C 0.66542 0.81757 0.22184 0.0
C2026 C 0.66751 0.83927 0.19195 0.0
C2027 C 0.64693 0.81333 0.18234 0.0
C2028 C 0.63558 0.78955 0.19261 0.0
C2029 C 0.64492 0.79198 0.21227 0.0
C2030 C 0.67988 0.8651 0.18149 0.0
C2031 C 0.61373 0.76149 0.18279 0.0
H2032 H 0.58496 0.81056 0.1325 0.0
H2033 H 0.65036 0.7959 0.11634 0.0
H2034 H 0.58961 0.80326 0.18061 0.0
H2035 H 0.61397 0.83938 0.18075 0.0
H2036 H 0.58208 0.82356 0.16459 0.0
H2037 H 0.68444 0.79782 0.13912 0.0
H2038 H 0.69237 0.82061 0.16097 0.0
H2039 H 0.66991 0.78415 0.16117 0.0
H2040 H 0.69221 0.86094 0.21903 0.0
H2041 H 0.63651 0.77372 0.22009 0.0
H2042 H 0.66313 0.86894 0.17569 0.0
H2043 H 0.68993 0.86228 0.16892 0.0
H2044 H 0.69563 0.8837 0.19109 0.0
H2045 H 0.59515 0.76234 0.17687 0.0
H2046 H 0.60702 0.74507 0.19285 0.0
H2047 H 0.622 0.75558 0.17038 0.0
C2048 C 0.24177 0.83714 0.13931 0.0
C2049 C 0.2211 0.82381 0.12354 0.0
C2050 C 0.23512 0.84272 0.15757 0.0
C2051 C 0.20709 0.8346 0.16016 0.0
C2052 C 0.18619 0.82151 0.14426 0.0
C2053 C 0.19346 0.81637 0.12612 0.0
C2054 C 0.25801 0.85683 0.17419 0.0
C2055 C 0.15607 0.81254 0.14647 0.0
C2056 C 0.18595 0.82362 0.21131 0.0
C2057 C 0.18633 0.84832 0.21697 0.0
C2058 C 0.19239 0.81878 0.19278 0.0
C2059 C 0.19955 0.8392 0.17965 0.0
C2060 C 0.1998 0.86409 0.1852 0.0
C2061 C 0.1931 0.86831 0.20378 0.0
C2062 C 0.19183 0.79194 0.18735 0.0
C2063 C 0.20736 0.88634 0.17158 0.0
H2064 H 0.2631 0.84261 0.13751 0.0
H2065 H 0.17745 0.80643 0.11393 0.0
H2066 H 0.25842 0.87569 0.18061 0.0
H2067 H 0.25385 0.84281 0.1858 0.0
H2068 H 0.2789 0.86283 0.16958 0.0
H2069 H 0.14243 0.80311 0.13257 0.0
H2070 H 0.14823 0.79721 0.15729 0.0
H2071 H 0.15426 0.83054 0.152 0.0
H2072 H 0.18112 0.80824 0.22151 0.0
H2073 H 0.19304 0.88727 0.20794 0.0
H2074 H 0.21287 0.79629 0.18414 0.0
H2075 H 0.17738 0.781 0.17398 0.0
H2076 H 0.18516 0.7779 0.19906 0.0
H2077 H 0.22875 0.89358 0.16755 0.0
H2078 H 0.20642 0.90445 0.17809 0.0
H2079 H 0.19299 0.8778 0.15796 0.0
C2080 C 0.18491 0.3852 0.1349 0.0
C2081 C 0.20967 0.41042 0.13453 0.0
C2082 C 0.17776 0.37265 0.15219 0.0
C2083 C 0.19565 0.38584 0.16958 0.0
C2084 C 0.22099 0.41104 0.16921 0.0
C2085 C 0.22779 0.42296 0.15163 0.0
C2086 C 0.15076 0.34558 0.15193 0.0
C2087 C 0.24045 0.42587 0.18749 0.0
C2088 C 0.16118 0.36855 0.21629 0.0
C2089 C 0.16862 0.34961 0.2229 0.0
C2090 C 0.17035 0.38092 0.19918 0.0
C2091 C 0.18709 0.37392 0.18828 0.0
C2092 C 0.19486 0.35496 0.19496 0.0
C2093 C 0.18567 0.34315 0.21229 0.0
C2094 C 0.16193 0.40134 0.19268 0.0
C2095 C 0.21239 0.34673 0.18361 0.0
H2096 H 0.17103 0.37536 0.12163 0.0
H2097 H 0.24684 0.44258 0.15139 0.0
H2098 H 0.15476 0.32997 0.15836 0.0
H2099 H 0.13646 0.34859 0.16091 0.0
H2100 H 0.14007 0.33717 0.13701 0.0
H2101 H 0.25995 0.44456 0.18458 0.0
H2102 H 0.22981 0.43227 0.19788 0.0
H2103 H 0.24601 0.41176 0.19466 0.0
H2104 H 0.14831 0.37385 0.22462 0.0
H2105 H 0.19128 0.32836 0.21731 0.0
H2106 H 0.14908 0.39331 0.17842 0.0
H2107 H 0.18074 0.42127 0.19072 0.0
H2108 H 0.1498 0.40539 0.20321 0.0
H2109 H 0.20126 0.33663 0.16905 0.0
H2110 H 0.21721 0.33225 0.19104 0.0
H2111 H 0.23229 0.36538 0.18135 0.0
C2112 C 0.78883 0.57286 0.88992 0.0
C2113 C 0.78209 0.58441 0.90572 0.0
C2114 C 0.79556 0.58586 0.87277 0.0
C2115 C 0.79553 0.61103 0.87136 0.0
C2116 C 0.78855 0.6227 0.88719 0.0
C2117 C 0.7819 0.60924 0.90418 0.0
C2118 C 0.80277 0.57271 0.85618 0.0
C2119 C 0.78839 0.64955 0.88623 0.0
C2120 C 0.83841 0.65737 0.83424 0.0
C2121 C 0.81793 0.65112 0.81881 0.0
C2122 C 0.83136 0.64469 0.85151 0.0
C2123 C 0.80315 0.62526 0.85338 0.0
C2124 C 0.78234 0.61902 0.83794 0.0
C2125 C 0.78997 0.63203 0.82084 0.0
C2126 C 0.85416 0.65181 0.86764 0.0
C2127 C 0.75203 0.59847 0.83943 0.0
H2128 H 0.78861 0.55346 0.89092 0.0
H2129 H 0.777 0.61841 0.91641 0.0
H2130 H 0.7883 0.56845 0.84299 0.0
H2131 H 0.82416 0.58717 0.85266 0.0
H2132 H 0.80165 0.553 0.85956 0.0
H2133 H 0.78198 0.65561 0.89966 0.0
H2134 H 0.80949 0.66642 0.88398 0.0
H2135 H 0.77392 0.64768 0.87368 0.0
H2136 H 0.86009 0.67181 0.83268 0.0
H2137 H 0.77399 0.6274 0.80908 0.0
H2138 H 0.85515 0.63298 0.87056 0.0
H2139 H 0.84948 0.6594 0.88123 0.0
H2140 H 0.87496 0.6679 0.86409 0.0
H2141 H 0.7495 0.5779 0.84174 0.0
H2142 H 0.73836 0.59618 0.82621 0.0
H2143 H 0.74482 0.6051 0.85215 0.0
C2144 C 0.40159 0.18165 0.91373 0.0
C2145 C 0.38673 0.18724 0.92715 0.0
C2146 C 0.39347 0.17791 0.89374 0.0
C2147 C 0.36981 0.17965 0.88705 0.0
C2148 C 0.35471 0.1853 0.90052 0.0
C2149 C 0.36345 0.18916 0.92045 0.0
C2150 C 0.41025 0.17219 0.87979 0.0
C2151 C 0.32925 0.18709 0.89389 0.0
C2152 C 0.36273 0.1939 0.83478 0.0
C2153 C 0.34435 0.1672 0.82574 0.0
C2154 C 0.37121 0.19828 0.85476 0.0
C2155 C 0.36083 0.1754 0.86593 0.0
C2156 C 0.34217 0.14841 0.85688 0.0
C2157 C 0.33425 0.14462 0.83685 0.0
C2158 C 0.39141 0.22731 0.86389 0.0
C2159 C 0.33051 0.12357 0.86837 0.0
H2160 H 0.41987 0.18059 0.91888 0.0
H2161 H 0.35185 0.19332 0.93083 0.0
H2162 H 0.39677 0.15197 0.87105 0.0
H2163 H 0.41816 0.18829 0.86952 0.0
H2164 H 0.42827 0.17177 0.88737 0.0
H2165 H 0.31984 0.19162 0.90623 0.0
H2166 H 0.33485 0.20355 0.88397 0.0
H2167 H 0.31331 0.16727 0.88561 0.0
H2168 H 0.37073 0.21134 0.82615 0.0
H2169 H 0.31976 0.124 0.8299 0.0
H2170 H 0.41054 0.22825 0.87071 0.0
H2171 H 0.38197 0.23316 0.87556 0.0
H2172 H 0.39748 0.24284 0.85316 0.0
H2173 H 0.34776 0.12136 0.87536 0.0
H2174 H 0.31589 0.10403 0.85918 0.0
H2175 H 0.31933 0.12653 0.88015 0.0
C2176 C 0.79004 0.17151 0.89947 0.0
C2177 C 0.79304 0.19777 0.90351 0.0
C2178 C 0.79502 0.16354 0.88124 0.0
C2179 C 0.80295 0.18224 0.86681 0.0
C2180 C 0.80458 0.2082 0.87056 0.0
C2181 C 0.79968 0.21566 0.88888 0.0
C2182 C 0.79311 0.13572 0.87777 0.0
C2183 C 0.81265 0.22863 0.85549 0.0
C2184 C 0.84945 0.1834 0.82886 0.0
C2185 C 0.83059 0.17227 0.81199 0.0
C2186 C 0.8404 0.18524 0.84701 0.0
C2187 C 0.81181 0.17596 0.84832 0.0
C2188 C 0.79243 0.16345 0.83155 0.0
C2189 C 0.80205 0.16169 0.81357 0.0
C2190 C 0.86173 0.1986 0.86459 0.0
C2191 C 0.76178 0.15325 0.83238 0.0
H2192 H 0.78499 0.15771 0.91082 0.0
H2193 H 0.80158 0.23581 0.89193 0.0
H2194 H 0.78053 0.12467 0.86376 0.0
H2195 H 0.81431 0.13875 0.87682 0.0
H2196 H 0.78371 0.12242 0.88958 0.0
H2197 H 0.81099 0.24704 0.86023 0.0
H2198 H 0.83448 0.23578 0.85252 0.0
H2199 H 0.79916 0.21856 0.84163 0.0
H2200 H 0.87156 0.19195 0.8278 0.0
H2201 H 0.78726 0.1526 0.80067 0.0
H2202 H 0.85485 0.18552 0.87679 0.0
H2203 H 0.86382 0.21888 0.86945 0.0
H2204 H 0.88257 0.2021 0.86153 0.0
H2205 H 0.75394 0.1401 0.84446 0.0
H2206 H 0.74906 0.14121 0.81861 0.0
H2207 H 0.75865 0.17121 0.83525 0.0
C2208 C 0.28829 0.17122 0.4653 0.0
C2209 C 0.2978 0.15681 0.45376 0.0
C2210 C 0.29643 0.17747 0.48536 0.0
C2211 C 0.31408 0.16868 0.49408 0.0
C2212 C 0.32483 0.15536 0.48238 0.0
C2213 C 0.31676 0.14982 0.46235 0.0
C2214 C 0.28496 0.19217 0.49733 0.0
C2215 C 0.34361 0.14552 0.49115 0.0
C2216 C 0.34903 0.19325 0.54578 0.0
C2217 C 0.33095 0.17111 0.5557 0.0
C2218 C 0.34319 0.19345 0.5258 0.0
C2219 C 0.31905 0.17071 0.51556 0.0
C2220 C 0.30036 0.1487 0.52566 0.0
C2221 C 0.30646 0.14928 0.54564 0.0
C2222 C 0.36325 0.21754 0.51557 0.0
C2223 C 0.27457 0.12389 0.51522 0.0
H2224 H 0.27347 0.17653 0.45885 0.0
H2225 H 0.32469 0.13925 0.45345 0.0
H2226 H 0.26919 0.17733 0.50612 0.0
H2227 H 0.30178 0.20902 0.50758 0.0
H2228 H 0.27492 0.20112 0.48813 0.0
H2229 H 0.35164 0.13716 0.47992 0.0
H2230 H 0.3616 0.16272 0.5004 0.0
H2231 H 0.33189 0.12901 0.5006 0.0
H2232 H 0.36789 0.21022 0.55361 0.0
H2233 H 0.29265 0.13197 0.55325 0.0
H2234 H 0.3518 0.22538 0.50668 0.0
H2235 H 0.37387 0.21061 0.50553 0.0
H2236 H 0.37939 0.23486 0.52592 0.0
H2237 H 0.26157 0.13064 0.50699 0.0
H2238 H 0.26163 0.10907 0.52534 0.0
H2239 H 0.28071 0.11285 0.50457 0.0
C2240 C 0.91169 0.17232 0.47254 0.0
C2241 C 0.89062 0.15537 0.45767 0.0
C2242 C 0.9051 0.17899 0.49053 0.0
C2243 C 0.87679 0.16841 0.49368 0.0
C2244 C 0.85549 0.15218 0.47846 0.0
C2245 C 0.86268 0.1459 0.46063 0.0
C2246 C 0.92838 0.19642 0.5064 0.0
C2247 C 0.82506 0.14062 0.48123 0.0
C2248 C 0.8569 0.15712 0.54504 0.0
C2249 C 0.85325 0.17972 0.54997 0.0
C2250 C 0.86485 0.1534 0.52684 0.0
C2251 C 0.86927 0.17277 0.51322 0.0
C2252 C 0.86586 0.19576 0.51814 0.0
C2253 C 0.85784 0.19895 0.53646 0.0
C2254 C 0.86814 0.12852 0.52209 0.0
C2255 C 0.87056 0.2169 0.50402 0.0
H2256 H 0.9333 0.1795 0.47038 0.0
H2257 H 0.84635 0.13315 0.44906 0.0
H2258 H 0.92612 0.2139 0.51252 0.0
H2259 H 0.92722 0.1837 0.51841 0.0
H2260 H 0.9493 0.20491 0.50114 0.0
H2261 H 0.81117 0.12975 0.46761 0.0
H2262 H 0.81917 0.12579 0.49241 0.0
H2263 H 0.82134 0.15749 0.48654 0.0
H2264 H 0.85304 0.14202 0.55533 0.0
H2265 H 0.85538 0.21664 0.5403 0.0
H2266 H 0.88944 0.13532 0.51803 0.0
H2267 H 0.8532 0.11534 0.50942 0.0
H2268 H 0.8645 0.11574 0.53445 0.0
H2269 H 0.892 0.226 0.49965 0.0
H2270 H 0.86758 0.2339 0.51023 0.0
H2271 H 0.85591 0.20672 0.49064 0.0
C2272 C 0.88929 0.73213 0.47551 0.0
C2273 C 0.88377 0.75362 0.47239 0.0
C2274 C 0.88338 0.7192 0.49278 0.0
C2275 C 0.87182 0.72809 0.50725 0.0
C2276 C 0.86721 0.75047 0.50444 0.0
C2277 C 0.87322 0.76292 0.48705 0.0
C2278 C 0.88855 0.6954 0.49525 0.0
C2279 C 0.85513 0.76074 0.51955 0.0
C2280 C 0.82606 0.67853 0.54176 0.0
C2281 C 0.84398 0.6876 0.55908 0.0
C2282 C 0.83519 0.69094 0.52464 0.0
C2283 C 0.86289 0.71307 0.52483 0.0
C2284 C 0.88134 0.72185 0.54211 0.0
C2285 C 0.87167 0.709 0.55903 0.0
C2286 C 0.81484 0.68098 0.50652 0.0
C2287 C 0.91104 0.74533 0.54287 0.0
H2288 H 0.89731 0.72479 0.46417 0.0
H2289 H 0.86937 0.77984 0.48483 0.0
H2290 H 0.90106 0.6989 0.50933 0.0
H2291 H 0.86835 0.676 0.49547 0.0
H2292 H 0.8996 0.69241 0.48338 0.0
H2293 H 0.85427 0.77931 0.5156 0.0
H2294 H 0.83368 0.74415 0.52137 0.0
H2295 H 0.86776 0.76595 0.53381 0.0
H2296 H 0.80454 0.6623 0.54171 0.0
H2297 H 0.88577 0.71586 0.57228 0.0
H2298 H 0.82385 0.67588 0.49419 0.0
H2299 H 0.81079 0.69771 0.5025 0.0
H2300 H 0.79462 0.66241 0.50843 0.0
H2301 H 0.9217 0.74124 0.53121 0.0
H2302 H 0.92322 0.74854 0.55708 0.0
H2303 H 0.91115 0.7648 0.54031 0.0
loop_
_geom_bond_atom_site_label_1
_geom_bond_atom_site_label_2
_geom_bond_distance
_geom_bond_site_symmetry_2
_ccdc_geom_bond_type
H0 C5 0.930 . S
H1 C8 0.930 . S
H2 C10 0.930 . S
H3 C4 1.016 . S
C4 H3 1.016 . S
C4 N11 1.286 . S
C5 H0 0.930 . S
C5 C6 1.397 . S
C5 C7 1.361 . S
C6 C5 1.397 . S
C6 C10 1.390 . S
C7 C5 1.361 . S
C7 C8 1.393 . S
C7 N11 1.413 . S
C8 H1 0.930 . S
C8 C7 1.393 . S
C8 C9 1.399 . S
C9 C8 1.399 . S
C9 C10 1.381 . S
C10 H2 0.930 . S
C10 C6 1.390 . S
C10 C9 1.381 . S
N11 C4 1.286 . S
N11 C7 1.413 . S
H12 C17 0.930 . S
H13 C20 0.930 . S
H14 C22 0.930 . S
H15 C16 1.016 . S
C16 H15 1.016 . S
C16 N23 1.286 . S
C17 H12 0.930 . S
C17 C18 1.397 . S
C17 C19 1.361 . S
C18 C17 1.397 . S
C18 C22 1.390 . S
C19 C17 1.361 . S
C19 C20 1.393 . S
C19 N23 1.413 . S
C20 H13 0.930 . S
C20 C19 1.393 . S
C20 C21 1.399 . S
C21 C20 1.399 . S
C21 C22 1.381 . S
C22 H14 0.930 . S
C22 C18 1.390 . S
C22 C21 1.381 . S
N23 C16 1.286 . S
N23 C19 1.413 . S
H24 C29 0.930 . S
H25 C32 0.930 . S
H26 C34 0.930 . S
H27 C28 1.016 . S
C28 H27 1.016 . S
C28 N35 1.286 . S
C29 H24 0.930 . S
C29 C30 1.397 . S
C29 C31 1.361 . S
C30 C29 1.397 . S
C30 C34 1.390 . S
C31 C29 1.361 . S
C31 C32 1.393 . S
C31 N35 1.413 . S
C32 H25 0.930 . S
C32 C31 1.393 . S
C32 C33 1.399 . S
C33 C32 1.399 . S
C33 C34 1.381 . S
C34 H26 0.930 . S
C34 C30 1.390 . S
C34 C33 1.381 . S
N35 C28 1.286 . S
N35 C31 1.413 . S
H36 C41 0.930 . S
H37 C44 0.930 . S
H38 C46 0.930 . S
H39 C40 1.016 . S
C40 H39 1.016 . S
C40 N47 1.286 . S
C41 H36 0.930 . S
C41 C42 1.397 . S
C41 C43 1.361 . S
C42 C41 1.397 . S
C42 C46 1.390 . S
C43 C41 1.361 . S
C43 C44 1.393 . S
C43 N47 1.413 . S
C44 H37 0.930 . S
C44 C43 1.393 . S
C44 C45 1.399 . S
C45 C44 1.399 . S
C45 C46 1.381 . S
C46 H38 0.930 . S
C46 C42 1.390 . S
C46 C45 1.381 . S
N47 C40 1.286 . S
N47 C43 1.413 . S
H48 C53 0.930 . S
H49 C56 0.930 . S
H50 C58 0.930 . S
H51 C52 1.016 . S
C52 H51 1.016 . S
C52 N59 1.286 . S
C53 H48 0.930 . S
C53 C54 1.397 . S
C53 C55 1.361 . S
C54 C53 1.397 . S
C54 C58 1.390 . S
C55 C53 1.361 . S
C55 C56 1.393 . S
C55 N59 1.413 . S
C56 H49 0.930 . S
C56 C55 1.393 . S
C56 C57 1.399 . S
C57 C56 1.399 . S
C57 C58 1.381 . S
C58 H50 0.930 . S
C58 C54 1.390 . S
C58 C57 1.381 . S
N59 C52 1.286 . S
N59 C55 1.413 . S
H60 C65 0.930 . S
H61 C68 0.930 . S
H62 C70 0.930 . S
H63 C64 1.016 . S
C64 H63 1.016 . S
C64 N71 1.286 . S
C65 H60 0.930 . S
C65 C66 1.397 . S
C65 C67 1.361 . S
C66 C65 1.397 . S
C66 C70 1.390 . S
C67 C65 1.361 . S
C67 C68 1.393 . S
C67 N71 1.413 . S
C68 H61 0.930 . S
C68 C67 1.393 . S
C68 C69 1.399 . S
C69 C68 1.399 . S
C69 C70 1.381 . S
C70 H62 0.930 . S
C70 C66 1.390 . S
C70 C69 1.381 . S
N71 C64 1.286 . S
N71 C67 1.413 . S
H72 C77 0.930 . S
H73 C80 0.930 . S
H74 C82 0.930 . S
H75 C76 1.016 . S
C76 H75 1.016 . S
C76 N83 1.286 . S
C77 H72 0.930 . S
C77 C78 1.397 . S
C77 C79 1.361 . S
C78 C77 1.397 . S
C78 C82 1.390 . S
C79 C77 1.361 . S
C79 C80 1.393 . S
C79 N83 1.413 . S
C80 H73 0.930 . S
C80 C79 1.393 . S
C80 C81 1.399 . S
C81 C80 1.399 . S
C81 C82 1.381 . S
C82 H74 0.930 . S
C82 C78 1.390 . S
C82 C81 1.381 . S
N83 C76 1.286 . S
N83 C79 1.413 . S
H84 C89 0.930 . S
H85 C92 0.930 . S
H86 C94 0.930 . S
H87 C88 1.016 . S
C88 H87 1.016 . S
C88 N95 1.286 . S
C89 H84 0.930 . S
C89 C90 1.397 . S
C89 C91 1.361 . S
C90 C89 1.397 . S
C90 C94 1.390 . S
C91 C89 1.361 . S
C91 C92 1.393 . S
C91 N95 1.413 . S
C92 H85 0.930 . S
C92 C91 1.393 . S
C92 C93 1.399 . S
C93 C92 1.399 . S
C93 C94 1.381 . S
C94 H86 0.930 . S
C94 C90 1.390 . S
C94 C93 1.381 . S
N95 C88 1.286 . S
N95 C91 1.413 . S
H96 C101 0.930 . S
H97 C104 0.930 . S
H98 C106 0.930 . S
H99 C100 1.016 . S
C100 H99 1.016 . S
C100 N107 1.286 . S
C101 H96 0.930 . S
C101 C102 1.397 . S
C101 C103 1.361 . S
C102 C101 1.397 . S
C102 C106 1.390 . S
C103 C101 1.361 . S
C103 C104 1.393 . S
C103 N107 1.413 . S
C104 H97 0.930 . S
C104 C103 1.393 . S
C104 C105 1.399 . S
C105 C104 1.399 . S
C105 C106 1.381 . S
C106 H98 0.930 . S
C106 C102 1.390 . S
C106 C105 1.381 . S
N107 C100 1.286 . S
N107 C103 1.413 . S
H108 C113 0.930 . S
H109 C116 0.930 . S
H110 C118 0.930 . S
H111 C112 1.016 . S
C112 H111 1.016 . S
C112 N119 1.286 . S
C113 H108 0.930 . S
C113 C114 1.397 . S
C113 C115 1.361 . S
C114 C113 1.397 . S
C114 C118 1.390 . S
C115 C113 1.361 . S
C115 C116 1.393 . S
C115 N119 1.413 . S
C116 H109 0.930 . S
C116 C115 1.393 . S
C116 C117 1.399 . S
C117 C116 1.399 . S
C117 C118 1.381 . S
C118 H110 0.930 . S
C118 C114 1.390 . S
C118 C117 1.381 . S
N119 C112 1.286 . S
N119 C115 1.413 . S
H120 C125 0.930 . S
H121 C128 0.930 . S
H122 C130 0.930 . S
H123 C124 1.016 . S
C124 H123 1.016 . S
C124 N131 1.286 . S
C125 H120 0.930 . S
C125 C126 1.397 . S
C125 C127 1.361 . S
C126 C125 1.397 . S
C126 C130 1.390 . S
C127 C125 1.361 . S
C127 C128 1.393 . S
C127 N131 1.413 . S
C128 H121 0.930 . S
C128 C127 1.393 . S
C128 C129 1.399 . S
C129 C128 1.399 . S
C129 C130 1.381 . S
C130 H122 0.930 . S
C130 C126 1.390 . S
C130 C129 1.381 . S
N131 C124 1.286 . S
N131 C127 1.413 . S
H132 C137 0.930 . S
H133 C140 0.930 . S
H134 C142 0.930 . S
H135 C136 1.016 . S
C136 H135 1.016 . S
C136 N143 1.286 . S
C137 H132 0.930 . S
C137 C138 1.397 . S
C137 C139 1.361 . S
C138 C137 1.397 . S
C138 C142 1.390 . S
C139 C137 1.361 . S
C139 C140 1.393 . S
C139 N143 1.413 . S
C140 H133 0.930 . S
C140 C139 1.393 . S
C140 C141 1.399 . S
C141 C140 1.399 . S
C141 C142 1.381 . S
C142 H134 0.930 . S
C142 C138 1.390 . S
C142 C141 1.381 . S
N143 C136 1.286 . S
N143 C139 1.413 . S
H144 C149 0.930 . S
H145 C152 0.930 . S
H146 C154 0.930 . S
H147 C148 1.016 . S
C148 H147 1.016 . S
C148 N155 1.286 . S
C149 H144 0.930 . S
C149 C150 1.397 . S
C149 C151 1.361 . S
C150 C149 1.397 . S
C150 C154 1.390 . S
C151 C149 1.361 . S
C151 C152 1.393 . S
C151 N155 1.413 . S
C152 H145 0.930 . S
C152 C151 1.393 . S
C152 C153 1.399 . S
C153 C152 1.399 . S
C153 C154 1.381 . S
C154 H146 0.930 . S
C154 C150 1.390 . S
C154 C153 1.381 . S
N155 C148 1.286 . S
N155 C151 1.413 . S
H156 C161 0.930 . S
H157 C164 0.930 . S
H158 C166 0.930 . S
H159 C160 1.016 . S
C160 H159 1.016 . S
C160 N167 1.286 . S
C161 H156 0.930 . S
C161 C162 1.397 . S
C161 C163 1.361 . S
C162 C161 1.397 . S
C162 C166 1.390 . S
C163 C161 1.361 . S
C163 C164 1.393 . S
C163 N167 1.413 . S
C164 H157 0.930 . S
C164 C163 1.393 . S
C164 C165 1.399 . S
C165 C164 1.399 . S
C165 C166 1.381 . S
C166 H158 0.930 . S
C166 C162 1.390 . S
C166 C165 1.381 . S
N167 C160 1.286 . S
N167 C163 1.413 . S
H168 C173 0.930 . S
H169 C176 0.930 . S
H170 C178 0.930 . S
H171 C172 1.016 . S
C172 H171 1.016 . S
C172 N179 1.286 . S
C173 H168 0.930 . S
C173 C174 1.397 . S
C173 C175 1.361 . S
C174 C173 1.397 . S
C174 C178 1.390 . S
C175 C173 1.361 . S
C175 C176 1.393 . S
C175 N179 1.413 . S
C176 H169 0.930 . S
C176 C175 1.393 . S
C176 C177 1.399 . S
C177 C176 1.399 . S
C177 C178 1.381 . S
C178 H170 0.930 . S
C178 C174 1.390 . S
C178 C177 1.381 . S
N179 C172 1.286 . S
N179 C175 1.413 . S
H180 C185 0.930 . S
H181 C188 0.930 . S
H182 C190 0.930 . S
H183 C184 1.016 . S
C184 H183 1.016 . S
C184 N191 1.286 . S
C185 H180 0.930 . S
C185 C186 1.397 . S
C185 C187 1.361 . S
C186 C185 1.397 . S
C186 C190 1.390 . S
C187 C185 1.361 . S
C187 C188 1.393 . S
C187 N191 1.413 . S
C188 H181 0.930 . S
C188 C187 1.393 . S
C188 C189 1.399 . S
C189 C188 1.399 . S
C189 C190 1.381 . S
C190 H182 0.930 . S
C190 C186 1.390 . S
C190 C189 1.381 . S
N191 C184 1.286 . S
N191 C187 1.413 . S
H192 C197 0.930 . S
H193 C200 0.930 . S
H194 C202 0.930 . S
H195 C196 1.016 . S
C196 H195 1.016 . S
C196 N203 1.286 . S
C197 H192 0.930 . S
C197 C198 1.397 . S
C197 C199 1.361 . S
C198 C197 1.397 . S
C198 C202 1.390 . S
C199 C197 1.361 . S
C199 C200 1.393 . S
C199 N203 1.413 . S
C200 H193 0.930 . S
C200 C199 1.393 . S
C200 C201 1.399 . S
C201 C200 1.399 . S
C201 C202 1.381 . S
C202 H194 0.930 . S
C202 C198 1.390 . S
C202 C201 1.381 . S
N203 C196 1.286 . S
N203 C199 1.413 . S
H204 C209 0.930 . S
H205 C212 0.930 . S
H206 C214 0.930 . S
H207 C208 1.016 . S
C208 H207 1.016 . S
C208 N215 1.286 . S
C209 H204 0.930 . S
C209 C210 1.397 . S
C209 C211 1.361 . S
C210 C209 1.397 . S
C210 C214 1.390 . S
C211 C209 1.361 . S
C211 C212 1.393 . S
C211 N215 1.413 . S
C212 H205 0.930 . S
C212 C211 1.393 . S
C212 C213 1.399 . S
C213 C212 1.399 . S
C213 C214 1.381 . S
C214 H206 0.930 . S
C214 C210 1.390 . S
C214 C213 1.381 . S
N215 C208 1.286 . S
N215 C211 1.413 . S
Tb216 C226 2.825 1_565 S
Tb216 O227 2.347 1_565 S
Tb216 O230 2.366 1_565 S
Tb216 O235 2.418 . S
Tb216 O236 2.384 . S
Tb216 O239 2.479 . S
Tb216 O240 2.471 1_565 S
Eu217 O228 2.418 . S
Eu217 O229 2.384 . S
Eu217 O232 2.479 . S
Eu217 O233 2.471 1_545 S
Eu217 O234 2.347 1_545 S
Eu217 O237 2.366 1_545 S
Eu217 C247 2.825 . S
C218 O234 1.259 . S
C218 O235 1.265 1_554 S
C219 O236 1.255 1_554 S
C219 O237 1.265 . S
C220 C222 1.380 1_545 S
C220 C223 1.374 . S
C220 C226 1.507 . S
C221 C222 1.384 1_545 S
C221 C225 1.387 . S
C221 H248 0.930 1_545 S
C222 C220 1.380 1_565 S
C222 C221 1.384 1_565 S
C222 H249 0.931 . S
C223 C220 1.374 . S
C223 C224 1.390 . S
C223 H250 0.930 . S
C224 C223 1.390 . S
C224 C225 1.391 . S
C224 H251 0.930 . S
C225 C221 1.387 . S
C225 C224 1.391 . S
C226 Tb216 2.825 1_545 S
C226 C220 1.507 . S
C226 O239 1.238 1_545 S
C226 O240 1.247 . S
O227 Tb216 2.347 1_545 S
O227 C231 1.259 1_556 S
O228 Eu217 2.418 . S
O228 C231 1.265 . S
O229 Eu217 2.384 . S
O229 C238 1.255 1_554 S
O230 Tb216 2.366 1_545 S
O230 C238 1.265 . S
C231 O227 1.259 1_554 S
C231 O228 1.265 . S
O232 Eu217 2.479 . S
O232 C247 1.238 . S
O233 Eu217 2.471 1_565 S
O233 C247 1.247 1_565 S
O234 Eu217 2.347 1_565 S
O234 C218 1.259 . S
O235 Tb216 2.418 . S
O235 C218 1.265 1_556 S
O236 Tb216 2.384 . S
O236 C219 1.255 1_556 S
O237 Eu217 2.366 1_565 S
O237 C219 1.265 . S
C238 O229 1.255 1_556 S
C238 O230 1.265 . S
O239 Tb216 2.479 . S
O239 C226 1.238 1_565 S
O240 Tb216 2.471 1_545 S
O240 C226 1.247 . S
C241 C244 1.380 1_565 S
C241 C245 1.374 . S
C241 C247 1.507 1_565 S
C242 C243 1.387 1_565 S
C242 C246 1.391 . S
C243 C242 1.387 1_545 S
C243 C244 1.384 . S
C243 H252 0.930 . S
C244 C241 1.380 1_545 S
C244 C243 1.384 . S
C244 H253 0.931 . S
C245 C241 1.374 . S
C245 C246 1.390 . S
C245 H254 0.930 . S
C246 C242 1.391 . S
C246 C245 1.390 . S
C246 H255 0.930 . S
C247 Eu217 2.825 . S
C247 O232 1.238 . S
C247 O233 1.247 1_545 S
C247 C241 1.507 1_545 S
H248 C221 0.930 1_565 S
H249 C222 0.931 . S
H250 C223 0.930 . S
H251 C224 0.930 . S
H252 C243 0.930 . S
H253 C244 0.931 . S
H254 C245 0.930 . S
H255 C246 0.930 . S
Tb256 C266 2.823 1_455 S
Tb256 O267 2.347 1_455 S
Tb256 O270 2.366 1_455 S
Tb256 O275 2.418 . S
Tb256 O276 2.384 1_556 S
Tb256 O279 2.479 . S
Tb256 O280 2.471 1_455 S
Eu257 O268 2.418 . S
Eu257 O269 2.384 . S
Eu257 O272 2.479 . S
Eu257 O273 2.471 1_655 S
Eu257 O274 2.347 1_655 S
Eu257 O277 2.366 1_655 S
Eu257 C287 2.825 1_655 S
C258 O274 1.259 . S
C258 O275 1.265 1_554 S
C259 O276 1.255 . S
C259 O277 1.265 . S
C260 C262 1.380 1_655 S
C260 C263 1.374 . S
C260 C266 1.509 . S
C261 C262 1.384 1_655 S
C261 C265 1.387 . S
C261 H288 0.930 1_655 S
C262 C260 1.380 1_455 S
C262 C261 1.384 1_455 S
C262 H289 0.931 . S
C263 C260 1.374 . S
C263 C264 1.390 . S
C263 H290 0.930 . S
C264 C263 1.390 . S
C264 C265 1.391 . S
C264 H291 0.930 . S
C265 C261 1.387 . S
C265 C264 1.391 . S
C266 Tb256 2.823 1_655 S
C266 C260 1.509 . S
C266 O279 1.235 1_655 S
C266 O280 1.248 . S
O267 Tb256 2.347 1_655 S
O267 C271 1.259 1_556 S
O268 Eu257 2.418 . S
O268 C271 1.265 . S
O269 Eu257 2.384 . S
O269 C278 1.255 1_554 S
O270 Tb256 2.366 1_655 S
O270 C278 1.265 . S
C271 O267 1.259 1_554 S
C271 O268 1.265 . S
O272 Eu257 2.479 . S
O272 C287 1.238 1_655 S
O273 Eu257 2.471 1_455 S
O273 C287 1.247 . S
O274 Eu257 2.347 1_455 S
O274 C258 1.259 . S
O275 Tb256 2.418 . S
O275 C258 1.265 1_556 S
O276 Tb256 2.384 1_554 S
O276 C259 1.255 . S
O277 Eu257 2.366 1_455 S
O277 C259 1.265 . S
C278 O269 1.255 1_556 S
C278 O270 1.265 . S
O279 Tb256 2.479 . S
O279 C266 1.235 1_455 S
O280 Tb256 2.471 1_655 S
O280 C266 1.248 . S
C281 C284 1.376 1_455 S
C281 C285 1.374 . S
C281 C287 1.507 . S
C282 C283 1.387 . S
C282 C286 1.391 . S
C283 C282 1.387 . S
C283 C284 1.380 1_455 S
C283 H292 0.930 1_455 S
C284 C281 1.376 1_655 S
C284 C283 1.380 1_655 S
C284 H293 0.939 . S
C285 C281 1.374 . S
C285 C286 1.390 . S
C285 H294 0.930 . S
C286 C282 1.391 . S
C286 C285 1.390 . S
C286 H295 0.930 . S
C287 Eu257 2.825 1_455 S
C287 O272 1.238 1_455 S
C287 O273 1.247 . S
C287 C281 1.507 . S
H288 C261 0.930 1_455 S
H289 C262 0.931 . S
H290 C263 0.930 . S
H291 C264 0.930 . S
H292 C283 0.930 1_655 S
H293 C284 0.939 . S
H294 C285 0.930 . S
H295 C286 0.930 . S
Tb296 C306 2.825 . S
Tb296 O307 2.347 . S
Tb296 O310 2.366 . S
Tb296 O315 2.418 . S
Tb296 O316 2.384 . S
Tb296 O319 2.479 . S
Tb296 O320 2.471 . S
Eu297 O308 2.418 . S
Eu297 O309 2.384 1_556 S
Eu297 O312 2.479 . S
Eu297 O313 2.471 . S
Eu297 O314 2.334 1_556 S
Eu297 O317 2.366 . S
Eu297 C327 2.825 . S
C298 O314 1.271 . S
C298 O315 1.265 . S
C299 O316 1.255 1_556 S
C299 O317 1.265 . S
C300 C302 1.380 . S
C300 C303 1.374 . S
C300 C306 1.507 . S
C301 C302 1.384 . S
C301 C305 1.387 . S
C301 H328 0.930 . S
C302 C300 1.380 . S
C302 C301 1.384 . S
C302 H329 0.931 . S
C303 C300 1.374 . S
C303 C304 1.390 . S
C303 H330 0.930 . S
C304 C303 1.390 . S
C304 C305 1.391 . S
C304 H331 0.930 . S
C305 C301 1.387 . S
C305 C304 1.391 . S
C306 Tb296 2.825 . S
C306 C300 1.507 . S
C306 O319 1.238 . S
C306 O320 1.247 . S
O307 Tb296 2.347 . S
O307 C311 1.259 . S
O308 Eu297 2.418 . S
O308 C311 1.265 1_556 S
O309 Eu297 2.384 1_554 S
O309 C318 1.255 . S
O310 Tb296 2.366 . S
O310 C318 1.265 . S
C311 O307 1.259 . S
C311 O308 1.265 1_554 S
O312 Eu297 2.479 . S
O312 C327 1.238 . S
O313 Eu297 2.471 . S
O313 C327 1.247 . S
O314 Eu297 2.334 1_554 S
O314 C298 1.271 . S
O315 Tb296 2.418 . S
O315 C298 1.265 . S
O316 Tb296 2.384 . S
O316 C299 1.255 1_554 S
O317 Eu297 2.366 . S
O317 C299 1.265 . S
C318 O309 1.255 . S
C318 O310 1.265 . S
O319 Tb296 2.479 . S
O319 C306 1.238 . S
O320 Tb296 2.471 . S
O320 C306 1.247 . S
C321 C324 1.380 . S
C321 C325 1.374 . S
C321 C327 1.507 . S
C322 C323 1.387 . S
C322 C326 1.391 . S
C323 C322 1.387 . S
C323 C324 1.384 . S
C323 H332 0.930 . S
C324 C321 1.380 . S
C324 C323 1.384 . S
C324 H333 0.931 . S
C325 C321 1.374 . S
C325 C326 1.390 . S
C325 H334 0.930 . S
C326 C322 1.391 . S
C326 C325 1.390 . S
C326 H335 0.930 . S
C327 Eu297 2.825 . S
C327 O312 1.238 . S
C327 O313 1.247 . S
C327 C321 1.507 . S
H328 C301 0.930 . S
H329 C302 0.931 . S
H330 C303 0.930 . S
H331 C304 0.930 . S
H332 C323 0.930 . S
H333 C324 0.931 . S
H334 C325 0.930 . S
H335 C326 0.930 . S
Tb336 C346 2.825 . S
Tb336 O347 2.347 . S
Tb336 O350 2.366 . S
Tb336 O355 2.418 . S
Tb336 O356 2.384 . S
Tb336 O359 2.479 . S
Tb336 O360 2.471 . S
Eu337 O348 2.418 . S
Eu337 O349 2.384 . S
Eu337 O352 2.479 . S
Eu337 O353 2.471 . S
Eu337 O354 2.347 . S
Eu337 O357 2.366 . S
Eu337 C367 2.825 . S
C338 O354 1.259 . S
C338 O355 1.265 . S
C339 O356 1.255 . S
C339 O357 1.265 . S
C340 C342 1.380 . S
C340 C343 1.374 . S
C340 C346 1.507 . S
C341 C342 1.384 . S
C341 C345 1.387 . S
C341 H368 0.930 . S
C342 C340 1.380 . S
C342 C341 1.384 . S
C342 H369 0.931 . S
C343 C340 1.374 . S
C343 C344 1.390 . S
C343 H370 0.930 . S
C344 C343 1.390 . S
C344 C345 1.391 . S
C344 H371 0.930 . S
C345 C341 1.387 . S
C345 C344 1.391 . S
C346 Tb336 2.825 . S
C346 C340 1.507 . S
C346 O359 1.238 . S
C346 O360 1.247 . S
O347 Tb336 2.347 . S
O347 C351 1.259 . S
O348 Eu337 2.418 . S
O348 C351 1.265 . S
O349 Eu337 2.384 . S
O349 C358 1.255 . S
O350 Tb336 2.366 . S
O350 C358 1.265 . S
C351 O347 1.259 . S
C351 O348 1.265 . S
O352 Eu337 2.479 . S
O352 C367 1.238 . S
O353 Eu337 2.471 . S
O353 C367 1.247 . S
O354 Eu337 2.347 . S
O354 C338 1.259 . S
O355 Tb336 2.418 . S
O355 C338 1.265 . S
O356 Tb336 2.384 . S
O356 C339 1.255 . S
O357 Eu337 2.366 . S
O357 C339 1.265 . S
C358 O349 1.255 . S
C358 O350 1.265 . S
O359 Tb336 2.479 . S
O359 C346 1.238 . S
O360 Tb336 2.471 . S
O360 C346 1.247 . S
C361 C364 1.380 . S
C361 C365 1.374 . S
C361 C367 1.507 . S
C362 C363 1.387 . S
C362 C366 1.391 . S
C363 C362 1.387 . S
C363 C364 1.384 . S
C363 H372 0.930 . S
C364 C361 1.380 . S
C364 C363 1.384 . S
C364 H373 0.931 . S
C365 C361 1.374 . S
C365 C366 1.390 . S
C365 H374 0.930 . S
C366 C362 1.391 . S
C366 C365 1.390 . S
C366 H375 0.930 . S
C367 Eu337 2.825 . S
C367 O352 1.238 . S
C367 O353 1.247 . S
C367 C361 1.507 . S
H368 C341 0.930 . S
H369 C342 0.931 . S
H370 C343 0.930 . S
H371 C344 0.930 . S
H372 C363 0.930 . S
H373 C364 0.931 . S
H374 C365 0.930 . S
H375 C366 0.930 . S
Tb376 C386 2.825 . S
Tb376 O387 2.347 . S
Tb376 O390 2.366 . S
Tb376 O395 2.418 . S
Tb376 O396 2.384 . S
Tb376 O399 2.479 . S
Tb376 O400 2.471 . S
Eu377 O388 2.418 . S
Eu377 O389 2.384 . S
Eu377 O392 2.479 . S
Eu377 O393 2.471 . S
Eu377 O394 2.347 . S
Eu377 O397 2.366 . S
Eu377 C407 2.825 . S
C378 O394 1.259 . S
C378 O395 1.265 . S
C379 O396 1.255 . S
C379 O397 1.265 . S
C380 C382 1.380 . S
C380 C383 1.374 . S
C380 C386 1.507 . S
C381 C382 1.384 . S
C381 C385 1.387 . S
C381 H408 0.930 . S
C382 C380 1.380 . S
C382 C381 1.384 . S
C382 H409 0.931 . S
C383 C380 1.374 . S
C383 C384 1.390 . S
C383 H410 0.930 . S
C384 C383 1.390 . S
C384 C385 1.391 . S
C384 H411 0.930 . S
C385 C381 1.387 . S
C385 C384 1.391 . S
C386 Tb376 2.825 . S
C386 C380 1.507 . S
C386 O399 1.238 . S
C386 O400 1.247 . S
O387 Tb376 2.347 . S
O387 C391 1.259 . S
O388 Eu377 2.418 . S
O388 C391 1.265 . S
O389 Eu377 2.384 . S
O389 C398 1.255 . S
O390 Tb376 2.366 . S
O390 C398 1.265 . S
C391 O387 1.259 . S
C391 O388 1.265 . S
O392 Eu377 2.479 . S
O392 C407 1.238 . S
O393 Eu377 2.471 . S
O393 C407 1.247 . S
O394 Eu377 2.347 . S
O394 C378 1.259 . S
O395 Tb376 2.418 . S
O395 C378 1.265 . S
O396 Tb376 2.384 . S
O396 C379 1.255 . S
O397 Eu377 2.366 . S
O397 C379 1.265 . S
C398 O389 1.255 . S
C398 O390 1.265 . S
O399 Tb376 2.479 . S
O399 C386 1.238 . S
O400 Tb376 2.471 . S
O400 C386 1.247 . S
C401 C404 1.380 . S
C401 C405 1.374 . S
C401 C407 1.507 . S
C402 C403 1.387 . S
C402 C406 1.391 . S
C403 C402 1.387 . S
C403 C404 1.384 . S
C403 H412 0.930 . S
C404 C401 1.380 . S
C404 C403 1.384 . S
C404 H413 0.931 . S
C405 C401 1.374 . S
C405 C406 1.390 . S
C405 H414 0.930 . S
C406 C402 1.391 . S
C406 C405 1.390 . S
C406 H415 0.930 . S
C407 Eu377 2.825 . S
C407 O392 1.238 . S
C407 O393 1.247 . S
C407 C401 1.507 . S
H408 C381 0.930 . S
H409 C382 0.931 . S
H410 C383 0.930 . S
H411 C384 0.930 . S
H412 C403 0.930 . S
H413 C404 0.931 . S
H414 C405 0.930 . S
H415 C406 0.930 . S
Tb416 C426 2.825 . S
Tb416 O427 2.347 . S
Tb416 O430 2.366 . S
Tb416 O435 2.418 . S
Tb416 O436 2.384 . S
Tb416 O439 2.479 . S
Tb416 O440 2.471 . S
Eu417 O428 2.418 . S
Eu417 O429 2.384 . S
Eu417 O432 2.479 . S
Eu417 O433 2.471 . S
Eu417 O434 2.347 . S
Eu417 O437 2.366 . S
Eu417 C447 2.825 . S
C418 O434 1.259 . S
C418 O435 1.265 . S
C419 O436 1.255 . S
C419 O437 1.265 . S
C420 C422 1.380 . S
C420 C423 1.374 . S
C420 C426 1.507 . S
C421 C422 1.384 . S
C421 C425 1.387 . S
C421 H448 0.930 . S
C422 C420 1.380 . S
C422 C421 1.384 . S
C422 H449 0.931 . S
C423 C420 1.374 . S
C423 C424 1.390 . S
C423 H450 0.930 . S
C424 C423 1.390 . S
C424 C425 1.391 . S
C424 H451 0.930 . S
C425 C421 1.387 . S
C425 C424 1.391 . S
C426 Tb416 2.825 . S
C426 C420 1.507 . S
C426 O439 1.238 . S
C426 O440 1.247 . S
O427 Tb416 2.347 . S
O427 C431 1.259 . S
O428 Eu417 2.418 . S
O428 C431 1.265 . S
O429 Eu417 2.384 . S
O429 C438 1.255 . S
O430 Tb416 2.366 . S
O430 C438 1.265 . S
C431 O427 1.259 . S
C431 O428 1.265 . S
O432 Eu417 2.479 . S
O432 C447 1.238 . S
O433 Eu417 2.471 . S
O433 C447 1.247 . S
O434 Eu417 2.347 . S
O434 C418 1.259 . S
O435 Tb416 2.418 . S
O435 C418 1.265 . S
O436 Tb416 2.384 . S
O436 C419 1.255 . S
O437 Eu417 2.366 . S
O437 C419 1.265 . S
C438 O429 1.255 . S
C438 O430 1.265 . S
O439 Tb416 2.479 . S
O439 C426 1.238 . S
O440 Tb416 2.471 . S
O440 C426 1.247 . S
C441 C444 1.380 . S
C441 C445 1.374 . S
C441 C447 1.507 . S
C442 C443 1.387 . S
C442 C446 1.391 . S
C443 C442 1.387 . S
C443 C444 1.384 . S
C443 H452 0.930 . S
C444 C441 1.380 . S
C444 C443 1.384 . S
C444 H453 0.931 . S
C445 C441 1.374 . S
C445 C446 1.390 . S
C445 H454 0.930 . S
C446 C442 1.391 . S
C446 C445 1.390 . S
C446 H455 0.930 . S
C447 Eu417 2.825 . S
C447 O432 1.238 . S
C447 O433 1.247 . S
C447 C441 1.507 . S
H448 C421 0.930 . S
H449 C422 0.931 . S
H450 C423 0.930 . S
H451 C424 0.930 . S
H452 C443 0.930 . S
H453 C444 0.931 . S
H454 C445 0.930 . S
H455 C446 0.930 . S
Tb456 C466 2.825 . S
Tb456 O467 2.347 . S
Tb456 O470 2.366 . S
Tb456 O475 2.418 . S
Tb456 O476 2.384 . S
Tb456 O479 2.479 . S
Tb456 O480 2.471 . S
Eu457 O468 2.418 . S
Eu457 O469 2.384 . S
Eu457 O472 2.479 . S
Eu457 O473 2.471 . S
Eu457 O474 2.347 . S
Eu457 O477 2.366 . S
Eu457 C487 2.825 . S
C458 O474 1.259 . S
C458 O475 1.265 . S
C459 O476 1.255 . S
C459 O477 1.265 . S
C460 C462 1.380 . S
C460 C463 1.374 . S
C460 C466 1.507 . S
C461 C462 1.384 . S
C461 C465 1.387 . S
C461 H488 0.930 . S
C462 C460 1.380 . S
C462 C461 1.384 . S
C462 H489 0.931 . S
C463 C460 1.374 . S
C463 C464 1.390 . S
C463 H490 0.930 . S
C464 C463 1.390 . S
C464 C465 1.391 . S
C464 H491 0.930 . S
C465 C461 1.387 . S
C465 C464 1.391 . S
C466 Tb456 2.825 . S
C466 C460 1.507 . S
C466 O479 1.238 . S
C466 O480 1.247 . S
O467 Tb456 2.347 . S
O467 C471 1.259 . S
O468 Eu457 2.418 . S
O468 C471 1.265 . S
O469 Eu457 2.384 . S
O469 C478 1.255 . S
O470 Tb456 2.366 . S
O470 C478 1.265 . S
C471 O467 1.259 . S
C471 O468 1.265 . S
O472 Eu457 2.479 . S
O472 C487 1.238 . S
O473 Eu457 2.471 . S
O473 C487 1.247 . S
O474 Eu457 2.347 . S
O474 C458 1.259 . S
O475 Tb456 2.418 . S
O475 C458 1.265 . S
O476 Tb456 2.384 . S
O476 C459 1.255 . S
O477 Eu457 2.366 . S
O477 C459 1.265 . S
C478 O469 1.255 . S
C478 O470 1.265 . S
O479 Tb456 2.479 . S
O479 C466 1.238 . S
O480 Tb456 2.471 . S
O480 C466 1.247 . S
C481 C484 1.380 . S
C481 C485 1.374 . S
C481 C487 1.507 . S
C482 C483 1.387 . S
C482 C486 1.391 . S
C483 C482 1.387 . S
C483 C484 1.384 . S
C483 H492 0.930 . S
C484 C481 1.380 . S
C484 C483 1.384 . S
C484 H493 0.931 . S
C485 C481 1.374 . S
C485 C486 1.390 . S
C485 H494 0.930 . S
C486 C482 1.391 . S
C486 C485 1.390 . S
C486 H495 0.930 . S
C487 Eu457 2.825 . S
C487 O472 1.238 . S
C487 O473 1.247 . S
C487 C481 1.507 . S
H488 C461 0.930 . S
H489 C462 0.931 . S
H490 C463 0.930 . S
H491 C464 0.930 . S
H492 C483 0.930 . S
H493 C484 0.931 . S
H494 C485 0.930 . S
H495 C486 0.930 . S
Tb496 C506 2.825 . S
Tb496 O507 2.347 . S
Tb496 O510 2.366 . S
Tb496 O515 2.418 . S
Tb496 O516 2.384 . S
Tb496 O519 2.479 . S
Tb496 O520 2.471 . S
Eu497 O508 2.418 . S
Eu497 O509 2.384 . S
Eu497 O512 2.479 . S
Eu497 O513 2.471 . S
Eu497 O514 2.347 . S
Eu497 O517 2.366 . S
Eu497 C527 2.825 . S
C498 O514 1.259 . S
C498 O515 1.265 . S
C499 O516 1.255 . S
C499 O517 1.265 . S
C500 C502 1.380 . S
C500 C503 1.374 . S
C500 C506 1.507 . S
C501 C502 1.384 . S
C501 C505 1.387 . S
C501 H528 0.930 . S
C502 C500 1.380 . S
C502 C501 1.384 . S
C502 H529 0.931 . S
C503 C500 1.374 . S
C503 C504 1.390 . S
C503 H530 0.930 . S
C504 C503 1.390 . S
C504 C505 1.391 . S
C504 H531 0.930 . S
C505 C501 1.387 . S
C505 C504 1.391 . S
C506 Tb496 2.825 . S
C506 C500 1.507 . S
C506 O519 1.238 . S
C506 O520 1.247 . S
O507 Tb496 2.347 . S
O507 C511 1.259 . S
O508 Eu497 2.418 . S
O508 C511 1.265 . S
O509 Eu497 2.384 . S
O509 C518 1.255 . S
O510 Tb496 2.366 . S
O510 C518 1.265 . S
C511 O507 1.259 . S
C511 O508 1.265 . S
O512 Eu497 2.479 . S
O512 C527 1.238 . S
O513 Eu497 2.471 . S
O513 C527 1.247 . S
O514 Eu497 2.347 . S
O514 C498 1.259 . S
O515 Tb496 2.418 . S
O515 C498 1.265 . S
O516 Tb496 2.384 . S
O516 C499 1.255 . S
O517 Eu497 2.366 . S
O517 C499 1.265 . S
C518 O509 1.255 . S
C518 O510 1.265 . S
O519 Tb496 2.479 . S
O519 C506 1.238 . S
O520 Tb496 2.471 . S
O520 C506 1.247 . S
C521 C524 1.380 . S
C521 C525 1.374 . S
C521 C527 1.507 . S
C522 C523 1.387 . S
C522 C526 1.391 . S
C523 C522 1.387 . S
C523 C524 1.384 . S
C523 H532 0.930 . S
C524 C521 1.380 . S
C524 C523 1.384 . S
C524 H533 0.931 . S
C525 C521 1.374 . S
C525 C526 1.390 . S
C525 H534 0.930 . S
C526 C522 1.391 . S
C526 C525 1.390 . S
C526 H535 0.930 . S
C527 Eu497 2.825 . S
C527 O512 1.238 . S
C527 O513 1.247 . S
C527 C521 1.507 . S
H528 C501 0.930 . S
H529 C502 0.931 . S
H530 C503 0.930 . S
H531 C504 0.930 . S
H532 C523 0.930 . S
H533 C524 0.931 . S
H534 C525 0.930 . S
H535 C526 0.930 . S
Tb536 C546 2.825 . S
Tb536 O547 2.347 . S
Tb536 O550 2.366 . S
Tb536 O555 2.418 . S
Tb536 O556 2.384 . S
Tb536 O559 2.479 . S
Tb536 O560 2.471 . S
Eu537 O548 2.418 . S
Eu537 O549 2.384 . S
Eu537 O552 2.479 . S
Eu537 O553 2.471 . S
Eu537 O554 2.347 . S
Eu537 O557 2.366 . S
Eu537 C567 2.825 . S
C538 O554 1.259 . S
C538 O555 1.265 . S
C539 O556 1.255 . S
C539 O557 1.265 . S
C540 C542 1.380 . S
C540 C543 1.374 . S
C540 C546 1.507 . S
C541 C542 1.384 . S
C541 C545 1.387 . S
C541 H568 0.930 . S
C542 C540 1.380 . S
C542 C541 1.384 . S
C542 H569 0.931 . S
C543 C540 1.374 . S
C543 C544 1.390 . S
C543 H570 0.930 . S
C544 C543 1.390 . S
C544 C545 1.391 . S
C544 H571 0.930 . S
C545 C541 1.387 . S
C545 C544 1.391 . S
C546 Tb536 2.825 . S
C546 C540 1.507 . S
C546 O559 1.238 . S
C546 O560 1.247 . S
O547 Tb536 2.347 . S
O547 C551 1.259 . S
O548 Eu537 2.418 . S
O548 C551 1.265 . S
O549 Eu537 2.384 . S
O549 C558 1.255 . S
O550 Tb536 2.366 . S
O550 C558 1.265 . S
C551 O547 1.259 . S
C551 O548 1.265 . S
O552 Eu537 2.479 . S
O552 C567 1.238 . S
O553 Eu537 2.471 . S
O553 C567 1.247 . S
O554 Eu537 2.347 . S
O554 C538 1.259 . S
O555 Tb536 2.418 . S
O555 C538 1.265 . S
O556 Tb536 2.384 . S
O556 C539 1.255 . S
O557 Eu537 2.366 . S
O557 C539 1.265 . S
C558 O549 1.255 . S
C558 O550 1.265 . S
O559 Tb536 2.479 . S
O559 C546 1.238 . S
O560 Tb536 2.471 . S
O560 C546 1.247 . S
C561 C564 1.380 . S
C561 C565 1.374 . S
C561 C567 1.507 . S
C562 C563 1.387 . S
C562 C566 1.391 . S
C563 C562 1.387 . S
C563 C564 1.384 . S
C563 H572 0.930 . S
C564 C561 1.380 . S
C564 C563 1.384 . S
C564 H573 0.931 . S
C565 C561 1.374 . S
C565 C566 1.390 . S
C565 H574 0.930 . S
C566 C562 1.391 . S
C566 C565 1.390 . S
C566 H575 0.930 . S
C567 Eu537 2.825 . S
C567 O552 1.238 . S
C567 O553 1.247 . S
C567 C561 1.507 . S
H568 C541 0.930 . S
H569 C542 0.931 . S
H570 C543 0.930 . S
H571 C544 0.930 . S
H572 C563 0.930 . S
H573 C564 0.931 . S
H574 C565 0.930 . S
H575 C566 0.930 . S
C576 C577 1.391 . S
C576 C578 1.394 . S
C576 H592 0.931 . S
C577 C576 1.391 . S
C577 C581 1.376 . S
C578 C576 1.394 . S
C578 C579 1.369 . S
C578 C582 1.531 . S
C579 C578 1.369 . S
C579 C580 1.410 . S
C579 C587 1.503 . S
C580 C579 1.410 . S
C580 C581 1.392 . S
C580 C583 1.511 . S
C581 C577 1.376 . S
C581 C580 1.392 . S
C581 H593 0.929 . S
C582 C578 1.531 . S
C582 H594 0.960 . S
C582 H595 0.962 . S
C582 H596 0.960 . S
C583 C580 1.511 . S
C583 H597 0.961 . S
C583 H598 0.961 . S
C583 H599 0.961 . S
C584 C585 1.370 . S
C584 C586 1.363 . S
C584 H600 0.931 . S
C585 C584 1.370 . S
C585 C589 1.408 . S
C586 C584 1.363 . S
C586 C587 1.370 . S
C586 C590 1.524 . S
C587 C579 1.503 . S
C587 C586 1.370 . S
C587 C588 1.403 . S
C588 C587 1.403 . S
C588 C589 1.404 . S
C588 C591 1.539 1_554 S
C589 C585 1.408 . S
C589 C588 1.404 . S
C589 H601 0.930 1_554 S
C590 C586 1.524 . S
C590 H602 0.956 . S
C590 H603 0.961 . S
C590 H604 0.961 . S
C591 C588 1.539 1_556 S
C591 H605 0.958 . S
C591 H606 0.961 . S
C591 H607 0.960 . S
H592 C576 0.931 . S
H593 C581 0.929 . S
H594 C582 0.960 . S
H595 C582 0.962 . S
H596 C582 0.960 . S
H597 C583 0.961 . S
H598 C583 0.961 . S
H599 C583 0.961 . S
H600 C584 0.931 . S
H601 C589 0.930 1_556 S
H602 C590 0.956 . S
H603 C590 0.961 . S
H604 C590 0.961 . S
H605 C591 0.958 . S
H606 C591 0.961 . S
H607 C591 0.960 . S
C608 C609 1.391 . S
C608 C610 1.394 . S
C608 H624 0.931 . S
C609 C608 1.391 . S
C609 C613 1.376 . S
C610 C608 1.394 . S
C610 C611 1.369 . S
C610 C614 1.531 . S
C611 C610 1.369 . S
C611 C612 1.410 . S
C611 C619 1.503 . S
C612 C611 1.410 . S
C612 C613 1.392 . S
C612 C615 1.511 . S
C613 C609 1.376 . S
C613 C612 1.392 . S
C613 H625 0.929 . S
C614 C610 1.531 . S
C614 H626 0.960 . S
C614 H627 0.962 . S
C614 H628 0.960 . S
C615 C612 1.511 . S
C615 H629 0.961 . S
C615 H630 0.961 . S
C615 H631 0.961 . S
C616 C617 1.370 . S
C616 C618 1.363 . S
C616 H632 0.931 . S
C617 C616 1.370 . S
C617 C621 1.408 . S
C618 C616 1.363 . S
C618 C619 1.370 . S
C618 C622 1.524 . S
C619 C611 1.503 . S
C619 C618 1.370 . S
C619 C620 1.403 . S
C620 C619 1.403 . S
C620 C621 1.404 . S
C620 C623 1.539 . S
C621 C617 1.408 . S
C621 C620 1.404 . S
C621 H633 0.930 . S
C622 C618 1.524 . S
C622 H634 0.956 . S
C622 H635 0.961 . S
C622 H636 0.961 . S
C623 C620 1.539 . S
C623 H637 0.958 . S
C623 H638 0.961 . S
C623 H639 0.960 . S
H624 C608 0.931 . S
H625 C613 0.929 . S
H626 C614 0.960 . S
H627 C614 0.962 . S
H628 C614 0.960 . S
H629 C615 0.961 . S
H630 C615 0.961 . S
H631 C615 0.961 . S
H632 C616 0.931 . S
H633 C621 0.930 . S
H634 C622 0.956 . S
H635 C622 0.961 . S
H636 C622 0.961 . S
H637 C623 0.958 . S
H638 C623 0.961 . S
H639 C623 0.960 . S
C640 C641 1.391 . S
C640 C642 1.394 . S
C640 H656 0.931 . S
C641 C640 1.391 . S
C641 C645 1.376 . S
C642 C640 1.394 . S
C642 C643 1.369 . S
C642 C646 1.531 . S
C643 C642 1.369 . S
C643 C644 1.410 . S
C643 C651 1.503 . S
C644 C643 1.410 . S
C644 C645 1.392 . S
C644 C647 1.511 . S
C645 C641 1.376 . S
C645 C644 1.392 . S
C645 H657 0.929 . S
C646 C642 1.531 . S
C646 H658 0.960 1_554 S
C646 H659 0.962 . S
C646 H660 0.960 1_554 S
C647 C644 1.511 . S
C647 H661 0.961 . S
C647 H662 0.961 . S
C647 H663 0.961 . S
C648 C649 1.370 . S
C648 C650 1.363 . S
C648 H664 0.931 . S
C649 C648 1.370 . S
C649 C653 1.408 . S
C650 C648 1.363 . S
C650 C651 1.370 . S
C650 C654 1.524 . S
C651 C643 1.503 . S
C651 C650 1.370 . S
C651 C652 1.403 . S
C652 C651 1.403 . S
C652 C653 1.404 . S
C652 C655 1.539 1_554 S
C653 C649 1.408 . S
C653 C652 1.404 . S
C653 H665 0.930 1_554 S
C654 C650 1.524 . S
C654 H666 0.956 . S
C654 H667 0.961 . S
C654 H668 0.961 . S
C655 C652 1.539 1_556 S
C655 H669 0.958 . S
C655 H670 0.961 . S
C655 H671 0.960 1_556 S
H656 C640 0.931 . S
H657 C645 0.929 . S
H658 C646 0.960 1_556 S
H659 C646 0.962 . S
H660 C646 0.960 1_556 S
H661 C647 0.961 . S
H662 C647 0.961 . S
H663 C647 0.961 . S
H664 C648 0.931 . S
H665 C653 0.930 1_556 S
H666 C654 0.956 . S
H667 C654 0.961 . S
H668 C654 0.961 . S
H669 C655 0.958 . S
H670 C655 0.961 . S
H671 C655 0.960 1_554 S
C672 C673 1.391 . S
C672 C674 1.394 . S
C672 H688 0.931 . S
C673 C672 1.391 . S
C673 C677 1.376 . S
C674 C672 1.394 . S
C674 C675 1.369 . S
C674 C678 1.531 1_556 S
C675 C674 1.369 . S
C675 C676 1.410 . S
C675 C683 1.503 . S
C676 C675 1.410 . S
C676 C677 1.392 . S
C676 C679 1.511 . S
C677 C673 1.376 . S
C677 C676 1.392 . S
C677 H689 0.929 . S
C678 C674 1.531 1_554 S
C678 H690 0.960 . S
C678 H691 0.962 . S
C678 H692 0.960 . S
C679 C676 1.511 . S
C679 H693 0.961 . S
C679 H694 0.961 . S
C679 H695 0.961 . S
C680 C681 1.370 . S
C680 C682 1.363 . S
C680 H696 0.931 . S
C681 C680 1.370 . S
C681 C685 1.408 . S
C682 C680 1.363 . S
C682 C683 1.370 . S
C682 C686 1.524 . S
C683 C675 1.503 . S
C683 C682 1.370 . S
C683 C684 1.403 . S
C684 C683 1.403 . S
C684 C685 1.404 . S
C684 C687 1.539 . S
C685 C681 1.408 . S
C685 C684 1.404 . S
C685 H697 0.930 1_556 S
C686 C682 1.524 . S
C686 H698 0.956 . S
C686 H699 0.961 . S
C686 H700 0.961 . S
C687 C684 1.539 . S
C687 H701 0.958 1_556 S
C687 H702 0.961 . S
C687 H703 0.960 . S
H688 C672 0.931 . S
H689 C677 0.929 . S
H690 C678 0.960 . S
H691 C678 0.962 . S
H692 C678 0.960 . S
H693 C679 0.961 . S
H694 C679 0.961 . S
H695 C679 0.961 . S
H696 C680 0.931 . S
H697 C685 0.930 1_554 S
H698 C686 0.956 . S
H699 C686 0.961 . S
H700 C686 0.961 . S
H701 C687 0.958 1_554 S
H702 C687 0.961 . S
H703 C687 0.960 . S
C704 C705 1.391 . S
C704 C706 1.394 . S
C704 H720 0.931 . S
C705 C704 1.391 . S
C705 C709 1.376 . S
C706 C704 1.394 . S
C706 C707 1.369 . S
C706 C710 1.531 . S
C707 C706 1.369 . S
C707 C708 1.410 . S
C707 C715 1.503 . S
C708 C707 1.410 . S
C708 C709 1.392 . S
C708 C711 1.511 . S
C709 C705 1.376 . S
C709 C708 1.392 . S
C709 H721 0.929 . S
C710 C706 1.531 . S
C710 H722 0.960 . S
C710 H723 0.962 . S
C710 H724 0.960 . S
C711 C708 1.511 . S
C711 H725 0.961 . S
C711 H726 0.961 . S
C711 H727 0.961 . S
C712 C713 1.370 . S
C712 C714 1.363 . S
C712 H728 0.931 . S
C713 C712 1.370 . S
C713 C717 1.408 1_556 S
C714 C712 1.363 . S
C714 C715 1.370 . S
C714 C718 1.524 . S
C715 C707 1.503 . S
C715 C714 1.370 . S
C715 C716 1.403 . S
C716 C715 1.403 . S
C716 C717 1.404 1_556 S
C716 C719 1.539 1_556 S
C717 C713 1.408 1_554 S
C717 C716 1.404 1_554 S
C717 H729 0.930 . S
C718 C714 1.524 . S
C718 H730 0.956 . S
C718 H731 0.961 . S
C718 H732 0.961 . S
C719 C716 1.539 1_554 S
C719 H733 0.958 . S
C719 H734 0.961 . S
C719 H735 0.960 . S
H720 C704 0.931 . S
H721 C709 0.929 . S
H722 C710 0.960 . S
H723 C710 0.962 . S
H724 C710 0.960 . S
H725 C711 0.961 . S
H726 C711 0.961 . S
H727 C711 0.961 . S
H728 C712 0.931 . S
H729 C717 0.930 . S
H730 C718 0.956 . S
H731 C718 0.961 . S
H732 C718 0.961 . S
H733 C719 0.958 . S
H734 C719 0.961 . S
H735 C719 0.960 . S
C736 C737 1.391 . S
C736 C738 1.394 . S
C736 H752 0.931 . S
C737 C736 1.391 . S
C737 C741 1.376 . S
C738 C736 1.394 . S
C738 C739 1.369 . S
C738 C742 1.531 . S
C739 C738 1.369 . S
C739 C740 1.410 . S
C739 C747 1.503 . S
C740 C739 1.410 . S
C740 C741 1.392 . S
C740 C743 1.511 . S
C741 C737 1.376 . S
C741 C740 1.392 . S
C741 H753 0.929 . S
C742 C738 1.531 . S
C742 H754 0.960 . S
C742 H755 0.962 . S
C742 H756 0.960 . S
C743 C740 1.511 . S
C743 H757 0.961 1_556 S
C743 H758 0.961 1_556 S
C743 H759 0.961 . S
C744 C745 1.370 1_554 S
C744 C746 1.363 . S
C744 H760 0.931 . S
C745 C744 1.370 1_556 S
C745 C749 1.408 . S
C746 C744 1.363 . S
C746 C747 1.370 1_554 S
C746 C750 1.524 . S
C747 C739 1.503 . S
C747 C746 1.370 1_556 S
C747 C748 1.403 . S
C748 C747 1.403 . S
C748 C749 1.404 . S
C748 C751 1.539 . S
C749 C745 1.408 . S
C749 C748 1.404 . S
C749 H761 0.930 . S
C750 C746 1.524 . S
C750 H762 0.956 . S
C750 H763 0.961 . S
C750 H764 0.961 . S
C751 C748 1.539 . S
C751 H765 0.958 . S
C751 H766 0.961 . S
C751 H767 0.960 . S
H752 C736 0.931 . S
H753 C741 0.929 . S
H754 C742 0.960 . S
H755 C742 0.962 . S
H756 C742 0.960 . S
H757 C743 0.961 1_554 S
H758 C743 0.961 1_554 S
H759 C743 0.961 . S
H760 C744 0.931 . S
H761 C749 0.930 . S
H762 C750 0.956 . S
H763 C750 0.961 . S
H764 C750 0.961 . S
H765 C751 0.958 . S
H766 C751 0.961 . S
H767 C751 0.960 . S
C768 C769 1.391 . S
C768 C770 1.394 . S
C768 H784 0.931 . S
C769 C768 1.391 . S
C769 C773 1.376 . S
C770 C768 1.394 . S
C770 C771 1.369 . S
C770 C774 1.531 . S
C771 C770 1.369 . S
C771 C772 1.410 . S
C771 C779 1.503 . S
C772 C771 1.410 . S
C772 C773 1.392 . S
C772 C775 1.511 . S
C773 C769 1.376 . S
C773 C772 1.392 . S
C773 H785 0.929 . S
C774 C770 1.531 . S
C774 H786 0.960 . S
C774 H787 0.962 . S
C774 H788 0.960 . S
C775 C772 1.511 . S
C775 H789 0.961 . S
C775 H790 0.961 . S
C775 H791 0.961 . S
C776 C777 1.370 1_554 S
C776 C778 1.363 1_554 S
C776 H792 0.931 . S
C777 C776 1.370 1_556 S
C777 C781 1.408 . S
C778 C776 1.363 1_556 S
C778 C779 1.370 . S
C778 C782 1.524 1_556 S
C779 C771 1.503 . S
C779 C778 1.370 . S
C779 C780 1.403 . S
C780 C779 1.403 . S
C780 C781 1.404 . S
C780 C783 1.539 . S
C781 C777 1.408 . S
C781 C780 1.404 . S
C781 H793 0.930 . S
C782 C778 1.524 1_554 S
C782 H794 0.956 . S
C782 H795 0.961 . S
C782 H796 0.961 . S
C783 C780 1.539 . S
C783 H797 0.958 . S
C783 H798 0.961 . S
C783 H799 0.960 . S
H784 C768 0.931 . S
H785 C773 0.929 . S
H786 C774 0.960 . S
H787 C774 0.962 . S
H788 C774 0.960 . S
H789 C775 0.961 . S
H790 C775 0.961 . S
H791 C775 0.961 . S
H792 C776 0.931 . S
H793 C781 0.930 . S
H794 C782 0.956 . S
H795 C782 0.961 . S
H796 C782 0.961 . S
H797 C783 0.958 . S
H798 C783 0.961 . S
H799 C783 0.960 . S
C800 C801 1.391 . S
C800 C802 1.394 . S
C800 H816 0.931 . S
C801 C800 1.391 . S
C801 C805 1.376 . S
C802 C800 1.394 . S
C802 C803 1.369 . S
C802 C806 1.531 1_556 S
C803 C802 1.369 . S
C803 C804 1.410 . S
C803 C811 1.503 . S
C804 C803 1.410 . S
C804 C805 1.392 . S
C804 C807 1.511 . S
C805 C801 1.376 . S
C805 C804 1.392 . S
C805 H817 0.929 . S
C806 C802 1.531 1_554 S
C806 H818 0.960 . S
C806 H819 0.962 . S
C806 H820 0.960 . S
C807 C804 1.511 . S
C807 H821 0.961 . S
C807 H822 0.961 . S
C807 H823 0.961 . S
C808 C809 1.370 . S
C808 C810 1.363 . S
C808 H824 0.931 . S
C809 C808 1.370 . S
C809 C813 1.408 . S
C810 C808 1.363 . S
C810 C811 1.370 . S
C810 C814 1.524 . S
C811 C803 1.503 . S
C811 C810 1.370 . S
C811 C812 1.403 . S
C812 C811 1.403 . S
C812 C813 1.404 . S
C812 C815 1.539 . S
C813 C809 1.408 . S
C813 C812 1.404 . S
C813 H825 0.930 . S
C814 C810 1.524 . S
C814 H826 0.956 . S
C814 H827 0.961 . S
C814 H828 0.961 . S
C815 C812 1.539 . S
C815 H829 0.958 . S
C815 H830 0.961 . S
C815 H831 0.960 . S
H816 C800 0.931 . S
H817 C805 0.929 . S
H818 C806 0.960 . S
H819 C806 0.962 . S
H820 C806 0.960 . S
H821 C807 0.961 . S
H822 C807 0.961 . S
H823 C807 0.961 . S
H824 C808 0.931 . S
H825 C813 0.930 . S
H826 C814 0.956 . S
H827 C814 0.961 . S
H828 C814 0.961 . S
H829 C815 0.958 . S
H830 C815 0.961 . S
H831 C815 0.960 . S
C832 C833 1.391 1_554 S
C832 C834 1.394 . S
C832 H848 0.931 . S
C833 C832 1.391 1_556 S
C833 C837 1.376 . S
C834 C832 1.394 . S
C834 C835 1.369 1_554 S
C834 C838 1.531 . S
C835 C834 1.369 1_556 S
C835 C836 1.410 . S
C835 C843 1.503 . S
C836 C835 1.410 . S
C836 C837 1.392 . S
C836 C839 1.511 . S
C837 C833 1.376 . S
C837 C836 1.392 . S
C837 H849 0.929 . S
C838 C834 1.531 . S
C838 H850 0.960 . S
C838 H851 0.962 . S
C838 H852 0.960 . S
C839 C836 1.511 . S
C839 H853 0.961 . S
C839 H854 0.961 . S
C839 H855 0.961 . S
C840 C841 1.385 . S
C840 C842 1.363 . S
C840 H856 0.931 . S
C841 C840 1.385 . S
C841 C845 1.394 1_554 S
C842 C840 1.363 . S
C842 C843 1.370 1_554 S
C842 C846 1.524 . S
C843 C835 1.503 . S
C843 C842 1.370 1_556 S
C843 C844 1.403 . S
C844 C843 1.403 . S
C844 C845 1.404 . S
C844 C847 1.539 . S
C845 C841 1.394 1_556 S
C845 C844 1.404 . S
C845 H857 0.930 . S
C846 C842 1.524 . S
C846 H858 0.956 . S
C846 H859 0.961 1_554 S
C846 H860 0.961 . S
C847 C844 1.539 . S
C847 H861 0.958 . S
C847 H862 0.961 . S
C847 H863 0.960 . S
H848 C832 0.931 . S
H849 C837 0.929 . S
H850 C838 0.960 . S
H851 C838 0.962 . S
H852 C838 0.960 . S
H853 C839 0.961 . S
H854 C839 0.961 . S
H855 C839 0.961 . S
H856 C840 0.931 . S
H857 C845 0.930 . S
H858 C846 0.956 . S
H859 C846 0.961 1_556 S
H860 C846 0.961 . S
H861 C847 0.958 . S
H862 C847 0.961 . S
H863 C847 0.960 . S
C864 C865 1.391 . S
C864 C866 1.394 . S
C864 H880 0.931 . S
C865 C864 1.391 . S
C865 C869 1.376 . S
C866 C864 1.394 . S
C866 C867 1.369 . S
C866 C870 1.531 . S
C867 C866 1.369 . S
C867 C868 1.410 . S
C867 C875 1.503 . S
C868 C867 1.410 . S
C868 C869 1.392 . S
C868 C871 1.511 . S
C869 C865 1.376 . S
C869 C868 1.392 . S
C869 H881 0.929 . S
C870 C866 1.531 . S
C870 H882 0.960 . S
C870 H883 0.962 . S
C870 H884 0.960 . S
C871 C868 1.511 . S
C871 H885 0.961 1_554 S
C871 H886 0.961 . S
C871 H887 0.961 . S
C872 C873 1.370 . S
C872 C874 1.363 . S
C872 H888 0.931 1_554 S
C873 C872 1.370 . S
C873 C877 1.408 . S
C874 C872 1.363 . S
C874 C875 1.370 . S
C874 C878 1.546 . S
C875 C867 1.503 . S
C875 C874 1.370 . S
C875 C876 1.403 . S
C876 C875 1.403 . S
C876 C877 1.404 . S
C876 C879 1.539 . S
C877 C873 1.408 . S
C877 C876 1.404 . S
C877 H889 0.930 . S
C878 C874 1.546 . S
C878 H890 0.973 . S
C878 H891 0.947 1_554 S
C878 H892 0.937 1_554 S
C879 C876 1.539 . S
C879 H893 0.958 . S
C879 H894 0.961 . S
C879 H895 0.960 . S
H880 C864 0.931 . S
H881 C869 0.929 . S
H882 C870 0.960 . S
H883 C870 0.962 . S
H884 C870 0.960 . S
H885 C871 0.961 1_556 S
H886 C871 0.961 . S
H887 C871 0.961 . S
H888 C872 0.931 1_556 S
H889 C877 0.930 . S
H890 C878 0.973 . S
H891 C878 0.947 1_556 S
H892 C878 0.937 1_556 S
H893 C879 0.958 . S
H894 C879 0.961 . S
H895 C879 0.960 . S
C896 C897 1.391 . S
C896 C898 1.394 . S
C896 H912 0.931 . S
C897 C896 1.391 . S
C897 C901 1.376 . S
C898 C896 1.394 . S
C898 C899 1.369 . S
C898 C902 1.531 . S
C899 C898 1.369 . S
C899 C900 1.410 . S
C899 C907 1.503 . S
C900 C899 1.410 . S
C900 C901 1.392 . S
C900 C903 1.511 . S
C901 C897 1.376 . S
C901 C900 1.392 . S
C901 H913 0.929 . S
C902 C898 1.531 . S
C902 H914 0.960 . S
C902 H915 0.962 . S
C902 H916 0.960 . S
C903 C900 1.511 . S
C903 H917 0.961 . S
C903 H918 0.961 . S
C903 H919 0.961 . S
C904 C905 1.370 . S
C904 C906 1.363 . S
C904 H920 0.931 . S
C905 C904 1.370 . S
C905 C909 1.408 . S
C906 C904 1.363 . S
C906 C907 1.370 . S
C906 C910 1.524 . S
C907 C899 1.503 . S
C907 C906 1.370 . S
C907 C908 1.403 . S
C908 C907 1.403 . S
C908 C909 1.404 . S
C908 C911 1.539 . S
C909 C905 1.408 . S
C909 C908 1.404 . S
C909 H921 0.930 . S
C910 C906 1.524 . S
C910 H922 0.956 . S
C910 H923 0.961 . S
C910 H924 0.961 . S
C911 C908 1.539 . S
C911 H925 0.958 . S
C911 H926 0.961 . S
C911 H927 0.960 . S
H912 C896 0.931 . S
H913 C901 0.929 . S
H914 C902 0.960 . S
H915 C902 0.962 . S
H916 C902 0.960 . S
H917 C903 0.961 . S
H918 C903 0.961 . S
H919 C903 0.961 . S
H920 C904 0.931 . S
H921 C909 0.930 . S
H922 C910 0.956 . S
H923 C910 0.961 . S
H924 C910 0.961 . S
H925 C911 0.958 . S
H926 C911 0.961 . S
H927 C911 0.960 . S
C928 C929 1.391 . S
C928 C930 1.394 . S
C928 H944 0.931 . S
C929 C928 1.391 . S
C929 C933 1.376 . S
C930 C928 1.394 . S
C930 C931 1.369 . S
C930 C934 1.531 . S
C931 C930 1.369 . S
C931 C932 1.410 . S
C931 C939 1.503 . S
C932 C931 1.410 . S
C932 C933 1.392 . S
C932 C935 1.511 1_554 S
C933 C929 1.376 . S
C933 C932 1.392 . S
C933 H945 0.929 . S
C934 C930 1.531 . S
C934 H946 0.960 . S
C934 H947 0.962 . S
C934 H948 0.960 . S
C935 C932 1.511 1_556 S
C935 H949 0.961 . S
C935 H950 0.961 . S
C935 H951 0.961 . S
C936 C937 1.370 . S
C936 C938 1.363 . S
C936 H952 0.931 . S
C937 C936 1.370 . S
C937 C941 1.408 . S
C938 C936 1.363 . S
C938 C939 1.370 . S
C938 C942 1.524 . S
C939 C931 1.503 . S
C939 C938 1.370 . S
C939 C940 1.403 . S
C940 C939 1.403 . S
C940 C941 1.404 . S
C940 C943 1.539 . S
C941 C937 1.408 . S
C941 C940 1.404 . S
C941 H953 0.930 . S
C942 C938 1.524 . S
C942 H954 0.956 . S
C942 H955 0.961 . S
C942 H956 0.961 . S
C943 C940 1.539 . S
C943 H957 0.958 . S
C943 H958 0.961 . S
C943 H959 0.960 . S
H944 C928 0.931 . S
H945 C933 0.929 . S
H946 C934 0.960 . S
H947 C934 0.962 . S
H948 C934 0.960 . S
H949 C935 0.961 . S
H950 C935 0.961 . S
H951 C935 0.961 . S
H952 C936 0.931 . S
H953 C941 0.930 . S
H954 C942 0.956 . S
H955 C942 0.961 . S
H956 C942 0.961 . S
H957 C943 0.958 . S
H958 C943 0.961 . S
H959 C943 0.960 . S
C960 C961 1.391 . S
C960 C962 1.394 . S
C960 H976 0.931 . S
C961 C960 1.391 . S
C961 C965 1.376 . S
C962 C960 1.394 . S
C962 C963 1.369 . S
C962 C966 1.531 . S
C963 C962 1.369 . S
C963 C964 1.410 . S
C963 C971 1.503 1_655 S
C964 C963 1.410 . S
C964 C965 1.392 . S
C964 C967 1.511 . S
C965 C961 1.376 . S
C965 C964 1.392 . S
C965 H977 0.929 . S
C966 C962 1.531 . S
C966 H978 0.943 1_655 S
C966 H979 0.962 1_655 S
C966 H980 0.960 . S
C967 C964 1.511 . S
C967 H981 0.961 . S
C967 H982 0.961 . S
C967 H983 0.961 . S
C968 C969 1.370 . S
C968 C970 1.363 . S
C968 H984 0.931 . S
C969 C968 1.370 . S
C969 C973 1.408 . S
C970 C968 1.363 . S
C970 C971 1.370 . S
C970 C974 1.524 . S
C971 C963 1.503 1_455 S
C971 C970 1.370 . S
C971 C972 1.403 . S
C972 C971 1.403 . S
C972 C973 1.404 . S
C972 C975 1.539 1_455 S
C973 C969 1.408 . S
C973 C972 1.404 . S
C973 H985 0.930 . S
C974 C970 1.524 . S
C974 H986 0.956 . S
C974 H987 0.961 . S
C974 H988 0.961 . S
C975 C972 1.539 1_655 S
C975 H989 0.958 . S
C975 H990 0.961 . S
C975 H991 0.960 . S
H976 C960 0.931 . S
H977 C965 0.929 . S
H978 C966 0.943 1_455 S
H979 C966 0.962 1_455 S
H980 C966 0.960 . S
H981 C967 0.961 . S
H982 C967 0.961 . S
H983 C967 0.961 . S
H984 C968 0.931 . S
H985 C973 0.930 . S
H986 C974 0.956 . S
H987 C974 0.961 . S
H988 C974 0.961 . S
H989 C975 0.958 . S
H990 C975 0.961 . S
H991 C975 0.960 . S
C992 C993 1.391 . S
C992 C994 1.394 . S
C992 H1008 0.931 . S
C993 C992 1.391 . S
C993 C997 1.376 . S
C994 C992 1.394 . S
C994 C995 1.369 . S
C994 C998 1.531 . S
C995 C994 1.369 . S
C995 C996 1.410 . S
C995 C1003 1.503 . S
C996 C995 1.410 . S
C996 C997 1.392 . S
C996 C999 1.511 . S
C997 C993 1.376 . S
C997 C996 1.392 . S
C997 H1009 0.929 . S
C998 C994 1.531 . S
C998 H1010 0.960 . S
C998 H1011 0.962 . S
C998 H1012 0.960 . S
C999 C996 1.511 . S
C999 H1013 0.961 . S
C999 H1014 0.961 . S
C999 H1015 0.961 . S
C1000 C1001 1.370 . S
C1000 C1002 1.363 . S
C1000 H1016 0.931 . S
C1001 C1000 1.370 . S
C1001 C1005 1.408 . S
C1002 C1000 1.363 . S
C1002 C1003 1.370 . S
C1002 C1006 1.524 . S
C1003 C995 1.503 . S
C1003 C1002 1.370 . S
C1003 C1004 1.403 . S
C1004 C1003 1.403 . S
C1004 C1005 1.404 . S
C1004 C1007 1.539 . S
C1005 C1001 1.408 . S
C1005 C1004 1.404 . S
C1005 H1017 0.930 . S
C1006 C1002 1.524 . S
C1006 H1018 0.956 . S
C1006 H1019 0.961 . S
C1006 H1020 0.961 . S
C1007 C1004 1.539 . S
C1007 H1021 0.958 . S
C1007 H1022 0.961 . S
C1007 H1023 0.960 . S
H1008 C992 0.931 . S
H1009 C997 0.929 . S
H1010 C998 0.960 . S
H1011 C998 0.962 . S
H1012 C998 0.960 . S
H1013 C999 0.961 . S
H1014 C999 0.961 . S
H1015 C999 0.961 . S
H1016 C1000 0.931 . S
H1017 C1005 0.930 . S
H1018 C1006 0.956 . S
H1019 C1006 0.961 . S
H1020 C1006 0.961 . S
H1021 C1007 0.958 . S
H1022 C1007 0.961 . S
H1023 C1007 0.960 . S
C1024 C1025 1.391 . S
C1024 C1026 1.394 . S
C1024 H1040 0.931 . S
C1025 C1024 1.391 . S
C1025 C1029 1.376 . S
C1026 C1024 1.394 . S
C1026 C1027 1.369 . S
C1026 C1030 1.531 . S
C1027 C1026 1.369 . S
C1027 C1028 1.410 . S
C1027 C1035 1.503 . S
C1028 C1027 1.410 . S
C1028 C1029 1.392 . S
C1028 C1031 1.511 . S
C1029 C1025 1.376 . S
C1029 C1028 1.392 . S
C1029 H1041 0.929 . S
C1030 C1026 1.531 . S
C1030 H1042 0.960 . S
C1030 H1043 0.962 . S
C1030 H1044 0.960 . S
C1031 C1028 1.511 . S
C1031 H1045 0.961 . S
C1031 H1046 0.961 . S
C1031 H1047 0.961 . S
C1032 C1033 1.370 . S
C1032 C1034 1.363 . S
C1032 H1048 0.931 . S
C1033 C1032 1.370 . S
C1033 C1037 1.408 . S
C1034 C1032 1.363 . S
C1034 C1035 1.370 1_565 S
C1034 C1038 1.524 1_565 S
C1035 C1027 1.503 . S
C1035 C1034 1.370 1_545 S
C1035 C1036 1.394 1_545 S
C1036 C1035 1.394 1_565 S
C1036 C1037 1.418 . S
C1036 C1039 1.534 1_565 S
C1037 C1033 1.408 . S
C1037 C1036 1.418 . S
C1037 H1049 0.930 . S
C1038 C1034 1.524 1_545 S
C1038 H1050 0.956 . S
C1038 H1051 0.961 . S
C1038 H1052 0.961 1_545 S
C1039 C1036 1.534 1_545 S
C1039 H1053 0.958 . S
C1039 H1054 0.961 . S
C1039 H1055 0.960 . S
H1040 C1024 0.931 . S
H1041 C1029 0.929 . S
H1042 C1030 0.960 . S
H1043 C1030 0.962 . S
H1044 C1030 0.960 . S
H1045 C1031 0.961 . S
H1046 C1031 0.961 . S
H1047 C1031 0.961 . S
H1048 C1032 0.931 . S
H1049 C1037 0.930 . S
H1050 C1038 0.956 . S
H1051 C1038 0.961 . S
H1052 C1038 0.961 1_565 S
H1053 C1039 0.958 . S
H1054 C1039 0.961 . S
H1055 C1039 0.960 . S
C1056 C1057 1.391 . S
C1056 C1058 1.394 . S
C1056 H1072 0.931 . S
C1057 C1056 1.391 . S
C1057 C1061 1.376 . S
C1058 C1056 1.394 . S
C1058 C1059 1.369 . S
C1058 C1062 1.531 . S
C1059 C1058 1.369 . S
C1059 C1060 1.410 . S
C1059 C1067 1.503 . S
C1060 C1059 1.410 . S
C1060 C1061 1.392 . S
C1060 C1063 1.511 . S
C1061 C1057 1.376 . S
C1061 C1060 1.392 . S
C1061 H1073 0.929 . S
C1062 C1058 1.531 . S
C1062 H1074 0.960 . S
C1062 H1075 0.962 . S
C1062 H1076 0.960 . S
C1063 C1060 1.511 . S
C1063 H1077 0.961 . S
C1063 H1078 0.961 . S
C1063 H1079 0.961 . S
C1064 C1065 1.370 . S
C1064 C1066 1.363 . S
C1064 H1080 0.931 . S
C1065 C1064 1.370 . S
C1065 C1069 1.408 . S
C1066 C1064 1.363 . S
C1066 C1067 1.370 . S
C1066 C1070 1.524 . S
C1067 C1059 1.503 . S
C1067 C1066 1.370 . S
C1067 C1068 1.403 . S
C1068 C1067 1.403 . S
C1068 C1069 1.404 . S
C1068 C1071 1.539 . S
C1069 C1065 1.408 . S
C1069 C1068 1.404 . S
C1069 H1081 0.930 . S
C1070 C1066 1.524 . S
C1070 H1082 0.956 . S
C1070 H1083 0.961 . S
C1070 H1084 0.961 . S
C1071 C1068 1.539 . S
C1071 H1085 0.958 . S
C1071 H1086 0.961 . S
C1071 H1087 0.960 . S
H1072 C1056 0.931 . S
H1073 C1061 0.929 . S
H1074 C1062 0.960 . S
H1075 C1062 0.962 . S
H1076 C1062 0.960 . S
H1077 C1063 0.961 . S
H1078 C1063 0.961 . S
H1079 C1063 0.961 . S
H1080 C1064 0.931 . S
H1081 C1069 0.930 . S
H1082 C1070 0.956 . S
H1083 C1070 0.961 . S
H1084 C1070 0.961 . S
H1085 C1071 0.958 . S
H1086 C1071 0.961 . S
H1087 C1071 0.960 . S
C1088 C1089 1.391 . S
C1088 C1090 1.394 . S
C1088 H1104 0.931 . S
C1089 C1088 1.391 . S
C1089 C1093 1.376 . S
C1090 C1088 1.394 . S
C1090 C1091 1.369 . S
C1090 C1094 1.531 . S
C1091 C1090 1.369 . S
C1091 C1092 1.410 . S
C1091 C1099 1.503 . S
C1092 C1091 1.410 . S
C1092 C1093 1.392 . S
C1092 C1095 1.511 . S
C1093 C1089 1.376 . S
C1093 C1092 1.392 . S
C1093 H1105 0.929 . S
C1094 C1090 1.531 . S
C1094 H1106 0.960 . S
C1094 H1107 0.962 . S
C1094 H1108 0.960 . S
C1095 C1092 1.511 . S
C1095 H1109 0.961 . S
C1095 H1110 0.961 . S
C1095 H1111 0.961 . S
C1096 C1097 1.370 . S
C1096 C1098 1.363 . S
C1096 H1112 0.931 . S
C1097 C1096 1.370 . S
C1097 C1101 1.408 . S
C1098 C1096 1.363 . S
C1098 C1099 1.370 . S
C1098 C1102 1.524 . S
C1099 C1091 1.503 . S
C1099 C1098 1.370 . S
C1099 C1100 1.403 . S
C1100 C1099 1.403 . S
C1100 C1101 1.404 . S
C1100 C1103 1.539 . S
C1101 C1097 1.408 . S
C1101 C1100 1.404 . S
C1101 H1113 0.930 . S
C1102 C1098 1.524 . S
C1102 H1114 0.956 . S
C1102 H1115 0.961 . S
C1102 H1116 0.961 . S
C1103 C1100 1.539 . S
C1103 H1117 0.958 . S
C1103 H1118 0.961 . S
C1103 H1119 0.960 . S
H1104 C1088 0.931 . S
H1105 C1093 0.929 . S
H1106 C1094 0.960 . S
H1107 C1094 0.962 . S
H1108 C1094 0.960 . S
H1109 C1095 0.961 . S
H1110 C1095 0.961 . S
H1111 C1095 0.961 . S
H1112 C1096 0.931 . S
H1113 C1101 0.930 . S
H1114 C1102 0.956 . S
H1115 C1102 0.961 . S
H1116 C1102 0.961 . S
H1117 C1103 0.958 . S
H1118 C1103 0.961 . S
H1119 C1103 0.960 . S
C1120 C1121 1.391 . S
C1120 C1122 1.394 . S
C1120 H1136 0.931 . S
C1121 C1120 1.391 . S
C1121 C1125 1.376 . S
C1122 C1120 1.394 . S
C1122 C1123 1.369 . S
C1122 C1126 1.531 . S
C1123 C1122 1.369 . S
C1123 C1124 1.410 . S
C1123 C1131 1.503 . S
C1124 C1123 1.410 . S
C1124 C1125 1.392 . S
C1124 C1127 1.511 . S
C1125 C1121 1.376 . S
C1125 C1124 1.392 . S
C1125 H1137 0.929 . S
C1126 C1122 1.531 . S
C1126 H1138 0.960 . S
C1126 H1139 0.962 . S
C1126 H1140 0.960 . S
C1127 C1124 1.511 . S
C1127 H1141 0.961 . S
C1127 H1142 0.961 . S
C1127 H1143 0.961 . S
C1128 C1129 1.370 . S
C1128 C1130 1.363 . S
C1128 H1144 0.931 . S
C1129 C1128 1.370 . S
C1129 C1133 1.408 . S
C1130 C1128 1.363 . S
C1130 C1131 1.370 . S
C1130 C1134 1.524 . S
C1131 C1123 1.503 . S
C1131 C1130 1.370 . S
C1131 C1132 1.403 . S
C1132 C1131 1.403 . S
C1132 C1133 1.404 . S
C1132 C1135 1.539 . S
C1133 C1129 1.408 . S
C1133 C1132 1.404 . S
C1133 H1145 0.930 . S
C1134 C1130 1.524 . S
C1134 H1146 0.956 . S
C1134 H1147 0.961 . S
C1134 H1148 0.961 . S
C1135 C1132 1.539 . S
C1135 H1149 0.958 . S
C1135 H1150 0.961 . S
C1135 H1151 0.960 . S
H1136 C1120 0.931 . S
H1137 C1125 0.929 . S
H1138 C1126 0.960 . S
H1139 C1126 0.962 . S
H1140 C1126 0.960 . S
H1141 C1127 0.961 . S
H1142 C1127 0.961 . S
H1143 C1127 0.961 . S
H1144 C1128 0.931 . S
H1145 C1133 0.930 . S
H1146 C1134 0.956 . S
H1147 C1134 0.961 . S
H1148 C1134 0.961 . S
H1149 C1135 0.958 . S
H1150 C1135 0.961 . S
H1151 C1135 0.960 . S
C1152 C1153 1.391 . S
C1152 C1154 1.394 . S
C1152 H1168 0.931 . S
C1153 C1152 1.391 . S
C1153 C1157 1.376 . S
C1154 C1152 1.394 . S
C1154 C1155 1.369 . S
C1154 C1158 1.531 . S
C1155 C1154 1.369 . S
C1155 C1156 1.410 . S
C1155 C1163 1.503 . S
C1156 C1155 1.410 . S
C1156 C1157 1.392 . S
C1156 C1159 1.511 . S
C1157 C1153 1.376 . S
C1157 C1156 1.392 . S
C1157 H1169 0.929 . S
C1158 C1154 1.531 . S
C1158 H1170 0.960 . S
C1158 H1171 0.962 . S
C1158 H1172 0.960 . S
C1159 C1156 1.511 . S
C1159 H1173 0.961 . S
C1159 H1174 0.961 . S
C1159 H1175 0.961 . S
C1160 C1161 1.370 . S
C1160 C1162 1.363 . S
C1160 H1176 0.931 . S
C1161 C1160 1.370 . S
C1161 C1165 1.408 . S
C1162 C1160 1.363 . S
C1162 C1163 1.370 . S
C1162 C1166 1.524 . S
C1163 C1155 1.503 . S
C1163 C1162 1.370 . S
C1163 C1164 1.403 . S
C1164 C1163 1.403 . S
C1164 C1165 1.404 . S
C1164 C1167 1.539 . S
C1165 C1161 1.408 . S
C1165 C1164 1.404 . S
C1165 H1177 0.930 . S
C1166 C1162 1.524 . S
C1166 H1178 0.956 . S
C1166 H1179 0.961 . S
C1166 H1180 0.961 . S
C1167 C1164 1.539 . S
C1167 H1181 0.958 . S
C1167 H1182 0.961 . S
C1167 H1183 0.960 . S
H1168 C1152 0.931 . S
H1169 C1157 0.929 . S
H1170 C1158 0.960 . S
H1171 C1158 0.962 . S
H1172 C1158 0.960 . S
H1173 C1159 0.961 . S
H1174 C1159 0.961 . S
H1175 C1159 0.961 . S
H1176 C1160 0.931 . S
H1177 C1165 0.930 . S
H1178 C1166 0.956 . S
H1179 C1166 0.961 . S
H1180 C1166 0.961 . S
H1181 C1167 0.958 . S
H1182 C1167 0.961 . S
H1183 C1167 0.960 . S
C1184 C1185 1.391 . S
C1184 C1186 1.394 . S
C1184 H1200 0.931 . S
C1185 C1184 1.391 . S
C1185 C1189 1.376 . S
C1186 C1184 1.394 . S
C1186 C1187 1.369 . S
C1186 C1190 1.531 . S
C1187 C1186 1.369 . S
C1187 C1188 1.410 . S
C1187 C1195 1.503 . S
C1188 C1187 1.410 . S
C1188 C1189 1.392 . S
C1188 C1191 1.511 . S
C1189 C1185 1.376 . S
C1189 C1188 1.392 . S
C1189 H1201 0.929 . S
C1190 C1186 1.531 . S
C1190 H1202 0.960 . S
C1190 H1203 0.962 . S
C1190 H1204 0.960 . S
C1191 C1188 1.511 . S
C1191 H1205 0.961 . S
C1191 H1206 0.961 . S
C1191 H1207 0.961 . S
C1192 C1193 1.370 . S
C1192 C1194 1.363 . S
C1192 H1208 0.931 . S
C1193 C1192 1.370 . S
C1193 C1197 1.408 . S
C1194 C1192 1.363 . S
C1194 C1195 1.370 . S
C1194 C1198 1.524 . S
C1195 C1187 1.503 . S
C1195 C1194 1.370 . S
C1195 C1196 1.403 . S
C1196 C1195 1.403 . S
C1196 C1197 1.404 . S
C1196 C1199 1.539 . S
C1197 C1193 1.408 . S
C1197 C1196 1.404 . S
C1197 H1209 0.930 . S
C1198 C1194 1.524 . S
C1198 H1210 0.956 . S
C1198 H1211 0.961 . S
C1198 H1212 0.961 . S
C1199 C1196 1.539 . S
C1199 H1213 0.958 . S
C1199 H1214 0.961 . S
C1199 H1215 0.960 . S
H1200 C1184 0.931 . S
H1201 C1189 0.929 . S
H1202 C1190 0.960 . S
H1203 C1190 0.962 . S
H1204 C1190 0.960 . S
H1205 C1191 0.961 . S
H1206 C1191 0.961 . S
H1207 C1191 0.961 . S
H1208 C1192 0.931 . S
H1209 C1197 0.930 . S
H1210 C1198 0.956 . S
H1211 C1198 0.961 . S
H1212 C1198 0.961 . S
H1213 C1199 0.958 . S
H1214 C1199 0.961 . S
H1215 C1199 0.960 . S
C1216 C1217 1.391 . S
C1216 C1218 1.394 . S
C1216 H1232 0.931 . S
C1217 C1216 1.391 . S
C1217 C1221 1.376 . S
C1218 C1216 1.394 . S
C1218 C1219 1.369 . S
C1218 C1222 1.531 . S
C1219 C1218 1.369 . S
C1219 C1220 1.410 . S
C1219 C1227 1.503 . S
C1220 C1219 1.410 . S
C1220 C1221 1.392 . S
C1220 C1223 1.511 . S
C1221 C1217 1.376 . S
C1221 C1220 1.392 . S
C1221 H1233 0.929 . S
C1222 C1218 1.531 . S
C1222 H1234 0.960 . S
C1222 H1235 0.962 . S
C1222 H1236 0.960 . S
C1223 C1220 1.511 . S
C1223 H1237 0.961 . S
C1223 H1238 0.961 . S
C1223 H1239 0.961 . S
C1224 C1225 1.370 . S
C1224 C1226 1.363 . S
C1224 H1240 0.931 . S
C1225 C1224 1.370 . S
C1225 C1229 1.408 . S
C1226 C1224 1.363 . S
C1226 C1227 1.370 . S
C1226 C1230 1.524 . S
C1227 C1219 1.503 . S
C1227 C1226 1.370 . S
C1227 C1228 1.403 . S
C1228 C1227 1.403 . S
C1228 C1229 1.404 . S
C1228 C1231 1.539 . S
C1229 C1225 1.408 . S
C1229 C1228 1.404 . S
C1229 H1241 0.930 . S
C1230 C1226 1.524 . S
C1230 H1242 0.956 . S
C1230 H1243 0.961 . S
C1230 H1244 0.961 . S
C1231 C1228 1.539 . S
C1231 H1245 0.958 . S
C1231 H1246 0.961 . S
C1231 H1247 0.960 . S
H1232 C1216 0.931 . S
H1233 C1221 0.929 . S
H1234 C1222 0.960 . S
H1235 C1222 0.962 . S
H1236 C1222 0.960 . S
H1237 C1223 0.961 . S
H1238 C1223 0.961 . S
H1239 C1223 0.961 . S
H1240 C1224 0.931 . S
H1241 C1229 0.930 . S
H1242 C1230 0.956 . S
H1243 C1230 0.961 . S
H1244 C1230 0.961 . S
H1245 C1231 0.958 . S
H1246 C1231 0.961 . S
H1247 C1231 0.960 . S
C1248 C1249 1.391 . S
C1248 C1250 1.394 1_545 S
C1248 H1264 0.931 . S
C1249 C1248 1.391 . S
C1249 C1253 1.376 . S
C1250 C1248 1.394 1_565 S
C1250 C1251 1.369 . S
C1250 C1254 1.531 . S
C1251 C1250 1.369 . S
C1251 C1252 1.410 . S
C1251 C1259 1.503 . S
C1252 C1251 1.410 . S
C1252 C1253 1.392 1_565 S
C1252 C1255 1.511 . S
C1253 C1249 1.376 . S
C1253 C1252 1.392 1_545 S
C1253 H1265 0.929 . S
C1254 C1250 1.531 . S
C1254 H1266 0.960 . S
C1254 H1267 0.962 . S
C1254 H1268 0.960 . S
C1255 C1252 1.511 . S
C1255 H1269 0.961 . S
C1255 H1270 0.961 . S
C1255 H1271 0.961 . S
C1256 C1257 1.370 . S
C1256 C1258 1.363 . S
C1256 H1272 0.931 . S
C1257 C1256 1.370 . S
C1257 C1261 1.408 . S
C1258 C1256 1.363 . S
C1258 C1259 1.370 . S
C1258 C1262 1.524 . S
C1259 C1251 1.503 . S
C1259 C1258 1.370 . S
C1259 C1260 1.403 . S
C1260 C1259 1.403 . S
C1260 C1261 1.404 . S
C1260 C1263 1.539 . S
C1261 C1257 1.408 . S
C1261 C1260 1.404 . S
C1261 H1273 0.930 . S
C1262 C1258 1.524 . S
C1262 H1274 0.956 . S
C1262 H1275 0.961 . S
C1262 H1276 0.961 . S
C1263 C1260 1.539 . S
C1263 H1277 0.958 . S
C1263 H1278 0.961 . S
C1263 H1279 0.960 . S
H1264 C1248 0.931 . S
H1265 C1253 0.929 . S
H1266 C1254 0.960 . S
H1267 C1254 0.962 . S
H1268 C1254 0.960 . S
H1269 C1255 0.961 . S
H1270 C1255 0.961 . S
H1271 C1255 0.961 . S
H1272 C1256 0.931 . S
H1273 C1261 0.930 . S
H1274 C1262 0.956 . S
H1275 C1262 0.961 . S
H1276 C1262 0.961 . S
H1277 C1263 0.958 . S
H1278 C1263 0.961 . S
H1279 C1263 0.960 . S
C1280 C1281 1.391 1_455 S
C1280 C1282 1.394 . S
C1280 H1296 0.931 1_455 S
C1281 C1280 1.391 1_655 S
C1281 C1285 1.376 1_655 S
C1282 C1280 1.394 . S
C1282 C1283 1.369 . S
C1282 C1286 1.531 . S
C1283 C1282 1.369 . S
C1283 C1284 1.410 . S
C1283 C1291 1.503 . S
C1284 C1283 1.410 . S
C1284 C1285 1.392 . S
C1284 C1287 1.511 . S
C1285 C1281 1.376 1_455 S
C1285 C1284 1.392 . S
C1285 H1297 0.929 1_455 S
C1286 C1282 1.531 . S
C1286 H1298 0.960 . S
C1286 H1299 0.962 . S
C1286 H1300 0.960 . S
C1287 C1284 1.511 . S
C1287 H1301 0.961 . S
C1287 H1302 0.961 . S
C1287 H1303 0.961 . S
C1288 C1289 1.370 . S
C1288 C1290 1.363 . S
C1288 H1304 0.931 . S
C1289 C1288 1.370 . S
C1289 C1293 1.408 . S
C1290 C1288 1.363 . S
C1290 C1291 1.370 . S
C1290 C1294 1.524 . S
C1291 C1283 1.503 . S
C1291 C1290 1.370 . S
C1291 C1292 1.403 . S
C1292 C1291 1.403 . S
C1292 C1293 1.404 . S
C1292 C1295 1.539 . S
C1293 C1289 1.408 . S
C1293 C1292 1.404 . S
C1293 H1305 0.930 . S
C1294 C1290 1.524 . S
C1294 H1306 0.956 . S
C1294 H1307 0.961 . S
C1294 H1308 0.961 . S
C1295 C1292 1.539 . S
C1295 H1309 0.958 . S
C1295 H1310 0.961 . S
C1295 H1311 0.960 . S
H1296 C1280 0.931 1_655 S
H1297 C1285 0.929 1_655 S
H1298 C1286 0.960 . S
H1299 C1286 0.962 . S
H1300 C1286 0.960 . S
H1301 C1287 0.961 . S
H1302 C1287 0.961 . S
H1303 C1287 0.961 . S
H1304 C1288 0.931 . S
H1305 C1293 0.930 . S
H1306 C1294 0.956 . S
H1307 C1294 0.961 . S
H1308 C1294 0.961 . S
H1309 C1295 0.958 . S
H1310 C1295 0.961 . S
H1311 C1295 0.960 . S
C1312 C1313 1.391 . S
C1312 C1314 1.394 . S
C1312 H1328 0.931 . S
C1313 C1312 1.391 . S
C1313 C1317 1.376 . S
C1314 C1312 1.394 . S
C1314 C1315 1.369 . S
C1314 C1318 1.531 . S
C1315 C1314 1.369 . S
C1315 C1316 1.410 . S
C1315 C1323 1.503 . S
C1316 C1315 1.410 . S
C1316 C1317 1.392 . S
C1316 C1319 1.511 . S
C1317 C1313 1.376 . S
C1317 C1316 1.392 . S
C1317 H1329 0.929 . S
C1318 C1314 1.531 . S
C1318 H1330 0.960 . S
C1318 H1331 0.962 . S
C1318 H1332 0.960 . S
C1319 C1316 1.511 . S
C1319 H1333 0.961 . S
C1319 H1334 0.961 . S
C1319 H1335 0.961 . S
C1320 C1321 1.370 . S
C1320 C1322 1.363 . S
C1320 H1336 0.931 . S
C1321 C1320 1.370 . S
C1321 C1325 1.408 . S
C1322 C1320 1.363 . S
C1322 C1323 1.370 . S
C1322 C1326 1.524 . S
C1323 C1315 1.503 . S
C1323 C1322 1.370 . S
C1323 C1324 1.403 . S
C1324 C1323 1.403 . S
C1324 C1325 1.404 . S
C1324 C1327 1.539 . S
C1325 C1321 1.408 . S
C1325 C1324 1.404 . S
C1325 H1337 0.930 . S
C1326 C1322 1.524 . S
C1326 H1338 0.956 . S
C1326 H1339 0.961 . S
C1326 H1340 0.961 . S
C1327 C1324 1.539 . S
C1327 H1341 0.958 . S
C1327 H1342 0.961 . S
C1327 H1343 0.960 . S
H1328 C1312 0.931 . S
H1329 C1317 0.929 . S
H1330 C1318 0.960 . S
H1331 C1318 0.962 . S
H1332 C1318 0.960 . S
H1333 C1319 0.961 . S
H1334 C1319 0.961 . S
H1335 C1319 0.961 . S
H1336 C1320 0.931 . S
H1337 C1325 0.930 . S
H1338 C1326 0.956 . S
H1339 C1326 0.961 . S
H1340 C1326 0.961 . S
H1341 C1327 0.958 . S
H1342 C1327 0.961 . S
H1343 C1327 0.960 . S
C1344 C1345 1.391 . S
C1344 C1346 1.394 . S
C1344 H1360 0.931 . S
C1345 C1344 1.391 . S
C1345 C1349 1.376 . S
C1346 C1344 1.394 . S
C1346 C1347 1.369 . S
C1346 C1350 1.531 . S
C1347 C1346 1.369 . S
C1347 C1348 1.410 . S
C1347 C1355 1.503 . S
C1348 C1347 1.410 . S
C1348 C1349 1.392 . S
C1348 C1351 1.511 . S
C1349 C1345 1.376 . S
C1349 C1348 1.392 . S
C1349 H1361 0.929 . S
C1350 C1346 1.531 . S
C1350 H1362 0.960 . S
C1350 H1363 0.962 . S
C1350 H1364 0.960 . S
C1351 C1348 1.511 . S
C1351 H1365 0.961 . S
C1351 H1366 0.961 . S
C1351 H1367 0.961 . S
C1352 C1353 1.370 . S
C1352 C1354 1.363 . S
C1352 H1368 0.931 . S
C1353 C1352 1.370 . S
C1353 C1357 1.408 . S
C1354 C1352 1.363 . S
C1354 C1355 1.370 . S
C1354 C1358 1.524 . S
C1355 C1347 1.503 . S
C1355 C1354 1.370 . S
C1355 C1356 1.403 . S
C1356 C1355 1.403 . S
C1356 C1357 1.404 . S
C1356 C1359 1.539 . S
C1357 C1353 1.408 . S
C1357 C1356 1.404 . S
C1357 H1369 0.930 . S
C1358 C1354 1.524 . S
C1358 H1370 0.956 . S
C1358 H1371 0.961 . S
C1358 H1372 0.961 . S
C1359 C1356 1.539 . S
C1359 H1373 0.958 . S
C1359 H1374 0.961 . S
C1359 H1375 0.960 . S
H1360 C1344 0.931 . S
H1361 C1349 0.929 . S
H1362 C1350 0.960 . S
H1363 C1350 0.962 . S
H1364 C1350 0.960 . S
H1365 C1351 0.961 . S
H1366 C1351 0.961 . S
H1367 C1351 0.961 . S
H1368 C1352 0.931 . S
H1369 C1357 0.930 . S
H1370 C1358 0.956 . S
H1371 C1358 0.961 . S
H1372 C1358 0.961 . S
H1373 C1359 0.958 . S
H1374 C1359 0.961 . S
H1375 C1359 0.960 . S
C1376 C1377 1.391 . S
C1376 C1378 1.394 . S
C1376 H1392 0.931 . S
C1377 C1376 1.391 . S
C1377 C1381 1.376 . S
C1378 C1376 1.394 . S
C1378 C1379 1.369 . S
C1378 C1382 1.531 . S
C1379 C1378 1.369 . S
C1379 C1380 1.410 . S
C1379 C1387 1.503 . S
C1380 C1379 1.410 . S
C1380 C1381 1.392 . S
C1380 C1383 1.511 . S
C1381 C1377 1.376 . S
C1381 C1380 1.392 . S
C1381 H1393 0.929 . S
C1382 C1378 1.531 . S
C1382 H1394 0.960 . S
C1382 H1395 0.962 . S
C1382 H1396 0.960 . S
C1383 C1380 1.511 . S
C1383 H1397 0.961 . S
C1383 H1398 0.961 . S
C1383 H1399 0.961 . S
C1384 C1385 1.370 . S
C1384 C1386 1.363 . S
C1384 H1400 0.931 . S
C1385 C1384 1.370 . S
C1385 C1389 1.408 . S
C1386 C1384 1.363 . S
C1386 C1387 1.370 . S
C1386 C1390 1.524 . S
C1387 C1379 1.503 . S
C1387 C1386 1.370 . S
C1387 C1388 1.403 . S
C1388 C1387 1.403 . S
C1388 C1389 1.404 . S
C1388 C1391 1.539 . S
C1389 C1385 1.408 . S
C1389 C1388 1.404 . S
C1389 H1401 0.930 . S
C1390 C1386 1.524 . S
C1390 H1402 0.956 . S
C1390 H1403 0.961 . S
C1390 H1404 0.961 . S
C1391 C1388 1.539 . S
C1391 H1405 0.958 . S
C1391 H1406 0.961 . S
C1391 H1407 0.960 . S
H1392 C1376 0.931 . S
H1393 C1381 0.929 . S
H1394 C1382 0.960 . S
H1395 C1382 0.962 . S
H1396 C1382 0.960 . S
H1397 C1383 0.961 . S
H1398 C1383 0.961 . S
H1399 C1383 0.961 . S
H1400 C1384 0.931 . S
H1401 C1389 0.930 . S
H1402 C1390 0.956 . S
H1403 C1390 0.961 . S
H1404 C1390 0.961 . S
H1405 C1391 0.958 . S
H1406 C1391 0.961 . S
H1407 C1391 0.960 . S
C1408 C1409 1.391 . S
C1408 C1410 1.394 . S
C1408 H1424 0.931 . S
C1409 C1408 1.391 . S
C1409 C1413 1.376 . S
C1410 C1408 1.394 . S
C1410 C1411 1.369 . S
C1410 C1414 1.531 . S
C1411 C1410 1.369 . S
C1411 C1412 1.410 . S
C1411 C1419 1.503 . S
C1412 C1411 1.410 . S
C1412 C1413 1.392 . S
C1412 C1415 1.511 . S
C1413 C1409 1.376 . S
C1413 C1412 1.392 . S
C1413 H1425 0.929 . S
C1414 C1410 1.531 . S
C1414 H1426 0.960 . S
C1414 H1427 0.962 . S
C1414 H1428 0.960 . S
C1415 C1412 1.511 . S
C1415 H1429 0.961 . S
C1415 H1430 0.961 . S
C1415 H1431 0.961 . S
C1416 C1417 1.370 . S
C1416 C1418 1.363 . S
C1416 H1432 0.931 . S
C1417 C1416 1.370 . S
C1417 C1421 1.408 . S
C1418 C1416 1.363 . S
C1418 C1419 1.370 . S
C1418 C1422 1.524 . S
C1419 C1411 1.503 . S
C1419 C1418 1.370 . S
C1419 C1420 1.403 . S
C1420 C1419 1.403 . S
C1420 C1421 1.404 . S
C1420 C1423 1.539 . S
C1421 C1417 1.408 . S
C1421 C1420 1.404 . S
C1421 H1433 0.930 . S
C1422 C1418 1.524 . S
C1422 H1434 0.956 . S
C1422 H1435 0.961 . S
C1422 H1436 0.961 . S
C1423 C1420 1.539 . S
C1423 H1437 0.958 . S
C1423 H1438 0.961 . S
C1423 H1439 0.960 . S
H1424 C1408 0.931 . S
H1425 C1413 0.929 . S
H1426 C1414 0.960 . S
H1427 C1414 0.962 . S
H1428 C1414 0.960 . S
H1429 C1415 0.961 . S
H1430 C1415 0.961 . S
H1431 C1415 0.961 . S
H1432 C1416 0.931 . S
H1433 C1421 0.930 . S
H1434 C1422 0.956 . S
H1435 C1422 0.961 . S
H1436 C1422 0.961 . S
H1437 C1423 0.958 . S
H1438 C1423 0.961 . S
H1439 C1423 0.960 . S
C1440 C1441 1.391 . S
C1440 C1442 1.394 . S
C1440 H1456 0.931 . S
C1441 C1440 1.391 . S
C1441 C1445 1.376 . S
C1442 C1440 1.394 . S
C1442 C1443 1.369 . S
C1442 C1446 1.531 . S
C1443 C1442 1.369 . S
C1443 C1444 1.410 . S
C1443 C1451 1.503 1_565 S
C1444 C1443 1.410 . S
C1444 C1445 1.392 . S
C1444 C1447 1.511 . S
C1445 C1441 1.376 . S
C1445 C1444 1.392 . S
C1445 H1457 0.929 . S
C1446 C1442 1.531 . S
C1446 H1458 0.960 1_565 S
C1446 H1459 0.962 . S
C1446 H1460 0.960 . S
C1447 C1444 1.511 . S
C1447 H1461 0.961 . S
C1447 H1462 0.961 . S
C1447 H1463 0.961 . S
C1448 C1449 1.370 . S
C1448 C1450 1.363 . S
C1448 H1464 0.931 . S
C1449 C1448 1.370 . S
C1449 C1453 1.408 . S
C1450 C1448 1.363 . S
C1450 C1451 1.370 . S
C1450 C1454 1.524 . S
C1451 C1443 1.503 1_545 S
C1451 C1450 1.370 . S
C1451 C1452 1.403 . S
C1452 C1451 1.403 . S
C1452 C1453 1.404 . S
C1452 C1455 1.539 1_545 S
C1453 C1449 1.408 . S
C1453 C1452 1.404 . S
C1453 H1465 0.930 . S
C1454 C1450 1.524 . S
C1454 H1466 0.956 . S
C1454 H1467 0.961 1_545 S
C1454 H1468 0.961 . S
C1455 C1452 1.539 1_565 S
C1455 H1469 0.958 . S
C1455 H1470 0.961 1_565 S
C1455 H1471 0.960 . S
H1456 C1440 0.931 . S
H1457 C1445 0.929 . S
H1458 C1446 0.960 1_545 S
H1459 C1446 0.962 . S
H1460 C1446 0.960 . S
H1461 C1447 0.961 . S
H1462 C1447 0.961 . S
H1463 C1447 0.961 . S
H1464 C1448 0.931 . S
H1465 C1453 0.930 . S
H1466 C1454 0.956 . S
H1467 C1454 0.961 1_565 S
H1468 C1454 0.961 . S
H1469 C1455 0.958 . S
H1470 C1455 0.961 1_545 S
H1471 C1455 0.960 . S
C1472 C1473 1.391 . S
C1472 C1474 1.394 . S
C1472 H1488 0.931 . S
C1473 C1472 1.391 . S
C1473 C1477 1.376 . S
C1474 C1472 1.394 . S
C1474 C1475 1.369 . S
C1474 C1478 1.531 . S
C1475 C1474 1.369 . S
C1475 C1476 1.410 . S
C1475 C1483 1.503 1_455 S
C1476 C1475 1.410 . S
C1476 C1477 1.392 . S
C1476 C1479 1.511 1_455 S
C1477 C1473 1.376 . S
C1477 C1476 1.392 . S
C1477 H1489 0.929 . S
C1478 C1474 1.531 . S
C1478 H1490 0.960 . S
C1478 H1491 0.962 . S
C1478 H1492 0.960 . S
C1479 C1476 1.511 1_655 S
C1479 H1493 0.961 . S
C1479 H1494 0.961 . S
C1479 H1495 0.961 . S
C1480 C1481 1.370 . S
C1480 C1482 1.363 . S
C1480 H1496 0.931 . S
C1481 C1480 1.370 . S
C1481 C1485 1.408 . S
C1482 C1480 1.363 . S
C1482 C1483 1.370 . S
C1482 C1486 1.524 . S
C1483 C1475 1.503 1_655 S
C1483 C1482 1.370 . S
C1483 C1484 1.403 . S
C1484 C1483 1.403 . S
C1484 C1485 1.404 . S
C1484 C1487 1.539 1_655 S
C1485 C1481 1.408 . S
C1485 C1484 1.404 . S
C1485 H1497 0.930 . S
C1486 C1482 1.524 . S
C1486 H1498 0.956 . S
C1486 H1499 0.961 . S
C1486 H1500 0.961 . S
C1487 C1484 1.539 1_455 S
C1487 H1501 0.958 . S
C1487 H1502 0.961 1_455 S
C1487 H1503 0.960 . S
H1488 C1472 0.931 . S
H1489 C1477 0.929 . S
H1490 C1478 0.960 . S
H1491 C1478 0.962 . S
H1492 C1478 0.960 . S
H1493 C1479 0.961 . S
H1494 C1479 0.961 . S
H1495 C1479 0.961 . S
H1496 C1480 0.931 . S
H1497 C1485 0.930 . S
H1498 C1486 0.956 . S
H1499 C1486 0.961 . S
H1500 C1486 0.961 . S
H1501 C1487 0.958 . S
H1502 C1487 0.961 1_655 S
H1503 C1487 0.960 . S
C1504 C1505 1.391 . S
C1504 C1506 1.394 . S
C1504 H1520 0.931 . S
C1505 C1504 1.391 . S
C1505 C1509 1.376 . S
C1506 C1504 1.394 . S
C1506 C1507 1.369 . S
C1506 C1510 1.531 . S
C1507 C1506 1.369 . S
C1507 C1508 1.410 . S
C1507 C1515 1.503 . S
C1508 C1507 1.410 . S
C1508 C1509 1.392 . S
C1508 C1511 1.511 . S
C1509 C1505 1.376 . S
C1509 C1508 1.392 . S
C1509 H1521 0.929 . S
C1510 C1506 1.531 . S
C1510 H1522 0.960 . S
C1510 H1523 0.962 . S
C1510 H1524 0.960 . S
C1511 C1508 1.511 . S
C1511 H1525 0.961 . S
C1511 H1526 0.961 . S
C1511 H1527 0.961 . S
C1512 C1513 1.370 . S
C1512 C1514 1.363 . S
C1512 H1528 0.931 . S
C1513 C1512 1.370 . S
C1513 C1517 1.408 . S
C1514 C1512 1.363 . S
C1514 C1515 1.370 . S
C1514 C1518 1.524 . S
C1515 C1507 1.503 . S
C1515 C1514 1.370 . S
C1515 C1516 1.403 . S
C1516 C1515 1.403 . S
C1516 C1517 1.404 . S
C1516 C1519 1.539 . S
C1517 C1513 1.408 . S
C1517 C1516 1.404 . S
C1517 H1529 0.930 . S
C1518 C1514 1.524 . S
C1518 H1530 0.956 . S
C1518 H1531 0.961 . S
C1518 H1532 0.961 . S
C1519 C1516 1.539 . S
C1519 H1533 0.958 . S
C1519 H1534 0.961 . S
C1519 H1535 0.960 . S
H1520 C1504 0.931 . S
H1521 C1509 0.929 . S
H1522 C1510 0.960 . S
H1523 C1510 0.962 . S
H1524 C1510 0.960 . S
H1525 C1511 0.961 . S
H1526 C1511 0.961 . S
H1527 C1511 0.961 . S
H1528 C1512 0.931 . S
H1529 C1517 0.930 . S
H1530 C1518 0.956 . S
H1531 C1518 0.961 . S
H1532 C1518 0.961 . S
H1533 C1519 0.958 . S
H1534 C1519 0.961 . S
H1535 C1519 0.960 . S
C1536 C1537 1.391 . S
C1536 C1538 1.394 1_455 S
C1536 H1552 0.931 . S
C1537 C1536 1.391 . S
C1537 C1541 1.376 . S
C1538 C1536 1.394 1_655 S
C1538 C1539 1.369 . S
C1538 C1542 1.531 . S
C1539 C1538 1.369 . S
C1539 C1540 1.410 . S
C1539 C1547 1.503 . S
C1540 C1539 1.410 . S
C1540 C1541 1.392 1_655 S
C1540 C1543 1.511 . S
C1541 C1537 1.376 . S
C1541 C1540 1.392 1_455 S
C1541 H1553 0.929 . S
C1542 C1538 1.531 . S
C1542 H1554 0.960 . S
C1542 H1555 0.962 . S
C1542 H1556 0.960 . S
C1543 C1540 1.511 . S
C1543 H1557 0.961 1_655 S
C1543 H1558 0.961 . S
C1543 H1559 0.961 . S
C1544 C1545 1.370 . S
C1544 C1546 1.363 . S
C1544 H1560 0.931 . S
C1545 C1544 1.370 . S
C1545 C1549 1.408 . S
C1546 C1544 1.363 . S
C1546 C1547 1.370 . S
C1546 C1550 1.524 . S
C1547 C1539 1.503 . S
C1547 C1546 1.370 . S
C1547 C1548 1.403 . S
C1548 C1547 1.403 . S
C1548 C1549 1.404 . S
C1548 C1551 1.539 . S
C1549 C1545 1.408 . S
C1549 C1548 1.404 . S
C1549 H1561 0.930 . S
C1550 C1546 1.524 . S
C1550 H1562 0.956 . S
C1550 H1563 0.961 . S
C1550 H1564 0.961 . S
C1551 C1548 1.539 . S
C1551 H1565 0.958 . S
C1551 H1566 0.961 . S
C1551 H1567 0.960 . S
H1552 C1536 0.931 . S
H1553 C1541 0.929 . S
H1554 C1542 0.960 . S
H1555 C1542 0.962 . S
H1556 C1542 0.960 . S
H1557 C1543 0.961 1_455 S
H1558 C1543 0.961 . S
H1559 C1543 0.961 . S
H1560 C1544 0.931 . S
H1561 C1549 0.930 . S
H1562 C1550 0.956 . S
H1563 C1550 0.961 . S
H1564 C1550 0.961 . S
H1565 C1551 0.958 . S
H1566 C1551 0.961 . S
H1567 C1551 0.960 . S
C1568 C1569 1.391 . S
C1568 C1570 1.394 . S
C1568 H1584 0.931 . S
C1569 C1568 1.391 . S
C1569 C1573 1.376 . S
C1570 C1568 1.394 . S
C1570 C1571 1.369 . S
C1570 C1574 1.531 . S
C1571 C1570 1.369 . S
C1571 C1572 1.410 . S
C1571 C1579 1.503 . S
C1572 C1571 1.410 . S
C1572 C1573 1.392 . S
C1572 C1575 1.511 . S
C1573 C1569 1.376 . S
C1573 C1572 1.392 . S
C1573 H1585 0.929 . S
C1574 C1570 1.531 . S
C1574 H1586 0.960 . S
C1574 H1587 0.962 . S
C1574 H1588 0.960 . S
C1575 C1572 1.511 . S
C1575 H1589 0.961 . S
C1575 H1590 0.961 . S
C1575 H1591 0.961 . S
C1576 C1577 1.370 . S
C1576 C1578 1.363 . S
C1576 H1592 0.931 . S
C1577 C1576 1.370 . S
C1577 C1581 1.408 . S
C1578 C1576 1.363 . S
C1578 C1579 1.370 . S
C1578 C1582 1.524 . S
C1579 C1571 1.503 . S
C1579 C1578 1.370 . S
C1579 C1580 1.403 . S
C1580 C1579 1.403 . S
C1580 C1581 1.404 . S
C1580 C1583 1.539 . S
C1581 C1577 1.408 . S
C1581 C1580 1.404 . S
C1581 H1593 0.930 . S
C1582 C1578 1.524 . S
C1582 H1594 0.956 . S
C1582 H1595 0.961 . S
C1582 H1596 0.961 . S
C1583 C1580 1.539 . S
C1583 H1597 0.958 . S
C1583 H1598 0.961 . S
C1583 H1599 0.960 . S
H1584 C1568 0.931 . S
H1585 C1573 0.929 . S
H1586 C1574 0.960 . S
H1587 C1574 0.962 . S
H1588 C1574 0.960 . S
H1589 C1575 0.961 . S
H1590 C1575 0.961 . S
H1591 C1575 0.961 . S
H1592 C1576 0.931 . S
H1593 C1581 0.930 . S
H1594 C1582 0.956 . S
H1595 C1582 0.961 . S
H1596 C1582 0.961 . S
H1597 C1583 0.958 . S
H1598 C1583 0.961 . S
H1599 C1583 0.960 . S
C1600 C1601 1.391 . S
C1600 C1602 1.394 1_565 S
C1600 H1616 0.931 . S
C1601 C1600 1.391 . S
C1601 C1605 1.376 . S
C1602 C1600 1.394 1_545 S
C1602 C1603 1.369 . S
C1602 C1606 1.531 . S
C1603 C1602 1.369 . S
C1603 C1604 1.410 . S
C1603 C1611 1.503 . S
C1604 C1603 1.410 . S
C1604 C1605 1.392 1_545 S
C1604 C1607 1.511 . S
C1605 C1601 1.376 . S
C1605 C1604 1.392 1_565 S
C1605 H1617 0.929 . S
C1606 C1602 1.531 . S
C1606 H1618 0.960 . S
C1606 H1619 0.962 . S
C1606 H1620 0.960 . S
C1607 C1604 1.511 . S
C1607 H1621 0.961 . S
C1607 H1622 0.961 . S
C1607 H1623 0.961 . S
C1608 C1609 1.370 . S
C1608 C1610 1.363 . S
C1608 H1624 0.931 . S
C1609 C1608 1.370 . S
C1609 C1613 1.408 . S
C1610 C1608 1.363 . S
C1610 C1611 1.370 . S
C1610 C1614 1.524 . S
C1611 C1603 1.503 . S
C1611 C1610 1.370 . S
C1611 C1612 1.403 . S
C1612 C1611 1.403 . S
C1612 C1613 1.404 . S
C1612 C1615 1.539 . S
C1613 C1609 1.408 . S
C1613 C1612 1.404 . S
C1613 H1625 0.930 . S
C1614 C1610 1.524 . S
C1614 H1626 0.956 . S
C1614 H1627 0.961 . S
C1614 H1628 0.961 . S
C1615 C1612 1.539 . S
C1615 H1629 0.958 . S
C1615 H1630 0.961 . S
C1615 H1631 0.960 . S
H1616 C1600 0.931 . S
H1617 C1605 0.929 . S
H1618 C1606 0.960 . S
H1619 C1606 0.962 . S
H1620 C1606 0.960 . S
H1621 C1607 0.961 . S
H1622 C1607 0.961 . S
H1623 C1607 0.961 . S
H1624 C1608 0.931 . S
H1625 C1613 0.930 . S
H1626 C1614 0.956 . S
H1627 C1614 0.961 . S
H1628 C1614 0.961 . S
H1629 C1615 0.958 . S
H1630 C1615 0.961 . S
H1631 C1615 0.960 . S
C1632 C1633 1.391 . S
C1632 C1634 1.394 . S
C1632 H1648 0.931 . S
C1633 C1632 1.391 . S
C1633 C1637 1.376 . S
C1634 C1632 1.394 . S
C1634 C1635 1.369 . S
C1634 C1638 1.531 . S
C1635 C1634 1.369 . S
C1635 C1636 1.410 . S
C1635 C1643 1.503 . S
C1636 C1635 1.410 . S
C1636 C1637 1.392 . S
C1636 C1639 1.511 . S
C1637 C1633 1.376 . S
C1637 C1636 1.392 . S
C1637 H1649 0.929 . S
C1638 C1634 1.531 . S
C1638 H1650 0.960 . S
C1638 H1651 0.962 . S
C1638 H1652 0.960 . S
C1639 C1636 1.511 . S
C1639 H1653 0.961 . S
C1639 H1654 0.961 . S
C1639 H1655 0.961 . S
C1640 C1641 1.370 . S
C1640 C1642 1.363 . S
C1640 H1656 0.931 . S
C1641 C1640 1.370 . S
C1641 C1645 1.408 . S
C1642 C1640 1.363 . S
C1642 C1643 1.370 . S
C1642 C1646 1.524 . S
C1643 C1635 1.503 . S
C1643 C1642 1.370 . S
C1643 C1644 1.403 . S
C1644 C1643 1.403 . S
C1644 C1645 1.404 . S
C1644 C1647 1.539 . S
C1645 C1641 1.408 . S
C1645 C1644 1.404 . S
C1645 H1657 0.930 . S
C1646 C1642 1.524 . S
C1646 H1658 0.956 . S
C1646 H1659 0.961 . S
C1646 H1660 0.961 . S
C1647 C1644 1.539 . S
C1647 H1661 0.958 . S
C1647 H1662 0.961 . S
C1647 H1663 0.960 . S
H1648 C1632 0.931 . S
H1649 C1637 0.929 . S
H1650 C1638 0.960 . S
H1651 C1638 0.962 . S
H1652 C1638 0.960 . S
H1653 C1639 0.961 . S
H1654 C1639 0.961 . S
H1655 C1639 0.961 . S
H1656 C1640 0.931 . S
H1657 C1645 0.930 . S
H1658 C1646 0.956 . S
H1659 C1646 0.961 . S
H1660 C1646 0.961 . S
H1661 C1647 0.958 . S
H1662 C1647 0.961 . S
H1663 C1647 0.960 . S
C1664 C1665 1.391 . S
C1664 C1666 1.394 . S
C1664 H1680 0.931 . S
C1665 C1664 1.391 . S
C1665 C1669 1.376 . S
C1666 C1664 1.394 . S
C1666 C1667 1.369 . S
C1666 C1670 1.531 . S
C1667 C1666 1.369 . S
C1667 C1668 1.410 . S
C1667 C1675 1.503 . S
C1668 C1667 1.410 . S
C1668 C1669 1.392 . S
C1668 C1671 1.511 . S
C1669 C1665 1.376 . S
C1669 C1668 1.392 . S
C1669 H1681 0.929 . S
C1670 C1666 1.531 . S
C1670 H1682 0.960 . S
C1670 H1683 0.962 . S
C1670 H1684 0.960 . S
C1671 C1668 1.511 . S
C1671 H1685 0.961 . S
C1671 H1686 0.961 . S
C1671 H1687 0.961 . S
C1672 C1673 1.370 . S
C1672 C1674 1.363 . S
C1672 H1688 0.931 . S
C1673 C1672 1.370 . S
C1673 C1677 1.408 . S
C1674 C1672 1.363 . S
C1674 C1675 1.370 . S
C1674 C1678 1.524 . S
C1675 C1667 1.503 . S
C1675 C1674 1.370 . S
C1675 C1676 1.403 . S
C1676 C1675 1.403 . S
C1676 C1677 1.404 . S
C1676 C1679 1.539 . S
C1677 C1673 1.408 . S
C1677 C1676 1.404 . S
C1677 H1689 0.930 . S
C1678 C1674 1.524 . S
C1678 H1690 0.956 . S
C1678 H1691 0.961 . S
C1678 H1692 0.961 . S
C1679 C1676 1.539 . S
C1679 H1693 0.958 . S
C1679 H1694 0.961 . S
C1679 H1695 0.960 . S
H1680 C1664 0.931 . S
H1681 C1669 0.929 . S
H1682 C1670 0.960 . S
H1683 C1670 0.962 . S
H1684 C1670 0.960 . S
H1685 C1671 0.961 . S
H1686 C1671 0.961 . S
H1687 C1671 0.961 . S
H1688 C1672 0.931 . S
H1689 C1677 0.930 . S
H1690 C1678 0.956 . S
H1691 C1678 0.961 . S
H1692 C1678 0.961 . S
H1693 C1679 0.958 . S
H1694 C1679 0.961 . S
H1695 C1679 0.960 . S
C1696 C1697 1.391 . S
C1696 C1698 1.394 . S
C1696 H1712 0.931 . S
C1697 C1696 1.391 . S
C1697 C1701 1.376 . S
C1698 C1696 1.394 . S
C1698 C1699 1.369 . S
C1698 C1702 1.531 . S
C1699 C1698 1.369 . S
C1699 C1700 1.410 . S
C1699 C1707 1.503 . S
C1700 C1699 1.410 . S
C1700 C1701 1.392 . S
C1700 C1703 1.511 . S
C1701 C1697 1.376 . S
C1701 C1700 1.392 . S
C1701 H1713 0.929 . S
C1702 C1698 1.531 . S
C1702 H1714 0.960 . S
C1702 H1715 0.962 . S
C1702 H1716 0.960 . S
C1703 C1700 1.511 . S
C1703 H1717 0.961 . S
C1703 H1718 0.961 . S
C1703 H1719 0.961 . S
C1704 C1705 1.370 . S
C1704 C1706 1.363 . S
C1704 H1720 0.931 . S
C1705 C1704 1.370 . S
C1705 C1709 1.408 . S
C1706 C1704 1.363 . S
C1706 C1707 1.370 . S
C1706 C1710 1.524 . S
C1707 C1699 1.503 . S
C1707 C1706 1.370 . S
C1707 C1708 1.403 . S
C1708 C1707 1.403 . S
C1708 C1709 1.404 . S
C1708 C1711 1.539 . S
C1709 C1705 1.408 . S
C1709 C1708 1.404 . S
C1709 H1721 0.930 . S
C1710 C1706 1.524 . S
C1710 H1722 0.956 . S
C1710 H1723 0.961 . S
C1710 H1724 0.961 . S
C1711 C1708 1.539 . S
C1711 H1725 0.958 . S
C1711 H1726 0.961 . S
C1711 H1727 0.960 . S
H1712 C1696 0.931 . S
H1713 C1701 0.929 . S
H1714 C1702 0.960 . S
H1715 C1702 0.962 . S
H1716 C1702 0.960 . S
H1717 C1703 0.961 . S
H1718 C1703 0.961 . S
H1719 C1703 0.961 . S
H1720 C1704 0.931 . S
H1721 C1709 0.930 . S
H1722 C1710 0.956 . S
H1723 C1710 0.961 . S
H1724 C1710 0.961 . S
H1725 C1711 0.958 . S
H1726 C1711 0.961 . S
H1727 C1711 0.960 . S
C1728 C1729 1.391 . S
C1728 C1730 1.394 . S
C1728 H1744 0.931 . S
C1729 C1728 1.391 . S
C1729 C1733 1.376 . S
C1730 C1728 1.394 . S
C1730 C1731 1.369 . S
C1730 C1734 1.531 . S
C1731 C1730 1.369 . S
C1731 C1732 1.410 . S
C1731 C1739 1.503 . S
C1732 C1731 1.410 . S
C1732 C1733 1.392 . S
C1732 C1735 1.511 . S
C1733 C1729 1.376 . S
C1733 C1732 1.392 . S
C1733 H1745 0.929 . S
C1734 C1730 1.531 . S
C1734 H1746 0.960 . S
C1734 H1747 0.962 . S
C1734 H1748 0.960 . S
C1735 C1732 1.511 . S
C1735 H1749 0.961 . S
C1735 H1750 0.961 . S
C1735 H1751 0.961 . S
C1736 C1737 1.370 . S
C1736 C1738 1.363 . S
C1736 H1752 0.931 . S
C1737 C1736 1.370 . S
C1737 C1741 1.408 . S
C1738 C1736 1.363 . S
C1738 C1739 1.370 . S
C1738 C1742 1.524 . S
C1739 C1731 1.503 . S
C1739 C1738 1.370 . S
C1739 C1740 1.403 . S
C1740 C1739 1.403 . S
C1740 C1741 1.404 . S
C1740 C1743 1.539 . S
C1741 C1737 1.408 . S
C1741 C1740 1.404 . S
C1741 H1753 0.930 . S
C1742 C1738 1.524 . S
C1742 H1754 0.956 . S
C1742 H1755 0.961 . S
C1742 H1756 0.961 . S
C1743 C1740 1.539 . S
C1743 H1757 0.958 1_565 S
C1743 H1758 0.961 1_565 S
C1743 H1759 0.960 . S
H1744 C1728 0.931 . S
H1745 C1733 0.929 . S
H1746 C1734 0.960 . S
H1747 C1734 0.962 . S
H1748 C1734 0.960 . S
H1749 C1735 0.961 . S
H1750 C1735 0.961 . S
H1751 C1735 0.961 . S
H1752 C1736 0.931 . S
H1753 C1741 0.930 . S
H1754 C1742 0.956 . S
H1755 C1742 0.961 . S
H1756 C1742 0.961 . S
H1757 C1743 0.958 1_545 S
H1758 C1743 0.961 1_545 S
H1759 C1743 0.960 . S
C1760 C1761 1.391 . S
C1760 C1762 1.394 . S
C1760 H1776 0.931 . S
C1761 C1760 1.391 . S
C1761 C1765 1.376 . S
C1762 C1760 1.394 . S
C1762 C1763 1.369 . S
C1762 C1766 1.531 . S
C1763 C1762 1.369 . S
C1763 C1764 1.410 . S
C1763 C1771 1.503 . S
C1764 C1763 1.410 . S
C1764 C1765 1.392 . S
C1764 C1767 1.511 . S
C1765 C1761 1.376 . S
C1765 C1764 1.392 . S
C1765 H1777 0.929 . S
C1766 C1762 1.531 . S
C1766 H1778 0.960 . S
C1766 H1779 0.962 . S
C1766 H1780 0.960 . S
C1767 C1764 1.511 . S
C1767 H1781 0.961 . S
C1767 H1782 0.961 . S
C1767 H1783 0.961 . S
C1768 C1769 1.370 . S
C1768 C1770 1.363 . S
C1768 H1784 0.931 . S
C1769 C1768 1.370 . S
C1769 C1773 1.408 . S
C1770 C1768 1.363 . S
C1770 C1771 1.370 . S
C1770 C1774 1.524 . S
C1771 C1763 1.503 . S
C1771 C1770 1.370 . S
C1771 C1772 1.403 . S
C1772 C1771 1.403 . S
C1772 C1773 1.404 . S
C1772 C1775 1.539 . S
C1773 C1769 1.408 . S
C1773 C1772 1.404 . S
C1773 H1785 0.930 . S
C1774 C1770 1.524 . S
C1774 H1786 0.956 1_455 S
C1774 H1787 0.961 . S
C1774 H1788 0.961 1_455 S
C1775 C1772 1.539 . S
C1775 H1789 0.958 . S
C1775 H1790 0.961 . S
C1775 H1791 0.960 . S
H1776 C1760 0.931 . S
H1777 C1765 0.929 . S
H1778 C1766 0.960 . S
H1779 C1766 0.962 . S
H1780 C1766 0.960 . S
H1781 C1767 0.961 . S
H1782 C1767 0.961 . S
H1783 C1767 0.961 . S
H1784 C1768 0.931 . S
H1785 C1773 0.930 . S
H1786 C1774 0.956 1_655 S
H1787 C1774 0.961 . S
H1788 C1774 0.961 1_655 S
H1789 C1775 0.958 . S
H1790 C1775 0.961 . S
H1791 C1775 0.960 . S
C1792 C1793 1.391 . S
C1792 C1794 1.394 . S
C1792 H1808 0.931 . S
C1793 C1792 1.391 . S
C1793 C1797 1.376 . S
C1794 C1792 1.394 . S
C1794 C1795 1.369 . S
C1794 C1798 1.531 . S
C1795 C1794 1.369 . S
C1795 C1796 1.410 . S
C1795 C1803 1.503 . S
C1796 C1795 1.410 . S
C1796 C1797 1.392 . S
C1796 C1799 1.511 . S
C1797 C1793 1.376 . S
C1797 C1796 1.392 . S
C1797 H1809 0.929 . S
C1798 C1794 1.531 . S
C1798 H1810 0.960 . S
C1798 H1811 0.962 . S
C1798 H1812 0.960 . S
C1799 C1796 1.511 . S
C1799 H1813 0.961 . S
C1799 H1814 0.961 . S
C1799 H1815 0.961 . S
C1800 C1801 1.370 . S
C1800 C1802 1.363 . S
C1800 H1816 0.931 . S
C1801 C1800 1.370 . S
C1801 C1805 1.408 . S
C1802 C1800 1.363 . S
C1802 C1803 1.370 . S
C1802 C1806 1.524 . S
C1803 C1795 1.503 . S
C1803 C1802 1.370 . S
C1803 C1804 1.403 . S
C1804 C1803 1.403 . S
C1804 C1805 1.404 . S
C1804 C1807 1.539 . S
C1805 C1801 1.408 . S
C1805 C1804 1.404 . S
C1805 H1817 0.930 . S
C1806 C1802 1.524 . S
C1806 H1818 0.956 . S
C1806 H1819 0.961 . S
C1806 H1820 0.961 . S
C1807 C1804 1.539 . S
C1807 H1821 0.958 . S
C1807 H1822 0.961 . S
C1807 H1823 0.960 . S
H1808 C1792 0.931 . S
H1809 C1797 0.929 . S
H1810 C1798 0.960 . S
H1811 C1798 0.962 . S
H1812 C1798 0.960 . S
H1813 C1799 0.961 . S
H1814 C1799 0.961 . S
H1815 C1799 0.961 . S
H1816 C1800 0.931 . S
H1817 C1805 0.930 . S
H1818 C1806 0.956 . S
H1819 C1806 0.961 . S
H1820 C1806 0.961 . S
H1821 C1807 0.958 . S
H1822 C1807 0.961 . S
H1823 C1807 0.960 . S
C1824 C1825 1.391 . S
C1824 C1826 1.394 . S
C1824 H1840 0.931 . S
C1825 C1824 1.391 . S
C1825 C1829 1.376 . S
C1826 C1824 1.394 . S
C1826 C1827 1.369 . S
C1826 C1830 1.531 . S
C1827 C1826 1.369 . S
C1827 C1828 1.410 . S
C1827 C1835 1.503 . S
C1828 C1827 1.410 . S
C1828 C1829 1.392 . S
C1828 C1831 1.511 1_655 S
C1829 C1825 1.376 . S
C1829 C1828 1.392 . S
C1829 H1841 0.929 . S
C1830 C1826 1.531 . S
C1830 H1842 0.960 . S
C1830 H1843 0.962 . S
C1830 H1844 0.960 . S
C1831 C1828 1.511 1_455 S
C1831 H1845 0.961 . S
C1831 H1846 0.961 . S
C1831 H1847 0.961 . S
C1832 C1833 1.370 . S
C1832 C1834 1.363 . S
C1832 H1848 0.931 . S
C1833 C1832 1.370 . S
C1833 C1837 1.408 . S
C1834 C1832 1.363 . S
C1834 C1835 1.370 . S
C1834 C1838 1.524 . S
C1835 C1827 1.503 . S
C1835 C1834 1.370 . S
C1835 C1836 1.403 . S
C1836 C1835 1.403 . S
C1836 C1837 1.404 . S
C1836 C1839 1.539 . S
C1837 C1833 1.408 . S
C1837 C1836 1.404 . S
C1837 H1849 0.930 . S
C1838 C1834 1.524 . S
C1838 H1850 0.956 . S
C1838 H1851 0.961 . S
C1838 H1852 0.961 . S
C1839 C1836 1.539 . S
C1839 H1853 0.958 . S
C1839 H1854 0.961 . S
C1839 H1855 0.960 . S
H1840 C1824 0.931 . S
H1841 C1829 0.929 . S
H1842 C1830 0.960 . S
H1843 C1830 0.962 . S
H1844 C1830 0.960 . S
H1845 C1831 0.961 . S
H1846 C1831 0.961 . S
H1847 C1831 0.961 . S
H1848 C1832 0.931 . S
H1849 C1837 0.930 . S
H1850 C1838 0.956 . S
H1851 C1838 0.961 . S
H1852 C1838 0.961 . S
H1853 C1839 0.958 . S
H1854 C1839 0.961 . S
H1855 C1839 0.960 . S
C1856 C1857 1.391 . S
C1856 C1858 1.394 . S
C1856 H1872 0.931 . S
C1857 C1856 1.391 . S
C1857 C1861 1.376 . S
C1858 C1856 1.394 . S
C1858 C1859 1.369 . S
C1858 C1862 1.531 . S
C1859 C1858 1.369 . S
C1859 C1860 1.410 . S
C1859 C1867 1.503 . S
C1860 C1859 1.410 . S
C1860 C1861 1.392 . S
C1860 C1863 1.511 . S
C1861 C1857 1.376 . S
C1861 C1860 1.392 . S
C1861 H1873 0.929 . S
C1862 C1858 1.531 . S
C1862 H1874 0.960 . S
C1862 H1875 0.962 . S
C1862 H1876 0.960 . S
C1863 C1860 1.511 . S
C1863 H1877 0.961 . S
C1863 H1878 0.961 . S
C1863 H1879 0.961 . S
C1864 C1865 1.370 . S
C1864 C1866 1.363 . S
C1864 H1880 0.931 . S
C1865 C1864 1.370 . S
C1865 C1869 1.408 . S
C1866 C1864 1.363 . S
C1866 C1867 1.370 . S
C1866 C1870 1.524 . S
C1867 C1859 1.503 . S
C1867 C1866 1.370 . S
C1867 C1868 1.403 . S
C1868 C1867 1.403 . S
C1868 C1869 1.404 . S
C1868 C1871 1.539 . S
C1869 C1865 1.408 . S
C1869 C1868 1.404 . S
C1869 H1881 0.930 . S
C1870 C1866 1.524 . S
C1870 H1882 0.956 . S
C1870 H1883 0.961 . S
C1870 H1884 0.961 . S
C1871 C1868 1.539 . S
C1871 H1885 0.958 . S
C1871 H1886 0.961 . S
C1871 H1887 0.960 . S
H1872 C1856 0.931 . S
H1873 C1861 0.929 . S
H1874 C1862 0.960 . S
H1875 C1862 0.962 . S
H1876 C1862 0.960 . S
H1877 C1863 0.961 . S
H1878 C1863 0.961 . S
H1879 C1863 0.961 . S
H1880 C1864 0.931 . S
H1881 C1869 0.930 . S
H1882 C1870 0.956 . S
H1883 C1870 0.961 . S
H1884 C1870 0.961 . S
H1885 C1871 0.958 . S
H1886 C1871 0.961 . S
H1887 C1871 0.960 . S
C1888 C1889 1.391 . S
C1888 C1890 1.394 . S
C1888 H1904 0.931 . S
C1889 C1888 1.391 . S
C1889 C1893 1.376 . S
C1890 C1888 1.394 . S
C1890 C1891 1.369 . S
C1890 C1894 1.531 . S
C1891 C1890 1.369 . S
C1891 C1892 1.410 . S
C1891 C1899 1.503 . S
C1892 C1891 1.410 . S
C1892 C1893 1.392 . S
C1892 C1895 1.511 . S
C1893 C1889 1.376 . S
C1893 C1892 1.392 . S
C1893 H1905 0.929 . S
C1894 C1890 1.531 . S
C1894 H1906 0.960 . S
C1894 H1907 0.962 . S
C1894 H1908 0.960 . S
C1895 C1892 1.511 . S
C1895 H1909 0.961 . S
C1895 H1910 0.961 . S
C1895 H1911 0.961 . S
C1896 C1897 1.370 . S
C1896 C1898 1.363 . S
C1896 H1912 0.931 . S
C1897 C1896 1.370 . S
C1897 C1901 1.408 . S
C1898 C1896 1.363 . S
C1898 C1899 1.370 . S
C1898 C1902 1.524 . S
C1899 C1891 1.503 . S
C1899 C1898 1.370 . S
C1899 C1900 1.403 . S
C1900 C1899 1.403 . S
C1900 C1901 1.404 . S
C1900 C1903 1.539 . S
C1901 C1897 1.408 . S
C1901 C1900 1.404 . S
C1901 H1913 0.930 . S
C1902 C1898 1.524 . S
C1902 H1914 0.956 . S
C1902 H1915 0.961 . S
C1902 H1916 0.961 1_545 S
C1903 C1900 1.539 . S
C1903 H1917 0.958 . S
C1903 H1918 0.961 . S
C1903 H1919 0.960 . S
H1904 C1888 0.931 . S
H1905 C1893 0.929 . S
H1906 C1894 0.960 . S
H1907 C1894 0.962 . S
H1908 C1894 0.960 . S
H1909 C1895 0.961 . S
H1910 C1895 0.961 . S
H1911 C1895 0.961 . S
H1912 C1896 0.931 . S
H1913 C1901 0.930 . S
H1914 C1902 0.956 . S
H1915 C1902 0.961 . S
H1916 C1902 0.961 1_565 S
H1917 C1903 0.958 . S
H1918 C1903 0.961 . S
H1919 C1903 0.960 . S
C1920 C1921 1.391 . S
C1920 C1922 1.394 . S
C1920 H1936 0.931 . S
C1921 C1920 1.391 . S
C1921 C1925 1.376 . S
C1922 C1920 1.394 . S
C1922 C1923 1.369 . S
C1922 C1926 1.531 . S
C1923 C1922 1.369 . S
C1923 C1924 1.410 . S
C1923 C1931 1.503 . S
C1924 C1923 1.410 . S
C1924 C1925 1.392 . S
C1924 C1927 1.511 . S
C1925 C1921 1.376 . S
C1925 C1924 1.392 . S
C1925 H1937 0.929 . S
C1926 C1922 1.531 . S
C1926 H1938 0.960 . S
C1926 H1939 0.962 . S
C1926 H1940 0.960 . S
C1927 C1924 1.511 . S
C1927 H1941 0.961 . S
C1927 H1942 0.961 . S
C1927 H1943 0.961 . S
C1928 C1929 1.370 . S
C1928 C1930 1.363 . S
C1928 H1944 0.931 . S
C1929 C1928 1.370 . S
C1929 C1933 1.408 . S
C1930 C1928 1.363 . S
C1930 C1931 1.370 . S
C1930 C1934 1.524 . S
C1931 C1923 1.503 . S
C1931 C1930 1.370 . S
C1931 C1932 1.403 . S
C1932 C1931 1.403 . S
C1932 C1933 1.404 . S
C1932 C1935 1.539 . S
C1933 C1929 1.408 . S
C1933 C1932 1.404 . S
C1933 H1945 0.930 . S
C1934 C1930 1.524 . S
C1934 H1946 0.956 . S
C1934 H1947 0.961 . S
C1934 H1948 0.961 . S
C1935 C1932 1.539 . S
C1935 H1949 0.958 . S
C1935 H1950 0.961 . S
C1935 H1951 0.960 . S
H1936 C1920 0.931 . S
H1937 C1925 0.929 . S
H1938 C1926 0.960 . S
H1939 C1926 0.962 . S
H1940 C1926 0.960 . S
H1941 C1927 0.961 . S
H1942 C1927 0.961 . S
H1943 C1927 0.961 . S
H1944 C1928 0.931 . S
H1945 C1933 0.930 . S
H1946 C1934 0.956 . S
H1947 C1934 0.961 . S
H1948 C1934 0.961 . S
H1949 C1935 0.958 . S
H1950 C1935 0.961 . S
H1951 C1935 0.960 . S
C1952 C1953 1.391 . S
C1952 C1954 1.394 . S
C1952 H1968 0.931 . S
C1953 C1952 1.391 . S
C1953 C1957 1.376 . S
C1954 C1952 1.394 . S
C1954 C1955 1.369 . S
C1954 C1958 1.531 . S
C1955 C1954 1.369 . S
C1955 C1956 1.410 . S
C1955 C1963 1.503 . S
C1956 C1955 1.410 . S
C1956 C1957 1.392 . S
C1956 C1959 1.511 . S
C1957 C1953 1.376 . S
C1957 C1956 1.392 . S
C1957 H1969 0.929 . S
C1958 C1954 1.531 . S
C1958 H1970 0.960 . S
C1958 H1971 0.962 . S
C1958 H1972 0.960 . S
C1959 C1956 1.511 . S
C1959 H1973 0.961 . S
C1959 H1974 0.961 . S
C1959 H1975 0.961 . S
C1960 C1961 1.370 . S
C1960 C1962 1.363 . S
C1960 H1976 0.931 . S
C1961 C1960 1.370 . S
C1961 C1965 1.408 . S
C1962 C1960 1.363 . S
C1962 C1963 1.370 . S
C1962 C1966 1.524 . S
C1963 C1955 1.503 . S
C1963 C1962 1.370 . S
C1963 C1964 1.403 . S
C1964 C1963 1.403 . S
C1964 C1965 1.404 . S
C1964 C1967 1.539 . S
C1965 C1961 1.408 . S
C1965 C1964 1.404 . S
C1965 H1977 0.930 . S
C1966 C1962 1.524 . S
C1966 H1978 0.956 . S
C1966 H1979 0.961 . S
C1966 H1980 0.961 . S
C1967 C1964 1.539 . S
C1967 H1981 0.958 . S
C1967 H1982 0.961 . S
C1967 H1983 0.960 . S
H1968 C1952 0.931 . S
H1969 C1957 0.929 . S
H1970 C1958 0.960 . S
H1971 C1958 0.962 . S
H1972 C1958 0.960 . S
H1973 C1959 0.961 . S
H1974 C1959 0.961 . S
H1975 C1959 0.961 . S
H1976 C1960 0.931 . S
H1977 C1965 0.930 . S
H1978 C1966 0.956 . S
H1979 C1966 0.961 . S
H1980 C1966 0.961 . S
H1981 C1967 0.958 . S
H1982 C1967 0.961 . S
H1983 C1967 0.960 . S
C1984 C1985 1.391 . S
C1984 C1986 1.394 . S
C1984 H2000 0.931 . S
C1985 C1984 1.391 . S
C1985 C1989 1.376 . S
C1986 C1984 1.394 . S
C1986 C1987 1.369 . S
C1986 C1990 1.531 . S
C1987 C1986 1.369 . S
C1987 C1988 1.410 . S
C1987 C1995 1.503 . S
C1988 C1987 1.410 . S
C1988 C1989 1.392 . S
C1988 C1991 1.511 . S
C1989 C1985 1.376 . S
C1989 C1988 1.392 . S
C1989 H2001 0.929 . S
C1990 C1986 1.531 . S
C1990 H2002 0.960 . S
C1990 H2003 0.962 . S
C1990 H2004 0.960 . S
C1991 C1988 1.511 . S
C1991 H2005 0.961 . S
C1991 H2006 0.961 . S
C1991 H2007 0.961 . S
C1992 C1993 1.370 . S
C1992 C1994 1.363 . S
C1992 H2008 0.931 . S
C1993 C1992 1.370 . S
C1993 C1997 1.408 . S
C1994 C1992 1.363 . S
C1994 C1995 1.370 . S
C1994 C1998 1.524 . S
C1995 C1987 1.503 . S
C1995 C1994 1.370 . S
C1995 C1996 1.403 . S
C1996 C1995 1.403 . S
C1996 C1997 1.404 . S
C1996 C1999 1.539 . S
C1997 C1993 1.408 . S
C1997 C1996 1.404 . S
C1997 H2009 0.930 . S
C1998 C1994 1.524 . S
C1998 H2010 0.956 . S
C1998 H2011 0.961 . S
C1998 H2012 0.961 . S
C1999 C1996 1.539 . S
C1999 H2013 0.958 . S
C1999 H2014 0.961 . S
C1999 H2015 0.960 . S
H2000 C1984 0.931 . S
H2001 C1989 0.929 . S
H2002 C1990 0.960 . S
H2003 C1990 0.962 . S
H2004 C1990 0.960 . S
H2005 C1991 0.961 . S
H2006 C1991 0.961 . S
H2007 C1991 0.961 . S
H2008 C1992 0.931 . S
H2009 C1997 0.930 . S
H2010 C1998 0.956 . S
H2011 C1998 0.961 . S
H2012 C1998 0.961 . S
H2013 C1999 0.958 . S
H2014 C1999 0.961 . S
H2015 C1999 0.960 . S
C2016 C2017 1.391 . S
C2016 C2018 1.394 . S
C2016 H2032 0.931 . S
C2017 C2016 1.391 . S
C2017 C2021 1.376 . S
C2018 C2016 1.394 . S
C2018 C2019 1.369 . S
C2018 C2022 1.531 . S
C2019 C2018 1.369 . S
C2019 C2020 1.410 . S
C2019 C2027 1.503 . S
C2020 C2019 1.410 . S
C2020 C2021 1.392 . S
C2020 C2023 1.511 . S
C2021 C2017 1.376 . S
C2021 C2020 1.392 . S
C2021 H2033 0.929 . S
C2022 C2018 1.531 . S
C2022 H2034 0.960 . S
C2022 H2035 0.962 . S
C2022 H2036 0.960 . S
C2023 C2020 1.511 . S
C2023 H2037 0.961 . S
C2023 H2038 0.961 . S
C2023 H2039 0.961 . S
C2024 C2025 1.370 . S
C2024 C2026 1.363 . S
C2024 H2040 0.931 . S
C2025 C2024 1.370 . S
C2025 C2029 1.408 . S
C2026 C2024 1.363 . S
C2026 C2027 1.370 . S
C2026 C2030 1.524 . S
C2027 C2019 1.503 . S
C2027 C2026 1.370 . S
C2027 C2028 1.403 . S
C2028 C2027 1.403 . S
C2028 C2029 1.404 . S
C2028 C2031 1.539 . S
C2029 C2025 1.408 . S
C2029 C2028 1.404 . S
C2029 H2041 0.930 . S
C2030 C2026 1.524 . S
C2030 H2042 0.956 . S
C2030 H2043 0.961 . S
C2030 H2044 0.961 . S
C2031 C2028 1.539 . S
C2031 H2045 0.958 . S
C2031 H2046 0.961 . S
C2031 H2047 0.960 . S
H2032 C2016 0.931 . S
H2033 C2021 0.929 . S
H2034 C2022 0.960 . S
H2035 C2022 0.962 . S
H2036 C2022 0.960 . S
H2037 C2023 0.961 . S
H2038 C2023 0.961 . S
H2039 C2023 0.961 . S
H2040 C2024 0.931 . S
H2041 C2029 0.930 . S
H2042 C2030 0.956 . S
H2043 C2030 0.961 . S
H2044 C2030 0.961 . S
H2045 C2031 0.958 . S
H2046 C2031 0.961 . S
H2047 C2031 0.960 . S
C2048 C2049 1.391 . S
C2048 C2050 1.394 . S
C2048 H2064 0.931 . S
C2049 C2048 1.391 . S
C2049 C2053 1.376 . S
C2050 C2048 1.394 . S
C2050 C2051 1.369 . S
C2050 C2054 1.531 . S
C2051 C2050 1.369 . S
C2051 C2052 1.410 . S
C2051 C2059 1.503 . S
C2052 C2051 1.410 . S
C2052 C2053 1.392 . S
C2052 C2055 1.511 . S
C2053 C2049 1.376 . S
C2053 C2052 1.392 . S
C2053 H2065 0.929 . S
C2054 C2050 1.531 . S
C2054 H2066 0.960 . S
C2054 H2067 0.962 . S
C2054 H2068 0.960 . S
C2055 C2052 1.511 . S
C2055 H2069 0.961 . S
C2055 H2070 0.961 . S
C2055 H2071 0.961 . S
C2056 C2057 1.370 . S
C2056 C2058 1.363 . S
C2056 H2072 0.931 . S
C2057 C2056 1.370 . S
C2057 C2061 1.408 . S
C2058 C2056 1.363 . S
C2058 C2059 1.370 . S
C2058 C2062 1.524 . S
C2059 C2051 1.503 . S
C2059 C2058 1.370 . S
C2059 C2060 1.403 . S
C2060 C2059 1.403 . S
C2060 C2061 1.404 . S
C2060 C2063 1.539 . S
C2061 C2057 1.408 . S
C2061 C2060 1.404 . S
C2061 H2073 0.930 . S
C2062 C2058 1.524 . S
C2062 H2074 0.956 . S
C2062 H2075 0.961 . S
C2062 H2076 0.961 . S
C2063 C2060 1.539 . S
C2063 H2077 0.958 . S
C2063 H2078 0.961 . S
C2063 H2079 0.960 . S
H2064 C2048 0.931 . S
H2065 C2053 0.929 . S
H2066 C2054 0.960 . S
H2067 C2054 0.962 . S
H2068 C2054 0.960 . S
H2069 C2055 0.961 . S
H2070 C2055 0.961 . S
H2071 C2055 0.961 . S
H2072 C2056 0.931 . S
H2073 C2061 0.930 . S
H2074 C2062 0.956 . S
H2075 C2062 0.961 . S
H2076 C2062 0.961 . S
H2077 C2063 0.958 . S
H2078 C2063 0.961 . S
H2079 C2063 0.960 . S
C2080 C2081 1.391 . S
C2080 C2082 1.394 . S
C2080 H2096 0.931 . S
C2081 C2080 1.391 . S
C2081 C2085 1.376 . S
C2082 C2080 1.394 . S
C2082 C2083 1.369 . S
C2082 C2086 1.531 . S
C2083 C2082 1.369 . S
C2083 C2084 1.410 . S
C2083 C2091 1.503 . S
C2084 C2083 1.410 . S
C2084 C2085 1.392 . S
C2084 C2087 1.511 . S
C2085 C2081 1.376 . S
C2085 C2084 1.392 . S
C2085 H2097 0.929 . S
C2086 C2082 1.531 . S
C2086 H2098 0.960 . S
C2086 H2099 0.962 . S
C2086 H2100 0.960 . S
C2087 C2084 1.511 . S
C2087 H2101 0.961 . S
C2087 H2102 0.961 . S
C2087 H2103 0.961 . S
C2088 C2089 1.370 . S
C2088 C2090 1.363 . S
C2088 H2104 0.931 . S
C2089 C2088 1.370 . S
C2089 C2093 1.408 . S
C2090 C2088 1.363 . S
C2090 C2091 1.370 . S
C2090 C2094 1.524 . S
C2091 C2083 1.503 . S
C2091 C2090 1.370 . S
C2091 C2092 1.403 . S
C2092 C2091 1.403 . S
C2092 C2093 1.404 . S
C2092 C2095 1.539 . S
C2093 C2089 1.408 . S
C2093 C2092 1.404 . S
C2093 H2105 0.930 . S
C2094 C2090 1.524 . S
C2094 H2106 0.956 . S
C2094 H2107 0.961 . S
C2094 H2108 0.961 . S
C2095 C2092 1.539 . S
C2095 H2109 0.958 . S
C2095 H2110 0.961 . S
C2095 H2111 0.960 . S
H2096 C2080 0.931 . S
H2097 C2085 0.929 . S
H2098 C2086 0.960 . S
H2099 C2086 0.962 . S
H2100 C2086 0.960 . S
H2101 C2087 0.961 . S
H2102 C2087 0.961 . S
H2103 C2087 0.961 . S
H2104 C2088 0.931 . S
H2105 C2093 0.930 . S
H2106 C2094 0.956 . S
H2107 C2094 0.961 . S
H2108 C2094 0.961 . S
H2109 C2095 0.958 . S
H2110 C2095 0.961 . S
H2111 C2095 0.960 . S
C2112 C2113 1.391 . S
C2112 C2114 1.394 . S
C2112 H2128 0.931 . S
C2113 C2112 1.391 . S
C2113 C2117 1.376 . S
C2114 C2112 1.394 . S
C2114 C2115 1.369 . S
C2114 C2118 1.531 . S
C2115 C2114 1.369 . S
C2115 C2116 1.410 . S
C2115 C2123 1.503 . S
C2116 C2115 1.410 . S
C2116 C2117 1.392 . S
C2116 C2119 1.511 . S
C2117 C2113 1.376 . S
C2117 C2116 1.392 . S
C2117 H2129 0.929 . S
C2118 C2114 1.531 . S
C2118 H2130 0.960 . S
C2118 H2131 0.962 . S
C2118 H2132 0.960 . S
C2119 C2116 1.511 . S
C2119 H2133 0.961 . S
C2119 H2134 0.961 . S
C2119 H2135 0.961 . S
C2120 C2121 1.370 . S
C2120 C2122 1.363 . S
C2120 H2136 0.931 . S
C2121 C2120 1.370 . S
C2121 C2125 1.408 . S
C2122 C2120 1.363 . S
C2122 C2123 1.370 . S
C2122 C2126 1.524 . S
C2123 C2115 1.503 . S
C2123 C2122 1.370 . S
C2123 C2124 1.403 . S
C2124 C2123 1.403 . S
C2124 C2125 1.404 . S
C2124 C2127 1.539 . S
C2125 C2121 1.408 . S
C2125 C2124 1.404 . S
C2125 H2137 0.930 . S
C2126 C2122 1.524 . S
C2126 H2138 0.956 . S
C2126 H2139 0.961 . S
C2126 H2140 0.961 . S
C2127 C2124 1.539 . S
C2127 H2141 0.958 . S
C2127 H2142 0.961 . S
C2127 H2143 0.960 . S
H2128 C2112 0.931 . S
H2129 C2117 0.929 . S
H2130 C2118 0.960 . S
H2131 C2118 0.962 . S
H2132 C2118 0.960 . S
H2133 C2119 0.961 . S
H2134 C2119 0.961 . S
H2135 C2119 0.961 . S
H2136 C2120 0.931 . S
H2137 C2125 0.930 . S
H2138 C2126 0.956 . S
H2139 C2126 0.961 . S
H2140 C2126 0.961 . S
H2141 C2127 0.958 . S
H2142 C2127 0.961 . S
H2143 C2127 0.960 . S
C2144 C2145 1.391 . S
C2144 C2146 1.394 . S
C2144 H2160 0.931 . S
C2145 C2144 1.391 . S
C2145 C2149 1.376 . S
C2146 C2144 1.394 . S
C2146 C2147 1.369 . S
C2146 C2150 1.531 . S
C2147 C2146 1.369 . S
C2147 C2148 1.410 . S
C2147 C2155 1.503 . S
C2148 C2147 1.410 . S
C2148 C2149 1.392 . S
C2148 C2151 1.511 . S
C2149 C2145 1.376 . S
C2149 C2148 1.392 . S
C2149 H2161 0.929 . S
C2150 C2146 1.531 . S
C2150 H2162 0.960 . S
C2150 H2163 0.962 . S
C2150 H2164 0.960 . S
C2151 C2148 1.511 . S
C2151 H2165 0.961 . S
C2151 H2166 0.961 . S
C2151 H2167 0.961 . S
C2152 C2153 1.370 . S
C2152 C2154 1.363 . S
C2152 H2168 0.931 . S
C2153 C2152 1.370 . S
C2153 C2157 1.408 . S
C2154 C2152 1.363 . S
C2154 C2155 1.370 . S
C2154 C2158 1.524 . S
C2155 C2147 1.503 . S
C2155 C2154 1.370 . S
C2155 C2156 1.403 . S
C2156 C2155 1.403 . S
C2156 C2157 1.404 . S
C2156 C2159 1.539 . S
C2157 C2153 1.408 . S
C2157 C2156 1.404 . S
C2157 H2169 0.930 . S
C2158 C2154 1.524 . S
C2158 H2170 0.956 . S
C2158 H2171 0.961 . S
C2158 H2172 0.961 . S
C2159 C2156 1.539 . S
C2159 H2173 0.958 . S
C2159 H2174 0.961 . S
C2159 H2175 0.960 . S
H2160 C2144 0.931 . S
H2161 C2149 0.929 . S
H2162 C2150 0.960 . S
H2163 C2150 0.962 . S
H2164 C2150 0.960 . S
H2165 C2151 0.961 . S
H2166 C2151 0.961 . S
H2167 C2151 0.961 . S
H2168 C2152 0.931 . S
H2169 C2157 0.930 . S
H2170 C2158 0.956 . S
H2171 C2158 0.961 . S
H2172 C2158 0.961 . S
H2173 C2159 0.958 . S
H2174 C2159 0.961 . S
H2175 C2159 0.960 . S
C2176 C2177 1.391 . S
C2176 C2178 1.394 . S
C2176 H2192 0.931 . S
C2177 C2176 1.391 . S
C2177 C2181 1.376 . S
C2178 C2176 1.394 . S
C2178 C2179 1.369 . S
C2178 C2182 1.531 . S
C2179 C2178 1.369 . S
C2179 C2180 1.410 . S
C2179 C2187 1.503 . S
C2180 C2179 1.410 . S
C2180 C2181 1.392 . S
C2180 C2183 1.511 . S
C2181 C2177 1.376 . S
C2181 C2180 1.392 . S
C2181 H2193 0.929 . S
C2182 C2178 1.531 . S
C2182 H2194 0.960 . S
C2182 H2195 0.962 . S
C2182 H2196 0.960 . S
C2183 C2180 1.511 . S
C2183 H2197 0.961 . S
C2183 H2198 0.961 . S
C2183 H2199 0.961 . S
C2184 C2185 1.370 . S
C2184 C2186 1.363 . S
C2184 H2200 0.931 . S
C2185 C2184 1.370 . S
C2185 C2189 1.408 . S
C2186 C2184 1.363 . S
C2186 C2187 1.370 . S
C2186 C2190 1.524 . S
C2187 C2179 1.503 . S
C2187 C2186 1.370 . S
C2187 C2188 1.403 . S
C2188 C2187 1.403 . S
C2188 C2189 1.404 . S
C2188 C2191 1.539 . S
C2189 C2185 1.408 . S
C2189 C2188 1.404 . S
C2189 H2201 0.930 . S
C2190 C2186 1.524 . S
C2190 H2202 0.956 . S
C2190 H2203 0.961 . S
C2190 H2204 0.961 . S
C2191 C2188 1.539 . S
C2191 H2205 0.958 . S
C2191 H2206 0.961 . S
C2191 H2207 0.960 . S
H2192 C2176 0.931 . S
H2193 C2181 0.929 . S
H2194 C2182 0.960 . S
H2195 C2182 0.962 . S
H2196 C2182 0.960 . S
H2197 C2183 0.961 . S
H2198 C2183 0.961 . S
H2199 C2183 0.961 . S
H2200 C2184 0.931 . S
H2201 C2189 0.930 . S
H2202 C2190 0.956 . S
H2203 C2190 0.961 . S
H2204 C2190 0.961 . S
H2205 C2191 0.958 . S
H2206 C2191 0.961 . S
H2207 C2191 0.960 . S
C2208 C2209 1.391 . S
C2208 C2210 1.394 . S
C2208 H2224 0.931 . S
C2209 C2208 1.391 . S
C2209 C2213 1.376 . S
C2210 C2208 1.394 . S
C2210 C2211 1.369 . S
C2210 C2214 1.531 . S
C2211 C2210 1.369 . S
C2211 C2212 1.410 . S
C2211 C2219 1.503 . S
C2212 C2211 1.410 . S
C2212 C2213 1.392 . S
C2212 C2215 1.511 . S
C2213 C2209 1.376 . S
C2213 C2212 1.392 . S
C2213 H2225 0.929 . S
C2214 C2210 1.531 . S
C2214 H2226 0.960 . S
C2214 H2227 0.962 . S
C2214 H2228 0.960 . S
C2215 C2212 1.511 . S
C2215 H2229 0.961 . S
C2215 H2230 0.961 . S
C2215 H2231 0.961 . S
C2216 C2217 1.370 . S
C2216 C2218 1.363 . S
C2216 H2232 0.931 . S
C2217 C2216 1.370 . S
C2217 C2221 1.408 . S
C2218 C2216 1.363 . S
C2218 C2219 1.370 . S
C2218 C2222 1.524 . S
C2219 C2211 1.503 . S
C2219 C2218 1.370 . S
C2219 C2220 1.403 . S
C2220 C2219 1.403 . S
C2220 C2221 1.404 . S
C2220 C2223 1.539 . S
C2221 C2217 1.408 . S
C2221 C2220 1.404 . S
C2221 H2233 0.930 . S
C2222 C2218 1.524 . S
C2222 H2234 0.956 . S
C2222 H2235 0.961 . S
C2222 H2236 0.961 . S
C2223 C2220 1.539 . S
C2223 H2237 0.958 . S
C2223 H2238 0.961 . S
C2223 H2239 0.960 . S
H2224 C2208 0.931 . S
H2225 C2213 0.929 . S
H2226 C2214 0.960 . S
H2227 C2214 0.962 . S
H2228 C2214 0.960 . S
H2229 C2215 0.961 . S
H2230 C2215 0.961 . S
H2231 C2215 0.961 . S
H2232 C2216 0.931 . S
H2233 C2221 0.930 . S
H2234 C2222 0.956 . S
H2235 C2222 0.961 . S
H2236 C2222 0.961 . S
H2237 C2223 0.958 . S
H2238 C2223 0.961 . S
H2239 C2223 0.960 . S
C2240 C2241 1.391 . S
C2240 C2242 1.394 . S
C2240 H2256 0.931 . S
C2241 C2240 1.391 . S
C2241 C2245 1.376 . S
C2242 C2240 1.394 . S
C2242 C2243 1.369 . S
C2242 C2246 1.531 . S
C2243 C2242 1.369 . S
C2243 C2244 1.410 . S
C2243 C2251 1.503 . S
C2244 C2243 1.410 . S
C2244 C2245 1.392 . S
C2244 C2247 1.511 . S
C2245 C2241 1.376 . S
C2245 C2244 1.392 . S
C2245 H2257 0.929 . S
C2246 C2242 1.531 . S
C2246 H2258 0.960 . S
C2246 H2259 0.962 . S
C2246 H2260 0.960 . S
C2247 C2244 1.511 . S
C2247 H2261 0.961 . S
C2247 H2262 0.961 . S
C2247 H2263 0.961 . S
C2248 C2249 1.370 . S
C2248 C2250 1.363 . S
C2248 H2264 0.931 . S
C2249 C2248 1.370 . S
C2249 C2253 1.408 . S
C2250 C2248 1.363 . S
C2250 C2251 1.370 . S
C2250 C2254 1.524 . S
C2251 C2243 1.503 . S
C2251 C2250 1.370 . S
C2251 C2252 1.403 . S
C2252 C2251 1.403 . S
C2252 C2253 1.404 . S
C2252 C2255 1.539 . S
C2253 C2249 1.408 . S
C2253 C2252 1.404 . S
C2253 H2265 0.930 . S
C2254 C2250 1.524 . S
C2254 H2266 0.956 . S
C2254 H2267 0.961 . S
C2254 H2268 0.961 . S
C2255 C2252 1.539 . S
C2255 H2269 0.958 . S
C2255 H2270 0.961 . S
C2255 H2271 0.960 . S
H2256 C2240 0.931 . S
H2257 C2245 0.929 . S
H2258 C2246 0.960 . S
H2259 C2246 0.962 . S
H2260 C2246 0.960 . S
H2261 C2247 0.961 . S
H2262 C2247 0.961 . S
H2263 C2247 0.961 . S
H2264 C2248 0.931 . S
H2265 C2253 0.930 . S
H2266 C2254 0.956 . S
H2267 C2254 0.961 . S
H2268 C2254 0.961 . S
H2269 C2255 0.958 . S
H2270 C2255 0.961 . S
H2271 C2255 0.960 . S
C2272 C2273 1.391 . S
C2272 C2274 1.394 . S
C2272 H2288 0.931 . S
C2273 C2272 1.391 . S
C2273 C2277 1.376 . S
C2274 C2272 1.394 . S
C2274 C2275 1.369 . S
C2274 C2278 1.531 . S
C2275 C2274 1.369 . S
C2275 C2276 1.410 . S
C2275 C2283 1.503 . S
C2276 C2275 1.410 . S
C2276 C2277 1.392 . S
C2276 C2279 1.511 . S
C2277 C2273 1.376 . S
C2277 C2276 1.392 . S
C2277 H2289 0.929 . S
C2278 C2274 1.531 . S
C2278 H2290 0.960 . S
C2278 H2291 0.962 . S
C2278 H2292 0.960 . S
C2279 C2276 1.511 . S
C2279 H2293 0.961 . S
C2279 H2294 0.961 . S
C2279 H2295 0.961 . S
C2280 C2281 1.370 . S
C2280 C2282 1.363 . S
C2280 H2296 0.931 . S
C2281 C2280 1.370 . S
C2281 C2285 1.408 . S
C2282 C2280 1.363 . S
C2282 C2283 1.370 . S
C2282 C2286 1.524 . S
C2283 C2275 1.503 . S
C2283 C2282 1.370 . S
C2283 C2284 1.403 . S
C2284 C2283 1.403 . S
C2284 C2285 1.404 . S
C2284 C2287 1.539 . S
C2285 C2281 1.408 . S
C2285 C2284 1.404 . S
C2285 H2297 0.930 . S
C2286 C2282 1.524 . S
C2286 H2298 0.956 . S
C2286 H2299 0.961 . S
C2286 H2300 0.961 . S
C2287 C2284 1.539 . S
C2287 H2301 0.958 . S
C2287 H2302 0.961 . S
C2287 H2303 0.960 . S
H2288 C2272 0.931 . S
H2289 C2277 0.929 . S
H2290 C2278 0.960 . S
H2291 C2278 0.962 . S
H2292 C2278 0.960 . S
H2293 C2279 0.961 . S
H2294 C2279 0.961 . S
H2295 C2279 0.961 . S
H2296 C2280 0.931 . S
H2297 C2285 0.930 . S
H2298 C2286 0.956 . S
H2299 C2286 0.961 . S
H2300 C2286 0.961 . S
H2301 C2287 0.958 . S
H2302 C2287 0.961 . S
H2303 C2287 0.960 . S
C577 C162 1.678 . S
C585 C219 1.679 . S
C609 C174 1.801 . S
C617 C259 1.800 . S
C641 C150 1.614 . S
C649 C311 1.583 . S
C673 C138 1.483 . S
C681 C271 1.462 1_556 S
C713 C299 1.505 . S
C705 C114 1.503 . S
C737 C126 1.337 . S
C745 C231 1.355 1_556 S
C777 C238 1.674 . S
C769 C136 1.623 . S
C809 C278 1.679 . S
C801 C112 1.649 . S
C833 C124 1.623 . S
C841 C298 1.697 . S
C865 C160 1.476 . S
C873 C258 1.519 . S
C897 C172 1.454 . S
C905 C318 1.455 . S
C937 C218 1.471 . S
C929 C148 1.455 . S
C969 C339 1.679 . S
C961 C18 1.678 . S
C993 C30 1.793 . S
C1001 C379 1.801 . S
C1025 C6 1.614 . S
C1033 C431 1.583 . S
C1057 C210 1.489 . S
C1065 C391 1.455 . S
C1089 C186 1.503 . S
C1097 C419 1.505 . S
C1121 C198 1.336 . S
C1129 C351 1.355 . S
C1153 C208 1.638 . S
C1161 C358 1.669 . S
C1185 C184 1.651 . S
C1193 C398 1.679 . S
C1225 C418 1.673 . S
C1217 C196 1.670 . S
C1249 C16 1.513 . S
C1257 C378 1.504 . S
C1289 C438 1.461 . S
C1281 C28 1.432 . S
C1313 C4 1.455 . S
C1321 C338 1.469 . S
C1353 C459 1.681 . S
C1345 C90 1.661 . S
C1377 C102 1.796 . S
C1385 C499 1.798 . S
C1417 C551 1.584 . S
C1409 C78 1.613 . S
C1449 C511 1.451 . S
C1441 C66 1.490 . S
C1481 C539 1.508 . S
C1473 C42 1.503 . S
C1505 C54 1.360 . S
C1513 C471 1.341 . S
C1537 C64 1.646 . S
C1545 C478 1.667 . S
C1569 C40 1.665 . S
C1577 C518 1.671 . S
C1609 C538 1.675 . S
C1601 C52 1.662 . S
C1633 C88 1.482 . S
C1641 C498 1.517 . S
C1665 C100 1.461 . S
C1673 C558 1.454 . S
C1697 C76 1.450 . S
C1705 C458 1.472 . S
C1729 C189 1.512 . S
C1737 C242 1.467 . S
C1769 C282 1.925 . S
C1761 C201 1.953 . S
C1793 C213 1.557 . S
C1801 C305 1.578 . S
C1825 C81 1.780 . S
C1833 C265 1.783 . S
C1857 C93 1.684 . S
C1865 C322 1.676 . S
C1897 C225 1.314 . S
C1889 C105 1.305 . S
C1921 C45 1.496 . S
C1929 C362 1.485 . S
C1953 C57 1.955 . S
C1961 C402 1.921 . S
C1985 C69 1.581 . S
C1993 C425 1.577 . S
C2017 C153 1.772 . S
C2025 C385 1.786 . S
C2057 C442 1.669 . S
C2049 C165 1.693 . S
C2081 C177 1.307 . S
C2089 C345 1.311 . S
C2113 C117 1.488 . S
C2121 C482 1.489 . S
C2145 C129 1.962 . S
C2153 C522 1.917 . S
C2185 C545 1.581 . S
C2177 C141 1.576 . S
C2209 C9 1.774 . S
C2217 C505 1.785 . S
C2241 C21 1.681 . S
C2249 C562 1.677 . S
C2273 C33 1.311 . S
C2281 C465 1.315 . S
