# Generated by pormake.
# Topology pyr, (3,6)-cn, num edge types: 1
# Building blocks:
#     Node 0, Type 0, BuildingBlock: PAMTOO_clean_linker_0, # of connection points: 3
#     Node 1, Type 0, BuildingBlock: PAMTOO_clean_linker_0, # of connection points: 3
#     Node 2, Type 0, BuildingBlock: PAMTOO_clean_linker_0, # of connection points: 3
#     Node 3, Type 0, BuildingBlock: PAMTOO_clean_linker_0, # of connection points: 3
#     Node 4, Type 0, BuildingBlock: PAMTOO_clean_linker_0, # of connection points: 3
#     Node 5, Type 0, BuildingBlock: PAMTOO_clean_linker_0, # of connection points: 3
#     Node 6, Type 0, BuildingBlock: PAMTOO_clean_linker_0, # of connection points: 3
#     Node 7, Type 0, BuildingBlock: PAMTOO_clean_linker_0, # of connection points: 3
#     Node 8, Type 1, BuildingBlock: BETDIP_clean_sbu_0, # of connection points: 6
#     Node 9, Type 1, BuildingBlock: BETDIP_clean_sbu_0, # of connection points: 6
#     Node 10, Type 1, BuildingBlock: BETDIP_clean_sbu_0, # of connection points: 6
#     Node 11, Type 1, BuildingBlock: BETDIP_clean_sbu_0, # of connection points: 6
#     Edge 12, Type (0, 1), BuildingBlock: EZIPEK_clean_linker_0, # of connection points: 2
#     Edge 13, Type (0, 1), BuildingBlock: EZIPEK_clean_linker_0, # of connection points: 2
#     Edge 14, Type (0, 1), BuildingBlock: EZIPEK_clean_linker_0, # of connection points: 2
#     Edge 15, Type (0, 1), BuildingBlock: EZIPEK_clean_linker_0, # of connection points: 2
#     Edge 16, Type (0, 1), BuildingBlock: EZIPEK_clean_linker_0, # of connection points: 2
#     Edge 17, Type (0, 1), BuildingBlock: EZIPEK_clean_linker_0, # of connection points: 2
#     Edge 18, Type (0, 1), BuildingBlock: EZIPEK_clean_linker_0, # of connection points: 2
#     Edge 19, Type (0, 1), BuildingBlock: EZIPEK_clean_linker_0, # of connection points: 2
#     Edge 20, Type (0, 1), BuildingBlock: EZIPEK_clean_linker_0, # of connection points: 2
#     Edge 21, Type (0, 1), BuildingBlock: EZIPEK_clean_linker_0, # of connection points: 2
#     Edge 22, Type (0, 1), BuildingBlock: EZIPEK_clean_linker_0, # of connection points: 2
#     Edge 23, Type (0, 1), BuildingBlock: EZIPEK_clean_linker_0, # of connection points: 2
#     Edge 24, Type (0, 1), BuildingBlock: EZIPEK_clean_linker_0, # of connection points: 2
#     Edge 25, Type (0, 1), BuildingBlock: EZIPEK_clean_linker_0, # of connection points: 2
#     Edge 26, Type (0, 1), BuildingBlock: EZIPEK_clean_linker_0, # of connection points: 2
#     Edge 27, Type (0, 1), BuildingBlock: EZIPEK_clean_linker_0, # of connection points: 2
#     Edge 28, Type (0, 1), BuildingBlock: EZIPEK_clean_linker_0, # of connection points: 2
#     Edge 29, Type (0, 1), BuildingBlock: EZIPEK_clean_linker_0, # of connection points: 2
#     Edge 30, Type (0, 1), BuildingBlock: EZIPEK_clean_linker_0, # of connection points: 2
#     Edge 31, Type (0, 1), BuildingBlock: EZIPEK_clean_linker_0, # of connection points: 2
#     Edge 32, Type (0, 1), BuildingBlock: EZIPEK_clean_linker_0, # of connection points: 2
#     Edge 33, Type (0, 1), BuildingBlock: EZIPEK_clean_linker_0, # of connection points: 2
#     Edge 34, Type (0, 1), BuildingBlock: EZIPEK_clean_linker_0, # of connection points: 2
#     Edge 35, Type (0, 1), BuildingBlock: EZIPEK_clean_linker_0, # of connection points: 2
# Relax obj value: 0.256
# Max RMSD: 0.304
# Mean RMSD: 0.154
data_MOF--net-pyr--node1-BETDIP_clean_sbu_0--node2-PAMTOO_clean_linker_0--edge1-EZIPEK_clean_linker_0
_symmetry_space_group_name_H-M    P1
_symmetry_Int_Tables_number       1
_symmetry_cell_setting            triclinic
loop_
_symmetry_equiv_pos_as_xyz
'x, y, z'
_cell_length_a     25.456618
_cell_length_b     28.512273
_cell_length_c     27.520011
_cell_angle_alpha  89.99201
_cell_angle_beta   94.253258
_cell_angle_gamma 109.99749
loop_
_atom_site_label
_atom_site_type_symbol
_atom_site_fract_x
_atom_site_fract_y
_atom_site_fract_z
_atom_type_partial_charge
H0 H 0.36016 0.32043 0.32541 0.0
H1 H 0.51998 0.29926 0.33205 0.0
H2 H 0.48072 0.39386 0.22389 0.0
H3 H 0.60899 0.35349 0.20723 0.0
C4 C 0.56524 0.33423 0.21662 0.0
O5 O 0.55695 0.35677 0.25844 0.0
H6 H 0.54023 0.34167 0.18472 0.0
C7 C 0.40097 0.32797 0.31153 0.0
C8 C 0.41577 0.35906 0.27187 0.0
C9 C 0.43841 0.30669 0.3336 0.0
C10 C 0.49088 0.31583 0.31527 0.0
C11 C 0.50609 0.34727 0.27565 0.0
C12 C 0.46886 0.36955 0.25446 0.0
H13 H 0.17387 0.8807 0.82269 0.0
H14 H 0.12648 0.83891 0.67152 0.0
H15 H 0.21326 0.75962 0.75978 0.0
H16 H 0.21451 0.82428 0.62823 0.0
C17 C 0.20809 0.78477 0.63682 0.0
O18 O 0.17012 0.76777 0.67182 0.0
H19 H 0.18859 0.7654 0.60159 0.0
C20 C 0.17152 0.85613 0.79186 0.0
C21 C 0.1965 0.81936 0.79674 0.0
C22 C 0.14641 0.86357 0.74697 0.0
C23 C 0.14491 0.83289 0.70669 0.0
C24 C 0.1694 0.79568 0.71127 0.0
C25 C 0.19424 0.78827 0.75651 0.0
H26 H 0.73028 0.35603 1.01581 0.0
H27 H 0.61532 0.33325 0.88771 0.0
H28 H 0.75798 0.46921 0.90775 0.0
H29 H 0.60896 0.44309 0.86445 0.0
C30 C 0.62768 0.43386 0.83223 0.0
O31 O 0.67313 0.41908 0.84682 0.0
H32 H 0.59377 0.40089 0.81518 0.0
C33 C 0.71702 0.36927 0.98171 0.0
C34 C 0.74963 0.41594 0.96511 0.0
C35 C 0.66788 0.33923 0.9549 0.0
C36 C 0.65219 0.35648 0.90956 0.0
C37 C 0.68426 0.40399 0.89254 0.0
C38 C 0.73235 0.43361 0.92112 0.0
H39 H 0.89429 0.80533 0.51503 0.0
H40 H 0.88598 0.68057 0.42354 0.0
H41 H 1.00787 0.82577 0.40158 0.0
H42 H 0.90354 0.71573 0.31753 0.0
C43 C 0.93546 0.69976 0.33173 0.0
O44 O 0.96919 0.73046 0.36998 0.0
H45 H 0.91053 0.66357 0.34693 0.0
C46 C 0.90972 0.79039 0.48512 0.0
C47 C 0.95523 0.82193 0.46122 0.0
C48 C 0.88374 0.73982 0.47095 0.0
C49 C 0.90497 0.7199 0.43319 0.0
C50 C 0.94866 0.75068 0.40656 0.0
C51 C 0.9733 0.80197 0.42073 0.0
H52 H 0.65775 0.88626 0.88168 0.0
H53 H 0.64008 0.8612 1.03451 0.0
H54 H 0.74993 0.80526 0.96067 0.0
H55 H 0.66617 0.74278 1.03797 0.0
C56 C 0.70061 0.76868 1.0624 0.0
O57 O 0.71339 0.8164 1.04501 0.0
H58 H 0.68529 0.7677 0.09925 0.0
C59 C 0.66573 0.86794 0.91455 0.0
C60 C 0.70525 0.84364 0.91563 0.0
C61 C 0.643 0.87532 0.95749 0.0
C62 C 0.65565 0.85398 1.00071 0.0
C63 C 0.69342 0.82806 1.00163 0.0
C64 C 0.71783 0.82237 0.95901 0.0
H65 H 0.03581 0.27801 0.36481 0.0
H66 H 0.94042 0.37584 0.33959 0.0
H67 H 0.95496 0.31997 0.47858 0.0
H68 H 0.94156 0.44551 0.42198 0.0
C69 C 0.92432 0.41709 0.44953 0.0
O70 O 0.91016 0.37119 0.42599 0.0
H71 H 0.9569 0.42094 0.48002 0.0
C72 C 1.01682 0.30296 0.37834 0.0
C73 C 1.00915 0.30282 0.4289 0.0
C74 C 0.99495 0.33084 0.34475 0.0
C75 C 0.9617 0.35653 0.36308 0.0
C76 C 0.94877 0.35264 0.41131 0.0
C77 C 0.97102 0.32532 0.44326 0.0
H78 H 0.37581 0.79147 0.17599 0.0
H79 H 0.35613 0.68204 0.28739 0.0
H80 H 0.49617 0.82024 0.30094 0.0
H81 H 0.52224 0.72839 0.33802 0.0
C82 C 0.48014 0.70642 0.34964 0.0
O83 O 0.4452 0.73472 0.34389 0.0
H84 H 0.46489 0.67362 0.32393 0.0
C85 C 0.39065 0.77977 0.21023 0.0
C86 C 0.43981 0.81179 0.23588 0.0
C87 C 0.3604 0.73284 0.22828 0.0
C88 C 0.37966 0.71778 0.27293 0.0
C89 C 0.42872 0.74896 0.29944 0.0
C90 C 0.45861 0.79599 0.28065 0.0
H91 H 0.08357 0.33288 0.85807 0.0
H92 H 0.21632 0.476 0.85242 0.0
H93 H 0.20433 0.36004 0.74963 0.0
H94 H 0.32262 0.44294 0.80721 0.0
C95 C 0.31028 0.47106 0.78575 0.0
O96 O 0.25333 0.454 0.77267 0.0
H97 H 0.32068 0.50362 0.81141 0.0
C98 C 0.12113 0.35693 0.84281 0.0
C99 C 0.14185 0.33908 0.80226 0.0
C100 C 0.14853 0.40668 0.86246 0.0
C101 C 0.19549 0.43769 0.83961 0.0
C102 C 0.2146 0.42111 0.7988 0.0
C103 C 0.18917 0.37188 0.78159 0.0
Tb104 Tb 0.99847 1.06924 0.62886 0.0
Tb105 Tb 0.11335 0.10091 0.61771 0.0
C106 C 0.89742 1.01812 0.63993 0.0
C107 C 0.86722 0.98079 0.67453 0.0
C108 C 0.87237 0.93315 0.67709 0.0
C109 C 0.84636 0.89995 0.71265 0.0
C110 C 0.81487 0.91399 0.7458 0.0
C111 C 0.80774 0.96049 0.74192 0.0
C112 C 0.83346 0.99352 0.70645 0.0
C113 C 0.05411 0.15414 0.68016 0.0
C114 C 0.07575 1.0274 0.69809 0.0
C115 C 0.21604 0.14507 0.60714 0.0
C116 C 0.252 0.16499 0.56714 0.0
C117 C 0.23701 0.19325 0.53032 0.0
C118 C 0.27284 0.21274 0.49358 0.0
C119 C 0.32373 0.20388 0.49299 0.0
C120 C 0.33817 0.17475 0.52904 0.0
C121 C 0.30259 0.15562 0.56603 0.0
C122 C 0.05624 1.01675 0.56506 0.0
C123 C 0.03734 0.14738 0.55076 0.0
O124 O 0.92865 1.00496 0.61115 0.0
O125 O 0.92232 1.06345 0.65749 0.0
O126 O 0.06999 0.11668 0.67628 0.0
O127 O 1.00584 0.14357 0.65616 0.0
O128 O 1.02681 1.01664 0.67293 0.0
O129 O 0.11599 1.06855 0.68818 0.0
O130 O 0.18168 0.16795 0.61796 0.0
O131 O 0.19248 0.09668 0.60723 0.0
O132 O 0.04233 1.05518 0.5695 0.0
O133 O 0.10239 1.02522 0.59189 0.0
O134 O 0.08815 0.15223 0.5697 0.0
O135 O 0.99335 0.11082 0.5637 0.0
H136 H 0.89775 0.92204 0.65269 0.0
H137 H 0.85238 0.8642 0.71544 0.0
H138 H 0.78354 0.97181 0.7674 0.0
H139 H 0.82819 1.02964 0.70483 0.0
H140 H 0.19796 0.20059 0.53009 0.0
H141 H 0.26107 0.23495 0.46573 0.0
H142 H 0.37725 0.16751 0.52888 0.0
H143 H 0.31469 0.13369 0.59399 0.0
Tb144 Tb 0.61666 0.09121 0.11031 0.0
Tb145 Tb 0.49486 1.06501 0.0896 0.0
C146 C 0.7218 0.12986 0.12294 0.0
C147 C 0.76876 0.17221 0.14507 0.0
C148 C 0.81444 0.19536 0.1174 0.0
C149 C 0.86334 0.23069 0.13907 0.0
C150 C 0.867 0.24309 0.18874 0.0
C151 C 0.82056 0.22171 0.21597 0.0
C152 C 0.77167 0.18641 0.19432 0.0
C153 C 0.55596 1.00275 0.14404 0.0
C154 C 0.54977 0.13857 0.17665 0.0
C155 C 0.39116 1.01942 1.07388 0.0
C156 C 0.35639 0.97491 1.04464 0.0
C157 C 0.36873 0.93038 1.04549 0.0
C158 C 0.34062 0.89156 1.01176 0.0
C159 C 0.30033 0.89712 0.97682 0.0
C160 C 0.28545 0.94007 0.97814 0.0
C161 C 0.31322 0.97867 1.01189 0.0
C162 C 0.55446 0.15299 1.05466 0.0
C163 C 0.56311 1.02145 1.02081 0.0
O164 O 0.69219 0.13908 0.08573 0.0
O165 O 0.69096 0.09746 0.15213 0.0
O166 O 0.54461 1.04263 0.14417 0.0
O167 O 0.60432 1.01279 0.1266 0.0
O168 O 0.59812 0.14362 0.15851 0.0
O169 O 0.5028 0.10472 0.15824 0.0
O170 O 0.42119 1.01222 0.11193 0.0
O171 O 0.41939 1.05747 1.04881 0.0
O172 O 0.56655 0.11336 1.0552 0.0
O173 O 0.50579 0.14274 1.07178 0.0
O174 O 0.51465 1.0144 1.03935 0.0
O175 O 0.60923 1.05536 1.0402 0.0
H176 H 0.81308 0.18466 0.07941 0.0
H177 H 0.89893 0.24692 0.11769 0.0
H178 H 0.82294 0.23107 0.25443 0.0
H179 H 0.73714 0.16896 0.21646 0.0
H180 H 0.40197 0.92654 1.07036 0.0
H181 H 0.35258 0.85859 1.01099 0.0
H182 H 0.25455 0.9449 0.95121 0.0
H183 H 0.30297 1.01257 1.01077 0.0
Tb184 Tb 0.58889 0.64188 0.6323 0.0
Tb185 Tb 0.5654 0.54173 0.57536 0.0
C186 C 0.57513 0.72082 0.65874 0.0
C187 C 0.52437 0.73381 0.66433 0.0
C188 C 0.51669 0.77343 0.63789 0.0
C189 C 0.46617 0.7827 0.63776 0.0
C190 C 0.42264 0.75275 0.66442 0.0
C191 C 0.43092 0.71428 0.69236 0.0
C192 C 0.48124 0.70466 0.69212 0.0
C193 C 0.6296 0.57737 0.67731 0.0
C194 C 0.47339 0.54943 0.64213 0.0
C195 C 0.57139 0.45806 0.55507 0.0
C196 C 0.61622 0.44383 0.5352 0.0
C197 C 0.64707 0.42184 0.5661 0.0
C198 C 0.69599 0.41637 0.55159 0.0
C199 C 0.71398 0.43137 0.50531 0.0
C200 C 0.68126 0.45023 0.473 0.0
C201 C 0.63291 0.45685 0.48797 0.0
C202 C 0.53254 0.60543 0.51932 0.0
C203 C 0.68153 0.63257 0.56709 0.0
O204 O 0.58297 0.71128 0.61383 0.0
O205 O 0.58532 0.68924 0.68946 0.0
O206 O 0.58449 0.5679 0.65016 0.0
O207 O 0.65218 0.62591 0.68167 0.0
O208 O 0.50443 0.59688 0.65233 0.0
O209 O 0.48771 0.52099 0.61133 0.0
O210 O 0.58425 0.47917 0.59856 0.0
O211 O 0.54514 0.48067 0.52605 0.0
O212 O 0.5553 0.61144 0.56244 0.0
O213 O 0.52574 0.55974 0.50682 0.0
O214 O 0.65257 0.58415 0.56019 0.0
O215 O 0.66422 0.66297 0.59284 0.0
H216 H 0.54919 0.79622 0.61604 0.0
H217 H 0.46051 0.81251 0.61597 0.0
H218 H 0.39775 0.69077 0.71313 0.0
H219 H 0.48564 0.67359 0.71258 0.0
H220 H 0.63474 0.41103 0.60243 0.0
H221 H 0.72056 0.40147 0.5769 0.0
H222 H 0.69442 0.46162 0.437 0.0
H223 H 0.60992 0.47377 0.46323 0.0
Tb224 Tb 0.05583 0.60089 1.06385 0.0
Tb225 Tb 0.0569 0.52317 0.13412 0.0
C226 C 1.02396 0.65796 1.00877 0.0
C227 C 0.98832 0.68814 1.01546 0.0
C228 C 0.94631 0.68652 0.97885 0.0
C229 C 0.90339 0.70443 0.9885 0.0
C230 C 0.90195 0.72395 1.03499 0.0
C231 C 0.94626 0.72905 1.0704 0.0
C232 C 0.98922 0.71121 1.06075 0.0
C233 C 0.15535 0.61664 0.11125 0.0
C234 C 1.01716 0.60843 0.17283 0.0
C235 C 0.08698 0.46576 0.19007 0.0
C236 C 0.13464 0.44793 0.19338 0.0
C237 C 0.18142 0.47091 0.16693 0.0
C238 C 0.22925 0.45753 0.1741 0.0
C239 C 0.23056 0.42091 0.20769 0.0
C240 C 0.18312 0.39671 0.23287 0.0
C241 C 0.13537 0.41026 0.22581 0.0
C242 C 0.95771 0.50796 0.08649 0.0
C243 C 0.09327 0.51466 1.02566 0.0
O244 O 0.99743 0.60995 1.01058 0.0
O245 O 0.07307 0.67176 1.03334 0.0
O246 O 0.1079 0.59953 0.12825 0.0
O247 O 0.14762 0.62678 1.06576 0.0
O248 O 1.02048 0.62454 0.12736 0.0
O249 O 0.03057 0.56867 0.18456 0.0
O250 O 0.10008 0.51365 0.19875 0.0
O251 O 0.05088 0.44994 0.15217 0.0
O252 O 1.00531 0.52502 1.07026 0.0
O253 O 0.96465 0.4947 0.1309 0.0
O254 O 0.10169 0.50663 1.07283 0.0
O255 O 0.06967 0.54807 1.01293 0.0
H256 H 0.94477 0.66858 0.9438 0.0
H257 H 0.86961 0.70045 0.9607 0.0
H258 H 0.94606 0.74455 0.10626 0.0
H259 H 1.02117 0.71285 0.08962 0.0
H260 H 0.18146 0.50017 0.1419 0.0
H261 H 0.26562 0.47648 0.15444 0.0
H262 H 0.18366 0.36832 0.25889 0.0
H263 H 0.09972 0.39233 0.24659 0.0
C264 C 0.43196 0.30009 0.42366 0.0
C265 C 0.4216 0.27612 0.377 0.0
C266 C 0.35381 0.20124 0.40854 0.0
C267 C 0.36213 0.22606 0.45467 0.0
N268 N 0.41702 0.29356 0.50989 0.0
N269 N 0.38428 0.20139 0.32677 0.0
C270 C 0.40414 0.27367 0.46348 0.0
C271 C 0.3864 0.22562 0.37015 0.0
N272 N 0.46618 0.34894 0.42909 0.0
N273 N 0.31326 0.15523 0.40114 0.0
H274 H 0.40783 0.21873 0.29819 0.0
H275 H 0.3631 0.1634 0.32028 0.0
H276 H 0.29029 0.13555 0.42904 0.0
H277 H 0.30046 0.13733 0.36716 0.0
H278 H 0.47037 0.37079 0.46039 0.0
H279 H 0.48906 0.3686 0.40114 0.0
H280 H 0.45085 0.32576 0.51976 0.0
H281 H 0.39624 0.27582 0.53965 0.0
C282 C 0.19822 0.80515 0.88622 0.0
C283 C 0.22816 0.81792 0.84393 0.0
C284 C 0.31104 0.8714 0.89239 0.0
C285 C 0.27967 0.86244 0.93406 0.0
N286 N 0.20015 0.81146 0.97462 0.0
N287 N 0.31773 0.84591 0.8099 0.0
C288 C 0.22549 0.82564 0.93235 0.0
C289 C 0.28641 0.84482 0.84828 0.0
N290 N 0.14296 0.77578 0.88134 0.0
N291 N 0.36259 0.90803 0.89387 0.0
H292 H 0.30069 0.82591 0.77753 0.0
H293 H 0.36129 0.86151 0.8122 0.0
H294 H 0.382 0.92881 0.92538 0.0
H295 H 0.38438 0.92044 0.86313 0.0
H296 H 0.11638 0.76909 0.90947 0.0
H297 H 0.1235 0.75883 0.84797 0.0
H298 H 0.16211 0.78251 0.97659 0.0
H299 H 0.2197 0.82647 1.00859 0.0
C300 C 0.63304 0.52172 0.80485 0.0
C301 C 0.64107 0.47589 0.79429 0.0
C302 C 0.6568 0.50424 0.70966 0.0
C303 C 0.63617 0.54369 0.71806 0.0
N304 N 0.59672 0.58513 0.7743 0.0
N305 N 0.65852 0.42283 0.73357 0.0
C306 C 0.62225 0.55118 0.7659 0.0
C307 C 0.6528 0.46712 0.74582 0.0
N308 N 0.63769 0.53833 0.85203 0.0
N309 N 0.68207 0.50305 0.66787 0.0
H310 H 0.6576 0.39528 0.7587 0.0
H311 H 0.66068 0.41228 0.69772 0.0
H312 H 0.68648 0.53001 0.64134 0.0
H313 H 0.70332 0.47841 0.66198 0.0
H314 H 0.63626 0.57326 0.86143 0.0
H315 H 0.65098 0.52056 0.88109 0.0
H316 H 0.58075 0.58832 0.80746 0.0
H317 H 0.58636 0.60647 0.74696 0.0
C318 C 1.00446 0.65894 0.30065 0.0
C319 C 0.96773 0.68656 0.29083 0.0
C320 C 0.96122 0.66174 0.2037 0.0
C321 C 1.00151 0.6375 0.21279 0.0
N322 N 0.07627 0.63182 0.26965 0.0
N323 N 0.93034 0.72889 0.22859 0.0
C324 C 0.02757 0.64166 0.2612 0.0
C325 C 0.95227 0.69264 0.241 0.0
N326 N 1.01656 0.64771 0.34742 0.0
N327 N 0.92881 0.65366 0.16069 0.0
H328 H 0.92866 0.75566 0.25366 0.0
H329 H 0.92161 0.73672 0.1925 0.0
H330 H 0.9318 0.63061 0.13258 0.0
H331 H 0.89474 0.66598 0.15508 0.0
H332 H 0.03812 0.62316 0.35575 0.0
H333 H 1.00147 0.65957 0.37753 0.0
H334 H 0.09907 0.6382 0.30353 0.0
H335 H 0.09783 0.62401 0.24175 0.0
C336 C 0.59994 0.26336 0.24226 0.0
C337 C 0.5552 0.27878 0.22293 0.0
C338 C 0.49768 0.19089 0.20858 0.0
C339 C 0.54712 0.17881 0.21033 0.0
N340 N 0.64158 0.19807 0.24514 0.0
N341 N 0.45743 0.25482 0.19194 0.0
C342 C 0.59713 0.21334 0.23304 0.0
C343 C 0.50242 0.24185 0.20821 0.0
N344 N 0.64445 0.29632 0.26928 0.0
N345 N 0.4467 0.15399 0.20906 0.0
H346 H 0.45753 0.29127 0.19214 0.0
H347 H 0.42059 0.22918 0.17553 0.0
H348 H 0.4431 0.11687 0.21478 0.0
H349 H 0.40939 0.16111 0.21121 0.0
H350 H 0.6768 0.28671 0.28685 0.0
H351 H 0.64647 0.33253 0.27792 0.0
H352 H 0.68171 0.22216 0.25627 0.0
H353 H 0.6375 0.16037 0.24374 0.0
C354 C 0.06769 0.89853 0.73677 0.0
C355 C 0.12614 0.90654 0.74193 0.0
C356 C 0.14633 0.99683 0.74392 0.0
C357 C 0.08974 0.98874 0.72805 0.0
N358 N 0.99465 0.93574 0.73517 0.0
N359 N 0.22196 0.96376 0.74702 0.0
C360 C 0.04946 0.94049 0.73194 0.0
C361 C 0.16575 0.95585 0.74527 0.0
N362 N 0.02994 0.85095 0.73545 0.0
N363 N 0.18044 1.0431 0.76061 0.0
H364 H 0.23836 0.93489 0.74663 0.0
H365 H 0.25207 0.99902 0.74424 0.0
H366 H 0.16501 0.07218 0.76547 0.0
H367 H 0.22113 1.05042 0.77615 0.0
H368 H 0.98723 0.84205 0.72612 0.0
H369 H 0.04177 0.81972 0.74159 0.0
H370 H 0.96318 0.90226 0.74155 0.0
H371 H 0.98218 0.96685 0.73786 0.0
C372 C 0.80465 0.47427 1.03466 0.0
C373 C 0.80395 0.44425 0.99325 0.0
C374 C 0.90197 0.45216 1.01557 0.0
C375 C 0.9043 0.48531 1.05497 0.0
N376 N 0.85922 0.53061 0.10071 0.0
N377 N 0.85415 0.41138 0.93942 0.0
C378 C 0.8559 0.49707 1.06414 0.0
C379 C 0.85348 0.43565 0.98209 0.0
N380 N 0.75582 0.47982 1.04647 0.0
N381 N 0.94422 0.43318 1.01224 0.0
H382 H 0.81904 0.39721 0.91471 0.0
H383 H 0.89064 0.40906 0.92649 0.0
H384 H 0.97821 0.44085 1.03814 0.0
H385 H 0.94254 0.40523 0.98722 0.0
H386 H 0.75146 0.49625 0.07897 0.0
H387 H 0.71837 0.46562 1.0245 0.0
H388 H 0.82824 0.54591 0.10573 0.0
H389 H 0.89463 0.54514 0.12497 0.0
C390 C 0.83704 0.69401 0.54399 0.0
C391 C 0.83249 0.70827 0.49475 0.0
C392 C 0.73035 0.66403 0.491 0.0
C393 C 0.73414 0.65496 0.54171 0.0
N394 N 0.79039 0.66351 0.61763 0.0
N395 N 0.77373 0.71297 0.42333 0.0
C396 C 0.78738 0.67059 0.56853 0.0
C397 C 0.77886 0.69454 0.46865 0.0
N398 N 0.88895 0.70162 0.5668 0.0
N399 N 0.6803 0.64342 0.46397 0.0
H400 H 0.80786 0.73565 0.40569 0.0
H401 H 0.73532 0.70945 0.40484 0.0
H402 H 0.64346 0.6222 0.47897 0.0
H403 H 0.67613 0.64387 0.42606 0.0
H404 H 0.89547 0.68784 0.60088 0.0
H405 H 0.9259 0.71831 0.54983 0.0
H406 H 0.82678 0.67911 0.64049 0.0
H407 H 0.75543 0.64401 0.63611 0.0
C408 C 0.33217 0.34979 0.21369 0.0
C409 C 0.37413 0.3795 0.2487 0.0
C410 C 0.32428 0.4389 0.2538 0.0
C411 C 0.28254 0.40931 0.21855 0.0
N412 N 0.25184 0.34326 0.15731 0.0
N413 N 0.41673 0.45635 0.29543 0.0
C414 C 0.28824 0.36687 0.19596 0.0
C415 C 0.37239 0.42557 0.26643 0.0
N416 N 0.33309 0.30427 0.19904 0.0
N417 N 0.31659 0.47838 0.27672 0.0
H418 H 0.45202 0.44707 0.30619 0.0
H419 H 0.42076 0.49261 0.30576 0.0
H420 H 0.28255 0.49002 0.26764 0.0
H421 H 0.34192 0.49789 0.30673 0.0
H422 H 0.30034 0.27816 0.17819 0.0
H423 H 0.36541 0.29112 0.21027 0.0
H424 H 0.25693 0.31519 0.13601 0.0
H425 H 0.21878 0.3546 0.14389 0.0
C426 C 0.63217 0.24372 0.9574 0.0
C427 C 0.63357 0.29051 0.97649 0.0
C428 C 0.58781 0.24763 1.04809 0.0
C429 C 0.58247 0.20018 1.02742 0.0
N430 N 0.58603 0.15386 0.95496 0.0
N431 N 0.60095 0.33499 1.03483 0.0
C432 C 0.60102 0.1984 0.98001 0.0
C433 C 0.60765 0.29169 1.02023 0.0
N434 N 0.66195 0.24237 0.91847 0.0
N435 N 0.57634 0.25127 0.09536 0.0
H436 H 0.61427 0.36771 1.01517 0.0
H437 H 0.57726 0.33712 1.06349 0.0
H438 H 0.56262 0.22054 0.11737 0.0
H439 H 0.58563 0.28517 0.1142 0.0
H440 H 0.6678 0.20997 0.90648 0.0
H441 H 0.68458 0.27438 0.90064 0.0
H442 H 0.59375 0.15098 0.91862 0.0
H443 H 0.56022 0.12042 0.96836 0.0
C444 C 0.03934 0.89187 0.50194 0.0
C445 C 0.98353 0.87545 0.48026 0.0
C446 C 0.97576 0.95618 0.50644 0.0
C447 C 0.03198 0.97233 0.5286 0.0
N448 N 0.12243 0.96325 0.5227 0.0
N449 N 0.90394 0.89751 0.45104 0.0
C450 C 0.06531 0.94244 0.51907 0.0
C451 C 0.95335 0.90935 0.4794 0.0
N452 N 0.06755 0.85899 0.50795 0.0
N453 N 0.94329 0.98509 0.51072 0.0
H454 H 0.88716 0.86438 0.4303 0.0
H455 H 0.88226 0.92217 0.4443 0.0
H456 H 0.95925 1.02219 0.52241 0.0
H457 H 0.89996 0.97198 0.50306 0.0
H458 H 0.10607 0.86796 0.52829 0.0
H459 H 0.05032 0.82157 0.49667 0.0
H460 H 0.14841 0.94398 0.5129 0.0
H461 H 0.1433 1.00157 0.52759 0.0
C462 C 0.31069 0.81322 0.67291 0.0
C463 C 0.26263 0.7751 0.65055 0.0
C464 C 0.31992 0.72323 0.63714 0.0
C465 C 0.36731 0.7601 0.66105 0.0
N466 N 0.40559 0.8353 0.71084 0.0
N467 N 0.21886 0.68782 0.62715 0.0
C468 C 0.36205 0.80375 0.68162 0.0
C469 C 0.26639 0.72813 0.63787 0.0
N470 N 0.30782 0.85862 0.68547 0.0
N471 N 0.3263 0.6848 0.61139 0.0
H472 H 0.17862 0.68917 0.62876 0.0
H473 H 0.21942 0.65177 0.62211 0.0
H474 H 0.36518 0.68096 0.60811 0.0
H475 H 0.29392 0.65975 0.58918 0.0
H476 H 0.34305 0.88988 0.69481 0.0
H477 H 0.27047 0.86587 0.68576 0.0
H478 H 0.40284 0.86524 0.73081 0.0
H479 H 0.44341 0.82911 0.71848 0.0
C480 C 0.71419 0.82671 0.82804 0.0
C481 C 0.74002 0.84956 0.87357 0.0
C482 C 0.82403 0.89763 0.83389 0.0
C483 C 0.79358 0.88312 0.78808 0.0
N484 N 0.71083 0.83248 0.73984 0.0
N485 N 0.81884 0.91021 0.91978 0.0
C486 C 0.73926 0.84644 0.78454 0.0
C487 C 0.79536 0.88511 0.8768 0.0
N488 N 0.66552 0.78667 0.82674 0.0
N489 N 0.88012 0.92447 0.83612 0.0
H490 H 0.79945 0.90355 0.95232 0.0
H491 H 0.85598 0.94076 0.92246 0.0
H492 H 0.90199 0.93465 0.80497 0.0
H493 H 0.9058 0.93212 0.86851 0.0
H494 H 0.64656 0.76578 0.79517 0.0
H495 H 0.64679 0.7717 0.85838 0.0
H496 H 0.66872 0.81021 0.73488 0.0
H497 H 0.7291 0.84516 0.70743 0.0
C498 C 1.00197 0.28265 0.26951 0.0
C499 C 0.99662 0.3259 0.29002 0.0
C500 C 0.93029 0.32709 0.22187 0.0
C501 C 0.92047 0.27553 0.21386 0.0
N502 N 0.95401 0.20596 0.22337 0.0
N503 N 0.98989 0.40402 0.26447 0.0
C504 C 0.95927 0.25399 0.23479 0.0
C505 C 0.97228 0.35342 0.25861 0.0
N506 N 0.05024 0.27262 0.27896 0.0
N507 N 0.89759 0.34956 0.19672 0.0
H508 H 1.02168 0.42245 0.2912 0.0
H509 H 0.97643 0.42714 0.24118 0.0
H510 H 0.86765 0.331 0.16878 0.0
H511 H 0.89921 0.38582 0.20438 0.0
H512 H 0.05824 0.24349 0.2617 0.0
H513 H 0.08433 0.29759 0.29981 0.0
H514 H 0.97821 0.18749 0.24172 0.0
H515 H 0.92387 0.18422 0.19709 0.0
C516 C 0.53268 0.71373 0.43452 0.0
C517 C 0.48502 0.68831 0.40235 0.0
C518 C 0.4585 0.62059 0.46168 0.0
C519 C 0.51268 0.64008 0.48689 0.0
N520 N 0.60169 0.70708 0.49707 0.0
N521 N 0.39757 0.61999 0.38904 0.0
C522 C 0.54942 0.68773 0.47392 0.0
C523 C 0.446 0.64277 0.41751 0.0
N524 N 0.56156 0.76302 0.42777 0.0
N525 N 0.4185 0.5814 0.48093 0.0
H526 H 0.38465 0.63724 0.35937 0.0
H527 H 0.37099 0.58365 0.39391 0.0
H528 H 0.42599 0.56595 0.514 0.0
H529 H 0.37674 0.5676 0.46715 0.0
H530 H 0.59386 0.78493 0.45219 0.0
H531 H 0.5487 0.78336 0.40077 0.0
H532 H 0.63311 0.73811 0.48514 0.0
H533 H 0.61451 0.69012 0.52668 0.0
C534 C 0.12141 0.47712 0.89799 0.0
C535 C 0.12805 0.42983 0.90425 0.0
C536 C 0.10485 0.4341 0.98992 0.0
C537 C 0.10833 0.48522 0.98542 0.0
N538 N 0.13905 0.55808 0.93546 0.0
N539 N 0.13656 0.36825 0.96156 0.0
C540 C 0.12196 0.50743 0.93948 0.0
C541 C 0.12272 0.40967 0.95179 0.0
N542 N 0.11372 0.49322 0.85218 0.0
N543 N 0.082 0.40744 1.02899 0.0
H544 H 0.15075 0.34994 0.93549 0.0
H545 H 0.13905 0.35515 0.99672 0.0
H546 H 0.06477 0.42156 1.05607 0.0
H547 H 0.07406 0.36917 1.03138 0.0
H548 H 0.10444 0.52571 0.84586 0.0
H549 H 0.11004 0.47116 0.82098 0.0
H550 H 0.15318 0.57589 0.90339 0.0
H551 H 0.14686 0.58243 0.9655 0.0
C552 C 0.64744 0.96452 0.95562 0.0
C553 C 0.61509 0.91313 0.95954 0.0
C554 C 0.5342 0.93596 0.97891 0.0
C555 C 0.57005 0.98643 0.98335 0.0
N556 N 0.64616 1.04875 0.94863 0.0
N557 N 0.52616 0.84882 0.96905 0.0
C558 C 0.62178 1.00057 0.96215 0.0
C559 C 0.5575 0.89844 0.96859 0.0
N560 N 0.70376 0.97943 0.95032 0.0
N561 N 0.4781 0.9246 0.98224 0.0
H562 H 0.54153 0.82093 0.95909 0.0
H563 H 0.48584 0.83501 0.98063 0.0
H564 H 0.46024 0.95238 0.98356 0.0
H565 H 0.44877 0.88882 0.97742 0.0
H566 H 0.72985 1.0167 0.95283 0.0
H567 H 0.72585 0.95489 0.94805 0.0
H568 H 0.68185 1.06071 0.92926 0.0
H569 H 0.62634 0.075 0.95198 0.0
C570 C 1.01533 0.26653 0.51305 0.0
C571 C 0.03183 0.27217 0.46491 0.0
C572 C 0.06185 0.1993 0.47624 0.0
C573 C 0.03072 0.18692 0.51816 0.0
N574 N 0.97035 0.20802 0.57225 0.0
N575 N 0.10752 0.26498 0.4217 0.0
C576 C 1.00479 0.22 0.53509 0.0
C577 C 0.06565 0.24433 0.4516 0.0
N578 N 1.01861 0.30739 0.54049 0.0
N579 N 0.08606 0.1673 0.45902 0.0
H580 H 0.11711 0.30175 0.41046 0.0
H581 H 0.13714 0.24887 0.41399 0.0
H582 H 0.08315 0.13369 0.47565 0.0
H583 H 0.10457 0.17197 0.42601 0.0
H584 H 1.01111 0.30552 0.57732 0.0
H585 H 0.03543 0.34345 0.52739 0.0
H586 H 0.94908 0.23119 0.58321 0.0
H587 H 0.95819 0.17331 0.58816 0.0
C588 C 0.30845 0.66379 0.16587 0.0
C589 C 0.30726 0.70036 0.20052 0.0
C590 C 0.20818 0.68492 0.17383 0.0
C591 C 0.20784 0.64546 0.14193 0.0
N592 N 0.25613 0.59403 0.11063 0.0
N593 N 0.25363 0.73945 0.24367 0.0
C594 C 0.25765 0.634 0.13883 0.0
C595 C 0.25628 0.7088 0.20644 0.0
N596 N 0.35853 0.65855 0.15785 0.0
N597 N 0.16403 0.70205 0.17081 0.0
H598 H 0.28817 0.7584 0.26761 0.0
H599 H 0.21622 0.74259 0.2535 0.0
H600 H 0.12956 0.68809 0.14548 0.0
H601 H 0.16418 0.73379 0.18962 0.0
H602 H 0.36381 0.63681 0.12951 0.0
H603 H 0.39599 0.67857 0.17788 0.0
H604 H 0.28875 0.5798 0.11099 0.0
H605 H 0.22048 0.57278 0.08902 0.0
C606 C 0.34849 0.53262 0.71782 0.0
C607 C 0.34369 0.48673 0.74086 0.0
C608 C 0.42128 0.48052 0.69701 0.0
C609 C 0.42542 0.52552 0.67252 0.0
N610 N 0.38267 0.58672 0.65036 0.0
N611 N 0.35938 0.40818 0.73478 0.0
C612 C 0.38582 0.54929 0.68012 0.0
C613 C 0.37466 0.4577 0.72458 0.0
N614 N 0.31835 0.56083 0.73246 0.0
N615 N 0.46364 0.46122 0.69752 0.0
H616 H 0.32301 0.38929 0.75174 0.0
H617 H 0.37857 0.38482 0.72051 0.0
H618 H 0.50127 0.47847 0.68188 0.0
H619 H 0.46415 0.43111 0.71884 0.0
H620 H 0.32549 0.59736 0.72163 0.0
H621 H 0.2878 0.54863 0.7573 0.0
H622 H 0.35094 0.60195 0.65088 0.0
H623 H 0.40834 0.59893 0.62175 0.0
C624 C 0.74957 0.70406 1.05543 0.0
C625 C 0.75303 0.75397 1.06551 0.0
C626 C 0.85465 0.78314 1.06092 0.0
C627 C 0.85124 0.73404 1.04811 0.0
N628 N 0.79944 0.6456 1.0489 0.0
N629 N 0.81143 0.83314 0.10275 0.0
C630 C 0.79976 0.69368 1.04999 0.0
C631 C 0.80649 0.79111 0.07631 0.0
N632 N 0.69864 0.66658 1.05161 0.0
N633 N 0.90303 0.8225 1.05666 0.0
H634 H 0.77732 0.8381 0.11805 0.0
H635 H 0.85003 0.85956 0.11466 0.0
H636 H 0.93913 0.81843 1.04454 0.0
H637 H 0.90552 0.85954 1.06097 0.0
H638 H 0.69229 0.63118 1.03704 0.0
H639 H 0.66235 0.67093 1.0629 0.0
H640 H 0.76443 0.6146 1.05469 0.0
H641 H 0.8357 0.63671 1.04673 0.0
C642 C 0.46974 0.90691 0.23378 0.0
C643 C 0.47159 0.86133 0.21438 0.0
C644 C 0.52231 0.90771 0.14653 0.0
C645 C 0.5254 0.95417 0.16826 0.0
N646 N 0.51245 0.99706 0.23986 0.0
N647 N 0.50933 0.82001 0.15714 0.0
C648 C 0.50172 0.95355 0.21382 0.0
C649 C 0.5008 0.86235 0.1722 0.0
N650 N 0.43628 0.90576 0.27066 0.0
N651 N 0.53755 0.90625 0.10017 0.0
H652 H 0.49442 0.7862 0.17488 0.0
H653 H 0.53567 0.81954 0.13006 0.0
H654 H 0.55255 0.93789 0.07955 0.0
H655 H 0.53009 0.87319 0.08032 0.0
H656 H 0.42795 0.93701 0.28253 0.0
H657 H 0.41301 0.8727 0.28661 0.0
H658 H 0.50102 0.99824 0.27529 0.0
H659 H 0.53822 1.03161 0.22871 0.0
C660 C 0.09039 0.28927 0.72671 0.0
C661 C 0.1124 0.28905 0.77561 0.0
C662 C 0.0945 0.19814 0.76427 0.0
C663 C 0.07922 0.20039 0.71353 0.0
N664 N 0.07875 0.25339 0.64552 0.0
N665 N 0.14188 0.24357 0.83932 0.0
C666 C 0.08141 0.24744 0.69469 0.0
C667 C 0.11614 0.24344 0.79399 0.0
N668 N 0.07771 0.32975 0.71061 0.0
N669 N 0.08649 0.15285 0.78473 0.0
H670 H 0.1565 0.27531 0.86218 0.0
H671 H 0.15188 0.21329 0.85284 0.0
H672 H 0.07064 0.11929 0.76472 0.0
H673 H 0.09124 0.14828 0.82215 0.0
H674 H 0.05672 0.33022 0.67671 0.0
H675 H 0.08277 0.36067 0.73317 0.0
H676 H 0.08624 0.288 0.62961 0.0
H677 H 0.07665 0.22493 0.62102 0.0
C678 C 0.86567 0.47053 0.47154 0.0
C679 C 0.87284 0.42315 0.47007 0.0
C680 C 0.77617 0.38221 0.49034 0.0
C681 C 0.76845 0.429 0.49192 0.0
N682 N 0.80982 0.51893 0.49689 0.0
N683 N 0.84355 0.3405 0.5032 0.0
C684 C 0.8143 0.47368 0.486 0.0
C685 C 0.83074 0.38086 0.48717 0.0
N686 N 0.90811 0.51261 0.46022 0.0
N687 N 0.73138 0.33886 0.49089 0.0
H688 H 0.88469 0.34092 0.5072 0.0
H689 H 0.81494 0.31018 0.51916 0.0
H690 H 0.69021 0.33813 0.49184 0.0
H691 H 0.73476 0.30385 0.4854 0.0
H692 H 0.90254 0.54655 0.45308 0.0
H693 H 0.94912 0.5137 0.45752 0.0
H694 H 0.84335 0.55251 0.49822 0.0
H695 H 0.77356 0.52274 0.50892 0.0
loop_
_geom_bond_atom_site_label_1
_geom_bond_atom_site_label_2
_geom_bond_distance
_geom_bond_site_symmetry_2
_ccdc_geom_bond_type
H0 C7 0.929 . S
H1 C10 0.930 . S
H2 C12 0.929 . S
H3 C4 0.969 . S
C4 H3 0.969 . S
C4 O5 1.550 . S
C4 H6 0.973 . S
O5 C4 1.550 . S
O5 C11 1.412 . S
H6 C4 0.973 . S
C7 H0 0.929 . S
C7 C8 1.400 . S
C7 C9 1.364 . S
C8 C7 1.400 . S
C8 C12 1.377 . S
C9 C7 1.364 . S
C9 C10 1.374 . S
C10 H1 0.930 . S
C10 C9 1.374 . S
C10 C11 1.383 . S
C11 O5 1.412 . S
C11 C10 1.383 . S
C11 C12 1.394 . S
C12 H2 0.929 . S
C12 C8 1.377 . S
C12 C11 1.394 . S
H13 C20 0.929 . S
H14 C23 0.930 . S
H15 C25 0.929 . S
H16 C17 0.969 . S
C17 H16 0.969 . S
C17 O18 1.550 . S
C17 H19 0.973 . S
O18 C17 1.550 . S
O18 C24 1.412 . S
H19 C17 0.973 . S
C20 H13 0.929 . S
C20 C21 1.400 . S
C20 C22 1.364 . S
C21 C20 1.400 . S
C21 C25 1.377 . S
C22 C20 1.364 . S
C22 C23 1.374 . S
C23 H14 0.930 . S
C23 C22 1.374 . S
C23 C24 1.383 . S
C24 O18 1.412 . S
C24 C23 1.383 . S
C24 C25 1.394 . S
C25 H15 0.929 . S
C25 C21 1.377 . S
C25 C24 1.394 . S
H26 C33 0.929 . S
H27 C36 0.930 . S
H28 C38 0.929 . S
H29 C30 0.969 . S
C30 H29 0.969 . S
C30 O31 1.550 . S
C30 H32 0.973 . S
O31 C30 1.550 . S
O31 C37 1.412 . S
H32 C30 0.973 . S
C33 H26 0.929 . S
C33 C34 1.400 . S
C33 C35 1.364 . S
C34 C33 1.400 . S
C34 C38 1.377 . S
C35 C33 1.364 . S
C35 C36 1.374 . S
C36 H27 0.930 . S
C36 C35 1.374 . S
C36 C37 1.383 . S
C37 O31 1.412 . S
C37 C36 1.383 . S
C37 C38 1.394 . S
C38 H28 0.929 . S
C38 C34 1.377 . S
C38 C37 1.394 . S
H39 C46 0.929 . S
H40 C49 0.930 . S
H41 C51 0.929 . S
H42 C43 0.969 . S
C43 H42 0.969 . S
C43 O44 1.550 . S
C43 H45 0.973 . S
O44 C43 1.550 . S
O44 C50 1.412 . S
H45 C43 0.973 . S
C46 H39 0.929 . S
C46 C47 1.400 . S
C46 C48 1.364 . S
C47 C46 1.400 . S
C47 C51 1.377 . S
C48 C46 1.364 . S
C48 C49 1.374 . S
C49 H40 0.930 . S
C49 C48 1.374 . S
C49 C50 1.383 . S
C50 O44 1.412 . S
C50 C49 1.383 . S
C50 C51 1.394 . S
C51 H41 0.929 . S
C51 C47 1.377 . S
C51 C50 1.394 . S
H52 C59 0.929 . S
H53 C62 0.930 . S
H54 C64 0.929 . S
H55 C56 0.969 . S
C56 H55 0.969 . S
C56 O57 1.550 . S
C56 H58 0.973 . S
O57 C56 1.550 . S
O57 C63 1.412 . S
H58 C56 0.973 . S
C59 H52 0.929 . S
C59 C60 1.400 . S
C59 C61 1.364 . S
C60 C59 1.400 . S
C60 C64 1.377 . S
C61 C59 1.364 . S
C61 C62 1.374 . S
C62 H53 0.930 . S
C62 C61 1.374 . S
C62 C63 1.383 . S
C63 O57 1.412 . S
C63 C62 1.383 . S
C63 C64 1.394 . S
C64 H54 0.929 . S
C64 C60 1.377 . S
C64 C63 1.394 . S
H65 C72 0.929 . S
H66 C75 0.930 . S
H67 C77 0.929 . S
H68 C69 0.969 . S
C69 H68 0.969 . S
C69 O70 1.550 . S
C69 H71 0.973 . S
O70 C69 1.550 . S
O70 C76 1.412 . S
H71 C69 0.973 . S
C72 H65 0.929 . S
C72 C73 1.400 1_655 S
C72 C74 1.364 . S
C73 C72 1.400 1_455 S
C73 C77 1.377 . S
C74 C72 1.364 . S
C74 C75 1.374 . S
C75 H66 0.930 . S
C75 C74 1.374 . S
C75 C76 1.383 . S
C76 O70 1.412 . S
C76 C75 1.383 . S
C76 C77 1.394 1_655 S
C77 H67 0.929 . S
C77 C73 1.377 . S
C77 C76 1.394 1_455 S
H78 C85 0.929 . S
H79 C88 0.930 . S
H80 C90 0.929 . S
H81 C82 0.969 . S
C82 H81 0.969 . S
C82 O83 1.550 . S
C82 H84 0.973 . S
O83 C82 1.550 . S
O83 C89 1.412 . S
H84 C82 0.973 . S
C85 H78 0.929 . S
C85 C86 1.400 . S
C85 C87 1.364 . S
C86 C85 1.400 . S
C86 C90 1.377 . S
C87 C85 1.364 . S
C87 C88 1.374 . S
C88 H79 0.930 . S
C88 C87 1.374 . S
C88 C89 1.383 . S
C89 O83 1.412 . S
C89 C88 1.383 . S
C89 C90 1.394 . S
C90 H80 0.929 . S
C90 C86 1.377 . S
C90 C89 1.394 . S
H91 C98 0.929 . S
H92 C101 0.930 . S
H93 C103 0.929 . S
H94 C95 0.969 . S
C95 H94 0.969 . S
C95 O96 1.550 . S
C95 H97 0.973 . S
O96 C95 1.550 . S
O96 C102 1.412 . S
H97 C95 0.973 . S
C98 H91 0.929 . S
C98 C99 1.400 . S
C98 C100 1.364 . S
C99 C98 1.400 . S
C99 C103 1.377 . S
C100 C98 1.364 . S
C100 C101 1.374 . S
C101 H92 0.930 . S
C101 C100 1.374 . S
C101 C102 1.383 . S
C102 O96 1.412 . S
C102 C101 1.383 . S
C102 C103 1.394 . S
C103 H93 0.929 . S
C103 C99 1.377 . S
C103 C102 1.394 . S
Tb104 C106 2.809 1_545 S
Tb104 O124 2.484 1_545 S
Tb104 O125 2.440 1_545 S
Tb104 O126 2.658 1_655 S
Tb104 O127 2.409 1_655 S
Tb104 O128 2.378 1_645 S
Tb104 O132 2.325 1_545 S
Tb104 O135 2.341 . S
Tb105 C115 2.809 . S
Tb105 O126 2.325 . S
Tb105 O129 2.341 1_545 S
Tb105 O130 2.484 . S
Tb105 O131 2.440 . S
Tb105 O132 2.658 1_445 S
Tb105 O133 2.409 1_545 S
Tb105 O134 2.378 . S
C106 Tb104 2.809 1_565 S
C106 C107 1.514 . S
C106 O124 1.248 . S
C106 O125 1.266 . S
C107 C106 1.514 . S
C107 C108 1.359 . S
C107 C112 1.348 . S
C108 C107 1.359 . S
C108 C109 1.380 . S
C108 H136 0.929 . S
C109 C108 1.380 . S
C109 C110 1.347 . S
C109 H137 0.931 . S
C110 C109 1.347 . S
C110 C111 1.369 . S
C111 C110 1.369 . S
C111 C112 1.408 . S
C111 H138 0.930 . S
C112 C107 1.348 . S
C112 C111 1.408 . S
C112 H139 0.930 . S
C113 O126 1.281 . S
C113 O127 1.254 . S
C114 O128 1.236 . S
C114 O129 1.266 . S
C115 Tb105 2.809 . S
C115 C116 1.514 . S
C115 O130 1.248 . S
C115 O131 1.266 . S
C116 C115 1.514 . S
C116 C117 1.359 . S
C116 C121 1.348 . S
C117 C116 1.359 . S
C117 C118 1.380 . S
C117 H140 0.929 . S
C118 C117 1.380 . S
C118 C119 1.347 . S
C118 H141 0.931 . S
C119 C118 1.347 . S
C119 C120 1.369 . S
C120 C119 1.369 . S
C120 C121 1.408 . S
C120 H142 0.930 . S
C121 C116 1.348 . S
C121 C120 1.408 . S
C121 H143 0.930 . S
C122 O132 1.281 . S
C122 O133 1.254 1_655 S
C123 O134 1.236 1_655 S
C123 O135 1.266 . S
O124 Tb104 2.484 1_565 S
O124 C106 1.248 . S
O125 Tb104 2.440 1_565 S
O125 C106 1.266 . S
O126 Tb104 2.658 1_455 S
O126 Tb105 2.325 . S
O126 C113 1.281 . S
O127 Tb104 2.409 1_455 S
O127 C113 1.254 . S
O128 Tb104 2.378 1_465 S
O128 C114 1.236 . S
O129 Tb105 2.341 1_565 S
O129 C114 1.266 . S
O130 Tb105 2.484 . S
O130 C115 1.248 . S
O131 Tb105 2.440 . S
O131 C115 1.266 . S
O132 Tb104 2.325 1_565 S
O132 Tb105 2.658 1_665 S
O132 C122 1.281 . S
O133 Tb105 2.409 1_565 S
O133 C122 1.254 1_455 S
O134 Tb105 2.378 . S
O134 C123 1.236 1_455 S
O135 Tb104 2.341 . S
O135 C123 1.266 . S
H136 C108 0.929 . S
H137 C109 0.931 . S
H138 C111 0.930 . S
H139 C112 0.930 . S
H140 C117 0.929 . S
H141 C118 0.931 . S
H142 C120 0.930 . S
H143 C121 0.930 . S
Tb144 C146 2.809 . S
Tb144 O164 2.484 . S
Tb144 O165 2.440 . S
Tb144 O166 2.658 1_545 S
Tb144 O167 2.409 1_545 S
Tb144 O168 2.378 . S
Tb144 O172 2.325 1_554 S
Tb144 O175 2.341 1_544 S
Tb145 C155 2.809 1_545 S
Tb145 O166 2.325 1_546 S
Tb145 O169 2.341 1_556 S
Tb145 O170 2.484 1_545 S
Tb145 O171 2.440 1_545 S
Tb145 O172 2.658 . S
Tb145 O173 2.409 . S
Tb145 O174 2.378 1_545 S
C146 Tb144 2.809 . S
C146 C147 1.514 . S
C146 O164 1.248 . S
C146 O165 1.266 . S
C147 C146 1.514 . S
C147 C148 1.359 . S
C147 C152 1.348 . S
C148 C147 1.359 . S
C148 C149 1.380 . S
C148 H176 0.929 . S
C149 C148 1.380 . S
C149 C150 1.347 . S
C149 H177 0.931 . S
C150 C149 1.347 . S
C150 C151 1.369 . S
C151 C150 1.369 . S
C151 C152 1.408 . S
C151 H178 0.930 . S
C152 C147 1.348 . S
C152 C151 1.408 . S
C152 H179 0.930 . S
C153 O166 1.281 . S
C153 O167 1.254 . S
C154 O168 1.236 . S
C154 O169 1.266 . S
C155 Tb145 2.809 1_565 S
C155 C156 1.514 . S
C155 O170 1.248 . S
C155 O171 1.266 . S
C156 C155 1.514 . S
C156 C157 1.359 . S
C156 C161 1.348 . S
C157 C156 1.359 . S
C157 C158 1.380 . S
C157 H180 0.929 . S
C158 C157 1.380 . S
C158 C159 1.347 . S
C158 H181 0.931 . S
C159 C158 1.347 . S
C159 C160 1.369 . S
C160 C159 1.369 . S
C160 C161 1.408 . S
C160 H182 0.930 . S
C161 C156 1.348 . S
C161 C160 1.408 . S
C161 H183 0.930 . S
C162 O172 1.281 . S
C162 O173 1.254 . S
C163 O174 1.236 . S
C163 O175 1.266 . S
O164 Tb144 2.484 . S
O164 C146 1.248 . S
O165 Tb144 2.440 . S
O165 C146 1.266 . S
O166 Tb144 2.658 1_565 S
O166 Tb145 2.325 1_564 S
O166 C153 1.281 . S
O167 Tb144 2.409 1_565 S
O167 C153 1.254 . S
O168 Tb144 2.378 . S
O168 C154 1.236 . S
O169 Tb145 2.341 1_554 S
O169 C154 1.266 . S
O170 Tb145 2.484 1_565 S
O170 C155 1.248 . S
O171 Tb145 2.440 1_565 S
O171 C155 1.266 . S
O172 Tb144 2.325 1_556 S
O172 Tb145 2.658 . S
O172 C162 1.281 . S
O173 Tb145 2.409 . S
O173 C162 1.254 . S
O174 Tb145 2.378 1_565 S
O174 C163 1.236 . S
O175 Tb144 2.341 1_566 S
O175 C163 1.266 . S
H176 C148 0.929 . S
H177 C149 0.931 . S
H178 C151 0.930 . S
H179 C152 0.930 . S
H180 C157 0.929 . S
H181 C158 0.931 . S
H182 C160 0.930 . S
H183 C161 0.930 . S
Tb184 C186 2.809 . S
Tb184 O204 2.484 . S
Tb184 O205 2.440 . S
Tb184 O206 2.658 . S
Tb184 O207 2.409 . S
Tb184 O208 2.378 . S
Tb184 O212 2.325 . S
Tb184 O215 2.341 . S
Tb185 C195 2.809 . S
Tb185 O206 2.325 . S
Tb185 O209 2.341 . S
Tb185 O210 2.484 . S
Tb185 O211 2.440 . S
Tb185 O212 2.658 . S
Tb185 O213 2.409 . S
Tb185 O214 2.378 . S
C186 Tb184 2.809 . S
C186 C187 1.514 . S
C186 O204 1.248 . S
C186 O205 1.266 . S
C187 C186 1.514 . S
C187 C188 1.359 . S
C187 C192 1.348 . S
C188 C187 1.359 . S
C188 C189 1.380 . S
C188 H216 0.929 . S
C189 C188 1.380 . S
C189 C190 1.347 . S
C189 H217 0.931 . S
C190 C189 1.347 . S
C190 C191 1.369 . S
C191 C190 1.369 . S
C191 C192 1.408 . S
C191 H218 0.930 . S
C192 C187 1.348 . S
C192 C191 1.408 . S
C192 H219 0.930 . S
C193 O206 1.281 . S
C193 O207 1.254 . S
C194 O208 1.236 . S
C194 O209 1.266 . S
C195 Tb185 2.809 . S
C195 C196 1.514 . S
C195 O210 1.248 . S
C195 O211 1.266 . S
C196 C195 1.514 . S
C196 C197 1.359 . S
C196 C201 1.348 . S
C197 C196 1.359 . S
C197 C198 1.380 . S
C197 H220 0.929 . S
C198 C197 1.380 . S
C198 C199 1.347 . S
C198 H221 0.931 . S
C199 C198 1.347 . S
C199 C200 1.369 . S
C200 C199 1.369 . S
C200 C201 1.408 . S
C200 H222 0.930 . S
C201 C196 1.348 . S
C201 C200 1.408 . S
C201 H223 0.930 . S
C202 O212 1.281 . S
C202 O213 1.254 . S
C203 O214 1.236 . S
C203 O215 1.266 . S
O204 Tb184 2.484 . S
O204 C186 1.248 . S
O205 Tb184 2.440 . S
O205 C186 1.266 . S
O206 Tb184 2.658 . S
O206 Tb185 2.325 . S
O206 C193 1.281 . S
O207 Tb184 2.409 . S
O207 C193 1.254 . S
O208 Tb184 2.378 . S
O208 C194 1.236 . S
O209 Tb185 2.341 . S
O209 C194 1.266 . S
O210 Tb185 2.484 . S
O210 C195 1.248 . S
O211 Tb185 2.440 . S
O211 C195 1.266 . S
O212 Tb184 2.325 . S
O212 Tb185 2.658 . S
O212 C202 1.281 . S
O213 Tb185 2.409 . S
O213 C202 1.254 . S
O214 Tb185 2.378 . S
O214 C203 1.236 . S
O215 Tb184 2.341 . S
O215 C203 1.266 . S
H216 C188 0.929 . S
H217 C189 0.931 . S
H218 C191 0.930 . S
H219 C192 0.930 . S
H220 C197 0.929 . S
H221 C198 0.931 . S
H222 C200 0.930 . S
H223 C201 0.930 . S
Tb224 C226 2.809 1_455 S
Tb224 O244 2.484 1_455 S
Tb224 O245 2.440 . S
Tb224 O246 2.658 . S
Tb224 O247 2.409 . S
Tb224 O248 2.378 1_455 S
Tb224 O252 2.325 1_455 S
Tb224 O255 2.341 1_554 S
Tb225 C235 2.809 . S
Tb225 O246 2.325 . S
Tb225 O249 2.341 1_455 S
Tb225 O250 2.484 . S
Tb225 O251 2.440 . S
Tb225 O252 2.658 1_455 S
Tb225 O253 2.409 1_455 S
Tb225 O254 2.378 . S
C226 Tb224 2.809 1_655 S
C226 C227 1.514 . S
C226 O244 1.248 . S
C226 O245 1.266 1_655 S
C227 C226 1.514 . S
C227 C228 1.359 1_554 S
C227 C232 1.348 . S
C228 C227 1.359 1_556 S
C228 C229 1.380 . S
C228 H256 0.929 . S
C229 C228 1.380 . S
C229 C230 1.347 . S
C229 H257 0.931 . S
C230 C229 1.347 . S
C230 C231 1.368 1_556 S
C231 C230 1.368 1_554 S
C231 C232 1.409 . S
C231 H258 0.931 . S
C232 C227 1.348 . S
C232 C231 1.409 . S
C232 H259 0.930 . S
C233 O246 1.281 . S
C233 O247 1.254 . S
C234 O248 1.236 . S
C234 O249 1.266 . S
C235 Tb225 2.809 . S
C235 C236 1.514 . S
C235 O250 1.248 . S
C235 O251 1.266 . S
C236 C235 1.514 . S
C236 C237 1.359 . S
C236 C241 1.348 . S
C237 C236 1.359 . S
C237 C238 1.380 . S
C237 H260 0.929 . S
C238 C237 1.380 . S
C238 C239 1.347 . S
C238 H261 0.931 . S
C239 C238 1.347 . S
C239 C240 1.369 . S
C240 C239 1.369 . S
C240 C241 1.408 . S
C240 H262 0.930 . S
C241 C236 1.348 . S
C241 C240 1.408 . S
C241 H263 0.930 . S
C242 O252 1.281 . S
C242 O253 1.254 . S
C243 O254 1.228 1_556 S
C243 O255 1.268 . S
O244 Tb224 2.484 1_655 S
O244 C226 1.248 . S
O245 Tb224 2.440 . S
O245 C226 1.266 1_455 S
O246 Tb224 2.658 . S
O246 Tb225 2.325 . S
O246 C233 1.281 . S
O247 Tb224 2.409 . S
O247 C233 1.254 . S
O248 Tb224 2.378 1_655 S
O248 C234 1.236 . S
O249 Tb225 2.341 1_655 S
O249 C234 1.266 . S
O250 Tb225 2.484 . S
O250 C235 1.248 . S
O251 Tb225 2.440 . S
O251 C235 1.266 . S
O252 Tb224 2.325 1_655 S
O252 Tb225 2.658 1_655 S
O252 C242 1.281 . S
O253 Tb225 2.409 1_655 S
O253 C242 1.254 . S
O254 Tb225 2.378 . S
O254 C243 1.228 1_554 S
O255 Tb224 2.341 1_556 S
O255 C243 1.268 . S
H256 C228 0.929 . S
H257 C229 0.931 . S
H258 C231 0.931 . S
H259 C232 0.930 . S
H260 C237 0.929 . S
H261 C238 0.931 . S
H262 C240 0.930 . S
H263 C241 0.930 . S
C264 C265 1.363 . S
C264 C270 1.379 . S
C264 N272 1.356 . S
C265 C264 1.363 . S
C265 C271 1.363 . S
C266 C267 1.363 . S
C266 C271 1.379 . S
C266 N273 1.356 . S
C267 C266 1.363 . S
C267 C270 1.363 . S
N268 C270 1.356 . S
N268 H280 0.984 . S
N268 H281 0.985 . S
N269 C271 1.356 . S
N269 H274 0.984 . S
N269 H275 0.985 . S
C270 C264 1.379 . S
C270 C267 1.363 . S
C270 N268 1.356 . S
C271 C265 1.363 . S
C271 C266 1.379 . S
C271 N269 1.356 . S
N272 C264 1.356 . S
N272 H278 0.984 . S
N272 H279 0.984 . S
N273 C266 1.356 . S
N273 H276 0.984 . S
N273 H277 0.985 . S
H274 N269 0.984 . S
H275 N269 0.985 . S
H276 N273 0.984 . S
H277 N273 0.985 . S
H278 N272 0.984 . S
H279 N272 0.984 . S
H280 N268 0.984 . S
H281 N268 0.985 . S
C282 C283 1.363 . S
C282 C288 1.379 . S
C282 N290 1.356 . S
C283 C282 1.363 . S
C283 C289 1.363 . S
C284 C285 1.363 . S
C284 C289 1.379 . S
C284 N291 1.356 . S
C285 C284 1.363 . S
C285 C288 1.363 . S
N286 C288 1.356 . S
N286 H298 0.984 . S
N286 H299 0.985 . S
N287 C289 1.356 . S
N287 H292 0.984 . S
N287 H293 0.985 . S
C288 C282 1.379 . S
C288 C285 1.363 . S
C288 N286 1.356 . S
C289 C283 1.363 . S
C289 C284 1.379 . S
C289 N287 1.356 . S
N290 C282 1.356 . S
N290 H296 0.984 . S
N290 H297 0.984 . S
N291 C284 1.356 . S
N291 H294 0.984 . S
N291 H295 0.985 . S
H292 N287 0.984 . S
H293 N287 0.985 . S
H294 N291 0.984 . S
H295 N291 0.985 . S
H296 N290 0.984 . S
H297 N290 0.984 . S
H298 N286 0.984 . S
H299 N286 0.985 . S
C300 C301 1.363 . S
C300 C306 1.379 . S
C300 N308 1.356 . S
C301 C300 1.363 . S
C301 C307 1.363 . S
C302 C303 1.363 . S
C302 C307 1.379 . S
C302 N309 1.356 . S
C303 C302 1.363 . S
C303 C306 1.363 . S
N304 C306 1.356 . S
N304 H316 0.984 . S
N304 H317 0.985 . S
N305 C307 1.356 . S
N305 H310 0.984 . S
N305 H311 0.985 . S
C306 C300 1.379 . S
C306 C303 1.363 . S
C306 N304 1.356 . S
C307 C301 1.363 . S
C307 C302 1.379 . S
C307 N305 1.356 . S
N308 C300 1.356 . S
N308 H314 0.984 . S
N308 H315 0.984 . S
N309 C302 1.356 . S
N309 H312 0.984 . S
N309 H313 0.985 . S
H310 N305 0.984 . S
H311 N305 0.985 . S
H312 N309 0.984 . S
H313 N309 0.985 . S
H314 N308 0.984 . S
H315 N308 0.984 . S
H316 N304 0.984 . S
H317 N304 0.985 . S
C318 C319 1.363 . S
C318 C324 1.379 . S
C318 N326 1.356 . S
C319 C318 1.363 . S
C319 C325 1.363 . S
C320 C321 1.363 . S
C320 C325 1.379 . S
C320 N327 1.356 . S
C321 C320 1.363 . S
C321 C324 1.363 . S
N322 C324 1.356 . S
N322 H334 0.984 . S
N322 H335 0.985 . S
N323 C325 1.356 . S
N323 H328 0.984 . S
N323 H329 0.985 . S
C324 C318 1.379 . S
C324 C321 1.363 . S
C324 N322 1.356 . S
C325 C319 1.363 . S
C325 C320 1.379 . S
C325 N323 1.356 . S
N326 C318 1.356 . S
N326 H332 0.984 . S
N326 H333 0.984 . S
N327 C320 1.356 . S
N327 H330 0.984 . S
N327 H331 0.985 . S
H328 N323 0.984 . S
H329 N323 0.985 . S
H330 N327 0.984 . S
H331 N327 0.985 . S
H332 N326 0.984 . S
H333 N326 0.984 . S
H334 N322 0.984 . S
H335 N322 0.985 . S
C336 C337 1.363 . S
C336 C342 1.379 . S
C336 N344 1.356 . S
C337 C336 1.363 . S
C337 C343 1.363 . S
C338 C339 1.363 . S
C338 C343 1.379 . S
C338 N345 1.356 . S
C339 C338 1.363 . S
C339 C342 1.363 . S
N340 C342 1.356 . S
N340 H352 0.984 . S
N340 H353 0.985 . S
N341 C343 1.356 . S
N341 H346 0.984 . S
N341 H347 0.985 . S
C342 C336 1.379 . S
C342 C339 1.363 . S
C342 N340 1.356 . S
C343 C337 1.363 . S
C343 C338 1.379 . S
C343 N341 1.356 . S
N344 C336 1.356 . S
N344 H350 0.984 . S
N344 H351 0.984 . S
N345 C338 1.356 . S
N345 H348 0.984 . S
N345 H349 0.985 . S
H346 N341 0.984 . S
H347 N341 0.985 . S
H348 N345 0.984 . S
H349 N345 0.985 . S
H350 N344 0.984 . S
H351 N344 0.984 . S
H352 N340 0.984 . S
H353 N340 0.985 . S
C354 C355 1.363 . S
C354 C360 1.379 1_455 S
C354 N362 1.356 1_455 S
C355 C354 1.363 . S
C355 C361 1.363 . S
C356 C357 1.363 . S
C356 C361 1.379 . S
C356 N363 1.356 . S
C357 C356 1.363 . S
C357 C360 1.363 1_455 S
N358 C360 1.356 . S
N358 H370 0.984 . S
N358 H371 0.985 . S
N359 C361 1.356 . S
N359 H364 0.984 . S
N359 H365 0.985 . S
C360 C354 1.379 1_655 S
C360 C357 1.363 1_655 S
C360 N358 1.356 . S
C361 C355 1.363 . S
C361 C356 1.379 . S
C361 N359 1.356 . S
N362 C354 1.356 1_655 S
N362 H368 0.984 . S
N362 H369 0.984 . S
N363 C356 1.356 . S
N363 H366 0.984 . S
N363 H367 0.985 . S
H364 N359 0.984 . S
H365 N359 0.985 . S
H366 N363 0.984 . S
H367 N363 0.985 . S
H368 N362 0.984 . S
H369 N362 0.984 . S
H370 N358 0.984 . S
H371 N358 0.985 . S
C372 C373 1.363 . S
C372 C378 1.379 . S
C372 N380 1.356 . S
C373 C372 1.363 . S
C373 C379 1.363 . S
C374 C375 1.363 . S
C374 C379 1.379 . S
C374 N381 1.356 . S
C375 C374 1.363 . S
C375 C378 1.363 . S
N376 C378 1.356 1_554 S
N376 H388 0.984 . S
N376 H389 0.985 . S
N377 C379 1.356 . S
N377 H382 0.984 . S
N377 H383 0.985 . S
C378 C372 1.379 . S
C378 C375 1.363 . S
C378 N376 1.356 1_556 S
C379 C373 1.363 . S
C379 C374 1.379 . S
C379 N377 1.356 . S
N380 C372 1.356 . S
N380 H386 0.984 . S
N380 H387 0.984 . S
N381 C374 1.356 . S
N381 H384 0.984 . S
N381 H385 0.985 . S
H382 N377 0.984 . S
H383 N377 0.985 . S
H384 N381 0.984 . S
H385 N381 0.985 . S
H386 N380 0.984 . S
H387 N380 0.984 . S
H388 N376 0.984 . S
H389 N376 0.985 . S
C390 C391 1.363 . S
C390 C396 1.379 . S
C390 N398 1.356 . S
C391 C390 1.363 . S
C391 C397 1.363 . S
C392 C393 1.363 . S
C392 C397 1.379 . S
C392 N399 1.356 . S
C393 C392 1.363 . S
C393 C396 1.363 . S
N394 C396 1.356 . S
N394 H406 0.984 . S
N394 H407 0.985 . S
N395 C397 1.356 . S
N395 H400 0.984 . S
N395 H401 0.985 . S
C396 C390 1.379 . S
C396 C393 1.363 . S
C396 N394 1.356 . S
C397 C391 1.363 . S
C397 C392 1.379 . S
C397 N395 1.356 . S
N398 C390 1.356 . S
N398 H404 0.984 . S
N398 H405 0.984 . S
N399 C392 1.356 . S
N399 H402 0.984 . S
N399 H403 0.985 . S
H400 N395 0.984 . S
H401 N395 0.985 . S
H402 N399 0.984 . S
H403 N399 0.985 . S
H404 N398 0.984 . S
H405 N398 0.984 . S
H406 N394 0.984 . S
H407 N394 0.985 . S
C408 C409 1.363 . S
C408 C414 1.379 . S
C408 N416 1.356 . S
C409 C408 1.363 . S
C409 C415 1.363 . S
C410 C411 1.363 . S
C410 C415 1.379 . S
C410 N417 1.356 . S
C411 C410 1.363 . S
C411 C414 1.363 . S
N412 C414 1.356 . S
N412 H424 0.984 . S
N412 H425 0.985 . S
N413 C415 1.356 . S
N413 H418 0.984 . S
N413 H419 0.985 . S
C414 C408 1.379 . S
C414 C411 1.363 . S
C414 N412 1.356 . S
C415 C409 1.363 . S
C415 C410 1.379 . S
C415 N413 1.356 . S
N416 C408 1.356 . S
N416 H422 0.984 . S
N416 H423 0.984 . S
N417 C410 1.356 . S
N417 H420 0.984 . S
N417 H421 0.985 . S
H418 N413 0.984 . S
H419 N413 0.985 . S
H420 N417 0.984 . S
H421 N417 0.985 . S
H422 N416 0.984 . S
H423 N416 0.984 . S
H424 N412 0.984 . S
H425 N412 0.985 . S
C426 C427 1.363 . S
C426 C432 1.379 . S
C426 N434 1.356 . S
C427 C426 1.363 . S
C427 C433 1.363 . S
C428 C429 1.363 . S
C428 C433 1.379 . S
C428 N435 1.356 . S
C429 C428 1.363 . S
C429 C432 1.363 . S
N430 C432 1.356 . S
N430 H442 0.984 . S
N430 H443 0.985 . S
N431 C433 1.356 . S
N431 H436 0.984 . S
N431 H437 0.985 . S
C432 C426 1.379 . S
C432 C429 1.363 . S
C432 N430 1.356 . S
C433 C427 1.363 . S
C433 C428 1.379 . S
C433 N431 1.356 . S
N434 C426 1.356 . S
N434 H440 0.984 . S
N434 H441 0.984 . S
N435 C428 1.356 . S
N435 H438 0.984 . S
N435 H439 0.985 1_556 S
H436 N431 0.984 . S
H437 N431 0.985 . S
H438 N435 0.984 . S
H439 N435 0.985 1_554 S
H440 N434 0.984 . S
H441 N434 0.984 . S
H442 N430 0.984 . S
H443 N430 0.985 . S
C444 C445 1.363 . S
C444 C450 1.379 . S
C444 N452 1.356 . S
C445 C444 1.363 . S
C445 C451 1.363 . S
C446 C447 1.363 . S
C446 C451 1.379 . S
C446 N453 1.356 . S
C447 C446 1.363 . S
C447 C450 1.363 . S
N448 C450 1.356 1_455 S
N448 H460 0.984 . S
N448 H461 0.985 . S
N449 C451 1.356 . S
N449 H454 0.984 . S
N449 H455 0.985 . S
C450 C444 1.379 . S
C450 C447 1.363 . S
C450 N448 1.356 1_655 S
C451 C445 1.363 . S
C451 C446 1.379 . S
C451 N449 1.356 . S
N452 C444 1.356 . S
N452 H458 0.984 1_655 S
N452 H459 0.984 . S
N453 C446 1.356 . S
N453 H456 0.984 . S
N453 H457 0.985 . S
H454 N449 0.984 . S
H455 N449 0.985 . S
H456 N453 0.984 . S
H457 N453 0.985 . S
H458 N452 0.984 1_455 S
H459 N452 0.984 . S
H460 N448 0.984 . S
H461 N448 0.985 . S
C462 C463 1.363 . S
C462 C468 1.379 . S
C462 N470 1.356 . S
C463 C462 1.363 . S
C463 C469 1.363 . S
C464 C465 1.363 . S
C464 C469 1.379 . S
C464 N471 1.356 . S
C465 C464 1.363 . S
C465 C468 1.363 . S
N466 C468 1.356 . S
N466 H478 0.984 . S
N466 H479 0.985 . S
N467 C469 1.356 . S
N467 H472 0.984 . S
N467 H473 0.985 . S
C468 C462 1.379 . S
C468 C465 1.363 . S
C468 N466 1.356 . S
C469 C463 1.363 . S
C469 C464 1.379 . S
C469 N467 1.356 . S
N470 C462 1.356 . S
N470 H476 0.984 . S
N470 H477 0.984 . S
N471 C464 1.356 . S
N471 H474 0.984 . S
N471 H475 0.985 . S
H472 N467 0.984 . S
H473 N467 0.985 . S
H474 N471 0.984 . S
H475 N471 0.985 . S
H476 N470 0.984 . S
H477 N470 0.984 . S
H478 N466 0.984 . S
H479 N466 0.985 . S
C480 C481 1.363 . S
C480 C486 1.379 . S
C480 N488 1.356 . S
C481 C480 1.363 . S
C481 C487 1.363 . S
C482 C483 1.363 . S
C482 C487 1.379 . S
C482 N489 1.356 . S
C483 C482 1.363 . S
C483 C486 1.363 . S
N484 C486 1.356 . S
N484 H496 0.984 . S
N484 H497 0.985 . S
N485 C487 1.356 . S
N485 H490 0.984 . S
N485 H491 0.985 . S
C486 C480 1.379 . S
C486 C483 1.363 . S
C486 N484 1.356 . S
C487 C481 1.363 . S
C487 C482 1.379 . S
C487 N485 1.356 . S
N488 C480 1.356 . S
N488 H494 0.984 . S
N488 H495 0.984 . S
N489 C482 1.356 . S
N489 H492 0.984 . S
N489 H493 0.985 . S
H490 N485 0.984 . S
H491 N485 0.985 . S
H492 N489 0.984 . S
H493 N489 0.985 . S
H494 N488 0.984 . S
H495 N488 0.984 . S
H496 N484 0.984 . S
H497 N484 0.985 . S
C498 C499 1.363 . S
C498 C504 1.379 . S
C498 N506 1.356 . S
C499 C498 1.363 . S
C499 C505 1.363 . S
C500 C501 1.363 . S
C500 C505 1.379 . S
C500 N507 1.356 . S
C501 C500 1.363 . S
C501 C504 1.363 . S
N502 C504 1.356 . S
N502 H514 0.984 . S
N502 H515 0.985 . S
N503 C505 1.356 . S
N503 H508 0.984 . S
N503 H509 0.985 . S
C504 C498 1.379 . S
C504 C501 1.363 . S
C504 N502 1.356 . S
C505 C499 1.363 . S
C505 C500 1.379 . S
C505 N503 1.356 . S
N506 C498 1.356 . S
N506 H512 0.984 . S
N506 H513 0.984 . S
N507 C500 1.356 . S
N507 H510 0.984 . S
N507 H511 0.985 . S
H508 N503 0.984 . S
H509 N503 0.985 . S
H510 N507 0.984 . S
H511 N507 0.985 . S
H512 N506 0.984 . S
H513 N506 0.984 . S
H514 N502 0.984 . S
H515 N502 0.985 . S
C516 C517 1.363 . S
C516 C522 1.379 . S
C516 N524 1.356 . S
C517 C516 1.363 . S
C517 C523 1.363 . S
C518 C519 1.363 . S
C518 C523 1.379 . S
C518 N525 1.356 . S
C519 C518 1.363 . S
C519 C522 1.363 . S
N520 C522 1.356 . S
N520 H532 0.984 . S
N520 H533 0.985 . S
N521 C523 1.356 . S
N521 H526 0.984 . S
N521 H527 0.985 . S
C522 C516 1.379 . S
C522 C519 1.363 . S
C522 N520 1.356 . S
C523 C517 1.363 . S
C523 C518 1.379 . S
C523 N521 1.356 . S
N524 C516 1.356 . S
N524 H530 0.984 . S
N524 H531 0.984 . S
N525 C518 1.356 . S
N525 H528 0.984 . S
N525 H529 0.985 . S
H526 N521 0.984 . S
H527 N521 0.985 . S
H528 N525 0.984 . S
H529 N525 0.985 . S
H530 N524 0.984 . S
H531 N524 0.984 . S
H532 N520 0.984 . S
H533 N520 0.985 . S
C534 C535 1.363 . S
C534 C540 1.379 . S
C534 N542 1.356 . S
C535 C534 1.363 . S
C535 C541 1.363 . S
C536 C537 1.363 . S
C536 C541 1.379 . S
C536 N543 1.356 . S
C537 C536 1.363 . S
C537 C540 1.363 . S
N538 C540 1.356 . S
N538 H550 0.984 . S
N538 H551 0.985 . S
N539 C541 1.356 . S
N539 H544 0.984 . S
N539 H545 0.985 . S
C540 C534 1.379 . S
C540 C537 1.363 . S
C540 N538 1.356 . S
C541 C535 1.363 . S
C541 C536 1.379 . S
C541 N539 1.356 . S
N542 C534 1.356 . S
N542 H548 0.984 . S
N542 H549 0.984 . S
N543 C536 1.356 . S
N543 H546 0.984 . S
N543 H547 0.985 . S
H544 N539 0.984 . S
H545 N539 0.985 . S
H546 N543 0.984 . S
H547 N543 0.985 . S
H548 N542 0.984 . S
H549 N542 0.984 . S
H550 N538 0.984 . S
H551 N538 0.985 . S
C552 C553 1.363 . S
C552 C558 1.379 . S
C552 N560 1.356 . S
C553 C552 1.363 . S
C553 C559 1.363 . S
C554 C555 1.363 . S
C554 C559 1.379 . S
C554 N561 1.356 . S
C555 C554 1.363 . S
C555 C558 1.363 . S
N556 C558 1.356 . S
N556 H568 0.984 . S
N556 H569 0.985 . S
N557 C559 1.356 . S
N557 H562 0.984 . S
N557 H563 0.985 . S
C558 C552 1.379 . S
C558 C555 1.363 . S
C558 N556 1.356 . S
C559 C553 1.363 . S
C559 C554 1.379 . S
C559 N557 1.356 . S
N560 C552 1.356 . S
N560 H566 0.984 . S
N560 H567 0.984 . S
N561 C554 1.356 . S
N561 H564 0.984 . S
N561 H565 0.985 1_556 S
H562 N557 0.984 . S
H563 N557 0.985 . S
H564 N561 0.984 . S
H565 N561 0.985 1_554 S
H566 N560 0.984 . S
H567 N560 0.984 . S
H568 N556 0.984 . S
H569 N556 0.985 . S
C570 C571 1.363 . S
C570 C576 1.379 . S
C570 N578 1.356 . S
C571 C570 1.363 . S
C571 C577 1.363 . S
C572 C573 1.363 . S
C572 C577 1.379 1_655 S
C572 N579 1.356 . S
C573 C572 1.363 . S
C573 C576 1.363 1_655 S
N574 C576 1.356 . S
N574 H586 0.984 . S
N574 H587 0.985 1_455 S
N575 C577 1.356 . S
N575 H580 0.984 . S
N575 H581 0.985 1_455 S
C576 C570 1.379 . S
C576 C573 1.363 1_455 S
C576 N574 1.356 . S
C577 C571 1.363 . S
C577 C572 1.379 1_455 S
C577 N575 1.356 . S
N578 C570 1.356 . S
N578 H584 0.984 . S
N578 H585 0.984 . S
N579 C572 1.356 . S
N579 H582 0.984 . S
N579 H583 0.985 . S
H580 N575 0.984 . S
H581 N575 0.985 1_655 S
H582 N579 0.984 . S
H583 N579 0.985 . S
H584 N578 0.984 . S
H585 N578 0.984 . S
H586 N574 0.984 . S
H587 N574 0.985 1_655 S
C588 C589 1.363 . S
C588 C594 1.379 . S
C588 N596 1.356 . S
C589 C588 1.363 . S
C589 C595 1.363 . S
C590 C591 1.363 . S
C590 C595 1.379 . S
C590 N597 1.356 . S
C591 C590 1.363 . S
C591 C594 1.363 . S
N592 C594 1.356 . S
N592 H604 0.984 . S
N592 H605 0.985 . S
N593 C595 1.356 . S
N593 H598 0.984 . S
N593 H599 0.985 . S
C594 C588 1.379 . S
C594 C591 1.363 . S
C594 N592 1.356 . S
C595 C589 1.363 . S
C595 C590 1.379 . S
C595 N593 1.356 . S
N596 C588 1.356 . S
N596 H602 0.984 . S
N596 H603 0.984 . S
N597 C590 1.356 . S
N597 H600 0.984 . S
N597 H601 0.985 . S
H598 N593 0.984 . S
H599 N593 0.985 . S
H600 N597 0.984 . S
H601 N597 0.985 . S
H602 N596 0.984 . S
H603 N596 0.984 . S
H604 N592 0.984 . S
H605 N592 0.985 . S
C606 C607 1.363 . S
C606 C612 1.379 . S
C606 N614 1.356 . S
C607 C606 1.363 . S
C607 C613 1.363 . S
C608 C609 1.363 . S
C608 C613 1.379 . S
C608 N615 1.356 . S
C609 C608 1.363 . S
C609 C612 1.363 . S
N610 C612 1.356 . S
N610 H622 0.984 . S
N610 H623 0.985 . S
N611 C613 1.356 . S
N611 H616 0.984 . S
N611 H617 0.985 . S
C612 C606 1.379 . S
C612 C609 1.363 . S
C612 N610 1.356 . S
C613 C607 1.363 . S
C613 C608 1.379 . S
C613 N611 1.356 . S
N614 C606 1.356 . S
N614 H620 0.984 . S
N614 H621 0.984 . S
N615 C608 1.356 . S
N615 H618 0.984 . S
N615 H619 0.985 . S
H616 N611 0.984 . S
H617 N611 0.985 . S
H618 N615 0.984 . S
H619 N615 0.985 . S
H620 N614 0.984 . S
H621 N614 0.984 . S
H622 N610 0.984 . S
H623 N610 0.985 . S
C624 C625 1.363 . S
C624 C630 1.379 . S
C624 N632 1.356 . S
C625 C624 1.363 . S
C625 C631 1.363 . S
C626 C627 1.363 . S
C626 C631 1.379 . S
C626 N633 1.356 . S
C627 C626 1.363 . S
C627 C630 1.363 . S
N628 C630 1.356 . S
N628 H640 0.984 . S
N628 H641 0.985 1_556 S
N629 C631 1.356 . S
N629 H634 0.984 . S
N629 H635 0.985 . S
C630 C624 1.379 . S
C630 C627 1.363 . S
C630 N628 1.356 . S
C631 C625 1.363 . S
C631 C626 1.379 . S
C631 N629 1.356 . S
N632 C624 1.356 . S
N632 H638 0.984 . S
N632 H639 0.984 . S
N633 C626 1.356 . S
N633 H636 0.984 . S
N633 H637 0.985 . S
H634 N629 0.984 . S
H635 N629 0.985 . S
H636 N633 0.984 . S
H637 N633 0.985 . S
H638 N632 0.984 . S
H639 N632 0.984 . S
H640 N628 0.984 . S
H641 N628 0.985 1_554 S
C642 C643 1.363 . S
C642 C648 1.379 . S
C642 N650 1.356 . S
C643 C642 1.363 . S
C643 C649 1.363 . S
C644 C645 1.363 . S
C644 C649 1.379 . S
C644 N651 1.356 . S
C645 C644 1.363 . S
C645 C648 1.363 . S
N646 C648 1.356 . S
N646 H658 0.984 . S
N646 H659 0.985 . S
N647 C649 1.356 . S
N647 H652 0.984 . S
N647 H653 0.985 . S
C648 C642 1.379 . S
C648 C645 1.363 . S
C648 N646 1.356 . S
C649 C643 1.363 . S
C649 C644 1.379 . S
C649 N647 1.356 . S
N650 C642 1.356 . S
N650 H656 0.984 . S
N650 H657 0.984 . S
N651 C644 1.356 . S
N651 H654 0.984 . S
N651 H655 0.985 . S
H652 N647 0.984 . S
H653 N647 0.985 . S
H654 N651 0.984 . S
H655 N651 0.985 . S
H656 N650 0.984 . S
H657 N650 0.984 . S
H658 N646 0.984 . S
H659 N646 0.985 . S
C660 C661 1.363 . S
C660 C666 1.379 . S
C660 N668 1.356 . S
C661 C660 1.363 . S
C661 C667 1.363 . S
C662 C663 1.363 . S
C662 C667 1.379 . S
C662 N669 1.356 . S
C663 C662 1.363 . S
C663 C666 1.363 . S
N664 C666 1.356 . S
N664 H676 0.984 . S
N664 H677 0.985 . S
N665 C667 1.356 . S
N665 H670 0.984 . S
N665 H671 0.985 . S
C666 C660 1.379 . S
C666 C663 1.363 . S
C666 N664 1.356 . S
C667 C661 1.363 . S
C667 C662 1.379 . S
C667 N665 1.356 . S
N668 C660 1.356 . S
N668 H674 0.984 . S
N668 H675 0.984 . S
N669 C662 1.356 . S
N669 H672 0.984 . S
N669 H673 0.985 . S
H670 N665 0.984 . S
H671 N665 0.985 . S
H672 N669 0.984 . S
H673 N669 0.985 . S
H674 N668 0.984 . S
H675 N668 0.984 . S
H676 N664 0.984 . S
H677 N664 0.985 . S
C678 C679 1.363 . S
C678 C684 1.379 . S
C678 N686 1.356 . S
C679 C678 1.363 . S
C679 C685 1.363 . S
C680 C681 1.363 . S
C680 C685 1.379 . S
C680 N687 1.356 . S
C681 C680 1.363 . S
C681 C684 1.363 . S
N682 C684 1.356 . S
N682 H694 0.984 . S
N682 H695 0.985 . S
N683 C685 1.356 . S
N683 H688 0.984 . S
N683 H689 0.985 . S
C684 C678 1.379 . S
C684 C681 1.363 . S
C684 N682 1.356 . S
C685 C679 1.363 . S
C685 C680 1.379 . S
C685 N683 1.356 . S
N686 C678 1.356 . S
N686 H692 0.984 . S
N686 H693 0.984 . S
N687 C680 1.356 . S
N687 H690 0.984 . S
N687 H691 0.985 . S
H688 N683 0.984 . S
H689 N683 0.985 . S
H690 N687 0.984 . S
H691 N687 0.985 . S
H692 N686 0.984 . S
H693 N686 0.984 . S
H694 N682 0.984 . S
H695 N682 0.985 . S
C265 C9 1.522 . S
C267 C119 1.579 . S
C283 C21 1.126 . S
C285 C159 1.191 . S
C303 C193 2.233 . S
C301 C30 2.217 . S
C319 C43 2.411 . S
C321 C234 2.450 . S
C339 C154 1.506 . S
C337 C4 1.257 . S
C357 C114 2.368 . S
C355 C22 2.218 . S
C375 C242 1.555 1_556 S
C373 C34 1.543 . S
C393 C203 1.735 . S
C391 C48 1.807 . S
C409 C8 1.664 . S
C411 C239 1.719 . S
C429 C162 2.009 . S
C427 C35 2.066 . S
C445 C47 2.557 . S
C447 C122 2.418 . S
C463 C17 1.634 . S
C465 C190 1.681 . S
C483 C110 1.198 . S
C481 C60 1.191 . S
C499 C74 1.063 . S
C501 C150 1.098 . S
C517 C82 1.816 . S
C519 C202 1.928 . S
C535 C100 3.027 . S
C537 C243 2.937 . S
C553 C61 1.639 . S
C555 C163 1.752 . S
C573 C123 1.925 . S
C571 C73 1.743 . S
C591 C233 1.831 . S
C589 C87 1.897 . S
C609 C194 1.697 . S
C607 C95 1.830 . S
C625 C56 1.443 . S
C627 C230 1.404 . S
C645 C153 2.222 . S
C643 C86 2.273 . S
C663 C113 2.479 . S
C661 C99 2.562 . S
C679 C69 1.212 . S
C681 C199 1.470 . S
